data_POSCAR
  _audit_creation_date              2014-09-24
  _audit_creation_method            'ToBaCCo'
  _symmetry_space_group_name_H-M    'P1'
  _symmetry_Int_Tables_number       1
  _symmetry_cell_setting            triclinic
  loop_
  _symmetry_equiv_pos_as_xyz
 x,y,z
_cell_length_a 87.7430
_cell_length_b 87.5951
_cell_length_c 87.6139
_cell_angle_alpha 89.994700
_cell_angle_beta 90.055100
_cell_angle_gamma 89.997400
loop_
  _atom_site_label
  _atom_site_type_symbol
  _atom_site_fract_x
  _atom_site_fract_y
  _atom_site_fract_z
C1 C 0.30732 0.44305 0.92300
 C2 C 0.32034 0.44964 0.92966
 C3 C 0.32699 0.44338 0.94291
 C4 C 0.32018 0.43041 0.94955
 C5 C 0.30717 0.42364 0.94307
 C6 C 0.30080 0.43010 0.92984
 H7 H 0.32543 0.45956 0.92433
 H8 H 0.32514 0.42537 0.95969
 H9 H 0.29085 0.42489 0.92472
 C10 C 0.44292 0.82743 0.44278
 C11 C 0.44917 0.82094 0.42946
 C12 C 0.44262 0.80797 0.42266
 C13 C 0.42971 0.80133 0.42942
 C14 C 0.42325 0.80754 0.44271
 C15 C 0.42999 0.82051 0.44934
 H16 H 0.45907 0.82610 0.42420
 H17 H 0.42452 0.79141 0.42419
 H18 H 0.42495 0.82535 0.45953
 C19 C 0.94175 0.92245 0.80816
 C20 C 0.94848 0.92923 0.82105
 C21 C 0.94217 0.94240 0.82780
 C22 C 0.92898 0.94883 0.82121
 C23 C 0.92207 0.94223 0.80832
 C24 C 0.92859 0.92909 0.80186
 H25 H 0.95857 0.92406 0.82597
 H26 H 0.92390 0.95891 0.82624
 H27 H 0.92328 0.92387 0.79199
 C28 C 0.44366 -0.07651 0.30637
 C29 C 0.45030 -0.06980 0.31934
 C30 C 0.44408 -0.05655 0.32589
 C31 C 0.43112 -0.04991 0.31918
 C32 C 0.42428 -0.05643 0.30621
 C33 C 0.43070 -0.06968 0.29985
 H34 H 0.46021 -0.07505 0.32450
 H35 H 0.42617 -0.03978 0.32423
 H36 H 0.42544 -0.07485 0.28993
 C37 C 0.80796 0.30777 0.32693
 C38 C 0.82117 0.30139 0.32047
 C39 C 0.82812 0.30805 0.30765
 C40 C 0.82159 0.32121 0.30119
 C41 C 0.80839 0.32779 0.30745
 C42 C 0.80163 0.32093 0.32027
 H43 H 0.82618 0.29132 0.32558
 H44 H 0.82693 0.32648 0.29138
 H45 H 0.79152 0.32598 0.32524
 C46 C -0.19150 0.82884 0.80835
 C47 C -0.19821 0.82198 0.82125
 C48 C -0.19191 0.80878 0.82796
 C49 C -0.17876 0.80233 0.82136
 C50 C -0.17187 0.80893 0.80849
 C51 C -0.17835 0.82210 0.80204
 H52 H -0.20829 0.82707 0.82624
 H53 H -0.17370 0.79223 0.82638
 H54 H -0.17299 0.82723 0.79217
 C55 C 0.94320 0.32587 0.44306
 C56 C 0.93027 0.31901 0.44958
 C57 C 0.92358 0.30602 0.44294
 C58 C 0.93011 0.29981 0.42967
 C59 C 0.94304 0.30648 0.42295
 C60 C 0.94954 0.31946 0.42979
 H61 H 0.92525 0.32393 0.45973
 H62 H 0.92496 0.28989 0.42441
 H63 H 0.95943 0.32474 0.42464
 C64 C 0.44196 0.44166 0.82777
 C65 C 0.42874 0.44805 0.82122
 C66 C 0.42179 0.44140 0.80838
 C67 C 0.42830 0.42825 0.80193
 C68 C 0.44150 0.42166 0.80820
 C69 C 0.44827 0.42849 0.82104
 H70 H 0.42367 0.45814 0.82624
 H71 H 0.42296 0.42299 0.79210
 H72 H 0.45839 0.42335 0.82593
 C73 C 0.80644 0.92416 0.94344
 C74 C 0.80019 0.93053 0.93011
 C75 C 0.80678 0.94343 0.92322
 C76 C 0.81973 0.95007 0.92997
 C77 C 0.82618 0.94390 0.94330
 C78 C 0.81939 0.93099 0.94999
 H79 H 0.79029 0.92527 0.92492
 H80 H 0.82495 0.95993 0.92467
 H81 H 0.82435 0.92609 0.96019
 C82 C 0.30730 0.82670 0.30651
 C83 C 0.32057 0.82007 0.30033
 C84 C 0.32724 0.80709 0.30700
 C85 C 0.32039 0.80059 0.31995
 C86 C 0.30716 0.80694 0.32634
 C87 C 0.30066 0.81992 0.31948
 H88 H 0.32590 0.82514 0.29040
 H89 H 0.32553 0.79066 0.32523
 H90 H 0.29051 0.82487 0.32447
 C91 C 0.80735 0.42326 0.44262
 C92 C 0.82033 0.43006 0.44913
 C93 C 0.82711 0.44306 0.44252
 C94 C 0.82047 0.44931 0.42926
 C95 C 0.80748 0.44269 0.42257
 C96 C 0.80098 0.42972 0.42939
 H97 H 0.82529 0.42503 0.45928
 H98 H 0.82553 0.45925 0.42395
 H99 H 0.79105 0.42448 0.42425
 C100 C 0.94295 0.82717 -0.05714
 C101 C 0.93003 0.82022 -0.05058
 C102 C 0.92332 0.80724 -0.05722
 C103 C 0.92979 0.80105 -0.07051
 C104 C 0.94269 0.80772 -0.07727
 C105 C 0.94922 0.82069 -0.07046
 H106 H 0.92498 0.82505 -0.04040
 H107 H 0.92462 0.79113 -0.07575
 H108 H 0.95911 0.82589 -0.07572
 C109 C 0.30854 0.32797 0.80783
 C110 C 0.30174 0.32110 0.82063
 C111 C 0.30805 0.30792 0.82728
 C112 C 0.32126 0.30154 0.82085
 C113 C 0.32825 0.30821 0.80805
 C114 C 0.32175 0.32138 0.80159
 H115 H 0.29163 0.32615 0.82557
 H116 H 0.32626 0.29146 0.82596
 H117 H 0.32711 0.32666 0.79180
 C118 C 0.17180 0.55835 0.55772
 C119 C 0.17867 0.55158 0.57054
 C120 C 0.19189 0.55785 0.57710
 C121 C 0.19833 0.57100 0.57054
 C122 C 0.19166 0.57797 0.55772
 C123 C 0.17843 0.57151 0.55136
 H124 H 0.17358 0.54152 0.57558
 H125 H 0.20845 0.57596 0.57558
 H126 H 0.17316 0.57686 0.54155
 C127 C 0.57805 0.69167 0.05775
 C128 C 0.57146 0.67848 0.05144
 C129 C 0.55828 0.67197 0.05783
 C130 C 0.55162 0.67894 0.07065
 C131 C 0.55802 0.69213 0.07716
 C132 C 0.57119 0.69844 0.07057
 H133 H 0.57672 0.67313 0.04163
 H134 H 0.54154 0.67394 0.07571
 H135 H 0.57626 0.70854 0.07557
 C136 C 0.69270 0.19227 0.67262
 C137 C 0.67980 0.19881 0.67948
 C138 C 0.67346 0.19252 0.69279
 C139 C 0.68030 0.17957 0.69933
 C140 C 0.69323 0.17274 0.69267
 C141 C 0.69937 0.17931 0.67934
 H142 H 0.67453 0.20872 0.67431
 H143 H 0.67535 0.17466 0.70953
 H144 H 0.70926 0.17421 0.67400
 C145 C 1.07827 0.05763 0.19124
 C146 C 1.07174 0.05120 0.17807
 C147 C 1.05853 0.05750 0.17140
 C148 C 1.05182 0.07037 0.17834
 C149 C 1.05817 0.07698 0.19151
 C150 C 1.07135 0.07047 0.19789
 H151 H 1.07712 0.04136 0.17289
 H152 H 1.04171 0.07544 0.17337
 H153 H 1.07637 0.07556 0.20797
 C154 C 0.05859 0.17201 1.05854
 C155 C 0.05197 0.17893 1.07140
 C156 C 0.05835 0.19217 1.07795
 C157 C 0.07149 0.19851 1.07122
 C158 C 0.07828 0.19176 1.05835
 C159 C 0.07170 0.17856 1.05208
 H160 H 0.04192 0.17383 1.07643
 H161 H 0.07662 0.20864 1.07611
 H162 H 0.07692 0.17323 1.04224
 C163 C 0.17322 0.69352 0.69296
 C164 C 0.18007 0.68057 0.69950
 C165 C 0.19304 0.67387 0.69289
 C166 C 0.19925 0.68041 0.67964
 C167 C 0.19260 0.69336 0.67290
 C168 C 0.17963 0.69987 0.67970
 H169 H 0.17514 0.67553 0.70965
 H170 H 0.20917 0.67526 0.67441
 H171 H 0.17436 0.70977 0.67452
 C172 C 1.19264 0.17219 0.19213
 C173 C 1.17981 0.17902 0.19887
 C174 C 1.17321 0.19222 0.19256
 C175 C 1.17973 0.19867 0.17941
 C176 C 1.19256 0.19204 0.17247
 C177 C 1.19897 0.17885 0.17898
 H178 H 1.17479 0.17391 0.20893
 H179 H 1.17465 0.20877 0.17441
 H180 H 1.20879 0.17360 0.17365
 C181 C 0.67144 1.05874 0.55768
 C182 C 0.67809 1.07197 0.55140
 C183 C 0.69130 1.07853 0.55782
 C184 C 0.69796 1.07146 0.57063
 C185 C 0.69156 1.05825 0.57710
 C186 C 0.67839 1.05196 0.57050
 H187 H 0.67284 1.07732 0.54157
 H188 H 0.70806 1.07635 0.57578
 H189 H 0.67343 1.04183 0.57554
 C190 C 0.55675 0.55677 0.17288
 C191 C 0.55009 0.56970 0.17964
 C192 C 0.55630 0.57623 0.19292
 C193 C 0.56928 0.56952 0.19953
 C194 C 0.57614 0.55659 0.19297
 C195 C 0.56973 0.55026 0.17969
 H196 H 0.54016 0.57486 0.17440
 H197 H 0.57422 0.57454 0.20969
 H198 H 0.57500 0.54037 0.17450
 C199 C 0.67343 0.69350 0.19280
 C200 C 0.68030 0.68055 0.19933
 C201 C 0.69324 0.67384 0.19268
 C202 C 0.69941 0.68037 0.17939
 C203 C 0.69274 0.69332 0.17267
 C204 C 0.67979 0.69984 0.17952
 H205 H 0.67540 0.67552 0.20949
 H206 H 0.70930 0.67520 0.17413
 H207 H 0.67451 0.70974 0.17435
 C208 C 0.17043 0.05891 1.05901
 C209 C 0.17714 0.05230 1.07206
 C210 C 0.19020 0.05870 1.07881
 C211 C 0.19670 0.07182 1.07228
 C212 C 0.19027 0.07863 1.05926
 C213 C 0.17721 0.07205 1.05268
 H214 H 0.17209 0.04224 1.07714
 H215 H 0.20670 0.07688 1.07747
 H216 H 0.17220 0.07735 1.04270
 C217 C 0.57756 0.19241 0.55721
 C218 C 0.57094 0.17922 0.55092
 C219 C 0.55779 0.17272 0.55736
 C220 C 0.55117 0.17969 0.57019
 C221 C 0.55760 0.19287 0.57669
 C222 C 0.57075 0.19918 0.57006
 H223 H 0.57617 0.17386 0.54110
 H224 H 0.54111 0.17469 0.57529
 H225 H 0.57584 0.20927 0.57505
 C226 C 0.07643 0.55704 0.69274
 C227 C 0.07006 0.55067 0.67946
 C228 C 0.05709 0.55715 0.67260
 C229 C 0.05040 0.57009 0.67930
 C230 C 0.05657 0.57665 0.69259
 C231 C 0.06954 0.56998 0.69925
 H232 H 0.07535 0.54077 0.67431
 H233 H 0.04048 0.57522 0.67403
 H234 H 0.07444 0.57502 0.70941
 C235 C 0.67201 0.55814 0.05723
 C236 C 0.67884 0.55140 0.07009
 C237 C 0.69202 0.55770 0.07670
 C238 C 0.69846 0.57086 0.07016
 C239 C 0.69183 0.57780 0.05731
 C240 C 0.67865 0.57130 0.05089
 H241 H 0.67375 0.54132 0.07511
 H242 H 0.70854 0.57585 0.07525
 H243 H 0.67340 0.57664 0.04105
 C244 C 0.05798 0.69208 0.57714
 C245 C 0.05154 0.67893 0.57058
 C246 C 0.05821 0.67197 0.55776
 C247 C 0.07144 0.67843 0.55143
 C248 C 0.07807 0.69158 0.55780
 C249 C 0.07120 0.69835 0.57061
 H250 H 0.04142 0.67397 0.57559
 H251 H 0.07671 0.67308 0.54163
 H252 H 0.07629 0.70842 0.57565
 C253 C 0.55761 1.05765 0.67200
 C254 C 0.55099 1.07063 0.67882
 C255 C 0.55716 1.07715 0.69217
 C256 C 0.57007 1.07028 0.69882
 C257 C 0.57687 1.05733 0.69228
 C258 C 0.57052 1.05107 0.67895
 H259 H 0.54109 1.07583 0.67356
 H260 H 0.57504 1.07515 0.70904
 H261 H 0.57582 1.04114 0.67387
 C262 C 0.44353 0.32562 0.94328
 C263 C 0.44988 0.31916 0.93004
 C264 C 0.44336 0.30618 0.92322
 C265 C 0.43040 0.29956 0.92992
 C266 C 0.42386 0.30582 0.94316
 C267 C 0.43057 0.31880 0.94978
 H268 H 0.45979 0.32441 0.92488
 H269 H 0.42524 0.28963 0.92468
 H270 H 0.42554 0.32377 0.95991
 C271 C 0.94188 0.44169 0.32768
 C272 C 0.92867 0.44809 0.32110
 C273 C 0.92177 0.44147 0.30822
 C274 C 0.92832 0.42835 0.30175
 C275 C 0.94149 0.42175 0.30804
 C276 C 0.94822 0.42854 0.32093
 H277 H 0.92357 0.45816 0.32614
 H278 H 0.92302 0.42313 0.29189
 H279 H 0.95832 0.42340 0.32584
 C280 C 0.30610 0.94435 0.42473
 C281 C 0.29962 0.93134 0.43152
 C282 C 0.30611 0.92475 0.44463
 C283 C 0.31918 0.93146 0.45106
 C284 C 0.32585 0.94448 0.44447
 C285 C 0.31916 0.95088 0.43136
 H286 H 0.28963 0.92617 0.42643
 H287 H 0.32432 0.92639 0.46108
 H288 H 0.32430 0.96082 0.42613
 O289 O 0.24899 0.54091 0.73020
 O290 O 0.27497 0.53597 0.73221
 O291 O 0.23054 0.50082 0.70923
 O292 O 0.22996 0.47570 0.71380
 O293 O 0.20917 0.51984 0.74924
 O294 O 0.21484 0.51876 0.77582
 O295 O 0.26985 0.46035 0.75066
 O296 O 0.26687 0.46466 0.72474
 O297 O 0.28970 0.49905 0.76968
 O298 O 0.28445 0.52656 0.76865
 O299 O 0.25097 0.48058 0.78989
 O300 O 0.22379 0.48125 0.78465
 O301 O 0.25156 0.46031 0.76911
 O302 O 0.22327 0.46590 0.76757
 O303 O 0.26921 0.49902 0.79004
 O304 O 0.26760 0.52709 0.78422
 O305 O 0.28961 0.48045 0.75156
 O306 O 0.28466 0.48555 0.72395
 O307 O 0.23091 0.54107 0.74888
 O308 O 0.23211 0.53532 0.77596
 O309 O 0.20905 0.50144 0.73089
 O310 O 0.21529 0.47386 0.73332
 O311 O 0.24855 0.51954 0.70928
 O312 O 0.27602 0.51612 0.71533
 Zr313 Zr 0.25807 0.51873 0.73136
 O314 O 0.27271 0.50545 0.74504
 Zr315 Zr 0.23113 0.49200 0.73156
 O316 O 0.24489 0.47739 0.74478
 Zr317 Zr 0.23138 0.51889 0.75830
 O318 O 0.24472 0.50528 0.77295
 Zr319 Zr 0.26804 0.48228 0.74123
 O320 O 0.25432 0.49549 0.72635
 Zr321 Zr 0.26790 0.50898 0.76822
 O322 O 0.25454 0.52378 0.75461
 Zr323 Zr 0.24123 0.48204 0.76800
 O324 O 0.22623 0.49568 0.75478
 O325 O 0.23498 0.51507 0.73522
 O326 O 0.26436 0.48580 0.76446
 C327 C 0.23852 0.54749 0.73809
 C328 C 0.23809 0.51160 0.70275
 C329 C 0.20261 0.51210 0.73865
 C330 C 0.26246 0.45398 0.76160
 C331 C 0.29598 0.48798 0.76241
 C332 C 0.26179 0.48807 0.79633
 H333 H 0.28343 0.50787 0.74254
 H334 H 0.24218 0.50771 0.78366
 H335 H 0.22846 0.52157 0.72869
 H336 H 0.24262 0.46665 0.74218
 H337 H 0.26360 0.46950 0.71506
 H338 H 0.23780 0.46791 0.71602
 H339 H 0.25894 0.52537 0.79124
 H340 H 0.24209 0.54052 0.77513
 H341 H 0.29188 0.47685 0.72438
 H342 H 0.27508 0.52421 0.70746
 H343 H 0.22414 0.49095 0.79042
 H344 H 0.21007 0.50852 0.77561
 H345 H 0.27480 0.54021 0.74268
 H346 H 0.29063 0.52567 0.75926
 H347 H 0.20926 0.47568 0.74269
 H348 H 0.22525 0.45870 0.75910
 O349 O 0.25126 -0.02020 0.29073
 O350 O 0.22528 -0.01830 0.28581
 O351 O 0.26966 -0.04120 0.25063
 O352 O 0.27020 -0.03666 0.22552
 O353 O 0.29101 -0.00107 0.26954
 O354 O 0.28528 0.02549 0.26846
 O355 O 0.23017 0.00011 0.21019
 O356 O 0.23323 -0.02582 0.21450
 O357 O 0.21040 0.01911 0.24886
 O358 O 0.21571 0.01815 0.27635
 O359 O 0.24907 0.03939 0.23031
 O360 O 0.27628 0.03419 0.23097
 O361 O 0.24843 0.01860 0.21010
 O362 O 0.27674 0.01712 0.21561
 O363 O 0.23085 0.03952 0.24876
 O364 O 0.23255 0.03375 0.27685
 O365 O 0.21047 0.00094 0.23030
 O366 O 0.21549 -0.02665 0.23542
 O367 O 0.26931 -0.00146 0.29083
 O368 O 0.26806 0.02560 0.28503
 O369 O 0.29112 -0.01944 0.25118
 O370 O 0.28480 -0.01710 0.22361
 O371 O 0.25171 -0.04118 0.26937
 O372 O 0.22422 -0.03519 0.26599
 Zr373 Zr 0.24214 -0.01912 0.26855
 O374 O 0.22745 -0.00549 0.25528
 Zr375 Zr 0.26902 -0.01888 0.24179
 O376 O 0.25520 -0.00572 0.22718
 Zr377 Zr 0.26878 0.00791 0.26864
 O378 O 0.25538 0.02251 0.25502
 Zr379 Zr 0.23207 -0.00932 0.23211
 O380 O 0.24584 -0.02415 0.24531
 Zr381 Zr 0.23223 0.01772 0.25876
 O382 O 0.24564 0.00416 0.27356
 Zr383 Zr 0.25884 0.01752 0.23179
 O384 O 0.27388 0.00437 0.24542
 O385 O 0.26522 -0.01520 0.26485
 O386 O 0.23572 0.01393 0.23559
 C387 C 0.26171 -0.01225 0.29728
 C388 C 0.26215 -0.04769 0.26141
 C389 C 0.29758 -0.01164 0.26180
 C390 C 0.23751 0.01108 0.20380
 C391 C 0.20411 0.01179 0.23782
 C392 C 0.23825 0.04582 0.23779
 H393 H 0.21674 -0.00802 0.25772
 H394 H 0.25792 0.03323 0.25743
 H395 H 0.27177 -0.02170 0.27136
 H396 H 0.25745 -0.00833 0.21644
 H397 H 0.23652 -0.03549 0.21935
 H398 H 0.26232 -0.03450 0.21775
 H399 H 0.24117 0.04081 0.27508
 H400 H 0.25809 0.02476 0.29023
 H401 H 0.20826 -0.02625 0.22673
 H402 H 0.22520 -0.04307 0.27408
 H403 H 0.27590 0.04002 0.24062
 H404 H 0.29002 0.02529 0.25821
 H405 H 0.22541 -0.00781 0.29001
 H406 H 0.20955 0.00873 0.27550
 H407 H 0.29081 -0.00770 0.22539
 H408 H 0.27475 0.00864 0.20842
 O409 O 0.54063 0.73011 0.24910
 O410 O 0.53572 0.73214 0.27512
 O411 O 0.50054 0.70914 0.23069
 O412 O 0.47549 0.71375 0.23004
 O413 O 0.51956 0.74915 0.20922
 O414 O 0.51849 0.77574 0.21484
 O415 O 0.46021 0.75062 0.26994
 O416 O 0.46451 0.72470 0.26704
 O417 O 0.49890 0.76964 0.28982
 O418 O 0.52632 0.76863 0.28458
 O419 O 0.48043 0.78985 0.25097
 O420 O 0.48106 0.78458 0.22377
 O421 O 0.46017 0.76904 0.25158
 O422 O 0.46574 0.76751 0.22327
 O423 O 0.49886 0.79000 0.26924
 O424 O 0.52689 0.78414 0.26764
 O425 O 0.48031 0.75154 0.28977
 O426 O 0.48538 0.72391 0.28485
 O427 O 0.54076 0.74881 0.23098
 O428 O 0.53503 0.77589 0.23213
 O429 O 0.50120 0.73080 0.20912
 O430 O 0.47365 0.73326 0.21535
 O431 O 0.51926 0.70918 0.24871
 O432 O 0.51590 0.71527 0.27621
 Zr433 Zr 0.51849 0.73128 0.25820
 O434 O 0.50525 0.74498 0.27283
 Zr435 Zr 0.49178 0.73149 0.23122
 O436 O 0.47721 0.74472 0.24498
 Zr437 Zr 0.51863 0.75822 0.23144
 O438 O 0.50506 0.77289 0.24477
 Zr439 Zr 0.48211 0.74119 0.26817
 O440 O 0.49527 0.72629 0.25446
 Zr441 Zr 0.50877 0.76817 0.26798
 O442 O 0.52353 0.75454 0.25463
 Zr443 Zr 0.48186 0.76794 0.24127
 O444 O 0.49545 0.75471 0.22627
 O445 O 0.51481 0.73514 0.23508
 O446 O 0.48562 0.76443 0.26445
 C447 C 0.54719 0.73802 0.23861
 C448 C 0.51130 0.70265 0.23826
 C449 C 0.51184 0.73855 0.20267
 C450 C 0.45384 0.76154 0.26250
 C451 C 0.48786 0.76237 0.29613
 C452 C 0.48793 0.79630 0.26179
 H453 H 0.50768 0.74249 0.28358
 H454 H 0.50750 0.78360 0.24220
 H455 H 0.52130 0.72859 0.22856
 H456 H 0.46649 0.74212 0.24270
 H457 H 0.46934 0.71502 0.26377
 H458 H 0.46774 0.71593 0.23793
 H459 H 0.52514 0.79118 0.25899
 H460 H 0.54024 0.77506 0.24213
 H461 H 0.47670 0.72436 0.29208
 H462 H 0.52397 0.70739 0.27528
 H463 H 0.49075 0.79034 0.22410
 H464 H 0.50827 0.77552 0.21005
 H465 H 0.53996 0.74261 0.27493
 H466 H 0.52549 0.75920 0.29073
 H467 H 0.47549 0.74261 0.20927
 H468 H 0.45857 0.75902 0.22524
 O469 O 0.04033 0.73030 0.74890
 O470 O 0.03542 0.73230 0.77493
 O471 O 0.00025 0.70938 0.73045
 O472 O -0.02482 0.71399 0.72986
 O473 O 0.01928 0.74938 0.70904
 O474 O 0.01822 0.77597 0.71467
 O475 O -0.04004 0.75091 0.76981
 O476 O -0.03582 0.72496 0.76682
 O477 O -0.00132 0.76979 0.78967
 O478 O 0.02610 0.76878 0.78437
 O479 O -0.01984 0.79007 0.75087
 O480 O -0.01917 0.78484 0.72362
 O481 O -0.04008 0.76933 0.75145
 O482 O -0.03454 0.76779 0.72313
 O483 O -0.00143 0.79018 0.76916
 O484 O 0.02661 0.78435 0.76748
 O485 O -0.01993 0.75170 0.78961
 O486 O -0.01493 0.72408 0.78462
 O487 O 0.04049 0.74902 0.73080
 O488 O 0.03477 0.77610 0.73197
 O489 O 0.00090 0.73104 0.70892
 O490 O -0.02664 0.73353 0.71515
 O491 O 0.01896 0.70939 0.74848
 O492 O 0.01559 0.71544 0.77598
 Zr493 Zr 0.01819 0.73148 0.75800
 O494 O 0.00497 0.74517 0.77265
 Zr495 Zr -0.00852 0.73172 0.73102
 O496 O -0.02307 0.74497 0.74480
 Zr497 Zr 0.01836 0.75844 0.73126
 O498 O 0.00480 0.77311 0.74461
 Zr499 Zr -0.01817 0.74141 0.76798
 O500 O -0.00503 0.72650 0.75426
 Zr501 Zr 0.00852 0.76836 0.76782
 O502 O 0.02326 0.75473 0.75445
 Zr503 Zr -0.01840 0.76819 0.74111
 O504 O -0.00483 0.75495 0.72610
 O505 O 0.01451 0.73536 0.73488
 O506 O -0.01463 0.76464 0.76428
 C507 C 0.04690 0.73821 0.73842
 C508 C 0.01101 0.70288 0.73801
 C509 C 0.01155 0.73878 0.70248
 C510 C -0.04640 0.76185 0.76239
 C511 C -0.01236 0.76252 0.79598
 C512 C -0.01237 0.79648 0.76173
 H513 H 0.00740 0.74266 0.78338
 H514 H 0.00724 0.78383 0.74206
 H515 H 0.02100 0.72882 0.72836
 H516 H -0.03380 0.74238 0.74253
 H517 H -0.03101 0.71528 0.76354
 H518 H -0.03260 0.71622 0.73770
 H519 H 0.02484 0.79142 0.75886
 H520 H 0.03996 0.77528 0.74197
 H521 H -0.02361 0.72453 0.79185
 H522 H 0.02365 0.70755 0.77504
 H523 H -0.00950 0.79063 0.72401
 H524 H 0.00799 0.77577 0.70990
 H525 H 0.03969 0.74275 0.77473
 H526 H 0.02526 0.75936 0.79054
 H527 H -0.02480 0.74289 0.70910
 H528 H -0.04172 0.75931 0.72510
 O529 O -0.04068 -0.00084 -0.01981
 O530 O -0.03567 0.02516 -0.01779
 O531 O -0.00074 -0.01937 -0.04088
 O532 O 0.02435 -0.01997 -0.03635
 O533 O -0.01966 -0.04085 -0.00089
 O534 O -0.01852 -0.03526 0.02569
 O535 O 0.03981 0.01984 0.00064
 O536 O 0.03550 0.01693 -0.02530
 O537 O 0.00124 0.03971 0.01969
 O538 O -0.02622 0.03448 0.01870
 O539 O 0.01969 0.00082 0.03979
 O540 O 0.01892 -0.02643 0.03448
 O541 O 0.03986 0.00144 0.01902
 O542 O 0.03425 -0.02688 0.01741
 O543 O 0.00133 0.01914 0.03999
 O544 O -0.02674 0.01755 0.03423
 O545 O 0.01978 0.03966 0.00155
 O546 O 0.01466 0.03478 -0.02607
 O547 O -0.04083 -0.01902 -0.00117
 O548 O -0.03503 -0.01794 0.02589
 O549 O -0.00132 -0.04095 -0.01925
 O550 O 0.02623 -0.03474 -0.01686
 O551 O -0.01939 -0.00130 -0.04078
 O552 O -0.01588 0.02620 -0.03468
 Zr553 Zr -0.01850 0.00819 -0.01868
 O554 O -0.00520 0.02278 -0.00498
 Zr555 Zr 0.00813 -0.01884 -0.01857
 O556 O 0.02276 -0.00513 -0.00533
 Zr557 Zr -0.01867 -0.01864 0.00821
 O558 O -0.00502 -0.00535 0.02288
 Zr559 Zr 0.01791 0.01808 -0.00881
 O560 O 0.00469 0.00441 -0.02372
 Zr561 Zr -0.00869 0.01789 0.01820
 O562 O -0.02351 0.00458 0.00457
 Zr563 Zr 0.01815 -0.00888 0.01789
 O564 O 0.00450 -0.02383 0.00465
 O565 O -0.01488 -0.01496 -0.01487
 O566 O 0.01444 0.01431 0.01441
 C567 C -0.04725 -0.01133 -0.01193
 C568 C -0.01150 -0.01178 -0.04733
 C569 C -0.01196 -0.04740 -0.01150
 C570 C 0.04617 0.01239 0.01156
 C571 C 0.01228 0.04601 0.01242
 C572 C 0.01227 0.01168 0.04625
 H573 H -0.00761 0.03353 -0.00745
 H574 H -0.00744 -0.00792 0.03359
 H575 H -0.02141 -0.02146 -0.02140
 H576 H 0.03348 -0.00742 -0.00794
 H577 H 0.03065 0.01369 -0.03499
 H578 H 0.03217 -0.01216 -0.03411
 H579 H -0.02497 0.00889 0.04126
 H580 H -0.04018 -0.00792 0.02511
 H581 H 0.02336 0.04199 -0.02562
 H582 H -0.02397 0.02529 -0.04256
 H583 H 0.00929 -0.02602 0.04032
 H584 H -0.00830 -0.04004 0.02548
 H585 H -0.03988 0.02497 -0.00732
 H586 H -0.02536 0.04071 0.00932
 H587 H 0.02443 -0.04080 -0.00750
 H588 H 0.04142 -0.02489 0.00893
 O589 O -0.00121 0.47981 0.45905
 O590 O 0.02480 0.48188 0.46398
 O591 O -0.01957 0.45893 0.49917
 O592 O -0.02016 0.46357 0.52427
 O593 O -0.04100 0.49895 0.48007
 O594 O -0.03536 0.52552 0.48107
 O595 O 0.01969 0.50047 0.53956
 O596 O 0.01677 0.47454 0.53530
 O597 O 0.03951 0.51941 0.50078
 O598 O 0.03423 0.51835 0.47331
 O599 O 0.00081 0.53965 0.51927
 O600 O -0.02642 0.53442 0.51854
 O601 O 0.00135 0.51889 0.53956
 O602 O -0.02691 0.51739 0.53394
 O603 O 0.01903 0.53976 0.50082
 O604 O 0.01734 0.53391 0.47275
 O605 O 0.03946 0.50136 0.51945
 O606 O 0.03454 0.47372 0.51442
 O607 O -0.01930 0.49851 0.45885
 O608 O -0.01809 0.52562 0.46452
 O609 O -0.04110 0.48061 0.49847
 O610 O -0.03485 0.48309 0.52606
 O611 O -0.00156 0.45895 0.48047
 O612 O 0.02589 0.46503 0.48386
 Zr613 Zr 0.00792 0.48104 0.48122
 O614 O 0.02254 0.49476 0.49447
 Zr615 Zr -0.01901 0.48129 0.50793
 O616 O -0.00526 0.49455 0.52251
 Zr617 Zr -0.01880 0.50799 0.48099
 O618 O -0.00548 0.52268 0.49458
 Zr619 Zr 0.01790 0.49100 0.51764
 O620 O 0.00419 0.47608 0.50447
 Zr621 Zr 0.01769 0.51794 0.49089
 O622 O 0.00435 0.50429 0.47611
 Zr623 Zr -0.00895 0.51777 0.51782
 O624 O -0.02394 0.50451 0.50421
 O625 O -0.01518 0.48491 0.48487
 O626 O 0.01418 0.51423 0.51407
 C627 C -0.01170 0.48768 0.45246
 C628 C -0.01200 0.45243 0.48842
 C629 C -0.04755 0.48836 0.48781
 C630 C 0.01226 0.51140 0.54591
 C631 C 0.04581 0.51218 0.51187
 C632 C 0.01163 0.54607 0.51178
 H633 H 0.03326 0.49226 0.49205
 H634 H -0.00803 0.53339 0.49212
 H635 H -0.02169 0.47836 0.47838
 H636 H -0.00753 0.49196 0.53325
 H637 H 0.01350 0.46485 0.53048
 H638 H -0.01230 0.46579 0.53205
 H639 H 0.00871 0.54096 0.47449
 H640 H -0.00812 0.52476 0.45932
 H641 H 0.04177 0.47418 0.52312
 H642 H 0.02497 0.45715 0.47578
 H643 H -0.02600 0.54024 0.50887
 H644 H -0.04009 0.52537 0.49133
 H645 H 0.02457 0.49233 0.45968
 H646 H 0.04038 0.50893 0.47417
 H647 H -0.04090 0.49245 0.52421
 H648 H -0.02496 0.50889 0.54111
 O649 O 0.48048 -0.04075 0.49917
 O650 O 0.48261 -0.03581 0.52520
 O651 O 0.45949 -0.00069 0.48075
 O652 O 0.46405 0.02440 0.48004
 O653 O 0.49949 -0.01969 0.45925
 O654 O 0.52601 -0.01865 0.46491
 O655 O 0.50092 0.03986 0.51990
 O656 O 0.47504 0.03553 0.51700
 O657 O 0.51996 0.00117 0.53984
 O658 O 0.51903 -0.02630 0.53461
 O659 O 0.54004 0.01968 0.50098
 O660 O 0.53477 0.01888 0.47373
 O661 O 0.51926 0.03989 0.50151
 O662 O 0.51771 0.03422 0.47322
 O663 O 0.54026 0.00129 0.51930
 O664 O 0.53451 -0.02684 0.51767
 O665 O 0.50187 0.01977 0.53976
 O666 O 0.47430 0.01466 0.53485
 O667 O 0.49911 -0.04092 0.48103
 O668 O 0.52616 -0.03518 0.48224
 O669 O 0.48111 -0.00135 0.45915
 O670 O 0.48349 0.02625 0.46535
 O671 O 0.45959 -0.01937 0.49883
 O672 O 0.46574 -0.01597 0.52630
 Zr673 Zr 0.48168 -0.01857 0.50827
 O674 O 0.49536 -0.00525 0.52286
 Zr675 Zr 0.48179 0.00812 0.48124
 O676 O 0.49500 0.02276 0.49496
 Zr677 Zr 0.50852 -0.01875 0.48149
 O678 O 0.52317 -0.00509 0.49479
 Zr679 Zr 0.49152 0.01791 0.51816
 O680 O 0.47665 0.00467 0.50449
 Zr681 Zr 0.51851 -0.00875 0.51801
 O682 O 0.50490 -0.02360 0.50469
 Zr683 Zr 0.51818 0.01813 0.49125
 O684 O 0.50497 0.00446 0.47629
 O685 O 0.48547 -0.01493 0.48513
 O686 O 0.51472 0.01442 0.51443
 C687 C 0.48833 -0.04733 0.48866
 C688 C 0.45303 -0.01143 0.48837
 C689 C 0.48889 -0.01197 0.45269
 C690 C 0.51179 0.04624 0.51243
 C691 C 0.51269 0.01224 0.54613
 C692 C 0.54650 0.01225 0.51184
 H693 H 0.49289 -0.00766 0.53361
 H694 H 0.53387 -0.00751 0.49222
 H695 H 0.47893 -0.02144 0.47861
 H696 H 0.49238 0.03350 0.49267
 H697 H 0.46537 0.03067 0.51376
 H698 H 0.46622 0.03218 0.48792
 H699 H 0.54154 -0.02507 0.50903
 H700 H 0.52534 -0.04036 0.49225
 H701 H 0.47474 0.02337 0.54206
 H702 H 0.45788 -0.02407 0.52539
 H703 H 0.54062 0.00924 0.47417
 H704 H 0.52584 -0.00840 0.46016
 H705 H 0.49305 -0.04007 0.52496
 H706 H 0.50960 -0.02551 0.54074
 H707 H 0.49283 0.02443 0.45929
 H708 H 0.50922 0.04139 0.47517
 O709 O 0.45918 0.49882 -0.02016
 O710 O 0.46411 0.52485 -0.01818
 O711 O 0.49917 0.48032 -0.04108
 O712 O 0.52426 0.47980 -0.03653
 O713 O 0.48027 0.45893 -0.00104
 O714 O 0.48131 0.46462 0.02551
 O715 O 0.53960 0.51972 0.00032
 O716 O 0.53530 0.51675 -0.02560
 O717 O 0.50096 0.53959 0.01929
 O718 O 0.47351 0.53433 0.01827
 O719 O 0.51943 0.50081 0.03956
 O720 O 0.51875 0.47356 0.03433
 O721 O 0.53966 0.50140 0.01878
 O722 O 0.53410 0.47307 0.01729
 O723 O 0.50101 0.51907 0.03968
 O724 O 0.47298 0.51744 0.03384
 O725 O 0.51952 0.53952 0.00118
 O726 O 0.51443 0.53456 -0.02642
 O727 O 0.45903 0.48069 -0.00147
 O728 O 0.46477 0.48191 0.02561
 O729 O 0.49863 0.45881 -0.01938
 O730 O 0.52614 0.46508 -0.01699
 O731 O 0.48050 0.49837 -0.04107
 O732 O 0.48392 0.52588 -0.03505
 Zr733 Zr 0.48132 0.50791 -0.01900
 O734 O 0.49457 0.52257 -0.00533
 Zr735 Zr 0.50802 0.48094 -0.01876
 O736 O 0.52260 0.49472 -0.00555
 Zr737 Zr 0.48117 0.48118 0.00797
 O738 O 0.49477 0.49454 0.02262
 Zr739 Zr 0.51770 0.51791 -0.00912
 O740 O 0.50452 0.50417 -0.02400
 Zr741 Zr 0.49106 0.51775 0.01786
 O742 O 0.47628 0.50437 0.00425
 Zr743 Zr 0.51797 0.49105 0.01768
 O744 O 0.50436 0.47603 0.00446
 O745 O 0.48499 0.48478 -0.01511
 O746 O 0.51421 0.51422 0.01412
 C747 C 0.45261 0.48833 -0.01227
 C748 C 0.48841 0.48787 -0.04758
 C749 C 0.48801 0.45235 -0.01161
 C750 C 0.54597 0.51232 0.01126
 C751 C 0.51200 0.54589 0.01202
 C752 C 0.51195 0.51164 0.04599
 H753 H 0.49215 0.53331 -0.00784
 H754 H 0.49234 0.49199 0.03333
 H755 H 0.47849 0.47824 -0.02164
 H756 H 0.53332 0.49245 -0.00814
 H757 H 0.53046 0.51347 -0.03527
 H758 H 0.53206 0.48762 -0.03429
 H759 H 0.47472 0.50877 0.04088
 H760 H 0.45958 0.49190 0.02476
 H761 H 0.52312 0.54179 -0.02599
 H762 H 0.47584 0.52494 -0.04293
 H763 H 0.50910 0.47395 0.04013
 H764 H 0.49154 0.45986 0.02535
 H765 H 0.45988 0.52467 -0.00772
 H766 H 0.47437 0.54051 0.00887
 H767 H 0.52436 0.45906 -0.00760
 H768 H 0.54126 0.47504 0.00880
 O769 O 0.77004 0.29036 0.49888
 O770 O 0.76797 0.28542 0.52491
 O771 O 0.79079 0.25017 0.48047
 O772 O 0.78611 0.22508 0.47986
 O773 O 0.75093 0.26939 0.45899
 O774 O 0.72438 0.26843 0.46459
 O775 O 0.74916 0.20989 0.51973
 O776 O 0.77508 0.21403 0.51679
 O777 O 0.73042 0.24870 0.53957
 O778 O 0.73152 0.27617 0.53431
 O779 O 0.71015 0.23030 0.50071
 O780 O 0.71542 0.23100 0.47348
 O781 O 0.73079 0.20994 0.50133
 O782 O 0.73237 0.21553 0.47303
 O783 O 0.71008 0.24871 0.51901
 O784 O 0.71601 0.27678 0.51738
 O785 O 0.74842 0.23001 0.53953
 O786 O 0.77601 0.23493 0.53460
 O787 O 0.75137 0.29061 0.48075
 O788 O 0.72431 0.28499 0.48189
 O789 O 0.76918 0.25092 0.45890
 O790 O 0.76661 0.22333 0.46512
 O791 O 0.79083 0.26887 0.49852
 O792 O 0.78474 0.26550 0.52600
 Zr793 Zr 0.76876 0.26818 0.50799
 O794 O 0.75503 0.25496 0.52260
 Zr795 Zr 0.76846 0.24146 0.48100
 O796 O 0.75517 0.22691 0.49474
 Zr797 Zr 0.74187 0.26848 0.48120
 O798 O 0.72717 0.25492 0.49452
 Zr799 Zr 0.75872 0.23176 0.51793
 O800 O 0.77365 0.24491 0.50424
 Zr801 Zr 0.73190 0.25859 0.51773
 O802 O 0.74557 0.27334 0.50440
 Zr803 Zr 0.73201 0.23167 0.49101
 O804 O 0.74529 0.24525 0.47603
 O805 O 0.76490 0.26454 0.48486
 O806 O 0.73554 0.23540 0.51419
 C807 C 0.76218 0.29698 0.48838
 C808 C 0.79732 0.26090 0.48806
 C809 C 0.76148 0.26162 0.45244
 C810 C 0.73822 0.20357 0.51229
 C811 C 0.73764 0.23761 0.54589
 C812 C 0.70375 0.23779 0.51156
 H813 H 0.75754 0.25736 0.53334
 H814 H 0.71649 0.25741 0.49194
 H815 H 0.77146 0.27102 0.47835
 H816 H 0.75772 0.21615 0.49246
 H817 H 0.78477 0.21883 0.51353
 H818 H 0.78385 0.21728 0.48769
 H819 H 0.70896 0.27506 0.50873
 H820 H 0.72515 0.29017 0.49189
 H821 H 0.77553 0.22623 0.54183
 H822 H 0.79264 0.27355 0.52509
 H823 H 0.70965 0.24069 0.47387
 H824 H 0.72454 0.25819 0.45981
 H825 H 0.75755 0.28974 0.52468
 H826 H 0.74093 0.27530 0.54047
 H827 H 0.75727 0.22521 0.45905
 H828 H 0.74081 0.20831 0.47501
 O829 O 0.75093 0.77024 -0.04097
 O830 O 0.72492 0.76813 -0.03614
 O831 O 0.76922 0.79108 -0.00077
 O832 O 0.76985 0.78642 0.02431
 O833 O 0.79070 0.75107 -0.01984
 O834 O 0.78504 0.72450 -0.01889
 O835 O 0.72998 0.74954 0.03948
 O836 O 0.73289 0.77547 0.03522
 O837 O 0.71017 0.73060 0.00066
 O838 O 0.71546 0.73167 -0.02680
 O839 O 0.74887 0.71035 0.01922
 O840 O 0.77607 0.71557 0.01858
 O841 O 0.74830 0.73111 0.03952
 O842 O 0.77658 0.73262 0.03396
 O843 O 0.73067 0.71024 0.00073
 O844 O 0.73235 0.71612 -0.02734
 O845 O 0.71022 0.74866 0.01933
 O846 O 0.71513 0.77629 0.01430
 O847 O 0.76903 0.75155 -0.04113
 O848 O 0.76778 0.72443 -0.03549
 O849 O 0.79077 0.76941 -0.00144
 O850 O 0.78451 0.76690 0.02613
 O851 O 0.75122 0.79108 -0.01951
 O852 O 0.72378 0.78497 -0.01625
 Zr853 Zr 0.74178 0.76897 -0.01883
 O854 O 0.72714 0.75526 -0.00562
 Zr855 Zr 0.76868 0.76871 0.00796
 O856 O 0.75492 0.75545 0.02250
 Zr857 Zr 0.76850 0.74204 -0.01900
 O858 O 0.75516 0.72734 -0.00545
 Zr859 Zr 0.73178 0.75901 0.01757
 O860 O 0.74549 0.77393 0.00443
 Zr861 Zr 0.73199 0.73207 -0.00919
 O862 O 0.74534 0.74573 -0.02393
 Zr863 Zr 0.75862 0.73224 0.01780
 O864 O 0.77362 0.74549 0.00423
 O865 O 0.76487 0.76511 -0.01512
 O866 O 0.73549 0.73578 0.01400
 C867 C 0.76144 0.76239 -0.04753
 C868 C 0.76165 0.79760 -0.01152
 C869 C 0.79724 0.76166 -0.01208
 C870 C 0.73740 0.73862 0.04585
 C871 C 0.70387 0.73784 0.01174
 C872 C 0.73806 0.70393 0.01170
 H873 H 0.71642 0.75776 -0.00806
 H874 H 0.75772 0.71663 -0.00790
 H875 H 0.77139 0.77168 -0.02158
 H876 H 0.75719 0.75803 0.03325
 H877 H 0.73616 0.78516 0.03040
 H878 H 0.76196 0.78422 0.03205
 H879 H 0.74100 0.70908 -0.02559
 H880 H 0.75782 0.72531 -0.04072
 H881 H 0.70790 0.77583 0.02298
 H882 H 0.72471 0.79286 -0.02433
 H883 H 0.77570 0.70979 0.00889
 H884 H 0.78977 0.72464 -0.00863
 H885 H 0.72517 0.75769 -0.04043
 H886 H 0.70932 0.74110 -0.02597
 H887 H 0.79057 0.75755 0.02428
 H888 H 0.77461 0.74110 0.04115
 O889 O 1.00120 0.20908 0.22994
 O890 O 0.97520 0.21399 0.23190
 O891 O 1.01964 0.24921 0.20912
 O892 O 1.02015 0.27432 0.21373
 O893 O 1.04097 0.23016 0.24916
 O894 O 1.03527 0.23115 0.27572
 O895 O 0.98025 0.28957 0.25053
 O896 O 0.98325 0.28533 0.22461
 O897 O 0.96041 0.25080 0.26940
 O898 O 0.96568 0.22332 0.26835
 O899 O 0.99911 0.26927 0.28976
 O900 O 1.02632 0.26862 0.28458
 O901 O 0.99853 0.28959 0.26902
 O902 O 1.02681 0.28403 0.26756
 O903 O 0.98088 0.25082 0.28982
 O904 O 0.98254 0.22275 0.28395
 O905 O 0.96049 0.26944 0.25132
 O906 O 0.96548 0.26442 0.22371
 O907 O 1.01928 0.20890 0.24867
 O908 O 1.01802 0.21457 0.27576
 O909 O 1.04109 0.24859 0.23085
 O910 O 1.03483 0.27616 0.23329
 O911 O 1.00164 0.23049 0.20907
 O912 O 0.97416 0.23387 0.21506
 Zr913 Zr 0.99209 0.23125 0.23113
 O914 O 0.97743 0.24448 0.24480
 Zr915 Zr 1.01900 0.25800 0.23146
 O916 O 1.00522 0.27256 0.24467
 Zr917 Zr 1.01876 0.23105 0.25815
 O918 O 1.00539 0.24462 0.27279
 Zr919 Zr 0.98208 0.26766 0.24105
 O920 O 0.99582 0.25450 0.22618
 Zr921 Zr 0.98223 0.24091 0.26799
 O922 O 0.99561 0.22614 0.25438
 Zr923 Zr 1.00887 0.26787 0.26790
 O924 O 1.02389 0.25428 0.25469
 O925 O 1.01517 0.23493 0.23507
 O926 O 0.98575 0.26410 0.26429
 C927 C 1.01169 0.20250 0.23783
 C928 C 1.01212 0.23843 0.20260
 C929 C 1.04753 0.23792 0.23860
 C930 C 0.98763 0.29592 0.26150
 C931 C 0.95413 0.26188 0.26213
 C932 C 0.98829 0.26177 0.29616
 H933 H 0.96672 0.24205 0.24226
 H934 H 1.00793 0.24216 0.28351
 H935 H 1.02171 0.22844 0.22854
 H936 H 1.00749 0.28332 0.24210
 H937 H 0.98653 0.28051 0.21493
 H938 H 1.01234 0.28214 0.21596
 H939 H 0.99118 0.22448 0.29100
 H940 H 1.00804 0.20936 0.27488
 H941 H 0.95826 0.27312 0.22415
 H942 H 0.97511 0.22580 0.20717
 H943 H 1.02593 0.25893 0.29036
 H944 H 1.04003 0.24140 0.27556
 H945 H 0.97539 0.20971 0.24236
 H946 H 0.95954 0.22418 0.25892
 H947 H 1.04084 0.27433 0.24268
 H948 H 1.02485 0.29123 0.25908
 O949 O 0.70935 1.01981 0.74882
 O950 O 0.71427 1.01781 0.77485
 O951 O 0.74936 1.04081 0.73041
 O952 O 0.77443 1.03625 0.72981
 O953 O 0.73039 1.00075 0.70899
 O954 O 0.73153 0.97417 0.71465
 O955 O 0.78979 0.99943 0.76982
 O956 O 0.78549 1.02535 0.76681
 O957 O 0.75112 0.98046 0.78966
 O958 O 0.72370 0.98136 0.78432
 O959 O 0.76969 0.96019 0.75090
 O960 O 0.76897 0.96538 0.72366
 O961 O 0.78987 0.98101 0.75146
 O962 O 0.78425 0.98250 0.72312
 O963 O 0.75131 0.96005 0.76918
 O964 O 0.72324 0.96576 0.76745
 O965 O 0.76968 0.99859 0.78960
 O966 O 0.76461 1.02619 0.78458
 O967 O 0.70921 1.00109 0.73072
 O968 O 0.71499 0.97401 0.73194
 O969 O 0.74872 1.01914 0.70888
 O970 O 0.77628 1.01672 0.71514
 O971 O 0.73067 1.04076 0.74842
 O972 O 0.73406 1.03472 0.77593
 Zr973 Zr 0.73149 1.01868 0.75795
 O974 O 0.74476 1.00502 0.77261
 Zr975 Zr 0.75817 1.01849 0.73099
 O976 O 0.77277 1.00530 0.74479
 Zr977 Zr 0.73136 0.99170 0.73122
 O978 O 0.74498 0.97707 0.74459
 Zr979 Zr 0.76789 1.00886 0.76797
 O980 O 0.75469 1.02371 0.75422
 Zr981 Zr 0.74127 0.98182 0.76779
 O982 O 0.72648 0.99541 0.75441
 Zr983 Zr 0.76816 0.98206 0.74111
 O984 O 0.75453 0.99525 0.72608
 O985 O 0.73515 1.01480 0.73483
 O986 O 0.76441 0.98561 0.76428
 C987 C 0.70279 1.01190 0.73833
 C988 C 0.73860 1.04729 0.73796
 C989 C 0.73808 1.01137 0.70243
 C990 C 0.79617 0.98851 0.76240
 C991 C 0.76214 0.98777 0.79598
 C992 C 0.76226 0.95377 0.76177
 H993 H 0.74233 1.00754 0.78334
 H994 H 0.74257 0.96635 0.74205
 H995 H 0.72865 1.02132 0.72830
 H996 H 0.78350 1.00791 0.74252
 H997 H 0.78066 1.03502 0.76351
 H998 H 0.78221 1.03407 0.73768
 H999 H 0.72503 0.95870 0.75883
 H1000 H 0.70981 0.97483 0.74194
 H1001 H 0.77330 1.02577 0.79182
 H1002 H 0.72598 1.04258 0.77498
 H1003 H 0.75930 0.95959 0.72402
 H1004 H 0.74175 0.97438 0.70989
 H1005 H 0.71002 1.00735 0.77463
 H1006 H 0.72450 0.99080 0.79047
 H1007 H 0.77445 1.00736 0.70907
 H1008 H 0.79143 0.99099 0.72510
 O1009 O 0.74899 0.54079 0.22989
 O1010 O 0.77497 0.53584 0.23190
 O1011 O 0.73053 0.50070 0.20893
 O1012 O 0.72998 0.47558 0.21349
 O1013 O 0.70916 0.51970 0.24894
 O1014 O 0.71482 0.51865 0.27551
 O1015 O 0.76983 0.46023 0.25038
 O1016 O 0.76688 0.46453 0.22446
 O1017 O 0.78968 0.49895 0.26939
 O1018 O 0.78442 0.52645 0.26837
 O1019 O 0.75096 0.48046 0.28959
 O1020 O 0.72375 0.48115 0.28434
 O1021 O 0.75153 0.46019 0.26881
 O1022 O 0.72325 0.46578 0.26728
 O1023 O 0.76919 0.49890 0.28974
 O1024 O 0.76756 0.52698 0.28392
 O1025 O 0.78960 0.48034 0.25128
 O1026 O 0.78466 0.48543 0.22367
 O1027 O 0.73090 0.54095 0.24856
 O1028 O 0.73209 0.53521 0.27564
 O1029 O 0.70905 0.50130 0.23059
 O1030 O 0.71529 0.47372 0.23300
 O1031 O 0.74855 0.51941 0.20897
 O1032 O 0.77601 0.51599 0.21503
 Zr1033 Zr 0.75807 0.51860 0.23105
 O1034 O 0.77270 0.50533 0.24475
 Zr1035 Zr 0.73113 0.49187 0.23125
 O1036 O 0.74488 0.47727 0.24448
 Zr1037 Zr 0.73136 0.51878 0.25799
 O1038 O 0.74470 0.50516 0.27265
 Zr1039 Zr 0.76803 0.48216 0.24094
 O1040 O 0.75432 0.49536 0.22605
 Zr1041 Zr 0.76787 0.50887 0.26793
 O1042 O 0.75452 0.52366 0.25431
 Zr1043 Zr 0.74121 0.48193 0.26770
 O1044 O 0.72622 0.49556 0.25447
 O1045 O 0.73497 0.51494 0.23491
 O1046 O 0.76434 0.48568 0.26418
 C1047 C 0.73852 0.54737 0.23778
 C1048 C 0.73808 0.51148 0.20245
 C1049 C 0.70260 0.51195 0.23835
 C1050 C 0.76243 0.45386 0.26131
 C1051 C 0.79596 0.48788 0.26213
 C1052 C 0.76178 0.48794 0.29603
 H1053 H 0.78342 0.50776 0.24225
 H1054 H 0.74215 0.50760 0.28336
 H1055 H 0.72845 0.52145 0.22838
 H1056 H 0.74261 0.46653 0.24188
 H1057 H 0.76361 0.46938 0.21478
 H1058 H 0.73781 0.46778 0.21572
 H1059 H 0.75892 0.52524 0.29095
 H1060 H 0.74207 0.54041 0.27482
 H1061 H 0.79188 0.47672 0.22411
 H1062 H 0.77508 0.52407 0.20715
 H1063 H 0.72414 0.49083 0.29014
 H1064 H 0.71008 0.50840 0.27533
 H1065 H 0.77480 0.54008 0.24237
 H1066 H 0.79060 0.52557 0.25898
 H1067 H 0.70927 0.47553 0.24238
 H1068 H 0.72522 0.45860 0.25880
 O1069 O 0.50114 0.20899 0.72999
 O1070 O 0.47515 0.21389 0.73201
 O1071 O 0.51952 0.24920 0.70922
 O1072 O 0.52013 0.27428 0.71390
 O1073 O 0.54094 0.23002 0.74919
 O1074 O 0.53528 0.23097 0.77576
 O1075 O 0.48023 0.28945 0.75075
 O1076 O 0.48319 0.28525 0.72482
 O1077 O 0.46042 0.25067 0.76961
 O1078 O 0.46567 0.22318 0.76849
 O1079 O 0.49916 0.26908 0.78993
 O1080 O 0.52633 0.26846 0.78472
 O1081 O 0.49853 0.28943 0.76922
 O1082 O 0.52683 0.28386 0.76768
 O1083 O 0.48093 0.25063 0.78999
 O1084 O 0.48256 0.22258 0.78406
 O1085 O 0.46048 0.26934 0.75155
 O1086 O 0.46542 0.26434 0.72392
 O1087 O 0.51923 0.20877 0.74870
 O1088 O 0.51802 0.21440 0.77581
 O1089 O 0.54104 0.24847 0.73090
 O1090 O 0.53478 0.27606 0.73344
 O1091 O 0.50152 0.23047 0.70916
 O1092 O 0.47406 0.23381 0.71522
 Zr1093 Zr 0.49203 0.23116 0.73124
 O1094 O 0.47740 0.24437 0.74496
 Zr1095 Zr 0.51895 0.25791 0.73158
 O1096 O 0.50519 0.27245 0.74484
 Zr1097 Zr 0.51874 0.23090 0.75821
 O1098 O 0.50540 0.24446 0.77290
 Zr1099 Zr 0.48205 0.26756 0.74124
 O1100 O 0.49576 0.25442 0.72633
 Zr1101 Zr 0.48223 0.24076 0.76814
 O1102 O 0.49558 0.22602 0.75448
 Zr1103 Zr 0.50888 0.26771 0.76804
 O1104 O 0.52387 0.25414 0.75480
 O1105 O 0.51512 0.23482 0.73515
 O1106 O 0.48574 0.26396 0.76447
 C1107 C 0.51162 0.20239 0.73787
 C1108 C 0.51196 0.23845 0.70268
 C1109 C 0.54749 0.23779 0.73863
 C1110 C 0.48762 0.29579 0.76172
 C1111 C 0.45413 0.26176 0.76236
 C1112 C 0.48835 0.26155 0.79633
 H1113 H 0.46667 0.24195 0.74244
 H1114 H 0.50796 0.24198 0.78361
 H1115 H 0.52164 0.22835 0.72859
 H1116 H 0.50746 0.28321 0.74228
 H1117 H 0.48645 0.28044 0.71513
 H1118 H 0.51226 0.28204 0.71611
 H1119 H 0.49121 0.22428 0.79109
 H1120 H 0.50805 0.20919 0.77493
 H1121 H 0.45819 0.27304 0.72439
 H1122 H 0.47500 0.22575 0.70731
 H1123 H 0.52601 0.25873 0.79043
 H1124 H 0.54005 0.24121 0.77560
 H1125 H 0.47534 0.20961 0.74247
 H1126 H 0.45951 0.22407 0.75908
 H1127 H 0.54083 0.27419 0.74280
 H1128 H 0.52483 0.29110 0.75925
 O1129 O 0.25106 0.77019 0.45933
 O1130 O 0.22507 0.76817 0.46417
 O1131 O 0.26934 0.79111 0.49955
 O1132 O 0.26997 0.78645 0.52463
 O1133 O 0.29083 0.75111 0.48049
 O1134 O 0.28520 0.72452 0.48153
 O1135 O 0.23006 0.74962 0.53979
 O1136 O 0.23298 0.77554 0.53551
 O1137 O 0.21029 0.73064 0.50097
 O1138 O 0.21561 0.73170 0.47350
 O1139 O 0.24895 0.71040 0.51958
 O1140 O 0.27615 0.71560 0.51896
 O1141 O 0.24839 0.73118 0.53987
 O1142 O 0.27667 0.73268 0.53432
 O1143 O 0.23077 0.71029 0.50107
 O1144 O 0.23248 0.71614 0.47300
 O1145 O 0.21031 0.74870 0.51963
 O1146 O 0.21523 0.77634 0.51457
 O1147 O 0.26914 0.75148 0.45920
 O1148 O 0.26797 0.72439 0.46492
 O1149 O 0.29089 0.76945 0.49888
 O1150 O 0.28462 0.76694 0.52646
 O1151 O 0.25139 0.79110 0.48077
 O1152 O 0.22394 0.78501 0.48404
 Zr1153 Zr 0.24192 0.76900 0.48148
 O1154 O 0.22727 0.75529 0.49468
 Zr1155 Zr 0.26880 0.76875 0.50828
 O1156 O 0.25502 0.75550 0.52282
 Zr1157 Zr 0.26864 0.74205 0.48136
 O1158 O 0.25528 0.72736 0.49491
 Zr1159 Zr 0.23188 0.75906 0.51787
 O1160 O 0.24561 0.77396 0.50474
 Zr1161 Zr 0.23211 0.73211 0.49113
 O1162 O 0.24549 0.74575 0.47640
 Zr1163 Zr 0.25872 0.73228 0.51815
 O1164 O 0.27373 0.74552 0.50459
 O1165 O 0.26501 0.76513 0.48520
 O1166 O 0.23559 0.73583 0.51433
 C1167 C 0.26153 0.76229 0.45277
 C1168 C 0.26180 0.79762 0.48878
 C1169 C 0.29736 0.76171 0.48824
 C1170 C 0.23748 0.73869 0.54618
 C1171 C 0.20398 0.73787 0.51204
 C1172 C 0.23814 0.70398 0.51205
 H1173 H 0.21655 0.75780 0.49223
 H1174 H 0.25783 0.71665 0.49246
 H1175 H 0.27153 0.77168 0.47873
 H1176 H 0.25728 0.75809 0.53357
 H1177 H 0.23625 0.78522 0.53068
 H1178 H 0.26205 0.78428 0.53235
 H1179 H 0.24111 0.70908 0.47477
 H1180 H 0.25799 0.72522 0.45969
 H1181 H 0.20799 0.77587 0.52324
 H1182 H 0.22489 0.79290 0.47597
 H1183 H 0.27581 0.70984 0.50926
 H1184 H 0.28993 0.72471 0.49179
 H1185 H 0.22527 0.75771 0.45992
 H1186 H 0.20943 0.74110 0.47436
 H1187 H 0.29069 0.75759 0.52461
 H1188 H 0.27470 0.74117 0.54150
 O1189 O 0.29071 0.25064 0.98012
 O1190 O 0.28566 0.22464 0.98214
 O1191 O 0.25074 0.26929 0.95919
 O1192 O 0.22566 0.26992 0.96377
 O1193 O 0.26985 0.29067 0.99915
 O1194 O 0.26885 0.28504 1.02573
 O1195 O 0.21025 0.23015 1.00073
 O1196 O 0.21449 0.23305 0.97478
 O1197 O 0.24885 0.21015 1.01971
 O1198 O 0.27634 0.21528 1.01862
 O1199 O 0.23061 0.24902 1.03989
 O1200 O 0.23143 0.27629 1.03460
 O1201 O 0.21033 0.24851 1.01914
 O1202 O 0.21601 0.27680 1.01759
 O1203 O 0.24896 0.23069 1.04002
 O1204 O 0.27698 0.23220 1.03416
 O1205 O 0.23023 0.21027 1.00163
 O1206 O 0.23527 0.21513 0.97399
 O1207 O 0.29099 0.26880 0.99878
 O1208 O 0.28531 0.26769 1.02586
 O1209 O 0.25144 0.29083 0.98084
 O1210 O 0.22390 0.28469 0.98327
 O1211 O 0.26934 0.25116 0.95922
 O1212 O 0.26580 0.22367 0.96530
 Zr1213 Zr 0.26853 0.24165 0.98131
 O1214 O 0.25525 0.22708 0.99503
 Zr1215 Zr 0.24195 0.26875 0.98151
 O1216 O 0.22735 0.25506 0.99478
 Zr1217 Zr 0.26887 0.26845 1.00822
 O1218 O 0.25526 0.25517 1.02291
 Zr1219 Zr 0.23213 0.23184 0.99125
 O1220 O 0.24533 0.24549 0.97633
 Zr1221 Zr 0.25885 0.23193 1.01820
 O1222 O 0.27365 0.24522 1.00455
 Zr1223 Zr 0.23207 0.25876 1.01799
 O1224 O 0.24570 0.27369 1.00473
 O1225 O 0.26497 0.26481 0.98515
 O1226 O 0.23572 0.23557 1.01447
 C1227 C 0.29734 0.26111 0.98800
 C1228 C 0.26145 0.26168 0.95270
 C1229 C 0.26211 0.29726 0.98857
 C1230 C 0.20395 0.23760 1.01166
 C1231 C 0.23775 0.20389 1.01247
 C1232 C 0.23806 0.23816 1.04632
 H1233 H 0.25762 0.21632 0.99253
 H1234 H 0.25773 0.25772 1.03362
 H1235 H 0.27149 0.27130 0.97861
 H1236 H 0.21663 0.25738 0.99219
 H1237 H 0.21932 0.23628 0.96510
 H1238 H 0.21783 0.26214 0.96603
 H1239 H 0.27530 0.24087 1.04119
 H1240 H 0.29045 0.25766 1.02504
 H1241 H 0.22655 0.20794 0.97446
 H1242 H 0.27386 0.22456 0.95741
 H1243 H 0.24107 0.27583 1.04043
 H1244 H 0.25863 0.28984 1.02556
 H1245 H 0.28992 0.22481 0.99261
 H1246 H 0.27539 0.20906 1.00925
 H1247 H 0.22574 0.29072 0.99265
 H1248 H 0.20883 0.27486 1.00910
 N1249 N 0.28416 0.36198 0.80203
 C1250 C 0.29103 0.36889 0.79003
 N1251 N 0.30349 0.36230 0.78370
 N1252 N 0.30893 0.34922 0.78923
 C1253 C 0.30215 0.34226 0.80132
 N1254 N 0.28962 0.34891 0.80756
 C1255 C 0.28552 0.38327 0.78446
 C1256 C 0.28104 0.39549 0.77998
 C1257 C 0.27592 0.41019 0.77489
 N1258 N 0.28304 0.41736 0.76319
 N1259 N 0.27862 0.43125 0.75882
 C1260 C 0.26695 0.43844 0.76602
 N1261 N 0.25981 0.43120 0.77771
 N1262 N 0.26423 0.41731 0.78208
 N1263 N 0.30212 -0.14007 0.28219
 C1264 C 0.28966 -0.13348 0.28851
 N1265 N 0.28292 -0.14026 0.30065
 N1266 N 0.28851 -0.15322 0.30633
 C1267 C 0.30107 -0.15988 0.30013
 N1268 N 0.30769 -0.15303 0.28787
 C1269 C 0.28412 -0.11913 0.28289
 C1270 C 0.27967 -0.10688 0.27846
 C1271 C 0.27464 -0.09209 0.27354
 N1272 N 0.26322 -0.08485 0.28103
 N1273 N 0.25905 -0.07079 0.27698
 C1274 C 0.26618 -0.06350 0.26532
 N1275 N 0.27757 -0.07082 0.25780
 N1276 N 0.28173 -0.08488 0.26185
 N1277 N 0.80355 0.86226 0.78424
 C1278 C 0.79116 0.86892 0.79061
 N1279 N 0.78441 0.86214 0.80275
 N1280 N 0.78991 0.84913 0.80837
 C1281 C 0.80241 0.84238 0.80211
 N1282 N 0.80905 0.84925 0.78986
 C1283 C 0.78559 0.88324 0.78494
 C1284 C 0.78106 0.89541 0.78038
 C1285 C 0.77587 0.91007 0.77521
 N1286 N 0.76408 0.91712 0.78230
 N1287 N 0.75961 0.93098 0.77788
 C1288 C 0.76679 0.93824 0.76622
 N1289 N 0.77856 0.93111 0.75911
 N1290 N 0.78302 0.91726 0.76354
 N1291 N 0.44843 0.88899 0.28244
 C1292 C 0.46060 0.88214 0.28908
 N1293 N 0.46738 0.88893 0.30120
 N1294 N 0.46213 0.90215 0.30656
 C1295 C 0.44988 0.90906 0.30001
 N1296 N 0.44318 0.90221 0.28781
 C1297 C 0.46586 0.86759 0.28371
 C1298 C 0.47013 0.85524 0.27942
 C1299 C 0.47502 0.84039 0.27455
 N1300 N 0.48669 0.83326 0.28177
 N1301 N 0.49091 0.81926 0.27759
 C1302 C 0.48359 0.81192 0.26606
 N1303 N 0.47193 0.81912 0.25883
 N1304 N 0.46771 0.83312 0.26301
 N1305 N -0.05315 0.88825 0.78385
 C1306 C -0.04076 0.88158 0.79025
 N1307 N -0.03395 0.88838 0.80236
 N1308 N -0.03939 0.90144 0.80792
 C1309 C -0.05186 0.90818 0.80161
 N1310 N -0.05859 0.90131 0.78943
 C1311 C -0.03527 0.86721 0.78464
 C1312 C -0.03082 0.85499 0.78014
 C1313 C -0.02572 0.84030 0.77503
 N1314 N -0.01397 0.83319 0.78215
 N1315 N -0.00958 0.81930 0.77778
 C1316 C -0.01681 0.81204 0.76614
 N1317 N -0.02855 0.81921 0.75900
 N1318 N -0.03293 0.83310 0.76338
 N1319 N -0.05149 -0.13996 -0.03243
 C1320 C -0.03938 -0.13306 -0.03908
 N1321 N -0.03299 -0.13951 -0.05158
 N1322 N -0.03857 -0.15245 -0.05729
 C1323 C -0.05080 -0.15943 -0.05076
 N1324 N -0.05707 -0.15290 -0.03815
 C1325 C -0.03385 -0.11873 -0.03340
 C1326 C -0.02943 -0.10650 -0.02890
 C1327 C -0.02442 -0.09174 -0.02388
 N1328 N -0.01281 -0.08456 -0.03112
 N1329 N -0.00865 -0.07052 -0.02699
 C1330 C -0.01599 -0.06318 -0.01548
 N1331 N -0.02757 -0.07044 -0.00820
 N1332 N -0.03172 -0.08448 -0.01234
 N1333 N -0.03256 0.35998 0.44889
 C1334 C -0.03906 0.36649 0.46131
 N1335 N -0.05120 0.35959 0.46792
 N1336 N -0.05669 0.34659 0.46226
 C1337 C -0.05028 0.34002 0.44975
 N1338 N -0.03806 0.34698 0.44323
 C1339 C -0.03362 0.38088 0.46693
 C1340 C -0.02925 0.39315 0.47137
 C1341 C -0.02429 0.40797 0.47630
 N1342 N -0.03148 0.41518 0.48794
 N1343 N -0.02738 0.42926 0.49200
 C1344 C -0.01596 0.43660 0.48454
 N1345 N -0.00875 0.42931 0.47293
 N1346 N -0.01285 0.41523 0.46888
 N1347 N 0.46710 -0.13934 0.44835
 C1348 C 0.46073 -0.13287 0.46086
 N1349 N 0.44860 -0.13973 0.46750
 N1350 N 0.44297 -0.15265 0.46178
 C1351 C 0.44921 -0.15919 0.44916
 N1352 N 0.46146 -0.15225 0.44263
 C1353 C 0.46632 -0.11857 0.46656
 C1354 C 0.47079 -0.10637 0.47109
 C1355 C 0.47583 -0.09163 0.47617
 N1356 N 0.46844 -0.08434 0.48763
 N1357 N 0.47261 -0.07032 0.49181
 C1358 C 0.48430 -0.06311 0.48466
 N1359 N 0.49173 -0.07049 0.47323
 N1360 N 0.48756 -0.08450 0.46905
 N1361 N 0.44909 0.35941 -0.03197
 C1362 C 0.46122 0.36631 -0.03860
 N1363 N 0.46774 0.35976 -0.05100
 N1364 N 0.46226 0.34673 -0.05661
 C1365 C 0.45004 0.33978 -0.05007
 N1366 N 0.44362 0.34639 -0.03759
 C1367 C 0.46663 0.38073 -0.03304
 C1368 C 0.47095 0.39302 -0.02863
 C1369 C 0.47584 0.40786 -0.02372
 N1370 N 0.48742 0.41507 -0.03099
 N1371 N 0.49146 0.42916 -0.02695
 C1372 C 0.48406 0.43653 -0.01551
 N1373 N 0.47251 0.42925 -0.00820
 N1374 N 0.46847 0.41515 -0.01224
 N1375 N 0.80167 0.38954 0.46747
 C1376 C 0.78950 0.38269 0.46086
 N1377 N 0.78300 0.38923 0.44844
 N1378 N 0.78854 0.40221 0.44278
 C1379 C 0.80080 0.40913 0.44931
 N1380 N 0.80721 0.40253 0.46181
 C1381 C 0.78401 0.36833 0.46649
 C1382 C 0.77961 0.35609 0.47098
 C1383 C 0.77464 0.34131 0.47599
 N1384 N 0.76288 0.33420 0.46888
 N1385 N 0.75874 0.32017 0.47302
 C1386 C 0.76622 0.31276 0.48440
 N1387 N 0.77795 0.31994 0.49154
 N1388 N 0.78209 0.33398 0.48740
 N1389 N 0.80068 0.89053 -0.03163
 C1390 C 0.78855 0.88364 -0.03829
 N1391 N 0.78210 0.89015 -0.05075
 N1392 N 0.78764 0.90313 -0.05641
 C1393 C 0.79985 0.91007 -0.04984
 N1394 N 0.80622 0.90351 -0.03729
 C1395 C 0.78310 0.86925 -0.03271
 C1396 C 0.77874 0.85697 -0.02831
 C1397 C 0.77381 0.84213 -0.02344
 N1398 N 0.76240 0.83486 -0.03093
 N1399 N 0.75834 0.82076 -0.02695
 C1400 C 0.76557 0.81344 -0.01534
 N1401 N 0.77695 0.82079 -0.00781
 N1402 N 0.78101 0.83490 -0.01180
 N1403 N 0.78289 0.30179 0.36036
 C1404 C 0.78934 0.28943 0.36707
 N1405 N 0.80171 0.28291 0.36051
 N1406 N 0.80749 0.28860 0.34766
 C1407 C 0.80114 0.30105 0.34090
 N1408 N 0.78868 0.30748 0.34751
 C1409 C 0.78360 0.28378 0.38132
 C1410 C 0.77904 0.27927 0.39348
 C1411 C 0.77396 0.27418 0.40819
 N1412 N 0.78114 0.26249 0.41534
 N1413 N 0.77697 0.25829 0.42935
 C1414 C 0.76548 0.26566 0.43667
 N1415 N 0.75826 0.27731 0.42943
 N1416 N 0.76243 0.28151 0.41543
 N1417 N 0.78334 0.80305 -0.13928
 C1418 C 0.78974 0.79065 -0.13263
 N1419 N 0.80209 0.78412 -0.13921
 N1420 N 0.80790 0.78987 -0.15203
 C1421 C 0.80162 0.80239 -0.15875
 N1422 N 0.78915 0.80879 -0.15210
 C1423 C 0.78394 0.78492 -0.11843
 C1424 C 0.77933 0.78034 -0.10631
 C1425 C 0.77417 0.77518 -0.09165
 N1426 N 0.78122 0.76338 -0.08456
 N1427 N 0.77697 0.75910 -0.07061
 C1428 C 0.76552 0.76650 -0.06326
 N1429 N 0.75842 0.77828 -0.07043
 N1430 N 0.76268 0.78255 -0.08439
 N1431 N 0.28314 0.44804 0.88870
 C1432 C 0.28976 0.46021 0.88182
 N1433 N 0.30197 0.46691 0.88852
 N1434 N 0.30742 0.46158 0.90168
 C1435 C 0.30089 0.44934 0.90862
 N1436 N 0.28860 0.44271 0.90186
 C1437 C 0.28427 0.46557 0.86735
 C1438 C 0.27986 0.46992 0.85506
 C1439 C 0.27486 0.47491 0.84028
 N1440 N 0.28200 0.48664 0.83316
 N1441 N 0.27771 0.49095 0.81922
 C1442 C 0.26615 0.48367 0.81192
 N1443 N 0.25900 0.47194 0.81910
 N1444 N 0.26329 0.46763 0.83305
 N1445 N 0.30068 -0.03168 0.39034
 C1446 C 0.28844 -0.03835 0.38366
 N1447 N 0.28181 -0.05050 0.39054
 N1448 N 0.28728 -0.05585 0.40369
 C1449 C 0.29960 -0.04927 0.41043
 N1450 N 0.30615 -0.03703 0.40349
 C1451 C 0.28302 -0.03306 0.36914
 C1452 C 0.27870 -0.02885 0.35677
 C1453 C 0.27385 -0.02412 0.34186
 N1454 N 0.26251 -0.03169 0.33454
 N1455 N 0.25848 -0.02775 0.32042
 C1456 C 0.26566 -0.01612 0.31312
 N1457 N 0.27697 -0.00852 0.32050
 N1458 N 0.28100 -0.01246 0.33463
 N1459 N -0.03305 -0.05197 -0.13942
 C1460 C -0.03946 -0.03960 -0.13272
 N1461 N -0.05184 -0.03307 -0.13928
 N1462 N -0.05765 -0.03877 -0.15213
 C1463 C -0.05135 -0.05125 -0.15890
 N1464 N -0.03887 -0.05766 -0.15226
 C1465 C -0.03369 -0.03395 -0.11847
 C1466 C -0.02911 -0.02942 -0.10631
 C1467 C -0.02401 -0.02432 -0.09161
 N1468 N -0.03137 -0.01281 -0.08435
 N1469 N -0.02718 -0.00861 -0.07034
 C1470 C -0.01550 -0.01579 -0.06311
 N1471 N -0.00810 -0.02726 -0.07046
 N1472 N -0.01229 -0.03146 -0.08447
 N1473 N -0.03333 0.44738 0.36045
 C1474 C -0.03978 0.45973 0.36715
 N1475 N -0.05217 0.46623 0.36060
 N1476 N -0.05798 0.46052 0.34776
 C1477 C -0.05165 0.44806 0.34098
 N1478 N -0.03915 0.44168 0.34761
 C1479 C -0.03401 0.46540 0.38139
 C1480 C -0.02942 0.46993 0.39355
 C1481 C -0.02429 0.47504 0.40824
 N1482 N -0.03137 0.48682 0.41533
 N1483 N -0.02716 0.49105 0.42932
 C1484 C -0.01573 0.48361 0.43670
 N1485 N -0.00862 0.47186 0.42953
 N1486 N -0.01284 0.46764 0.41554
 N1487 N 0.45000 -0.03204 0.35980
 C1488 C 0.46212 -0.03882 0.36660
 N1489 N 0.46851 -0.05123 0.35995
 N1490 N 0.46292 -0.05672 0.34691
 C1491 C 0.45072 -0.05003 0.34006
 N1492 N 0.44442 -0.03753 0.34676
 C1493 C 0.46762 -0.03339 0.38103
 C1494 C 0.47199 -0.02906 0.39334
 C1495 C 0.47685 -0.02417 0.40819
 N1496 N 0.48834 -0.03152 0.41549
 N1497 N 0.49235 -0.02747 0.42959
 C1498 C 0.48500 -0.01593 0.43687
 N1499 N 0.47354 -0.00855 0.42950
 N1500 N 0.46953 -0.01261 0.41540
 N1501 N 0.46687 0.44743 -0.13956
 C1502 C 0.46045 0.45980 -0.13287
 N1503 N 0.44805 0.46629 -0.13940
 N1504 N 0.44219 0.46055 -0.15221
 C1505 C 0.44848 0.44806 -0.15897
 N1506 N 0.46101 0.44169 -0.15237
 C1507 C 0.46626 0.46549 -0.11866
 C1508 C 0.47085 0.47005 -0.10651
 C1509 C 0.47595 0.47521 -0.09183
 N1510 N 0.46859 0.48674 -0.08461
 N1511 N 0.47276 0.49098 -0.07061
 C1512 C 0.48443 0.48382 -0.06335
 N1513 N 0.49184 0.47232 -0.07065
 N1514 N 0.48766 0.46808 -0.08465
 N1515 N 0.44771 0.78405 0.38819
 C1516 C 0.45983 0.79078 0.38138
 N1517 N 0.46647 0.80299 0.38817
 N1518 N 0.46111 0.80833 0.40135
 C1519 C 0.44892 0.80168 0.40823
 N1520 N 0.44236 0.78940 0.40137
 C1521 C 0.46524 0.78536 0.36691
 C1522 C 0.46961 0.78096 0.35463
 C1523 C 0.47459 0.77589 0.33988
 N1524 N 0.48637 0.78293 0.33277
 N1525 N 0.49071 0.77852 0.31887
 C1526 C 0.48339 0.76693 0.31163
 N1527 N 0.47162 0.75988 0.31881
 N1528 N 0.46729 0.76430 0.33270
 N1529 N -0.05222 0.78387 0.88822
 C1530 C -0.04013 0.79065 0.88139
 N1531 N -0.03351 0.80286 0.88819
 N1532 N -0.03885 0.80816 0.90140
 C1533 C -0.05102 0.80147 0.90829
 N1534 N -0.05756 0.78918 0.90142
 C1535 C -0.03476 0.78528 0.86689
 C1536 C -0.03043 0.78092 0.85459
 C1537 C -0.02549 0.77590 0.83981
 N1538 N -0.01372 0.78296 0.83269
 N1539 N -0.00944 0.77859 0.81877
 C1540 C -0.01678 0.76703 0.81150
 N1541 N -0.02854 0.75997 0.81869
 N1542 N -0.03283 0.76434 0.83261
 N1543 N 0.36155 0.78295 0.30224
 C1544 C 0.36844 0.78955 0.29008
 N1545 N 0.36174 0.80173 0.28330
 N1546 N 0.34858 0.80718 0.28855
 C1547 C 0.34163 0.80067 0.30079
 N1548 N 0.34839 0.78840 0.30749
 C1549 C 0.38291 0.78406 0.28479
 C1550 C 0.39520 0.77966 0.28050
 C1551 C 0.40997 0.77466 0.27557
 N1552 N 0.41712 0.78185 0.26389
 N1553 N 0.43105 0.77755 0.25962
 C1554 C 0.43829 0.76592 0.26688
 N1555 N 0.43107 0.75872 0.27855
 N1556 N 0.41714 0.76302 0.28282
 N1557 N -0.13764 0.80329 0.78443
 C1558 C -0.13113 0.79088 0.79096
 N1559 N -0.13804 0.78423 0.80308
 N1560 N -0.15105 0.78985 0.80853
 C1561 C -0.15763 0.80234 0.80208
 N1562 N -0.15065 0.80891 0.78988
 C1563 C -0.11681 0.78518 0.78546
 C1564 C -0.10465 0.78060 0.78100
 C1565 C -0.09002 0.77540 0.77587
 N1566 N -0.08290 0.76369 0.78305
 N1567 N -0.06907 0.75923 0.77863
 C1568 C -0.06189 0.76634 0.76688
 N1569 N -0.06908 0.77805 0.75969
 N1570 N -0.08291 0.78250 0.76411
 N1571 N 0.88967 0.28146 0.44835
 C1572 C 0.88309 0.28780 0.46081
 N1573 N 0.88988 0.29993 0.46759
 N1574 N 0.90284 0.30557 0.46204
 C1575 C 0.90948 0.29933 0.44949
 N1576 N 0.90263 0.28711 0.44280
 C1577 C 0.86874 0.28222 0.46632
 C1578 C 0.85649 0.27781 0.47074
 C1579 C 0.84171 0.27291 0.47573
 N1580 N 0.83449 0.28038 0.48718
 N1581 N 0.82043 0.27636 0.49130
 C1582 C 0.81312 0.26474 0.48409
 N1583 N 0.82042 0.25724 0.47267
 N1584 N 0.83448 0.26126 0.46855
 N1585 N 0.88967 0.80110 -0.03250
 C1586 C 0.88290 0.78895 -0.03925
 N1587 N 0.88948 0.78261 -0.05172
 N1588 N 0.90242 0.78828 -0.05729
 C1589 C 0.90925 0.80052 -0.05062
 N1590 N 0.90261 0.80677 -0.03807
 C1591 C 0.86856 0.78335 -0.03373
 C1592 C 0.85634 0.77889 -0.02932
 C1593 C 0.84157 0.77392 -0.02436
 N1594 N 0.83432 0.76239 -0.03171
 N1595 N 0.82028 0.75829 -0.02761
 C1596 C 0.81302 0.76560 -0.01604
 N1597 N 0.82035 0.77710 -0.00866
 N1598 N 0.83438 0.78119 -0.01276
 N1599 N -0.13976 -0.03175 -0.05132
 C1600 C -0.13321 -0.03810 -0.03883
 N1601 N -0.14008 -0.05015 -0.03201
 N1602 N -0.15309 -0.05572 -0.03755
 C1603 C -0.15969 -0.04947 -0.05013
 N1604 N -0.15276 -0.03733 -0.05686
 C1605 C -0.11881 -0.03261 -0.03335
 C1606 C -0.10652 -0.02825 -0.02898
 C1607 C -0.09170 -0.02338 -0.02409
 N1608 N -0.08454 -0.03061 -0.01243
 N1609 N -0.07045 -0.02659 -0.00838
 C1610 C -0.06305 -0.01522 -0.01587
 N1611 N -0.07029 -0.00795 -0.02750
 N1612 N -0.08437 -0.01197 -0.03154
 N1613 N -0.13972 0.46737 0.44778
 C1614 C -0.13312 0.46100 0.46023
 N1615 N -0.13988 0.44882 0.46694
 N1616 N -0.15281 0.44315 0.46133
 C1617 C -0.15949 0.44940 0.44877
 N1618 N -0.15266 0.46170 0.44218
 C1619 C -0.11880 0.46662 0.46580
 C1620 C -0.10659 0.47107 0.47027
 C1621 C -0.09184 0.47606 0.47530
 N1622 N -0.08468 0.46878 0.48694
 N1623 N -0.07066 0.47289 0.49111
 C1624 C -0.06332 0.48440 0.48378
 N1625 N -0.07056 0.49171 0.47217
 N1626 N -0.08458 0.48760 0.46801
 N1627 N 0.36003 -0.03128 0.44964
 C1628 C 0.36678 -0.03782 0.46192
 N1629 N 0.36002 -0.04998 0.46867
 N1630 N 0.34692 -0.05546 0.46326
 C1631 C 0.34011 -0.04900 0.45089
 N1632 N 0.34693 -0.03676 0.44424
 C1633 C 0.38127 -0.03241 0.46728
 C1634 C 0.39361 -0.02811 0.47155
 C1635 C 0.40849 -0.02332 0.47637
 N1636 N 0.41581 -0.03083 0.48776
 N1637 N 0.42992 -0.02687 0.49175
 C1638 C 0.43720 -0.01527 0.48448
 N1639 N 0.42981 -0.00774 0.47313
 N1640 N 0.41569 -0.01170 0.46913
 N1641 N 0.36008 0.44901 -0.03276
 C1642 C 0.36687 0.46115 -0.03950
 N1643 N 0.36026 0.46755 -0.05193
 N1644 N 0.34729 0.46193 -0.05749
 C1645 C 0.34042 0.44967 -0.05087
 N1646 N 0.34711 0.44340 -0.03833
 C1647 C 0.38124 0.46671 -0.03397
 C1648 C 0.39348 0.47112 -0.02956
 C1649 C 0.40827 0.47607 -0.02461
 N1650 N 0.41557 0.48750 -0.03204
 N1651 N 0.42962 0.49159 -0.02793
 C1652 C 0.43684 0.48437 -0.01626
 N1653 N 0.42945 0.47297 -0.00879
 N1654 N 0.41541 0.46889 -0.01290
 N1655 N 0.38777 0.46586 0.80309
 C1656 C 0.38083 0.45915 0.79101
 N1657 N 0.38738 0.44677 0.78447
 N1658 N 0.40047 0.44124 0.78987
 C1659 C 0.40748 0.44788 0.80203
 N1660 N 0.40085 0.46033 0.80849
 C1661 C 0.36645 0.46475 0.78555
 C1662 C 0.35425 0.46927 0.78111
 C1663 C 0.33958 0.47441 0.77599
 N1664 N 0.33240 0.46718 0.76435
 N1665 N 0.31856 0.47162 0.75991
 C1666 C 0.31144 0.48344 0.76697
 N1667 N 0.31869 0.49068 0.77861
 N1668 N 0.33253 0.48623 0.78304
 N1669 N 0.39050 -0.03171 0.30069
 C1670 C 0.38361 -0.03835 0.28853
 N1671 N 0.39016 -0.05073 0.28199
 N1672 N 0.40318 -0.05633 0.28746
 C1673 C 0.41013 -0.04978 0.29970
 N1674 N 0.40352 -0.03731 0.30616
 C1675 C 0.36919 -0.03281 0.28314
 C1676 C 0.35689 -0.02844 0.27882
 C1677 C 0.34205 -0.02359 0.27394
 N1678 N 0.33485 -0.03092 0.26237
 N1679 N 0.32076 -0.02693 0.25833
 C1680 C 0.31339 -0.01549 0.26574
 N1681 N 0.32067 -0.00812 0.27728
 N1682 N 0.33476 -0.01212 0.28132
 N1683 N 0.11050 0.53280 0.69866
 C1684 C 0.11697 0.53932 0.71110
 N1685 N 0.11005 0.55147 0.71770
 N1686 N 0.09708 0.55696 0.71200
 C1687 C 0.09056 0.55053 0.69947
 N1688 N 0.09753 0.53829 0.69296
 C1689 C 0.13131 0.53386 0.71678
 C1690 C 0.14355 0.52948 0.72128
 C1691 C 0.15831 0.52450 0.72629
 N1692 N 0.16557 0.53186 0.73781
 N1693 N 0.17960 0.52773 0.74194
 C1694 C 0.18684 0.51611 0.73468
 N1695 N 0.17950 0.50873 0.72319
 N1696 N 0.16548 0.51286 0.71906
 N1697 N 0.11227 0.05233 0.21574
 C1698 C 0.11921 0.04025 0.20903
 N1699 N 0.11266 0.03372 0.19663
 N1700 N 0.09958 0.03913 0.19109
 C1701 C 0.09257 0.05128 0.19773
 N1702 N 0.09919 0.05773 0.21020
 C1703 C 0.13358 0.03480 0.21463
 C1704 C 0.14579 0.03037 0.21915
 C1705 C 0.16046 0.02527 0.22428
 N1706 N 0.16764 0.01363 0.21707
 N1707 N 0.18149 0.00922 0.22150
 C1708 C 0.18863 0.01631 0.23329
 N1709 N 0.18138 0.02795 0.24052
 N1710 N 0.16753 0.03236 0.23609
 N1711 N 0.63986 0.69910 0.21774
 C1712 C 0.63290 0.71121 0.21109
 N1713 N 0.63933 0.71769 0.19862
 N1714 N 0.65230 0.71221 0.19294
 C1715 C 0.65931 0.70002 0.19951
 N1716 N 0.65283 0.69362 0.21206
 C1717 C 0.61854 0.71662 0.21674
 C1718 C 0.60630 0.72095 0.22123
 C1719 C 0.59152 0.72583 0.22624
 N1720 N 0.58435 0.73756 0.21914
 N1721 N 0.57031 0.74162 0.22327
 C1722 C 0.56296 0.73406 0.23463
 N1723 N 0.57020 0.72236 0.24176
 N1724 N 0.58425 0.71830 0.23763
 N1725 N 0.13954 0.69912 0.71776
 C1726 C 0.13264 0.71125 0.71110
 N1727 N 0.13914 0.71776 0.69868
 N1728 N 0.15213 0.71226 0.69305
 C1729 C 0.15908 0.70004 0.69961
 N1730 N 0.15253 0.69362 0.71213
 C1731 C 0.11827 0.71670 0.71670
 C1732 C 0.10601 0.72105 0.72115
 C1733 C 0.09123 0.72595 0.72612
 N1734 N 0.08408 0.73768 0.71899
 N1735 N 0.07004 0.74176 0.72310
 C1736 C 0.06267 0.73423 0.73446
 N1737 N 0.06989 0.72253 0.74162
 N1738 N 0.08394 0.71845 0.73751
 N1739 N 0.61186 0.19738 0.53314
 C1740 C 0.61851 0.20979 0.53955
 N1741 N 0.61166 0.21666 0.55158
 N1742 N 0.59857 0.21125 0.55707
 C1743 C 0.59186 0.19877 0.55074
 N1744 N 0.59877 0.19198 0.53863
 C1745 C 0.63292 0.21523 0.53405
 C1746 C 0.64516 0.21963 0.52963
 C1747 C 0.65989 0.22465 0.52461
 N1748 N 0.66702 0.23636 0.53179
 N1749 N 0.68093 0.24068 0.52750
 C1750 C 0.68819 0.23342 0.51589
 N1751 N 0.68099 0.22172 0.50870
 N1752 N 0.66708 0.21741 0.51299
 N1753 N 0.61211 0.71597 0.05216
 C1754 C 0.61898 0.70913 0.04012
 N1755 N 0.61236 0.69671 0.03371
 N1756 N 0.59928 0.69128 0.03919
 C1757 C 0.59235 0.69805 0.05130
 N1758 N 0.59903 0.71054 0.05764
 C1759 C 0.63336 0.71462 0.03460
 C1760 C 0.64557 0.71909 0.03015
 C1761 C 0.66024 0.72422 0.02509
 N1762 N 0.66732 0.71722 0.01326
 N1763 N 0.68117 0.72167 0.00889
 C1764 C 0.68840 0.73327 0.01621
 N1765 N 0.68125 0.74028 0.02803
 N1766 N 0.66741 0.73583 0.03240
 N1767 N 0.13731 0.03467 0.05319
 C1768 C 0.13068 0.04134 0.04091
 N1769 N 0.13738 0.05371 0.03451
 N1770 N 0.15029 0.05928 0.04026
 C1771 C 0.15701 0.05273 0.05265
 N1772 N 0.15023 0.04025 0.05893
 C1773 C 0.11645 0.03571 0.03511
 C1774 C 0.10434 0.03116 0.03046
 C1775 C 0.08976 0.02595 0.02519
 N1776 N 0.08267 0.01415 0.03225
 N1777 N 0.06886 0.00969 0.02776
 C1778 C 0.06167 0.01688 0.01606
 N1779 N 0.06883 0.02866 0.00897
 N1780 N 0.08264 0.03312 0.01347
 N1781 N 0.13736 0.55337 0.53377
 C1782 C 0.13076 0.54096 0.54021
 N1783 N 0.13767 0.53411 0.55222
 N1784 N 0.15078 0.53953 0.55766
 C1785 C 0.15746 0.55201 0.55131
 N1786 N 0.15048 0.55879 0.53922
 C1787 C 0.11636 0.53546 0.53471
 C1788 C 0.10413 0.53099 0.53029
 C1789 C 0.08945 0.52584 0.52525
 N1790 N 0.08229 0.51425 0.53258
 N1791 N 0.06845 0.50978 0.52821
 C1792 C 0.06128 0.51676 0.51636
 N1793 N 0.06849 0.52835 0.50902
 N1794 N 0.08234 0.53282 0.51340
 N1795 N 0.63789 0.05379 0.53380
 C1796 C 0.63135 0.04132 0.54017
 N1797 N 0.63825 0.03451 0.55222
 N1798 N 0.65127 0.04004 0.55776
 C1799 C 0.65789 0.05262 0.55150
 N1800 N 0.65091 0.05932 0.53935
 C1801 C 0.61702 0.03571 0.53459
 C1802 C 0.60484 0.03116 0.53012
 C1803 C 0.59019 0.02593 0.52504
 N1804 N 0.58319 0.01415 0.53221
 N1805 N 0.56933 0.00965 0.52787
 C1806 C 0.56202 0.01680 0.51622
 N1807 N 0.56909 0.02857 0.50903
 N1808 N 0.58294 0.03306 0.51337
 N1809 N 0.63791 0.53389 0.05161
 C1810 C 0.63106 0.54072 0.03955
 N1811 N 0.63770 0.55311 0.03312
 N1812 N 0.65079 0.55853 0.03861
 C1813 C 0.65771 0.55178 0.05076
 N1814 N 0.65100 0.53931 0.05711
 C1815 C 0.61666 0.53524 0.03402
 C1816 C 0.60444 0.53080 0.02956
 C1817 C 0.58973 0.52571 0.02450
 N1818 N 0.58256 0.53287 0.01281
 N1819 N 0.56868 0.52848 0.00846
 C1820 C 0.56150 0.51679 0.01567
 N1821 N 0.56874 0.50962 0.02736
 N1822 N 0.58262 0.51401 0.03171
 N1823 N 0.03434 0.05205 0.13815
 C1824 C 0.04111 0.03997 0.13128
 N1825 N 0.05354 0.03358 0.13787
 N1826 N 0.05907 0.03914 0.15090
 C1827 C 0.05240 0.05133 0.15785
 N1828 N 0.03987 0.05760 0.15118
 C1829 C 0.03553 0.03439 0.11693
 C1830 C 0.03101 0.02991 0.10473
 C1831 C 0.02582 0.02484 0.09005
 N1832 N 0.03298 0.01319 0.08281
 N1833 N 0.02853 0.00885 0.06892
 C1834 C 0.01678 0.01603 0.06180
 N1835 N 0.00961 0.02767 0.06911
 N1836 N 0.01407 0.03200 0.08300
 N1837 N 0.03333 0.55176 0.63807
 C1838 C 0.04011 0.53961 0.63134
 N1839 N 0.05231 0.53305 0.63821
 N1840 N 0.05758 0.53850 0.65139
 C1841 C 0.05088 0.55073 0.65818
 N1842 N 0.03861 0.55721 0.65125
 C1843 C 0.03478 0.53410 0.61686
 C1844 C 0.03045 0.52967 0.60457
 C1845 C 0.02546 0.52464 0.58980
 N1846 N 0.03267 0.51298 0.58264
 N1847 N 0.02836 0.50864 0.56872
 C1848 C 0.01669 0.51582 0.56148
 N1849 N 0.00947 0.52748 0.56870
 N1850 N 0.01378 0.53181 0.58263
 N1851 N 0.55298 0.03389 0.63830
 C1852 C 0.54084 0.04054 0.63142
 N1853 N 0.53414 0.05274 0.63814
 N1854 N 0.53946 0.05816 0.65132
 C1855 C 0.55169 0.05162 0.65829
 N1856 N 0.55829 0.03932 0.65148
 C1857 C 0.53548 0.03506 0.61694
 C1858 C 0.53113 0.03065 0.60466
 C1859 C 0.52610 0.02562 0.58990
 N1860 N 0.51452 0.03290 0.58269
 N1861 N 0.51015 0.02853 0.56879
 C1862 C 0.51722 0.01674 0.56164
 N1863 N 0.52880 0.00945 0.56892
 N1864 N 0.53317 0.01382 0.58282
 N1865 N 0.53293 0.55154 0.13837
 C1866 C 0.53970 0.53941 0.13158
 N1867 N 0.55189 0.53281 0.13841
 N1868 N 0.55719 0.53820 0.15160
 C1869 C 0.55050 0.55041 0.15846
 N1870 N 0.53823 0.55693 0.15157
 C1871 C 0.53436 0.53399 0.11707
 C1872 C 0.53003 0.52962 0.10476
 C1873 C 0.52506 0.52466 0.08996
 N1874 N 0.53233 0.51308 0.08273
 N1875 N 0.52804 0.50881 0.06877
 C1876 C 0.51634 0.51599 0.06158
 N1877 N 0.50907 0.52756 0.06887
 N1878 N 0.51336 0.53183 0.08283
 N1879 N 0.19784 0.53283 0.61063
 C1880 C 0.21026 0.53921 0.61726
 N1881 N 0.21683 0.55153 0.61061
 N1882 N 0.21113 0.55731 0.59775
 C1883 C 0.19863 0.55101 0.59107
 N1884 N 0.19214 0.53861 0.59777
 C1885 C 0.21592 0.53349 0.63152
 C1886 C 0.22044 0.52896 0.64370
 C1887 C 0.22555 0.52392 0.65843
 N1888 N 0.23702 0.53134 0.66567
 N1889 N 0.24122 0.52721 0.67969
 C1890 C 0.23407 0.51553 0.68696
 N1891 N 0.22262 0.50808 0.67963
 N1892 N 0.21843 0.51221 0.66560
 N1893 N 0.21476 0.05262 0.11266
 C1894 C 0.20818 0.04029 0.11926
 N1895 N 0.19586 0.03383 0.11252
 N1896 N 0.19026 0.03957 0.09959
 C1897 C 0.19676 0.05198 0.09293
 N1898 N 0.20916 0.05835 0.09973
 C1899 C 0.21384 0.03450 0.13350
 C1900 C 0.21844 0.02986 0.14561
 C1901 C 0.22372 0.02462 0.16020
 N1902 N 0.21665 0.01286 0.16735
 N1903 N 0.22118 0.00840 0.18116
 C1904 C 0.23294 0.01554 0.18830
 N1905 N 0.24002 0.02728 0.18108
 N1906 N 0.23549 0.03175 0.16726
 N1907 N 0.69743 0.21624 0.63813
 C1908 C 0.70958 0.20962 0.63127
 N1909 N 0.71636 0.19747 0.63804
 N1910 N 0.71111 0.19208 0.65124
 C1911 C 0.69888 0.19862 0.65817
 N1912 N 0.69218 0.21084 0.65134
 C1913 C 0.71489 0.21506 0.61677
 C1914 C 0.71922 0.21943 0.60447
 C1915 C 0.72424 0.22440 0.58969
 N1916 N 0.73577 0.21704 0.58250
 N1917 N 0.74014 0.22135 0.56859
 C1918 C 0.73311 0.23316 0.56140
 N1919 N 0.72158 0.24052 0.56866
 N1920 N 0.71721 0.23621 0.58257
 N1921 N 0.69750 0.71731 0.13820
 C1922 C 0.70967 0.71071 0.13136
 N1923 N 0.71645 0.69857 0.13814
 N1924 N 0.71119 0.69317 0.15133
 C1925 C 0.69894 0.69969 0.15824
 N1926 N 0.69224 0.71191 0.15140
 C1927 C 0.71498 0.71615 0.11686
 C1928 C 0.71929 0.72053 0.10456
 C1929 C 0.72425 0.72550 0.08977
 N1930 N 0.73590 0.71829 0.08262
 N1931 N 0.74020 0.72258 0.06868
 C1932 C 0.73298 0.73423 0.06142
 N1933 N 0.72134 0.74145 0.06863
 N1934 N 0.71704 0.73715 0.08257
 N1935 N 0.55205 0.71719 0.11065
 C1936 C 0.53967 0.71077 0.11728
 N1937 N 0.53313 0.69841 0.11066
 N1938 N 0.53883 0.69263 0.09782
 C1939 C 0.55130 0.69896 0.09112
 N1940 N 0.55775 0.71140 0.09780
 C1941 C 0.53401 0.71650 0.13153
 C1942 C 0.52949 0.72104 0.14370
 C1943 C 0.52440 0.72611 0.15841
 N1944 N 0.51278 0.71886 0.16556
 N1945 N 0.50858 0.72302 0.17956
 C1946 C 0.51588 0.73456 0.18690
 N1947 N 0.52747 0.74185 0.17967
 N1948 N 0.53167 0.73769 0.16566
 N1949 N 0.05197 0.71716 0.61061
 C1950 C 0.03955 0.71078 0.61721
 N1951 N 0.03300 0.69844 0.61057
 N1952 N 0.03872 0.69264 0.59774
 C1953 C 0.05123 0.69893 0.59109
 N1954 N 0.05769 0.71135 0.59778
 C1955 C 0.03386 0.71654 0.63143
 C1956 C 0.02931 0.72112 0.64358
 C1957 C 0.02419 0.72624 0.65826
 N1958 N 0.01253 0.71903 0.66540
 N1959 N 0.00830 0.72323 0.67938
 C1960 C 0.01561 0.73477 0.68671
 N1961 N 0.02724 0.74203 0.67949
 N1962 N 0.03146 0.73782 0.66551
 N1963 N 0.55026 0.60993 0.21767
 C1964 C 0.53815 0.61675 0.21091
 N1965 N 0.53180 0.61019 0.19843
 N1966 N 0.53743 0.59721 0.19285
 C1967 C 0.54963 0.59033 0.19952
 N1968 N 0.55588 0.59696 0.21208
 C1969 C 0.53260 0.63113 0.21646
 C1970 C 0.52821 0.64339 0.22089
 C1971 C 0.52333 0.65819 0.22590
 N1972 N 0.51165 0.66541 0.21876
 N1973 N 0.50763 0.67949 0.22289
 C1974 C 0.51516 0.68683 0.23428
 N1975 N 0.52680 0.67953 0.24146
 N1976 N 0.53082 0.66545 0.23733
 N1977 N 0.03194 0.61054 0.69801
 C1978 C 0.03822 0.61713 0.71051
 N1979 N 0.05035 0.61036 0.71730
 N1980 N 0.05604 0.59741 0.71173
 C1981 C 0.04984 0.59075 0.69915
 N1982 N 0.03763 0.59758 0.69245
 C1983 C 0.03259 0.63148 0.71605
 C1984 C 0.02813 0.64371 0.72049
 C1985 C 0.02318 0.65849 0.72554
 N1986 N 0.03062 0.66573 0.73701
 N1987 N 0.02655 0.67978 0.74118
 C1988 C 0.01491 0.68707 0.73400
 N1989 N 0.00743 0.67975 0.72256
 N1990 N 0.01151 0.66569 0.71839
 N1991 N 0.05324 0.13761 0.03457
 C1992 C 0.04093 0.13098 0.04114
 N1993 N 0.03425 0.13788 0.05325
 N1994 N 0.03975 0.15098 0.05866
 C1995 C 0.05214 0.15767 0.05218
 N1996 N 0.05873 0.15071 0.03999
 C1997 C 0.03537 0.11658 0.03566
 C1998 C 0.03089 0.10436 0.03120
 C1999 C 0.02579 0.08967 0.02606
 N2000 N 0.01399 0.08257 0.03310
 N2001 N 0.00957 0.06872 0.02864
 C2002 C 0.01681 0.06149 0.01700
 N2003 N 0.02860 0.06865 0.00996
 N2004 N 0.03302 0.08250 0.01442
 N2005 N 0.03358 0.63809 0.55224
 C2006 C 0.04031 0.63112 0.54020
 N2007 N 0.05276 0.63761 0.53376
 N2008 N 0.05833 0.65066 0.53923
 C2009 C 0.05168 0.65770 0.55134
 N2010 N 0.03915 0.65115 0.55770
 C2011 C 0.03467 0.61676 0.53470
 C2012 C 0.03014 0.60455 0.53025
 C2013 C 0.02499 0.58986 0.52514
 N2014 N 0.03205 0.58276 0.51336
 N2015 N 0.02766 0.56887 0.50897
 C2016 C 0.01606 0.56162 0.51623
 N2017 N 0.00897 0.56879 0.52800
 N2018 N 0.01337 0.58268 0.53238
 N2019 N 0.53334 0.13866 0.55219
 C2020 C 0.54005 0.13165 0.54016
 N2021 N 0.55241 0.13818 0.53360
 N2022 N 0.55793 0.15131 0.53894
 C2023 C 0.55130 0.15838 0.55105
 N2024 N 0.53886 0.15178 0.55753
 C2025 C 0.53450 0.11720 0.53481
 C2026 C 0.53003 0.10493 0.53048
 C2027 C 0.52498 0.09016 0.52551
 N2028 N 0.53210 0.08299 0.51381
 N2029 N 0.52778 0.06906 0.50953
 C2030 C 0.51618 0.06182 0.51681
 N2031 N 0.50904 0.06906 0.52850
 N2032 N 0.51338 0.08300 0.53278
 N2033 N 0.55296 0.63751 0.03396
 C2034 C 0.54058 0.63096 0.04047
 N2035 N 0.53385 0.63792 0.05252
 N2036 N 0.53936 0.65103 0.05791
 C2037 C 0.55182 0.65765 0.05148
 N2038 N 0.55846 0.65062 0.03936
 C2039 C 0.53501 0.61655 0.03503
 C2040 C 0.53053 0.60432 0.03060
 C2041 C 0.52544 0.58961 0.02551
 N2042 N 0.51365 0.58253 0.03257
 N2043 N 0.50925 0.56865 0.02816
 C2044 C 0.51650 0.56139 0.01655
 N2045 N 0.52828 0.56854 0.00949
 N2046 N 0.53268 0.58242 0.01390
 N2047 N 0.71569 0.11170 0.55274
 C2048 C 0.70900 0.11870 0.54068
 N2049 N 0.69656 0.11224 0.53419
 N2050 N 0.69094 0.09920 0.53962
 C2051 C 0.69751 0.09211 0.55178
 N2052 N 0.71006 0.09865 0.55816
 C2053 C 0.71470 0.13304 0.53521
 C2054 C 0.71930 0.14523 0.53077
 C2055 C 0.72454 0.15989 0.52567
 N2056 N 0.71749 0.16706 0.51392
 N2057 N 0.72198 0.18091 0.50953
 C2058 C 0.73368 0.18806 0.51675
 N2059 N 0.74075 0.18082 0.52850
 N2060 N 0.73625 0.16697 0.53289
 N2061 N 0.71634 0.61178 0.05196
 C2062 C 0.70964 0.61873 0.03987
 N2063 N 0.69726 0.61218 0.03334
 N2064 N 0.69172 0.59910 0.03876
 C2065 C 0.69833 0.59209 0.05092
 N2066 N 0.71080 0.59870 0.05737
 C2067 C 0.71523 0.63312 0.03442
 C2068 C 0.71972 0.64536 0.03000
 C2069 C 0.72482 0.66008 0.02494
 N2070 N 0.71773 0.66719 0.01316
 N2071 N 0.72209 0.68110 0.00882
 C2072 C 0.73367 0.68837 0.01611
 N2073 N 0.74077 0.68118 0.02788
 N2074 N 0.73641 0.66727 0.03222
 N2075 N 0.21758 0.63992 0.69840
 C2076 C 0.21122 0.63331 0.71084
 N2077 N 0.19909 0.64009 0.71757
 N2078 N 0.19345 0.65307 0.71200
 C2079 C 0.19972 0.65974 0.69948
 N2080 N 0.21194 0.65290 0.69283
 C2081 C 0.21680 0.61894 0.71637
 C2082 C 0.22124 0.60668 0.72078
 C2083 C 0.22622 0.59189 0.72574
 N2084 N 0.21908 0.58474 0.73746
 N2085 N 0.22318 0.57068 0.74157
 C2086 C 0.23456 0.56329 0.73410
 N2087 N 0.24173 0.57052 0.72241
 N2088 N 0.23762 0.58457 0.71830
 N2089 N 0.21665 0.13779 0.19715
 C2090 C 0.21022 0.13114 0.20953
 N2091 N 0.19820 0.13802 0.21637
 N2092 N 0.19274 0.15114 0.21095
 C2093 C 0.19908 0.15786 0.19849
 N2094 N 0.21119 0.15092 0.19174
 C2095 C 0.21571 0.11671 0.21500
 C2096 C 0.22011 0.10444 0.21942
 C2097 C 0.22513 0.08970 0.22448
 N2098 N 0.21799 0.08260 0.23622
 N2099 N 0.22229 0.06868 0.24059
 C2100 C 0.23387 0.06138 0.23335
 N2101 N 0.24102 0.06854 0.22162
 N2102 N 0.23672 0.08247 0.21726
 N2103 N 0.71756 1.13956 0.69793
 C2104 C 0.71129 1.13301 0.71044
 N2105 N 0.69918 1.13980 0.71720
 N2106 N 0.69347 1.15273 0.71158
 C2107 C 0.69962 1.15935 0.69895
 N2108 N 0.71185 1.15249 0.69231
 C2109 C 0.71693 1.11868 0.71602
 C2110 C 0.72139 1.10645 0.72049
 C2111 C 0.72637 1.09168 0.72552
 N2112 N 0.71894 1.08442 0.73698
 N2113 N 0.72303 1.07037 0.74113
 C2114 C 0.73468 1.06310 0.73396
 N2115 N 0.74214 1.07044 0.72254
 N2116 N 0.73805 1.08450 0.71839
 N2117 N 0.71771 0.63983 0.19809
 C2118 C 0.71140 0.63325 0.21058
 N2119 N 0.69932 0.64008 0.21737
 N2120 N 0.69370 0.65307 0.21181
 C2121 C 0.69992 0.65971 0.19924
 N2122 N 0.71208 0.65283 0.19254
 C2123 C 0.71696 0.61887 0.21609
 C2124 C 0.72137 0.60660 0.22050
 C2125 C 0.72631 0.59179 0.22545
 N2126 N 0.71914 0.58465 0.23715
 N2127 N 0.72321 0.57058 0.24125
 C2128 C 0.73458 0.56317 0.23379
 N2129 N 0.74179 0.57040 0.22212
 N2130 N 0.73771 0.58447 0.21802
 N2131 N 0.55131 0.11002 0.71681
 C2132 C 0.53921 0.11686 0.71007
 N2133 N 0.53291 0.11037 0.69753
 N2134 N 0.53859 0.09745 0.69187
 C2135 C 0.55081 0.09053 0.69849
 N2136 N 0.55699 0.09710 0.71114
 C2137 C 0.53358 0.13117 0.71571
 C2138 C 0.52910 0.14337 0.72021
 C2139 C 0.52406 0.15811 0.72527
 N2140 N 0.51263 0.16543 0.71786
 N2141 N 0.50847 0.17945 0.72206
 C2142 C 0.51563 0.18662 0.73380
 N2143 N 0.52703 0.17922 0.74124
 N2144 N 0.53118 0.16520 0.73704
 N2145 N 1.03317 0.11048 0.19756
 C2146 C 1.03964 0.11715 0.20993
 N2147 N 1.05201 0.11054 0.21643
 N2148 N 1.05776 0.09768 0.21071
 C2149 C 1.05138 0.09096 0.19826
 N2150 N 1.03893 0.09763 0.19184
 C2151 C 1.03392 0.13140 0.21561
 C2152 C 1.02936 0.14356 0.22014
 C2153 C 1.02426 0.15827 0.22523
 N2154 N 1.03134 0.16537 0.23701
 N2155 N 1.02714 0.17936 0.24122
 C2156 C 1.01572 0.18674 0.23377
 N2157 N 1.00860 0.17955 0.22202
 N2158 N 1.01280 0.16556 0.21782
 N2159 N 0.21628 0.61186 0.55228
 C2160 C 0.20953 0.61885 0.54025
 N2161 N 0.19708 0.61237 0.53378
 N2162 N 0.19152 0.59930 0.53921
 C2163 C 0.19818 0.59224 0.55132
 N2164 N 0.21071 0.59879 0.55771
 C2165 C 0.21515 0.63323 0.53479
 C2166 C 0.21968 0.64545 0.53037
 C2167 C 0.22481 0.66016 0.52531
 N2168 N 0.21776 0.66727 0.51351
 N2169 N 0.22215 0.68117 0.50916
 C2170 C 0.23373 0.68842 0.51647
 N2171 N 0.24079 0.68124 0.52826
 N2172 N 0.23640 0.66734 0.53260
 N2173 N 0.19613 0.11272 1.03498
 C2174 C 0.20841 0.11934 1.04164
 N2175 N 0.21489 0.11254 1.05393
 N2176 N 0.20924 0.09954 1.05941
 C2177 C 0.19688 0.09285 1.05283
 N2178 N 0.19048 0.09972 1.04047
 C2179 C 0.21414 0.13363 1.03607
 C2180 C 0.21874 0.14578 1.03153
 C2181 C 0.22397 0.16038 1.02630
 N2182 N 0.23585 0.16741 1.03328
 N2183 N 0.24037 0.18121 1.02875
 C2184 C 0.23314 0.18845 1.01710
 N2185 N 0.22127 0.18136 1.01011
 N2186 N 0.21676 0.16756 1.01464
 N2187 N 0.21640 0.69864 0.63843
 C2188 C 0.20964 0.71079 0.63165
 N2189 N 0.19745 0.71739 0.63847
 N2190 N 0.19216 0.71197 0.65165
 C2191 C 0.19884 0.69975 0.65849
 N2192 N 0.21111 0.69323 0.65161
 C2193 C 0.21498 0.71624 0.61716
 C2194 C 0.21931 0.72062 0.60487
 C2195 C 0.22429 0.72560 0.59009
 N2196 N 0.21709 0.73724 0.58288
 N2197 N 0.22140 0.74154 0.56895
 C2198 C 0.23305 0.73431 0.56174
 N2199 N 0.24026 0.72267 0.56902
 N2200 N 0.23595 0.71838 0.58295
 N2201 N 0.21647 0.19749 1.13811
 C2202 C 0.20994 0.20988 1.13155
 N2203 N 0.19787 0.21659 1.13848
 N2204 N 0.19248 0.21103 1.15157
 C2205 C 0.19893 0.19856 1.15819
 N2206 N 0.21107 0.19194 1.15119
 C2207 C 0.21537 0.21547 1.11715
 C2208 C 0.21977 0.21995 1.10491
 C2209 C 0.22482 0.22501 1.09019
 N2210 N 0.21761 0.23665 1.08298
 N2211 N 0.22195 0.24098 1.06906
 C2212 C 0.23365 0.23380 1.06189
 N2213 N 0.24087 0.22218 1.06917
 N2214 N 0.23653 0.21785 1.08308
 N2215 N 0.69790 0.53270 0.11027
 C2216 C 0.71028 0.53911 0.11693
 N2217 N 0.71685 0.55144 0.11030
 N2218 N 0.71118 0.55720 0.09742
 C2219 C 0.69871 0.55088 0.09071
 N2220 N 0.69223 0.53847 0.09739
 C2221 C 0.71592 0.53339 0.13121
 C2222 C 0.72043 0.52886 0.14340
 C2223 C 0.72552 0.52383 0.15813
 N2224 N 0.73701 0.53123 0.16537
 N2225 N 0.74120 0.52710 0.17939
 C2226 C 0.73405 0.51543 0.18665
 N2227 N 0.72260 0.50798 0.17933
 N2228 N 0.71841 0.51212 0.16530
 N2229 N 0.69762 1.03304 0.61049
 C2230 C 0.71000 1.03944 0.61716
 N2231 N 0.71652 1.05183 0.61060
 N2232 N 0.71079 1.05767 0.59777
 C2233 C 0.69832 1.05136 0.59105
 N2234 N 0.69190 1.03888 0.59766
 C2235 C 0.71569 1.03363 0.63138
 C2236 C 0.72025 1.02903 0.64352
 C2237 C 0.72539 1.02391 0.65821
 N2238 N 0.73705 1.03112 0.66535
 N2239 N 0.74129 1.02693 0.67934
 C2240 C 0.73401 1.01537 0.68666
 N2241 N 0.72238 1.00811 0.67943
 N2242 N 0.71814 1.01232 0.66544
 N2243 N 0.55183 0.21781 0.61030
 C2244 C 0.53946 0.21140 0.61696
 N2245 N 0.53285 0.19910 0.61031
 N2246 N 0.53848 0.19336 0.59741
 C2247 C 0.55094 0.19968 0.59070
 N2248 N 0.55746 0.21207 0.59740
 C2249 C 0.53389 0.21706 0.63127
 C2250 C 0.52942 0.22151 0.64349
 C2251 C 0.52438 0.22644 0.65826
 N2252 N 0.51293 0.21896 0.66547
 N2253 N 0.50878 0.22298 0.67953
 C2254 C 0.51595 0.23461 0.68686
 N2255 N 0.52736 0.24213 0.67957
 N2256 N 0.53151 0.23810 0.66551
 N2257 N 1.03380 0.19819 0.11079
 C2258 C 1.04027 0.21061 0.11733
 N2259 N 1.05262 0.21705 0.11065
 N2260 N 1.05834 0.21121 0.09784
 C2261 C 1.05198 0.19867 0.09122
 N2262 N 1.03952 0.19235 0.09798
 C2263 C 1.03458 0.21640 0.13155
 C2264 C 1.03002 0.22098 0.14369
 C2265 C 1.02484 0.22605 0.15837
 N2266 N 1.03193 0.23777 0.16557
 N2267 N 1.02768 0.24193 0.17956
 C2268 C 1.01619 0.23449 0.18683
 N2269 N 1.00906 0.22281 0.17953
 N2270 N 1.01332 0.21866 0.16554
 N2271 N 0.63951 0.21694 0.69866
 C2272 C 0.63305 0.21049 0.71113
 N2273 N 0.63994 0.19833 0.71777
 N2274 N 0.65287 0.19277 0.71208
 C2275 C 0.65938 0.19912 0.69952
 N2276 N 0.65244 0.21136 0.69297
 C2277 C 0.61874 0.21601 0.71679
 C2278 C 0.60652 0.22042 0.72128
 C2279 C 0.59177 0.22541 0.72629
 N2280 N 0.58453 0.21804 0.73780
 N2281 N 0.57050 0.22216 0.74192
 C2282 C 0.56325 0.23380 0.73467
 N2283 N 0.57058 0.24120 0.72320
 N2284 N 0.58460 0.23707 0.71908
 N2285 N 1.13968 0.19803 0.21751
 C2286 C 1.13300 0.21041 0.21108
 N2287 N 1.13960 0.21700 0.19875
 N2288 N 1.15247 0.21135 0.19301
 C2289 C 1.15921 0.19889 0.19935
 N2290 N 1.15256 0.19240 0.21177
 C2291 C 1.11872 0.21600 0.21677
 C2292 C 1.10654 0.22046 0.22128
 C2293 C 1.09181 0.22549 0.22631
 N2294 N 1.08466 0.23715 0.21908
 N2295 N 1.07064 0.24130 0.22319
 C2296 C 1.06330 0.23392 0.23467
 N2297 N 1.07054 0.22229 0.24194
 N2298 N 1.08456 0.21814 0.23782
 N2299 N 0.11248 0.69659 0.53388
 C2300 C 0.11909 0.70900 0.54032
 N2301 N 0.11218 0.71584 0.55234
 N2302 N 0.09908 0.71041 0.55777
 C2303 C 0.09241 0.69793 0.55141
 N2304 N 0.09938 0.69116 0.53932
 C2305 C 0.13348 0.71451 0.53483
 C2306 C 0.14569 0.71900 0.53041
 C2307 C 0.16036 0.72417 0.52537
 N2308 N 0.16750 0.73578 0.53269
 N2309 N 0.18134 0.74026 0.52833
 C2310 C 0.18851 0.73328 0.51651
 N2311 N 0.18130 0.72167 0.50917
 N2312 N 0.16746 0.71719 0.51353
 N2313 N 0.11227 0.21613 1.05253
 C2314 C 0.11905 0.20932 1.04042
 N2315 N 0.11239 0.19691 1.03404
 N2316 N 0.09936 0.19145 1.03962
 C2317 C 0.09252 0.19818 1.05180
 N2318 N 0.09924 0.21067 1.05810
 C2319 C 0.13339 0.21482 1.03480
 C2320 C 0.14557 0.21926 1.03027
 C2321 C 0.16024 0.22434 1.02511
 N2322 N 0.16732 0.21714 1.01340
 N2323 N 0.18118 0.22150 1.00898
 C2324 C 0.18843 0.23319 1.01613
 N2325 N 0.18128 0.24040 1.02783
 N2326 N 0.16741 0.23604 1.03225
 N2327 N 0.61027 0.53239 0.19868
 C2328 C 0.61677 0.53888 0.21113
 N2329 N 0.60985 0.55099 0.21780
 N2330 N 0.59684 0.55647 0.21216
 C2331 C 0.59029 0.55008 0.19963
 N2332 N 0.59727 0.53788 0.19305
 C2333 C 0.63116 0.53345 0.21673
 C2334 C 0.64342 0.52911 0.22117
 C2335 C 0.65822 0.52420 0.22612
 N2336 N 0.66549 0.53158 0.23762
 N2337 N 0.67955 0.52750 0.24170
 C2338 C 0.68681 0.51592 0.23441
 N2339 N 0.67946 0.50851 0.22295
 N2340 N 0.66541 0.51259 0.21887
 N2341 N 0.61039 1.05139 0.71731
 C2342 C 0.61724 1.03922 0.71066
 N2343 N 0.61075 1.03281 0.69818
 N2344 N 0.59783 1.03842 0.69247
 C2345 C 0.59093 1.05068 0.69902
 N2346 N 0.59747 1.05700 0.71160
 C2347 C 0.63155 1.03367 0.71633
 C2348 C 0.64376 1.02924 0.72084
 C2349 C 0.65850 1.02425 0.72588
 N2350 N 0.66563 1.01252 0.71877
 N2351 N 0.67966 1.00839 0.72292
 C2352 C 0.68702 1.01588 0.73433
 N2353 N 0.67981 1.02759 0.74148
 N2354 N 0.66579 1.03171 0.73732
 N2355 N 0.88772 0.46589 0.30291
 C2356 C 0.88083 0.45920 0.29078
 N2357 N 0.88744 0.44687 0.28421
 N2358 N 0.90052 0.44135 0.28964
 C2359 C 0.90747 0.44795 0.30184
 N2360 N 0.90080 0.46037 0.30833
 C2361 C 0.86646 0.46478 0.28530
 C2362 C 0.85426 0.46927 0.28085
 C2363 C 0.83958 0.47438 0.27572
 N2364 N 0.83241 0.46713 0.26409
 N2365 N 0.81856 0.47154 0.25965
 C2366 C 0.81143 0.48336 0.26669
 N2367 N 0.81867 0.49063 0.27831
 N2368 N 0.83252 0.48621 0.28276
 N2369 N 0.88776 0.94770 0.78429
 C2370 C 0.88118 0.96005 0.79086
 N2371 N 0.88808 0.96672 0.80300
 N2372 N 0.90114 0.96117 0.80842
 C2373 C 0.90779 0.94874 0.80193
 N2374 N 0.90083 0.94216 0.78972
 C2375 C 0.86681 0.96564 0.78539
 C2376 C 0.85460 0.97014 0.78094
 C2377 C 0.83991 0.97523 0.77583
 N2378 N 0.83274 0.98691 0.78301
 N2379 N 0.81887 0.99127 0.77861
 C2380 C 0.81169 0.98410 0.76688
 N2381 N 0.81893 0.97243 0.75969
 N2382 N 0.83281 0.96807 0.76410
 N2383 N 0.36228 0.28375 0.80289
 C2384 C 0.36925 0.29047 0.79085
 N2385 N 0.36271 0.30286 0.78429
 N2386 N 0.34962 0.30838 0.78964
 C2387 C 0.34258 0.30174 0.80176
 N2388 N 0.34918 0.28928 0.80824
 C2389 C 0.38363 0.28487 0.78543
 C2390 C 0.39584 0.28037 0.78102
 C2391 C 0.41052 0.27526 0.77592
 N2392 N 0.41769 0.28253 0.76431
 N2393 N 0.43153 0.27811 0.75988
 C2394 C 0.43866 0.26628 0.76692
 N2395 N 0.43142 0.25900 0.77852
 N2396 N 0.41758 0.26342 0.78295
 N2397 N 0.86219 0.28367 0.30249
 C2398 C 0.86914 0.29040 0.29043
 N2399 N 0.86256 0.30276 0.28386
 N2400 N 0.84946 0.30825 0.28922
 C2401 C 0.84245 0.30160 0.30135
 N2402 N 0.84909 0.28916 0.30784
 C2403 C 0.88354 0.28484 0.28503
 C2404 C 0.89576 0.28037 0.28063
 C2405 C 0.91046 0.27529 0.27556
 N2406 N 0.91765 0.28258 0.26397
 N2407 N 0.93151 0.27819 0.25958
 C2408 C 0.93865 0.26637 0.26664
 N2409 N 0.93139 0.25908 0.27823
 N2410 N 0.91753 0.26347 0.28262
 N2411 N 0.38942 0.78290 0.44830
 C2412 C 0.38287 0.78924 0.46078
 N2413 N 0.38965 0.80141 0.46750
 N2414 N 0.40257 0.80708 0.46190
 C2415 C 0.40918 0.80083 0.44934
 N2416 N 0.40235 0.78857 0.44270
 C2417 C 0.36856 0.78361 0.46636
 C2418 C 0.35636 0.77912 0.47081
 C2419 C 0.34162 0.77410 0.47582
 N2420 N 0.33445 0.78135 0.48744
 N2421 N 0.32044 0.77721 0.49159
 C2422 C 0.31312 0.76569 0.48424
 N2423 N 0.32038 0.75840 0.47265
 N2424 N 0.33439 0.76254 0.46851
 N2425 N 0.39006 0.29993 0.96772
 C2426 C 0.38324 0.28782 0.96095
 N2427 N 0.38983 0.28142 0.94852
 N2428 N 0.40284 0.28699 0.94301
 C2429 C 0.40972 0.29919 0.94969
 N2430 N 0.40307 0.30550 0.96220
 C2431 C 0.36884 0.28232 0.96642
 C2432 C 0.35656 0.27797 0.97079
 C2433 C 0.34175 0.27311 0.97571
 N2434 N 0.33437 0.26173 0.96826
 N2435 N 0.32031 0.25772 0.97235
 C2436 C 0.31314 0.26498 0.98401
 N2437 N 0.32059 0.27633 0.99149
 N2438 N 0.33466 0.28033 0.98740
 N2439 N 0.78330 0.44769 0.38827
 C2440 C 0.78988 0.45990 0.38143
 N2441 N 0.80207 0.46662 0.38815
 N2442 N 0.80753 0.46127 0.40130
 C2443 C 0.80104 0.44899 0.40820
 N2444 N 0.78878 0.44234 0.40141
 C2445 C 0.78437 0.46529 0.36697
 C2446 C 0.77994 0.46967 0.35470
 C2447 C 0.77491 0.47470 0.33994
 N2448 N 0.78204 0.48645 0.33283
 N2449 N 0.77773 0.49079 0.31891
 C2450 C 0.76615 0.48352 0.31161
 N2451 N 0.75901 0.47178 0.31878
 N2452 N 0.76332 0.46744 0.33271
 N2453 N 0.80184 0.96699 0.88849
 C2454 C 0.78972 0.96023 0.88170
 N2455 N 0.78302 0.94812 0.88860
 N2456 N 0.78832 0.94291 0.90187
 C2457 C 0.80052 0.94959 0.90873
 N2458 N 0.80714 0.96178 0.90176
 C2459 C 0.78439 0.96548 0.86713
 C2460 C 0.78009 0.96974 0.85477
 C2461 C 0.77520 0.97465 0.83994
 N2462 N 0.76347 0.96752 0.83280
 N2463 N 0.75922 0.97179 0.81883
 C2464 C 0.76655 0.98333 0.81153
 N2465 N 0.77827 0.99046 0.81874
 N2466 N 0.78252 0.98619 0.83270
 N2467 N 0.28232 0.80133 0.36002
 C2468 C 0.28894 0.78918 0.36693
 N2469 N 0.30135 0.78267 0.36043
 N2470 N 0.30700 0.78817 0.34744
 C2471 C 0.30047 0.80041 0.34047
 N2472 N 0.28797 0.80683 0.34702
 C2473 C 0.28333 0.78375 0.38131
 C2474 C 0.27887 0.77941 0.39358
 C2475 C 0.27388 0.77451 0.40838
 N2476 N 0.28099 0.76279 0.41556
 N2477 N 0.27687 0.75872 0.42962
 C2478 C 0.26552 0.76626 0.43698
 N2479 N 0.25838 0.77796 0.42973
 N2480 N 0.26250 0.78202 0.41567
 N2481 N 0.28288 0.30192 0.86064
 C2482 C 0.28929 0.28954 0.86734
 N2483 N 0.30168 0.28302 0.86081
 N2484 N 0.30750 0.28873 0.84799
 C2485 C 0.30118 0.30119 0.84123
 N2486 N 0.28871 0.30762 0.84781
 C2487 C 0.28351 0.28388 0.88157
 C2488 C 0.27894 0.27935 0.89373
 C2489 C 0.27386 0.27423 0.90842
 N2490 N 0.28119 0.26268 0.91565
 N2491 N 0.27703 0.25848 0.92966
 C2492 C 0.26540 0.26569 0.93691
 N2493 N 0.25803 0.27721 0.92960
 N2494 N 0.26219 0.28141 0.91559
 N2495 N 0.44857 0.28234 0.88873
 C2496 C 0.46072 0.28908 0.88197
 N2497 N 0.46734 0.30126 0.88882
 N2498 N 0.46195 0.30657 0.90201
 C2499 C 0.44973 0.29991 0.90882
 N2500 N 0.44318 0.28765 0.90191
 C2501 C 0.46613 0.28375 0.86747
 C2502 C 0.47047 0.27944 0.85516
 C2503 C 0.47542 0.27451 0.84035
 N2504 N 0.48698 0.28181 0.83314
 N2505 N 0.49122 0.27757 0.81917
 C2506 C 0.48404 0.26589 0.81194
 N2507 N 0.47249 0.25857 0.81922
 N2508 N 0.46825 0.26282 0.83318
 N2509 N 0.94830 0.28267 0.38845
 C2510 C 0.96043 0.28944 0.38169
 N2511 N 0.96702 0.30164 0.38854
 N2512 N 0.96162 0.30694 0.40173
 C2513 C 0.94941 0.30024 0.40854
 N2514 N 0.94290 0.28797 0.40163
 C2515 C 0.96587 0.28411 0.36720
 C2516 C 0.97025 0.27979 0.35490
 C2517 C 0.97523 0.27483 0.34011
 N2518 N 0.98680 0.28212 0.33291
 N2519 N 0.99109 0.27784 0.31896
 C2520 C 0.98393 0.26614 0.31174
 N2521 N 0.97236 0.25884 0.31901
 N2522 N 0.96808 0.26312 0.33295
 N2523 N 0.44658 0.38739 0.78398
 C2524 C 0.45903 0.38078 0.79034
 N2525 N 0.46587 0.38765 0.80239
 N2526 N 0.46041 0.40071 0.80794
 C2527 C 0.44790 0.40738 0.80166
 N2528 N 0.44113 0.40045 0.78953
 C2529 C 0.46455 0.36642 0.78474
 C2530 C 0.46902 0.35421 0.78024
 C2531 C 0.47415 0.33953 0.77512
 N2532 N 0.48584 0.33239 0.78231
 N2533 N 0.49026 0.31852 0.77791
 C2534 C 0.48313 0.31131 0.76618
 N2535 N 0.47145 0.31852 0.75898
 N2536 N 0.46703 0.33239 0.76338
 N2537 N 0.94666 0.38757 0.28372
 C2538 C 0.95906 0.38092 0.29012
 N2539 N 0.96586 0.38773 0.30222
 N2540 N 0.96040 0.40078 0.30779
 C2541 C 0.94791 0.40749 0.30149
 N2542 N 0.94119 0.40062 0.28930
 C2543 C 0.96458 0.36656 0.28450
 C2544 C 0.96905 0.35436 0.27999
 C2545 C 0.97418 0.33968 0.27487
 N2546 N 0.98587 0.33254 0.28205
 N2547 N 0.99028 0.31867 0.27766
 C2548 C 0.98314 0.31145 0.26594
 N2549 N 0.97146 0.31866 0.25874
 N2550 N 0.96705 0.33253 0.26314
 N2551 N 0.30078 0.89066 0.46905
 C2552 C 0.28852 0.88391 0.46249
 N2553 N 0.28184 0.89065 0.45028
 N2554 N 0.28729 0.90372 0.44475
 C2555 C 0.29964 0.91053 0.45121
 N2556 N 0.30622 0.90374 0.46352
 C2557 C 0.28313 0.86944 0.46794
 C2558 C 0.27881 0.85710 0.47224
 C2559 C 0.27393 0.84221 0.47701
 N2560 N 0.26257 0.83493 0.46944
 N2561 N 0.25853 0.82081 0.47337
 C2562 C 0.26572 0.81348 0.48499
 N2563 N 0.27705 0.82084 0.49259
 N2564 N 0.28109 0.83496 0.48865
 N2565 N 0.30149 0.38991 0.96790
 C2566 C 0.28931 0.38307 0.96129
 N2567 N 0.28279 0.38964 0.94889
 N2568 N 0.28832 0.40262 0.94324
 C2569 C 0.30060 0.40951 0.94976
 N2570 N 0.30702 0.40289 0.96224
 C2571 C 0.28383 0.36870 0.96690
 C2572 C 0.27944 0.35644 0.97135
 C2573 C 0.27449 0.34164 0.97632
 N2574 N 0.26285 0.33448 0.96908
 N2575 N 0.25874 0.32042 0.97317
 C2576 C 0.26613 0.31305 0.98463
 N2577 N 0.27774 0.32029 0.99190
 N2578 N 0.28186 0.33435 0.98781
 N2579 N 0.78403 0.36182 0.30170
 C2580 C 0.79087 0.36871 0.28967
 N2581 N 0.80329 0.36211 0.28331
 N2582 N 0.80874 0.34903 0.28884
 C2583 C 0.80199 0.34208 0.30095
 N2584 N 0.78948 0.34875 0.30723
 C2585 C 0.78536 0.38310 0.28412
 C2586 C 0.78091 0.39533 0.27965
 C2587 C 0.77581 0.41004 0.27457
 N2588 N 0.78296 0.41722 0.26288
 N2589 N 0.77857 0.43112 0.25852
 C2590 C 0.76690 0.43831 0.26572
 N2591 N 0.75974 0.43107 0.27740
 N2592 N 0.76413 0.41717 0.28175
   
