data_POSCAR
  _audit_creation_date              2014-09-24
  _audit_creation_method            'ToBaCCo'
  _symmetry_space_group_name_H-M    'P1'
  _symmetry_Int_Tables_number       1
  _symmetry_cell_setting            triclinic
  loop_
  _symmetry_equiv_pos_as_xyz
 x,y,z
_cell_length_a 48.3119
_cell_length_b 49.5339
_cell_length_c 48.6500
_cell_angle_alpha 90.016600
_cell_angle_beta 89.794300
_cell_angle_gamma 90.128800
loop_
  _atom_site_label
  _atom_site_type_symbol
  _atom_site_fract_x
  _atom_site_fract_y
  _atom_site_fract_z
N1 N 0.33873 1.34024 0.33939
 N2 N 0.35383 0.84679 0.84731
 N3 N 0.84328 1.33725 0.84372
 N4 N 0.84838 0.84016 0.34839
 N5 N 0.64671 0.65128 0.35252
 N6 N 0.65380 0.15926 0.84283
 N7 N 1.15530 0.65728 0.84468
 N8 N 1.14672 0.15414 0.35316
 N9 N 0.64473 1.34834 0.64390
 N10 N 0.65970 0.83801 1.15979
 N11 N 1.14932 1.34412 1.15069
 N12 N 1.14123 0.85336 0.64182
 N13 N 0.35007 0.65620 0.65699
 N14 N 0.33826 0.16401 1.15756
 N15 N 0.85083 0.65690 1.15633
 N16 N 0.84699 0.15071 0.65202
 N17 N 1.35591 0.35079 0.64744
 N18 N 1.34840 0.84175 1.15098
 N19 N 0.85439 0.34629 1.15011
 N20 N 0.84329 0.84397 0.65230
 N21 N 0.65179 0.66270 0.65522
 N22 N 0.64994 1.15221 1.14427
 N23 N 0.14660 0.65166 1.14999
 N24 N 0.15191 1.15168 0.64986
 N25 N 1.34976 0.65275 0.34542
 N26 N 1.34942 1.15853 0.84915
 N27 N 0.85650 0.65225 0.85809
 N28 N 0.85053 1.15457 0.35137
 N29 N 0.65049 0.35069 0.35077
 N30 N 0.65163 0.84456 0.83923
 N31 N 0.16128 0.33685 0.83806
 N32 N 0.14461 0.84745 0.35637
 O33 O 0.97561 0.89818 0.86493
 O34 O 0.97551 0.86523 0.83445
 C35 C 0.96612 0.88765 0.84305
 C36 C 0.94375 0.90146 0.82763
 C37 C 0.93516 0.89165 0.80193
 H38 H 0.94514 0.87403 0.79324
 O39 O 1.02962 1.09419 0.86280
 O40 O 1.02965 1.12495 0.83005
 C41 C 1.03894 1.10309 0.84011
 C42 C 1.06106 1.08817 0.82538
 C43 C 1.06901 1.09623 0.79892
 H44 H 1.05855 1.11299 0.78916
 O45 O 0.86314 0.96954 0.89728
 O46 O 0.83181 0.96846 0.86447
 C47 C 0.84109 0.95969 0.88720
 C48 C 0.82693 0.93717 0.90181
 C49 C 0.80308 0.92474 0.89091
 H50 H 0.79415 0.93219 0.87199
 O51 O 1.13894 1.02230 0.89961
 O52 O 1.17145 1.02192 0.86770
 C53 C 1.16135 1.03161 0.88976
 C54 C 1.17525 1.05465 0.90335
 C55 C 1.19940 1.06554 0.89181
 H56 H 1.20865 1.05611 0.87390
 O57 O 0.90166 0.86597 0.97617
 O58 O 0.86992 0.83389 0.97691
 C59 C 0.89272 0.84326 0.96791
 C60 C 0.90893 0.82802 0.94728
 C61 C 0.90219 0.80117 0.94061
 H62 H 0.88526 0.79109 0.95110
 O63 O 1.10099 1.13300 0.97060
 O64 O 1.13354 1.16429 0.97093
 C65 C 1.11099 1.15498 0.96149
 C66 C 1.09654 1.16938 0.93918
 C67 C 1.10562 1.19484 0.93033
 H68 H 1.12308 1.20433 0.94040
 O69 O 0.90215 1.02205 0.86024
 O70 O 0.87073 1.02192 0.82750
 C71 C 0.89280 1.03151 0.83786
 C72 C 0.90720 1.05465 0.82456
 C73 C 0.89622 1.06683 0.80080
 H74 H 0.87767 1.05874 0.79142
 O75 O 1.10213 0.96928 0.86170
 O76 O 1.13450 0.96866 0.82965
 C77 C 1.11191 0.95968 0.83949
 C78 C 1.09715 0.93722 0.82577
 C79 C 1.10671 0.92621 0.80079
 H80 H 1.12466 0.93480 0.79061
 O81 O 1.03049 0.86299 0.90338
 O82 O 1.03055 0.83015 0.87275
 C83 C 1.04017 0.84073 0.89451
 C84 C 1.06333 0.82753 0.90932
 C85 C 1.07566 0.80377 0.89906
 H86 H 1.06774 0.79443 0.88054
 O87 O 0.97556 1.13260 0.89902
 O88 O 0.97586 1.16377 0.86666
 C89 C 0.96624 1.15449 0.88909
 C90 C 0.94353 1.16872 0.90359
 C91 C 0.93486 1.19463 0.89544
 H92 H 0.94540 1.20492 0.87876
 O93 O 0.86238 1.09473 0.96814
 O94 O 0.82997 1.12598 0.96756
 C95 C 0.84000 1.10410 0.95828
 C96 C 0.82590 1.08961 0.93543
 C97 C 0.80030 1.09863 0.92517
 H98 H 0.79021 1.11578 0.93466
 O99 O 1.13876 0.90217 0.97691
 O100 O 1.17112 0.87090 0.97830
 C101 C 1.16121 0.89227 0.96773
 C102 C 1.17541 0.90488 0.94378
 C103 C 1.19959 0.89318 0.93312
 H104 H 1.20864 0.87593 0.94338
 O105 O 0.97555 1.09430 0.86278
 O106 O 0.97569 1.12540 0.83036
 C107 C 0.96609 1.10359 0.84039
 C108 C 0.94304 1.08968 0.82617
 C109 C 0.93186 1.10126 0.80246
 H110 H 0.94114 1.11934 0.79389
 O111 O 1.02954 0.89930 0.86510
 O112 O 1.02941 0.86646 0.83446
 C113 C 1.03877 0.88889 0.84309
 C114 C 1.06122 0.90255 0.82784
 C115 C 1.07098 0.89180 0.80305
 H116 H 1.06100 0.87417 0.79431
 O117 O 1.13948 0.96950 0.89993
 O118 O 1.17209 0.96874 0.86815
 C119 C 1.16202 0.95986 0.89063
 C120 C 1.17598 0.93760 0.90588
 C121 C 1.20035 0.92548 0.89564
 H122 H 1.20965 0.93282 0.87677
 O123 O 0.86334 1.02227 0.89690
 O124 O 0.83166 1.02154 0.86441
 C125 C 0.84101 1.03128 0.88673
 C126 C 0.82633 1.05384 0.90063
 C127 C 0.80079 1.06317 0.89073
 H128 H 0.79148 1.05341 0.87310
 O129 O 0.90099 1.13129 0.96940
 O130 O 0.86874 1.16273 0.96900
 C131 C 0.89158 1.15337 0.96015
 C132 C 0.90711 1.16801 0.93857
 C133 C 0.89892 1.19388 0.93040
 H134 H 0.88135 1.20336 0.94035
 O135 O 1.10108 0.86515 0.97794
 O136 O 1.13347 0.83387 0.97920
 C137 C 1.11123 0.84316 0.96909
 C138 C 1.09782 0.82882 0.94600
 C139 C 1.10978 0.80524 0.93542
 H140 H 1.12787 0.79672 0.94523
 O141 O 1.10215 1.02198 0.86127
 O142 O 1.13436 1.02165 0.82905
 C143 C 1.11190 1.03111 0.83879
 C144 C 1.09703 1.05334 0.82447
 C145 C 1.10506 1.06218 0.79801
 H146 H 1.12207 1.05244 0.78741
 O147 O 0.90225 0.96908 0.86077
 O148 O 0.87120 0.96858 0.82769
 C149 C 0.89327 0.95938 0.83831
 C150 C 0.90827 0.93661 0.82507
 C151 C 0.89994 0.92640 0.79936
 H152 H 0.88311 0.93598 0.78845
 O153 O 1.02956 1.13305 0.89868
 O154 O 1.02984 1.16395 0.86606
 C155 C 1.03907 1.15489 0.88862
 C156 C 1.06149 1.16937 0.90320
 C157 C 1.07092 1.19488 0.89440
 H158 H 1.06110 1.20471 0.87712
 O159 O 0.97654 0.86388 0.90530
 O160 O 0.97669 0.83076 0.87498
 C161 C 0.96752 0.84126 0.89703
 C162 C 0.94582 0.82718 0.91289
 C163 C 0.93905 0.80040 0.90670
 H164 H 0.95021 0.78992 0.89055
 O165 O 1.13861 1.09580 0.97036
 O166 O 1.17129 1.12694 0.97009
 C167 C 1.16120 1.10509 0.96071
 C168 C 1.17530 1.09071 0.93781
 C169 C 1.19963 1.10126 0.92586
 H170 H 1.20874 1.11963 0.93388
 O171 O 0.86309 0.90223 0.97279
 O172 O 0.83129 0.87024 0.97359
 C173 C 0.84111 0.89173 0.96318
 C174 C 0.82726 0.90398 0.93906
 C175 C 0.80360 0.89182 0.92782
 H176 H 0.79467 0.87419 0.93765
 Cu177 Cu 1.00303 0.88437 0.88774
 Cu178 Cu 1.00291 0.84485 0.85108
 Cu179 Cu 1.00263 1.11052 0.88417
 Cu180 Cu 1.00282 1.14753 0.84492
 Cu181 Cu 0.88584 0.99574 0.88200
 Cu182 Cu 0.84826 0.99507 0.84269
 Cu183 Cu 1.11743 0.99570 0.88375
 Cu184 Cu 1.15644 0.99520 0.84552
 C185 C 0.93035 0.92409 0.83887
 H186 H 0.93669 0.93156 0.85881
 C187 C 0.91339 0.90400 0.78754
 C188 C 1.07489 1.06649 0.83784
 H189 H 1.06883 1.06027 0.85835
 C190 C 1.09078 1.08341 0.78502
 C191 C 0.83861 0.92674 0.92605
 H192 H 0.85716 0.93587 0.93440
 C193 C 0.79147 0.90184 0.90371
 C194 C 1.16341 1.06723 0.92649
 H195 H 1.14443 1.05921 0.93516
 C196 C 1.21153 1.08890 0.90265
 C197 C 0.93097 0.84074 0.93347
 H198 H 0.93602 0.86156 0.93811
 C199 C 0.91741 0.78721 0.92048
 C200 C 1.07429 1.15700 0.92573
 H201 H 1.06742 1.13721 0.93235
 C202 C 1.09288 1.20786 0.90807
 C203 C 0.93075 1.06622 0.83702
 H204 H 0.93901 1.05748 0.85566
 C205 C 0.90828 1.09040 0.78997
 C206 C 1.07419 0.92540 0.83888
 H207 H 1.06695 0.93344 0.85832
 C208 C 1.09375 0.90332 0.78949
 C209 C 1.07449 0.83972 0.93296
 H210 H 1.06551 0.85823 0.94075
 C211 C 1.09912 0.79274 0.91188
 C212 C 0.92964 1.15575 0.92532
 H213 H 0.93587 1.13564 0.93144
 C214 C 0.91272 1.20744 0.90903
 C215 C 0.83855 1.06707 0.92313
 H216 H 0.85839 1.06020 0.93066
 C217 C 0.78749 1.08548 0.90286
 C218 C 1.16386 0.92719 0.93011
 H219 H 1.14490 0.93597 0.93795
 C220 C 1.21206 0.90303 0.90902
 O221 O 1.02631 0.90386 1.14201
 O222 O 1.02586 0.87262 1.17427
 C223 C 1.03563 0.89444 1.16444
 C224 C 1.05866 0.90876 1.17852
 C225 C 1.07027 0.89862 1.20295
 H226 H 1.06186 0.88045 1.21217
 O227 O 0.97250 1.09885 1.13558
 O228 O 0.97234 1.13173 1.16616
 C229 C 0.96294 1.10937 1.15742
 C230 C 0.93991 1.09612 1.17224
 C231 C 0.92898 1.10784 1.19609
 H232 H 0.93857 1.12578 1.20457
 O233 O 0.86418 1.02729 1.09886
 O234 O 0.83082 1.02785 1.12994
 C235 C 0.84105 1.03612 1.10736
 C236 C 0.82591 1.05627 1.09093
 C237 C 0.79892 1.06367 1.09832
 H238 H 0.78912 1.05443 1.11605
 O239 O 1.13535 0.97487 1.10286
 O240 O 1.16769 0.97612 1.13474
 C241 C 1.15793 0.96617 1.11275
 C242 C 1.17265 0.94372 1.09913
 C243 C 1.19700 0.93345 1.11066
 H244 H 1.20570 0.94287 1.12880
 O245 O 1.10067 0.86602 1.03172
 O246 O 1.13297 0.83468 1.03290
 C247 C 1.11031 0.84433 1.04184
 C248 C 1.09540 0.83072 1.06478
 C249 C 1.10541 0.80645 1.07613
 H250 H 1.12379 0.79709 1.06765
 O251 O 0.89935 1.13170 1.02299
 O252 O 0.86675 1.16278 1.02257
 C253 C 0.88918 1.15352 1.03237
 C254 C 0.90310 1.16794 1.05535
 C255 C 0.89198 1.19212 1.06571
 H256 H 0.87400 1.20086 1.05593
 O257 O 0.90095 0.97604 1.13892
 O258 O 0.86778 0.97675 1.17017
 C259 C 0.89043 0.96721 1.16111
 C260 C 0.90407 0.94487 1.17591
 C261 C 0.89206 0.93421 1.19983
 H262 H 0.87369 0.94349 1.20844
 O263 O 1.09767 1.02878 1.13896
 O264 O 1.13016 1.02984 1.17066
 C265 C 1.10773 1.03886 1.16077
 C266 C 1.09385 1.06194 1.17426
 C267 C 1.10503 1.07324 1.19818
 H268 H 1.12301 1.06409 1.20760
 O269 O 0.97220 0.86734 1.10399
 O270 O 0.97129 0.83587 1.13603
 C271 C 0.96211 0.84558 1.11365
 C272 C 0.93884 0.83215 1.09909
 C273 C 0.92703 0.80805 1.10926
 H274 H 0.93550 0.79849 1.12739
 O275 O 1.02657 1.13403 1.09599
 O276 O 1.02605 1.16685 1.12661
 C277 C 1.03596 1.15630 1.10490
 C278 C 1.05950 1.16963 1.09088
 C279 C 1.07066 1.19324 1.10211
 H280 H 1.06091 1.20247 1.11986
 O281 O 0.86220 0.90517 1.02674
 O282 O 0.82995 0.87359 1.02741
 C283 C 0.83964 0.89583 1.03625
 C284 C 0.82522 0.91047 1.05862
 C285 C 0.79926 0.90167 1.06814
 H286 H 0.78897 0.88490 1.05811
 O287 O 1.13735 1.09499 1.02408
 O288 O 1.17038 1.12579 1.02385
 C289 C 1.16003 1.10409 1.03335
 C290 C 1.17415 1.08994 1.05602
 C291 C 1.20033 1.09865 1.06454
 H292 H 1.21049 1.11509 1.05379
 O293 O 1.02643 1.10041 1.13684
 O294 O 1.02625 1.13327 1.16742
 C295 C 1.03584 1.11097 1.15877
 C296 C 1.05878 1.09742 1.17357
 C297 C 1.07024 1.10846 1.19776
 H298 H 1.06169 1.12675 1.20653
 O299 O 0.97233 0.90455 1.14131
 O300 O 0.97155 0.87328 1.17354
 C301 C 0.96239 0.89520 1.16356
 C302 C 0.93923 0.90951 1.17724
 C303 C 0.92688 0.89908 1.20122
 H304 H 0.93500 0.88089 1.21052
 O305 O 1.13548 1.02727 1.10096
 O306 O 1.16802 1.02840 1.13263
 C307 C 1.15824 1.03661 1.10991
 C308 C 1.17321 1.05752 1.09388
 C309 C 1.19937 1.06683 1.10232
 H310 H 1.20911 1.05826 1.12034
 O311 O 0.86375 0.97518 1.10073
 O312 O 0.83050 0.97579 1.13194
 C313 C 0.84077 0.96636 1.10985
 C314 C 0.82603 0.94472 1.09482
 C315 C 0.80002 0.93573 1.10391
 H316 H 0.79053 0.94492 1.12182
 O317 O 1.10118 1.13345 1.02415
 O318 O 1.13407 1.16439 1.02458
 C319 C 1.11130 1.15518 1.03383
 C320 C 1.09670 1.16926 1.05660
 C321 C 1.10766 1.19302 1.06837
 H322 H 1.12661 1.20178 1.06037
 O323 O 0.90008 0.86849 1.02956
 O324 O 0.86781 0.83693 1.03004
 C325 C 0.89001 0.84690 1.03961
 C326 C 0.90363 0.83331 1.06304
 C327 C 0.89216 0.80947 1.07364
 H328 H 0.87407 0.80063 1.06403
 O329 O 1.09760 0.97582 1.14073
 O330 O 1.12997 0.97696 1.17255
 C331 C 1.10759 0.96712 1.16316
 C332 C 1.09368 0.94456 1.17783
 C333 C 1.10486 0.93422 1.20223
 H334 H 1.12274 0.94394 1.21129
 O335 O 0.89988 1.02881 1.13852
 O336 O 0.86676 1.02973 1.16979
 C337 C 0.88946 1.03877 1.16030
 C338 C 0.90368 1.06169 1.17390
 C339 C 0.89291 1.07375 1.19791
 H340 H 0.87436 1.06569 1.20746
 O341 O 0.97219 1.13456 1.09680
 O342 O 0.97179 1.16746 1.12734
 C343 C 0.96227 1.15671 1.10560
 C344 C 0.93879 1.16960 1.09098
 C345 C 0.92711 1.19364 1.10110
 H346 H 0.93573 1.20304 1.11927
 O347 O 1.02638 0.86752 1.10373
 O348 O 1.02567 0.83609 1.13581
 C349 C 1.03559 0.84560 1.11357
 C350 C 1.05874 0.83148 1.09964
 C351 C 1.06899 0.80731 1.11053
 H352 H 1.05889 0.79828 1.12820
 O353 O 1.13854 0.90334 1.03095
 O354 O 1.17087 0.87202 1.03227
 C355 C 1.16081 0.89408 1.04104
 C356 C 1.17439 0.90856 1.06398
 C357 C 1.19882 0.89853 1.07585
 H358 H 1.20851 0.88059 1.06751
 O359 O 0.86205 1.09408 1.02194
 O360 O 0.82931 1.12504 1.02136
 C361 C 0.83927 1.10329 1.03095
 C362 C 0.82478 1.08893 1.05341
 C363 C 0.79779 1.09623 1.06118
 H364 H 0.78694 1.11178 1.04989
 Cu365 Cu 0.99936 0.88894 1.11958
 Cu366 Cu 0.99856 0.85128 1.15810
 Cu367 Cu 0.99950 1.11367 1.11324
 Cu368 Cu 0.99906 1.15322 1.14984
 Cu369 Cu 0.88488 0.88875 1.00114
 Cu370 Cu 0.84643 0.85057 1.00202
 Cu371 Cu 1.11656 0.88734 1.00439
 Cu372 Cu 1.15538 0.84979 1.00581
 Cu373 Cu 0.88437 1.10979 0.99561
 Cu374 Cu 0.84544 1.14725 0.99503
 Cu375 Cu 1.11625 1.11122 0.99725
 Cu376 Cu 1.15568 1.14842 0.99738
 Cu377 Cu 0.88568 1.00182 1.11628
 Cu378 Cu 0.84571 1.00263 1.15373
 Cu379 Cu 1.11317 1.00162 1.11777
 Cu380 Cu 1.15212 1.00300 1.15593
 C381 C 1.07042 0.93187 1.16634
 H382 H 1.06199 0.93952 1.14727
 C383 C 1.09354 0.91114 1.21484
 C384 C 0.92736 1.07291 1.16149
 H385 H 0.93553 1.06411 1.14276
 C386 C 0.90541 1.09704 1.20891
 C387 C 0.83857 1.06873 1.06824
 H388 H 0.85955 1.06328 1.06265
 C389 C 0.78472 1.08356 1.08356
 C390 C 1.16163 0.93134 1.07565
 H391 H 1.14254 0.93892 1.06698
 C392 C 1.21006 0.91078 1.09937
 C393 C 1.07192 0.84292 1.07661
 H394 H 1.06436 0.86183 1.06839
 C395 C 1.09242 0.79478 1.09919
 C396 C 0.92669 1.15697 1.06801
 H397 H 0.93520 1.13817 1.06042
 C398 C 0.90361 1.20502 1.08874
 C399 C 0.92782 0.93260 1.16495
 H400 H 0.93684 0.94046 1.14616
 C401 C 0.90313 0.91122 1.21246
 C402 C 1.07062 1.07399 1.16226
 H403 H 1.06228 1.06556 1.14348
 C404 C 1.09359 1.09652 1.20998
 C405 C 0.92706 0.84447 1.07578
 H406 H 0.93568 0.86316 1.06795
 C407 C 0.90348 0.79683 1.09671
 C408 C 1.07247 1.15785 1.06797
 H409 H 1.06418 1.13929 1.05954
 C410 C 1.09484 1.20479 1.09142
 C411 C 0.83833 0.93219 1.07194
 H412 H 0.85859 0.93878 1.06504
 C413 C 0.78654 0.91422 1.09075
 C414 C 1.16086 1.06908 1.07054
 H415 H 1.14046 1.06249 1.06421
 C416 C 1.21306 1.08732 1.08761
 O417 O 0.96875 0.40682 0.36373
 O418 O 0.96797 0.37541 0.33163
 C419 C 0.95874 0.39731 0.34167
 C420 C 0.93514 0.41086 0.32819
 C421 C 0.92355 0.39955 0.30452
 H422 H 0.93306 0.38198 0.29516
 O423 O 1.02715 0.59683 0.36566
 O424 O 1.02739 0.62869 0.33401
 C425 C 1.03693 0.60671 0.34353
 C426 C 1.06022 0.59284 0.32942
 C427 C 1.07188 0.60343 0.30513
 H428 H 1.06331 0.62153 0.29607
 O429 O 0.85974 0.47826 0.40650
 O430 O 0.82637 0.47937 0.37570
 C431 C 0.83650 0.47007 0.39785
 C432 C 0.82147 0.44903 0.41331
 C433 C 0.79468 0.44155 0.40551
 H434 H 0.78479 0.45173 0.38848
 O435 O 1.13839 0.52484 0.40249
 O436 O 1.17111 0.52423 0.37079
 C437 C 1.16127 0.53370 0.39301
 C438 C 1.17600 0.55570 0.40774
 C439 C 1.20231 0.56487 0.39910
 H440 H 1.21260 0.55526 0.38187
 O441 O 0.89682 0.36888 0.47596
 O442 O 0.86336 0.33854 0.47562
 C443 C 0.88602 0.34768 0.46594
 C444 C 0.89947 0.33398 0.44227
 C445 C 0.88831 0.30994 0.43179
 H446 H 0.87066 0.30074 0.44192
 O447 O 1.10117 0.63306 0.47599
 O448 O 1.13356 0.66449 0.47527
 C449 C 1.11090 0.65495 0.46628
 C450 C 1.09606 0.66884 0.44373
 C451 C 1.10616 0.69322 0.43253
 H452 H 1.12452 0.70265 0.44095
 O453 O 0.89857 0.52834 0.36711
 O454 O 0.86584 0.52926 0.33562
 C455 C 0.88901 0.53744 0.34475
 C456 C 0.90484 0.55812 0.32963
 C457 C 0.89692 0.56602 0.30319
 H458 H 0.87924 0.55650 0.29353
 O459 O 1.09889 0.47287 0.36491
 O460 O 1.13155 0.47233 0.33316
 C461 C 1.10874 0.46344 0.34263
 C462 C 1.09411 0.44127 0.32806
 C463 C 1.10554 0.43010 0.30408
 H464 H 1.12419 0.43885 0.29542
 O465 O 1.02158 0.36817 0.40114
 O466 O 1.02026 0.33678 0.36901
 C467 C 1.03000 0.34586 0.39140
 C468 C 1.05201 0.33062 0.40556
 C469 C 1.06145 0.30626 0.39437
 H470 H 1.05140 0.29790 0.37639
 O471 O 0.97330 0.63325 0.40437
 O472 O 0.97315 0.66519 0.37280
 C473 C 0.96406 0.65554 0.39532
 C474 C 0.94239 0.67014 0.41112
 C475 C 0.93345 0.69593 0.40291
 H476 H 0.94282 0.70558 0.38519
 O477 O 0.86366 0.59995 0.48022
 O478 O 0.83255 0.63245 0.48082
 C479 C 0.84167 0.61048 0.47081
 C480 C 0.82700 0.59770 0.44740
 C481 C 0.80264 0.60935 0.43724
 H482 H 0.79394 0.62688 0.44738
 O483 O 1.13233 0.39820 0.47501
 O484 O 1.16387 0.36611 0.47339
 C485 C 1.15458 0.38867 0.46507
 C486 C 1.16967 0.40371 0.44336
 C487 C 1.19575 0.39481 0.43455
 H488 H 1.20496 0.37718 0.44396
 O489 O 0.97311 0.59671 0.36592
 O490 O 0.97328 0.62844 0.33411
 C491 C 0.96389 0.60636 0.34358
 C492 C 0.94152 0.59199 0.32900
 C493 C 0.93335 0.59978 0.30250
 H494 H 0.94426 0.61593 0.29202
 O495 O 1.02330 0.40419 0.36246
 O496 O 1.02245 0.37283 0.33032
 C497 C 1.03290 0.39427 0.34025
 C498 C 1.05714 0.40735 0.32663
 C499 C 1.06914 0.39631 0.30263
 H500 H 1.06013 0.37850 0.29332
 O501 O 1.13550 0.47202 0.40373
 O502 O 1.16829 0.47141 0.37209
 C503 C 1.15786 0.46226 0.39427
 C504 C 1.17141 0.43959 0.40882
 C505 C 1.19746 0.43020 0.40021
 H506 H 1.20823 0.44020 0.38349
 O507 O 0.86051 0.53084 0.40461
 O508 O 0.82750 0.53217 0.37347
 C509 C 0.83823 0.54111 0.39551
 C510 C 0.82517 0.56404 0.41049
 C511 C 0.80063 0.57603 0.40078
 H512 H 0.79069 0.56819 0.38251
 O513 O 0.90318 0.63510 0.48087
 O514 O 0.87216 0.66770 0.48160
 C515 C 0.89417 0.65742 0.47178
 C516 C 0.90884 0.67115 0.44893
 C517 C 0.90040 0.69688 0.44050
 H518 H 0.88370 0.70691 0.45132
 O519 O 1.09369 0.36201 0.47455
 O520 O 1.12500 0.32972 0.47277
 C521 C 1.10274 0.34026 0.46406
 C522 C 1.08767 0.32772 0.44089
 C523 C 1.09706 0.30346 0.42912
 H524 H 1.11503 0.29340 0.43753
 O525 O 1.09936 0.52564 0.36605
 O526 O 1.13195 0.52522 0.33422
 C527 C 1.10955 0.53487 0.34388
 C528 C 1.09570 0.55764 0.32974
 C529 C 1.10691 0.56841 0.30547
 H530 H 1.12492 0.55903 0.29625
 O531 O 0.89462 0.47612 0.36590
 O532 O 0.86148 0.47675 0.33488
 C533 C 0.88399 0.46695 0.34387
 C534 C 0.89795 0.44436 0.32918
 C535 C 0.88659 0.43261 0.30521
 H536 H 0.86756 0.44039 0.29661
 O537 O 1.02712 0.63232 0.40446
 O538 O 1.02702 0.66427 0.37288
 C539 C 1.03658 0.65435 0.39497
 C540 C 1.05955 0.66825 0.40907
 C541 C 1.06986 0.69244 0.39832
 H542 H 1.05996 0.70158 0.38068
 O543 O 0.96767 0.36893 0.40040
 O544 O 0.96649 0.33757 0.36824
 C545 C 0.95740 0.34726 0.39072
 C546 C 0.93421 0.33369 0.40545
 C547 C 0.92263 0.30955 0.39529
 H548 H 0.93103 0.30041 0.37684
 O549 O 1.13841 0.59543 0.47536
 O550 O 1.17090 0.62678 0.47501
 C551 C 1.16098 0.60479 0.46584
 C552 C 1.17564 0.59030 0.44356
 C553 C 1.20191 0.59892 0.43493
 H554 H 1.21166 0.61593 0.44504
 O555 O 0.85917 0.40612 0.47815
 O556 O 0.82563 0.37583 0.47798
 C557 C 0.83597 0.39779 0.46923
 C558 C 0.82120 0.41351 0.44805
 C559 C 0.79433 0.40620 0.43991
 H560 H 0.78385 0.38952 0.44993
 Cu561 Cu 0.99546 0.39028 0.38502
 Cu562 Cu 0.99423 0.35262 0.34648
 Cu563 Cu 1.00000 0.61150 0.38818
 Cu564 Cu 1.00011 0.64987 0.35028
 Cu565 Cu 0.88162 0.50326 0.38911
 Cu566 Cu 0.84190 0.50451 0.35185
 Cu567 Cu 1.11484 0.49894 0.38749
 Cu568 Cu 1.15394 0.49820 0.34936
 C569 C 0.92238 0.43338 0.34024
 H570 H 0.93105 0.44183 0.35887
 C571 C 0.89926 0.40992 0.29307
 C572 C 1.07219 0.56983 0.34139
 H573 H 1.06369 0.56184 0.36035
 C574 C 1.09538 0.59142 0.29313
 C575 C 0.83447 0.43518 0.43484
 H576 H 0.85538 0.44063 0.44066
 C577 C 0.78098 0.42017 0.41865
 C578 C 1.16302 0.56848 0.43012
 H579 H 1.14263 0.56193 0.43664
 C580 C 1.21552 0.58634 0.41286
 C581 C 0.92255 0.34560 0.42909
 H582 H 0.93102 0.36437 0.43683
 C583 C 0.89956 0.29765 0.40826
 C584 C 1.07257 0.65666 0.43194
 H585 H 1.06493 0.63766 0.43999
 C586 C 1.09323 0.70485 0.40959
 C587 C 0.92736 0.57094 0.34222
 H588 H 0.93328 0.56513 0.36284
 C589 C 0.91112 0.58676 0.28943
 C590 C 1.06977 0.42993 0.33900
 H591 H 1.06111 0.43823 0.35774
 C592 C 1.09357 0.40743 0.29137
 C593 C 1.06499 0.34108 0.42903
 H594 H 1.05802 0.36012 0.43751
 C595 C 1.08416 0.29276 0.40569
 C596 C 0.93006 0.65803 0.43432
 H597 H 0.93645 0.63801 0.44058
 C598 C 0.91255 0.70947 0.41763
 C599 C 0.83803 0.57496 0.43398
 H600 H 0.85709 0.56617 0.44144
 C601 C 0.78941 0.59886 0.41393
 C602 C 1.15776 0.42633 0.43061
 H603 H 1.13747 0.43313 0.43711
 C604 C 1.20978 0.40790 0.41307
 O605 O 1.02520 0.40019 0.63517
 O606 O 1.02496 0.36937 0.66788
 C607 C 1.03495 0.39085 0.65742
 C608 C 1.05843 0.40470 0.67116
 C609 C 1.06747 0.39556 0.69687
 H610 H 1.05699 0.37873 0.70664
 O611 O 0.97681 0.59670 0.64327
 O612 O 0.97861 0.62725 0.67620
 C613 C 0.96831 0.60578 0.66625
 C614 C 0.94573 0.59144 0.68097
 C615 C 0.93748 0.59919 0.70760
 H616 H 0.94836 0.61532 0.71807
 O617 O 0.86357 0.52881 0.60617
 O618 O 0.83160 0.52874 0.63865
 C619 C 0.84121 0.53803 0.61622
 C620 C 0.82659 0.56006 0.60176
 C621 C 0.80048 0.56888 0.61071
 H622 H 0.79068 0.55921 0.62820
 O623 O 1.14071 0.46970 0.59743
 O624 O 1.17298 0.46829 0.62932
 C625 C 1.16270 0.45943 0.60707
 C626 C 1.17553 0.43613 0.59283
 C627 C 1.20020 0.42456 0.60255
 H628 H 1.21064 0.43339 0.62006
 O629 O 1.09533 0.35962 0.52821
 O630 O 1.12660 0.32731 0.52672
 C631 C 1.10463 0.33722 0.53693
 C632 C 1.09007 0.32340 0.55987
 C633 C 1.10037 0.29942 0.57164
 H634 H 1.11870 0.28993 0.56318
 O635 O 0.90222 0.63558 0.53469
 O636 O 0.87089 0.66788 0.53541
 C637 C 0.89306 0.65761 0.54462
 C638 C 0.90791 0.67083 0.56769
 C639 C 0.89796 0.69490 0.57952
 H640 H 0.87969 0.70450 0.57121
 O641 O 0.90097 0.47511 0.64216
 O642 O 0.86922 0.47480 0.67485
 C643 C 0.89144 0.46556 0.66451
 C644 C 0.90619 0.44314 0.67814
 C645 C 0.89807 0.43396 0.70433
 H646 H 0.88124 0.44378 0.71517
 O647 O 1.10370 0.52240 0.63577
 O648 O 1.13581 0.52114 0.66784
 C649 C 1.11346 0.53086 0.65839
 C650 C 1.09899 0.55259 0.67354
 C651 C 1.10856 0.56096 0.69939
 H652 H 1.12642 0.55122 0.70840
 O653 O 0.96873 0.36325 0.60097
 O654 O 0.96829 0.33232 0.63355
 C655 C 0.95866 0.34175 0.61126
 C656 C 0.93507 0.32827 0.59730
 C657 C 0.92324 0.30419 0.60752
 H658 H 0.93185 0.29469 0.62561
 O659 O 1.03029 0.63343 0.60439
 O660 O 1.03206 0.66435 0.63695
 C661 C 1.04051 0.65510 0.61407
 C662 C 1.06295 0.66910 0.59877
 C663 C 1.07360 0.69404 0.60785
 H664 H 1.06493 0.70366 0.62593
 O665 O 0.86105 0.40537 0.53150
 O666 O 0.82738 0.37521 0.53126
 C667 C 0.83817 0.39664 0.54091
 C668 C 0.82425 0.41140 0.56356
 C669 C 0.79760 0.40393 0.57239
 H670 H 0.78674 0.38771 0.56204
 O671 O 1.13946 0.59555 0.52888
 O672 O 1.17185 0.62699 0.52838
 C673 C 1.16223 0.60493 0.53778
 C674 C 1.17744 0.59031 0.55960
 C675 C 1.20342 0.59949 0.56831
 H676 H 1.21262 0.61705 0.55860
 O677 O 1.03063 0.59423 0.63969
 O678 O 1.03247 0.62490 0.67252
 C679 C 1.04098 0.60293 0.66193
 C680 C 1.06355 0.58770 0.67528
 C681 C 1.07331 0.59561 0.70118
 H682 H 1.06336 0.61213 0.71193
 O683 O 0.97124 0.40131 0.63775
 O684 O 0.97124 0.37038 0.67035
 C685 C 0.96241 0.39253 0.66070
 C686 C 0.94124 0.40777 0.67617
 C687 C 0.93319 0.39918 0.70244
 H688 H 0.94308 0.38178 0.71162
 O689 O 1.14227 0.52274 0.59868
 O690 O 1.17463 0.52167 0.63047
 C691 C 1.16484 0.53173 0.60851
 C692 C 1.17902 0.55466 0.59445
 C693 C 1.20498 0.56451 0.60324
 H694 H 1.21556 0.55482 0.62016
 O695 O 0.86337 0.47635 0.60457
 O696 O 0.83135 0.47620 0.63700
 C697 C 0.84075 0.46737 0.61429
 C698 C 0.82549 0.44612 0.59925
 C699 C 0.79882 0.43844 0.60771
 H700 H 0.78919 0.44844 0.62508
 O701 O 1.10135 0.63236 0.52976
 O702 O 1.13368 0.66385 0.52901
 C703 C 1.11135 0.65430 0.53892
 C704 C 1.09742 0.66851 0.56186
 C705 C 1.10768 0.69335 0.57116
 H706 H 1.12492 0.70276 0.56053
 O707 O 0.89651 0.36630 0.52987
 O708 O 0.86302 0.33599 0.52955
 C709 C 0.88586 0.34457 0.53899
 C710 C 0.89963 0.32976 0.56157
 C711 C 0.88815 0.30580 0.57197
 H712 H 0.87000 0.29722 0.56226
 O713 O 1.10237 0.46990 0.63459
 O714 O 1.13439 0.46850 0.66675
 C715 C 1.11162 0.46002 0.65683
 C716 C 1.09594 0.43815 0.67098
 C717 C 1.10465 0.42847 0.69673
 H718 H 1.12243 0.43749 0.70670
 O719 O 0.90244 0.52761 0.64278
 O720 O 0.87072 0.52740 0.67549
 C721 C 0.89334 0.53634 0.66561
 C722 C 0.90904 0.55739 0.68052
 C723 C 0.90120 0.56524 0.70712
 H724 H 0.88367 0.55553 0.71697
 O725 O 0.97632 0.63301 0.60514
 O726 O 0.97783 0.66375 0.63790
 C727 C 0.96745 0.65476 0.61571
 C728 C 0.94427 0.66924 0.60252
 C729 C 0.93395 0.69313 0.61410
 H730 H 0.94381 0.70168 0.63209
 O731 O 1.02275 0.36175 0.59929
 O732 O 1.02230 0.33092 0.63199
 C733 C 1.03170 0.33979 0.60934
 C734 C 1.05411 0.32497 0.59526
 C735 C 1.06466 0.30124 0.60676
 H736 H 1.05521 0.29286 0.62512
 O737 O 1.13356 0.39653 0.52825
 O738 O 1.16496 0.36431 0.52668
 C739 C 1.15612 0.38640 0.53665
 C740 C 1.17192 0.40018 0.55859
 C741 C 1.19663 0.38905 0.56842
 H742 H 1.20481 0.37091 0.55899
 O743 O 0.86345 0.59922 0.53410
 O744 O 0.83203 0.63144 0.53462
 C745 C 0.84121 0.60915 0.54370
 C746 C 0.82649 0.59489 0.56620
 C747 C 0.80041 0.60360 0.57552
 H748 H 0.79029 0.62037 0.56544
 Cu749 Cu 0.99686 0.38465 0.61493
 Cu750 Cu 0.99666 0.34767 0.65423
 Cu751 Cu 1.00336 0.61130 0.61986
 Cu752 Cu 1.00549 0.64818 0.65915
 Cu753 Cu 0.88181 0.38961 0.50387
 Cu754 Cu 0.84160 0.35324 0.50356
 Cu755 Cu 1.11045 0.38218 0.50177
 Cu756 Cu 1.14821 0.34356 0.49967
 Cu757 Cu 0.88623 0.61421 0.50755
 Cu758 Cu 0.84879 0.65311 0.50815
 Cu759 Cu 1.11678 0.61101 0.50253
 Cu760 Cu 1.15571 0.64872 0.50189
 Cu761 Cu 0.88580 0.50204 0.62068
 Cu762 Cu 0.84750 0.50180 0.65979
 Cu763 Cu 1.11923 0.49636 0.61330
 Cu764 Cu 1.15775 0.49478 0.65174
 C765 C 1.07264 0.42621 0.65843
 H766 H 1.06595 0.43322 0.63845
 C767 C 1.09041 0.40729 0.70985
 C768 C 0.93150 0.57038 0.66777
 H769 H 0.93746 0.56455 0.64712
 C770 C 0.91532 0.58601 0.72090
 C771 C 0.83924 0.57299 0.57933
 H772 H 0.85951 0.56643 0.57252
 C773 C 0.78718 0.59057 0.59768
 C774 C 1.16172 0.42388 0.57070
 H775 H 1.14243 0.43235 0.56343
 C776 C 1.21080 0.40091 0.59052
 C777 C 1.06669 0.33570 0.57168
 H778 H 1.05885 0.35435 0.56312
 C779 C 1.08782 0.28846 0.59532
 C780 C 0.93126 0.65837 0.57922
 H781 H 0.93886 0.63966 0.57049
 C782 C 0.91077 0.70603 0.60287
 C783 C 0.92794 0.43001 0.66432
 H784 H 0.93396 0.43657 0.64391
 C785 C 0.91170 0.41209 0.71665
 C786 C 1.07632 0.56596 0.66172
 H787 H 1.06911 0.55993 0.64157
 C788 C 1.09588 0.58247 0.71331
 C789 C 0.92320 0.34062 0.57417
 H790 H 0.93184 0.35934 0.56643
 C791 C 0.89959 0.29292 0.59501
 C792 C 1.07489 0.65666 0.57560
 H793 H 1.06718 0.63726 0.56873
 C794 C 1.09612 0.70618 0.59419
 C795 C 0.83793 0.43268 0.57700
 H796 H 0.85863 0.43835 0.57057
 C797 C 0.78472 0.41743 0.59440
 C798 C 1.16562 0.56771 0.57251
 H799 H 1.14547 0.56068 0.56589
 C800 C 1.21745 0.58678 0.58996
 O801 O 0.46875 0.89889 0.36343
 O802 O 0.46847 0.86752 0.33126
 C803 C 0.45926 0.88958 0.34102
 C804 C 0.43705 0.90450 0.32657
 C805 C 0.42792 0.89634 0.30043
 H806 H 0.43768 0.87935 0.29031
 O807 O 0.52287 1.09826 0.35754
 O808 O 0.52172 1.12904 0.32479
 C809 C 0.53143 1.10726 0.33459
 C810 C 0.55317 1.09250 0.31933
 C811 C 0.56116 1.10094 0.29297
 H812 H 0.55095 1.11805 0.28357
 O813 O 0.36053 0.97465 0.40038
 O814 O 0.32777 0.97431 0.36891
 C815 C 0.33758 0.96576 0.39143
 C816 C 0.32239 0.94485 0.40700
 C817 C 0.29559 0.93731 0.39911
 H818 H 0.28572 0.94739 0.38199
 O819 O 0.63151 1.02839 0.39376
 O820 O 0.66300 1.02849 0.36084
 C821 C 0.65345 1.03807 0.38325
 C822 C 0.66749 1.06121 0.39677
 C823 C 0.69226 1.07159 0.38591
 H824 H 0.70180 1.06181 0.36837
 O825 O 0.39598 0.86598 0.47286
 O826 O 0.36277 0.83536 0.47363
 C827 C 0.38545 0.84420 0.46386
 C828 C 0.39932 0.82936 0.44135
 C829 C 0.38787 0.80531 0.43130
 H830 H 0.36946 0.79697 0.44088
 O831 O 0.59518 1.13989 0.46594
 O832 O 0.62719 1.17169 0.46545
 C833 C 0.60474 1.16191 0.45632
 C834 C 0.59009 1.17535 0.43341
 C835 C 0.59983 1.19976 0.42205
 H836 H 0.61765 1.20980 0.43090
 O837 O 0.39840 1.02555 0.36018
 O838 O 0.36561 1.02501 0.32876
 C839 C 0.38829 1.03431 0.33782
 C840 C 0.40256 1.05619 0.32279
 C841 C 0.39277 1.06509 0.29720
 H842 H 0.37505 1.05525 0.28795
 O843 O 0.59393 0.97391 0.35860
 O844 O 0.62530 0.97346 0.32557
 C845 C 0.60324 0.96404 0.33636
 C846 C 0.58864 0.94093 0.32338
 C847 C 0.59743 0.93086 0.29779
 H848 H 0.61435 0.94058 0.28695
 O849 O 0.52307 0.86210 0.40029
 O850 O 0.52287 0.83012 0.36876
 C851 C 0.53267 0.84014 0.39074
 C852 C 0.55598 0.82687 0.40517
 C853 C 0.56477 0.80062 0.39821
 H854 H 0.55405 0.78935 0.38240
 O855 O 0.46973 1.13559 0.39598
 O856 O 0.46892 1.16665 0.36351
 C857 C 0.46025 1.15752 0.38639
 C858 C 0.43870 1.17239 0.40183
 C859 C 0.43017 1.19802 0.39318
 H860 H 0.43976 1.20718 0.37529
 O861 O 0.36259 1.10057 0.47054
 O862 O 0.32965 1.13131 0.47094
 C863 C 0.33980 1.10956 0.46136
 C864 C 0.32534 1.09463 0.43911
 C865 C 0.29887 1.10249 0.43013
 H866 H 0.28851 1.11937 0.43985
 O867 O 0.63696 0.90548 0.46620
 O868 O 0.66963 0.87446 0.46592
 C869 C 0.65939 0.89614 0.45643
 C870 C 0.67334 0.91042 0.43347
 C871 C 0.69931 0.90188 0.42383
 H872 H 0.70975 0.88537 0.43403
 O873 O 0.46919 1.09820 0.35858
 O874 O 0.46812 1.12916 0.32602
 C875 C 0.45936 1.10716 0.33621
 C876 C 0.43718 1.09205 0.32220
 C877 C 0.42730 1.10061 0.29658
 H878 H 0.43688 1.11773 0.28644
 O879 O 0.52248 0.89977 0.36349
 O880 O 0.52242 0.86814 0.33158
 C881 C 0.53170 0.89035 0.34099
 C882 C 0.55371 0.90505 0.32579
 C883 C 0.56272 0.89552 0.30015
 H884 H 0.55328 0.87763 0.29140
 O885 O 0.63463 0.97565 0.39313
 O886 O 0.66621 0.97562 0.36030
 C887 C 0.65715 0.96667 0.38307
 C888 C 0.67239 0.94505 0.39768
 C889 C 0.69840 0.93618 0.38827
 H890 H 0.70778 0.94566 0.37046
 O891 O 0.36244 1.02716 0.39965
 O892 O 0.32957 1.02663 0.36830
 C893 C 0.33984 1.03628 0.39025
 C894 C 0.32547 1.05858 0.40467
 C895 C 0.29902 1.06657 0.39625
 H896 H 0.28901 1.05611 0.37941
 O897 O 0.39996 1.13805 0.47089
 O898 O 0.36738 1.16915 0.47136
 C899 C 0.38988 1.15986 0.46163
 C900 C 0.40421 1.17379 0.43868
 C901 C 0.39569 1.19938 0.42954
 H902 H 0.37899 1.20976 0.44002
 O903 O 0.59955 0.86780 0.46821
 O904 O 0.63208 0.83661 0.46806
 C905 C 0.60904 0.84550 0.45944
 C906 C 0.59324 0.82979 0.43895
 C907 C 0.60132 0.80348 0.43220
 H908 H 0.61898 0.79449 0.44234
 O909 O 0.59491 1.02673 0.35504
 O910 O 0.62618 1.02638 0.32192
 C911 C 0.60393 1.03562 0.33214
 C912 C 0.58873 1.05751 0.31790
 C913 C 0.59674 1.06651 0.29155
 H914 H 0.61368 1.05672 0.28086
 O915 O 0.39863 0.97280 0.36267
 O916 O 0.36594 0.97245 0.33115
 C917 C 0.38845 0.96317 0.34072
 C918 C 0.40264 0.94066 0.32645
 C919 C 0.39389 0.93227 0.30034
 H920 H 0.37690 0.94262 0.29042
 O921 O 0.52344 1.13621 0.39418
 O922 O 0.52256 1.16704 0.36148
 C923 C 0.53240 1.15808 0.38383
 C924 C 0.55488 1.17297 0.39762
 C925 C 0.56490 1.19717 0.38648
 H926 H 0.55534 1.20556 0.36827
 O927 O 0.46880 0.86202 0.40113
 O928 O 0.46824 0.83041 0.36924
 C929 C 0.45885 0.84021 0.39153
 C930 C 0.43538 0.82697 0.40604
 C931 C 0.42364 0.80274 0.39629
 H932 H 0.43246 0.79277 0.37848
 O933 O 0.63161 1.10173 0.46468
 O934 O 0.66385 1.13331 0.46385
 C935 C 0.65383 1.11131 0.45461
 C936 C 0.66769 1.09704 0.43153
 C937 C 0.69246 1.10711 0.42023
 H938 H 0.70175 1.12519 0.42871
 O939 O 0.35911 0.90391 0.47329
 O940 O 0.32577 0.87342 0.47409
 C941 C 0.33609 0.89508 0.46448
 C942 C 0.32161 0.90998 0.44245
 C943 C 0.29489 0.90241 0.43401
 H944 H 0.28427 0.88590 0.44419
 Cu945 Cu 0.49576 0.88369 0.38540
 Cu946 Cu 0.49554 0.84582 0.34706
 Cu947 Cu 0.49637 1.11394 0.37988
 Cu948 Cu 0.49520 1.15111 0.34066
 Cu949 Cu 0.38338 1.00004 0.38382
 Cu950 Cu 0.34395 0.99951 0.34611
 Cu951 Cu 0.61062 1.00117 0.37834
 Cu952 Cu 0.64829 1.00096 0.33890
 C953 C 0.42439 0.92682 0.33928
 H954 H 0.43105 0.93307 0.35955
 C955 C 0.40644 0.91025 0.28710
 C956 C 0.56678 1.07056 0.33145
 H957 H 0.56079 1.06415 0.35192
 C958 C 0.58282 1.08809 0.27887
 C959 C 0.33508 0.93138 0.42893
 H960 H 0.35589 0.93701 0.43490
 C961 C 0.28172 0.91615 0.41244
 C962 C 0.65548 1.07395 0.41974
 H963 H 0.63616 1.06628 0.42803
 C964 C 0.70480 1.09458 0.39736
 C965 C 0.42319 0.83989 0.42878
 H966 H 0.43178 0.85873 0.43622
 C967 C 0.39972 0.79194 0.40877
 C968 C 0.56738 1.16237 0.42120
 H969 H 0.55996 1.14340 0.42953
 C970 C 0.58737 1.21062 0.39842
 C971 C 0.42494 1.06963 0.33497
 H972 H 0.43226 1.06319 0.35494
 C973 C 0.40502 1.08734 0.28398
 C974 C 0.56660 0.92797 0.33715
 H975 H 0.55995 0.93529 0.35708
 C976 C 0.58449 0.90822 0.28604
 C977 C 0.57033 0.84116 0.42568
 H978 H 0.56411 0.86155 0.43083
 C979 C 0.58723 0.78873 0.41202
 C980 C 0.42589 1.16061 0.42480
 H981 H 0.43227 1.14069 0.43138
 C982 C 0.40881 1.21171 0.40692
 C983 C 0.33836 1.07252 0.42630
 H984 H 0.35887 1.06650 0.43277
 C985 C 0.28551 1.08836 0.40884
 C986 C 0.66020 0.93217 0.42043
 H987 H 0.64001 0.93862 0.42756
 C988 C 0.71205 0.91459 0.40124
 O989 O 0.52724 0.90307 0.63033
 O990 O 0.52876 0.87194 0.66266
 C991 C 0.53784 0.89382 0.65224
 C992 C 0.56152 0.90821 0.66519
 C993 C 0.57389 0.89789 0.68912
 H994 H 0.56574 0.87969 0.69850
 O995 O 0.47276 1.09815 0.63748
 O996 O 0.47361 1.12973 0.66942
 C997 C 0.46394 1.10772 0.66011
 C998 C 0.44161 1.09333 0.67503
 C999 C 0.43239 1.10185 0.70110
 H1000 H 0.44254 1.11865 0.71120
 O1001 O 0.36548 1.02808 0.59710
 O1002 O 0.33301 1.02810 0.62910
 C1003 C 0.34283 1.03707 0.60658
 C1004 C 0.32778 1.05824 0.59140
 C1005 C 0.30097 1.06546 0.59950
 H1006 H 0.29134 1.05539 0.61685
 O1007 O 0.63854 0.97806 0.59072
 O1008 O 0.67155 0.97853 0.62193
 C1009 C 0.66152 0.96935 0.59977
 C1010 C 0.67633 0.94768 0.58500
 C1011 C 0.70230 0.93897 0.59419
 H1012 H 0.71189 0.94887 0.61160
 O1013 O 0.60038 0.86928 0.52140
 O1014 O 0.63290 0.83809 0.52118
 C1015 C 0.61028 0.84738 0.53065
 C1016 C 0.59542 0.83261 0.55269
 C1017 C 0.60464 0.80713 0.56118
 H1018 H 0.62265 0.79822 0.55147
 O1019 O 0.39979 1.13750 0.52474
 O1020 O 0.36706 1.16843 0.52565
 C1021 C 0.38959 1.15892 0.53496
 C1022 C 0.40371 1.17209 0.55857
 C1023 C 0.39346 1.19618 0.57021
 H1024 H 0.37553 1.20595 0.56139
 O1025 O 0.40278 0.97529 0.63438
 O1026 O 0.37040 0.97515 0.66646
 C1027 C 0.39283 0.96584 0.65653
 C1028 C 0.40683 0.94312 0.67036
 C1029 C 0.39568 0.93234 0.69457
 H1030 H 0.37783 0.94182 0.70401
 O1031 O 0.60048 1.02943 0.63032
 O1032 O 0.63360 1.02923 0.66140
 C1033 C 0.61081 1.03836 0.65255
 C1034 C 0.59688 1.06029 0.66780
 C1035 C 0.60892 1.07086 0.69168
 H1036 H 0.62758 1.06182 0.69982
 O1037 O 0.47172 0.86485 0.59592
 O1038 O 0.47278 0.83360 0.62814
 C1039 C 0.46234 0.84306 0.60622
 C1040 C 0.43834 0.82945 0.59294
 C1041 C 0.42666 0.80557 0.60385
 H1042 H 0.43584 0.79611 0.62169
 O1043 O 0.52512 1.13404 0.59645
 O1044 O 0.52583 1.16583 0.62819
 C1045 C 0.53463 1.15619 0.60556
 C1046 C 0.55673 1.17064 0.59036
 C1047 C 0.56734 1.19468 0.60112
 H1048 H 0.55830 1.20323 0.61957
 O1049 O 0.35972 0.90399 0.52682
 O1050 O 0.32654 0.87333 0.52762
 C1051 C 0.33712 0.89504 0.53670
 C1052 C 0.32350 0.90960 0.55953
 C1053 C 0.29839 0.90013 0.57066
 H1054 H 0.28855 0.88241 0.56200
 O1055 O 0.63381 1.10210 0.51820
 O1056 O 0.66612 1.13363 0.51749
 C1057 C 0.65660 1.11157 0.52696
 C1058 C 0.67180 1.09724 0.54890
 C1059 C 0.69787 1.10650 0.55737
 H1060 H 0.70722 1.12376 0.54726
 O1061 O 0.52679 1.09860 0.63549
 O1062 O 0.52775 1.13032 0.66729
 C1063 C 0.53712 1.10847 0.65731
 C1064 C 0.56093 1.09477 0.67039
 C1065 C 0.57334 1.10518 0.69435
 H1066 H 0.56485 1.12298 0.70417
 O1067 O 0.47322 0.90255 0.63274
 O1068 O 0.47435 0.87149 0.66517
 C1069 C 0.46444 0.89324 0.65548
 C1070 C 0.44174 0.90745 0.67006
 C1071 C 0.43011 0.89682 0.69433
 H1072 H 0.43839 0.87847 0.70317
 O1073 O 0.63655 1.03076 0.59065
 O1074 O 0.66966 1.03098 0.62174
 C1075 C 0.65918 1.04028 0.59976
 C1076 C 0.67302 1.06271 0.58481
 C1077 C 0.69904 1.07249 0.59318
 H1078 H 0.70958 1.06310 0.61030
 O1079 O 0.36281 0.97555 0.59901
 O1080 O 0.33054 0.97593 0.63120
 C1081 C 0.34012 0.96664 0.60884
 C1082 C 0.32506 0.94468 0.59469
 C1083 C 0.29987 0.93510 0.60539
 H1084 H 0.29073 0.94489 0.62313
 O1085 O 0.59512 1.13809 0.51976
 O1086 O 0.62724 1.16978 0.51956
 C1087 C 0.60508 1.15978 0.52954
 C1088 C 0.59123 1.17277 0.55341
 C1089 C 0.60169 1.19688 0.56478
 H1090 H 0.61949 1.20673 0.55558
 O1091 O 0.39713 0.86675 0.52637
 O1092 O 0.36402 0.83603 0.52721
 C1093 C 0.38693 0.84514 0.53613
 C1094 C 0.40139 0.83089 0.55864
 C1095 C 0.39007 0.80726 0.56984
 H1096 H 0.37137 0.79876 0.56111
 O1097 O 0.59982 0.97661 0.62776
 O1098 O 0.63288 0.97657 0.65889
 C1099 C 0.61030 0.96701 0.64954
 C1100 C 0.59671 0.94396 0.66376
 C1101 C 0.60848 0.93337 0.68774
 H1102 H 0.62654 0.94302 0.69653
 O1103 O 0.40090 1.02786 0.63723
 O1104 O 0.36855 1.02769 0.66933
 C1105 C 0.39115 1.03679 0.65981
 C1106 C 0.40596 1.05841 0.67473
 C1107 C 0.39703 1.06699 0.70080
 H1108 H 0.37939 1.05722 0.71041
 O1109 O 0.47128 1.13401 0.59869
 O1110 O 0.47200 1.16569 0.63053
 C1111 C 0.46202 1.15599 0.60847
 C1112 C 0.43904 1.17020 0.59452
 C1113 C 0.42853 1.19414 0.60569
 H1114 H 0.43805 1.20273 0.62385
 O1115 O 0.52590 0.86589 0.59316
 O1116 O 0.52724 0.83445 0.62521
 C1117 C 0.53601 0.84416 0.60259
 C1118 C 0.55888 0.83074 0.58756
 C1119 C 0.56846 0.80525 0.59579
 H1120 H 0.55816 0.79467 0.61243
 O1121 O 0.63884 0.90588 0.51981
 O1122 O 0.67151 0.87486 0.51962
 C1123 C 0.66169 0.89685 0.52879
 C1124 C 0.67645 0.91185 0.55060
 C1125 C 0.70240 0.90319 0.56023
 H1126 H 0.71237 0.88587 0.55092
 O1127 O 0.36329 1.09941 0.52393
 O1128 O 0.33017 1.12998 0.52460
 C1129 C 0.34053 1.10809 0.53350
 C1130 C 0.32643 1.09284 0.55564
 C1131 C 0.29955 1.09980 0.56408
 H1132 H 0.28859 1.11585 0.55365
 Cu1133 Cu 0.49932 0.88712 0.60981
 Cu1134 Cu 0.50097 0.84975 0.64853
 Cu1135 Cu 0.49885 1.11288 0.61398
 Cu1136 Cu 0.49987 1.15114 0.65200
 Cu1137 Cu 0.38129 0.88827 0.49971
 Cu1138 Cu 0.34147 0.85140 0.50068
 Cu1139 Cu 0.61577 0.89034 0.49392
 Cu1140 Cu 0.65487 0.85293 0.49364
 Cu1141 Cu 0.38475 1.11594 0.49741
 Cu1142 Cu 0.34533 1.15290 0.49819
 Cu1143 Cu 0.61064 1.11740 0.49218
 Cu1144 Cu 0.64929 1.15530 0.49155
 Cu1145 Cu 0.38626 1.00177 0.61375
 Cu1146 Cu 0.34745 1.00181 0.65227
 Cu1147 Cu 0.61554 1.00376 0.60673
 Cu1148 Cu 0.65514 1.00383 0.64416
 C1149 C 0.57306 0.93137 0.65271
 H1150 H 0.56408 0.93917 0.63397
 C1151 C 0.59751 0.91023 0.70038
 C1152 C 0.42843 1.07144 0.66226
 H1153 H 0.43513 1.06504 0.64201
 C1154 C 0.41016 1.08862 0.71427
 C1155 C 0.34029 1.07181 0.56925
 H1156 H 0.36116 1.06651 0.56312
 C1157 C 0.28668 1.08609 0.58593
 C1158 C 0.66376 0.93428 0.56296
 H1159 H 0.64354 0.94075 0.55607
 C1160 C 0.71550 0.91677 0.58201
 C1161 C 0.57234 0.84414 0.56580
 H1162 H 0.56534 0.86397 0.55956
 C1163 C 0.59129 0.79328 0.58263
 C1164 C 0.42665 1.15941 0.57084
 H1165 H 0.43445 1.14067 0.56238
 C1166 C 0.40569 1.20714 0.59397
 C1167 C 0.43004 0.93076 0.65839
 H1168 H 0.43844 0.93879 0.63940
 C1169 C 0.40686 0.90906 0.70647
 C1170 C 0.57275 1.07214 0.65750
 H1171 H 0.56371 1.06429 0.63878
 C1172 C 0.59755 1.09341 0.70494
 C1173 C 0.42561 0.84169 0.57015
 H1174 H 0.43411 0.86022 0.56182
 C1175 C 0.40233 0.79455 0.59247
 C1176 C 0.56859 1.15989 0.56633
 H1177 H 0.56074 1.14102 0.55819
 C1178 C 0.58997 1.20766 0.58887
 C1179 C 0.33656 0.93202 0.57157
 H1180 H 0.35619 0.93908 0.56347
 C1181 C 0.28653 0.91268 0.59373
 C1182 C 0.65970 1.07514 0.56251
 H1183 H 0.63945 1.06809 0.55621
 C1184 C 0.71164 1.09432 0.57944
 O1185 O 0.47338 0.40336 0.86326
 O1186 O 0.47203 0.37146 0.83168
 C1187 C 0.46307 0.39364 0.84140
 C1188 C 0.43989 0.40796 0.82775
 C1189 C 0.42835 0.39794 0.80324
 H1190 H 0.43686 0.37993 0.79386
 O1191 O 0.53176 0.59902 0.86410
 O1192 O 0.53253 0.62987 0.83145
 C1193 C 0.54156 0.60795 0.84160
 C1194 C 0.56425 0.59305 0.82767
 C1195 C 0.57637 0.60321 0.80345
 H1196 H 0.56860 0.62167 0.79441
 O1197 O 0.36294 0.47622 0.90339
 O1198 O 0.33089 0.47723 0.87125
 C1199 C 0.34031 0.46751 0.89350
 C1200 C 0.32537 0.44523 0.90751
 C1201 C 0.29998 0.43576 0.89735
 H1202 H 0.29086 0.44536 0.87956
 O1203 O 0.63909 0.52286 0.90089
 O1204 O 0.67169 0.52195 0.86904
 C1205 C 0.66191 0.53154 0.89121
 C1206 C 0.67683 0.55368 0.90514
 C1207 C 0.70188 0.56323 0.89421
 H1208 H 0.71101 0.55336 0.87650
 O1209 O 0.39905 0.36756 0.97477
 O1210 O 0.36708 0.33572 0.97464
 C1211 C 0.38972 0.34539 0.96548
 C1212 C 0.40528 0.33109 0.94356
 C1213 C 0.39781 0.30478 0.93547
 H1214 H 0.38083 0.29448 0.94566
 O1215 O 0.60547 0.63368 0.97246
 O1216 O 0.63841 0.66456 0.97246
 C1217 C 0.61562 0.65561 0.96325
 C1218 C 0.60109 0.67053 0.94122
 C1219 C 0.61054 0.69601 0.93261
 H1220 H 0.62827 0.70511 0.94260
 O1221 O 0.40330 0.52795 0.86651
 O1222 O 0.37140 0.52877 0.83421
 C1223 C 0.39417 0.53729 0.84402
 C1224 C 0.40980 0.55862 0.82927
 C1225 C 0.40146 0.56662 0.80295
 H1226 H 0.38390 0.55683 0.79336
 O1227 O 0.60053 0.47111 0.86240
 O1228 O 0.63331 0.47059 0.83075
 C1229 C 0.61049 0.46181 0.84011
 C1230 C 0.59593 0.43986 0.82544
 C1231 C 0.60677 0.42932 0.80093
 H1232 H 0.62502 0.43845 0.79182
 O1233 O 0.52730 0.36589 0.90033
 O1234 O 0.52632 0.33380 0.86893
 C1235 C 0.53606 0.34346 0.89111
 C1236 C 0.55800 0.32879 0.90629
 C1237 C 0.56687 0.30301 0.89779
 H1238 H 0.55727 0.29337 0.88025
 O1239 O 0.47848 0.63786 0.90080
 O1240 O 0.47870 0.66887 0.86830
 C1241 C 0.46924 0.65979 0.89089
 C1242 C 0.44691 0.67430 0.90579
 C1243 C 0.43794 0.70014 0.89758
 H1244 H 0.44768 0.71013 0.88024
 O1245 O 0.36741 0.60103 0.97386
 O1246 O 0.33622 0.63348 0.97405
 C1247 C 0.34513 0.61111 0.96477
 C1248 C 0.32974 0.59688 0.94288
 C1249 C 0.30367 0.60609 0.93459
 H1250 H 0.29451 0.62343 0.94467
 O1251 O 0.63690 0.39957 0.97519
 O1252 O 0.66839 0.36740 0.97468
 C1253 C 0.65906 0.38962 0.96549
 C1254 C 0.67363 0.40386 0.94289
 C1255 C 0.69979 0.39520 0.93383
 H1256 H 0.70989 0.37849 0.94402
 O1257 O 0.47784 0.59926 0.86493
 O1258 O 0.47823 0.62985 0.83202
 C1259 C 0.46853 0.60818 0.84234
 C1260 C 0.44587 0.59339 0.82834
 C1261 C 0.43706 0.60116 0.80200
 H1262 H 0.44742 0.61758 0.79142
 O1263 O 0.52748 0.40187 0.86155
 O1264 O 0.52645 0.36998 0.82995
 C1265 C 0.53654 0.39183 0.83923
 C1266 C 0.55974 0.40541 0.82475
 C1267 C 0.57090 0.39499 0.80014
 H1268 H 0.56183 0.37720 0.79082
 O1269 O 0.63695 0.47015 0.90161
 O1270 O 0.66972 0.46960 0.86994
 C1271 C 0.65948 0.46064 0.89226
 C1272 C 0.67373 0.43865 0.90721
 C1273 C 0.69990 0.42977 0.89855
 H1274 H 0.70983 0.43932 0.88107
 O1275 O 0.36375 0.52914 0.90270
 O1276 O 0.33169 0.53015 0.87059
 C1277 C 0.34162 0.53913 0.89294
 C1278 C 0.32789 0.56182 0.90752
 C1279 C 0.30189 0.57163 0.89917
 H1280 H 0.29112 0.56209 0.88224
 O1281 O 0.40590 0.63763 0.97350
 O1282 O 0.37481 0.67018 0.97396
 C1283 C 0.39695 0.66004 0.96445
 C1284 C 0.41202 0.67428 0.94228
 C1285 C 0.40380 0.70019 0.93425
 H1286 H 0.38688 0.71008 0.94489
 O1287 O 0.59809 0.36370 0.97539
 O1288 O 0.62925 0.33124 0.97518
 C1289 C 0.60710 0.34152 0.96588
 C1290 C 0.59220 0.32784 0.94326
 C1291 C 0.60053 0.30212 0.93462
 H1292 H 0.61739 0.29209 0.94506
 O1293 O 0.60087 0.52395 0.86388
 O1294 O 0.63358 0.52328 0.83215
 C1295 C 0.61134 0.53321 0.84184
 C1296 C 0.59823 0.55645 0.82786
 C1297 C 0.61002 0.56699 0.80374
 H1298 H 0.62782 0.55720 0.79456
 O1299 O 0.40082 0.47524 0.86554
 O1300 O 0.36879 0.47618 0.83338
 C1301 C 0.39092 0.46626 0.84314
 C1302 C 0.40474 0.44351 0.82872
 C1303 C 0.39372 0.43330 0.80415
 H1304 H 0.37596 0.44306 0.79500
 O1305 O 0.53243 0.63649 0.90111
 O1306 O 0.53303 0.66765 0.86876
 C1307 C 0.54235 0.65817 0.89118
 C1308 C 0.56541 0.67186 0.90572
 C1309 C 0.57531 0.69727 0.89720
 H1310 H 0.56541 0.70758 0.88025
 O1311 O 0.47352 0.36749 0.90185
 O1312 O 0.47253 0.33533 0.87049
 C1313 C 0.46375 0.34538 0.89293
 C1314 C 0.44171 0.33125 0.90847
 C1315 C 0.43416 0.30497 0.90102
 H1316 H 0.44486 0.29501 0.88425
 O1317 O 0.64185 0.59522 0.97214
 O1318 O 0.67490 0.62599 0.97156
 C1319 C 0.66447 0.60420 0.96241
 C1320 C 0.67823 0.58941 0.93973
 C1321 C 0.70336 0.59868 0.92847
 H1322 H 0.71331 0.61647 0.93689
 O1323 O 0.36115 0.40437 0.97433
 O1324 O 0.32879 0.37292 0.97397
 C1325 C 0.33875 0.39491 0.96471
 C1326 C 0.32468 0.40945 0.94213
 C1327 C 0.29929 0.40023 0.93166
 H1328 H 0.28924 0.38288 0.94091
 Cu1329 Cu 0.50065 0.38795 0.88477
 Cu1330 Cu 0.49916 0.34948 0.84704
 Cu1331 Cu 0.50505 0.61516 0.88601
 Cu1332 Cu 0.50563 0.65213 0.84681
 Cu1333 Cu 0.38581 0.50207 0.88782
 Cu1334 Cu 0.34750 0.50323 0.84914
 Cu1335 Cu 0.61602 0.49698 0.88537
 Cu1336 Cu 0.65530 0.49622 0.84726
 C1337 C 0.42800 0.43085 0.84020
 H1338 H 0.43638 0.43840 0.85935
 C1339 C 0.40514 0.41039 0.79137
 C1340 C 0.57520 0.56949 0.83957
 H1341 H 0.56634 0.56176 0.85848
 C1342 C 0.59941 0.59042 0.79154
 C1343 C 0.33738 0.43212 0.93007
 H1344 H 0.35716 0.43909 0.93775
 C1345 C 0.28677 0.41329 0.90927
 C1346 C 0.66526 0.56671 0.92805
 H1347 H 0.64565 0.55967 0.93623
 C1348 C 0.71513 0.58577 0.90555
 C1349 C 0.42744 0.34407 0.93002
 H1350 H 0.43311 0.36448 0.93574
 C1351 C 0.41243 0.29155 0.91439
 C1352 C 0.57835 0.65882 0.92787
 H1353 H 0.57117 0.63907 0.93429
 C1354 C 0.59778 0.70959 0.91070
 C1355 C 0.43224 0.57190 0.84172
 H1356 H 0.43857 0.56600 0.86219
 C1357 C 0.41494 0.58776 0.78915
 C1358 C 0.57225 0.42802 0.83696
 H1359 H 0.56414 0.43588 0.85613
 C1360 C 0.59462 0.40678 0.78822
 C1361 C 0.57072 0.34091 0.92920
 H1362 H 0.56439 0.36090 0.93567
 C1363 C 0.58802 0.28950 0.91204
 C1364 C 0.43382 0.66167 0.92825
 H1365 H 0.44011 0.64159 0.93440
 C1366 C 0.41657 0.71330 0.91205
 C1367 C 0.34149 0.57453 0.92951
 H1368 H 0.36171 0.56747 0.93577
 C1369 C 0.28955 0.59361 0.91287
 C1370 C 0.66088 0.42575 0.92959
 H1371 H 0.64055 0.43233 0.93620
 C1372 C 0.71312 0.40817 0.91176
 O1373 O 0.52620 0.40597 1.13721
 O1374 O 0.52491 0.37529 1.17004
 C1375 C 0.53513 0.39675 1.15986
 C1376 C 0.55810 0.41060 1.17423
 C1377 C 0.56576 0.40240 1.20069
 H1378 H 0.55432 0.38636 1.21077
 O1379 O 0.47860 0.59649 1.13655
 O1380 O 0.47885 0.62755 1.16906
 C1381 C 0.46909 0.60586 1.15895
 C1382 C 0.44600 0.59162 1.17291
 C1383 C 0.43757 0.59910 1.19952
 H1384 H 0.44853 0.61491 1.21040
 O1385 O 0.36144 0.53040 1.09811
 O1386 O 0.32949 0.53159 1.13056
 C1387 C 0.33953 0.54059 1.10823
 C1388 C 0.32636 0.56376 1.09424
 C1389 C 0.30194 0.57551 1.10460
 H1390 H 0.29192 0.56701 1.12259
 O1391 O 0.64122 0.47173 1.09826
 O1392 O 0.67330 0.47107 1.13038
 C1393 C 0.66323 0.46185 1.10820
 C1394 C 0.67663 0.43867 1.09452
 C1395 C 0.70053 0.42728 1.10576
 H1396 H 0.71015 0.43660 1.12348
 O1397 O 0.59869 0.36342 1.02909
 O1398 O 0.62982 0.33094 1.02907
 C1399 C 0.60774 0.34129 1.03865
 C1400 C 0.59277 0.32823 1.06179
 C1401 C 0.60193 0.30369 1.07314
 H1402 H 0.61969 0.29346 1.06437
 O1403 O 0.40670 0.63669 1.02705
 O1404 O 0.37583 0.66943 1.02736
 C1405 C 0.39798 0.65900 1.03649
 C1406 C 0.41349 0.67255 1.05875
 C1407 C 0.40589 0.69843 1.06779
 H1408 H 0.38923 0.70906 1.05764
 O1409 O 0.39808 0.47660 1.13488
 O1410 O 0.36605 0.47751 1.16730
 C1411 C 0.38833 0.46787 1.15750
 C1412 C 0.40288 0.44607 1.17232
 C1413 C 0.39321 0.43712 1.19801
 H1414 H 0.37512 0.44643 1.20716
 O1415 O 0.60477 0.52532 1.13558
 O1416 O 0.63699 0.52475 1.16758
 C1417 C 0.61467 0.53427 1.15793
 C1418 C 0.60055 0.55645 1.17249
 C1419 C 0.61123 0.56627 1.19728
 H1420 H 0.62902 0.55657 1.20645
 O1421 O 0.47169 0.36902 1.10008
 O1422 O 0.47093 0.33808 1.13267
 C1423 C 0.46192 0.34728 1.11004
 C1424 C 0.43951 0.33279 1.09547
 C1425 C 0.43084 0.30722 1.10442
 H1426 H 0.44093 0.29791 1.12185
 O1427 O 0.53341 0.63295 1.09955
 O1428 O 0.53374 0.66447 1.13158
 C1429 C 0.54305 0.65486 1.10915
 C1430 C 0.56562 0.66890 1.09419
 C1431 C 0.57486 0.69452 1.10256
 H1432 H 0.56479 0.70459 1.11964
 O1433 O 0.36019 0.40445 1.02775
 O1434 O 0.32771 0.37311 1.02785
 C1435 C 0.33746 0.39519 1.03704
 C1436 C 0.32281 0.41023 1.05911
 C1437 C 0.29685 0.40175 1.06913
 H1438 H 0.28678 0.38429 1.06017
 O1439 O 0.64263 0.59532 1.02572
 O1440 O 0.67570 0.62608 1.02518
 C1441 C 0.66553 0.60433 1.03471
 C1442 C 0.68023 0.58986 1.05694
 C1443 C 0.70632 0.59883 1.06559
 H1444 H 0.71599 0.61588 1.05539
 O1445 O 0.53266 0.59640 1.13743
 O1446 O 0.53307 0.62771 1.16967
 C1447 C 0.54230 0.60579 1.15975
 C1448 C 0.56514 0.59146 1.17363
 C1449 C 0.57625 0.60121 1.19841
 H1450 H 0.56749 0.61900 1.20803
 O1451 O 0.47192 0.40632 1.13743
 O1452 O 0.47092 0.37542 1.17006
 C1453 C 0.46193 0.39725 1.15981
 C1454 C 0.43903 0.41175 1.17359
 C1455 C 0.42907 0.40305 1.19927
 H1456 H 0.43909 0.38642 1.20969
 O1457 O 0.64335 0.52454 1.09860
 O1458 O 0.67577 0.52407 1.13036
 C1459 C 0.66606 0.53351 1.10809
 C1460 C 0.68067 0.55559 1.09319
 C1461 C 0.70670 0.56527 1.10189
 H1462 H 0.71686 0.55610 1.11935
 O1463 O 0.36062 0.47755 1.09690
 O1464 O 0.32853 0.47865 1.12924
 C1465 C 0.33795 0.46896 1.10690
 C1466 C 0.32298 0.44683 1.09289
 C1467 C 0.29696 0.43830 1.10239
 H1468 H 0.28728 0.44866 1.11952
 O1469 O 0.60513 0.63259 1.02607
 O1470 O 0.63806 0.66351 1.02602
 C1471 C 0.61536 0.65431 1.03549
 C1472 C 0.60090 0.66862 1.05804
 C1473 C 0.60985 0.69419 1.06667
 H1474 H 0.62729 0.70370 1.05647
 O1475 O 0.39831 0.36784 1.02829
 O1476 O 0.36621 0.33613 1.02844
 C1477 C 0.38864 0.34588 1.03779
 C1478 C 0.40352 0.33201 1.06030
 C1479 C 0.39507 0.30639 1.06958
 H1480 H 0.37799 0.29616 1.05963
 O1481 O 0.60378 0.47301 1.13646
 O1482 O 0.63566 0.47233 1.16878
 C1483 C 0.61281 0.46384 1.15911
 C1484 C 0.59652 0.44289 1.17393
 C1485 C 0.60402 0.43419 1.20046
 H1486 H 0.62168 0.44321 1.21063
 O1487 O 0.40116 0.52878 1.13363
 O1488 O 0.36940 0.52963 1.16631
 C1489 C 0.39230 0.53786 1.15639
 C1490 C 0.40857 0.55835 1.17144
 C1491 C 0.40068 0.56591 1.19806
 H1492 H 0.38282 0.55648 1.20762
 O1493 O 0.47971 0.63388 1.09945
 O1494 O 0.47995 0.66520 1.13170
 C1495 C 0.47073 0.65601 1.10914
 C1496 C 0.44904 0.67098 1.09426
 C1497 C 0.44116 0.69682 1.10302
 H1498 H 0.45130 0.70592 1.12057
 O1499 O 0.52562 0.36780 1.10080
 O1500 O 0.52464 0.33714 1.13367
 C1501 C 0.53448 0.34592 1.11114
 C1502 C 0.55694 0.33087 1.09730
 C1503 C 0.56643 0.30650 1.10839
 H1504 H 0.55644 0.29810 1.12645
 O1505 O 0.63816 0.39886 1.02864
 O1506 O 0.66946 0.36653 1.02837
 C1507 C 0.66046 0.38875 1.03780
 C1508 C 0.67540 0.40265 1.06026
 C1509 C 0.69944 0.39143 1.07187
 H1510 H 0.70787 0.37279 1.06378
 O1511 O 0.36646 0.60203 1.02734
 O1512 O 0.33555 0.63474 1.02742
 C1513 C 0.34432 0.61244 1.03673
 C1514 C 0.32900 0.59894 1.05921
 C1515 C 0.30461 0.61033 1.06969
 H1516 H 0.29621 0.62832 1.06025
 Cu1517 Cu 0.49893 0.39044 1.11563
 Cu1518 Cu 0.49776 0.35343 1.15493
 Cu1519 Cu 0.50608 0.61172 1.11509
 Cu1520 Cu 0.50637 0.64934 1.15381
 Cu1521 Cu 0.38286 0.38919 1.00132
 Cu1522 Cu 0.34420 0.35128 1.00119
 Cu1523 Cu 0.61482 0.38460 1.00220
 Cu1524 Cu 0.65233 0.34572 1.00171
 Cu1525 Cu 0.38975 0.61607 1.00041
 Cu1526 Cu 0.35249 0.65524 1.00066
 Cu1527 Cu 0.62046 0.61113 0.99907
 Cu1528 Cu 0.66010 0.64811 0.99881
 Cu1529 Cu 0.38338 0.50321 1.11248
 Cu1530 Cu 0.34507 0.50449 1.15154
 Cu1531 Cu 0.62016 0.49870 1.11393
 Cu1532 Cu 0.65877 0.49798 1.15242
 C1533 C 0.57338 0.43105 1.16114
 H1534 H 0.56765 0.43726 1.14059
 C1535 C 0.58851 0.41410 1.21407
 C1536 C 0.43149 0.57104 1.15912
 H1537 H 0.43754 0.56542 1.13843
 C1538 C 0.41503 0.58614 1.21225
 C1539 C 0.33953 0.57551 1.07140
 H1540 H 0.35860 0.56691 1.06360
 C1541 C 0.29105 0.59897 1.09250
 C1542 C 0.66437 0.42642 1.07160
 H1543 H 0.64558 0.43492 1.06316
 C1544 C 0.71188 0.40355 1.09485
 C1545 C 0.57005 0.34145 1.07389
 H1546 H 0.56305 0.36053 1.06558
 C1547 C 0.58891 0.29286 1.09661
 C1548 C 0.43530 0.65911 1.07193
 H1549 H 0.44105 0.63899 1.06533
 C1550 C 0.41966 0.71069 1.08991
 C1551 C 0.42596 0.43343 1.16040
 H1552 H 0.43330 0.43999 1.14042
 C1553 C 0.40617 0.41561 1.21162
 C1554 C 0.57732 0.56893 1.16097
 H1555 H 0.56925 0.56160 1.14160
 C1556 C 0.59945 0.58877 1.21023
 C1557 C 0.42593 0.34490 1.07323
 H1558 H 0.43236 0.36478 1.06645
 C1559 C 0.40877 0.29378 1.09156
 C1560 C 0.57862 0.65625 1.07176
 H1561 H 0.57183 0.63637 1.06539
 C1562 C 0.59689 0.70735 1.08881
 C1563 C 0.33552 0.43292 1.07104
 H1564 H 0.35574 0.43931 1.06384
 C1565 C 0.28373 0.41584 1.09068
 C1566 C 0.66777 0.56800 1.07058
 H1567 H 0.64752 0.56116 1.06404
 C1568 C 0.71974 0.58676 1.08793
 C1569 C 1.10428 1.13889 1.32952
 C1570 C 1.13318 1.14237 1.32956
 C1571 C 1.14831 1.13614 1.30568
 C1572 C 1.13469 1.12708 1.28192
 C1573 C 1.10557 1.12391 1.28202
 C1574 C 1.09060 1.12970 1.30603
 C1575 C 1.09197 1.11484 1.25819
 C1576 C 1.10722 1.10854 1.23441
 C1577 C 1.13612 1.11209 1.23449
 C1578 C 1.14971 1.12133 1.25796
 H1579 H 1.17054 1.13910 1.30540
 H1580 H 1.06830 1.12733 1.30658
 H1581 H 1.06972 1.11194 1.25836
 H1582 H 1.17201 1.12376 1.25743
 H1583 H 1.09226 1.14358 1.34772
 H1584 H 1.14825 1.10754 1.21631
 C1585 C 1.13391 0.66611 0.79967
 C1586 C 1.14307 0.64768 0.81956
 C1587 C 1.14063 0.61986 0.81463
 C1588 C 1.12927 0.61048 0.78994
 C1589 C 1.12033 0.62920 0.76994
 C1590 C 1.12266 0.65696 0.77501
 C1591 C 1.10937 0.61989 0.74509
 C1592 C 1.10701 0.59207 0.73992
 C1593 C 1.11576 0.57361 0.76002
 C1594 C 1.12683 0.58274 0.78483
 H1595 H 1.14759 0.60567 0.83007
 H1596 H 1.11592 0.67156 0.75988
 H1597 H 1.10315 0.63433 0.72956
 H1598 H 1.13349 0.56813 0.79998
 H1599 H 1.13587 0.68762 0.80317
 H1600 H 1.11387 0.55208 0.75662
 C1601 C 0.61130 1.14067 0.82217
 C1602 C 0.64010 1.14466 0.82109
 C1603 C 0.65478 1.13685 0.79747
 C1604 C 0.64072 1.12597 0.77480
 C1605 C 0.61164 1.12249 0.77588
 C1606 C 0.59720 1.12958 0.79984
 C1607 C 0.59750 1.11221 0.75294
 C1608 C 0.61209 1.10517 0.72897
 C1609 C 0.64099 1.10874 0.72816
 C1610 C 0.65516 1.11903 0.75082
 H1611 H 0.67693 1.14029 0.79643
 H1612 H 0.57495 1.12701 0.80111
 H1613 H 0.57526 1.10933 0.75383
 H1614 H 0.67740 1.12168 0.74955
 H1615 H 0.59971 1.14670 0.84023
 H1616 H 0.65264 1.10374 0.70979
 C1617 C 0.60492 0.63663 1.32769
 C1618 C 0.63386 0.63853 1.32924
 C1619 C 0.65015 0.62975 1.30711
 C1620 C 0.63766 0.61959 1.28334
 C1621 C 0.60846 0.61781 1.28181
 C1622 C 0.59228 0.62619 1.30420
 C1623 C 0.59600 0.60789 1.25784
 C1624 C 0.61236 0.59977 1.23541
 C1625 C 0.64134 0.60185 1.23714
 C1626 C 0.65388 0.61159 1.26092
 H1627 H 0.67247 0.63166 1.30819
 H1628 H 0.56990 0.62500 1.30340
 H1629 H 0.57365 0.60618 1.25675
 H1630 H 0.67625 0.61302 1.26170
 H1631 H 0.59219 0.64352 1.34465
 H1632 H 0.65436 0.59614 1.21994
 C1633 C 0.89101 0.85809 1.32708
 C1634 C 0.86215 0.85462 1.32654
 C1635 C 0.84714 0.86374 1.30374
 C1636 C 0.86085 0.87584 1.28147
 C1637 C 0.88997 0.87894 1.28202
 C1638 C 0.90482 0.87021 1.30504
 C1639 C 0.90374 0.89049 1.25946
 C1640 C 0.88875 0.89909 1.23639
 C1641 C 0.85981 0.89600 1.23614
 C1642 C 0.84598 0.88448 1.25847
 H1643 H 0.82493 0.86072 1.30309
 H1644 H 0.92712 0.87246 1.30586
 H1645 H 0.92603 0.89299 1.25989
 H1646 H 0.82369 0.88217 1.25766
 H1647 H 0.90284 0.85111 1.34454
 H1648 H 0.84788 0.90217 1.21842
 C1649 C 0.83121 0.36067 0.80063
 C1650 C 0.85125 0.35253 0.81975
 C1651 C 0.87907 0.35950 0.81542
 C1652 C 0.88692 0.37418 0.79202
 C1653 C 0.86667 0.38198 0.77265
 C1654 C 0.83884 0.37527 0.77726
 C1655 C 0.87470 0.39567 0.74867
 C1656 C 0.90276 0.40128 0.74361
 C1657 C 0.92260 0.39416 0.76338
 C1658 C 0.91475 0.38080 0.78742
 H1659 H 0.89450 0.35343 0.83030
 H1660 H 0.82305 0.38105 0.76265
 H1661 H 0.85932 0.40083 0.73338
 H1662 H 0.93050 0.37513 0.80212
 H1663 H 0.80966 0.35538 0.80370
 H1664 H 0.94432 0.39850 0.75992
 C1665 C 0.39674 0.85990 0.82314
 C1666 C 0.36771 0.85856 0.82398
 C1667 C 0.35237 0.86725 0.80128
 C1668 C 0.36585 0.87705 0.77779
 C1669 C 0.39511 0.87845 0.77705
 C1670 C 0.41036 0.86991 0.79991
 C1671 C 0.40856 0.88842 0.75352
 C1672 C 0.39307 0.89709 0.73082
 C1673 C 0.36403 0.89514 0.73166
 C1674 C 0.35054 0.88526 0.75494
 H1675 H 0.32998 0.86578 0.80180
 H1676 H 0.43277 0.87080 0.79973
 H1677 H 0.43094 0.88998 0.75308
 H1678 H 0.32813 0.88410 0.75508
 H1679 H 0.40877 0.85309 0.84054
 H1680 H 0.35170 0.90127 0.71420
 C1681 C 0.36323 0.33129 1.29561
 C1682 C 0.35377 0.34965 1.31554
 C1683 C 0.35809 0.37743 1.31147
 C1684 C 0.37096 0.38686 1.28745
 C1685 C 0.37997 0.36826 1.26730
 C1686 C 0.37627 0.34051 1.27170
 C1687 C 0.39200 0.37774 1.24285
 C1688 C 0.39498 0.40561 1.23816
 C1689 C 0.38633 0.42389 1.25854
 C1690 C 0.37449 0.41460 1.28300
 H1691 H 0.35102 0.39167 1.32688
 H1692 H 0.38304 0.32596 1.25647
 H1693 H 0.39826 0.36346 1.22714
 H1694 H 0.36779 0.42913 1.29829
 H1695 H 0.35991 0.30983 1.29828
 H1696 H 0.38873 0.44544 1.25552
 C1697 C 0.86151 1.10763 0.67281
 C1698 C 0.85910 1.13583 0.67436
 C1699 C 0.86656 1.14921 0.69861
 C1700 C 0.87606 1.13455 0.72130
 C1701 C 0.87853 1.10611 0.71964
 C1702 C 0.87132 1.09286 0.69522
 C1703 C 0.88828 1.09151 0.74239
 C1704 C 0.89575 1.10507 0.76661
 C1705 C 0.89260 1.13326 0.76814
 C1706 C 0.88290 1.14786 0.74571
 H1707 H 0.86421 1.17093 0.69993
 H1708 H 0.87302 1.07112 0.69353
 H1709 H 0.89075 1.06980 0.74103
 H1710 H 0.88088 1.16959 0.74741
 H1711 H 0.85559 1.09710 0.65422
 H1712 H 0.89786 1.14406 0.78678
 C1713 C 0.87206 0.66743 0.20108
 C1714 C 0.86347 0.64828 0.18158
 C1715 C 0.86720 0.62071 0.18686
 C1716 C 0.87918 0.61226 0.21157
 C1717 C 0.88748 0.63167 0.23124
 C1718 C 0.88395 0.65920 0.22575
 C1719 C 0.89868 0.62322 0.25629
 C1720 C 0.90156 0.59561 0.26205
 C1721 C 0.89379 0.57648 0.24214
 C1722 C 0.88272 0.58474 0.21708
 H1723 H 0.86074 0.60597 0.17170
 H1724 H 0.89018 0.67433 0.24060
 H1725 H 0.90427 0.63810 0.27166
 H1726 H 0.87662 0.56962 0.20218
 H1727 H 0.86917 0.68877 0.19728
 H1728 H 0.89613 0.55509 0.24608
 C1729 C 0.36249 1.17257 0.20136
 C1730 C 0.35335 1.15443 0.18112
 C1731 C 0.35767 1.12662 0.18475
 C1732 C 0.37021 1.11691 0.20866
 C1733 C 0.37885 1.13526 0.22917
 C1734 C 0.37518 1.16306 0.22520
 C1735 C 0.39052 1.12548 0.25352
 C1736 C 0.39368 1.09756 0.25771
 C1737 C 0.38538 1.07952 0.23700
 C1738 C 0.37377 1.08911 0.21266
 H1739 H 0.35079 1.11258 0.16909
 H1740 H 0.38170 1.17740 0.24072
 H1741 H 0.39644 1.13958 0.26951
 H1742 H 0.36735 1.07479 0.19708
 H1743 H 0.35911 1.19404 0.19899
 H1744 H 0.38794 1.05796 0.23962
 C1745 C 0.37162 0.66733 0.70146
 C1746 C 0.36321 0.64792 0.68214
 C1747 C 0.36791 0.62048 0.68739
 C1748 C 0.38072 0.61242 0.71184
 C1749 C 0.38883 0.63207 0.73135
 C1750 C 0.38429 0.65947 0.72591
 C1751 C 0.40088 0.62396 0.75617
 C1752 C 0.40477 0.59644 0.76187
 C1753 C 0.39723 0.57712 0.74206
 C1754 C 0.38533 0.58503 0.71725
 H1755 H 0.36162 0.60555 0.67235
 H1756 H 0.39036 0.67480 0.74061
 H1757 H 0.40633 0.63899 0.77144
 H1758 H 0.37941 0.56973 0.70246
 H1759 H 0.36806 0.68857 0.69767
 H1760 H 0.40034 0.55581 0.74590
 C1761 C 1.12869 0.89477 0.66717
 C1762 C 1.13164 0.86658 0.66646
 C1763 C 1.12703 0.85153 0.69045
 C1764 C 1.11971 0.86445 0.71501
 C1765 C 1.11673 0.89286 0.71564
 C1766 C 1.12118 0.90783 0.69155
 C1767 C 1.10915 0.90572 0.74027
 C1768 C 1.10422 0.89043 0.76410
 C1769 C 1.10774 0.86228 0.76329
 C1770 C 1.11545 0.84940 0.73899
 H1771 H 1.12979 0.82982 0.69006
 H1772 H 1.11901 0.92960 0.69160
 H1773 H 1.10630 0.92742 0.74073
 H1774 H 1.11783 0.82765 0.73890
 H1775 H 1.13238 0.90660 0.64881
 H1776 H 1.10432 0.85018 0.78155
 C1777 C 1.10594 0.35682 0.17472
 C1778 C 1.13502 0.35525 0.17431
 C1779 C 1.14984 0.36396 0.19752
 C1780 C 1.13587 0.37398 0.22078
 C1781 C 1.10664 0.37563 0.22090
 C1782 C 1.09190 0.36699 0.19771
 C1783 C 1.09273 0.38604 0.24412
 C1784 C 1.10773 0.39493 0.26720
 C1785 C 1.13678 0.39257 0.26691
 C1786 C 1.15068 0.38230 0.24398
 H1787 H 1.17222 0.36251 0.19762
 H1788 H 1.06951 0.36807 0.19734
 H1789 H 1.07038 0.38779 0.24397
 H1790 H 1.17306 0.38095 0.24439
 H1791 H 1.09408 0.35029 0.15708
 H1792 H 1.14886 0.39868 0.28457
 C1793 C 0.66943 0.86160 0.20343
 C1794 C 0.65031 0.85234 0.18386
 C1795 C 0.62197 0.85714 0.18795
 C1796 C 0.61275 0.87083 0.21146
 C1797 C 0.63213 0.87987 0.23118
 C1798 C 0.66043 0.87526 0.22690
 C1799 C 0.62285 0.89290 0.25507
 C1800 C 0.59441 0.89678 0.25967
 C1801 C 0.57537 0.88818 0.23970
 C1802 C 0.58446 0.87537 0.21577
 H1803 H 0.60721 0.85019 0.17276
 H1804 H 0.67556 0.88201 0.24180
 H1805 H 0.63766 0.89917 0.27052
 H1806 H 0.56935 0.86870 0.20081
 H1807 H 0.69134 0.85793 0.20062
 H1808 H 0.55338 0.89122 0.24272
 C1809 C 0.60244 0.36147 0.66936
 C1810 C 0.63142 0.35908 0.66819
 C1811 C 0.64710 0.36624 0.69137
 C1812 C 0.63406 0.37563 0.71535
 C1813 C 0.60491 0.37804 0.71629
 C1814 C 0.58930 0.37093 0.69314
 C1815 C 0.59193 0.38766 0.74031
 C1816 C 0.60781 0.39511 0.76328
 C1817 C 0.63675 0.39219 0.76214
 C1818 C 0.64975 0.38257 0.73844
 H1819 H 0.66940 0.36406 0.69087
 H1820 H 0.56694 0.37263 0.69342
 H1821 H 0.56963 0.38994 0.74091
 H1822 H 0.67209 0.38066 0.73815
 H1823 H 0.58998 0.35605 0.65173
 H1824 H 0.64941 0.39737 0.77971
 C1825 C 1.29330 1.14292 1.16838
 C1826 C 1.31387 1.14959 1.14906
 C1827 C 1.31098 1.14133 1.12167
 C1828 C 1.28766 1.12651 1.11355
 C1829 C 1.26686 1.12010 1.13306
 C1830 C 1.26991 1.12836 1.16043
 C1831 C 1.24310 1.10607 1.12474
 C1832 C 1.23971 1.09862 1.09711
 C1833 C 1.26087 1.10440 1.07806
 C1834 C 1.28467 1.11819 1.08622
 H1835 H 1.32705 1.14627 1.10689
 H1836 H 1.25419 1.12364 1.17565
 H1837 H 1.22673 1.10198 1.13948
 H1838 H 1.30049 1.12275 1.07106
 H1839 H 1.29540 1.14918 1.18960
 H1840 H 1.25871 1.09863 1.05670
 C1841 C 1.30426 0.63687 0.66884
 C1842 C 1.32415 0.64390 0.64886
 C1843 C 1.31898 0.63757 0.62118
 C1844 C 1.29451 0.62402 0.61364
 C1845 C 1.27476 0.61693 0.63397
 C1846 C 1.27983 0.62357 0.66150
 C1847 C 1.25011 0.60368 0.62639
 C1848 C 1.24477 0.59774 0.59865
 C1849 C 1.26480 0.60448 0.57871
 C1850 C 1.28942 0.61740 0.58612
 H1851 H 1.33428 0.64270 0.60568
 H1852 H 1.26494 0.61844 0.67737
 H1853 H 1.23469 0.59887 0.64189
 H1854 H 1.30433 0.62251 0.57025
 H1855 H 1.30772 0.64167 0.69027
 H1856 H 1.26121 0.59998 0.55723
 C1857 C 0.79912 1.13625 0.66180
 C1858 C 0.81999 1.14247 0.64260
 C1859 C 0.81491 1.13862 0.61448
 C1860 C 0.78950 1.12782 0.60570
 C1861 C 0.76886 1.12115 0.62528
 C1862 C 0.77377 1.12577 0.65324
 C1863 C 0.74368 1.10987 0.61663
 C1864 C 0.73871 1.10523 0.58861
 C1865 C 0.75930 1.11201 0.56928
 C1866 C 0.78449 1.12315 0.57774
 H1867 H 0.83106 1.14320 0.59967
 H1868 H 0.75815 1.12091 0.66852
 H1869 H 0.72778 1.10511 0.63166
 H1870 H 0.80005 1.12805 0.56243
 H1871 H 0.80270 1.13922 0.68355
 H1872 H 0.75596 1.10850 0.54757
 C1873 C 0.80439 0.63886 1.16741
 C1874 C 0.82494 0.64496 1.14780
 C1875 C 0.82059 0.63782 1.12021
 C1876 C 0.79624 0.62426 1.11241
 C1877 C 0.77582 0.61805 1.13238
 C1878 C 0.78006 0.62560 1.15979
 C1879 C 0.75135 0.60472 1.12454
 C1880 C 0.74685 0.59781 1.09691
 C1881 C 0.76750 0.60369 1.07732
 C1882 C 0.79198 0.61671 1.08499
 H1883 H 0.83646 0.64226 1.10506
 H1884 H 0.76463 0.62114 1.17537
 H1885 H 0.73542 0.60059 1.13973
 H1886 H 0.80741 0.62115 1.06942
 H1887 H 0.80731 0.64430 1.18876
 H1888 H 0.76451 0.59845 1.05592
 C1889 C 1.33097 0.88906 0.86204
 C1890 C 1.33074 0.86071 0.85996
 C1891 C 1.30700 0.84650 0.86852
 C1892 C 1.28359 0.86045 0.87827
 C1893 C 1.28394 0.88899 0.87980
 C1894 C 1.30787 0.90304 0.87188
 C1895 C 1.26038 0.90295 0.88924
 C1896 C 1.23656 0.88871 0.89751
 C1897 C 1.23647 0.86035 0.89576
 C1898 C 1.25969 0.84637 0.88621
 H1899 H 1.30647 0.82470 0.86676
 H1900 H 1.30863 0.92488 0.87301
 H1901 H 1.26076 0.92479 0.89070
 H1902 H 1.25895 0.82453 0.88508
 H1903 H 1.34906 0.90043 0.85571
 H1904 H 1.21828 0.84893 0.90173
 C1905 C 1.29453 0.36309 0.32931
 C1906 C 1.31436 0.35450 0.34844
 C1907 C 1.31009 0.35958 0.37651
 C1908 C 1.28605 0.37271 0.38549
 C1909 C 1.26604 0.38102 0.36612
 C1910 C 1.27057 0.37628 0.33806
 C1911 C 1.24157 0.39337 0.37518
 C1912 C 1.23669 0.39725 0.40339
 C1913 C 1.25696 0.38940 0.42242
 C1914 C 1.28148 0.37731 0.41355
 H1915 H 1.32547 0.35313 0.39128
 H1916 H 1.25544 0.38246 0.32294
 H1917 H 1.22590 0.39906 0.36039
 H1918 H 1.29665 0.37118 0.42865
 H1919 H 1.29747 0.35918 0.30760
 H1920 H 1.25370 0.39246 0.44424
 C1921 C 0.80186 0.83116 0.36808
 C1922 C 0.82238 0.84963 0.35970
 C1923 C 0.81693 0.87748 0.36180
 C1924 C 0.79126 0.88672 0.37162
 C1925 C 0.77078 0.86792 0.37976
 C1926 C 0.77635 0.84021 0.37804
 C1927 C 0.74503 0.87712 0.38935
 C1928 C 0.73935 0.90495 0.39095
 C1929 C 0.75991 0.92345 0.38278
 C1930 C 0.78562 0.91443 0.37325
 H1931 H 0.83265 0.89192 0.35567
 H1932 H 0.76087 0.82550 0.38416
 H1933 H 0.72925 0.86260 0.39517
 H1934 H 0.80109 0.92915 0.36713
 H1935 H 0.80537 0.80965 0.36648
 H1936 H 0.75622 0.94497 0.38411
 C1937 C 0.79966 0.32652 0.86819
 C1938 C 0.81942 0.34556 0.85949
 C1939 C 0.81503 0.37305 0.86504
 C1940 C 0.79073 0.38158 0.87816
 C1941 C 0.77059 0.36236 0.88619
 C1942 C 0.77544 0.33484 0.88148
 C1943 C 0.74563 0.37107 0.89805
 C1944 C 0.74045 0.39877 0.90170
 C1945 C 0.76097 0.41761 0.89432
 C1946 C 0.78591 0.40909 0.88272
 H1947 H 0.83035 0.38778 0.85857
 H1948 H 0.76026 0.31982 0.88752
 H1949 H 0.72985 0.35639 0.90343
 H1950 H 0.80122 0.42406 0.87683
 H1951 H 0.80265 0.30526 0.86396
 H1952 H 0.75759 0.43901 0.89733
 C1953 C 0.70418 0.82943 1.13615
 C1954 C 0.68368 0.84760 1.14494
 C1955 C 0.68706 0.87530 1.13977
 C1956 C 0.71093 0.88487 1.12652
 C1957 C 0.73162 0.86648 1.11807
 C1958 C 0.72794 0.83878 1.12276
 C1959 C 0.75590 0.87613 1.10562
 C1960 C 0.75993 0.90398 1.10178
 C1961 C 0.73904 0.92205 1.10984
 C1962 C 0.71469 0.91258 1.12202
 H1963 H 0.67119 0.88934 1.14635
 H1964 H 0.74360 0.82441 1.11646
 H1965 H 0.77206 0.86207 1.09981
 H1966 H 0.69900 0.92694 1.12829
 H1967 H 0.70198 0.80803 1.14013
 H1968 H 0.74165 0.94357 1.10682
 C1969 C 0.69246 0.33782 0.62933
 C1970 C 0.67203 0.35704 0.63567
 C1971 C 0.67822 0.38463 0.63307
 C1972 C 0.70442 0.39291 0.62366
 C1973 C 0.72465 0.37334 0.61702
 C1974 C 0.71853 0.34588 0.62012
 C1975 C 0.75069 0.38149 0.60734
 C1976 C 0.75693 0.40901 0.60417
 C1977 C 0.73676 0.42836 0.61092
 C1978 C 0.71071 0.42038 0.62055
 H1979 H 0.66247 0.39947 0.63785
 H1980 H 0.73383 0.33063 0.61526
 H1981 H 0.76625 0.36643 0.60262
 H1982 H 0.69547 0.43568 0.62549
 H1983 H 0.68815 0.31647 0.63149
 H1984 H 0.74109 0.44969 0.60847
 C1985 C 0.16809 0.86401 0.59982
 C1986 C 0.16613 0.86303 0.62860
 C1987 C 0.18871 0.87153 0.64453
 C1988 C 0.21283 0.88130 0.63197
 C1989 C 0.21458 0.88258 0.60298
 C1990 C 0.19212 0.87378 0.58708
 C1991 C 0.23871 0.89273 0.59049
 C1992 C 0.26105 0.90162 0.60665
 C1993 C 0.25909 0.89986 0.63544
 C1994 C 0.23520 0.88985 0.64798
 H1995 H 0.18748 0.87041 0.66675
 H1996 H 0.19309 0.87454 0.56484
 H1997 H 0.23992 0.89412 0.56828
 H1998 H 0.23423 0.88881 0.67021
 H1999 H 0.15086 0.85749 0.58728
 H2000 H 0.27620 0.90601 0.64834
 C2001 C 0.19764 0.33507 1.13728
 C2002 C 0.17629 0.35367 1.14235
 C2003 C 0.18080 0.38116 1.13691
 C2004 C 0.20612 0.38984 1.12559
 C2005 C 0.22724 0.37082 1.12004
 C2006 C 0.22291 0.34355 1.12631
 C2007 C 0.25231 0.37934 1.10819
 C2008 C 0.25672 0.40669 1.10195
 C2009 C 0.23566 0.42546 1.10764
 C2010 C 0.21057 0.41712 1.11929
 H2011 H 0.16427 0.39548 1.14057
 H2012 H 0.23889 0.32872 1.12233
 H2013 H 0.26858 0.36478 1.10427
 H2014 H 0.19464 0.43199 1.12332
 H2015 H 0.19448 0.31381 1.14145
 H2016 H 0.23859 0.44665 1.10291
 C2017 C 0.69988 1.16849 0.86313
 C2018 C 0.67960 1.14990 0.85454
 C2019 C 0.68483 1.12211 0.85765
 C2020 C 0.70985 1.11308 0.86914
 C2021 C 0.73003 1.13201 0.87761
 C2022 C 0.72481 1.15966 0.87450
 C2023 C 0.75516 1.12298 0.88887
 C2024 C 0.76050 1.09518 0.89179
 C2025 C 0.74008 1.07659 0.88350
 C2026 C 0.71506 1.08543 0.87231
 H2027 H 0.66931 1.10757 0.85134
 H2028 H 0.74005 1.17449 0.88080
 H2029 H 0.77077 1.13758 0.89483
 H2030 H 0.69980 1.07060 0.86607
 H2031 H 0.69655 1.18997 0.86077
 H2032 H 0.74340 1.05511 0.88585
 C2033 C 0.66978 0.60998 0.36925
 C2034 C 0.66977 0.63820 0.36589
 C2035 C 0.69335 0.65300 0.37364
 C2036 C 0.71691 0.63971 0.38373
 C2037 C 0.71687 0.61126 0.38640
 C2038 C 0.69305 0.59665 0.37942
 C2039 C 0.74067 0.59790 0.39588
 C2040 C 0.76446 0.61266 0.40301
 C2041 C 0.76421 0.64094 0.40034
 C2042 C 0.74072 0.65433 0.39076
 H2043 H 0.69369 0.67471 0.37087
 H2044 H 0.69253 0.57487 0.38145
 H2045 H 0.74056 0.57612 0.39810
 H2046 H 0.74121 0.67611 0.38877
 H2047 H 0.65180 0.59820 0.36353
 H2048 H 0.78238 0.65273 0.40548
 C2049 C 0.19450 1.16559 0.36658
 C2050 C 0.17407 1.14597 0.36149
 C2051 C 0.18000 1.11869 0.36644
 C2052 C 0.20583 1.11116 0.37715
 C2053 C 0.22609 1.13114 0.38258
 C2054 C 0.22029 1.15826 0.37695
 C2055 C 0.25182 1.12369 0.39353
 C2056 C 0.25771 1.09647 0.39897
 C2057 C 0.23739 1.07678 0.39363
 C2058 C 0.21169 1.08405 0.38286
 H2059 H 0.16419 1.10357 0.36273
 H2060 H 0.23557 1.17382 0.38085
 H2061 H 0.26746 1.13897 0.39724
 H2062 H 0.19642 1.06847 0.37896
 H2063 H 0.19028 1.18671 0.36275
 H2064 H 0.24141 1.05569 0.39784
 C2065 C 0.20224 0.64079 0.83346
 C2066 C 0.18176 0.64668 0.85319
 C2067 C 0.18687 0.64080 0.88096
 C2068 C 0.21188 0.62863 0.88882
 C2069 C 0.23213 0.62244 0.86870
 C2070 C 0.22716 0.62879 0.84112
 C2071 C 0.25710 0.61021 0.87651
 C2072 C 0.26230 0.60440 0.90427
 C2073 C 0.24200 0.61051 0.92409
 C2074 C 0.21698 0.62241 0.91644
 H2075 H 0.17111 0.64512 0.89624
 H2076 H 0.24248 0.62436 0.82544
 H2077 H 0.27279 0.60590 0.86115
 H2078 H 0.20172 0.62692 0.93215
 H2079 H 0.19882 0.64537 0.81199
 H2080 H 0.24556 0.60611 0.94559
 C2081 C 1.13553 1.32244 1.10723
 C2082 C 1.13791 1.32149 1.13598
 C2083 C 1.13178 1.29747 1.14993
 C2084 C 1.12379 1.27438 1.13528
 C2085 C 1.12141 1.27541 1.10629
 C2086 C 1.12716 1.29964 1.09249
 C2087 C 1.11312 1.25228 1.09170
 C2088 C 1.10692 1.22831 1.10584
 C2089 C 1.11003 1.22739 1.13456
 C2090 C 1.11838 1.25019 1.14915
 H2091 H 1.13416 1.29665 1.17207
 H2092 H 1.12549 1.30086 1.07032
 H2093 H 1.11059 1.25313 1.06958
 H2094 H 1.12033 1.24897 1.17130
 H2095 H 1.14052 1.34084 1.09626
 H2096 H 1.10553 1.20900 1.14579
 C2097 C 1.09968 0.82562 0.63272
 C2098 C 1.12863 0.82830 0.63327
 C2099 C 1.14518 0.80596 0.62661
 C2100 C 1.13302 0.78123 0.61945
 C2101 C 1.10386 0.77871 0.61876
 C2102 C 1.08737 0.80107 0.62542
 C2103 C 1.09175 0.75397 0.61120
 C2104 C 1.10849 0.73182 0.60414
 C2105 C 1.13745 0.73450 0.60547
 C2106 C 1.14960 0.75895 0.61303
 H2107 H 1.16752 0.80776 0.62747
 H2108 H 1.06500 0.79956 0.62504
 H2109 H 1.06942 0.75214 0.61011
 H2110 H 1.17196 0.76047 0.61368
 H2111 H 1.08665 0.84264 0.63792
 H2112 H 1.15076 0.71760 0.60055
 C2113 C 0.62937 1.32610 0.60129
 C2114 C 0.63283 1.32555 0.62992
 C2115 C 0.62740 1.30175 0.64447
 C2116 C 0.61904 1.27842 0.63054
 C2117 C 0.61549 1.27900 0.60166
 C2118 C 0.62052 1.30304 0.58725
 C2119 C 0.60691 1.25557 0.58780
 C2120 C 0.60171 1.23173 0.60255
 C2121 C 0.60600 1.23128 0.63112
 C2122 C 0.61452 1.25441 0.64500
 H2123 H 0.63068 1.30127 0.66650
 H2124 H 0.61799 1.30391 0.56515
 H2125 H 0.60353 1.25605 0.56579
 H2126 H 0.61742 1.25356 0.66707
 H2127 H 0.63390 1.34436 0.58988
 H2128 H 0.60245 1.21298 0.64280
 C2129 C 0.63781 0.79418 1.17086
 C2130 C 0.64597 0.81351 1.15130
 C2131 C 0.64134 0.80842 1.12329
 C2132 C 0.62933 0.78404 1.11481
 C2133 C 0.62163 0.76450 1.13461
 C2134 C 0.62572 0.76987 1.16260
 C2135 C 0.61046 0.73974 1.12606
 C2136 C 0.60703 0.73416 1.09793
 C2137 C 0.61428 0.75396 1.07848
 C2138 C 0.62530 0.77869 1.08684
 H2139 H 0.64739 0.82339 1.10816
 H2140 H 0.61994 0.75514 1.17806
 H2141 H 0.60523 0.72452 1.14123
 H2142 H 0.63096 0.79350 1.07141
 H2143 H 0.64135 0.79772 1.19253
 H2144 H 0.61146 0.75026 1.05673
 C2145 C 0.86652 1.29470 0.83064
 C2146 C 0.85833 1.31318 0.85102
 C2147 C 0.86458 1.30779 0.87862
 C2148 C 0.87825 1.28392 0.88592
 C2149 C 0.88589 1.26514 0.86535
 C2150 C 0.88017 1.27087 0.83773
 C2151 C 0.89838 1.24064 0.87284
 C2152 C 0.90298 1.23457 0.90067
 C2153 C 0.89612 1.25381 0.92082
 C2154 C 0.88393 1.27827 0.91353
 H2155 H 0.85855 1.32213 0.89436
 H2156 H 0.88587 1.25675 0.82167
 H2157 H 0.90338 1.22585 0.85717
 H2158 H 0.87841 1.29252 0.92953
 H2159 H 0.86182 1.29852 0.80925
 H2160 H 0.89981 1.24969 0.94236
 C2161 C 0.86645 0.79498 0.33720
 C2162 C 0.85994 0.81473 0.35690
 C2163 C 0.86577 0.80993 0.38468
 C2164 C 0.87822 0.78562 0.39274
 C2165 C 0.88460 0.76577 0.37277
 C2166 C 0.87858 0.77065 0.34507
 C2167 C 0.89661 0.74128 0.38088
 C2168 C 0.90224 0.73626 0.40872
 C2169 C 0.89633 0.75637 0.42830
 C2170 C 0.88442 0.78081 0.42040
 H2171 H 0.86096 0.82531 0.39980
 H2172 H 0.88329 0.75569 0.32949
 H2173 H 0.90077 0.72582 0.36565
 H2174 H 0.87987 0.79584 0.43594
 H2175 H 0.86204 0.79850 0.31570
 H2176 H 0.90077 0.75307 0.44984
 C2177 C 0.32721 1.29681 0.36173
 C2178 C 0.34708 1.31594 0.35344
 C2179 C 0.37516 1.31113 0.35890
 C2180 C 0.38337 1.28730 0.37210
 C2181 C 0.36324 1.26803 0.38008
 C2182 C 0.33520 1.27307 0.37496
 C2183 C 0.37155 1.24379 0.39248
 C2184 C 0.39977 1.23841 0.39664
 C2185 C 0.41953 1.25797 0.38916
 C2186 C 0.41142 1.28224 0.37708
 H2187 H 0.39052 1.32594 0.35277
 H2188 H 0.31949 1.25853 0.38089
 H2189 H 0.35619 1.22870 0.39791
 H2190 H 0.42710 1.29684 0.37123
 H2191 H 0.30548 1.30013 0.35759
 H2192 H 0.44137 1.25433 0.39243
 C2193 C 0.36543 0.79973 0.83585
 C2194 C 0.36221 0.82013 0.85569
 C2195 C 0.37017 0.81513 0.88290
 C2196 C 0.38216 0.79026 0.89003
 C2197 C 0.38582 0.77005 0.86975
 C2198 C 0.37703 0.77489 0.84281
 C2199 C 0.39812 0.74532 0.87676
 C2200 C 0.40646 0.74035 0.90389
 C2201 C 0.40284 0.76058 0.92386
 C2202 C 0.39092 0.78535 0.91699
 H2203 H 0.36801 0.83097 0.89813
 H2204 H 0.37952 0.75964 0.82702
 H2205 H 0.40047 0.72966 0.86135
 H2206 H 0.38839 0.80057 0.93280
 H2207 H 0.35942 0.80335 0.81475
 H2208 H 0.40910 0.75709 0.94492
 C2209 C 1.11272 0.67775 0.86339
 C2210 C 1.14158 0.67859 0.85965
 C2211 C 1.15634 0.70155 0.86812
 C2212 C 1.14229 0.72386 0.87921
 C2213 C 1.11315 0.72307 0.88225
 C2214 C 1.09863 0.69974 0.87465
 C2215 C 1.09901 0.74569 0.89258
 C2216 C 1.11368 0.76903 0.90015
 C2217 C 1.14265 0.76953 0.89714
 C2218 C 1.15682 0.74719 0.88675
 H2219 H 1.17855 0.70242 0.86497
 H2220 H 1.07633 0.69868 0.87692
 H2221 H 1.07671 0.74507 0.89505
 H2222 H 1.17912 0.74822 0.88448
 H2223 H 1.10105 0.66018 0.85697
 H2224 H 1.15435 0.78740 0.90263
 C2225 C 1.13249 0.17742 0.39569
 C2226 C 1.13424 0.17680 0.36690
 C2227 C 1.12534 0.19910 0.35161
 C2228 C 1.11513 0.22206 0.36494
 C2229 C 1.11343 0.22263 0.39398
 C2230 C 1.12200 0.20011 0.40917
 C2231 C 1.10339 0.24577 0.40729
 C2232 C 1.09512 0.26834 0.39191
 C2233 C 1.09719 0.26756 0.36307
 C2234 C 1.10700 0.24461 0.34971
 H2235 H 1.12713 0.19874 0.32940
 H2236 H 1.12088 0.20018 0.43142
 H2237 H 1.10172 0.24612 0.42951
 H2238 H 1.10839 0.24456 0.32747
 H2239 H 1.13945 0.16032 0.40766
 H2240 H 1.09145 0.28490 0.35080
 C2241 C 0.63358 0.69736 0.33867
 C2242 C 0.63804 0.67826 0.35957
 C2243 C 0.63169 0.68504 0.38687
 C2244 C 0.62018 0.71036 0.39311
 C2245 C 0.61524 0.72919 0.37179
 C2246 C 0.62232 0.72258 0.34470
 C2247 C 0.60346 0.75438 0.37792
 C2248 C 0.59697 0.76121 0.40516
 C2249 C 0.60189 0.74240 0.42621
 C2250 C 0.61326 0.71714 0.42024
 H2251 H 0.63491 0.67028 0.40298
 H2252 H 0.61887 0.73678 0.32813
 H2253 H 0.60010 0.76897 0.36166
 H2254 H 0.61683 0.70301 0.43684
 H2255 H 0.63848 0.69249 0.31750
 H2256 H 0.59705 0.74736 0.44737
 C2257 C 0.63539 0.20428 0.83159
 C2258 C 0.64193 0.18461 0.85130
 C2259 C 0.63567 0.18935 0.87905
 C2260 C 0.62282 0.21351 0.88706
 C2261 C 0.61644 0.23330 0.86709
 C2262 C 0.62286 0.22848 0.83941
 C2263 C 0.60410 0.25769 0.87518
 C2264 C 0.59824 0.26268 0.90302
 C2265 C 0.60410 0.24260 0.92259
 C2266 C 0.61626 0.21825 0.91470
 H2267 H 0.64046 0.17401 0.89419
 H2268 H 0.61815 0.24338 0.82382
 H2269 H 0.59995 0.27314 0.85997
 H2270 H 0.62080 0.20326 0.93025
 H2271 H 0.64008 0.20081 0.81010
 H2272 H 0.59949 0.24589 0.94414
 C2273 C 0.89216 0.67844 1.13625
 C2274 C 0.86352 0.67883 1.14143
 C2275 C 0.84838 0.70223 1.13558
 C2276 C 0.86194 0.72549 1.12589
 C2277 C 0.89093 0.72515 1.12148
 C2278 C 0.90574 0.70133 1.12623
 C2279 C 0.90462 0.74868 1.11264
 C2280 C 0.88964 0.77245 1.10786
 C2281 C 0.86085 0.77254 1.11226
 C2282 C 0.84713 0.74932 1.12125
 H2283 H 0.82638 0.70270 1.14000
 H2284 H 0.92791 0.70062 1.12287
 H2285 H 0.92678 0.74841 1.10899
 H2286 H 0.82496 0.75001 1.12461
 H2287 H 0.90409 0.66053 1.14086
 H2288 H 0.84895 0.79071 1.10873
 C2289 C 0.88970 0.17555 0.63935
 C2290 C 0.86066 0.17456 0.64134
 C2291 C 0.84529 0.19748 0.63389
 C2292 C 0.85873 0.22109 0.62486
 C2293 C 0.88795 0.22187 0.62303
 C2294 C 0.90322 0.19891 0.63024
 C2295 C 0.90136 0.24551 0.61388
 C2296 C 0.88587 0.26834 0.60630
 C2297 C 0.85684 0.26735 0.60860
 C2298 C 0.84342 0.24401 0.61777
 H2299 H 0.82293 0.19710 0.63565
 H2300 H 0.92561 0.19905 0.62893
 H2301 H 0.92372 0.24595 0.61204
 H2302 H 0.82103 0.24388 0.61922
 H2303 H 0.90197 0.15812 0.64488
 H2304 H 0.84443 0.28476 0.60331
 C2305 C 0.39121 0.67723 0.63589
 C2306 C 0.36266 0.67784 0.64151
 C2307 C 0.34753 0.70118 0.63528
 C2308 C 0.36102 0.72412 0.62465
 C2309 C 0.38992 0.72353 0.61970
 C2310 C 0.40471 0.69979 0.62495
 C2311 C 0.40355 0.74673 0.60981
 C2312 C 0.38859 0.77044 0.60454
 C2313 C 0.35988 0.77076 0.60956
 C2314 C 0.34625 0.74787 0.61954
 H2315 H 0.32560 0.70185 0.64002
 H2316 H 0.42681 0.69888 0.62121
 H2317 H 0.42562 0.74623 0.60576
 H2318 H 0.32415 0.74877 0.62332
 H2319 H 0.40316 0.65941 0.64076
 H2320 H 0.34797 0.78887 0.60579
 C2321 C 0.32679 0.20704 1.13457
 C2322 C 0.34666 0.18824 1.14331
 C2323 C 0.37482 0.19353 1.13844
 C2324 C 0.38313 0.21758 1.12561
 C2325 C 0.36303 0.23663 1.11741
 C2326 C 0.33489 0.23104 1.12177
 C2327 C 0.37143 0.26115 1.10552
 C2328 C 0.39971 0.26697 1.10189
 C2329 C 0.41945 0.24755 1.10950
 C2330 C 0.41125 0.22309 1.12123
 H2331 H 0.39020 0.17895 1.14485
 H2332 H 0.31919 0.24538 1.11560
 H2333 H 0.35603 0.27605 1.10000
 H2334 H 0.42692 0.20864 1.12721
 H2335 H 0.30499 0.20335 1.13821
 H2336 H 0.44133 0.25140 1.10651
 C2337 C 1.16558 1.13528 0.69580
 C2338 C 1.14482 1.14009 0.67620
 C2339 C 1.11756 1.13192 0.68195
 C2340 C 1.11122 1.11868 0.70677
 C2341 C 1.13232 1.11385 0.72627
 C2342 C 1.15941 1.12236 0.72059
 C2343 C 1.12590 1.10099 0.75128
 C2344 C 1.09854 1.09329 0.75724
 C2345 C 1.07785 1.09771 0.73747
 C2346 C 1.08412 1.11019 0.71246
 H2347 H 1.10153 1.13533 0.66682
 H2348 H 1.17584 1.11896 0.73528
 H2349 H 1.14190 1.09798 0.76654
 H2350 H 1.06770 1.11356 0.69775
 H2351 H 1.18671 1.14151 0.69180
 H2352 H 1.05663 1.09187 0.74165
 C2353 C 1.10383 0.64141 0.17620
 C2354 C 1.13287 0.64222 0.17462
 C2355 C 1.14847 0.63364 0.19729
 C2356 C 1.13533 0.62400 0.22110
 C2357 C 1.10611 0.62289 0.22241
 C2358 C 1.09054 0.63178 0.19987
 C2359 C 1.09303 0.61265 0.24611
 C2360 C 1.10884 0.60340 0.26843
 C2361 C 1.13788 0.60514 0.26697
 C2362 C 1.15099 0.61530 0.24355
 H2363 H 1.17087 0.63454 0.19634
 H2364 H 1.06813 0.63113 0.20047
 H2365 H 1.07064 0.61131 0.24692
 H2366 H 1.17340 0.61621 0.24297
 H2367 H 1.09148 0.64792 0.15891
 H2368 H 1.15054 0.59870 0.28407
 C2369 C 0.66210 1.13376 0.18989
 C2370 C 0.64190 1.14043 0.17028
 C2371 C 0.61397 1.13477 0.17602
 C2372 C 0.60634 1.12232 0.20089
 C2373 C 0.62688 1.11561 0.22038
 C2374 C 0.65468 1.12148 0.21468
 C2375 C 0.61924 1.10350 0.24541
 C2376 C 0.59126 1.09830 0.25139
 C2377 C 0.57107 1.10469 0.23168
 C2378 C 0.57853 1.11651 0.20665
 H2379 H 0.59832 1.13970 0.16093
 H2380 H 0.67070 1.11661 0.22940
 H2381 H 0.63492 1.09897 0.26060
 H2382 H 0.56251 1.12138 0.19194
 H2383 H 0.68372 1.13816 0.18600
 H2384 H 0.54939 1.10069 0.23578
 C2385 C 0.60947 0.64483 0.67732
 C2386 C 0.63839 0.64794 0.67714
 C2387 C 0.65387 0.63800 0.69931
 C2388 C 0.64056 0.62565 0.72170
 C2389 C 0.61139 0.62310 0.72192
 C2390 C 0.59607 0.63250 0.69949
 C2391 C 0.59802 0.61148 0.74469
 C2392 C 0.61344 0.60226 0.76722
 C2393 C 0.64245 0.60465 0.76665
 C2394 C 0.65589 0.61625 0.74410
 H2395 H 0.67614 0.64062 0.69942
 H2396 H 0.57372 0.63063 0.69924
 H2397 H 0.57566 0.60950 0.74487
 H2398 H 0.67824 0.61809 0.74431
 H2399 H 0.59725 0.65230 0.66034
 H2400 H 0.65474 0.59796 0.78392
 C2401 C 0.83196 0.86417 0.69756
 C2402 C 0.85184 0.85561 0.67824
 C2403 C 0.88008 0.85878 0.68448
 C2404 C 0.88832 0.87032 0.70959
 C2405 C 0.86810 0.87882 0.72880
 C2406 C 0.83999 0.87563 0.72256
 C2407 C 0.87633 0.89016 0.75400
 C2408 C 0.90457 0.89304 0.76040
 C2409 C 0.92446 0.88470 0.74099
 C2410 C 0.91644 0.87349 0.71586
 H2411 H 0.89559 0.85248 0.66968
 H2412 H 0.82418 0.88194 0.73704
 H2413 H 0.86076 0.89619 0.76887
 H2414 H 0.93224 0.86722 0.70136
 H2415 H 0.81010 0.86176 0.69338
 H2416 H 0.94633 0.88699 0.74521
 C2417 C 0.86746 0.38967 0.17146
 C2418 C 0.86364 0.36162 0.17361
 C2419 C 0.86641 0.34915 0.19933
 C2420 C 0.87268 0.36457 0.22276
 C2421 C 0.87670 0.39282 0.22042
 C2422 C 0.87412 0.40513 0.19460
 C2423 C 0.88370 0.40811 0.24382
 C2424 C 0.88705 0.39538 0.26938
 C2425 C 0.88220 0.36745 0.27154
 C2426 C 0.87502 0.35221 0.24851
 H2427 H 0.86294 0.32759 0.20111
 H2428 H 0.87708 0.42670 0.19233
 H2429 H 0.88773 0.42958 0.24197
 H2430 H 0.87184 0.33066 0.25075
 H2431 H 0.86509 0.39958 0.15178
 H2432 H 0.88476 0.35729 0.29109
 C2433 C 0.36595 0.83078 0.19737
 C2434 C 0.35962 0.85008 0.17715
 C2435 C 0.36441 0.87753 0.18272
 C2436 C 0.37535 0.88562 0.20813
 C2437 C 0.38160 0.86601 0.22830
 C2438 C 0.37684 0.83865 0.22268
 C2439 C 0.39222 0.87410 0.25383
 C2440 C 0.39655 0.90158 0.25961
 C2441 C 0.39052 0.92088 0.23930
 C2442 C 0.38005 0.91298 0.21379
 H2443 H 0.35976 0.89251 0.16718
 H2444 H 0.38142 0.82335 0.23791
 H2445 H 0.39647 0.85906 0.26944
 H2446 H 0.37550 0.92828 0.19856
 H2447 H 0.36220 0.80954 0.19364
 H2448 H 0.39398 0.94215 0.24315
 C2449 C 0.39825 0.36017 0.67438
 C2450 C 0.36925 0.36000 0.67230
 C2451 C 0.35332 0.36911 0.69467
 C2452 C 0.36611 0.37869 0.71861
 C2453 C 0.39530 0.37919 0.72039
 C2454 C 0.41118 0.36974 0.69818
 C2455 C 0.40805 0.38930 0.74423
 C2456 C 0.39194 0.39897 0.76631
 C2457 C 0.36291 0.39788 0.76435
 C2458 C 0.35013 0.38790 0.74076
 H2459 H 0.33093 0.36868 0.69340
 H2460 H 0.43359 0.36990 0.69915
 H2461 H 0.43044 0.39014 0.74537
 H2462 H 0.32773 0.38746 0.73981
 H2463 H 0.41087 0.35327 0.65735
 H2464 H 0.34999 0.40460 0.78124
 C2465 C 1.10210 0.86020 1.33130
 C2466 C 1.13115 0.85904 1.33263
 C2467 C 1.14680 0.86850 1.31016
 C2468 C 1.13366 0.87879 1.28669
 C2469 C 1.10444 0.87983 1.28558
 C2470 C 1.08886 0.87054 1.30806
 C2471 C 1.09133 0.89015 1.26204
 C2472 C 1.10710 0.89956 1.23960
 C2473 C 1.13615 0.89813 1.24095
 C2474 C 1.14929 0.88790 1.26423
 H2475 H 1.16918 0.86738 1.31074
 H2476 H 1.06645 0.87119 1.30763
 H2477 H 1.06894 0.89127 1.26135
 H2478 H 1.17170 0.88710 1.26464
 H2479 H 1.08962 0.85311 1.34837
 H2480 H 1.14881 0.90475 1.22380
 C2481 C 1.17256 0.35893 0.79390
 C2482 C 1.15284 0.35111 0.81366
 C2483 C 1.12485 0.35731 0.80946
 C2484 C 1.11654 0.37093 0.78563
 C2485 C 1.13646 0.37836 0.76561
 C2486 C 1.16444 0.37240 0.77003
 C2487 C 1.12798 0.39114 0.74131
 C2488 C 1.09980 0.39641 0.73665
 C2489 C 1.08031 0.38958 0.75706
 C2490 C 1.08859 0.37697 0.78131
 H2491 H 1.10966 0.35150 0.82482
 H2492 H 1.18001 0.37794 0.75495
 H2493 H 1.14315 0.39607 0.72561
 H2494 H 1.07308 0.37161 0.79652
 H2495 H 1.19422 0.35423 0.79685
 H2496 H 1.05853 0.39378 0.75410
 C2497 C 0.60852 0.85739 0.81548
 C2498 C 0.63756 0.85645 0.81611
 C2499 C 0.65279 0.86637 0.79366
 C2500 C 0.63918 0.87701 0.77070
 C2501 C 0.60992 0.87797 0.77021
 C2502 C 0.59479 0.86816 0.79277
 C2503 C 0.59633 0.88868 0.74720
 C2504 C 0.61163 0.89844 0.72463
 C2505 C 0.64071 0.89708 0.72531
 C2506 C 0.65435 0.88655 0.74813
 H2507 H 0.67519 0.86534 0.79399
 H2508 H 0.57237 0.86870 0.79279
 H2509 H 0.57393 0.88978 0.74701
 H2510 H 0.67676 0.88578 0.74808
 H2511 H 0.59655 0.84978 0.83268
 H2512 H 0.65298 0.90397 0.70800
 C2513 C 0.66436 0.36794 1.30509
 C2514 C 0.64348 0.36225 1.32448
 C2515 C 0.61594 0.36873 1.31829
 C2516 C 0.60932 0.38098 1.29312
 C2517 C 0.63047 0.38651 1.27370
 C2518 C 0.65792 0.37986 1.27991
 C2519 C 0.62377 0.39823 1.24828
 C2520 C 0.59614 0.40435 1.24191
 C2521 C 0.57540 0.39934 1.26166
 C2522 C 0.58191 0.38777 1.28699
 H2523 H 0.59982 0.36461 1.33328
 H2524 H 0.67440 0.38389 1.26530
 H2525 H 0.63990 0.40174 1.23314
 H2526 H 0.56545 0.38389 1.30167
 H2527 H 0.68571 0.36297 1.30943
 H2528 H 0.55399 0.40418 1.25736
 C2529 C 0.86366 1.11189 1.32861
 C2530 C 0.86112 1.14013 1.32784
 C2531 C 0.86730 1.15397 1.30343
 C2532 C 0.87573 1.13978 1.27992
 C2533 C 0.87829 1.11132 1.28083
 C2534 C 0.87227 1.09759 1.30533
 C2535 C 0.88705 1.09719 1.25730
 C2536 C 0.89359 1.11124 1.23304
 C2537 C 0.89043 1.13945 1.23229
 C2538 C 0.88157 1.15358 1.25548
 H2539 H 0.86492 1.17571 1.30268
 H2540 H 0.87410 1.07582 1.30647
 H2541 H 0.88960 1.07546 1.25807
 H2542 H 0.87953 1.17534 1.25437
 H2543 H 0.85883 1.10095 1.34729
 H2544 H 0.89505 1.15063 1.21370
 C2545 C 0.87696 0.66414 0.81289
 C2546 C 0.86911 0.64445 0.83229
 C2547 C 0.87335 0.61705 0.82603
 C2548 C 0.88482 0.60940 0.80064
 C2549 C 0.89234 0.62937 0.78122
 C2550 C 0.88847 0.65668 0.78764
 C2551 C 0.90308 0.62169 0.75552
 C2552 C 0.90615 0.59425 0.74883
 C2553 C 0.89908 0.57459 0.76851
 C2554 C 0.88858 0.58208 0.79419
 H2555 H 0.86760 0.60174 0.84091
 H2556 H 0.89405 0.67227 0.77300
 H2557 H 0.90817 0.63702 0.74042
 H2558 H 0.88307 0.56649 0.80886
 H2559 H 0.87372 0.68536 0.81707
 H2560 H 0.90157 0.55333 0.76396
 C2561 C 0.36994 1.16915 0.80363
 C2562 C 0.36182 1.14999 0.82345
 C2563 C 0.36585 1.12241 0.81781
 C2564 C 0.37757 1.11410 0.79272
 C2565 C 0.38545 1.13357 0.77292
 C2566 C 0.38162 1.16104 0.77864
 C2567 C 0.39667 1.12523 0.74760
 C2568 C 0.39996 1.09761 0.74168
 C2569 C 0.39240 1.07848 0.76173
 C2570 C 0.38136 1.08662 0.78699
 H2571 H 0.35992 1.10747 0.83301
 H2572 H 0.38748 1.17626 0.76371
 H2573 H 0.40211 1.14019 0.73224
 H2574 H 0.37558 1.07141 0.80196
 H2575 H 0.36689 1.19049 0.80731
 H2576 H 0.39504 1.05711 0.75785
 C2577 C 0.37151 0.66446 1.30107
 C2578 C 0.36302 0.64480 1.32014
 C2579 C 0.36786 0.61745 1.31458
 C2580 C 0.38092 0.60972 1.29005
 C2581 C 0.38915 0.62963 1.27082
 C2582 C 0.38445 0.65695 1.27657
 C2583 C 0.40139 0.62187 1.24590
 C2584 C 0.40522 0.59443 1.23980
 C2585 C 0.39760 0.57484 1.25933
 C2586 C 0.38560 0.58241 1.28428
 H2587 H 0.36151 0.60233 1.32943
 H2588 H 0.39059 0.67247 1.26207
 H2589 H 0.40691 0.63708 1.23081
 H2590 H 0.37958 0.56691 1.29885
 H2591 H 0.36782 0.68565 1.30511
 H2592 H 0.40062 0.55358 1.25508
 C2593 C 1.13866 1.29342 0.82664
 C2594 C 1.14682 1.31260 0.84634
 C2595 C 1.14107 1.30773 0.87422
 C2596 C 1.12784 1.28379 0.88243
 C2597 C 1.12016 1.26440 0.86250
 C2598 C 1.12547 1.26953 0.83463
 C2599 C 1.10784 1.23999 0.87084
 C2600 C 1.10337 1.23461 0.89890
 C2601 C 1.11047 1.25437 0.91842
 C2602 C 1.12255 1.27873 0.91028
 H2603 H 1.14705 1.32257 0.88947
 H2604 H 1.11973 1.25493 0.81906
 H2605 H 1.10270 1.22482 0.85562
 H2606 H 1.12813 1.29344 0.92580
 H2607 H 1.14300 1.29677 0.80505
 H2608 H 1.10686 1.25086 0.94011
 C2609 C 1.12981 0.82420 0.39867
 C2610 C 1.13289 0.82430 0.36996
 C2611 C 1.12763 0.80071 0.35500
 C2612 C 1.11996 0.77693 0.36863
 C2613 C 1.11699 0.77685 0.39760
 C2614 C 1.12170 0.80070 0.41240
 C2615 C 1.10929 0.75296 0.41119
 C2616 C 1.10431 0.72932 0.39609
 C2617 C 1.10785 0.72955 0.36739
 C2618 C 1.11560 0.75313 0.35377
 H2619 H 1.13060 0.80073 0.33290
 H2620 H 1.11956 0.80106 0.43458
 H2621 H 1.10640 0.75291 0.43330
 H2622 H 1.11800 0.75279 0.33162
 H2623 H 1.13419 0.84228 0.41039
 H2624 H 1.10428 0.71143 0.35544
 C2625 C 0.62906 1.32862 0.39088
 C2626 C 0.63482 1.32876 0.36255
 C2627 C 0.62846 1.30593 0.34672
 C2628 C 0.61774 1.28265 0.35932
 C2629 C 0.61284 1.28239 0.38803
 C2630 C 0.61805 1.30568 0.40352
 C2631 C 0.60323 1.25875 0.40082
 C2632 C 0.59825 1.23541 0.38524
 C2633 C 0.60293 1.23595 0.35670
 C2634 C 0.61262 1.25933 0.34385
 H2635 H 0.63326 1.30587 0.32494
 H2636 H 0.61431 1.30593 0.42549
 H2637 H 0.59939 1.25853 0.42279
 H2638 H 0.61632 1.25912 0.32187
 H2639 H 0.63395 1.34610 0.40332
 H2640 H 0.59933 1.21810 0.34434
 C2641 C 0.63682 0.79790 0.82889
 C2642 C 0.64326 0.81796 0.84831
 C2643 C 0.64000 0.81223 0.87643
 C2644 C 0.62977 0.78696 0.88498
 C2645 C 0.62293 0.76713 0.86519
 C2646 C 0.62679 0.77274 0.83721
 C2647 C 0.61227 0.74205 0.87365
 C2648 C 0.60844 0.73637 0.90171
 C2649 C 0.61543 0.75618 0.92124
 C2650 C 0.62594 0.78124 0.91296
 H2651 H 0.64474 0.82767 0.89149
 H2652 H 0.62180 0.75776 0.82176
 H2653 H 0.60732 0.72682 0.85843
 H2654 H 0.63100 0.79617 0.92845
 H2655 H 0.63938 0.80185 0.80714
 H2656 H 0.61249 0.75236 0.94297
 C2657 C 0.89670 1.31908 1.14235
 C2658 C 0.86773 1.32138 1.14207
 C2659 C 0.85182 1.29950 1.13251
 C2660 C 0.86458 1.27609 1.12245
 C2661 C 0.89376 1.27421 1.12208
 C2662 C 0.90962 1.29572 1.13240
 C2663 C 0.90648 1.25102 1.11114
 C2664 C 0.89038 1.22962 1.10061
 C2665 C 0.86135 1.23167 1.10166
 C2666 C 0.84860 1.25466 1.11238
 H2667 H 0.82943 1.30091 1.13258
 H2668 H 0.93202 1.29464 1.13240
 H2669 H 0.92887 1.24988 1.11036
 H2670 H 0.82620 1.25570 1.11272
 H2671 H 0.90934 1.33569 1.14957
 H2672 H 0.84838 1.21533 1.09441
 C2673 C 0.86263 0.82162 0.61119
 C2674 C 0.85826 0.82193 0.63978
 C2675 C 0.86639 0.79955 0.65548
 C2676 C 0.87791 0.77675 0.64266
 C2677 C 0.88156 0.77641 0.61378
 C2678 C 0.87421 0.79912 0.59830
 C2679 C 0.89219 0.75327 0.60084
 C2680 C 0.89943 0.73049 0.61640
 C2681 C 0.89598 0.73116 0.64512
 C2682 C 0.88529 0.75404 0.65812
 H2683 H 0.86277 0.79955 0.67748
 H2684 H 0.87697 0.79930 0.57619
 H2685 H 0.89502 0.75303 0.57872
 H2686 H 0.88260 0.75389 0.68024
 H2687 H 0.85653 0.83874 0.59878
 H2688 H 0.90121 0.71375 0.65751
 C2689 C 0.36779 1.32632 0.60477
 C2690 C 0.36536 1.32675 0.63356
 C2691 C 0.37067 1.30313 0.64852
 C2692 C 0.37820 1.27926 0.63491
 C2693 C 0.38077 1.27899 0.60591
 C2694 C 0.37555 1.30269 0.59105
 C2695 C 0.38878 1.25514 0.59238
 C2696 C 0.39451 1.23167 0.60754
 C2697 C 0.39122 1.23209 0.63628
 C2698 C 0.38316 1.25562 0.64983
 H2699 H 0.36836 1.30328 0.67069
 H2700 H 0.37738 1.30292 0.56885
 H2701 H 0.39141 1.25504 0.57024
 H2702 H 0.38106 1.25540 0.67202
 H2703 H 0.36362 1.34437 0.59296
 H2704 H 0.39516 1.21414 0.64836
 C2705 C 0.33747 0.79769 1.13010
 C2706 C 0.35719 0.81675 1.13868
 C2707 C 0.38545 0.81130 1.13518
 C2708 C 0.39400 0.78694 1.12326
 C2709 C 0.37399 0.76776 1.11486
 C2710 C 0.34579 0.77336 1.11832
 C2711 C 0.38251 0.74317 1.10347
 C2712 C 0.41079 0.73739 1.10036
 C2713 C 0.43051 0.75674 1.10837
 C2714 C 0.42219 0.78132 1.11973
 H2715 H 0.40063 0.82611 1.14168
 H2716 H 0.33019 0.75889 1.11203
 H2717 H 0.36714 0.72824 1.09773
 H2718 H 0.43779 0.79583 1.12591
 H2719 H 0.31559 0.80163 1.13283
 H2720 H 0.45242 0.75282 1.10588
 C2721 C 0.84214 0.69643 0.87635
 C2722 C 0.86320 0.67776 0.87056
 C2723 C 0.89064 0.68387 0.87738
 C2724 C 0.89710 0.70862 0.88978
 C2725 C 0.87582 0.72752 0.89521
 C2726 C 0.84840 0.72117 0.88853
 C2727 C 0.88241 0.75270 0.90657
 C2728 C 0.91003 0.75939 0.91227
 C2729 C 0.93091 0.74017 0.90762
 C2730 C 0.92450 0.71497 0.89650
 H2731 H 0.90678 0.66929 0.87307
 H2732 H 0.83185 0.73538 0.89253
 H2733 H 0.86624 0.76753 0.90981
 H2734 H 0.94102 0.70068 0.89268
 H2735 H 0.82088 0.69186 0.87112
 H2736 H 0.95232 0.74489 0.91213
 C2737 C 0.89281 0.18121 0.36109
 C2738 C 0.86379 0.17918 0.36050
 C2739 C 0.84783 0.20147 0.36873
 C2740 C 0.86061 0.22533 0.37774
 C2741 C 0.88981 0.22710 0.37853
 C2742 C 0.90572 0.20493 0.37005
 C2743 C 0.90255 0.25090 0.38802
 C2744 C 0.88642 0.27287 0.39692
 C2745 C 0.85740 0.27093 0.39559
 C2746 C 0.84463 0.24742 0.38611
 H2747 H 0.82545 0.20024 0.36797
 H2748 H 0.92812 0.20588 0.37048
 H2749 H 0.92493 0.25208 0.38909
 H2750 H 0.82223 0.24648 0.38546
 H2751 H 0.90548 0.16425 0.35487
 H2752 H 0.84450 0.28771 0.40185
 C2753 C 0.39061 0.67441 0.36610
 C2754 C 0.36200 0.67446 0.36095
 C2755 C 0.34635 0.69733 0.36780
 C2756 C 0.35938 0.72044 0.37843
 C2757 C 0.38835 0.72048 0.38275
 C2758 C 0.40367 0.69716 0.37702
 C2759 C 0.40155 0.74395 0.39234
 C2760 C 0.38613 0.76732 0.39787
 C2761 C 0.35733 0.76698 0.39371
 C2762 C 0.34408 0.74378 0.38406
 H2763 H 0.32436 0.69754 0.36347
 H2764 H 0.42584 0.69675 0.38030
 H2765 H 0.42371 0.74398 0.39575
 H2766 H 0.32191 0.74417 0.38080
 H2767 H 0.40293 0.65692 0.36081
 H2768 H 0.34507 0.78485 0.39770
 C2769 C 0.33586 0.20300 0.86731
 C2770 C 0.35663 0.18412 0.86120
 C2771 C 0.38418 0.18984 0.86797
 C2772 C 0.39099 0.21428 0.88086
 C2773 C 0.36998 0.23332 0.88678
 C2774 C 0.34248 0.22747 0.87993
 C2775 C 0.37690 0.25808 0.89898
 C2776 C 0.40459 0.26417 0.90503
 C2777 C 0.42520 0.24484 0.89974
 C2778 C 0.41847 0.22008 0.88780
 H2779 H 0.40010 0.17508 0.86348
 H2780 H 0.32612 0.24179 0.88428
 H2781 H 0.36094 0.27300 0.90272
 H2782 H 0.43479 0.20567 0.88360
 H2783 H 0.31450 0.19872 0.86221
 H2784 H 0.44666 0.24911 0.90447
 C2785 C 1.13624 0.67727 1.10761
 C2786 C 1.13733 0.67596 1.13645
 C2787 C 1.13001 0.69880 1.15193
 C2788 C 1.12161 0.72263 1.13885
 C2789 C 1.12038 0.72374 1.10982
 C2790 C 1.12778 0.70092 1.09440
 C2791 C 1.11151 0.74754 1.09679
 C2792 C 1.10364 0.77013 1.11248
 C2793 C 1.10551 0.76886 1.14130
 C2794 C 1.11439 0.74537 1.15435
 H2795 H 1.13118 0.69803 1.17417
 H2796 H 1.12698 0.70135 1.07215
 H2797 H 1.11003 0.74826 1.07457
 H2798 H 1.11542 0.74494 1.17660
 H2799 H 1.14182 0.65986 1.09536
 H2800 H 1.10002 0.78613 1.15382
 C2801 C 1.12958 0.17111 0.60908
 C2802 C 1.13561 0.17258 0.63728
 C2803 C 1.12954 0.19631 0.65179
 C2804 C 1.11892 0.21889 0.63793
 C2805 C 1.11377 0.21751 0.60932
 C2806 C 1.11862 0.19331 0.59523
 C2807 C 1.10421 0.24043 0.59525
 C2808 C 1.09944 0.26461 0.60951
 C2809 C 1.10447 0.26571 0.63794
 C2810 C 1.11418 0.24310 0.65202
 H2811 H 1.13462 0.19763 0.67343
 H2812 H 1.11470 0.19178 0.57337
 H2813 H 1.10010 0.23940 0.57338
 H2814 H 1.11808 0.24459 0.67389
 H2815 H 1.13437 0.15295 0.59762
 H2816 H 1.10095 0.28422 0.64928
 C2817 C 0.63091 0.70699 0.66549
 C2818 C 0.63975 0.68776 0.64616
 C2819 C 0.63666 0.69306 0.61801
 C2820 C 0.62488 0.71740 0.60920
 C2821 C 0.61614 0.73670 0.62881
 C2822 C 0.61922 0.73129 0.65690
 C2823 C 0.60474 0.76120 0.62003
 C2824 C 0.60199 0.76678 0.59186
 C2825 C 0.61045 0.74732 0.57253
 C2826 C 0.62178 0.72284 0.58112
 H2827 H 0.64333 0.67814 0.60311
 H2828 H 0.61269 0.74586 0.67221
 H2829 H 0.59865 0.77620 0.63510
 H2830 H 0.62824 0.70824 0.56582
 H2831 H 0.63331 0.70321 0.68727
 H2832 H 0.60825 0.75106 0.55072
 C2833 C 0.62972 0.17466 1.10393
 C2834 C 0.63479 0.17430 1.13235
 C2835 C 0.62818 0.19704 1.14824
 C2836 C 0.61788 0.22043 1.13564
 C2837 C 0.61366 0.22090 1.10686
 C2838 C 0.61914 0.19771 1.09129
 C2839 C 0.60446 0.24465 1.09410
 C2840 C 0.59923 0.26789 1.10978
 C2841 C 0.60324 0.26712 1.13839
 C2842 C 0.61250 0.24362 1.15120
 H2843 H 0.63244 0.19694 1.17010
 H2844 H 0.61593 0.19763 1.06926
 H2845 H 0.60115 0.24503 1.07207
 H2846 H 0.61568 0.24368 1.17324
 H2847 H 0.63481 0.15726 1.09144
 H2848 H 0.59947 0.28488 1.15083
 C2849 C 1.32842 1.13917 0.89095
 C2850 C 1.32787 1.14305 0.86235
 C2851 C 1.30478 1.13435 0.84734
 C2852 C 1.28201 1.12275 0.86090
 C2853 C 1.28247 1.11950 0.88980
 C2854 C 1.30596 1.12740 0.90458
 C2855 C 1.25931 1.10871 0.90346
 C2856 C 1.23580 1.10093 0.88855
 C2857 C 1.23563 1.10411 0.85983
 C2858 C 1.25850 1.11494 0.84612
 H2859 H 1.30415 1.13770 0.82533
 H2860 H 1.30675 1.12499 0.92669
 H2861 H 1.25966 1.10610 0.92559
 H2862 H 1.25774 1.11736 0.82400
 H2863 H 1.34609 1.14587 0.90278
 H2864 H 1.21759 1.09842 0.84798
 C2865 C 1.30396 0.63366 0.33355
 C2866 C 1.32381 0.64045 0.35350
 C2867 C 1.31841 0.63433 0.38120
 C2868 C 1.29361 0.62138 0.38885
 C2869 C 1.27380 0.61467 0.36860
 C2870 C 1.27920 0.62095 0.34101
 C2871 C 1.24876 0.60220 0.37632
 C2872 C 1.24311 0.59663 0.40412
 C2873 C 1.26325 0.60289 0.42397
 C2874 C 1.28824 0.61509 0.41643
 H2875 H 1.33370 0.63929 0.39666
 H2876 H 1.26426 0.61606 0.32520
 H2877 H 1.23329 0.59773 0.36088
 H2878 H 1.30322 0.61991 0.43223
 H2879 H 1.30761 0.63834 0.31211
 H2880 H 1.25947 0.59857 0.44549
 C2881 C 0.82276 1.14444 0.39294
 C2882 C 0.82526 1.14527 0.36419
 C2883 C 0.80303 1.13654 0.34790
 C2884 C 0.77873 1.12669 0.36009
 C2885 C 0.77645 1.12561 0.38904
 C2886 C 0.79854 1.13467 0.40530
 C2887 C 0.75221 1.11530 0.40119
 C2888 C 0.73028 1.10599 0.38472
 C2889 C 0.73275 1.10752 0.35595
 C2890 C 0.75674 1.11774 0.34375
 H2891 H 0.80474 1.13742 0.32569
 H2892 H 0.79717 1.13402 0.42752
 H2893 H 0.75063 1.11405 0.42338
 H2894 H 0.75812 1.11859 0.32153
 H2895 H 0.83975 1.15101 0.40578
 H2896 H 0.71597 1.10097 0.34283
 C2897 C 0.83381 0.63241 0.89874
 C2898 C 0.83439 0.63670 0.87020
 C2899 C 0.81181 0.62849 0.85419
 C2900 C 0.78835 0.61712 0.86670
 C2901 C 0.78762 0.61358 0.89557
 C2902 C 0.81067 0.62084 0.91134
 C2903 C 0.76368 0.60333 0.90821
 C2904 C 0.74050 0.59647 0.89235
 C2905 C 0.74157 0.59974 0.86366
 C2906 C 0.76528 0.60999 0.85094
 H2907 H 0.81206 0.63217 0.83223
 H2908 H 0.81053 0.61818 0.93344
 H2909 H 0.76306 0.60061 0.93032
 H2910 H 0.76545 0.61263 0.82883
 H2911 H 0.85110 0.63875 0.91132
 H2912 H 0.72381 0.59477 0.85109
 C2913 C 1.32690 0.86068 1.10936
 C2914 C 1.32652 0.85673 1.13796
 C2915 C 1.30358 0.86544 1.15331
 C2916 C 1.28082 0.87717 1.14012
 C2917 C 1.28112 0.88052 1.11124
 C2918 C 1.30443 0.87255 1.09610
 C2919 C 1.25798 0.89147 1.09796
 C2920 C 1.23457 0.89920 1.11321
 C2921 C 1.23459 0.89594 1.14193
 C2922 C 1.25750 0.88503 1.15527
 H2923 H 1.30307 0.86210 1.17532
 H2924 H 1.30509 0.87504 1.07398
 H2925 H 1.25820 0.89412 1.07584
 H2926 H 1.25687 0.88252 1.17739
 H2927 H 1.34448 0.85407 1.09728
 H2928 H 1.21664 0.90150 1.15406
 C2929 C 1.33056 0.39246 0.63553
 C2930 C 1.33137 0.36420 0.63765
 C2931 C 1.30791 0.34903 0.63044
 C2932 C 1.28392 0.36187 0.62110
 C2933 C 1.28329 0.39032 0.61879
 C2934 C 1.30673 0.40544 0.62610
 C2935 C 1.25930 0.40309 0.60908
 C2936 C 1.23597 0.38773 0.60161
 C2937 C 1.23680 0.35949 0.60445
 C2938 C 1.26055 0.34668 0.61404
 H2939 H 1.30836 0.32724 0.63238
 H2940 H 1.30665 0.42725 0.62450
 H2941 H 1.25896 0.42486 0.60684
 H2942 H 1.26063 0.32488 0.61590
 H2943 H 1.34851 0.40440 0.64100
 H2944 H 1.21894 0.34724 0.59938
 C2945 C 0.79803 0.83453 0.63102
 C2946 C 0.81837 0.85320 0.63907
 C2947 C 0.81463 0.88071 0.63342
 C2948 C 0.79078 0.88954 0.61973
 C2949 C 0.77032 0.87061 0.61182
 C2950 C 0.77415 0.84316 0.61757
 C2951 C 0.74620 0.87949 0.59864
 C2952 C 0.74213 0.90709 0.59342
 C2953 C 0.76286 0.92566 0.60089
 C2954 C 0.78697 0.91697 0.61390
 H2955 H 0.83046 0.89506 0.63942
 H2956 H 0.75871 0.82837 0.61169
 H2957 H 0.73021 0.86504 0.59330
 H2958 H 0.80249 0.93173 0.61965
 H2959 H 0.80068 0.81324 0.63529
 H2960 H 0.76028 0.94700 0.59683
 C2961 C 0.83003 0.35658 1.10677
 C2962 C 0.83016 0.35535 1.13561
 C2963 C 0.80635 0.36274 1.15033
 C2964 C 0.78269 0.37155 1.13649
 C2965 C 0.78273 0.37308 1.10744
 C2966 C 0.80650 0.36542 1.09277
 C2967 C 0.75920 0.38269 1.09370
 C2968 C 0.73585 0.39106 1.10873
 C2969 C 0.73588 0.38875 1.13753
 C2970 C 0.75906 0.37908 1.15129
 H2971 H 0.80632 0.36148 1.17257
 H2972 H 0.80695 0.36643 1.07052
 H2973 H 0.75934 0.38450 1.07149
 H2974 H 0.75863 0.37782 1.17353
 H2975 H 0.84828 0.35091 1.09518
 H2976 H 0.71792 0.39469 1.14947
 C2977 C 0.69464 1.16319 1.12230
 C2978 C 0.67526 1.14383 1.13113
 C2979 C 0.68085 1.11632 1.12734
 C2980 C 0.70578 1.10813 1.11518
 C2981 C 0.72533 1.12776 1.10666
 C2982 C 0.71948 1.15523 1.11014
 C2983 C 0.75067 1.11959 1.09540
 C2984 C 0.75688 1.09205 1.09278
 C2985 C 0.73710 1.07269 1.10073
 C2986 C 0.71171 1.08067 1.11178
 H2987 H 0.66580 1.10142 1.13402
 H2988 H 0.73424 1.17052 1.10377
 H2989 H 0.76596 1.13464 1.08966
 H2990 H 0.69691 1.06537 1.11806
 H2991 H 0.69064 1.18450 1.12524
 H2992 H 0.74142 1.05134 1.09862
 C2993 C 0.69855 0.67248 0.63672
 C2994 C 0.67784 0.65368 0.64375
 C2995 C 0.68288 0.62603 0.63959
 C2996 C 0.70829 0.61726 0.62877
 C2997 C 0.72895 0.63636 0.62181
 C2998 C 0.72383 0.66392 0.62581
 C2999 C 0.75447 0.62759 0.61125
 C3000 C 0.75977 0.59990 0.60774
 C3001 C 0.73902 0.58109 0.61460
 C3002 C 0.71350 0.58968 0.62494
 H3003 H 0.66696 0.61142 0.64476
 H3004 H 0.73944 0.67885 0.62068
 H3005 H 0.77043 0.64226 0.60636
 H3006 H 0.69790 0.57475 0.63009
 H3007 H 0.69526 0.69385 0.63997
 H3008 H 0.74253 0.55968 0.61182
 C3009 C 0.19623 1.16377 0.62787
 C3010 C 0.17730 1.14395 0.63654
 C3011 C 0.18322 1.11661 0.63218
 C3012 C 0.20804 1.10903 0.61944
 C3013 C 0.22722 1.12908 0.61114
 C3014 C 0.22106 1.15640 0.61530
 C3015 C 0.25248 1.12148 0.59932
 C3016 C 0.25892 1.09408 0.59580
 C3017 C 0.23942 1.07432 0.60344
 C3018 C 0.21417 1.08173 0.61517
 H3019 H 0.16844 1.10140 0.63872
 H3020 H 0.23551 1.17202 0.60906
 H3021 H 0.26753 1.13684 0.59380
 H3022 H 0.19963 1.06613 0.62123
 H3023 H 0.19186 1.18495 0.63122
 H3024 H 0.24386 1.05308 0.60058
 C3025 C 0.17136 0.60957 1.13814
 C3026 C 0.17096 0.63787 1.14005
 C3027 C 0.19471 0.65261 1.13274
 C3028 C 0.21859 0.63931 1.12353
 C3029 C 0.21881 0.61082 1.12147
 C3030 C 0.19506 0.59614 1.12887
 C3031 C 0.24267 0.59758 1.11185
 C3032 C 0.26622 0.61252 1.10410
 C3033 C 0.26583 0.64080 1.10673
 C3034 C 0.24226 0.65406 1.11632
 H3035 H 0.19461 0.67442 1.13453
 H3036 H 0.19480 0.57431 1.12746
 H3037 H 0.24269 0.57579 1.10978
 H3038 H 0.24252 0.67588 1.11797
 H3039 H 0.15320 0.59792 1.14371
 H3040 H 0.28388 0.65273 1.10138
 C3041 C 0.67398 0.88704 0.85438
 C3042 C 0.67460 0.85875 0.85175
 C3043 C 0.69841 0.84477 0.86016
 C3044 C 0.72138 0.85885 0.87063
 C3045 C 0.72062 0.88733 0.87281
 C3046 C 0.69672 0.90118 0.86478
 C3047 C 0.74372 0.90142 0.88308
 C3048 C 0.76745 0.88736 0.89154
 C3049 C 0.76795 0.85905 0.88917
 C3050 C 0.74521 0.84495 0.87877
 H3051 H 0.69926 0.82301 0.85797
 H3052 H 0.69566 0.92297 0.86640
 H3053 H 0.74304 0.92322 0.88502
 H3054 H 0.74624 0.82316 0.87716
 H3055 H 0.65582 0.89824 0.84818
 H3056 H 0.78610 0.84779 0.89529
 C3057 C 0.69494 0.33998 0.37274
 C3058 C 0.67531 0.35918 0.36452
 C3059 C 0.67989 0.38660 0.36994
 C3060 C 0.70403 0.39488 0.38339
 C3061 C 0.72391 0.37545 0.39129
 C3062 C 0.71912 0.34805 0.38598
 C3063 C 0.74851 0.38378 0.40382
 C3064 C 0.75365 0.41130 0.40844
 C3065 C 0.73346 0.43040 0.40122
 C3066 C 0.70883 0.42225 0.38880
 H3067 H 0.66456 0.40132 0.36372
 H3068 H 0.73412 0.33291 0.39189
 H3069 H 0.76412 0.36894 0.40896
 H3070 H 0.69374 0.43738 0.38307
 H3071 H 0.69160 0.31875 0.36857
 H3072 H 0.73693 0.45171 0.40486
 C3073 C 0.19248 0.83716 0.37010
 C3074 C 0.17164 0.85628 0.36508
 C3075 C 0.17691 0.88369 0.37019
 C3076 C 0.20257 0.89184 0.38088
 C3077 C 0.22320 0.87232 0.38630
 C3078 C 0.21803 0.84509 0.38060
 C3079 C 0.24871 0.88033 0.39724
 C3080 C 0.25409 0.90766 0.40262
 C3081 C 0.23353 0.92696 0.39716
 C3082 C 0.20793 0.91911 0.38648
 H3083 H 0.16080 0.89842 0.36647
 H3084 H 0.23364 0.82990 0.38447
 H3085 H 0.26464 0.86540 0.40098
 H3086 H 0.19239 0.93434 0.38252
 H3087 H 0.18879 0.81595 0.36610
 H3088 H 0.23730 0.94814 0.40122
 C3089 C 0.20497 0.32823 0.86288
 C3090 C 0.18486 0.34641 0.85342
 C3091 C 0.18841 0.37417 0.85828
 C3092 C 0.21201 0.38375 0.87188
 C3093 C 0.23236 0.36534 0.88091
 C3094 C 0.22853 0.33760 0.87651
 C3095 C 0.25643 0.37502 0.89368
 C3096 C 0.26051 0.40292 0.89746
 C3097 C 0.23983 0.42095 0.88887
 C3098 C 0.21580 0.41147 0.87623
 H3099 H 0.17285 0.38825 0.85121
 H3100 H 0.24391 0.32319 0.88328
 H3101 H 0.27234 0.36092 0.89989
 H3102 H 0.20033 0.42584 0.86958
 H3103 H 0.20268 0.30679 0.85916
 H3104 H 0.24230 0.44248 0.89190
   
