data_POSCAR
  _audit_creation_date              2014-09-24
  _audit_creation_method            'ToBaCCo'
  _symmetry_space_group_name_H-M    'P1'
  _symmetry_Int_Tables_number       1
  _symmetry_cell_setting            triclinic
  loop_
  _symmetry_equiv_pos_as_xyz
 x,y,z
_cell_length_a 44.8182
_cell_length_b 44.5983
_cell_length_c 43.3574
_cell_angle_alpha 91.271800
_cell_angle_beta 90.991400
_cell_angle_gamma 90.414100
loop_
  _atom_site_label
  _atom_site_type_symbol
  _atom_site_fract_x
  _atom_site_fract_y
  _atom_site_fract_z
C1 C 0.74251 0.66820 0.94825
 H2 H 0.76493 0.66419 0.94061
 C3 C 0.72245 0.68245 0.92874
 H4 H 0.72985 0.68843 0.90608
 C5 C 0.70620 0.66509 0.98705
 H6 H 0.70004 0.65846 1.00991
 C7 C 0.68518 0.67929 0.96806
 H8 H 0.66294 0.68341 0.97647
 N9 N 0.73427 0.65974 0.97680
 C10 C 0.82444 0.65340 1.01429
 H11 H 0.82543 0.62958 1.01837
 C12 C 0.84945 0.67150 1.02054
 H13 H 0.86974 0.66142 1.02925
 C14 C 0.79634 0.69562 0.99923
 H15 H 0.77533 0.70503 0.99179
 C16 C 0.82098 0.71450 1.00474
 H17 H 0.81859 0.73833 1.00138
 Zn18 Zn 0.76431 0.64028 1.00053
 N19 N 0.79840 0.66573 1.00441
 C20 C 0.79411 0.60823 0.95420
 N21 N 0.77624 0.60481 0.97895
 C22 C 0.76779 0.57704 0.98800
 C23 C 0.77664 0.55145 0.97141
 C24 C 0.80337 0.58334 0.93693
 C25 C 0.76817 0.64212 1.06508
 C26 C 0.76248 0.63391 1.09518
 C27 C 0.71991 0.60518 1.07624
 C28 C 0.72685 0.61362 1.04619
 N29 N 0.75115 0.63120 1.04108
 H30 H 0.80158 0.63033 0.94799
 H31 H 0.75405 0.57454 1.00797
 H32 H 0.76921 0.52972 0.97888
 H33 H 0.81745 0.58669 0.91723
 H34 H 0.78675 0.65691 1.06107
 H35 H 0.77712 0.64304 1.11312
 H36 H 0.70081 0.59063 1.07950
 H37 H 0.71321 0.60552 1.02688
 C38 C 0.84782 0.70250 1.01605
 C39 C 0.69331 0.68833 0.93851
 C40 C 0.73842 0.61453 1.10135
 C41 C 0.79453 0.55447 0.94533
 C42 C 0.71985 0.34040 0.50912
 H43 H 0.72573 0.34990 0.53152
 C44 C 0.69802 0.31804 0.50690
 H45 H 0.68717 0.31099 0.52768
 C46 C 0.72648 0.33824 0.45508
 H47 H 0.73771 0.34627 0.43494
 C48 C 0.70459 0.31585 0.45175
 H49 H 0.69916 0.30702 0.42890
 N50 N 0.73269 0.35099 0.48329
 C51 C 0.81673 0.39939 0.47197
 H52 H 0.81070 0.42120 0.48100
 C53 C 0.84523 0.39503 0.46052
 H54 H 0.86062 0.41381 0.46112
 C55 C 0.80410 0.34847 0.46160
 H56 H 0.78806 0.33032 0.46233
 C57 C 0.83255 0.34307 0.44992
 H58 H 0.83808 0.32079 0.44150
 Zn59 Zn 0.75817 0.38522 0.48727
 N60 N 0.79667 0.37641 0.47206
 C61 C 0.78694 0.39270 0.54590
 N62 N 0.76123 0.39686 0.52948
 C63 C 0.73669 0.40878 0.54296
 C64 C 0.73715 0.41632 0.57438
 C65 C 0.78848 0.40027 0.57733
 C66 C 0.75268 0.44605 0.47293
 C67 C 0.74295 0.47111 0.45693
 C68 C 0.71051 0.43871 0.42598
 C69 C 0.72078 0.41428 0.44267
 N70 N 0.74202 0.41818 0.46526
 H71 H 0.80613 0.38306 0.53477
 H72 H 0.71658 0.41195 0.52929
 H73 H 0.71733 0.42569 0.58457
 H74 H 0.80904 0.39660 0.59014
 H75 H 0.76880 0.44892 0.49161
 H76 H 0.75227 0.49282 0.46333
 H77 H 0.69397 0.43498 0.40776
 H78 H 0.71185 0.39229 0.43718
 C79 C 0.85343 0.36664 0.44896
 C80 C 0.68929 0.30628 0.47785
 C81 C 0.72182 0.46757 0.43278
 C82 C 0.76326 0.41186 0.59202
 C83 C 0.23862 -0.20053 0.03540
 H84 H 0.26103 -0.20649 0.02896
 C85 C 0.22265 -0.21900 0.05502
 H86 H 0.23288 -0.23934 0.06311
 C87 C 0.19828 -0.16652 0.03322
 H88 H 0.18912 -0.14578 0.02486
 C89 C 0.18147 -0.18442 0.05239
 H90 H 0.15930 -0.17730 0.05870
 N91 N 0.22613 -0.17493 0.02483
 C92 C 0.30889 -0.14289 0.00131
 H93 H 0.30483 -0.12108 0.01155
 C94 C 0.33814 -0.15287 -0.00085
 H95 H 0.35615 -0.13859 0.00792
 C96 C 0.29067 -0.18748 -0.02328
 H97 H 0.27192 -0.20102 -0.03152
 C98 C 0.31986 -0.19811 -0.02653
 H99 H 0.32356 -0.21982 -0.03743
 Zn100 Zn 0.24624 -0.14755 -0.00042
 N101 N 0.28572 -0.16061 -0.00878
 C102 C 0.26130 -0.11413 0.05165
 N103 N 0.24812 -0.11139 0.02339
 C104 C 0.23694 -0.08468 0.01416
 C105 C 0.24015 -0.05906 0.03322
 C106 C 0.26515 -0.08922 0.07123
 C107 C 0.20072 -0.16260 -0.04307
 C108 C 0.18060 -0.15830 -0.06734
 C109 C 0.20965 -0.11535 -0.08222
 C110 C 0.22937 -0.12064 -0.05751
 N111 N 0.22377 -0.14314 -0.03769
 H112 H 0.26943 -0.13576 0.05868
 H113 H 0.22565 -0.08305 -0.00791
 H114 H 0.23166 -0.03792 0.02522
 H115 H 0.27627 -0.09191 0.09336
 H116 H 0.19739 -0.18128 -0.02806
 H117 H 0.16232 -0.17410 -0.06996
 H118 H 0.21396 -0.09646 -0.09683
 H119 H 0.24841 -0.10597 -0.05338
 C120 C 0.34387 -0.18104 -0.01433
 C121 C 0.19365 -0.21093 0.06371
 C122 C 0.18404 -0.13362 -0.08682
 C123 C 0.25479 -0.06117 0.06204
 C124 C 0.19820 0.13487 0.48063
 H125 H 0.20151 0.11810 0.46271
 C126 C 0.17538 0.15561 0.47710
 H127 H 0.16158 0.15457 0.45635
 C128 C 0.21155 0.15603 0.52956
 H129 H 0.22567 0.15582 0.55005
 C130 C 0.18879 0.17721 0.52705
 H131 H 0.18583 0.19335 0.54570
 N132 N 0.21591 0.13552 0.50643
 C133 C 0.30705 0.10422 0.50394
 H134 H 0.30203 0.08057 0.50086
 C135 C 0.33615 0.11449 0.50058
 H136 H 0.35352 0.09857 0.49512
 C137 C 0.29028 0.15368 0.51436
 H138 H 0.27219 0.16888 0.51911
 C139 C 0.31942 0.16487 0.51197
 H140 H 0.32371 0.18869 0.51499
 Zn141 Zn 0.24611 0.10624 0.51021
 N142 N 0.28472 0.12379 0.51022
 C143 C 0.25506 0.09217 0.44917
 N144 N 0.24433 0.08011 0.47530
 C145 C 0.23490 0.05104 0.47585
 C146 C 0.23616 0.03288 0.44912
 C147 C 0.25731 0.07477 0.42235
 C148 C 0.26441 0.08450 0.56771
 C149 C 0.26138 0.07051 0.59590
 C150 C 0.21036 0.05811 0.58168
 C151 C 0.21442 0.07233 0.55360
 N152 N 0.24114 0.08523 0.54722
 H153 H 0.26248 0.11531 0.44944
 H154 H 0.22678 0.04182 0.49699
 H155 H 0.22900 0.00968 0.44984
 H156 H 0.26640 0.08470 0.40193
 H157 H 0.28537 0.09515 0.56249
 H158 H 0.28034 0.07055 0.61163
 H159 H 0.18883 0.04830 0.58656
 H160 H 0.19615 0.07351 0.53705
 C161 C 0.34253 0.14516 0.50431
 C162 C 0.17032 0.17711 0.50047
 C163 C 0.23397 0.05731 0.60340
 C164 C 0.24791 0.04477 0.42212
 C165 C 0.16857 0.45538 0.17528
 H166 H 0.15734 0.43544 0.18290
 C167 C 0.18579 0.45381 0.14882
 H168 H 0.18717 0.43270 0.13612
 C169 C 0.18128 0.50666 0.18306
 H170 H 0.17973 0.52706 0.19690
 C171 C 0.19863 0.50616 0.15658
 H172 H 0.21028 0.52637 0.15027
 N173 N 0.16626 0.48164 0.19157
 C174 C 0.16482 0.51885 0.27864
 H175 H 0.14583 0.53284 0.27379
 C176 C 0.18429 0.52687 0.30289
 H177 H 0.17979 0.54685 0.31663
 C178 C 0.19414 0.47642 0.26623
 H179 H 0.19779 0.45683 0.25166
 C180 C 0.21431 0.48369 0.29023
 H181 H 0.23329 0.46932 0.29404
 Zn182 Zn 0.14355 0.48325 0.22801
 N183 N 0.16982 0.49379 0.26113
 C184 C 0.13084 0.42976 0.26042
 N185 N 0.12518 0.44573 0.23462
 C186 C 0.10470 0.43615 0.21307
 C187 C 0.08932 0.40921 0.21666
 C188 C 0.11576 0.40273 0.26506
 C189 C 0.09314 0.51283 0.24906
 C190 C 0.07034 0.53396 0.24967
 C191 C 0.08703 0.55185 0.20066
 C192 C 0.10947 0.53026 0.20093
 N193 N 0.11252 0.51176 0.22528
 H194 H 0.14667 0.43813 0.27765
 H195 H 0.10023 0.44964 0.19310
 H196 H 0.07291 0.40239 0.19928
 H197 H 0.12035 0.39036 0.28580
 H198 H 0.09586 0.49757 0.26794
 H199 H 0.05580 0.53474 0.26930
 H200 H 0.08532 0.56680 0.18138
 H201 H 0.12458 0.52862 0.18186
 C202 C 0.20940 0.50921 0.30900
 C203 C 0.20091 0.47944 0.13899
 C204 C 0.06731 0.55414 0.22542
 C205 C 0.09475 0.39212 0.24298
 C206 C -0.14607 0.02115 0.21889
 H207 H -0.13365 0.03930 0.23010
 C208 C -0.16076 0.02596 0.19080
 H209 H -0.15910 0.04786 0.18061
 C210 C -0.16396 -0.02891 0.21919
 H211 H -0.16561 -0.05006 0.23081
 C212 C -0.17798 -0.02550 0.19046
 H213 H -0.19037 -0.04431 0.18045
 N214 N -0.14744 -0.00612 0.23221
 C215 C -0.15764 -0.03922 0.31946
 H216 H -0.14336 -0.05826 0.31552
 C217 C -0.17818 -0.03982 0.34329
 H218 H -0.17925 -0.05935 0.35764
 C219 C -0.17397 0.00906 0.30535
 H220 H -0.17205 0.02808 0.29043
 C221 C -0.19486 0.00939 0.32888
 H222 H -0.20882 0.02888 0.33179
 Zn223 Zn -0.12680 -0.01228 0.27010
 N224 N -0.15549 -0.01473 0.30147
 C225 C -0.10207 0.03825 0.30416
 N226 N -0.10015 0.02008 0.27863
 C227 C -0.07778 0.02341 0.25824
 C228 C -0.05612 0.04567 0.26305
 C229 C -0.08092 0.06107 0.30977
 C230 C -0.08685 -0.05468 0.29344
 C231 C -0.06801 -0.07952 0.29302
 C232 C -0.08205 -0.08874 0.23964
 C233 C -0.10053 -0.06369 0.24106
 N234 N -0.10301 -0.04747 0.26785
 H235 H -0.11969 0.03491 0.32044
 H236 H -0.07673 0.00854 0.23823
 H237 H -0.03875 0.04792 0.24624
 H238 H -0.08260 0.07528 0.33023
 H239 H -0.08855 -0.04098 0.31424
 H240 H -0.05566 -0.08479 0.31381
 H241 H -0.08041 -0.10127 0.21806
 H242 H -0.11228 -0.05697 0.22047
 C243 C -0.19692 -0.01518 0.34848
 C244 C -0.17633 0.00224 0.17567
 C245 C -0.06543 -0.09696 0.26579
 C246 C -0.05738 0.06474 0.28924
 C247 C 0.33280 0.49435 0.70023
 H248 H 0.32743 0.48349 0.72144
 C249 C 0.30975 0.50241 0.68020
 H250 H 0.28700 0.49739 0.68637
 C251 C 0.36875 0.51542 0.66745
 H252 H 0.39187 0.52046 0.66280
 C253 C 0.34628 0.52412 0.64681
 H254 H 0.35226 0.53578 0.62613
 N255 N 0.36168 0.50044 0.69334
 C256 C 0.37165 0.47411 0.78217
 H257 H 0.38130 0.49488 0.79104
 C258 C 0.35434 0.45633 0.80140
 H259 H 0.35067 0.46366 0.82500
 C260 C 0.36389 0.43935 0.74062
 H261 H 0.36726 0.43312 0.71669
 C262 C 0.34654 0.42113 0.75883
 H263 H 0.33734 0.40058 0.74877
 Zn264 Zn 0.39243 0.48909 0.72101
 N265 N 0.37514 0.46577 0.75206
 C266 C 0.39799 0.54488 0.75461
 N267 N 0.41187 0.52482 0.73565
 C268 C 0.43869 0.53146 0.72315
 C269 C 0.45252 0.55904 0.72938
 C270 C 0.41142 0.57268 0.76197
 C271 C 0.41504 0.45233 0.67190
 C272 C 0.43565 0.43280 0.65845
 C273 C 0.46631 0.43772 0.70471
 C274 C 0.44484 0.45641 0.71754
 N275 N 0.42014 0.46386 0.70087
 H276 H 0.37608 0.53976 0.76321
 H277 H 0.44886 0.51596 0.70709
 H278 H 0.47362 0.56395 0.71871
 H279 H 0.39996 0.58868 0.77662
 H280 H 0.39482 0.45785 0.65940
 H281 H 0.43142 0.42366 0.63542
 H282 H 0.48595 0.43224 0.71830
 H283 H 0.44794 0.46532 0.74080
 C284 C 0.34071 0.43001 0.78934
 C285 C 0.31637 0.51727 0.65294
 C286 C 0.46184 0.42574 0.67479
 C287 C 0.43870 0.58019 0.74866
 C288 C 0.65831 0.98443 0.75887
 H289 H 0.65507 0.97877 0.78271
 C290 C 0.68104 0.97071 0.74220
 H291 H 0.69529 0.95471 0.75354
 C292 C 0.64219 1.01053 0.71467
 H293 H 0.62640 1.02522 0.70370
 C294 C 0.66427 0.99690 0.69699
 H295 H 0.66566 1.00178 0.67269
 N296 N 0.63979 1.00434 0.74513
 C297 C 0.59943 1.05348 0.82169
 H298 H 0.57665 1.05258 0.81307
 C299 C 0.60653 1.07063 0.84811
 H300 H 0.58866 1.08230 0.85958
 C301 C 0.64991 1.03932 0.81634
 H302 H 0.66697 1.02796 0.80339
 C303 C 0.65789 1.05547 0.84335
 H304 H 0.68106 1.05591 0.85090
 Zn305 Zn 0.60785 1.01987 0.76852
 N306 N 0.62103 1.03861 0.80611
 C307 C 0.57890 0.97597 0.80487
 N308 N 0.58230 0.98706 0.77615
 C309 C 0.56836 0.97413 0.75108
 C310 C 0.54921 0.94969 0.75443
 C311 C 0.56049 0.95095 0.80916
 C312 C 0.60164 1.07256 0.73382
 C313 C 0.58617 1.09561 0.71933
 C314 C 0.53984 1.07149 0.73260
 C315 C 0.55615 1.04856 0.74610
 N316 N 0.58651 1.04941 0.74645
 H317 H 0.59069 0.98628 0.82437
 H318 H 0.57198 0.98307 0.72844
 H319 H 0.53821 0.93983 0.73418
 H320 H 0.55795 0.94220 0.83207
 H321 H 0.62576 1.07326 0.73527
 H322 H 0.59846 1.11396 0.70948
 H323 H 0.51570 1.07059 0.73288
 H324 H 0.54448 1.03064 0.75726
 C325 C 0.63622 1.07212 0.85925
 C326 C 0.68410 0.97684 0.71079
 C327 C 0.55490 1.09542 0.71911
 C328 C 0.54511 0.93784 0.78376
 C329 C -0.00855 0.19916 -0.16053
 H330 H -0.02710 0.21454 -0.16119
 C331 C -0.00742 0.17526 -0.18182
 H332 H -0.02548 0.17235 -0.19850
 C333 C 0.03751 0.18474 -0.13795
 H334 H 0.05532 0.18879 -0.12129
 C335 C 0.03942 0.16041 -0.15865
 H336 H 0.05864 0.14587 -0.15748
 N337 N 0.01361 0.20336 -0.13903
 C338 C -0.01998 0.28851 -0.13303
 H339 H -0.03687 0.28237 -0.11679
 C340 C -0.02348 0.31437 -0.15029
 H341 H -0.04304 0.32813 -0.14705
 C342 C 0.02598 0.27813 -0.15716
 H343 H 0.04514 0.26373 -0.15974
 C344 C 0.02370 0.30414 -0.17437
 H345 H 0.04113 0.30954 -0.19035
 Zn346 Zn 0.01062 0.23708 -0.11187
 N347 N 0.00476 0.27132 -0.13631
 C348 C 0.06246 0.26766 -0.08901
 N349 N 0.04597 0.24204 -0.08734
 C350 C 0.05392 0.22002 -0.06766
 C351 C 0.08022 0.22261 -0.04993
 C352 C 0.08881 0.27121 -0.07170
 C353 C -0.04234 0.21013 -0.08854
 C354 C -0.06540 0.20713 -0.06748
 C355 C -0.04492 0.24954 -0.03840
 C356 C -0.02269 0.25202 -0.06035
 N357 N -0.02166 0.23240 -0.08469
 H358 H 0.05530 0.28551 -0.10372
 H359 H 0.04000 0.20021 -0.06608
 H360 H 0.08627 0.20452 -0.03492
 H361 H 0.10179 0.29161 -0.07384
 H362 H -0.04100 0.19452 -0.10785
 H363 H -0.08151 0.18913 -0.07122
 H364 H -0.04463 0.26566 -0.01943
 H365 H -0.00590 0.26950 -0.05781
 C366 C -0.00114 0.32278 -0.17072
 C367 C 0.01687 0.15553 -0.18108
 C368 C -0.06686 0.22672 -0.04157
 C369 C 0.09828 0.24835 -0.05219
 C370 C 0.45518 0.25233 0.17157
 H371 H 0.44933 0.27412 0.16293
 C372 C 0.43392 0.23534 0.18650
 H373 H 0.41167 0.24422 0.18915
 C374 C 0.49129 0.21423 0.17773
 H375 H 0.51366 0.20617 0.17400
 C376 C 0.47036 0.19609 0.19231
 H377 H 0.47679 0.17411 0.20008
 N378 N 0.48336 0.24191 0.16801
 C379 C 0.53020 0.32707 0.15781
 H380 H 0.54068 0.32381 0.13571
 C381 C 0.53353 0.35444 0.17396
 H382 H 0.54654 0.37230 0.16415
 C383 C 0.50062 0.30770 0.19763
 H384 H 0.48851 0.28927 0.20732
 C385 C 0.50309 0.33468 0.21432
 H386 H 0.49260 0.33653 0.23656
 Zn387 Zn 0.50888 0.26797 0.14683
 N388 N 0.51347 0.30458 0.16957
 C389 C 0.47754 0.30158 0.10210
 N390 N 0.48935 0.27439 0.10865
 C391 C 0.48372 0.24988 0.09020
 C392 C 0.46566 0.25214 0.06386
 C393 C 0.45881 0.30470 0.07630
 C394 C 0.56496 0.24927 0.16715
 C395 C 0.59473 0.24062 0.16463
 C396 C 0.58734 0.23553 0.10943
 C397 C 0.55793 0.24495 0.11292
 N398 N 0.54734 0.25161 0.14148
 H399 H 0.48137 0.32054 0.11764
 H400 H 0.49242 0.22829 0.09662
 H401 H 0.46080 0.23216 0.05001
 H402 H 0.44878 0.32624 0.07187
 H403 H 0.55607 0.25503 0.18954
 H404 H 0.60857 0.23937 0.18526
 H405 H 0.59557 0.23074 0.08651
 H406 H 0.54394 0.24769 0.09269
 C407 C 0.51939 0.35861 0.20233
 C408 C 0.44144 0.20691 0.19721
 C409 C 0.60626 0.23392 0.13540
 C410 C 0.45252 0.27972 0.05702
 C411 C 0.93596 0.70044 0.63414
 H412 H 0.92726 0.72293 0.63265
 C413 C 0.91906 0.67836 0.64779
 H414 H 0.89753 0.68416 0.65709
 C415 C 0.97410 0.66559 0.62263
 H416 H 0.99516 0.66066 0.61192
 C417 C 0.95791 0.64264 0.63668
 H418 H 0.96661 0.62005 0.63683
 N419 N 0.96268 0.69378 0.62144
 C420 C 1.00473 0.78209 0.61434
 H421 H 1.00992 0.78218 0.59006
 C422 C 1.01116 0.80735 0.63305
 H423 H 1.02138 0.82691 0.62313
 C424 C 0.98412 0.75692 0.65668
 H425 H 0.97370 0.73727 0.66594
 C426 C 0.98950 0.78187 0.67596
 H427 H 0.98314 0.78111 0.69992
 Zn428 Zn 0.97827 0.72618 0.59902
 N429 N 0.99081 0.75782 0.62623
 C430 C 0.93474 0.76741 0.57713
 N431 N 0.94566 0.73912 0.57459
 C432 C 0.93190 0.71785 0.55633
 C433 C 0.90591 0.72455 0.53985
 C434 C 0.90870 0.77507 0.56109
 C435 C 1.03629 0.70461 0.58415
 C436 C 1.06045 0.69991 0.56454
 C437 C 1.03019 0.71752 0.52215
 C438 C 1.00679 0.72182 0.54240
 N439 N 1.01013 0.71551 0.57280
 H440 H 0.94567 0.78382 0.59224
 H441 H 0.94087 0.69540 0.55516
 H442 H 0.89525 0.70698 0.52599
 H443 H 0.90000 0.79755 0.56382
 H444 H 1.03862 0.70027 0.60852
 H445 H 1.08130 0.69168 0.57395
 H446 H 1.02664 0.72284 0.49817
 H447 H 0.98624 0.73115 0.53376
 C448 C 1.00259 0.80768 0.66399
 C449 C 0.92964 0.64891 0.64860
 C450 C 1.05767 0.70691 0.53317
 C451 C 0.89373 0.75341 0.54245
 C452 C 0.47114 0.74813 0.32249
 H453 H 0.45146 0.76168 0.31918
 C454 C 0.47708 0.72456 0.30186
 H455 H 0.46159 0.72012 0.28290
 C456 C 0.51504 0.73790 0.35149
 H457 H 0.52998 0.74343 0.37062
 C458 C 0.52181 0.71406 0.33147
 H459 H 0.54190 0.70129 0.33558
 N460 N 0.48990 0.75419 0.34684
 C461 C 0.44963 0.83563 0.34612
 H462 H 0.43080 0.82822 0.35926
 C463 C 0.44659 0.86020 0.32694
 H464 H 0.42534 0.87159 0.32597
 C465 C 0.49970 0.82915 0.33092
 H466 H 0.52020 0.81654 0.33231
 C467 C 0.49782 0.85384 0.31176
 H468 H 0.51723 0.85980 0.29873
 Zn469 Zn 0.48034 0.78699 0.37307
 N470 N 0.47602 0.82091 0.34803
 C471 C 0.52750 0.81888 0.40488
 N472 N 0.51060 0.79341 0.40349
 C473 C 0.51367 0.77192 0.42505
 C474 C 0.53461 0.77541 0.44906
 C475 C 0.54896 0.82313 0.42834
 C476 C 0.43025 0.75231 0.39048
 C477 C 0.40582 0.74551 0.40865
 C478 C 0.41173 0.79373 0.43461
 C479 C 0.43604 0.79962 0.41590
 N480 N 0.44485 0.77899 0.39444
 H481 H 0.52425 0.83608 0.38806
 H482 H 0.49966 0.75206 0.42359
 H483 H 0.53680 0.75783 0.46572
 H484 H 0.56229 0.84349 0.42908
 H485 H 0.43799 0.73590 0.37383
 H486 H 0.39477 0.72396 0.40542
 H487 H 0.40545 0.81045 0.45167
 H488 H 0.44838 0.82046 0.41891
 C489 C 0.47096 0.86992 0.30961
 C490 C 0.50275 0.70712 0.30624
 C491 C 0.39646 0.76617 0.43134
 C492 C 0.55258 0.80133 0.45090
 C493 C 0.41008 0.00330 0.24491
 H494 H 0.41596 0.02612 0.23979
 C495 C 0.43265 -0.01702 0.25194
 H496 H 0.45567 -0.00952 0.25193
 C497 C 0.37307 -0.03382 0.25285
 H498 H 0.34972 -0.04006 0.25345
 C499 C 0.39487 -0.05466 0.26059
 H500 H 0.38817 -0.07705 0.26693
 N501 N 0.38094 -0.00545 0.24528
 C502 C 0.35372 0.08314 0.25594
 H503 H 0.33769 0.07762 0.27322
 C504 C 0.36379 0.11268 0.25405
 H505 H 0.35576 0.12918 0.27050
 C506 C 0.38279 0.06859 0.21311
 H507 H 0.38970 0.05129 0.19693
 C508 C 0.39364 0.09788 0.21053
 H509 H 0.40896 0.10299 0.19230
 Zn510 Zn 0.34928 0.02163 0.23858
 N511 N 0.36360 0.06166 0.23592
 C512 C 0.33517 0.02502 0.30090
 N513 N 0.32360 0.01798 0.27246
 C514 C 0.29512 0.00751 0.26873
 C515 C 0.27676 0.00473 0.29427
 C516 C 0.31741 0.02335 0.32686
 C517 C 0.33470 -0.01293 0.18452
 C518 C 0.31830 -0.01991 0.15762
 C519 C 0.28941 0.02503 0.16585
 C520 C 0.30622 0.03101 0.19273
 N521 N 0.32818 0.01201 0.20161
 H522 H 0.35812 0.03256 0.30326
 H523 H 0.28662 0.00127 0.24600
 H524 H 0.25398 -0.00310 0.29097
 H525 H 0.32671 0.02986 0.34927
 H526 H 0.35247 -0.02754 0.19180
 H527 H 0.32361 -0.04002 0.14444
 H528 H 0.27177 0.04024 0.15953
 H529 H 0.30161 0.05075 0.20677
 C530 C 0.38402 0.12038 0.23110
 C531 C 0.42507 -0.04634 0.26013
 C532 C 0.29529 -0.00086 0.14801
 C533 C 0.28784 0.01318 0.32367
 C534 C 0.08174 1.02198 0.78810
 H535 H 0.09204 1.01030 0.80705
 C536 C 0.06579 1.04834 0.79385
 H537 H 0.06368 1.05671 0.81734
 C538 C 0.07234 1.02573 0.73437
 H539 H 0.07527 1.01683 0.71121
 C540 C 0.05591 1.05179 0.73908
 H541 H 0.04651 1.06293 0.71928
 N542 N 0.08443 1.01115 0.75871
 C543 C 0.09166 0.92260 0.71532
 H544 H 0.11559 0.91968 0.71502
 C545 C 0.07275 0.89938 0.70463
 H546 H 0.08226 0.87871 0.69583
 C547 C 0.05008 0.95217 0.72934
 H548 H 0.04129 0.97224 0.74007
 C549 C 0.03047 0.92939 0.71945
 H550 H 0.00670 0.93261 0.72192
 Zn551 Zn 0.10576 0.97594 0.74875
 N552 N 0.08008 0.94825 0.72759
 C553 C 0.09685 0.94550 0.80249
 N554 N 0.11899 0.95617 0.78464
 C555 C 0.14814 0.94964 0.79067
 C556 C 0.15579 0.93125 0.81530
 C557 C 0.10345 0.92669 0.82687
 C558 C 0.13855 0.98152 0.69340
 C559 C 0.16139 0.99311 0.67549
 C560 C 0.18268 1.01703 0.72143
 C561 C 0.15913 1.00561 0.73827
 N562 N 0.13795 0.98785 0.72424
 H563 H 0.07387 0.95073 0.79698
 H564 H 0.16539 0.95756 0.77573
 H565 H 0.17895 0.92553 0.81940
 H566 H 0.08537 0.91796 0.84036
 H567 H 0.12087 0.96827 0.68252
 H568 H 0.16147 0.98827 0.65090
 H569 H 0.19916 1.03133 0.73304
 H570 H 0.15749 1.01120 0.76258
 C571 C 0.04180 0.90233 0.70761
 C572 C 0.05232 1.06332 0.76916
 C573 C 0.18389 1.01091 0.68959
 C574 C 0.13319 0.91889 0.83312
 C575 C 0.59450 0.59086 0.28645
 H576 H 0.61004 0.58736 0.30525
 C577 C 0.57439 0.61458 0.28851
 H578 H 0.57510 0.62924 0.30877
 C579 C 0.57372 0.57556 0.23802
 H580 H 0.57284 0.55965 0.21886
 C581 C 0.55319 0.59891 0.23915
 H582 H 0.53730 0.60093 0.22030
 N583 N 0.59416 0.57216 0.26121
 C584 C 0.60095 0.48546 0.22454
 H585 H 0.61966 0.48893 0.20957
 C586 C 0.58199 0.46062 0.21967
 H587 H 0.58624 0.44500 0.20081
 C588 C 0.57271 0.50145 0.26751
 H589 H 0.56941 0.51746 0.28624
 C590 C 0.55329 0.47716 0.26347
 H591 H 0.53528 0.47484 0.27950
 Zn592 Zn 0.62029 0.53888 0.25759
 N593 N 0.59604 0.50507 0.24835
 C594 C 0.63895 0.50583 0.30970
 N595 N 0.64125 0.53271 0.29563
 C596 C 0.65941 0.55483 0.30754
 C597 C 0.67573 0.55053 0.33481
 C598 C 0.65503 0.50051 0.33690
 C599 C 0.63959 0.55667 0.19810
 C600 C 0.66072 0.56724 0.17746
 C601 C 0.69963 0.55351 0.21350
 C602 C 0.67788 0.54306 0.23326
 N603 N 0.64842 0.54603 0.22601
 H604 H 0.62501 0.48822 0.29964
 H605 H 0.66157 0.57572 0.29554
 H606 H 0.69021 0.56839 0.34350
 H607 H 0.65297 0.47891 0.34762
 H608 H 0.61618 0.55831 0.19231
 H609 H 0.65330 0.57711 0.15608
 H610 H 0.72289 0.55190 0.22036
 H611 H 0.68467 0.53358 0.25495
 C612 C 0.55779 0.45623 0.23934
 C613 C 0.55340 0.61890 0.26465
 C614 C 0.69107 0.56692 0.18577
 C615 C 0.67366 0.52302 0.34986
 C616 C 0.93634 0.46195 0.77946
 H617 H 0.93944 0.48581 0.78334
 C618 C 0.95941 0.44226 0.78679
 H619 H 0.98038 0.45114 0.79592
 C620 C 0.90457 0.42113 0.76489
 H621 H 0.88289 0.41299 0.75710
 C622 C 0.92666 0.40068 0.77282
 H623 H 0.92203 0.37685 0.77057
 N624 N 0.90971 0.45113 0.76835
 C625 C 0.86259 0.53028 0.73697
 H626 H 0.84141 0.52427 0.74682
 C627 C 0.86464 0.55553 0.71892
 H628 H 0.84497 0.56913 0.71586
 C629 C 0.91350 0.51911 0.72896
 H630 H 0.93217 0.50422 0.73200
 C631 C 0.91659 0.54448 0.71063
 H632 H 0.93782 0.54921 0.70015
 Zn633 Zn 0.87699 0.47702 0.76256
 N634 N 0.88668 0.51257 0.74165
 C635 C 0.86001 0.51460 0.81336
 N636 N 0.86118 0.48598 0.80195
 C637 C 0.85124 0.46254 0.81856
 C638 C 0.83855 0.46746 0.84741
 C639 C 0.84743 0.52056 0.84209
 C640 C 0.85639 0.44952 0.70821
 C641 C 0.83540 0.43928 0.68624
 C642 C 0.79691 0.44584 0.72408
 C643 C 0.81869 0.45595 0.74538
 N644 N 0.84772 0.45790 0.73699
 H645 H 0.86874 0.53289 0.80022
 H646 H 0.85278 0.43996 0.80911
 H647 H 0.83038 0.44839 0.85978
 H648 H 0.84638 0.54354 0.85060
 H649 H 0.87957 0.45180 0.70205
 H650 H 0.84272 0.43343 0.66322
 H651 H 0.77391 0.44518 0.73113
 H652 H 0.81214 0.46343 0.76813
 C653 C 0.89173 0.56266 0.70493
 C654 C 0.95443 0.41121 0.78386
 C655 C 0.80511 0.43793 0.69382
 C656 C 0.83627 0.49687 0.85944
 C657 C 0.30200 0.39151 -0.06731
 H658 H 0.31672 0.39893 -0.04859
 C659 C 0.30798 0.39968 -0.09753
 H660 H 0.32726 0.41364 -0.10187
 C661 C 0.25988 0.36300 -0.08451
 H662 H 0.24170 0.34796 -0.07962
 C663 C 0.26498 0.37064 -0.11496
 H664 H 0.24998 0.36178 -0.13274
 N665 N 0.27832 0.37339 -0.06140
 C666 C 0.25906 0.38355 0.03645
 H667 H 0.25934 0.36023 0.04279
 C668 C 0.25078 0.40553 0.05797
 H669 H 0.24486 0.39897 0.08099
 C670 C 0.26553 0.42023 -0.00164
 H671 H 0.27056 0.42576 -0.02512
 C672 C 0.25770 0.44301 0.01928
 H673 H 0.25688 0.46589 0.01155
 Zn674 Zn 0.27405 0.35939 -0.02083
 N675 N 0.26612 0.39118 0.00728
 C676 C 0.32693 0.34838 0.01461
 N677 N 0.31019 0.34029 -0.01069
 C678 C 0.31945 0.31876 -0.03095
 C679 C 0.34629 0.30391 -0.02587
 C680 C 0.35398 0.33406 0.02063
 C681 C 0.21396 0.34161 -0.02613
 C682 C 0.18966 0.32184 -0.02655
 C683 C 0.22276 0.28237 -0.01057
 C684 C 0.24652 0.30282 -0.01087
 N685 N 0.24184 0.33168 -0.01917
 H686 H 0.31942 0.36597 0.03009
 H687 H 0.30585 0.31314 -0.05114
 H688 H 0.35289 0.28677 -0.04232
 H689 H 0.36694 0.34061 0.04102
 H690 H 0.21077 0.36482 -0.03207
 H691 H 0.16774 0.32998 -0.03291
 H692 H 0.22716 0.25937 -0.00464
 H693 H 0.26869 0.29550 -0.00466
 C694 C 0.24996 0.43569 0.04947
 C695 C 0.28962 0.38881 -0.12190
 C696 C 0.19394 0.29175 -0.01892
 C697 C 0.36392 0.31140 0.00033
 C698 C 0.78336 0.07753 1.03776
 H699 H 0.78874 0.07771 1.01355
 C700 C 0.79145 0.05300 1.05559
 H701 H 0.80265 0.03409 1.04495
 C702 C 0.76342 0.10233 1.08162
 H703 H 0.75290 0.12174 1.09189
 C704 C 0.77212 0.07890 1.10042
 H705 H 0.76782 0.08023 1.12492
 N706 N 0.76894 0.10125 1.05084
 C707 C 0.72296 0.14938 0.97754
 H708 H 0.72786 0.17191 0.98602
 C709 C 0.70205 0.14479 0.95366
 H710 H 0.69108 0.16390 0.94362
 C711 C 0.72991 0.09698 0.98163
 H712 H 0.73969 0.07831 0.99340
 C713 C 0.70975 0.09142 0.95711
 H714 H 0.70448 0.06853 0.95003
 Zn715 Zn 0.75880 0.13545 1.02768
 N716 N 0.73596 0.12565 0.99146
 C717 C 0.80213 0.16138 0.98846
 N718 N 0.79474 0.15548 1.01805
 C719 C 0.81314 0.16350 1.04213
 C720 C 0.83930 0.17966 1.03718
 C721 C 0.82855 0.17696 0.98238
 C722 C 0.70614 0.15035 1.05724
 C723 C 0.68681 0.16666 1.07599
 C724 C 0.72581 0.20371 1.08472
 C725 C 0.74415 0.18709 1.06512
 N726 N 0.73431 0.16058 1.05237
 H727 H 0.78747 0.15425 0.96960
 H728 H 0.80711 0.15783 1.06536
 H729 H 0.85335 0.18634 1.05674
 H730 H 0.83401 0.18197 0.95880
 H731 H 0.69882 0.12928 1.04672
 H732 H 0.66455 0.15809 1.07985
 H733 H 0.73409 0.22454 1.09504
 H734 H 0.76629 0.19530 1.06052
 C735 C 0.69497 0.11550 0.94354
 C736 C 0.78595 0.05378 1.08734
 C737 C 0.69683 0.19336 1.09045
 C738 C 0.84707 0.18688 1.00701
 C739 C 0.27920 0.61025 0.53881
 H740 H 0.29435 0.62866 0.53479
 C741 C 0.28464 0.59119 0.56340
 H742 H 0.30386 0.59529 0.57842
 C743 C 0.23617 0.58197 0.52378
 H744 H 0.21756 0.57836 0.50786
 C745 C 0.24060 0.56257 0.54815
 H746 H 0.22526 0.54400 0.55065
 N747 N 0.25508 0.60548 0.51984
 C748 C 0.22202 0.60085 0.43180
 H749 H 0.20245 0.61405 0.43646
 C750 C 0.22168 0.58068 0.40674
 H751 H 0.20184 0.57890 0.39218
 C752 C 0.27112 0.58633 0.44561
 H753 H 0.29020 0.58855 0.46115
 C754 C 0.27172 0.56580 0.42084
 H755 H 0.29154 0.55254 0.41746
 Zn756 Zn 0.24708 0.62949 0.48554
 N757 N 0.24661 0.60349 0.45047
 C758 C 0.29341 0.66092 0.45609
 N759 N 0.27635 0.65983 0.48167
 C760 C 0.27837 0.68154 0.50415
 C761 C 0.29827 0.70555 0.50144
 C762 C 0.31369 0.68442 0.45252
 C763 C 0.19238 0.64421 0.51474
 C764 C 0.16476 0.65833 0.51701
 C765 C 0.17398 0.68219 0.46858
 C766 C 0.20138 0.66765 0.46726
 N767 N 0.20979 0.64863 0.48981
 H768 H 0.29101 0.64389 0.43813
 H769 H 0.26421 0.68032 0.52405
 H770 H 0.29946 0.72246 0.51968
 H771 H 0.32696 0.68495 0.43189
 H772 H 0.19980 0.62973 0.53292
 H773 H 0.15105 0.65423 0.53682
 H774 H 0.16789 0.69695 0.45012
 H775 H 0.21594 0.67124 0.44802
 C776 C 0.24670 0.56276 0.40102
 C777 C 0.26503 0.56717 0.56844
 C778 C 0.15507 0.67735 0.49358
 C779 C 0.31617 0.70726 0.47522
 C780 C 0.76300 0.90516 0.46905
 H781 H 0.77431 0.88398 0.47083
 C782 C 0.76948 0.92361 0.44450
 H783 H 0.78608 0.91649 0.42808
 C784 C 0.72697 0.93946 0.48733
 H785 H 0.71006 0.94535 0.50374
 C786 C 0.73274 0.95865 0.46301
 H787 H 0.72030 0.97924 0.46141
 N788 N 0.74220 0.91333 0.49006
 C789 C 0.75445 0.89737 0.58372
 H790 H 0.77109 0.88077 0.57866
 C791 C 0.75315 0.90947 0.61363
 H792 H 0.76923 0.90210 0.63065
 C793 C 0.71221 0.92526 0.56840
 H794 H 0.69551 0.93038 0.55109
 C795 C 0.71000 0.93782 0.59808
 H796 H 0.69194 0.95308 0.60304
 Zn797 Zn 0.73367 0.88614 0.52204
 N798 N 0.73425 0.90546 0.56168
 C799 C 0.79147 0.86119 0.52582
 N800 N 0.76206 0.85469 0.52069
 C801 C 0.75278 0.82625 0.51339
 C802 C 0.77331 0.80295 0.51159
 C803 C 0.81270 0.83847 0.52474
 C804 C 0.68022 0.87261 0.48840
 C805 C 0.65287 0.85799 0.48322
 C806 C 0.65678 0.83762 0.53431
 C807 C 0.68401 0.85262 0.53851
 N808 N 0.69532 0.86933 0.51556
 H809 H 0.79841 0.88410 0.53078
 H810 H 0.72946 0.82154 0.50872
 H811 H 0.76534 0.78045 0.50618
 H812 H 0.83597 0.84397 0.52924
 H813 H 0.68975 0.88590 0.47044
 H814 H 0.64144 0.86034 0.46121
 H815 H 0.64858 0.82418 0.55283
 H816 H 0.69657 0.85044 0.55987
 C817 C 0.73049 0.92978 0.62125
 C818 C 0.75429 0.95074 0.44116
 C819 C 0.64104 0.83982 0.50615
 C820 C 0.80368 0.80895 0.51749
 C821 C -0.00627 0.30007 0.40275
 H822 H 0.01737 0.30509 0.40260
 C823 C -0.02608 0.32186 0.41277
 H824 H -0.01726 0.34332 0.42086
 C825 C -0.04599 0.26589 0.39184
 H826 H -0.05367 0.24442 0.38271
 C827 C -0.06679 0.28720 0.40196
 H828 H -0.09039 0.28180 0.40092
 N829 N -0.01632 0.27279 0.39242
 C830 C 0.06917 0.22700 0.39886
 H831 H 0.07228 0.22044 0.37496
 C832 C 0.09084 0.22005 0.42106
 H833 H 0.11067 0.20815 0.41404
 C834 C 0.03927 0.25000 0.43706
 H835 H 0.01880 0.26100 0.44338
 C836 C 0.06049 0.24376 0.45995
 H837 H 0.05601 0.25022 0.48361
 Zn838 Zn 0.01501 0.24941 0.37602
 N839 N 0.04404 0.24182 0.40713
 C840 C 0.05846 0.28654 0.34646
 N841 N 0.03096 0.27340 0.34484
 C842 C 0.01210 0.27777 0.32051
 C843 C 0.02084 0.29524 0.29602
 C844 C 0.06793 0.30481 0.32260
 C845 C -0.01709 0.19285 0.36938
 C846 C -0.02332 0.16514 0.35453
 C847 C 0.01298 0.17721 0.31616
 C848 C 0.01823 0.20453 0.33138
 N849 N 0.00310 0.21212 0.35729
 H850 H 0.07282 0.28322 0.36636
 H851 H -0.00983 0.26745 0.32017
 H852 H 0.00533 0.29846 0.27700
 H853 H 0.08976 0.31537 0.32410
 H854 H -0.02806 0.19874 0.39065
 H855 H -0.03942 0.14998 0.36428
 H856 H 0.02522 0.17216 0.29542
 H857 H 0.03500 0.21948 0.32268
 C858 C 0.08670 0.22855 0.45205
 C859 C -0.05683 0.31581 0.41196
 C860 C -0.00790 0.15698 0.32771
 C861 C 0.04908 0.30901 0.29687
 C862 C 1.05464 0.75747 0.10953
 H863 H 1.03656 0.76342 0.09418
 C864 C 1.08406 0.76095 0.09994
 H865 H 1.08826 0.76983 0.07736
 C866 C 1.07150 0.73804 0.15709
 H867 H 1.06649 0.72866 0.17920
 C868 C 1.10117 0.74063 0.14821
 H869 H 1.11871 0.73384 0.16397
 N870 N 1.04889 0.74635 0.13781
 C871 C 0.96539 0.71259 0.11195
 H872 H 0.96928 0.69292 0.12550
 C873 C 0.94319 0.71177 0.08896
 H874 H 0.93037 0.69132 0.08504
 C875 C 0.97655 0.76325 0.10130
 H876 H 0.98912 0.78352 0.10680
 C877 C 0.95454 0.76342 0.07807
 H878 H 0.95079 0.78389 0.06575
 Zn879 Zn 1.00942 0.73916 0.15147
 N880 N 0.98144 0.73814 0.11787
 C881 C 0.97273 0.78477 0.17719
 N882 N 0.99865 0.76943 0.18083
 C883 C 1.01726 0.77533 0.20538
 C884 C 1.01035 0.79770 0.22713
 C885 C 0.96509 0.80750 0.19823
 C886 C 1.02399 0.67871 0.15537
 C887 C 1.02791 0.65115 0.16938
 C888 C 1.00150 0.67031 0.21369
 C889 C 0.99839 0.69770 0.19894
 N890 N 1.00988 0.70143 0.17045
 H891 H 0.95778 0.77939 0.15805
 H892 H 1.03756 0.76272 0.20813
 H893 H 1.02577 0.80217 0.24616
 H894 H 0.94445 0.81955 0.19477
 H895 H 1.03299 0.68237 0.13275
 H896 H 1.03986 0.63355 0.15733
 H897 H 0.99289 0.66807 0.23668
 H898 H 0.98731 0.71613 0.21048
 C899 C 0.93725 0.73748 0.07189
 C900 C 1.10771 0.75215 0.11925
 C901 C 1.01687 0.64677 0.19902
 C902 C 0.98400 0.81425 0.22358
 C903 C 0.54546 0.26497 0.52107
 H904 H 0.52356 0.27377 0.51582
 C905 C 0.56871 0.26932 0.50070
 H906 H 0.56469 0.28161 0.47979
 C907 C 0.57760 0.23942 0.55547
 H908 H 0.58103 0.22834 0.57714
 C909 C 0.60182 0.24433 0.53625
 H910 H 0.62385 0.23680 0.54306
 N911 N 0.55003 0.24959 0.54746
 C912 C 0.45665 0.22728 0.56481
 H913 H 0.45393 0.23626 0.58796
 C914 C 0.43296 0.21198 0.54984
 H915 H 0.41198 0.20949 0.56156
 C916 C 0.48791 0.21773 0.52229
 H917 H 0.50963 0.21862 0.51203
 C918 C 0.46492 0.20246 0.50651
 H919 H 0.46936 0.19297 0.48392
 Zn920 Zn 0.51673 0.24598 0.57349
 N921 N 0.48351 0.22981 0.55090
 C922 C 0.48383 0.30008 0.58846
 N923 N 0.50998 0.28483 0.59012
 C924 C 0.53427 0.29667 0.60519
 C925 C 0.53283 0.32454 0.62010
 C926 C 0.48132 0.32817 0.60335
 C927 C 0.53580 0.19212 0.60118
 C928 C 0.53824 0.17172 0.62514
 C929 C 0.51585 0.20836 0.65928
 C930 C 0.51449 0.22825 0.63496
 N931 N 0.52420 0.21984 0.60652
 H932 H 0.46486 0.29039 0.57606
 H933 H 0.55475 0.28400 0.60613
 H934 H 0.55246 0.33277 0.63248
 H935 H 0.46026 0.33988 0.60239
 H936 H 0.54256 0.18565 0.57816
 H937 H 0.54711 0.14958 0.62054
 H938 H 0.50748 0.21529 0.68159
 H939 H 0.50456 0.25002 0.63856
 C940 C 0.43717 0.19881 0.52053
 C941 C 0.59729 0.25907 0.50836
 C942 C 0.52753 0.17960 0.65439
 C943 C 0.50602 0.34064 0.61962
 C944 C 0.48546 0.77416 0.92538
 H945 H 0.50819 0.78247 0.92533
 C946 C 0.46615 0.78400 0.94827
 H947 H 0.47453 0.79960 0.96586
 C948 C 0.44652 0.74608 0.90056
 H949 H 0.43874 0.73230 0.88120
 C950 C 0.42624 0.75586 0.92275
 H951 H 0.40305 0.74899 0.92065
 N952 N 0.47544 0.75560 0.90213
 C953 C 0.55879 0.73416 0.85645
 H954 H 0.55081 0.73812 0.83321
 C955 C 0.58866 0.72731 0.86169
 H956 H 0.60333 0.72565 0.84218
 C957 C 0.54895 0.73152 0.90983
 H958 H 0.53332 0.73315 0.92848
 C959 C 0.57884 0.72426 0.91613
 H960 H 0.58612 0.72066 0.93969
 Zn961 Zn 0.50107 0.74987 0.86846
 N962 N 0.53981 0.73708 0.88039
 C963 C 0.53008 0.80358 0.84979
 N964 N 0.50397 0.78778 0.84963
 C965 C 0.47863 0.79910 0.83688
 C966 C 0.47927 0.82657 0.82206
 C967 C 0.53163 0.83134 0.83554
 C968 C 0.47826 0.69297 0.84933
 C969 C 0.46993 0.67035 0.82791
 C970 C 0.47691 0.70554 0.78707
 C971 C 0.48481 0.72747 0.80919
 N972 N 0.48558 0.72086 0.83965
 H973 H 0.54975 0.79477 0.86101
 H974 H 0.45799 0.78645 0.83777
 H975 H 0.45889 0.83489 0.81173
 H976 H 0.55270 0.84338 0.83542
 H977 H 0.47960 0.68812 0.87365
 H978 H 0.46480 0.64809 0.83588
 H979 H 0.47687 0.71133 0.76297
 H980 H 0.49150 0.74944 0.80179
 C981 C 0.59922 0.72294 0.89191
 C982 C 0.43594 0.77534 0.94678
 C983 C 0.46988 0.67638 0.79629
 C984 C 0.50615 0.84287 0.82092
 C985 C 0.46796 -0.10483 0.29091
 C986 C 0.49048 -0.09132 0.27451
 C987 C 0.47756 -0.06737 0.26071
 C988 C 0.44811 -0.06804 0.26938
 O989 O 0.44229 -0.09066 0.28758
 H990 H 0.51366 -0.09758 0.27290
 H991 H 0.48834 -0.05153 0.24591
 C992 C 0.99629 0.35124 0.81263
 C993 C 1.02006 0.36850 0.80327
 C994 C 1.00765 0.39360 0.79119
 C995 C 0.97726 0.38963 0.79376
 O996 O 0.97033 0.36404 0.80680
 H997 H 1.04362 0.36381 0.80579
 H998 H 1.01933 0.41247 0.78163
 C999 C 0.01933 1.13027 0.79634
 C1000 C 0.00314 1.12733 0.76902
 C1001 C 0.01324 1.10181 0.75507
 C1002 C 0.03486 1.09089 0.77484
 O1003 O 0.03853 1.10812 0.79988
 H1004 H -0.01366 1.14216 0.75991
 H1005 H 0.00555 1.09230 0.73316
 C1006 C 0.51001 0.68180 0.28502
 C1007 C 0.49522 0.67459 0.25760
 C1008 C 0.50939 0.65002 0.24595
 C1009 C 0.53187 0.64391 0.26706
 O1010 O 0.53221 0.66322 0.29067
 H1011 H 0.47648 0.68581 0.24703
 H1012 H 0.50374 0.63819 0.22459
 C1013 C 0.52168 0.38767 0.21935
 C1014 C 0.50159 0.39750 0.24102
 C1015 C 0.51204 0.42470 0.25118
 C1016 C 0.53791 0.42964 0.23506
 O1017 O 0.54362 0.40722 0.21552
 H1018 H 0.48147 0.38642 0.24841
 H1019 H 0.50170 0.43899 0.26831
 C1020 C 0.00568 0.83531 0.68317
 C1021 C -0.01459 0.84415 0.70509
 C1022 C -0.00423 0.87097 0.71651
 C1023 C 0.02176 0.87648 0.70088
 O1024 O 0.02781 0.85486 0.68056
 H1025 H -0.03472 0.83259 0.71171
 H1026 H -0.01406 0.88447 0.73466
 C1027 C 0.90982 0.62507 0.65983
 C1028 C 0.87946 0.62465 0.65418
 C1029 C 0.86885 0.60091 0.66970
 C1030 C 0.89345 0.58846 0.68402
 O1031 O 0.91856 0.60290 0.67769
 H1032 H 0.86655 0.64000 0.64042
 H1033 H 0.84578 0.59369 0.67038
 C1034 C 0.41904 0.18875 0.21320
 C1035 C 0.39633 0.20061 0.23063
 C1036 C 0.38042 0.17661 0.24026
 C1037 C 0.39448 0.15172 0.22795
 O1038 O 0.41801 0.15909 0.21156
 H1039 H 0.39183 0.22399 0.23569
 H1040 H 0.36050 0.17742 0.25397
 C1041 C 0.31961 0.41253 -0.19214
 C1042 C 0.29791 0.39346 -0.20452
 C1043 C 0.28338 0.38232 -0.18001
 C1044 C 0.29712 0.39539 -0.15423
 O1045 O 0.31907 0.41384 -0.16162
 H1046 H 0.29290 0.38840 -0.22857
 H1047 H 0.26519 0.36628 -0.18119
 C1048 C 0.78219 0.98450 0.37464
 C1049 C 0.76145 1.00627 0.38174
 C1050 C 0.74786 0.99680 0.40775
 C1051 C 0.76127 0.96992 0.41471
 O1052 O 0.78199 0.96255 0.39461
 H1053 H 0.75662 1.02665 0.36963
 H1054 H 0.73033 1.00829 0.41996
 C1055 C 0.81043 0.00672 1.14648
 C1056 C 0.79979 -0.01552 1.12623
 C1057 C 0.79011 -0.00092 1.10062
 C1058 C 0.79499 0.02906 1.10729
 O1059 O 0.80733 0.03375 1.13488
 H1060 H 0.79962 -0.03954 1.12918
 H1061 H 0.78005 -0.01083 1.07990
 C1062 C 0.29242 0.52582 0.63104
 C1063 C 0.26381 0.51405 0.63025
 C1064 C 0.24954 0.52783 0.60658
 C1065 C 0.27043 0.54705 0.59457
 O1066 O 0.29643 0.54583 0.60940
 H1067 H 0.25439 0.49720 0.64484
 H1068 H 0.22655 0.52437 0.59932
 C1069 C 0.22972 0.51788 0.33502
 C1070 C 0.25699 0.50513 0.34181
 C1071 C 0.26751 0.52023 0.36752
 C1072 C 0.24588 0.54111 0.37460
 O1073 O 0.22309 0.53962 0.35488
 H1074 H 0.26810 0.48713 0.32960
 H1075 H 0.28837 0.51618 0.37956
 C1076 C 0.64446 0.09032 0.88504
 C1077 C 0.62672 0.11217 0.89847
 C1078 C 0.64375 0.12503 0.92149
 C1079 C 0.67046 0.10999 0.92093
 O1080 O 0.67105 0.08896 0.89890
 H1081 H 0.60434 0.11876 0.89204
 H1082 H 0.63727 0.14288 0.93725
 C1083 C 0.70661 0.96129 0.69187
 C1084 C 0.73243 0.94853 0.70311
 C1085 C 0.74557 0.93556 0.67810
 C1086 C 0.72675 0.94124 0.65332
 O1087 O 0.70324 0.95702 0.66172
 H1088 H 0.74072 0.94854 0.72669
 H1089 H 0.76622 0.92318 0.67831
 C1090 C 0.21880 0.47758 0.11061
 C1091 C 0.23058 0.50156 0.09512
 C1092 C 0.24416 0.48929 0.06993
 C1093 C 0.23977 0.45872 0.07193
 O1094 O 0.22446 0.45169 0.09655
 H1095 H 0.22913 0.52519 0.10098
 H1096 H 0.25585 0.50132 0.05237
 C1097 C -0.11645 0.36156 0.43629
 C1098 C -0.09658 0.38413 0.42922
 C1099 C -0.07179 0.36998 0.41909
 C1100 C -0.07810 0.33970 0.42055
 O1101 O -0.10534 0.33451 0.43070
 H1102 H -0.09962 0.40813 0.43085
 H1103 H -0.05167 0.38065 0.41116
 C1104 C 0.37478 0.80771 0.98476
 C1105 C 0.39620 0.81416 1.00723
 C1106 C 0.42179 0.80172 0.99670
 C1107 C 0.41426 0.78862 0.96844
 O1108 O 0.38559 0.79195 0.96131
 H1109 H 0.39355 0.82679 1.02859
 H1110 H 0.44344 0.80267 1.00812
 C1111 C 1.17579 0.77064 0.08465
 C1112 C 1.18688 0.74909 0.10406
 C1113 C 1.16287 0.73911 0.11993
 C1114 C 1.13886 0.75521 0.10896
 O1115 O 1.14670 0.77426 0.08759
 H1116 H 1.20973 0.74185 0.10686
 H1117 H 1.16295 0.72202 0.13724
 C1118 C 0.66259 0.28654 0.47536
 C1119 C 0.64812 0.27769 0.44817
 C1120 C 0.62202 0.26476 0.45693
 C1121 C 0.62263 0.26633 0.48871
 O1122 O 0.64712 0.27941 0.49990
 H1123 H 0.65471 0.28167 0.42474
 H1124 H 0.60413 0.25633 0.44197
 C1125 C 0.37306 0.15632 0.49939
 C1126 C 0.39170 0.14474 0.47725
 C1127 C 0.41792 0.15987 0.48133
 C1128 C 0.41352 0.17963 0.50586
 O1129 O 0.38614 0.17754 0.51677
 H1130 H 0.38683 0.12706 0.46037
 H1131 H 0.43804 0.15593 0.46851
 C1132 C 0.87351 0.72198 0.02516
 C1133 C 0.87832 0.75084 0.01543
 C1134 C 0.90342 0.76063 0.03092
 C1135 C 0.91212 0.73705 0.04912
 O1136 O 0.89402 0.71362 0.04544
 H1137 H 0.86510 0.76341 -0.00084
 H1138 H 0.91365 0.78255 0.02931
 C1139 C 0.67172 0.70358 0.91785
 C1140 C 0.67964 0.71904 0.89191
 C1141 C 0.65362 0.72832 0.87899
 C1142 C 0.63146 0.71805 0.89785
 O1143 O 0.64239 0.70328 0.92171
 H1144 H 0.70171 0.72341 0.88331
 H1145 H 0.65123 0.74140 0.85839
 C1146 C 0.14553 0.19860 0.49654
 C1147 C 0.13523 0.21842 0.51880
 C1148 C 0.11171 0.23265 0.50527
 C1149 C 0.10936 0.22056 0.47571
 O1150 O 0.12987 0.20001 0.47047
 H1151 H 0.14343 0.22196 0.54220
 H1152 H 0.09808 0.24982 0.51582
 C1153 C 0.53816 0.12077 0.70625
 C1154 C 0.51183 0.13154 0.71806
 C1155 C 0.50464 0.15547 0.70056
 C1156 C 0.52696 0.15741 0.67914
 O1157 O 0.54739 0.13639 0.68256
 H1158 H 0.49959 0.12326 0.73745
 H1159 H 0.48517 0.16951 0.70280
 C1160 C 1.04481 0.57836 0.22606
 C1161 C 1.02281 0.58210 0.24776
 C1162 C 1.00879 0.60810 0.24042
 C1163 C 1.02314 0.61834 0.21475
 O1164 O 1.04483 0.60027 0.20600
 H1165 H 1.01760 0.56793 0.26688
 H1166 H 0.99040 0.61828 0.25251
 C1167 C 0.95465 0.87677 0.26390
 C1168 C 0.97507 0.86844 0.28632
 C1169 C 0.98897 0.84376 0.27444
 C1170 C 0.97606 0.83870 0.24562
 O1171 O 0.95527 0.85868 0.23929
 H1172 H 0.97969 0.87905 0.30856
 H1173 H 1.00630 0.83105 0.28570
 C1174 C 0.48430 0.40575 0.66099
 C1175 C 0.51455 0.40841 0.66667
 C1176 C 0.52700 0.38502 0.65109
 C1177 C 0.50339 0.36947 0.63711
 O1178 O 0.47743 0.38231 0.64289
 H1179 H 0.52616 0.42536 0.68063
 H1180 H 0.55053 0.37998 0.65052
 C1181 C 0.45187 0.61051 0.75305
 C1182 C 0.46744 0.62511 0.73060
 C1183 C 0.47557 0.65203 0.74352
 C1184 C 0.46450 0.65200 0.77306
 O1185 O 0.45002 0.62676 0.77889
 H1186 H 0.47220 0.61713 0.70747
 H1187 H 0.48874 0.66922 0.73283
 C1188 C -0.03429 0.08820 0.29517
 C1189 C -0.00649 0.08828 0.28193
 C1190 C 0.00722 0.11375 0.29273
 C1191 C -0.01310 0.12758 0.31185
 O1192 O -0.03823 0.11192 0.31363
 H1193 H 0.00296 0.07170 0.26645
 H1194 H 0.02954 0.12112 0.28735
 C1195 C 0.07786 0.36409 0.24827
 C1196 C 0.06035 0.34893 0.22640
 C1197 C 0.04763 0.32583 0.24151
 C1198 C 0.05832 0.32841 0.27150
 O1199 O 0.07684 0.35144 0.27559
 H1200 H 0.05696 0.35400 0.20232
 H1201 H 0.03232 0.30917 0.23177
 C1202 C 0.52516 0.91176 0.78773
 C1203 C 0.49980 0.90583 0.77008
 C1204 C 0.48865 0.87960 0.78071
 C1205 C 0.50811 0.87128 0.80400
 O1206 O 0.53025 0.89085 0.80832
 H1207 H 0.49060 0.91899 0.75159
 H1208 H 0.46916 0.86763 0.77180
 C1209 C 0.73341 0.60474 0.13025
 C1210 C 0.75195 0.61008 0.15582
 C1211 C 0.73900 0.59578 0.17948
 C1212 C 0.71335 0.58278 0.16717
 O1213 O 0.70983 0.58818 0.13737
 H1214 H 0.77272 0.62250 0.15761
 H1215 H 0.74700 0.59565 0.20316
 C1216 C 0.22939 1.04385 0.63398
 C1217 C 0.24999 1.04433 0.65815
 C1218 C 0.23588 1.03155 0.68214
 C1219 C 0.20775 1.02406 0.67100
 O1220 O 0.20379 1.03137 0.64181
 H1221 H 0.27242 1.05339 0.65879
 H1222 H 0.24501 1.02829 0.70507
 C1223 C 0.16313 0.87312 0.89145
 C1224 C 0.13618 0.85804 0.88644
 C1225 C 0.12150 0.87336 0.86420
 C1226 C 0.14027 0.89660 0.85683
 O1227 O 0.16559 0.89645 0.87308
 H1228 H 0.12746 0.83854 0.89769
 H1229 H 0.09972 0.86798 0.85433
 C1230 C 0.71183 0.49327 0.41412
 C1231 C 0.71971 0.52298 0.41948
 C1232 C 0.70637 0.53840 0.39628
 C1233 C 0.69124 0.51708 0.37835
 O1234 O 0.69448 0.48978 0.38925
 H1235 H 0.73352 0.53253 0.43792
 H1236 H 0.70757 0.56236 0.39311
 C1237 C 0.76466 0.41934 0.62545
 C1238 C 0.74037 0.42327 0.64424
 C1239 C 0.75202 0.43012 0.67281
 C1240 C 0.78263 0.42991 0.66946
 O1241 O 0.79022 0.42325 0.64076
 H1242 H 0.71695 0.42132 0.63805
 H1243 H 0.73943 0.43505 0.69333
 C1244 C 0.26008 -0.03476 0.08272
 C1245 C 0.24718 -0.00689 0.07993
 C1246 C 0.25847 0.00998 0.10415
 C1247 C 0.27751 -0.00880 0.11987
 O1248 O 0.27843 -0.03581 0.10685
 H1249 H 0.23130 0.00035 0.06263
 H1250 H 0.25349 0.03321 0.10938
 C1251 C 0.25183 0.02642 0.39381
 C1252 C 0.23444 0.00219 0.38420
 C1253 C 0.24532 -0.00631 0.35606
 C1254 C 0.26873 0.01316 0.35098
 O1255 O 0.27260 0.03294 0.37377
 H1256 H 0.21571 -0.00760 0.39586
 H1257 H 0.23730 -0.02455 0.34120
 C1258 C 0.80395 0.52820 0.92641
 C1259 C 0.79963 0.49846 0.93350
 C1260 C 0.81134 0.48237 0.90955
 C1261 C 0.82201 0.50341 0.88947
 O1262 O 0.81756 0.53113 0.89979
 H1263 H 0.78929 0.48933 0.95363
 H1264 H 0.81186 0.45820 0.90727
 C1265 C 0.08341 0.70388 0.51232
 C1266 C 0.08519 0.71650 0.48358
 C1267 C 0.11229 0.70851 0.47262
 C1268 C 0.12534 0.69159 0.49542
 O1269 O 0.10782 0.68885 0.51954
 H1270 H 0.06897 0.73024 0.47188
 H1271 H 0.12111 0.71438 0.45050
 C1272 C 0.63804 0.22644 1.13149
 C1273 C 0.66112 0.23694 1.15038
 C1274 C 0.68651 0.22635 1.13727
 C1275 C 0.67703 0.20995 1.11153
 O1276 O 0.64767 0.21002 1.10796
 H1277 H 0.65970 0.25119 1.17081
 H1278 H 0.70917 0.22988 1.14567
 C1279 C 0.91149 0.22306 0.97953
 C1280 C 0.90902 0.23908 1.00720
 C1281 C 0.88485 0.22732 1.02129
 C1282 C 0.87392 0.20524 1.00136
 O1283 O 0.88990 0.20263 0.97607
 H1284 H 0.92310 0.25689 1.01668
 H1285 H 0.87600 0.23436 1.04334
 C1286 C 0.37155 0.75806 0.45170
 C1287 C 0.36126 0.77515 0.47623
 C1288 C 0.33902 0.75853 0.48868
 C1289 C 0.33728 0.73247 0.47090
 O1290 O 0.35696 0.73227 0.44851
 H1291 H 0.36896 0.79698 0.48441
 H1292 H 0.32570 0.76496 0.50827
 C1293 C 0.57524 0.80584 0.47581
 C1294 C 0.57618 0.79068 0.50322
 C1295 C 0.60070 0.80163 0.51883
 C1296 C 0.61303 0.82272 0.49982
 O1297 O 0.59749 0.82529 0.47380
 H1298 H 0.56088 0.77375 0.51110
 H1299 H 0.60862 0.79456 0.54119
 C1300 C 0.12719 0.25174 -0.03526
 C1301 C 0.14048 0.23047 -0.01694
 C1302 C 0.16732 0.24260 -0.00778
 C1303 C 0.16850 0.27041 -0.02110
 O1304 O 0.14418 0.27594 -0.03763
 H1305 H 0.13208 0.20854 -0.01122
 H1306 H 0.18397 0.23224 0.00677
 C1307 C 0.43039 0.28205 0.03160
 C1308 C 0.42865 0.26334 0.00587
 C1309 C 0.40385 0.27213 -0.01004
 C1310 C 0.39213 0.29555 0.00723
 O1311 O 0.40839 0.30161 0.03238
 H1312 H 0.44346 0.24525 -0.00044
 H1313 H 0.39529 0.26207 -0.03134
 C1314 C 0.86487 0.76088 0.52744
 C1315 C 0.84773 0.74179 0.50871
 C1316 C 0.82243 0.75728 0.50200
 C1317 C 0.82594 0.78471 0.51702
 O1318 O 0.85167 0.78695 0.53228
 H1319 H 0.85261 0.71916 0.50102
 H1320 H 0.80373 0.74940 0.48786
   
