data_POSCAR
  _audit_creation_date              2014-09-24
  _audit_creation_method            'ToBaCCo'
  _symmetry_space_group_name_H-M    'P1'
  _symmetry_Int_Tables_number       1
  _symmetry_cell_setting            triclinic
  loop_
  _symmetry_equiv_pos_as_xyz
 x,y,z
_cell_length_a 48.2075
_cell_length_b 47.4806
_cell_length_c 59.1121
_cell_angle_alpha 89.833100
_cell_angle_beta 90.201500
_cell_angle_gamma 90.006800
loop_
  _atom_site_label
  _atom_site_type_symbol
  _atom_site_fract_x
  _atom_site_fract_y
  _atom_site_fract_z
Zr1 Zr 0.24707 0.25147 0.29178
 O2 O 0.26681 0.27230 0.31910
 O3 O 0.21947 0.22497 0.30907
 O4 O 0.21988 0.27806 0.30953
 O5 O 0.29966 0.20255 0.28499
 O6 O 0.20122 0.30674 0.28246
 O7 O 0.27253 0.22458 0.31108
 O8 O 0.19491 0.20419 0.28066
 O9 O 0.21171 0.25448 0.27131
 O10 O 0.24709 0.21522 0.27183
 O11 O 0.25181 0.28921 0.27354
 O12 O 0.28537 0.25157 0.27463
 Zr13 Zr 0.25393 0.25589 0.21318
 Zr14 Zr 0.21746 0.29100 0.25180
 Zr15 Zr 0.28378 0.21627 0.25338
 Zr16 Zr 0.21288 0.21904 0.25052
 O17 O 0.32768 0.21711 0.25307
 O18 O 0.16991 0.22840 0.24884
 O19 O 0.24947 0.21776 0.23135
 O20 O 0.21610 0.25549 0.23084
 O21 O 0.25428 0.29241 0.23298
 O22 O 0.28893 0.25265 0.23406
 C23 C 0.20067 0.20808 0.30169
 C24 C 0.29245 0.20794 0.30555
 C25 C 0.20451 0.29885 0.30320
 O26 O 0.17367 0.28961 0.24970
 O27 O 0.20452 0.30817 0.22052
 O28 O 0.22984 0.28471 0.19408
 C29 C 0.21121 0.30279 0.19987
 O30 O 0.30498 0.30215 0.28603
 Zr31 Zr 0.28833 0.28801 0.25470
 O32 O 0.28262 0.28165 0.19609
 O33 O 0.22333 0.33512 0.25299
 O34 O 0.28409 0.33246 0.25515
 O35 O 0.33155 0.27978 0.25614
 O36 O 0.30589 0.30343 0.22479
 C37 C 0.30135 0.29848 0.20376
 O38 O 0.23271 0.23699 0.18567
 O39 O 0.27833 0.17206 0.25458
 O40 O 0.27829 0.22663 0.19517
 O41 O 0.29693 0.19841 0.22257
 O42 O 0.21584 0.17447 0.25041
 O43 O 0.19820 0.20269 0.21924
 C44 C 0.29287 0.20532 0.20169
 H45 H 0.24635 0.19760 0.28080
 H46 H 0.20005 0.25610 0.22037
 H47 H 0.30647 0.25139 0.22547
 H48 H 0.25256 0.30569 0.28374
 H49 H 0.15967 0.21073 0.25197
 H50 H 0.16708 0.30936 0.25029
 H51 H 0.20467 0.34379 0.25184
 H52 H 0.30266 0.34067 0.25230
 H53 H 0.19696 0.16686 0.25300
 H54 H 0.29711 0.16367 0.25557
 H55 H 0.33399 0.19725 0.25290
 H56 H 0.34135 0.29781 0.25337
 H57 H 0.18137 0.19122 0.22192
 H58 H 0.24123 0.24414 0.17149
 H59 H 0.25871 0.26482 0.33332
 H60 H 0.31852 0.31744 0.28323
 Zr61 Zr 0.74800 0.76022 0.28830
 O62 O 0.73041 0.73787 0.31583
 O63 O 0.77111 0.79122 0.30525
 O64 O 0.77759 0.73824 0.30810
 O65 O 0.68851 0.79918 0.27757
 O66 O 0.80357 0.71467 0.28215
 O67 O 0.71717 0.78318 0.30559
 O68 O 0.79142 0.81576 0.27651
 O69 O 0.78421 0.76287 0.26888
 O70 O 0.74264 0.79493 0.26683
 O71 O 0.75084 0.72154 0.27123
 O72 O 0.71115 0.75256 0.26988
 Zr73 Zr 0.74559 0.75108 0.20975
 Zr74 Zr 0.78594 0.72514 0.25058
 Zr75 Zr 0.70763 0.78651 0.24720
 Zr76 Zr 0.77780 0.79651 0.24660
 O77 O 0.66471 0.77744 0.24529
 O78 O 0.82178 0.79537 0.24643
 O79 O 0.74258 0.79023 0.22636
 O80 O 0.78202 0.75921 0.22825
 O81 O 0.75077 0.71622 0.23102
 O82 O 0.70956 0.74882 0.22923
 C83 C 0.78671 0.81101 0.29755
 C84 C 0.69522 0.79613 0.29858
 C85 C 0.79717 0.72107 0.30265
 O86 O 0.82883 0.73436 0.24917
 O87 O 0.80256 0.70838 0.22040
 O88 O 0.77417 0.72533 0.19262
 C89 C 0.79516 0.71083 0.19949
 O90 O 0.69908 0.70137 0.28285
 Zr91 Zr 0.71550 0.71523 0.25140
 O92 O 0.72336 0.71937 0.19291
 O93 O 0.78787 0.68080 0.25385
 O94 O 0.72692 0.67237 0.25555
 O95 O 0.67156 0.71484 0.24941
 O96 O 0.70496 0.69363 0.22174
 C97 C 0.70954 0.69829 0.20068
 O98 O 0.76472 0.77210 0.18224
 O99 O 0.70485 0.83102 0.24707
 O100 O 0.71749 0.77443 0.18979
 O101 O 0.69405 0.80132 0.21530
 O102 O 0.76669 0.83967 0.24470
 O103 O 0.79072 0.81395 0.21519
 C104 C 0.70015 0.79403 0.19490
 H105 H 0.74002 0.81278 0.27517
 H106 H 0.79832 0.76087 0.21819
 H107 H 0.69268 0.74624 0.21986
 H108 H 0.75247 0.70559 0.28197
 H109 H 0.82849 0.81479 0.24918
 H110 H 0.83875 0.71617 0.25074
 H111 H 0.80779 0.67562 0.25370
 H112 H 0.71018 0.66078 0.25269
 H113 H 0.78367 0.85088 0.24760
 H114 H 0.68484 0.83580 0.24693
 H115 H 0.65502 0.79577 0.24400
 H116 H 0.66572 0.69504 0.24715
 H117 H 0.80480 0.82874 0.21794
 H118 H 0.75829 0.76288 0.16811
 H119 H 0.73641 0.74733 0.32998
 H120 H 0.68779 0.68420 0.28047
 Zr121 Zr 0.75784 0.24636 -0.29180
 O122 O 0.74056 0.26689 -0.32045
 O123 O 0.78544 0.21825 -0.30731
 O124 O 0.78663 0.27152 -0.30956
 O125 O 0.70090 0.20248 -0.28528
 O126 O 0.80756 0.29771 -0.28211
 O127 O 0.73120 0.22055 -0.31110
 O128 O 0.80649 0.19617 -0.27763
 O129 O 0.79234 0.24704 -0.27020
 O130 O 0.75405 0.21084 -0.27105
 O131 O 0.75544 0.28492 -0.27449
 O132 O 0.71898 0.25017 -0.27576
 Zr133 Zr 0.74777 0.25402 -0.21367
 Zr134 Zr 0.78885 0.28447 -0.25169
 Zr135 Zr 0.71675 0.21553 -0.25365
 Zr136 Zr 0.78733 0.21250 -0.24862
 O137 O 0.67306 0.21999 -0.25430
 O138 O 0.83078 0.21783 -0.24478
 O139 O 0.74999 0.21497 -0.23061
 O140 O 0.78627 0.24974 -0.22990
 O141 O 0.75141 0.28974 -0.23423
 O142 O 0.71361 0.25296 -0.23551
 C143 C 0.80304 0.20070 -0.29890
 C144 C 0.70946 0.20623 -0.30572
 C145 C 0.80361 0.29082 -0.30296
 O146 O 0.83222 0.27909 -0.24831
 O147 O 0.80190 0.30142 -0.22039
 O148 O 0.77246 0.28201 -0.19457
 C149 C 0.79312 0.29787 -0.19999
 O150 O 0.70374 0.30101 -0.28918
 Zr151 Zr 0.71813 0.28750 -0.25689
 O152 O 0.71998 0.28205 -0.19819
 O153 O 0.78713 0.32891 -0.25397
 O154 O 0.72629 0.33132 -0.25903
 O155 O 0.67435 0.28353 -0.25875
 O156 O 0.70151 0.30632 -0.22793
 C157 C 0.70391 0.30099 -0.20671
 O158 O 0.76633 0.23459 -0.18506
 O159 O 0.71866 0.17101 -0.25412
 O160 O 0.72036 0.22773 -0.19578
 O161 O 0.70142 0.19925 -0.22276
 O162 O 0.78049 0.16837 -0.24842
 O163 O 0.79837 0.19554 -0.21651
 C164 C 0.70492 0.20700 -0.20203
 H165 H 0.75403 0.19304 -0.27973
 H166 H 0.80173 0.24937 -0.21885
 H167 H 0.69566 0.25351 -0.22744
 H168 H 0.75637 0.30115 -0.28499
 H169 H 0.83960 0.19920 -0.24704
 H170 H 0.84058 0.29814 -0.24900
 H171 H 0.80649 0.33580 -0.25270
 H172 H 0.70840 0.34130 -0.25713
 H173 H 0.79876 0.15909 -0.25022
 H174 H 0.69930 0.16420 -0.25547
 H175 H 0.66518 0.20073 -0.25371
 H176 H 0.66632 0.30260 -0.25694
 H177 H 0.81373 0.18191 -0.21832
 H178 H 0.75772 0.24284 -0.17136
 H179 H 0.74885 0.25829 -0.33415
 H180 H 0.69154 0.31762 -0.28738
 Zr181 Zr 0.24485 0.75702 -0.28870
 O182 O 0.26295 0.73628 -0.31670
 O183 O 0.21778 0.78520 -0.30526
 O184 O 0.21620 0.73297 -0.30754
 O185 O 0.30191 0.79970 -0.27956
 O186 O 0.19351 0.70649 -0.28119
 O187 O 0.27356 0.78202 -0.30689
 O188 O 0.19692 0.80817 -0.27627
 O189 O 0.20930 0.75702 -0.26845
 O190 O 0.24832 0.79226 -0.26779
 O191 O 0.24545 0.71829 -0.27128
 O192 O 0.28261 0.75191 -0.27093
 Zr193 Zr 0.25013 0.74881 -0.20996
 Zr194 Zr 0.21082 0.71933 -0.24999
 Zr195 Zr 0.28439 0.78628 -0.24879
 Zr196 Zr 0.21393 0.79127 -0.24666
 O197 O 0.32792 0.78056 -0.24791
 O198 O 0.17017 0.78737 -0.24468
 O199 O 0.25005 0.78783 -0.22713
 O200 O 0.21281 0.75388 -0.22804
 O201 O 0.24689 0.71330 -0.23075
 O202 O 0.28560 0.74885 -0.23022
 C203 C 0.20013 0.80309 -0.29743
 C204 C 0.29512 0.79615 -0.30050
 C205 C 0.19852 0.71391 -0.30178
 O206 O 0.16740 0.72536 -0.24835
 O207 O 0.19612 0.70206 -0.21935
 O208 O 0.22311 0.72183 -0.19202
 C209 C 0.20299 0.70572 -0.19842
 O210 O 0.29816 0.70119 -0.28327
 Zr211 Zr 0.28151 0.71461 -0.25184
 O212 O 0.27537 0.71929 -0.19325
 O213 O 0.21216 0.67491 -0.25240
 O214 O 0.27270 0.67104 -0.25519
 O215 O 0.32540 0.71762 -0.25081
 O216 O 0.29450 0.69429 -0.22209
 C217 C 0.29048 0.69919 -0.20099
 O218 O 0.23059 0.76841 -0.18206
 O219 O 0.28370 0.83086 -0.24900
 O220 O 0.27669 0.77521 -0.19089
 O221 O 0.29866 0.80180 -0.21754
 O222 O 0.22178 0.83523 -0.24624
 O223 O 0.20183 0.80825 -0.21495
 C224 C 0.29331 0.79517 -0.19686
 H225 H 0.24923 0.81008 -0.27650
 H226 H 0.19664 0.75455 -0.21777
 H227 H 0.30292 0.74769 -0.22121
 H228 H 0.24475 0.70220 -0.28186
 H229 H 0.16210 0.80634 -0.24716
 H230 H 0.15884 0.70641 -0.24923
 H231 H 0.19271 0.66819 -0.25171
 H232 H 0.29016 0.66058 -0.25233
 H233 H 0.20380 0.84495 -0.24860
 H234 H 0.30327 0.83720 -0.24957
 H235 H 0.33630 0.79958 -0.24692
 H236 H 0.33277 0.69840 -0.24820
 H237 H 0.18692 0.82230 -0.21730
 H238 H 0.23826 0.75979 -0.16804
 H239 H 0.25543 0.74513 -0.33068
 H240 H 0.31057 0.68485 -0.28074
 Zr241 Zr 1.24285 1.25118 0.78927
 O242 O 1.22408 1.23085 0.81728
 O243 O 1.26996 1.27918 0.80560
 O244 O 1.27112 1.22678 0.80826
 O245 O 1.18798 1.29674 0.78000
 O246 O 1.29158 1.19814 0.78229
 O247 O 1.21545 1.27734 0.80737
 O248 O 1.29349 1.29954 0.77650
 O249 O 1.27834 1.24913 0.76907
 O250 O 1.24118 1.28640 0.76804
 O251 O 1.24014 1.21243 0.77231
 O252 O 1.20479 1.24817 0.77171
 Zr253 Zr 1.23682 1.24272 0.71059
 Zr254 Zr 1.27469 1.21146 0.75096
 Zr255 Zr 1.20478 1.28238 0.74922
 Zr256 Zr 1.27551 1.28340 0.74696
 O257 O 1.16102 1.27891 0.74831
 O258 O 1.31895 1.27677 0.74501
 O259 O 1.23915 1.28178 0.72751
 O260 O 1.27440 1.24591 0.72866
 O261 O 1.23822 1.20729 0.73182
 O262 O 1.20150 1.24497 0.73098
 C263 C 1.28860 1.29584 0.79763
 C264 C 1.19478 1.29259 0.80087
 C265 C 1.28769 1.20667 0.80274
 O266 O 1.31837 1.21508 0.74927
 O267 O 1.28876 1.19349 0.72052
 O268 O 1.26286 1.21452 0.69290
 C269 C 1.28223 1.19767 0.69962
 O270 O 1.18706 1.19798 0.78464
 Zr271 Zr 1.20380 1.21078 0.75301
 O272 O 1.21030 1.21393 0.69430
 O273 O 1.27085 1.16720 0.75370
 O274 O 1.21024 1.16673 0.75597
 O275 O 1.16018 1.21667 0.75290
 O276 O 1.18843 1.19194 0.72358
 C277 C 1.19330 1.19565 0.70245
 O278 O 1.25694 1.26102 0.68231
 O279 O 1.20766 1.32687 0.74919
 O280 O 1.21165 1.27064 0.69138
 O281 O 1.19147 1.29864 0.71793
 O282 O 1.27012 1.32772 0.74611
 O283 O 1.28857 1.29953 0.71515
 C284 C 1.19631 1.29166 0.69728
 H285 H 1.24111 1.30437 0.77650
 H286 H 1.29058 1.24572 0.71840
 H287 H 1.18410 1.24477 0.72202
 H288 H 1.24015 1.19643 0.78308
 H289 H 1.32815 1.29519 0.74743
 H290 H 1.32597 1.19574 0.75045
 H291 H 1.28990 1.15939 0.75313
 H292 H 1.19216 1.15734 0.75332
 H293 H 1.28860 1.33642 0.74847
 H294 H 1.18843 1.33419 0.74971
 H295 H 1.15360 1.29833 0.74731
 H296 H 1.15147 1.19797 0.75063
 H297 H 1.30439 1.31254 0.71741
 H298 H 1.24876 1.25256 0.66845
 H299 H 1.23184 1.23940 0.83125
 H300 H 1.17399 1.18216 0.78229
 Zr301 Zr 0.74607 0.74941 0.78733
 O302 O 0.76300 0.77050 0.81576
 O303 O 0.71968 0.71996 0.80308
 O304 O 0.71662 0.77338 0.80550
 O305 O 0.80480 0.70795 0.78031
 O306 O 0.69389 0.79837 0.77818
 O307 O 0.77391 0.72447 0.80627
 O308 O 0.70034 0.69643 0.77342
 O309 O 0.71128 0.74839 0.76606
 O310 O 0.75144 0.71434 0.76646
 O311 O 0.74651 0.78811 0.76990
 O312 O 0.78454 0.75530 0.77086
 Zr313 Zr 0.75451 0.75790 0.70908
 Zr314 Zr 0.71270 0.78611 0.74758
 Zr315 Zr 0.78827 0.72097 0.74873
 Zr316 Zr 0.71780 0.71433 0.74437
 O317 O 0.83162 0.72796 0.74904
 O318 O 0.67407 0.71744 0.74121
 O319 O 0.75470 0.71875 0.72606
 O320 O 0.71656 0.75169 0.72573
 O321 O 0.74949 0.79322 0.72971
 O322 O 0.78924 0.75860 0.73034
 C323 C 0.70343 0.70114 0.79464
 C324 C 0.79605 0.71091 0.80079
 C325 C 0.69859 0.79182 0.79902
 O326 O 0.66952 0.77894 0.74471
 O327 O 0.69834 0.80257 0.71645
 O328 O 0.72792 0.78436 0.69026
 C329 C 0.70681 0.79936 0.69595
 O330 O 0.79827 0.80629 0.78384
 Zr331 Zr 0.78339 0.79267 0.75179
 O332 O 0.77892 0.78853 0.69303
 O333 O 0.71277 0.83056 0.74977
 O334 O 0.77367 0.83606 0.75485
 O335 O 0.82734 0.79071 0.75224
 O336 O 0.79717 0.81336 0.72241
 C337 C 0.79343 0.80886 0.70118
 O338 O 0.73663 0.73723 0.68084
 O339 O 0.78892 0.67640 0.74913
 O340 O 0.78314 0.73352 0.69084
 O341 O 0.80356 0.70552 0.71756
 O342 O 0.72678 0.67061 0.74387
 O343 O 0.70713 0.69724 0.71230
 C344 C 0.79936 0.71327 0.69686
 H345 H 0.75243 0.69645 0.77507
 H346 H 0.70091 0.75057 0.71489
 H347 H 0.80683 0.76036 0.72184
 H348 H 0.74501 0.80422 0.78040
 H349 H 0.66627 0.69833 0.74344
 H350 H 0.66042 0.79764 0.74543
 H351 H 0.69315 0.83669 0.74875
 H352 H 0.79107 0.84683 0.75258
 H353 H 0.70899 0.66036 0.74555
 H354 H 0.80867 0.67070 0.75005
 H355 H 0.84051 0.70918 0.74824
 H356 H 0.83435 0.81012 0.74991
 H357 H 0.69227 0.68304 0.71418
 H358 H 0.74426 0.74615 0.66697
 H359 H 0.75536 0.76144 0.82956
 H360 H 0.81047 0.82288 0.78180
 Zr361 Zr 1.26032 0.74525 0.20726
 O362 O 1.24158 0.76570 0.17918
 O363 O 1.28940 0.71932 0.19101
 O364 O 1.28796 0.77153 0.18966
 O365 O 1.20642 0.69776 0.21375
 O366 O 1.30676 0.79993 0.21674
 O367 O 1.23472 0.71852 0.18776
 O368 O 1.31377 0.70028 0.22038
 O369 O 1.29500 0.74808 0.22852
 O370 O 1.25942 0.70915 0.22748
 O371 O 1.25565 0.78331 0.22502
 O372 O 1.22164 0.74625 0.22381
 Zr373 Zr 1.25144 0.75045 0.28562
 Zr374 Zr 1.28944 0.78492 0.24737
 Zr375 Zr 1.22220 0.71104 0.24532
 Zr376 Zr 1.29288 0.71285 0.24965
 O377 O 1.17829 0.71213 0.24515
 O378 O 1.33588 0.72056 0.25420
 O379 O 1.25579 0.71209 0.26802
 O380 O 1.28975 0.74959 0.26875
 O381 O 1.25220 0.78689 0.26555
 O382 O 1.21697 0.74766 0.26418
 C383 C 1.30931 0.70435 0.19921
 C384 C 1.21399 0.70278 0.19323
 C385 C 1.30360 0.79203 0.19601
 O386 O 1.33315 0.78297 0.25025
 O387 O 1.30167 0.80224 0.27876
 O388 O 1.27469 0.77965 0.30474
 C389 C 1.29380 0.79738 0.29925
 O390 O 1.20251 0.79632 0.21156
 Zr391 Zr 1.21868 0.78296 0.24333
 O392 O 1.22239 0.77610 0.30204
 O393 O 1.28410 0.82908 0.24552
 O394 O 1.22379 0.82728 0.24170
 O395 O 1.17525 0.77594 0.24213
 O396 O 1.20175 0.79989 0.27300
 C397 C 1.20509 0.79427 0.29411
 O398 O 1.27211 0.73175 0.31357
 O399 O 1.22737 0.66680 0.24435
 O400 O 1.22648 0.72148 0.30353
 O401 O 1.20805 0.69354 0.27599
 O402 O 1.28969 0.66834 0.24807
 O403 O 1.30448 0.69555 0.28151
 C404 C 1.21177 0.70035 0.29688
 H405 H 1.26049 0.69164 0.21846
 H406 H 1.30544 0.75009 0.27959
 H407 H 1.19921 0.74680 0.27251
 H408 H 1.25537 0.79968 0.21461
 H409 H 1.34576 0.70251 0.25180
 H410 H 1.33996 0.80265 0.24976
 H411 H 1.30285 0.83752 0.24670
 H412 H 1.20537 0.83595 0.24425
 H413 H 1.30871 0.66081 0.24615
 H414 H 1.20854 0.65857 0.24321
 H415 H 1.17183 0.69231 0.24535
 H416 H 1.16601 0.79431 0.24466
 H417 H 1.32023 0.68242 0.27951
 H418 H 1.26328 0.73897 0.32756
 H419 H 1.25009 0.75795 0.16525
 H420 H 1.18921 0.81192 0.21390
 Zr421 Zr 0.75422 1.24406 0.21475
 O422 O 0.77411 1.22341 0.18753
 O423 O 0.72688 1.27104 0.19749
 O424 O 0.72704 1.21790 0.19607
 O425 O 0.80832 1.29104 0.22328
 O426 O 0.70601 1.19085 0.22294
 O427 O 0.78090 1.27073 0.19632
 O428 O 0.70278 1.29208 0.22589
 O429 O 0.71855 1.24208 0.23478
 O430 O 0.75521 1.27995 0.23520
 O431 O 0.75731 1.20589 0.23267
 O432 O 0.79218 1.24236 0.23264
 Zr433 Zr 0.75994 1.23793 0.29351
 Zr434 Zr 0.72267 1.20510 0.25394
 Zr435 Zr 0.79154 1.27730 0.25438
 Zr436 Zr 0.72069 1.27706 0.25605
 O437 O 0.83533 1.27456 0.25570
 O438 O 0.67738 1.26959 0.25793
 O439 O 0.75693 1.27659 0.27584
 O440 O 0.72237 1.24018 0.27534
 O441 O 0.75912 1.20186 0.27323
 O442 O 0.79529 1.24028 0.27321
 C443 C 0.70805 1.28785 0.20486
 C444 C 0.80131 1.28652 0.20252
 C445 C 0.71039 1.19802 0.20219
 O446 O 0.67894 1.20812 0.25560
 O447 O 0.70874 1.18788 0.28479
 O448 O 0.73480 1.20954 0.31189
 C449 C 0.71546 1.19249 0.30558
 O450 O 0.81085 1.19242 0.22072
 Zr451 Zr 0.79356 1.20536 0.25205
 O452 O 0.78788 1.21114 0.31061
 O453 O 0.72682 1.16082 0.25219
 O454 O 0.78762 1.16120 0.24964
 O455 O 0.83715 1.21143 0.25258
 O456 O 0.80853 1.18705 0.28193
 C457 C 0.80473 1.19243 0.30296
 O458 O 0.73913 1.25681 0.32112
 O459 O 0.78802 1.32172 0.25322
 O460 O 0.78497 1.26589 0.31225
 O461 O 0.80400 1.29490 0.28568
 O462 O 0.72542 1.32148 0.25588
 O463 O 0.70679 1.29396 0.28729
 C464 C 0.79963 1.28738 0.30637
 H465 H 0.75500 1.29767 0.22634
 H466 H 0.70621 1.24000 0.28562
 H467 H 0.81269 1.24059 0.28215
 H468 H 0.75761 1.18956 0.22232
 H469 H 0.66785 1.28770 0.25484
 H470 H 0.67163 1.18864 0.25471
 H471 H 0.70782 1.15290 0.25291
 H472 H 0.80577 1.15205 0.25252
 H473 H 0.70688 1.32982 0.25299
 H474 H 0.80716 1.32931 0.25277
 H475 H 0.84241 1.29413 0.25649
 H476 H 0.84589 1.19280 0.25522
 H477 H 0.69096 1.30681 0.28449
 H478 H 0.74737 1.24911 0.33526
 H479 H 0.76644 1.23132 0.17325
 H480 H 0.82396 1.17669 0.22336
 O481 O 0.54017 1.04113 0.04587
 O482 O 0.57041 1.02190 0.02014
 C483 C 0.56497 1.03551 0.03871
 O484 O 0.46109 0.94466 0.02970
 O485 O 0.42973 0.97665 0.01553
 C486 C 0.43604 0.95385 0.02665
 O487 O 0.53781 0.94557 0.03105
 O488 O 0.56900 0.97553 0.01419
 C489 C 0.56284 0.95398 0.02684
 O490 O 0.46340 1.04605 0.04588
 O491 O 0.43088 1.02542 0.02266
 C492 C 0.43800 1.04077 0.03993
 Zr493 Zr 0.50103 1.03295 0.03124
 O494 O 0.50025 1.02756 0.06677
 O495 O 0.50304 1.07726 0.03405
 Zr496 Zr 0.49945 0.96320 0.02146
 O497 O 0.49965 0.95961 0.05711
 O498 O 0.49920 0.91883 0.01827
 O499 O 0.52516 0.99658 0.03022
 O500 O 0.47605 0.99746 0.03100
 O501 O 0.46074 1.06401 -0.03277
 O502 O 0.42955 1.03378 -0.01618
 C503 C 0.43567 1.05579 -0.02835
 O504 O 0.53553 0.96518 -0.05011
 O505 O 0.56821 0.98379 -0.02600
 C506 C 0.56097 0.96993 -0.04406
 O507 O 0.45866 0.96373 -0.04726
 O508 O 0.42848 0.98528 -0.02276
 C509 C 0.43392 0.96966 -0.04022
 O510 O 0.53723 1.06057 -0.03678
 O511 O 0.56866 1.03015 -0.02056
 C512 C 0.56226 1.05149 -0.03341
 Zr513 Zr 0.49918 1.04560 -0.02414
 O514 O 0.49766 1.05809 -0.05849
 O515 O 0.50092 1.08796 -0.01335
 Zr516 Zr 0.49775 0.97561 -0.03440
 O517 O 0.49422 0.98285 -0.06965
 O518 O 0.49939 0.93158 -0.03983
 Zr519 Zr 0.54123 1.00345 -0.00247
 Zr520 Zr 0.45739 1.00487 -0.00069
 O521 O 0.47424 1.01192 -0.03301
 O522 O 0.52291 1.01119 -0.03434
 O523 O 0.47496 1.04499 0.00483
 O524 O 0.52291 0.96380 -0.00773
 O525 O 0.52503 1.04381 0.00371
 O526 O 0.47356 0.96427 -0.00678
 H527 H 0.46417 0.99450 0.04445
 H528 H 0.53519 0.94741 -0.01036
 H529 H 0.46162 1.01504 -0.04603
 H530 H 0.53823 1.05963 0.00570
 H531 H 0.50382 0.91444 0.00241
 H532 H 0.48312 0.92308 -0.03223
 H533 H 0.50832 0.99708 -0.07380
 H534 H 0.49209 1.04139 -0.06733
 H535 H 0.50155 1.09952 -0.02732
 H536 H 0.50451 1.08129 0.05045
 H537 H 0.50951 1.00942 0.07008
 H538 H 0.49865 0.93919 0.06052
 O539 O 1.03716 0.56294 0.53299
 O540 O 1.06836 0.53279 0.51645
 C541 C 1.06217 0.55416 0.52922
 O542 O 0.96041 0.46466 0.54545
 O543 O 0.92893 0.48572 0.52149
 C544 C 0.93532 0.47029 0.53895
 O545 O 1.03747 0.46772 0.54696
 O546 O 1.06885 0.48626 0.52175
 C547 C 1.06258 0.47254 0.54013
 O548 O 0.96058 0.56531 0.53030
 O549 O 0.92914 0.53451 0.51466
 C550 C 0.93547 0.55672 0.52647
 Zr551 Zr 0.99887 0.54699 0.52153
 O552 O 0.99706 0.55609 0.55651
 O553 O 1.00007 0.59000 0.51226
 Zr554 Zr 0.99883 0.47738 0.53199
 O555 O 0.99771 0.48718 0.56685
 O556 O 1.00172 0.43360 0.53852
 O557 O 1.02366 0.51306 0.53113
 O558 O 0.97456 0.51313 0.53082
 O559 O 0.96048 0.54711 0.45218
 O560 O 0.92896 0.52706 0.47651
 C561 C 0.93537 0.54222 0.45889
 O562 O 1.03672 0.44828 0.46519
 O563 O 1.06813 0.47839 0.48164
 C564 C 1.06179 0.45701 0.46895
 O565 O 0.96004 0.44641 0.46745
 O566 O 0.92881 0.47728 0.48299
 C567 C 0.93498 0.45491 0.47137
 O568 O 1.03701 0.54258 0.45019
 O569 O 1.06844 0.52511 0.47594
 C570 C 1.06213 0.53793 0.45714
 Zr571 Zr 0.99878 0.53466 0.46612
 O572 O 0.99771 0.53187 0.43043
 O573 O 1.00008 0.57909 0.46428
 Zr574 Zr 0.99845 0.46459 0.47625
 O575 O 0.99547 0.45586 0.44124
 O576 O 1.00140 0.42105 0.48389
 Zr577 Zr 1.04064 0.50563 0.49892
 Zr578 Zr 0.95670 0.50584 0.49882
 O579 O 0.97442 0.49876 0.46688
 O580 O 1.02320 0.49849 0.46666
 O581 O 0.97364 0.54620 0.49298
 O582 O 1.02306 0.46577 0.50486
 O583 O 1.02362 0.54577 0.49310
 O584 O 0.97357 0.46553 0.50494
 H585 H 0.96248 0.51620 0.54412
 H586 H 1.03562 0.44950 0.50724
 H587 H 0.96204 0.49581 0.45368
 H588 H 1.03647 0.56182 0.49077
 H589 H 0.98591 0.42441 0.53080
 H590 H 0.98482 0.41569 0.49273
 H591 H 1.00958 0.46749 0.43349
 H592 H 0.99379 0.51200 0.42671
 H593 H 1.00112 0.58378 0.44796
 H594 H 1.00017 0.60074 0.52661
 H595 H 1.00707 0.54076 0.56445
 H596 H 0.99792 0.46894 0.57505
 O597 O 1.04813 0.46268 0.04019
 O598 O 1.02078 0.43089 0.02108
 C599 C 1.03984 0.43730 0.03586
 O600 O 0.95139 0.54243 0.04308
 O601 O 0.97653 0.57343 0.02132
 C602 C 0.95844 0.56763 0.03694
 O603 O 0.95248 0.46446 0.04595
 O604 O 0.97401 0.43181 0.02334
 C605 C 0.95791 0.43878 0.04001
 O606 O 1.05369 0.54013 0.03523
 O607 O 1.02519 0.57236 0.01768
 C608 C 1.04633 0.56572 0.03039
 Zr609 Zr 1.03528 0.50149 0.02630
 O610 O 1.04150 0.50468 0.06164
 O611 O 1.07828 0.49860 0.01981
 Zr612 Zr 0.96589 0.50299 0.03186
 O613 O 0.97303 0.50458 0.06713
 O614 O 0.92230 0.50185 0.03599
 O615 O 1.00052 0.47713 0.03391
 O616 O 1.00157 0.52704 0.03296
 O617 O 1.04262 0.53888 -0.04360
 O618 O 1.02045 0.57174 -0.02158
 C619 C 1.03689 0.56461 -0.03803
 O620 O 0.94249 0.46348 -0.03553
 O621 O 0.97031 0.43134 -0.01716
 C622 C 0.95020 0.43794 -0.03095
 O623 O 0.94189 0.54140 -0.03403
 O624 O 0.97196 0.57296 -0.01766
 C625 C 0.95055 0.56679 -0.03017
 O626 O 1.03745 0.46131 -0.04448
 O627 O 1.01711 0.43019 -0.01972
 C628 C 1.03149 0.43605 -0.03770
 Zr629 Zr 1.02838 0.50061 -0.02985
 O630 O 1.02720 0.50195 -0.06561
 O631 O 1.07217 0.49852 -0.02930
 Zr632 Zr 0.95899 0.50224 -0.02460
 O633 O 0.95866 0.50230 -0.06035
 O634 O 0.91509 0.50397 -0.02364
 Zr635 Zr 0.99620 0.45918 0.00153
 Zr636 Zr 0.99797 0.54451 0.00034
 O637 O 0.99360 0.52605 -0.03178
 O638 O 0.99255 0.47617 -0.03135
 O639 O 1.03774 0.52646 -0.00259
 O640 O 0.95686 0.47793 0.00433
 O641 O 1.03639 0.47580 -0.00180
 O642 O 0.95755 0.52802 0.00372
 H643 H 1.00346 0.53977 0.04614
 H644 H 0.94041 0.46557 0.00575
 H645 H 0.99201 0.53823 -0.04537
 H646 H 1.05212 0.46241 -0.00277
 H647 H 0.91419 0.51404 0.02407
 H648 H 0.90866 0.49187 -0.01108
 H649 H 0.93892 0.50364 -0.06496
 H650 H 1.00910 0.49399 -0.07025
 H651 H 1.07799 0.49717 -0.04531
 H652 H 1.08753 0.49822 0.03481
 H653 H 1.02534 0.49560 0.06893
 H654 H 0.95448 0.50506 0.07429
 O655 O 0.43995 0.96452 0.46599
 O656 O 0.46913 0.93192 0.48228
 C657 C 0.44832 0.93890 0.46935
 O658 O 0.53850 1.04185 0.45643
 O659 O 0.51814 1.07297 0.48105
 C660 C 0.53378 1.06705 0.46383
 O661 O 0.53342 0.96388 0.45255
 O662 O 0.51475 0.93127 0.47697
 C663 C 0.52811 0.93820 0.45869
 O664 O 0.43837 1.04224 0.47048
 O665 O 0.46915 1.07311 0.48685
 C666 C 0.44716 1.06745 0.47490
 Zr667 Zr 0.45591 1.00280 0.47848
 O668 O 0.44655 1.00633 0.44360
 O669 O 0.41359 1.00165 0.48769
 Zr670 Zr 0.52455 1.00248 0.46846
 O671 O 0.51430 1.00561 0.43373
 O672 O 0.56748 0.99904 0.46147
 O673 O 0.48909 0.97767 0.46859
 O674 O 0.48964 1.02751 0.46987
 O675 O 0.45579 1.03902 0.54854
 O676 O 0.47613 1.07160 0.52498
 C677 C 0.46088 1.06467 0.54225
 O678 O 0.55296 0.96105 0.53421
 O679 O 0.52294 0.93010 0.51705
 C680 C 0.54426 0.93585 0.52977
 O681 O 0.55536 1.03901 0.53370
 O682 O 0.52516 1.07157 0.51873
 C683 C 0.54725 1.06468 0.53017
 O684 O 0.45974 0.96112 0.54898
 O685 O 0.47725 0.92990 0.52301
 C686 C 0.46431 0.93580 0.54170
 Zr687 Zr 0.46796 1.00056 0.53401
 O688 O 0.47067 1.00060 0.56971
 O689 O 0.42418 0.99946 0.53555
 Zr690 Zr 0.53689 1.00046 0.52441
 O691 O 0.54413 1.00178 0.55975
 O692 O 0.57999 0.99725 0.51807
 Zr693 Zr 0.49612 0.95907 0.50050
 Zr694 Zr 0.49688 1.04412 0.50229
 O695 O 0.50355 1.02496 0.53398
 O696 O 0.50326 0.97531 0.53319
 O697 O 0.45694 1.02722 0.50755
 O698 O 0.53559 0.97673 0.49518
 O699 O 0.45677 0.97653 0.50642
 O700 O 0.53640 1.02669 0.49620
 H701 H 0.48703 1.04061 0.45696
 H702 H 0.55150 0.96397 0.49251
 H703 H 0.50652 1.03709 0.54738
 H704 H 0.44093 0.96344 0.50837
 H705 H 0.57725 1.01319 0.47080
 H706 H 0.58541 1.01350 0.50855
 H707 H 0.53409 0.98574 0.56666
 H708 H 0.49053 1.00249 0.57354
 H709 H 0.41948 0.99779 0.55180
 H710 H 0.40292 1.00201 0.47333
 H711 H 0.46161 0.99664 0.43538
 H712 H 0.53212 1.00554 0.42543
 O713 O 0.97230 1.05938 0.52624
 O714 O 0.98388 1.02592 0.55269
 C715 C 0.97287 1.04983 0.54680
 O716 O 0.94705 0.96469 0.46100
 O717 O 0.98260 0.98104 0.43878
 C718 C 0.95910 0.96842 0.44168
 O719 O 0.93634 0.96989 0.52321
 O720 O 0.96699 0.98224 0.55121
 C721 C 0.94309 0.97303 0.54432
 O722 O 0.98537 1.06163 0.46434
 O723 O 1.00060 1.02703 0.44036
 C724 C 0.99097 1.05203 0.44434
 Zr725 Zr 0.98726 1.04155 0.49612
 O726 O 0.94825 1.06080 0.49057
 O727 O 1.00745 1.08087 0.49919
 Zr728 Zr 0.95997 0.97646 0.49369
 O729 O 0.92160 0.99709 0.48862
 O730 O 0.94004 0.93679 0.49435
 O731 O 0.96596 1.01098 0.51452
 O732 O 0.97141 1.01104 0.47474
 O733 O 1.07320 1.02421 0.47243
 O734 O 1.04349 1.00954 0.44448
 C735 C 1.06642 1.02105 0.45134
 O736 O 1.02893 0.92972 0.53123
 O737 O 1.01174 0.96337 0.55513
 C738 C 1.02318 0.93917 0.55120
 O739 O 1.03402 0.92896 0.46844
 O740 O 1.02509 0.96380 0.44252
 C741 C 1.03335 0.93870 0.44794
 O742 O 1.06685 1.01812 0.53493
 O743 O 1.02935 1.00668 0.55690
 C744 C 1.05481 1.01489 0.55433
 Zr745 Zr 1.05083 1.01411 0.50193
 O746 O 1.09226 0.99953 0.50317
 O747 O 1.06366 1.05653 0.50469
 Zr748 Zr 1.02396 0.94864 0.49928
 O749 O 1.06465 0.93181 0.50027
 O750 O 1.00689 0.90754 0.50020
 Zr751 Zr 1.00105 0.99481 0.53146
 Zr752 Zr 1.00995 0.99526 0.46411
 O753 O 1.04480 0.97950 0.48145
 O754 O 1.03983 0.97899 0.52107
 O755 O 1.02377 1.03297 0.47904
 O756 O 0.98740 0.95752 0.51586
 O757 O 1.01833 1.03244 0.51915
 O758 O 0.99250 0.95747 0.47633
 H759 H 0.95780 1.01724 0.46314
 H760 H 0.97975 0.94209 0.52529
 H761 H 1.06120 0.97332 0.47271
 H762 H 1.02308 1.04742 0.53015
 H763 H 0.95307 0.92311 0.48766
 H764 H 0.99612 0.90478 0.48611
 H765 H 1.07353 0.93816 0.51448
 H766 H 1.09220 0.98193 0.51213
 H767 H 1.08404 1.05601 0.50693
 H768 H 0.99267 1.09533 0.49825
 H769 H 0.93417 1.04829 0.49744
 H770 H 0.90753 0.98199 0.48710
 O771 O 0.54214 0.43901 -0.03702
 O772 O 0.51720 0.46874 -0.06006
 C773 C 0.53282 0.44689 -0.05664
 O774 O 0.45533 0.45199 0.03491
 O775 O 0.48798 0.47342 0.05734
 C776 C 0.46585 0.45835 0.05440
 O777 O 0.44965 0.44714 -0.02746
 O778 O 0.47165 0.47216 -0.05534
 C779 C 0.45377 0.45359 -0.04847
 O780 O 0.55704 0.44288 0.02472
 O781 O 0.53643 0.46954 0.05229
 C782 C 0.55374 0.45035 0.04564
 Zr783 Zr 0.53726 0.45737 -0.00492
 O784 O 0.53659 0.41291 -0.00265
 O785 O 0.58044 0.45789 -0.01097
 Zr786 Zr 0.46839 0.46237 0.00208
 O787 O 0.46864 0.41790 0.00384
 O788 O 0.42452 0.46315 0.00362
 O789 O 0.49920 0.45448 -0.02138
 O790 O 0.50545 0.45450 0.01839
 O791 O 0.56423 0.53920 0.02397
 O792 O 0.54008 0.51636 0.05190
 C793 C 0.56005 0.53252 0.04495
 O794 O 0.45637 0.54974 -0.02838
 O795 O 0.47485 0.52143 -0.05581
 C796 C 0.45939 0.54219 -0.04927
 O797 O 0.46150 0.54511 0.03424
 O798 O 0.49114 0.51988 0.05702
 C799 C 0.47104 0.53759 0.05383
 O800 O 0.54953 0.54506 -0.03748
 O801 O 0.52073 0.51911 -0.06038
 C802 C 0.53911 0.53865 -0.05702
 Zr803 Zr 0.54243 0.52753 -0.00536
 O804 O 0.54954 0.57141 -0.00338
 O805 O 0.58489 0.51979 -0.01157
 Zr806 Zr 0.47353 0.53318 0.00158
 O807 O 0.47948 0.57726 0.00434
 O808 O 0.43016 0.53965 0.00301
 Zr809 Zr 0.49989 0.49533 -0.03536
 Zr810 Zr 0.51045 0.49497 0.03208
 O811 O 0.51139 0.53558 0.01784
 O812 O 0.50516 0.53611 -0.02191
 O813 O 0.54826 0.49194 0.01449
 O814 O 0.46260 0.49821 -0.01715
 O815 O 0.54174 0.49220 -0.02566
 O816 O 0.46846 0.49808 0.02221
 H817 H 0.50574 0.43806 0.02876
 H818 H 0.44475 0.49930 -0.02547
 H819 H 0.51409 0.55184 0.02808
 H820 H 0.55582 0.49113 -0.03780
 H821 H 0.41927 0.47780 0.01465
 H822 H 0.42239 0.52444 0.01250
 H823 H 0.48487 0.58448 -0.01074
 H824 H 0.53233 0.58073 -0.00860
 H825 H 0.59375 0.53855 -0.01292
 H826 H 0.58620 0.43790 -0.01187
 H827 H 0.51822 0.40677 -0.00829
 H828 H 0.44907 0.41209 0.00591
 C829 C 0.32957 1.15205 0.15061
 C830 C 0.33250 1.14572 0.17376
 C831 C 0.32081 1.16309 0.19022
 C832 C 0.30578 1.18732 0.18404
 C833 C 0.30286 1.19374 0.16088
 C834 C 0.31463 1.17633 0.14437
 C835 C 0.34237 1.13347 0.13330
 N836 N 0.34037 1.13937 0.11081
 N837 N 0.35260 1.12292 0.09551
 C838 C 0.36731 1.09984 0.10206
 N839 N 0.36907 1.09388 0.12450
 N840 N 0.35687 1.11027 0.13975
 C841 C 0.38262 1.08232 0.08540
 C842 C 0.40096 1.06130 0.09310
 C843 C 0.41782 1.04680 0.07795
 C844 C 0.41644 1.05250 0.05471
 C845 C 0.39716 1.07229 0.04666
 C846 C 0.38045 1.08724 0.06192
 H847 H 0.34387 1.12726 0.17927
 H848 H 0.32348 1.15737 0.20784
 H849 H 0.29143 1.21221 0.15546
 H850 H 0.31201 1.18191 0.12672
 H851 H 0.40318 1.05676 0.11097
 H852 H 0.43268 1.03165 0.08446
 H853 H 0.39612 1.07726 0.02878
 H854 H 0.36651 1.10321 0.05539
 C855 C 0.83568 0.66603 0.64214
 C856 C 0.83370 0.65417 0.66392
 C857 C 0.82291 0.66983 0.68194
 C858 C 0.81345 0.69754 0.67850
 C859 C 0.81581 0.70947 0.65678
 C860 C 0.82695 0.69400 0.63889
 C861 C 0.84670 0.64947 0.62284
 N862 N 0.85493 0.66261 0.60355
 N863 N 0.86524 0.64797 0.58632
 C864 C 0.86749 0.61948 0.58749
 N865 N 0.85899 0.60627 0.60670
 N866 N 0.84883 0.62095 0.62400
 C867 C 0.88103 0.60350 0.56899
 C868 C 0.87843 0.57402 0.56747
 C869 C 0.89432 0.55875 0.55190
 C870 C 0.91337 0.57269 0.53788
 C871 C 0.91485 0.60219 0.53852
 C872 C 0.89860 0.61747 0.55369
 H873 H 0.84044 0.63275 0.66705
 H874 H 0.82125 0.65997 0.69843
 H875 H 0.80880 0.73078 0.65353
 H876 H 0.82819 0.70383 0.62237
 H877 H 0.86492 0.56266 0.57891
 H878 H 0.89326 0.53596 0.55201
 H879 H 0.92964 0.61333 0.52803
 H880 H 0.90111 0.64011 0.55434
 C881 C 0.66613 0.84207 0.13936
 C882 C 0.67627 0.81467 0.13587
 C883 C 0.68684 0.79884 0.15395
 C884 C 0.68707 0.80986 0.17601
 C885 C 0.67630 0.83700 0.17957
 C886 C 0.66616 0.85300 0.16144
 C887 C 0.65533 0.85907 0.12016
 N888 N 0.65261 0.88747 0.12194
 N889 N 0.64200 0.90262 0.10497
 C890 C 0.63361 0.89000 0.08552
 N891 N 0.63658 0.86164 0.08367
 N892 N 0.64736 0.84652 0.10057
 C893 C 0.61915 0.90640 0.06763
 C894 C 0.60088 0.89275 0.05268
 C895 C 0.58381 0.90837 0.03822
 C896 C 0.58516 0.93788 0.03795
 C897 C 0.60477 0.95156 0.05163
 C898 C 0.62148 0.93594 0.06654
 H899 H 0.67651 0.80562 0.11908
 H900 H 0.69499 0.77800 0.15063
 H901 H 0.67636 0.84620 0.19632
 H902 H 0.65827 0.87393 0.16474
 H903 H 0.59853 0.87007 0.05310
 H904 H 0.56861 0.89745 0.02793
 H905 H 0.60580 0.97435 0.05194
 H906 H 0.63546 0.94703 0.07778
 C907 C 1.16286 0.34829 0.64663
 C908 C 1.18058 0.32615 0.64021
 C909 C 1.19095 0.30714 0.65644
 C910 C 1.18376 0.30986 0.67940
 C911 C 1.16552 0.33162 0.68558
 C912 C 1.15529 0.35050 0.66949
 C913 C 1.15224 0.36933 0.63000
 N914 N 1.13746 0.39185 0.63732
 N915 N 1.12718 0.41058 0.62278
 C916 C 1.13121 0.40782 0.60018
 N917 N 1.14623 0.38542 0.59276
 N918 N 1.15661 0.36660 0.60737
 C919 C 1.11752 0.42778 0.58419
 C920 C 1.12049 0.42530 0.56057
 C921 C 1.10429 0.44182 0.54582
 C922 C 1.08474 0.46079 0.55453
 C923 C 1.08303 0.46450 0.57799
 C924 C 1.09939 0.44844 0.59263
 H925 H 1.18679 0.32377 0.62274
 H926 H 1.20506 0.29073 0.65109
 H927 H 1.15938 0.33446 0.70303
 H928 H 1.14153 0.36706 0.67513
 H929 H 1.13441 0.40978 0.55349
 H930 H 1.10564 0.43839 0.52775
 H931 H 1.06800 0.47896 0.58504
 H932 H 1.09669 0.45129 0.61065
 C933 C 0.66700 1.15899 -0.14829
 C934 C 0.66947 1.14750 -0.17010
 C935 C 0.68101 1.16333 -0.18777
 C936 C 0.69069 1.19085 -0.18393
 C937 C 0.68789 1.20241 -0.16218
 C938 C 0.67606 1.18676 -0.14464
 C939 C 0.65501 1.14233 -0.12939
 N940 N 0.64702 1.15523 -0.11000
 N941 N 0.63577 1.14054 -0.09314
 C942 C 0.63224 1.11224 -0.09482
 N943 N 0.64050 1.09924 -0.11411
 N944 N 0.65163 1.11398 -0.13105
 C945 C 0.61771 1.09639 -0.07670
 C946 C 0.61878 1.06676 -0.07563
 C947 C 0.60234 1.05193 -0.06009
 C948 C 0.58426 1.06651 -0.04573
 C949 C 0.58413 1.09604 -0.04608
 C950 C 0.60093 1.11084 -0.06118
 H951 H 0.66248 1.12626 -0.17353
 H952 H 0.68293 1.15378 -0.20430
 H953 H 0.69498 1.22360 -0.15865
 H954 H 0.67442 1.19632 -0.12809
 H955 H 0.63164 1.05504 -0.08726
 H956 H 0.60242 1.02912 -0.06030
 H957 H 0.57017 1.10765 -0.03522
 H958 H 0.59962 1.13361 -0.06148
 C959 C 1.17413 0.64649 0.34726
 C960 C 1.17003 0.64159 0.32403
 C961 C 1.18197 0.65923 0.30783
 C962 C 1.19838 0.68234 0.31434
 C963 C 1.20235 0.68743 0.33758
 C964 C 1.19037 0.66970 0.35384
 C965 C 1.16116 0.62758 0.36430
 N966 N 1.16442 0.63205 0.38687
 N967 N 1.15191 0.61545 0.40198
 C968 C 1.13569 0.59362 0.39514
 N969 N 1.13274 0.58903 0.37259
 N970 N 1.14522 0.60557 0.35754
 C971 C 1.11978 0.57637 0.41163
 C972 C 1.09949 0.55746 0.40376
 C973 C 1.08184 0.54382 0.41886
 C974 C 1.08435 0.54821 0.44221
 C975 C 1.10567 0.56559 0.45037
 C976 C 1.12314 0.57979 0.43516
 H977 H 1.15757 0.62403 0.31827
 H978 H 1.17840 0.65460 0.29013
 H979 H 1.21489 0.70499 0.34323
 H980 H 1.19387 0.67418 0.37157
 H981 H 1.09633 0.55412 0.38583
 H982 H 1.06549 0.53049 0.41223
 H983 H 1.10773 0.56950 0.46834
 H984 H 1.13860 0.59414 0.44179
 C985 C 0.32932 0.84932 -0.14603
 C986 C 0.33759 0.85104 -0.16877
 C987 C 0.32653 0.83289 -0.18497
 C988 C 0.30678 0.81243 -0.17897
 C989 C 0.29899 0.81009 -0.15610
 C990 C 0.31019 0.82833 -0.13979
 C991 C 0.34061 0.86970 -0.12931
 N992 N 0.33656 0.86642 -0.10669
 N993 N 0.34753 0.88461 -0.09195
 C994 C 0.36282 0.90692 -0.09925
 N995 N 0.36650 0.91028 -0.12185
 N996 N 0.35564 0.89214 -0.13652
 C997 C 0.37711 0.92617 -0.08317
 C998 C 0.39395 0.94798 -0.09161
 C999 C 0.41090 0.96352 -0.07716
 C1000 C 0.41111 0.95807 -0.05387
 C1001 C 0.39297 0.93777 -0.04500
 C1002 C 0.37610 0.92183 -0.05958
 H1003 H 0.35254 0.86665 -0.17421
 H1004 H 0.33322 0.83527 -0.20234
 H1005 H 0.28377 0.79463 -0.15088
 H1006 H 0.30344 0.82635 -0.12240
 H1007 H 0.39515 0.95220 -0.10959
 H1008 H 0.42493 0.97898 -0.08430
 H1009 H 0.39321 0.93298 -0.02707
 H1010 H 0.36331 0.90530 -0.05249
 C1011 C 0.83306 0.33856 0.36043
 C1012 C 0.82508 0.31048 0.36441
 C1013 C 0.81441 0.29388 0.34686
 C1014 C 0.81189 0.30475 0.32478
 C1015 C 0.82022 0.33270 0.32072
 C1016 C 0.83052 0.34943 0.33835
 C1017 C 0.84418 0.35626 0.37915
 N1018 N 0.84633 0.38469 0.37685
 N1019 N 0.85697 0.40041 0.39342
 C1020 C 0.86600 0.38840 0.41300
 N1021 N 0.86367 0.36001 0.41535
 N1022 N 0.85288 0.34432 0.39885
 C1023 C 0.88002 0.40555 0.43071
 C1024 C 0.89778 0.39255 0.44651
 C1025 C 0.91424 0.40875 0.46101
 C1026 C 0.91277 0.43828 0.46053
 C1027 C 0.89355 0.45132 0.44602
 C1028 C 0.87755 0.43512 0.43103
 H1029 H 0.82676 0.30136 0.38117
 H1030 H 0.80812 0.27248 0.35062
 H1031 H 0.81827 0.34185 0.30399
 H1032 H 0.83664 0.37089 0.33464
 H1033 H 0.90020 0.36987 0.44680
 H1034 H 0.92912 0.39824 0.47192
 H1035 H 0.89238 0.47408 0.44512
 H1036 H 0.86398 0.44579 0.41915
 C1037 C 1.16030 0.34050 0.14746
 C1038 C 1.18255 0.32272 0.14175
 C1039 C 1.19974 0.31123 0.15863
 C1040 C 1.19520 0.31735 0.18163
 C1041 C 1.17353 0.33591 0.18718
 C1042 C 1.15634 0.34726 0.17037
 C1043 C 1.14084 0.35154 0.12989
 N1044 N 1.11735 0.36526 0.13606
 N1045 N 1.09976 0.37522 0.12055
 C1046 C 1.10478 0.37190 0.09812
 N1047 N 1.12826 0.35809 0.09188
 N1048 N 1.14585 0.34803 0.10743
 C1049 C 1.08567 0.38457 0.08101
 C1050 C 1.09249 0.38526 0.05784
 C1051 C 1.07612 0.40056 0.04240
 C1052 C 1.05255 0.41510 0.04985
 C1053 C 1.04489 0.41319 0.07264
 C1054 C 1.06112 0.39797 0.08802
 H1055 H 1.18630 0.31714 0.12429
 H1056 H 1.21617 0.29699 0.15368
 H1057 H 1.16932 0.34120 0.20464
 H1058 H 1.13964 0.36109 0.17544
 H1059 H 1.11119 0.37517 0.05181
 H1060 H 1.08273 0.40240 0.02496
 H1061 H 1.02712 0.42482 0.07878
 H1062 H 1.05503 0.39780 0.10563
 C1063 C 0.65755 0.83344 0.64136
 C1064 C 0.68554 0.82633 0.63794
 C1065 C 0.70174 0.81590 0.65577
 C1066 C 0.69044 0.81268 0.67752
 C1067 C 0.66267 0.82048 0.68108
 C1068 C 0.64636 0.83056 0.66318
 C1069 C 0.64022 0.84396 0.62233
 N1070 N 0.61217 0.84561 0.62424
 N1071 N 0.59672 0.85584 0.60737
 C1072 C 0.60865 0.86488 0.58787
 N1073 N 0.63667 0.86296 0.58589
 N1074 N 0.65210 0.85260 0.60270
 C1075 C 0.59186 0.87895 0.57004
 C1076 C 0.60485 0.89651 0.55409
 C1077 C 0.58908 0.91355 0.53971
 C1078 C 0.56001 0.91290 0.54053
 C1079 C 0.54686 0.89384 0.55515
 C1080 C 0.56268 0.87711 0.56994
 H1081 H 0.69485 0.82836 0.62137
 H1082 H 0.72309 0.81015 0.65248
 H1083 H 0.65326 0.81808 0.69759
 H1084 H 0.62494 0.83602 0.66645
 H1085 H 0.62723 0.89843 0.55364
 H1086 H 0.59958 0.92834 0.52868
 H1087 H 0.52444 0.89339 0.55628
 H1088 H 0.55208 0.86362 0.58190
 C1089 C 1.15256 0.66837 -0.14871
 C1090 C 1.14762 0.66363 -0.17183
 C1091 C 1.16479 0.67543 -0.18832
 C1092 C 1.18760 0.69258 -0.18229
 C1093 C 1.19297 0.69656 -0.15896
 C1094 C 1.17567 0.68467 -0.14247
 C1095 C 1.13347 0.65637 -0.13143
 N1096 N 1.13814 0.65983 -0.10889
 N1097 N 1.12103 0.64857 -0.09361
 C1098 C 1.09845 0.63348 -0.10023
 N1099 N 1.09373 0.63030 -0.12275
 N1100 N 1.11078 0.64150 -0.13797
 C1101 C 1.08014 0.61916 -0.08353
 C1102 C 1.05909 0.60102 -0.09123
 C1103 C 1.04392 0.58471 -0.07603
 C1104 C 1.04899 0.58641 -0.05273
 C1105 C 1.06878 0.60562 -0.04468
 C1106 C 1.08435 0.62185 -0.06000
 H1107 H 1.13020 0.65096 -0.17733
 H1108 H 1.15969 0.67137 -0.20588
 H1109 H 1.21025 0.70933 -0.15327
 H1110 H 1.18024 0.68857 -0.12481
 H1111 H 1.05507 0.59841 -0.10913
 H1112 H 1.02887 0.56982 -0.08256
 H1113 H 1.07326 0.60688 -0.02674
 H1114 H 1.10031 0.63570 -0.05348
 C1115 C 0.66172 1.15780 0.35686
 C1116 C 0.65631 1.15340 0.33376
 C1117 C 0.67446 1.16349 0.31726
 C1118 C 0.69850 1.17849 0.32334
 C1119 C 0.70450 1.18204 0.34649
 C1120 C 0.68637 1.17169 0.36307
 C1121 C 0.64125 1.14854 0.37412
 N1122 N 0.64747 1.14875 0.39658
 N1123 N 0.62896 1.14012 0.41184
 C1124 C 0.60335 1.13115 0.40532
 N1125 N 0.59712 1.13124 0.38290
 N1126 N 0.61561 1.13975 0.36767
 C1127 C 0.58322 1.11962 0.42197
 C1128 C 0.55658 1.11116 0.41485
 C1129 C 0.53916 1.09619 0.42943
 C1130 C 0.54780 1.08976 0.45148
 C1131 C 0.57350 1.09976 0.45921
 C1132 C 0.59106 1.11467 0.44461
 H1133 H 0.63772 1.14252 0.32832
 H1134 H 0.66907 1.16032 0.29965
 H1135 H 0.72283 1.19346 0.35182
 H1136 H 0.69129 1.17526 0.38072
 H1137 H 0.54967 1.11478 0.39763
 H1138 H 0.51961 1.08813 0.42307
 H1139 H 0.58082 1.09428 0.47601
 H1140 H 0.61138 1.12084 0.45068
 C1141 C 0.84618 0.67299 0.14782
 C1142 C 0.85587 0.67519 0.17023
 C1143 C 0.83909 0.68678 0.18713
 C1144 C 0.81231 0.69672 0.18200
 C1145 C 0.80251 0.69421 0.15964
 C1146 C 0.81917 0.68240 0.14281
 C1147 C 0.86402 0.66096 0.12977
 N1148 N 0.85333 0.65497 0.10903
 N1149 N 0.86912 0.64372 0.09296
 C1150 C 0.89638 0.63812 0.09682
 N1151 N 0.90715 0.64434 0.11749
 N1152 N 0.89133 0.65552 0.13361
 C1153 C 0.91346 0.62382 0.07936
 C1154 C 0.94229 0.62044 0.08227
 C1155 C 0.95767 0.60397 0.06718
 C1156 C 0.94448 0.59061 0.04897
 C1157 C 0.91604 0.59492 0.04542
 C1158 C 0.90072 0.61161 0.06030
 H1159 H 0.87647 0.66800 0.17475
 H1160 H 0.84734 0.68846 0.20414
 H1161 H 0.78196 0.70153 0.15507
 H1162 H 0.81095 0.68097 0.12579
 H1163 H 0.95280 0.62962 0.09670
 H1164 H 0.97947 0.60026 0.07050
 H1165 H 0.90542 0.58423 0.03172
 H1166 H 0.87861 0.61369 0.05749
 C1167 C 0.33646 1.16133 0.64946
 C1168 C 0.31230 1.17580 0.64275
 C1169 C 0.29403 1.18674 0.65895
 C1170 C 0.29945 1.18335 0.68223
 C1171 C 0.32313 1.16806 0.68882
 C1172 C 0.34136 1.15729 0.67271
 C1173 C 0.35683 1.15076 0.63261
 N1174 N 0.38070 1.13834 0.63970
 N1175 N 0.39903 1.12851 0.62491
 C1176 C 0.39446 1.13069 0.60230
 N1177 N 0.37064 1.14330 0.59511
 N1178 N 0.35225 1.15320 0.60996
 C1179 C 0.41433 1.11780 0.58610
 C1180 C 0.41008 1.11929 0.56252
 C1181 C 0.42700 1.10388 0.54772
 C1182 C 0.44823 1.08666 0.55632
 C1183 C 0.45340 1.08633 0.57965
 C1184 C 0.43691 1.10197 0.59435
 H1185 H 0.30776 1.17915 0.62500
 H1186 H 0.27601 1.19839 0.65323
 H1187 H 0.32814 1.16506 0.70654
 H1188 H 0.35961 1.14613 0.67859
 H1189 H 0.39299 1.13136 0.55556
 H1190 H 0.42233 1.10392 0.52978
 H1191 H 0.46942 1.07280 0.58660
 H1192 H 0.44109 1.10043 0.61232
 C1193 C 0.84022 0.33436 -0.14504
 C1194 C 0.85139 0.33283 -0.16695
 C1195 C 0.83574 0.32194 -0.18490
 C1196 C 0.80863 0.31190 -0.18137
 C1197 C 0.79735 0.31368 -0.15950
 C1198 C 0.81287 0.32495 -0.14160
 C1199 C 0.85697 0.34575 -0.12596
 N1200 N 0.84463 0.35390 -0.10640
 N1201 N 0.85954 0.36490 -0.08956
 C1202 C 0.88748 0.36797 -0.09141
 N1203 N 0.89987 0.35949 -0.11086
 N1204 N 0.88493 0.34865 -0.12776
 C1205 C 0.90374 0.38228 -0.07336
 C1206 C 0.93292 0.38055 -0.07267
 C1207 C 0.94827 0.39693 -0.05734
 C1208 C 0.93468 0.41560 -0.04276
 C1209 C 0.90558 0.41637 -0.04271
 C1210 C 0.89026 0.39963 -0.05762
 H1211 H 0.87230 0.34005 -0.17025
 H1212 H 0.84519 0.32072 -0.20146
 H1213 H 0.77656 0.30613 -0.15615
 H1214 H 0.80361 0.32581 -0.12495
 H1215 H 0.94393 0.36725 -0.08448
 H1216 H 0.97072 0.39640 -0.05793
 H1217 H 0.89472 0.43088 -0.03174
 H1218 H 0.86787 0.40151 -0.05765
 C1219 C 0.33975 0.83588 0.35392
 C1220 C 0.34896 0.83828 0.33146
 C1221 C 0.33352 0.82673 0.31365
 C1222 C 0.30863 0.81217 0.31787
 C1223 C 0.29918 0.81023 0.34033
 C1224 C 0.31445 0.82210 0.35810
 C1225 C 0.35647 0.84757 0.37286
 N1226 N 0.34462 0.85310 0.39319
 N1227 N 0.35947 0.86415 0.41003
 C1228 C 0.38691 0.86983 0.40739
 N1229 N 0.39885 0.86399 0.38715
 N1230 N 0.38394 0.85314 0.37024
 C1231 C 0.40292 0.88402 0.42559
 C1232 C 0.43212 0.88309 0.42606
 C1233 C 0.44712 0.89919 0.44178
 C1234 C 0.43314 0.91692 0.45688
 C1235 C 0.40405 0.91700 0.45702
 C1236 C 0.38907 0.90041 0.44178
 H1237 H 0.36817 0.84907 0.32762
 H1238 H 0.34150 0.82862 0.29661
 H1239 H 0.28013 0.79917 0.34424
 H1240 H 0.30675 0.81989 0.37520
 H1241 H 0.44337 0.87059 0.41386
 H1242 H 0.46958 0.89919 0.44115
 H1243 H 0.39290 0.93078 0.46841
 H1244 H 0.36665 0.90167 0.44186
 C1245 C 1.16215 1.14992 0.34721
 C1246 C 1.15035 1.15541 0.32589
 C1247 C 1.16207 1.17541 0.31154
 C1248 C 1.18581 1.19041 0.31822
 C1249 C 1.19686 1.18595 0.33996
 C1250 C 1.18516 1.16583 0.35431
 C1251 C 1.15084 1.12725 0.36161
 N1252 N 1.16163 1.12199 0.38244
 N1253 N 1.15116 1.10167 0.39542
 C1254 C 1.12961 1.08569 0.38803
 N1255 N 1.11904 1.09078 0.36711
 N1256 N 1.12949 1.11108 0.35415
 C1257 C 1.11627 1.06496 0.40315
 C1258 C 1.09245 1.05033 0.39603
 C1259 C 1.07712 1.03440 0.41140
 C1260 C 1.08533 1.03284 0.43419
 C1261 C 1.11035 1.04560 0.44086
 C1262 C 1.12567 1.06151 0.42549
 H1263 H 1.13241 1.14379 0.32000
 H1264 H 1.15295 1.17854 0.29495
 H1265 H 1.21526 1.19708 0.34552
 H1266 H 1.19463 1.16223 0.37070
 H1267 H 1.08485 1.05225 0.37884
 H1268 H 1.05807 1.02461 0.40567
 H1269 H 1.11743 1.04451 0.45825
 H1270 H 1.14415 1.07217 0.43144
 C1271 C 0.65138 0.65111 -0.16248
 C1272 C 0.66363 0.67592 -0.15411
 C1273 C 0.68135 0.69189 -0.16773
 C1274 C 0.68685 0.68343 -0.18998
 C1275 C 0.67519 0.65822 -0.19806
 C1276 C 0.65775 0.64220 -0.18444
 C1277 C 0.63157 0.63489 -0.14862
 N1278 N 0.62257 0.60909 -0.15533
 N1279 N 0.60467 0.59451 -0.14281
 C1280 C 0.59488 0.60531 -0.12316
 N1281 N 0.60376 0.63118 -0.11658
 N1282 N 0.62169 0.64569 -0.12904
 C1283 C 0.57652 0.58872 -0.10829
 C1284 C 0.56639 0.60100 -0.08840
 C1285 C 0.55274 0.58470 -0.07242
 C1286 C 0.54866 0.55584 -0.07603
 C1287 C 0.55673 0.54376 -0.09658
 C1288 C 0.57074 0.56014 -0.11264
 H1289 H 0.65932 0.68317 -0.13714
 H1290 H 0.69007 0.71121 -0.16109
 H1291 H 0.67927 0.65097 -0.21508
 H1292 H 0.64881 0.62313 -0.19133
 H1293 H 0.57005 0.62299 -0.08464
 H1294 H 0.54626 0.59445 -0.05675
 H1295 H 0.55374 0.52146 -0.09956
 H1296 H 0.57815 0.55013 -0.12791
 C1297 C 0.85530 1.15452 0.65571
 C1298 C 0.85739 1.15038 0.67917
 C1299 C 0.84026 1.16522 0.69386
 C1300 C 0.82058 1.18447 0.68540
 C1301 C 0.81817 1.18824 0.66190
 C1302 C 0.83537 1.17343 0.64721
 C1303 C 0.87410 1.13957 0.64018
 N1304 N 0.87468 1.14634 0.61788
 N1305 N 0.89180 1.13313 0.60389
 C1306 C 0.90907 1.11262 0.61158
 N1307 N 0.90849 1.10580 0.63389
 N1308 N 0.89139 1.11908 0.64792
 C1309 C 0.92741 1.09758 0.59573
 C1310 C 0.94203 1.07330 0.60250
 C1311 C 0.95765 1.05808 0.58683
 C1312 C 0.95900 1.06703 0.56417
 C1313 C 0.94519 1.09190 0.55771
 C1314 C 0.92958 1.10695 0.57327
 H1315 H 0.87251 1.13594 0.68625
 H1316 H 0.84263 1.16174 0.71188
 H1317 H 0.80312 1.20277 0.65483
 H1318 H 0.83309 1.17690 0.62919
 H1319 H 0.94082 1.06561 0.61974
 H1320 H 0.96806 1.03901 0.59232
 H1321 H 0.94573 1.09946 0.54040
 H1322 H 0.91878 1.12569 0.56752
 C1323 C 0.36324 0.65795 0.15586
 C1324 C 0.33758 0.66782 0.14763
 C1325 C 0.32035 0.68399 0.16136
 C1326 C 0.32843 0.69025 0.18359
 C1327 C 0.35459 0.68144 0.19142
 C1328 C 0.37188 0.66554 0.17766
 C1329 C 0.38011 0.63846 0.14232
 N1330 N 0.40656 0.63198 0.14846
 N1331 N 0.42127 0.61342 0.13666
 C1332 C 0.40992 0.60040 0.11844
 N1333 N 0.38352 0.60695 0.11234
 N1334 N 0.36890 0.62555 0.12404
 C1335 C 0.42604 0.58053 0.10464
 C1336 C 0.41230 0.56479 0.08798
 C1337 C 0.42733 0.54937 0.07239
 C1338 C 0.45635 0.54914 0.07323
 C1339 C 0.47027 0.56281 0.09090
 C1340 C 0.45511 0.57857 0.10659
 H1341 H 0.33052 0.66251 0.13076
 H1342 H 0.30032 0.69062 0.15491
 H1343 H 0.36151 0.68633 0.20842
 H1344 H 0.39156 0.65837 0.18444
 H1345 H 0.38993 0.56531 0.08631
 H1346 H 0.41630 0.53852 0.05899
 H1347 H 0.49273 0.56276 0.09169
 H1348 H 0.46619 0.59032 0.11943
 C1349 C 1.14345 0.84224 0.65933
 C1350 C 1.16260 0.82279 0.65065
 C1351 C 1.18255 0.81050 0.66479
 C1352 C 1.18327 0.81698 0.68807
 C1353 C 1.16452 0.83739 0.69631
 C1354 C 1.14504 0.84982 0.68214
 C1355 C 1.12152 0.85445 0.64494
 N1356 N 1.10656 0.87686 0.65225
 N1357 N 1.08674 0.88805 0.63937
 C1358 C 1.08089 0.87706 0.61876
 N1359 N 1.09569 0.85449 0.61152
 N1360 N 1.11559 0.84335 0.62437
 C1361 C 1.06084 0.89098 0.60358
 C1362 C 1.05318 0.87807 0.58318
 C1363 C 1.03875 0.89321 0.56678
 C1364 C 1.03180 0.92155 0.57044
 C1365 C 1.03711 0.93368 0.59163
 C1366 C 1.05153 0.91845 0.60813
 H1367 H 1.16200 0.81681 0.63299
 H1368 H 1.19658 0.79516 0.65758
 H1369 H 1.16436 0.84363 0.71393
 H1370 H 1.13070 0.86488 0.68932
 H1371 H 1.05959 0.85674 0.57938
 H1372 H 1.03444 0.88319 0.55071
 H1373 H 1.03193 0.95549 0.59489
 H1374 H 1.05691 0.92886 0.62381
 C1375 C 0.66176 0.33745 0.15710
 C1376 C 0.68413 0.32082 0.14983
 C1377 C 0.69892 0.30426 0.16523
 C1378 C 0.69165 0.30408 0.18822
 C1379 C 0.66902 0.32040 0.19540
 C1380 C 0.65424 0.33688 0.18001
 C1381 C 0.64644 0.35544 0.14095
 N1382 N 0.62474 0.37143 0.14791
 N1383 N 0.61087 0.38756 0.13331
 C1384 C 0.61818 0.38838 0.11117
 N1385 N 0.63994 0.37247 0.10425
 N1386 N 0.65381 0.35636 0.11883
 C1387 C 0.60236 0.40550 0.09474
 C1388 C 0.60928 0.40471 0.07171
 C1389 C 0.59364 0.41960 0.05590
 C1390 C 0.57078 0.43576 0.06274
 C1391 C 0.56420 0.43723 0.08583
 C1392 C 0.57983 0.42215 0.10171
 H1393 H 0.69041 0.32075 0.13226
 H1394 H 0.71630 0.29198 0.15918
 H1395 H 0.66278 0.32064 0.21298
 H1396 H 0.63704 0.34933 0.18616
 H1397 H 0.62659 0.39226 0.06577
 H1398 H 0.59943 0.41830 0.03825
 H1399 H 0.54669 0.44954 0.09158
 H1400 H 0.57403 0.42327 0.11936
 C1401 C 0.83289 0.86408 0.34195
 C1402 C 0.82376 0.87422 0.32091
 C1403 C 0.80783 0.85719 0.30685
 C1404 C 0.80046 0.82986 0.31369
 C1405 C 0.80808 0.82029 0.33528
 C1406 C 0.82437 0.83723 0.34928
 C1407 C 0.85278 0.88059 0.35540
 N1408 N 0.86788 0.86798 0.37194
 N1409 N 0.88700 0.88236 0.38329
 C1410 C 0.89187 0.90990 0.37853
 N1411 N 0.87665 0.92262 0.36208
 N1412 N 0.85758 0.90817 0.35063
 C1413 C 0.91240 0.92574 0.39186
 C1414 C 0.91231 0.95539 0.39212
 C1415 C 0.92908 0.96996 0.40748
 C1416 C 0.94611 0.95490 0.42240
 C1417 C 0.94765 0.92557 0.42113
 C1418 C 0.93099 0.91105 0.40592
 H1419 H 0.82987 0.89485 0.31486
 H1420 H 0.80184 0.86517 0.29036
 H1421 H 0.80256 0.79929 0.34090
 H1422 H 0.83089 0.82902 0.36556
 H1423 H 0.89826 0.96721 0.38136
 H1424 H 0.92768 0.99269 0.40854
 H1425 H 0.96080 0.91382 0.43270
 H1426 H 0.93186 0.88827 0.40586
 C1427 C 0.33855 0.34382 -0.15647
 C1428 C 0.34050 0.34819 -0.17987
 C1429 C 0.32423 0.33257 -0.19468
 C1430 C 0.30561 0.31224 -0.18642
 C1431 C 0.30363 0.30780 -0.16301
 C1432 C 0.31999 0.32345 -0.14815
 C1433 C 0.35580 0.36046 -0.14087
 N1434 N 0.35464 0.35578 -0.11827
 N1435 N 0.37018 0.37079 -0.10416
 C1436 C 0.38750 0.39108 -0.11204
 N1437 N 0.38869 0.39579 -0.13466
 N1438 N 0.37313 0.38075 -0.14879
 C1439 C 0.40459 0.40752 -0.09618
 C1440 C 0.42263 0.42877 -0.10385
 C1441 C 0.43871 0.44406 -0.08844
 C1442 C 0.43689 0.43828 -0.06519
 C1443 C 0.41878 0.41705 -0.05767
 C1444 C 0.40289 0.40188 -0.07294
 H1445 H 0.35461 0.36368 -0.18682
 H1446 H 0.32628 0.33654 -0.21265
 H1447 H 0.28956 0.29220 -0.15615
 H1448 H 0.31806 0.31957 -0.13017
 H1449 H 0.42437 0.43356 -0.12171
 H1450 H 0.45250 0.46029 -0.09471
 H1451 H 0.41688 0.41189 -0.03988
 H1452 H 0.38928 0.38565 -0.06643
 C1453 C 1.14139 0.32830 -0.14812
 C1454 C 1.13617 0.33285 -0.17127
 C1455 C 1.15378 0.32176 -0.18770
 C1456 C 1.17715 0.30576 -0.18148
 C1457 C 1.18261 0.30146 -0.15831
 C1458 C 1.16495 0.31263 -0.14183
 C1459 C 1.12234 0.34010 -0.13085
 N1460 N 1.12753 0.33712 -0.10833
 N1461 N 1.11070 0.34859 -0.09302
 C1462 C 1.08792 0.36343 -0.09959
 N1463 N 1.08263 0.36608 -0.12207
 N1464 N 1.09941 0.35465 -0.13733
 C1465 C 1.07032 0.37841 -0.08289
 C1466 C 1.04968 0.39710 -0.09055
 C1467 C 1.03574 0.41445 -0.07539
 C1468 C 1.04167 0.41321 -0.05219
 C1469 C 1.06079 0.39328 -0.04414
 C1470 C 1.07515 0.37605 -0.05942
 H1471 H 1.11833 0.34492 -0.17680
 H1472 H 1.14883 0.32551 -0.20534
 H1473 H 1.20037 0.28919 -0.15288
 H1474 H 1.16967 0.30879 -0.12417
 H1475 H 1.04520 0.39944 -0.10841
 H1476 H 1.02111 0.42982 -0.08190
 H1477 H 1.06588 0.39232 -0.02629
 H1478 H 1.09078 0.36175 -0.05294
 C1479 C 0.63892 0.83016 0.34834
 C1480 C 0.66243 0.81474 0.35515
 C1481 C 0.68086 0.80391 0.33908
 C1482 C 0.67620 0.80821 0.31580
 C1483 C 0.65272 0.82370 0.30905
 C1484 C 0.63437 0.83453 0.32507
 C1485 C 0.61944 0.84217 0.36523
 N1486 N 0.59764 0.85819 0.35835
 N1487 N 0.58072 0.87000 0.37333
 C1488 C 0.58469 0.86627 0.39590
 N1489 N 0.60629 0.84994 0.40284
 N1490 N 0.62329 0.83812 0.38782
 C1491 C 0.56705 0.88159 0.41240
 C1492 C 0.56941 0.87688 0.43588
 C1493 C 0.55499 0.89393 0.45127
 C1494 C 0.53836 0.91615 0.44336
 C1495 C 0.53496 0.91994 0.41998
 C1496 C 0.54888 0.90273 0.40469
 H1497 H 0.66665 0.81105 0.37292
 H1498 H 0.69868 0.79203 0.34493
 H1499 H 0.64840 0.82749 0.29130
 H1500 H 0.61658 0.84638 0.31914
 H1501 H 0.58312 0.86068 0.44238
 H1502 H 0.55815 0.89086 0.46926
 H1503 H 0.52225 0.93702 0.41352
 H1504 H 0.54634 0.90695 0.38679
 C1505 C 0.84408 0.67530 -0.14420
 C1506 C 0.81623 0.68314 -0.14109
 C1507 C 0.80072 0.69452 -0.15895
 C1508 C 0.81251 0.69805 -0.18051
 C1509 C 0.84027 0.68990 -0.18373
 C1510 C 0.85593 0.67885 -0.16574
 C1511 C 0.86037 0.66309 -0.12512
 N1512 N 0.88847 0.66091 -0.12617
 N1513 N 0.90285 0.64924 -0.10923
 C1514 C 0.88974 0.63919 -0.09055
 N1515 N 0.86169 0.64155 -0.08947
 N1516 N 0.84735 0.65335 -0.10631
 C1517 C 0.90535 0.62400 -0.07252
 C1518 C 0.89135 0.60539 -0.05795
 C1519 C 0.90613 0.58809 -0.04303
 C1520 C 0.93518 0.58944 -0.04190
 C1521 C 0.94918 0.60932 -0.05527
 C1522 C 0.93440 0.62629 -0.07062
 H1523 H 0.80641 0.68072 -0.12476
 H1524 H 0.77938 0.70046 -0.15585
 H1525 H 0.85004 0.69243 -0.20008
 H1526 H 0.87727 0.67286 -0.16877
 H1527 H 0.86903 0.60305 -0.05891
 H1528 H 0.89492 0.57274 -0.03300
 H1529 H 0.97163 0.61039 -0.05493
 H1530 H 0.94578 0.64055 -0.08150
 C1531 C 0.33969 1.17274 0.36093
 C1532 C 0.31216 1.18161 0.36408
 C1533 C 0.29674 1.19260 0.34602
 C1534 C 0.30832 1.19462 0.32428
 C1535 C 0.33566 1.18523 0.32099
 C1536 C 0.35126 1.17463 0.33916
 C1537 C 0.35603 1.16134 0.38025
 N1538 N 0.38408 1.15886 0.37905
 N1539 N 0.39856 1.14804 0.39627
 C1540 C 0.38560 1.13919 0.41540
 N1541 N 0.35759 1.14180 0.41662
 N1542 N 0.34314 1.15277 0.39948
 C1543 C 0.40133 1.12483 0.43372
 C1544 C 0.38752 1.10664 0.44874
 C1545 C 0.40255 1.08944 0.46355
 C1546 C 0.43161 1.09055 0.46408
 C1547 C 0.44542 1.11029 0.45045
 C1548 C 0.43040 1.12712 0.43521
 H1549 H 0.30259 1.18046 0.38060
 H1550 H 0.27571 1.19961 0.34912
 H1551 H 0.34524 1.18673 0.30449
 H1552 H 0.37235 1.16783 0.33613
 H1553 H 0.36519 1.10432 0.44807
 H1554 H 0.39155 1.07416 0.47379
 H1555 H 0.46788 1.11115 0.45033
 H1556 H 0.44161 1.14105 0.42395
 C1557 C 1.16351 0.66967 0.13892
 C1558 C 1.19117 0.67774 0.13498
 C1559 C 1.20772 0.68817 0.15261
 C1560 C 1.19715 0.69031 0.17469
 C1561 C 1.16966 0.68174 0.17868
 C1562 C 1.15299 0.67178 0.16100
 C1563 C 1.14582 0.65875 0.12024
 N1564 N 1.11777 0.65757 0.12239
 N1565 N 1.10198 0.64679 0.10599
 C1566 C 1.11356 0.63663 0.08674
 N1567 N 1.14159 0.63805 0.08451
 N1568 N 1.15736 0.64901 0.10084
 C1569 C 1.09630 0.62204 0.06948
 C1570 C 1.10861 0.60266 0.05465
 C1571 C 1.09221 0.58562 0.04077
 C1572 C 1.06320 0.58806 0.04093
 C1573 C 1.05086 0.60877 0.05445
 C1574 C 1.06727 0.62545 0.06880
 H1575 H 1.19994 0.67637 0.11818
 H1576 H 1.22880 0.69457 0.14896
 H1577 H 1.16077 0.68331 0.19543
 H1578 H 1.13187 0.66557 0.16468
 H1579 H 1.13085 0.59945 0.05469
 H1580 H 1.10213 0.56962 0.03057
 H1581 H 1.02850 0.61073 0.05504
 H1582 H 1.05717 0.64032 0.07992
 C1583 C 0.66060 1.17178 0.63962
 C1584 C 0.64876 1.17642 0.66099
 C1585 C 0.66477 1.18704 0.67883
 C1586 C 0.69291 1.19367 0.67565
 C1587 C 0.70475 1.18912 0.65426
 C1588 C 0.68885 1.17807 0.63652
 C1589 C 0.64372 1.16005 0.62079
 N1590 N 0.65612 1.14858 0.60239
 N1591 N 0.64104 1.13701 0.58592
 C1592 C 0.61289 1.13665 0.58700
 N1593 N 0.60045 1.14850 0.60524
 N1594 N 0.61555 1.15991 0.62179
 C1595 C 0.59628 1.12150 0.56966
 C1596 C 0.56738 1.12540 0.56788
 C1597 C 0.55145 1.10839 0.55346
 C1598 C 0.56409 1.08685 0.54099
 C1599 C 0.59304 1.08389 0.54191
 C1600 C 0.60900 1.10124 0.55586
 H1601 H 0.62712 1.17163 0.66402
 H1602 H 0.65495 1.19053 0.69504
 H1603 H 0.72639 1.19396 0.65127
 H1604 H 0.69864 1.17472 0.62030
 H1605 H 0.55698 1.14097 0.57816
 H1606 H 0.52911 1.11087 0.55316
 H1607 H 0.60323 1.06737 0.53243
 H1608 H 0.63117 1.09770 0.55672
 C1609 C 0.85068 0.32477 0.14990
 C1610 C 0.82391 0.31452 0.14518
 C1611 C 0.80786 0.30218 0.16223
 C1612 C 0.81805 0.30014 0.18450
 C1613 C 0.84475 0.31056 0.18925
 C1614 C 0.86093 0.32255 0.17213
 C1615 C 0.86753 0.33820 0.13185
 N1616 N 0.89520 0.34263 0.13470
 N1617 N 0.91006 0.35552 0.11874
 C1618 C 0.89786 0.36462 0.09929
 N1619 N 0.87026 0.36001 0.09640
 N1620 N 0.85545 0.34698 0.11228
 C1621 C 0.91375 0.38100 0.08227
 C1622 C 0.89963 0.39868 0.06699
 C1623 C 0.91429 0.41655 0.05256
 C1624 C 0.94335 0.41663 0.05265
 C1625 C 0.95769 0.39807 0.06700
 C1626 C 0.94298 0.38052 0.08188
 H1627 H 0.81538 0.31583 0.12824
 H1628 H 0.78740 0.29436 0.15797
 H1629 H 0.85331 0.30913 0.20617
 H1630 H 0.88141 0.33033 0.17638
 H1631 H 0.87719 0.39967 0.06686
 H1632 H 0.90293 0.43095 0.04170
 H1633 H 0.98015 0.39814 0.06745
 H1634 H 0.95445 0.36705 0.09338
 C1635 C 0.34905 0.82962 0.65037
 C1636 C 0.32504 0.81487 0.64382
 C1637 C 0.30670 0.80407 0.66009
 C1638 C 0.31192 0.80763 0.68348
 C1639 C 0.33590 0.82289 0.68980
 C1640 C 0.35407 0.83359 0.67357
 C1641 C 0.36884 0.84114 0.63338
 N1642 N 0.39178 0.85535 0.64030
 N1643 N 0.40927 0.86649 0.62538
 C1644 C 0.40478 0.86388 0.60279
 N1645 N 0.38196 0.84942 0.59578
 N1646 N 0.36439 0.83825 0.61076
 C1647 C 0.42332 0.87854 0.58644
 C1648 C 0.41984 0.87575 0.56285
 C1649 C 0.43501 0.89277 0.54783
 C1650 C 0.45366 0.91295 0.55621
 C1651 C 0.45831 0.91453 0.57959
 C1652 C 0.44356 0.89739 0.59450
 H1653 H 0.32046 0.81150 0.62609
 H1654 H 0.28863 0.79263 0.65421
 H1655 H 0.34106 0.82648 0.70742
 H1656 H 0.37224 0.84493 0.67933
 H1657 H 0.40461 0.86128 0.55605
 H1658 H 0.43083 0.89152 0.52984
 H1659 H 0.47251 0.93005 0.58641
 H1660 H 0.44706 0.90006 0.61247
 C1661 C 0.32694 1.16193 -0.14207
 C1662 C 0.31786 1.18986 -0.13932
 C1663 C 0.30555 1.20452 -0.15732
 C1664 C 0.30244 1.19179 -0.17864
 C1665 C 0.31214 1.16411 -0.18155
 C1666 C 0.32404 1.14928 -0.16344
 C1667 C 0.33942 1.14617 -0.12280
 N1668 N 0.34129 1.11761 -0.12317
 N1669 N 0.35298 1.10355 -0.10606
 C1670 C 0.36340 1.11746 -0.08785
 N1671 N 0.36140 1.14601 -0.08743
 N1672 N 0.34953 1.16004 -0.10446
 C1673 C 0.37859 1.10205 -0.06972
 C1674 C 0.39811 1.11624 -0.05619
 C1675 C 0.41547 1.10127 -0.04148
 C1676 C 0.41324 1.07188 -0.03950
 C1677 C 0.39242 1.05784 -0.05172
 C1678 C 0.37541 1.07277 -0.06688
 H1679 H 0.31981 1.20025 -0.12311
 H1680 H 0.29836 1.22583 -0.15451
 H1681 H 0.30989 1.15363 -0.19771
 H1682 H 0.33102 1.12789 -0.16619
 H1683 H 0.40111 1.13875 -0.05792
 H1684 H 0.43152 1.11250 -0.03234
 H1685 H 0.39062 1.03513 -0.05076
 H1686 H 0.36043 1.06125 -0.07694
 C1687 C 0.83629 0.67001 0.35406
 C1688 C 0.84697 0.67121 0.33197
 C1689 C 0.83522 0.68898 0.31572
 C1690 C 0.81234 0.70605 0.32101
 C1691 C 0.80249 0.70600 0.34342
 C1692 C 0.81436 0.68816 0.35978
 C1693 C 0.84754 0.64905 0.37044
 N1694 N 0.84034 0.64924 0.39269
 N1695 N 0.85070 0.63013 0.40705
 C1696 C 0.86848 0.60989 0.39970
 N1697 N 0.87540 0.60968 0.37746
 N1698 N 0.86518 0.62875 0.36319
 C1699 C 0.88161 0.58933 0.41549
 C1700 C 0.89938 0.56853 0.40681
 C1701 C 0.91521 0.55172 0.42126
 C1702 C 0.91342 0.55486 0.44476
 C1703 C 0.89429 0.57410 0.45371
 C1704 C 0.87849 0.59130 0.43914
 H1705 H 0.86412 0.65790 0.32698
 H1706 H 0.84358 0.68860 0.29874
 H1707 H 0.78489 0.71886 0.34810
 H1708 H 0.80574 0.68791 0.37667
 H1709 H 0.90215 0.56607 0.38876
 H1710 H 0.92999 0.53713 0.41401
 H1711 H 0.89298 0.57718 0.47182
 H1712 H 0.86494 0.60702 0.44639
 C1713 C 0.67218 1.14648 0.15035
 C1714 C 0.66727 1.14133 0.17345
 C1715 C 0.67902 1.15849 0.19011
 C1716 C 0.69613 1.18136 0.18423
 C1717 C 0.70066 1.18690 0.16111
 C1718 C 0.68881 1.16970 0.14438
 C1719 C 0.65998 1.12756 0.13284
 N1720 N 0.66328 1.13270 0.11035
 N1721 N 0.65175 1.11586 0.09488
 C1722 C 0.63652 1.09306 0.10124
 N1723 N 0.63350 1.08786 0.12371
 N1724 N 0.64497 1.10466 0.13912
 C1725 C 0.62179 1.07518 0.08432
 C1726 C 0.60378 1.05378 0.09176
 C1727 C 0.58682 1.03943 0.07647
 C1728 C 0.58774 1.04566 0.05329
 C1729 C 0.60699 1.06557 0.04545
 C1730 C 0.62385 1.08032 0.06087
 H1731 H 0.65447 1.12379 0.17877
 H1732 H 0.67501 1.15345 0.20768
 H1733 H 0.71373 1.20428 0.15591
 H1734 H 0.69296 1.17441 0.12679
 H1735 H 0.60171 1.04896 0.10959
 H1736 H 0.57196 1.02428 0.08287
 H1737 H 0.60768 1.07103 0.02766
 H1738 H 0.63759 1.09652 0.05451
 C1739 C 1.16193 0.66624 0.64370
 C1740 C 1.16159 0.65582 0.66599
 C1741 C 1.17238 0.67182 0.68383
 C1742 C 1.18414 0.69846 0.67977
 C1743 C 1.18401 0.70910 0.65754
 C1744 C 1.17286 0.69327 0.63975
 C1745 C 1.15108 0.64901 0.62469
 N1746 N 1.14466 0.66112 0.60449
 N1747 N 1.13436 0.64578 0.58758
 C1748 C 1.13033 0.61761 0.59003
 N1749 N 1.13707 0.60542 0.61014
 N1750 N 1.14720 0.62080 0.62711
 C1751 C 1.11676 0.60100 0.57183
 C1752 C 1.11784 0.57134 0.57181
 C1753 C 1.10190 0.55578 0.55637
 C1754 C 1.08434 0.56966 0.54100
 C1755 C 1.08434 0.59918 0.54023
 C1756 C 1.10063 0.61471 0.55529
 H1757 H 1.15310 0.63520 0.66966
 H1758 H 1.17228 0.66290 0.70072
 H1759 H 1.19288 0.72955 0.65381
 H1760 H 1.17341 0.70196 0.62281
 H1761 H 1.13020 0.56017 0.58426
 H1762 H 1.10179 0.53300 0.55749
 H1763 H 1.07067 0.61026 0.52865
 H1764 H 1.09927 0.63746 0.55481
 C1765 C 0.65939 0.84488 -0.15109
 C1766 C 0.67901 0.82451 -0.14441
 C1767 C 0.69086 0.80631 -0.16038
 C1768 C 0.68337 0.80805 -0.18340
 C1769 C 0.66294 0.82768 -0.18982
 C1770 C 0.65115 0.84580 -0.17393
 C1771 C 0.64789 0.86561 -0.13469
 N1772 N 0.63041 0.88617 -0.14196
 N1773 N 0.61998 0.90489 -0.12759
 C1774 C 0.62658 0.90405 -0.10523
 N1775 N 0.64418 0.88355 -0.09789
 N1776 N 0.65468 0.86478 -0.11233
 C1777 C 0.61334 0.92420 -0.08926
 C1778 C 0.61843 0.92308 -0.06576
 C1779 C 0.60305 0.93991 -0.05079
 C1780 C 0.58225 0.95790 -0.05912
 C1781 C 0.57838 0.96022 -0.08257
 C1782 C 0.59383 0.94379 -0.09745
 H1783 H 0.68572 0.82305 -0.12695
 H1784 H 0.70656 0.79152 -0.15478
 H1785 H 0.65650 0.82964 -0.20733
 H1786 H 0.63592 0.86095 -0.17974
 H1787 H 0.63341 0.90838 -0.05886
 H1788 H 0.60608 0.93747 -0.03272
 H1789 H 0.56237 0.97387 -0.08937
 H1790 H 0.58947 0.94558 -0.11537
 C1791 C 1.16747 0.34759 0.35667
 C1792 C 1.17602 0.31966 0.36048
 C1793 C 1.18756 0.30376 0.34302
 C1794 C 1.19052 0.31523 0.32121
 C1795 C 1.18151 0.34299 0.31725
 C1796 C 1.17028 0.35905 0.33483
 C1797 C 1.15556 0.36443 0.37541
 N1798 N 1.15246 0.39279 0.37352
 N1799 N 1.14124 0.40769 0.39024
 C1800 C 1.13260 0.39485 0.40956
 N1801 N 1.13586 0.36653 0.41148
 N1802 N 1.14721 0.35167 0.39483
 C1803 C 1.11794 0.41093 0.42736
 C1804 C 1.10040 0.39683 0.44260
 C1805 C 1.08334 0.41199 0.45719
 C1806 C 1.08396 0.44151 0.45732
 C1807 C 1.10288 0.45570 0.44336
 C1808 C 1.11958 0.44052 0.42831
 H1809 H 1.17420 0.31015 0.37707
 H1810 H 1.19431 0.28247 0.34666
 H1811 H 1.18377 0.35256 0.30070
 H1812 H 1.16378 0.38046 0.33129
 H1813 H 1.09869 0.37409 0.44240
 H1814 H 1.06879 0.40069 0.46780
 H1815 H 1.10342 0.47852 0.44301
 H1816 H 1.13308 0.45195 0.41692
 C1817 C 0.33929 0.84071 0.14176
 C1818 C 0.33684 0.85227 0.16355
 C1819 C 0.32639 0.83611 0.18148
 C1820 C 0.31782 0.80817 0.17792
 C1821 C 0.32083 0.79647 0.15623
 C1822 C 0.33158 0.81247 0.13843
 C1823 C 0.34966 0.85790 0.12253
 N1824 N 0.35759 0.84540 0.10295
 N1825 N 0.36733 0.86065 0.08578
 C1826 C 0.36930 0.88912 0.08732
 N1827 N 0.36108 0.90169 0.10681
 N1828 N 0.35147 0.88640 0.12405
 C1829 C 0.38232 0.90576 0.06889
 C1830 C 0.37991 0.93531 0.06811
 C1831 C 0.39548 0.95111 0.05261
 C1832 C 0.41404 0.93762 0.03797
 C1833 C 0.41523 0.90810 0.03783
 C1834 C 0.39928 0.89231 0.05292
 H1835 H 0.34281 0.87388 0.16674
 H1836 H 0.32416 0.84579 0.19794
 H1837 H 0.31450 0.77498 0.15292
 H1838 H 0.33324 0.80285 0.12191
 H1839 H 0.36686 0.94628 0.08008
 H1840 H 0.39461 0.97390 0.05326
 H1841 H 0.42960 0.89730 0.02679
 H1842 H 0.40160 0.86963 0.05299
 C1843 C 0.84057 0.34498 0.64680
 C1844 C 0.82275 0.32300 0.64024
 C1845 C 0.81171 0.30452 0.65640
 C1846 C 0.81827 0.30759 0.67949
 C1847 C 0.83700 0.32885 0.68586
 C1848 C 0.84798 0.34727 0.66976
 C1849 C 0.85092 0.36594 0.63011
 N1850 N 0.86596 0.38844 0.63716
 N1851 N 0.87535 0.40738 0.62242
 C1852 C 0.87006 0.40481 0.59995
 N1853 N 0.85487 0.38236 0.59283
 N1854 N 0.84541 0.36338 0.60762
 C1855 C 0.88245 0.42507 0.58364
 C1856 C 0.87929 0.42174 0.56007
 C1857 C 0.89467 0.43843 0.54498
 C1858 C 0.91339 0.45851 0.55332
 C1859 C 0.91504 0.46317 0.57668
 C1860 C 0.89963 0.44682 0.59166
 H1861 H 0.81674 0.32049 0.62269
 H1862 H 0.79730 0.28844 0.65085
 H1863 H 0.84263 0.33185 0.70345
 H1864 H 0.86191 0.36371 0.67544
 H1865 H 0.86605 0.40536 0.55331
 H1866 H 0.89345 0.43429 0.52699
 H1867 H 0.92953 0.47850 0.58340
 H1868 H 0.90242 0.45029 0.60962
 C1869 C 1.15276 1.13501 0.66064
 C1870 C 1.14047 1.14418 0.68078
 C1871 C 1.15317 1.16485 0.69379
 C1872 C 1.17835 1.17693 0.68689
 C1873 C 1.19010 1.16880 0.66625
 C1874 C 1.17745 1.14785 0.65325
 C1875 C 1.13993 1.11193 0.64768
 N1876 N 1.15321 1.10028 0.62982
 N1877 N 1.14128 1.07984 0.61792
 C1878 C 1.11568 1.07014 0.62346
 N1879 N 1.10256 1.08155 0.64151
 N1880 N 1.11451 1.10194 0.65344
 C1881 C 1.10114 1.05015 0.60852
 C1882 C 1.07262 1.04491 0.61126
 C1883 C 1.05764 1.03121 0.59431
 C1884 C 1.07101 1.02263 0.57446
 C1885 C 1.09994 1.02523 0.57284
 C1886 C 1.11489 1.03886 0.58973
 H1887 H 1.12137 1.13492 0.68686
 H1888 H 1.14356 1.17095 0.70958
 H1889 H 1.20959 1.17775 0.66067
 H1890 H 1.18726 1.14141 0.63765
 H1891 H 1.06151 1.05302 0.62573
 H1892 H 1.03536 1.02924 0.59602
 H1893 H 1.11084 1.01817 0.55790
 H1894 H 1.13693 1.04201 0.58736
 C1895 C 0.67470 0.63867 0.15429
 C1896 C 0.69144 0.66076 0.14624
 C1897 C 0.70293 0.68020 0.16125
 C1898 C 0.69792 0.67780 0.18456
 C1899 C 0.68166 0.65533 0.19257
 C1900 C 0.67020 0.63601 0.17762
 C1901 C 0.66081 0.61929 0.13849
 N1902 N 0.64177 0.60049 0.14614
 N1903 N 0.62772 0.58432 0.13178
 C1904 C 0.63224 0.58627 0.10920
 N1905 N 0.65162 0.60473 0.10159
 N1906 N 0.66562 0.62094 0.11594
 C1907 C 0.61509 0.57023 0.09311
 C1908 C 0.62058 0.57196 0.06987
 C1909 C 0.60292 0.55920 0.05435
 C1910 C 0.57937 0.54440 0.06172
 C1911 C 0.57437 0.54173 0.08501
 C1912 C 0.59212 0.55455 0.10059
 H1913 H 0.69529 0.66334 0.12832
 H1914 H 0.71555 0.69716 0.15459
 H1915 H 0.67751 0.65271 0.21045
 H1916 H 0.65752 0.61917 0.18438
 H1917 H 0.63822 0.58367 0.06355
 H1918 H 0.60758 0.56136 0.03652
 H1919 H 0.55645 0.53033 0.09117
 H1920 H 0.58738 0.55281 0.11843
 C1921 C 1.14799 0.83457 0.33891
 C1922 C 1.16393 0.81160 0.34651
 C1923 C 1.18326 0.79901 0.33222
 C1924 C 1.18683 0.80907 0.31006
 C1925 C 1.17130 0.83240 0.30268
 C1926 C 1.15213 0.84504 0.31696
 C1927 C 1.12717 0.84768 0.35374
 N1928 N 1.11337 0.87117 0.34698
 N1929 N 1.09518 0.88356 0.36056
 C1930 C 1.08994 0.87286 0.38142
 N1931 N 1.10349 0.84915 0.38808
 N1932 N 1.12171 0.83678 0.37449
 C1933 C 1.07175 0.88800 0.39726
 C1934 C 1.06651 0.87681 0.41883
 C1935 C 1.05277 0.89283 0.43499
 C1936 C 1.04395 0.92034 0.42987
 C1937 C 1.04750 0.93081 0.40783
 C1938 C 1.06132 0.91479 0.39167
 H1939 H 1.16134 0.80316 0.36340
 H1940 H 1.19483 0.78094 0.33832
 H1941 H 1.17365 0.84073 0.28572
 H1942 H 1.14032 0.86281 0.31063
 H1943 H 1.07395 0.85609 0.42357
 H1944 H 1.05007 0.88401 0.45175
 H1945 H 1.04071 0.95184 0.40332
 H1946 H 1.06488 0.92394 0.37514
 C1947 C 0.64468 0.34329 -0.16526
 C1948 C 0.65844 0.31917 -0.15712
 C1949 C 0.67882 0.30612 -0.17009
 C1950 C 0.68560 0.31685 -0.19151
 C1951 C 0.67248 0.34148 -0.19930
 C1952 C 0.65228 0.35461 -0.18629
 C1953 C 0.62256 0.35660 -0.15189
 N1954 N 0.61216 0.38216 -0.15784
 N1955 N 0.59312 0.39473 -0.14512
 C1956 C 0.58356 0.38209 -0.12606
 N1957 N 0.59355 0.35626 -0.12042
 N1958 N 0.61261 0.34374 -0.13309
 C1959 C 0.56546 0.39738 -0.11023
 C1960 C 0.55854 0.38490 -0.08945
 C1961 C 0.54652 0.40086 -0.07246
 C1962 C 0.54086 0.42951 -0.07597
 C1963 C 0.54533 0.44148 -0.09736
 C1964 C 0.55771 0.42551 -0.11440
 H1965 H 0.65322 0.31011 -0.14085
 H1966 H 0.68847 0.28706 -0.16374
 H1967 H 0.67736 0.35030 -0.21573
 H1968 H 0.64219 0.37326 -0.19296
 H1969 H 0.56377 0.36318 -0.08578
 H1970 H 0.54264 0.39104 -0.05620
 H1971 H 0.54087 0.46352 -0.10044
 H1972 H 0.56250 0.43562 -0.13036
 C1973 C 0.86461 1.15107 0.34460
 C1974 C 0.85408 1.13781 0.32519
 C1975 C 0.83326 1.15056 0.31246
 C1976 C 0.82237 1.17674 0.31892
 C1977 C 0.83149 1.18918 0.33911
 C1978 C 0.85256 1.17647 0.35183
 C1979 C 0.88862 1.13881 0.35666
 N1980 N 0.90028 1.15225 0.37454
 N1981 N 0.92177 1.14096 0.38546
 C1982 C 0.93261 1.11591 0.37884
 N1983 N 0.92118 1.10270 0.36074
 N1984 N 0.89972 1.11399 0.34982
 C1985 C 0.95388 1.10166 0.39276
 C1986 C 0.96145 1.07364 0.38819
 C1987 C 0.97619 1.05797 0.40422
 C1988 C 0.98343 1.07010 0.42503
 C1989 C 0.97863 1.09894 0.42847
 C1990 C 0.96402 1.11461 0.41244
 H1991 H 0.86257 1.11802 0.31934
 H1992 H 0.82638 1.14039 0.29704
 H1993 H 0.82348 1.20944 0.34437
 H1994 H 0.85998 1.18701 0.36690
 H1995 H 0.95428 1.06315 0.37302
 H1996 H 0.97977 1.03580 0.40110
 H1997 H 0.98447 1.10893 0.44424
 H1998 H 0.95905 1.13632 0.41625
 C1999 C 0.33566 0.64689 -0.15460
 C2000 C 0.32143 0.67078 -0.14675
 C2001 C 0.30608 0.68745 -0.16169
 C2002 C 0.30479 0.68059 -0.18474
 C2003 C 0.31825 0.65616 -0.19240
 C2004 C 0.33347 0.63946 -0.17748
 C2005 C 0.35377 0.63062 -0.13926
 N2006 N 0.36706 0.60713 -0.14657
 N2007 N 0.38444 0.59325 -0.13300
 C2008 C 0.38929 0.60242 -0.11163
 N2009 N 0.37585 0.62579 -0.10432
 N2010 N 0.35848 0.63963 -0.11785
 C2011 C 0.40866 0.58743 -0.09649
 C2012 C 0.41485 0.59874 -0.07516
 C2013 C 0.43203 0.58431 -0.06023
 C2014 C 0.44346 0.55819 -0.06622
 C2015 C 0.43811 0.54717 -0.08781
 C2016 C 0.42079 0.56170 -0.10285
 H2017 H 0.32257 0.67696 -0.12916
 H2018 H 0.29584 0.70608 -0.15527
 H2019 H 0.31741 0.65010 -0.21004
 H2020 H 0.34406 0.62112 -0.18404
 H2021 H 0.40615 0.61865 -0.06980
 H2022 H 0.43604 0.59352 -0.04380
 H2023 H 0.44662 0.52702 -0.09281
 H2024 H 0.41646 0.55251 -0.11923
 C2025 C 0.83106 0.86757 0.65513
 C2026 C 0.83750 0.86823 0.67831
 C2027 C 0.82539 0.84905 0.69317
 C2028 C 0.80663 0.82867 0.68520
 C2029 C 0.80016 0.82796 0.66202
 C2030 C 0.81222 0.84726 0.64714
 C2031 C 0.84450 0.88749 0.63937
 N2032 N 0.83752 0.88790 0.61711
 N2033 N 0.85059 0.90491 0.60275
 C2034 C 0.87115 0.92225 0.61004
 N2035 N 0.87789 0.92210 0.63235
 N2036 N 0.86478 0.90512 0.64672
 C2037 C 0.88744 0.93901 0.59370
 C2038 C 0.91166 0.95310 0.60062
 C2039 C 0.92917 0.96546 0.58465
 C2040 C 0.92274 0.96400 0.56149
 C2041 C 0.89760 0.95152 0.55475
 C2042 C 0.88015 0.93915 0.57068
 H2043 H 0.85194 0.88356 0.68503
 H2044 H 0.83082 0.85020 0.71094
 H2045 H 0.78564 0.81265 0.65537
 H2046 H 0.80688 0.84612 0.62936
 H2047 H 0.91775 0.95357 0.61826
 H2048 H 0.94825 0.97515 0.59042
 H2049 H 0.89187 0.95024 0.53705
 H2050 H 0.86147 0.92877 0.56482
 C2051 C 0.35395 0.34509 0.15930
 C2052 C 0.36353 0.33633 0.18060
 C2053 C 0.34650 0.32057 0.19470
 C2054 C 0.31965 0.31298 0.18773
 C2055 C 0.31044 0.32048 0.16602
 C2056 C 0.32742 0.33663 0.15194
 C2057 C 0.37112 0.36397 0.14537
 N2058 N 0.35984 0.37785 0.12751
 N2059 N 0.37504 0.39564 0.11538
 C2060 C 0.40209 0.40037 0.12061
 N2061 N 0.41344 0.38643 0.13844
 N2062 N 0.39819 0.36869 0.15066
 C2063 C 0.41895 0.41905 0.10623
 C2064 C 0.44809 0.41971 0.10805
 C2065 C 0.46387 0.43429 0.09198
 C2066 C 0.45054 0.44806 0.07401
 C2067 C 0.42153 0.44912 0.07320
 C2068 C 0.40587 0.43487 0.08919
 H2069 H 0.38389 0.34234 0.18669
 H2070 H 0.35425 0.31461 0.21126
 H2071 H 0.28984 0.31474 0.16029
 H2072 H 0.31961 0.34287 0.13548
 H2073 H 0.45871 0.40788 0.12115
 H2074 H 0.48631 0.43331 0.09277
 H2075 H 0.41094 0.46007 0.05957
 H2076 H 0.38349 0.43530 0.08756
   
