data_POSCAR
  _audit_creation_date              2014-09-24
  _audit_creation_method            'ToBaCCo'
  _symmetry_space_group_name_H-M    'P1'
  _symmetry_Int_Tables_number       1
  _symmetry_cell_setting            triclinic
  loop_
  _symmetry_equiv_pos_as_xyz
 x,y,z
_cell_length_a 35.9873
_cell_length_b 36.3086
_cell_length_c 30.6160
_cell_angle_alpha 89.944700
_cell_angle_beta 90.081900
_cell_angle_gamma 89.960700
loop_
  _atom_site_label
  _atom_site_type_symbol
  _atom_site_fract_x
  _atom_site_fract_y
  _atom_site_fract_z
C1 C 0.32726 -0.05205 0.25937
 C2 C 0.34455 -0.02047 0.24084
 C3 C 0.37527 -0.02552 0.21370
 C4 C 0.39329 -0.05935 0.21065
 C5 C 0.37652 -0.09042 0.22854
 C6 C 0.34203 -0.08770 0.25078
 C7 C 0.34434 0.01678 0.26087
 C8 C 0.37473 0.02197 0.28852
 C9 C 0.39365 0.05552 0.29039
 C10 C 0.37836 0.08616 0.26951
 C11 C 0.34327 0.08371 0.24865
 C12 C 0.32757 0.04828 0.24154
 H13 H 0.30297 -0.04892 0.27984
 H14 H 0.38815 -0.00150 0.19898
 H15 H 0.38664 -0.00197 0.30462
 H16 H 0.30301 0.04530 0.22142
 H17 H 0.38881 -0.11706 0.22177
 H18 H 0.39139 0.11280 0.27409
 C19 C 0.17188 -0.04745 0.73929
 C20 C 0.15653 -0.01679 0.76169
 C21 C 0.12896 -0.02323 0.79269
 C22 C 0.10950 -0.05658 0.79389
 C23 C 0.12457 -0.08685 0.77215
 C24 C 0.15767 -0.08328 0.74736
 C25 C 0.15328 0.02062 0.74239
 C26 C 0.12134 0.02475 0.71693
 C27 C 0.10281 0.05845 0.71325
 C28 C 0.11883 0.08974 0.73193
 C29 C 0.15414 0.08776 0.75241
 C30 C 0.17034 0.05261 0.75990
 H31 H 0.19441 -0.04354 0.71637
 H32 H 0.11922 0.00013 0.81137
 H33 H 0.10892 0.00029 0.70266
 H34 H 0.19561 0.05021 0.77890
 H35 H 0.11232 -0.11370 0.77765
 H36 H 0.10589 0.11630 0.72629
 C37 C 0.67260 0.44984 0.23921
 C38 C 0.65478 0.48139 0.25709
 C39 C 0.62399 0.47623 0.28416
 C40 C 0.60708 0.44195 0.28885
 C41 C 0.62460 0.41095 0.27175
 C42 C 0.65857 0.41409 0.24873
 C43 C 0.65545 0.51879 0.23721
 C44 C 0.62575 0.52415 0.20862
 C45 C 0.60474 0.55665 0.20931
 C46 C 0.61912 0.58723 0.23113
 C47 C 0.65444 0.58532 0.25155
 C48 C 0.67100 0.55018 0.25794
 H49 H 0.69674 0.45302 0.21850
 H50 H 0.61063 0.50024 0.29826
 H51 H 0.61598 0.50049 0.19048
 H52 H 0.69545 0.54735 0.27830
 H53 H 0.61322 0.38409 0.27938
 H54 H 0.60516 0.61351 0.22746
 C55 C 0.82785 0.44948 0.75895
 C56 C 0.84356 0.48101 0.73871
 C57 C 0.87398 0.47607 0.71116
 C58 C 0.89453 0.44327 0.71107
 C59 C 0.87974 0.41249 0.73221
 C60 C 0.84448 0.41440 0.75273
 C61 C 0.84278 0.51850 0.75819
 C62 C 0.87129 0.52350 0.78850
 C63 C 0.89130 0.55657 0.79100
 C64 C 0.87636 0.58769 0.77049
 C65 C 0.84307 0.58530 0.74572
 C66 C 0.82794 0.54998 0.73687
 H67 H 0.80321 0.45218 0.77892
 H68 H 0.88413 0.49999 0.69380
 H69 H 0.88060 0.49939 0.80622
 H70 H 0.80499 0.54708 0.71425
 H71 H 0.89351 0.38615 0.72826
 H72 H 0.88895 0.61427 0.77679
 C73 C 0.24129 0.38073 1.05905
 C74 C 0.25667 0.40114 1.02463
 C75 C 0.28188 0.42903 1.03340
 C76 C 0.29273 0.43796 1.07593
 C77 C 0.27851 0.41671 1.11047
 C78 C 0.25280 0.38769 1.10225
 C79 C 0.24117 0.40147 0.98035
 C80 C 0.21541 0.42907 0.97217
 C81 C 0.20445 0.43876 0.92977
 C82 C 0.21979 0.41881 0.89479
 C83 C 0.24601 0.39022 0.90255
 C84 C 0.25724 0.38228 0.94551
 H85 H 0.22095 0.35955 1.05213
 H86 H 0.29320 0.44369 1.00568
 H87 H 0.20421 0.44277 1.00043
 H88 H 0.27796 0.36128 0.95181
 H89 H 0.28903 0.42127 1.14321
 H90 H 0.20973 0.42391 0.86197
 C91 C 0.76116 0.11848 1.05848
 C92 C 0.74726 0.09691 1.02429
 C93 C 0.72287 0.06827 1.03301
 C94 C 0.70927 0.06130 1.07489
 C95 C 0.72266 0.08326 1.10933
 C96 C 0.74888 0.11193 1.10139
 C97 C 0.76239 0.09741 0.97993
 C98 C 0.78723 0.06935 0.97052
 C99 C 0.79648 0.05978 0.92764
 C100 C 0.78117 0.08064 0.89339
 C101 C 0.75609 0.10988 0.90240
 C102 C 0.74608 0.11751 0.94584
 H103 H 0.78115 0.14001 1.05165
 H104 H 0.71441 0.05190 1.00547
 H105 H 0.79937 0.05491 0.99798
 H106 H 0.72600 0.13887 0.95308
 H107 H 0.71118 0.07946 1.14173
 H108 H 0.79045 0.07575 0.86025
 C109 C 0.25760 0.61832 0.55417
 C110 C 0.24263 0.59693 0.52038
 C111 C 0.21802 0.56867 0.53001
 C112 C 0.20697 0.56078 0.57279
 C113 C 0.22103 0.58291 0.60666
 C114 C 0.24640 0.61188 0.59749
 C115 C 0.25747 0.59688 0.47583
 C116 C 0.28295 0.56923 0.46678
 C117 C 0.29383 0.56076 0.42413
 C118 C 0.27906 0.58197 0.38980
 C119 C 0.25300 0.61051 0.39837
 C120 C 0.24174 0.61733 0.44159
 H121 H 0.27748 0.63981 0.54676
 H122 H 0.20703 0.55324 0.50273
 H123 H 0.29461 0.55459 0.49435
 H124 H 0.22132 0.63844 0.44854
 H125 H 0.21066 0.57908 0.63955
 H126 H 0.28937 0.57779 0.35695
 C127 C 0.74279 0.88237 0.55411
 C128 C 0.75892 0.90141 0.51932
 C129 C 0.78443 0.92911 0.52738
 C130 C 0.79486 0.93944 0.56980
 C131 C 0.77944 0.91950 0.60487
 C132 C 0.75373 0.89053 0.59701
 C133 C 0.74300 0.90154 0.47541
 C134 C 0.71819 0.92992 0.46721
 C135 C 0.70582 0.93849 0.42514
 C136 C 0.71968 0.91727 0.39027
 C137 C 0.74573 0.88846 0.39804
 C138 C 0.75769 0.88111 0.44082
 H139 H 0.72222 0.86129 0.54775
 H140 H 0.79571 0.94240 0.49885
 H141 H 0.70880 0.94504 0.49532
 H142 H 0.77802 0.85976 0.44718
 H143 H 0.78919 0.92473 0.63780
 H144 H 0.70879 0.92172 0.35768
 C145 C -0.04714 0.23645 0.35387
 C146 C -0.01375 0.23409 0.37676
 C147 C -0.00930 0.20906 0.41082
 C148 C -0.03875 0.18738 0.42470
 C149 C -0.07297 0.18998 0.40220
 C150 C -0.07694 0.21398 0.36591
 C151 C 0.01235 0.26426 0.37641
 C152 C 0.00795 0.28978 0.40989
 C153 C 0.03734 0.31170 0.42312
 C154 C 0.07144 0.30907 0.40059
 C155 C 0.07532 0.28461 0.36486
 C156 C 0.04566 0.26179 0.35340
 H157 H -0.05043 0.25732 0.32885
 H158 H 0.01677 0.20890 0.42852
 H159 H -0.01793 0.29023 0.42791
 H160 H 0.04913 0.24069 0.32874
 H161 H -0.09615 0.17297 0.41236
 H162 H 0.09458 0.32628 0.41030
 C163 C -0.04861 0.75963 0.14871
 C164 C -0.01468 0.76234 0.12705
 C165 C -0.00937 0.78815 0.09407
 C166 C -0.03848 0.80981 0.07951
 C167 C -0.07318 0.80712 0.10072
 C168 C -0.07801 0.78264 0.13639
 C169 C 0.01114 0.73195 0.12649
 C170 C 0.00629 0.70734 0.09213
 C171 C 0.03593 0.68693 0.07614
 C172 C 0.07082 0.69015 0.09713
 C173 C 0.07515 0.71352 0.13379
 C174 C 0.04519 0.73479 0.14785
 H175 H -0.05257 0.73823 0.17294
 H176 H 0.01701 0.78871 0.07707
 H177 H -0.02028 0.70695 0.07549
 H178 H 0.04889 0.75531 0.17313
 H179 H -0.09602 0.82439 0.09002
 H180 H 0.09423 0.67405 0.08569
 C181 C 0.45294 0.26251 0.64876
 C182 C 0.48625 0.26479 0.62567
 C183 C 0.49059 0.29012 0.59193
 C184 C 0.46113 0.31193 0.57846
 C185 C 0.42715 0.30964 0.60117
 C186 C 0.42332 0.28544 0.63715
 C187 C 0.51238 0.23457 0.62538
 C188 C 0.50751 0.20923 0.59170
 C189 C 0.53708 0.18822 0.57694
 C190 C 0.57155 0.19103 0.59845
 C191 C 0.57591 0.21478 0.63477
 C192 C 0.54633 0.23732 0.64724
 H193 H 0.44945 0.24156 0.67363
 H194 H 0.51646 0.29046 0.57391
 H195 H 0.48115 0.20841 0.57461
 H196 H 0.55022 0.25813 0.67219
 H197 H 0.40405 0.32692 0.59134
 H198 H 0.59453 0.17449 0.58694
 C199 C 0.45486 0.73828 0.85599
 C200 C 0.48857 0.73509 0.87823
 C201 C 0.49330 0.70903 0.91115
 C202 C 0.46386 0.68723 0.92466
 C203 C 0.42949 0.69057 0.90277
 C204 C 0.42531 0.71527 0.86724
 C205 C 0.51499 0.76496 0.87872
 C206 C 0.51081 0.78983 0.91294
 C207 C 0.54063 0.81066 0.92731
 C208 C 0.57472 0.80796 0.90512
 C209 C 0.57837 0.78458 0.86839
 C210 C 0.54853 0.76230 0.85614
 H211 H 0.45114 0.75962 0.83160
 H212 H 0.51953 0.70819 0.92853
 H213 H 0.48474 0.79051 0.93054
 H214 H 0.55190 0.74181 0.83072
 H215 H 0.40643 0.67370 0.91330
 H216 H 0.59790 0.82440 0.91627
 C217 C -0.30282 0.57681 0.98717
 C218 C -0.27114 0.59502 1.00474
 C219 C -0.27654 0.62598 1.03100
 C220 C -0.31133 0.64225 1.03590
 C221 C -0.34244 0.62445 1.01909
 C222 C -0.33906 0.59053 0.99638
 C223 C -0.23312 0.59361 0.98583
 C224 C -0.22701 0.62201 0.95597
 C225 C -0.19345 0.64173 0.95518
 C226 C -0.16279 0.62663 0.97678
 C227 C -0.16607 0.59334 1.00078
 C228 C -0.20200 0.57843 1.00800
 H229 H -0.29932 0.55257 0.96703
 H230 H -0.25240 0.63959 1.04483
 H231 H -0.25078 0.63159 0.93748
 H232 H -0.20564 0.55546 1.03014
 H233 H -0.36956 0.63563 1.02689
 H234 H -0.13576 0.63904 0.97172
 C235 C -0.30197 0.42141 0.51010
 C236 C -0.27060 0.40560 0.48912
 C237 C -0.27657 0.37633 0.46056
 C238 C -0.30950 0.35580 0.46167
 C239 C -0.34000 0.37025 0.48395
 C240 C -0.33773 0.40547 0.50398
 C241 C -0.23257 0.40462 0.50830
 C242 C -0.22694 0.37386 0.53502
 C243 C -0.19218 0.35729 0.53940
 C244 C -0.16116 0.37489 0.52201
 C245 C -0.16474 0.40857 0.49897
 C246 C -0.20098 0.42244 0.49006
 H247 H -0.29865 0.44565 0.53028
 H248 H -0.25296 0.36651 0.44204
 H249 H -0.25097 0.36040 0.54928
 H250 H -0.20449 0.44647 0.46952
 H251 H -0.36661 0.35655 0.48059
 H252 H -0.13393 0.36373 0.52934
 C253 C 0.20186 -0.07799 0.01234
 C254 C 0.23338 -0.09207 -0.00989
 C255 C 0.22803 -0.11981 -0.04074
 C256 C 0.19485 -0.14004 -0.04264
 C257 C 0.16372 -0.12597 -0.02104
 C258 C 0.16625 -0.09326 0.00409
 C259 C 0.27123 -0.09348 0.00952
 C260 C 0.27591 -0.12380 0.03692
 C261 C 0.30899 -0.14432 0.03750
 C262 C 0.34025 -0.12948 0.01686
 C263 C 0.33847 -0.09437 -0.00348
 C264 C 0.30317 -0.07787 -0.01022
 H265 H 0.20495 -0.05555 0.03530
 H266 H 0.25210 -0.12861 -0.05915
 H267 H 0.25156 -0.13357 0.05408
 H268 H 0.30063 -0.05327 -0.03000
 H269 H 0.13694 -0.13871 -0.02682
 H270 H 0.36687 -0.14300 0.02119
 C271 C 0.19927 1.07950 0.49312
 C272 C 0.23057 1.09719 0.51208
 C273 C 0.22455 1.12836 0.53781
 C274 C 0.19029 1.14637 0.53861
 C275 C 0.15985 1.13001 0.51838
 C276 C 0.16321 1.09479 0.49895
 C277 C 0.26855 1.09670 0.49308
 C278 C 0.27436 1.12648 0.46517
 C279 C 0.30860 1.14442 0.46276
 C280 C 0.33926 1.12873 0.48355
 C281 C 0.33607 1.09419 0.50488
 C282 C 0.29999 1.07951 0.51249
 H283 H 0.20286 1.05453 0.47431
 H284 H 0.24826 1.14129 0.55349
 H285 H 0.25041 1.13855 0.44892
 H286 H 0.29651 1.05533 0.53276
 H287 H 0.13272 1.14252 0.52245
 H288 H 0.36641 1.14094 0.47850
 C289 C 0.13720 0.49458 0.19447
 C290 C 0.16219 0.50643 0.22671
 C291 C 0.19231 0.52824 0.21510
 C292 C 0.19560 0.54382 0.17361
 C293 C 0.17072 0.53193 0.14108
 C294 C 0.14205 0.50635 0.15106
 C295 C 0.16226 0.49229 0.27173
 C296 C 0.19213 0.47001 0.28309
 C297 C 0.19588 0.45487 0.32478
 C298 C 0.17158 0.46729 0.35753
 C299 C 0.14293 0.49294 0.34762
 C300 C 0.13775 0.50458 0.30418
 H301 H 0.11481 0.47597 0.20289
 H302 H 0.21247 0.53387 0.24022
 H303 H 0.21167 0.46373 0.25760
 H304 H 0.11548 0.52340 0.29587
 H305 H 0.17239 0.54391 0.10872
 H306 H 0.17357 0.45555 0.39000
 C307 C -0.13766 1.00277 0.19558
 C308 C -0.16285 0.99121 0.22772
 C309 C -0.19301 0.96950 0.21595
 C310 C -0.19614 0.95354 0.17455
 C311 C -0.17131 0.96557 0.14204
 C312 C -0.14245 0.99101 0.15204
 C313 C -0.16301 1.00558 0.27274
 C314 C -0.19326 1.02740 0.28402
 C315 C -0.19606 1.04431 0.32486
 C316 C -0.17121 1.03274 0.35770
 C317 C -0.14267 1.00683 0.34840
 C318 C -0.13781 0.99441 0.30521
 H319 H -0.11524 1.02126 0.20425
 H320 H -0.21328 0.96424 0.24099
 H321 H -0.21378 1.03222 0.25900
 H322 H -0.11536 0.97574 0.29720
 H323 H -0.17307 0.95360 0.10967
 H324 H -0.17273 1.04525 0.38978
 C325 C 0.36397 0.50815 -0.30771
 C326 C 0.34001 0.49671 -0.27433
 C327 C 0.31001 0.47411 -0.28398
 C328 C 0.30569 0.45784 -0.32494
 C329 C 0.32950 0.46928 -0.35872
 C330 C 0.35841 0.49510 -0.35053
 C331 C 0.34079 0.51188 -0.22996
 C332 C 0.31386 0.53799 -0.22071
 C333 C 0.30580 0.54913 -0.17788
 C334 C 0.32671 0.53349 -0.14368
 C335 C 0.35473 0.50694 -0.15259
 C336 C 0.36111 0.49574 -0.19588
 H337 H 0.38627 0.52718 -0.30041
 H338 H 0.29081 0.46851 -0.25785
 H339 H 0.29968 0.54992 -0.24847
 H340 H 0.38170 0.47484 -0.20304
 H341 H 0.32691 0.45657 -0.39059
 H342 H 0.32300 0.54362 -0.11069
 C343 C 0.63585 -0.00810 -0.30732
 C344 C 0.65647 0.00712 -0.27278
 C345 C 0.68382 0.03304 -0.28144
 C346 C 0.69173 0.04492 -0.32391
 C347 C 0.67052 0.03049 -0.35845
 C348 C 0.64215 0.00406 -0.35044
 C349 C 0.65666 -0.00824 -0.22835
 C350 C 0.68428 -0.03396 -0.21970
 C351 C 0.69283 -0.04540 -0.17714
 C352 C 0.67189 -0.03075 -0.14254
 C353 C 0.64338 -0.00452 -0.15062
 C354 C 0.63642 0.00720 -0.19371
 H355 H 0.61500 -0.02881 -0.30053
 H356 H 0.69859 0.04427 -0.25374
 H357 H 0.69878 -0.04530 -0.24749
 H358 H 0.61537 0.02781 -0.20028
 H359 H 0.67451 0.04145 -0.39105
 H360 H 0.67620 -0.04130 -0.10981
 C361 C -0.01199 0.20183 0.90279
 C362 C -0.01497 0.23589 0.88189
 C363 C -0.04055 0.24126 0.84826
 C364 C -0.06133 0.21215 0.83231
 C365 C -0.05857 0.17762 0.85311
 C366 C -0.03466 0.17268 0.88953
 C367 C 0.01537 0.26191 0.88264
 C368 C 0.04075 0.25793 0.84867
 C369 C 0.06084 0.28786 0.83347
 C370 C 0.05741 0.32185 0.85531
 C371 C 0.03355 0.32535 0.89184
 C372 C 0.01198 0.29531 0.90479
 H373 H 0.00899 0.19759 0.92772
 H374 H -0.04148 0.26772 0.83193
 H375 H 0.04190 0.23194 0.83142
 H376 H -0.00901 0.29851 0.92983
 H377 H -0.07512 0.15504 0.84085
 H378 H 0.07354 0.34528 0.84434
 C379 C 0.51349 0.20413 0.09798
 C380 C 0.51576 0.23754 0.12019
 C381 C 0.54121 0.24248 0.15397
 C382 C 0.56268 0.21337 0.16881
 C383 C 0.56023 0.17919 0.14707
 C384 C 0.53621 0.17487 0.11075
 C385 C 0.48463 0.26254 0.12076
 C386 C 0.45930 0.25664 0.15442
 C387 C 0.43784 0.28534 0.17013
 C388 C 0.43973 0.31983 0.14921
 C389 C 0.46331 0.32512 0.11275
 C390 C 0.48661 0.29649 0.09957
 H391 H 0.49243 0.20025 0.07309
 H392 H 0.54143 0.26842 0.17141
 H393 H 0.45909 0.23027 0.17101
 H394 H 0.50743 0.30114 0.07462
 H395 H 0.57721 0.15628 0.15791
 H396 H 0.42274 0.34213 0.16141
 C397 C 0.01368 0.70324 0.59922
 C398 C 0.01604 0.73746 0.61962
 C399 C 0.04145 0.74357 0.65319
 C400 C 0.06275 0.71495 0.66955
 C401 C 0.06046 0.68012 0.64939
 C402 C 0.03670 0.67456 0.61303
 C403 C -0.01500 0.76256 0.61884
 C404 C -0.04058 0.75747 0.65237
 C405 C -0.06230 0.78646 0.66715
 C406 C -0.05939 0.82087 0.64570
 C407 C -0.03509 0.82535 0.60967
 C408 C -0.01249 0.79609 0.59691
 H409 H -0.00726 0.69846 0.57438
 H410 H 0.04175 0.77012 0.66930
 H411 H -0.04063 0.73139 0.66959
 H412 H 0.00870 0.80003 0.57224
 H413 H 0.07732 0.65780 0.66188
 H414 H -0.07630 0.84385 0.65640
 C415 C 0.48715 0.70273 0.39956
 C416 C 0.48453 0.73683 0.37882
 C417 C 0.45927 0.74251 0.34493
 C418 C 0.43854 0.71354 0.32849
 C419 C 0.44117 0.67883 0.34895
 C420 C 0.46465 0.67371 0.38569
 C421 C 0.51531 0.76227 0.37972
 C422 C 0.54068 0.75788 0.34585
 C423 C 0.56161 0.78735 0.33109
 C424 C 0.55900 0.82128 0.35336
 C425 C 0.53508 0.82506 0.38987
 C426 C 0.51271 0.79548 0.40230
 H427 H 0.50792 0.69829 0.42470
 H428 H 0.45870 0.76901 0.32866
 H429 H 0.54114 0.73201 0.32829
 H430 H 0.49170 0.79894 0.42727
 H431 H 0.42477 0.65626 0.33636
 H432 H 0.57570 0.84441 0.34270
 B433 B -0.04546 0.00234 1.00487
 B434 B -0.06031 -0.00475 0.95245
 B435 B -0.02602 0.02560 0.96215
 B436 B 0.00139 0.00934 1.00295
 B437 B -0.01641 -0.03179 1.01766
 B438 B -0.05498 -0.04010 0.98653
 B439 B 0.00455 -0.03842 0.93277
 B440 B 0.02007 -0.03066 0.98433
 B441 B -0.01493 -0.06111 0.97526
 B442 B -0.04188 -0.04465 0.93399
 B443 B -0.02372 -0.00346 0.91879
 B444 B 0.01469 0.00519 0.94975
 B445 B 0.45338 0.50354 0.50048
 B446 B 0.43816 0.49670 0.44813
 B447 B 0.47278 0.52663 0.45779
 B448 B 0.50026 0.50999 0.49845
 B449 B 0.48209 0.46901 0.51307
 B450 B 0.44325 0.46130 0.48208
 B451 B 0.50280 0.46250 0.42811
 B452 B 0.51851 0.46983 0.47946
 B453 B 0.48299 0.43974 0.47067
 B454 B 0.45619 0.45661 0.42948
 B455 B 0.47474 0.49764 0.41429
 B456 B 0.51323 0.50594 0.44537
 B457 B 0.54737 0.99623 0.50022
 B458 B 0.56173 1.00314 0.44765
 B459 B 0.52743 0.97281 0.45831
 B460 B 0.50050 0.98945 0.49919
 B461 B 0.51857 1.03060 0.51321
 B462 B 0.55681 1.03858 0.48151
 B463 B 0.49658 1.03647 0.42840
 B464 B 0.48163 1.02931 0.48009
 B465 B 0.51668 1.05965 0.47048
 B466 B 0.54306 1.04282 0.42898
 B467 B 0.52471 1.00132 0.41443
 B468 B 0.48671 0.99315 0.44629
 B469 B 0.04502 0.49673 1.00103
 B470 B 0.05999 0.50373 0.94874
 B471 B 0.02545 0.47349 0.95867
 B472 B -0.00183 0.48995 0.99918
 B473 B 0.01619 0.53097 1.01374
 B474 B 0.05471 0.53913 0.98263
 B475 B -0.00490 0.53745 0.92868
 B476 B -0.02038 0.52989 0.98031
 B477 B 0.01470 0.56025 0.97119
 B478 B 0.04158 0.54356 0.92996
 B479 B 0.02331 0.50214 0.91491
 B480 B -0.01515 0.49401 0.94595
 B481 B 0.04675 0.50442 0.49819
 B482 B 0.06256 0.49701 0.55016
 B483 B 0.02816 0.52746 0.54149
 B484 B -0.00002 0.51159 0.50129
 B485 B 0.01738 0.47047 0.48586
 B486 B 0.05650 0.46183 0.51598
 B487 B -0.00206 0.46342 0.57118
 B488 B -0.01851 0.47160 0.52012
 B489 B 0.01657 0.44092 0.52810
 B490 B 0.04434 0.45702 0.56881
 B491 B 0.02656 0.49819 0.58475
 B492 B -0.01238 0.50717 0.55479
 B493 B 0.54947 0.00338 0.00199
 B494 B 0.56443 -0.00315 0.05443
 B495 B 0.52960 0.02666 0.04396
 B496 B 0.50255 0.00958 0.00340
 B497 B 0.52109 -0.03140 -0.01058
 B498 B 0.55970 -0.03879 0.02081
 B499 B 0.49985 -0.03724 0.07441
 B500 B 0.48441 -0.03045 0.02278
 B501 B 0.51994 -0.06027 0.03234
 B502 B 0.54645 -0.04299 0.07351
 B503 B 0.52763 -0.00170 0.08804
 B504 B 0.48924 0.00589 0.05643
 B505 B 0.45143 0.49507 -0.00235
 B506 B 0.43622 0.50252 0.04975
 B507 B 0.47052 0.47203 0.04071
 B508 B 0.49825 0.48785 0.00016
 B509 B 0.48074 0.52900 -0.01518
 B510 B 0.44194 0.53771 0.01538
 B511 B 0.50106 0.53601 0.06992
 B512 B 0.51705 0.52775 0.01872
 B513 B 0.48208 0.55850 0.02700
 B514 B 0.45467 0.54248 0.06803
 B515 B 0.47259 0.50129 0.08388
 B516 B 0.51121 0.49226 0.05353
 B517 B -0.04751 0.99722 0.50045
 B518 B -0.06292 1.00380 0.55273
 B519 B -0.02817 0.97380 0.54288
 B520 B -0.00064 0.99074 0.50277
 B521 B -0.01881 1.03175 0.48837
 B522 B -0.05770 1.03936 0.51912
 B523 B 0.00154 1.03765 0.57367
 B524 B 0.01745 1.03067 0.52237
 B525 B -0.01804 1.06077 0.53105
 B526 B -0.04498 1.04360 0.57194
 B527 B -0.02651 1.00221 0.58691
 B528 B 0.01213 0.99441 0.55602
 B529 B 0.75471 0.20408 0.25171
 B530 B 0.74596 0.18871 0.30343
 B531 B 0.77698 0.22274 0.29536
 B532 B 0.76182 0.25044 0.25456
 B533 B 0.72074 0.23312 0.23789
 B534 B 0.71132 0.19462 0.26801
 B535 B 0.71186 0.25288 0.32292
 B536 B 0.72111 0.26891 0.27196
 B537 B 0.68999 0.23427 0.27916
 B538 B 0.70539 0.20696 0.32065
 B539 B 0.74683 0.22454 0.33782
 B540 B 0.75624 0.26299 0.30778
 B541 B 0.74670 0.79536 0.74768
 B542 B 0.75528 0.81036 0.79960
 B543 B 0.72439 0.77641 0.79117
 B544 B 0.73954 0.74902 0.75004
 B545 B 0.78065 0.76647 0.73381
 B546 B 0.79006 0.80476 0.76434
 B547 B 0.78950 0.74577 0.81861
 B548 B 0.78030 0.73036 0.76734
 B549 B 0.81143 0.76495 0.77512
 B550 B 0.79602 0.79188 0.81684
 B551 B 0.75477 0.77413 0.83354
 B552 B 0.74506 0.73602 0.80307
 B553 B 0.25226 0.29762 0.75006
 B554 B 0.24444 0.31285 0.69811
 B555 B 0.27492 0.27846 0.70725
 B556 B 0.25869 0.25114 0.74789
 B557 B 0.21762 0.26914 0.76333
 B558 B 0.20927 0.30766 0.73269
 B559 B 0.20997 0.24898 0.67820
 B560 B 0.21797 0.23315 0.72936
 B561 B 0.18745 0.26832 0.72138
 B562 B 0.20391 0.29506 0.68001
 B563 B 0.24539 0.27681 0.66402
 B564 B 0.25392 0.23852 0.69484
 B565 B 0.24641 0.70458 0.24652
 B566 B 0.25504 0.68954 0.19468
 B567 B 0.22391 0.72343 0.20312
 B568 B 0.23912 0.75093 0.24402
 B569 B 0.28035 0.73361 0.26036
 B570 B 0.28979 0.69531 0.22995
 B571 B 0.28877 0.75395 0.17534
 B572 B 0.27968 0.76961 0.22650
 B573 B 0.31091 0.73511 0.21887
 B574 B 0.29544 0.70802 0.17732
 B575 B 0.25386 0.72558 0.16050
 B576 B 0.24441 0.76382 0.19086
 B577 B 0.25547 0.70770 0.74813
 B578 B 0.24749 0.69273 0.80033
 B579 B 0.27847 0.72649 0.79142
 B580 B 0.26288 0.75402 0.75049
 B581 B 0.22144 0.73675 0.73485
 B582 B 0.21235 0.69846 0.76555
 B583 B 0.21380 0.75732 0.81977
 B584 B 0.22241 0.77277 0.76840
 B585 B 0.19128 0.73831 0.77672
 B586 B 0.20712 0.71131 0.81814
 B587 B 0.24862 0.72889 0.83424
 B588 B 0.25810 0.76701 0.80365
 B589 B 0.24658 0.29419 0.25181
 B590 B 0.25454 0.30893 0.30400
 B591 B 0.22362 0.27508 0.29456
 B592 B 0.23951 0.24780 0.25371
 B593 B 0.28084 0.26531 0.23841
 B594 B 0.28962 0.30350 0.26937
 B595 B 0.28822 0.24449 0.32338
 B596 B 0.28000 0.22911 0.27211
 B597 B 0.31093 0.26380 0.28044
 B598 B 0.29481 0.29046 0.32195
 B599 B 0.25312 0.27267 0.33780
 B600 B 0.24411 0.23471 0.30671
 B601 B 0.75216 0.79495 0.24611
 B602 B 0.74438 0.80972 0.19384
 B603 B 0.77480 0.77540 0.20347
 B604 B 0.75860 0.74848 0.24449
 B605 B 0.71757 0.76666 0.25970
 B606 B 0.70925 0.80489 0.22851
 B607 B 0.70979 0.74563 0.17495
 B608 B 0.71785 0.73038 0.22631
 B609 B 0.68733 0.76550 0.21789
 B610 B 0.70380 0.79177 0.17605
 B611 B 0.74525 0.77331 0.16027
 B612 B 0.75377 0.73532 0.19162
 B613 B 0.74675 0.20458 0.75122
 B614 B 0.75403 0.18929 0.69911
 B615 B 0.72363 0.22352 0.70825
 B616 B 0.74003 0.25098 0.74880
 B617 B 0.78137 0.23319 0.76392
 B618 B 0.78954 0.19462 0.73332
 B619 B 0.78831 0.25345 0.67881
 B620 B 0.78058 0.26915 0.72998
 B621 B 0.81120 0.23407 0.72179
 B622 B 0.79452 0.20726 0.68064
 B623 B 0.75309 0.22540 0.66496
 B624 B 0.74434 0.26363 0.69568
 C625 C 0.44162 1.02215 0.37178
 C626 C 0.41282 1.05288 0.36742
 C627 C 0.42427 1.05797 0.31984
 C628 C 0.45370 1.02754 0.32428
 C629 C 0.45297 1.08728 0.33358
 C630 C 0.44167 1.08187 0.38202
 C631 C 0.47079 1.05084 0.38748
 C632 C 0.48274 1.05636 0.33917
 H633 H 0.43424 0.99461 0.38487
 H634 H 0.38336 1.04938 0.37715
 H635 H 0.45896 1.00507 0.30049
 H636 H 0.45768 1.11414 0.31717
 H637 H 0.43650 1.10641 0.40243
 H638 H 0.51182 1.05806 0.32730
 C639 C -0.02085 0.54384 0.83926
 C640 C -0.05778 0.52298 0.83495
 C641 C -0.07750 0.55858 0.82026
 C642 C -0.04035 0.57977 0.82359
 C643 C -0.08634 0.56863 0.86747
 C644 C -0.06782 0.53241 0.88214
 C645 C -0.03028 0.55264 0.88762
 C646 C -0.04883 0.58908 0.87214
 H647 H 0.00625 0.53377 0.82675
 H648 H -0.05900 0.49506 0.82027
 H649 H -0.02910 0.59922 0.79895
 H650 H -0.11336 0.58135 0.87588
 H651 H -0.08120 0.51155 0.90316
 H652 H -0.04494 0.61688 0.88642
 C653 C 0.04789 -0.09007 0.87615
 C654 C 0.03916 -0.08063 0.82768
 C655 C 0.07641 -0.05964 0.82414
 C656 C 0.08544 -0.06976 0.87134
 C657 C 0.05693 -0.02401 0.83893
 C658 C 0.01994 -0.04467 0.84340
 C659 C 0.02962 -0.05359 0.89171
 C660 C 0.06719 -0.03351 0.88606
 H661 H 0.04394 -0.11790 0.89039
 H662 H 0.02769 -0.10000 0.80311
 H663 H 0.11248 -0.08246 0.87986
 H664 H 0.05833 0.00387 0.82410
 H665 H -0.00718 -0.03446 0.83097
 H666 H 0.08072 -0.01271 0.90707
 C667 C 0.55715 0.41664 0.38203
 C668 C 0.54559 0.41065 0.33382
 C669 C 0.57436 0.43962 0.31926
 C670 C 0.58600 0.44536 0.36668
 C671 C 0.54503 0.47021 0.32326
 C672 C 0.51593 0.44171 0.33887
 C673 C 0.52815 0.44780 0.38699
 C674 C 0.55733 0.47621 0.37056
 H675 H 0.56217 0.39221 0.40273
 H676 H 0.54073 0.38358 0.31799
 H677 H 0.61552 0.44892 0.37622
 H678 H 0.53967 0.49237 0.29903
 H679 H 0.48680 0.43994 0.32713
 H680 H 0.56483 0.50390 0.38304
 C681 C 0.51522 0.54376 0.15941
 C682 C 0.55217 0.52314 0.16528
 C683 C 0.57139 0.55906 0.17939
 C684 C 0.53425 0.58008 0.17438
 C685 C 0.58099 0.56816 0.13203
 C686 C 0.56300 0.53162 0.11805
 C687 C 0.52556 0.55164 0.11107
 C688 C 0.54358 0.58842 0.12584
 H689 H 0.48793 0.53386 0.17152
 H690 H 0.55373 0.49570 0.18121
 H691 H 0.52246 0.59995 0.19814
 H692 H 0.60815 0.58069 0.12388
 H693 H 0.57679 0.51049 0.09779
 H694 H 0.53995 0.61592 0.11063
 C695 C 0.01408 1.05842 0.66308
 C696 C 0.04299 1.02979 0.67907
 C697 C 0.07235 1.06028 0.68338
 C698 C 0.04378 1.08941 0.66851
 C699 C 0.08434 1.05453 0.63605
 C700 C 0.05560 1.02376 0.63187
 C701 C 0.02661 1.05226 0.61510
 C702 C 0.05564 1.08333 0.62038
 H703 H -0.01513 1.06029 0.67443
 H704 H 0.03741 1.00764 0.70322
 H705 H 0.03883 1.11649 0.68425
 H706 H 0.11387 1.05098 0.62660
 H707 H 0.06305 0.99603 0.61944
 H708 H 0.06089 1.10757 0.59948
 C709 C -0.06391 0.46800 0.61935
 C710 C -0.08191 0.43155 0.63365
 C711 C -0.07223 0.44088 0.68097
 C712 C -0.05301 0.47671 0.66650
 C713 C -0.03508 0.41983 0.67614
 C714 C -0.04450 0.41125 0.62766
 C715 C -0.02646 0.44794 0.61256
 C716 C -0.01607 0.45606 0.66084
 H717 H -0.07778 0.48902 0.59890
 H718 H -0.10909 0.41912 0.62532
 H719 H -0.05437 0.50429 0.68207
 H720 H -0.02324 0.40006 0.70008
 H721 H -0.04084 0.38369 0.61267
 H722 H 0.01125 0.46601 0.67288
 C723 C 0.44536 -0.08344 0.11886
 C724 C 0.45597 -0.08992 0.16729
 C725 C 0.42674 -0.06124 0.18136
 C726 C 0.41609 -0.05498 0.13371
 C727 C 0.45598 -0.03049 0.17867
 C728 C 0.48557 -0.05869 0.16350
 C729 C 0.47427 -0.05213 0.11514
 C730 C 0.44467 -0.02399 0.13110
 H731 H 0.44092 -0.10773 0.09787
 H732 H 0.46064 -0.11715 0.18288
 H733 H 0.38677 -0.05131 0.12341
 H734 H 0.46062 -0.00860 0.20338
 H735 H 0.51448 -0.06049 0.17599
 H736 H 0.43743 0.00385 0.11878
 C737 C 0.35969 0.51293 0.07322
 C738 C 0.33844 0.48730 0.04180
 C739 C 0.32674 0.46235 0.08016
 C740 C 0.34742 0.48812 0.11236
 C741 C 0.36229 0.43968 0.07503
 C742 C 0.37329 0.46361 0.03612
 C743 C 0.39509 0.48933 0.06659
 C744 C 0.38356 0.46533 0.10628
 H745 H 0.35852 0.54347 0.07248
 H746 H 0.32071 0.49831 0.01511
 H747 H 0.33646 0.49845 0.14392
 H748 H 0.36205 0.40917 0.07436
 H749 H 0.38126 0.44942 0.00618
 H750 H 0.40116 0.45656 0.13409
 C751 C -0.12063 0.95914 0.54083
 C752 C -0.13668 0.94159 0.58234
 C753 C -0.17292 0.96264 0.57458
 C754 C -0.15626 0.98152 0.53396
 C755 C -0.15828 0.99453 0.60335
 C756 C -0.12112 0.97347 0.61019
 C757 C -0.10444 0.99084 0.56809
 C758 C -0.14086 1.01290 0.56219
 H759 H -0.10707 0.94211 0.51573
 H760 H -0.13664 0.91237 0.59246
 H761 H -0.17030 0.98940 0.50325
 H762 H -0.17410 1.00921 0.62911
 H763 H -0.10783 0.97139 0.64279
 H764 H -0.14279 1.04263 0.55397
 C765 C -0.12309 0.03375 0.96619
 C766 C -0.13433 0.05790 0.92758
 C767 C -0.16984 0.03520 0.92238
 C768 C -0.15786 0.00999 0.96038
 C769 C -0.14922 0.00976 0.88979
 C770 C -0.11312 0.03258 0.89599
 C771 C -0.10135 0.00834 0.93539
 C772 C -0.13667 -0.01533 0.92862
 H773 H -0.11499 0.04779 0.99620
 H774 H -0.13464 0.08842 0.92860
 H775 H -0.17558 -0.00114 0.98694
 H776 H -0.16032 -0.00035 0.85817
 H777 H -0.09569 0.04156 0.86820
 H778 H -0.13768 -0.04588 0.92902
 C779 C 0.38464 0.53428 0.39223
 C780 C 0.34855 0.51130 0.38677
 C781 C 0.32821 0.53690 0.41941
 C782 C 0.36366 0.55978 0.42394
 C783 C 0.34067 0.51198 0.45748
 C784 C 0.36157 0.48652 0.42561
 C785 C 0.39695 0.51026 0.43163
 C786 C 0.37546 0.53583 0.46256
 H787 H 0.40175 0.54322 0.36414
 H788 H 0.33714 0.50097 0.35539
 H789 H 0.36326 0.59030 0.42471
 H790 H 0.32342 0.50081 0.48444
 H791 H 0.36058 0.45597 0.42630
 H792 H 0.38383 0.54998 0.49237
 C793 C 0.11654 0.53405 0.60556
 C794 C 0.15269 0.51104 0.61058
 C795 C 0.17277 0.53676 0.57781
 C796 C 0.13725 0.55966 0.57373
 C797 C 0.16002 0.51198 0.53979
 C798 C 0.13938 0.48641 0.57180
 C799 C 0.10397 0.51019 0.56620
 C800 C 0.12520 0.53589 0.53515
 H801 H 0.09961 0.54290 0.63384
 H802 H 0.16434 0.50058 0.64181
 H803 H 0.13759 0.59018 0.57313
 H804 H 0.17696 0.50073 0.51263
 H805 H 0.14037 0.45586 0.57100
 H806 H 0.11655 0.55018 0.50548
 C807 C 0.62245 0.02572 0.11325
 C808 C 0.65946 0.00461 0.10575
 C809 C 0.67462 0.03741 0.07881
 C810 C 0.63843 0.05851 0.08712
 C811 C 0.65788 0.02031 0.03709
 C812 C 0.64219 -0.01204 0.06356
 C813 C 0.60588 0.00995 0.07023
 C814 C 0.62232 0.04252 0.04467
 H815 H 0.60874 0.02696 0.14564
 H816 H 0.67497 -0.01117 0.13093
 H817 H 0.63813 0.08741 0.09851
 H818 H 0.67118 0.01367 0.00569
 H819 H 0.64408 -0.04146 0.05397
 H820 H 0.60895 0.06008 0.01982
 C821 C 0.63940 1.01271 0.43682
 C822 C 0.65563 0.98053 0.46317
 C823 C 0.67168 0.96313 0.42126
 C824 C 0.65603 0.99584 0.39442
 C825 C 0.63539 0.94208 0.41376
 C826 C 0.62004 0.95819 0.45646
 C827 C 0.60306 0.99061 0.43106
 C828 C 0.61894 0.97472 0.38778
 H829 H 0.64133 1.04217 0.44621
 H830 H 0.66968 0.98755 0.49409
 H831 H 0.67110 1.01150 0.36883
 H832 H 0.63517 0.91321 0.40233
 H833 H 0.60718 0.94062 0.48160
 H834 H 0.60479 0.97348 0.35561
 C835 C 0.11798 0.47443 0.89031
 C836 C 0.15501 0.49562 0.89709
 C837 C 0.17035 0.46331 0.92483
 C838 C 0.13414 0.44216 0.91719
 C839 C 0.15395 0.48129 0.96608
 C840 C 0.13795 0.51311 0.93888
 C841 C 0.10162 0.49096 0.93301
 C842 C 0.11836 0.45887 0.95932
 H843 H 0.10426 0.47277 0.85791
 H844 H 0.17036 0.51089 0.87141
 H845 H 0.13412 0.41311 0.90642
 H846 H 0.16838 0.48859 0.99669
 H847 H 0.13981 0.54271 0.94767
 H848 H 0.10518 0.44146 0.98439
 C849 C 0.00563 0.35857 0.52007
 C850 C -0.00836 0.35393 0.47235
 C851 C 0.03032 0.34000 0.45806
 C852 C 0.04424 0.34323 0.50546
 C853 C 0.04272 0.37923 0.44821
 C854 C 0.00421 0.39318 0.46184
 C855 C 0.01822 0.39837 0.50951
 C856 C 0.05688 0.38281 0.49540
 H857 H -0.00979 0.34967 0.54959
 H858 H -0.03593 0.34267 0.46324
 H859 H 0.06101 0.32233 0.52319
 H860 H 0.05798 0.38855 0.41873
 H861 H -0.01229 0.41195 0.44100
 H862 H 0.08498 0.39289 0.50444
 C863 C 0.50654 -0.10910 -0.03246
 C864 C 0.54469 -0.12179 -0.04870
 C865 C 0.53428 -0.16135 -0.03738
 C866 C 0.49603 -0.14869 -0.02046
 C867 C 0.55072 -0.15706 0.00876
 C868 C 0.56123 -0.11713 -0.00275
 C869 C 0.52282 -0.10289 0.01404
 C870 C 0.51245 -0.14302 0.02607
 H871 H 0.48818 -0.09092 -0.05205
 H872 H 0.55803 -0.11227 -0.07938
 H873 H 0.46830 -0.16080 -0.02711
 H874 H 0.56918 -0.17715 0.02544
 H875 H 0.58940 -0.10599 0.00389
 H876 H 0.49905 -0.15202 0.05691
 C877 C -0.05613 -0.11914 1.00641
 C878 C -0.04338 -0.15876 0.99680
 C879 C -0.03057 -0.16206 1.04463
 C880 C -0.04307 -0.12280 1.05403
 C881 C 0.00847 -0.14830 1.03156
 C882 C -0.00440 -0.14355 0.98340
 C883 C -0.01711 -0.10371 0.99355
 C884 C -0.00421 -0.10905 1.04165
 H885 H -0.08399 -0.10894 0.99647
 H886 H -0.05979 -0.17957 0.97858
 H887 H -0.05896 -0.11349 1.08304
 H888 H 0.03584 -0.15960 1.04151
 H889 H 0.01168 -0.15244 0.95438
 H890 H 0.01187 -0.09043 1.06306
 C891 C 0.49631 0.39155 0.53663
 C892 C 0.45805 0.37959 0.55347
 C893 C 0.46785 0.33976 0.54292
 C894 C 0.50623 0.35165 0.52545
 C895 C 0.45131 0.34363 0.49678
 C896 C 0.44135 0.38381 0.50752
 C897 C 0.47986 0.39735 0.49009
 C898 C 0.48966 0.35690 0.47891
 H899 H 0.51507 0.40977 0.55555
 H900 H 0.44502 0.38961 0.58407
 H901 H 0.53386 0.33930 0.53220
 H902 H 0.43249 0.32359 0.48066
 H903 H 0.41320 0.39507 0.50088
 H904 H 0.50280 0.34726 0.44820
 C905 C 0.50289 1.10799 0.53592
 C906 C 0.54101 1.12073 0.55237
 C907 C 0.53036 1.16034 0.54152
 C908 C 0.49212 1.14766 0.52444
 C909 C 0.54670 1.15649 0.49532
 C910 C 0.55748 1.11653 0.50637
 C911 C 0.51914 1.10222 0.48935
 C912 C 0.50849 1.14243 0.47783
 H913 H 0.48474 1.08952 0.55528
 H914 H 0.55445 1.11102 0.58295
 H915 H 0.46441 1.15971 0.53129
 H916 H 0.56501 1.17679 0.47888
 H917 H 0.58575 1.10566 0.49967
 H918 H 0.49499 1.15167 0.44710
 C919 C 0.00491 0.64290 0.97966
 C920 C -0.00958 0.64726 1.02717
 C921 C 0.02911 0.66055 1.04243
 C922 C 0.04355 0.65769 0.99522
 C923 C 0.04100 0.62108 1.05188
 C924 C 0.00249 0.60782 1.03738
 C925 C 0.01692 0.60282 0.98989
 C926 C 0.05561 0.61780 1.00489
 H927 H -0.01011 0.65220 0.94996
 H928 H -0.03735 0.65843 1.03545
 H929 H 0.06073 0.67854 0.97808
 H930 H 0.05583 0.61116 1.08146
 H931 H -0.01412 0.58918 1.05809
 H932 H 0.08371 0.60747 0.99626
 C933 C 0.44249 0.61669 -0.00697
 C934 C 0.45492 0.65621 0.00391
 C935 C 0.47014 0.65971 -0.04284
 C936 C 0.45788 0.62058 -0.05355
 C937 C 0.50841 0.64563 -0.02721
 C938 C 0.49311 0.64070 0.01989
 C939 C 0.48074 0.60101 0.00852
 C940 C 0.49597 0.60647 -0.03852
 H941 H 0.41416 0.60656 0.00083
 H942 H 0.43775 0.67702 0.02113
 H943 H 0.44339 0.61136 -0.08366
 H944 H 0.53628 0.65684 -0.03488
 H945 H 0.50772 0.64939 0.05008
 H946 H 0.51264 0.58768 -0.05901
 C947 C -0.05928 1.11680 0.49334
 C948 C -0.04945 1.15703 0.50408
 C949 C -0.03240 1.16070 0.45823
 C950 C -0.04207 1.12085 0.44766
 C951 C 0.00582 1.14884 0.47651
 C952 C -0.01129 1.14372 0.52275
 C953 C -0.02097 1.10324 0.51157
 C954 C -0.00400 1.10892 0.46531
 H955 H -0.08750 1.10559 0.49948
 H956 H -0.06846 1.17712 0.51978
 H957 H -0.05471 1.11063 0.41688
 H958 H 0.03367 1.16086 0.47043
 H959 H 0.00152 1.15344 0.55365
 H960 H 0.01495 1.09067 0.44672
 C961 C 0.78379 0.68339 0.86466
 C962 C 0.81989 0.66431 0.87932
 C963 C 0.80967 0.67293 0.92653
 C964 C 0.77426 0.69327 0.91184
 C965 C 0.83181 0.70937 0.92369
 C966 C 0.84123 0.70113 0.87509
 C967 C 0.80488 0.72031 0.85953
 C968 C 0.79601 0.72949 0.90798
 H969 H 0.76257 0.67041 0.84361
 H970 H 0.83227 0.63738 0.87061
 H971 H 0.74603 0.69236 0.92639
 H972 H 0.85154 0.71998 0.94855
 H973 H 0.86939 0.70452 0.86094
 H974 H 0.78635 0.75644 0.92079
 C975 C 0.31012 0.23202 0.41224
 C976 C 0.28102 0.20381 0.42844
 C977 C 0.31143 0.17433 0.43275
 C978 C 0.34108 0.20222 0.41770
 C979 C 0.30533 0.16236 0.38551
 C980 C 0.27456 0.19114 0.38138
 C981 C 0.30348 0.21949 0.36435
 C982 C 0.33460 0.19040 0.36960
 H983 H 0.31237 0.26099 0.42346
 H984 H 0.25884 0.20968 0.45264
 H985 H 0.36853 0.20681 0.43334
 H986 H 0.30137 0.13307 0.37635
 H987 H 0.24645 0.18388 0.36924
 H988 H 0.35885 0.18480 0.34855
 C989 C 0.65837 0.29559 0.37773
 C990 C 0.66605 0.28622 0.42647
 C991 C 0.68764 0.32277 0.43181
 C992 C 0.67917 0.33240 0.38425
 C993 C 0.72379 0.30320 0.41839
 C994 C 0.70264 0.26687 0.41220
 C995 C 0.69546 0.27723 0.36369
 C996 C 0.71597 0.31410 0.37101
 H997 H 0.63080 0.29226 0.36198
 H998 H 0.64554 0.27479 0.44987
 H999 H 0.66708 0.35950 0.37561
 H1000 H 0.75129 0.30441 0.43483
 H1001 H 0.71213 0.23969 0.42456
 H1002 H 0.73763 0.32767 0.35114
 C1003 C 0.16177 0.80095 0.87613
 C1004 C 0.17117 0.79246 0.92470
 C1005 C 0.19265 0.82922 0.92800
 C1006 C 0.18252 0.83808 0.88077
 C1007 C 0.22851 0.80962 0.91345
 C1008 C 0.20737 0.77307 0.90915
 C1009 C 0.19847 0.78248 0.86074
 C1010 C 0.21899 0.81963 0.86622
 H1011 H 0.13370 0.79719 0.86180
 H1012 H 0.15153 0.78136 0.94933
 H1013 H 0.16984 0.86492 0.87214
 H1014 H 0.25666 0.81091 0.92826
 H1015 H 0.21744 0.74618 0.92177
 H1016 H 0.24004 0.83284 0.84516
 C1017 C 0.34149 0.79754 0.11992
 C1018 C 0.33339 0.78835 0.07123
 C1019 C 0.31126 0.82465 0.06646
 C1020 C 0.32021 0.83420 0.11388
 C1021 C 0.27547 0.80466 0.08034
 C1022 C 0.29718 0.76854 0.08602
 C1023 C 0.30476 0.77871 0.13449
 C1024 C 0.28375 0.81545 0.12764
 H1025 H 0.36927 0.79446 0.13523
 H1026 H 0.35375 0.77723 0.04744
 H1027 H 0.33220 0.86138 0.12221
 H1028 H 0.24769 0.80537 0.06451
 H1029 H 0.28789 0.74132 0.07367
 H1030 H 0.26222 0.82877 0.14792
 C1031 C 0.83399 0.30778 0.63261
 C1032 C 0.84026 0.29651 0.58440
 C1033 C 0.81068 0.32474 0.56975
 C1034 C 0.80468 0.33608 0.61717
 C1035 C 0.78020 0.29530 0.57367
 C1036 C 0.80929 0.26674 0.58938
 C1037 C 0.80292 0.27867 0.63750
 C1038 C 0.77392 0.30732 0.62094
 H1039 H 0.85850 0.31288 0.65349
 H1040 H 0.86765 0.29203 0.56866
 H1041 H 0.80071 0.36526 0.62678
 H1042 H 0.75794 0.28980 0.54939
 H1043 H 0.81148 0.23791 0.57763
 H1044 H 0.74583 0.31446 0.63317
 C1045 C 0.22362 0.19549 0.62030
 C1046 C 0.19258 0.16711 0.61614
 C1047 C 0.18688 0.17888 0.56871
 C1048 C 0.21756 0.20800 0.57313
 C1049 C 0.15745 0.20718 0.58347
 C1050 C 0.16352 0.19549 0.63165
 C1051 C 0.19487 0.22423 0.63695
 C1052 C 0.18867 0.23665 0.58891
 H1053 H 0.25161 0.18788 0.63255
 H1054 H 0.19626 0.13783 0.62553
 H1055 H 0.23993 0.21346 0.54904
 H1056 H 0.13015 0.21205 0.56755
 H1057 H 0.13911 0.19027 0.65259
 H1058 H 0.18677 0.26560 0.57745
 C1059 C 0.72329 0.69169 0.11730
 C1060 C 0.69245 0.66298 0.11382
 C1061 C 0.68598 0.67453 0.06649
 C1062 C 0.71651 0.70393 0.07015
 C1063 C 0.65656 0.70270 0.08156
 C1064 C 0.66336 0.69126 0.12968
 C1065 C 0.69452 0.72031 0.13422
 C1066 C 0.68761 0.73242 0.08623
 H1067 H 0.75149 0.68445 0.12925
 H1068 H 0.69636 0.63376 0.12341
 H1069 H 0.73850 0.70954 0.04563
 H1070 H 0.62901 0.70726 0.06613
 H1071 H 0.63915 0.68604 0.15094
 H1072 H 0.68532 0.76130 0.07460
 C1073 C 0.26628 0.61303 0.18663
 C1074 C 0.23330 0.59674 0.21176
 C1075 C 0.21799 0.57925 0.16955
 C1076 C 0.25137 0.59516 0.14394
 C1077 C 0.19575 0.61438 0.15983
 C1078 C 0.21006 0.63116 0.20271
 C1079 C 0.24322 0.64825 0.17853
 C1080 C 0.22913 0.63112 0.13501
 H1081 H 0.29568 0.61208 0.19758
 H1082 H 0.23892 0.58445 0.24391
 H1083 H 0.26854 0.58016 0.11967
 H1084 H 0.16690 0.61394 0.14727
 H1085 H 0.19130 0.64394 0.22675
 H1086 H 0.22838 0.64461 0.10250
 C1087 C 0.71719 0.13522 0.64334
 C1088 C 0.74098 0.09966 0.63924
 C1089 C 0.71488 0.07963 0.67169
 C1090 C 0.69118 0.11450 0.67488
 C1091 C 0.73912 0.09280 0.71009
 C1092 C 0.76510 0.11338 0.67839
 C1093 C 0.74061 0.14824 0.68304
 C1094 C 0.71451 0.12706 0.71379
 H1095 H 0.70832 0.15172 0.61473
 H1096 H 0.75211 0.08806 0.60839
 H1097 H 0.66040 0.11363 0.67493
 H1098 H 0.75031 0.07627 0.73763
 H1099 H 0.79591 0.11276 0.67987
 H1100 H 0.69958 0.13567 0.74300
 C1101 C 0.77194 0.12987 0.36284
 C1102 C 0.74993 0.09388 0.35335
 C1103 C 0.78350 0.07844 0.32781
 C1104 C 0.80560 0.11351 0.33809
 C1105 C 0.76841 0.09626 0.28563
 C1106 C 0.73517 0.11212 0.31072
 C1107 C 0.75797 0.14737 0.31940
 C1108 C 0.79140 0.13068 0.29530
 H1109 H 0.77245 0.14306 0.39551
 H1110 H 0.73272 0.07856 0.37731
 H1111 H 0.83439 0.11316 0.35084
 H1112 H 0.76326 0.08433 0.25325
 H1113 H 0.70582 0.11114 0.29958
 H1114 H 0.81013 0.14379 0.27146
 C1115 C 0.28546 0.63030 0.78584
 C1116 C 0.30901 0.61694 0.82419
 C1117 C 0.28474 0.58250 0.82715
 C1118 C 0.26016 0.59657 0.78944
 C1119 C 0.25939 0.60253 0.86041
 C1120 C 0.28371 0.63778 0.85637
 C1121 C 0.26010 0.65165 0.81715
 C1122 C 0.23503 0.61723 0.82186
 H1123 H 0.30072 0.63894 0.75693
 H1124 H 0.33980 0.61576 0.82369
 H1125 H 0.24803 0.58061 0.76200
 H1126 H 0.24846 0.59075 0.89128
 H1127 H 0.29312 0.65377 0.88510
 H1128 H 0.20419 0.61723 0.82090
 C1129 C 0.29058 0.37065 0.70616
 C1130 C 0.30486 0.38699 0.66300
 C1131 C 0.28315 0.42248 0.67243
 C1132 C 0.26797 0.40554 0.71500
 C1133 C 0.24938 0.40692 0.64723
 C1134 C 0.27105 0.37063 0.63853
 C1135 C 0.25700 0.35397 0.68228
 C1136 C 0.23454 0.38957 0.69024
 H1137 H 0.30916 0.35758 0.73030
 H1138 H 0.33367 0.38684 0.65036
 H1139 H 0.26312 0.41822 0.74710
 H1140 H 0.23228 0.42205 0.62293
 H1141 H 0.27141 0.35689 0.60619
 H1142 H 0.20521 0.39102 0.70127
 C1143 C 0.77219 0.86839 0.13480
 C1144 C 0.75010 0.90450 0.14354
 C1145 C 0.78303 0.91972 0.17050
 C1146 C 0.80522 0.88454 0.16091
 C1147 C 0.76673 0.90187 0.21194
 C1148 C 0.73416 0.88621 0.18548
 C1149 C 0.75704 0.85085 0.17764
 C1150 C 0.78987 0.86737 0.20306
 H1151 H 0.77353 0.85533 0.10211
 H1152 H 0.73356 0.91996 0.11899
 H1153 H 0.83435 0.88475 0.14937
 H1154 H 0.76026 0.91388 0.24392
 H1155 H 0.70456 0.88732 0.19556
 H1156 H 0.80823 0.85409 0.22722
 C1157 C 0.71963 0.86468 0.85643
 C1158 C 0.74330 0.90039 0.85949
 C1159 C 0.71637 0.92009 0.82753
 C1160 C 0.69282 0.88510 0.82544
 C1161 C 0.73986 0.90668 0.78868
 C1162 C 0.76663 0.88643 0.81985
 C1163 C 0.74224 0.85145 0.81622
 C1164 C 0.71532 0.87235 0.78604
 H1165 H 0.71145 0.84839 0.88545
 H1166 H 0.75505 0.91226 0.88991
 H1167 H 0.66205 0.88588 0.82620
 H1168 H 0.75048 0.92305 0.76075
 H1169 H 0.79739 0.88717 0.81754
 H1170 H 0.69957 0.86351 0.75753
 C1171 C 0.22814 0.36722 0.36358
 C1172 C 0.25085 0.40297 0.35540
 C1173 C 0.21804 0.41933 0.32905
 C1174 C 0.19532 0.38440 0.33804
 C1175 C 0.23382 0.40186 0.28712
 C1176 C 0.26622 0.38511 0.31298
 C1177 C 0.24270 0.35012 0.32030
 C1178 C 0.21010 0.36765 0.29541
 H1179 H 0.22681 0.35372 0.39605
 H1180 H 0.26778 0.41770 0.38015
 H1181 H 0.16627 0.38515 0.34982
 H1182 H 0.24035 0.41434 0.25533
 H1183 H 0.29579 0.38578 0.30274
 H1184 H 0.19147 0.35502 0.27106
 C1185 C 0.14026 0.25399 0.78830
 C1186 C 0.12839 0.29160 0.80634
 C1187 C 0.08803 0.28187 0.79678
 C1188 C 0.09982 0.24416 0.77806
 C1189 C 0.09080 0.29899 0.75088
 C1190 C 0.13155 0.30887 0.76064
 C1191 C 0.14501 0.27103 0.74197
 C1192 C 0.10399 0.26133 0.73177
 H1193 H 0.15910 0.23520 0.80638
 H1194 H 0.13913 0.30411 0.83692
 H1195 H 0.08770 0.21659 0.78437
 H1196 H 0.07015 0.31781 0.73576
 H1197 H 0.14266 0.33689 0.75431
 H1198 H 0.09361 0.24874 0.70107
 C1199 C 0.64046 0.75228 0.28559
 C1200 C 0.62907 0.79021 0.30315
 C1201 C 0.58856 0.78076 0.29425
 C1202 C 0.59986 0.74270 0.27600
 C1203 C 0.59108 0.79726 0.24801
 C1204 C 0.63197 0.80690 0.25712
 C1205 C 0.64498 0.76872 0.23890
 C1206 C 0.60379 0.75925 0.22937
 H1207 H 0.65925 0.73349 0.30375
 H1208 H 0.64014 0.80296 0.33342
 H1209 H 0.58763 0.71528 0.28295
 H1210 H 0.57047 0.81608 0.23280
 H1211 H 0.64318 0.83479 0.25021
 H1212 H 0.59302 0.74637 0.19903
 C1213 C 0.63220 0.19430 0.24435
 C1214 C 0.59200 0.20693 0.25260
 C1215 C 0.59014 0.22054 0.20500
 C1216 C 0.62997 0.20814 0.19695
 C1217 C 0.60376 0.25891 0.21969
 C1218 C 0.60708 0.24523 0.26767
 C1219 C 0.64752 0.23264 0.25892
 C1220 C 0.64362 0.24634 0.21096
 H1221 H 0.64208 0.16646 0.25396
 H1222 H 0.57041 0.19043 0.26950
 H1223 H 0.64020 0.19286 0.16798
 H1224 H 0.59269 0.28622 0.20998
 H1225 H 0.59728 0.26066 0.29672
 H1226 H 0.66311 0.26257 0.19077
 C1227 C 0.10815 0.74952 0.76660
 C1228 C 0.10424 0.76189 0.71817
 C1229 C 0.09032 0.72320 0.70523
 C1230 C 0.09274 0.71088 0.75329
 C1231 C 0.13001 0.71044 0.69699
 C1232 C 0.14394 0.74895 0.70923
 C1233 C 0.14845 0.73653 0.75760
 C1234 C 0.13278 0.69788 0.74483
 H1235 H 0.09881 0.76577 0.79523
 H1236 H 0.09296 0.78886 0.70755
 H1237 H 0.07130 0.69495 0.77120
 H1238 H 0.13988 0.69435 0.66846
 H1239 H 0.16316 0.76447 0.68795
 H1240 H 0.14266 0.67027 0.75534
 C1241 C 0.85733 0.75424 0.70631
 C1242 C 0.87134 0.79257 0.69324
 C1243 C 0.91105 0.77952 0.70081
 C1244 C 0.89704 0.74099 0.71456
 C1245 C 0.90965 0.79215 0.74879
 C1246 C 0.86948 0.80540 0.74107
 C1247 C 0.85384 0.76692 0.75468
 C1248 C 0.89417 0.75370 0.76290
 H1249 H 0.83764 0.73877 0.68557
 H1250 H 0.86102 0.80851 0.66474
 H1251 H 0.90739 0.71363 0.70412
 H1252 H 0.93150 0.80807 0.76605
 H1253 H 0.85985 0.83307 0.75157
 H1254 H 0.90389 0.73754 0.79150
 C1255 C 0.36729 0.30422 0.24297
 C1256 C 0.40789 0.29389 0.25267
 C1257 C 0.41074 0.27781 0.20634
 C1258 C 0.37044 0.28791 0.19687
 C1259 C 0.39881 0.23974 0.22379
 C1260 C 0.39450 0.25589 0.27060
 C1261 C 0.35355 0.26609 0.26046
 C1262 C 0.35839 0.24998 0.21372
 H1263 H 0.35646 0.33224 0.25000
 H1264 H 0.42860 0.31223 0.26842
 H1265 H 0.35978 0.30112 0.16662
 H1266 H 0.41117 0.21245 0.21640
 H1267 H 0.40470 0.24259 0.30099
 H1268 H 0.33950 0.23164 0.19514
 C1269 C 0.39396 0.74613 0.22978
 C1270 C 0.39750 0.75962 0.27779
 C1271 C 0.41121 0.72120 0.29226
 C1272 C 0.40914 0.70776 0.24463
 C1273 C 0.37141 0.70877 0.30047
 C1274 C 0.35766 0.74703 0.28670
 C1275 C 0.35355 0.73352 0.23873
 C1276 C 0.36899 0.69512 0.25307
 H1277 H 0.40360 0.76166 0.20070
 H1278 H 0.40876 0.78681 0.28749
 H1279 H 0.43068 0.69134 0.22753
 H1280 H 0.36126 0.69336 0.32942
 H1281 H 0.33823 0.76309 0.30713
 H1282 H 0.35913 0.66731 0.24345
 C1283 C 0.86740 0.19314 0.75976
 C1284 C 0.90807 0.20300 0.74984
 C1285 C 0.91130 0.21939 0.79602
 C1286 C 0.87096 0.20973 0.80572
 C1287 C 0.89956 0.25744 0.77817
 C1288 C 0.89489 0.24100 0.73156
 C1289 C 0.85390 0.23130 0.74190
 C1290 C 0.85912 0.24766 0.78850
 H1291 H 0.85625 0.16521 0.75303
 H1292 H 0.92852 0.18434 0.73418
 H1293 H 0.86040 0.19683 0.83615
 H1294 H 0.91205 0.28475 0.78508
 H1295 H 0.90508 0.25400 0.70102
 H1296 H 0.84048 0.26631 0.80696
 C1297 C 0.56170 1.00066 0.58934
 C1298 C 0.58292 0.96901 0.61210
 C1299 C 0.61768 0.99381 0.61458
 C1300 C 0.59644 1.02518 0.59233
 C1301 C 0.63083 0.97915 0.57031
 C1302 C 0.59541 0.95477 0.56639
 C1303 C 0.57435 0.98688 0.54341
 C1304 C 0.60998 1.01103 0.54794
 H1305 H 0.53340 1.00939 0.59937
 H1306 H 0.57161 0.95156 0.63873
 H1307 H 0.59641 1.05454 0.60245
 H1308 H 0.65960 0.96963 0.56391
 H1309 H 0.59552 0.92532 0.55693
 H1310 H 0.62313 1.02973 0.52392
 C1311 C 0.05914 0.50239 1.09039
 C1312 C 0.08001 0.47083 1.11376
 C1313 C 0.11508 0.49524 1.11559
 C1314 C 0.09422 0.52648 1.09278
 C1315 C 0.12785 0.47968 1.07162
 C1316 C 0.09216 0.45571 1.06835
 C1317 C 0.07154 0.48774 1.04472
 C1318 C 0.10748 0.51151 1.04872
 H1319 H 0.03098 0.51164 1.10033
 H1320 H 0.06868 0.45406 1.14098
 H1321 H 0.09476 0.55593 1.10245
 H1322 H 0.15647 0.46962 1.06547
 H1323 H 0.09186 0.42612 1.05951
 H1324 H 0.12087 0.52990 1.02457
 C1325 C -0.10860 -0.01300 1.05118
 C1326 C -0.09621 -0.02964 1.09489
 C1327 C -0.11673 0.00134 1.11852
 C1328 C -0.12869 0.01848 1.07492
 C1329 C -0.08112 0.02509 1.11844
 C1330 C -0.06061 -0.00617 1.09417
 C1331 C -0.07211 0.01020 1.04888
 C1332 C -0.09239 0.04186 1.07346
 H1333 H -0.12210 -0.02989 1.02554
 H1334 H -0.09746 -0.05936 1.10326
 H1335 H -0.15698 0.02865 1.06681
 H1336 H -0.06964 0.04083 1.14641
 H1337 H -0.03279 -0.01626 1.10437
 H1338 H -0.09096 0.07162 1.06535
 C1339 C 0.39067 0.48918 0.54788
 C1340 C 0.40346 0.47303 0.59169
 C1341 C 0.38353 0.50453 0.61505
 C1342 C 0.37113 0.52116 0.57137
 C1343 C 0.41934 0.52794 0.61391
 C1344 C 0.43924 0.49617 0.58992
 C1345 C 0.42728 0.51204 0.54458
 C1346 C 0.40762 0.54420 0.56887
 H1347 H 0.37678 0.47210 0.52271
 H1348 H 0.40210 0.44341 0.60061
 H1349 H 0.34282 0.53145 0.56360
 H1350 H 0.43135 0.54398 0.64134
 H1351 H 0.46711 0.48599 0.59979
 H1352 H 0.40925 0.57385 0.56023
 C1353 C 0.38833 0.50980 -0.04906
 C1354 C 0.40098 0.52610 -0.09272
 C1355 C 0.38059 0.49499 -0.11637
 C1356 C 0.36836 0.47822 -0.07277
 C1357 C 0.41626 0.47132 -0.11562
 C1358 C 0.43657 0.50269 -0.09146
 C1359 C 0.42484 0.48665 -0.04619
 C1360 C 0.40472 0.45483 -0.07067
 H1361 H 0.37470 0.52685 -0.02368
 H1362 H 0.39983 0.55581 -0.10126
 H1363 H 0.34002 0.46812 -0.06497
 H1364 H 0.42780 0.45537 -0.14337
 H1365 H 0.46441 0.51273 -0.10153
 H1366 H 0.40618 0.42512 -0.06229
 C1367 C -0.09369 0.95638 0.43223
 C1368 C -0.12937 0.98035 0.42825
 C1369 C -0.11604 0.99592 0.38444
 C1370 C -0.08095 0.97152 0.38702
 C1371 C -0.09555 1.02717 0.40762
 C1372 C -0.10936 1.01218 0.45148
 C1373 C -0.07345 0.98840 0.45620
 C1374 C -0.06045 1.00309 0.41074
 H1375 H -0.09343 0.92678 0.44111
 H1376 H -0.15805 0.97035 0.43407
 H1377 H -0.06920 0.95477 0.36006
 H1378 H -0.09600 1.05663 0.39790
 H1379 H -0.12309 1.03045 0.47550
 H1380 H -0.03217 1.01236 0.40136
 C1381 C 0.10914 0.48950 0.45058
 C1382 C 0.09617 0.47311 0.40708
 C1383 C 0.11625 0.50423 0.38318
 C1384 C 0.12876 0.52113 0.42663
 C1385 C 0.08056 0.52787 0.38413
 C1386 C 0.06051 0.49646 0.40862
 C1387 C 0.07264 0.51260 0.45374
 C1388 C 0.09242 0.54444 0.42893
 H1389 H 0.12305 0.47242 0.47580
 H1390 H 0.09741 0.44344 0.39850
 H1391 H 0.15714 0.53131 0.43415
 H1392 H 0.06877 0.54369 0.35634
 H1393 H 0.03259 0.48635 0.39893
 H1394 H 0.09100 0.57416 0.43721
 C1395 C 0.61149 -0.01082 -0.04683
 C1396 C 0.59742 -0.02494 -0.09099
 C1397 C 0.61801 0.00661 -0.11357
 C1398 C 0.63166 0.02127 -0.06948
 C1399 C 0.58304 0.03109 -0.11035
 C1400 C 0.56249 -0.00075 -0.08732
 C1401 C 0.57572 0.01303 -0.04159
 C1402 C 0.59609 0.04536 -0.06486
 H1403 H 0.62519 -0.02948 -0.02313
 H1404 H 0.59756 -0.05427 -0.10127
 H1405 H 0.66045 0.03104 -0.06379
 H1406 H 0.57127 0.04844 -0.13684
 H1407 H 0.53413 -0.00971 -0.09688
 H1408 H 0.59613 0.07480 -0.05538
 C1409 C 0.57403 0.57697 0.02246
 C1410 C 0.61055 0.55734 0.03458
 C1411 C 0.62723 0.56936 -0.00925
 C1412 C 0.59032 0.58802 -0.02204
 C1413 C 0.61367 0.53281 -0.02984
 C1414 C 0.59628 0.52127 0.01441
 C1415 C 0.55913 0.54075 0.00296
 C1416 C 0.57593 0.55152 -0.04204
 H1417 H 0.55888 0.59724 0.04245
 H1418 H 0.62753 0.55748 0.06463
 H1419 H 0.58777 0.61543 -0.03777
 H1420 H 0.62999 0.51462 -0.05172
 H1421 H 0.59932 0.49344 0.02900
 H1422 H 0.56223 0.54851 -0.07432
 C1423 C 0.07117 1.08481 0.51564
 C1424 C 0.10668 1.07116 0.53804
 C1425 C 0.12736 1.07278 0.49425
 C1426 C 0.09155 1.08600 0.47156
 C1427 C 0.11657 1.03219 0.48573
 C1428 C 0.09562 1.03093 0.52985
 C1429 C 0.05937 1.04453 0.50778
 C1430 C 0.07988 1.04533 0.46318
 H1431 H 0.05436 1.10791 0.52802
 H1432 H 0.11870 1.08358 0.56782
 H1433 H 0.08953 1.10866 0.44731
 H1434 H 0.13526 1.01041 0.47294
 H1435 H 0.09832 1.00822 0.55385
 H1436 H 0.06867 1.03456 0.43192
 C1437 C 0.07816 -0.05673 1.04529
 C1438 C 0.09339 -0.09225 1.02357
 C1439 C 0.13009 -0.07255 1.01254
 C1440 C 0.11566 -0.03699 1.03471
 C1441 C 0.11355 -0.05911 0.96915
 C1442 C 0.07728 -0.07968 0.97955
 C1443 C 0.06169 -0.04439 1.00064
 C1444 C 0.09859 -0.02404 0.99089
 H1445 H 0.06418 -0.05512 1.07749
 H1446 H 0.09106 -0.12035 1.03753
 H1447 H 0.13144 -0.01945 1.05788
 H1448 H 0.13067 -0.05777 0.93928
 H1449 H 0.06246 -0.09956 0.95868
 H1450 H 0.10133 0.00430 0.97768
 C1451 C 0.59686 0.46866 0.47276
 C1452 C 0.61784 0.46680 0.51694
 C1453 C 0.62805 0.42609 0.50805
 C1454 C 0.60739 0.42832 0.46423
 C1455 C 0.59212 0.41322 0.53057
 C1456 C 0.58095 0.45405 0.53925
 C1457 C 0.56040 0.45549 0.49456
 C1458 C 0.57171 0.41506 0.48644
 H1459 H 0.59988 0.49149 0.44897
 H1460 H 0.63679 0.48825 0.52999
 H1461 H 0.61928 0.41582 0.43446
 H1462 H 0.58977 0.39044 0.55460
 H1463 H 0.56993 0.46479 0.57059
 H1464 H 0.55470 0.39224 0.47381
 C1465 C -0.09750 0.47836 0.51553
 C1466 C -0.11478 0.46670 0.47130
 C1467 C -0.12897 0.43047 0.49216
 C1468 C -0.11224 0.44257 0.53599
 C1469 C -0.09218 0.41127 0.48003
 C1470 C -0.07726 0.44743 0.45966
 C1471 C -0.06056 0.45841 0.50462
 C1472 C -0.07588 0.42249 0.52447
 H1473 H -0.10029 0.50630 0.52980
 H1474 H -0.13077 0.48492 0.44903
 H1475 H -0.12916 0.44267 0.56605
 H1476 H -0.08977 0.38365 0.46484
 H1477 H -0.06339 0.45000 0.42746
 H1478 H -0.06091 0.40220 0.54472
 C1479 C 0.42262 -0.04530 -0.03771
 C1480 C 0.41092 -0.08609 -0.02989
 C1481 C 0.37486 -0.07312 -0.00774
 C1482 C 0.38567 -0.03242 -0.01573
 C1483 C 0.39506 -0.07178 0.03637
 C1484 C 0.43085 -0.08512 0.01455
 C1485 C 0.44267 -0.04471 0.00729
 C1486 C 0.40611 -0.03143 0.02876
 H1487 H 0.43411 -0.03426 -0.06869
 H1488 H 0.41328 -0.10858 -0.05426
 H1489 H 0.36708 -0.01059 -0.02869
 H1490 H 0.38284 -0.08473 0.06571
 H1491 H 0.44725 -0.10836 0.02716
 H1492 H 0.40298 -0.00885 0.05280
 C1493 C 0.41988 1.04487 0.54050
 C1494 C 0.40809 1.08541 0.53123
 C1495 C 0.37191 1.07194 0.50969
 C1496 C 0.38281 1.03144 0.51910
 C1497 C 0.39195 1.06938 0.46555
 C1498 C 0.42779 1.08333 0.48679
 C1499 C 0.43975 1.04317 0.49549
 C1500 C 0.40312 1.02929 0.47459
 H1501 H 0.43151 1.03463 0.57183
 H1502 H 0.41054 1.10850 0.55479
 H1503 H 0.36431 1.00995 0.53290
 H1504 H 0.37947 1.08137 0.43578
 H1505 H 0.44423 1.10621 0.47337
 H1506 H 0.40002 1.00618 0.45124
 C1507 C -0.07843 0.55518 1.04146
 C1508 C -0.09339 0.59112 1.02037
 C1509 C -0.13027 0.57188 1.00895
 C1510 C -0.11608 0.53589 1.03048
 C1511 C -0.11391 0.55891 0.96534
 C1512 C -0.07746 0.57910 0.97610
 C1513 C -0.06206 0.54343 0.99661
 C1514 C -0.09913 0.52345 0.98648
 H1515 H -0.06456 0.55288 1.07373
 H1516 H -0.09094 0.61895 1.03497
 H1517 H -0.13195 0.51813 1.05330
 H1518 H -0.13129 0.55806 0.93564
 H1519 H -0.06255 0.59905 0.95538
 H1520 H -0.10212 0.49528 0.97290
 C1521 C 0.03537 0.57984 0.60474
 C1522 C 0.06475 0.60908 0.59362
 C1523 C 0.03388 0.63780 0.59063
 C1524 C 0.00435 0.60880 0.60147
 C1525 C 0.02916 0.62998 0.54143
 C1526 C 0.06025 0.60057 0.54430
 C1527 C 0.03111 0.57082 0.55531
 C1528 C -0.00018 0.60002 0.55224
 H1529 H 0.03750 0.56068 0.63287
 H1530 H 0.09095 0.61293 0.61201
 H1531 H -0.01864 0.61220 0.62526
 H1532 H 0.02649 0.65112 0.51540
 H1533 H 0.08260 0.59964 0.51960
 H1534 H -0.02703 0.59650 0.53487
 C1535 C 0.55014 0.08245 0.09916
 C1536 C 0.56716 0.11592 0.07546
 C1537 C 0.53287 0.13837 0.08804
 C1538 C 0.51569 0.10516 0.11124
 C1539 C 0.51352 0.12743 0.04495
 C1540 C 0.54798 0.10404 0.03235
 C1541 C 0.53131 0.07031 0.05601
 C1542 C 0.49664 0.09346 0.06824
 H1543 H 0.56349 0.06533 0.12437
 H1544 H 0.59565 0.12724 0.07774
 H1545 H 0.50234 0.10561 0.14390
 H1546 H 0.49827 0.14618 0.02258
 H1547 H 0.56093 0.10418 -0.00044
 H1548 H 0.46722 0.08464 0.06522
 C1549 C -0.05823 0.09866 0.95846
 C1550 C -0.02750 0.12837 0.96191
 C1551 C -0.03145 0.13609 0.91255
 C1552 C -0.06194 0.10705 0.90901
 C1553 C -0.00145 0.10730 0.90258
 C1554 C 0.00231 0.09859 0.95195
 C1555 C -0.02865 0.06911 0.94829
 C1556 C -0.03210 0.07807 0.89872
 H1557 H -0.08097 0.09754 0.98265
 H1558 H -0.02546 0.14957 0.98789
 H1559 H -0.08788 0.11051 0.89001
 H1560 H 0.02193 0.11082 0.87934
 H1561 H 0.02889 0.09531 0.96998
 H1562 H -0.03355 0.05895 0.87054
 C1563 C 0.44112 0.59991 0.45481
 C1564 C 0.47223 0.62927 0.45773
 C1565 C 0.46766 0.63707 0.40847
 C1566 C 0.43679 0.60840 0.40547
 C1567 C 0.49720 0.60801 0.39785
 C1568 C 0.50158 0.59922 0.44713
 C1569 C 0.47028 0.57009 0.44402
 C1570 C 0.46618 0.57912 0.39454
 H1571 H 0.41867 0.59901 0.47938
 H1572 H 0.47484 0.65042 0.48370
 H1573 H 0.41067 0.61235 0.38694
 H1574 H 0.52026 0.61134 0.37414
 H1575 H 0.52837 0.59564 0.46462
 H1576 H 0.46409 0.56005 0.36637
 C1577 C 0.49493 0.90570 0.43403
 C1578 C 0.51349 0.89450 0.39060
 C1579 C 0.53143 0.86131 0.41315
 C1580 C 0.51258 0.87174 0.45668
 C1581 C 0.56559 0.88405 0.42540
 C1582 C 0.54781 0.91749 0.40231
 C1583 C 0.52949 0.92917 0.44590
 C1584 C 0.54691 0.89544 0.46894
 H1585 H 0.46545 0.91416 0.43763
 H1586 H 0.49965 0.89414 0.35817
 H1587 H 0.49789 0.85264 0.47909
 H1588 H 0.59407 0.87278 0.42266
 H1589 H 0.56044 0.93485 0.37690
 H1590 H 0.56039 0.89524 0.50149
 C1591 C -0.00705 0.40638 0.93462
 C1592 C 0.01182 0.39478 0.89153
 C1593 C 0.02947 0.36173 0.91469
 C1594 C 0.01032 0.37256 0.95787
 C1595 C 0.06360 0.38451 0.92703
 C1596 C 0.04611 0.41780 0.90335
 C1597 C 0.02748 0.42984 0.94657
 C1598 C 0.04462 0.39628 0.97022
 H1599 H -0.03653 0.41497 0.93780
 H1600 H -0.00178 0.39416 0.85896
 H1601 H -0.00462 0.35368 0.98031
 H1602 H 0.09205 0.37309 0.92467
 H1603 H 0.05904 0.43500 0.87798
 H1604 H 0.05786 0.39635 1.00290
 C1605 C 0.49911 0.39944 0.05063
 C1606 C 0.49557 0.39064 0.09996
 C1607 C 0.46579 0.36169 0.08988
 C1608 C 0.46953 0.36952 0.04057
 C1609 C 0.43503 0.39047 0.09358
 C1610 C 0.46467 0.41962 0.10397
 C1611 C 0.46792 0.42867 0.05445
 C1612 C 0.43854 0.39898 0.04416
 H1613 H 0.52560 0.40297 0.03260
 H1614 H 0.51904 0.38718 0.12317
 H1615 H 0.47166 0.34836 0.01455
 H1616 H 0.40915 0.38679 0.11254
 H1617 H 0.46315 0.43871 0.13217
 H1618 H 0.41572 0.40002 0.02000
 C1619 C -0.04694 0.89641 0.53140
 C1620 C -0.01246 0.87290 0.54378
 C1621 C -0.03152 0.86193 0.58701
 C1622 C -0.06581 0.88448 0.57464
 C1623 C -0.01409 0.89505 0.61010
 C1624 C 0.00468 0.90679 0.56697
 C1625 C -0.03002 0.93007 0.55497
 C1626 C -0.04856 0.91788 0.59825
 H1627 H -0.06020 0.89640 0.49873
 H1628 H 0.00259 0.85414 0.52133
 H1629 H -0.09405 0.87264 0.57710
 H1630 H -0.00050 0.89450 0.64266
 H1631 H 0.03410 0.91553 0.56376
 H1632 H -0.06155 0.93498 0.62363
 C1633 C 0.24984 0.30780 0.16232
 C1634 C 0.21766 0.32892 0.14011
 C1635 C 0.24278 0.36330 0.13708
 C1636 C 0.27465 0.34214 0.15866
 C1637 C 0.22869 0.37646 0.18154
 C1638 C 0.20403 0.34148 0.18606
 C1639 C 0.23669 0.32057 0.20847
 C1640 C 0.26116 0.35575 0.20324
 H1641 H 0.25840 0.27968 0.15229
 H1642 H 0.19962 0.31777 0.11385
 H1643 H 0.30410 0.34206 0.14787
 H1644 H 0.21910 0.40503 0.18770
 H1645 H 0.17446 0.34180 0.19609
 H1646 H 0.28084 0.36867 0.22642
 C1647 C 0.76014 0.85760 0.70024
 C1648 C 0.77516 0.84507 0.65594
 C1649 C 0.74292 0.86517 0.63373
 C1650 C 0.72741 0.87729 0.67794
 C1651 C 0.71929 0.82972 0.63542
 C1652 C 0.75178 0.80972 0.65824
 C1653 C 0.73701 0.82141 0.70409
 C1654 C 0.70405 0.84119 0.68096
 H1655 H 0.77851 0.87092 0.72461
 H1656 H 0.80478 0.84645 0.64600
 H1657 H 0.71732 0.90537 0.68601
 H1658 H 0.70233 0.81822 0.60839
 H1659 H 0.76172 0.78213 0.64785
 H1660 H 0.67433 0.83959 0.69042
 C1661 C 0.24913 0.69367 0.65820
 C1662 C 0.28127 0.67335 0.63506
 C1663 C 0.25728 0.63811 0.63354
 C1664 C 0.22540 0.65849 0.65600
 C1665 C 0.27303 0.62588 0.67772
 C1666 C 0.29676 0.66173 0.68053
 C1667 C 0.26419 0.68178 0.70397
 C1668 C 0.24064 0.64583 0.70024
 H1669 H 0.23934 0.72139 0.64802
 H1670 H 0.29806 0.68472 0.60783
 H1671 H 0.19570 0.65739 0.64624
 H1672 H 0.28291 0.59773 0.68586
 H1673 H 0.32656 0.66299 0.68980
 H1674 H 0.22233 0.63265 0.72474
 C1675 C 0.79771 0.15751 0.18564
 C1676 C 0.77305 0.12260 0.18051
 C1677 C 0.75892 0.13624 0.13623
 C1678 C 0.78412 0.17052 0.13976
 C1679 C 0.72709 0.15718 0.15792
 C1680 C 0.74057 0.14304 0.20234
 C1681 C 0.76501 0.17818 0.20817
 C1682 C 0.75195 0.19143 0.16208
 H1683 H 0.82724 0.15710 0.19595
 H1684 H 0.78271 0.09394 0.18592
 H1685 H 0.80215 0.18192 0.11368
 H1686 H 0.69767 0.15740 0.14696
 H1687 H 0.72090 0.12972 0.22515
 H1688 H 0.74345 0.21966 0.15225
 C1689 C 0.76072 0.14250 0.79896
 C1690 C 0.77666 0.15519 0.84280
 C1691 C 0.74472 0.13550 0.86599
 C1692 C 0.72830 0.12322 0.82221
 C1693 C 0.72127 0.17111 0.86446
 C1694 C 0.75346 0.19071 0.84068
 C1695 C 0.73775 0.17884 0.79527
 C1696 C 0.70511 0.15947 0.81934
 H1697 H 0.77841 0.12881 0.77421
 H1698 H 0.80647 0.15369 0.85202
 H1699 H 0.71789 0.09518 0.81455
 H1700 H 0.70494 0.18290 0.89181
 H1701 H 0.76378 0.21830 0.85054
 H1702 H 0.67525 0.16119 0.81046
 C1703 C 0.26051 0.64328 0.29570
 C1704 C 0.27374 0.65715 0.34027
 C1705 C 0.24180 0.63615 0.36176
 C1706 C 0.22797 0.62276 0.31725
 C1707 C 0.21671 0.67052 0.35812
 C1708 C 0.24896 0.69148 0.33609
 C1709 C 0.23609 0.67846 0.28989
 C1710 C 0.20331 0.65771 0.31214
 H1711 H 0.28028 0.63013 0.27285
 H1712 H 0.30310 0.65727 0.35143
 H1713 H 0.21842 0.59415 0.31142
 H1714 H 0.19858 0.68174 0.38422
 H1715 H 0.25747 0.71964 0.34605
 H1716 H 0.17379 0.65725 0.30186
 C1717 C 0.79514 0.84149 0.31204
 C1718 C 0.77062 0.87654 0.31698
 C1719 C 0.75655 0.86309 0.36126
 C1720 C 0.78151 0.82862 0.35784
 C1721 C 0.72459 0.84232 0.33956
 C1722 C 0.73804 0.85624 0.29513
 C1723 C 0.76235 0.82097 0.28950
 C1724 C 0.74923 0.80788 0.33557
 H1725 H 0.82471 0.84177 0.30200
 H1726 H 0.78035 0.90516 0.31151
 H1727 H 0.79949 0.81725 0.38407
 H1728 H 0.69521 0.84243 0.35056
 H1729 H 0.71840 0.86951 0.27212
 H1730 H 0.74060 0.77974 0.34545
 C1731 C 0.29570 0.34379 0.81598
 C1732 C 0.27140 0.37899 0.82115
 C1733 C 0.25722 0.36536 0.86539
 C1734 C 0.28196 0.33076 0.86171
 C1735 C 0.22516 0.34489 0.84341
 C1736 C 0.23876 0.35898 0.79909
 C1737 C 0.26279 0.32355 0.79332
 C1738 C 0.24958 0.31035 0.83926
 H1739 H 0.32525 0.34392 0.80586
 H1740 H 0.28119 0.40757 0.81565
 H1741 H 0.29986 0.31915 0.88786
 H1742 H 0.19572 0.34501 0.85423
 H1743 H 0.21941 0.37260 0.77604
 H1744 H 0.24074 0.28222 0.84897
 C1745 C 0.78116 0.34659 0.72246
 C1746 C 0.78228 0.36756 0.76642
 C1747 C 0.82326 0.37826 0.75803
 C1748 C 0.82180 0.35750 0.71445
 C1749 C 0.83656 0.34289 0.78106
 C1750 C 0.79546 0.33132 0.78929
 C1751 C 0.79472 0.31074 0.74481
 C1752 C 0.83545 0.32239 0.73714
 H1753 H 0.75827 0.34926 0.69842
 H1754 H 0.76024 0.38612 0.77896
 H1755 H 0.83457 0.36932 0.68478
 H1756 H 0.85934 0.34102 0.80544
 H1757 H 0.78446 0.32041 0.82058
 H1758 H 0.85880 0.30568 0.72500
 C1759 C 0.30329 0.82740 0.28809
 C1760 C 0.34015 0.84197 0.26849
 C1761 C 0.32118 0.87858 0.25608
 C1762 C 0.28428 0.86483 0.27624
 C1763 C 0.30932 0.86237 0.21196
 C1764 C 0.32921 0.82616 0.22375
 C1765 C 0.29263 0.81113 0.24283
 C1766 C 0.27289 0.84795 0.23171
 H1767 H 0.30014 0.81356 0.32019
 H1768 H 0.36778 0.83935 0.28427
 H1769 H 0.26579 0.88074 0.29822
 H1770 H 0.30952 0.87947 0.18214
 H1771 H 0.34979 0.81129 0.20376
 H1772 H 0.24488 0.85096 0.21692
 C1773 C 0.17288 0.82922 0.77236
 C1774 C 0.19312 0.86545 0.78276
 C1775 C 0.17966 0.88147 0.73912
 C1776 C 0.16040 0.84478 0.72807
 C1777 C 0.21592 0.86751 0.71748
 C1778 C 0.22886 0.85091 0.76156
 C1779 C 0.20884 0.81406 0.75181
 C1780 C 0.19658 0.83004 0.70690
 H1781 H 0.15283 0.81450 0.79318
 H1782 H 0.19407 0.88262 0.81248
 H1783 H 0.13222 0.84214 0.71373
 H1784 H 0.23361 0.88325 0.69443
 H1785 H 0.25731 0.85403 0.77508
 H1786 H 0.19872 0.81612 0.67476
 C1787 C 0.72833 0.34705 0.26717
 C1788 C 0.71736 0.36416 0.22261
 C1789 C 0.68055 0.37848 0.24251
 C1790 C 0.69198 0.36191 0.28668
 C1791 C 0.66120 0.34212 0.22998
 C1792 C 0.69794 0.32707 0.21055
 C1793 C 0.70821 0.31054 0.25583
 C1794 C 0.67173 0.32598 0.27472
 H1795 H 0.75629 0.34967 0.28217
 H1796 H 0.73618 0.37986 0.20077
 H1797 H 0.69171 0.37875 0.31669
 H1798 H 0.63356 0.33989 0.21414
 H1799 H 0.70103 0.31330 0.17844
 H1800 H 0.65086 0.31126 0.29444
 C1801 C 0.66315 0.67715 0.23459
 C1802 C 0.67676 0.64191 0.21226
 C1803 C 0.67570 0.62148 0.25618
 C1804 C 0.66246 0.65699 0.27880
 C1805 C 0.71671 0.63236 0.26410
 C1806 C 0.71741 0.65299 0.21985
 C1807 C 0.70389 0.68896 0.24182
 C1808 C 0.70359 0.66874 0.28658
 H1809 H 0.63972 0.69386 0.22246
 H1810 H 0.66399 0.62986 0.18271
 H1811 H 0.63988 0.65899 0.30333
 H1812 H 0.73890 0.61396 0.27673
 H1813 H 0.74007 0.65024 0.19559
 H1814 H 0.71479 0.67994 0.31763
 C1815 C 0.20340 0.17073 0.78845
 C1816 C 0.16229 0.15914 0.78026
 C1817 C 0.17554 0.12387 0.75712
 C1818 C 0.21653 0.13459 0.76549
 C1819 C 0.17679 0.14474 0.71356
 C1820 C 0.16319 0.17977 0.73636
 C1821 C 0.20393 0.19146 0.74402
 C1822 C 0.21745 0.15569 0.72155
 H1823 H 0.21449 0.18155 0.81975
 H1824 H 0.13960 0.16090 0.80467
 H1825 H 0.23863 0.11600 0.77793
 H1826 H 0.16381 0.13302 0.68397
 H1827 H 0.13982 0.19652 0.72426
 H1828 H 0.24026 0.15309 0.69748
 C1829 C 0.29412 0.16697 0.21249
 C1830 C 0.33512 0.15504 0.22084
 C1831 C 0.32160 0.11968 0.24363
 C1832 C 0.28069 0.13074 0.23514
 C1833 C 0.32021 0.14033 0.28735
 C1834 C 0.33416 0.17537 0.26486
 C1835 C 0.29355 0.18741 0.25707
 C1836 C 0.27969 0.15161 0.27921
 H1837 H 0.28323 0.17807 0.18121
 H1838 H 0.35792 0.15683 0.19656
 H1839 H 0.25853 0.11240 0.22243
 H1840 H 0.33279 0.12836 0.31707
 H1841 H 0.35765 0.19182 0.27711
 H1842 H 0.25685 0.14913 0.30327
 C1843 C 0.80562 0.67289 0.70573
 C1844 C 0.84165 0.65760 0.72692
 C1845 C 0.82187 0.62116 0.73795
 C1846 C 0.78579 0.63567 0.71630
 C1847 C 0.80878 0.63727 0.78159
 C1848 C 0.82948 0.67329 0.77121
 C1849 C 0.79366 0.68897 0.75064
 C1850 C 0.77319 0.65234 0.76037
 H1851 H 0.80353 0.68672 0.67351
 H1852 H 0.86985 0.65980 0.71263
 H1853 H 0.76782 0.62022 0.69324
 H1854 H 0.80762 0.61993 0.81120
 H1855 H 0.84975 0.68782 0.79198
 H1856 H 0.74471 0.64954 0.77384
 C1857 C 0.83029 0.79655 0.14733
 C1858 C 0.86420 0.81343 0.17085
 C1859 C 0.88691 0.77960 0.15766
 C1860 C 0.85332 0.76260 0.13454
 C1861 C 0.87631 0.76002 0.20065
 C1862 C 0.85267 0.79398 0.21386
 C1863 C 0.81856 0.77746 0.19039
 C1864 C 0.84195 0.74332 0.17748
 H1865 H 0.81257 0.81002 0.12270
 H1866 H 0.87511 0.84188 0.16874
 H1867 H 0.85353 0.74962 0.10172
 H1868 H 0.89527 0.74482 0.22289
 H1869 H 0.85300 0.80651 0.24681
 H1870 H 0.83320 0.71410 0.18025
 C1871 C 0.33017 0.29936 0.65084
 C1872 C 0.36429 0.31621 0.67388
 C1873 C 0.38684 0.28229 0.66064
 C1874 C 0.35297 0.26532 0.63803
 C1875 C 0.37650 0.26292 0.70382
 C1876 C 0.35305 0.29699 0.71713
 C1877 C 0.31869 0.28048 0.69411
 C1878 C 0.34191 0.24623 0.68115
 H1879 H 0.31241 0.31289 0.62627
 H1880 H 0.37518 0.34466 0.67142
 H1881 H 0.35292 0.25221 0.60529
 H1882 H 0.39580 0.24775 0.72569
 H1883 H 0.35370 0.30968 0.74999
 H1884 H 0.33313 0.21703 0.68416
 C1885 C 0.35196 0.69404 0.79516
 C1886 C 0.38202 0.72456 0.79394
 C1887 C 0.38893 0.71893 0.84324
 C1888 C 0.35958 0.68861 0.84455
 C1889 C 0.35973 0.74831 0.85398
 C1890 C 0.35184 0.75378 0.80465
 C1891 C 0.32203 0.72306 0.80608
 C1892 C 0.33019 0.71784 0.85563
 H1893 H 0.35111 0.67222 0.77002
 H1894 H 0.40387 0.72745 0.76863
 H1895 H 0.36279 0.66217 0.86213
 H1896 H 0.36290 0.77063 0.87845
 H1897 H 0.34886 0.78074 0.78789
 H1898 H 0.31042 0.71541 0.88323
 C1899 C 0.85482 0.20313 0.28672
 C1900 C 0.87854 0.23686 0.30050
 C1901 C 0.88836 0.21719 0.34372
 C1902 C 0.86558 0.18357 0.33000
 C1903 C 0.85457 0.23449 0.36605
 C1904 C 0.84400 0.25388 0.32287
 C1905 C 0.82051 0.21997 0.30941
 C1906 C 0.83146 0.20076 0.35272
 H1907 H 0.85550 0.19058 0.25378
 H1908 H 0.89790 0.25189 0.27867
 H1909 H 0.87629 0.15503 0.33237
 H1910 H 0.85440 0.24747 0.39887
 H1911 H 0.83557 0.28319 0.31990
 H1912 H 0.81330 0.18738 0.37693
 C1913 C 0.15594 0.24405 0.32045
 C1914 C 0.14533 0.26298 0.36380
 C1915 C 0.11182 0.28095 0.34145
 C1916 C 0.12170 0.26176 0.29803
 C1917 C 0.13509 0.31446 0.32855
 C1918 C 0.16886 0.29662 0.35134
 C1919 C 0.17989 0.27788 0.30782
 C1920 C 0.14587 0.29541 0.28507
 H1921 H 0.16410 0.21470 0.31709
 H1922 H 0.14512 0.24958 0.39641
 H1923 H 0.10206 0.24726 0.27600
 H1924 H 0.12464 0.34305 0.33136
 H1925 H 0.18695 0.30941 0.37605
 H1926 H 0.14546 0.30843 0.25236
 C1927 C 0.67325 0.78436 0.85586
 C1928 C 0.64298 0.81277 0.84493
 C1929 C 0.61448 0.78166 0.84403
 C1930 C 0.64454 0.75311 0.85466
 C1931 C 0.62103 0.77615 0.79471
 C1932 C 0.65026 0.80746 0.79549
 C1933 C 0.68104 0.77926 0.80628
 C1934 C 0.65205 0.74776 0.80528
 H1935 H 0.69325 0.78734 0.88321
 H1936 H 0.63902 0.83902 0.86262
 H1937 H 0.64217 0.73076 0.87926
 H1938 H 0.59902 0.77262 0.76963
 H1939 H 0.65019 0.82927 0.77027
 H1940 H 0.65560 0.72085 0.78862
 C1941 C 0.65062 0.25208 0.69621
 C1942 C 0.64208 0.24683 0.64700
 C1943 C 0.61253 0.21797 0.65825
 C1944 C 0.62010 0.22339 0.70742
 C1945 C 0.64134 0.18713 0.65646
 C1946 C 0.67107 0.21584 0.64490
 C1947 C 0.67989 0.22082 0.69430
 C1948 C 0.64961 0.19233 0.70572
 H1949 H 0.65427 0.27895 0.71292
 H1950 H 0.63899 0.26925 0.62259
 H1951 H 0.59859 0.22663 0.73308
 H1952 H 0.63737 0.16087 0.63879
 H1953 H 0.69047 0.21310 0.61698
 H1954 H 0.65031 0.17046 0.73084
 C1955 C 0.16907 0.70144 0.14616
 C1956 C 0.13538 0.68390 0.16937
 C1957 C 0.11211 0.71737 0.15618
 C1958 C 0.14547 0.73503 0.13336
 C1959 C 0.12231 0.73693 0.19928
 C1960 C 0.14645 0.70334 0.21254
 C1961 C 0.18033 0.72053 0.18939
 C1962 C 0.15640 0.75432 0.17643
 H1963 H 0.18708 0.68833 0.12162
 H1964 H 0.12484 0.65533 0.16697
 H1965 H 0.14503 0.74812 0.10058
 H1966 H 0.10298 0.75173 0.22137
 H1967 H 0.14614 0.69070 0.24545
 H1968 H 0.16461 0.78368 0.17938
   
