data_POSCAR
  _audit_creation_date              2014-09-24
  _audit_creation_method            'ToBaCCo'
  _symmetry_space_group_name_H-M    'P1'
  _symmetry_Int_Tables_number       1
  _symmetry_cell_setting            triclinic
  loop_
  _symmetry_equiv_pos_as_xyz
 x,y,z
_cell_length_a 55.5123
_cell_length_b 56.9113
_cell_length_c 58.4150
_cell_angle_alpha 92.406700
_cell_angle_beta 90.726200
_cell_angle_gamma 89.173400
loop_
  _atom_site_label
  _atom_site_type_symbol
  _atom_site_fract_x
  _atom_site_fract_y
  _atom_site_fract_z
C1 C 0.73352 0.63461 0.97794
 H2 H 0.74751 0.62830 0.96646
 C3 C 0.71243 0.64447 0.96893
 H4 H 0.71027 0.64531 0.95053
 C5 C 0.71876 0.64013 1.01567
 H6 H 0.72106 0.63814 1.03384
 C7 C 0.69736 0.64997 1.00740
 H8 H 0.68346 0.65556 1.01936
 N9 N 0.73588 0.63175 1.00088
 C10 C 0.80096 0.61842 1.04089
 H11 H 0.79907 0.59967 1.04252
 C12 C 0.82049 0.62996 1.05120
 H13 H 0.83364 0.61982 1.06060
 C14 C 0.78674 0.65389 1.02528
 H15 H 0.77366 0.66296 1.01483
 C16 C 0.80607 0.66619 1.03534
 H17 H 0.80758 0.68484 1.03282
 Zn18 Zn 0.76110 0.61233 1.01223
 N19 N 0.78484 0.63037 1.02791
 C20 C 0.79994 0.59618 0.98461
 N21 N 0.77568 0.59505 0.98735
 C22 C 0.76167 0.58240 0.97218
 C23 C 0.77201 0.57029 0.95336
 C24 C 0.81103 0.58406 0.96629
 C25 C 0.74251 0.60078 1.05441
 C26 C 0.73116 0.58724 1.07030
 C27 C 0.73221 0.55438 1.04286
 C28 C 0.74347 0.56871 1.02746
 N29 N 0.74784 0.59162 1.03324
 H30 H 0.81080 0.60661 0.99650
 H31 H 0.74238 0.58198 0.97453
 H32 H 0.76065 0.56033 0.94140
 H33 H 0.83035 0.58524 0.96431
 H34 H 0.74713 0.61877 1.05902
 H35 H 0.72828 0.59542 1.08708
 H36 H 0.72793 0.53679 1.03663
 H37 H 0.74812 0.56154 1.01068
 C38 C 0.82347 0.65410 1.04823
 C39 C 0.69365 0.65141 0.98369
 C40 C 0.72510 0.56355 1.06475
 C41 C 0.79701 0.57099 0.95036
 C42 C 0.73647 0.35986 0.52094
 H43 H 0.74957 0.36737 0.53285
 C44 C 0.71645 0.34856 0.52935
 H45 H 0.71428 0.34776 0.54770
 C46 C 0.72241 0.35337 0.48280
 H47 H 0.72437 0.35571 0.46472
 C48 C 0.70209 0.34203 0.49047
 H49 H 0.68875 0.33564 0.47812
 N50 N 0.73846 0.36312 0.49809
 C51 C 0.80125 0.38823 0.46276
 H52 H 0.79539 0.40635 0.46154
 C53 C 0.82312 0.38081 0.45333
 H54 H 0.83378 0.39329 0.44450
 C55 C 0.79430 0.35012 0.47597
 H56 H 0.78308 0.33844 0.48518
 C57 C 0.81622 0.34192 0.46681
 H58 H 0.82182 0.32386 0.46911
 Zn59 Zn 0.75998 0.38636 0.48838
 N60 N 0.78754 0.37304 0.47409
 C61 C 0.79357 0.40553 0.52073
 N62 N 0.76984 0.40486 0.51466
 C63 C 0.75279 0.41568 0.52810
 C64 C 0.75936 0.42775 0.54847
 C65 C 0.80091 0.41725 0.54106
 C66 C 0.73958 0.39524 0.44549
 C67 C 0.72533 0.40680 0.42950
 C68 C 0.72078 0.43940 0.45696
 C69 C 0.73508 0.42717 0.47246
 N70 N 0.74349 0.40514 0.46679
 H71 H 0.80685 0.39639 0.51020
 H72 H 0.73397 0.41441 0.52327
 H73 H 0.74547 0.43630 0.55880
 H74 H 0.81980 0.41686 0.54587
 H75 H 0.74712 0.37806 0.44105
 H76 H 0.72161 0.39807 0.41304
 H77 H 0.71396 0.45677 0.46193
 H78 H 0.73900 0.43522 0.48909
 C79 C 0.83115 0.35752 0.45570
 C80 C 0.69836 0.34055 0.51408
 C81 C 0.71527 0.42898 0.43533
 C82 C 0.78370 0.42843 0.55536
 C83 C 0.22709 -0.14870 0.02319
 H84 H 0.24169 -0.14248 0.03415
 C85 C 0.20679 -0.15847 0.03282
 H86 H 0.20588 -0.15962 0.05125
 C87 C 0.20985 -0.15342 -0.01403
 H88 H 0.21099 -0.15094 -0.03224
 C89 C 0.18918 -0.16309 -0.00511
 H90 H 0.17458 -0.16830 -0.01662
 N91 N 0.22801 -0.14596 0.00019
 C92 C 0.29547 -0.13611 -0.03545
 H93 H 0.29438 -0.11719 -0.03654
 C94 C 0.31480 -0.14847 -0.04521
 H95 H 0.32830 -0.13887 -0.05405
 C96 C 0.27856 -0.17137 -0.02318
 H97 H 0.26431 -0.18010 -0.01455
 C98 C 0.29779 -0.18454 -0.03272
 H99 H 0.29833 -0.20343 -0.03119
 Zn100 Zn 0.25268 -0.12806 -0.01230
 N101 N 0.27786 -0.14756 -0.02463
 C102 C 0.28995 -0.10879 0.01604
 N103 N 0.26593 -0.10743 0.01118
 C104 C 0.25136 -0.09212 0.02328
 C105 C 0.26100 -0.07677 0.04024
 C106 C 0.30032 -0.09374 0.03270
 C107 C 0.24506 -0.11721 -0.05848
 C108 C 0.23590 -0.10511 -0.07698
 C109 C 0.21271 -0.08051 -0.05062
 C110 C 0.22260 -0.09305 -0.03257
 N111 N 0.23892 -0.11069 -0.03668
 H112 H 0.30125 -0.12171 0.00726
 H113 H 0.23217 -0.09203 0.02011
 H114 H 0.24917 -0.06450 0.04945
 H115 H 0.31946 -0.09525 0.03628
 H116 H 0.25670 -0.13227 -0.06179
 H117 H 0.24082 -0.11196 -0.09384
 H118 H 0.20084 -0.06591 -0.04604
 H119 H 0.21720 -0.08850 -0.01528
 C120 C 0.31634 -0.17300 -0.04378
 C121 C 0.18723 -0.16519 0.01866
 C122 C 0.21954 -0.08601 -0.07356
 C123 C 0.28587 -0.07728 0.04491
 C124 C 0.23688 0.13210 0.48428
 H125 H 0.25018 0.12411 0.47295
 C126 C 0.21679 0.14353 0.47498
 H127 H 0.21468 0.14392 0.45655
 C128 C 0.22268 0.14015 0.52189
 H129 H 0.22476 0.13848 0.54013
 C130 C 0.20227 0.15158 0.51334
 H131 H 0.18888 0.15868 0.52515
 N132 N 0.23893 0.12973 0.50732
 C133 C 0.30021 0.11032 0.55018
 H134 H 0.29698 0.09163 0.55047
 C135 C 0.31878 0.12019 0.56346
 H136 H 0.32991 0.10892 0.57384
 C137 C 0.28982 0.14750 0.53578
 H138 H 0.27841 0.15796 0.52490
 C139 C 0.30845 0.15812 0.54868
 H140 H 0.31122 0.17685 0.54782
 Zn141 Zn 0.26188 0.10821 0.51939
 N142 N 0.28621 0.12397 0.53670
 C143 C 0.30071 0.09046 0.49255
 N144 N 0.27637 0.09013 0.49492
 C145 C 0.26223 0.07788 0.47955
 C146 C 0.27252 0.06526 0.46102
 C147 C 0.31174 0.07808 0.47430
 C148 C 0.24083 0.09801 0.56086
 C149 C 0.22787 0.08546 0.57645
 C150 C 0.22540 0.05320 0.54837
 C151 C 0.23856 0.06636 0.53331
 N152 N 0.24560 0.08855 0.53959
 H153 H 0.31168 0.10064 0.50459
 H154 H 0.24287 0.07826 0.48145
 H155 H 0.26095 0.05553 0.44908
 H156 H 0.33109 0.07898 0.47253
 H157 H 0.24698 0.11548 0.56570
 H158 H 0.22376 0.09364 0.59304
 H159 H 0.21977 0.03565 0.54304
 H160 H 0.24285 0.05884 0.51659
 C161 C 0.32314 0.14437 0.56280
 C162 C 0.19868 0.15254 0.48957
 C163 C 0.21972 0.06283 0.57020
 C164 C 0.29761 0.06530 0.45818
 C165 C 0.18033 0.45100 0.23430
 H166 H 0.17364 0.43865 0.24615
 C167 C 0.19228 0.44262 0.21465
 H168 H 0.19475 0.42384 0.21168
 C169 C 0.18501 0.49032 0.22360
 H170 H 0.18180 0.50888 0.22688
 C171 C 0.19691 0.48271 0.20367
 H172 H 0.20237 0.49563 0.19175
 N173 N 0.17609 0.47445 0.23794
 C174 C 0.15571 0.51489 0.29934
 H175 H 0.13644 0.51493 0.29629
 C176 C 0.16520 0.52750 0.31814
 H177 H 0.15307 0.53761 0.32923
 C178 C 0.19472 0.50181 0.28814
 H179 H 0.20599 0.49154 0.27640
 C180 C 0.20505 0.51408 0.30702
 H181 H 0.22435 0.51308 0.30980
 Zn182 Zn 0.15443 0.48502 0.26119
 N183 N 0.17041 0.50224 0.28492
 C184 C 0.14336 0.45496 0.29660
 N185 N 0.13952 0.45868 0.27397
 C186 C 0.12649 0.44329 0.26051
 C187 C 0.11659 0.42338 0.26981
 C188 C 0.13394 0.43528 0.30652
 C189 C 0.13919 0.52801 0.24497
 C190 C 0.12385 0.54479 0.23568
 C191 C 0.09225 0.51604 0.23379
 C192 C 0.10826 0.49976 0.24323
 N193 N 0.13138 0.50589 0.24832
 H194 H 0.15406 0.46705 0.30702
 H195 H 0.12422 0.44619 0.24243
 H196 H 0.10654 0.41115 0.25882
 H197 H 0.13713 0.43278 0.32459
 H198 H 0.15735 0.53282 0.24991
 H199 H 0.13045 0.56235 0.23353
 H200 H 0.07405 0.51073 0.22945
 H201 H 0.10212 0.48232 0.24641
 C202 C 0.19013 0.52689 0.32249
 C203 C 0.19989 0.45852 0.19855
 C204 C 0.10006 0.53888 0.22977
 C205 C 0.12045 0.41912 0.29310
 C206 C -0.14977 0.02124 0.22215
 H207 H -0.15565 0.02310 0.23968
 C208 C -0.16285 0.03237 0.20493
 H209 H -0.17828 0.04297 0.21013
 C210 C -0.12123 0.00686 0.19521
 H211 H -0.10454 -0.00239 0.19146
 C212 C -0.13384 0.01730 0.17747
 H213 H -0.12696 0.01412 0.16040
 N214 N -0.12941 0.00867 0.21703
 C215 C -0.12734 -0.04282 0.26430
 H216 H -0.11738 -0.05325 0.25171
 C217 C -0.13756 -0.05392 0.28258
 H218 H -0.13570 -0.07283 0.28333
 C219 C -0.14178 -0.00577 0.27851
 H220 H -0.14279 0.01311 0.27721
 C221 C -0.15180 -0.01612 0.29746
 H222 H -0.16035 -0.00493 0.31050
 Zn223 Zn -0.11001 -0.00463 0.24044
 N224 N -0.12896 -0.01905 0.26288
 C225 C -0.09012 0.02402 0.27729
 N226 N -0.09145 0.01999 0.25419
 C227 C -0.07999 0.03407 0.23971
 C228 C -0.06739 0.05366 0.24825
 C229 C -0.07793 0.04358 0.28657
 C230 C -0.09745 -0.04340 0.21097
 C231 C -0.08231 -0.06057 0.20094
 C232 C -0.04983 -0.04621 0.22534
 C233 C -0.06546 -0.02885 0.23444
 N234 N -0.08878 -0.02774 0.22714
 H235 H -0.09868 0.01228 0.28861
 H236 H -0.08099 0.03028 0.22143
 H237 H -0.05845 0.06461 0.23636
 H238 H -0.07794 0.04693 0.30494
 H239 H -0.11617 -0.04240 0.20570
 H240 H -0.08959 -0.07214 0.18750
 H241 H -0.03159 -0.04713 0.23203
 H242 H -0.05907 -0.01654 0.24767
 C243 C -0.14909 -0.04049 0.30007
 C244 C -0.15499 0.03076 0.18193
 C245 C -0.05810 -0.06238 0.20820
 C246 C -0.06664 0.05895 0.27197
 C247 C 0.33538 0.53318 0.73284
 H248 H 0.33806 0.54168 0.74957
 C249 C 0.32172 0.54445 0.71613
 H250 H 0.31387 0.56163 0.72015
 C251 C 0.34431 0.50150 0.70654
 H252 H 0.35373 0.48518 0.70250
 C253 C 0.33076 0.51202 0.68947
 H254 H 0.32957 0.50336 0.67263
 N255 N 0.34690 0.51243 0.72756
 C256 C 0.37416 0.47739 0.78759
 H257 H 0.39258 0.47532 0.78194
 C258 C 0.36773 0.46967 0.80889
 H259 H 0.38122 0.46131 0.81948
 C260 C 0.33438 0.49142 0.78072
 H261 H 0.32168 0.50034 0.76977
 C262 C 0.32707 0.48376 0.80201
 H263 H 0.30867 0.48679 0.80743
 Zn264 Zn 0.37079 0.50111 0.74785
 N265 N 0.35774 0.48854 0.77427
 C266 C 0.39084 0.53365 0.77988
 N267 N 0.39045 0.52692 0.75726
 C268 C 0.40227 0.53942 0.74164
 C269 C 0.41582 0.55903 0.74875
 C270 C 0.40388 0.55316 0.78766
 C271 C 0.37723 0.45560 0.73002
 C272 C 0.38805 0.43678 0.71785
 C273 C 0.42251 0.46111 0.71184
 C274 C 0.41107 0.47947 0.72433
 N275 N 0.38861 0.47655 0.73270
 H276 H 0.38055 0.52430 0.79202
 H277 H 0.40103 0.53428 0.72363
 H278 H 0.42546 0.56849 0.73612
 H279 H 0.40334 0.55836 0.80569
 H280 H 0.35946 0.45368 0.73704
 H281 H 0.37861 0.42028 0.71599
 H282 H 0.44002 0.46404 0.70463
 H283 H 0.41999 0.49611 0.72689
 C284 C 0.34409 0.47329 0.81657
 C285 C 0.32005 0.53420 0.69387
 C286 C 0.41083 0.43948 0.70820
 C287 C 0.41680 0.56609 0.77211
 C288 C 0.65997 0.97021 0.72764
 H289 H 0.66374 0.96379 0.74450
 C290 C 0.67186 0.96014 0.70850
 H291 H 0.68472 0.94593 0.71083
 C292 C 0.63734 0.99527 0.70392
 H293 H 0.62310 1.00809 0.70179
 C294 C 0.64897 0.98604 0.68453
 H295 H 0.64417 0.99286 0.66803
 N296 N 0.64301 0.98745 0.72502
 C297 C 0.62981 1.01820 0.79367
 H298 H 0.61035 1.01762 0.79251
 C299 C 0.64086 1.02669 0.81378
 H300 H 0.62934 1.03323 0.82749
 C301 C 0.66760 1.01144 0.77613
 H302 H 0.67786 1.00537 0.76137
 C303 C 0.67953 1.02032 0.79590
 H304 H 0.69901 1.02031 0.79603
 Zn305 Zn 0.62438 0.99867 0.75047
 N306 N 0.64316 1.01032 0.77556
 C307 C 0.61033 0.96396 0.78058
 N308 N 0.60577 0.97327 0.75988
 C309 C 0.58847 0.96425 0.74548
 C310 C 0.57437 0.94559 0.75210
 C311 C 0.59675 0.94533 0.78783
 C312 C 0.61502 1.04208 0.73179
 C313 C 0.60134 1.06057 0.72336
 C314 C 0.56582 1.04338 0.73874
 C315 C 0.58012 1.02457 0.74592
 N316 N 0.60418 1.02402 0.74186
 H317 H 0.62462 0.97084 0.79151
 H318 H 0.58553 0.97170 0.72892
 H319 H 0.56064 0.93863 0.74047
 H320 H 0.60036 0.93854 0.80459
 H321 H 0.63430 1.04150 0.72931
 H322 H 0.61060 1.07346 0.71381
 H323 H 0.54686 1.04350 0.74270
 H324 H 0.57199 1.01054 0.75490
 C325 C 0.66619 1.02776 0.81544
 C326 C 0.66612 0.96784 0.68650
 C327 C 0.57621 1.06155 0.72663
 C328 C 0.57842 0.93595 0.77357
 C329 C -0.00624 0.23101 -0.15555
 H330 H -0.00739 0.24534 -0.16706
 C331 C 0.00156 0.20874 -0.16384
 H332 H 0.00638 0.20620 -0.18168
 C333 C -0.01183 0.21643 -0.11865
 H334 H -0.01766 0.21926 -0.10117
 C335 C -0.00422 0.19407 -0.12615
 H336 H -0.00347 0.18019 -0.11402
 N337 N -0.01241 0.23450 -0.13316
 C338 C -0.05547 0.29527 -0.14059
 H339 H -0.06789 0.28948 -0.12797
 C340 C -0.06214 0.31378 -0.15435
 H341 H -0.07965 0.32204 -0.15187
 C342 C -0.01687 0.29292 -0.15741
 H343 H 0.00109 0.28533 -0.15786
 C344 C -0.02294 0.31118 -0.17179
 H345 H -0.00972 0.31688 -0.18374
 Zn346 Zn -0.02340 0.26373 -0.11981
 N347 N -0.03302 0.28550 -0.14203
 C348 C 0.00730 0.30006 -0.10257
 N349 N 0.00134 0.27709 -0.10082
 C350 C 0.01241 0.26347 -0.08513
 C351 C 0.03040 0.27269 -0.07068
 C352 C 0.02519 0.31004 -0.08835
 C353 C -0.06634 0.24160 -0.11028
 C354 C -0.08406 0.23273 -0.09646
 C355 C -0.06877 0.25705 -0.06487
 C356 C -0.05108 0.26510 -0.07930
 N357 N -0.04986 0.25687 -0.10137
 H358 H -0.00202 0.31082 -0.11473
 H359 H 0.00731 0.24542 -0.08366
 H360 H 0.03923 0.26134 -0.05864
 H361 H 0.02943 0.32842 -0.08979
 H362 H -0.06483 0.23524 -0.12792
 H363 H -0.09511 0.21921 -0.10445
 H364 H -0.06914 0.26494 -0.04777
 H365 H -0.03803 0.27766 -0.07270
 C366 C -0.04568 0.32230 -0.17001
 C367 C 0.00263 0.18993 -0.14900
 C368 C -0.08537 0.23968 -0.07284
 C369 C 0.03700 0.29628 -0.07213
 C370 C 0.45055 0.23227 0.15653
 H371 H 0.44635 0.25088 0.15825
 C372 C 0.43581 0.21607 0.16677
 H373 H 0.42052 0.22233 0.17672
 C374 C 0.47461 0.20136 0.14020
 H375 H 0.48880 0.19545 0.12884
 C376 C 0.46059 0.18464 0.15035
 H377 H 0.46454 0.16615 0.14691
 N378 N 0.46939 0.22470 0.14334
 C379 C 0.51270 0.28656 0.13152
 H380 H 0.51356 0.28425 0.11307
 C381 C 0.52391 0.30567 0.14258
 H382 H 0.53365 0.31785 0.13251
 C383 C 0.49908 0.27316 0.16692
 H384 H 0.48933 0.26041 0.17625
 C385 C 0.51018 0.29210 0.17877
 H386 H 0.50869 0.29394 0.19722
 Zn387 Zn 0.48504 0.24703 0.12562
 N388 N 0.50025 0.27101 0.14366
 C389 C 0.45503 0.28373 0.10908
 N390 N 0.46067 0.26039 0.10717
 C391 C 0.44781 0.24545 0.09314
 C392 C 0.42840 0.25383 0.08028
 C393 C 0.43577 0.29286 0.09650
 C394 C 0.50881 0.23524 0.08394
 C395 C 0.52621 0.22410 0.07008
 C396 C 0.54365 0.20701 0.10371
 C397 C 0.52646 0.21919 0.11700
 N398 N 0.50896 0.23225 0.10690
 H399 H 0.46502 0.29522 0.12079
 H400 H 0.45251 0.22692 0.09219
 H401 H 0.41842 0.24167 0.06916
 H402 H 0.43120 0.31137 0.09864
 H403 H 0.49533 0.24647 0.07634
 H404 H 0.52590 0.22729 0.05196
 H405 H 0.55633 0.19561 0.11222
 H406 H 0.52653 0.21757 0.13539
 C407 C 0.52248 0.30885 0.16648
 C408 C 0.44063 0.19189 0.16345
 C409 C 0.54371 0.20921 0.07978
 C410 C 0.42206 0.27781 0.08200
 C411 C 0.97512 0.73787 0.65585
 H412 H 0.98034 0.75349 0.66569
 C413 C 0.97041 0.71716 0.66719
 H414 H 0.97177 0.71704 0.68570
 C415 C 0.96840 0.71814 0.61987
 H416 H 0.96861 0.71819 0.60141
 C417 C 0.96391 0.69724 0.63037
 H418 H 0.95996 0.68161 0.61985
 N419 N 0.97401 0.73795 0.63252
 C420 C 1.01903 0.79630 0.61895
 H421 H 1.02516 0.78792 0.60312
 C422 C 1.03015 0.81680 0.62702
 H423 H 1.04508 0.82359 0.61764
 C424 C 0.99104 0.79899 0.64928
 H425 H 0.97498 0.79270 0.65715
 C426 C 1.00194 0.81956 0.65817
 H427 H 0.99452 0.82873 0.67315
 Zn428 Zn 0.98323 0.76286 0.61385
 N429 N 0.99970 0.78782 0.62992
 C430 C 0.95121 0.79921 0.60149
 N431 N 0.95582 0.77573 0.59850
 C432 C 0.94118 0.76187 0.58500
 C433 C 0.92106 0.77151 0.57403
 C434 C 0.93123 0.80953 0.59097
 C435 C 1.02510 0.73923 0.60285
 C436 C 1.04244 0.72739 0.58963
 C437 C 1.01809 0.73423 0.55587
 C438 C 1.00137 0.74651 0.56976
 N439 N 1.00514 0.74858 0.59282
 H440 H 0.96296 0.81011 0.61210
 H441 H 0.94515 0.74336 0.58245
 H442 H 0.90992 0.76021 0.56309
 H443 H 0.92774 0.82815 0.59402
 H444 H 1.02745 0.74097 0.62125
 H445 H 1.05818 0.71993 0.59790
 H446 H 1.01491 0.73231 0.53756
 H447 H 0.98532 0.75402 0.56218
 C448 C 1.02138 0.82888 0.64659
 C449 C 0.96522 0.69645 0.65426
 C450 C 1.03892 0.72464 0.56590
 C451 C 0.91581 0.79566 0.57701
 C452 C 0.52413 0.72791 0.34675
 H453 H 0.53614 0.73948 0.35632
 C454 C 0.53379 0.70914 0.33352
 H455 H 0.55317 0.70725 0.33246
 C456 C 0.48449 0.71582 0.33724
 H457 H 0.46526 0.71818 0.33938
 C458 C 0.49337 0.69650 0.32425
 H459 H 0.48069 0.68412 0.31661
 N460 N 0.49985 0.73071 0.34863
 C461 C 0.45322 0.78853 0.37266
 H462 H 0.45555 0.78575 0.39077
 C463 C 0.43727 0.80583 0.36545
 H464 H 0.42797 0.81647 0.37843
 C465 C 0.46387 0.77838 0.33436
 H466 H 0.47428 0.76747 0.32241
 C467 C 0.44874 0.79628 0.32635
 H468 H 0.44737 0.79853 0.30807
 Zn469 Zn 0.48591 0.75212 0.37052
 N470 N 0.46565 0.77484 0.35719
 C471 C 0.50892 0.77082 0.41084
 N472 N 0.50958 0.76928 0.38754
 C473 C 0.52562 0.78185 0.37579
 C474 C 0.54252 0.79593 0.38750
 C475 C 0.52514 0.78510 0.42321
 C476 C 0.44291 0.73475 0.38826
 C477 C 0.42884 0.72154 0.40236
 C478 C 0.46523 0.70568 0.41919
 C479 C 0.47866 0.71912 0.40459
 N480 N 0.46735 0.73382 0.38999
 H481 H 0.49536 0.76161 0.41988
 H482 H 0.52512 0.78110 0.35725
 H483 H 0.55521 0.80584 0.37796
 H484 H 0.52430 0.78638 0.44174
 H485 H 0.43421 0.74550 0.37570
 H486 H 0.40942 0.72246 0.40052
 H487 H 0.47454 0.69467 0.43121
 H488 H 0.49813 0.71816 0.40514
 C489 C 0.43470 0.81011 0.34196
 C490 C 0.51839 0.69257 0.32269
 C491 C 0.43994 0.70703 0.41836
 C492 C 0.54221 0.79776 0.41149
 C493 C 0.33843 -0.00283 0.21708
 C494 C 0.35214 0.00677 0.23535
 C495 C 0.36553 0.02704 0.23237
 C496 C 0.36534 0.03779 0.21120
 C497 C 0.35114 0.02833 0.19307
 C498 C 0.33768 0.00789 0.19584
 C499 C 0.35283 -0.00458 0.25754
 C500 C 0.36340 -0.02693 0.25935
 C501 C 0.36499 -0.03752 0.28065
 C502 C 0.35496 -0.02560 0.29999
 C503 C 0.34367 -0.00344 0.29823
 C504 C 0.34314 0.00711 0.27693
 H505 H 0.32856 -0.01884 0.21941
 H506 H 0.37637 0.03426 0.24646
 H507 H 0.37054 -0.03590 0.24413
 H508 H 0.33511 0.02445 0.27533
 H509 H 0.35096 0.03665 0.17671
 H510 H 0.35591 -0.03353 0.31649
 C511 C 0.13422 1.01135 0.73369
 C512 C 0.11995 1.00120 0.75011
 C513 C 0.10908 0.97952 0.74502
 C514 C 0.11224 0.96791 0.72358
 C515 C 0.12702 0.97804 0.70738
 C516 C 0.13827 0.99971 0.71234
 C517 C 0.11701 1.01282 0.77296
 C518 C 0.10741 1.03569 0.77531
 C519 C 0.10389 1.04624 0.79717
 C520 C 0.11096 1.03415 0.81668
 C521 C 0.12147 1.01158 0.81451
 C522 C 0.12387 1.00085 0.79254
 H523 H 0.14244 1.02820 0.73775
 H524 H 0.09769 0.97200 0.75766
 H525 H 0.10194 1.04494 0.76021
 H526 H 0.13136 0.98320 0.79056
 H527 H 0.13031 0.96869 0.69117
 H528 H 0.10892 1.04270 0.83349
 C529 C 0.62256 0.51124 0.21676
 C530 C 0.61113 0.49789 0.23294
 C531 C 0.59828 0.47780 0.22566
 C532 C 0.59642 0.47133 0.20220
 C533 C 0.60837 0.48474 0.18624
 C534 C 0.62149 0.50469 0.19338
 C535 C 0.61301 0.50513 0.25744
 C536 C 0.60563 0.52784 0.26488
 C537 C 0.60892 0.53568 0.28783
 C538 C 0.62031 0.52047 0.30313
 C539 C 0.62851 0.49792 0.29577
 C540 C 0.62416 0.49018 0.27295
 H541 H 0.63289 0.52643 0.22255
 H542 H 0.58912 0.46775 0.23819
 H543 H 0.59780 0.53950 0.25255
 H544 H 0.63021 0.47284 0.26695
 H545 H 0.60731 0.47973 0.16816
 H546 H 0.62339 0.52640 0.32074
 C547 C 0.86612 0.50548 0.71053
 C548 C 0.87144 0.51692 0.73173
 C549 C 0.88098 0.53970 0.73219
 C550 C 0.88577 0.55064 0.71168
 C551 C 0.88037 0.53893 0.69066
 C552 C 0.87024 0.51646 0.68988
 C553 C 0.86668 0.50503 0.75329
 C554 C 0.87343 0.48130 0.75556
 C555 C 0.86792 0.46970 0.77548
 C556 C 0.85593 0.48194 0.79333
 C557 C 0.84958 0.50575 0.79162
 C558 C 0.85487 0.51718 0.77147
 H559 H 0.85850 0.48804 0.71012
 H560 H 0.88526 0.54868 0.74843
 H561 H 0.88284 0.47180 0.74183
 H562 H 0.84976 0.53549 0.76991
 H563 H 0.88334 0.54776 0.67488
 H564 H 0.85166 0.47284 0.80868
 C565 C 0.21151 0.37636 -0.01265
 C566 C 0.23169 0.38245 0.00095
 C567 C 0.22876 0.38718 0.02457
 C568 C 0.20592 0.38616 0.03455
 C569 C 0.18589 0.38055 0.02051
 C570 C 0.18852 0.37537 -0.00305
 C571 C 0.25579 0.38367 -0.00961
 C572 C 0.25830 0.39372 -0.03100
 C573 C 0.28096 0.39496 -0.04120
 C574 C 0.30131 0.38610 -0.02973
 C575 C 0.29917 0.37598 -0.00836
 C576 C 0.27633 0.37479 0.00156
 H577 H 0.21385 0.37171 -0.03066
 H578 H 0.24430 0.39161 0.03518
 H579 H 0.24266 0.40109 -0.03952
 H580 H 0.27456 0.36690 0.01800
 H581 H 0.16809 0.38057 0.02789
 H582 H 0.31879 0.38648 -0.03774
 C583 C 0.71469 0.11827 1.01797
 C584 C 0.73172 0.10723 1.00356
 C585 C 0.72415 0.09364 0.98434
 C586 C 0.69949 0.09072 0.97951
 C587 C 0.68253 0.10168 0.99435
 C588 C 0.68989 0.11577 1.01351
 C589 C 0.75752 0.11115 1.00792
 C590 C 0.76920 0.10115 1.02663
 C591 C 0.79376 0.10532 1.03112
 C592 C 0.80625 0.12007 1.01670
 C593 C 0.79468 0.13018 0.99786
 C594 C 0.77025 0.12548 0.99359
 H595 H 0.72098 0.12956 1.03213
 H596 H 0.73756 0.08524 0.97330
 H597 H 0.75920 0.08971 1.03729
 H598 H 0.76086 0.13346 0.97944
 H599 H 0.66353 0.09951 0.99071
 H600 H 0.82510 0.12361 1.02004
 C601 C 0.21836 0.64409 0.51721
 C602 C 0.23620 0.62932 0.50748
 C603 C 0.23072 0.61460 0.48839
 C604 C 0.20742 0.61458 0.47891
 C605 C 0.18985 0.63003 0.48826
 C606 C 0.19501 0.64491 0.50752
 C607 C 0.26104 0.63024 0.51636
 C608 C 0.26833 0.61667 0.53473
 C609 C 0.29249 0.61669 0.54221
 C610 C 0.30914 0.63071 0.53127
 C611 C 0.30183 0.64464 0.51311
 C612 C 0.27771 0.64424 0.50571
 H613 H 0.22292 0.65498 0.53224
 H614 H 0.24456 0.60302 0.48111
 H615 H 0.25537 0.60563 0.54270
 H616 H 0.27194 0.65450 0.49136
 H617 H 0.17232 0.63075 0.47999
 H618 H 0.32772 0.63113 0.53716
 C619 C 0.71188 0.88689 0.47792
 C620 C 0.72754 0.90020 0.49219
 C621 C 0.71980 0.90846 0.51393
 C622 C 0.69660 0.90337 0.52148
 C623 C 0.68170 0.88900 0.50742
 C624 C 0.68890 0.88096 0.48545
 C625 C 0.75227 0.90475 0.48457
 C626 C 0.75627 0.91430 0.46318
 C627 C 0.77984 0.91736 0.45537
 C628 C 0.79939 0.91051 0.46928
 C629 C 0.79563 0.90042 0.49045
 C630 C 0.77198 0.89801 0.49814
 H631 H 0.71783 0.88098 0.46102
 H632 H 0.73163 0.91937 0.52459
 H633 H 0.74098 0.91893 0.45249
 H634 H 0.76884 0.89026 0.51446
 H635 H 0.66441 0.88389 0.51383
 H636 H 0.81763 0.91253 0.46339
 C637 C 0.01295 0.20854 0.36549
 C638 C 0.02471 0.22925 0.37277
 C639 C 0.04764 0.22785 0.38308
 C640 C 0.05838 0.20585 0.38685
 C641 C 0.04650 0.18527 0.37933
 C642 C 0.02390 0.18641 0.36831
 C643 C 0.01264 0.25229 0.37002
 C644 C -0.01036 0.25654 0.37920
 C645 C -0.02200 0.27837 0.37682
 C646 C -0.01075 0.29565 0.36443
 C647 C 0.01205 0.29153 0.35479
 C648 C 0.02386 0.26990 0.35803
 H649 H -0.00477 0.20973 0.35759
 H650 H 0.05667 0.24378 0.38898
 H651 H -0.01884 0.24309 0.38878
 H652 H 0.04141 0.26643 0.35061
 H653 H 0.05524 0.16837 0.38163
 H654 H -0.01979 0.31244 0.36231
 C655 C 1.03192 0.70046 0.14254
 C656 C 1.01619 0.71786 0.13438
 C657 C 0.99224 0.71201 0.12880
 C658 C 0.98392 0.68912 0.13132
 C659 C 0.99987 0.67198 0.13951
 C660 C 1.02383 0.67747 0.14536
 C661 C 1.02440 0.74231 0.13199
 C662 C 1.04631 0.74687 0.12140
 C663 C 1.05313 0.77010 0.11782
 C664 C 1.03790 0.78883 0.12512
 C665 C 1.01622 0.78461 0.13636
 C666 C 1.00980 0.76123 0.13980
 H667 H 1.05021 0.70506 0.14738
 H668 H 0.98003 0.72538 0.12256
 H669 H 1.05763 0.73236 0.11521
 H670 H 0.99350 0.75759 0.14892
 H671 H 0.99373 0.65411 0.14088
 H672 H 1.04304 0.80669 0.12203
 C673 C 0.52524 0.23085 0.64142
 C674 C 0.51319 0.24778 0.62873
 C675 C 0.49153 0.24219 0.61740
 C676 C 0.48227 0.21938 0.61804
 C677 C 0.49507 0.20224 0.63016
 C678 C 0.51659 0.20778 0.64216
 C679 C 0.52410 0.27101 0.62658
 C680 C 0.54665 0.27256 0.61626
 C681 C 0.55751 0.29442 0.61435
 C682 C 0.54607 0.31476 0.62351
 C683 C 0.52386 0.31336 0.63464
 C684 C 0.51268 0.29141 0.63562
 H685 H 0.54137 0.23601 0.65081
 H686 H 0.48210 0.25552 0.60790
 H687 H 0.55556 0.25678 0.60935
 H688 H 0.49568 0.28997 0.64433
 H689 H 0.48851 0.18442 0.62955
 H690 H 0.55468 0.33162 0.62228
 C691 C 0.50365 0.71192 0.86604
 C692 C 0.51727 0.73151 0.87321
 C693 C 0.54030 0.72822 0.88279
 C694 C 0.54956 0.70553 0.88581
 C695 C 0.53585 0.68603 0.87858
 C696 C 0.51302 0.68904 0.86833
 C697 C 0.50778 0.75560 0.87065
 C698 C 0.48681 0.76329 0.88206
 C699 C 0.47950 0.78702 0.88179
 C700 C 0.49281 0.80271 0.86911
 C701 C 0.51365 0.79512 0.85743
 C702 C 0.52100 0.77151 0.85835
 H703 H 0.48593 0.71454 0.85850
 H704 H 0.55076 0.74336 0.88847
 H705 H 0.47711 0.75116 0.89224
 H706 H 0.53718 0.76543 0.84960
 H707 H 0.54336 0.66850 0.88029
 H708 H 0.48736 0.82106 0.86899
 C709 C 0.42432 -0.15830 0.31573
 C710 C 0.41000 -0.13860 0.31044
 C711 C 0.38917 -0.13308 0.32337
 C712 C 0.38296 -0.14724 0.34129
 C713 C 0.39776 -0.16612 0.34708
 C714 C 0.41889 -0.17182 0.33469
 C715 C 0.37526 -0.11305 0.31872
 C716 C 0.38249 -0.09780 0.30198
 C717 C 0.40341 -0.10313 0.28912
 C718 C 0.41678 -0.12373 0.29310
 C719 C 0.41096 -0.08739 0.27293
 C720 C 0.39834 -0.06627 0.27000
 C721 C 0.37759 -0.06065 0.28286
 C722 C 0.36953 -0.07688 0.29848
 H723 H 0.44064 -0.16184 0.30614
 H724 H 0.36694 -0.14337 0.35125
 H725 H 0.39222 -0.17656 0.36111
 H726 H 0.35933 -0.10886 0.32874
 H727 H 0.43289 -0.12775 0.28329
 H728 H 0.42702 -0.09110 0.26299
 H729 H 0.40528 -0.05406 0.25809
 H730 H 0.35333 -0.07315 0.30820
 C731 C 0.92449 0.34879 0.81034
 C732 C 0.91831 0.37051 0.80117
 C733 C 0.93641 0.38720 0.79782
 C734 C 0.96041 0.38172 0.80337
 C735 C 0.96630 0.36035 0.81313
 C736 C 0.94840 0.34377 0.81711
 C737 C 0.93013 0.40942 0.78983
 C738 C 0.90587 0.41547 0.78599
 C739 C 0.88777 0.39869 0.78920
 C740 C 0.89416 0.37618 0.79630
 C741 C 0.86347 0.40503 0.78619
 C742 C 0.85708 0.42805 0.78101
 C743 C 0.87489 0.44487 0.77814
 C744 C 0.89929 0.43838 0.78006
 H745 H 0.91051 0.33608 0.81280
 H746 H 0.97451 0.39432 0.80098
 H747 H 0.98480 0.35732 0.81842
 H748 H 0.94401 0.42230 0.78752
 H749 H 0.88024 0.36343 0.79900
 H750 H 0.84937 0.39243 0.78862
 H751 H 0.83819 0.43291 0.77965
 H752 H 0.91301 0.45150 0.77815
 C753 C 0.03115 1.16303 0.82886
 C754 C 0.04065 1.14042 0.82373
 C755 C 0.02979 1.12061 0.83294
 C756 C 0.00913 1.12360 0.84629
 C757 C -0.00018 1.14608 0.85130
 C758 C 0.01103 1.16606 0.84317
 C759 C 0.03998 1.09816 0.82906
 C760 C 0.06089 1.09517 0.81603
 C761 C 0.07132 1.11479 0.80608
 C762 C 0.06117 1.13732 0.81005
 C763 C 0.09192 1.11152 0.79255
 C764 C 0.10229 1.08911 0.78927
 C765 C 0.09245 1.06975 0.79975
 C766 C 0.07166 1.07286 0.81297
 H767 H 0.04000 1.17828 0.82255
 H768 H 0.00041 1.10858 0.85322
 H769 H -0.01603 1.14786 0.86188
 H770 H 0.03184 1.08306 0.83646
 H771 H 0.06941 1.15243 0.80278
 H772 H 0.10008 1.12630 0.78467
 H773 H 0.11832 1.08693 0.77896
 H774 H 0.06388 1.05783 0.82082
 C775 C 0.54912 0.65962 0.32054
 C776 C 0.55752 0.63788 0.31139
 C777 C 0.54472 0.62638 0.29322
 C778 C 0.52426 0.63732 0.28392
 C779 C 0.51619 0.65916 0.29291
 C780 C 0.52823 0.67042 0.31159
 C781 C 0.55243 0.60406 0.28486
 C782 C 0.57299 0.59326 0.29427
 C783 C 0.58624 0.60521 0.31187
 C784 C 0.57835 0.62734 0.32043
 C785 C 0.60715 0.59478 0.32075
 C786 C 0.61470 0.57252 0.31259
 C787 C 0.60125 0.55992 0.29569
 C788 C 0.58042 0.57063 0.28649
 H789 H 0.55847 0.66765 0.33518
 H790 H 0.51438 0.62891 0.26979
 H791 H 0.50039 0.66716 0.28527
 H792 H 0.54238 0.59505 0.27117
 H793 H 0.58834 0.63630 0.33420
 H794 H 0.61773 0.60387 0.33399
 H795 H 0.63125 0.56528 0.31952
 H796 H 0.56967 0.56122 0.27359
 C797 C 0.53153 0.35184 0.16831
 C798 C 0.54341 0.37145 0.17808
 C799 C 0.55748 0.36917 0.19822
 C800 C 0.55894 0.34731 0.20848
 C801 C 0.54709 0.32778 0.19854
 C802 C 0.53361 0.32977 0.17816
 C803 C 0.57011 0.38866 0.20749
 C804 C 0.56895 0.41030 0.19674
 C805 C 0.55451 0.41253 0.17680
 C806 C 0.54176 0.39316 0.16769
 C807 C 0.55331 0.43402 0.16601
 C808 C 0.56667 0.45308 0.17455
 C809 C 0.58152 0.45108 0.19407
 C810 C 0.58229 0.42966 0.20532
 H811 H 0.52080 0.35369 0.15283
 H812 H 0.56957 0.34522 0.22396
 H813 H 0.54904 0.31096 0.20642
 H814 H 0.58111 0.38688 0.22282
 H815 H 0.53089 0.39489 0.15227
 H816 H 0.54220 0.43606 0.15082
 H817 H 0.56535 0.46949 0.16586
 H818 H 0.59376 0.42788 0.22033
 C819 C 0.04109 0.85636 0.67563
 C820 C 0.05264 0.87773 0.68120
 C821 C 0.05405 0.89504 0.66457
 C822 C 0.04387 0.89080 0.64277
 C823 C 0.03288 0.86940 0.63725
 C824 C 0.03156 0.85199 0.65350
 C825 C 0.06593 0.91618 0.66982
 C826 C 0.07675 0.92019 0.69140
 C827 C 0.07542 0.90295 0.70806
 C828 C 0.06326 0.88187 0.70291
 C829 C 0.08639 0.90707 0.72958
 C830 C 0.09852 0.92806 0.73454
 C831 C 0.09991 0.94534 0.71810
 C832 C 0.08896 0.94121 0.69652
 H833 H 0.04023 0.84287 0.68814
 H834 H 0.04476 0.90387 0.62985
 H835 H 0.02550 0.86633 0.62015
 H836 H 0.06699 0.92939 0.65703
 H837 H 0.06229 0.86862 0.71567
 H838 H 0.08564 0.89404 0.74255
 H839 H 0.10702 0.93070 0.75122
 H840 H 0.08961 0.95454 0.68382
 C841 C 0.94435 0.67023 0.68113
 C842 C 0.93876 0.64737 0.68755
 C843 C 0.95177 0.62785 0.67793
 C844 C 0.97075 0.63147 0.66301
 C845 C 0.97587 0.65408 0.65645
 C846 C 0.96232 0.67353 0.66486
 C847 C 0.94495 0.60494 0.68250
 C848 C 0.92500 0.60116 0.69622
 C849 C 0.91259 0.62053 0.70675
 C850 C 0.91966 0.64356 0.70247
 C851 C 0.89277 0.61648 0.72069
 C852 C 0.88466 0.59355 0.72324
 C853 C 0.89617 0.57442 0.71179
 C854 C 0.91670 0.57830 0.69880
 H855 H 0.93379 0.68520 0.68758
 H856 H 0.98101 0.61672 0.65567
 H857 H 0.98994 0.65636 0.64408
 H858 H 0.95458 0.59004 0.67460
 H859 H 0.90975 0.65845 0.71003
 H860 H 0.88312 0.63105 0.72906
 H861 H 0.86879 0.59084 0.73334
 H862 H 0.92575 0.56350 0.69012
 C863 C 0.43311 0.15358 0.18157
 C864 C 0.41763 0.13538 0.18694
 C865 C 0.39262 0.13768 0.18254
 C866 C 0.38345 0.15854 0.17361
 C867 C 0.39899 0.17659 0.16834
 C868 C 0.42398 0.17409 0.17184
 C869 C 0.37728 0.11897 0.18671
 C870 C 0.38664 0.09803 0.19534
 C871 C 0.41156 0.09607 0.20043
 C872 C 0.42689 0.11471 0.19616
 C873 C 0.42083 0.07535 0.20951
 C874 C 0.40563 0.05662 0.21327
 C875 C 0.38098 0.05813 0.20776
 C876 C 0.37154 0.07892 0.19883
 H877 H 0.45234 0.15162 0.18454
 H878 H 0.36432 0.16067 0.17022
 H879 H 0.39157 0.19214 0.16066
 H880 H 0.35815 0.12061 0.18301
 H881 H 0.44605 0.11302 0.19972
 H882 H 0.43985 0.07359 0.21359
 H883 H 0.41322 0.04068 0.22009
 H884 H 0.35246 0.08022 0.19477
 C885 C 0.31731 0.45380 -0.15577
 C886 C 0.31287 0.44619 -0.13364
 C887 C 0.32902 0.45227 -0.11546
 C888 C 0.34902 0.46610 -0.11957
 C889 C 0.35346 0.47328 -0.14161
 C890 C 0.33791 0.46695 -0.15993
 C891 C 0.32524 0.44404 -0.09355
 C892 C 0.30574 0.42949 -0.08958
 C893 C 0.28937 0.42361 -0.10759
 C894 C 0.29295 0.43211 -0.12950
 C895 C 0.26991 0.40900 -0.10344
 C896 C 0.26698 0.39995 -0.08178
 C897 C 0.28344 0.40536 -0.06390
 C898 C 0.30263 0.42040 -0.06790
 H899 H 0.30530 0.44878 -0.16986
 H900 H 0.36148 0.47102 -0.10582
 H901 H 0.36925 0.48371 -0.14441
 H902 H 0.33777 0.44857 -0.07971
 H903 H 0.28053 0.42743 -0.14337
 H904 H 0.25717 0.40430 -0.11701
 H905 H 0.25213 0.38826 -0.07914
 H906 H 0.31519 0.42498 -0.05412
 C907 C 0.82361 0.95661 0.33425
 C908 C 0.81795 0.94671 0.35518
 C909 C 0.83233 0.92806 0.36335
 C910 C 0.85210 0.91973 0.35067
 C911 C 0.85785 0.92989 0.33018
 C912 C 0.84372 0.94838 0.32160
 C913 C 0.82702 0.91824 0.38426
 C914 C 0.80776 0.92709 0.39744
 C915 C 0.79336 0.94579 0.38945
 C916 C 0.79840 0.95536 0.36825
 C917 C 0.77433 0.95473 0.40295
 C918 C 0.76984 0.94545 0.42427
 C919 C 0.78416 0.92693 0.43245
 C920 C 0.80293 0.91768 0.41868
 H921 H 0.81239 0.97070 0.32791
 H922 H 0.86343 0.90559 0.35680
 H923 H 0.87385 0.92354 0.32136
 H924 H 0.83813 0.90396 0.39046
 H925 H 0.78737 0.96973 0.36212
 H926 H 0.76311 0.96910 0.39716
 H927 H 0.75540 0.95308 0.43456
 H928 H 0.81382 0.90306 0.42445
 C929 C 0.84409 0.04723 1.14331
 C930 C 0.83178 0.05805 1.12539
 C931 C 0.80745 0.06498 1.12801
 C932 C 0.79578 0.06067 1.14848
 C933 C 0.80800 0.04945 1.16615
 C934 C 0.83245 0.04237 1.16401
 C935 C 0.79521 0.07601 1.11009
 C936 C 0.80697 0.07982 1.08944
 C937 C 0.83127 0.07254 1.08678
 C938 C 0.84356 0.06194 1.10481
 C939 C 0.84287 0.07583 1.06605
 C940 C 0.83060 0.08627 1.04804
 C941 C 0.80654 0.09400 1.05047
 C942 C 0.79484 0.09068 1.07135
 H943 H 0.86306 0.04344 1.14103
 H944 H 0.77703 0.06568 1.15074
 H945 H 0.79766 0.04569 1.18107
 H946 H 0.77652 0.08144 1.11216
 H947 H 0.86224 0.05649 1.10274
 H948 H 0.86142 0.07013 1.06366
 H949 H 0.83995 0.08798 1.03206
 H950 H 0.77640 0.09673 1.07364
 C951 C 0.32188 0.54749 0.65379
 C952 C 0.31300 0.56052 0.63564
 C953 C 0.29140 0.57375 0.63823
 C954 C 0.27908 0.57365 0.65908
 C955 C 0.28819 0.56070 0.67721
 C956 C 0.30962 0.54746 0.67469
 C957 C 0.28271 0.58702 0.62006
 C958 C 0.29553 0.58738 0.59948
 C959 C 0.31718 0.57412 0.59705
 C960 C 0.32568 0.56070 0.61507
 C961 C 0.33016 0.57466 0.57668
 C962 C 0.32198 0.58841 0.55890
 C963 C 0.30059 0.60176 0.56108
 C964 C 0.28729 0.60100 0.58138
 H965 H 0.33873 0.53780 0.65182
 H966 H 0.26250 0.58370 0.66141
 H967 H 0.27843 0.56091 0.69315
 H968 H 0.26615 0.59723 0.62201
 H969 H 0.34230 0.55058 0.61317
 H970 H 0.34673 0.56455 0.57454
 H971 H 0.33233 0.58851 0.54331
 H972 H 0.27087 0.61141 0.58325
 C973 C 0.18710 0.53953 0.36387
 C974 C 0.19485 0.55290 0.38314
 C975 C 0.21635 0.56581 0.38227
 C976 C 0.22985 0.56482 0.36209
 C977 C 0.22171 0.55176 0.34274
 C978 C 0.20005 0.53930 0.34333
 C979 C 0.22367 0.57981 0.40141
 C980 C 0.20945 0.58139 0.42117
 C981 C 0.18797 0.56838 0.42191
 C982 C 0.18099 0.55401 0.40303
 C983 C 0.17351 0.57027 0.44140
 C984 C 0.17999 0.58524 0.45988
 C985 C 0.20119 0.59836 0.45934
 C986 C 0.21605 0.59615 0.44002
 H987 H 0.17068 0.52953 0.36477
 H988 H 0.24639 0.57458 0.36109
 H989 H 0.23198 0.55197 0.32712
 H990 H 0.24011 0.58983 0.40076
 H991 H 0.16444 0.54414 0.40361
 H992 H 0.15702 0.56040 0.44223
 H993 H 0.16847 0.58651 0.47472
 H994 H 0.23233 0.60639 0.43945
 C995 C 0.66621 0.03426 0.85739
 C996 C 0.67621 0.04422 0.87764
 C997 C 0.69796 0.05668 0.87688
 C998 C 0.70983 0.05808 0.85595
 C999 C 0.69987 0.04790 0.83581
 C1000 C 0.67750 0.03640 0.83602
 C1001 C 0.70728 0.06773 0.89699
 C1002 C 0.69513 0.06629 0.91784
 C1003 C 0.67383 0.05306 0.91866
 C1004 C 0.66452 0.04212 0.89858
 C1005 C 0.66193 0.05128 0.93951
 C1006 C 0.67065 0.06299 0.95931
 C1007 C 0.69135 0.07692 0.95867
 C1008 C 0.70370 0.07819 0.93782
 H1009 H 0.64978 0.02437 0.85857
 H1010 H 0.72662 0.06744 0.85506
 H1011 H 0.70919 0.05036 0.81996
 H1012 H 0.72378 0.07765 0.89635
 H1013 H 0.64794 0.03230 0.89920
 H1014 H 0.64574 0.04098 0.94047
 H1015 H 0.66110 0.06118 0.97516
 H1016 H 0.71954 0.08900 0.93694
 C1017 C 0.66254 0.95338 0.64552
 C1018 C 0.67237 0.94381 0.62518
 C1019 C 0.69677 0.93646 0.62468
 C1020 C 0.71091 0.93893 0.64473
 C1021 C 0.70103 0.94891 0.66492
 C1022 C 0.67678 0.95644 0.66548
 C1023 C 0.70656 0.92691 0.60415
 C1024 C 0.69223 0.92494 0.58413
 C1025 C 0.66786 0.93256 0.58481
 C1026 C 0.65809 0.94176 0.60530
 C1027 C 0.65357 0.93098 0.56494
 C1028 C 0.66316 0.92176 0.54452
 C1029 C 0.68720 0.91367 0.54350
 C1030 C 0.70176 0.91550 0.56343
 H1031 H 0.64364 0.95845 0.64575
 H1032 H 0.72968 0.93344 0.64471
 H1033 H 0.71249 0.95114 0.67997
 H1034 H 0.72527 0.92118 0.60373
 H1035 H 0.63937 0.94753 0.60573
 H1036 H 0.63494 0.93695 0.56516
 H1037 H 0.65170 0.92113 0.52937
 H1038 H 0.72030 0.90927 0.56292
 C1039 C 0.19703 0.43090 0.16414
 C1040 C 0.20271 0.42448 0.14140
 C1041 C 0.22016 0.43721 0.12984
 C1042 C 0.23220 0.45568 0.14154
 C1043 C 0.22635 0.46205 0.16420
 C1044 C 0.20842 0.45002 0.17560
 C1045 C 0.22484 0.43163 0.10666
 C1046 C 0.21215 0.41358 0.09491
 C1047 C 0.19515 0.40049 0.10670
 C1048 C 0.19060 0.40597 0.12987
 C1049 C 0.18265 0.38236 0.09504
 C1050 C 0.18651 0.37753 0.07175
 C1051 C 0.20283 0.39082 0.05959
 C1052 C 0.21584 0.40869 0.07143
 H1053 H 0.18288 0.42170 0.17252
 H1054 H 0.24578 0.46551 0.13302
 H1055 H 0.23563 0.47663 0.17270
 H1056 H 0.23798 0.44162 0.09769
 H1057 H 0.17729 0.39613 0.13878
 H1058 H 0.16974 0.37201 0.10388
 H1059 H 0.17668 0.36331 0.06324
 H1060 H 0.22833 0.41923 0.06228
 C1061 C -0.14068 0.32802 0.43619
 C1062 C -0.11781 0.32177 0.42755
 C1063 C -0.09864 0.33781 0.43026
 C1064 C -0.10246 0.35953 0.44186
 C1065 C -0.12515 0.36559 0.45035
 C1066 C -0.14459 0.35013 0.44737
 C1067 C -0.07599 0.33204 0.42117
 C1068 C -0.07216 0.31045 0.40929
 C1069 C -0.09111 0.29416 0.40684
 C1070 C -0.11385 0.29992 0.41599
 C1071 C -0.08699 0.27247 0.39510
 C1072 C -0.06443 0.26715 0.38562
 C1073 C -0.04568 0.28346 0.38758
 C1074 C -0.04966 0.30500 0.39966
 H1075 H -0.15552 0.31597 0.43372
 H1076 H -0.08791 0.37191 0.44426
 H1077 H -0.12749 0.38248 0.45935
 H1078 H -0.06140 0.34447 0.42313
 H1079 H -0.12846 0.28753 0.41394
 H1080 H -0.10125 0.25973 0.39309
 H1081 H -0.06177 0.25047 0.37631
 H1082 H -0.03517 0.31753 0.40160
 C1083 C 0.36031 0.82386 0.94742
 C1084 C 0.37973 0.81334 0.93562
 C1085 C 0.37641 0.79213 0.92259
 C1086 C 0.35366 0.78162 0.92200
 C1087 C 0.33423 0.79249 0.93352
 C1088 C 0.33725 0.81395 0.94597
 C1089 C 0.39572 0.78213 0.91002
 C1090 C 0.41811 0.79337 0.91003
 C1091 C 0.42131 0.81452 0.92328
 C1092 C 0.40222 0.82419 0.93616
 C1093 C 0.44345 0.82595 0.92317
 C1094 C 0.46222 0.81684 0.90974
 C1095 C 0.45931 0.79603 0.89623
 C1096 C 0.43726 0.78414 0.89671
 H1097 H 0.36305 0.84012 0.95739
 H1098 H 0.35075 0.76533 0.91215
 H1099 H 0.31665 0.78452 0.93202
 H1100 H 0.39316 0.76594 0.89987
 H1101 H 0.40471 0.84049 0.94616
 H1102 H 0.44620 0.84210 0.93332
 H1103 H 0.47917 0.82604 0.91001
 H1104 H 0.43486 0.76810 0.88631
 C1105 C 1.16397 0.81180 0.04668
 C1106 C 1.14212 0.80593 0.05680
 C1107 C 1.12028 0.81611 0.04900
 C1108 C 1.12057 0.83155 0.03095
 C1109 C 1.14230 0.83713 0.02088
 C1110 C 1.16421 0.82751 0.02871
 C1111 C 1.09850 0.81089 0.05945
 C1112 C 1.09819 0.79543 0.07751
 C1113 C 1.11992 0.78478 0.08499
 C1114 C 1.14176 0.79017 0.07465
 C1115 C 1.11940 0.76897 0.10277
 C1116 C 1.09763 0.76396 0.11319
 C1117 C 1.07605 0.77485 0.10621
 C1118 C 1.07647 0.79052 0.08826
 H1119 H 1.18076 0.80416 0.05272
 H1120 H 1.10400 0.83949 0.02475
 H1121 H 1.14204 0.84951 0.00729
 H1122 H 1.08182 0.81892 0.05359
 H1123 H 1.15845 0.78218 0.08056
 H1124 H 1.13584 0.76057 0.10868
 H1125 H 1.09770 0.75189 0.12705
 H1126 H 1.05982 0.79873 0.08257
 C1127 C 0.67269 0.31995 0.54202
 C1128 C 0.65013 0.31621 0.55180
 C1129 C 0.62920 0.32661 0.54226
 C1130 C 0.63103 0.33978 0.52266
 C1131 C 0.65346 0.34333 0.51301
 C1132 C 0.67454 0.33384 0.52278
 C1133 C 0.60683 0.32410 0.55267
 C1134 C 0.60503 0.31117 0.57245
 C1135 C 0.62575 0.30000 0.58155
 C1136 C 0.64820 0.30268 0.57123
 C1137 C 0.62366 0.28651 0.60098
 C1138 C 0.60133 0.28438 0.61144
 C1139 C 0.58090 0.29603 0.60288
 C1140 C 0.58280 0.30933 0.58334
 H1141 H 0.68883 0.31244 0.54959
 H1142 H 0.61517 0.34780 0.51509
 H1143 H 0.65442 0.35439 0.49842
 H1144 H 0.59089 0.33243 0.54554
 H1145 H 0.66417 0.29447 0.57845
 H1146 H 0.63929 0.27769 0.60811
 H1147 H 0.60005 0.27400 0.62649
 H1148 H 0.56692 0.31809 0.57659
 C1149 C 0.35935 0.17029 0.56682
 C1150 C 0.37964 0.17838 0.57929
 C1151 C 0.38363 0.17120 0.60194
 C1152 C 0.36710 0.15641 0.61186
 C1153 C 0.34716 0.14824 0.59927
 C1154 C 0.34324 0.15481 0.57658
 C1155 C 0.40428 0.17851 0.61417
 C1156 C 0.42121 0.19270 0.60399
 C1157 C 0.41712 0.20017 0.58146
 C1158 C 0.39632 0.19305 0.56929
 C1159 C 0.43412 0.21438 0.57139
 C1160 C 0.45513 0.22083 0.58336
 C1161 C 0.45955 0.21320 0.60563
 C1162 C 0.44234 0.19928 0.61589
 H1163 H 0.35659 0.17529 0.54927
 H1164 H 0.36980 0.15084 0.62922
 H1165 H 0.33483 0.13658 0.60724
 H1166 H 0.40738 0.17281 0.63147
 H1167 H 0.39330 0.19861 0.55193
 H1168 H 0.43131 0.22027 0.55415
 H1169 H 0.46820 0.23140 0.57500
 H1170 H 0.44541 0.19357 0.63318
 C1171 C 0.85543 0.66003 0.07865
 C1172 C 0.87782 0.66884 0.08600
 C1173 C 0.89030 0.68427 0.07213
 C1174 C 0.87984 0.69107 0.05142
 C1175 C 0.85769 0.68194 0.04406
 C1176 C 0.84547 0.66599 0.05736
 C1177 C 0.91325 0.69215 0.07889
 C1178 C 0.92404 0.68449 0.09918
 C1179 C 0.91135 0.66939 0.11323
 C1180 C 0.88825 0.66183 0.10666
 C1181 C 0.92219 0.66166 0.13341
 C1182 C 0.94560 0.66837 0.13939
 C1183 C 0.95862 0.68299 0.12535
 C1184 C 0.94754 0.69126 0.10538
 H1185 H 0.84601 0.64807 0.08926
 H1186 H 0.88912 0.70290 0.04058
 H1187 H 0.85059 0.68665 0.02750
 H1188 H 0.92294 0.70377 0.06811
 H1189 H 0.87867 0.65002 0.11732
 H1190 H 0.91267 0.65019 0.14445
 H1191 H 0.95356 0.66211 0.15506
 H1192 H 0.95747 0.70236 0.09430
 C1193 C 0.66716 0.67254 0.95573
 C1194 C 0.64437 0.67695 0.94594
 C1195 C 0.62379 0.66630 0.95481
 C1196 C 0.62622 0.65198 0.97363
 C1197 C 0.64888 0.64781 0.98334
 C1198 C 0.66958 0.65779 0.97437
 C1199 C 0.60113 0.66990 0.94460
 C1200 C 0.59869 0.68420 0.92574
 C1201 C 0.61911 0.69541 0.91722
 C1202 C 0.64185 0.69162 0.92730
 C1203 C 0.61640 0.71018 0.89869
 C1204 C 0.59372 0.71366 0.88861
 C1205 C 0.57348 0.70217 0.89667
 C1206 C 0.57608 0.68748 0.91527
 H1207 H 0.68301 0.68043 0.94881
 H1208 H 0.61064 0.64373 0.98066
 H1209 H 0.65032 0.63612 0.99747
 H1210 H 0.58543 0.66149 0.95126
 H1211 H 0.65756 0.69998 0.92059
 H1212 H 0.63180 0.71900 0.89199
 H1213 H 0.59200 0.72505 0.87427
 H1214 H 0.56042 0.67883 0.92172
 C1215 C 0.17343 0.17441 0.46102
 C1216 C 0.15089 0.17955 0.45097
 C1217 C 0.12979 0.17000 0.45998
 C1218 C 0.13141 0.15627 0.47928
 C1219 C 0.15379 0.15144 0.48926
 C1220 C 0.17502 0.16011 0.48009
 C1221 C 0.10742 0.17392 0.44934
 C1222 C 0.10575 0.18742 0.42987
 C1223 C 0.12662 0.19779 0.42130
 C1224 C 0.14911 0.19370 0.43185
 C1225 C 0.12462 0.21181 0.40212
 C1226 C 0.10226 0.21504 0.39124
 C1227 C 0.08170 0.20403 0.39918
 C1228 C 0.08352 0.19046 0.41865
 H1229 H 0.18971 0.18128 0.45392
 H1230 H 0.11541 0.14890 0.48643
 H1231 H 0.15456 0.14013 0.50372
 H1232 H 0.09134 0.16620 0.45604
 H1233 H 0.16520 0.20128 0.42505
 H1234 H 0.14036 0.22004 0.39539
 H1235 H 0.10112 0.22558 0.37625
 H1236 H 0.06757 0.18217 0.42496
 C1237 C 0.57154 0.10241 0.71147
 C1238 C 0.55822 0.11954 0.70005
 C1239 C 0.53346 0.11621 0.69544
 C1240 C 0.52266 0.09537 0.70168
 C1241 C 0.53641 0.07773 0.71181
 C1242 C 0.56111 0.08090 0.71689
 C1243 C 0.52009 0.13350 0.68418
 C1244 C 0.53154 0.15344 0.67634
 C1245 C 0.55657 0.15613 0.68008
 C1246 C 0.56959 0.13956 0.69248
 C1247 C 0.56832 0.17509 0.67091
 C1248 C 0.55546 0.19132 0.65816
 C1249 C 0.53029 0.18963 0.65507
 C1250 C 0.51849 0.17048 0.66441
 H1251 H 0.59017 0.10597 0.71576
 H1252 H 0.50375 0.09235 0.69802
 H1253 H 0.52759 0.06142 0.71504
 H1254 H 0.50098 0.13111 0.68092
 H1255 H 0.58875 0.14186 0.69556
 H1256 H 0.58759 0.17712 0.67319
 H1257 H 0.56552 0.20504 0.65052
 H1258 H 0.49916 0.16876 0.66259
 C1259 C 1.09219 0.57245 0.20403
 C1260 C 1.07706 0.59001 0.19537
 C1261 C 1.05281 0.59174 0.20243
 C1262 C 1.04411 0.57579 0.21790
 C1263 C 1.05935 0.55844 0.22654
 C1264 C 1.08357 0.55667 0.21984
 C1265 C 1.03770 0.60944 0.19401
 C1266 C 1.04653 0.62543 0.17862
 C1267 C 1.07075 0.62367 0.17151
 C1268 C 1.08586 0.60595 0.17991
 C1269 C 1.07947 0.63970 0.15613
 C1270 C 1.06430 0.65727 0.14775
 C1271 C 1.04015 0.65914 0.15462
 C1272 C 1.03146 0.64317 0.17021
 H1273 H 1.11071 0.57105 0.19841
 H1274 H 1.02558 0.57689 0.22351
 H1275 H 1.05231 0.54673 0.23888
 H1276 H 1.01910 0.61079 0.19945
 H1277 H 1.10447 0.60462 0.17449
 H1278 H 1.09798 0.63858 0.15047
 H1279 H 1.07137 0.66915 0.13558
 H1280 H 1.01299 0.64466 0.17596
 C1281 C 0.94890 0.89704 0.19024
 C1282 C 0.96404 0.87944 0.18059
 C1283 C 0.98909 0.88318 0.17954
 C1284 C 0.99844 0.90479 0.18750
 C1285 C 0.98315 0.92251 0.19649
 C1286 C 0.95820 0.91885 0.19820
 C1287 C 1.00434 0.86528 0.17054
 C1288 C 0.99474 0.84388 0.16210
 C1289 C 0.96956 0.84052 0.16245
 C1290 C 0.95441 0.85819 0.17192
 C1291 C 0.95990 0.81951 0.15333
 C1292 C 0.97502 0.80175 0.14432
 C1293 C 1.00021 0.80437 0.14464
 C1294 C 1.00990 0.82572 0.15341
 H1295 H 0.92989 0.89350 0.19176
 H1296 H 1.01758 0.90809 0.18659
 H1297 H 0.99096 0.93919 0.20186
 H1298 H 1.02362 0.86803 0.17004
 H1299 H 0.93513 0.85543 0.17244
 H1300 H 0.94061 0.81681 0.15314
 H1301 H 0.96688 0.78591 0.13707
 H1302 H 1.02923 0.82806 0.15400
 C1303 C 0.44702 0.41552 0.69535
 C1304 C 0.45748 0.39681 0.68236
 C1305 C 0.44278 0.38217 0.66809
 C1306 C 0.41795 0.38673 0.66674
 C1307 C 0.40772 0.40545 0.67960
 C1308 C 0.42204 0.41993 0.69419
 C1309 C 0.45307 0.36313 0.65549
 C1310 C 0.47792 0.35855 0.65696
 C1311 C 0.49269 0.37344 0.67093
 C1312 C 0.48238 0.39244 0.68357
 C1313 C 0.51754 0.36894 0.67220
 C1314 C 0.52764 0.34967 0.66004
 C1315 C 0.51309 0.33451 0.64640
 C1316 C 0.48821 0.33918 0.64483
 H1317 H 0.45829 0.42635 0.70667
 H1318 H 0.40644 0.37581 0.65576
 H1319 H 0.38852 0.40871 0.67794
 H1320 H 0.44173 0.35180 0.64470
 H1321 H 0.49371 0.40372 0.69442
 H1322 H 0.52913 0.38016 0.68281
 H1323 H 0.54681 0.34627 0.66175
 H1324 H 0.47689 0.32771 0.63418
 C1325 C 0.44244 0.58708 0.80191
 C1326 C 0.45401 0.60727 0.81078
 C1327 C 0.45439 0.62767 0.79782
 C1328 C 0.44317 0.62745 0.77616
 C1329 C 0.43133 0.60735 0.76759
 C1330 C 0.43064 0.58702 0.78044
 C1331 C 0.46581 0.64795 0.80680
 C1332 C 0.47670 0.64809 0.82864
 C1333 C 0.47621 0.62765 0.84159
 C1334 C 0.46495 0.60737 0.83255
 C1335 C 0.48707 0.62780 0.86338
 C1336 C 0.49861 0.64790 0.87220
 C1337 C 0.49948 0.66825 0.85943
 C1338 C 0.48827 0.66827 0.83769
 H1339 H 0.44253 0.57142 0.81184
 H1340 H 0.44324 0.64295 0.76600
 H1341 H 0.42217 0.60796 0.75115
 H1342 H 0.46615 0.66361 0.79685
 H1343 H 0.46460 0.59171 0.84251
 H1344 H 0.48675 0.61233 0.87356
 H1345 H 0.50689 0.64755 0.88907
 H1346 H 0.48910 0.68377 0.82758
 C1347 C -0.04242 0.08095 0.30251
 C1348 C -0.03185 0.10168 0.31153
 C1349 C -0.03338 0.12242 0.29906
 C1350 C -0.04560 0.12214 0.27793
 C1351 C -0.05629 0.10155 0.26921
 C1352 C -0.05480 0.08069 0.28131
 C1353 C -0.02276 0.14314 0.30791
 C1354 C -0.01077 0.14346 0.32920
 C1355 C -0.00940 0.12280 0.34179
 C1356 C -0.01987 0.10201 0.33284
 C1357 C 0.00246 0.12328 0.36313
 C1358 C 0.01301 0.14398 0.37186
 C1359 C 0.01199 0.16459 0.35939
 C1360 C -0.00004 0.16414 0.33803
 H1361 H -0.04082 0.06499 0.31194
 H1362 H -0.04708 0.13792 0.26822
 H1363 H -0.06612 0.10210 0.25311
 H1364 H -0.02388 0.15901 0.29828
 H1365 H -0.01875 0.08614 0.34248
 H1366 H 0.00357 0.10765 0.37309
 H1367 H 0.02185 0.14390 0.38849
 H1368 H -0.00066 0.17978 0.32806
 C1369 C 0.08692 0.39084 0.29864
 C1370 C 0.07725 0.37159 0.30950
 C1371 C 0.09163 0.35905 0.32515
 C1372 C 0.11547 0.36583 0.32949
 C1373 C 0.12486 0.38513 0.31881
 C1374 C 0.11066 0.39794 0.30346
 C1375 C 0.08185 0.34020 0.33647
 C1376 C 0.05776 0.33390 0.33260
 C1377 C 0.04343 0.34635 0.31685
 C1378 C 0.05331 0.36499 0.30529
 C1379 C 0.01931 0.34018 0.31317
 C1380 C 0.00930 0.32218 0.32530
 C1381 C 0.02324 0.30987 0.34124
 C1382 C 0.04761 0.31564 0.34458
 H1383 H 0.07575 0.40072 0.28700
 H1384 H 0.12678 0.35638 0.34135
 H1385 H 0.14331 0.39005 0.32255
 H1386 H 0.09286 0.33069 0.34857
 H1387 H 0.04224 0.37460 0.29331
 H1388 H 0.00809 0.34946 0.30110
 H1389 H -0.00942 0.31782 0.32220
 H1390 H 0.05845 0.30638 0.35697
 C1391 C 0.57442 0.89802 0.79336
 C1392 C 0.56039 0.88040 0.80232
 C1393 C 0.53511 0.88088 0.79903
 C1394 C 0.52440 0.89880 0.78646
 C1395 C 0.53852 0.91641 0.77771
 C1396 C 0.56360 0.91637 0.78135
 C1397 C 0.52097 0.86370 0.80868
 C1398 C 0.53179 0.84618 0.82173
 C1399 C 0.55712 0.84555 0.82469
 C1400 C 0.57125 0.86258 0.81488
 C1401 C 0.56791 0.82809 0.83773
 C1402 C 0.55376 0.81158 0.84807
 C1403 C 0.52854 0.81216 0.84552
 C1404 C 0.51768 0.82945 0.83214
 H1405 H 0.59380 0.89758 0.79592
 H1406 H 0.50506 0.89944 0.78374
 H1407 H 0.52973 0.93044 0.76867
 H1408 H 0.50155 0.86418 0.80633
 H1409 H 0.59065 0.86220 0.81735
 H1410 H 0.58729 0.82739 0.84020
 H1411 H 0.56254 0.79866 0.85855
 H1412 H 0.49827 0.82990 0.82988
 C1413 C 0.69894 0.56109 0.09770
 C1414 C 0.68605 0.54772 0.11290
 C1415 C 0.68672 0.52297 0.11059
 C1416 C 0.70019 0.51201 0.09303
 C1417 C 0.71292 0.52536 0.07783
 C1418 C 0.71276 0.55031 0.07974
 C1419 C 0.67388 0.50958 0.12585
 C1420 C 0.66028 0.52073 0.14336
 C1421 C 0.65947 0.54557 0.14554
 C1422 C 0.67232 0.55889 0.13030
 C1423 C 0.64591 0.55671 0.16302
 C1424 C 0.63342 0.54339 0.17837
 C1425 C 0.63420 0.51868 0.17652
 C1426 C 0.64759 0.50746 0.15882
 H1427 H 0.69678 0.57998 0.09944
 H1428 H 0.70108 0.49299 0.09112
 H1429 H 0.72376 0.51563 0.06538
 H1430 H 0.67449 0.49053 0.12410
 H1431 H 0.67171 0.57794 0.13206
 H1432 H 0.64502 0.57572 0.16488
 H1433 H 0.62299 0.55243 0.19167
 H1434 H 0.64854 0.48842 0.15740
 C1435 C 0.21058 1.05029 0.60979
 C1436 C 0.19571 1.03932 0.62526
 C1437 C 0.17485 1.02751 0.61712
 C1438 C 0.16951 1.02653 0.59357
 C1439 C 0.18440 1.03754 0.57828
 C1440 C 0.20489 1.04976 0.58625
 C1441 C 0.15958 1.01713 0.63266
 C1442 C 0.16490 1.01841 0.65624
 C1443 C 0.18597 1.02992 0.66428
 C1444 C 0.20124 1.04027 0.64876
 C1445 C 0.19137 1.03105 0.68778
 C1446 C 0.17595 1.02110 0.70325
 C1447 C 0.15472 1.00991 0.69559
 C1448 C 0.14940 1.00853 0.67194
 H1449 H 0.22653 1.05936 0.61609
 H1450 H 0.15363 1.01753 0.58702
 H1451 H 0.17950 1.03706 0.56027
 H1452 H 0.14348 1.00823 0.62643
 H1453 H 0.21729 1.04925 0.65499
 H1454 H 0.20753 1.03965 0.69422
 H1455 H 0.18080 1.02198 0.72127
 H1456 H 0.13301 1.00016 0.66578
 C1457 C 0.18905 0.93984 0.90983
 C1458 C 0.17996 0.95192 0.89099
 C1459 C 0.19275 0.95105 0.87024
 C1460 C 0.21429 0.93821 0.86861
 C1461 C 0.22313 0.92605 0.88721
 C1462 C 0.21076 0.92633 0.90835
 C1463 C 0.18378 0.96292 0.85135
 C1464 C 0.16193 0.97547 0.85279
 C1465 C 0.14894 0.97634 0.87346
 C1466 C 0.15807 0.96461 0.89248
 C1467 C 0.12701 0.98888 0.87468
 C1468 C 0.11802 1.00034 0.85558
 C1469 C 0.13080 0.99948 0.83492
 C1470 C 0.15286 0.98708 0.83378
 H1471 H 0.17815 0.94009 0.92504
 H1472 H 0.22448 0.93764 0.85288
 H1473 H 0.24047 0.91748 0.88494
 H1474 H 0.19371 0.96222 0.83544
 H1475 H 0.14811 0.96528 0.90835
 H1476 H 0.11676 0.98972 0.89037
 H1477 H 0.10089 1.00962 0.85686
 H1478 H 0.16315 0.98667 0.81812
 C1479 C 0.70269 0.43958 0.39552
 C1480 C 0.68647 0.45013 0.38029
 C1481 C 0.66580 0.46216 0.38887
 C1482 C 0.66171 0.46340 0.41252
 C1483 C 0.67790 0.45282 0.42755
 C1484 C 0.69854 0.44080 0.41925
 C1485 C 0.64965 0.47287 0.37373
 C1486 C 0.65405 0.47196 0.35010
 C1487 C 0.67467 0.45986 0.34152
 C1488 C 0.69068 0.44893 0.35664
 C1489 C 0.67916 0.45923 0.31796
 C1490 C 0.66377 0.47103 0.30308
 C1491 C 0.64337 0.48347 0.31141
 C1492 C 0.63841 0.48341 0.33498
 H1493 H 0.71866 0.43063 0.38890
 H1494 H 0.64592 0.47248 0.41939
 H1495 H 0.67402 0.45368 0.44568
 H1496 H 0.63386 0.48218 0.38034
 H1497 H 0.70654 0.43972 0.35003
 H1498 H 0.69491 0.45009 0.31109
 H1499 H 0.66835 0.47107 0.28513
 H1500 H 0.62259 0.49259 0.34164
 C1501 C 0.81286 0.45210 0.57995
 C1502 C 0.82008 0.46230 0.60120
 C1503 C 0.80513 0.46058 0.62046
 C1504 C 0.78330 0.44861 0.61816
 C1505 C 0.77636 0.43832 0.59703
 C1506 C 0.79099 0.43993 0.57768
 C1507 C 0.81224 0.47078 0.64170
 C1508 C 0.83420 0.48258 0.64399
 C1509 C 0.84924 0.48419 0.62479
 C1510 C 0.84207 0.47410 0.60350
 C1511 C 0.87121 0.49595 0.62720
 C1512 C 0.87814 0.50617 0.64838
 C1513 C 0.86325 0.50486 0.66757
 C1514 C 0.84129 0.49292 0.66520
 H1515 H 0.82420 0.45377 0.56517
 H1516 H 0.77168 0.44702 0.63277
 H1517 H 0.75968 0.42869 0.59597
 H1518 H 0.80071 0.46950 0.65644
 H1519 H 0.85359 0.47538 0.58876
 H1520 H 0.88301 0.49727 0.61269
 H1521 H 0.89527 0.51502 0.64980
 H1522 H 0.82946 0.49208 0.67976
 C1523 C 0.28569 -0.05694 0.08395
 C1524 C 0.29704 -0.04312 0.10130
 C1525 C 0.31972 -0.03318 0.09722
 C1526 C 0.33044 -0.03685 0.07576
 C1527 C 0.31914 -0.05077 0.05868
 C1528 C 0.29685 -0.06120 0.06266
 C1529 C 0.33157 -0.02013 0.11477
 C1530 C 0.32120 -0.01715 0.13648
 C1531 C 0.29837 -0.02679 0.14049
 C1532 C 0.28636 -0.03957 0.12284
 C1533 C 0.28815 -0.02389 0.16226
 C1534 C 0.30070 -0.01214 0.18007
 C1535 C 0.32365 -0.00294 0.17643
 C1536 C 0.33361 -0.00519 0.15442
 H1537 H 0.26862 -0.06506 0.08730
 H1538 H 0.34773 -0.02926 0.07229
 H1539 H 0.32791 -0.05347 0.04231
 H1540 H 0.34907 -0.01274 0.11166
 H1541 H 0.26897 -0.04716 0.12601
 H1542 H 0.27062 -0.03104 0.16562
 H1543 H 0.29251 -0.01035 0.19679
 H1544 H 0.35141 0.00157 0.15147
 C1545 C 0.29812 0.05303 0.41638
 C1546 C 0.30915 0.04164 0.39740
 C1547 C 0.33138 0.02961 0.40026
 C1548 C 0.34209 0.02905 0.42209
 C1549 C 0.33100 0.04045 0.44090
 C1550 C 0.30898 0.05262 0.43826
 C1551 C 0.34257 0.01842 0.38126
 C1552 C 0.33180 0.01907 0.35943
 C1553 C 0.30951 0.03102 0.35662
 C1554 C 0.29835 0.04223 0.37560
 C1555 C 0.29873 0.03156 0.33483
 C1556 C 0.30988 0.02039 0.31597
 C1557 C 0.33211 0.00853 0.31846
 C1558 C 0.34297 0.00798 0.34034
 H1559 H 0.28133 0.06263 0.41403
 H1560 H 0.35907 0.01983 0.42463
 H1561 H 0.33960 0.03959 0.45759
 H1562 H 0.35965 0.00924 0.38346
 H1563 H 0.28128 0.05144 0.37339
 H1564 H 0.28160 0.04054 0.33239
 H1565 H 0.30090 0.02076 0.29943
 H1566 H 0.36023 -0.00084 0.34249
 C1567 C 0.79942 0.56085 0.90832
 C1568 C 0.81098 0.54963 0.88953
 C1569 C 0.83167 0.53541 0.89322
 C1570 C 0.84054 0.53281 0.91555
 C1571 C 0.82916 0.54432 0.93408
 C1572 C 0.80854 0.55839 0.93065
 C1573 C 0.84326 0.52412 0.87456
 C1574 C 0.83461 0.52704 0.85220
 C1575 C 0.81413 0.54148 0.84841
 C1576 C 0.80236 0.55260 0.86712
 C1577 C 0.80579 0.54454 0.82594
 C1578 C 0.81750 0.53321 0.80741
 C1579 C 0.83763 0.51854 0.81107
 C1580 C 0.84616 0.51568 0.83354
 H1581 H 0.78367 0.57192 0.90556
 H1582 H 0.85637 0.52199 0.91867
 H1583 H 0.83636 0.54213 0.95119
 H1584 H 0.85905 0.51313 0.87743
 H1585 H 0.78659 0.56362 0.86424
 H1586 H 0.79016 0.55557 0.82270
 H1587 H 0.81053 0.53553 0.79024
 H1588 H 0.86192 0.50468 0.83649
 C1589 C 0.08123 0.71685 0.55377
 C1590 C 0.09876 0.70225 0.54325
 C1591 C 0.09173 0.68135 0.53117
 C1592 C 0.06719 0.67604 0.52890
 C1593 C 0.04981 0.69085 0.53923
 C1594 C 0.05677 0.71100 0.55216
 C1595 C 0.10936 0.66593 0.52194
 C1596 C 0.13388 0.67138 0.52428
 C1597 C 0.14078 0.69277 0.53546
 C1598 C 0.12320 0.70799 0.54504
 C1599 C 0.16520 0.69854 0.53697
 C1600 C 0.18269 0.68319 0.52768
 C1601 C 0.17622 0.66142 0.51715
 C1602 C 0.15160 0.65570 0.51564
 H1603 H 0.08658 0.73250 0.56367
 H1604 H 0.06147 0.66020 0.51955
 H1605 H 0.03101 0.68607 0.53797
 H1606 H 0.10401 0.64968 0.51306
 H1607 H 0.12855 0.72419 0.55403
 H1608 H 0.17079 0.71503 0.54520
 H1609 H 0.20129 0.68861 0.52856
 H1610 H 0.14609 0.63892 0.50803
 C1611 C 0.58428 0.18915 1.07392
 C1612 C 0.60065 0.17591 1.06034
 C1613 C 0.59485 0.17017 1.03718
 C1614 C 0.57243 0.17702 1.02824
 C1615 C 0.55587 0.18940 1.04210
 C1616 C 0.56157 0.19591 1.06507
 C1617 C 0.61142 0.15750 1.02339
 C1618 C 0.63344 0.14979 1.03268
 C1619 C 0.63886 0.15474 1.05607
 C1620 C 0.62262 0.16810 1.06966
 C1621 C 0.66040 0.14615 1.06550
 C1622 C 0.67658 0.13301 1.05185
 C1623 C 0.67188 0.12863 1.02831
 C1624 C 0.65010 0.13716 1.01892
 H1625 H 0.58945 0.19421 1.09133
 H1626 H 0.56753 0.17246 1.01061
 H1627 H 0.53841 0.19350 1.03475
 H1628 H 0.60707 0.15340 1.00552
 H1629 H 0.62695 0.17216 1.08754
 H1630 H 0.66468 0.14948 1.08348
 H1631 H 0.69278 0.12622 1.05985
 H1632 H 0.64619 0.13442 1.00080
 C1633 C 0.87946 0.21535 0.93320
 C1634 C 0.86522 0.20260 0.94784
 C1635 C 0.86933 0.20436 0.97169
 C1636 C 0.88742 0.21904 0.98052
 C1637 C 0.90203 0.23119 0.96588
 C1638 C 0.89892 0.22934 0.94167
 C1639 C 0.85560 0.19108 0.98632
 C1640 C 0.83813 0.17563 0.97726
 C1641 C 0.83392 0.17392 0.95334
 C1642 C 0.84724 0.18764 0.93882
 C1643 C 0.81673 0.15820 0.94429
 C1644 C 0.80402 0.14406 0.95876
 C1645 C 0.80806 0.14552 0.98260
 C1646 C 0.82505 0.16157 0.99173
 H1647 H 0.87464 0.21433 0.91523
 H1648 H 0.89086 0.22056 0.99883
 H1649 H 0.91659 0.24076 0.97412
 H1650 H 0.85888 0.19240 1.00468
 H1651 H 0.84406 0.18621 0.92045
 H1652 H 0.81335 0.15659 0.92599
 H1653 H 0.79131 0.13164 0.95122
 H1654 H 0.82809 0.16318 1.01009
 C1655 C 0.40375 0.70348 0.44308
 C1656 C 0.38867 0.69040 0.45659
 C1657 C 0.39509 0.66700 0.46149
 C1658 C 0.41665 0.65720 0.45292
 C1659 C 0.43145 0.67028 0.43918
 C1660 C 0.42502 0.69344 0.43392
 C1661 C 0.37967 0.65370 0.47453
 C1662 C 0.35772 0.66340 0.48236
 C1663 C 0.35140 0.68686 0.47748
 C1664 C 0.36702 0.70027 0.46485
 C1665 C 0.32931 0.69640 0.48495
 C1666 C 0.31337 0.68271 0.49675
 C1667 C 0.31934 0.65934 0.50153
 C1668 C 0.34173 0.64987 0.49456
 H1669 H 0.39881 0.72148 0.43956
 H1670 H 0.42186 0.63929 0.45648
 H1671 H 0.44761 0.66204 0.43221
 H1672 H 0.38451 0.63570 0.47820
 H1673 H 0.36209 0.71821 0.46102
 H1674 H 0.32421 0.71434 0.48138
 H1675 H 0.29630 0.69038 0.50218
 H1676 H 0.34633 0.63177 0.49799
 C1677 C 0.58397 0.81115 0.42106
 C1678 C 0.59993 0.82597 0.43343
 C1679 C 0.59067 0.84382 0.44861
 C1680 C 0.56571 0.84624 0.45149
 C1681 C 0.55003 0.83106 0.43955
 C1682 C 0.55901 0.81353 0.42420
 C1683 C 0.60648 0.85876 0.46089
 C1684 C 0.63147 0.85566 0.45876
 C1685 C 0.64077 0.83755 0.44398
 C1686 C 0.62494 0.82301 0.43114
 C1687 C 0.66577 0.83409 0.44254
 C1688 C 0.68140 0.84818 0.45590
 C1689 C 0.67237 0.86635 0.47063
 C1690 C 0.64728 0.87016 0.47158
 H1691 H 0.59092 0.79748 0.40935
 H1692 H 0.55834 0.85975 0.46312
 H1693 H 0.53080 0.83316 0.44205
 H1694 H 0.59935 0.87251 0.47243
 H1695 H 0.63207 0.80918 0.41970
 H1696 H 0.67323 0.82018 0.43142
 H1697 H 0.70055 0.84447 0.45501
 H1698 H 0.63992 0.88439 0.48237
 C1699 C 0.07315 0.32180 -0.06524
 C1700 C 0.09196 0.33036 -0.05108
 C1701 C 0.09384 0.32332 -0.02818
 C1702 C 0.07665 0.30826 -0.01972
 C1703 C 0.05799 0.29986 -0.03390
 C1704 C 0.05618 0.30629 -0.05685
 C1705 C 0.11300 0.33124 -0.01418
 C1706 C 0.13033 0.34611 -0.02276
 C1707 C 0.12826 0.35348 -0.04552
 C1708 C 0.10908 0.34556 -0.05955
 C1709 C 0.14556 0.36849 -0.05394
 C1710 C 0.16492 0.37586 -0.04005
 C1711 C 0.16741 0.36831 -0.01751
 C1712 C 0.14987 0.35350 -0.00897
 H1713 H 0.07213 0.32672 -0.08296
 H1714 H 0.07771 0.30285 -0.00216
 H1715 H 0.04491 0.28832 -0.02685
 H1716 H 0.11453 0.32566 0.00332
 H1717 H 0.10762 0.35105 -0.07708
 H1718 H 0.14418 0.37444 -0.07129
 H1719 H 0.17794 0.38757 -0.04695
 H1720 H 0.15172 0.34725 0.00824
 C1721 C 0.40168 0.30879 0.05896
 C1722 C 0.38139 0.31772 0.04747
 C1723 C 0.35991 0.30465 0.04629
 C1724 C 0.35913 0.28283 0.05648
 C1725 C 0.37939 0.27406 0.06788
 C1726 C 0.40082 0.28695 0.06931
 C1727 C 0.33952 0.31363 0.03504
 C1728 C 0.34035 0.33550 0.02491
 C1729 C 0.36188 0.34850 0.02593
 C1730 C 0.38226 0.33954 0.03722
 C1731 C 0.36266 0.37029 0.01564
 C1732 C 0.34229 0.37916 0.00448
 C1733 C 0.32076 0.36645 0.00346
 C1734 C 0.31994 0.34458 0.01373
 H1735 H 0.41819 0.31875 0.05972
 H1736 H 0.34281 0.27260 0.05578
 H1737 H 0.37815 0.25736 0.07597
 H1738 H 0.32303 0.30362 0.03421
 H1739 H 0.39875 0.34956 0.03806
 H1740 H 0.37900 0.38050 0.01627
 H1741 H 0.34327 0.39614 -0.00314
 H1742 H 0.30352 0.33450 0.01276
 C1743 C 0.89563 0.82891 0.55679
 C1744 C 0.87542 0.83910 0.54620
 C1745 C 0.85367 0.82651 0.54429
 C1746 C 0.85245 0.80406 0.55315
 C1747 C 0.87260 0.79409 0.56376
 C1748 C 0.89441 0.80634 0.56566
 C1749 C 0.83352 0.83650 0.53348
 C1750 C 0.83486 0.85892 0.52449
 C1751 C 0.85655 0.87159 0.52654
 C1752 C 0.87669 0.86162 0.53740
 C1753 C 0.85780 0.89396 0.51746
 C1754 C 0.83788 0.90353 0.50611
 C1755 C 0.81631 0.89097 0.50373
 C1756 C 0.81491 0.86871 0.51318
 H1757 H 0.91239 0.83844 0.55781
 H1758 H 0.83589 0.79421 0.55193
 H1759 H 0.87101 0.77687 0.57075
 H1760 H 0.81688 0.82678 0.53192
 H1761 H 0.89336 0.87130 0.53888
 H1762 H 0.87425 0.90396 0.51894
 H1763 H 0.83932 0.92079 0.49916
 H1764 H 0.79851 0.85868 0.51113
   
