data_POSCAR
  _audit_creation_date              2014-09-24
  _audit_creation_method            'ToBaCCo'
  _symmetry_space_group_name_H-M    'P1'
  _symmetry_Int_Tables_number       1
  _symmetry_cell_setting            triclinic
  loop_
  _symmetry_equiv_pos_as_xyz
 x,y,z
_cell_length_a 65.9150
_cell_length_b 65.9063
_cell_length_c 66.0706
_cell_angle_alpha 90.017400
_cell_angle_beta 90.017800
_cell_angle_gamma 90.067900
loop_
  _atom_site_label
  _atom_site_type_symbol
  _atom_site_fract_x
  _atom_site_fract_y
  _atom_site_fract_z
N1 N 0.17505 0.22319 0.22793
 N2 N 0.18051 0.20710 0.23831
 C3 C 0.16746 0.20446 0.25378
 C4 C 0.15306 0.21980 0.25314
 C5 C 0.15845 0.23137 0.23646
 H6 H 0.16845 0.19231 0.26468
 H7 H 0.15088 0.24476 0.23082
 Cu8 Cu 0.20419 0.19140 0.23042
 Cu9 Cu 0.18980 0.23244 0.20409
 Cu10 Cu 0.23200 0.20441 0.18993
 N11 N 0.22783 0.17567 0.22242
 N12 N 0.23867 0.18093 0.20659
 C13 C 0.25415 0.16783 0.20441
 C14 C 0.25301 0.15346 0.21970
 C15 C 0.23602 0.15897 0.23081
 H16 H 0.26535 0.16875 0.19251
 H17 H 0.23006 0.15145 0.24405
 N18 N 0.22276 0.22866 0.17505
 N19 N 0.20672 0.23931 0.18044
 C20 C 0.20440 0.25485 0.16741
 C21 C 0.21971 0.25400 0.15305
 C22 C 0.23106 0.23715 0.15847
 H23 H 0.19242 0.26597 0.16836
 H24 H 0.24442 0.23145 0.15092
 H25 H 0.20123 0.20443 0.19603
 H26 H 0.21758 0.22074 0.21236
 N27 N 0.67589 0.72368 0.72839
 N28 N 0.68168 0.70784 0.73896
 C29 C 0.66875 0.70520 0.75453
 C30 C 0.65404 0.72023 0.75371
 C31 C 0.65914 0.73166 0.73684
 H32 H 0.67003 0.69324 0.76562
 H33 H 0.65133 0.74485 0.73107
 Cu34 Cu 0.70566 0.69234 0.73139
 Cu35 Cu 0.69051 0.73293 0.70453
 Cu36 Cu 0.73266 0.70514 0.69008
 N37 N 0.72909 0.67659 0.72273
 N38 N 0.73953 0.68173 0.70660
 C39 C 0.75491 0.66859 0.70408
 C40 C 0.75419 0.65433 0.71948
 C41 C 0.73751 0.65994 0.73103
 H42 H 0.76580 0.66947 0.69190
 H43 H 0.73192 0.65252 0.74449
 N44 N 0.72330 0.72935 0.67530
 N45 N 0.70724 0.73990 0.68083
 C46 C 0.70472 0.75543 0.66787
 C47 C 0.71992 0.75472 0.65340
 C48 C 0.73141 0.73792 0.65865
 H49 H 0.69268 0.76647 0.66894
 H50 H 0.74474 0.73232 0.65096
 H51 H 0.70207 0.70481 0.69686
 H52 H 0.71856 0.72155 0.71270
 N53 N 0.32394 0.77623 0.72831
 N54 N 0.31860 0.79250 0.73847
 C55 C 0.33154 0.79514 0.75403
 C56 C 0.34582 0.77968 0.75363
 C57 C 0.34042 0.76798 0.73702
 H58 H 0.33060 0.80741 0.76482
 H59 H 0.34787 0.75444 0.73159
 Cu60 Cu 0.29526 0.80866 0.73033
 Cu61 Cu 0.30916 0.76693 0.70455
 Cu62 Cu 0.26700 0.79482 0.69020
 N63 N 0.27123 0.82383 0.72236
 N64 N 0.26029 0.81835 0.70667
 C65 C 0.24471 0.83132 0.70448
 C66 C 0.24581 0.84588 0.71967
 C67 C 0.26294 0.84051 0.73073
 H68 H 0.23347 0.83009 0.69264
 H69 H 0.26902 0.84809 0.74389
 N70 N 0.27625 0.77051 0.67546
 N71 N 0.29230 0.75990 0.68092
 C72 C 0.29463 0.74427 0.66801
 C73 C 0.27930 0.74499 0.65365
 C74 C 0.26796 0.76189 0.65891
 H75 H 0.30662 0.73317 0.66903
 H76 H 0.25461 0.76753 0.65130
 H77 H 0.29773 0.79496 0.69610
 H78 H 0.28145 0.77908 0.71298
 N79 N 0.82454 0.27592 0.22913
 N80 N 0.81935 0.29228 0.23923
 C81 C 0.83273 0.29527 0.25436
 C82 C 0.84716 0.27988 0.25378
 C83 C 0.84134 0.26793 0.23743
 H84 H 0.83189 0.30770 0.26498
 H85 H 0.84852 0.25426 0.23199
 Cu86 Cu 0.79552 0.30781 0.23132
 Cu87 Cu 0.80852 0.26557 0.20659
 Cu88 Cu 0.76831 0.29521 0.19025
 N89 N 0.77174 0.32336 0.22342
 N90 N 0.76136 0.31845 0.20715
 C91 C 0.74601 0.33166 0.20476
 C92 C 0.74673 0.34571 0.22037
 C93 C 0.76332 0.33990 0.23192
 H94 H 0.73518 0.33100 0.19251
 H95 H 0.76894 0.34718 0.24545
 N96 N 0.77781 0.27097 0.17549
 N97 N 0.79308 0.25966 0.18172
 C98 C 0.79560 0.24415 0.16871
 C99 C 0.78113 0.24561 0.15356
 C100 C 0.77016 0.26288 0.15840
 H101 H 0.80705 0.23255 0.17031
 H102 H 0.75741 0.26907 0.15021
 H103 H 0.79884 0.29381 0.19751
 H104 H 0.78078 0.27896 0.21342
 N105 N 0.82480 0.72398 0.27164
 N106 N 0.81901 0.70815 0.26102
 C107 C 0.83197 0.70554 0.24549
 C108 C 0.84670 0.72058 0.24637
 C109 C 0.84158 0.73198 0.26325
 H110 H 0.83072 0.69358 0.23438
 H111 H 0.84939 0.74516 0.26907
 Cu112 Cu 0.79506 0.69258 0.26851
 Cu113 Cu 0.81014 0.73315 0.29546
 Cu114 Cu 0.76793 0.70526 0.30977
 N115 N 0.77166 0.67674 0.27710
 N116 N 0.76114 0.68179 0.29321
 C117 C 0.74584 0.66849 0.29565
 C118 C 0.74675 0.65423 0.28023
 C119 C 0.76340 0.66002 0.26876
 H120 H 0.73488 0.66926 0.30777
 H121 H 0.76910 0.65267 0.25530
 N122 N 0.77728 0.72952 0.32458
 N123 N 0.79337 0.74009 0.31911
 C124 C 0.79580 0.75572 0.33200
 C125 C 0.78049 0.75506 0.34635
 C126 C 0.76905 0.73818 0.34113
 H127 H 0.80784 0.76678 0.33094
 H128 H 0.75569 0.73258 0.34876
 H129 H 0.79852 0.70499 0.30308
 H130 H 0.78207 0.72172 0.28723
 N131 N 0.32529 0.22353 -0.22808
 N132 N 0.31984 0.20736 -0.23837
 C133 C 0.33284 0.20467 -0.25386
 C134 C 0.34730 0.22006 -0.25337
 C135 C 0.34188 0.23172 -0.23668
 H136 H 0.33172 0.19245 -0.26468
 H137 H 0.34933 0.24520 -0.23107
 Cu138 Cu 0.29606 0.19170 -0.23051
 Cu139 Cu 0.31044 0.23295 -0.20434
 Cu140 Cu 0.26814 0.20496 -0.19021
 N141 N 0.27237 0.17599 -0.22246
 N142 N 0.26149 0.18138 -0.20670
 C143 C 0.24591 0.16838 -0.20454
 C144 C 0.24699 0.15393 -0.21976
 C145 C 0.26407 0.15929 -0.23083
 H146 H 0.23462 0.16948 -0.19274
 H147 H 0.26998 0.15171 -0.24406
 N148 N 0.27731 0.22927 -0.17544
 N149 N 0.29339 0.23994 -0.18078
 C150 C 0.29566 0.25549 -0.16773
 C151 C 0.28027 0.25463 -0.15345
 C152 C 0.26895 0.23776 -0.15889
 H153 H 0.30769 0.26659 -0.16859
 H154 H 0.25559 0.23200 -0.15137
 H155 H 0.29899 0.20499 -0.19620
 H156 H 0.28273 0.22119 -0.21272
 N157 N 0.67494 0.27627 -0.22844
 N158 N 0.68036 0.29246 -0.23869
 C159 C 0.66735 0.29513 -0.25420
 C160 C 0.65290 0.27974 -0.25372
 C161 C 0.65834 0.26808 -0.23704
 H162 H 0.66845 0.30737 -0.26501
 H163 H 0.65090 0.25461 -0.23145
 Cu164 Cu 0.70406 0.30825 -0.23077
 Cu165 Cu 0.68977 0.26690 -0.20469
 Cu166 Cu 0.73200 0.29485 -0.19042
 N167 N 0.72780 0.32388 -0.22265
 N168 N 0.73865 0.31842 -0.20689
 C169 C 0.75417 0.33146 -0.20456
 C170 C 0.75311 0.34600 -0.21968
 C171 C 0.73611 0.34065 -0.23089
 H172 H 0.76538 0.33032 -0.19271
 H173 H 0.73023 0.34831 -0.24410
 N174 N 0.72282 0.27052 -0.17568
 N175 N 0.70674 0.25990 -0.18111
 C176 C 0.70436 0.24434 -0.16812
 C177 C 0.71967 0.24514 -0.15373
 C178 C 0.73108 0.26199 -0.15909
 H179 H 0.69232 0.23327 -0.16909
 H180 H 0.74442 0.26770 -0.15148
 H181 H 0.70124 0.29488 -0.19644
 H182 H 0.71750 0.27877 -0.21300
 N183 N 0.17548 0.77679 0.27147
 N184 N 0.18113 0.79273 0.26096
 C185 C 0.16823 0.79525 0.24535
 C186 C 0.15363 0.78008 0.24612
 C187 C 0.15879 0.76867 0.26298
 H188 H 0.16941 0.80724 0.23429
 H189 H 0.15105 0.75543 0.26875
 Cu190 Cu 0.20488 0.80841 0.26884
 Cu191 Cu 0.19009 0.76764 0.29540
 Cu192 Cu 0.23233 0.79565 0.30972
 N193 N 0.22849 0.82416 0.27698
 N194 N 0.23914 0.81905 0.29299
 C195 C 0.25453 0.83227 0.29532
 C196 C 0.25361 0.84657 0.27987
 C197 C 0.23679 0.84079 0.26853
 H198 H 0.26548 0.83141 0.30744
 H199 H 0.23093 0.84809 0.25512
 N200 N 0.22292 0.77144 0.32462
 N201 N 0.20685 0.76082 0.31915
 C202 C 0.20438 0.74530 0.33216
 C203 C 0.21963 0.74607 0.34658
 C204 C 0.23108 0.76292 0.34127
 H205 H 0.19235 0.73421 0.33112
 H206 H 0.24442 0.76858 0.34891
 H207 H 0.20175 0.79563 0.30333
 H208 H 0.21813 0.77917 0.28722
 N209 N 0.47362 0.42525 0.47840
 N210 N 0.45737 0.43058 0.48858
 C211 C 0.45478 0.41766 0.50415
 C212 C 0.47024 0.40339 0.50374
 C213 C 0.48191 0.40878 0.48712
 H214 H 0.44253 0.41861 0.51497
 H215 H 0.49545 0.40135 0.48168
 Cu216 Cu 0.44117 0.45388 0.48046
 Cu217 Cu 0.48285 0.44002 0.45462
 Cu218 Cu 0.45489 0.48212 0.44029
 N219 N 0.42593 0.47787 0.47250
 N220 N 0.43139 0.48880 0.45680
 C221 C 0.41840 0.50435 0.45459
 C222 C 0.40389 0.50321 0.46976
 C223 C 0.40923 0.48616 0.48085
 H224 H 0.41952 0.51562 0.44278
 H225 H 0.40158 0.48019 0.49401
 N226 N 0.47918 0.47290 0.42552
 N227 N 0.48982 0.45688 0.43098
 C228 C 0.50533 0.45447 0.41795
 C229 C 0.50449 0.46971 0.40351
 C230 C 0.48765 0.48110 0.40887
 H231 H 0.51641 0.44246 0.41892
 H232 H 0.48193 0.49439 0.40122
 H233 H 0.47070 0.46773 0.46307
 H234 H 0.45481 0.45141 0.44622
 N235 N -0.02631 -0.07502 0.97757
 N236 N -0.04267 -0.06982 0.98766
 C237 C -0.04537 -0.08287 1.00311
 C238 C -0.02985 -0.09708 1.00272
 C239 C -0.01806 -0.09154 0.98623
 H240 H -0.05766 -0.08199 1.01388
 H241 H -0.00446 -0.09889 0.98085
 Cu242 Cu -0.05824 -0.04605 0.97981
 Cu243 Cu -0.01681 -0.06005 0.95391
 Cu244 Cu -0.04682 -0.01988 0.93805
 N245 N -0.07379 -0.02217 0.97212
 N246 N -0.06895 -0.01178 0.95585
 C247 C -0.08189 0.00383 0.95377
 C248 C -0.09569 0.00330 0.96961
 C249 C -0.08999 -0.01347 0.98097
 H250 H -0.08135 0.01460 0.94145
 H251 H -0.09714 -0.01902 0.99459
 N252 N -0.02150 -0.02770 0.92423
 N253 N -0.01007 -0.04296 0.93029
 C254 C 0.00587 -0.04471 0.91768
 C255 C 0.00448 -0.02983 0.90290
 C256 C -0.01308 -0.01931 0.90765
 H257 H 0.01753 -0.05612 0.91910
 H258 H -0.01943 -0.00656 0.89957
 H259 H -0.02976 -0.03236 0.96097
 H260 H -0.04505 -0.05050 0.94557
 N261 N 1.02651 0.57474 0.97806
 N262 N 1.04252 0.56919 0.98850
 C263 C 1.04507 0.58210 1.00412
 C264 C 1.02988 0.59664 1.00339
 C265 C 1.01838 0.59137 0.98660
 H266 H 1.05708 0.58094 1.01518
 H267 H 1.00506 0.59901 0.98091
 Cu268 Cu 1.05826 0.54555 0.98058
 Cu269 Cu 1.01731 0.56000 0.95418
 Cu270 Cu 1.04540 0.51776 0.94002
 N271 N 1.07398 0.52190 0.97265
 N272 N 1.06884 0.51112 0.95674
 C273 C 1.08202 0.49572 0.95455
 C274 C 1.09630 0.49682 0.96994
 C275 C 1.09061 0.51366 0.98118
 H276 H 1.08120 0.48459 0.94257
 H277 H 1.09797 0.51949 0.99458
 N278 N 1.02120 0.52704 0.92508
 N279 N 1.01054 0.54308 0.93048
 C280 C 0.99501 0.54541 0.91747
 C281 C 0.99584 0.53009 0.90312
 C282 C 1.01270 0.51874 0.90849
 H283 H 0.98387 0.55736 0.91847
 H284 H 1.01836 0.50536 0.90095
 H285 H 1.02900 0.53218 0.96236
 H286 H 1.04529 0.54851 0.94606
 N287 N 0.52643 0.07458 0.47829
 N288 N 0.54245 0.06897 0.48871
 C289 C 0.54497 0.08175 0.50442
 C290 C 0.52970 0.09621 0.50387
 C291 C 0.51822 0.09109 0.48702
 H292 H 0.55708 0.08061 0.51536
 H293 H 0.50487 0.09875 0.48141
 Cu294 Cu 0.55867 0.04575 0.48044
 Cu295 Cu 0.51731 0.06001 0.45425
 Cu296 Cu 0.54349 0.01614 0.44206
 N297 N 0.57421 0.02200 0.47228
 N298 N 0.56828 0.01064 0.45705
 C299 C 0.58136 -0.00482 0.45471
 C300 C 0.59643 -0.00314 0.46928
 C301 C 0.59133 0.01414 0.48015
 H302 H 0.57977 -0.01653 0.44337
 H303 H 0.59934 0.02045 0.49296
 N304 N 0.52043 0.02623 0.42601
 N305 N 0.51049 0.04297 0.43061
 C306 C 0.49552 0.04571 0.41701
 C307 C 0.49601 0.02995 0.40310
 C308 C 0.51210 0.01794 0.40933
 H309 H 0.48497 0.05823 0.41732
 H310 H 0.51735 0.00410 0.40233
 H311 H 0.52816 0.03267 0.46407
 H312 H 0.54491 0.04706 0.44633
 N313 N -0.02663 0.07492 0.52174
 N314 N -0.04286 0.06954 0.51153
 C315 C -0.04547 0.08248 0.49597
 C316 C -0.03004 0.09681 0.49645
 C317 C -0.01837 0.09144 0.51307
 H318 H -0.05772 0.08151 0.48515
 H319 H -0.00487 0.09893 0.51856
 Cu320 Cu -0.05905 0.04620 0.51963
 Cu321 Cu -0.01736 0.06021 0.54554
 Cu322 Cu -0.04529 0.01797 0.55973
 N323 N -0.07423 0.02215 0.52755
 N324 N -0.06878 0.01119 0.54323
 C325 C -0.08173 -0.00445 0.54532
 C326 C -0.09618 -0.00332 0.53011
 C327 C -0.09086 0.01381 0.51912
 H328 H -0.08061 -0.01579 0.55707
 H329 H -0.09847 0.01978 0.50593
 N330 N -0.02106 0.02725 0.57454
 N331 N -0.01042 0.04333 0.56919
 C332 C 0.00507 0.04572 0.58228
 C333 C 0.00418 0.03040 0.59664
 C334 C -0.01263 0.01900 0.59117
 H335 H 0.01615 0.05776 0.58141
 H336 H -0.01838 0.00566 0.59873
 H337 H -0.02939 0.03260 0.53697
 H338 H -0.04531 0.04882 0.55383
 N339 N 0.47359 0.57514 0.02201
 N340 N 0.45765 0.56946 0.01152
 C341 C 0.45492 0.58247 -0.00396
 C342 C 0.47005 0.59712 -0.00323
 C343 C 0.48162 0.59187 0.01352
 H344 H 0.44285 0.58130 -0.01495
 H345 H 0.49491 0.59960 0.01921
 Cu346 Cu 0.44196 0.54566 0.01918
 Cu347 Cu 0.48282 0.56036 0.04581
 Cu348 Cu 0.45467 0.51814 0.06009
 N349 N 0.42612 0.52219 0.02750
 N350 N 0.43115 0.51153 0.04351
 C351 C 0.41784 0.49622 0.04581
 C352 C 0.40353 0.49732 0.03044
 C353 C 0.40933 0.51408 0.01912
 H354 H 0.41858 0.48516 0.05785
 H355 H 0.40195 0.51994 0.00577
 N356 N 0.47900 0.52736 0.07489
 N357 N 0.48968 0.54340 0.06944
 C358 C 0.50526 0.54574 0.08242
 C359 C 0.50442 0.53046 0.09680
 C360 C 0.48753 0.51909 0.09148
 H361 H 0.51639 0.55772 0.08141
 H362 H 0.48183 0.50575 0.09908
 H363 H 0.47119 0.53242 0.03779
 H364 H 0.45475 0.54883 0.05379
 N365 N 0.52664 -0.07488 0.02223
 N366 N 0.54288 -0.06954 0.01201
 C367 C 0.54544 -0.08249 -0.00355
 C368 C 0.52996 -0.09678 -0.00310
 C369 C 0.51833 -0.09138 0.01354
 H370 H 0.55768 -0.08155 -0.01437
 H371 H 0.50480 -0.09883 0.01902
 Cu372 Cu 0.55912 -0.04622 0.02008
 Cu373 Cu 0.51745 -0.06009 0.04603
 Cu374 Cu 0.54552 -0.01793 0.06021
 N375 N 0.57441 -0.02221 0.02799
 N376 N 0.56900 -0.01125 0.04368
 C377 C 0.58206 0.00430 0.04586
 C378 C 0.59655 0.00310 0.03069
 C379 C 0.59113 -0.01396 0.01962
 H380 H 0.58099 0.01560 0.05765
 H381 H 0.59875 -0.01997 0.00646
 N382 N 0.52127 -0.02711 0.07505
 N383 N 0.51059 -0.04316 0.06967
 C384 C 0.49507 -0.04549 0.08273
 C385 C 0.49598 -0.03016 0.09709
 C386 C 0.51284 -0.01882 0.09167
 H387 H 0.48396 -0.05750 0.08183
 H388 H 0.51863 -0.00550 0.09926
 H389 H 0.52957 -0.03246 0.03747
 H390 H 0.54548 -0.04873 0.05431
 N391 N 1.02597 0.42520 0.52155
 N392 N 1.04203 0.43078 0.51117
 C393 C 1.04457 0.41791 0.49553
 C394 C 1.02927 0.40343 0.49613
 C395 C 1.01776 0.40865 0.51290
 H396 H 1.05672 0.41897 0.48462
 H397 H 1.00440 0.40101 0.51853
 Cu398 Cu 1.05824 0.45405 0.51946
 Cu399 Cu 1.01676 0.43973 0.54552
 Cu400 Cu 1.04288 0.48364 0.55773
 N401 N 1.07369 0.47790 0.52762
 N402 N 1.06768 0.48926 0.54281
 C403 C 1.08065 0.50485 0.54512
 C404 C 1.09571 0.50328 0.53056
 C405 C 1.09076 0.48591 0.51974
 H406 H 1.07898 0.51656 0.55644
 H407 H 1.09883 0.47963 0.50697
 N408 N 1.01979 0.47348 0.57373
 N409 N 1.00986 0.45672 0.56912
 C410 C 0.99481 0.45398 0.58263
 C411 C 0.99523 0.46978 0.59649
 C412 C 1.01136 0.48180 0.59033
 H413 H 0.98422 0.44147 0.58225
 H414 H 1.01654 0.49570 0.59729
 H415 H 1.02765 0.46699 0.53564
 H416 H 1.04432 0.45266 0.55349
 Si417 Si 0.37415 -0.00024 0.25005
 Si418 Si 0.12606 -0.00046 0.74961
 Si419 Si 0.62601 0.50001 0.25009
 Si420 Si 0.87424 0.49985 0.75008
 Si421 Si 0.24996 0.37577 0.00003
 Si422 Si 0.75042 0.12440 -0.00003
 Si423 Si 0.24996 0.62415 0.49964
 Si424 Si 0.74980 0.87576 0.50002
 Si425 Si -0.00027 0.24993 0.37456
 Si426 Si 0.00006 0.75009 0.12482
 Si427 Si 0.50000 0.25000 0.62545
 Si428 Si 0.49983 0.75009 0.87459
 C429 C 0.10279 0.22951 0.29361
 C430 C 0.11597 0.21319 0.29674
 C431 C 0.13231 0.20999 0.28362
 C432 C 0.13572 0.22313 0.26714
 C433 C 0.12236 0.23953 0.26421
 C434 C 0.10605 0.24268 0.27735
 C435 C 0.08590 0.23273 0.30703
 C436 C 0.07172 0.23550 0.31821
 C437 C 0.05480 0.23892 0.33155
 C438 C 0.03771 0.22632 0.33061
 C439 C 0.02127 0.22974 0.34354
 C440 C 0.02186 0.24566 0.35763
 C441 C 0.03892 0.25839 0.35835
 C442 C 0.05534 0.25498 0.34541
 H443 H 0.11361 0.20292 0.30933
 H444 H 0.14218 0.19723 0.28649
 H445 H 0.12437 0.25001 0.25180
 H446 H 0.09597 0.25540 0.27480
 H447 H 0.03708 0.21390 0.31989
 H448 H 0.00812 0.21990 0.34261
 H449 H 0.03961 0.27102 0.36876
 H450 H 0.06844 0.26491 0.34617
 C451 C 0.60395 0.72967 0.79451
 C452 C 0.60688 0.74271 0.77808
 C453 C 0.62313 0.73967 0.76483
 C454 C 0.63674 0.72347 0.76781
 C455 C 0.63362 0.71045 0.78443
 C456 C 0.61735 0.71354 0.79765
 C457 C 0.58712 0.73283 0.80804
 C458 C 0.57292 0.73558 0.81921
 C459 C 0.55579 0.73893 0.83231
 C460 C 0.53639 0.74112 0.82403
 C461 C 0.51970 0.74435 0.83665
 C462 C 0.52222 0.74567 0.85773
 C463 C 0.54171 0.74317 0.86595
 C464 C 0.55841 0.73988 0.85331
 H465 H 0.59658 0.75525 0.77548
 H466 H 0.62491 0.75006 0.75231
 H467 H 0.64368 0.69783 0.78731
 H468 H 0.61521 0.70331 0.81032
 H469 H 0.53413 0.74025 0.80781
 H470 H 0.50489 0.74559 0.82979
 H471 H 0.54410 0.74346 0.88210
 H472 H 0.57334 0.73801 0.85991
 C473 C 0.39569 0.77003 0.79466
 C474 C 0.39243 0.75667 0.77854
 C475 C 0.37626 0.75979 0.76522
 C476 C 0.36305 0.77637 0.76780
 C477 C 0.36651 0.78974 0.78409
 C478 C 0.38270 0.78658 0.79740
 C479 C 0.41244 0.76682 0.80827
 C480 C 0.42657 0.76410 0.81954
 C481 C 0.44358 0.76090 0.83284
 C482 C 0.44382 0.74429 0.84605
 C483 C 0.46049 0.74108 0.85877
 C484 C 0.47704 0.75449 0.85840
 C485 C 0.47674 0.77104 0.84502
 C486 C 0.46008 0.77426 0.83236
 H487 H 0.40242 0.74383 0.77625
 H488 H 0.37423 0.74915 0.75293
 H489 H 0.35678 0.80268 0.78666
 H490 H 0.38510 0.79705 0.80982
 H491 H 0.43120 0.73375 0.84643
 H492 H 0.46046 0.72800 0.86864
 H493 H 0.48951 0.78137 0.84429
 H494 H 0.46014 0.78709 0.82211
 C495 C -0.10312 0.27055 0.29338
 C496 C -0.10647 0.25730 0.27721
 C497 C -0.12283 0.26038 0.26412
 C498 C -0.13623 0.27685 0.26695
 C499 C -0.13258 0.29012 0.28335
 C500 C -0.11618 0.28696 0.29641
 C501 C -0.08629 0.26726 0.30687
 C502 C -0.07218 0.26442 0.31813
 C503 C -0.05533 0.26097 0.33154
 C504 C -0.05591 0.24492 0.34541
 C505 C -0.03950 0.24150 0.35837
 C506 C -0.02241 0.25421 0.35765
 C507 C -0.02180 0.27012 0.34357
 C508 C -0.03822 0.27355 0.33063
 H509 H -0.09642 0.24455 0.27470
 H510 H -0.12479 0.24973 0.25184
 H511 H -0.14231 0.30297 0.28632
 H512 H -0.11372 0.29732 0.30891
 H513 H -0.06902 0.23502 0.34617
 H514 H -0.04020 0.22889 0.36879
 H515 H -0.00864 0.27993 0.34266
 H516 H -0.03757 0.28596 0.31991
 C517 C -0.10288 0.72986 0.20599
 C518 C -0.11631 0.71374 0.20275
 C519 C -0.13272 0.71072 0.21583
 C520 C -0.13593 0.72380 0.23238
 C521 C -0.12231 0.74000 0.23543
 C522 C -0.10593 0.74298 0.22233
 C523 C -0.08597 0.73299 0.19256
 C524 C -0.07179 0.73570 0.18135
 C525 C -0.05486 0.73898 0.16799
 C526 C -0.04929 0.72398 0.15406
 C527 C -0.03287 0.72717 0.14104
 C528 C -0.02198 0.74546 0.14177
 C529 C -0.02747 0.76034 0.15592
 C530 C -0.04389 0.75716 0.16892
 H531 H -0.11411 0.70349 0.19012
 H532 H -0.14280 0.69811 0.21288
 H533 H -0.12419 0.75046 0.24789
 H534 H -0.09563 0.75554 0.22498
 H535 H -0.05760 0.70981 0.15329
 H536 H -0.02873 0.71529 0.13056
 H537 H -0.01909 0.77446 0.15683
 H538 H -0.04801 0.76884 0.17969
 C539 C 0.39672 0.22942 0.70660
 C540 C 0.38361 0.21299 0.70370
 C541 C 0.36728 0.20987 0.71686
 C542 C 0.36373 0.22319 0.73324
 C543 C 0.37710 0.23975 0.73585
 C544 C 0.39339 0.24280 0.72265
 C545 C 0.41361 0.23258 0.69313
 C546 C 0.42779 0.23533 0.68191
 C547 C 0.44472 0.23875 0.66856
 C548 C 0.46215 0.22675 0.67009
 C549 C 0.47864 0.23023 0.65722
 C550 C 0.47777 0.24552 0.64245
 C551 C 0.46040 0.25781 0.64135
 C552 C 0.44394 0.25436 0.65424
 H553 H 0.38603 0.20254 0.69127
 H554 H 0.35758 0.19694 0.71405
 H555 H 0.37517 0.25049 0.74806
 H556 H 0.40343 0.25562 0.72502
 H557 H 0.46307 0.21482 0.68133
 H558 H 0.49217 0.22121 0.65915
 H559 H 0.45946 0.27023 0.63077
 H560 H 0.43066 0.26396 0.65313
 C561 C 0.60352 0.27027 0.70614
 C562 C 0.60684 0.25691 0.72223
 C563 C 0.62309 0.26001 0.73548
 C564 C 0.63645 0.27660 0.73289
 C565 C 0.63288 0.28992 0.71653
 C566 C 0.61658 0.28675 0.70332
 C567 C 0.58667 0.26709 0.69260
 C568 C 0.57251 0.26438 0.68133
 C569 C 0.55555 0.26108 0.66796
 C570 C 0.55668 0.24629 0.65279
 C571 C 0.54015 0.24294 0.63992
 C572 C 0.52233 0.25434 0.64216
 C573 C 0.52126 0.26916 0.65737
 C574 C 0.53781 0.27255 0.67019
 H575 H 0.59682 0.24408 0.72457
 H576 H 0.62501 0.24929 0.74770
 H577 H 0.64254 0.30288 0.71376
 H578 H 0.61416 0.29720 0.69090
 H579 H 0.57032 0.23733 0.65092
 H580 H 0.54139 0.23149 0.62826
 H581 H 0.50762 0.27810 0.65931
 H582 H 0.53676 0.28406 0.68185
 C583 C 0.10303 0.77069 0.20592
 C584 C 0.10618 0.75759 0.22226
 C585 C 0.12263 0.76060 0.23527
 C586 C 0.13622 0.77681 0.23216
 C587 C 0.13290 0.78988 0.21562
 C588 C 0.11642 0.78682 0.20262
 C589 C 0.08608 0.76753 0.19255
 C590 C 0.07188 0.76480 0.18135
 C591 C 0.05497 0.76146 0.16798
 C592 C 0.04403 0.74326 0.16895
 C593 C 0.02763 0.73999 0.15594
 C594 C 0.02212 0.75481 0.14174
 C595 C 0.03297 0.77312 0.14097
 C596 C 0.04937 0.77640 0.15400
 H597 H 0.09591 0.74502 0.22496
 H598 H 0.12458 0.75016 0.24772
 H599 H 0.14296 0.80249 0.21261
 H600 H 0.11413 0.79705 0.18999
 H601 H 0.04817 0.73162 0.17976
 H602 H 0.01928 0.72586 0.15689
 H603 H 0.02880 0.78496 0.13046
 H604 H 0.05766 0.79058 0.15319
 C605 C 0.29311 0.10297 0.23013
 C606 C 0.29649 0.11605 0.21382
 C607 C 0.28350 0.13247 0.21044
 C608 C 0.26689 0.13606 0.22335
 C609 C 0.26371 0.12282 0.23979
 C610 C 0.27673 0.10641 0.24313
 C611 C 0.30639 0.08597 0.23345
 C612 C 0.31752 0.07172 0.23616
 C613 C 0.33086 0.05473 0.23933
 C614 C 0.34476 0.04917 0.22430
 C615 C 0.35782 0.03276 0.22740
 C616 C 0.35717 0.02184 0.24562
 C617 C 0.34302 0.02729 0.26051
 C618 C 0.32997 0.04371 0.25742
 H619 H 0.30916 0.11357 0.20367
 H620 H 0.28656 0.14224 0.19767
 H621 H 0.25121 0.12501 0.25014
 H622 H 0.27400 0.09640 0.25585
 H623 H 0.34548 0.05750 0.21018
 H624 H 0.36828 0.02863 0.21550
 H625 H 0.34213 0.01887 0.27456
 H626 H 0.31921 0.04780 0.26911
 C627 C 0.79478 0.60408 0.72900
 C628 C 0.79776 0.61722 0.71266
 C629 C 0.78462 0.63356 0.70960
 C630 C 0.76823 0.63702 0.72284
 C631 C 0.76544 0.62371 0.73929
 C632 C 0.77861 0.60737 0.74231
 C633 C 0.80822 0.58715 0.73202
 C634 C 0.81935 0.57287 0.73457
 C635 C 0.83234 0.55563 0.73774
 C636 C 0.85348 0.55783 0.73731
 C637 C 0.86598 0.54103 0.74079
 C638 C 0.85744 0.52197 0.74493
 C639 C 0.83625 0.51979 0.74490
 C640 C 0.82378 0.53655 0.74141
 H641 H 0.81022 0.61482 0.70225
 H642 H 0.78740 0.64339 0.69681
 H643 H 0.75310 0.62580 0.74986
 H644 H 0.77615 0.59728 0.75502
 H645 H 0.86027 0.57251 0.73439
 H646 H 0.88229 0.54296 0.74048
 H647 H 0.82921 0.50523 0.74756
 H648 H 0.80745 0.53463 0.74162
 C649 C 0.79422 0.39588 0.77048
 C650 C 0.79730 0.38256 0.78665
 C651 C 0.78393 0.36642 0.78987
 C652 C 0.76721 0.36331 0.77693
 C653 C 0.76422 0.37688 0.76074
 C654 C 0.77764 0.39303 0.75756
 C655 C 0.80801 0.41250 0.76726
 C656 C 0.81953 0.42649 0.76464
 C657 C 0.83313 0.44331 0.76156
 C658 C 0.84630 0.44348 0.74495
 C659 C 0.85905 0.46013 0.74163
 C660 C 0.85858 0.47681 0.75481
 C661 C 0.84576 0.47631 0.77176
 C662 C 0.83301 0.45968 0.77506
 H663 H 0.81006 0.38464 0.79679
 H664 H 0.78681 0.35645 0.80253
 H665 H 0.75157 0.37513 0.75048
 H666 H 0.77508 0.40330 0.74502
 H667 H 0.84659 0.43084 0.73447
 H668 H 0.86906 0.45993 0.72868
 H669 H 0.84532 0.48898 0.78219
 H670 H 0.82293 0.45969 0.78801
 C671 C 0.29280 -0.10331 0.27016
 C672 C 0.29601 -0.11631 0.28655
 C673 C 0.28315 -0.13288 0.28974
 C674 C 0.26671 -0.13677 0.27657
 C675 C 0.26371 -0.12348 0.26007
 C676 C 0.27664 -0.10693 0.25694
 C677 C 0.30611 -0.08630 0.26689
 C678 C 0.31731 -0.07209 0.26415
 C679 C 0.33074 -0.05518 0.26089
 C680 C 0.34471 -0.04962 0.27587
 C681 C 0.35781 -0.03323 0.27273
 C682 C 0.35715 -0.02234 0.25450
 C683 C 0.34297 -0.02781 0.23962
 C684 C 0.32988 -0.04421 0.24276
 H685 H 0.30850 -0.11366 0.29689
 H686 H 0.28626 -0.14251 0.30260
 H687 H 0.25145 -0.12568 0.24943
 H688 H 0.27402 -0.09694 0.24418
 H689 H 0.34543 -0.05792 0.29001
 H690 H 0.36831 -0.02909 0.28461
 H691 H 0.34210 -0.01943 0.22554
 H692 H 0.31908 -0.04833 0.23109
 C693 C 0.20596 -0.10472 0.72992
 C694 C 0.22258 -0.10782 0.74270
 C695 C 0.23575 -0.12409 0.73935
 C696 C 0.23254 -0.13765 0.72309
 C697 C 0.21568 -0.13425 0.71033
 C698 C 0.20256 -0.11795 0.71375
 C699 C 0.19248 -0.08789 0.73330
 C700 C 0.18122 -0.07374 0.73600
 C701 C 0.16788 -0.05674 0.73909
 C702 C 0.16834 -0.04034 0.72565
 C703 C 0.15565 -0.02367 0.72877
 C704 C 0.14224 -0.02328 0.74528
 C705 C 0.14185 -0.03975 0.75873
 C706 C 0.15459 -0.05642 0.75562
 H707 H 0.22538 -0.09762 0.75526
 H708 H 0.24839 -0.12587 0.74961
 H709 H 0.21244 -0.14405 0.69762
 H710 H 0.18975 -0.11566 0.70373
 H711 H 0.17861 -0.04037 0.71284
 H712 H 0.15640 -0.01098 0.71839
 H713 H 0.13194 -0.03970 0.77177
 H714 H 0.15419 -0.06899 0.76618
 C715 C 0.70659 0.39621 0.23042
 C716 C 0.72275 0.39267 0.24367
 C717 C 0.73579 0.37627 0.24044
 C718 C 0.73287 0.36315 0.22386
 C719 C 0.71653 0.36691 0.21062
 C720 C 0.70353 0.38332 0.21389
 C721 C 0.69319 0.41310 0.23377
 C722 C 0.68201 0.42729 0.23658
 C723 C 0.66880 0.44432 0.23993
 C724 C 0.67703 0.46340 0.24432
 C725 C 0.66427 0.48003 0.24742
 C726 C 0.64313 0.47778 0.24608
 C727 C 0.63496 0.45853 0.24195
 C728 C 0.64773 0.44190 0.23882
 H729 H 0.72529 0.40259 0.25650
 H730 H 0.74811 0.37398 0.25099
 H731 H 0.71369 0.35725 0.19771
 H732 H 0.69107 0.38594 0.20351
 H733 H 0.69332 0.46542 0.24535
 H734 H 0.67105 0.49455 0.25092
 H735 H 0.61869 0.45639 0.24113
 H736 H 0.64118 0.42717 0.23553
 C737 C 0.70613 0.60409 0.26971
 C738 C 0.70313 0.61694 0.28628
 C739 C 0.71635 0.63317 0.28974
 C740 C 0.73282 0.63683 0.27666
 C741 C 0.73573 0.62371 0.26007
 C742 C 0.72248 0.60748 0.25664
 C743 C 0.69248 0.58739 0.26622
 C744 C 0.68104 0.57337 0.26341
 C745 C 0.66747 0.55654 0.26019
 C746 C 0.65630 0.54860 0.27638
 C747 C 0.64358 0.53186 0.27341
 C748 C 0.64188 0.52300 0.25418
 C749 C 0.65296 0.53110 0.23796
 C750 C 0.66572 0.54780 0.24095
 H751 H 0.69055 0.61443 0.29653
 H752 H 0.71354 0.64280 0.30269
 H753 H 0.74819 0.62589 0.24966
 H754 H 0.72499 0.59758 0.24378
 H755 H 0.65759 0.55521 0.29135
 H756 H 0.63544 0.52571 0.28622
 H757 H 0.65196 0.52432 0.22305
 H758 H 0.67435 0.55376 0.22833
 C759 C 0.20625 0.10388 0.76976
 C760 C 0.20286 0.11715 0.78591
 C761 C 0.21606 0.13342 0.78931
 C762 C 0.23290 0.13667 0.77658
 C763 C 0.23610 0.12322 0.76032
 C764 C 0.22287 0.10696 0.75696
 C765 C 0.19280 0.08699 0.76641
 C766 C 0.18165 0.07274 0.76364
 C767 C 0.16852 0.05558 0.76036
 C768 C 0.14748 0.05818 0.75946
 C769 C 0.13479 0.04145 0.75630
 C770 C 0.14300 0.02194 0.75390
 C771 C 0.16413 0.01945 0.75517
 C772 C 0.17681 0.03617 0.75827
 H773 H 0.19004 0.11491 0.79592
 H774 H 0.21299 0.14335 0.80196
 H775 H 0.24881 0.12512 0.75016
 H776 H 0.22564 0.09676 0.74440
 H777 H 0.14087 0.07311 0.76127
 H778 H 0.11861 0.04383 0.75602
 H779 H 0.17100 0.00463 0.75399
 H780 H 0.19307 0.03394 0.75911
 C781 C 0.22959 0.29430 0.10267
 C782 C 0.21326 0.29751 0.11580
 C783 C 0.21005 0.28446 0.13217
 C784 C 0.22314 0.26795 0.13568
 C785 C 0.23953 0.26490 0.12234
 C786 C 0.24270 0.27797 0.10598
 C787 C 0.23291 0.30774 0.08582
 C788 C 0.23570 0.31900 0.07170
 C789 C 0.23900 0.33245 0.05485
 C790 C 0.22399 0.34638 0.04928
 C791 C 0.22716 0.35946 0.03292
 C792 C 0.24544 0.35879 0.02207
 C793 C 0.26035 0.34466 0.02756
 C794 C 0.25719 0.33160 0.04394
 H795 H 0.20300 0.31011 0.11338
 H796 H 0.19727 0.28740 0.14199
 H797 H 0.24996 0.25243 0.12441
 H798 H 0.25540 0.27533 0.09591
 H799 H 0.20981 0.34709 0.05754
 H800 H 0.21526 0.36993 0.02878
 H801 H 0.27447 0.34380 0.01923
 H802 H 0.26889 0.32084 0.04806
 C803 C 0.72934 0.79605 0.60381
 C804 C 0.71303 0.79885 0.61702
 C805 C 0.70994 0.78541 0.63308
 C806 C 0.72316 0.76892 0.63620
 C807 C 0.73951 0.76623 0.62274
 C808 C 0.74255 0.77971 0.60668
 C809 C 0.73245 0.80988 0.58725
 C810 C 0.73504 0.82137 0.57330
 C811 C 0.73815 0.83491 0.55651
 C812 C 0.72468 0.83468 0.54012
 C813 C 0.72806 0.84733 0.52349
 C814 C 0.74504 0.86017 0.52300
 C815 C 0.75821 0.86075 0.53969
 C816 C 0.75482 0.84810 0.55633
 H817 H 0.70267 0.81143 0.61492
 H818 H 0.69716 0.78806 0.64297
 H819 H 0.75001 0.75378 0.62451
 H820 H 0.75522 0.77739 0.59649
 H821 H 0.71170 0.82458 0.54011
 H822 H 0.71764 0.84681 0.51082
 H823 H 0.77119 0.87077 0.53989
 H824 H 0.76528 0.84847 0.56898
 C825 C 0.77115 0.79615 0.39617
 C826 C 0.78736 0.79915 0.38286
 C827 C 0.79036 0.78587 0.36664
 C828 C 0.77717 0.76932 0.36349
 C829 C 0.76083 0.76654 0.37694
 C830 C 0.75788 0.77985 0.39315
 C831 C 0.76821 0.80966 0.41302
 C832 C 0.76566 0.82081 0.42726
 C833 C 0.76241 0.83381 0.44445
 C834 C 0.76278 0.85494 0.44223
 C835 C 0.75920 0.86746 0.45896
 C836 C 0.75502 0.85895 0.47797
 C837 C 0.75511 0.83776 0.48017
 C838 C 0.75870 0.82527 0.46347
 H839 H 0.79773 0.81173 0.38504
 H840 H 0.80305 0.78866 0.35668
 H841 H 0.75029 0.75410 0.37508
 H842 H 0.74525 0.77740 0.40336
 H843 H 0.76572 0.86171 0.42758
 H844 H 0.75946 0.88378 0.45703
 H845 H 0.75243 0.83074 0.49469
 H846 H 0.75851 0.80894 0.46539
 C847 C 0.27024 0.29471 -0.10293
 C848 C 0.25711 0.27840 -0.10637
 C849 C 0.26031 0.26541 -0.12279
 C850 C 0.27676 0.26854 -0.13606
 C851 C 0.28984 0.28507 -0.13245
 C852 C 0.28658 0.29804 -0.11601
 C853 C 0.26694 0.30803 -0.08597
 C854 C 0.26419 0.31919 -0.07178
 C855 C 0.26092 0.33256 -0.05486
 C856 C 0.24276 0.33160 -0.04391
 C857 C 0.23958 0.34464 -0.02752
 C858 C 0.25447 0.35884 -0.02203
 C859 C 0.27274 0.35959 -0.03290
 C860 C 0.27591 0.34655 -0.04929
 H861 H 0.24438 0.27569 -0.09635
 H862 H 0.24986 0.25296 -0.12496
 H863 H 0.30262 0.28809 -0.14223
 H864 H 0.29684 0.31064 -0.11350
 H865 H 0.23108 0.32078 -0.04803
 H866 H 0.22548 0.34370 -0.01916
 H867 H 0.28463 0.37011 -0.02876
 H868 H 0.29007 0.34733 -0.05758
 C869 C 0.72929 0.20446 -0.10359
 C870 C 0.71296 0.20141 -0.11677
 C871 C 0.70983 0.21460 -0.13304
 C872 C 0.72301 0.23110 -0.13641
 C873 C 0.73939 0.23402 -0.12301
 C874 C 0.74248 0.22080 -0.10675
 C875 C 0.73252 0.19084 -0.08685
 C876 C 0.73527 0.17946 -0.07282
 C877 C 0.73865 0.16597 -0.05601
 C878 C 0.72406 0.16418 -0.04070
 C879 C 0.72754 0.15141 -0.02417
 C880 C 0.74565 0.14035 -0.02277
 C881 C 0.76020 0.14209 -0.03818
 C882 C 0.75669 0.15482 -0.05474
 H883 H 0.70262 0.18882 -0.11448
 H884 H 0.69706 0.21176 -0.14290
 H885 H 0.74989 0.24647 -0.12498
 H886 H 0.75517 0.22332 -0.09663
 H887 H 0.71008 0.17278 -0.04147
 H888 H 0.71622 0.15035 -0.01234
 H889 H 0.77440 0.13392 -0.03731
 H890 H 0.76811 0.15614 -0.06645
 C891 C 0.22956 0.70473 0.39609
 C892 C 0.21317 0.70183 0.38296
 C893 C 0.20992 0.71525 0.36691
 C894 C 0.22304 0.73185 0.36373
 C895 C 0.23947 0.73462 0.37709
 C896 C 0.24268 0.72115 0.39313
 C897 C 0.23280 0.69097 0.41269
 C898 C 0.23546 0.67952 0.42667
 C899 C 0.23860 0.66602 0.44350
 C900 C 0.22501 0.66605 0.45976
 C901 C 0.22829 0.65332 0.47635
 C902 C 0.24514 0.64031 0.47686
 C903 C 0.25879 0.64048 0.46053
 C904 C 0.25549 0.65319 0.44392
 H905 H 0.20289 0.68917 0.38511
 H906 H 0.19710 0.71252 0.35708
 H907 H 0.24992 0.74713 0.37525
 H908 H 0.25541 0.72357 0.40323
 H909 H 0.21201 0.67610 0.45972
 H910 H 0.21792 0.65415 0.48894
 H911 H 0.27225 0.63115 0.46064
 H912 H 0.26623 0.65319 0.43151
 C913 C 0.26907 0.70375 0.60406
 C914 C 0.25603 0.72019 0.60710
 C915 C 0.25932 0.73359 0.62319
 C916 C 0.27576 0.73074 0.63653
 C917 C 0.28876 0.71410 0.63330
 C918 C 0.28543 0.70073 0.61720
 C919 C 0.26584 0.69017 0.58729
 C920 C 0.26316 0.67899 0.57308
 C921 C 0.26002 0.66599 0.55584
 C922 C 0.25973 0.67432 0.53637
 C923 C 0.25675 0.66183 0.51954
 C924 C 0.25390 0.64088 0.52202
 C925 C 0.25423 0.63255 0.54156
 C926 C 0.25730 0.64506 0.55842
 H927 H 0.24333 0.72271 0.59700
 H928 H 0.24895 0.74614 0.62506
 H929 H 0.30157 0.71130 0.64312
 H930 H 0.29566 0.68807 0.61497
 H931 H 0.26189 0.69047 0.53419
 H932 H 0.25685 0.66862 0.50464
 H933 H 0.25218 0.61639 0.54375
 H934 H 0.25757 0.63843 0.57342
 C935 C 0.77131 0.20476 0.10362
 C936 C 0.78727 0.20135 0.11713
 C937 C 0.79050 0.21462 0.13334
 C938 C 0.77778 0.23154 0.13627
 C939 C 0.76175 0.23477 0.12255
 C940 C 0.75857 0.22148 0.10636
 C941 C 0.76804 0.19120 0.08685
 C942 C 0.76523 0.18001 0.07269
 C943 C 0.76182 0.16687 0.05562
 C944 C 0.76165 0.14578 0.05813
 C945 C 0.75833 0.13311 0.04148
 C946 C 0.75499 0.14139 0.02218
 C947 C 0.75537 0.16255 0.01975
 C948 C 0.75872 0.17521 0.03639
 H949 H 0.79724 0.18845 0.11515
 H950 H 0.80298 0.21152 0.14349
 H951 H 0.75157 0.24750 0.12422
 H952 H 0.74615 0.22427 0.09598
 H953 H 0.76408 0.13915 0.07294
 H954 H 0.75835 0.11682 0.04365
 H955 H 0.75318 0.16941 0.00506
 H956 H 0.75891 0.19151 0.03426
 C957 C 0.48005 0.35369 0.54492
 C958 C 0.46349 0.36667 0.54763
 C959 C 0.46028 0.38280 0.53427
 C960 C 0.47360 0.38621 0.51794
 C961 C 0.49018 0.37299 0.51536
 C962 C 0.49335 0.35687 0.52875
 C963 C 0.48331 0.33703 0.55864
 C964 C 0.48602 0.32300 0.57003
 C965 C 0.48916 0.30610 0.58347
 C966 C 0.47576 0.28962 0.58311
 C967 C 0.47897 0.27303 0.59586
 C968 C 0.49554 0.27277 0.60922
 C969 C 0.50895 0.28932 0.60952
 C970 C 0.50576 0.30592 0.59671
 H971 H 0.45305 0.36432 0.56008
 H972 H 0.44733 0.39252 0.53682
 H973 H 0.50077 0.37498 0.50304
 H974 H 0.50620 0.34689 0.52647
 H975 H 0.46291 0.28954 0.57287
 H976 H 0.46860 0.26028 0.59519
 H977 H 0.52204 0.28938 0.61940
 H978 H 0.51632 0.31853 0.59702
 C979 C -0.02025 0.85293 0.04358
 C980 C -0.03678 0.86593 0.04635
 C981 C -0.03991 0.88218 0.03312
 C982 C -0.02652 0.88569 0.01687
 C983 C -0.00990 0.87252 0.01429
 C984 C -0.00682 0.85629 0.02755
 C985 C -0.01712 0.83612 0.05711
 C986 C -0.01444 0.82198 0.06837
 C987 C -0.01115 0.80506 0.08174
 C988 C -0.02615 0.79938 0.09564
 C989 C -0.02293 0.78294 0.10862
 C990 C -0.00462 0.77213 0.10788
 C991 C 0.01025 0.77771 0.09375
 C992 C 0.00704 0.79415 0.08079
 H993 H -0.04727 0.86349 0.05874
 H994 H -0.05285 0.89190 0.03571
 H995 H 0.00077 0.87462 0.00206
 H996 H 0.00605 0.84633 0.02527
 H997 H -0.04034 0.80763 0.09641
 H998 H -0.03481 0.77871 0.11907
 H999 H 0.02438 0.76939 0.09282
 H1000 H 0.01872 0.79835 0.07004
 C1001 C 0.02056 0.64715 0.04369
 C1002 C 0.03688 0.63396 0.04677
 C1003 C 0.03993 0.61753 0.03373
 C1004 C 0.02667 0.61404 0.01736
 C1005 C 0.01032 0.62747 0.01442
 C1006 C 0.00732 0.64388 0.02748
 C1007 C 0.01738 0.66403 0.05714
 C1008 C 0.01465 0.67818 0.06838
 C1009 C 0.01131 0.69507 0.08177
 C1010 C 0.02629 0.70074 0.09571
 C1011 C 0.02305 0.71718 0.10870
 C1012 C 0.00473 0.72799 0.10794
 C1013 C -0.01013 0.72239 0.09380
 C1014 C -0.00689 0.70595 0.08083
 H1015 H 0.04725 0.63638 0.05927
 H1016 H 0.05271 0.60766 0.03655
 H1017 H -0.00022 0.62543 0.00205
 H1018 H -0.00536 0.65401 0.02491
 H1019 H 0.04048 0.69250 0.09650
 H1020 H 0.03492 0.72142 0.11917
 H1021 H -0.02426 0.73071 0.09285
 H1022 H -0.01856 0.70174 0.07006
 C1023 C 0.52033 0.14606 0.54501
 C1024 C 0.50710 0.14306 0.52874
 C1025 C 0.51011 0.12688 0.51539
 C1026 C 0.52646 0.11341 0.51810
 C1027 C 0.53968 0.11660 0.53456
 C1028 C 0.53663 0.13280 0.54789
 C1029 C 0.51723 0.16284 0.55863
 C1030 C 0.51454 0.17702 0.56985
 C1031 C 0.51122 0.19412 0.58300
 C1032 C 0.50913 0.21356 0.57479
 C1033 C 0.50586 0.23022 0.58746
 C1034 C 0.50443 0.22764 0.60852
 C1035 C 0.50684 0.20811 0.61667
 C1036 C 0.51015 0.19144 0.60399
 H1037 H 0.49444 0.15325 0.52634
 H1038 H 0.49958 0.12504 0.50297
 H1039 H 0.55244 0.10667 0.53724
 H1040 H 0.54701 0.13499 0.56043
 H1041 H 0.51010 0.21587 0.55858
 H1042 H 0.50469 0.24506 0.58064
 H1043 H 0.50646 0.20567 0.63281
 H1044 H 0.51194 0.17648 0.61054
 C1045 C -0.02057 0.14715 0.45596
 C1046 C -0.03701 0.13404 0.45301
 C1047 C -0.04011 0.11766 0.46611
 C1048 C -0.02677 0.11415 0.48241
 C1049 C -0.01027 0.12747 0.48518
 C1050 C -0.00722 0.14382 0.47206
 C1051 C -0.01736 0.16401 0.44249
 C1052 C -0.01457 0.17815 0.43123
 C1053 C -0.01117 0.19500 0.41780
 C1054 C -0.02377 0.21207 0.41867
 C1055 C -0.02042 0.22843 0.40563
 C1056 C -0.00455 0.22781 0.39150
 C1057 C 0.00817 0.21077 0.39082
 C1058 C 0.00483 0.19442 0.40388
 H1059 H -0.04745 0.13647 0.44057
 H1060 H -0.05297 0.10784 0.46340
 H1061 H 0.00035 0.12539 0.49746
 H1062 H 0.00557 0.15387 0.47450
 H1063 H -0.03615 0.21273 0.42944
 H1064 H -0.03027 0.24155 0.40650
 H1065 H 0.02075 0.21005 0.38036
 H1066 H 0.01476 0.18134 0.40316
 C1067 C 0.47971 0.64725 0.95600
 C1068 C 0.46329 0.63411 0.95304
 C1069 C 0.46007 0.61784 0.96626
 C1070 C 0.47327 0.61446 0.98271
 C1071 C 0.48970 0.62785 0.98554
 C1072 C 0.49287 0.64410 0.97230
 C1073 C 0.48302 0.66399 0.94238
 C1074 C 0.48575 0.67804 0.93100
 C1075 C 0.48898 0.69487 0.91746
 C1076 C 0.47746 0.71258 0.91955
 C1077 C 0.48072 0.72900 0.90656
 C1078 C 0.49550 0.72783 0.89133
 C1079 C 0.50689 0.71000 0.88914
 C1080 C 0.50366 0.69360 0.90219
 H1081 H 0.45298 0.63643 0.94047
 H1082 H 0.44723 0.60800 0.96350
 H1083 H 0.50019 0.62589 0.99795
 H1084 H 0.50563 0.65417 0.97479
 H1085 H 0.46599 0.71370 0.93123
 H1086 H 0.47173 0.74261 0.90839
 H1087 H 0.51823 0.70867 0.87740
 H1088 H 0.51262 0.67994 0.90037
 C1089 C 0.52041 0.85303 0.95620
 C1090 C 0.50704 0.85634 0.97229
 C1091 C 0.51011 0.87264 0.98549
 C1092 C 0.52664 0.88593 0.98280
 C1093 C 0.53998 0.88244 0.96651
 C1094 C 0.53687 0.86612 0.95333
 C1095 C 0.51721 0.83619 0.94268
 C1096 C 0.51444 0.82207 0.93139
 C1097 C 0.51103 0.80521 0.91795
 C1098 C 0.49553 0.80611 0.90350
 C1099 C 0.49212 0.78971 0.89050
 C1100 C 0.50432 0.77229 0.89164
 C1101 C 0.51951 0.77130 0.90652
 C1102 C 0.52295 0.78772 0.91949
 H1103 H 0.49423 0.84630 0.97466
 H1104 H 0.49948 0.87472 0.99776
 H1105 H 0.55287 0.89224 0.96384
 H1106 H 0.54732 0.86371 0.94091
 H1107 H 0.48600 0.81944 0.90236
 H1108 H 0.47979 0.79074 0.87982
 H1109 H 0.52846 0.75773 0.90846
 H1110 H 0.53478 0.78671 0.93083
 C1111 C 0.01997 0.35296 0.45576
 C1112 C 0.03629 0.36618 0.45272
 C1113 C 0.03932 0.38261 0.46578
 C1114 C 0.02604 0.38606 0.48212
 C1115 C 0.00963 0.37264 0.48497
 C1116 C 0.00665 0.35623 0.47189
 C1117 C 0.01683 0.33604 0.44232
 C1118 C 0.01409 0.32187 0.43109
 C1119 C 0.01069 0.30499 0.41769
 C1120 C 0.02330 0.28792 0.41858
 C1121 C 0.01992 0.27152 0.40558
 C1122 C 0.00402 0.27210 0.39148
 C1123 C -0.00870 0.28914 0.39078
 C1124 C -0.00533 0.30553 0.40379
 H1125 H 0.04670 0.36380 0.44025
 H1126 H 0.05210 0.39252 0.46300
 H1127 H -0.00096 0.37468 0.49728
 H1128 H -0.00607 0.34610 0.47438
 H1129 H 0.03569 0.28729 0.42933
 H1130 H 0.02976 0.25840 0.40648
 H1131 H -0.02130 0.28983 0.38034
 H1132 H -0.01526 0.31860 0.40305
 C1133 C 0.35394 0.54398 0.48009
 C1134 C 0.36713 0.54719 0.46384
 C1135 C 0.38331 0.53394 0.46045
 C1136 C 0.38658 0.51722 0.47331
 C1137 C 0.37314 0.51409 0.48959
 C1138 C 0.35695 0.52738 0.49293
 C1139 C 0.33727 0.55765 0.48345
 C1140 C 0.32326 0.56909 0.48608
 C1141 C 0.30639 0.58261 0.48902
 C1142 C 0.28987 0.58192 0.47574
 C1143 C 0.27323 0.59465 0.47882
 C1144 C 0.27289 0.60815 0.49526
 C1145 C 0.28963 0.60904 0.50835
 C1146 C 0.30631 0.59629 0.50525
 H1147 H 0.36490 0.55996 0.45375
 H1148 H 0.39318 0.53692 0.44774
 H1149 H 0.37502 0.50142 0.49981
 H1150 H 0.34678 0.52470 0.50554
 H1151 H 0.28977 0.57143 0.46311
 H1152 H 0.26046 0.59377 0.46854
 H1153 H 0.28984 0.61938 0.52105
 H1154 H 0.31906 0.59700 0.51558
 C1155 C 0.85426 0.04386 -0.01980
 C1156 C 0.86720 0.04701 -0.03627
 C1157 C 0.88347 0.03387 -0.03969
 C1158 C 0.88706 0.01734 -0.02666
 C1159 C 0.87393 0.01436 -0.01011
 C1160 C 0.85767 0.02754 -0.00672
 C1161 C 0.83739 0.05728 -0.01644
 C1162 C 0.82321 0.06849 -0.01371
 C1163 C 0.80622 0.08181 -0.01055
 C1164 C 0.78955 0.08106 -0.02363
 C1165 C 0.77303 0.09397 -0.02056
 C1166 C 0.77291 0.10767 -0.00429
 C1167 C 0.78986 0.10859 0.00856
 C1168 C 0.80638 0.09566 0.00550
 H1169 H 0.86470 0.05960 -0.04650
 H1170 H 0.89313 0.03675 -0.05259
 H1171 H 0.87607 0.00187 0.00027
 H1172 H 0.84773 0.02496 0.00609
 H1173 H 0.78933 0.07053 -0.03623
 H1174 H 0.76056 0.09336 -0.03112
 H1175 H 0.79053 0.11926 0.02094
 H1176 H 0.81928 0.09648 0.01564
 C1177 C 0.64662 0.04374 0.02005
 C1178 C 0.63354 0.04703 0.03638
 C1179 C 0.61733 0.03380 0.03989
 C1180 C 0.61393 0.01704 0.02709
 C1181 C 0.62732 0.01381 0.01079
 C1182 C 0.64352 0.02708 0.00731
 C1183 C 0.66323 0.05746 0.01643
 C1184 C 0.67717 0.06895 0.01350
 C1185 C 0.69390 0.08259 0.01014
 C1186 C 0.70061 0.09529 0.02574
 C1187 C 0.71723 0.10812 0.02268
 C1188 C 0.72749 0.10822 0.00405
 C1189 C 0.72021 0.09595 -0.01175
 C1190 C 0.70360 0.08310 -0.00868
 H1191 H 0.63584 0.05985 0.04639
 H1192 H 0.60752 0.03683 0.05264
 H1193 H 0.62536 0.00110 0.00063
 H1194 H 0.65361 0.02433 -0.00533
 H1195 H 0.69306 0.09521 0.04030
 H1196 H 0.72191 0.11785 0.03496
 H1197 H 0.72719 0.09635 -0.02652
 H1198 H 0.69837 0.07354 -0.02097
 C1199 C 0.14586 0.54403 0.52073
 C1200 C 0.13226 0.54752 0.53659
 C1201 C 0.11598 0.53431 0.53976
 C1202 C 0.11302 0.51735 0.52711
 C1203 C 0.12679 0.51404 0.51114
 C1204 C 0.14308 0.52729 0.50801
 C1205 C 0.16274 0.55754 0.51765
 C1206 C 0.17698 0.56874 0.51509
 C1207 C 0.19417 0.58184 0.51193
 C1208 C 0.19207 0.60293 0.51326
 C1209 C 0.20882 0.61555 0.50988
 C1210 C 0.22776 0.60723 0.50484
 C1211 C 0.22983 0.58602 0.50418
 C1212 C 0.21312 0.57343 0.50758
 H1213 H 0.13427 0.56043 0.54654
 H1214 H 0.10580 0.53748 0.55219
 H1215 H 0.12508 0.50127 0.50101
 H1216 H 0.15352 0.52444 0.49567
 H1217 H 0.17752 0.60961 0.51693
 H1218 H 0.20693 0.63174 0.51148
 H1219 H 0.24427 0.57897 0.50117
 H1220 H 0.21501 0.55712 0.50681
 C1221 C 0.14708 0.45704 -0.02000
 C1222 C 0.13395 0.45364 -0.03628
 C1223 C 0.11745 0.46653 -0.03953
 C1224 C 0.11383 0.48308 -0.02653
 C1225 C 0.12720 0.48636 -0.01021
 C1226 C 0.14369 0.47343 -0.00700
 C1227 C 0.16403 0.44372 -0.01667
 C1228 C 0.17822 0.43254 -0.01391
 C1229 C 0.19511 0.41913 -0.01068
 C1230 C 0.20064 0.40522 -0.02570
 C1231 C 0.21702 0.39214 -0.02260
 C1232 C 0.22792 0.39278 -0.00438
 C1233 C 0.22250 0.40693 0.01053
 C1234 C 0.20611 0.42000 0.00743
 H1235 H 0.13645 0.44102 -0.04648
 H1236 H 0.10763 0.46344 -0.05226
 H1237 H 0.12505 0.49889 0.00013
 H1238 H 0.15381 0.47622 0.00563
 H1239 H 0.19232 0.40452 -0.03983
 H1240 H 0.22115 0.38168 -0.03451
 H1241 H 0.23092 0.40781 0.02459
 H1242 H 0.20202 0.43077 0.01913
 C1243 C 0.64597 0.95574 0.48009
 C1244 C 0.63273 0.95243 0.46388
 C1245 C 0.61675 0.96587 0.46027
 C1246 C 0.61372 0.98285 0.47285
 C1247 C 0.62728 0.98612 0.48902
 C1248 C 0.64327 0.97266 0.49259
 C1249 C 0.66237 0.94185 0.48380
 C1250 C 0.67619 0.93026 0.48678
 C1251 C 0.69287 0.91660 0.49016
 C1252 C 0.69922 0.90353 0.47471
 C1253 C 0.71598 0.89088 0.47766
 C1254 C 0.72663 0.89135 0.49605
 C1255 C 0.71987 0.90408 0.51168
 C1256 C 0.70311 0.91671 0.50873
 H1257 H 0.63473 0.93944 0.45404
 H1258 H 0.60682 0.96282 0.44760
 H1259 H 0.62561 0.99900 0.49901
 H1260 H 0.65349 0.97543 0.50514
 H1261 H 0.69135 0.90326 0.46032
 H1262 H 0.72065 0.88100 0.46549
 H1263 H 0.72783 0.90454 0.52602
 H1264 H 0.69830 0.92672 0.52081
 C1265 C 0.85415 0.95570 0.51894
 C1266 C 0.86719 0.95239 0.53529
 C1267 C 0.88329 0.96572 0.53898
 C1268 C 0.88659 0.98259 0.52632
 C1269 C 0.87327 0.98581 0.50996
 C1270 C 0.85719 0.97246 0.50631
 C1271 C 0.83749 0.94206 0.51528
 C1272 C 0.82336 0.93081 0.51231
 C1273 C 0.80620 0.91775 0.50889
 C1274 C 0.80839 0.89662 0.50946
 C1275 C 0.79149 0.88408 0.50653
 C1276 C 0.77226 0.89259 0.50327
 C1277 C 0.77026 0.91376 0.50228
 C1278 C 0.78713 0.92627 0.50516
 H1279 H 0.86490 0.93952 0.54524
 H1280 H 0.89306 0.96269 0.55176
 H1281 H 0.87516 0.99860 0.49990
 H1282 H 0.84710 0.97524 0.49366
 H1283 H 0.82309 0.88986 0.51227
 H1284 H 0.79336 0.86777 0.50706
 H1285 H 0.75575 0.92076 0.49930
 H1286 H 0.78529 0.94259 0.50455
 C1287 C 0.35286 0.45726 0.02029
 C1288 C 0.36596 0.45398 0.03660
 C1289 C 0.38239 0.46699 0.03988
 C1290 C 0.38599 0.48355 0.02689
 C1291 C 0.37267 0.48670 0.01050
 C1292 C 0.35623 0.47365 0.00726
 C1293 C 0.33595 0.44384 0.01696
 C1294 C 0.32178 0.43257 0.01422
 C1295 C 0.30488 0.41913 0.01095
 C1296 C 0.29931 0.40515 0.02592
 C1297 C 0.28289 0.39209 0.02275
 C1298 C 0.27201 0.39278 0.00452
 C1299 C 0.27749 0.40698 -0.01034
 C1300 C 0.29391 0.42004 -0.00717
 H1301 H 0.36350 0.44135 0.04680
 H1302 H 0.39221 0.46396 0.05262
 H1303 H 0.37482 0.49920 0.00013
 H1304 H 0.34615 0.47633 -0.00542
 H1305 H 0.30760 0.40440 0.04006
 H1306 H 0.27872 0.38161 0.03462
 H1307 H 0.26908 0.40791 -0.02440
 H1308 H 0.29803 0.43085 -0.01882
 C1309 C 0.54516 0.47951 0.35342
 C1310 C 0.54825 0.46319 0.36657
 C1311 C 0.53505 0.45997 0.38282
 C1312 C 0.51851 0.47307 0.38618
 C1313 C 0.51555 0.48943 0.37279
 C1314 C 0.52878 0.49260 0.35655
 C1315 C 0.55876 0.48281 0.33670
 C1316 C 0.57009 0.48561 0.32265
 C1317 C 0.58352 0.48903 0.30582
 C1318 C 0.59734 0.47404 0.29997
 C1319 C 0.61023 0.47732 0.28347
 C1320 C 0.60930 0.49556 0.27253
 C1321 C 0.59565 0.51066 0.27875
 C1322 C 0.58279 0.50740 0.29525
 H1323 H 0.56088 0.45293 0.36428
 H1324 H 0.53791 0.44720 0.39267
 H1325 H 0.50306 0.49986 0.37474
 H1326 H 0.52623 0.50529 0.34644
 H1327 H 0.59816 0.45982 0.30815
 H1328 H 0.62088 0.46556 0.27945
 H1329 H 0.59505 0.52512 0.27112
 H1330 H 0.57231 0.51921 0.29977
 C1331 C 0.04466 -0.01990 0.85245
 C1332 C 0.04827 -0.03584 0.86594
 C1333 C 0.03528 -0.03904 0.88235
 C1334 C 0.01843 -0.02631 0.88555
 C1335 C 0.01498 -0.01028 0.87187
 C1336 C 0.02801 -0.00712 0.85547
 C1337 C 0.05808 -0.01669 0.83556
 C1338 C 0.06938 -0.01405 0.82145
 C1339 C 0.08291 -0.01091 0.80463
 C1340 C 0.08080 -0.02252 0.78701
 C1341 C 0.09388 -0.01937 0.77065
 C1342 C 0.10921 -0.00464 0.77179
 C1343 C 0.11135 0.00690 0.78952
 C1344 C 0.09823 0.00378 0.80586
 H1345 H 0.06112 -0.04584 0.86376
 H1346 H 0.03851 -0.05155 0.89241
 H1347 H 0.00226 -0.00012 0.87373
 H1348 H 0.02507 0.00529 0.84513
 H1349 H 0.06904 -0.03397 0.78590
 H1350 H 0.09202 -0.02842 0.75708
 H1351 H 0.12311 0.01827 0.79081
 H1352 H 0.10002 0.01282 0.81944
 C1353 C 0.04438 0.02031 0.64703
 C1354 C 0.04764 0.03671 0.63400
 C1355 C 0.03461 0.04002 0.61763
 C1356 C 0.01807 0.02694 0.61404
 C1357 C 0.01496 0.01049 0.62730
 C1358 C 0.02802 0.00723 0.64365
 C1359 C 0.05781 0.01689 0.66385
 C1360 C 0.06905 0.01400 0.67795
 C1361 C 0.08249 0.01054 0.69476
 C1362 C 0.08095 0.02245 0.71221
 C1363 C 0.09401 0.01907 0.72854
 C1364 C 0.10895 0.00395 0.72750
 C1365 C 0.11007 -0.00827 0.71011
 C1366 C 0.09700 -0.00491 0.69379
 H1367 H 0.06028 0.04695 0.63648
 H1368 H 0.03759 0.05284 0.60787
 H1369 H 0.00249 0.00006 0.62517
 H1370 H 0.02534 -0.00553 0.65365
 H1371 H 0.06956 0.03425 0.71326
 H1372 H 0.09208 0.02803 0.74209
 H1373 H 0.12081 -0.02057 0.70904
 H1374 H 0.09813 -0.01443 0.68047
 C1375 C 0.54533 0.52073 0.14670
 C1376 C 0.54834 0.53705 0.13353
 C1377 C 0.53508 0.54021 0.11734
 C1378 C 0.51852 0.52707 0.11405
 C1379 C 0.51563 0.51070 0.12746
 C1380 C 0.52894 0.50758 0.14365
 C1381 C 0.55907 0.51750 0.16333
 C1382 C 0.57056 0.51483 0.17728
 C1383 C 0.58417 0.51162 0.19401
 C1384 C 0.58475 0.52550 0.21003
 C1385 C 0.59761 0.52213 0.22651
 C1386 C 0.60983 0.50472 0.22733
 C1387 C 0.60968 0.49123 0.21087
 C1388 C 0.59684 0.49460 0.19436
 H1389 H 0.56096 0.54736 0.13577
 H1390 H 0.53789 0.55299 0.10748
 H1391 H 0.50313 0.50025 0.12555
 H1392 H 0.52643 0.49490 0.15378
 H1393 H 0.57524 0.53889 0.20979
 H1394 H 0.59807 0.53328 0.23849
 H1395 H 0.61938 0.47806 0.21061
 H1396 H 0.59672 0.48389 0.18191
 C1397 C 0.45575 -0.02029 0.14751
 C1398 C 0.47208 -0.00715 0.14419
 C1399 C 0.48513 -0.01031 0.12781
 C1400 C 0.48204 -0.02671 0.11447
 C1401 C 0.46550 -0.03980 0.11796
 C1402 C 0.45248 -0.03659 0.13436
 C1403 C 0.44233 -0.01704 0.16438
 C1404 C 0.43107 -0.01432 0.17850
 C1405 C 0.41759 -0.01109 0.19533
 C1406 C 0.41846 0.00707 0.20630
 C1407 C 0.40534 0.01021 0.22263
 C1408 C 0.39114 -0.00471 0.22803
 C1409 C 0.39046 -0.02297 0.21712
 C1410 C 0.40359 -0.02611 0.20080
 H1411 H 0.47475 0.00555 0.15427
 H1412 H 0.49759 0.00015 0.12572
 H1413 H 0.46250 -0.05255 0.10812
 H1414 H 0.43985 -0.04686 0.13677
 H1415 H 0.42928 0.01877 0.20225
 H1416 H 0.40623 0.02430 0.23101
 H1417 H 0.37995 -0.03488 0.22120
 H1418 H 0.40286 -0.04027 0.19248
 C1419 C 0.95422 0.48063 0.64608
 C1420 C 0.95145 0.46376 0.63352
 C1421 C 0.96481 0.46014 0.61748
 C1422 C 0.98119 0.47338 0.61375
 C1423 C 0.98389 0.49022 0.62661
 C1424 C 0.97050 0.49380 0.64263
 C1425 C 0.94051 0.48431 0.66263
 C1426 C 0.92924 0.48738 0.67668
 C1427 C 0.91617 0.49093 0.69377
 C1428 C 0.89504 0.49042 0.69157
 C1429 C 0.88251 0.49338 0.70842
 C1430 C 0.89102 0.49662 0.72762
 C1431 C 0.91220 0.49760 0.72962
 C1432 C 0.92469 0.49469 0.71280
 H1433 H 0.93896 0.45339 0.63612
 H1434 H 0.96217 0.44700 0.60805
 H1435 H 0.99629 0.50073 0.62441
 H1436 H 0.97288 0.50685 0.65232
 H1437 H 0.88826 0.48763 0.67689
 H1438 H 0.86620 0.49288 0.70653
 H1439 H 0.91922 0.50059 0.74410
 H1440 H 0.94102 0.49529 0.71466
 C1441 C 0.95448 0.51958 0.85373
 C1442 C 0.97098 0.50660 0.85672
 C1443 C 0.98446 0.51002 0.87272
 C1444 C 0.98163 0.52651 0.88598
 C1445 C 0.96501 0.53953 0.88271
 C1446 C 0.95157 0.53608 0.86671
 C1447 C 0.94058 0.51604 0.83729
 C1448 C 0.92899 0.51314 0.82347
 C1449 C 0.91531 0.50978 0.80682
 C1450 C 0.91533 0.49116 0.79662
 C1451 C 0.90263 0.48819 0.77993
 C1452 C 0.88991 0.50385 0.77319
 C1453 C 0.88952 0.52229 0.78381
 C1454 C 0.90223 0.52527 0.80050
 H1455 H 0.97344 0.49383 0.84670
 H1456 H 0.99703 0.49967 0.87460
 H1457 H 0.96226 0.55241 0.89245
 H1458 H 0.93889 0.54629 0.86448
 H1459 H 0.92532 0.47904 0.80142
 H1460 H 0.90301 0.47380 0.77202
 H1461 H 0.87962 0.53449 0.77919
 H1462 H 0.90202 0.53970 0.80835
 C1463 C 0.45592 0.01997 0.35255
 C1464 C 0.45299 0.03663 0.36532
 C1465 C 0.46601 0.03991 0.38171
 C1466 C 0.48221 0.02654 0.38560
 C1467 C 0.48500 0.00982 0.37260
 C1468 C 0.47195 0.00658 0.35622
 C1469 C 0.44244 0.01660 0.33573
 C1470 C 0.43111 0.01381 0.32166
 C1471 C 0.41757 0.01054 0.30487
 C1472 C 0.40362 0.02558 0.29938
 C1473 C 0.39051 0.02246 0.28303
 C1474 C 0.39115 0.00420 0.27211
 C1475 C 0.40528 -0.01073 0.27754
 C1476 C 0.41838 -0.00762 0.29390
 H1477 H 0.44062 0.04710 0.36263
 H1478 H 0.46325 0.05291 0.39129
 H1479 H 0.49722 -0.00084 0.37497
 H1480 H 0.47437 -0.00638 0.34642
 H1481 H 0.40293 0.03973 0.30769
 H1482 H 0.38004 0.03437 0.27893
 H1483 H 0.40613 -0.02483 0.26915
 H1484 H 0.42915 -0.01934 0.29798
   
