data_POSCAR
  _audit_creation_date              2014-09-24
  _audit_creation_method            'ToBaCCo'
  _symmetry_space_group_name_H-M    'P1'
  _symmetry_Int_Tables_number       1
  _symmetry_cell_setting            triclinic
  loop_
  _symmetry_equiv_pos_as_xyz
 x,y,z
_cell_length_a 59.5803
_cell_length_b 59.5558
_cell_length_c 58.8276
_cell_angle_alpha 90.108500
_cell_angle_beta 90.198300
_cell_angle_gamma 89.895800
loop_
  _atom_site_label
  _atom_site_type_symbol
  _atom_site_fract_x
  _atom_site_fract_y
  _atom_site_fract_z
N1 N 0.34693 1.34615 0.34576
 N2 N 0.34485 0.84645 0.85019
 N3 N 0.84509 1.34598 0.84665
 N4 N 0.84066 0.84351 0.34560
 N5 N 0.64645 0.64768 0.35574
 N6 N 0.64254 0.14252 0.86001
 N7 N 1.16212 0.66284 0.84059
 N8 N 1.15548 0.15412 0.34953
 N9 N 0.65618 1.34795 0.65044
 N10 N 0.66065 0.83863 1.15891
 N11 N 1.14816 1.34975 1.14735
 N12 N 1.15291 0.84814 0.64992
 N13 N 0.35308 0.65042 0.64664
 N14 N 0.33776 0.16173 1.15967
 N15 N 0.85017 0.64992 1.14836
 N16 N 0.85253 0.15035 0.64434
 N17 N 1.35047 0.35060 0.64574
 N18 N 1.34644 0.84817 1.15001
 N19 N 0.85421 0.35276 1.14593
 N20 N 0.85536 0.85471 0.64339
 N21 N 0.65074 0.64830 0.64647
 N22 N 0.64837 1.14754 1.14682
 N23 N 0.14994 0.64891 1.14810
 N24 N 0.15205 1.15254 0.65032
 N25 N 1.35109 0.65231 0.35375
 N26 N 1.34902 1.14805 0.85375
 N27 N 0.84658 0.65112 0.85037
 N28 N 0.84558 1.15400 0.34991
 N29 N 0.65468 0.34565 0.34975
 N30 N 0.65371 0.84256 0.84939
 N31 N 0.15165 0.34452 0.84792
 N32 N 0.14524 0.85589 0.35695
 O33 O 0.97670 0.92112 0.88529
 O34 O 0.97634 0.89541 0.85827
 C35 C 0.96886 0.91362 0.86667
 C36 C 0.95038 0.92590 0.85520
 C37 C 0.94156 0.91823 0.83439
 H38 H 0.94873 0.90358 0.82622
 O39 O 1.02203 1.08123 0.88616
 O40 O 1.02274 1.10779 0.86011
 C41 C 1.03015 1.08938 0.86802
 C42 C 1.04896 1.07766 0.85664
 C43 C 1.05844 1.08623 0.83658
 H44 H 1.05148 1.10119 0.82881
 O45 O 0.88711 0.98080 0.91777
 O46 O 0.86086 0.98125 0.89125
 C47 C 0.86886 0.97326 0.90957
 C48 C 0.85715 0.95451 0.92094
 C49 C 0.83710 0.94606 0.91180
 H50 H 0.82958 0.95410 0.89711
 O51 O 1.11167 1.02147 0.91876
 O52 O 1.13836 1.02120 0.89288
 C53 C 1.13023 1.02883 0.91127
 C54 C 1.14210 1.04674 0.92398
 C55 C 1.16364 1.05395 0.91754
 H56 H 1.17212 1.04590 0.90344
 O57 O 0.91695 0.88923 0.97558
 O58 O 0.89050 0.86339 0.97502
 C59 C 0.90877 0.87127 0.96734
 C60 C 0.92030 0.85988 0.94818
 C61 C 0.91169 0.83987 0.93887
 H62 H 0.89681 0.83235 0.94610
 O63 O 1.08024 1.10987 0.97956
 O64 O 1.10649 1.13593 0.97997
 C65 C 1.08821 1.12815 0.97203
 C66 C 1.07637 1.14028 0.95358
 C67 C 1.08361 1.16164 0.94682
 H68 H 1.09772 1.16941 0.95541
 O69 O 0.91776 1.02487 0.88702
 O70 O 0.89142 1.02519 0.86059
 C71 C 0.90977 1.03265 0.86859
 C72 C 0.92160 1.05096 0.85659
 C73 C 0.91279 1.05977 0.83636
 H74 H 0.89781 1.05245 0.82896
 O75 O 1.08044 0.97839 0.88715
 O76 O 1.10687 0.97814 0.86099
 C77 C 1.08837 0.97079 0.86865
 C78 C 1.07614 0.95297 0.85619
 C79 C 1.08330 0.94603 0.83460
 H80 H 1.09766 0.95405 0.82684
 O81 O 1.01980 0.88929 0.91620
 O82 O 1.01979 0.86336 0.88939
 C83 C 1.02734 0.87101 0.90810
 C84 C 1.04541 0.85894 0.92043
 C85 C 1.05301 0.83780 0.91301
 H86 H 1.04511 0.82978 0.89851
 O87 O 0.97820 1.11161 0.91749
 O88 O 0.97871 1.13817 0.89142
 C89 C 0.97073 1.13001 0.90963
 C90 C 0.95206 1.14169 0.92127
 C91 C 0.94318 1.16151 0.91209
 H92 H 0.95078 1.16884 0.89714
 O93 O 0.88843 1.08269 0.97846
 O94 O 0.86251 1.10918 0.97894
 C95 C 0.87010 1.09084 0.97104
 C96 C 0.85792 1.07929 0.95249
 C97 C 0.83732 1.08767 0.94461
 H98 H 0.82971 1.10198 0.95301
 O99 O 1.10949 0.91810 0.97832
 O100 O 1.13563 0.89183 0.97810
 C101 C 1.12787 0.91029 0.97071
 C102 C 1.14004 0.92258 0.95275
 C103 C 1.16163 0.91581 0.94595
 H104 H 1.16985 0.90193 0.95449
 O105 O 0.97817 1.08188 0.88550
 O106 O 0.97865 1.10832 0.85932
 C107 C 0.97056 1.09019 0.86715
 C108 C 0.95148 1.07902 0.85553
 C109 C 0.94241 1.08763 0.83519
 H110 H 0.94997 1.10214 0.82723
 O111 O 1.02051 0.92015 0.88527
 O112 O 1.02030 0.89445 0.85823
 C113 C 1.02817 0.91245 0.86667
 C114 C 1.04677 0.92435 0.85516
 C115 C 1.05428 0.91754 0.83357
 H116 H 1.04592 0.90388 0.82480
 O117 O 1.11051 0.97783 0.91903
 O118 O 1.13712 0.97754 0.89305
 C119 C 1.12885 0.97005 0.91140
 C120 C 1.14046 0.95185 0.92379
 C121 C 1.16200 0.94493 0.91724
 H122 H 1.17027 0.95321 0.90320
 O123 O 0.88694 1.02463 0.91811
 O124 O 0.86057 1.02502 0.89171
 C125 C 0.86862 1.03243 0.91027
 C126 C 0.85707 1.05075 0.92264
 C127 C 0.83640 1.05937 0.91494
 H128 H 0.82834 1.05214 0.90011
 O129 O 0.91949 1.11302 0.97775
 O130 O 0.89359 1.13952 0.97787
 C131 C 0.91158 1.13125 0.96984
 C132 C 0.92308 1.14247 0.95062
 C133 C 0.91441 1.16239 0.94111
 H134 H 0.89955 1.17012 0.94826
 O135 O 1.07779 0.88824 0.97741
 O136 O 1.10387 0.86191 0.97711
 C137 C 1.08564 0.87006 0.96940
 C138 C 1.07377 0.85853 0.95057
 C139 C 1.08103 0.83740 0.94301
 H140 H 1.09511 0.82930 0.95135
 O141 O 1.08077 1.02210 0.88774
 O142 O 1.10737 1.02189 0.86176
 C143 C 1.08908 1.02975 0.86951
 C144 C 1.07778 1.04845 0.85756
 C145 C 1.08694 1.05715 0.83754
 H146 H 1.10166 1.04934 0.83017
 O147 O 0.91797 0.98110 0.88693
 O148 O 0.89173 0.98149 0.86039
 C149 C 0.91000 0.97366 0.86836
 C150 C 0.92165 0.95528 0.85620
 C151 C 0.91318 0.94741 0.83543
 H152 H 0.89878 0.95561 0.82776
 O153 O 1.02189 1.11123 0.91805
 O154 O 1.02250 1.13798 0.89219
 C155 C 1.02977 1.12961 0.91068
 C156 C 1.04789 1.14102 0.92354
 C157 C 1.05541 1.16241 0.91703
 H158 H 1.04733 1.17100 0.90300
 O159 O 0.97605 0.88983 0.91570
 O160 O 0.97588 0.86396 0.88883
 C161 C 0.96815 0.87180 0.90734
 C162 C 0.94935 0.86022 0.91887
 C163 C 0.94053 0.84023 0.90989
 H164 H 0.94828 0.83265 0.89511
 O165 O 1.11119 1.07917 0.97974
 O166 O 1.13752 1.10516 0.98023
 C167 C 1.12961 1.08696 0.97235
 C168 C 1.14173 1.07500 0.95409
 C169 C 1.16327 1.08187 0.94760
 H170 H 1.17126 1.09573 0.95638
 O171 O 0.88645 0.92025 0.97629
 O172 O 0.85993 0.89447 0.97577
 C173 C 0.86810 0.91270 0.96830
 C174 C 0.85663 0.92487 0.94962
 C175 C 0.83652 0.91665 0.94018
 H176 H 0.82886 0.90166 0.94707
 Cu177 Cu 0.99832 0.90768 0.90328
 Cu178 Cu 0.99807 0.87670 0.87097
 Cu179 Cu 1.00006 1.09376 0.90433
 Cu180 Cu 1.00075 1.12573 0.87312
 Cu181 Cu 0.90506 1.00289 0.90516
 Cu182 Cu 0.87351 1.00327 0.87332
 Cu183 Cu 1.09319 0.99998 0.90580
 Cu184 Cu 1.12507 0.99961 0.87450
 C185 C 0.94041 0.94458 0.86587
 H186 H 0.94680 0.95036 0.88211
 C187 C 0.92284 0.92883 0.82453
 C188 C 1.05865 1.05863 0.86685
 H189 H 1.05173 1.05217 0.88253
 C190 C 1.07757 1.07613 0.82706
 C191 C 0.86669 0.94395 0.93999
 H192 H 0.88239 0.95016 0.94686
 C193 C 0.82678 0.92706 0.92113
 C194 C 1.13141 1.05728 0.94238
 H195 H 1.11468 1.05208 0.94723
 C196 C 1.17441 1.07142 0.92943
 C197 C 0.93924 0.86979 0.93815
 H198 H 0.94574 0.88540 0.94496
 C199 C 0.92163 0.83000 0.91963
 C200 C 1.05835 1.13019 0.94198
 H201 H 1.05287 1.11358 0.94694
 C202 C 1.07322 1.17286 0.92863
 C203 C 0.94105 1.06054 0.86592
 H204 H 0.94767 1.05401 0.88176
 C205 C 0.92293 1.07815 0.82562
 C206 C 1.05772 0.94220 0.86621
 H207 H 1.05227 0.94735 0.88298
 C208 C 1.07245 0.92841 0.82311
 C209 C 1.05580 0.86905 0.93935
 H210 H 1.05030 0.88549 0.94497
 C211 C 1.07074 0.82687 0.92432
 C212 C 0.94202 1.13237 0.94064
 H213 H 0.94859 1.11684 0.94757
 C214 C 0.92428 1.17184 0.92168
 C215 C 0.86753 1.06069 0.94157
 H216 H 0.88363 1.05440 0.94737
 C217 C 0.82650 1.07794 0.92580
 C218 C 1.12971 0.94076 0.94171
 H219 H 1.11297 0.94587 0.94665
 C220 C 1.17277 0.92700 0.92827
 O221 O 1.01962 0.91637 1.11278
 O222 O 1.01933 0.89007 1.13910
 C223 C 1.02717 0.90832 1.13127
 C224 C 1.04572 0.92005 1.14328
 C225 C 1.05466 0.91146 1.16369
 H226 H 1.04757 0.89648 1.17121
 O227 O 0.97710 1.08072 1.11423
 O228 O 0.97709 1.10676 1.14093
 C229 C 0.96940 1.08855 1.13272
 C230 C 0.95114 1.07651 1.14458
 C231 C 0.94400 1.08355 1.16614
 H232 H 0.95213 1.09773 1.17427
 O233 O 0.88774 1.02243 1.08239
 O234 O 0.86135 1.02263 1.10857
 C235 C 0.86964 1.03050 1.09035
 C236 C 0.85863 1.04970 1.07867
 C237 C 0.83850 1.05890 1.08706
 H238 H 0.83056 1.05153 1.10181
 O239 O 1.10951 0.97650 1.08377
 O240 O 1.13571 0.97577 1.11032
 C241 C 1.12763 0.96838 1.09174
 C242 C 1.13890 0.94968 1.07959
 C243 C 1.15898 0.94027 1.08799
 H244 H 1.16678 0.94715 1.10313
 O245 O 1.07823 0.88690 1.02187
 O246 O 1.10435 0.86061 1.02141
 C247 C 1.08619 0.86852 1.02936
 C248 C 1.07476 0.85661 1.04810
 C249 C 1.08390 0.83671 1.05687
 H250 H 1.09864 0.82940 1.04903
 O251 O 0.92042 1.11312 1.02218
 O252 O 0.89476 1.13987 1.02221
 C253 C 0.91298 1.13165 1.02980
 C254 C 0.92530 1.14347 1.04806
 C255 C 0.91916 1.16532 1.05438
 H256 H 0.90569 1.17378 1.04539
 O257 O 0.91759 0.97761 1.11318
 O258 O 0.89134 0.97756 1.13951
 C259 C 0.90953 0.96972 1.13146
 C260 C 0.92123 0.95089 1.14307
 C261 C 0.91395 0.94314 1.16439
 H262 H 0.90011 0.95145 1.17286
 O263 O 1.07923 1.02035 1.11540
 O264 O 1.10526 1.01979 1.14212
 C265 C 1.08712 1.02777 1.13406
 C266 C 1.07527 1.04622 1.14605
 C267 C 1.08248 1.05370 1.16758
 H268 H 1.09640 1.04538 1.17597
 O269 O 0.97586 0.88635 1.08079
 O270 O 0.97533 0.85978 1.10684
 C271 C 0.96794 0.86805 1.08834
 C272 C 0.94964 0.85668 1.07561
 C273 C 0.94199 0.83529 1.08206
 H274 H 0.94998 0.82661 1.09609
 O275 O 1.02160 1.11108 1.08420
 O276 O 1.02191 1.13721 1.11081
 C277 C 1.02956 1.12916 1.09237
 C278 C 1.04829 1.14044 1.08050
 C279 C 1.05744 1.16062 1.08888
 H280 H 1.05040 1.16848 1.10389
 O281 O 0.88699 0.91986 1.02070
 O282 O 0.86046 0.89410 1.02022
 C283 C 0.86864 0.91214 1.02832
 C284 C 0.85695 0.92397 1.04710
 C285 C 0.83597 0.91642 1.05469
 H286 H 0.82815 0.90212 1.04648
 O287 O 1.11078 1.07897 1.02406
 O288 O 1.13714 1.10493 1.02443
 C289 C 1.12904 1.08673 1.03205
 C290 C 1.14056 1.07477 1.05081
 C291 C 1.16145 1.08220 1.05897
 H292 H 1.16972 1.09617 1.05076
 O293 O 1.02083 1.08022 1.11504
 O294 O 1.02091 1.10618 1.14182
 C295 C 1.02839 1.08784 1.13373
 C296 C 1.04641 1.07550 1.14585
 C297 C 1.05375 1.08262 1.16736
 H298 H 1.04583 1.09697 1.17536
 O299 O 0.97586 0.91698 1.11213
 O300 O 0.97539 0.89068 1.13845
 C301 C 0.96802 0.90913 1.13051
 C302 C 0.94989 0.92137 1.14254
 C303 C 0.94246 0.91402 1.16386
 H304 H 0.95030 0.89953 1.17170
 O305 O 1.10967 1.02030 1.08401
 O306 O 1.13588 1.01967 1.11056
 C307 C 1.12805 1.02760 1.09212
 C308 C 1.14007 1.04587 1.08023
 C309 C 1.16096 1.05354 1.08819
 H310 H 1.16857 1.04575 1.10296
 O311 O 0.88697 0.97849 1.08182
 O312 O 0.86052 0.97849 1.10793
 C313 C 0.86857 0.97089 1.08946
 C314 C 0.85684 0.95262 1.07700
 C315 C 0.83584 0.94473 1.08437
 H316 H 0.82768 0.95265 1.09873
 O317 O 1.08018 1.10983 1.02399
 O318 O 1.10654 1.13579 1.02425
 C319 C 1.08828 1.12795 1.03193
 C320 C 1.07685 1.13970 1.05079
 C321 C 1.08570 1.15978 1.05937
 H322 H 1.10021 1.16727 1.05133
 O323 O 0.91724 0.88847 1.02002
 O324 O 0.89085 0.86257 1.01945
 C325 C 0.90922 0.87012 1.02735
 C326 C 0.92111 0.85773 1.04561
 C327 C 0.91383 0.83632 1.05220
 H328 H 0.89972 0.82864 1.04352
 O329 O 1.07812 0.97646 1.11400
 O330 O 1.10423 0.97583 1.14065
 C331 C 1.08599 0.96835 1.13231
 C332 C 1.07434 0.94950 1.14364
 C333 C 1.08297 0.94065 1.16391
 H334 H 1.09743 0.94843 1.17188
 O335 O 0.91794 1.02153 1.11405
 O336 O 0.89173 1.02159 1.14042
 C337 C 0.91006 1.02917 1.13258
 C338 C 0.92211 1.04747 1.14464
 C339 C 0.91510 1.05491 1.16621
 H340 H 0.90121 1.04667 1.17459
 O341 O 0.97799 1.11209 1.08368
 O342 O 0.97811 1.13838 1.11013
 C343 C 0.97070 1.13063 1.09143
 C344 C 0.95321 1.14298 1.07856
 C345 C 0.94670 1.16485 1.08483
 H346 H 0.95487 1.17315 1.09901
 O347 O 1.01966 0.88561 1.08162
 O348 O 1.01935 0.85915 1.10778
 C349 C 1.02726 0.86725 1.08952
 C350 C 1.04600 0.85579 1.07765
 C351 C 1.05540 0.83576 1.08618
 H352 H 1.04843 0.82800 1.10122
 O353 O 1.10830 0.91818 1.02265
 O354 O 1.13438 0.89186 1.02231
 C355 C 1.12644 0.91000 1.03043
 C356 C 1.13812 0.92120 1.04957
 C357 C 1.15810 0.91212 1.05820
 H358 H 1.16554 0.89757 1.05006
 O359 O 0.88950 1.08253 1.02282
 O360 O 0.86377 1.10920 1.02324
 C361 C 0.87153 1.09078 1.03089
 C362 C 0.85978 1.07918 1.04971
 C363 C 0.83970 1.08802 1.05835
 H364 H 0.83233 1.10277 1.05056
 Cu365 Cu 0.99780 0.90392 1.09420
 Cu366 Cu 0.99723 0.87228 1.12568
 Cu367 Cu 0.99932 1.09344 1.09661
 Cu368 Cu 0.99946 1.12474 1.12864
 Cu369 Cu 0.90455 0.90703 0.99820
 Cu370 Cu 0.87278 0.87604 0.99764
 Cu371 Cu 1.09081 0.90549 1.00002
 Cu372 Cu 1.12216 0.87390 0.99966
 Cu373 Cu 0.90707 1.09520 1.00027
 Cu374 Cu 0.87606 1.12710 1.00066
 Cu375 Cu 1.09295 1.09184 1.00176
 Cu376 Cu 1.12454 1.12310 1.00220
 Cu377 Cu 0.90517 0.99999 1.09527
 Cu378 Cu 0.87357 1.00005 1.12671
 Cu379 Cu 1.09153 0.99853 1.09664
 Cu380 Cu 1.12286 0.99773 1.12862
 C381 C 1.05559 0.93921 1.13352
 H382 H 1.04911 0.94572 1.11762
 C383 C 1.07344 0.92158 1.17393
 C384 C 0.94026 1.05830 1.13409
 H385 H 0.94556 1.05292 1.11734
 C386 C 0.92609 1.07284 1.17714
 C387 C 0.86903 1.05990 1.05987
 H388 H 0.88471 1.05319 1.05351
 C389 C 0.82902 1.07815 1.07708
 C390 C 1.12873 0.94010 1.06024
 H391 H 1.11308 0.94695 1.05387
 C392 C 1.16853 0.92134 1.07746
 C393 C 1.05571 0.86591 1.05846
 H394 H 1.04886 0.88151 1.05199
 C395 C 1.07452 0.82628 1.07596
 C396 C 0.94252 1.13255 1.06003
 H397 H 0.94715 1.11558 1.05531
 C398 C 0.92980 1.17620 1.07264
 C399 C 0.93933 0.93997 1.13239
 H400 H 0.94484 0.94560 1.11583
 C401 C 0.92459 0.92479 1.17496
 C402 C 1.05710 1.05714 1.13546
 H403 H 1.05166 1.05173 1.11874
 C404 C 1.07170 1.07182 1.17841
 C405 C 0.93919 0.86764 1.05724
 H406 H 0.94473 0.88426 1.05237
 C407 C 0.92417 0.82494 1.07032
 C408 C 1.05802 1.13024 1.06132
 H409 H 1.05136 1.11452 1.05496
 C410 C 1.07629 1.17024 1.07847
 C411 C 0.86714 0.94222 1.05823
 H412 H 0.88346 0.94796 1.05264
 C413 C 0.82526 0.92668 1.07325
 C414 C 1.13013 1.05647 1.06141
 H415 H 1.11388 1.05085 1.05539
 C416 C 1.17179 1.07170 1.07766
 O417 O 1.08315 0.52716 0.60993
 O418 O 1.10963 0.52802 0.63620
 C419 C 1.09099 0.53506 0.62838
 C420 C 1.07851 0.55295 0.64052
 C421 C 1.08588 0.56072 0.66183
 H422 H 1.10030 0.55295 0.66989
 O423 O 0.92393 0.47739 0.61465
 O424 O 0.89816 0.47680 0.64145
 C425 C 0.91656 0.46967 0.63333
 C426 C 0.92920 0.45175 0.64530
 C427 C 0.92199 0.44366 0.66649
 H428 H 0.90764 0.45131 0.67471
 O429 O 1.02039 0.61434 0.57961
 O430 O 1.02038 0.64087 0.60582
 C431 C 1.02778 0.63287 0.58724
 C432 C 1.04544 0.64504 0.57461
 C433 C 1.05217 0.66654 0.58162
 H434 H 1.04416 0.67436 0.59613
 O435 O 0.98447 0.38954 0.58274
 O436 O 0.98589 0.36364 0.60946
 C437 C 0.97756 0.37115 0.59104
 C438 C 0.95929 0.35867 0.57947
 C439 C 0.95176 0.33814 0.58823
 H440 H 0.96006 0.33092 0.60292
 O441 O 1.11152 0.58645 0.51931
 O442 O 1.13667 0.61358 0.51899
 C443 C 1.12948 0.59516 0.52696
 C444 C 1.14177 0.58401 0.54570
 C445 C 1.16200 0.59299 0.55388
 H446 H 1.16915 0.60762 0.54576
 O447 O 0.89311 0.41567 0.52368
 O448 O 0.86773 0.38878 0.52445
 C449 C 0.87535 0.40730 0.53198
 C450 C 0.86396 0.41899 0.55102
 C451 C 0.84400 0.41045 0.56035
 H452 H 0.83643 0.39547 0.55322
 O453 O 0.97789 0.58346 0.61212
 O454 O 0.97753 0.61002 0.63828
 C455 C 0.97021 0.59148 0.63056
 C456 C 0.95213 0.57933 0.64265
 C457 C 0.94248 0.58819 0.66257
 H458 H 0.94870 0.60379 0.66967
 O459 O 1.02826 0.42164 0.61252
 O460 O 1.02998 0.39576 0.63922
 C461 C 1.03681 0.41416 0.63080
 C462 C 1.05525 0.42674 0.64199
 C463 C 1.06472 0.41904 0.66248
 H464 H 1.05817 0.40406 0.67047
 O465 O 1.11437 0.48403 0.57827
 O466 O 1.14095 0.48482 0.60443
 C467 C 1.13281 0.47669 0.58617
 C468 C 1.14446 0.45787 0.57463
 C469 C 1.16474 0.44963 0.58345
 H470 H 1.17252 0.45796 0.59783
 O471 O 0.89135 0.51980 0.58303
 O472 O 0.86550 0.51898 0.60976
 C473 C 0.87295 0.52692 0.59123
 C474 C 0.86045 0.54518 0.57964
 C475 C 0.83997 0.55281 0.58850
 H476 H 0.83272 0.54444 0.60306
 O477 O 0.91668 0.61141 0.52167
 O478 O 0.88996 0.63709 0.52200
 C479 C 0.90870 0.62974 0.52920
 C480 C 0.92119 0.64236 0.54679
 C481 C 0.91463 0.66417 0.55284
 H482 H 0.90051 0.67197 0.54427
 O483 O 1.08489 0.39081 0.52032
 O484 O 1.11152 0.36504 0.52007
 C485 C 1.09319 0.37264 0.52792
 C486 C 1.08176 0.36053 0.54646
 C487 C 1.08910 0.33913 0.55311
 H488 H 1.10291 0.33121 0.54421
 O489 O 0.92254 0.52132 0.61369
 O490 O 0.89664 0.52062 0.64037
 C491 C 0.91436 0.52904 0.63203
 C492 C 0.92496 0.54862 0.64328
 C493 C 0.91558 0.55769 0.66311
 H494 H 0.90135 0.54950 0.67094
 O495 O 1.08511 0.48334 0.61060
 O496 O 1.11168 0.48431 0.63677
 C497 C 1.09363 0.47596 0.62898
 C498 C 1.08291 0.45701 0.64104
 C499 C 1.09210 0.44905 0.66150
 H500 H 1.10637 0.45754 0.66905
 O501 O 1.02809 0.38997 0.58220
 O502 O 1.02959 0.36391 0.60876
 C503 C 1.03633 0.37183 0.58995
 C504 C 1.05417 0.36015 0.57705
 C505 C 1.06181 0.33875 0.58358
 H506 H 1.05414 0.33030 0.59786
 O507 O 0.97672 0.61379 0.58058
 O508 O 0.97668 0.64053 0.60656
 C509 C 0.96896 0.63217 0.58826
 C510 C 0.95053 0.64358 0.57587
 C511 C 0.94366 0.66541 0.58182
 H512 H 0.95233 0.67436 0.59527
 O513 O 0.88737 0.57949 0.52326
 O514 O 0.86041 0.60489 0.52410
 C515 C 0.86923 0.58692 0.53169
 C516 C 0.85865 0.57470 0.55080
 C517 C 0.83822 0.58214 0.56004
 H518 H 0.82992 0.59674 0.55295
 O519 O 1.11460 0.42259 0.51999
 O520 O 1.14134 0.39695 0.52029
 C521 C 1.13304 0.41518 0.52785
 C522 C 1.14456 0.42762 0.54638
 C523 C 1.16486 0.41960 0.55559
 H524 H 1.17244 0.40447 0.54880
 O525 O 0.98451 0.42001 0.61419
 O526 O 0.98611 0.39427 0.64104
 C527 C 0.97764 0.41216 0.63298
 C528 C 0.95915 0.42365 0.64515
 C529 C 0.95175 0.41582 0.66635
 H530 H 0.96003 0.40157 0.67417
 O531 O 1.02166 0.58411 0.61110
 O532 O 1.02151 0.61044 0.63751
 C533 C 1.02947 0.59230 0.62942
 C534 C 1.04838 0.58087 0.64106
 C535 C 1.05602 0.58844 0.66233
 H536 H 1.04773 0.60249 0.67048
 O537 O 0.89334 0.47585 0.58314
 O538 O 0.86757 0.47522 0.60994
 C539 C 0.87553 0.46760 0.59146
 C540 C 0.86424 0.44852 0.58000
 C541 C 0.84436 0.43975 0.58899
 H542 H 0.83673 0.44769 0.60366
 O543 O 1.11439 0.52800 0.57928
 O544 O 1.14097 0.52880 0.60545
 C545 C 1.13255 0.53623 0.58710
 C546 C 1.14347 0.55510 0.57506
 C547 C 1.16379 0.56429 0.58301
 H548 H 1.17204 0.55711 0.59775
 O549 O 0.92476 0.38598 0.52309
 O550 O 0.89962 0.35888 0.52380
 C551 C 0.91766 0.36760 0.53125
 C552 C 0.93013 0.35678 0.55015
 C553 C 0.92278 0.33629 0.55927
 H554 H 0.90826 0.32799 0.55200
 O555 O 1.07934 0.61559 0.51895
 O556 O 1.10432 0.64288 0.51852
 C557 C 1.08645 0.63428 0.52644
 C558 C 1.07408 0.64579 0.54492
 C559 C 1.08053 0.66731 0.55219
 H560 H 1.09405 0.67595 0.54361
 Cu561 Cu 1.09662 0.50564 0.59188
 Cu562 Cu 1.12850 0.50660 0.62329
 Cu563 Cu 0.91041 0.49860 0.59596
 Cu564 Cu 0.87937 0.49780 0.62804
 Cu565 Cu 0.99912 0.59625 0.59327
 Cu566 Cu 0.99904 0.62811 0.62472
 Cu567 Cu 1.00622 0.40791 0.59528
 Cu568 Cu 1.00805 0.37683 0.62734
 C569 C 1.05961 0.56298 0.63040
 H570 H 1.05400 0.55728 0.61383
 C571 C 1.07472 0.57845 0.67287
 C572 C 0.94792 0.44177 0.63492
 H573 H 0.95334 0.44768 0.61842
 C574 C 0.93317 0.42570 0.67716
 C575 C 1.05635 0.63488 0.55609
 H576 H 1.05146 0.61816 0.55080
 C577 C 1.06966 0.67779 0.57053
 C578 C 0.94852 0.36775 0.56027
 H579 H 0.95404 0.38375 0.55362
 C580 C 0.93344 0.32691 0.57837
 C581 C 1.13275 0.56496 0.55625
 H582 H 1.11695 0.55819 0.55022
 C583 C 1.17309 0.58334 0.57257
 C584 C 0.87383 0.43816 0.56089
 H585 H 0.88939 0.44466 0.55409
 C586 C 0.83422 0.42068 0.57946
 C587 C 0.94336 0.55942 0.63331
 H588 H 0.95041 0.55270 0.61776
 C589 C 0.92402 0.57756 0.67275
 C590 C 1.06436 0.44587 0.63152
 H591 H 1.05742 0.45171 0.61554
 C592 C 1.08323 0.43004 0.67226
 C593 C 1.13458 0.44689 0.55594
 H594 H 1.11872 0.45294 0.54929
 C595 C 1.17491 0.43041 0.57425
 C596 C 0.86956 0.55609 0.56064
 H597 H 0.88552 0.55049 0.55391
 C598 C 0.82883 0.57135 0.57897
 C599 C 0.93930 0.63231 0.55821
 H600 H 0.94428 0.61537 0.55373
 C601 C 0.92582 0.67588 0.57022
 C602 C 1.06413 0.37078 0.55834
 H603 H 1.05858 0.38741 0.55342
 C604 C 1.07920 0.32806 0.57157
 O605 O 1.08201 0.48101 0.38633
 O606 O 1.10734 0.48190 0.35910
 C607 C 1.08938 0.47394 0.36740
 C608 C 1.07718 0.45598 0.35518
 C609 C 1.08396 0.44927 0.33339
 H610 H 1.09794 0.45763 0.32530
 O611 O 0.91688 0.52080 0.39003
 O612 O 0.89025 0.51993 0.36390
 C613 C 0.90843 0.52810 0.37163
 C614 C 0.91955 0.54658 0.35928
 C615 C 0.91054 0.55445 0.33873
 H616 H 0.89597 0.54627 0.33143
 O617 O 0.97463 0.61114 0.41832
 O618 O 0.97340 0.63671 0.39127
 C619 C 0.96611 0.62884 0.40989
 C620 C 0.94697 0.63996 0.42131
 C621 C 0.93751 0.65942 0.41195
 H622 H 0.94502 0.66696 0.39705
 O623 O 1.02481 0.39066 0.41669
 O624 O 1.02512 0.36484 0.38977
 C625 C 1.03289 0.37277 0.40826
 C626 C 1.05190 0.36138 0.41970
 C627 C 1.06077 0.34151 0.41062
 H628 H 1.05301 0.33396 0.39579
 O629 O 1.11443 0.42203 0.47565
 O630 O 1.14122 0.39643 0.47588
 C631 C 1.13277 0.41435 0.46788
 C632 C 1.14399 0.42577 0.44875
 C633 C 1.16346 0.41651 0.43928
 H634 H 1.17094 0.40167 0.44681
 O635 O 0.88500 0.57935 0.47913
 O636 O 0.85784 0.60455 0.47973
 C637 C 0.86612 0.58643 0.47201
 C638 C 0.85414 0.57365 0.45416
 C639 C 0.83251 0.57993 0.44692
 H640 H 0.82400 0.59381 0.45515
 O641 O 1.01927 0.58126 0.38741
 O642 O 1.01790 0.60690 0.36044
 C643 C 1.02647 0.58916 0.36878
 C644 C 1.04554 0.57824 0.35706
 C645 C 1.05349 0.58709 0.33655
 H646 H 1.04482 0.60109 0.32870
 O647 O 0.97953 0.42016 0.38645
 O648 O 0.97969 0.39435 0.35952
 C649 C 0.97164 0.41223 0.36803
 C650 C 0.95243 0.42358 0.35690
 C651 C 0.94349 0.41542 0.33631
 H652 H 0.95111 0.40106 0.32802
 O653 O 1.11279 0.52473 0.41742
 O654 O 1.13862 0.52520 0.39066
 C655 C 1.13083 0.53263 0.40930
 C656 C 1.14247 0.55106 0.42137
 C657 C 1.16402 0.55776 0.41479
 H658 H 1.17242 0.54899 0.40108
 O659 O 0.88850 0.47570 0.42129
 O660 O 0.86202 0.47478 0.39501
 C661 C 0.87059 0.46725 0.41329
 C662 C 0.85997 0.44796 0.42480
 C663 C 0.84037 0.43849 0.41581
 H664 H 0.83233 0.44612 0.40118
 O665 O 1.07954 0.61547 0.47468
 O666 O 1.10474 0.64253 0.47410
 C667 C 1.08668 0.63389 0.46664
 C668 C 1.07406 0.64505 0.44811
 C669 C 1.08137 0.66563 0.43915
 H670 H 1.09618 0.67363 0.44614
 O671 O 0.92360 0.38581 0.47861
 O672 O 0.89844 0.35872 0.47906
 C673 C 0.91610 0.36739 0.47078
 C674 C 0.92763 0.35656 0.45128
 C675 C 0.91946 0.33645 0.44178
 H676 H 0.90501 0.32828 0.44922
 O677 O 0.91824 0.47715 0.38940
 O678 O 0.89169 0.47645 0.36318
 C679 C 0.91034 0.46942 0.37089
 C680 C 0.92252 0.45161 0.35850
 C681 C 0.91392 0.44333 0.33795
 H682 H 0.89902 0.45087 0.33060
 O683 O 1.08161 0.52461 0.38672
 O684 O 1.10724 0.52562 0.35978
 C685 C 1.08894 0.53274 0.36824
 C686 C 1.07626 0.55094 0.35680
 C687 C 1.08399 0.56015 0.33628
 H688 H 1.09915 0.55368 0.32852
 O689 O 0.98105 0.38930 0.41737
 O690 O 0.98135 0.36344 0.39050
 C691 C 0.97377 0.37093 0.40921
 C692 C 0.95582 0.35850 0.42118
 C693 C 0.94744 0.33842 0.41203
 H694 H 0.95495 0.33144 0.39682
 O695 O 1.01847 0.61338 0.41712
 O696 O 1.01714 0.63902 0.39014
 C697 C 1.02543 0.63168 0.40860
 C698 C 1.04394 0.64405 0.41984
 C699 C 1.05145 0.66465 0.41113
 H700 H 1.04280 0.67217 0.39682
 O701 O 0.89170 0.41529 0.47946
 O702 O 0.86636 0.38836 0.47995
 C703 C 0.87354 0.40682 0.47202
 C704 C 0.86123 0.41830 0.45344
 C705 C 0.84149 0.40902 0.44415
 H706 H 0.83463 0.39366 0.45109
 O707 O 1.11131 0.58560 0.47512
 O708 O 1.13673 0.61246 0.47470
 C709 C 1.12942 0.59374 0.46739
 C710 C 1.14175 0.58129 0.44951
 C711 C 1.16333 0.58790 0.44260
 H712 H 1.17144 0.60205 0.45079
 O713 O 1.02331 0.42144 0.38568
 O714 O 1.02347 0.39572 0.35866
 C715 C 1.03079 0.41404 0.36689
 C716 C 1.04858 0.42661 0.35487
 C717 C 1.05571 0.42003 0.33309
 H718 H 1.04754 0.40612 0.32455
 O719 O 0.97532 0.58057 0.38709
 O720 O 0.97407 0.60614 0.36004
 C721 C 0.96700 0.58795 0.36862
 C722 C 0.94832 0.57568 0.35756
 C723 C 0.93899 0.58339 0.33700
 H724 H 0.94599 0.59802 0.32873
 O725 O 0.88586 0.51949 0.42092
 O726 O 0.85924 0.51840 0.39480
 C727 C 0.86710 0.52630 0.41320
 C728 C 0.85464 0.54404 0.42545
 C729 C 0.83302 0.55044 0.41845
 H730 H 0.82510 0.54187 0.40428
 O731 O 1.11401 0.48091 0.41622
 O732 O 1.13950 0.48125 0.38914
 C733 C 1.13206 0.47330 0.40767
 C734 C 1.14388 0.45452 0.41913
 C735 C 1.16352 0.44499 0.40989
 H736 H 1.17079 0.45190 0.39457
 O737 O 1.08453 0.39067 0.47593
 O738 O 1.11127 0.36502 0.47569
 C739 C 1.09283 0.37265 0.46795
 C740 C 1.08120 0.36105 0.44894
 C741 C 1.08981 0.34103 0.43960
 H742 H 1.10473 0.33340 0.44682
 O743 O 0.91517 0.61049 0.47749
 O744 O 0.88821 0.63591 0.47763
 C745 C 0.90649 0.62832 0.46953
 C746 C 0.91762 0.63984 0.45029
 C747 C 0.90842 0.65946 0.44066
 H748 H 0.89328 0.66676 0.44768
 Cu749 Cu 1.09511 0.50273 0.40443
 Cu750 Cu 1.12578 0.50358 0.37197
 Cu751 Cu 0.90502 0.49845 0.40811
 Cu752 Cu 0.87311 0.49733 0.37661
 Cu753 Cu 1.09291 0.59807 0.49698
 Cu754 Cu 1.12312 0.63062 0.49651
 Cu755 Cu 1.09691 0.40907 0.49801
 Cu756 Cu 1.12905 0.37831 0.49806
 Cu757 Cu 0.90374 0.59265 0.50030
 Cu758 Cu 0.87138 0.62318 0.50097
 Cu759 Cu 0.91083 0.40334 0.50113
 Cu760 Cu 0.88054 0.37092 0.50190
 Cu761 Cu 0.99707 0.59401 0.40519
 Cu762 Cu 0.99552 0.62476 0.37276
 Cu763 Cu 1.00215 0.40802 0.40421
 Cu764 Cu 1.00246 0.37696 0.37194
 C765 C 1.05931 0.44474 0.36567
 H766 H 1.05417 0.44968 0.38261
 C767 C 1.07333 0.43136 0.32221
 C768 C 0.93858 0.55714 0.36845
 H769 H 0.94541 0.55134 0.38450
 C770 C 0.92000 0.57293 0.32756
 C771 C 0.93703 0.63038 0.44057
 H772 H 0.94406 0.61510 0.44761
 C773 C 0.91821 0.66916 0.42133
 C774 C 1.06210 0.37093 0.43896
 H775 H 1.05553 0.38651 0.44578
 C776 C 1.07974 0.33131 0.42031
 C777 C 1.13443 0.44488 0.43871
 H778 H 1.11913 0.45181 0.44574
 C779 C 1.17319 0.42579 0.41981
 C780 C 0.86491 0.55554 0.44347
 H781 H 0.88172 0.55084 0.44870
 C782 C 0.82179 0.56833 0.42910
 C783 C 1.05691 0.56002 0.36698
 H784 H 1.05105 0.55333 0.38300
 C785 C 1.07278 0.57836 0.32618
 C786 C 0.94191 0.44182 0.36774
 H787 H 0.94840 0.44794 0.38382
 C788 C 0.92410 0.42514 0.32687
 C789 C 1.13160 0.56273 0.43891
 H790 H 1.11485 0.55772 0.44388
 C791 C 1.17465 0.57604 0.42537
 C792 C 0.87019 0.43790 0.44375
 H793 H 0.88558 0.44495 0.45049
 C794 C 0.83115 0.41895 0.42515
 C795 C 1.05521 0.63453 0.43848
 H796 H 1.04971 0.61849 0.44506
 C797 C 1.07020 0.67553 0.42062
 C798 C 0.94596 0.36732 0.44093
 H799 H 0.95212 0.38302 0.44785
 C800 C 0.92917 0.32740 0.42202
 O801 O 0.58427 1.01967 0.61257
 O802 O 0.61091 1.01927 0.63869
 C803 C 0.59263 1.02724 0.63093
 C804 C 0.58131 1.04587 0.64306
 C805 C 0.58977 1.05367 0.66390
 H806 H 0.60406 1.04534 0.67163
 O807 O 0.42029 0.97923 0.61662
 O808 O 0.39468 0.97974 0.64358
 C809 C 0.41263 0.97171 0.63524
 C810 C 0.42453 0.95307 0.64689
 C811 C 0.41746 0.94535 0.66829
 H812 H 0.40363 0.95361 0.67683
 O813 O 0.52560 1.11128 0.58373
 O814 O 0.52621 1.13735 0.61041
 C815 C 0.53337 1.12954 0.59170
 C816 C 0.55122 1.14158 0.57932
 C817 C 0.55812 1.16301 0.58636
 H818 H 0.55001 1.17098 0.60073
 O819 O 0.47777 0.88910 0.58363
 O820 O 0.47747 0.86258 0.60974
 C821 C 0.46989 0.87086 0.59133
 C822 C 0.45155 0.85945 0.57877
 C823 C 0.44448 0.83777 0.58488
 H824 H 0.45281 0.82900 0.59865
 O825 O 0.61350 1.08036 0.52298
 O826 O 0.64015 1.10601 0.52286
 C827 C 0.63208 1.08776 0.53049
 C828 C 0.64413 1.07509 0.54849
 C829 C 0.66563 1.08169 0.55580
 H830 H 0.67382 1.09581 0.54775
 O831 O 0.38723 0.92171 0.52436
 O832 O 0.36107 0.89558 0.52469
 C833 C 0.36921 0.91373 0.53253
 C834 C 0.35817 0.92537 0.55183
 C835 C 0.33805 0.91718 0.56112
 H836 H 0.33002 0.90258 0.55370
 O837 O 0.48212 1.08058 0.61512
 O838 O 0.48297 1.10661 0.64182
 C839 C 0.47487 1.08856 0.63375
 C840 C 0.45630 1.07727 0.64578
 C841 C 0.44823 1.08612 0.66629
 H842 H 0.45652 1.10044 0.67397
 O843 O 0.52264 0.91852 0.61439
 O844 O 0.52262 0.89233 0.64084
 C845 C 0.53053 0.91043 0.63270
 C846 C 0.54942 0.92203 0.64423
 C847 C 0.55711 0.91499 0.66569
 H848 H 0.54870 0.90136 0.67434
 O849 O 0.61394 0.97517 0.58132
 O850 O 0.64057 0.97454 0.60744
 C851 C 0.63211 0.96698 0.58912
 C852 C 0.64296 0.94799 0.57708
 C853 C 0.66354 0.93905 0.58469
 H854 H 0.67205 0.94652 0.59913
 O855 O 0.38990 1.02372 0.58598
 O856 O 0.36402 1.02428 0.61268
 C857 C 0.37190 1.03183 0.59416
 C858 C 0.36057 1.05070 0.58230
 C859 C 0.34057 1.06008 0.59084
 H860 H 0.33283 1.05307 0.60587
 O861 O 0.42190 1.11265 0.52475
 O862 O 0.39617 1.13931 0.52522
 C863 C 0.41446 1.13106 0.53267
 C864 C 0.42699 1.14259 0.55110
 C865 C 0.42043 1.16397 0.55875
 H866 H 0.40658 1.17256 0.55051
 O867 O 0.57874 0.88548 0.52237
 O868 O 0.60430 0.85867 0.52156
 C869 C 0.58639 0.86697 0.52978
 C870 C 0.57453 0.85545 0.54854
 C871 C 0.58119 0.83400 0.55593
 H872 H 0.59469 0.82530 0.54730
 O873 O 0.42151 1.02299 0.61627
 O874 O 0.39578 1.02365 0.64312
 C875 C 0.41405 1.03091 0.63483
 C876 C 0.42643 1.04921 0.64639
 C877 C 0.41852 1.05840 0.66690
 H878 H 0.40355 1.05166 0.67472
 O879 O 0.58334 0.97592 0.61252
 O880 O 0.60985 0.97553 0.63878
 C881 C 0.59129 0.96826 0.63102
 C882 C 0.57904 0.95043 0.64337
 C883 C 0.58638 0.94324 0.66485
 H884 H 0.60090 0.95108 0.67264
 O885 O 0.52139 0.88760 0.58339
 O886 O 0.52117 0.86123 0.60966
 C887 C 0.52863 0.86901 0.59108
 C888 C 0.54619 0.85655 0.57849
 C889 C 0.55295 0.83507 0.58554
 H890 H 0.54498 0.82738 0.60009
 O891 O 0.48193 1.11126 0.58399
 O892 O 0.48262 1.13738 0.61062
 C893 C 0.47464 1.12963 0.59214
 C894 C 0.45643 1.14183 0.58018
 C895 C 0.44966 1.16322 0.58754
 H896 H 0.45805 1.17100 0.60189
 O897 O 0.39073 1.08242 0.52548
 O898 O 0.36493 1.10902 0.52583
 C899 C 0.37279 1.09072 0.53358
 C900 C 0.36123 1.07944 0.55266
 C901 C 0.34135 1.08855 0.56146
 H902 H 0.33392 1.10321 0.55354
 O903 O 0.61013 0.91547 0.52237
 O904 O 0.63584 0.88880 0.52156
 C905 C 0.62842 0.90714 0.52966
 C906 C 0.64092 0.91862 0.54808
 C907 C 0.66141 0.90991 0.55591
 H908 H 0.66856 0.89522 0.54779
 O909 O 0.47880 0.91936 0.61533
 O910 O 0.47866 0.89306 0.64166
 C911 C 0.47126 0.91154 0.63387
 C912 C 0.45334 0.92377 0.64620
 C913 C 0.44613 0.91640 0.66761
 H914 H 0.45409 0.90194 0.67539
 O915 O 0.52597 1.07992 0.61424
 O916 O 0.52682 1.10589 0.64100
 C917 C 0.53414 1.08760 0.63264
 C918 C 0.55272 1.07538 0.64401
 C919 C 0.56146 1.08294 0.66488
 H920 H 0.55424 1.09757 0.67306
 O921 O 0.38980 0.97990 0.58518
 O922 O 0.36401 0.98029 0.61198
 C923 C 0.37160 0.97249 0.59338
 C924 C 0.35951 0.95413 0.58158
 C925 C 0.33948 0.94571 0.59056
 H926 H 0.33226 0.95344 0.60554
 O927 O 0.61430 1.01915 0.58092
 O928 O 0.64105 1.01853 0.60691
 C929 C 0.63282 1.02649 0.58865
 C930 C 0.64456 1.04490 0.57666
 C931 C 0.66603 1.05173 0.58367
 H932 H 0.67428 1.04309 0.59758
 O933 O 0.41821 0.89108 0.52352
 O934 O 0.39215 0.86482 0.52339
 C935 C 0.41054 0.87264 0.53099
 C936 C 0.42282 0.86034 0.54900
 C937 C 0.41613 0.83865 0.55522
 H938 H 0.40219 0.83074 0.54646
 O939 O 0.58357 1.11195 0.52345
 O940 O 0.60995 1.13788 0.52331
 C941 C 0.59172 1.13013 0.53119
 C942 C 0.57995 1.14193 0.54984
 C943 C 0.58681 1.16334 0.55720
 H944 H 0.60053 1.17175 0.54872
 Cu945 Cu 0.59635 0.99749 0.59417
 Cu946 Cu 0.62829 0.99692 0.62555
 Cu947 Cu 0.40794 1.00142 0.59835
 Cu948 Cu 0.37701 1.00202 0.63051
 Cu949 Cu 0.50387 1.09312 0.59662
 Cu950 Cu 0.50473 1.12437 0.62870
 Cu951 Cu 0.50017 0.90630 0.59660
 Cu952 Cu 0.49994 0.87470 0.62816
 C953 C 0.56266 1.05671 0.63334
 H954 H 0.55625 1.05097 0.61709
 C955 C 0.58005 1.07223 0.67489
 C956 C 0.44261 0.94226 0.63612
 H957 H 0.44794 0.94787 0.61948
 C958 C 0.42826 0.92708 0.67883
 C959 C 0.56203 1.13132 0.56091
 H960 H 0.55687 1.11469 0.55557
 C961 C 0.57582 1.17406 0.57537
 C962 C 0.44070 0.87051 0.56069
 H963 H 0.44581 0.88733 0.55606
 C964 C 0.42689 0.82720 0.57302
 C965 C 0.63385 1.05655 0.55892
 H966 H 0.61716 1.05153 0.55362
 C967 C 0.67674 1.07004 0.57333
 C968 C 0.36863 0.94399 0.56210
 H969 H 0.38432 0.95019 0.55532
 C970 C 0.32872 0.92719 0.58060
 C971 C 0.44546 1.05866 0.63608
 H972 H 0.45140 1.05200 0.62004
 C973 C 0.42925 1.07699 0.67684
 C974 C 0.56041 0.93988 0.63332
 H975 H 0.55480 0.94520 0.61664
 C976 C 0.57551 0.92560 0.67618
 C977 C 0.63194 0.93776 0.55863
 H978 H 0.61594 0.94433 0.55286
 C979 C 0.67280 0.91992 0.57423
 C980 C 0.37062 1.06041 0.56307
 H981 H 0.38619 1.05356 0.55658
 C982 C 0.33100 1.07915 0.58058
 C983 C 0.44514 1.13177 0.56181
 H984 H 0.45012 1.11515 0.55622
 C985 C 0.43173 1.17445 0.57692
 C986 C 0.55690 0.86646 0.55983
 H987 H 0.55188 0.88313 0.55448
 C988 C 0.57037 0.82363 0.57436
 O989 O 0.57963 0.97844 0.38690
 O990 O 0.60592 0.97809 0.36061
 C991 C 0.58751 0.97074 0.36840
 C992 C 0.57546 0.95261 0.35624
 C993 C 0.58306 0.94479 0.33509
 H994 H 0.59758 0.95251 0.32731
 O995 O 0.41789 1.02334 0.38821
 O996 O 0.39132 1.02436 0.36204
 C997 C 0.40985 1.03152 0.36999
 C998 C 0.42200 1.04981 0.35824
 C999 C 0.41455 1.05779 0.33705
 H1000 H 0.40028 1.04996 0.32880
 O1001 O 0.47845 1.11305 0.41928
 O1002 O 0.47822 1.13945 0.39304
 C1003 C 0.47075 1.13144 0.41152
 C1004 C 0.45260 1.14321 0.42398
 C1005 C 0.44482 1.16441 0.41691
 H1006 H 0.45264 1.17267 0.40259
 O1007 O 0.51973 0.88952 0.41742
 O1008 O 0.51871 0.86332 0.39089
 C1009 C 0.52670 0.87097 0.40937
 C1010 C 0.54471 0.85846 0.42121
 C1011 C 0.55232 0.83788 0.41253
 H1012 H 0.54415 0.83059 0.39779
 O1013 O 0.60886 0.91663 0.47823
 O1014 O 0.63481 0.89019 0.47732
 C1015 C 0.62697 0.90877 0.47015
 C1016 C 0.63877 0.92123 0.45201
 C1017 C 0.66013 0.91438 0.44467
 H1018 H 0.66837 0.90028 0.45281
 O1019 O 0.38994 1.08210 0.48104
 O1020 O 0.36391 1.10847 0.48147
 C1021 C 0.37154 1.09007 0.47364
 C1022 C 0.35921 1.07799 0.45543
 C1023 C 0.33754 1.08479 0.44885
 H1024 H 0.32939 1.09855 0.45764
 O1025 O 0.52186 1.08226 0.38770
 O1026 O 0.52200 1.10862 0.36143
 C1027 C 0.52964 1.09029 0.36934
 C1028 C 0.54827 1.07848 0.35765
 C1029 C 0.55754 1.08700 0.33745
 H1030 H 0.55058 1.10203 0.32982
 O1031 O 0.47667 0.92147 0.38630
 O1032 O 0.47601 0.89537 0.35965
 C1033 C 0.46884 0.91379 0.36774
 C1034 C 0.45076 0.92606 0.35577
 C1035 C 0.44374 0.91930 0.33406
 H1036 H 0.45209 0.90538 0.32572
 O1037 O 0.61103 1.02135 0.41881
 O1038 O 0.63741 1.02077 0.39260
 C1039 C 0.62956 1.02853 0.41105
 C1040 C 0.64183 1.04645 0.42330
 C1041 C 0.66317 1.05326 0.41599
 H1042 H 0.67087 1.04501 0.40155
 O1043 O 0.38686 0.97945 0.41861
 O1044 O 0.36024 0.98011 0.39248
 C1045 C 0.36836 0.97212 0.41077
 C1046 C 0.35661 0.95377 0.42288
 C1047 C 0.33632 0.94483 0.41450
 H1048 H 0.32875 0.95173 0.39927
 O1049 O 0.58253 1.11171 0.47916
 O1050 O 0.60892 1.13762 0.47880
 C1051 C 0.59043 1.12989 0.47130
 C1052 C 0.57808 1.14181 0.45297
 C1053 C 0.58502 1.16309 0.44543
 H1054 H 0.59920 1.17127 0.45347
 O1055 O 0.41723 0.89138 0.47914
 O1056 O 0.39104 0.86526 0.47908
 C1057 C 0.40913 0.87329 0.47112
 C1058 C 0.42053 0.86192 0.45188
 C1059 C 0.41203 0.84172 0.44288
 H1060 H 0.39739 0.83399 0.45040
 O1061 O 0.41731 0.97967 0.38725
 O1062 O 0.39091 0.98050 0.36090
 C1063 C 0.40922 0.97254 0.36859
 C1064 C 0.42121 0.95453 0.35616
 C1065 C 0.41419 0.94738 0.33446
 H1066 H 0.40004 0.95548 0.32624
 O1067 O 0.57980 1.02229 0.38804
 O1068 O 0.60617 1.02191 0.36182
 C1069 C 0.58804 1.02997 0.36976
 C1070 C 0.57683 1.04893 0.35803
 C1071 C 0.58582 1.05766 0.33791
 H1072 H 0.60036 1.04972 0.33031
 O1073 O 0.47604 0.89158 0.41817
 O1074 O 0.47507 0.86542 0.39159
 C1075 C 0.46778 0.87359 0.41015
 C1076 C 0.44916 0.86229 0.42214
 C1077 C 0.44043 0.84218 0.41351
 H1078 H 0.44805 0.83448 0.39872
 O1079 O 0.52221 1.11196 0.41988
 O1080 O 0.52203 1.13848 0.39376
 C1081 C 0.52981 1.13030 0.41213
 C1082 C 0.54823 1.14198 0.42428
 C1083 C 0.55528 1.16328 0.41716
 H1084 H 0.54684 1.17140 0.40304
 O1085 O 0.38666 0.92221 0.47983
 O1086 O 0.36042 0.89615 0.48011
 C1087 C 0.36835 0.91428 0.47216
 C1088 C 0.35664 0.92569 0.45316
 C1089 C 0.33646 0.91703 0.44457
 H1090 H 0.32873 0.90275 0.45281
 O1091 O 0.61292 1.08063 0.47882
 O1092 O 0.63957 1.10627 0.47850
 C1093 C 0.63124 1.08810 0.47092
 C1094 C 0.64264 1.07570 0.45245
 C1095 C 0.66398 1.08226 0.44493
 H1096 H 0.67256 1.09601 0.45330
 O1097 O 0.52043 0.92035 0.38637
 O1098 O 0.51969 0.89419 0.35980
 C1099 C 0.52781 0.91225 0.36785
 C1100 C 0.54638 0.92377 0.35598
 C1101 C 0.55425 0.91607 0.33484
 H1102 H 0.54613 0.90196 0.32660
 O1103 O 0.47801 1.08180 0.38860
 O1104 O 0.47802 1.10804 0.36220
 C1105 C 0.47026 1.08982 0.37019
 C1106 C 0.45166 1.07816 0.35830
 C1107 C 0.44399 1.08584 0.33711
 H1108 H 0.45207 1.10009 0.32920
 O1109 O 0.38830 1.02308 0.42027
 O1110 O 0.36146 1.02395 0.39436
 C1111 C 0.36992 1.03107 0.41291
 C1112 C 0.35849 1.04906 0.42585
 C1113 C 0.33686 1.05602 0.41963
 H1114 H 0.32840 1.04793 0.40550
 O1115 O 0.60926 0.97755 0.41923
 O1116 O 0.63564 0.97713 0.39302
 C1117 C 0.62743 0.96957 0.41140
 C1118 C 0.63897 0.95105 0.42348
 C1119 C 0.66031 0.94398 0.41646
 H1120 H 0.66845 0.95237 0.40241
 O1121 O 0.57828 0.88585 0.47796
 O1122 O 0.60401 0.85921 0.47701
 C1123 C 0.58582 0.86766 0.46962
 C1124 C 0.57364 0.85670 0.45066
 C1125 C 0.58112 0.83612 0.44164
 H1126 H 0.59558 0.82780 0.44905
 O1127 O 0.42074 1.11284 0.48035
 O1128 O 0.39484 1.13933 0.48088
 C1129 C 0.41285 1.13122 0.47279
 C1130 C 0.42444 1.14306 0.45409
 C1131 C 0.41698 1.16426 0.44687
 H1132 H 0.40292 1.17217 0.45536
 Cu1133 Cu 0.59226 0.99995 0.40585
 Cu1134 Cu 0.62391 0.99941 0.37437
 Cu1135 Cu 0.40526 1.00123 0.40616
 Cu1136 Cu 0.37328 1.00237 0.37483
 Cu1137 Cu 0.59546 1.09364 0.50115
 Cu1138 Cu 0.62731 1.12455 0.50085
 Cu1139 Cu 0.59137 0.90346 0.50033
 Cu1140 Cu 0.62231 0.87151 0.49926
 Cu1141 Cu 0.40842 1.09486 0.50283
 Cu1142 Cu 0.37735 1.12667 0.50337
 Cu1143 Cu 0.40491 0.90924 0.50175
 Cu1144 Cu 0.37351 0.87787 0.50188
 Cu1145 Cu 0.50012 1.09462 0.40645
 Cu1146 Cu 0.50005 1.12627 0.37495
 Cu1147 Cu 0.49836 0.90841 0.40470
 Cu1148 Cu 0.49725 0.87691 0.37285
 C1149 C 0.55698 0.94217 0.36639
 H1150 H 0.55123 0.94798 0.38283
 C1151 C 0.57256 0.92656 0.32422
 C1152 C 0.44069 1.05999 0.36862
 H1153 H 0.44634 1.05415 0.38512
 C1154 C 0.42549 1.07576 0.32634
 C1155 C 0.44240 1.13280 0.44270
 H1156 H 0.44806 1.11634 0.44806
 C1157 C 0.42707 1.17512 0.42836
 C1158 C 0.55530 0.86762 0.44043
 H1159 H 0.54970 0.88368 0.44699
 C1160 C 0.57060 0.82667 0.42248
 C1161 C 0.62840 0.93973 0.44143
 H1162 H 0.61181 0.94496 0.44676
 C1163 C 0.67104 0.92573 0.42697
 C1164 C 0.36945 1.05996 0.44395
 H1165 H 0.38627 1.05481 0.44867
 C1166 C 0.32621 1.07377 0.43106
 C1167 C 0.55794 1.05931 0.36765
 H1168 H 0.55116 1.05285 0.38339
 C1169 C 0.57644 1.07676 0.32759
 C1170 C 0.43963 0.94386 0.36653
 H1171 H 0.44491 0.94896 0.38340
 C1172 C 0.42555 0.92987 0.32322
 C1173 C 0.63180 1.05763 0.44167
 H1174 H 0.61521 1.05266 0.44718
 C1175 C 0.67438 1.07112 0.42671
 C1176 C 0.36647 0.94418 0.44234
 H1177 H 0.38227 0.95069 0.44868
 C1178 C 0.32627 0.92629 0.42517
 C1179 C 0.55955 1.13149 0.44237
 H1180 H 0.55430 1.11495 0.44780
 C1181 C 0.57357 1.17399 0.42762
 C1182 C 0.43923 0.87199 0.44146
 H1183 H 0.44568 0.88772 0.44800
 C1184 C 0.42181 0.83191 0.42357
 O1185 O 0.58380 0.51909 1.11202
 O1186 O 0.61025 0.51866 1.13832
 C1187 C 0.59192 0.52654 1.13054
 C1188 C 0.58032 0.54497 1.14282
 C1189 C 0.58908 0.55309 1.16341
 H1190 H 0.60372 0.54512 1.17085
 O1191 O 0.41959 0.47927 1.11264
 O1192 O 0.39414 0.47930 1.13978
 C1193 C 0.41223 0.47162 1.13129
 C1194 C 0.42465 0.45331 1.14288
 C1195 C 0.41808 0.44590 1.16451
 H1196 H 0.40431 0.45414 1.17316
 O1197 O 0.52360 0.60942 1.08386
 O1198 O 0.52462 0.63559 1.11041
 C1199 C 0.53165 0.62760 1.09168
 C1200 C 0.54965 0.63929 1.07909
 C1201 C 0.55732 0.66041 1.08631
 H1202 H 0.54976 0.66834 1.10100
 O1203 O 0.47793 0.38775 1.08094
 O1204 O 0.47775 0.36168 1.10751
 C1205 C 0.46998 0.36968 1.08910
 C1206 C 0.45117 0.35819 1.07733
 C1207 C 0.44357 0.33708 1.08473
 H1208 H 0.45204 0.32868 1.09865
 O1209 O 0.61184 0.57830 1.02135
 O1210 O 0.63778 0.60465 1.02076
 C1211 C 0.63018 0.58639 1.02877
 C1212 C 0.64240 0.57494 1.04746
 C1213 C 0.66231 0.58414 1.05613
 H1214 H 0.66939 0.59896 1.04828
 O1215 O 0.38541 0.41963 1.02381
 O1216 O 0.35915 0.39360 1.02440
 C1217 C 0.36734 0.41180 1.03201
 C1218 C 0.35620 0.42375 1.05100
 C1219 C 0.33598 0.41575 1.06023
 H1220 H 0.32809 0.40096 1.05305
 O1221 O 0.47994 0.57975 1.11591
 O1222 O 0.48087 0.60575 1.14263
 C1223 C 0.47254 0.58785 1.13444
 C1224 C 0.45340 0.57676 1.14589
 C1225 C 0.44423 0.58561 1.16606
 H1226 H 0.45175 0.60022 1.17399
 O1227 O 0.52313 0.41777 1.11131
 O1228 O 0.52272 0.39171 1.13788
 C1229 C 0.53091 0.40962 1.12969
 C1230 C 0.55019 0.42053 1.14127
 C1231 C 0.55907 0.41124 1.16128
 H1232 H 0.55103 0.39679 1.16887
 O1233 O 0.61438 0.47535 1.08040
 O1234 O 0.64105 0.47500 1.10647
 C1235 C 0.63271 0.46744 1.08808
 C1236 C 0.64390 0.44872 1.07584
 C1237 C 0.66435 0.43968 1.08370
 H1238 H 0.67254 0.44690 1.09846
 O1239 O 0.38825 0.52323 1.08258
 O1240 O 0.36232 0.52344 1.10924
 C1241 C 0.37014 0.53106 1.09069
 C1242 C 0.35851 0.54953 1.07851
 C1243 C 0.33698 0.55682 1.08499
 H1244 H 0.32833 0.54848 1.09877
 O1245 O 0.42104 0.61294 1.02387
 O1246 O 0.39524 0.63951 1.02424
 C1247 C 0.41333 0.63113 1.03205
 C1248 C 0.42517 0.64210 1.05139
 C1249 C 0.41703 0.66225 1.06084
 H1250 H 0.40236 0.67026 1.05354
 O1251 O 0.58083 0.38603 1.02071
 O1252 O 0.60667 0.35948 1.02016
 C1253 C 0.58868 0.36766 1.02831
 C1254 C 0.57701 0.35624 1.04727
 C1255 C 0.58542 0.33612 1.05651
 H1256 H 0.60031 0.32845 1.04935
 O1257 O 0.41906 0.52298 1.11384
 O1258 O 0.39323 0.52307 1.14060
 C1259 C 0.41143 0.53060 1.13249
 C1260 C 0.42342 0.54882 1.14459
 C1261 C 0.41455 0.55785 1.16468
 H1262 H 0.39948 0.55068 1.17191
 O1263 O 0.58403 0.47527 1.11181
 O1264 O 0.61052 0.47465 1.13806
 C1265 C 0.59212 0.46721 1.13007
 C1266 C 0.58021 0.44855 1.14160
 C1267 C 0.58884 0.43894 1.16169
 H1268 H 0.60404 0.44557 1.16927
 O1269 O 0.52187 0.38720 1.07998
 O1270 O 0.52159 0.36118 1.10660
 C1271 C 0.52933 0.36889 1.08809
 C1272 C 0.54782 0.35690 1.07639
 C1273 C 0.55641 0.33682 1.08533
 H1274 H 0.54858 0.32937 1.10009
 O1275 O 0.47987 0.61004 1.08444
 O1276 O 0.48084 0.63614 1.11106
 C1277 C 0.47265 0.62842 1.09265
 C1278 C 0.45411 0.64061 1.08104
 C1279 C 0.44574 0.66075 1.09014
 H1280 H 0.45361 0.66795 1.10509
 O1281 O 0.38977 0.58275 1.02348
 O1282 O 0.36380 0.60919 1.02360
 C1283 C 0.37150 0.59072 1.03112
 C1284 C 0.35929 0.57858 1.04919
 C1285 C 0.33775 0.58546 1.05572
 H1286 H 0.32986 0.59956 1.04722
 O1287 O 0.61181 0.41642 1.02038
 O1288 O 0.63776 0.38997 1.01965
 C1289 C 0.63016 0.40825 1.02774
 C1290 C 0.64244 0.41975 1.04633
 C1291 C 0.66282 0.41100 1.05442
 H1292 H 0.67012 0.39640 1.04625
 O1293 O 0.47917 0.41947 1.11128
 O1294 O 0.47895 0.39347 1.13792
 C1295 C 0.47163 0.41190 1.12991
 C1296 C 0.45380 0.42431 1.14217
 C1297 C 0.44700 0.41724 1.16380
 H1298 H 0.45518 0.40296 1.17168
 O1299 O 0.52394 0.57838 1.11472
 O1300 O 0.52501 0.60440 1.14141
 C1301 C 0.53231 0.58609 1.13303
 C1302 C 0.55120 0.57403 1.14420
 C1303 C 0.56029 0.58187 1.16485
 H1304 H 0.55305 0.59645 1.17308
 O1305 O 0.38736 0.47934 1.08302
 O1306 O 0.36178 0.47953 1.11002
 C1307 C 0.36928 0.47174 1.09145
 C1308 C 0.35722 0.45316 1.07998
 C1309 C 0.33703 0.44497 1.08894
 H1310 H 0.32964 0.45309 1.10362
 O1311 O 0.61449 0.51926 1.08094
 O1312 O 0.64109 0.51915 1.10708
 C1313 C 0.63278 0.52704 1.08882
 C1314 C 0.64387 0.54598 1.07692
 C1315 C 0.66388 0.55548 1.08534
 H1316 H 0.67188 0.54848 1.10030
 O1317 O 0.41644 0.38913 1.02289
 O1318 O 0.39032 0.36295 1.02335
 C1319 C 0.40882 0.37080 1.03065
 C1320 C 0.42136 0.35878 1.04868
 C1321 C 0.41413 0.33767 1.05619
 H1322 H 0.39954 0.32996 1.04842
 O1323 O 0.58119 0.60928 1.02232
 O1324 O 0.60713 0.63564 1.02168
 C1325 C 0.58919 0.62760 1.02994
 C1326 C 0.57780 0.63935 1.04894
 C1327 C 0.58530 0.66049 1.05648
 H1328 H 0.59901 0.66871 1.04781
 Cu1329 Cu 0.59659 0.49726 1.09365
 Cu1330 Cu 0.62839 0.49685 1.12511
 Cu1331 Cu 0.40608 0.50123 1.09529
 Cu1332 Cu 0.37530 0.50134 1.12760
 Cu1333 Cu 0.50175 0.59173 1.09716
 Cu1334 Cu 0.50299 0.62304 1.12908
 Cu1335 Cu 0.50050 0.40563 1.09319
 Cu1336 Cu 0.50017 0.37443 1.12515
 C1337 C 0.56124 0.55543 1.13344
 H1338 H 0.55462 0.54950 1.11734
 C1339 C 0.57933 0.57158 1.17447
 C1340 C 0.44269 0.44253 1.13193
 H1341 H 0.44766 0.44789 1.11510
 C1342 C 0.42922 0.42791 1.17509
 C1343 C 0.55985 0.62900 1.06025
 H1344 H 0.55417 0.61259 1.05475
 C1345 C 0.57506 0.67119 1.07509
 C1346 C 0.44005 0.36879 1.05917
 H1347 H 0.44557 0.38521 1.05361
 C1348 C 0.42513 0.32666 1.07414
 C1349 C 0.63342 0.55575 1.05783
 H1350 H 0.61782 0.54883 1.05145
 C1351 C 0.67306 0.57472 1.07513
 C1352 C 0.36654 0.44259 1.06088
 H1353 H 0.38230 0.44864 1.05413
 C1354 C 0.32635 0.42620 1.07930
 C1355 C 0.44296 0.55823 1.13545
 H1356 H 0.44964 0.55155 1.11972
 C1357 C 0.42464 0.57634 1.17541
 C1358 C 0.56077 0.43929 1.13166
 H1359 H 0.55421 0.44629 1.11601
 C1360 C 0.57844 0.42014 1.17150
 C1361 C 0.63323 0.43873 1.05700
 H1362 H 0.61731 0.44532 1.05107
 C1363 C 0.67383 0.42070 1.07315
 C1364 C 0.36941 0.56045 1.06048
 H1365 H 0.38613 0.55519 1.05559
 C1366 C 0.32640 0.57465 1.07347
 C1367 C 0.44382 0.63154 1.06154
 H1368 H 0.44996 0.61582 1.05464
 C1369 C 0.42714 0.67163 1.08032
 C1370 C 0.55808 0.36634 1.05723
 H1371 H 0.55173 0.38204 1.05049
 C1372 C 0.57530 0.32641 1.07568
 O1373 O 0.57843 0.47593 0.88521
 O1374 O 0.60435 0.47516 0.85857
 C1375 C 0.58618 0.46765 0.86693
 C1376 C 0.57427 0.44865 0.85581
 C1377 C 0.58261 0.43901 0.83567
 H1378 H 0.59753 0.44586 0.82784
 O1379 O 0.41667 0.52050 0.88790
 O1380 O 0.38999 0.52096 0.86182
 C1381 C 0.40858 0.52819 0.86948
 C1382 C 0.42045 0.54626 0.85724
 C1383 C 0.41182 0.55450 0.83669
 H1384 H 0.39717 0.54669 0.82914
 O1385 O 0.47693 0.60969 0.91708
 O1386 O 0.47688 0.63585 0.89059
 C1387 C 0.46944 0.62810 0.90918
 C1388 C 0.45154 0.64045 0.92133
 C1389 C 0.44300 0.66051 0.91232
 H1390 H 0.45027 0.66745 0.89701
 O1391 O 0.51853 0.38640 0.91862
 O1392 O 0.51767 0.36004 0.89226
 C1393 C 0.52583 0.36800 0.91055
 C1394 C 0.54455 0.35616 0.92203
 C1395 C 0.55229 0.33548 0.91365
 H1396 H 0.54369 0.32758 0.89950
 O1397 O 0.61061 0.41685 0.97605
 O1398 O 0.63671 0.39056 0.97527
 C1399 C 0.62871 0.40899 0.96792
 C1400 C 0.64029 0.42131 0.94950
 C1401 C 0.66173 0.41468 0.94216
 H1402 H 0.67023 0.40085 0.95051
 O1403 O 0.38978 0.58269 0.97927
 O1404 O 0.36386 0.60917 0.97938
 C1405 C 0.37151 0.59075 0.97161
 C1406 C 0.35929 0.57876 0.95321
 C1407 C 0.33820 0.58644 0.94570
 H1408 H 0.33046 0.60079 0.95387
 O1409 O 0.52024 0.57868 0.88524
 O1410 O 0.52003 0.60505 0.85897
 C1411 C 0.52776 0.58674 0.86678
 C1412 C 0.54619 0.57517 0.85465
 C1413 C 0.55489 0.58424 0.83454
 H1414 H 0.54724 0.59909 0.82722
 O1415 O 0.47464 0.41777 0.88795
 O1416 O 0.47399 0.39145 0.86154
 C1417 C 0.46654 0.40978 0.86966
 C1418 C 0.44768 0.42138 0.85814
 C1419 C 0.43866 0.41258 0.83799
 H1420 H 0.44630 0.39795 0.83021
 O1421 O 0.60960 0.52030 0.91532
 O1422 O 0.63554 0.52005 0.88868
 C1423 C 0.62772 0.52800 0.90712
 C1424 C 0.63932 0.54682 0.91890
 C1425 C 0.65904 0.55627 0.90989
 H1426 H 0.66632 0.54941 0.89452
 O1427 O 0.38497 0.47808 0.91972
 O1428 O 0.35823 0.47874 0.89372
 C1429 C 0.36627 0.47102 0.91213
 C1430 C 0.35410 0.45324 0.92453
 C1431 C 0.33274 0.44620 0.91735
 H1432 H 0.32481 0.45428 0.90291
 O1433 O 0.57972 0.60919 0.97787
 O1434 O 0.60563 0.63559 0.97740
 C1435 C 0.58726 0.62754 0.97001
 C1436 C 0.57489 0.63929 0.95166
 C1437 C 0.58160 0.66073 0.94446
 H1438 H 0.59528 0.66918 0.95308
 O1439 O 0.41525 0.38914 0.97863
 O1440 O 0.38894 0.36315 0.97904
 C1441 C 0.40707 0.37096 0.97095
 C1442 C 0.41840 0.35902 0.95206
 C1443 C 0.40946 0.33892 0.94357
 H1444 H 0.39477 0.33167 0.95149
 O1445 O 0.41546 0.47676 0.88834
 O1446 O 0.38881 0.47715 0.86224
 C1447 C 0.40705 0.46909 0.87004
 C1448 C 0.41841 0.45024 0.85820
 C1449 C 0.40964 0.44119 0.83789
 H1450 H 0.39469 0.44839 0.83029
 O1451 O 0.57904 0.51983 0.88391
 O1452 O 0.60485 0.51930 0.85716
 C1453 C 0.58680 0.52728 0.86530
 C1454 C 0.57510 0.54603 0.85368
 C1455 C 0.58362 0.55537 0.83348
 H1456 H 0.59846 0.54825 0.82568
 O1457 O 0.47456 0.38680 0.91877
 O1458 O 0.47378 0.36047 0.89238
 C1459 C 0.46636 0.36870 0.91083
 C1460 C 0.44746 0.35764 0.92279
 C1461 C 0.43823 0.33741 0.91456
 H1462 H 0.44542 0.32930 0.89978
 O1463 O 0.52054 0.60866 0.91724
 O1464 O 0.52041 0.63511 0.89105
 C1465 C 0.52806 0.62703 0.90952
 C1466 C 0.54607 0.63894 0.92199
 C1467 C 0.55301 0.66034 0.91505
 H1468 H 0.54495 0.66826 0.90060
 O1469 O 0.38441 0.41980 0.97952
 O1470 O 0.35797 0.39393 0.98001
 C1471 C 0.36588 0.41211 0.97215
 C1472 C 0.35389 0.42425 0.95383
 C1473 C 0.33255 0.41733 0.94637
 H1474 H 0.32427 0.40345 0.95473
 O1475 O 0.61050 0.57845 0.97678
 O1476 O 0.63644 0.60480 0.97626
 C1477 C 0.62836 0.58660 0.96845
 C1478 C 0.63947 0.57533 0.94897
 C1479 C 0.65908 0.58446 0.93969
 H1480 H 0.66669 0.59905 0.94757
 O1481 O 0.51863 0.41699 0.88733
 O1482 O 0.51791 0.39064 0.86096
 C1483 C 0.52606 0.40878 0.86886
 C1484 C 0.54487 0.41995 0.85685
 C1485 C 0.55347 0.41066 0.83671
 H1486 H 0.54556 0.39597 0.82935
 O1487 O 0.47638 0.57869 0.88606
 O1488 O 0.47616 0.60484 0.85957
 C1489 C 0.46847 0.58667 0.86770
 C1490 C 0.44965 0.57498 0.85624
 C1491 C 0.44069 0.58310 0.83568
 H1492 H 0.44800 0.59771 0.82767
 O1493 O 0.38714 0.52187 0.91998
 O1494 O 0.36036 0.52251 0.89402
 C1495 C 0.36899 0.53012 0.91228
 C1496 C 0.35806 0.54906 0.92439
 C1497 C 0.33702 0.55699 0.91721
 H1498 H 0.32863 0.54897 0.90299
 O1499 O 0.60958 0.47648 0.91599
 O1500 O 0.63570 0.47612 0.88953
 C1501 C 0.62787 0.46876 0.90814
 C1502 C 0.63987 0.45068 0.92048
 C1503 C 0.66131 0.44385 0.91347
 H1504 H 0.66924 0.45216 0.89925
 O1505 O 0.57989 0.38602 0.97645
 O1506 O 0.60579 0.35954 0.97571
 C1507 C 0.58739 0.36766 0.96846
 C1508 C 0.57479 0.35598 0.95020
 C1509 C 0.58232 0.33528 0.94154
 H1510 H 0.59722 0.32747 0.94861
 O1511 O 0.42040 0.61341 0.97921
 O1512 O 0.39465 0.64004 0.97939
 C1513 C 0.41255 0.63166 0.97130
 C1514 C 0.42386 0.64255 0.95183
 C1515 C 0.41550 0.66266 0.94249
 H1516 H 0.40116 0.67091 0.95015
 Cu1517 Cu 0.59155 0.49821 0.90271
 Cu1518 Cu 0.62269 0.49755 0.87079
 Cu1519 Cu 0.40373 0.49917 0.90659
 Cu1520 Cu 0.37166 0.49991 0.87534
 Cu1521 Cu 0.59321 0.59117 0.99966
 Cu1522 Cu 0.62440 0.62274 0.99896
 Cu1523 Cu 0.59319 0.40395 0.99843
 Cu1524 Cu 0.62435 0.37223 0.99757
 Cu1525 Cu 0.40792 0.59540 1.00146
 Cu1526 Cu 0.37688 0.62722 1.00170
 Cu1527 Cu 0.40297 0.40707 1.00117
 Cu1528 Cu 0.37147 0.37576 1.00176
 Cu1529 Cu 0.49852 0.59123 0.90399
 Cu1530 Cu 0.49839 0.62282 0.87236
 Cu1531 Cu 0.49666 0.40461 0.90583
 Cu1532 Cu 0.49579 0.37304 0.87412
 C1533 C 0.55528 0.43906 0.86615
 H1534 H 0.54897 0.44610 0.88188
 C1535 C 0.57240 0.41991 0.82609
 C1536 C 0.43952 0.55642 0.86675
 H1537 H 0.44602 0.55033 0.88282
 C1538 C 0.42165 0.57300 0.82591
 C1539 C 0.44203 0.63171 0.94121
 H1540 H 0.44833 0.61601 0.94800
 C1541 C 0.42489 0.67161 0.92258
 C1542 C 0.55577 0.36616 0.94045
 H1543 H 0.55009 0.38230 0.94675
 C1544 C 0.57121 0.32498 0.92319
 C1545 C 0.62959 0.43948 0.93867
 H1546 H 0.61293 0.44451 0.94399
 C1547 C 0.67240 0.42595 0.92423
 C1548 C 0.36899 0.55993 0.94255
 H1549 H 0.38535 0.55406 0.94803
 C1550 C 0.32692 0.57560 0.92776
 C1551 C 0.55624 0.55594 0.86393
 H1552 H 0.54981 0.54914 0.87968
 C1553 C 0.57369 0.57464 0.82394
 C1554 C 0.43757 0.44031 0.86802
 H1555 H 0.44425 0.44692 0.88382
 C1556 C 0.41961 0.42221 0.82784
 C1557 C 0.62980 0.55641 0.93856
 H1558 H 0.61443 0.54952 0.94541
 C1559 C 0.66886 0.57526 0.92009
 C1560 C 0.36438 0.44235 0.94294
 H1561 H 0.38098 0.44753 0.94835
 C1562 C 0.32181 0.42829 0.92817
 C1563 C 0.55696 0.62863 0.94046
 H1564 H 0.55189 0.61198 0.94572
 C1565 C 0.57071 0.67139 0.92619
 C1566 C 0.43751 0.36817 0.94168
 H1567 H 0.44426 0.38390 0.94793
 C1568 C 0.41910 0.32807 0.92478
 C1569 C 1.15660 1.12735 1.29172
 C1570 C 1.13358 1.12319 1.28731
 C1571 C 1.11791 1.12996 1.30410
 C1572 C 1.12516 1.14026 1.32436
 C1573 C 1.14801 1.14400 1.32847
 C1574 C 1.16358 1.13753 1.31192
 C1575 C 1.09505 1.12640 1.30067
 C1576 C 1.08721 1.11632 1.28090
 C1577 C 1.10202 1.10928 1.26356
 C1578 C 1.12561 1.11267 1.26687
 C1579 C 1.14043 1.10547 1.24962
 C1580 C 1.13259 1.09567 1.22971
 C1581 C 1.10970 1.09253 1.22607
 C1582 C 1.09402 1.09911 1.24295
 C1583 C 1.07097 1.09539 1.23829
 C1584 C 1.06394 1.08616 1.21764
 C1585 C 1.07950 1.08015 1.20091
 C1586 C 1.10240 1.08310 1.20540
 H1587 H 1.16974 1.12303 1.27999
 H1588 H 1.11303 1.14512 1.33716
 H1589 H 1.18132 1.14050 1.31457
 H1590 H 1.08300 1.13151 1.31346
 H1591 H 1.06930 1.11434 1.27977
 H1592 H 1.15837 1.10719 1.25086
 H1593 H 1.14464 1.09059 1.21692
 H1594 H 1.05784 1.09957 1.25008
 H1595 H 1.04614 1.08374 1.21472
 H1596 H 1.11458 1.07869 1.19247
 C1597 C 1.16244 0.63266 0.78459
 C1598 C 1.13926 0.62895 0.78049
 C1599 C 1.12393 0.63616 0.79741
 C1600 C 1.13159 0.64696 0.81718
 C1601 C 1.15449 0.65086 0.82065
 C1602 C 1.16982 0.64345 0.80432
 C1603 C 1.10099 0.63278 0.79451
 C1604 C 1.09269 0.62262 0.77500
 C1605 C 1.10708 0.61546 0.75738
 C1606 C 1.13078 0.61859 0.76020
 C1607 C 1.14516 0.61154 0.74253
 C1608 C 1.13679 0.60212 0.72266
 C1609 C 1.11380 0.59917 0.71955
 C1610 C 1.09856 0.60555 0.73688
 C1611 C 1.07539 0.60192 0.73278
 C1612 C 1.06783 0.59290 0.71223
 C1613 C 1.08297 0.58708 0.69506
 C1614 C 1.10598 0.59007 0.69896
 H1615 H 1.17536 0.62762 0.77290
 H1616 H 1.11971 0.65248 0.82996
 H1617 H 1.18761 0.64638 0.80669
 H1618 H 1.08923 0.63818 0.80745
 H1619 H 1.07473 0.62087 0.77423
 H1620 H 1.16312 0.61325 0.74333
 H1621 H 1.14851 0.59718 0.70950
 H1622 H 1.06256 0.60589 0.74499
 H1623 H 1.04998 0.59040 0.70980
 H1624 H 1.11784 0.58584 0.68568
 C1625 C 0.59945 1.12456 0.81705
 C1626 C 0.61285 1.11808 0.79825
 C1627 C 0.63649 1.11964 0.80077
 C1628 C 0.64605 1.12742 0.82111
 C1629 C 0.63253 1.13384 0.83941
 C1630 C 0.60921 1.13232 0.83721
 C1631 C 0.65057 1.11356 0.78295
 C1632 C 0.64183 1.10599 0.76248
 C1633 C 0.61845 1.10418 0.75890
 C1634 C 0.60369 1.11023 0.77711
 C1635 C 0.58032 1.10825 0.77356
 C1636 C 0.57160 1.10066 0.75304
 C1637 C 0.58571 1.09476 0.73515
 C1638 C 0.60933 1.09646 0.73773
 C1639 C 0.62282 1.09033 0.71891
 C1640 C 0.61323 1.08265 0.69871
 C1641 C 0.58992 1.08080 0.69638
 C1642 C 0.57624 1.08705 0.71465
 H1643 H 0.58140 1.12396 0.81681
 H1644 H 0.66413 1.12887 0.82264
 H1645 H 0.59850 1.13718 0.85123
 H1646 H 0.66864 1.11470 0.78484
 H1647 H 0.65404 1.10166 0.74977
 H1648 H 0.56814 1.11240 0.78637
 H1649 H 0.55354 1.09939 0.75116
 H1650 H 0.64085 1.09126 0.71908
 H1651 H 0.62417 1.07832 0.68469
 H1652 H 0.55817 1.08554 0.71304
 C1653 C 0.60277 0.62548 1.31551
 C1654 C 0.61562 0.61934 1.29623
 C1655 C 0.63925 0.62194 1.29771
 C1656 C 0.64930 0.63072 1.31745
 C1657 C 0.63624 0.63718 1.33610
 C1658 C 0.61296 0.63426 1.33499
 C1659 C 0.65280 0.61606 1.27941
 C1660 C 0.64351 0.60782 1.25942
 C1661 C 0.62008 0.60517 1.25681
 C1662 C 0.60589 0.61093 1.27557
 C1663 C 0.58246 0.60825 1.27295
 C1664 C 0.57316 0.60031 1.25282
 C1665 C 0.58670 0.59469 1.23440
 C1666 C 0.61036 0.59700 1.23606
 C1667 C 0.62326 0.59104 1.21678
 C1668 C 0.61310 0.58300 1.19699
 C1669 C 0.58977 0.58061 1.19555
 C1670 C 0.57665 0.58666 1.21430
 H1671 H 0.58479 0.62391 1.31615
 H1672 H 0.66732 0.63311 1.31810
 H1673 H 0.60257 0.63898 1.34931
 H1674 H 0.67087 0.61793 1.28049
 H1675 H 0.65533 0.60375 1.24625
 H1676 H 0.57067 0.61221 1.28619
 H1677 H 0.55508 0.59858 1.25166
 H1678 H 0.64126 0.59236 1.21627
 H1679 H 0.62361 0.57881 1.18260
 H1680 H 0.55857 0.58473 1.21338
 C1681 C 0.83968 0.86921 1.28740
 C1682 C 0.86270 0.87344 1.28321
 C1683 C 0.87834 0.86689 1.30021
 C1684 C 0.87106 0.85686 1.32050
 C1685 C 0.84820 0.85315 1.32443
 C1686 C 0.83267 0.85928 1.30762
 C1687 C 0.90120 0.87047 1.29697
 C1688 C 0.90906 0.88037 1.27720
 C1689 C 0.89427 0.88725 1.25971
 C1690 C 0.87068 0.88385 1.26282
 C1691 C 0.85586 0.89100 1.24547
 C1692 C 0.86372 0.90078 1.22565
 C1693 C 0.88661 0.90391 1.22219
 C1694 C 0.90228 0.89732 1.23915
 C1695 C 0.92534 0.90095 1.23463
 C1696 C 0.93237 0.91020 1.21408
 C1697 C 0.91681 0.91631 1.19730
 C1698 C 0.89390 0.91337 1.20162
 H1699 H 0.82658 0.87327 1.27546
 H1700 H 0.88316 0.85222 1.33348
 H1701 H 0.81493 0.85629 1.31012
 H1702 H 0.91324 0.86551 1.30990
 H1703 H 0.92697 0.88240 1.27624
 H1704 H 0.83793 0.88932 1.24660
 H1705 H 0.85166 0.90586 1.21279
 H1706 H 0.93847 0.89668 1.24647
 H1707 H 0.95017 0.91258 1.21127
 H1708 H 0.88173 0.91784 1.18865
 C1709 C 0.84555 0.37130 0.78824
 C1710 C 0.86870 0.37519 0.78445
 C1711 C 0.88391 0.36885 0.80192
 C1712 C 0.87609 0.35923 0.82222
 C1713 C 0.85311 0.35569 0.82568
 C1714 C 0.83801 0.36175 0.80846
 C1715 C 0.90688 0.37216 0.79912
 C1716 C 0.91526 0.38159 0.77933
 C1717 C 0.90093 0.38822 0.76136
 C1718 C 0.87724 0.38503 0.76399
 C1719 C 0.86288 0.39181 0.74611
 C1720 C 0.87125 0.40117 0.72630
 C1721 C 0.89423 0.40423 0.72337
 C1722 C 0.90947 0.39787 0.74080
 C1723 C 0.93265 0.40139 0.73677
 C1724 C 0.94017 0.41055 0.71632
 C1725 C 0.92500 0.41663 0.69917
 C1726 C 0.90201 0.41350 0.70292
 H1727 H 0.83274 0.37534 0.77598
 H1728 H 0.88788 0.35468 0.83552
 H1729 H 0.82019 0.35891 0.81058
 H1730 H 0.91858 0.36737 0.81241
 H1731 H 0.93321 0.38346 0.77872
 H1732 H 0.84492 0.39015 0.74679
 H1733 H 0.85952 0.40603 0.71305
 H1734 H 0.94549 0.39721 0.74896
 H1735 H 0.95803 0.41302 0.71398
 H1736 H 0.89011 0.41785 0.68964
 C1737 C 0.34367 0.87228 0.79201
 C1738 C 0.36667 0.87650 0.78773
 C1739 C 0.38237 0.87004 0.80472
 C1740 C 0.37513 0.86009 0.82507
 C1741 C 0.35229 0.85631 0.82906
 C1742 C 0.33672 0.86240 0.81229
 C1743 C 0.40522 0.87357 0.80137
 C1744 C 0.41303 0.88329 0.78149
 C1745 C 0.39820 0.89003 0.76397
 C1746 C 0.37461 0.88675 0.76723
 C1747 C 0.35975 0.89386 0.74990
 C1748 C 0.36755 0.90347 0.72998
 C1749 C 0.39044 0.90644 0.72636
 C1750 C 0.40616 0.89987 0.74327
 C1751 C 0.42922 0.90328 0.73857
 C1752 C 0.43620 0.91239 0.71792
 C1753 C 0.42058 0.91856 0.70122
 C1754 C 0.39768 0.91575 0.70570
 H1755 H 0.33054 0.87628 0.78008
 H1756 H 0.38728 0.85549 0.83802
 H1757 H 0.31899 0.85935 0.81482
 H1758 H 0.41729 0.86871 0.81430
 H1759 H 0.43094 0.88531 0.78045
 H1760 H 0.34181 0.89230 0.75115
 H1761 H 0.35545 0.90855 0.71715
 H1762 H 0.44240 0.89894 0.75033
 H1763 H 0.45399 0.91464 0.71499
 H1764 H 0.38545 0.92024 0.69278
 C1765 C 0.34531 0.37364 1.28862
 C1766 C 0.36837 0.37665 1.28369
 C1767 C 0.38422 0.36901 1.30002
 C1768 C 0.37710 0.35875 1.32022
 C1769 C 0.35425 0.35606 1.32471
 C1770 C 0.33848 0.36355 1.30878
 C1771 C 0.40711 0.37172 1.29622
 C1772 C 0.41479 0.38192 1.27656
 C1773 C 0.39981 0.38981 1.25970
 C1774 C 0.37620 0.38697 1.26324
 C1775 C 0.36123 0.39437 1.24614
 C1776 C 0.36893 0.40408 1.22625
 C1777 C 0.39179 0.40701 1.22256
 C1778 C 0.40762 0.40018 1.23926
 C1779 C 0.43064 0.40395 1.23464
 C1780 C 0.43748 0.41333 1.21409
 C1781 C 0.42175 0.41944 1.19749
 C1782 C 0.39890 0.41650 1.20199
 H1783 H 0.33203 0.37897 1.27742
 H1784 H 0.38929 0.35310 1.33269
 H1785 H 0.32071 0.36150 1.31200
 H1786 H 0.41928 0.36588 1.30863
 H1787 H 0.43274 0.38315 1.27506
 H1788 H 0.34330 0.39273 1.24740
 H1789 H 0.35677 0.40930 1.21355
 H1790 H 0.44385 0.39984 1.24643
 H1791 H 0.45525 0.41581 1.21116
 H1792 H 0.38660 0.42101 1.18915
 C1793 C 0.89677 1.12805 0.68381
 C1794 C 0.88439 1.12322 0.70374
 C1795 C 0.86079 1.12644 0.70288
 C1796 C 0.85034 1.13460 0.68310
 C1797 C 0.86298 1.13991 0.66385
 C1798 C 0.88619 1.13630 0.66432
 C1799 C 0.84770 1.12185 0.72186
 C1800 C 0.85742 1.11436 0.74192
 C1801 C 0.88086 1.11118 0.74391
 C1802 C 0.89458 1.11556 0.72446
 C1803 C 0.91800 1.11227 0.72645
 C1804 C 0.92773 1.10492 0.74659
 C1805 C 0.91464 1.10056 0.76566
 C1806 C 0.89103 1.10370 0.76469
 C1807 C 0.87861 1.09914 0.78463
 C1808 C 0.88912 1.09130 0.80428
 C1809 C 0.91235 1.08781 0.80496
 C1810 C 0.92508 1.09281 0.78567
 H1811 H 0.91467 1.12591 0.68268
 H1812 H 0.83238 1.13755 0.68289
 H1813 H 0.89623 1.14016 0.64953
 H1814 H 0.82966 1.12419 0.72126
 H1815 H 0.84593 1.11125 0.75561
 H1816 H 0.92945 1.11523 0.71268
 H1817 H 0.94577 1.10258 0.74722
 H1818 H 0.86071 1.10133 0.78573
 H1819 H 0.87896 1.08794 0.81913
 H1820 H 0.94308 1.09008 0.78606
 C1821 C 0.89495 0.63032 0.18861
 C1822 C 0.88229 0.62170 0.20699
 C1823 C 0.85855 0.62222 0.20501
 C1824 C 0.84817 0.63096 0.18550
 C1825 C 0.86098 0.63961 0.16770
 C1826 C 0.88439 0.63915 0.16938
 C1827 C 0.84519 0.61429 0.22261
 C1828 C 0.85477 0.60622 0.24249
 C1829 C 0.87828 0.60563 0.24558
 C1830 C 0.89230 0.61294 0.22731
 C1831 C 0.91581 0.61117 0.22996
 C1832 C 0.92536 0.60295 0.24984
 C1833 C 0.91197 0.59639 0.26801
 C1834 C 0.88825 0.59777 0.26628
 C1835 C 0.87552 0.59144 0.28550
 C1836 C 0.88591 0.58359 0.30520
 C1837 C 0.90930 0.58178 0.30660
 C1838 C 0.92225 0.58840 0.28797
 H1839 H 0.91300 0.63090 0.18864
 H1840 H 0.83001 0.63161 0.18434
 H1841 H 0.89453 0.64584 0.15574
 H1842 H 0.82705 0.61448 0.22109
 H1843 H 0.84312 0.60032 0.25507
 H1844 H 0.92745 0.61579 0.21683
 H1845 H 0.94349 0.60185 0.25102
 H1846 H 0.85750 0.59258 0.28610
 H1847 H 0.87552 0.57914 0.31958
 H1848 H 0.94039 0.58703 0.28889
 C1849 C 0.33771 1.13236 0.21600
 C1850 C 0.36086 1.12819 0.21982
 C1851 C 0.37613 1.13523 0.20282
 C1852 C 0.36842 1.14608 0.18311
 C1853 C 0.34552 1.15019 0.17979
 C1854 C 0.33028 1.14318 0.19634
 C1855 C 0.39907 1.13154 0.20555
 C1856 C 0.40740 1.12119 0.22493
 C1857 C 0.39304 1.11406 0.24255
 C1858 C 0.36936 1.11749 0.23990
 C1859 C 0.35500 1.11028 0.25748
 C1860 C 0.36338 1.10043 0.27710
 C1861 C 0.38637 1.09726 0.28009
 C1862 C 0.40158 1.10382 0.26285
 C1863 C 0.42476 1.10004 0.26685
 C1864 C 0.43233 1.09067 0.28721
 C1865 C 0.41721 1.08463 0.30428
 C1866 C 0.39420 1.08776 0.30047
 H1867 H 0.32484 1.12766 0.22785
 H1868 H 0.38024 1.15135 0.17020
 H1869 H 0.31251 1.14635 0.19413
 H1870 H 0.41079 1.13683 0.19256
 H1871 H 0.42534 1.11916 0.22555
 H1872 H 0.33704 1.11208 0.25674
 H1873 H 0.35168 1.09536 0.29019
 H1874 H 0.43758 1.10420 0.25474
 H1875 H 0.45019 1.08810 0.28960
 H1876 H 0.38236 1.08336 0.31368
 C1877 C 0.39754 0.62946 0.68647
 C1878 C 0.38477 0.62133 0.70499
 C1879 C 0.36103 0.62234 0.70310
 C1880 C 0.35076 0.63118 0.68358
 C1881 C 0.36370 0.63950 0.66571
 C1882 C 0.38710 0.63844 0.66725
 C1883 C 0.34757 0.61487 0.72082
 C1884 C 0.35704 0.60688 0.74077
 C1885 C 0.38055 0.60593 0.74382
 C1886 C 0.39466 0.61265 0.72540
 C1887 C 0.41814 0.61046 0.72801
 C1888 C 0.42758 0.60236 0.74799
 C1889 C 0.41411 0.59637 0.76631
 C1890 C 0.39042 0.59824 0.76462
 C1891 C 0.37760 0.59254 0.78398
 C1892 C 0.38786 0.58467 0.80372
 C1893 C 0.41120 0.58225 0.80503
 C1894 C 0.42427 0.58840 0.78634
 H1895 H 0.41560 0.62961 0.68640
 H1896 H 0.33262 0.63232 0.68252
 H1897 H 0.39732 0.64488 0.65355
 H1898 H 0.32943 0.61541 0.71934
 H1899 H 0.34532 0.60134 0.75344
 H1900 H 0.42984 0.61462 0.71477
 H1901 H 0.44569 0.60088 0.74914
 H1902 H 0.35962 0.59418 0.78464
 H1903 H 0.37742 0.58060 0.81818
 H1904 H 0.44237 0.58660 0.78724
 C1905 C 1.12770 0.84594 0.70823
 C1906 C 1.12308 0.86883 0.71290
 C1907 C 1.12919 0.88483 0.69617
 C1908 C 1.13914 0.87797 0.67566
 C1909 C 1.14325 0.85523 0.67127
 C1910 C 1.13757 0.83937 0.68781
 C1911 C 1.12528 0.90759 0.69992
 C1912 C 1.11552 0.91503 0.71996
 C1913 C 1.10910 0.89989 0.73721
 C1914 C 1.11274 0.87638 0.73353
 C1915 C 1.10587 0.86119 0.75056
 C1916 C 1.09622 0.86862 0.77064
 C1917 C 1.09296 0.89144 0.77471
 C1918 C 1.09924 0.90746 0.75808
 C1919 C 1.09555 0.93043 0.76323
 C1920 C 1.08652 0.93703 0.78406
 C1921 C 1.08070 0.92111 0.80048
 C1922 C 1.08371 0.89830 0.79554
 H1923 H 1.12405 0.83261 0.71996
 H1924 H 1.14346 0.89032 0.66289
 H1925 H 1.14090 0.82171 0.68493
 H1926 H 1.12988 0.91988 0.68719
 H1927 H 1.11320 0.93290 0.72131
 H1928 H 1.10765 0.84328 0.74895
 H1929 H 1.09135 0.85630 0.78324
 H1930 H 1.09965 0.94381 0.75172
 H1931 H 1.08410 0.95477 0.78737
 H1932 H 1.07946 0.88586 0.80825
 C1933 C 1.12700 0.34834 0.20715
 C1934 C 1.12259 0.37128 0.21177
 C1935 C 1.12797 0.38711 0.19462
 C1936 C 1.13688 0.38003 0.17370
 C1937 C 1.14048 0.35722 0.16933
 C1938 C 1.13571 0.34154 0.18630
 C1939 C 1.12420 0.40991 0.19830
 C1940 C 1.11505 0.41751 0.21858
 C1941 C 1.10915 0.40250 0.23615
 C1942 C 1.11298 0.37898 0.23267
 C1943 C 1.10693 0.36394 0.25014
 C1944 C 1.09769 0.37149 0.27036
 C1945 C 1.09401 0.39428 0.27410
 C1946 C 1.09959 0.41018 0.25710
 C1947 C 1.09544 0.43314 0.26195
 C1948 C 1.08659 0.43984 0.28284
 C1949 C 1.08143 0.42401 0.29957
 C1950 C 1.08497 0.40123 0.29497
 H1951 H 1.12386 0.33511 0.21915
 H1952 H 1.14055 0.39217 0.16052
 H1953 H 1.13868 0.32384 0.18331
 H1954 H 1.12831 0.42209 0.18529
 H1955 H 1.11275 0.43539 0.21987
 H1956 H 1.10906 0.34605 0.24882
 H1957 H 1.09340 0.35927 0.28327
 H1958 H 1.09894 0.44643 0.25012
 H1959 H 1.08377 0.45755 0.28592
 H1960 H 1.08127 0.38888 0.30795
 C1961 C 0.63008 0.83857 0.21460
 C1962 C 0.62585 0.86172 0.21833
 C1963 C 0.63328 0.87701 0.20149
 C1964 C 0.64452 0.86931 0.18202
 C1965 C 0.64869 0.84639 0.17878
 C1966 C 0.64130 0.83114 0.19518
 C1967 C 0.62959 0.89996 0.20416
 C1968 C 0.61891 0.90829 0.22333
 C1969 C 0.61141 0.89393 0.24081
 C1970 C 0.61475 0.87022 0.23818
 C1971 C 0.60704 0.85585 0.25555
 C1972 C 0.59688 0.86425 0.27499
 C1973 C 0.59388 0.88726 0.27802
 C1974 C 0.60090 0.90249 0.26095
 C1975 C 0.59732 0.92569 0.26497
 C1976 C 0.58779 0.93329 0.28522
 C1977 C 0.58134 0.91818 0.30216
 C1978 C 0.58416 0.89513 0.29828
 H1979 H 0.62514 0.82569 0.22637
 H1980 H 0.65006 0.88115 0.16925
 H1981 H 0.64450 0.81335 0.19306
 H1982 H 0.63515 0.91169 0.19130
 H1983 H 0.61691 0.92624 0.22391
 H1984 H 0.60868 0.83787 0.25477
 H1985 H 0.59144 0.85252 0.28793
 H1986 H 0.60184 0.93852 0.25298
 H1987 H 0.58547 0.95118 0.28764
 H1988 H 0.57941 0.88328 0.31138
 C1989 C 0.63390 0.39293 0.68915
 C1990 C 0.62632 0.38053 0.70817
 C1991 C 0.62841 0.35681 0.70719
 C1992 C 0.63792 0.34623 0.68813
 C1993 C 0.64559 0.35882 0.66964
 C1994 C 0.64336 0.38221 0.67033
 C1995 C 0.62118 0.34368 0.72531
 C1996 C 0.61199 0.35347 0.74457
 C1997 C 0.60967 0.37700 0.74662
 C1998 C 0.61688 0.39077 0.72808
 C1999 C 0.61451 0.41430 0.73012
 C2000 C 0.60550 0.42409 0.74951
 C2001 C 0.59847 0.41096 0.76771
 C2002 C 0.60040 0.38723 0.76660
 C2003 C 0.59298 0.37478 0.78564
 C2004 C 0.58402 0.38544 0.80471
 C2005 C 0.58208 0.40886 0.80565
 C2006 C 0.58945 0.42153 0.78707
 H2007 H 0.63289 0.41095 0.68820
 H2008 H 0.63977 0.32812 0.68785
 H2009 H 0.64898 0.39229 0.65615
 H2010 H 0.62270 0.32555 0.72462
 H2011 H 0.60691 0.34195 0.75763
 H2012 H 0.61950 0.42579 0.71700
 H2013 H 0.60406 0.44223 0.75024
 H2014 H 0.59388 0.35675 0.78651
 H2015 H 0.57883 0.37525 0.81898
 H2016 H 0.58788 0.43966 0.78755
 C2017 C 1.28214 1.16105 1.12954
 C2018 C 1.27818 1.13775 1.12650
 C2019 C 1.29505 1.12266 1.13409
 C2020 C 1.31470 1.13069 1.14451
 C2021 C 1.31806 1.15373 1.14779
 C2022 C 1.30172 1.16879 1.14003
 C2023 C 1.29220 1.09960 1.13150
 C2024 C 1.27278 1.09095 1.12184
 C2025 C 1.25523 1.10511 1.11432
 C2026 C 1.25806 1.12893 1.11648
 C2027 C 1.24061 1.14309 1.10875
 C2028 C 1.22096 1.13442 1.09957
 C2029 C 1.21780 1.11133 1.09765
 C2030 C 1.23486 1.09627 1.10486
 C2031 C 1.23062 1.07296 1.10247
 C2032 C 1.21033 1.06514 1.09355
 C2033 C 1.19354 1.08013 1.08665
 C2034 C 1.19749 1.10324 1.08867
 H2035 H 1.27041 1.17380 1.12429
 H2036 H 1.32743 1.11897 1.15030
 H2037 H 1.30393 1.18667 1.14251
 H2038 H 1.30510 1.08802 1.13718
 H2039 H 1.27207 1.07294 1.12062
 H2040 H 1.24148 1.16111 1.10960
 H2041 H 1.20801 1.14600 1.09401
 H2042 H 1.24252 1.06023 1.10736
 H2043 H 1.20784 1.04719 1.09191
 H2044 H 1.18448 1.11502 1.08368
 C2045 C 1.31342 0.60690 0.62397
 C2046 C 1.29412 0.61975 0.61840
 C2047 C 1.29547 0.64338 0.62125
 C2048 C 1.31507 0.65341 0.62985
 C2049 C 1.33369 0.64033 0.63592
 C2050 C 1.33274 0.61708 0.63261
 C2051 C 1.27715 0.65692 0.61584
 C2052 C 1.25728 0.64762 0.60790
 C2053 C 1.25480 0.62419 0.60510
 C2054 C 1.27356 0.61000 0.61036
 C2055 C 1.27106 0.58656 0.60763
 C2056 C 1.25103 0.57724 0.60008
 C2057 C 1.23262 0.59077 0.59490
 C2058 C 1.23418 0.61444 0.59728
 C2059 C 1.21492 0.62733 0.59174
 C2060 C 1.19526 0.61714 0.58398
 C2061 C 1.19393 0.59380 0.58151
 C2062 C 1.21265 0.58069 0.58720
 H2063 H 1.31418 0.58894 0.62207
 H2064 H 1.31561 0.67142 0.63251
 H2065 H 1.34705 0.60667 0.63697
 H2066 H 1.27812 0.67499 0.61790
 H2067 H 1.24408 0.65943 0.60422
 H2068 H 1.28428 0.57477 0.61129
 H2069 H 1.24995 0.55915 0.59829
 H2070 H 1.21435 0.64534 0.59312
 H2071 H 1.18091 0.62763 0.58003
 H2072 H 1.21181 0.56260 0.58518
 C2073 C 0.79333 1.15253 0.62264
 C2074 C 0.78804 1.12954 0.61953
 C2075 C 0.80474 1.11351 0.62539
 C2076 C 0.82572 1.12041 0.63388
 C2077 C 0.83067 1.14323 0.63648
 C2078 C 0.81426 1.15914 0.63093
 C2079 C 0.80051 1.09067 0.62262
 C2080 C 0.78014 1.08322 0.61397
 C2081 C 0.76295 1.09840 0.60771
 C2082 C 0.76689 1.12195 0.61073
 C2083 C 0.74957 1.13712 0.60487
 C2084 C 0.72915 1.12968 0.59636
 C2085 C 0.72508 1.10687 0.59318
 C2086 C 0.74188 1.09084 0.59867
 C2087 C 0.73679 1.06790 0.59485
 C2088 C 0.71587 1.06133 0.58642
 C2089 C 0.69927 1.07726 0.58138
 C2090 C 0.70411 1.10004 0.58466
 H2091 H 0.78183 1.16593 0.61873
 H2092 H 0.83846 1.10805 0.63808
 H2093 H 0.81767 1.17688 0.63306
 H2094 H 0.81318 1.07835 0.62714
 H2095 H 0.77841 1.06530 0.61250
 H2096 H 0.75111 1.15502 0.60674
 H2097 H 0.71636 1.14200 0.59220
 H2098 H 0.74853 1.05454 0.59813
 H2099 H 0.71269 1.04362 0.58370
 H2100 H 0.69130 1.11251 0.58104
 C2101 C 0.81234 0.60457 1.12620
 C2102 C 0.79241 0.61649 1.12083
 C2103 C 0.79273 0.64018 1.12353
 C2104 C 0.81198 0.65115 1.13180
 C2105 C 0.83122 0.63895 1.13772
 C2106 C 0.83129 0.61566 1.13453
 C2107 C 0.77372 0.65283 1.11835
 C2108 C 0.75418 0.64259 1.11077
 C2109 C 0.75274 0.61904 1.10811
 C2110 C 0.77221 0.60577 1.11313
 C2111 C 0.77075 0.58222 1.11047
 C2112 C 0.75110 0.57196 1.10311
 C2113 C 0.73203 0.58462 1.09810
 C2114 C 0.73249 0.60833 1.10057
 C2115 C 0.71258 0.62031 1.09532
 C2116 C 0.69344 0.60926 1.08751
 C2117 C 0.69324 0.58591 1.08472
 C2118 C 0.71252 0.57363 1.09038
 H2119 H 0.81388 0.58665 1.12441
 H2120 H 0.81176 0.66918 1.13437
 H2121 H 0.84608 0.60594 1.13881
 H2122 H 0.77390 0.67094 1.12029
 H2123 H 0.74042 0.65377 1.10721
 H2124 H 0.78456 0.57107 1.11397
 H2125 H 0.75087 0.55385 1.10128
 H2126 H 0.71114 0.63825 1.09692
 H2127 H 0.67860 0.61909 1.08363
 H2128 H 0.71252 0.55555 1.08819
 C2129 C 1.28803 0.84411 0.87714
 C2130 C 1.28278 0.86712 0.88034
 C2131 C 1.29890 0.88316 0.87329
 C2132 C 1.31916 0.87628 0.86329
 C2133 C 1.32393 0.85349 0.86025
 C2134 C 1.30825 0.83752 0.86728
 C2135 C 1.29479 0.90600 0.87622
 C2136 C 1.27497 0.91347 0.88598
 C2137 C 1.25824 0.89829 0.89318
 C2138 C 1.26216 0.87473 0.89021
 C2139 C 1.24525 0.85958 0.89699
 C2140 C 1.22514 0.86707 0.90609
 C2141 C 1.22103 0.88991 0.90902
 C2142 C 1.23756 0.90590 0.90291
 C2143 C 1.23253 0.92887 0.90667
 C2144 C 1.21177 0.93553 0.91530
 C2145 C 1.19533 0.91965 0.92064
 C2146 C 1.20022 0.89683 0.91777
 H2147 H 1.27701 0.83070 0.88207
 H2148 H 1.33142 0.88864 0.85802
 H2149 H 1.31166 0.81980 0.86497
 H2150 H 1.30706 0.91831 0.87087
 H2151 H 1.27323 0.93140 0.88740
 H2152 H 1.24683 0.84166 0.89527
 H2153 H 1.21259 0.85478 0.91079
 H2154 H 1.24415 0.94220 0.90310
 H2155 H 1.20855 0.95327 0.91779
 H2156 H 1.18754 0.88441 0.92172
 C2157 C 1.31171 0.39191 0.37071
 C2158 C 1.29141 0.38061 0.37570
 C2159 C 1.29096 0.35696 0.37257
 C2160 C 1.30978 0.34547 0.36406
 C2161 C 1.32919 0.35718 0.35814
 C2162 C 1.33015 0.38034 0.36196
 C2163 C 1.27153 0.34493 0.37731
 C2164 C 1.25223 0.35580 0.38457
 C2165 C 1.25149 0.37937 0.38734
 C2166 C 1.27151 0.39196 0.38319
 C2167 C 1.27087 0.41548 0.38640
 C2168 C 1.25145 0.42637 0.39338
 C2169 C 1.23179 0.41441 0.39735
 C2170 C 1.23142 0.39076 0.39426
 C2171 C 1.21090 0.37951 0.39825
 C2172 C 1.19204 0.39113 0.40584
 C2173 C 1.19275 0.41433 0.40952
 C2174 C 1.21253 0.42599 0.40477
 H2175 H 1.31384 0.40973 0.37281
 H2176 H 1.30897 0.32755 0.36091
 H2177 H 1.34512 0.38961 0.35752
 H2178 H 1.27114 0.32685 0.37514
 H2179 H 1.23809 0.34508 0.38783
 H2180 H 1.28519 0.42612 0.38372
 H2181 H 1.25186 0.44443 0.39572
 H2182 H 1.20875 0.36173 0.39585
 H2183 H 1.17676 0.38184 0.40909
 H2184 H 1.21315 0.44398 0.40764
 C2185 C 0.78391 0.84178 0.37261
 C2186 C 0.77903 0.86483 0.37605
 C2187 C 0.79532 0.88070 0.36898
 C2188 C 0.81538 0.87361 0.35876
 C2189 C 0.81980 0.85078 0.35557
 C2190 C 0.80395 0.83498 0.36256
 C2191 C 0.79159 0.90356 0.37218
 C2192 C 0.77203 0.91122 0.38232
 C2193 C 0.75521 0.89622 0.38963
 C2194 C 0.75867 0.87264 0.38625
 C2195 C 0.74158 0.85768 0.39299
 C2196 C 0.72176 0.86537 0.40253
 C2197 C 0.71815 0.88822 0.40599
 C2198 C 0.73486 0.90402 0.39988
 C2199 C 0.73035 0.92700 0.40421
 C2200 C 0.70990 0.93386 0.41339
 C2201 C 0.69328 0.91818 0.41873
 C2202 C 0.69766 0.89534 0.41528
 H2203 H 0.77276 0.82848 0.37756
 H2204 H 0.82780 0.88582 0.35352
 H2205 H 0.80713 0.81722 0.36015
 H2206 H 0.80397 0.91575 0.36677
 H2207 H 0.77057 0.92916 0.38393
 H2208 H 0.74278 0.83977 0.39088
 H2209 H 0.70905 0.85323 0.40721
 H2210 H 0.74218 0.94018 0.40072
 H2211 H 0.70706 0.95160 0.41633
 H2212 H 0.68482 0.88308 0.41921
 C2213 C 0.78772 0.34355 0.87235
 C2214 C 0.78239 0.36654 0.87554
 C2215 C 0.79855 0.38262 0.86866
 C2216 C 0.81898 0.37579 0.85898
 C2217 C 0.82388 0.35300 0.85609
 C2218 C 0.80810 0.33701 0.86282
 C2219 C 0.79432 0.40545 0.87151
 C2220 C 0.77439 0.41286 0.88111
 C2221 C 0.75768 0.39764 0.88824
 C2222 C 0.76169 0.37409 0.88529
 C2223 C 0.74483 0.35887 0.89206
 C2224 C 0.72473 0.36629 0.90122
 C2225 C 0.72054 0.38911 0.90420
 C2226 C 0.73697 0.40517 0.89798
 C2227 C 0.73183 0.42813 0.90170
 C2228 C 0.71113 0.43469 0.91055
 C2229 C 0.69484 0.41873 0.91613
 C2230 C 0.69980 0.39594 0.91316
 H2231 H 0.77664 0.33011 0.87708
 H2232 H 0.83130 0.38817 0.85391
 H2233 H 0.81158 0.31929 0.86059
 H2234 H 0.80660 0.41780 0.86627
 H2235 H 0.77259 0.43079 0.88252
 H2236 H 0.74648 0.34096 0.89036
 H2237 H 0.71224 0.35395 0.90599
 H2238 H 0.74334 0.44152 0.89796
 H2239 H 0.70785 0.45242 0.91307
 H2240 H 0.68722 0.38346 0.91726
 C2241 C 0.71581 0.86897 1.16009
 C2242 C 0.71990 0.87305 1.13672
 C2243 C 0.70348 0.86559 1.12090
 C2244 C 0.68410 0.85440 1.12830
 C2245 C 0.68050 0.85039 1.15143
 C2246 C 0.69647 0.85785 1.16720
 C2247 C 0.70646 0.86923 1.09773
 C2248 C 0.72550 0.87997 1.08970
 C2249 C 0.74253 0.88753 1.10461
 C2250 C 0.73966 0.88408 1.12853
 C2251 C 0.75674 0.89157 1.14342
 C2252 C 0.77608 0.90172 1.13533
 C2253 C 0.77926 0.90497 1.11212
 C2254 C 0.76249 0.89817 1.09638
 C2255 C 0.76660 0.90213 1.07301
 C2256 C 0.78667 0.91173 1.06573
 C2257 C 0.80336 0.91788 1.08133
 C2258 C 0.79937 0.91474 1.10457
 H2259 H 0.72719 0.87404 1.17337
 H2260 H 0.67165 0.84883 1.11604
 H2261 H 0.69405 0.85481 1.18517
 H2262 H 0.69394 0.86362 1.08558
 H2263 H 0.72635 0.88190 1.07155
 H2264 H 0.75585 0.88970 1.16158
 H2265 H 0.78880 0.90697 1.14744
 H2266 H 0.75478 0.89792 1.05981
 H2267 H 0.78917 0.91435 1.04769
 H2268 H 0.81225 0.91927 1.11680
 C2269 C 0.69577 0.36700 0.60512
 C2270 C 0.71454 0.37451 0.61789
 C2271 C 0.71290 0.37386 0.64195
 C2272 C 0.69339 0.36588 0.65252
 C2273 C 0.67529 0.35811 0.63956
 C2274 C 0.67658 0.35889 0.61585
 C2275 C 0.73084 0.38083 0.65542
 C2276 C 0.75068 0.38808 0.64565
 C2277 C 0.75343 0.38875 0.62182
 C2278 C 0.73489 0.38230 0.60768
 C2279 C 0.73735 0.38388 0.58386
 C2280 C 0.75717 0.39132 0.57412
 C2281 C 0.77549 0.39728 0.58760
 C2282 C 0.77401 0.39589 0.61164
 C2283 C 0.79332 0.40166 0.62446
 C2284 C 0.81277 0.40923 0.61389
 C2285 C 0.81385 0.41123 0.59021
 C2286 C 0.79525 0.40487 0.57712
 H2287 H 0.69543 0.36674 0.58683
 H2288 H 0.69250 0.36500 0.67090
 H2289 H 0.66269 0.35290 0.60560
 H2290 H 0.72961 0.38051 0.67380
 H2291 H 0.76354 0.39325 0.65742
 H2292 H 0.72412 0.37970 0.57210
 H2293 H 0.75817 0.39237 0.55575
 H2294 H 0.79411 0.40046 0.64270
 H2295 H 0.82714 0.41354 0.62435
 H2296 H 0.79597 0.40636 0.55877
 C2297 C 0.19025 0.87338 0.60581
 C2298 C 0.20938 0.87972 0.61866
 C2299 C 0.20845 0.87684 0.64260
 C2300 C 0.18944 0.86741 0.65290
 C2301 C 0.17115 0.86041 0.63975
 C2302 C 0.17158 0.86383 0.61624
 C2303 C 0.22668 0.88288 0.65614
 C2304 C 0.24616 0.89125 0.64652
 C2305 C 0.24829 0.89389 0.62276
 C2306 C 0.22946 0.88838 0.60861
 C2307 C 0.23145 0.89147 0.58489
 C2308 C 0.25112 0.89938 0.57524
 C2309 C 0.26970 0.90449 0.58871
 C2310 C 0.26863 0.90183 0.61266
 C2311 C 0.28811 0.90712 0.62545
 C2312 C 0.30746 0.91504 0.61492
 C2313 C 0.30826 0.91791 0.59133
 C2314 C 0.28937 0.91238 0.57828
 H2315 H 0.18922 0.87513 0.58764
 H2316 H 0.18921 0.86462 0.67110
 H2317 H 0.15747 0.85864 0.60584
 H2318 H 0.22598 0.88089 0.67444
 H2319 H 0.25932 0.89545 0.65835
 H2320 H 0.21805 0.88791 0.57313
 H2321 H 0.25181 0.90144 0.55695
 H2322 H 0.28911 0.90530 0.64361
 H2323 H 0.32200 0.91882 0.62534
 H2324 H 0.28984 0.91466 0.56000
 C2325 C 0.18824 0.37010 1.10283
 C2326 C 0.20701 0.37711 1.11590
 C2327 C 0.20537 0.37539 1.13989
 C2328 C 0.18592 0.36679 1.15010
 C2329 C 0.16770 0.35963 1.13685
 C2330 C 0.16903 0.36152 1.11319
 C2331 C 0.22321 0.38205 1.15367
 C2332 C 0.24286 0.39027 1.14428
 C2333 C 0.24557 0.39217 1.12051
 C2334 C 0.22730 0.38560 1.10607
 C2335 C 0.22997 0.38765 1.08231
 C2336 C 0.24970 0.39576 1.07292
 C2337 C 0.26766 0.40215 1.08670
 C2338 C 0.26594 0.40045 1.11069
 C2339 C 0.28477 0.40710 1.12382
 C2340 C 0.30418 0.41525 1.11355
 C2341 C 0.30567 0.41709 1.08988
 C2342 C 0.28736 0.41033 1.07654
 H2343 H 0.18781 0.37087 1.08456
 H2344 H 0.18514 0.36518 1.16843
 H2345 H 0.15508 0.35625 1.10262
 H2346 H 0.22202 0.38083 1.17201
 H2347 H 0.25567 0.39500 1.15629
 H2348 H 0.21706 0.38312 1.07032
 H2349 H 0.25090 0.39703 1.05458
 H2350 H 0.28522 0.40621 1.14208
 H2351 H 0.31824 0.41996 1.12426
 H2352 H 0.28830 0.41181 1.05820
 C2353 C 0.68472 1.09899 0.87748
 C2354 C 0.70368 1.11216 0.88340
 C2355 C 0.70142 1.13584 0.88204
 C2356 C 0.68118 1.14567 0.87487
 C2357 C 0.66280 1.13235 0.86879
 C2358 C 0.66471 1.10899 0.87027
 C2359 C 0.71941 1.14970 0.88759
 C2360 C 0.73982 1.14069 0.89434
 C2361 C 0.74316 1.11724 0.89581
 C2362 C 0.72474 1.10272 0.89042
 C2363 C 0.72802 1.07929 0.89221
 C2364 C 0.74847 1.07030 0.89904
 C2365 C 0.76657 1.08418 0.90429
 C2366 C 0.76428 1.10785 0.90264
 C2367 C 0.78331 1.12110 0.90795
 C2368 C 0.80336 1.11127 0.91509
 C2369 C 0.80534 1.08795 0.91713
 C2370 C 0.78695 1.07446 0.91139
 H2371 H 0.68475 1.08093 0.87800
 H2372 H 0.67985 1.16377 0.87345
 H2373 H 0.65063 1.09843 0.86565
 H2374 H 0.71772 1.16781 0.88665
 H2375 H 0.75267 1.15274 0.89836
 H2376 H 0.71504 1.06727 0.88853
 H2377 H 0.75012 1.05220 0.90025
 H2378 H 0.78341 1.13913 0.90681
 H2379 H 0.81750 1.12204 0.91899
 H2380 H 0.78834 1.05637 0.91298
 C2381 C 0.70547 0.65004 0.37782
 C2382 C 0.71067 0.62711 0.38149
 C2383 C 0.69405 0.61102 0.37569
 C2384 C 0.67314 0.61782 0.36691
 C2385 C 0.66825 0.64060 0.36383
 C2386 C 0.68464 0.65656 0.36919
 C2387 C 0.69827 0.58822 0.37883
 C2388 C 0.71860 0.58087 0.38771
 C2389 C 0.73570 0.59613 0.39393
 C2390 C 0.73168 0.61964 0.39074
 C2391 C 0.74876 0.63491 0.39696
 C2392 C 0.76907 0.62759 0.40584
 C2393 C 0.77330 0.60481 0.40898
 C2394 C 0.75674 0.58868 0.40317
 C2395 C 0.76206 0.56576 0.40682
 C2396 C 0.78295 0.55931 0.41546
 C2397 C 0.79926 0.57536 0.42090
 C2398 C 0.79421 0.59811 0.41776
 H2399 H 0.71699 0.66348 0.38144
 H2400 H 0.66043 0.60544 0.36282
 H2401 H 0.68127 0.67426 0.36665
 H2402 H 0.68565 0.57586 0.37440
 H2403 H 0.72032 0.56298 0.38950
 H2404 H 0.74706 0.65281 0.39521
 H2405 H 0.78166 0.63999 0.41028
 H2406 H 0.75057 0.55230 0.40313
 H2407 H 0.78635 0.54161 0.41799
 H2408 H 0.80683 0.61066 0.42165
 C2409 C 0.21215 1.15652 0.37711
 C2410 C 0.21703 1.13356 0.38107
 C2411 C 0.20081 1.11752 0.37408
 C2412 C 0.18076 1.12435 0.36354
 C2413 C 0.17631 1.14710 0.35988
 C2414 C 0.19213 1.16307 0.36673
 C2415 C 0.20461 1.09472 0.37765
 C2416 C 0.22423 1.08730 0.38795
 C2417 C 0.24104 1.10248 0.39511
 C2418 C 0.23739 1.12600 0.39160
 C2419 C 0.25430 1.14116 0.39855
 C2420 C 0.27422 1.13370 0.40817
 C2421 C 0.27815 1.11089 0.41147
 C2422 C 0.26155 1.09490 0.40531
 C2423 C 0.26639 1.07196 0.40942
 C2424 C 0.28708 1.06531 0.41832
 C2425 C 0.30361 1.08116 0.42360
 C2426 C 0.29885 1.10397 0.42055
 H2427 H 0.22331 1.16994 0.38182
 H2428 H 0.16838 1.11200 0.35838
 H2429 H 0.18896 1.18076 0.36390
 H2430 H 0.19225 1.08241 0.37237
 H2431 H 0.22572 1.06940 0.38984
 H2432 H 0.25285 1.15906 0.39659
 H2433 H 0.28680 1.14598 0.41296
 H2434 H 0.25472 1.05864 0.40584
 H2435 H 0.29023 1.04758 0.42094
 H2436 H 0.31162 1.11635 0.42448
 C2437 C 0.21719 0.66328 0.87168
 C2438 C 0.22111 0.64013 0.87572
 C2439 C 0.20444 0.62476 0.86829
 C2440 C 0.18509 0.63235 0.85698
 C2441 C 0.18175 0.65524 0.85282
 C2442 C 0.19785 0.67060 0.86043
 C2443 C 0.20718 0.60183 0.87200
 C2444 C 0.22627 0.59360 0.88268
 C2445 C 0.24361 0.60803 0.89009
 C2446 C 0.24097 0.63171 0.88662
 C2447 C 0.25840 0.64612 0.89386
 C2448 C 0.27789 0.63779 0.90372
 C2449 C 0.28085 0.61481 0.90695
 C2450 C 0.26369 0.59956 0.90049
 C2451 C 0.26757 0.57642 0.90450
 C2452 C 0.28781 0.56886 0.91373
 C2453 C 0.30490 0.58397 0.91943
 C2454 C 0.30113 0.60699 0.91632
 H2455 H 0.22871 0.67623 0.87685
 H2456 H 0.17250 0.62044 0.85135
 H2457 H 0.19560 0.68838 0.85733
 H2458 H 0.19445 0.59004 0.86642
 H2459 H 0.22695 0.57565 0.88463
 H2460 H 0.25770 0.66407 0.89193
 H2461 H 0.29090 0.64952 0.90872
 H2462 H 0.25543 0.56360 0.90062
 H2463 H 0.29012 0.55101 0.91638
 H2464 H 0.31431 0.61883 0.92055
 C2465 C 1.10303 1.31039 1.12806
 C2466 C 1.11542 1.29116 1.12137
 C2467 C 1.13919 1.29249 1.12237
 C2468 C 1.14985 1.31212 1.12998
 C2469 C 1.13726 1.33065 1.13707
 C2470 C 1.11385 1.32970 1.13585
 C2471 C 1.15228 1.27410 1.11620
 C2472 C 1.14241 1.25410 1.10950
 C2473 C 1.11884 1.25163 1.10862
 C2474 C 1.10511 1.27062 1.11414
 C2475 C 1.08156 1.26842 1.11226
 C2476 C 1.07172 1.24840 1.10540
 C2477 C 1.08481 1.22965 1.10036
 C2478 C 1.10855 1.23087 1.10214
 C2479 C 1.12099 1.21114 1.09739
 C2480 C 1.11035 1.19154 1.09026
 C2481 C 1.08701 1.19072 1.08777
 C2482 C 1.07427 1.20971 1.09328
 H2483 H 1.08497 1.31100 1.12799
 H2484 H 1.16800 1.31276 1.13124
 H2485 H 1.10389 1.34394 1.14135
 H2486 H 1.17045 1.27511 1.11676
 H2487 H 1.15388 1.24089 1.10492
 H2488 H 1.07011 1.28198 1.11573
 H2489 H 1.05358 1.24759 1.10405
 H2490 H 1.13896 1.21015 1.09903
 H2491 H 1.12051 1.17686 1.08662
 H2492 H 1.05616 1.20915 1.09142
 C2493 C 1.15422 0.79178 0.62163
 C2494 C 1.13111 0.78680 0.61888
 C2495 C 1.11537 0.80301 0.62657
 C2496 C 1.12263 0.82309 0.63671
 C2497 C 1.14551 0.82756 0.63935
 C2498 C 1.16119 0.81180 0.63169
 C2499 C 1.09244 0.79913 0.62419
 C2500 C 1.08460 0.77941 0.61443
 C2501 C 1.09947 0.76259 0.60666
 C2502 C 1.12313 0.76634 0.60893
 C2503 C 1.13800 0.74944 0.60135
 C2504 C 1.13017 0.72949 0.59216
 C2505 C 1.10725 0.72550 0.58997
 C2506 C 1.09150 0.74200 0.59696
 C2507 C 1.06841 0.73702 0.59407
 C2508 C 1.06145 0.71642 0.58520
 C2509 C 1.07714 0.70010 0.57880
 C2510 C 1.10004 0.70488 0.58103
 H2511 H 1.16743 0.78065 0.61627
 H2512 H 1.11049 0.83541 0.64250
 H2513 H 1.17898 0.81495 0.63373
 H2514 H 1.08036 0.81148 0.63000
 H2515 H 1.06664 0.77786 0.61343
 H2516 H 1.15597 0.75094 0.60241
 H2517 H 1.14227 0.71695 0.58677
 H2518 H 1.05521 0.74856 0.59851
 H2519 H 1.04365 0.71325 0.58330
 H2520 H 1.11232 0.69224 0.57635
 C2521 C 0.65807 1.28868 0.62912
 C2522 C 0.63519 1.28400 0.62456
 C2523 C 0.61922 1.30091 0.62995
 C2524 C 0.62613 1.32168 0.63893
 C2525 C 0.64889 1.32612 0.64268
 C2526 C 0.66470 1.30938 0.63794
 C2527 C 0.59646 1.29713 0.62613
 C2528 C 0.58902 1.27696 0.61698
 C2529 C 0.60416 1.25962 0.61109
 C2530 C 0.62765 1.26324 0.61485
 C2531 C 0.64283 1.24607 0.60860
 C2532 C 0.63543 1.22598 0.59929
 C2533 C 0.61265 1.22205 0.59580
 C2534 C 0.59662 1.23876 0.60157
 C2535 C 0.57369 1.23372 0.59767
 C2536 C 0.56713 1.21297 0.58885
 C2537 C 0.58307 1.19652 0.58346
 C2538 C 0.60584 1.20130 0.58675
 H2539 H 0.67137 1.27683 0.62605
 H2540 H 0.61387 1.33467 0.64255
 H2541 H 0.68237 1.31242 0.64101
 H2542 H 0.58419 1.30997 0.63023
 H2543 H 0.57116 1.27560 0.61463
 H2544 H 0.66072 1.24757 0.61057
 H2545 H 0.64775 1.21331 0.59485
 H2546 H 0.56030 1.24529 0.60140
 H2547 H 0.54942 1.20975 0.58623
 H2548 H 0.61828 1.18855 0.58286
 C2549 C 0.66154 0.78299 1.12880
 C2550 C 0.63842 0.77876 1.12493
 C2551 C 0.62289 0.79533 1.13225
 C2552 C 0.63032 0.81500 1.14309
 C2553 C 0.65320 0.81870 1.14703
 C2554 C 0.66870 0.80260 1.13967
 C2555 C 0.59996 0.79217 1.12890
 C2556 C 0.59189 0.77274 1.11876
 C2557 C 0.60650 0.75548 1.11147
 C2558 C 0.63018 0.75865 1.11435
 C2559 C 0.64480 0.74154 1.10673
 C2560 C 0.63668 0.72184 1.09713
 C2561 C 0.61369 0.71828 1.09467
 C2562 C 0.59821 0.73506 1.10161
 C2563 C 0.57505 0.73047 1.09866
 C2564 C 0.56774 0.71001 1.08974
 C2565 C 0.58311 0.69338 1.08331
 C2566 C 0.60611 0.69779 1.08556
 H2567 H 0.67459 0.77145 1.12390
 H2568 H 0.61828 0.82754 1.14858
 H2569 H 0.68647 0.80506 1.14268
 H2570 H 0.58804 0.80484 1.13435
 H2571 H 0.57393 0.77180 1.11700
 H2572 H 0.66278 0.74274 1.10800
 H2573 H 0.64859 0.70913 1.09174
 H2574 H 0.56203 0.74216 1.10323
 H2575 H 0.54988 0.70717 1.08786
 H2576 H 0.61816 0.68495 1.08083
 C2577 C 0.86907 1.30935 0.89235
 C2578 C 0.87590 1.29002 0.88009
 C2579 C 0.87368 1.29054 0.85605
 C2580 C 0.86453 1.30939 0.84506
 C2581 C 0.85712 1.32792 0.85761
 C2582 C 0.85978 1.32786 0.88124
 C2583 C 0.88012 1.27207 0.84308
 C2584 C 0.88826 1.25275 0.85335
 C2585 C 0.89030 1.25104 0.87723
 C2586 C 0.88442 1.27014 0.89081
 C2587 C 0.88710 1.26863 0.91464
 C2588 C 0.89501 1.24919 0.92491
 C2589 C 0.90048 1.23035 0.91199
 C2590 C 0.89812 1.23090 0.88797
 C2591 C 0.90359 1.21115 0.87574
 C2592 C 0.91165 1.19210 0.88684
 C2593 C 0.91445 1.19187 0.91047
 C2594 C 0.90851 1.21096 0.92300
 H2595 H 0.87021 1.31065 0.91057
 H2596 H 0.86227 1.30933 0.82677
 H2597 H 0.85419 1.34212 0.89118
 H2598 H 0.87864 1.27245 0.82471
 H2599 H 0.89286 1.23940 0.84192
 H2600 H 0.88329 1.28228 0.92600
 H2601 H 0.89682 1.24890 0.94325
 H2602 H 0.90184 1.20970 0.85759
 H2603 H 0.91569 1.17736 0.87681
 H2604 H 0.91065 1.21089 0.94132
 C2605 C 0.86519 0.80719 0.39116
 C2606 C 0.87116 0.78749 0.37904
 C2607 C 0.86852 0.78776 0.35504
 C2608 C 0.85960 0.80669 0.34398
 C2609 C 0.85286 0.82552 0.35644
 C2610 C 0.85611 0.82575 0.37999
 C2611 C 0.87424 0.76896 0.34221
 C2612 C 0.88208 0.74958 0.35260
 C2613 C 0.88448 0.74812 0.37646
 C2614 C 0.87924 0.76750 0.38989
 C2615 C 0.88200 0.76615 0.41372
 C2616 C 0.88953 0.74663 0.42413
 C2617 C 0.89456 0.72758 0.41134
 C2618 C 0.89203 0.72795 0.38733
 C2619 C 0.89716 0.70802 0.37525
 C2620 C 0.90510 0.68899 0.38646
 C2621 C 0.90807 0.68897 0.41006
 C2622 C 0.90239 0.70819 0.42248
 H2623 H 0.86686 0.80876 0.40931
 H2624 H 0.85692 0.80644 0.32574
 H2625 H 0.85107 0.84028 0.38984
 H2626 H 0.87242 0.76914 0.32386
 H2627 H 0.88608 0.73596 0.34127
 H2628 H 0.87851 0.77995 0.42500
 H2629 H 0.89144 0.74646 0.44246
 H2630 H 0.89534 0.70645 0.35711
 H2631 H 0.90905 0.67415 0.37655
 H2632 H 0.90471 0.70826 0.44078
 C2633 C 0.37137 1.28805 0.34401
 C2634 C 0.37563 1.28345 0.36726
 C2635 C 0.36948 1.30015 0.38334
 C2636 C 0.35975 1.32052 0.37623
 C2637 C 0.35606 1.32486 0.35313
 C2638 C 0.36181 1.30836 0.33719
 C2639 C 0.37318 1.29654 0.40644
 C2640 C 0.38293 1.27675 0.41410
 C2641 C 0.38947 1.25957 0.39888
 C2642 C 0.38574 1.26297 0.37506
 C2643 C 0.39226 1.24580 0.35983
 C2644 C 0.40188 1.22596 0.36749
 C2645 C 0.40551 1.22231 0.39059
 C2646 C 0.39951 1.23905 0.40668
 C2647 C 0.40373 1.23439 0.42992
 C2648 C 0.41297 1.21391 0.43674
 C2649 C 0.41848 1.19734 0.42078
 C2650 C 0.41493 1.20180 0.39767
 H2651 H 0.37523 1.27641 0.33057
 H2652 H 0.35542 1.33325 0.38866
 H2653 H 0.35884 1.31118 0.31925
 H2654 H 0.36850 1.30922 0.41880
 H2655 H 0.38507 1.27548 0.43222
 H2656 H 0.39015 1.24706 0.34171
 H2657 H 0.40648 1.21326 0.35512
 H2658 H 0.40002 1.24609 0.44336
 H2659 H 0.41586 1.21102 0.45469
 H2660 H 0.41893 1.18901 0.38518
 C2661 C 0.37007 0.80968 0.89508
 C2662 C 0.37667 0.79043 0.88255
 C2663 C 0.37382 0.79105 0.85858
 C2664 C 0.36435 0.80993 0.84792
 C2665 C 0.35720 0.82837 0.86074
 C2666 C 0.36043 0.82820 0.88430
 C2667 C 0.37996 0.77263 0.84537
 C2668 C 0.38832 0.75325 0.85535
 C2669 C 0.39093 0.75144 0.87916
 C2670 C 0.38551 0.77052 0.89296
 C2671 C 0.38895 0.76898 0.91669
 C2672 C 0.39706 0.74948 0.92668
 C2673 C 0.40195 0.73060 0.91357
 C2674 C 0.39888 0.73121 0.88964
 C2675 C 0.40374 0.71141 0.87723
 C2676 C 0.41182 0.69222 0.88806
 C2677 C 0.41529 0.69191 0.91161
 C2678 C 0.41004 0.71109 0.92432
 H2679 H 0.37161 0.81086 0.91327
 H2680 H 0.36164 0.80995 0.82968
 H2681 H 0.35504 0.84239 0.89446
 H2682 H 0.37803 0.77309 0.82704
 H2683 H 0.39264 0.73995 0.84376
 H2684 H 0.38563 0.78266 0.92818
 H2685 H 0.39945 0.74915 0.94496
 H2686 H 0.40138 0.71000 0.85914
 H2687 H 0.41527 0.67742 0.87791
 H2688 H 0.41271 0.71098 0.94257
 C2689 C 1.13194 0.71810 0.83878
 C2690 C 1.12684 0.72197 0.86199
 C2691 C 1.13383 0.70550 0.87794
 C2692 C 1.14548 0.68624 0.87082
 C2693 C 1.15036 0.68280 0.84784
 C2694 C 1.14347 0.69884 0.83194
 C2695 C 1.12919 0.70829 0.90095
 C2696 C 1.11790 0.72717 0.90870
 C2697 C 1.11074 0.74423 0.89367
 C2698 C 1.11522 0.74157 0.86990
 C2699 C 1.10813 0.75867 0.85488
 C2700 C 1.09749 0.77790 0.86274
 C2701 C 1.09330 0.78091 0.88582
 C2702 C 1.09957 0.76405 0.90164
 C2703 C 1.09461 0.76796 0.92486
 C2704 C 1.08476 0.78803 0.93197
 C2705 C 1.07931 0.80485 0.91631
 C2706 C 1.08323 0.80099 0.89319
 H2707 H 1.12734 0.72955 0.82542
 H2708 H 1.15062 0.67370 0.88313
 H2709 H 1.14720 0.69650 0.81408
 H2710 H 1.13445 0.69573 0.91319
 H2711 H 1.11522 0.72789 0.92677
 H2712 H 1.11072 0.75790 0.83680
 H2713 H 1.09263 0.79067 0.85056
 H2714 H 1.09827 0.75603 0.93808
 H2715 H 1.08150 0.79047 0.94991
 H2716 H 1.07919 0.81399 0.88095
 C2717 C 1.13094 0.19179 0.39391
 C2718 C 1.12507 0.21115 0.38125
 C2719 C 1.12775 0.21018 0.35729
 C2720 C 1.13663 0.19092 0.34679
 C2721 C 1.14330 0.17244 0.35979
 C2722 C 1.13999 0.17289 0.38331
 C2723 C 1.12211 0.22862 0.34392
 C2724 C 1.11435 0.24834 0.35374
 C2725 C 1.11197 0.25051 0.37754
 C2726 C 1.11709 0.23149 0.39151
 C2727 C 1.11433 0.23355 0.41527
 C2728 C 1.10701 0.25343 0.42512
 C2729 C 1.10217 0.27215 0.41182
 C2730 C 1.10461 0.27105 0.38784
 C2731 C 1.09964 0.29068 0.37522
 C2732 C 1.09204 0.31014 0.38591
 C2733 C 1.08924 0.31093 0.40951
 C2734 C 1.09466 0.29197 0.42243
 H2735 H 1.12924 0.19074 0.41208
 H2736 H 1.13935 0.19065 0.32858
 H2737 H 1.14496 0.15863 0.39358
 H2738 H 1.12394 0.22791 0.32560
 H2739 H 1.11043 0.26165 0.34204
 H2740 H 1.11771 0.22005 0.42693
 H2741 H 1.10514 0.25415 0.44344
 H2742 H 1.10137 0.29168 0.35705
 H2743 H 1.08830 0.32475 0.37561
 H2744 H 1.09245 0.29246 0.44071
 C2745 C 0.62596 0.68796 0.40009
 C2746 C 0.61793 0.70617 0.38685
 C2747 C 0.61895 0.70400 0.36284
 C2748 C 0.62772 0.68450 0.35278
 C2749 C 0.63588 0.66691 0.36618
 C2750 C 0.63482 0.66875 0.38984
 C2751 C 0.61154 0.72139 0.34893
 C2752 C 0.60354 0.74125 0.35819
 C2753 C 0.60253 0.74455 0.38195
 C2754 C 0.60931 0.72652 0.39653
 C2755 C 0.60726 0.72946 0.42027
 C2756 C 0.59925 0.74937 0.42951
 C2757 C 0.59317 0.76729 0.41559
 C2758 C 0.59481 0.76525 0.39161
 C2759 C 0.58887 0.78417 0.37834
 C2760 C 0.58121 0.80391 0.38845
 C2761 C 0.57921 0.80565 0.41209
 C2762 C 0.58539 0.78729 0.42558
 H2763 H 0.62606 0.68810 0.41838
 H2764 H 0.62882 0.68322 0.33443
 H2765 H 0.64110 0.65526 0.40044
 H2766 H 0.61211 0.71971 0.33058
 H2767 H 0.59808 0.75366 0.34610
 H2768 H 0.61152 0.71657 0.43233
 H2769 H 0.59794 0.75080 0.44784
 H2770 H 0.59016 0.78450 0.36010
 H2771 H 0.57706 0.81805 0.37765
 H2772 H 0.58385 0.78847 0.44391
 C2773 C 0.62516 0.18514 0.90364
 C2774 C 0.61817 0.20354 0.89006
 C2775 C 0.61924 0.20091 0.86611
 C2776 C 0.62704 0.18083 0.85643
 C2777 C 0.63394 0.16290 0.87014
 C2778 C 0.63291 0.16524 0.89377
 C2779 C 0.61264 0.21833 0.85183
 C2780 C 0.60497 0.23851 0.86066
 C2781 C 0.60360 0.24218 0.88435
 C2782 C 0.61027 0.22439 0.89932
 C2783 C 0.60883 0.22807 0.92300
 C2784 C 0.60115 0.24831 0.93181
 C2785 C 0.59459 0.26576 0.91751
 C2786 C 0.59572 0.26303 0.89357
 C2787 C 0.58888 0.28138 0.87988
 C2788 C 0.58111 0.30128 0.88958
 C2789 C 0.57985 0.30377 0.91320
 C2790 C 0.58679 0.28596 0.92708
 H2791 H 0.62494 0.18550 0.92193
 H2792 H 0.62810 0.17922 0.83810
 H2793 H 0.63813 0.15153 0.90465
 H2794 H 0.61341 0.21637 0.83352
 H2795 H 0.60022 0.25092 0.84828
 H2796 H 0.61352 0.21560 0.93535
 H2797 H 0.60033 0.25029 0.95012
 H2798 H 0.58931 0.28105 0.86160
 H2799 H 0.57624 0.31495 0.87847
 H2800 H 0.58574 0.28769 0.94540
 C2801 C 0.87050 0.70933 1.15136
 C2802 C 0.87462 0.71452 1.12825
 C2803 C 0.86917 0.69794 1.11177
 C2804 C 0.86051 0.67699 1.11839
 C2805 C 0.85730 0.67201 1.14137
 C2806 C 0.86207 0.68846 1.15769
 C2807 C 0.87268 0.70219 1.08878
 C2808 C 0.88171 0.72245 1.08164
 C2809 C 0.88776 0.73944 1.09730
 C2810 C 0.88408 0.73543 1.12101
 C2811 C 0.89015 0.75238 1.13669
 C2812 C 0.89939 0.77253 1.12960
 C2813 C 0.90304 0.77674 1.10664
 C2814 C 0.89734 0.76031 1.09009
 C2815 C 0.90149 0.76559 1.06700
 C2816 C 0.91046 0.78632 1.06078
 C2817 C 0.91577 0.80251 1.07722
 C2818 C 0.91220 0.79749 1.10016
 H2819 H 0.87372 0.72088 1.16507
 H2820 H 0.85685 0.66425 1.10572
 H2821 H 0.85939 0.68502 1.17555
 H2822 H 0.86848 0.68963 1.07610
 H2823 H 0.88382 0.72419 1.06357
 H2824 H 0.88805 0.75068 1.15476
 H2825 H 0.90372 0.78502 1.14231
 H2826 H 0.89793 0.75420 1.05324
 H2827 H 0.91332 0.78970 1.04294
 H2828 H 0.91603 0.81001 1.11299
 C2829 C 0.87331 0.19043 0.60012
 C2830 C 0.88223 0.20819 0.61346
 C2831 C 0.88127 0.20595 0.63745
 C2832 C 0.87188 0.18679 0.64741
 C2833 C 0.86306 0.16954 0.63393
 C2834 C 0.86388 0.17151 0.61027
 C2835 C 0.88949 0.22292 0.65147
 C2836 C 0.89831 0.24242 0.64232
 C2837 C 0.89939 0.24575 0.61859
 C2838 C 0.89172 0.22813 0.60390
 C2839 C 0.89384 0.23103 0.58017
 C2840 C 0.90267 0.25057 0.57105
 C2841 C 0.90957 0.26813 0.58508
 C2842 C 0.90799 0.26608 0.60905
 C2843 C 0.91483 0.28466 0.62243
 C2844 C 0.92307 0.30415 0.61241
 C2845 C 0.92483 0.30595 0.58876
 C2846 C 0.91800 0.28784 0.57519
 H2847 H 0.87302 0.19070 0.58183
 H2848 H 0.87096 0.18543 0.66576
 H2849 H 0.85710 0.15830 0.59961
 H2850 H 0.88895 0.22119 0.66980
 H2851 H 0.90435 0.25452 0.65449
 H2852 H 0.88897 0.21838 0.56804
 H2853 H 0.90395 0.25199 0.55273
 H2854 H 0.91374 0.28494 0.64068
 H2855 H 0.92772 0.31810 0.62329
 H2856 H 0.91940 0.28902 0.55686
 C2857 C 0.37411 0.70946 0.65119
 C2858 C 0.37845 0.71512 0.62825
 C2859 C 0.37308 0.69892 0.61135
 C2860 C 0.36421 0.67791 0.61741
 C2861 C 0.36068 0.67251 0.64024
 C2862 C 0.36545 0.68853 0.65697
 C2863 C 0.37683 0.70362 0.58850
 C2864 C 0.38595 0.72400 0.58189
 C2865 C 0.39183 0.74066 0.59797
 C2866 C 0.38798 0.73615 0.62155
 C2867 C 0.39389 0.75278 0.63765
 C2868 C 0.40302 0.77314 0.63106
 C2869 C 0.40674 0.77787 0.60822
 C2870 C 0.40134 0.76173 0.59128
 C2871 C 0.40561 0.76750 0.56835
 C2872 C 0.41428 0.78848 0.56262
 C2873 C 0.41915 0.80443 0.57943
 C2874 C 0.41561 0.79887 0.60224
 H2875 H 0.37729 0.72068 0.66519
 H2876 H 0.36054 0.66547 0.60445
 H2877 H 0.36254 0.68473 0.67472
 H2878 H 0.37272 0.69134 0.57552
 H2879 H 0.38821 0.72611 0.56388
 H2880 H 0.39169 0.75067 0.65566
 H2881 H 0.40716 0.78539 0.64406
 H2882 H 0.40235 0.75632 0.55433
 H2883 H 0.41717 0.79228 0.54487
 H2884 H 0.41915 0.81121 0.61534
 C2885 C 0.36757 0.21716 1.16077
 C2886 C 0.37190 0.22110 1.13743
 C2887 C 0.36450 0.20466 1.12162
 C2888 C 0.35331 0.18527 1.12901
 C2889 C 0.34920 0.18173 1.15213
 C2890 C 0.35644 0.19782 1.16788
 C2891 C 0.36823 0.20761 1.09846
 C2892 C 0.37896 0.22665 1.09044
 C2893 C 0.38650 0.24370 1.10535
 C2894 C 0.38310 0.24078 1.12927
 C2895 C 0.39092 0.25767 1.14420
 C2896 C 0.40119 0.27696 1.13613
 C2897 C 0.40419 0.28029 1.11292
 C2898 C 0.39711 0.26368 1.09714
 C2899 C 0.40069 0.26800 1.07375
 C2900 C 0.41021 0.28813 1.06650
 C2901 C 0.41666 0.30463 1.08216
 C2902 C 0.41393 0.30042 1.10540
 H2903 H 0.37239 0.22866 1.17403
 H2904 H 0.34787 0.17275 1.11679
 H2905 H 0.35326 0.19548 1.18583
 H2906 H 0.36268 0.19506 1.08632
 H2907 H 0.38101 0.22747 1.07230
 H2908 H 0.38930 0.25663 1.16237
 H2909 H 0.40669 0.28954 1.14828
 H2910 H 0.39613 0.25637 1.06050
 H2911 H 0.41246 0.29085 1.04844
 H2912 H 0.41870 0.31319 1.11765
 C2913 C 1.10616 1.13332 0.68901
 C2914 C 1.11829 1.12501 0.70799
 C2915 C 1.14208 1.12546 0.70688
 C2916 C 1.15301 1.13386 0.68763
 C2917 C 1.14071 1.14227 0.66925
 C2918 C 1.11727 1.14185 0.67005
 C2919 C 1.15494 1.11783 0.72509
 C2920 C 1.14481 1.11011 0.74474
 C2921 C 1.12122 1.10961 0.74698
 C2922 C 1.10772 1.11663 0.72809
 C2923 C 1.08414 1.11494 0.72992
 C2924 C 1.07405 1.10692 0.74952
 C2925 C 1.08693 1.10053 0.76824
 C2926 C 1.11068 1.10202 0.76739
 C2927 C 1.12289 1.09595 0.78713
 C2928 C 1.11201 1.08796 0.80639
 C2929 C 1.08863 1.08581 0.80682
 C2930 C 1.07614 1.09247 0.78780
 H2931 H 1.08812 1.13392 0.68835
 H2932 H 1.17119 1.13452 0.68715
 H2933 H 1.10753 1.14838 0.65595
 H2934 H 1.17312 1.11797 0.72423
 H2935 H 1.15611 1.10438 0.75782
 H2936 H 1.07287 1.11942 0.71632
 H2937 H 1.05590 1.10579 0.75004
 H2938 H 1.14086 1.09732 0.78845
 H2939 H 1.12200 1.08351 0.82114
 H2940 H 1.05801 1.09091 0.78805
 C2941 C 1.13071 0.60389 0.18789
 C2942 C 1.12171 0.61645 0.20622
 C2943 C 1.12166 0.64020 0.20427
 C2944 C 1.13036 0.65069 0.18489
 C2945 C 1.13949 0.63797 0.16718
 C2946 C 1.13947 0.61455 0.16878
 C2947 C 1.11323 0.65348 0.22177
 C2948 C 1.10520 0.64383 0.24154
 C2949 C 1.10522 0.62031 0.24464
 C2950 C 1.11312 0.60636 0.22649
 C2951 C 1.11217 0.58282 0.22922
 C2952 C 1.10413 0.57319 0.24905
 C2953 C 1.09690 0.58653 0.26707
 C2954 C 1.09744 0.61028 0.26525
 C2955 C 1.09035 0.62299 0.28429
 C2956 C 1.08259 0.61253 0.30390
 C2957 C 1.08165 0.58910 0.30538
 C2958 C 1.08904 0.57618 0.28696
 H2959 H 1.13163 0.58584 0.18784
 H2960 H 1.13066 0.66885 0.18379
 H2961 H 1.14650 0.60449 0.15519
 H2962 H 1.11298 0.67162 0.22025
 H2963 H 1.09890 0.65543 0.25404
 H2964 H 1.11736 0.57119 0.21622
 H2965 H 1.10367 0.55504 0.25031
 H2966 H 1.09076 0.64105 0.28481
 H2967 H 1.07748 0.62289 0.31813
 H2968 H 1.08834 0.55802 0.28798
 C2969 C 0.60305 1.13092 0.18761
 C2970 C 0.61544 1.12432 0.20712
 C2971 C 0.63919 1.12541 0.20587
 C2972 C 0.64984 1.13280 0.18600
 C2973 C 0.63729 1.13932 0.16697
 C2974 C 0.61386 1.13830 0.16796
 C2975 C 0.65231 1.11923 0.22446
 C2976 C 0.64250 1.11192 0.24444
 C2977 C 0.61895 1.11046 0.24673
 C2978 C 0.60517 1.11671 0.22774
 C2979 C 0.58162 1.11507 0.23000
 C2980 C 0.57184 1.10745 0.24994
 C2981 C 0.58499 1.10122 0.26852
 C2982 C 0.60873 1.10276 0.26730
 C2983 C 0.62122 1.09641 0.28679
 C2984 C 0.61063 1.08837 0.30621
 C2985 C 0.58724 1.08640 0.30711
 C2986 C 0.57448 1.09319 0.28829
 H2987 H 0.58500 1.13069 0.18690
 H2988 H 0.66799 1.13384 0.18540
 H2989 H 0.60388 1.14323 0.15338
 H2990 H 0.67047 1.12004 0.22356
 H2991 H 0.65403 1.10743 0.25779
 H2992 H 0.57013 1.11945 0.21657
 H2993 H 0.55369 1.10636 0.25077
 H2994 H 0.63923 1.09736 0.28771
 H2995 H 0.62085 1.08370 0.32072
 H2996 H 0.55635 1.09169 0.28884
 C2997 C 0.62843 0.60317 0.68461
 C2998 C 0.62245 0.61528 0.70447
 C2999 C 0.62507 0.63896 0.70404
 C3000 C 0.63376 0.64976 0.68476
 C3001 C 0.64012 0.63740 0.66556
 C3002 C 0.63713 0.61410 0.66561
 C3003 C 0.61932 0.65179 0.72295
 C3004 C 0.61118 0.64174 0.74251
 C3005 C 0.60850 0.61822 0.74405
 C3006 C 0.61415 0.60476 0.72469
 C3007 C 0.61147 0.58124 0.72626
 C3008 C 0.60352 0.57118 0.74593
 C3009 C 0.59790 0.58402 0.76490
 C3010 C 0.60032 0.60772 0.76432
 C3011 C 0.59441 0.61989 0.78413
 C3012 C 0.58613 0.60903 0.80331
 C3013 C 0.58346 0.58568 0.80365
 C3014 C 0.58967 0.57323 0.78445
 H3015 H 0.62679 0.58523 0.68316
 H3016 H 0.63619 0.66779 0.68490
 H3017 H 0.64177 0.60425 0.65086
 H3018 H 0.62123 0.66989 0.72269
 H3019 H 0.60720 0.65305 0.75620
 H3020 H 0.61542 0.56995 0.71253
 H3021 H 0.60173 0.55307 0.74626
 H3022 H 0.59588 0.63785 0.78548
 H3023 H 0.58184 0.61901 0.81809
 H3024 H 0.58758 0.55514 0.78453
 C3025 C 0.89960 0.87538 0.68360
 C3026 C 0.88672 0.88327 0.70221
 C3027 C 0.86300 0.88242 0.70015
 C3028 C 0.85284 0.87385 0.68044
 C3029 C 0.86588 0.86566 0.66253
 C3030 C 0.88926 0.86667 0.66418
 C3031 C 0.84943 0.88971 0.71790
 C3032 C 0.85878 0.89730 0.73808
 C3033 C 0.88227 0.89799 0.74134
 C3034 C 0.89650 0.89149 0.72288
 C3035 C 0.91997 0.89339 0.72574
 C3036 C 0.92928 0.90098 0.74600
 C3037 C 0.91570 0.90672 0.76435
 C3038 C 0.89200 0.90514 0.76240
 C3039 C 0.87905 0.91059 0.78178
 C3040 C 0.88919 0.91795 0.80180
 C3041 C 0.91253 0.92007 0.80338
 C3042 C 0.92573 0.91415 0.78466
 H3043 H 0.91766 0.87519 0.68362
 H3044 H 0.83471 0.87275 0.67930
 H3045 H 0.89956 0.86033 0.65045
 H3046 H 0.83130 0.88932 0.71629
 H3047 H 0.84698 0.90273 0.75077
 H3048 H 0.93175 0.88936 0.71252
 H3049 H 0.94739 0.90223 0.74735
 H3050 H 0.86106 0.90915 0.78224
 H3051 H 0.87866 0.92188 0.81626
 H3052 H 0.94383 0.91573 0.78579
 C3053 C 0.89896 0.37293 0.18578
 C3054 C 0.88635 0.38037 0.20476
 C3055 C 0.86259 0.37933 0.20312
 C3056 C 0.85216 0.37114 0.18338
 C3057 C 0.86495 0.36344 0.16509
 C3058 C 0.88835 0.36453 0.16638
 C3059 C 0.84930 0.38604 0.22131
 C3060 C 0.85897 0.39322 0.24150
 C3061 C 0.88250 0.39414 0.24430
 C3062 C 0.89643 0.38832 0.22539
 C3063 C 0.91991 0.39072 0.22773
 C3064 C 0.92952 0.39817 0.24791
 C3065 C 0.91625 0.40321 0.26669
 C3066 C 0.89257 0.40099 0.26530
 C3067 C 0.87996 0.40555 0.28513
 C3068 C 0.89036 0.41292 0.30501
 C3069 C 0.91363 0.41591 0.30599
 C3070 C 0.92655 0.41065 0.28687
 H3071 H 0.91702 0.37279 0.18553
 H3072 H 0.83402 0.36993 0.18250
 H3073 H 0.89845 0.35849 0.15236
 H3074 H 0.83115 0.38550 0.22004
 H3075 H 0.84737 0.39826 0.25455
 H3076 H 0.93145 0.38729 0.21412
 H3077 H 0.94762 0.39990 0.24883
 H3078 H 0.86205 0.40339 0.28604
 H3079 H 0.88008 0.41626 0.31979
 H3080 H 0.94461 0.41285 0.28755
 C3081 C 0.34436 0.87011 0.20961
 C3082 C 0.36706 0.87575 0.21401
 C3083 C 0.38305 0.87059 0.19692
 C3084 C 0.37633 0.86076 0.17624
 C3085 C 0.35371 0.85609 0.17202
 C3086 C 0.33790 0.86056 0.18896
 C3087 C 0.40563 0.87558 0.20038
 C3088 C 0.41283 0.88578 0.22034
 C3089 C 0.39764 0.89155 0.23781
 C3090 C 0.37436 0.88642 0.23460
 C3091 C 0.35914 0.89226 0.25202
 C3092 C 0.36632 0.90248 0.27196
 C3093 C 0.38890 0.90740 0.27546
 C3094 C 0.40493 0.90218 0.25844
 C3095 C 0.42764 0.90769 0.26295
 C3096 C 0.43407 0.91721 0.28365
 C3097 C 0.41820 0.92179 0.30054
 C3098 C 0.39557 0.91721 0.29615
 H3099 H 0.33106 0.87300 0.22159
 H3100 H 0.38856 0.85737 0.16306
 H3101 H 0.32034 0.85683 0.18603
 H3102 H 0.41794 0.87163 0.18743
 H3103 H 0.43058 0.88895 0.22146
 H3104 H 0.34139 0.88917 0.25087
 H3105 H 0.35399 0.90649 0.28487
 H3106 H 0.44097 0.90470 0.25102
 H3107 H 0.45165 0.92088 0.28657
 H3108 H 0.38321 0.92054 0.30923
 C3109 C 0.37130 0.39523 0.68554
 C3110 C 0.37579 0.38299 0.70570
 C3111 C 0.37291 0.35934 0.70489
 C3112 C 0.36532 0.34873 0.68496
 C3113 C 0.36032 0.36124 0.66547
 C3114 C 0.36365 0.38448 0.66588
 C3115 C 0.37727 0.34637 0.72406
 C3116 C 0.38431 0.35623 0.74422
 C3117 C 0.38721 0.37970 0.74614
 C3118 C 0.38286 0.39333 0.72656
 C3119 C 0.38555 0.41682 0.72857
 C3120 C 0.39246 0.42669 0.74882
 C3121 C 0.39701 0.41368 0.76794
 C3122 C 0.39438 0.39000 0.76697
 C3123 C 0.39921 0.37763 0.78695
 C3124 C 0.40686 0.38826 0.80661
 C3125 C 0.40985 0.41155 0.80728
 C3126 C 0.40450 0.42424 0.78800
 H3127 H 0.37334 0.41314 0.68434
 H3128 H 0.36260 0.33074 0.68479
 H3129 H 0.36004 0.39442 0.65091
 H3130 H 0.37514 0.32829 0.72351
 H3131 H 0.38724 0.34481 0.75807
 H3132 H 0.38241 0.42822 0.71475
 H3133 H 0.39438 0.44478 0.74945
 H3134 H 0.39752 0.35968 0.78802
 H3135 H 0.41057 0.37814 0.82145
 H3136 H 0.40687 0.44229 0.78840
 C3137 C 1.09996 0.87268 1.31592
 C3138 C 1.11231 0.87824 1.29616
 C3139 C 1.13606 0.87682 1.29749
 C3140 C 1.14673 0.87002 1.31763
 C3141 C 1.13420 0.86431 1.33681
 C3142 C 1.11079 0.86580 1.33582
 C3143 C 1.14914 0.88198 1.27867
 C3144 C 1.13929 0.88845 1.25834
 C3145 C 1.11574 0.89006 1.25593
 C3146 C 1.10200 0.88502 1.27520
 C3147 C 1.07847 0.88698 1.27285
 C3148 C 1.06865 0.89381 1.25256
 C3149 C 1.08176 0.89883 1.23368
 C3150 C 1.10548 0.89681 1.23497
 C3151 C 1.11794 0.90178 1.21516
 C3152 C 1.10736 0.90926 1.19542
 C3153 C 1.08404 0.91192 1.19453
 C3154 C 1.07126 0.90622 1.21357
 H3155 H 1.08192 0.87325 1.31661
 H3156 H 1.16487 0.86860 1.31829
 H3157 H 1.10086 0.86144 1.35055
 H3158 H 1.16730 0.88097 1.27963
 H3159 H 1.15079 0.89222 1.24483
 H3160 H 1.06701 0.88353 1.28650
 H3161 H 1.05053 0.89526 1.25168
 H3162 H 1.13591 0.90022 1.21422
 H3163 H 1.11755 0.91311 1.18071
 H3164 H 1.05317 0.90823 1.21296
 C3165 C 1.10784 0.37009 0.81014
 C3166 C 1.12064 0.37796 0.79153
 C3167 C 1.14432 0.37564 0.79288
 C3168 C 1.15446 0.36532 0.81177
 C3169 C 1.14142 0.35700 0.82959
 C3170 C 1.11812 0.35976 0.82873
 C3171 C 1.15780 0.38322 0.77522
 C3172 C 1.14838 0.39269 0.75588
 C3173 C 1.12489 0.39490 0.75331
 C3174 C 1.11079 0.38766 0.77156
 C3175 C 1.08731 0.39008 0.76909
 C3176 C 1.07786 0.39888 0.74944
 C3177 C 1.09130 0.40567 0.73140
 C3178 C 1.11501 0.40394 0.73304
 C3179 C 1.12778 0.41115 0.71415
 C3180 C 1.11741 0.41959 0.69466
 C3181 C 1.09401 0.42117 0.69318
 C3182 C 1.08105 0.41415 0.71164
 H3183 H 1.08984 0.37133 0.81086
 H3184 H 1.17252 0.36307 0.81231
 H3185 H 1.10779 0.35360 0.84248
 H3186 H 1.17591 0.38164 0.77624
 H3187 H 1.16014 0.39798 0.74313
 H3188 H 1.07558 0.38520 0.78203
 H3189 H 1.05974 0.40026 0.74832
 H3190 H 1.14582 0.41041 0.71369
 H3191 H 1.12781 0.42461 0.68048
 H3192 H 1.06292 0.41552 0.71071
 C3193 C 0.62875 0.84127 0.79075
 C3194 C 0.62439 0.86426 0.78637
 C3195 C 0.63044 0.87999 0.80347
 C3196 C 0.64008 0.87279 0.82405
 C3197 C 0.64403 0.84996 0.82811
 C3198 C 0.63837 0.83435 0.81122
 C3199 C 0.62685 0.90284 0.80000
 C3200 C 0.61754 0.91063 0.77984
 C3201 C 0.61122 0.89577 0.76220
 C3202 C 0.61442 0.87216 0.76565
 C3203 C 0.60747 0.85725 0.74831
 C3204 C 0.59816 0.86502 0.72815
 C3205 C 0.59540 0.88793 0.72430
 C3206 C 0.60183 0.90370 0.74122
 C3207 C 0.59877 0.92678 0.73622
 C3208 C 0.59000 0.93371 0.71534
 C3209 C 0.58386 0.91802 0.69871
 C3210 C 0.58642 0.89512 0.70342
 H3211 H 0.62514 0.82813 0.77870
 H3212 H 0.64436 0.88494 0.83709
 H3213 H 0.64158 0.81664 0.81383
 H3214 H 0.63139 0.91493 0.81303
 H3215 H 0.61540 0.92854 0.77873
 H3216 H 0.60886 0.83930 0.74975
 H3217 H 0.59317 0.85289 0.71534
 H3218 H 0.60317 0.94000 0.74790
 H3219 H 0.58797 0.95152 0.71219
 H3220 H 0.58198 0.88285 0.69054
 C3221 C 0.63448 0.39124 1.31068
 C3222 C 0.62765 0.37912 1.29109
 C3223 C 0.62918 0.35534 1.29193
 C3224 C 0.63754 0.34444 1.31138
 C3225 C 0.64468 0.35677 1.33036
 C3226 C 0.64285 0.38020 1.32986
 C3227 C 0.62259 0.34250 1.27327
 C3228 C 0.61463 0.35261 1.25360
 C3229 C 0.61295 0.37620 1.25167
 C3230 C 0.61952 0.38969 1.27075
 C3231 C 0.61785 0.41329 1.26880
 C3232 C 0.60998 0.42339 1.24906
 C3233 C 0.60344 0.41053 1.23037
 C3234 C 0.60487 0.38675 1.23132
 C3235 C 0.59808 0.37457 1.21178
 C3236 C 0.58988 0.38551 1.19252
 C3237 C 0.58818 0.40895 1.19184
 C3238 C 0.59528 0.42139 1.21076
 H3239 H 0.63373 0.40926 1.31180
 H3240 H 0.63905 0.32630 1.31154
 H3241 H 0.64806 0.39007 1.34442
 H3242 H 0.62366 0.32433 1.27384
 H3243 H 0.60994 0.34128 1.24014
 H3244 H 0.62253 0.42459 1.28229
 H3245 H 0.60896 0.44156 1.24845
 H3246 H 0.59878 0.35654 1.21071
 H3247 H 0.58490 0.37550 1.17796
 H3248 H 0.59394 0.43955 1.21042
 C3249 C 0.84351 1.12920 1.29126
 C3250 C 0.86634 1.12408 1.28694
 C3251 C 0.88226 1.12978 1.30399
 C3252 C 0.87540 1.13979 1.32449
 C3253 C 0.85271 1.14437 1.32855
 C3254 C 0.83692 1.13912 1.31168
 C3255 C 0.90497 1.12538 1.30059
 C3256 C 0.91242 1.11554 1.28058
 C3257 C 0.89735 1.10951 1.26301
 C3258 C 0.87389 1.11365 1.26633
 C3259 C 0.85876 1.10718 1.24898
 C3260 C 0.86620 1.09744 1.22892
 C3261 C 0.88898 1.09371 1.22520
 C3262 C 0.90494 1.09956 1.24217
 C3263 C 0.92786 1.09540 1.23737
 C3264 C 0.93451 1.08636 1.21655
 C3265 C 0.91868 1.08098 1.19978
 C3266 C 0.89588 1.08442 1.20437
 H3267 H 0.83025 1.12588 1.27927
 H3268 H 0.88768 1.14377 1.33752
 H3269 H 0.81932 1.14280 1.31431
 H3270 H 0.91721 1.12966 1.31357
 H3271 H 0.93024 1.11282 1.27951
 H3272 H 0.84088 1.10934 1.25030
 H3273 H 0.85393 1.09290 1.21607
 H3274 H 0.94120 1.09915 1.24916
 H3275 H 0.95223 1.08360 1.21351
 H3276 H 0.88351 1.08051 1.19140
 C3277 C 0.89315 0.63477 0.81078
 C3278 C 0.88134 0.62755 0.79112
 C3279 C 0.85753 0.62812 0.79188
 C3280 C 0.84630 0.63567 0.81139
 C3281 C 0.85828 0.64281 0.83057
 C3282 C 0.88175 0.64227 0.83008
 C3283 C 0.84497 0.62125 0.77314
 C3284 C 0.85538 0.61367 0.75353
 C3285 C 0.87901 0.61267 0.75177
 C3286 C 0.89223 0.61978 0.77085
 C3287 C 0.91585 0.61884 0.76902
 C3288 C 0.92625 0.61100 0.74945
 C3289 C 0.91365 0.60378 0.73083
 C3290 C 0.88985 0.60462 0.73161
 C3291 C 0.87791 0.59718 0.71215
 C3292 C 0.88912 0.58882 0.69317
 C3293 C 0.91257 0.58760 0.69271
 C3294 C 0.92477 0.59546 0.71149
 H3295 H 0.91118 0.63488 0.81190
 H3296 H 0.82811 0.63630 0.81162
 H3297 H 0.89130 0.64765 0.84480
 H3298 H 0.82678 0.62168 0.77364
 H3299 H 0.84425 0.60867 0.74002
 H3300 H 0.92695 0.62401 0.78251
 H3301 H 0.94443 0.61047 0.74895
 H3302 H 0.85989 0.59742 0.71093
 H3303 H 0.87931 0.58328 0.67867
 H3304 H 0.94295 0.59453 0.71127
 C3305 C 0.36964 1.10297 0.81448
 C3306 C 0.37848 1.11550 0.79611
 C3307 C 0.37789 1.13927 0.79784
 C3308 C 0.36875 1.14980 0.81705
 C3309 C 0.35983 1.13711 0.83481
 C3310 C 0.36045 1.11368 0.83342
 C3311 C 0.38613 1.15250 0.78029
 C3312 C 0.39459 1.14279 0.76068
 C3313 C 0.39522 1.11924 0.75781
 C3314 C 0.38752 1.10534 0.77602
 C3315 C 0.38913 1.08180 0.77353
 C3316 C 0.39760 1.07211 0.75386
 C3317 C 0.40463 1.08537 0.73577
 C3318 C 0.40345 1.10913 0.73736
 C3319 C 0.41036 1.12175 0.71826
 C3320 C 0.41852 1.11122 0.69881
 C3321 C 0.42008 1.08780 0.69754
 C3322 C 0.41291 1.07495 0.71604
 H3323 H 0.36919 1.08491 0.81468
 H3324 H 0.36799 1.16797 0.81798
 H3325 H 0.35359 1.10363 0.84704
 H3326 H 0.38588 1.17067 0.78164
 H3327 H 0.40069 1.15436 0.74813
 H3328 H 0.38413 1.07023 0.78659
 H3329 H 0.39855 1.05395 0.75278
 H3330 H 0.40948 1.13978 0.71757
 H3331 H 0.42343 1.12152 0.68451
 H3332 H 0.41407 1.05679 0.71519
 C3333 C 0.39633 0.63065 1.31526
 C3334 C 0.38423 0.62461 1.29539
 C3335 C 0.36053 0.62711 1.29587
 C3336 C 0.34971 0.63555 1.31529
 C3337 C 0.36204 0.64190 1.33453
 C3338 C 0.38538 0.63917 1.33437
 C3339 C 0.34771 0.62149 1.27688
 C3340 C 0.35777 0.61366 1.25717
 C3341 C 0.38130 0.61110 1.25557
 C3342 C 0.39475 0.61642 1.27508
 C3343 C 0.41823 0.61341 1.27360
 C3344 C 0.42827 0.60549 1.25387
 C3345 C 0.41546 0.60035 1.23470
 C3346 C 0.39181 0.60323 1.23516
 C3347 C 0.37968 0.59808 1.21508
 C3348 C 0.39050 0.58980 1.19583
 C3349 C 0.41375 0.58644 1.19569
 C3350 C 0.42621 0.59211 1.21509
 H3351 H 0.41430 0.62929 1.31659
 H3352 H 0.33165 0.63783 1.31519
 H3353 H 0.39522 0.64388 1.34914
 H3354 H 0.32959 0.62327 1.27720
 H3355 H 0.34646 0.60967 1.24347
 H3356 H 0.42948 0.61691 1.28751
 H3357 H 0.44635 0.60335 1.25364
 H3358 H 0.36180 0.60020 1.21354
 H3359 H 0.38054 0.58603 1.18086
 H3360 H 0.44424 0.58955 1.21511
 C3361 C 1.12479 1.28775 0.84532
 C3362 C 1.12185 1.28243 0.86859
 C3363 C 1.12902 1.29851 0.88490
 C3364 C 1.13885 1.31879 0.87801
 C3365 C 1.14163 1.32362 0.85494
 C3366 C 1.13451 1.30798 0.83872
 C3367 C 1.12637 1.29434 0.90801
 C3368 C 1.11676 1.27450 0.91550
 C3369 C 1.10942 1.25783 0.90007
 C3370 C 1.11211 1.26181 0.87622
 C3371 C 1.10517 1.24496 0.86081
 C3372 C 1.09606 1.22490 0.86831
 C3373 C 1.09332 1.22076 0.89141
 C3374 C 1.09973 1.23717 0.90769
 C3375 C 1.09623 1.23208 0.93093
 C3376 C 1.08737 1.21145 0.93756
 C3377 C 1.08156 1.19518 0.92139
 C3378 C 1.08438 1.20008 0.89831
 H3379 H 1.11977 1.27675 0.83169
 H3380 H 1.14421 1.33102 0.89057
 H3381 H 1.13664 1.31142 0.82078
 H3382 H 1.13183 1.30657 0.92052
 H3383 H 1.11553 1.27272 0.93365
 H3384 H 1.10671 1.24658 0.84267
 H3385 H 1.09116 1.21242 0.85580
 H3386 H 1.10013 1.24359 0.94450
 H3387 H 1.08497 1.20822 0.95551
 H3388 H 1.08012 1.18751 0.88565
 C3389 C 1.12838 0.81339 0.40076
 C3390 C 1.12078 0.79518 0.38720
 C3391 C 1.12192 0.79764 0.36326
 C3392 C 1.13015 0.81746 0.35355
 C3393 C 1.13731 0.83535 0.36721
 C3394 C 1.13648 0.83309 0.39085
 C3395 C 1.11480 0.78036 0.34900
 C3396 C 1.10639 0.76056 0.35785
 C3397 C 1.10471 0.75715 0.38154
 C3398 C 1.11207 0.77472 0.39648
 C3399 C 1.11041 0.77126 0.42016
 C3400 C 1.10190 0.75144 0.42900
 C3401 C 1.09467 0.73420 0.41471
 C3402 C 1.09592 0.73673 0.39078
 C3403 C 1.08828 0.71864 0.37712
 C3404 C 1.07990 0.69905 0.38686
 C3405 C 1.07876 0.69667 0.41049
 C3406 C 1.08619 0.71437 0.42432
 H3407 H 1.12825 0.81310 0.41905
 H3408 H 1.13105 0.81900 0.33522
 H3409 H 1.14190 0.84677 0.40169
 H3410 H 1.11569 0.78219 0.33069
 H3411 H 1.10129 0.74824 0.34549
 H3412 H 1.11555 0.78360 0.43250
 H3413 H 1.10098 0.74959 0.44730
 H3414 H 1.08858 0.71891 0.35884
 H3415 H 1.07463 0.68550 0.37577
 H3416 H 1.08517 0.71278 0.44264
 C3417 C 0.65607 1.28623 0.37028
 C3418 C 0.63323 1.28194 0.37526
 C3419 C 0.61740 1.29906 0.37012
 C3420 C 0.62442 1.31969 0.36097
 C3421 C 0.64716 1.32379 0.35700
 C3422 C 0.66281 1.30681 0.36141
 C3423 C 0.59469 1.29570 0.37445
 C3424 C 0.58721 1.27581 0.38405
 C3425 C 0.60223 1.25833 0.38986
 C3426 C 0.62563 1.26142 0.38531
 C3427 C 0.64068 1.24397 0.39115
 C3428 C 0.63325 1.22418 0.40093
 C3429 C 0.61056 1.22085 0.40538
 C3430 C 0.59467 1.23783 0.40002
 C3431 C 0.57184 1.23345 0.40500
 C3432 C 0.56522 1.21300 0.41435
 C3433 C 0.58099 1.19623 0.41923
 C3434 C 0.60369 1.20040 0.41496
 H3435 H 0.66927 1.27421 0.37319
 H3436 H 0.61230 1.33288 0.35760
 H3437 H 0.68046 1.30962 0.35817
 H3438 H 0.58252 1.30868 0.37049
 H3439 H 0.56939 1.27476 0.38678
 H3440 H 0.65849 1.24500 0.38843
 H3441 H 0.64546 1.21128 0.40502
 H3442 H 0.55858 1.24534 0.40179
 H3443 H 0.54758 1.21025 0.41775
 H3444 H 0.61599 1.18741 0.41848
 C3445 C 0.65516 0.78582 0.87674
 C3446 C 0.63206 0.78075 0.87924
 C3447 C 0.61628 0.79702 0.87170
 C3448 C 0.62349 0.81723 0.86193
 C3449 C 0.64637 0.82180 0.85952
 C3450 C 0.66208 0.80599 0.86704
 C3451 C 0.59337 0.79307 0.87390
 C3452 C 0.58557 0.77326 0.88336
 C3453 C 0.60048 0.75639 0.89100
 C3454 C 0.62412 0.76017 0.88885
 C3455 C 0.63903 0.74317 0.89618
 C3456 C 0.63123 0.72312 0.90509
 C3457 C 0.60832 0.71915 0.90724
 C3458 C 0.59254 0.73573 0.90046
 C3459 C 0.56947 0.73079 0.90333
 C3460 C 0.56253 0.71013 0.91196
 C3461 C 0.57823 0.69371 0.91814
 C3462 C 0.60112 0.69846 0.91595
 H3463 H 0.66839 0.77467 0.88204
 H3464 H 0.61132 0.82959 0.85626
 H3465 H 0.67986 0.80922 0.86520
 H3466 H 0.58125 0.80546 0.86818
 H3467 H 0.56761 0.77167 0.88423
 H3468 H 0.65698 0.74465 0.89511
 H3469 H 0.64334 0.71051 0.91030
 H3470 H 0.55626 0.74241 0.89908
 H3471 H 0.54473 0.70701 0.91386
 H3472 H 0.61341 0.68577 0.92048
 C3473 C 0.87460 1.29348 1.15043
 C3474 C 0.87983 1.28804 1.12760
 C3475 C 0.87511 1.30443 1.11073
 C3476 C 0.86599 1.32541 1.11673
 C3477 C 0.86166 1.33061 1.13947
 C3478 C 0.86577 1.31440 1.15616
 C3479 C 0.87980 1.29996 1.08799
 C3480 C 0.88928 1.27965 1.08148
 C3481 C 0.89457 1.26282 1.09755
 C3482 C 0.88966 1.26705 1.12100
 C3483 C 0.89484 1.25019 1.13707
 C3484 C 0.90424 1.22986 1.13056
 C3485 C 0.90900 1.22542 1.10785
 C3486 C 0.90443 1.24183 1.09097
 C3487 C 0.90984 1.23638 1.06818
 C3488 C 0.91859 1.21538 1.06248
 C3489 C 0.92246 1.19911 1.07918
 C3490 C 0.91800 1.20439 1.10190
 H3491 H 0.87728 1.28213 1.16439
 H3492 H 0.86285 1.33801 1.10383
 H3493 H 0.86227 1.31808 1.17383
 H3494 H 0.87617 1.31237 1.07503
 H3495 H 0.89225 1.27772 1.06355
 H3496 H 0.89180 1.25206 1.15498
 H3497 H 0.90774 1.21741 1.14353
 H3498 H 0.90739 1.24782 1.05425
 H3499 H 0.92223 1.21178 1.04482
 H3500 H 0.92080 1.19181 1.11492
 C3501 C 0.87625 0.79558 0.64813
 C3502 C 0.88008 0.78956 0.62516
 C3503 C 0.87454 0.80560 0.60821
 C3504 C 0.86599 0.82681 0.61425
 C3505 C 0.86293 0.83254 0.63708
 C3506 C 0.86788 0.81668 0.65388
 C3507 C 0.87772 0.80052 0.58534
 C3508 C 0.88639 0.77988 0.57874
 C3509 C 0.89238 0.76334 0.59487
 C3510 C 0.88922 0.76829 0.61849
 C3511 C 0.89542 0.75187 0.63465
 C3512 C 0.90412 0.73126 0.62809
 C3513 C 0.90708 0.72607 0.60521
 C3514 C 0.90137 0.74199 0.58821
 C3515 C 0.90482 0.73571 0.56524
 C3516 C 0.91308 0.71450 0.55957
 C3517 C 0.91833 0.69882 0.57647
 C3518 C 0.91553 0.70483 0.59929
 H3519 H 0.87954 0.78448 0.66217
 H3520 H 0.86214 0.83910 0.60123
 H3521 H 0.86528 0.82070 0.67164
 H3522 H 0.87348 0.81269 0.57232
 H3523 H 0.88824 0.77748 0.56071
 H3524 H 0.89383 0.75434 0.65269
 H3525 H 0.90853 0.71919 0.64114
 H3526 H 0.90118 0.74665 0.55115
 H3527 H 0.91538 0.71032 0.54180
 H3528 H 0.91935 0.69270 0.61248
 C3529 C 0.34870 1.29111 0.62496
 C3530 C 0.37173 1.28576 0.62233
 C3531 C 0.38764 1.30246 0.62839
 C3532 C 0.38060 1.32357 0.63645
 C3533 C 0.35775 1.32860 0.63846
 C3534 C 0.34195 1.31214 0.63285
 C3535 C 0.41052 1.29813 0.62619
 C3536 C 0.41811 1.27766 0.61789
 C3537 C 0.40303 1.26050 0.61138
 C3538 C 0.37945 1.26457 0.61379
 C3539 C 0.36436 1.24734 0.60752
 C3540 C 0.37192 1.22692 0.59913
 C3541 C 0.39476 1.22273 0.59654
 C3542 C 0.41072 1.23939 0.60257
 C3543 C 0.43372 1.23411 0.59945
 C3544 C 0.44039 1.21322 0.59101
 C3545 C 0.42450 1.19685 0.58528
 C3546 C 0.40169 1.20180 0.58802
 H3547 H 0.33537 1.27957 0.62100
 H3548 H 0.39287 1.33632 0.64074
 H3549 H 0.32418 1.31560 0.63458
 H3550 H 0.42275 1.31080 0.63086
 H3551 H 0.43604 1.27587 0.61680
 H3552 H 0.34644 1.24899 0.60887
 H3553 H 0.35966 1.21424 0.59457
 H3554 H 0.44706 1.24568 0.60331
 H3555 H 0.45813 1.20990 0.58879
 H3556 H 0.38925 1.18914 0.58390
 C3557 C 0.36792 0.80868 1.10517
 C3558 C 0.37550 0.79006 1.11808
 C3559 C 0.37371 0.79157 1.14209
 C3560 C 0.36456 0.81079 1.15246
 C3561 C 0.35684 0.82887 1.13937
 C3562 C 0.35877 0.82764 1.11568
 C3563 C 0.38086 0.77382 1.15570
 C3564 C 0.38959 0.75437 1.14613
 C3565 C 0.39156 0.75180 1.12234
 C3566 C 0.38459 0.77003 1.10807
 C3567 C 0.38689 0.76757 1.08430
 C3568 C 0.39554 0.74806 1.07473
 C3569 C 0.40220 0.73010 1.08833
 C3570 C 0.40030 0.73162 1.11233
 C3571 C 0.40718 0.71276 1.12525
 C3572 C 0.41572 0.69352 1.11480
 C3573 C 0.41776 0.69221 1.09112
 C3574 C 0.41081 0.71058 1.07798
 H3575 H 0.36864 0.80918 1.08690
 H3576 H 0.36296 0.81149 1.17079
 H3577 H 0.35311 0.84148 1.10520
 H3578 H 0.37962 0.77491 1.17405
 H3579 H 0.39469 0.74163 1.15802
 H3580 H 0.38219 0.78049 1.07243
 H3581 H 0.39697 0.74702 1.05639
 H3582 H 0.40611 0.71215 1.14350
 H3583 H 0.42052 0.67942 1.12537
 H3584 H 0.41243 0.70982 1.05964
 C3585 C 0.86237 0.69298 0.89550
 C3586 C 0.86976 0.71161 0.88255
 C3587 C 0.86872 0.70969 0.85853
 C3588 C 0.86093 0.68992 0.84817
 C3589 C 0.85404 0.67159 0.86125
 C3590 C 0.85467 0.67337 0.88496
 C3591 C 0.87554 0.72745 0.84485
 C3592 C 0.88359 0.74717 0.85435
 C3593 C 0.88525 0.75002 0.87815
 C3594 C 0.87820 0.73195 0.89251
 C3595 C 0.88002 0.73477 0.91629
 C3596 C 0.88855 0.75438 0.92577
 C3597 C 0.89556 0.77207 0.91205
 C3598 C 0.89390 0.77027 0.88805
 C3599 C 0.90111 0.78886 0.87499
 C3600 C 0.90987 0.80804 0.88532
 C3601 C 0.91180 0.80957 0.90899
 C3602 C 0.90439 0.79155 0.92228
 H3603 H 0.86237 0.69288 0.91380
 H3604 H 0.86018 0.68874 0.82979
 H3605 H 0.84944 0.65937 0.89538
 H3606 H 0.87472 0.72605 0.82648
 H3607 H 0.88855 0.75986 0.84240
 H3608 H 0.87512 0.72202 0.92821
 H3609 H 0.88972 0.75566 0.94412
 H3610 H 0.90023 0.78926 0.85672
 H3611 H 0.91499 0.82190 0.87464
 H3612 H 0.90589 0.79251 0.94063
 C3613 C 0.87128 0.19061 0.39479
 C3614 C 0.87845 0.20954 0.38220
 C3615 C 0.87567 0.20880 0.35822
 C3616 C 0.86571 0.19013 0.34762
 C3617 C 0.85805 0.17199 0.36049
 C3618 C 0.86122 0.17228 0.38406
 C3619 C 0.88240 0.22688 0.34494
 C3620 C 0.89136 0.24604 0.35484
 C3621 C 0.89397 0.24797 0.37865
 C3622 C 0.88783 0.22924 0.39253
 C3623 C 0.89110 0.23093 0.41628
 C3624 C 0.89971 0.25026 0.42620
 C3625 C 0.90532 0.26881 0.41301
 C3626 C 0.90253 0.26801 0.38904
 C3627 C 0.90825 0.28746 0.37654
 C3628 C 0.91666 0.30654 0.38735
 C3629 C 0.91967 0.30708 0.41095
 C3630 C 0.91378 0.28818 0.42372
 H3631 H 0.87277 0.18951 0.41299
 H3632 H 0.86311 0.19004 0.32937
 H3633 H 0.85550 0.15831 0.39427
 H3634 H 0.88051 0.22633 0.32660
 H3635 H 0.89609 0.25910 0.34319
 H3636 H 0.88721 0.21752 0.42784
 H3637 H 0.90188 0.25073 0.44451
 H3638 H 0.90630 0.28868 0.35839
 H3639 H 0.92065 0.32110 0.37712
 H3640 H 0.91612 0.28843 0.44200
 C3641 C 0.36962 0.69256 0.39900
 C3642 C 0.37712 0.71118 0.38614
 C3643 C 0.37656 0.70924 0.36209
 C3644 C 0.36884 0.68953 0.35161
 C3645 C 0.36112 0.67156 0.36463
 C3646 C 0.36169 0.67317 0.38833
 C3647 C 0.38335 0.72708 0.34852
 C3648 C 0.39022 0.74717 0.35818
 C3649 C 0.39074 0.75022 0.38200
 C3650 C 0.38473 0.73172 0.39623
 C3651 C 0.38665 0.73436 0.42004
 C3652 C 0.39393 0.75439 0.42965
 C3653 C 0.39927 0.77273 0.41605
 C3654 C 0.39744 0.77106 0.39204
 C3655 C 0.40228 0.79045 0.37910
 C3656 C 0.40965 0.81013 0.38949
 C3657 C 0.41234 0.81135 0.41311
 C3658 C 0.40669 0.79272 0.42636
 H3659 H 0.36912 0.69254 0.41728
 H3660 H 0.36804 0.68841 0.33322
 H3661 H 0.35564 0.65939 0.39861
 H3662 H 0.38315 0.72559 0.33015
 H3663 H 0.39536 0.75992 0.34637
 H3664 H 0.38299 0.72109 0.43184
 H3665 H 0.39534 0.75553 0.44800
 H3666 H 0.40042 0.79114 0.36091
 H3667 H 0.41331 0.82456 0.37895
 H3668 H 0.40864 0.79359 0.44467
 C3669 C 0.39314 0.18728 0.87595
 C3670 C 0.38068 0.20699 0.88084
 C3671 C 0.35704 0.20603 0.87788
 C3672 C 0.34665 0.18640 0.86977
 C3673 C 0.35939 0.16740 0.86427
 C3674 C 0.38263 0.16794 0.86777
 C3675 C 0.34387 0.22478 0.88264
 C3676 C 0.35354 0.24468 0.89004
 C3677 C 0.37700 0.24676 0.89292
 C3678 C 0.39081 0.22757 0.88831
 C3679 C 0.41428 0.22969 0.89110
 C3680 C 0.42397 0.24971 0.89820
 C3681 C 0.41080 0.26851 0.90283
 C3682 C 0.38712 0.26738 0.90025
 C3683 C 0.37460 0.28703 0.90517
 C3684 C 0.38511 0.30659 0.91272
 C3685 C 0.40843 0.30746 0.91555
 C3686 C 0.42123 0.28842 0.91027
 H3687 H 0.41106 0.18620 0.87803
 H3688 H 0.32866 0.18614 0.86698
 H3689 H 0.39276 0.15333 0.86386
 H3690 H 0.32580 0.22412 0.88049
 H3691 H 0.34199 0.25822 0.89325
 H3692 H 0.42581 0.21614 0.88786
 H3693 H 0.44206 0.25046 0.90011
 H3694 H 0.35663 0.28796 0.90353
 H3695 H 0.37488 0.32121 0.91635
 H3696 H 0.43929 0.28893 0.91253
 C3697 C 1.10464 0.68674 1.12575
 C3698 C 1.11648 0.70677 1.12085
 C3699 C 1.14014 0.70647 1.12379
 C3700 C 1.15115 0.68717 1.13191
 C3701 C 1.13900 0.66786 1.13746
 C3702 C 1.11576 0.66775 1.13396
 C3703 C 1.15272 0.72555 1.11901
 C3704 C 1.14244 0.74514 1.11159
 C3705 C 1.11892 0.74656 1.10872
 C3706 C 1.10571 0.72703 1.11337
 C3707 C 1.08218 0.72851 1.11060
 C3708 C 1.07187 0.74821 1.10344
 C3709 C 1.08447 0.76731 1.09871
 C3710 C 1.10817 0.76685 1.10132
 C3711 C 1.12009 0.78678 1.09632
 C3712 C 1.10901 0.80594 1.08859
 C3713 C 1.08569 0.80614 1.08565
 C3714 C 1.07345 0.78686 1.09110
 H3715 H 1.08676 0.68517 1.12368
 H3716 H 1.16914 0.68742 1.13471
 H3717 H 1.10609 0.65289 1.13792
 H3718 H 1.17081 0.72540 1.12114
 H3719 H 1.15357 0.75896 1.10835
 H3720 H 1.07107 0.71467 1.11390
 H3721 H 1.05377 0.74845 1.10152
 H3722 H 1.13802 0.78822 1.09801
 H3723 H 1.11880 0.82078 1.08482
 H3724 H 1.05538 0.78688 1.08879
 C3725 C 1.13228 0.21217 0.65312
 C3726 C 1.12839 0.21744 0.62997
 C3727 C 1.13370 0.20077 0.61354
 C3728 C 1.14213 0.17972 0.62025
 C3729 C 1.14516 0.17470 0.64327
 C3730 C 1.14044 0.19118 0.65955
 C3731 C 1.13026 0.20504 0.59052
 C3732 C 1.12135 0.22537 0.58329
 C3733 C 1.11544 0.24244 0.59890
 C3734 C 1.11925 0.23850 0.62262
 C3735 C 1.11367 0.25568 0.63821
 C3736 C 1.10464 0.27594 0.63102
 C3737 C 1.10067 0.28000 0.60805
 C3738 C 1.10591 0.26336 0.59160
 C3739 C 1.10134 0.26845 0.56852
 C3740 C 1.09243 0.28922 0.56221
 C3741 C 1.08761 0.30563 0.57856
 C3742 C 1.09160 0.30080 0.60149
 H3743 H 1.12899 0.22370 0.66682
 H3744 H 1.14573 0.16692 0.60764
 H3745 H 1.14294 0.18767 0.67744
 H3746 H 1.13438 0.19242 0.57789
 H3747 H 1.11931 0.22713 0.56520
 H3748 H 1.11609 0.25413 0.65626
 H3749 H 1.10068 0.28861 0.64365
 H3750 H 1.10443 0.25684 0.55484
 H3751 H 1.08920 0.29244 0.54437
 H3752 H 1.08815 0.31349 0.61425
 C3753 C 0.65274 0.70756 0.62524
 C3754 C 0.62978 0.71268 0.62153
 C3755 C 0.61378 0.69603 0.62734
 C3756 C 0.62070 0.67509 0.63595
 C3757 C 0.64351 0.67022 0.63889
 C3758 C 0.65937 0.68673 0.63371
 C3759 C 0.59096 0.70023 0.62434
 C3760 C 0.58350 0.72056 0.61559
 C3761 C 0.59866 0.73766 0.60930
 C3762 C 0.62221 0.73362 0.61224
 C3763 C 0.63740 0.75056 0.60563
 C3764 C 0.62998 0.77080 0.59669
 C3765 C 0.60716 0.77512 0.59393
 C3766 C 0.59110 0.75868 0.60015
 C3767 C 0.56813 0.76412 0.59701
 C3768 C 0.56157 0.78497 0.58840
 C3769 C 0.57755 0.80113 0.58248
 C3770 C 0.60034 0.79598 0.58512
 H3771 H 0.66609 0.71919 0.62179
 H3772 H 0.60838 0.66234 0.63993
 H3773 H 0.67709 0.68341 0.63619
 H3774 H 0.57866 0.68759 0.62877
 H3775 H 0.56559 0.72225 0.61386
 H3776 H 0.65532 0.74876 0.60702
 H3777 H 0.64232 0.78327 0.59191
 H3778 H 0.55471 0.75278 0.60115
 H3779 H 0.54384 0.78846 0.58629
 H3780 H 0.61284 0.80849 0.58085
 C3781 C 0.63176 0.18847 1.10128
 C3782 C 0.62465 0.20741 1.11402
 C3783 C 0.62567 0.20584 1.13807
 C3784 C 0.63334 0.18615 1.14865
 C3785 C 0.64021 0.16762 1.13576
 C3786 C 0.63941 0.16899 1.11204
 C3787 C 0.61908 0.22390 1.15155
 C3788 C 0.61142 0.24366 1.14181
 C3789 C 0.60997 0.24623 1.11798
 C3790 C 0.61659 0.22778 1.10383
 C3791 C 0.61482 0.23027 1.08001
 C3792 C 0.60677 0.24996 1.07030
 C3793 C 0.60025 0.26806 1.08381
 C3794 C 0.60189 0.26658 1.10784
 C3795 C 0.59530 0.28560 1.12069
 C3796 C 0.58698 0.30485 1.11014
 C3797 C 0.58494 0.30601 1.08646
 C3798 C 0.59190 0.28762 1.07336
 H3799 H 0.63172 0.18808 1.08299
 H3800 H 0.63424 0.18527 1.16704
 H3801 H 0.64465 0.15481 1.10178
 H3802 H 0.61983 0.22275 1.16993
 H3803 H 0.60660 0.25659 1.15362
 H3804 H 0.61938 0.21720 1.06824
 H3805 H 0.60559 0.25099 1.05194
 H3806 H 0.59633 0.28632 1.13894
 H3807 H 0.58223 0.31903 1.12065
 H3808 H 0.59035 0.28835 1.05501
 C3809 C 1.28999 1.12692 0.84991
 C3810 C 1.28470 1.12238 0.87291
 C3811 C 1.30108 1.12783 0.88961
 C3812 C 1.32190 1.13696 0.88331
 C3813 C 1.32698 1.14060 0.86043
 C3814 C 1.31076 1.13578 0.84389
 C3815 C 1.29677 1.12382 0.91250
 C3816 C 1.27666 1.11427 0.91932
 C3817 C 1.25987 1.10824 0.90343
 C3818 C 1.26389 1.11251 0.87983
 C3819 C 1.24704 1.10666 0.86395
 C3820 C 1.22694 1.09711 0.87076
 C3821 C 1.22274 1.09286 0.89361
 C3822 C 1.23913 1.09820 0.91033
 C3823 C 1.23393 1.09331 0.93327
 C3824 C 1.21322 1.08420 0.93924
 C3825 C 1.19697 1.07945 0.92268
 C3826 C 1.20200 1.08352 0.89983
 H3827 H 1.27863 1.12365 0.83604
 H3828 H 1.33450 1.14064 0.89613
 H3829 H 1.31433 1.13873 0.82610
 H3830 H 1.30918 1.12802 0.92534
 H3831 H 1.27485 1.11185 0.93734
 H3832 H 1.24873 1.10927 0.84595
 H3833 H 1.21450 1.09303 0.85791
 H3834 H 1.24537 1.09640 0.94712
 H3835 H 1.20984 1.08089 0.95701
 H3836 H 1.18944 1.08006 0.88690
 C3837 C 1.29136 0.65553 0.37306
 C3838 C 1.28618 0.63279 0.37767
 C3839 C 1.30295 0.61645 0.37300
 C3840 C 1.32402 0.62287 0.36453
 C3841 C 1.32895 0.64550 0.36076
 C3842 C 1.31237 0.66166 0.36484
 C3843 C 1.29874 0.59383 0.37708
 C3844 C 1.27833 0.58690 0.38593
 C3845 C 1.26113 0.60243 0.39116
 C3846 C 1.26508 0.62576 0.38685
 C3847 C 1.24786 0.64129 0.39196
 C3848 C 1.22748 0.63439 0.40084
 C3849 C 1.22333 0.61179 0.40509
 C3850 C 1.24006 0.59543 0.40045
 C3851 C 1.23488 0.57273 0.40528
 C3852 C 1.21390 0.56666 0.41374
 C3853 C 1.19737 0.58288 0.41784
 C3854 C 1.20232 0.60547 0.41375
 H3855 H 1.27973 0.66910 0.37575
 H3856 H 1.33689 0.61035 0.36141
 H3857 H 1.31580 0.67925 0.36174
 H3858 H 1.31145 0.58127 0.37348
 H3859 H 1.27663 0.56910 0.38848
 H3860 H 1.24948 0.65907 0.38930
 H3861 H 1.21476 0.64696 0.40437
 H3862 H 1.24654 0.55916 0.40266
 H3863 H 1.21058 0.54910 0.41708
 H3864 H 1.18954 0.61813 0.41669
 C3865 C 0.78903 1.15547 0.37755
 C3866 C 0.78378 1.13236 0.37970
 C3867 C 0.79993 1.11657 0.37200
 C3868 C 0.82017 1.12378 0.36230
 C3869 C 0.82488 1.14667 0.36016
 C3870 C 0.80922 1.16239 0.36793
 C3871 C 0.79584 1.09365 0.37392
 C3872 C 0.77600 1.08585 0.38329
 C3873 C 0.75923 1.10077 0.39108
 C3874 C 0.76313 1.12443 0.38913
 C3875 C 0.74617 1.13935 0.39646
 C3876 C 0.72609 1.13156 0.40525
 C3877 C 0.72205 1.10864 0.40732
 C3878 C 0.73856 1.09284 0.40048
 C3879 C 0.73355 1.06976 0.40329
 C3880 C 0.71293 1.06285 0.41200
 C3881 C 0.69660 1.07857 0.41829
 C3882 C 0.70138 1.10147 0.41605
 H3883 H 0.77801 1.16870 0.38310
 H3884 H 0.83241 1.11160 0.35646
 H3885 H 0.81257 1.18019 0.36631
 H3886 H 0.80814 1.08152 0.36807
 H3887 H 0.77429 1.06788 0.38395
 H3888 H 0.74770 1.15731 0.39543
 H3889 H 0.71352 1.14369 0.41048
 H3890 H 0.74512 1.05654 0.39901
 H3891 H 0.70979 1.04504 0.41393
 H3892 H 0.68876 1.11379 0.42064
 C3893 C 0.80695 0.60490 0.86655
 C3894 C 0.78730 0.61685 0.87280
 C3895 C 0.78806 0.64064 0.87170
 C3896 C 0.80761 0.65174 0.86462
 C3897 C 0.82678 0.63962 0.85840
 C3898 C 0.82625 0.61616 0.85947
 C3899 C 0.76931 0.65333 0.87756
 C3900 C 0.74966 0.64306 0.88458
 C3901 C 0.74788 0.61945 0.88607
 C3902 C 0.76701 0.60610 0.88009
 C3903 C 0.76523 0.58250 0.88167
 C3904 C 0.74565 0.57225 0.88909
 C3905 C 0.72695 0.58498 0.89517
 C3906 C 0.72767 0.60875 0.89357
 C3907 C 0.70810 0.62082 0.89974
 C3908 C 0.68912 0.60980 0.90782
 C3909 C 0.68874 0.58640 0.90996
 C3910 C 0.70759 0.57403 0.90318
 H3911 H 0.80804 0.58687 0.86685
 H3912 H 0.80784 0.66991 0.86357
 H3913 H 0.84094 0.60648 0.85480
 H3914 H 0.76981 0.67151 0.87675
 H3915 H 0.73614 0.65428 0.88885
 H3916 H 0.77878 0.57130 0.87742
 H3917 H 0.74520 0.55409 0.89019
 H3918 H 0.70682 0.63881 0.89872
 H3919 H 0.67458 0.61972 0.91249
 H3920 H 0.70744 0.55590 0.90479
 C3921 C 1.30751 0.89353 1.13015
 C3922 C 1.28842 0.88124 1.12289
 C3923 C 1.28969 0.85745 1.12378
 C3924 C 1.30912 0.84667 1.13183
 C3925 C 1.32750 0.85916 1.13946
 C3926 C 1.32661 0.88260 1.13835
 C3927 C 1.27144 0.84447 1.11702
 C3928 C 1.25164 0.85448 1.10980
 C3929 C 1.24924 0.87807 1.10898
 C3930 C 1.26809 0.89169 1.11517
 C3931 C 1.26596 0.91526 1.11347
 C3932 C 1.24614 0.92525 1.10617
 C3933 C 1.22753 0.91227 1.10046
 C3934 C 1.22868 0.88850 1.10196
 C3935 C 1.20910 0.87620 1.09642
 C3936 C 1.18967 0.88699 1.08895
 C3937 C 1.18889 0.91039 1.08685
 C3938 C 1.20778 0.92298 1.09301
 H3939 H 1.30817 0.91158 1.13018
 H3940 H 1.30972 0.82851 1.13296
 H3941 H 1.34073 0.89249 1.14422
 H3942 H 1.27238 0.82629 1.11750
 H3943 H 1.23851 0.84308 1.10482
 H3944 H 1.27943 0.92664 1.11748
 H3945 H 1.24539 0.94340 1.10503
 H3946 H 1.20808 0.85821 1.09770
 H3947 H 1.17509 0.87693 1.08480
 H3948 H 1.20728 0.94111 1.09143
 C3949 C 1.31106 0.37032 0.60013
 C3950 C 1.29285 0.37909 0.61285
 C3951 C 1.29466 0.37861 0.63691
 C3952 C 1.31379 0.36969 0.64752
 C3953 C 1.33144 0.36091 0.63465
 C3954 C 1.32996 0.36138 0.61093
 C3955 C 1.27731 0.38680 0.65036
 C3956 C 1.25786 0.39522 0.64058
 C3957 C 1.25494 0.39583 0.61675
 C3958 C 1.27289 0.38802 0.60262
 C3959 C 1.27027 0.38944 0.57879
 C3960 C 1.25078 0.39794 0.56904
 C3961 C 1.23301 0.40520 0.58253
 C3962 C 1.23472 0.40415 0.60657
 C3963 C 1.21597 0.41134 0.61941
 C3964 C 1.19674 0.41964 0.60882
 C3965 C 1.19536 0.42106 0.58511
 C3966 C 1.21350 0.41360 0.57204
 H3967 H 1.31120 0.36982 0.58185
 H3968 H 1.31479 0.36905 0.66592
 H3969 H 1.34350 0.35463 0.60074
 H3970 H 1.27871 0.38661 0.66874
 H3971 H 1.24547 0.40130 0.65235
 H3972 H 1.28308 0.38426 0.56704
 H3973 H 1.24960 0.39875 0.55066
 H3974 H 1.21539 0.41064 0.63767
 H3975 H 1.18272 0.42479 0.61929
 H3976 H 1.21256 0.41465 0.55366
 C3977 C 0.81481 0.89776 0.62138
 C3978 C 0.79547 0.88475 0.61648
 C3979 C 0.79712 0.86116 0.61945
 C3980 C 0.81704 0.85132 0.62754
 C3981 C 0.83568 0.86457 0.63299
 C3982 C 0.83445 0.88777 0.62953
 C3983 C 0.77877 0.84746 0.61473
 C3984 C 0.75858 0.85657 0.60739
 C3985 C 0.75580 0.87996 0.60454
 C3986 C 0.77460 0.89430 0.60902
 C3987 C 0.77182 0.91768 0.60611
 C3988 C 0.75148 0.92681 0.59915
 C3989 C 0.73301 0.91313 0.59478
 C3990 C 0.73483 0.88951 0.59739
 C3991 C 0.71548 0.87646 0.59275
 C3992 C 0.69552 0.88645 0.58555
 C3993 C 0.69394 0.90973 0.58276
 C3994 C 0.71272 0.92301 0.58764
 H3995 H 0.81534 0.91570 0.61936
 H3996 H 0.81780 0.83335 0.63035
 H3997 H 0.84877 0.89829 0.63346
 H3998 H 0.77998 0.82942 0.61687
 H3999 H 0.74539 0.84464 0.60420
 H4000 H 0.78507 0.92957 0.60915
 H4001 H 0.75020 0.94487 0.59717
 H4002 H 0.71509 0.85848 0.59445
 H4003 H 0.68111 0.87584 0.58223
 H4004 H 0.71167 0.94105 0.58539
 C4005 C 0.81427 0.39662 1.12431
 C4006 C 0.79507 0.38385 1.11839
 C4007 C 0.79656 0.36017 1.12068
 C4008 C 0.81623 0.35001 1.12903
 C4009 C 0.83476 0.36301 1.13544
 C4010 C 0.83366 0.38633 1.13272
 C4011 C 0.77830 0.34670 1.11499
 C4012 C 0.75836 0.35610 1.10732
 C4013 C 0.75575 0.37958 1.10507
 C4014 C 0.77446 0.39370 1.11053
 C4015 C 0.77188 0.41716 1.10813
 C4016 C 0.75181 0.42658 1.10073
 C4017 C 0.73342 0.41311 1.09543
 C4018 C 0.73504 0.38942 1.09753
 C4019 C 0.71576 0.37661 1.09202
 C4020 C 0.69607 0.38687 1.08443
 C4021 C 0.69470 0.41022 1.08209
 C4022 C 0.71340 0.42328 1.08787
 H4023 H 0.81490 0.41463 1.12292
 H4024 H 0.81687 0.33195 1.13124
 H4025 H 0.84788 0.39669 1.13736
 H4026 H 0.77939 0.32859 1.11660
 H4027 H 0.74524 0.34433 1.10335
 H4028 H 0.78510 0.42890 1.11187
 H4029 H 0.75069 0.44468 1.09915
 H4030 H 0.71520 0.35860 1.09334
 H4031 H 0.68171 0.37642 1.08046
 H4032 H 0.71252 0.44137 1.08601
 C4033 C 0.68974 1.10278 1.13043
 C4034 C 0.70879 1.11545 1.12392
 C4035 C 0.70710 1.13919 1.12518
 C4036 C 0.68721 1.14955 1.13249
 C4037 C 0.66860 1.13674 1.13882
 C4038 C 0.67006 1.11331 1.13775
 C4039 C 0.72527 1.15257 1.11921
 C4040 C 0.74527 1.14304 1.11200
 C4041 C 0.74796 1.11952 1.11037
 C4042 C 0.72937 1.10547 1.11628
 C4043 C 0.73196 1.08197 1.11421
 C4044 C 0.75187 1.07247 1.10656
 C4045 C 0.77012 1.08588 1.10079
 C4046 C 0.76856 1.10958 1.10279
 C4047 C 0.78775 1.12234 1.09702
 C4048 C 0.80722 1.11202 1.08905
 C4049 C 0.80845 1.08867 1.08657
 C4050 C 0.78990 1.07566 1.09279
 H4051 H 0.68942 1.08471 1.13019
 H4052 H 0.68625 1.16770 1.13360
 H4053 H 0.65582 1.10312 1.14257
 H4054 H 0.72404 1.17072 1.12012
 H4055 H 0.75827 1.15475 1.10763
 H4056 H 0.71879 1.07030 1.11819
 H4057 H 0.75296 1.05435 1.10510
 H4058 H 0.78843 1.14034 1.09846
 H4059 H 0.82151 1.12244 1.08488
 H4060 H 0.79068 1.05756 1.09091
 C4061 C 0.69104 0.62852 0.60190
 C4062 C 0.70910 0.61996 0.61506
 C4063 C 0.70691 0.62060 0.63907
 C4064 C 0.68751 0.62942 0.64922
 C4065 C 0.67003 0.63801 0.63590
 C4066 C 0.67191 0.63740 0.61223
 C4067 C 0.72417 0.61268 0.65292
 C4068 C 0.74390 0.60449 0.64360
 C4069 C 0.74719 0.60379 0.61984
 C4070 C 0.72930 0.61116 0.60531
 C4071 C 0.73222 0.60945 0.58155
 C4072 C 0.75198 0.60123 0.57224
 C4073 C 0.76976 0.59456 0.58613
 C4074 C 0.76773 0.59582 0.61012
 C4075 C 0.78652 0.58924 0.62336
 C4076 C 0.80614 0.58144 0.61317
 C4077 C 0.80788 0.57990 0.58950
 C4078 C 0.78962 0.58662 0.57606
 H4079 H 0.69121 0.62896 0.58361
 H4080 H 0.68619 0.63015 0.66758
 H4081 H 0.65850 0.64400 0.60169
 H4082 H 0.72249 0.61297 0.67127
 H4083 H 0.75622 0.59866 0.65564
 H4084 H 0.71942 0.61417 0.56951
 H4085 H 0.75339 0.60022 0.55390
 H4086 H 0.78683 0.59016 0.64163
 H4087 H 0.82019 0.57687 0.62395
 H4088 H 0.79077 0.58541 0.55771
 C4089 C 0.19102 1.10745 0.62965
 C4090 C 0.21085 1.11957 0.62469
 C4091 C 0.21014 1.14327 0.62725
 C4092 C 0.19059 1.15406 0.63495
 C4093 C 0.17141 1.14169 0.64043
 C4094 C 0.17176 1.11837 0.63743
 C4095 C 0.22902 1.15612 0.62244
 C4096 C 0.24880 1.14608 0.61530
 C4097 C 0.25062 1.12255 0.61273
 C4098 C 0.23132 1.10906 0.61747
 C4099 C 0.23318 1.08552 0.61499
 C4100 C 0.25305 1.07548 0.60798
 C4101 C 0.27193 1.08835 0.60315
 C4102 C 0.27108 1.11207 0.60552
 C4103 C 0.29082 1.12428 0.60045
 C4104 C 0.31015 1.11344 0.59285
 C4105 C 0.31071 1.09010 0.59013
 C4106 C 0.29164 1.07759 0.59567
 H4107 H 0.18978 1.08950 0.62793
 H4108 H 0.19050 1.17211 0.63740
 H4109 H 0.15702 1.10851 0.64136
 H4110 H 0.22854 1.17424 0.62430
 H4111 H 0.26245 1.15741 0.61200
 H4112 H 0.21953 1.07421 0.61836
 H4113 H 0.25359 1.05736 0.60625
 H4114 H 0.29197 1.14224 0.60197
 H4115 H 0.32483 1.12345 0.58902
 H4116 H 0.29193 1.05950 0.59352
 C4117 C 0.20948 0.62908 1.15222
 C4118 C 0.21491 0.62438 1.12927
 C4119 C 0.19851 0.62948 1.11247
 C4120 C 0.17746 0.63827 1.11866
 C4121 C 0.17221 0.64195 1.14151
 C4122 C 0.18850 0.63761 1.15812
 C4123 C 0.20303 0.62546 1.08961
 C4124 C 0.22338 0.61626 1.08290
 C4125 C 0.24019 0.61053 1.09889
 C4126 C 0.23590 0.61469 1.12248
 C4127 C 0.25263 0.60884 1.13849
 C4128 C 0.27289 0.59945 1.13182
 C4129 C 0.27743 0.59544 1.10897
 C4130 C 0.26118 0.60082 1.09212
 C4131 C 0.26676 0.59630 1.06917
 C4132 C 0.28765 0.58741 1.06334
 C4133 C 0.30370 0.58253 1.08006
 C4134 C 0.29834 0.58629 1.10289
 H4135 H 0.22090 0.62622 1.16612
 H4136 H 0.16484 0.64162 1.10578
 H4137 H 0.18483 0.64066 1.17588
 H4138 H 0.19061 0.62939 1.07670
 H4139 H 0.22532 0.61376 1.06490
 H4140 H 0.25066 0.61122 1.15651
 H4141 H 0.28522 0.59533 1.14477
 H4142 H 0.25552 0.59958 1.05520
 H4143 H 0.29132 0.58438 1.04557
 H4144 H 0.31075 0.58274 1.11593
 C4145 C 0.69061 0.86779 0.89431
 C4146 C 0.70940 0.87518 0.88166
 C4147 C 0.70847 0.87270 0.85766
 C4148 C 0.68980 0.86272 0.84709
 C4149 C 0.67180 0.85486 0.86001
 C4150 C 0.67225 0.85777 0.88360
 C4151 C 0.72633 0.87981 0.84431
 C4152 C 0.74543 0.88895 0.85415
 C4153 C 0.74754 0.89132 0.87796
 C4154 C 0.72912 0.88456 0.89195
 C4155 C 0.73115 0.88716 0.91575
 C4156 C 0.75048 0.89581 0.92561
 C4157 C 0.76865 0.90222 0.91230
 C4158 C 0.76750 0.90014 0.88828
 C4159 C 0.78651 0.90687 0.87563
 C4160 C 0.80556 0.91541 0.88639
 C4161 C 0.80649 0.91756 0.91007
 C4162 C 0.78800 0.91078 0.92295
 H4163 H 0.68959 0.86918 0.91251
 H4164 H 0.68957 0.86034 0.82882
 H4165 H 0.65836 0.85194 0.89384
 H4166 H 0.72563 0.87810 0.82596
 H4167 H 0.75832 0.89392 0.84244
 H4168 H 0.71807 0.88259 0.92741
 H4169 H 0.75124 0.89741 0.94397
 H4170 H 0.78739 0.90572 0.85740
 H4171 H 0.81980 0.92018 0.87607
 H4172 H 0.78855 0.91250 0.94130
 C4173 C 0.69374 0.36394 0.39620
 C4174 C 0.71278 0.37133 0.38394
 C4175 C 0.71155 0.37075 0.35983
 C4176 C 0.69215 0.36303 0.34874
 C4177 C 0.67374 0.35546 0.36119
 C4178 C 0.67465 0.35609 0.38493
 C4179 C 0.72977 0.37756 0.34684
 C4180 C 0.74948 0.38468 0.35713
 C4181 C 0.75179 0.38536 0.38103
 C4182 C 0.73300 0.37898 0.39468
 C4183 C 0.73505 0.38055 0.41857
 C4184 C 0.75467 0.38808 0.42882
 C4185 C 0.77318 0.39411 0.41580
 C4186 C 0.77217 0.39256 0.39173
 C4187 C 0.79167 0.39833 0.37939
 C4188 C 0.81079 0.40628 0.39041
 C4189 C 0.81134 0.40863 0.41408
 C4190 C 0.79266 0.40203 0.42675
 H4191 H 0.69310 0.36361 0.41447
 H4192 H 0.69156 0.36222 0.33033
 H4193 H 0.66052 0.35021 0.39479
 H4194 H 0.72885 0.37728 0.32843
 H4195 H 0.76255 0.38980 0.34569
 H4196 H 0.72163 0.37635 0.42999
 H4197 H 0.75534 0.38921 0.44721
 H4198 H 0.79284 0.39692 0.36119
 H4199 H 0.82528 0.41075 0.38031
 H4200 H 0.79303 0.40374 0.44511
 C4201 C 0.18637 0.90083 0.37327
 C4202 C 0.20560 0.88827 0.37973
 C4203 C 0.20398 0.86451 0.37887
 C4204 C 0.18405 0.85403 0.37178
 C4205 C 0.16533 0.86674 0.36529
 C4206 C 0.16668 0.89018 0.36615
 C4207 C 0.22229 0.85124 0.38493
 C4208 C 0.24235 0.86090 0.39182
 C4209 C 0.24500 0.88444 0.39296
 C4210 C 0.22629 0.89838 0.38690
 C4211 C 0.22891 0.92193 0.38828
 C4212 C 0.24895 0.93156 0.39546
 C4213 C 0.26728 0.91826 0.40147
 C4214 C 0.26569 0.89451 0.40015
 C4215 C 0.28493 0.88184 0.40622
 C4216 C 0.30446 0.89229 0.41387
 C4217 C 0.30572 0.91569 0.41569
 C4218 C 0.28717 0.92862 0.40908
 H4219 H 0.18593 0.91890 0.37336
 H4220 H 0.18320 0.83587 0.37084
 H4221 H 0.15235 0.90031 0.36124
 H4222 H 0.22112 0.83308 0.38433
 H4223 H 0.25547 0.84925 0.39625
 H4224 H 0.21569 0.93354 0.38405
 H4225 H 0.25005 0.94971 0.39638
 H4226 H 0.28557 0.86380 0.40536
 H4227 H 0.31875 0.88193 0.41841
 H4228 H 0.28800 0.94676 0.41045
 C4229 C 0.20927 0.34342 0.87388
 C4230 C 0.21341 0.36641 0.87849
 C4231 C 0.19641 0.38204 0.87247
 C4232 C 0.17621 0.37477 0.86251
 C4233 C 0.17244 0.35195 0.85819
 C4234 C 0.18917 0.33642 0.86393
 C4235 C 0.19960 0.40489 0.87637
 C4236 C 0.21941 0.41277 0.88592
 C4237 C 0.23697 0.39801 0.89214
 C4238 C 0.23380 0.37441 0.88864
 C4239 C 0.25110 0.35960 0.89543
 C4240 C 0.27097 0.36747 0.90485
 C4241 C 0.27454 0.39038 0.90790
 C4242 C 0.25764 0.40605 0.90168
 C4243 C 0.26234 0.42914 0.90508
 C4244 C 0.28294 0.43619 0.91393
 C4245 C 0.29957 0.42060 0.91981
 C4246 C 0.29514 0.39769 0.91693
 H4247 H 0.22123 0.33033 0.87753
 H4248 H 0.16326 0.38686 0.85819
 H4249 H 0.18676 0.31872 0.86048
 H4250 H 0.18664 0.41690 0.87186
 H4251 H 0.22034 0.43067 0.88826
 H4252 H 0.24988 0.34165 0.89378
 H4253 H 0.28378 0.35542 0.90967
 H4254 H 0.25063 0.44229 0.90090
 H4255 H 0.28586 0.45400 0.91621
 H4256 H 0.30802 0.38549 0.92116
   
