data_POSCAR
  _audit_creation_date              2014-09-24
  _audit_creation_method            'ToBaCCo'
  _symmetry_space_group_name_H-M    'P1'
  _symmetry_Int_Tables_number       1
  _symmetry_cell_setting            triclinic
  loop_
  _symmetry_equiv_pos_as_xyz
 x,y,z
_cell_length_a 107.6025
_cell_length_b 107.3574
_cell_length_c 108.2833
_cell_angle_alpha 89.985200
_cell_angle_beta 89.971200
_cell_angle_gamma 89.998500
loop_
  _atom_site_label
  _atom_site_type_symbol
  _atom_site_fract_x
  _atom_site_fract_y
  _atom_site_fract_z
N1 N 0.35271 0.31813 0.32717
 N2 N 0.35235 0.32658 0.31840
 C3 C 0.36229 0.32508 0.31098
 C4 C 0.36925 0.31513 0.31531
 C5 C 0.36283 0.31095 0.32560
 H6 H 0.36434 0.33085 0.30306
 H7 H 0.36548 0.30345 0.33171
 Cu8 Cu 0.33922 0.33904 0.31769
 Cu9 Cu 0.34042 0.31741 0.34029
 Cu10 Cu 0.31774 0.34022 0.34045
 N11 N 0.32677 0.35216 0.31850
 N12 N 0.31845 0.35260 0.32737
 C13 C 0.31133 0.36280 0.32585
 C14 C 0.31541 0.36915 0.31547
 C15 C 0.32523 0.36208 0.31105
 H16 H 0.30379 0.36540 0.33192
 H17 H 0.33104 0.36415 0.30316
 N18 N 0.31857 0.32688 0.35291
 N19 N 0.32723 0.31820 0.35284
 C20 C 0.32565 0.31076 0.36273
 C21 C 0.31550 0.31496 0.36941
 C22 C 0.31123 0.32519 0.36286
 H23 H 0.33153 0.30293 0.36495
 H24 H 0.30355 0.33118 0.36532
 H25 H 0.32609 0.32594 0.33075
 H26 H 0.33657 0.33635 0.33989
 N27 N 0.35417 0.81911 -0.17303
 N28 N 0.35459 0.82877 -0.18046
 C29 C 0.36488 0.82803 -0.18748
 C30 C 0.37129 0.81723 -0.18441
 C31 C 0.36408 0.81176 -0.17522
 H32 H 0.36741 0.83479 -0.19443
 H33 H 0.36612 0.80335 -0.17013
 Cu34 Cu 0.34169 0.84142 -0.18030
 Cu35 Cu 0.34147 0.81751 -0.16025
 Cu36 Cu 0.31862 0.84036 -0.15948
 N37 N 0.32850 0.85380 -0.18020
 N38 N 0.31956 0.85340 -0.17197
 C39 C 0.31192 0.86316 -0.17369
 C40 C 0.31626 0.87014 -0.18362
 C41 C 0.32682 0.86380 -0.18752
 H42 H 0.30382 0.86497 -0.16808
 H43 H 0.33297 0.86633 -0.19499
 N44 N 0.31925 0.82641 -0.14765
 N45 N 0.32788 0.81768 -0.14797
 C46 C 0.32618 0.80994 -0.13831
 C47 C 0.31600 0.81398 -0.13157
 C48 C 0.31183 0.82443 -0.13783
 H49 H 0.33209 0.80209 -0.13620
 H50 H 0.30424 0.83043 -0.13516
 H51 H 0.32779 0.82698 -0.16974
 H52 H 0.33743 0.83627 -0.15878
 N53 N 0.85238 0.31878 -0.17266
 N54 N 0.85214 0.32753 -0.18114
 C55 C 0.86197 0.32605 -0.18872
 C56 C 0.86875 0.31579 -0.18478
 C57 C 0.86231 0.31142 -0.17457
 H58 H 0.86409 0.33206 -0.19644
 H59 H 0.86482 0.30368 -0.16871
 Cu60 Cu 0.83922 0.34024 -0.18087
 Cu61 Cu 0.84022 0.31784 -0.15933
 Cu62 Cu 0.81744 0.34074 -0.15880
 N63 N 0.82657 0.35320 -0.18054
 N64 N 0.81810 0.35328 -0.17180
 C65 C 0.81075 0.36330 -0.17324
 C66 C 0.81480 0.37001 -0.18345
 C67 C 0.82488 0.36321 -0.18787
 H68 H 0.80314 0.36553 -0.16713
 H69 H 0.83073 0.36547 -0.19566
 N70 N 0.81840 0.32726 -0.14648
 N71 N 0.82709 0.31858 -0.14664
 C72 C 0.82552 0.31108 -0.13679
 C73 C 0.81537 0.31522 -0.13008
 C74 C 0.81108 0.32548 -0.13655
 H75 H 0.83140 0.30322 -0.13462
 H76 H 0.80340 0.33144 -0.13403
 H77 H 0.82596 0.32662 -0.16859
 H78 H 0.83620 0.33663 -0.15888
 N79 N 0.85280 0.81828 0.32732
 N80 N 0.85271 0.82706 0.31886
 C81 C 0.86264 0.82557 0.31140
 C82 C 0.86930 0.81526 0.31539
 C83 C 0.86273 0.81088 0.32551
 H84 H 0.86490 0.83159 0.30373
 H85 H 0.86515 0.80309 0.33135
 Cu86 Cu 0.83983 0.83979 0.31894
 Cu87 Cu 0.84051 0.81746 0.34055
 Cu88 Cu 0.81784 0.84049 0.34083
 N89 N 0.82716 0.85272 0.31906
 N90 N 0.81865 0.85296 0.32775
 C91 C 0.81137 0.86301 0.32614
 C92 C 0.81549 0.86952 0.31582
 C93 C 0.82556 0.86261 0.31157
 H94 H 0.80367 0.86534 0.33212
 H95 H 0.83148 0.86472 0.30379
 N96 N 0.81863 0.82704 0.35324
 N97 N 0.82726 0.81830 0.35314
 C98 C 0.82560 0.81083 0.36300
 C99 C 0.81543 0.81505 0.36965
 C100 C 0.81124 0.82533 0.36314
 H101 H 0.83142 0.80295 0.36523
 H102 H 0.80358 0.83134 0.36561
 H103 H 0.82637 0.82633 0.33118
 H104 H 0.83657 0.83629 0.34095
 N105 N 0.64684 0.68165 0.32768
 N106 N 0.64695 0.67274 0.31936
 C107 C 0.63706 0.67416 0.31185
 C108 C 0.63036 0.68451 0.31568
 C109 C 0.63692 0.68902 0.32576
 H110 H 0.63479 0.66797 0.30433
 H111 H 0.63463 0.69701 0.33137
 Cu112 Cu 0.65976 0.65993 0.31957
 Cu113 Cu 0.65925 0.68279 0.34077
 Cu114 Cu 0.68224 0.66014 0.34101
 N115 N 0.67272 0.64725 0.31975
 N116 N 0.68151 0.64749 0.32816
 C117 C 0.68899 0.63759 0.32663
 C118 C 0.68469 0.63065 0.31672
 C119 C 0.67434 0.63713 0.31255
 H120 H 0.69689 0.63554 0.33244
 H121 H 0.66826 0.63451 0.30505
 N122 N 0.68140 0.67368 0.35325
 N123 N 0.67264 0.68228 0.35323
 C124 C 0.67430 0.68979 0.36306
 C125 C 0.68459 0.68572 0.36962
 C126 C 0.68884 0.67550 0.36307
 H127 H 0.66835 0.69756 0.36535
 H128 H 0.69658 0.66957 0.36547
 H129 H 0.67323 0.67395 0.33116
 H130 H 0.66340 0.66404 0.34142
 N131 N 0.64725 0.18154 -0.17247
 N132 N 0.64737 0.17285 -0.18101
 C133 C 0.63744 0.17436 -0.18843
 C134 C 0.63071 0.18458 -0.18434
 C135 C 0.63728 0.18890 -0.17418
 H136 H 0.63517 0.16832 -0.19608
 H137 H 0.63497 0.19674 -0.16837
 Cu138 Cu 0.66023 0.16014 -0.18103
 Cu139 Cu 0.65963 0.18230 -0.15930
 Cu140 Cu 0.68212 0.15904 -0.15914
 N141 N 0.67264 0.14698 -0.18095
 N142 N 0.68112 0.14658 -0.17224
 C143 C 0.68824 0.13641 -0.17388
 C144 C 0.68403 0.13000 -0.18422
 C145 C 0.67409 0.13709 -0.18847
 H146 H 0.69589 0.13396 -0.16791
 H147 H 0.66819 0.13514 -0.19629
 N148 N 0.68148 0.17251 -0.14674
 N149 N 0.67295 0.18134 -0.14680
 C150 C 0.67475 0.18881 -0.13697
 C151 C 0.68490 0.18449 -0.13037
 C152 C 0.68893 0.17415 -0.13689
 H153 H 0.66901 0.19675 -0.13472
 H154 H 0.69653 0.16805 -0.13444
 H155 H 0.67374 0.17339 -0.16865
 H156 H 0.66341 0.16343 -0.15899
 N157 N 0.14708 0.68174 -0.17284
 N158 N 0.14752 0.67331 -0.18161
 C159 C 0.13761 0.67478 -0.18908
 C160 C 0.13056 0.68467 -0.18474
 C161 C 0.13691 0.68886 -0.17442
 H162 H 0.13555 0.66890 -0.19691
 H163 H 0.13432 0.69647 -0.16842
 Cu164 Cu 0.16065 0.66085 -0.18225
 Cu165 Cu 0.15938 0.68258 -0.15974
 Cu166 Cu 0.18216 0.65988 -0.15955
 N167 N 0.17314 0.64774 -0.18138
 N168 N 0.18148 0.64743 -0.17254
 C169 C 0.18863 0.63725 -0.17396
 C170 C 0.18457 0.63076 -0.18425
 C171 C 0.17471 0.63775 -0.18874
 H172 H 0.19619 0.63475 -0.16788
 H173 H 0.16891 0.63557 -0.19659
 N174 N 0.18132 0.67327 -0.14717
 N175 N 0.17262 0.68191 -0.14723
 C176 C 0.17421 0.68937 -0.13736
 C177 C 0.18440 0.68522 -0.13072
 C178 C 0.18869 0.67501 -0.13727
 H179 H 0.16829 0.69718 -0.13512
 H180 H 0.19640 0.66905 -0.13482
 H181 H 0.17371 0.67410 -0.16929
 H182 H 0.16330 0.66369 -0.16007
 N183 N 0.14714 0.18175 0.32713
 N184 N 0.14775 0.17346 0.31824
 C185 C 0.13790 0.17492 0.31071
 C186 C 0.13069 0.18465 0.31512
 C187 C 0.13689 0.18877 0.32556
 H188 H 0.13596 0.16910 0.30280
 H189 H 0.13414 0.19626 0.33164
 Cu190 Cu 0.16098 0.16112 0.31750
 Cu191 Cu 0.15938 0.18253 0.34029
 Cu192 Cu 0.18220 0.15985 0.34045
 N193 N 0.17338 0.14796 0.31843
 N194 N 0.18160 0.14747 0.32737
 C195 C 0.18868 0.13724 0.32592
 C196 C 0.18469 0.13092 0.31550
 C197 C 0.17495 0.13805 0.31098
 H198 H 0.19614 0.13458 0.33206
 H199 H 0.16921 0.13600 0.30305
 N200 N 0.18128 0.17317 0.35291
 N201 N 0.17257 0.18180 0.35285
 C202 C 0.17411 0.18923 0.36275
 C203 C 0.18429 0.18508 0.36941
 C204 C 0.18861 0.17489 0.36284
 H205 H 0.16819 0.19704 0.36499
 H206 H 0.19633 0.16894 0.36528
 H207 H 0.17386 0.17419 0.33080
 H208 H 0.16335 0.16364 0.33974
 N209 N 0.64738 0.31911 0.67301
 N210 N 0.64822 0.32729 0.68199
 C211 C 0.63838 0.32594 0.68957
 C212 C 0.63094 0.31640 0.68508
 C213 C 0.63701 0.31230 0.67455
 H214 H 0.63666 0.33166 0.69761
 H215 H 0.63411 0.30491 0.66842
 Cu216 Cu 0.66188 0.33918 0.68277
 Cu217 Cu 0.65948 0.31813 0.65971
 Cu218 Cu 0.68151 0.34145 0.65856
 N219 N 0.67318 0.35324 0.68090
 N220 N 0.68062 0.35415 0.67131
 C221 C 0.68710 0.36482 0.67209
 C222 C 0.68361 0.37097 0.68277
 C223 C 0.67477 0.36331 0.68817
 H224 H 0.69398 0.36782 0.66545
 H225 H 0.66971 0.36504 0.69664
 N226 N 0.68092 0.32774 0.64652
 N227 N 0.67252 0.31881 0.64697
 C228 C 0.67423 0.31111 0.63731
 C229 C 0.68419 0.31539 0.63039
 C230 C 0.68821 0.32595 0.63657
 H231 H 0.66855 0.30303 0.63540
 H232 H 0.69569 0.33207 0.63384
 H233 H 0.67428 0.32667 0.66851
 H234 H 0.66289 0.33708 0.66045
 N235 N 0.64693 0.81775 1.17259
 N236 N 0.64708 0.82637 1.18120
 C237 C 0.63723 0.82472 1.18871
 C238 C 0.63052 0.81452 1.18458
 C239 C 0.63700 0.81032 1.17433
 H240 H 0.63486 0.83077 1.19633
 H241 H 0.63460 0.80257 1.16844
 Cu242 Cu 0.65966 0.83935 1.18109
 Cu243 Cu 0.65904 0.81736 1.15916
 Cu244 Cu 0.68093 0.84118 1.15859
 N245 N 0.67196 0.85261 1.18093
 N246 N 0.68027 0.85325 1.17206
 C247 C 0.68745 0.86336 1.17384
 C248 C 0.68338 0.86947 1.18437
 C249 C 0.67351 0.86235 1.18861
 H250 H 0.69491 0.86616 1.16776
 H251 H 0.66784 0.86416 1.19665
 N252 N 0.68004 0.82802 1.14589
 N253 N 0.67201 0.81873 1.14633
 C254 C 0.67372 0.81138 1.13639
 C255 C 0.68315 0.81638 1.12926
 C256 C 0.68695 0.82691 1.13556
 H257 H 0.66821 0.80326 1.13420
 H258 H 0.69419 0.83331 1.13278
 H259 H 0.67317 0.82656 1.16823
 H260 H 0.66232 0.83633 1.15895
 N261 N 0.14701 0.31839 1.17234
 N262 N 0.14715 0.32716 1.18079
 C263 C 0.13727 0.32569 1.18828
 C264 C 0.13052 0.31546 1.18429
 C265 C 0.13704 0.31105 1.17415
 H266 H 0.13498 0.33180 1.19588
 H267 H 0.13468 0.30317 1.16841
 Cu268 Cu 0.15994 0.33996 1.18071
 Cu269 Cu 0.15939 0.31744 1.15923
 Cu270 Cu 0.18234 0.34017 1.15914
 N271 N 0.17282 0.35266 1.18064
 N272 N 0.18155 0.35267 1.17216
 C273 C 0.18896 0.36261 1.17387
 C274 C 0.18465 0.36926 1.18398
 C275 C 0.17439 0.36261 1.18805
 H276 H 0.19682 0.36488 1.16808
 H277 H 0.16833 0.36501 1.19564
 N278 N 0.18148 0.32673 1.14675
 N279 N 0.17273 0.31812 1.14676
 C280 C 0.17431 0.31070 1.13686
 C281 C 0.18454 0.31481 1.13027
 C282 C 0.18887 0.32498 1.13686
 H283 H 0.16835 0.30294 1.13456
 H284 H 0.19659 0.33092 1.13441
 H285 H 0.17345 0.32622 1.16886
 H286 H 0.16354 0.33624 1.15879
 N287 N 0.14695 0.81845 0.67264
 N288 N 0.14754 0.82686 0.68142
 C289 C 0.13769 0.82548 0.68897
 C290 C 0.13051 0.81566 0.68469
 C291 C 0.13674 0.81142 0.67430
 H292 H 0.13572 0.83140 0.69680
 H293 H 0.13401 0.80385 0.66831
 Cu294 Cu 0.16073 0.83924 0.68195
 Cu295 Cu 0.15911 0.81763 0.65940
 Cu296 Cu 0.18192 0.84034 0.65891
 N297 N 0.17322 0.85231 0.68096
 N298 N 0.18143 0.85275 0.67200
 C299 C 0.18861 0.86292 0.67347
 C300 C 0.18466 0.86925 0.68392
 C301 C 0.17486 0.86220 0.68842
 H302 H 0.19609 0.86552 0.66734
 H303 H 0.16914 0.86425 0.69636
 N304 N 0.18085 0.82696 0.64648
 N305 N 0.17217 0.81830 0.64672
 C306 C 0.17357 0.81082 0.63684
 C307 C 0.18360 0.81497 0.62996
 C308 C 0.18801 0.82522 0.63641
 H309 H 0.16760 0.80302 0.63475
 H310 H 0.19566 0.83118 0.63380
 H311 H 0.17365 0.82611 0.66871
 H312 H 0.16309 0.83656 0.65971
 N313 N 0.35367 0.68059 0.67194
 N314 N 0.35252 0.67256 0.68102
 C315 C 0.36223 0.67384 0.68875
 C316 C 0.36990 0.68321 0.68431
 C317 C 0.36411 0.68728 0.67360
 H318 H 0.36362 0.66832 0.69698
 H319 H 0.36736 0.69441 0.66734
 Cu320 Cu 0.33869 0.66092 0.68185
 Cu321 Cu 0.34172 0.68157 0.65852
 Cu322 Cu 0.31780 0.66007 0.65855
 N323 N 0.32604 0.64804 0.68074
 N324 N 0.31787 0.64779 0.67174
 C325 C 0.31058 0.63770 0.67308
 C326 C 0.31439 0.63120 0.68348
 C327 C 0.32423 0.63810 0.68811
 H328 H 0.30318 0.63520 0.66681
 H329 H 0.32991 0.63589 0.69604
 N330 N 0.31939 0.67318 0.64593
 N331 N 0.32872 0.68114 0.64574
 C332 C 0.32776 0.68832 0.63559
 C333 C 0.31728 0.68475 0.62909
 C334 C 0.31216 0.67517 0.63596
 H335 H 0.33420 0.69562 0.63308
 H336 H 0.30401 0.66977 0.63362
 H337 H 0.32668 0.67425 0.66797
 H338 H 0.33680 0.66291 0.65952
 N339 N 0.35299 0.18175 1.17249
 N340 N 0.35275 0.17316 1.18112
 C341 C 0.36280 0.17450 1.18840
 C342 C 0.36975 0.18448 1.18410
 C343 C 0.36319 0.18885 1.17397
 H344 H 0.36480 0.16871 1.19631
 H345 H 0.36562 0.19659 1.16805
 Cu346 Cu 0.33932 0.16107 1.18222
 Cu347 Cu 0.33978 0.18338 1.16037
 Cu348 Cu 0.32000 0.15817 1.15788
 N349 N 0.32694 0.14789 1.18131
 N350 N 0.31935 0.14686 1.17187
 C351 C 0.31222 0.13669 1.17339
 C352 C 0.31556 0.13094 1.18435
 C353 C 0.32494 0.13835 1.18913
 H354 H 0.30541 0.13349 1.16677
 H355 H 0.33006 0.13682 1.19758
 N356 N 0.32008 0.17200 1.14594
 N357 N 0.32773 0.18155 1.14684
 C358 C 0.32578 0.18929 1.13726
 C359 C 0.31636 0.18444 1.12998
 C360 C 0.31296 0.17348 1.13583
 H361 H 0.33083 0.19785 1.13575
 H362 H 0.30591 0.16696 1.13288
 H363 H 0.32561 0.17284 1.16848
 H364 H 0.33827 0.16449 1.16002
 N365 N 0.85338 0.68020 1.17189
 N366 N 0.85217 0.67243 1.18118
 C367 C 0.86181 0.67396 1.18897
 C368 C 0.86947 0.68325 1.18432
 C369 C 0.86378 0.68698 1.17346
 H370 H 0.86311 0.66871 1.19739
 H371 H 0.86702 0.69398 1.16706
 Cu372 Cu 0.83816 0.66098 1.18220
 Cu373 Cu 0.84152 0.68096 1.15836
 Cu374 Cu 0.81832 0.65874 1.15815
 N375 N 0.82649 0.64719 1.18067
 N376 N 0.81887 0.64637 1.17124
 C377 C 0.81223 0.63581 1.17218
 C378 C 0.81584 0.62963 1.18279
 C379 C 0.82489 0.63716 1.18801
 H380 H 0.80527 0.63285 1.16561
 H381 H 0.83015 0.63532 1.19632
 N382 N 0.81948 0.67202 1.14567
 N383 N 0.82860 0.68022 1.14552
 C384 C 0.82747 0.68738 1.13536
 C385 C 0.81710 0.68354 1.12886
 C386 C 0.81221 0.67383 1.13570
 H387 H 0.83375 0.69481 1.13284
 H388 H 0.80422 0.66821 1.13332
 H389 H 0.82635 0.67354 1.16748
 H390 H 0.83715 0.66225 1.15981
 N391 N 0.85293 0.18113 0.67221
 N392 N 0.85330 0.17208 0.68036
 C393 C 0.86332 0.17365 0.68765
 C394 C 0.86958 0.18427 0.68386
 C395 C 0.86266 0.18877 0.67404
 H396 H 0.86589 0.16750 0.69512
 H397 H 0.86473 0.19681 0.66838
 Cu398 Cu 0.84087 0.15894 0.68028
 Cu399 Cu 0.84027 0.18195 0.65937
 Cu400 Cu 0.81779 0.15874 0.65938
 N401 N 0.82831 0.14594 0.68023
 N402 N 0.81911 0.14605 0.67224
 C403 C 0.81187 0.13600 0.67418
 C404 C 0.81687 0.12917 0.68383
 C405 C 0.82729 0.13578 0.68744
 H406 H 0.80379 0.13363 0.66873
 H407 H 0.83363 0.13336 0.69480
 N408 N 0.81817 0.17238 0.64713
 N409 N 0.82675 0.18116 0.64714
 C410 C 0.82497 0.18864 0.63732
 C411 C 0.81480 0.18439 0.63074
 C412 C 0.81069 0.17408 0.63729
 H413 H 0.83079 0.19651 0.63503
 H414 H 0.80309 0.16800 0.63482
 H415 H 0.82666 0.17260 0.66915
 H416 H 0.83647 0.16305 0.65857
 N417 N 0.31827 0.35263 0.67218
 N418 N 0.32650 0.35211 0.68112
 C419 C 0.32495 0.36203 0.68858
 C420 C 0.31523 0.36918 0.68407
 C421 C 0.31121 0.36287 0.67364
 H422 H 0.33070 0.36405 0.69651
 H423 H 0.30375 0.36554 0.66751
 Cu424 Cu 0.33885 0.33890 0.68205
 Cu425 Cu 0.31760 0.34026 0.65911
 Cu426 Cu 0.34036 0.31754 0.65921
 N427 N 0.35209 0.32658 0.68122
 N428 N 0.35263 0.31828 0.67234
 C429 C 0.36283 0.31120 0.67386
 C430 C 0.36911 0.31529 0.68427
 C431 C 0.36198 0.32508 0.68870
 H432 H 0.36558 0.30381 0.66768
 H433 H 0.36386 0.33078 0.69670
 N434 N 0.32716 0.31830 0.64668
 N435 N 0.31846 0.32694 0.64664
 C436 C 0.31111 0.32524 0.63673
 C437 C 0.31540 0.31505 0.63015
 C438 C 0.32559 0.31088 0.63678
 H439 H 0.30339 0.33120 0.63430
 H440 H 0.33150 0.30307 0.63452
 H441 H 0.32592 0.32588 0.66874
 H442 H 0.33645 0.33644 0.65981
 N443 N 0.31879 0.85331 0.17165
 N444 N 0.32748 0.85324 0.18017
 C445 C 0.32596 0.86322 0.18754
 C446 C 0.31577 0.86994 0.18343
 C447 C 0.31146 0.86333 0.17331
 H448 H 0.33200 0.86558 0.19516
 H449 H 0.30359 0.86564 0.16755
 Cu450 Cu 0.34028 0.84044 0.18057
 Cu451 Cu 0.31784 0.84061 0.15886
 Cu452 Cu 0.34052 0.81769 0.15914
 N453 N 0.35336 0.82795 0.18001
 N454 N 0.35314 0.81881 0.17194
 C455 C 0.36324 0.81159 0.17356
 C456 C 0.37026 0.81656 0.18304
 C457 C 0.36372 0.82695 0.18692
 H458 H 0.36556 0.80360 0.16793
 H459 H 0.36636 0.83332 0.19419
 N460 N 0.32704 0.81820 0.14687
 N461 N 0.31845 0.82697 0.14670
 C462 C 0.31106 0.82520 0.13682
 C463 C 0.31523 0.81486 0.13039
 C464 C 0.32536 0.81066 0.13708
 H465 H 0.30347 0.83126 0.13426
 H466 H 0.33123 0.80281 0.13486
 H467 H 0.32660 0.82674 0.16878
 H468 H 0.33667 0.83660 0.15867
 N469 N 0.81843 0.35312 0.17222
 N470 N 0.82710 0.35293 0.18076
 C471 C 0.82558 0.36283 0.18825
 C472 C 0.81542 0.36962 0.18419
 C473 C 0.81112 0.36313 0.17398
 H474 H 0.83162 0.36509 0.19590
 H475 H 0.80331 0.36554 0.16817
 Cu476 Cu 0.83981 0.34006 0.18080
 Cu477 Cu 0.81762 0.34068 0.15908
 Cu478 Cu 0.84048 0.31781 0.15915
 N479 N 0.85268 0.32735 0.18081
 N480 N 0.85283 0.31863 0.17230
 C481 C 0.86278 0.31126 0.17408
 C482 C 0.86930 0.31559 0.18424
 C483 C 0.86257 0.32583 0.18828
 H484 H 0.86523 0.30352 0.16818
 H485 H 0.86475 0.33180 0.19602
 N486 N 0.82720 0.31861 0.14665
 N487 N 0.81849 0.32728 0.14661
 C488 C 0.81114 0.32556 0.13668
 C489 C 0.81545 0.31536 0.13010
 C490 C 0.82562 0.31119 0.13675
 H491 H 0.80344 0.33153 0.13423
 H492 H 0.83154 0.30340 0.13448
 H493 H 0.82632 0.32657 0.16866
 H494 H 0.83639 0.33664 0.15882
 N495 N 0.81829 0.85304 0.67238
 N496 N 0.82674 0.85284 0.68113
 C497 C 0.82515 0.86286 0.68846
 C498 C 0.81515 0.86970 0.68407
 C499 C 0.81103 0.86313 0.67385
 H500 H 0.83091 0.86506 0.69634
 H501 H 0.80354 0.86567 0.66771
 Cu502 Cu 0.83929 0.83978 0.68193
 Cu503 Cu 0.81769 0.84064 0.65932
 Cu504 Cu 0.84052 0.81800 0.65949
 N505 N 0.85241 0.82728 0.68136
 N506 N 0.85275 0.81878 0.67264
 C507 C 0.86283 0.81155 0.67427
 C508 C 0.86924 0.81574 0.68455
 C509 C 0.86233 0.82576 0.68881
 H510 H 0.86546 0.80402 0.66820
 H511 H 0.86439 0.83156 0.69670
 N512 N 0.82736 0.81871 0.64690
 N513 N 0.81862 0.82732 0.64685
 C514 C 0.81130 0.82560 0.63691
 C515 C 0.81567 0.81544 0.63032
 C516 C 0.82585 0.81130 0.63698
 H517 H 0.80357 0.83153 0.63446
 H518 H 0.83180 0.80352 0.63472
 H519 H 0.82621 0.82648 0.66904
 H520 H 0.83655 0.83689 0.65976
 N521 N 0.68103 0.64618 0.67251
 N522 N 0.67200 0.64633 0.68070
 C523 C 0.67293 0.63617 0.68792
 C524 C 0.68314 0.62931 0.68414
 C525 C 0.68810 0.63599 0.67436
 H526 H 0.66665 0.63389 0.69537
 H527 H 0.69603 0.63342 0.66878
 Cu528 Cu 0.65968 0.65958 0.68107
 Cu529 Cu 0.68235 0.65872 0.65954
 Cu530 Cu 0.65992 0.68189 0.65928
 N531 N 0.64705 0.67255 0.68057
 N532 N 0.64720 0.68124 0.67203
 C533 C 0.63732 0.68876 0.67359
 C534 C 0.63054 0.68456 0.68365
 C535 C 0.63704 0.67424 0.68784
 H536 H 0.63522 0.69667 0.66778
 H537 H 0.63452 0.66823 0.69545
 N538 N 0.67349 0.68103 0.64712
 N539 N 0.68203 0.67222 0.64716
 C540 C 0.68957 0.67386 0.63734
 C541 C 0.68559 0.68423 0.63081
 C542 C 0.67539 0.68853 0.63734
 H543 H 0.69728 0.66786 0.63502
 H544 H 0.66951 0.69631 0.63491
 H545 H 0.67369 0.67283 0.66915
 H546 H 0.66361 0.66290 0.65914
 N547 N 0.68167 0.14683 0.17237
 N548 N 0.67284 0.14684 0.18075
 C549 C 0.67427 0.13684 0.18814
 C550 C 0.68458 0.13020 0.18418
 C551 C 0.68904 0.13687 0.17415
 H552 H 0.66822 0.13451 0.19576
 H553 H 0.69686 0.13449 0.16834
 Cu554 Cu 0.66010 0.15969 0.18073
 Cu555 Cu 0.68258 0.15927 0.15928
 Cu556 Cu 0.65977 0.18215 0.15925
 N557 N 0.64728 0.17245 0.18069
 N558 N 0.64727 0.18125 0.17226
 C559 C 0.63733 0.18864 0.17398
 C560 C 0.63066 0.18425 0.18404
 C561 C 0.63731 0.17395 0.18807
 H562 H 0.63511 0.19657 0.16824
 H563 H 0.63493 0.16784 0.19564
 N564 N 0.67321 0.18142 0.14688
 N565 N 0.68185 0.17269 0.14684
 C566 C 0.68925 0.17437 0.13694
 C567 C 0.68508 0.18466 0.13042
 C568 C 0.67491 0.18889 0.13704
 H569 H 0.69702 0.16846 0.13458
 H570 H 0.66894 0.19660 0.13465
 H571 H 0.67376 0.17330 0.16888
 H572 H 0.66383 0.16334 0.15882
 N573 N 0.18156 0.64724 0.17194
 N574 N 0.17331 0.64761 0.18088
 C575 C 0.17492 0.63762 0.18823
 C576 C 0.18470 0.63059 0.18366
 C577 C 0.18869 0.63704 0.17330
 H578 H 0.16919 0.63547 0.19615
 H579 H 0.19618 0.63449 0.16715
 Cu580 Cu 0.16088 0.66074 0.18189
 Cu581 Cu 0.18217 0.65972 0.15896
 Cu582 Cu 0.15943 0.68245 0.15934
 N583 N 0.14767 0.67312 0.18126
 N584 N 0.14719 0.68159 0.17252
 C585 C 0.13702 0.68869 0.17418
 C586 C 0.13070 0.68442 0.18450
 C587 C 0.13777 0.67451 0.18875
 H588 H 0.13428 0.69620 0.16812
 H589 H 0.13582 0.66868 0.19666
 N590 N 0.17260 0.68179 0.14672
 N591 N 0.18129 0.67312 0.14660
 C592 C 0.18862 0.67488 0.13667
 C593 C 0.18435 0.68514 0.13017
 C594 C 0.17418 0.68928 0.13687
 H595 H 0.19632 0.66893 0.13420
 H596 H 0.16828 0.69712 0.13468
 H597 H 0.17382 0.67397 0.16876
 H598 H 0.16331 0.66355 0.15968
 N599 N 0.18140 0.14707 0.67251
 N600 N 0.17270 0.14709 0.68103
 C601 C 0.17428 0.13713 0.68844
 C602 C 0.18455 0.13050 0.68436
 C603 C 0.18883 0.13715 0.67423
 H604 H 0.16835 0.13484 0.69617
 H605 H 0.19657 0.13479 0.66833
 Cu606 Cu 0.15986 0.15986 0.68111
 Cu607 Cu 0.18212 0.15949 0.65940
 Cu608 Cu 0.15925 0.18228 0.65951
 N609 N 0.14711 0.17270 0.68120
 N610 N 0.14693 0.18143 0.67269
 C611 C 0.13697 0.18878 0.67449
 C612 C 0.13047 0.18442 0.68467
 C613 C 0.13723 0.17421 0.68870
 H614 H 0.13459 0.19664 0.66873
 H615 H 0.13494 0.16812 0.69632
 N616 N 0.17253 0.18152 0.64697
 N617 N 0.18123 0.17285 0.64693
 C618 C 0.18859 0.17456 0.63701
 C619 C 0.18432 0.18477 0.63044
 C620 C 0.17413 0.18894 0.63707
 H621 H 0.19629 0.16859 0.63457
 H622 H 0.16822 0.19675 0.63480
 H623 H 0.17334 0.17349 0.66908
 H624 H 0.16333 0.16346 0.65914
 N625 N 0.31834 0.64762 0.32776
 N626 N 0.32669 0.64800 0.31892
 C627 C 0.32516 0.63802 0.31152
 C628 C 0.31528 0.63100 0.31598
 C629 C 0.31121 0.63746 0.32629
 H630 H 0.33094 0.63595 0.30362
 H631 H 0.30368 0.63495 0.33241
 Cu632 Cu 0.33896 0.66131 0.31808
 Cu633 Cu 0.31760 0.65991 0.34088
 Cu634 Cu 0.34133 0.68150 0.34192
 N635 N 0.35300 0.67262 0.31972
 N636 N 0.35399 0.68026 0.32915
 C637 C 0.36470 0.68664 0.32820
 C638 C 0.37076 0.68287 0.31758
 C639 C 0.36304 0.67397 0.31238
 H640 H 0.36781 0.69362 0.33470
 H641 H 0.36472 0.66868 0.30405
 N642 N 0.32760 0.68124 0.35397
 N643 N 0.31849 0.67305 0.35348
 C644 C 0.31079 0.67493 0.36310
 C645 C 0.31527 0.68478 0.37006
 C646 C 0.32594 0.68856 0.36394
 H647 H 0.30273 0.66928 0.36510
 H648 H 0.33214 0.69600 0.36662
 H649 H 0.32664 0.67439 0.33191
 H650 H 0.33663 0.66292 0.34037
 N651 N 0.31854 0.14718 0.82755
 N652 N 0.32730 0.14710 0.81910
 C653 C 0.32569 0.13712 0.81174
 C654 C 0.31538 0.13054 0.81583
 C655 C 0.31108 0.13727 0.82588
 H656 H 0.33176 0.13465 0.80417
 H657 H 0.30319 0.13509 0.83166
 Cu658 Cu 0.34021 0.15982 0.81901
 Cu659 Cu 0.31776 0.15971 0.84054
 Cu660 Cu 0.34066 0.18246 0.84036
 N661 N 0.35302 0.17262 0.81891
 N662 N 0.35303 0.18151 0.82725
 C663 C 0.36292 0.18895 0.82538
 C664 C 0.36954 0.18449 0.81534
 C665 C 0.36296 0.17410 0.81146
 H666 H 0.36529 0.19681 0.83114
 H667 H 0.36526 0.16803 0.80383
 N668 N 0.32733 0.18180 0.85286
 N669 N 0.31860 0.17317 0.85289
 C670 C 0.31121 0.17492 0.86278
 C671 C 0.31550 0.18512 0.86934
 C672 C 0.32573 0.18925 0.86273
 H673 H 0.30350 0.16897 0.86523
 H674 H 0.33167 0.19703 0.86502
 H675 H 0.32666 0.17360 0.83076
 H676 H 0.33656 0.16367 0.84090
 N677 N 0.81895 0.64694 0.82779
 N678 N 0.82772 0.64719 0.81934
 C679 C 0.82634 0.63729 0.81182
 C680 C 0.81615 0.63045 0.81576
 C681 C 0.81170 0.63691 0.82593
 H682 H 0.83247 0.63509 0.80422
 H683 H 0.80382 0.63448 0.83163
 Cu684 Cu 0.84031 0.66019 0.81945
 Cu685 Cu 0.81783 0.65937 0.84089
 Cu686 Cu 0.84036 0.68253 0.84106
 N687 N 0.85297 0.67311 0.81957
 N688 N 0.85289 0.68185 0.82806
 C689 C 0.86278 0.68933 0.82641
 C690 C 0.86950 0.68506 0.81633
 C691 C 0.86294 0.67475 0.81222
 H692 H 0.86497 0.69721 0.83223
 H693 H 0.86542 0.66868 0.80465
 N694 N 0.82692 0.68157 0.85342
 N695 N 0.81835 0.67277 0.85336
 C696 C 0.81084 0.67438 0.86319
 C697 C 0.81487 0.68465 0.86981
 C698 C 0.82508 0.68898 0.86329
 H699 H 0.80319 0.66830 0.86554
 H700 H 0.83084 0.69687 0.86562
 H701 H 0.82649 0.67356 0.83137
 H702 H 0.83654 0.66366 0.84138
 N703 N 0.81854 0.14705 0.32772
 N704 N 0.82722 0.14708 0.31919
 C705 C 0.82564 0.13711 0.31181
 C706 C 0.81544 0.13042 0.31598
 C707 C 0.81117 0.13707 0.32609
 H708 H 0.83166 0.13470 0.30419
 H709 H 0.80335 0.13477 0.33193
 Cu710 Cu 0.84005 0.15986 0.31905
 Cu711 Cu 0.81774 0.15957 0.34073
 Cu712 Cu 0.84044 0.18249 0.34040
 N713 N 0.85277 0.17275 0.31890
 N714 N 0.85276 0.18162 0.32725
 C715 C 0.86263 0.18908 0.32539
 C716 C 0.86927 0.18465 0.31536
 C717 C 0.86270 0.17425 0.31146
 H718 H 0.86500 0.19692 0.33119
 H719 H 0.86504 0.16818 0.30384
 N720 N 0.82720 0.18175 0.35295
 N721 N 0.81855 0.17304 0.35308
 C722 C 0.81121 0.17477 0.36302
 C723 C 0.81546 0.18504 0.36951
 C724 C 0.82559 0.18923 0.36280
 H725 H 0.80356 0.16877 0.36554
 H726 H 0.83147 0.19708 0.36500
 H727 H 0.82646 0.17351 0.33088
 H728 H 0.83650 0.16366 0.34097
 N729 N 0.68154 0.35282 0.32739
 N730 N 0.67328 0.35232 0.31849
 C731 C 0.67485 0.36219 0.31098
 C732 C 0.68462 0.36930 0.31541
 C733 C 0.68865 0.36303 0.32586
 H734 H 0.66910 0.36418 0.30304
 H735 H 0.69615 0.36568 0.33194
 Cu736 Cu 0.66087 0.33916 0.31767
 Cu737 Cu 0.68222 0.34046 0.34050
 Cu738 Cu 0.65948 0.31768 0.34041
 N739 N 0.64773 0.32674 0.31841
 N740 N 0.64720 0.31841 0.32728
 C741 C 0.63698 0.31135 0.32573
 C742 C 0.63072 0.31547 0.31532
 C743 C 0.63787 0.32526 0.31092
 H744 H 0.63429 0.30383 0.33180
 H745 H 0.63587 0.33109 0.30303
 N746 N 0.67269 0.31847 0.35295
 N747 N 0.68137 0.32714 0.35299
 C748 C 0.68875 0.32542 0.36288
 C749 C 0.68451 0.31519 0.36945
 C750 C 0.67431 0.31101 0.36282
 H751 H 0.69647 0.33138 0.36530
 H752 H 0.66844 0.30317 0.36506
 H753 H 0.67388 0.32610 0.33087
 H754 H 0.66338 0.33658 0.33990
 N755 N 0.68135 0.85275 0.82791
 N756 N 0.67294 0.85240 0.81913
 C757 C 0.67450 0.86236 0.81170
 C758 C 0.68442 0.86933 0.81608
 C759 C 0.68853 0.86289 0.82638
 H760 H 0.66867 0.86451 0.80387
 H761 H 0.69615 0.86539 0.83238
 Cu762 Cu 0.66042 0.83929 0.81844
 Cu763 Cu 0.68215 0.84031 0.84093
 Cu764 Cu 0.65949 0.81751 0.84091
 N765 N 0.64734 0.82673 0.81914
 N766 N 0.64709 0.81827 0.82789
 C767 C 0.63697 0.81106 0.82642
 C768 C 0.63043 0.81522 0.81621
 C769 C 0.63734 0.82519 0.81180
 H770 H 0.63455 0.80342 0.83245
 H771 H 0.63512 0.83108 0.80401
 N772 N 0.67279 0.81825 0.85335
 N773 N 0.68145 0.82694 0.85336
 C774 C 0.68888 0.82524 0.86322
 C775 C 0.68469 0.81499 0.86979
 C776 C 0.67448 0.81079 0.86321
 H777 H 0.69658 0.83122 0.86562
 H778 H 0.66863 0.80295 0.86548
 H779 H 0.67369 0.82609 0.83125
 H780 H 0.66332 0.83642 0.84059
 N781 N 0.18128 0.35265 0.82752
 N782 N 0.17262 0.35261 0.81899
 C783 C 0.17420 0.36257 0.81159
 C784 C 0.18442 0.36925 0.81571
 C785 C 0.18868 0.36261 0.82584
 H786 H 0.16819 0.36494 0.80395
 H787 H 0.19652 0.36487 0.83165
 Cu788 Cu 0.15974 0.33989 0.81890
 Cu789 Cu 0.18203 0.34016 0.84057
 Cu790 Cu 0.15917 0.31737 0.84038
 N791 N 0.14700 0.32705 0.81878
 N792 N 0.14682 0.31829 0.82724
 C793 C 0.13685 0.31096 0.82545
 C794 C 0.13036 0.31535 0.81529
 C795 C 0.13711 0.32558 0.81128
 H796 H 0.13448 0.30307 0.83118
 H797 H 0.13482 0.33168 0.80367
 N798 N 0.17245 0.31806 0.85288
 N799 N 0.18115 0.32672 0.85296
 C800 C 0.18850 0.32498 0.86287
 C801 C 0.18422 0.31474 0.86940
 C802 C 0.17404 0.31059 0.86274
 H803 H 0.19619 0.33094 0.86534
 H804 H 0.16813 0.30278 0.86498
 H805 H 0.17325 0.32619 0.83082
 H806 H 0.16325 0.33617 0.84083
 N807 N 0.18135 0.85269 0.32779
 N808 N 0.17260 0.85271 0.31933
 C809 C 0.17418 0.86269 0.31194
 C810 C 0.18446 0.86931 0.31601
 C811 C 0.18877 0.86261 0.32608
 H812 H 0.16813 0.86508 0.30434
 H813 H 0.19665 0.86481 0.33186
 Cu814 Cu 0.15976 0.83995 0.31928
 Cu815 Cu 0.18216 0.84019 0.34080
 Cu816 Cu 0.15929 0.81740 0.34078
 N817 N 0.14702 0.82709 0.31922
 N818 N 0.14687 0.81832 0.32768
 C819 C 0.13691 0.81096 0.32585
 C820 C 0.13042 0.81535 0.31568
 C821 C 0.13717 0.82560 0.31170
 H822 H 0.13454 0.80307 0.33158
 H823 H 0.13489 0.83171 0.30411
 N824 N 0.17268 0.81812 0.35323
 N825 N 0.18138 0.82677 0.35319
 C826 C 0.18887 0.82503 0.36300
 C827 C 0.18469 0.81479 0.36959
 C828 C 0.17440 0.81065 0.36307
 H829 H 0.19661 0.83098 0.36535
 H830 H 0.16854 0.80282 0.36538
 H831 H 0.17330 0.82621 0.33112
 H832 H 0.16338 0.83620 0.34120
 C833 C 0.24711 1.03339 0.24653
 C834 C 0.25572 1.02696 0.23937
 C835 C 0.25686 1.01402 0.24059
 C836 C 0.24947 1.00725 0.24915
 C837 C 0.24129 1.01426 0.25679
 C838 C 0.23998 1.02717 0.25533
 C839 C 0.25025 0.99315 0.25010
 C840 C 0.24211 0.98632 0.25791
 C841 C 0.24293 0.97333 0.25885
 C842 C 0.25173 0.96686 0.25196
 C843 C 0.25965 0.97317 0.24394
 C844 C 0.25896 0.98619 0.24302
 H845 H 0.24635 1.04343 0.24563
 H846 H 0.26354 1.00957 0.23465
 H847 H 0.23578 1.00999 0.26392
 H848 H 0.23491 0.99072 0.26325
 H849 H 0.25217 0.95679 0.25261
 H850 H 0.26540 0.99053 0.23676
 C851 C 0.24967 0.53345 0.74918
 C852 C 0.25742 0.52697 0.74115
 C853 C 0.25723 0.51392 0.74101
 C854 C 0.24988 0.50710 0.74957
 C855 C 0.24244 0.51405 0.75795
 C856 C 0.24203 0.52709 0.75742
 C857 C 0.25002 0.49298 0.74981
 C858 C 0.24128 0.48614 0.75693
 C859 C 0.24162 0.47310 0.75737
 C860 C 0.25043 0.46662 0.75050
 C861 C 0.25900 0.47299 0.74321
 C862 C 0.25890 0.48605 0.74294
 H863 H 0.24961 0.54356 0.74904
 H864 H 0.26298 0.50940 0.73421
 H865 H 0.23681 0.50965 0.76492
 H866 H 0.23399 0.49063 0.76211
 H867 H 0.25056 0.45652 0.75076
 H868 H 0.26600 0.49049 0.73748
 C869 C 0.75097 -0.03359 0.24933
 C870 C 0.75897 -0.02711 0.25712
 C871 C 0.75850 -0.01408 0.25758
 C872 C 0.74970 -0.00729 0.25048
 C873 C 0.74119 -0.01427 0.24322
 C874 C 0.74209 -0.02727 0.24239
 C875 C 0.74983 0.00683 0.25018
 C876 C 0.74289 0.01357 0.24124
 C877 C 0.74379 0.02656 0.24032
 C878 C 0.75188 0.03302 0.24805
 C879 C 0.75866 0.02678 0.25709
 C880 C 0.75737 0.01384 0.25841
 H881 H 0.75148 -0.04368 0.24887
 H882 H 0.76530 -0.00955 0.26332
 H883 H 0.73391 -0.00989 0.23796
 H884 H 0.73694 0.00901 0.23465
 H885 H 0.75263 0.04307 0.24726
 H886 H 0.76249 0.00952 0.26581
 C887 C 0.75273 0.46680 0.74767
 C888 C 0.75863 0.47307 0.75728
 C889 C 0.75718 0.48597 0.75848
 C890 C 0.75048 0.49289 0.74955
 C891 C 0.74455 0.48627 0.73988
 C892 C 0.74548 0.47323 0.73906
 C893 C 0.74997 0.50689 0.75021
 C894 C 0.74033 0.51370 0.74438
 C895 C 0.74007 0.52679 0.74486
 C896 C 0.74933 0.53312 0.75139
 C897 C 0.75879 0.52664 0.75735
 C898 C 0.75926 0.51364 0.75662
 H899 H 0.75355 0.45675 0.74711
 H900 H 0.76144 0.49045 0.76634
 H901 H 0.73943 0.49110 0.73276
 H902 H 0.73283 0.50899 0.73967
 H903 H 0.74924 0.54321 0.75182
 H904 H 0.76704 0.50899 0.76092
 C905 C 0.25058 0.46664 0.24902
 C906 C 0.25918 0.47300 0.25626
 C907 C 0.25911 0.48606 0.25650
 C908 C 0.25018 0.49299 0.24971
 C909 C 0.24141 0.48617 0.24263
 C910 C 0.24175 0.47313 0.24219
 C911 C 0.24995 0.50710 0.25008
 C912 C 0.24253 0.51409 0.24172
 C913 C 0.24188 0.52712 0.24250
 C914 C 0.24928 0.53343 0.25100
 C915 C 0.25707 0.52690 0.25895
 C916 C 0.25714 0.51386 0.25880
 H917 H 0.25069 0.45654 0.24878
 H918 H 0.26624 0.49050 0.26192
 H919 H 0.23409 0.49068 0.23752
 H920 H 0.23709 0.50971 0.23459
 H921 H 0.24908 0.54353 0.25134
 H922 H 0.26290 0.50930 0.26556
 C923 C 0.75037 1.03316 0.75241
 C924 C 0.75966 1.02712 0.74568
 C925 C 0.75958 1.01405 0.74494
 C926 C 0.75000 1.00694 0.75056
 C927 C 0.74062 1.01345 0.75712
 C928 C 0.74100 1.02642 0.75822
 C929 C 0.74961 0.99294 0.74941
 C930 C 0.74238 0.98562 0.75762
 C931 C 0.74109 0.97274 0.75586
 C932 C 0.74765 0.96690 0.74638
 C933 C 0.75549 0.97370 0.73865
 C934 C 0.75627 0.98667 0.73997
 H935 H 0.75033 1.04324 0.75307
 H936 H 0.76718 1.00962 0.74014
 H937 H 0.73287 1.00866 0.76130
 H938 H 0.73760 0.98975 0.76537
 H939 H 0.74702 0.95687 0.74531
 H940 H 0.76194 0.99167 0.73340
 C941 C 0.74733 0.53355 0.24871
 C942 C 0.75457 0.52739 0.23992
 C943 C 0.75556 0.51435 0.24041
 C944 C 0.74976 0.50742 0.24997
 C945 C 0.74300 0.51408 0.25907
 C946 C 0.74145 0.52700 0.25816
 C947 C 0.75044 0.49339 0.25025
 C948 C 0.74160 0.48630 0.25696
 C949 C 0.74211 0.47326 0.25708
 C950 C 0.75121 0.46709 0.25028
 C951 C 0.75994 0.47377 0.24345
 C952 C 0.75971 0.48683 0.24356
 H953 H 0.74643 0.54361 0.24840
 H954 H 0.76061 0.50979 0.23308
 H955 H 0.73875 0.50941 0.26683
 H956 H 0.73404 0.49069 0.26187
 H957 H 0.75145 0.45699 0.25023
 H958 H 0.76688 0.49166 0.23849
 C959 C 0.24833 -0.03345 0.75189
 C960 C 0.25737 -0.02702 0.75850
 C961 C 0.25824 -0.01404 0.75752
 C962 C 0.24968 -0.00718 0.75021
 C963 C 0.24060 -0.01404 0.74355
 C964 C 0.24009 -0.02707 0.74424
 C965 C 0.25040 0.00689 0.74938
 C966 C 0.24371 0.01359 0.74025
 C967 C 0.24467 0.02658 0.73932
 C968 C 0.25269 0.03303 0.74712
 C969 C 0.25925 0.02679 0.75632
 C970 C 0.25784 0.01388 0.75770
 H971 H 0.24790 -0.04353 0.75247
 H972 H 0.26574 -0.00959 0.76241
 H973 H 0.23373 -0.00954 0.73786
 H974 H 0.23780 0.00902 0.73363
 H975 H 0.25345 0.04308 0.74634
 H976 H 0.26268 0.00955 0.76529
 C977 C 0.25114 0.25074 1.03299
 C978 C 0.24289 0.25847 1.02672
 C979 C 0.24214 0.25789 1.01381
 C980 C 0.25003 0.24989 1.00686
 C981 C 0.25832 0.24215 1.01363
 C982 C 0.25871 0.24249 1.02655
 C983 C 0.24966 0.24965 0.99283
 C984 C 0.25719 0.24128 0.98591
 C985 C 0.25683 0.24111 0.97297
 C986 C 0.24908 0.24930 0.96667
 C987 C 0.24167 0.25770 0.97310
 C988 C 0.24189 0.25788 0.98604
 H989 H 0.25156 0.25102 1.04300
 H990 H 0.23540 0.26390 1.00952
 H991 H 0.26459 0.23573 1.00922
 H992 H 0.26334 0.23468 0.99021
 H993 H 0.24889 0.24922 0.95665
 H994 H 0.23604 0.26469 0.99044
 C995 C 0.25178 0.75300 0.53317
 C996 C 0.24219 0.75883 0.52673
 C997 C 0.24115 0.75716 0.51395
 C998 C 0.25025 0.75036 0.50729
 C999 C 0.25994 0.74460 0.51411
 C1000 C 0.26056 0.74570 0.52702
 C1001 C 0.24977 0.74953 0.49339
 C1002 C 0.25637 0.74016 0.48688
 C1003 C 0.25614 0.73969 0.47393
 C1004 C 0.24906 0.74829 0.46734
 C1005 C 0.24241 0.75754 0.47347
 C1006 C 0.24288 0.75830 0.48638
 H1007 H 0.25218 0.75395 0.54313
 H1008 H 0.23328 0.76136 0.50937
 H1009 H 0.26725 0.73947 0.50955
 H1010 H 0.26162 0.73308 0.49166
 H1011 H 0.24885 0.74790 0.45733
 H1012 H 0.23805 0.76595 0.49072
 C1013 C 0.25048 0.74998 -0.03359
 C1014 C 0.25837 0.75798 -0.02722
 C1015 C 0.25853 0.75786 -0.01427
 C1016 C 0.25034 0.75006 -0.00742
 C1017 C 0.24223 0.74223 -0.01430
 C1018 C 0.24252 0.74204 -0.02723
 C1019 C 0.25024 0.75011 0.00662
 C1020 C 0.24254 0.74183 0.01347
 C1021 C 0.24245 0.74195 0.02642
 C1022 C 0.24995 0.75031 0.03280
 C1023 C 0.25761 0.75855 0.02645
 C1024 C 0.25782 0.75846 0.01350
 H1025 H 0.25052 0.74996 -0.04361
 H1026 H 0.26504 0.76405 -0.00990
 H1027 H 0.23566 0.73609 -0.00994
 H1028 H 0.23662 0.73507 0.00910
 H1029 H 0.24983 0.75038 0.04282
 H1030 H 0.26386 0.76513 0.00915
 C1031 C 0.25003 0.24981 0.46670
 C1032 C 0.25793 0.25778 0.47308
 C1033 C 0.25812 0.25763 0.48602
 C1034 C 0.24994 0.24984 0.49286
 C1035 C 0.24179 0.24204 0.48599
 C1036 C 0.24207 0.24185 0.47306
 C1037 C 0.24989 0.24985 0.50690
 C1038 C 0.24232 0.24146 0.51375
 C1039 C 0.24229 0.24153 0.52670
 C1040 C 0.24975 0.24993 0.53308
 C1041 C 0.25729 0.25828 0.52671
 C1042 C 0.25740 0.25826 0.51377
 H1043 H 0.25005 0.24980 0.45668
 H1044 H 0.26468 0.26377 0.49039
 H1045 H 0.23519 0.23592 0.49035
 H1046 H 0.23647 0.23463 0.50938
 H1047 H 0.24970 0.24996 0.54310
 H1048 H 0.26332 0.26504 0.50941
 C1049 C 0.75205 0.75179 1.03348
 C1050 C 0.74309 0.75882 1.02731
 C1051 C 0.74188 0.75762 1.01446
 C1052 C 0.75023 0.75012 1.00751
 C1053 C 0.75946 0.74342 1.01414
 C1054 C 0.76025 0.74411 1.02705
 C1055 C 0.74958 0.74958 0.99354
 C1056 C 0.75630 0.74047 0.98675
 C1057 C 0.75608 0.74033 0.97380
 C1058 C 0.74887 0.74896 0.96742
 C1059 C 0.74202 0.75790 0.97378
 C1060 C 0.74246 0.75834 0.98671
 H1061 H 0.75260 0.75225 1.04347
 H1062 H 0.73450 0.76280 1.01010
 H1063 H 0.76639 0.73787 1.00950
 H1064 H 0.76168 0.73332 0.99124
 H1065 H 0.74868 0.74880 0.95741
 H1066 H 0.73741 0.76577 0.99114
 C1067 C 0.74944 0.24963 0.53328
 C1068 C 0.74188 0.25792 0.52689
 C1069 C 0.74197 0.25804 0.51394
 C1070 C 0.74985 0.24994 0.50711
 C1071 C 0.75757 0.24172 0.51400
 C1072 C 0.75724 0.24151 0.52695
 C1073 C 0.74999 0.25004 0.49306
 C1074 C 0.75794 0.24200 0.48622
 C1075 C 0.75792 0.24201 0.47328
 C1076 C 0.75026 0.25021 0.46688
 C1077 C 0.74245 0.25832 0.47321
 C1078 C 0.74216 0.25816 0.48616
 H1079 H 0.74928 0.24953 0.54330
 H1080 H 0.73587 0.26464 0.50957
 H1081 H 0.76384 0.23525 0.50967
 H1082 H 0.76415 0.23551 0.49059
 H1083 H 0.75035 0.25025 0.45686
 H1084 H 0.73583 0.26456 0.49049
 C1085 C 0.75102 0.24889 -0.03294
 C1086 C 0.75788 0.25780 -0.02656
 C1087 C 0.75744 0.25819 -0.01363
 C1088 C 0.75032 0.24942 -0.00682
 C1089 C 0.74357 0.24036 -0.01363
 C1090 C 0.74379 0.24025 -0.02658
 C1091 C 0.74964 0.25000 0.00714
 C1092 C 0.74045 0.24328 0.01379
 C1093 C 0.73948 0.24429 0.02666
 C1094 C 0.74732 0.25236 0.03304
 C1095 C 0.75658 0.25896 0.02686
 C1096 C 0.75800 0.25749 0.01406
 H1097 H 0.75120 0.24876 -0.04296
 H1098 H 0.76248 0.26562 -0.00918
 H1099 H 0.73814 0.23323 -0.00916
 H1100 H 0.73377 0.23738 0.00925
 H1101 H 0.74651 0.25317 0.04300
 H1102 H 0.76561 0.26236 0.00974
 C1103 C 0.75109 0.74910 0.46726
 C1104 C 0.75802 0.75797 0.47363
 C1105 C 0.75760 0.75835 0.48657
 C1106 C 0.75040 0.74963 0.49339
 C1107 C 0.74356 0.74065 0.48657
 C1108 C 0.74378 0.74054 0.47363
 C1109 C 0.74973 0.75018 0.50737
 C1110 C 0.74064 0.74335 0.51406
 C1111 C 0.73969 0.74432 0.52694
 C1112 C 0.74748 0.75245 0.53330
 C1113 C 0.75665 0.75915 0.52710
 C1114 C 0.75803 0.75774 0.51429
 H1115 H 0.75125 0.74898 0.45724
 H1116 H 0.76271 0.76573 0.49101
 H1117 H 0.73803 0.73359 0.49102
 H1118 H 0.73402 0.73736 0.50954
 H1119 H 0.74671 0.75323 0.54326
 H1120 H 0.76558 0.76272 0.50997
 C1121 C 1.03318 0.24933 0.24929
 C1122 C 1.02676 0.24047 0.25620
 C1123 C 1.01373 0.24057 0.25636
 C1124 C 1.00693 0.24981 0.24987
 C1125 C 1.01378 0.25885 0.24316
 C1126 C 1.02678 0.25846 0.24274
 C1127 C 0.99290 0.25007 0.25011
 C1128 C 0.98607 0.25705 0.24129
 C1129 C 0.97307 0.25759 0.24177
 C1130 C 0.96665 0.25086 0.25073
 C1131 C 0.97305 0.24364 0.25932
 C1132 C 0.98608 0.24337 0.25915
 H1133 H 1.04326 0.24918 0.24907
 H1134 H 1.00914 0.23323 0.26142
 H1135 H 1.00926 0.26641 0.23836
 H1136 H 0.99059 0.26199 0.23387
 H1137 H 0.95657 0.25116 0.25093
 H1138 H 0.99066 0.23808 0.26630
 C1139 C 0.53340 0.25017 0.75030
 C1140 C 0.52689 0.24110 0.75684
 C1141 C 0.51390 0.24066 0.75620
 C1142 C 0.50714 0.24966 0.74935
 C1143 C 0.51406 0.25880 0.74281
 C1144 C 0.52709 0.25893 0.74317
 C1145 C 0.49309 0.24974 0.74932
 C1146 C 0.48632 0.25683 0.74055
 C1147 C 0.47333 0.25751 0.74106
 C1148 C 0.46684 0.25074 0.74993
 C1149 C 0.47316 0.24333 0.75843
 C1150 C 0.48619 0.24295 0.75826
 H1151 H 0.54347 0.25038 0.75074
 H1152 H 0.50932 0.23319 0.76108
 H1153 H 0.50957 0.26612 0.73764
 H1154 H 0.49089 0.26188 0.73323
 H1155 H 0.45677 0.25117 0.75017
 H1156 H 0.49068 0.23757 0.76539
 C1157 C -0.03363 0.25104 0.74922
 C1158 C -0.02718 0.25772 0.75818
 C1159 C -0.01419 0.25703 0.75872
 C1160 C -0.00739 0.24998 0.74994
 C1161 C -0.01424 0.24332 0.74090
 C1162 C -0.02726 0.24372 0.74067
 C1163 C 0.00665 0.24969 0.75012
 C1164 C 0.01341 0.24051 0.74349
 C1165 C 0.02644 0.24051 0.74342
 C1166 C 0.03292 0.24938 0.75024
 C1167 C 0.02657 0.25840 0.75699
 C1168 C 0.01356 0.25869 0.75682
 H1169 H -0.04370 0.25146 0.74896
 H1170 H -0.00965 0.26197 0.76613
 H1171 H -0.00969 0.23798 0.73377
 H1172 H 0.00880 0.23318 0.73845
 H1173 H 0.04301 0.24929 0.75026
 H1174 H 0.00908 0.26618 0.76175
 C1175 C 0.46689 0.24909 0.25096
 C1176 C 0.47332 0.25641 0.25945
 C1177 C 0.48634 0.25665 0.25929
 C1178 C 0.49315 0.24985 0.25030
 C1179 C 0.48629 0.24278 0.24158
 C1180 C 0.47330 0.24225 0.24209
 C1181 C 0.50719 0.25018 0.24994
 C1182 C 0.51404 0.24132 0.24300
 C1183 C 0.52701 0.24197 0.24225
 C1184 C 0.53342 0.25110 0.24879
 C1185 C 0.52702 0.25968 0.25604
 C1186 C 0.51400 0.25938 0.25648
 H1187 H 0.45681 0.24883 0.25117
 H1188 H 0.49090 0.26205 0.26635
 H1189 H 0.49077 0.23775 0.23420
 H1190 H 0.50956 0.23376 0.23818
 H1191 H 0.54349 0.25141 0.24835
 H1192 H 0.50944 0.26655 0.26180
 C1193 C 1.03302 0.75140 0.75118
 C1194 C 1.02659 0.74225 0.75770
 C1195 C 1.01359 0.74179 0.75714
 C1196 C 1.00676 0.75075 0.75029
 C1197 C 1.01361 0.76002 0.74386
 C1198 C 1.02663 0.76018 0.74417
 C1199 C 0.99274 0.75020 0.74957
 C1200 C 0.98609 0.75686 0.74037
 C1201 C 0.97313 0.75596 0.73946
 C1202 C 0.96667 0.74800 0.74734
 C1203 C 0.97287 0.74145 0.75659
 C1204 C 0.98575 0.74284 0.75796
 H1205 H 1.04310 0.75157 0.75143
 H1206 H 1.00907 0.73420 0.76188
 H1207 H 1.00908 0.76727 0.73865
 H1208 H 0.99074 0.76264 0.73366
 H1209 H 0.95664 0.74725 0.74657
 H1210 H 0.99010 0.73804 0.76557
 C1211 C 0.53256 0.74967 0.24986
 C1212 C 0.52612 0.74080 0.25670
 C1213 C 0.51310 0.74051 0.25636
 C1214 C 0.50627 0.74948 0.24951
 C1215 C 0.51316 0.75839 0.24263
 C1216 C 0.52619 0.75836 0.24272
 C1217 C 0.49219 0.74980 0.24986
 C1218 C 0.48527 0.75731 0.24152
 C1219 C 0.47231 0.75844 0.24258
 C1220 C 0.46603 0.75132 0.25137
 C1221 C 0.47243 0.74364 0.25956
 C1222 C 0.48544 0.74301 0.25892
 H1223 H 0.54264 0.74980 0.25008
 H1224 H 0.50858 0.73319 0.26150
 H1225 H 0.50870 0.76566 0.23739
 H1226 H 0.48972 0.76258 0.23430
 H1227 H 0.45597 0.75174 0.25181
 H1228 H 0.49005 0.73748 0.26584
 C1229 C -0.03323 0.74767 0.25162
 C1230 C -0.02692 0.75553 0.25971
 C1231 C -0.01392 0.75634 0.25914
 C1232 C -0.00703 0.74956 0.25019
 C1233 C -0.01384 0.74200 0.24181
 C1234 C -0.02679 0.74093 0.24269
 C1235 C 0.00702 0.75053 0.24942
 C1236 C 0.01405 0.74225 0.24193
 C1237 C 0.02692 0.74375 0.24049
 C1238 C 0.03308 0.75306 0.24703
 C1239 C 0.02662 0.76083 0.25508
 C1240 C 0.01367 0.75975 0.25611
 H1241 H -0.04328 0.74702 0.25206
 H1242 H -0.00949 0.76223 0.26587
 H1243 H -0.00938 0.73699 0.23441
 H1244 H 0.00979 0.73460 0.23708
 H1245 H 0.04310 0.75392 0.24625
 H1246 H 0.00908 0.76633 0.26208
 C1247 C 0.46673 0.75061 0.74729
 C1248 C 0.47278 0.75971 0.75428
 C1249 C 0.48581 0.75943 0.75517
 C1250 C 0.49285 0.74981 0.74952
 C1251 C 0.48629 0.74046 0.74294
 C1252 C 0.47338 0.74115 0.74149
 C1253 C 0.50688 0.74967 0.75021
 C1254 C 0.51404 0.74252 0.74178
 C1255 C 0.52703 0.74215 0.74261
 C1256 C 0.53312 0.74958 0.75123
 C1257 C 0.52641 0.75714 0.75929
 C1258 C 0.51338 0.75686 0.75912
 H1259 H 0.45668 0.75072 0.74648
 H1260 H 0.49025 0.76698 0.76003
 H1261 H 0.49100 0.73266 0.73875
 H1262 H 0.50975 0.73717 0.73450
 H1263 H 0.54320 0.74962 0.75157
 H1264 H 0.50855 0.76239 0.76593
 C1265 C 0.40397 0.30095 0.30118
 C1266 C 0.39949 0.31264 0.29737
 C1267 C 0.38820 0.31722 0.30189
 C1268 C 0.38114 0.31023 0.31035
 C1269 C 0.38562 0.29854 0.31412
 C1270 C 0.39687 0.29395 0.30958
 C1271 C 0.41585 0.29593 0.29625
 C1272 C 0.42393 0.28911 0.30390
 C1273 C 0.43467 0.28365 0.29906
 C1274 C 0.43762 0.28499 0.28651
 C1275 C 0.42978 0.29215 0.27894
 C1276 C 0.41899 0.29753 0.28375
 C1277 C 0.44823 0.27815 0.28104
 C1278 C 0.45616 0.28395 0.27247
 C1279 C 0.46509 0.27699 0.26610
 C1280 C 0.46609 0.26413 0.26810
 C1281 C 0.45856 0.25842 0.27702
 C1282 C 0.44978 0.26539 0.28353
 H1283 H 0.40480 0.31833 0.29102
 H1284 H 0.38512 0.32631 0.29886
 H1285 H 0.38038 0.29280 0.32047
 H1286 H 0.39992 0.28480 0.31251
 H1287 H 0.42190 0.28793 0.31362
 H1288 H 0.44062 0.27826 0.30510
 H1289 H 0.43172 0.29313 0.26917
 H1290 H 0.41289 0.30257 0.27756
 H1291 H 0.45517 0.29378 0.27042
 H1292 H 0.47071 0.28149 0.25909
 H1293 H 0.45911 0.24846 0.27853
 H1294 H 0.44370 0.26067 0.28998
 C1295 C 0.40524 0.80438 0.80001
 C1296 C 0.40106 0.81661 0.79794
 C1297 C 0.38988 0.82078 0.80300
 C1298 C 0.38264 0.81298 0.81060
 C1299 C 0.38703 0.80085 0.81301
 C1300 C 0.39809 0.79658 0.80767
 C1301 C 0.41674 0.79971 0.79384
 C1302 C 0.42435 0.79071 0.79951
 C1303 C 0.43465 0.78579 0.79330
 C1304 C 0.43772 0.78986 0.78133
 C1305 C 0.43043 0.79924 0.77590
 C1306 C 0.42003 0.80399 0.78200
 C1307 C 0.44778 0.78365 0.77414
 C1308 C 0.44626 0.78156 0.76141
 C1309 C 0.45488 0.77453 0.75481
 C1310 C 0.46518 0.76920 0.76078
 C1311 C 0.46715 0.77183 0.77333
 C1312 C 0.45854 0.77900 0.77995
 H1313 H 0.40645 0.82305 0.79242
 H1314 H 0.38714 0.83028 0.80108
 H1315 H 0.38177 0.79444 0.81867
 H1316 H 0.40083 0.78702 0.80932
 H1317 H 0.42230 0.78734 0.80870
 H1318 H 0.43994 0.77847 0.79774
 H1319 H 0.43260 0.80279 0.76679
 H1320 H 0.41436 0.81076 0.77720
 H1321 H 0.43806 0.78481 0.75660
 H1322 H 0.45321 0.77279 0.74510
 H1323 H 0.47500 0.76782 0.77816
 H1324 H 0.46014 0.78061 0.78969
 C1325 C -0.09678 0.30157 0.80043
 C1326 C -0.10169 0.31292 0.79618
 C1327 C -0.11288 0.31751 0.80092
 C1328 C -0.11943 0.31087 0.81004
 C1329 C -0.11452 0.29949 0.81424
 C1330 C -0.10334 0.29491 0.80950
 C1331 C -0.08501 0.29655 0.79526
 C1332 C -0.07631 0.29056 0.80291
 C1333 C -0.06556 0.28525 0.79791
 C1334 C -0.06325 0.28588 0.78516
 C1335 C -0.07180 0.29213 0.77755
 C1336 C -0.08255 0.29740 0.78254
 C1337 C -0.05247 0.27934 0.77961
 C1338 C -0.04563 0.28490 0.77000
 C1339 C -0.03663 0.27808 0.76360
 C1340 C -0.03435 0.26561 0.76670
 C1341 C -0.04071 0.26021 0.77664
 C1342 C -0.04964 0.26705 0.78312
 H1343 H -0.09679 0.31834 0.78930
 H1344 H -0.11627 0.32634 0.79750
 H1345 H -0.11932 0.29401 0.82113
 H1346 H -0.09992 0.28603 0.81281
 H1347 H -0.07783 0.28996 0.81278
 H1348 H -0.05908 0.28057 0.80400
 H1349 H -0.07040 0.29254 0.76766
 H1350 H -0.08915 0.30177 0.77636
 H1351 H -0.04756 0.29438 0.76717
 H1352 H -0.03193 0.28230 0.75581
 H1353 H -0.03920 0.25051 0.77897
 H1354 H -0.05486 0.26248 0.79037
 C1355 C -0.09615 0.80079 0.30111
 C1356 C -0.10030 0.81272 0.29769
 C1357 C -0.11155 0.81739 0.30222
 C1358 C -0.11891 0.81025 0.31030
 C1359 C -0.11479 0.79829 0.31364
 C1360 C -0.10357 0.79362 0.30909
 C1361 C -0.08425 0.79571 0.29626
 C1362 C -0.07653 0.78839 0.30384
 C1363 C -0.06582 0.78282 0.29905
 C1364 C -0.06253 0.78454 0.28662
 C1365 C -0.06996 0.79222 0.27916
 C1366 C -0.08073 0.79772 0.28391
 C1367 C -0.05203 0.77750 0.28115
 C1368 C -0.04366 0.78328 0.27299
 C1369 C -0.03477 0.77622 0.26667
 C1370 C -0.03427 0.76326 0.26828
 C1371 C -0.04227 0.75755 0.27680
 C1372 C -0.05100 0.76463 0.28326
 H1373 H -0.09475 0.81853 0.29166
 H1374 H -0.11435 0.82668 0.29953
 H1375 H -0.12026 0.79243 0.31968
 H1376 H -0.10079 0.78429 0.31169
 H1377 H -0.07883 0.78688 0.31346
 H1378 H -0.06018 0.77704 0.30503
 H1379 H -0.06774 0.79352 0.26948
 H1380 H -0.08654 0.80316 0.27779
 H1381 H -0.04425 0.79320 0.27124
 H1382 H -0.02877 0.78074 0.26000
 H1383 H -0.04210 0.74754 0.27804
 H1384 H -0.05743 0.75992 0.28939
 C1385 C 0.59611 0.69887 0.30048
 C1386 C 0.60264 0.68933 0.29442
 C1387 C 0.61374 0.68468 0.29932
 C1388 C 0.61858 0.68945 0.31042
 C1389 C 0.61199 0.69897 0.31649
 C1390 C 0.60091 0.70362 0.31159
 C1391 C 0.58447 0.70404 0.29513
 C1392 C 0.58217 0.71692 0.29548
 C1393 C 0.57142 0.72187 0.29019
 C1394 C 0.56271 0.71407 0.28437
 C1395 C 0.56494 0.70118 0.28411
 C1396 C 0.57569 0.69621 0.28945
 C1397 C 0.55177 0.71955 0.27803
 C1398 C 0.54853 0.71565 0.26606
 C1399 C 0.53944 0.72205 0.25935
 C1400 C 0.53334 0.73230 0.26459
 C1401 C 0.53602 0.73577 0.27677
 C1402 C 0.54517 0.72945 0.28345
 H1403 H 0.59930 0.68562 0.28574
 H1404 H 0.61854 0.67743 0.29429
 H1405 H 0.61530 0.70284 0.32510
 H1406 H 0.59603 0.71086 0.31658
 H1407 H 0.58886 0.72324 0.29955
 H1408 H 0.57010 0.73187 0.29030
 H1409 H 0.55834 0.69494 0.27977
 H1410 H 0.57711 0.68623 0.28918
 H1411 H 0.55353 0.70814 0.26161
 H1412 H 0.53762 0.71942 0.24987
 H1413 H 0.53153 0.74381 0.28085
 H1414 H 0.54740 0.73258 0.29269
 C1415 C 0.59631 0.19892 0.80088
 C1416 C 0.60114 0.20357 0.81202
 C1417 C 0.61229 0.19895 0.81678
 C1418 C 0.61890 0.18956 0.81054
 C1419 C 0.61403 0.18491 0.79940
 C1420 C 0.60287 0.18953 0.79464
 C1421 C 0.58463 0.20407 0.79564
 C1422 C 0.57587 0.19624 0.78993
 C1423 C 0.56514 0.20121 0.78456
 C1424 C 0.56292 0.21410 0.78486
 C1425 C 0.57158 0.22190 0.79074
 C1426 C 0.58232 0.21694 0.79605
 C1427 C 0.55208 0.21960 0.77841
 C1428 C 0.54540 0.22946 0.78380
 C1429 C 0.53642 0.23588 0.77701
 C1430 C 0.53398 0.23254 0.76474
 C1431 C 0.54015 0.22233 0.75952
 C1432 C 0.54907 0.21582 0.76634
 H1433 H 0.59622 0.21070 0.81713
 H1434 H 0.61563 0.20271 0.82543
 H1435 H 0.61884 0.17776 0.79423
 H1436 H 0.59950 0.18590 0.78594
 H1437 H 0.57732 0.18627 0.78961
 H1438 H 0.55857 0.19499 0.78017
 H1439 H 0.57026 0.23190 0.79088
 H1440 H 0.58900 0.22325 0.80016
 H1441 H 0.54745 0.23248 0.79312
 H1442 H 0.53186 0.24389 0.78108
 H1443 H 0.53851 0.21981 0.74997
 H1444 H 0.55414 0.20834 0.76192
 C1445 C 1.09601 0.69877 0.80060
 C1446 C 1.10014 0.70237 0.81237
 C1447 C 1.11133 0.69780 0.81712
 C1448 C 1.11866 0.68949 0.81021
 C1449 C 1.11449 0.68583 0.79845
 C1450 C 1.10331 0.69043 0.79370
 C1451 C 1.08430 0.70392 0.79541
 C1452 C 1.07627 0.69642 0.78836
 C1453 C 1.06554 0.70146 0.78306
 C1454 C 1.06258 0.71408 0.78475
 C1455 C 1.07046 0.72152 0.79200
 C1456 C 1.08121 0.71651 0.79724
 C1457 C 1.05184 0.71978 0.77829
 C1458 C 1.04419 0.72847 0.78436
 C1459 C 1.03521 0.73515 0.77778
 C1460 C 1.03381 0.73329 0.76506
 C1461 C 1.04099 0.72421 0.75909
 C1462 C 1.04987 0.71743 0.76568
 H1463 H 1.09467 0.70865 0.81800
 H1464 H 1.11412 0.70074 0.82625
 H1465 H 1.11992 0.67956 0.79280
 H1466 H 1.10050 0.68763 0.78451
 H1467 H 1.07829 0.68664 0.78695
 H1468 H 1.05957 0.69550 0.77759
 H1469 H 1.06854 0.73134 0.79325
 H1470 H 1.08730 0.72260 0.80241
 H1471 H 1.04546 0.73040 0.79410
 H1472 H 1.02986 0.74227 0.78247
 H1473 H 1.04013 0.72282 0.74922
 H1474 H 1.05570 0.71088 0.76074
 C1475 C 1.09598 0.19813 0.30032
 C1476 C 1.10374 0.19038 0.29324
 C1477 C 1.11499 0.18602 0.29804
 C1478 C 1.11877 0.18933 0.31002
 C1479 C 1.11102 0.19710 0.31709
 C1480 C 1.09975 0.20143 0.31230
 C1481 C 1.08415 0.20296 0.29508
 C1482 C 1.08040 0.21529 0.29734
 C1483 C 1.06962 0.22004 0.29190
 C1484 C 1.06240 0.21260 0.28402
 C1485 C 1.06597 0.20019 0.28196
 C1486 C 1.07670 0.19540 0.28748
 C1487 C 1.05181 0.21813 0.27721
 C1488 C 1.05083 0.21645 0.26438
 C1489 C 1.04207 0.22317 0.25758
 C1490 C 1.03399 0.23147 0.26354
 C1491 C 1.03441 0.23259 0.27643
 C1492 C 1.04331 0.22602 0.28322
 H1493 H 1.10124 0.18787 0.28388
 H1494 H 1.12077 0.18020 0.29225
 H1495 H 1.11355 0.19975 0.32639
 H1496 H 1.09393 0.20727 0.31805
 H1497 H 1.08603 0.22143 0.30297
 H1498 H 1.06721 0.22971 0.29346
 H1499 H 1.06050 0.19424 0.27599
 H1500 H 1.07920 0.18580 0.28573
 H1501 H 1.05734 0.21052 0.25951
 H1502 H 1.04196 0.22232 0.24762
 H1503 H 1.02835 0.23911 0.28114
 H1504 H 1.04385 0.22742 0.29311
 C1505 C 0.59633 0.30262 0.69994
 C1506 C 0.60004 0.29955 0.68787
 C1507 C 0.61123 0.30404 0.68307
 C1508 C 0.61900 0.31174 0.69019
 C1509 C 0.61525 0.31488 0.70223
 C1510 C 0.60407 0.31036 0.70705
 C1511 C 0.58459 0.29754 0.70518
 C1512 C 0.57708 0.30483 0.71298
 C1513 C 0.56638 0.29982 0.71839
 C1514 C 0.56291 0.28744 0.71605
 C1515 C 0.57022 0.28024 0.70800
 C1516 C 0.58095 0.28521 0.70267
 C1517 C 0.55231 0.28167 0.72269
 C1518 C 0.54393 0.27381 0.71648
 C1519 C 0.53499 0.26708 0.72310
 C1520 C 0.53444 0.26800 0.73600
 C1521 C 0.54241 0.27626 0.74214
 C1522 C 0.55120 0.28313 0.73553
 H1523 H 0.59423 0.29376 0.68208
 H1524 H 0.61370 0.30152 0.67371
 H1525 H 0.62104 0.32068 0.70804
 H1526 H 0.60160 0.31272 0.71646
 H1527 H 0.57949 0.31442 0.71493
 H1528 H 0.56085 0.30560 0.72447
 H1529 H 0.56789 0.27059 0.70622
 H1530 H 0.58663 0.27925 0.69690
 H1531 H 0.54456 0.27258 0.70658
 H1532 H 0.52901 0.26061 0.71824
 H1533 H 0.54218 0.27697 0.75212
 H1534 H 0.55761 0.28903 0.74056
 C1535 C 0.59584 0.80063 0.19911
 C1536 C 0.60336 0.80863 0.20617
 C1537 C 0.61461 0.81310 0.20147
 C1538 C 0.61865 0.80965 0.18962
 C1539 C 0.61116 0.80161 0.18257
 C1540 C 0.59988 0.79718 0.18725
 C1541 C 0.58396 0.79576 0.20421
 C1542 C 0.58037 0.78335 0.20205
 C1543 C 0.56953 0.77858 0.20736
 C1544 C 0.56209 0.78606 0.21500
 C1545 C 0.56550 0.79853 0.21695
 C1546 C 0.57629 0.80334 0.21157
 C1547 C 0.55142 0.78053 0.22171
 C1548 C 0.55013 0.78248 0.23448
 C1549 C 0.54131 0.77581 0.24123
 C1550 C 0.53348 0.76725 0.23531
 C1551 C 0.53420 0.76584 0.22246
 C1552 C 0.54316 0.77239 0.21570
 H1553 H 0.60065 0.81128 0.21544
 H1554 H 0.62018 0.81913 0.20724
 H1555 H 0.61389 0.79885 0.17335
 H1556 H 0.59425 0.79116 0.18150
 H1557 H 0.58616 0.77719 0.19662
 H1558 H 0.56724 0.76887 0.20589
 H1559 H 0.55986 0.80452 0.22273
 H1560 H 0.57867 0.81300 0.21323
 H1561 H 0.55644 0.78861 0.23935
 H1562 H 0.54095 0.77688 0.25117
 H1563 H 0.52833 0.75915 0.21777
 H1564 H 0.54392 0.77079 0.20586
 C1565 C 1.09606 0.30139 0.19914
 C1566 C 1.10322 0.31000 0.20585
 C1567 C 1.11439 0.31455 0.20104
 C1568 C 1.11868 0.31060 0.18942
 C1569 C 1.11150 0.30200 0.18271
 C1570 C 1.10033 0.29747 0.18751
 C1571 C 1.08437 0.29629 0.20440
 C1572 C 1.08143 0.28361 0.20296
 C1573 C 1.07070 0.27866 0.20829
 C1574 C 1.06269 0.28625 0.21524
 C1575 C 1.06549 0.29895 0.21655
 C1576 C 1.07620 0.30394 0.21114
 C1577 C 1.05196 0.28065 0.22178
 C1578 C 1.04991 0.28328 0.23434
 C1579 C 1.04106 0.27657 0.24104
 C1580 C 1.03399 0.26731 0.23525
 C1581 C 1.03547 0.26516 0.22257
 C1582 C 1.04442 0.27176 0.21588
 H1583 H 1.10031 0.31303 0.21493
 H1584 H 1.11971 0.32105 0.20655
 H1585 H 1.11441 0.29883 0.17368
 H1586 H 1.09496 0.29097 0.18204
 H1587 H 1.08763 0.27742 0.19803
 H1588 H 1.06890 0.26878 0.20736
 H1589 H 1.05941 0.30501 0.22179
 H1590 H 1.07810 0.31378 0.21224
 H1591 H 1.05566 0.29000 0.23914
 H1592 H 1.04014 0.27818 0.25088
 H1593 H 1.03020 0.25789 0.21802
 H1594 H 1.04577 0.26962 0.20620
 C1595 C 1.09582 0.80220 0.69959
 C1596 C 1.09979 0.79854 0.68777
 C1597 C 1.11103 0.80288 0.68295
 C1598 C 1.11859 0.81101 0.68982
 C1599 C 1.11460 0.81470 0.70163
 C1600 C 1.10337 0.81034 0.70646
 C1601 C 1.08404 0.79733 0.70488
 C1602 C 1.07632 0.80501 0.71210
 C1603 C 1.06562 0.80020 0.71766
 C1604 C 1.06235 0.78765 0.71603
 C1605 C 1.06985 0.78006 0.70855
 C1606 C 1.08059 0.78483 0.70306
 C1607 C 1.05174 0.78218 0.72286
 C1608 C 1.04351 0.77391 0.71698
 C1609 C 1.03459 0.76743 0.72384
 C1610 C 1.03389 0.76903 0.73667
 C1611 C 1.04170 0.77768 0.74248
 C1612 C 1.05048 0.78430 0.73560
 H1613 H 1.09413 0.79240 0.68218
 H1614 H 1.11370 0.79992 0.67378
 H1615 H 1.12021 0.82083 0.70727
 H1616 H 1.10071 0.81315 0.71569
 H1617 H 1.07859 0.81473 0.71350
 H1618 H 1.05993 0.80627 0.72331
 H1619 H 1.06766 0.77029 0.70733
 H1620 H 1.08643 0.77861 0.69774
 H1621 H 1.04427 0.77216 0.70716
 H1622 H 1.02875 0.76064 0.71926
 H1623 H 1.04137 0.77887 0.75240
 H1624 H 1.05677 0.79053 0.74037
 C1625 C 0.40463 0.69609 0.69959
 C1626 C 0.39915 0.68503 0.70386
 C1627 C 0.38788 0.68086 0.69894
 C1628 C 0.38182 0.68767 0.68963
 C1629 C 0.38729 0.69877 0.68539
 C1630 C 0.39856 0.70293 0.69031
 C1631 C 0.41651 0.70066 0.70493
 C1632 C 0.42563 0.70606 0.69732
 C1633 C 0.43643 0.71112 0.70244
 C1634 C 0.43836 0.71089 0.71527
 C1635 C 0.42945 0.70509 0.72283
 C1636 C 0.41864 0.70003 0.71772
 C1637 C 0.44895 0.71771 0.72088
 C1638 C 0.45538 0.71287 0.73114
 C1639 C 0.46414 0.72017 0.73741
 C1640 C 0.46649 0.73241 0.73354
 C1641 C 0.46054 0.73702 0.72297
 C1642 C 0.45190 0.72973 0.71666
 H1643 H 0.40367 0.67950 0.71092
 H1644 H 0.38404 0.67222 0.70237
 H1645 H 0.38285 0.70437 0.67836
 H1646 H 0.40241 0.71162 0.68699
 H1647 H 0.42435 0.70647 0.68741
 H1648 H 0.44319 0.71541 0.69637
 H1649 H 0.43056 0.70498 0.73277
 H1650 H 0.41173 0.69608 0.72384
 H1651 H 0.45334 0.70361 0.73454
 H1652 H 0.46855 0.71654 0.74564
 H1653 H 0.46214 0.74651 0.71997
 H1654 H 0.44699 0.73380 0.70892
 C1655 C 0.40406 0.19880 0.19904
 C1656 C 0.39924 0.18736 0.20314
 C1657 C 0.38812 0.18273 0.19832
 C1658 C 0.38155 0.18942 0.18926
 C1659 C 0.38637 0.20088 0.18519
 C1660 C 0.39749 0.20551 0.19001
 C1661 C 0.41576 0.20383 0.20432
 C1662 C 0.42449 0.20992 0.19676
 C1663 C 0.43521 0.21517 0.20187
 C1664 C 0.43746 0.21436 0.21462
 C1665 C 0.42888 0.20802 0.22212
 C1666 C 0.41815 0.20283 0.21704
 C1667 C 0.44820 0.22084 0.22030
 C1668 C 0.45501 0.21516 0.22984
 C1669 C 0.46393 0.22194 0.23639
 C1670 C 0.46611 0.23447 0.23351
 C1671 C 0.45978 0.24000 0.22363
 C1672 C 0.45094 0.23320 0.21700
 H1673 H 0.40415 0.18191 0.20999
 H1674 H 0.38478 0.17385 0.20166
 H1675 H 0.38152 0.20639 0.17836
 H1676 H 0.40084 0.21446 0.18682
 H1677 H 0.42301 0.21064 0.18690
 H1678 H 0.44173 0.21991 0.19586
 H1679 H 0.43024 0.20748 0.23202
 H1680 H 0.41152 0.19838 0.22313
 H1681 H 0.45314 0.20562 0.23251
 H1682 H 0.46864 0.21761 0.24412
 H1683 H 0.46125 0.24973 0.22145
 H1684 H 0.44574 0.23785 0.20979
 C1685 C -0.09634 0.69743 0.19972
 C1686 C -0.10156 0.68629 0.20415
 C1687 C -0.11265 0.68169 0.19919
 C1688 C -0.11878 0.68813 0.18967
 C1689 C -0.11355 0.69928 0.18525
 C1690 C -0.10247 0.70387 0.19022
 C1691 C -0.08469 0.70247 0.20514
 C1692 C -0.07563 0.70810 0.19761
 C1693 C -0.06494 0.71334 0.20281
 C1694 C -0.06304 0.71302 0.21564
 C1695 C -0.07199 0.70719 0.22314
 C1696 C -0.08268 0.70199 0.21796
 C1697 C -0.05221 0.71937 0.22135
 C1698 C -0.04603 0.71402 0.23149
 C1699 C -0.03700 0.72076 0.23793
 C1700 C -0.03397 0.73291 0.23430
 C1701 C -0.03964 0.73806 0.22383
 C1702 C -0.04865 0.73133 0.21736
 H1703 H -0.09699 0.68103 0.21137
 H1704 H -0.11631 0.67302 0.20275
 H1705 H -0.11805 0.70461 0.17805
 H1706 H -0.09883 0.71260 0.18676
 H1707 H -0.07681 0.70846 0.18769
 H1708 H -0.05815 0.71767 0.19679
 H1709 H -0.07094 0.70703 0.23308
 H1710 H -0.08957 0.69792 0.22403
 H1711 H -0.04848 0.70479 0.23469
 H1712 H -0.03283 0.71674 0.24611
 H1713 H -0.03756 0.74754 0.22108
 H1714 H -0.05334 0.73576 0.20968
 C1715 C -0.09603 0.19913 0.69805
 C1716 C -0.09987 0.18703 0.70119
 C1717 C -0.11106 0.18223 0.69666
 C1718 C -0.11865 0.18941 0.68886
 C1719 C -0.11483 0.20154 0.68576
 C1720 C -0.10367 0.20634 0.69031
 C1721 C -0.08425 0.20435 0.70298
 C1722 C -0.07667 0.21200 0.69559
 C1723 C -0.06601 0.21756 0.70048
 C1724 C -0.06264 0.21548 0.71283
 C1725 C -0.06996 0.20752 0.72012
 C1726 C -0.08067 0.20204 0.71526
 C1727 C -0.05216 0.22239 0.71846
 C1728 C -0.04374 0.21637 0.72639
 C1729 C -0.03492 0.22326 0.73297
 C1730 C -0.03453 0.23627 0.73183
 C1731 C -0.04255 0.24223 0.72352
 C1732 C -0.05123 0.23534 0.71680
 H1733 H -0.09414 0.18119 0.70702
 H1734 H -0.11362 0.17282 0.69917
 H1735 H -0.12050 0.20742 0.67992
 H1736 H -0.10111 0.21579 0.68791
 H1737 H -0.07903 0.21376 0.68603
 H1738 H -0.06046 0.22359 0.69466
 H1739 H -0.06770 0.20596 0.72974
 H1740 H -0.08639 0.19635 0.72126
 H1741 H -0.04426 0.20640 0.72780
 H1742 H -0.02890 0.21855 0.73949
 H1743 H -0.04246 0.25228 0.72265
 H1744 H -0.05769 0.24022 0.71085
 C1745 C 0.30148 0.40382 0.30080
 C1746 C 0.29794 0.39976 0.31263
 C1747 C 0.30243 0.38851 0.31737
 C1748 C 0.31059 0.38107 0.31042
 C1749 C 0.31414 0.38515 0.29859
 C1750 C 0.30963 0.39637 0.29384
 C1751 C 0.29650 0.41562 0.29560
 C1752 C 0.30408 0.42344 0.28839
 C1753 C 0.29918 0.43414 0.28287
 C1754 C 0.28663 0.43729 0.28452
 C1755 C 0.27914 0.42970 0.29203
 C1756 C 0.28401 0.41896 0.29748
 C1757 C 0.28106 0.44786 0.27768
 C1758 C 0.27268 0.45601 0.28352
 C1759 C 0.26620 0.46492 0.27664
 C1760 C 0.26790 0.46569 0.26382
 C1761 C 0.27664 0.45794 0.25806
 C1762 C 0.28325 0.44917 0.26495
 H1763 H 0.29179 0.40534 0.31828
 H1764 H 0.29957 0.38576 0.32655
 H1765 H 0.32027 0.37962 0.29288
 H1766 H 0.31235 0.39911 0.28460
 H1767 H 0.31380 0.42125 0.28695
 H1768 H 0.30517 0.43991 0.27721
 H1769 H 0.26937 0.43179 0.29327
 H1770 H 0.27787 0.41304 0.30280
 H1771 H 0.27087 0.45522 0.29333
 H1772 H 0.25935 0.47073 0.28118
 H1773 H 0.27793 0.45833 0.24815
 H1774 H 0.28956 0.44293 0.26021
 C1775 C 0.30103 -0.09648 0.80164
 C1776 C 0.29586 -0.10203 0.81220
 C1777 C 0.30083 -0.11302 0.81703
 C1778 C 0.31120 -0.11877 0.81147
 C1779 C 0.31639 -0.11311 0.80090
 C1780 C 0.31135 -0.10215 0.79605
 C1781 C 0.29550 -0.08497 0.79633
 C1782 C 0.30307 -0.07553 0.79136
 C1783 C 0.29778 -0.06487 0.78610
 C1784 C 0.28481 -0.06341 0.78577
 C1785 C 0.27726 -0.07279 0.79084
 C1786 C 0.28253 -0.08345 0.79602
 C1787 C 0.27904 -0.05250 0.77963
 C1788 C 0.26856 -0.04672 0.78487
 C1789 C 0.26199 -0.03767 0.77828
 C1790 C 0.26584 -0.03423 0.76640
 C1791 C 0.27665 -0.03947 0.76139
 C1792 C 0.28326 -0.04850 0.76799
 H1793 H 0.28801 -0.09780 0.81685
 H1794 H 0.29651 -0.11685 0.82520
 H1795 H 0.32427 -0.11713 0.79616
 H1796 H 0.31542 -0.09823 0.78777
 H1797 H 0.31310 -0.07635 0.79159
 H1798 H 0.30381 -0.05775 0.78232
 H1799 H 0.26723 -0.07205 0.79047
 H1800 H 0.27643 -0.09065 0.79952
 H1801 H 0.26519 -0.04952 0.79388
 H1802 H 0.25356 -0.03381 0.78219
 H1803 H 0.27958 -0.03705 0.75212
 H1804 H 0.29122 -0.05289 0.76368
 C1805 C 0.80019 0.40412 0.80286
 C1806 C 0.79527 0.39861 0.81355
 C1807 C 0.80004 0.38739 0.81802
 C1808 C 0.80995 0.38133 0.81197
 C1809 C 0.81488 0.38692 0.80124
 C1810 C 0.81005 0.39814 0.79676
 C1811 C 0.79486 0.41587 0.79791
 C1812 C 0.80259 0.42507 0.79275
 C1813 C 0.79749 0.43580 0.78748
 C1814 C 0.78456 0.43759 0.78731
 C1815 C 0.77686 0.42860 0.79279
 C1816 C 0.78194 0.41784 0.79799
 C1817 C 0.77901 0.44817 0.78045
 C1818 C 0.76874 0.45472 0.78522
 C1819 C 0.76253 0.46354 0.77797
 C1820 C 0.76644 0.46582 0.76583
 C1821 C 0.77699 0.45971 0.76125
 C1822 C 0.78329 0.45104 0.76852
 H1823 H 0.78775 0.40304 0.81855
 H1824 H 0.79589 0.38361 0.82630
 H1825 H 0.82239 0.38266 0.79614
 H1826 H 0.81389 0.40201 0.78835
 H1827 H 0.81259 0.42393 0.79272
 H1828 H 0.80365 0.44265 0.78341
 H1829 H 0.76685 0.42962 0.79258
 H1830 H 0.77571 0.41085 0.80169
 H1831 H 0.76533 0.45273 0.79442
 H1832 H 0.75431 0.46809 0.78159
 H1833 H 0.78004 0.46130 0.75184
 H1834 H 0.79107 0.44606 0.76455
 C1835 C 0.80110 -0.09664 0.30126
 C1836 C 0.79624 -0.10175 0.31217
 C1837 C 0.80091 -0.11291 0.31692
 C1838 C 0.81069 -0.11926 0.31095
 C1839 C 0.81556 -0.11405 0.30001
 C1840 C 0.81081 -0.10293 0.29524
 C1841 C 0.79593 -0.08490 0.29607
 C1842 C 0.80373 -0.07608 0.29038
 C1843 C 0.79876 -0.06533 0.28501
 C1844 C 0.78591 -0.06312 0.28533
 C1845 C 0.77814 -0.07177 0.29125
 C1846 C 0.78308 -0.08256 0.29651
 C1847 C 0.78043 -0.05234 0.27876
 C1848 C 0.77098 -0.04522 0.28429
 C1849 C 0.76460 -0.03622 0.27745
 C1850 C 0.76751 -0.03431 0.26497
 C1851 C 0.77730 -0.04099 0.25959
 C1852 C 0.78381 -0.04985 0.26647
 H1853 H 0.78887 -0.09706 0.31715
 H1854 H 0.79684 -0.11639 0.32537
 H1855 H 0.82296 -0.11854 0.29494
 H1856 H 0.81461 -0.09937 0.28667
 H1857 H 0.81369 -0.07749 0.29006
 H1858 H 0.80495 -0.05876 0.28056
 H1859 H 0.76817 -0.07040 0.29142
 H1860 H 0.77678 -0.08926 0.30059
 H1861 H 0.76825 -0.04694 0.29377
 H1862 H 0.75692 -0.03127 0.28167
 H1863 H 0.77951 -0.03974 0.24990
 H1864 H 0.79097 -0.05529 0.26196
 C1865 C 0.30003 0.59635 0.69733
 C1866 C 0.30851 0.60336 0.70434
 C1867 C 0.31314 0.61466 0.69987
 C1868 C 0.30940 0.61923 0.68828
 C1869 C 0.30092 0.61220 0.68128
 C1870 C 0.29629 0.60091 0.68576
 C1871 C 0.29489 0.58449 0.70223
 C1872 C 0.28224 0.58162 0.70069
 C1873 C 0.27723 0.57079 0.70584
 C1874 C 0.28475 0.56262 0.71268
 C1875 C 0.29746 0.56533 0.71398
 C1876 C 0.30248 0.57614 0.70879
 C1877 C 0.27908 0.55197 0.71933
 C1878 C 0.28207 0.54983 0.73178
 C1879 C 0.27546 0.54107 0.73867
 C1880 C 0.26587 0.53418 0.73320
 C1881 C 0.26331 0.53573 0.72061
 C1882 C 0.26984 0.54461 0.71372
 H1883 H 0.31140 0.60022 0.71340
 H1884 H 0.31955 0.61983 0.70560
 H1885 H 0.29788 0.61532 0.67228
 H1886 H 0.28987 0.59567 0.68008
 H1887 H 0.27610 0.58797 0.69587
 H1888 H 0.26736 0.56908 0.70490
 H1889 H 0.30348 0.55913 0.71912
 H1890 H 0.31230 0.57799 0.70997
 H1891 H 0.28902 0.55545 0.73639
 H1892 H 0.27744 0.54006 0.74843
 H1893 H 0.25582 0.53057 0.71631
 H1894 H 0.26742 0.54601 0.70411
 C1895 C 0.30139 1.09628 0.19872
 C1896 C 0.29480 1.10291 0.18964
 C1897 C 0.29938 1.11416 0.18504
 C1898 C 0.31063 1.11910 0.18943
 C1899 C 0.31719 1.11252 0.19857
 C1900 C 0.31263 1.10123 0.20315
 C1901 C 0.29641 1.08438 0.20367
 C1902 C 0.29720 1.08165 0.21635
 C1903 C 0.29180 1.07084 0.22112
 C1904 C 0.28543 1.06255 0.21333
 C1905 C 0.28493 1.06507 0.20062
 C1906 C 0.29041 1.07584 0.19583
 C1907 C 0.27845 1.05194 0.21864
 C1908 C 0.26597 1.05005 0.21531
 C1909 C 0.25873 1.04131 0.22158
 C1910 C 0.26391 1.03416 0.23112
 C1911 C 0.27655 1.03548 0.23398
 C1912 C 0.28376 1.04438 0.22783
 H1913 H 0.28599 1.09949 0.18622
 H1914 H 0.29399 1.11904 0.17813
 H1915 H 0.32596 1.11595 0.20208
 H1916 H 0.31799 1.09628 0.21004
 H1917 H 0.30160 1.08811 0.22266
 H1918 H 0.29212 1.06923 0.23099
 H1919 H 0.28017 1.05877 0.19441
 H1920 H 0.28988 1.07753 0.18599
 H1921 H 0.26162 1.05584 0.20836
 H1922 H 0.24895 1.04050 0.21938
 H1923 H 0.28063 1.03015 0.24144
 H1924 H 0.29337 1.04565 0.23053
 C1925 C 0.80097 0.59482 0.19600
 C1926 C 0.80673 0.60318 0.20421
 C1927 C 0.81180 0.61438 0.19991
 C1928 C 0.81109 0.61752 0.18734
 C1929 C 0.80555 0.60907 0.17912
 C1930 C 0.80061 0.59784 0.18338
 C1931 C 0.79489 0.58326 0.20063
 C1932 C 0.78364 0.57915 0.19543
 C1933 C 0.77749 0.56875 0.20019
 C1934 C 0.78236 0.56224 0.21035
 C1935 C 0.79380 0.56611 0.21533
 C1936 C 0.80000 0.57648 0.21052
 C1937 C 0.77504 0.55217 0.21639
 C1938 C 0.78092 0.54170 0.22161
 C1939 C 0.77411 0.53312 0.22862
 C1940 C 0.76133 0.53488 0.23058
 C1941 C 0.75535 0.54491 0.22474
 C1942 C 0.76212 0.55346 0.21777
 H1943 H 0.80701 0.60126 0.21402
 H1944 H 0.81593 0.62074 0.20649
 H1945 H 0.80506 0.61110 0.16934
 H1946 H 0.79650 0.59151 0.17675
 H1947 H 0.77933 0.58422 0.18792
 H1948 H 0.76878 0.56594 0.19603
 H1949 H 0.79775 0.56141 0.22326
 H1950 H 0.80872 0.57928 0.21465
 H1951 H 0.79083 0.54034 0.22055
 H1952 H 0.77895 0.52549 0.23307
 H1953 H 0.74548 0.54642 0.22602
 H1954 H 0.75728 0.56145 0.21400
 C1955 C 0.80374 1.09475 0.69962
 C1956 C 0.79551 1.10275 0.69335
 C1957 C 0.79980 1.11384 0.68804
 C1958 C 0.81236 1.11723 0.68901
 C1959 C 0.82060 1.10919 0.69513
 C1960 C 0.81636 1.09805 0.70030
 C1961 C 0.79912 1.08325 0.70579
 C1962 C 0.78951 1.07612 0.70054
 C1963 C 0.78469 1.06578 0.70676
 C1964 C 0.78939 1.06227 0.71838
 C1965 C 0.79928 1.06914 0.72342
 C1966 C 0.80404 1.07952 0.71724
 C1967 C 0.78332 1.05219 0.72563
 C1968 C 0.78148 1.05366 0.73840
 C1969 C 0.77447 1.04504 0.74506
 C1970 C 0.76906 1.03476 0.73911
 C1971 C 0.77148 1.03283 0.72651
 C1972 C 0.77852 1.04149 0.71982
 H1973 H 0.78570 1.10063 0.69281
 H1974 H 0.79320 1.11990 0.68347
 H1975 H 0.83038 1.11143 0.69584
 H1976 H 0.82301 1.09201 0.70481
 H1977 H 0.78563 1.07861 0.69165
 H1978 H 0.77696 1.06081 0.70268
 H1979 H 0.80322 1.06662 0.73227
 H1980 H 0.81133 1.08485 0.72165
 H1981 H 0.78490 1.06183 0.74317
 H1982 H 0.77283 1.04668 0.75479
 H1983 H 0.76736 1.02501 0.72170
 H1984 H 0.77993 1.03998 0.71003
 C1985 C 0.69942 0.59580 0.30325
 C1986 C 0.70379 0.60100 0.31432
 C1987 C 0.69903 0.61228 0.31866
 C1988 C 0.68977 0.61868 0.31203
 C1989 C 0.68539 0.61346 0.30095
 C1990 C 0.69015 0.60215 0.29661
 C1991 C 0.70471 0.58396 0.29848
 C1992 C 0.69702 0.57496 0.29297
 C1993 C 0.70211 0.56416 0.28785
 C1994 C 0.71501 0.56211 0.28813
 C1995 C 0.72266 0.57091 0.29400
 C1996 C 0.71757 0.58172 0.29910
 C1997 C 0.72062 0.55151 0.28133
 C1998 C 0.73081 0.54491 0.28620
 C1999 C 0.73714 0.53615 0.27896
 C2000 C 0.73343 0.53399 0.26674
 C2001 C 0.72292 0.54011 0.26208
 C2002 C 0.71652 0.54873 0.26932
 H2003 H 0.71083 0.59626 0.31971
 H2004 H 0.70259 0.61588 0.32728
 H2005 H 0.67837 0.61813 0.29551
 H2006 H 0.68675 0.59850 0.28793
 H2007 H 0.68706 0.57632 0.29254
 H2008 H 0.69599 0.55746 0.28350
 H2009 H 0.73265 0.56971 0.29416
 H2010 H 0.72376 0.58856 0.30312
 H2011 H 0.73409 0.54680 0.29546
 H2012 H 0.74533 0.53160 0.28264
 H2013 H 0.72001 0.53862 0.25262
 H2014 H 0.70882 0.55375 0.26525
 C2015 C 0.69797 1.09607 0.80100
 C2016 C 0.68837 1.10254 0.79501
 C2017 C 0.68376 1.11369 0.79985
 C2018 C 0.68868 1.11875 0.81084
 C2019 C 0.69833 1.11221 0.81680
 C2020 C 0.70285 1.10102 0.81198
 C2021 C 0.70308 1.08436 0.79570
 C2022 C 0.71591 1.08194 0.79623
 C2023 C 0.72082 1.07110 0.79105
 C2024 C 0.71305 1.06247 0.78512
 C2025 C 0.70023 1.06482 0.78458
 C2026 C 0.69528 1.07563 0.78988
 C2027 C 0.71855 1.05147 0.77892
 C2028 C 0.71536 1.04860 0.76665
 C2029 C 0.72210 1.03965 0.76008
 C2030 C 0.73194 1.03330 0.76577
 C2031 C 0.73460 1.03555 0.77823
 C2032 C 0.72796 1.04457 0.78476
 H2033 H 0.68454 1.09910 0.78642
 H2034 H 0.67643 1.11832 0.79481
 H2035 H 0.70240 1.11554 0.82529
 H2036 H 0.71011 1.09617 0.81695
 H2037 H 0.72223 1.08858 0.80036
 H2038 H 0.73078 1.06966 0.79134
 H2039 H 0.69404 1.05828 0.78009
 H2040 H 0.68534 1.07713 0.78945
 H2041 H 0.70822 1.05386 0.76191
 H2042 H 0.72013 1.03818 0.75039
 H2043 H 0.74233 1.03087 0.78267
 H2044 H 0.73052 1.04654 0.79424
 C2045 C 0.19887 0.59604 0.80158
 C2046 C 0.20237 0.60033 0.81333
 C2047 C 0.19773 0.61157 0.81791
 C2048 C 0.18946 0.61880 0.81087
 C2049 C 0.18592 0.61448 0.79913
 C2050 C 0.19057 0.60324 0.79454
 C2051 C 0.20408 0.58426 0.79656
 C2052 C 0.19663 0.57612 0.78960
 C2053 C 0.20173 0.56540 0.78430
 C2054 C 0.21438 0.56257 0.78590
 C2055 C 0.22174 0.57051 0.79316
 C2056 C 0.21666 0.58125 0.79840
 C2057 C 0.22017 0.55205 0.77916
 C2058 C 0.22908 0.54438 0.78488
 C2059 C 0.23569 0.53556 0.77798
 C2060 C 0.23355 0.53441 0.76526
 C2061 C 0.22429 0.54165 0.75966
 C2062 C 0.21760 0.55033 0.76655
 H2063 H 0.20862 0.59492 0.81905
 H2064 H 0.20059 0.61449 0.82704
 H2065 H 0.17968 0.61983 0.79337
 H2066 H 0.18787 0.60030 0.78536
 H2067 H 0.18686 0.57806 0.78818
 H2068 H 0.19583 0.55937 0.77884
 H2069 H 0.23157 0.56870 0.79434
 H2070 H 0.22270 0.58744 0.80354
 H2071 H 0.23117 0.54547 0.79460
 H2072 H 0.24290 0.53011 0.78240
 H2073 H 0.22262 0.54093 0.74982
 H2074 H 0.21090 0.55619 0.76187
 C2075 C 0.19841 1.09611 0.30099
 C2076 C 0.20178 1.10007 0.31289
 C2077 C 0.19737 1.11137 0.31759
 C2078 C 0.18948 1.11897 0.31049
 C2079 C 0.18613 1.11500 0.29858
 C2080 C 0.19055 1.10372 0.29389
 C2081 C 0.20326 1.08423 0.29585
 C2082 C 0.19566 1.07658 0.28850
 C2083 C 0.20047 1.06588 0.28293
 C2084 C 0.21297 1.06255 0.28465
 C2085 C 0.22046 1.06992 0.29235
 C2086 C 0.21567 1.08066 0.29787
 C2087 C 0.21851 1.05212 0.27757
 C2088 C 0.22689 1.04379 0.28316
 C2089 C 0.23330 1.03501 0.27604
 C2090 C 0.23154 1.03456 0.26321
 C2091 C 0.22277 1.04247 0.25771
 C2092 C 0.21625 1.05111 0.26483
 H2093 H 0.20772 1.09436 0.31865
 H2094 H 0.20007 1.11404 0.32683
 H2095 H 0.18022 1.12066 0.29276
 H2096 H 0.18799 1.10107 0.28458
 H2097 H 0.18600 1.07894 0.28695
 H2098 H 0.19447 1.06028 0.27713
 H2099 H 0.23018 1.06769 0.29367
 H2100 H 0.22182 1.08644 0.30333
 H2101 H 0.22873 1.04434 0.29298
 H2102 H 0.24012 1.02905 0.28042
 H2103 H 0.22133 1.04229 0.24781
 H2104 H 0.20994 1.05748 0.26026
 C2105 C 0.69871 0.40573 0.69586
 C2106 C 0.69320 0.39727 0.70415
 C2107 C 0.68805 0.38609 0.69990
 C2108 C 0.68842 0.38306 0.68729
 C2109 C 0.69373 0.39160 0.67898
 C2110 C 0.69874 0.40281 0.68320
 C2111 C 0.70483 0.41731 0.70040
 C2112 C 0.71587 0.42160 0.69489
 C2113 C 0.72201 0.43207 0.69950
 C2114 C 0.71737 0.43847 0.70984
 C2115 C 0.70615 0.43440 0.71516
 C2116 C 0.69994 0.42396 0.71049
 C2117 C 0.72472 0.44863 0.71568
 C2118 C 0.71886 0.45895 0.72121
 C2119 C 0.72575 0.46755 0.72812
 C2120 C 0.73861 0.46596 0.72965
 C2121 C 0.74456 0.45613 0.72347
 C2122 C 0.73771 0.44756 0.71660
 H2123 H 0.69318 0.39909 0.71398
 H2124 H 0.68412 0.37965 0.70653
 H2125 H 0.69398 0.38965 0.66918
 H2126 H 0.70265 0.40921 0.67651
 H2127 H 0.72001 0.41664 0.68722
 H2128 H 0.73054 0.43502 0.69508
 H2129 H 0.70237 0.43900 0.72323
 H2130 H 0.69138 0.42104 0.71486
 H2131 H 0.70889 0.46016 0.72051
 H2132 H 0.72093 0.47501 0.73285
 H2133 H 0.75448 0.45474 0.72445
 H2134 H 0.74255 0.43970 0.71258
 C2135 C 0.69749 -0.09620 0.19963
 C2136 C 0.70434 -0.10283 0.19074
 C2137 C 0.69979 -0.11396 0.18582
 C2138 C 0.68827 -0.11876 0.18968
 C2139 C 0.68143 -0.11214 0.19860
 C2140 C 0.68598 -0.10100 0.20351
 C2141 C 0.70243 -0.08445 0.20497
 C2142 C 0.70116 -0.08193 0.21765
 C2143 C 0.70639 -0.07120 0.22278
 C2144 C 0.71305 -0.06278 0.21536
 C2145 C 0.71405 -0.06513 0.20264
 C2146 C 0.70878 -0.07583 0.19749
 C2147 C 0.71983 -0.05224 0.22109
 C2148 C 0.73230 -0.05005 0.21791
 C2149 C 0.73933 -0.04135 0.22444
 C2150 C 0.73400 -0.03457 0.23415
 C2151 C 0.72138 -0.03620 0.23693
 C2152 C 0.71435 -0.04504 0.23048
 H2153 H 0.71336 -0.09951 0.18773
 H2154 H 0.70540 -0.11885 0.17910
 H2155 H 0.67247 -0.11546 0.20173
 H2156 H 0.68041 -0.09605 0.21024
 H2157 H 0.69650 -0.08846 0.22369
 H2158 H 0.70569 -0.06976 0.23265
 H2159 H 0.71905 -0.05874 0.19669
 H2160 H 0.70971 -0.07739 0.18766
 H2161 H 0.73681 -0.05555 0.21082
 H2162 H 0.74910 -0.04026 0.22226
 H2163 H 0.71716 -0.03112 0.24449
 H2164 H 0.70473 -0.04651 0.23307
 C2165 C 0.19893 0.40383 0.19849
 C2166 C 0.20291 0.39936 0.18695
 C2167 C 0.19831 0.38815 0.18227
 C2168 C 0.18959 0.38113 0.18900
 C2169 C 0.18560 0.38562 0.20053
 C2170 C 0.19021 0.39683 0.20522
 C2171 C 0.20408 0.41557 0.20363
 C2172 C 0.19644 0.42393 0.21015
 C2173 C 0.20146 0.43467 0.21549
 C2174 C 0.21419 0.43730 0.21436
 C2175 C 0.22177 0.42910 0.20761
 C2176 C 0.21678 0.41834 0.20233
 C2177 C 0.21981 0.44802 0.22092
 C2178 C 0.22898 0.45534 0.21517
 C2179 C 0.23553 0.46428 0.22193
 C2180 C 0.23304 0.46597 0.23452
 C2181 C 0.22351 0.45912 0.24014
 C2182 C 0.21686 0.45028 0.23337
 H2183 H 0.20951 0.40460 0.18147
 H2184 H 0.20153 0.38509 0.17330
 H2185 H 0.17901 0.38044 0.20606
 H2186 H 0.18713 0.39990 0.21424
 H2187 H 0.18659 0.42215 0.21114
 H2188 H 0.19540 0.44089 0.22056
 H2189 H 0.23166 0.43076 0.20681
 H2190 H 0.22295 0.41199 0.19756
 H2191 H 0.23137 0.45385 0.20557
 H2192 H 0.24301 0.46938 0.21753
 H2193 H 0.22163 0.46020 0.24991
 H2194 H 0.20993 0.44469 0.23806
 C2195 C 0.19860 -0.09612 0.69873
 C2196 C 0.19034 -0.10354 0.70558
 C2197 C 0.18587 -0.11476 0.70080
 C2198 C 0.18954 -0.11887 0.68902
 C2199 C 0.19786 -0.11148 0.68218
 C2200 C 0.20232 -0.10024 0.68697
 C2201 C 0.20348 -0.08430 0.70398
 C2202 C 0.21600 -0.08094 0.70232
 C2203 C 0.22078 -0.07022 0.70791
 C2204 C 0.21316 -0.06269 0.71534
 C2205 C 0.20059 -0.06585 0.71675
 C2206 C 0.19578 -0.07651 0.71109
 C2207 C 0.21861 -0.05217 0.72235
 C2208 C 0.21627 -0.05101 0.73507
 C2209 C 0.22275 -0.04227 0.74212
 C2210 C 0.23148 -0.03438 0.73653
 C2211 C 0.23330 -0.03499 0.72372
 C2212 C 0.22698 -0.04389 0.71668
 H2213 H 0.18749 -0.10079 0.71478
 H2214 H 0.17963 -0.12023 0.70644
 H2215 H 0.20085 -0.11427 0.67305
 H2216 H 0.20859 -0.09469 0.68140
 H2217 H 0.22223 -0.08683 0.69707
 H2218 H 0.23056 -0.06811 0.70683
 H2219 H 0.19450 -0.06011 0.72234
 H2220 H 0.18604 -0.07870 0.71235
 H2221 H 0.20995 -0.05735 0.73968
 H2222 H 0.22135 -0.04201 0.75202
 H2223 H 0.24015 -0.02909 0.71930
 H2224 H 0.22889 -0.04456 0.70688
 C2225 C 0.30152 0.30051 0.40391
 C2226 C 0.31314 0.29671 0.39936
 C2227 C 0.31765 0.30136 0.38817
 C2228 C 0.31065 0.30995 0.38125
 C2229 C 0.29902 0.31376 0.38582
 C2230 C 0.29451 0.30909 0.39701
 C2231 C 0.29660 0.29535 0.41567
 C2232 C 0.29005 0.30296 0.42400
 C2233 C 0.28488 0.29793 0.43474
 C2234 C 0.28618 0.28519 0.43741
 C2235 C 0.29301 0.27765 0.42927
 C2236 C 0.29815 0.28266 0.41851
 C2237 C 0.27959 0.27952 0.44805
 C2238 C 0.28532 0.27030 0.45533
 C2239 C 0.27848 0.26377 0.46422
 C2240 C 0.26581 0.26632 0.46586
 C2241 C 0.26022 0.27588 0.45903
 C2242 C 0.26706 0.28249 0.45026
 H2243 H 0.31883 0.29023 0.40452
 H2244 H 0.32669 0.29830 0.38506
 H2245 H 0.29329 0.32023 0.38071
 H2246 H 0.28542 0.31203 0.40015
 H2247 H 0.28889 0.31281 0.42218
 H2248 H 0.27975 0.30397 0.44092
 H2249 H 0.29396 0.26775 0.43096
 H2250 H 0.30296 0.27651 0.41220
 H2251 H 0.29498 0.26789 0.45387
 H2252 H 0.28287 0.25629 0.46932
 H2253 H 0.25040 0.27782 0.46009
 H2254 H 0.26236 0.28943 0.44470
 C2255 C 0.30204 0.79954 -0.09703
 C2256 C 0.31364 0.79568 -0.10162
 C2257 C 0.31812 0.80026 -0.11286
 C2258 C 0.31111 0.80883 -0.11979
 C2259 C 0.29947 0.81262 -0.11523
 C2260 C 0.29499 0.80803 -0.10400
 C2261 C 0.29719 0.79459 -0.08514
 C2262 C 0.29064 0.80235 -0.07694
 C2263 C 0.28546 0.79751 -0.06611
 C2264 C 0.28676 0.78483 -0.06321
 C2265 C 0.29362 0.77715 -0.07121
 C2266 C 0.29875 0.78196 -0.08206
 C2267 C 0.28014 0.77935 -0.05247
 C2268 C 0.28585 0.77026 -0.04502
 C2269 C 0.27897 0.76388 -0.03604
 C2270 C 0.26630 0.76645 -0.03447
 C2271 C 0.26075 0.77592 -0.04146
 C2272 C 0.26762 0.78238 -0.05033
 H2273 H 0.31935 0.78925 -0.09642
 H2274 H 0.32716 0.79721 -0.11599
 H2275 H 0.29372 0.81906 -0.12036
 H2276 H 0.28591 0.81099 -0.10086
 H2277 H 0.28946 0.81216 -0.07894
 H2278 H 0.28032 0.80367 -0.06005
 H2279 H 0.29457 0.76728 -0.06934
 H2280 H 0.30357 0.77570 -0.08826
 H2281 H 0.29551 0.76781 -0.04643
 H2282 H 0.28335 0.75648 -0.03082
 H2283 H 0.25092 0.77789 -0.04046
 H2284 H 0.26294 0.78923 -0.05600
 C2285 C 0.80120 0.30076 -0.09567
 C2286 C 0.81294 0.29711 -0.10005
 C2287 C 0.81752 0.30175 -0.11122
 C2288 C 0.81046 0.31016 -0.11829
 C2289 C 0.79870 0.31379 -0.11390
 C2290 C 0.79413 0.30914 -0.10274
 C2291 C 0.79620 0.29566 -0.08392
 C2292 C 0.78932 0.30325 -0.07583
 C2293 C 0.78403 0.29827 -0.06512
 C2294 C 0.78559 0.28561 -0.06223
 C2295 C 0.79274 0.27810 -0.07013
 C2296 C 0.79796 0.28306 -0.08087
 C2297 C 0.77901 0.27998 -0.05158
 C2298 C 0.78497 0.27118 -0.04399
 C2299 C 0.77823 0.26458 -0.03510
 C2300 C 0.76544 0.26662 -0.03374
 C2301 C 0.75958 0.27579 -0.04088
 C2302 C 0.76634 0.28250 -0.04966
 H2303 H 0.81868 0.29078 -0.09475
 H2304 H 0.82666 0.29884 -0.11421
 H2305 H 0.79292 0.32012 -0.11913
 H2306 H 0.78494 0.31194 -0.09975
 H2307 H 0.78798 0.31305 -0.07781
 H2308 H 0.77865 0.30428 -0.05913
 H2309 H 0.79388 0.26826 -0.06825
 H2310 H 0.80303 0.27692 -0.08700
 H2311 H 0.79475 0.26913 -0.04524
 H2312 H 0.78283 0.25740 -0.02976
 H2313 H 0.74967 0.27733 -0.04004
 H2314 H 0.76148 0.28913 -0.05546
 C2315 C 0.80107 0.80067 0.40405
 C2316 C 0.81283 0.79700 0.39972
 C2317 C 0.81745 0.80160 0.38855
 C2318 C 0.81045 0.81002 0.38144
 C2319 C 0.79869 0.81370 0.38578
 C2320 C 0.79406 0.80907 0.39694
 C2321 C 0.79604 0.79560 0.41581
 C2322 C 0.78915 0.80320 0.42388
 C2323 C 0.78389 0.79824 0.43463
 C2324 C 0.78549 0.78560 0.43759
 C2325 C 0.79263 0.77808 0.42969
 C2326 C 0.79783 0.78301 0.41892
 C2327 C 0.77899 0.78000 0.44833
 C2328 C 0.78499 0.77121 0.45589
 C2329 C 0.77833 0.76467 0.46489
 C2330 C 0.76557 0.76678 0.46641
 C2331 C 0.75968 0.77596 0.45930
 C2332 C 0.76635 0.78259 0.45040
 H2333 H 0.81854 0.79066 0.40504
 H2334 H 0.82660 0.79866 0.38559
 H2335 H 0.79295 0.82003 0.38051
 H2336 H 0.78487 0.81190 0.39989
 H2337 H 0.78779 0.81298 0.42187
 H2338 H 0.77852 0.80427 0.44061
 H2339 H 0.79381 0.76825 0.43161
 H2340 H 0.80290 0.77685 0.41282
 H2341 H 0.79474 0.76910 0.45454
 H2342 H 0.78295 0.75747 0.47019
 H2343 H 0.74978 0.77754 0.46023
 H2344 H 0.76146 0.78921 0.44463
 C2345 C 0.69830 0.30054 0.59613
 C2346 C 0.70514 0.30942 0.60281
 C2347 C 0.70060 0.31419 0.61393
 C2348 C 0.68910 0.31019 0.61866
 C2349 C 0.68228 0.30127 0.61199
 C2350 C 0.68682 0.29651 0.60086
 C2351 C 0.70325 0.29533 0.58440
 C2352 C 0.70202 0.28257 0.58178
 C2353 C 0.70717 0.27753 0.57104
 C2354 C 0.71370 0.28514 0.56270
 C2355 C 0.71470 0.29794 0.56517
 C2356 C 0.70951 0.30299 0.57590
 C2357 C 0.72024 0.27950 0.55201
 C2358 C 0.73262 0.28279 0.54947
 C2359 C 0.73945 0.27624 0.54064
 C2360 C 0.73397 0.26643 0.53408
 C2361 C 0.72143 0.26355 0.53606
 C2362 C 0.71460 0.27003 0.54499
 H2363 H 0.71413 0.31253 0.59954
 H2364 H 0.70620 0.32091 0.61886
 H2365 H 0.67334 0.29805 0.61525
 H2366 H 0.68126 0.28979 0.59586
 H2367 H 0.69743 0.27638 0.58823
 H2368 H 0.70647 0.26759 0.56950
 H2369 H 0.71959 0.30403 0.55884
 H2370 H 0.71042 0.31289 0.57755
 H2371 H 0.73725 0.28994 0.55482
 H2372 H 0.74919 0.27842 0.53933
 H2373 H 0.71713 0.25586 0.53119
 H2374 H 0.70504 0.26737 0.54671
 C2375 C 0.69677 0.80309 1.09424
 C2376 C 0.69697 0.81588 1.09711
 C2377 C 0.69263 0.82016 1.10851
 C2378 C 0.68776 0.81181 1.11722
 C2379 C 0.68729 0.79908 1.11432
 C2380 C 0.69185 0.79475 1.10302
 C2381 C 0.70217 0.79841 1.08242
 C2382 C 0.69729 0.78779 1.07654
 C2383 C 0.70311 0.78276 1.06611
 C2384 C 0.71388 0.78830 1.06122
 C2385 C 0.71831 0.79933 1.06667
 C2386 C 0.71263 0.80423 1.07719
 C2387 C 0.72117 0.78198 1.05134
 C2388 C 0.73422 0.78209 1.05185
 C2389 C 0.74123 0.77509 1.04357
 C2390 C 0.73542 0.76763 1.03463
 C2391 C 0.72242 0.76794 1.03361
 C2392 C 0.71534 0.77505 1.04191
 H2393 H 0.70043 0.82263 1.09054
 H2394 H 0.69293 0.83005 1.11043
 H2395 H 0.68370 0.79241 1.12093
 H2396 H 0.69180 0.78482 1.10131
 H2397 H 0.68909 0.78320 1.08012
 H2398 H 0.69945 0.77423 1.06223
 H2399 H 0.72642 0.80402 1.06301
 H2400 H 0.71677 0.81234 1.08147
 H2401 H 0.73908 0.78712 1.05904
 H2402 H 0.75126 0.77515 1.04445
 H2403 H 0.71773 0.76228 1.02678
 H2404 H 0.70532 0.77491 1.04112
 C2405 C 0.19860 0.30068 1.09569
 C2406 C 0.18676 0.29720 1.09995
 C2407 C 0.18223 0.30172 1.11119
 C2408 C 0.18942 0.30985 1.11843
 C2409 C 0.20128 0.31330 1.11419
 C2410 C 0.20582 0.30876 1.10296
 C2411 C 0.20354 0.29572 1.08385
 C2412 C 0.21063 0.30333 1.07596
 C2413 C 0.21595 0.29844 1.06524
 C2414 C 0.21423 0.28586 1.06212
 C2415 C 0.20680 0.27835 1.06977
 C2416 C 0.20153 0.28322 1.08053
 C2417 C 0.22106 0.28025 1.05162
 C2418 C 0.21526 0.27165 1.04369
 C2419 C 0.22223 0.26513 1.03488
 C2420 C 0.23509 0.26703 1.03401
 C2421 C 0.24078 0.27601 1.04152
 C2422 C 0.23382 0.28263 1.05018
 H2423 H 0.18092 0.29110 1.09450
 H2424 H 0.17301 0.29895 1.11407
 H2425 H 0.20716 0.31939 1.11958
 H2426 H 0.21508 0.31142 1.10008
 H2427 H 0.21214 0.31306 1.07813
 H2428 H 0.22155 0.30445 1.05944
 H2429 H 0.20551 0.26857 1.06772
 H2430 H 0.19627 0.27707 1.08649
 H2431 H 0.20543 0.26970 1.04458
 H2432 H 0.21772 0.25813 1.02924
 H2433 H 0.25072 0.27750 1.04102
 H2434 H 0.23856 0.28909 1.05624
 C2435 C 0.19677 0.80043 0.59517
 C2436 C 0.20371 0.80940 0.60164
 C2437 C 0.19947 0.81408 0.61293
 C2438 C 0.18819 0.80991 0.61803
 C2439 C 0.18128 0.80091 0.61154
 C2440 C 0.18552 0.79623 0.60026
 C2441 C 0.20143 0.79527 0.58331
 C2442 C 0.20051 0.78246 0.58081
 C2443 C 0.20564 0.77747 0.57003
 C2444 C 0.21182 0.78517 0.56153
 C2445 C 0.21235 0.79805 0.56381
 C2446 C 0.20721 0.80304 0.57458
 C2447 C 0.21877 0.77962 0.55104
 C2448 C 0.23098 0.78354 0.54861
 C2449 C 0.23832 0.77717 0.54008
 C2450 C 0.23357 0.76685 0.53371
 C2451 C 0.22115 0.76333 0.53553
 C2452 C 0.21381 0.76964 0.54419
 H2453 H 0.21254 0.81264 0.59808
 H2454 H 0.20514 0.82087 0.61769
 H2455 H 0.17251 0.79752 0.61506
 H2456 H 0.17992 0.78941 0.59544
 H2457 H 0.19626 0.77620 0.58742
 H2458 H 0.20527 0.76748 0.56864
 H2459 H 0.21694 0.80423 0.55734
 H2460 H 0.20785 0.81299 0.57613
 H2461 H 0.23512 0.79108 0.55382
 H2462 H 0.24793 0.77994 0.53885
 H2463 H 0.21738 0.75531 0.53077
 H2464 H 0.20439 0.76649 0.54583
 C2465 C 0.30437 0.69996 0.59456
 C2466 C 0.29603 0.69411 0.60274
 C2467 C 0.30024 0.68902 0.61388
 C2468 C 0.31283 0.68981 0.61717
 C2469 C 0.32118 0.69554 0.60897
 C2470 C 0.31702 0.70048 0.59778
 C2471 C 0.29983 0.70590 0.58297
 C2472 C 0.30511 0.71712 0.57877
 C2473 C 0.30043 0.72312 0.56831
 C2474 C 0.29024 0.71817 0.56185
 C2475 C 0.28519 0.70676 0.56581
 C2476 C 0.28995 0.70069 0.57622
 C2477 C 0.28424 0.72539 0.55174
 C2478 C 0.27891 0.71938 0.54147
 C2479 C 0.27187 0.72613 0.53287
 C2480 C 0.27002 0.73898 0.53443
 C2481 C 0.27599 0.74508 0.54424
 C2482 C 0.28297 0.73838 0.55281
 H2483 H 0.28619 0.69373 0.60070
 H2484 H 0.29357 0.68474 0.62005
 H2485 H 0.33098 0.69609 0.61114
 H2486 H 0.32375 0.70466 0.59162
 H2487 H 0.31263 0.72151 0.58378
 H2488 H 0.30466 0.73180 0.56543
 H2489 H 0.27725 0.70274 0.56116
 H2490 H 0.28578 0.69197 0.57905
 H2491 H 0.27987 0.70942 0.54027
 H2492 H 0.26731 0.72120 0.52542
 H2493 H 0.27478 0.75501 0.54560
 H2494 H 0.28680 0.74332 0.56064
 C2495 C 0.30157 0.19975 1.09620
 C2496 C 0.31262 0.20444 1.10131
 C2497 C 0.31738 0.19949 1.11226
 C2498 C 0.31122 0.18973 1.11838
 C2499 C 0.30014 0.18506 1.11327
 C2500 C 0.29538 0.19001 1.10231
 C2501 C 0.29647 0.20513 1.08462
 C2502 C 0.29124 0.19743 1.07550
 C2503 C 0.28622 0.20257 1.06473
 C2504 C 0.28636 0.21553 1.06285
 C2505 C 0.29172 0.22320 1.07191
 C2506 C 0.29671 0.21807 1.08266
 C2507 C 0.28021 0.22118 1.05194
 C2508 C 0.28549 0.23154 1.04595
 C2509 C 0.27882 0.23801 1.03692
 C2510 C 0.26681 0.23416 1.03370
 C2511 C 0.26178 0.22345 1.03914
 C2512 C 0.26844 0.21695 1.04814
 H2513 H 0.31769 0.21184 1.09674
 H2514 H 0.32598 0.20327 1.11581
 H2515 H 0.29504 0.17767 1.11779
 H2516 H 0.28672 0.18636 1.09872
 H2517 H 0.29108 0.18741 1.07667
 H2518 H 0.28223 0.19643 1.05787
 H2519 H 0.29169 0.23323 1.07087
 H2520 H 0.30047 0.22427 1.08961
 H2521 H 0.29460 0.23491 1.04859
 H2522 H 0.28274 0.24638 1.03291
 H2523 H 0.25241 0.22052 1.03689
 H2524 H 0.26407 0.20909 1.05266
 C2525 C 0.80412 0.69790 1.09404
 C2526 C 0.79574 0.69260 1.10255
 C2527 C 0.79997 0.68779 1.11379
 C2528 C 0.81262 0.68835 1.11687
 C2529 C 0.82101 0.69356 1.10839
 C2530 C 0.81684 0.69816 1.09707
 C2531 C 0.79958 0.70359 1.08232
 C2532 C 0.80526 0.71437 1.07756
 C2533 C 0.80054 0.72023 1.06705
 C2534 C 0.78988 0.71562 1.06112
 C2535 C 0.78443 0.70460 1.06560
 C2536 C 0.78925 0.69863 1.07604
 C2537 C 0.78380 0.72292 1.05111
 C2538 C 0.77763 0.71701 1.04125
 C2539 C 0.77059 0.72397 1.03283
 C2540 C 0.76957 0.73694 1.03417
 C2541 C 0.77632 0.74289 1.04355
 C2542 C 0.78331 0.73598 1.05193
 H2543 H 0.78586 0.69246 1.10068
 H2544 H 0.79328 0.68392 1.12021
 H2545 H 0.83085 0.69392 1.11044
 H2546 H 0.82361 0.70190 1.09067
 H2547 H 0.81312 0.71858 1.08219
 H2548 H 0.80510 0.72858 1.06375
 H2549 H 0.77614 0.70084 1.06135
 H2550 H 0.78476 0.69022 1.07928
 H2551 H 0.77797 0.70698 1.04025
 H2552 H 0.76541 0.71918 1.02569
 H2553 H 0.77573 0.75289 1.04473
 H2554 H 0.78778 0.74087 1.05946
 C2555 C 0.80060 0.19876 0.59628
 C2556 C 0.79356 0.19032 0.60334
 C2557 C 0.79814 0.18568 0.61452
 C2558 C 0.80987 0.18937 0.61892
 C2559 C 0.81690 0.19781 0.61184
 C2560 C 0.81233 0.20243 0.60067
 C2561 C 0.79564 0.20388 0.58452
 C2562 C 0.79744 0.21649 0.58147
 C2563 C 0.79231 0.22147 0.57070
 C2564 C 0.78520 0.21397 0.56275
 C2565 C 0.78362 0.20131 0.56563
 C2566 C 0.78881 0.19631 0.57638
 C2567 C 0.77862 0.21963 0.55210
 C2568 C 0.76600 0.21696 0.55011
 C2569 C 0.75922 0.22359 0.54131
 C2570 C 0.76497 0.23287 0.53421
 C2571 C 0.77773 0.23508 0.53564
 C2572 C 0.78451 0.22854 0.54457
 H2573 H 0.78440 0.18748 0.60034
 H2574 H 0.79240 0.17931 0.61976
 H2575 H 0.82602 0.20077 0.61481
 H2576 H 0.81806 0.20878 0.59538
 H2577 H 0.80248 0.22263 0.58762
 H2578 H 0.79347 0.23131 0.56884
 H2579 H 0.77828 0.19530 0.55961
 H2580 H 0.78746 0.18652 0.57834
 H2581 H 0.76119 0.21025 0.55586
 H2582 H 0.74933 0.22189 0.54042
 H2583 H 0.78226 0.24233 0.53034
 H2584 H 0.79425 0.23072 0.54586
 C2585 C 0.69909 0.69980 0.40406
 C2586 C 0.70591 0.69121 0.39700
 C2587 C 0.70125 0.68673 0.38581
 C2588 C 0.68963 0.69073 0.38138
 C2589 C 0.68284 0.69940 0.38840
 C2590 C 0.68752 0.70388 0.39961
 C2591 C 0.70418 0.70462 0.41589
 C2592 C 0.70291 0.71726 0.41902
 C2593 C 0.70831 0.72194 0.42980
 C2594 C 0.71514 0.71410 0.43766
 C2595 C 0.71619 0.70141 0.43470
 C2596 C 0.71072 0.69671 0.42396
 C2597 C 0.72193 0.71939 0.44835
 C2598 C 0.73451 0.71641 0.45022
 C2599 C 0.74149 0.72276 0.45909
 C2600 C 0.73594 0.73199 0.46640
 C2601 C 0.72322 0.73447 0.46508
 C2602 C 0.71627 0.72826 0.45608
 H2603 H 0.71498 0.68808 0.40003
 H2604 H 0.70686 0.68022 0.38062
 H2605 H 0.67384 0.70265 0.38537
 H2606 H 0.68198 0.71041 0.40488
 H2607 H 0.69810 0.72364 0.41292
 H2608 H 0.70755 0.73181 0.43174
 H2609 H 0.72131 0.69515 0.44066
 H2610 H 0.71167 0.68688 0.42193
 H2611 H 0.73914 0.70971 0.44433
 H2612 H 0.75135 0.72089 0.45987
 H2613 H 0.71886 0.74174 0.47051
 H2614 H 0.70657 0.73067 0.45486
 C2615 C 0.69959 0.19867 -0.09605
 C2616 C 0.68800 0.20274 -0.10047
 C2617 C 0.68327 0.19820 -0.11162
 C2618 C 0.69000 0.18946 -0.11862
 C2619 C 0.70160 0.18542 -0.11420
 C2620 C 0.70634 0.18997 -0.10306
 C2621 C 0.70474 0.20364 -0.08430
 C2622 C 0.71132 0.19584 -0.07616
 C2623 C 0.71673 0.20066 -0.06544
 C2624 C 0.71560 0.21337 -0.06258
 C2625 C 0.70876 0.22111 -0.07054
 C2626 C 0.70342 0.21630 -0.08129
 C2627 C 0.72227 0.21878 -0.05187
 C2628 C 0.71650 0.22769 -0.04427
 C2629 C 0.72334 0.23402 -0.03527
 C2630 C 0.73606 0.23161 -0.03381
 C2631 C 0.74172 0.22234 -0.04098
 C2632 C 0.73485 0.21588 -0.04987
 H2633 H 0.68250 0.20933 -0.09524
 H2634 H 0.67426 0.20147 -0.11465
 H2635 H 0.70715 0.17885 -0.11938
 H2636 H 0.71541 0.18684 -0.10005
 H2637 H 0.71231 0.18599 -0.07809
 H2638 H 0.72186 0.19448 -0.05940
 H2639 H 0.70795 0.23099 -0.06868
 H2640 H 0.69860 0.22261 -0.08745
 H2641 H 0.70680 0.23005 -0.04559
 H2642 H 0.71890 0.24132 -0.02994
 H2643 H 0.75158 0.22053 -0.04011
 H2644 H 0.73956 0.20916 -0.05567
 C2645 C 0.19850 0.69961 -0.09626
 C2646 C 0.18684 0.70340 -0.10073
 C2647 C 0.18230 0.69878 -0.11192
 C2648 C 0.18929 0.69024 -0.11890
 C2649 C 0.20096 0.68646 -0.11442
 C2650 C 0.20550 0.69109 -0.10323
 C2651 C 0.20346 0.70472 -0.08450
 C2652 C 0.21010 0.69708 -0.07627
 C2653 C 0.21537 0.70207 -0.06556
 C2654 C 0.21405 0.71479 -0.06281
 C2655 C 0.20711 0.72235 -0.07085
 C2656 C 0.20190 0.71738 -0.08158
 C2657 C 0.22073 0.72042 -0.05222
 C2658 C 0.21502 0.72954 -0.04480
 C2659 C 0.22192 0.73603 -0.03594
 C2660 C 0.23462 0.73355 -0.03446
 C2661 C 0.24019 0.72407 -0.04144
 C2662 C 0.23329 0.71750 -0.05018
 H2663 H 0.18116 0.70984 -0.09551
 H2664 H 0.17323 0.70182 -0.11497
 H2665 H 0.20669 0.68003 -0.11958
 H2666 H 0.21462 0.68817 -0.10016
 H2667 H 0.21128 0.68724 -0.07814
 H2668 H 0.22057 0.69601 -0.05946
 H2669 H 0.20615 0.73224 -0.06909
 H2670 H 0.19701 0.72356 -0.08781
 H2671 H 0.20533 0.73191 -0.04614
 H2672 H 0.21754 0.74343 -0.03072
 H2673 H 0.25004 0.72217 -0.04050
 H2674 H 0.23797 0.71063 -0.05584
 C2675 C 0.19829 0.19944 0.40392
 C2676 C 0.20534 0.19096 0.39693
 C2677 C 0.20082 0.18634 0.38573
 C2678 C 0.18915 0.19009 0.38124
 C2679 C 0.18212 0.19859 0.38823
 C2680 C 0.18663 0.20320 0.39943
 C2681 C 0.20321 0.20453 0.41570
 C2682 C 0.20159 0.21718 0.41864
 C2683 C 0.20676 0.22214 0.42940
 C2684 C 0.21370 0.21457 0.43744
 C2685 C 0.21507 0.20186 0.43466
 C2686 C 0.20985 0.19689 0.42392
 C2687 C 0.22035 0.22020 0.44805
 C2688 C 0.23292 0.21732 0.45008
 C2689 C 0.23980 0.22390 0.45883
 C2690 C 0.23420 0.23334 0.46583
 C2691 C 0.22149 0.23578 0.46436
 C2692 C 0.21461 0.22928 0.45548
 H2693 H 0.21446 0.18806 0.40001
 H2694 H 0.20659 0.17994 0.38056
 H2695 H 0.17304 0.20161 0.38516
 H2696 H 0.18091 0.20960 0.40466
 H2697 H 0.19670 0.22336 0.41241
 H2698 H 0.20577 0.23201 0.43118
 H2699 H 0.22028 0.19580 0.44075
 H2700 H 0.21106 0.18706 0.42202
 H2701 H 0.23763 0.21048 0.44440
 H2702 H 0.24965 0.22203 0.45976
 H2703 H 0.21708 0.24316 0.46959
 H2704 H 0.20491 0.23162 0.45415
 C2705 C 0.30142 0.40392 0.69863
 C2706 C 0.29814 0.40001 0.68669
 C2707 C 0.30259 0.38874 0.68197
 C2708 C 0.31044 0.38111 0.68909
 C2709 C 0.31371 0.38504 0.70103
 C2710 C 0.30925 0.39629 0.70575
 C2711 C 0.29648 0.41576 0.70380
 C2712 C 0.30398 0.42338 0.71128
 C2713 C 0.29909 0.43408 0.71680
 C2714 C 0.28662 0.43744 0.71488
 C2715 C 0.27924 0.43006 0.70708
 C2716 C 0.28410 0.41932 0.70163
 C2717 C 0.28101 0.44795 0.72178
 C2718 C 0.27286 0.45631 0.71591
 C2719 C 0.26634 0.46517 0.72282
 C2720 C 0.26776 0.46568 0.73568
 C2721 C 0.27628 0.45771 0.74147
 C2722 C 0.28294 0.44899 0.73457
 H2723 H 0.29223 0.40574 0.68091
 H2724 H 0.29995 0.38611 0.67270
 H2725 H 0.31960 0.37936 0.70685
 H2726 H 0.31174 0.39890 0.71508
 H2727 H 0.31361 0.42103 0.71295
 H2728 H 0.30500 0.43968 0.72268
 H2729 H 0.26954 0.43232 0.70562
 H2730 H 0.27802 0.41355 0.69608
 H2731 H 0.27126 0.45571 0.70606
 H2732 H 0.25966 0.47115 0.71823
 H2733 H 0.27736 0.45790 0.75142
 H2734 H 0.28906 0.44259 0.73934
 C2735 C 0.30163 0.90443 0.19828
 C2736 C 0.29818 0.90046 0.18639
 C2737 C 0.30271 0.88925 0.18159
 C2738 C 0.31083 0.88176 0.18855
 C2739 C 0.31425 0.88572 0.20044
 C2740 C 0.30969 0.89690 0.20525
 C2741 C 0.29668 0.91623 0.20353
 C2742 C 0.30423 0.92388 0.21093
 C2743 C 0.29934 0.93451 0.21658
 C2744 C 0.28683 0.93778 0.21487
 C2745 C 0.27938 0.93040 0.20713
 C2746 C 0.28424 0.91971 0.20155
 C2747 C 0.28125 0.94819 0.22194
 C2748 C 0.27302 0.95660 0.21627
 C2749 C 0.26661 0.96542 0.22335
 C2750 C 0.26821 0.96581 0.23620
 C2751 C 0.27680 0.95778 0.24179
 C2752 C 0.28335 0.94911 0.23472
 H2753 H 0.29209 0.90610 0.18073
 H2754 H 0.29996 0.88656 0.17236
 H2755 H 0.32032 0.88013 0.20615
 H2756 H 0.31231 0.89953 0.21454
 H2757 H 0.31391 0.92160 0.21244
 H2758 H 0.30531 0.94012 0.22241
 H2759 H 0.26965 0.93260 0.20582
 H2760 H 0.27812 0.91393 0.19607
 H2761 H 0.27129 0.95610 0.20643
 H2762 H 0.25989 0.97145 0.21890
 H2763 H 0.27806 0.95789 0.25172
 H2764 H 0.28954 0.94267 0.23934
 C2765 C 0.80158 0.40424 0.19909
 C2766 C 0.79766 0.40003 0.18744
 C2767 C 0.80208 0.38878 0.18263
 C2768 C 0.81056 0.38147 0.18936
 C2769 C 0.81444 0.38568 0.20103
 C2770 C 0.81001 0.39691 0.20584
 C2771 C 0.79673 0.41610 0.20432
 C2772 C 0.80452 0.42404 0.21117
 C2773 C 0.79979 0.43485 0.21663
 C2774 C 0.78721 0.43801 0.21527
 C2775 C 0.77949 0.43026 0.20816
 C2776 C 0.78419 0.41941 0.20278
 C2777 C 0.78184 0.44876 0.22200
 C2778 C 0.77326 0.45673 0.21621
 C2779 C 0.76684 0.46570 0.22307
 C2780 C 0.76883 0.46674 0.23582
 C2781 C 0.77782 0.45924 0.24151
 C2782 C 0.78437 0.45039 0.23463
 H2783 H 0.79127 0.40551 0.18194
 H2784 H 0.79895 0.38593 0.17358
 H2785 H 0.82083 0.38026 0.20657
 H2786 H 0.81301 0.39974 0.21495
 H2787 H 0.81427 0.42187 0.21235
 H2788 H 0.80595 0.44072 0.22198
 H2789 H 0.76969 0.43234 0.20717
 H2790 H 0.77789 0.41340 0.19776
 H2791 H 0.77119 0.45569 0.20647
 H2792 H 0.75978 0.47129 0.21858
 H2793 H 0.77930 0.45980 0.25138
 H2794 H 0.79084 0.44431 0.23935
 C2795 C 0.80085 0.90469 0.69758
 C2796 C 0.79386 0.89734 0.68939
 C2797 C 0.79847 0.88599 0.68508
 C2798 C 0.81019 0.88166 0.68887
 C2799 C 0.81716 0.88895 0.69714
 C2800 C 0.81255 0.90034 0.70143
 C2801 C 0.79580 0.91669 0.70224
 C2802 C 0.79746 0.92019 0.71464
 C2803 C 0.79200 0.93106 0.71922
 C2804 C 0.78470 0.93863 0.71152
 C2805 C 0.78331 0.93535 0.69905
 C2806 C 0.78885 0.92453 0.69445
 C2807 C 0.77769 0.94925 0.71681
 C2808 C 0.76490 0.95043 0.71443
 C2809 C 0.75776 0.95907 0.72095
 C2810 C 0.76332 0.96684 0.72978
 C2811 C 0.77622 0.96629 0.73156
 C2812 C 0.78335 0.95748 0.72519
 H2813 H 0.78469 0.90027 0.68645
 H2814 H 0.79276 0.88057 0.67886
 H2815 H 0.82627 0.88598 0.70018
 H2816 H 0.81822 0.90582 0.70764
 H2817 H 0.80259 0.91428 0.72095
 H2818 H 0.79303 0.93326 0.72893
 H2819 H 0.77781 0.94108 0.69291
 H2820 H 0.78761 0.92224 0.68479
 H2821 H 0.76029 0.94412 0.70812
 H2822 H 0.74779 0.95928 0.71957
 H2823 H 0.78062 0.97209 0.73848
 H2824 H 0.79319 0.95678 0.72714
 C2825 C 0.69582 0.59455 0.69957
 C2826 C 0.70413 0.60250 0.69335
 C2827 C 0.69999 0.61371 0.68817
 C2828 C 0.68749 0.61729 0.68925
 C2829 C 0.67916 0.60933 0.69536
 C2830 C 0.68325 0.59807 0.70039
 C2831 C 0.70029 0.58288 0.70556
 C2832 C 0.69530 0.57899 0.71693
 C2833 C 0.69997 0.56847 0.72295
 C2834 C 0.70986 0.56164 0.71784
 C2835 C 0.71460 0.56529 0.70629
 C2836 C 0.70985 0.57575 0.70020
 C2837 C 0.71595 0.55151 0.72502
 C2838 C 0.72091 0.54092 0.71913
 C2839 C 0.72809 0.53232 0.72576
 C2840 C 0.73046 0.53419 0.73837
 C2841 C 0.72484 0.54431 0.74440
 C2842 C 0.71771 0.55288 0.73781
 H2843 H 0.71392 0.60025 0.69274
 H2844 H 0.70665 0.61971 0.68361
 H2845 H 0.66943 0.61173 0.69616
 H2846 H 0.67653 0.59209 0.70488
 H2847 H 0.68804 0.58430 0.72142
 H2848 H 0.69598 0.56584 0.73175
 H2849 H 0.72231 0.56034 0.70214
 H2850 H 0.71378 0.57834 0.69137
 H2851 H 0.71957 0.53949 0.70932
 H2852 H 0.73235 0.52461 0.72089
 H2853 H 0.72646 0.54590 0.75415
 H2854 H 0.71417 0.56095 0.74266
 C2855 C 0.69880 0.09547 0.19834
 C2856 C 0.68687 0.09962 0.20166
 C2857 C 0.68228 0.11093 0.19715
 C2858 C 0.68951 0.11833 0.18920
 C2859 C 0.70147 0.11421 0.18595
 C2860 C 0.70606 0.10293 0.19047
 C2861 C 0.70380 0.08354 0.20321
 C2862 C 0.71111 0.07578 0.19567
 C2863 C 0.71661 0.06504 0.20050
 C2864 C 0.71484 0.06178 0.21293
 C2865 C 0.70717 0.06927 0.22035
 C2866 C 0.70172 0.08005 0.21555
 C2867 C 0.72185 0.05131 0.21847
 C2868 C 0.71608 0.04300 0.22672
 C2869 C 0.72314 0.03421 0.23318
 C2870 C 0.73607 0.03374 0.23161
 C2871 C 0.74176 0.04164 0.22298
 C2872 C 0.73470 0.05028 0.21639
 H2873 H 0.68101 0.09403 0.20761
 H2874 H 0.67299 0.11373 0.19977
 H2875 H 0.70738 0.11973 0.18001
 H2876 H 0.71539 0.10014 0.18795
 H2877 H 0.71267 0.07807 0.18606
 H2878 H 0.72240 0.05936 0.19456
 H2879 H 0.70583 0.06708 0.23003
 H2880 H 0.69629 0.08591 0.22164
 H2881 H 0.70618 0.04359 0.22845
 H2882 H 0.71863 0.02829 0.23993
 H2883 H 0.75175 0.04148 0.22175
 H2884 H 0.73940 0.05666 0.21020
 C2885 C 0.19891 0.59580 0.19777
 C2886 C 0.20225 0.59998 0.18593
 C2887 C 0.19765 0.61125 0.18136
 C2888 C 0.18959 0.61862 0.18852
 C2889 C 0.18623 0.61441 0.20036
 C2890 C 0.19084 0.60315 0.20493
 C2891 C 0.20405 0.58399 0.20277
 C2892 C 0.19663 0.57601 0.20996
 C2893 C 0.20170 0.56532 0.21533
 C2894 C 0.21429 0.56235 0.21360
 C2895 C 0.22162 0.57009 0.20608
 C2896 C 0.21657 0.58081 0.20075
 C2897 C 0.22009 0.55194 0.22050
 C2898 C 0.22883 0.54403 0.21483
 C2899 C 0.23542 0.53528 0.22185
 C2900 C 0.23345 0.53445 0.23462
 C2901 C 0.22436 0.54195 0.24018
 C2902 C 0.21768 0.55055 0.23318
 H2903 H 0.20833 0.59448 0.18013
 H2904 H 0.20035 0.61409 0.17217
 H2905 H 0.18017 0.61988 0.20621
 H2906 H 0.18828 0.60031 0.21418
 H2907 H 0.18690 0.57808 0.21151
 H2908 H 0.19582 0.55945 0.22099
 H2909 H 0.23141 0.56815 0.20477
 H2910 H 0.22259 0.58685 0.19544
 H2911 H 0.23079 0.54487 0.20506
 H2912 H 0.24248 0.52963 0.21744
 H2913 H 0.22280 0.54148 0.25005
 H2914 H 0.21111 0.55660 0.23782
 C2915 C 0.19908 0.09583 0.69842
 C2916 C 0.18741 0.10022 0.70230
 C2917 C 0.18273 0.11150 0.69783
 C2918 C 0.18960 0.11865 0.68935
 C2919 C 0.20131 0.11429 0.68555
 C2920 C 0.20599 0.10302 0.69003
 C2921 C 0.20418 0.08391 0.70323
 C2922 C 0.21097 0.07590 0.69547
 C2923 C 0.21656 0.06516 0.70019
 C2924 C 0.21538 0.06213 0.71275
 C2925 C 0.20823 0.06987 0.72043
 C2926 C 0.20271 0.08067 0.71573
 C2927 C 0.22242 0.05157 0.71809
 C2928 C 0.21682 0.04346 0.72663
 C2929 C 0.22395 0.03456 0.73287
 C2930 C 0.23679 0.03379 0.73078
 C2931 C 0.24230 0.04151 0.72188
 C2932 C 0.23515 0.05025 0.71550
 H2933 H 0.18180 0.09483 0.70866
 H2934 H 0.17365 0.11450 0.70091
 H2935 H 0.20697 0.11959 0.67918
 H2936 H 0.21512 0.10004 0.68704
 H2937 H 0.21204 0.07799 0.68575
 H2938 H 0.22194 0.05928 0.69407
 H2939 H 0.20736 0.06787 0.73019
 H2940 H 0.19770 0.08671 0.72199
 H2941 H 0.20702 0.04428 0.72877
 H2942 H 0.21959 0.02880 0.73986
 H2943 H 0.25223 0.04114 0.72028
 H2944 H 0.23971 0.05648 0.70906
 C2945 C 0.30050 0.59647 0.30179
 C2946 C 0.30989 0.60284 0.29535
 C2947 C 0.31472 0.61403 0.29993
 C2948 C 0.31028 0.61907 0.31108
 C2949 C 0.30095 0.61259 0.31755
 C2950 C 0.29613 0.60145 0.31296
 C2951 C 0.29504 0.58483 0.29677
 C2952 C 0.28215 0.58282 0.29737
 C2953 C 0.27690 0.57204 0.29240
 C2954 C 0.28441 0.56302 0.28670
 C2955 C 0.29733 0.56493 0.28624
 C2956 C 0.30259 0.57573 0.29122
 C2957 C 0.27861 0.55216 0.28047
 C2958 C 0.28258 0.54861 0.26861
 C2959 C 0.27598 0.53968 0.26193
 C2960 C 0.26540 0.53407 0.26702
 C2961 C 0.26178 0.53704 0.27909
 C2962 C 0.26835 0.54603 0.28578
 H2963 H 0.31333 0.59932 0.28662
 H2964 H 0.32183 0.61874 0.29464
 H2965 H 0.29732 0.61603 0.32620
 H2966 H 0.28902 0.59667 0.31822
 H2967 H 0.27606 0.58976 0.30137
 H2968 H 0.26689 0.57098 0.29265
 H2969 H 0.30336 0.55808 0.28199
 H2970 H 0.31257 0.57695 0.29077
 H2971 H 0.29033 0.55326 0.26421
 H2972 H 0.27875 0.53760 0.25253
 H2973 H 0.25352 0.53289 0.28306
 H2974 H 0.26517 0.54848 0.29495
 C2975 C 0.30089 0.09591 0.80161
 C2976 C 0.29683 0.10058 0.81304
 C2977 C 0.30150 0.11181 0.81762
 C2978 C 0.31035 0.11866 0.81089
 C2979 C 0.31440 0.11399 0.79945
 C2980 C 0.30972 0.10276 0.79486
 C2981 C 0.29577 0.08409 0.79661
 C2982 C 0.30347 0.07564 0.79031
 C2983 C 0.29850 0.06490 0.78495
 C2984 C 0.28573 0.06235 0.78583
 C2985 C 0.27809 0.07057 0.79247
 C2986 C 0.28305 0.08134 0.79778
 C2987 C 0.28018 0.05181 0.77891
 C2988 C 0.27083 0.04436 0.78422
 C2989 C 0.26453 0.03551 0.77708
 C2990 C 0.26739 0.03413 0.76451
 C2991 C 0.27706 0.04118 0.75936
 C2992 C 0.28346 0.04987 0.76650
 H2993 H 0.29014 0.09546 0.81853
 H2994 H 0.29822 0.11500 0.82652
 H2995 H 0.32108 0.11905 0.79392
 H2996 H 0.31287 0.09954 0.78592
 H2997 H 0.31335 0.07738 0.78944
 H2998 H 0.30462 0.05865 0.77998
 H2999 H 0.26818 0.06895 0.79310
 H3000 H 0.27683 0.08775 0.80241
 H3001 H 0.26818 0.04564 0.79378
 H3002 H 0.25700 0.03024 0.78116
 H3003 H 0.27931 0.04029 0.74964
 H3004 H 0.29051 0.05557 0.76213
 C3005 C 0.80205 0.59609 0.80052
 C3006 C 0.81076 0.60326 0.79395
 C3007 C 0.81534 0.61439 0.79889
 C3008 C 0.81132 0.61862 0.81051
 C3009 C 0.80264 0.61142 0.81709
 C3010 C 0.79808 0.60029 0.81217
 C3011 C 0.79692 0.58443 0.79515
 C3012 C 0.78427 0.58150 0.79659
 C3013 C 0.77931 0.57076 0.79126
 C3014 C 0.78686 0.56272 0.78429
 C3015 C 0.79953 0.56555 0.78292
 C3016 C 0.80452 0.57628 0.78833
 C3017 C 0.78126 0.55189 0.77789
 C3018 C 0.78382 0.54969 0.76534
 C3019 C 0.77706 0.54077 0.75877
 C3020 C 0.76782 0.53377 0.76470
 C3021 C 0.76576 0.53539 0.77737
 C3022 C 0.77241 0.54440 0.78392
 H3023 H 0.81385 0.60041 0.78487
 H3024 H 0.82192 0.61971 0.79348
 H3025 H 0.79941 0.61427 0.82611
 H3026 H 0.79151 0.59491 0.81755
 H3027 H 0.77810 0.58770 0.80156
 H3028 H 0.76946 0.56894 0.79225
 H3029 H 0.80556 0.55946 0.77766
 H3030 H 0.81433 0.57817 0.78720
 H3031 H 0.79049 0.55540 0.76044
 H3032 H 0.77858 0.53975 0.74893
 H3033 H 0.75851 0.53018 0.78202
 H3034 H 0.77033 0.54584 0.79360
 C3035 C 0.80124 0.09568 0.30179
 C3036 C 0.79759 0.10003 0.31348
 C3037 C 0.80216 0.11130 0.31805
 C3038 C 0.81053 0.11849 0.31107
 C3039 C 0.81419 0.11413 0.29938
 C3040 C 0.80960 0.10286 0.29479
 C3041 C 0.79614 0.08386 0.29678
 C3042 C 0.80369 0.07572 0.28990
 C3043 C 0.79868 0.06499 0.28455
 C3044 C 0.78602 0.06214 0.28602
 C3045 C 0.77856 0.07005 0.29321
 C3046 C 0.78355 0.08080 0.29851
 C3047 C 0.78033 0.05164 0.27916
 C3048 C 0.77142 0.04388 0.28477
 C3049 C 0.76489 0.03510 0.27775
 C3050 C 0.76707 0.03409 0.26503
 C3051 C 0.77636 0.04142 0.25955
 C3052 C 0.78298 0.05006 0.26656
 H3053 H 0.79129 0.09464 0.31916
 H3054 H 0.79922 0.11426 0.32714
 H3055 H 0.82049 0.11946 0.29367
 H3056 H 0.81242 0.09989 0.28566
 H3057 H 0.81347 0.07769 0.28859
 H3058 H 0.80466 0.05899 0.27914
 H3059 H 0.76872 0.06821 0.29429
 H3060 H 0.77744 0.08697 0.30357
 H3061 H 0.76927 0.04488 0.29449
 H3062 H 0.75768 0.02959 0.28211
 H3063 H 0.77811 0.04079 0.24971
 H3064 H 0.78969 0.05598 0.26196
 C3065 C 0.69877 0.40378 0.30047
 C3066 C 0.70209 0.39989 0.31241
 C3067 C 0.69752 0.38872 0.31725
 C3068 C 0.68948 0.38117 0.31027
 C3069 C 0.68612 0.38509 0.29834
 C3070 C 0.69072 0.39625 0.29350
 C3071 C 0.70390 0.41549 0.29518
 C3072 C 0.69653 0.42323 0.28768
 C3073 C 0.70157 0.43390 0.28222
 C3074 C 0.71406 0.43711 0.28422
 C3075 C 0.72135 0.42955 0.29194
 C3076 C 0.71634 0.41884 0.29732
 C3077 C 0.71978 0.44775 0.27762
 C3078 C 0.72794 0.45588 0.28376
 C3079 C 0.73459 0.46489 0.27716
 C3080 C 0.73325 0.46578 0.26431
 C3081 C 0.72473 0.45805 0.25823
 C3082 C 0.71796 0.44917 0.26484
 H3083 H 0.70814 0.40555 0.31810
 H3084 H 0.70022 0.38610 0.32651
 H3085 H 0.68007 0.37948 0.29262
 H3086 H 0.68816 0.39884 0.28417
 H3087 H 0.68685 0.42103 0.28601
 H3088 H 0.69573 0.43964 0.27639
 H3089 H 0.73107 0.43168 0.29345
 H3090 H 0.72235 0.41297 0.30284
 H3091 H 0.72946 0.45501 0.29361
 H3092 H 0.74126 0.47069 0.28195
 H3093 H 0.72372 0.45855 0.24829
 H3094 H 0.71182 0.44296 0.25986
 C3095 C 0.69880 0.90389 0.80153
 C3096 C 0.70223 0.89977 0.81336
 C3097 C 0.69757 0.88857 0.81807
 C3098 C 0.68936 0.88123 0.81107
 C3099 C 0.68591 0.88538 0.79924
 C3100 C 0.69058 0.89657 0.79453
 C3101 C 0.70398 0.91564 0.79638
 C3102 C 0.69653 0.92359 0.78919
 C3103 C 0.70161 0.93420 0.78366
 C3104 C 0.71423 0.93712 0.78524
 C3105 C 0.72158 0.92943 0.79277
 C3106 C 0.71652 0.91878 0.79825
 C3107 C 0.71998 0.94748 0.77820
 C3108 C 0.72875 0.95545 0.78372
 C3109 C 0.73515 0.96427 0.77660
 C3110 C 0.73300 0.96508 0.76385
 C3111 C 0.72391 0.95747 0.75844
 C3112 C 0.71742 0.94880 0.76555
 H3113 H 0.70842 0.90526 0.81905
 H3114 H 0.70035 0.88578 0.82726
 H3115 H 0.67973 0.87993 0.79351
 H3116 H 0.68794 0.89936 0.78529
 H3117 H 0.68678 0.92156 0.78776
 H3118 H 0.69570 0.94005 0.77801
 H3119 H 0.73139 0.93134 0.79398
 H3120 H 0.72256 0.91277 0.80358
 H3121 H 0.73084 0.95466 0.79347
 H3122 H 0.74219 0.97001 0.78092
 H3123 H 0.72214 0.95796 0.74861
 H3124 H 0.71082 0.94271 0.76101
 C3125 C 0.19881 0.40379 0.80120
 C3126 C 0.20281 0.39927 0.81271
 C3127 C 0.19817 0.38807 0.81739
 C3128 C 0.18940 0.38111 0.81069
 C3129 C 0.18538 0.38565 0.79918
 C3130 C 0.19003 0.39686 0.79450
 C3131 C 0.20399 0.41552 0.79606
 C3132 C 0.19635 0.42395 0.78963
 C3133 C 0.20139 0.43468 0.78429
 C3134 C 0.21415 0.43723 0.78531
 C3135 C 0.22173 0.42895 0.79197
 C3136 C 0.21671 0.41821 0.79726
 C3137 C 0.21979 0.44796 0.77875
 C3138 C 0.22909 0.45516 0.78442
 C3139 C 0.23562 0.46410 0.77764
 C3140 C 0.23297 0.46592 0.76510
 C3141 C 0.22331 0.45919 0.75956
 C3142 C 0.21670 0.45033 0.76636
 H3143 H 0.20945 0.40447 0.81817
 H3144 H 0.20141 0.38498 0.82633
 H3145 H 0.17874 0.38052 0.79368
 H3146 H 0.18691 0.39997 0.78551
 H3147 H 0.18648 0.42224 0.78872
 H3148 H 0.19534 0.44097 0.77930
 H3149 H 0.23164 0.43054 0.79270
 H3150 H 0.22287 0.41180 0.80196
 H3151 H 0.23159 0.45357 0.79398
 H3152 H 0.24319 0.46911 0.78197
 H3153 H 0.22132 0.46036 0.74983
 H3154 H 0.20967 0.44484 0.76172
 C3155 C 0.19930 0.90369 0.30153
 C3156 C 0.18985 0.89732 0.29519
 C3157 C 0.18503 0.88617 0.29986
 C3158 C 0.18953 0.88116 0.31100
 C3159 C 0.19892 0.88762 0.31736
 C3160 C 0.20374 0.89873 0.31268
 C3161 C 0.20474 0.91529 0.29639
 C3162 C 0.21764 0.91724 0.29683
 C3163 C 0.22288 0.92797 0.29177
 C3164 C 0.21536 0.93703 0.28613
 C3165 C 0.20243 0.93516 0.28578
 C3166 C 0.19718 0.92440 0.29086
 C3167 C 0.22115 0.94794 0.27999
 C3168 C 0.21717 0.95170 0.26819
 C3169 C 0.22381 0.96070 0.26160
 C3170 C 0.23445 0.96615 0.26675
 C3171 C 0.23806 0.96296 0.27876
 C3172 C 0.23144 0.95395 0.28536
 H3173 H 0.18636 0.90082 0.28647
 H3174 H 0.17788 0.88146 0.29463
 H3175 H 0.20257 0.88419 0.32602
 H3176 H 0.21090 0.90352 0.31787
 H3177 H 0.22374 0.91029 0.30080
 H3178 H 0.23289 0.92899 0.29192
 H3179 H 0.19640 0.94203 0.28158
 H3180 H 0.18719 0.92322 0.29052
 H3181 H 0.20938 0.94715 0.26376
 H3182 H 0.22106 0.96293 0.25224
 H3183 H 0.24636 0.96699 0.28278
 H3184 H 0.23462 0.95137 0.29449
 C3185 C 0.40369 0.30125 0.69890
 C3186 C 0.39844 0.31227 0.70357
 C3187 C 0.38724 0.31682 0.69884
 C3188 C 0.38101 0.31045 0.68933
 C3189 C 0.38630 0.29943 0.68466
 C3190 C 0.39750 0.29490 0.68938
 C3191 C 0.41541 0.29622 0.70414
 C3192 C 0.42449 0.29087 0.69645
 C3193 C 0.43525 0.28562 0.70148
 C3194 C 0.43718 0.28568 0.71431
 C3195 C 0.42822 0.29125 0.72198
 C3196 C 0.41746 0.29645 0.71695
 C3197 C 0.44805 0.27929 0.71985
 C3198 C 0.45432 0.28456 0.72997
 C3199 C 0.46332 0.27774 0.73634
 C3200 C 0.46621 0.26557 0.73267
 C3201 C 0.46047 0.26049 0.72222
 C3202 C 0.45150 0.26733 0.71579
 H3203 H 0.40307 0.31745 0.71080
 H3204 H 0.38357 0.32538 0.70262
 H3205 H 0.38176 0.29418 0.67743
 H3206 H 0.40120 0.28627 0.68573
 H3207 H 0.42326 0.29074 0.68652
 H3208 H 0.44205 0.28148 0.69536
 H3209 H 0.42932 0.29119 0.73192
 H3210 H 0.41056 0.30032 0.72314
 H3211 H 0.45192 0.29379 0.73323
 H3212 H 0.46755 0.28170 0.74452
 H3213 H 0.46245 0.25100 0.71944
 H3214 H 0.44673 0.26297 0.70813
 C3215 C 0.40556 0.80343 0.19656
 C3216 C 0.40254 0.81619 0.19695
 C3217 C 0.39105 0.82043 0.19265
 C3218 C 0.38240 0.81206 0.18762
 C3219 C 0.38545 0.79938 0.18697
 C3220 C 0.39684 0.79509 0.19149
 C3221 C 0.41746 0.79876 0.20190
 C3222 C 0.42347 0.78826 0.19692
 C3223 C 0.43391 0.78314 0.20272
 C3224 C 0.43868 0.78849 0.21358
 C3225 C 0.43313 0.79944 0.21811
 C3226 C 0.42259 0.80443 0.21243
 C3227 C 0.44849 0.78201 0.22085
 C3228 C 0.44776 0.78188 0.23381
 C3229 C 0.45596 0.77472 0.24077
 C3230 C 0.46503 0.76735 0.23500
 C3231 C 0.46626 0.76789 0.22210
 C3232 C 0.45804 0.77516 0.21508
 H3233 H 0.40906 0.82294 0.20055
 H3234 H 0.38901 0.83029 0.19309
 H3235 H 0.37890 0.79270 0.18325
 H3236 H 0.39866 0.78518 0.19129
 H3237 H 0.41998 0.78380 0.18865
 H3238 H 0.43787 0.77467 0.19900
 H3239 H 0.43670 0.80399 0.22629
 H3240 H 0.41821 0.81244 0.21665
 H3241 H 0.44046 0.78684 0.23863
 H3242 H 0.45492 0.77462 0.25072
 H3243 H 0.47321 0.76231 0.21743
 H3244 H 0.45900 0.77520 0.20513
 C3245 C 0.90371 0.30121 0.19896
 C3246 C 0.89699 0.29445 0.19008
 C3247 C 0.88583 0.29909 0.18535
 C3248 C 0.88111 0.31061 0.18937
 C3249 C 0.88784 0.31737 0.19826
 C3250 C 0.89900 0.31272 0.20299
 C3251 C 0.91543 0.29613 0.20418
 C3252 C 0.91797 0.29726 0.21686
 C3253 C 0.92870 0.29200 0.22189
 C3254 C 0.93712 0.28546 0.21438
 C3255 C 0.93471 0.28452 0.20166
 C3256 C 0.92400 0.28983 0.19661
 C3257 C 0.94787 0.27895 0.22001
 C3258 C 0.95046 0.26652 0.21685
 C3259 C 0.95933 0.25973 0.22345
 C3260 C 0.96588 0.26534 0.23315
 C3261 C 0.96384 0.27793 0.23588
 C3262 C 0.95488 0.28469 0.22937
 H3263 H 0.90024 0.28545 0.18695
 H3264 H 0.88088 0.29354 0.17863
 H3265 H 0.88461 0.32632 0.20151
 H3266 H 0.90403 0.31822 0.20971
 H3267 H 0.91147 0.30186 0.22297
 H3268 H 0.93018 0.29264 0.23176
 H3269 H 0.94110 0.27962 0.19565
 H3270 H 0.92240 0.28900 0.18677
 H3271 H 0.94510 0.26182 0.20979
 H3272 H 0.96067 0.24995 0.22139
 H3273 H 0.96869 0.28231 0.24349
 H3274 H 0.95313 0.29428 0.23194
 C3275 C 0.90396 0.80144 0.69853
 C3276 C 0.89679 0.79445 0.69019
 C3277 C 0.88552 0.79907 0.68574
 C3278 C 0.88110 0.81079 0.68953
 C3279 C 0.88822 0.81774 0.69796
 C3280 C 0.89953 0.81312 0.70240
 C3281 C 0.91589 0.79637 0.70331
 C3282 C 0.91920 0.79792 0.71578
 C3283 C 0.92999 0.79241 0.72045
 C3284 C 0.93767 0.78519 0.71277
 C3285 C 0.93458 0.78393 0.70024
 C3286 C 0.92384 0.78952 0.69555
 C3287 C 0.94823 0.77815 0.71810
 C3288 C 0.94948 0.76537 0.71563
 C3289 C 0.95819 0.75822 0.72204
 C3290 C 0.96596 0.76380 0.73085
 C3291 C 0.96528 0.77670 0.73278
 C3292 C 0.95640 0.78382 0.72652
 H3293 H 0.89978 0.78530 0.68724
 H3294 H 0.88024 0.79336 0.67941
 H3295 H 0.88518 0.82683 0.70101
 H3296 H 0.90488 0.81877 0.70874
 H3297 H 0.91320 0.80298 0.72205
 H3298 H 0.93206 0.79334 0.73019
 H3299 H 0.94040 0.77850 0.69412
 H3300 H 0.92170 0.78838 0.68584
 H3301 H 0.94321 0.76075 0.70929
 H3302 H 0.95851 0.74825 0.72055
 H3303 H 0.97108 0.78111 0.73968
 H3304 H 0.95563 0.79367 0.72855
 C3305 C 0.59603 0.30190 0.30056
 C3306 C 0.59992 0.29844 0.31247
 C3307 C 0.61118 0.30281 0.31724
 C3308 C 0.61881 0.31076 0.31024
 C3309 C 0.61491 0.31421 0.29833
 C3310 C 0.60368 0.30982 0.29355
 C3311 C 0.58422 0.29705 0.29532
 C3312 C 0.57665 0.30466 0.28789
 C3313 C 0.56595 0.29985 0.28233
 C3314 C 0.56255 0.28736 0.28418
 C3315 C 0.56988 0.27986 0.29191
 C3316 C 0.58062 0.28463 0.29739
 C3317 C 0.55200 0.28185 0.27731
 C3318 C 0.54359 0.27378 0.28323
 C3319 C 0.53472 0.26725 0.27636
 C3320 C 0.53426 0.26858 0.26349
 C3321 C 0.54225 0.27704 0.25764
 C3322 C 0.55097 0.28372 0.26451
 H3323 H 0.59419 0.29246 0.31816
 H3324 H 0.61379 0.30003 0.32648
 H3325 H 0.62059 0.32018 0.29259
 H3326 H 0.60109 0.31246 0.28424
 H3327 H 0.57903 0.31432 0.28630
 H3328 H 0.56038 0.30584 0.27650
 H3329 H 0.56758 0.27014 0.29331
 H3330 H 0.58634 0.27846 0.30288
 H3331 H 0.54417 0.27223 0.29309
 H3332 H 0.52873 0.26061 0.28099
 H3333 H 0.54209 0.27806 0.24769
 H3334 H 0.55741 0.28979 0.25971
 C3335 C 0.59576 0.80067 0.80221
 C3336 C 0.60037 0.79683 0.81373
 C3337 C 0.61157 0.80157 0.81825
 C3338 C 0.61847 0.81027 0.81137
 C3339 C 0.61381 0.81418 0.79987
 C3340 C 0.60258 0.80943 0.79535
 C3341 C 0.58402 0.79532 0.79729
 C3342 C 0.57540 0.80284 0.79100
 C3343 C 0.56457 0.79767 0.78602
 C3344 C 0.56214 0.78485 0.78720
 C3345 C 0.57065 0.77739 0.79369
 C3346 C 0.58146 0.78256 0.79866
 C3347 C 0.55135 0.77905 0.78085
 C3348 C 0.54464 0.76928 0.78642
 C3349 C 0.53571 0.76265 0.77968
 C3350 C 0.53340 0.76570 0.76732
 C3351 C 0.53959 0.77584 0.76196
 C3352 C 0.54844 0.78250 0.76867
 H3353 H 0.59526 0.79022 0.81932
 H3354 H 0.61472 0.79842 0.82720
 H3355 H 0.61888 0.82078 0.79424
 H3356 H 0.59937 0.81244 0.78635
 H3357 H 0.57702 0.81274 0.78994
 H3358 H 0.55813 0.80368 0.78117
 H3359 H 0.56919 0.76745 0.79453
 H3360 H 0.58802 0.77647 0.80326
 H3361 H 0.54659 0.76651 0.79583
 H3362 H 0.53113 0.75473 0.78389
 H3363 H 0.53804 0.77817 0.75235
 H3364 H 0.55353 0.78986 0.76407
 C3365 C 0.09589 0.30133 0.80049
 C3366 C 0.10000 0.29762 0.81225
 C3367 C 0.11119 0.30213 0.81702
 C3368 C 0.11852 0.31049 0.81017
 C3369 C 0.11438 0.31423 0.79844
 C3370 C 0.10320 0.30970 0.79365
 C3371 C 0.08416 0.29627 0.79527
 C3372 C 0.07619 0.30386 0.78823
 C3373 C 0.06549 0.29890 0.78282
 C3374 C 0.06247 0.28628 0.78442
 C3375 C 0.07026 0.27877 0.79168
 C3376 C 0.08100 0.28369 0.79702
 C3377 C 0.05179 0.28066 0.77783
 C3378 C 0.04394 0.27212 0.78383
 C3379 C 0.03498 0.26552 0.77715
 C3380 C 0.03385 0.26728 0.76438
 C3381 C 0.04128 0.27619 0.75846
 C3382 C 0.05011 0.28293 0.76515
 H3383 H 0.09450 0.29133 0.81783
 H3384 H 0.11398 0.29915 0.82615
 H3385 H 0.11983 0.32054 0.79283
 H3386 H 0.10041 0.31256 0.78447
 H3387 H 0.07826 0.31364 0.78688
 H3388 H 0.05958 0.30491 0.77733
 H3389 H 0.06829 0.26894 0.79286
 H3390 H 0.08704 0.27754 0.80218
 H3391 H 0.04502 0.27026 0.79360
 H3392 H 0.02943 0.25852 0.78181
 H3393 H 0.04062 0.27751 0.74856
 H3394 H 0.05612 0.28935 0.76028
 C3395 C 0.09587 0.80161 0.30068
 C3396 C 0.10009 0.79755 0.31229
 C3397 C 0.11132 0.80193 0.31712
 C3398 C 0.11860 0.81051 0.31048
 C3399 C 0.11440 0.81452 0.29884
 C3400 C 0.10319 0.81012 0.29401
 C3401 C 0.08403 0.79685 0.29540
 C3402 C 0.07617 0.80474 0.28857
 C3403 C 0.06545 0.80007 0.28293
 C3404 C 0.06229 0.78744 0.28411
 C3405 C 0.06991 0.77962 0.29124
 C3406 C 0.08068 0.78426 0.29679
 C3407 C 0.05167 0.78216 0.27714
 C3408 C 0.04352 0.77361 0.28273
 C3409 C 0.03459 0.76737 0.27567
 C3410 C 0.03380 0.76947 0.26291
 C3411 C 0.04154 0.77841 0.25742
 C3412 C 0.05032 0.78480 0.26450
 H3413 H 0.09462 0.79110 0.31772
 H3414 H 0.11417 0.79869 0.32614
 H3415 H 0.11980 0.82097 0.29336
 H3416 H 0.10036 0.81325 0.28493
 H3417 H 0.07835 0.81452 0.28751
 H3418 H 0.05967 0.80630 0.27757
 H3419 H 0.06781 0.76980 0.29211
 H3420 H 0.08662 0.77788 0.30181
 H3421 H 0.04436 0.77145 0.29246
 H3422 H 0.02883 0.76035 0.28001
 H3423 H 0.04115 0.78002 0.24755
 H3424 H 0.05655 0.79125 0.25994
 C3425 C 0.59625 0.69961 0.69802
 C3426 C 0.60080 0.70344 0.68646
 C3427 C 0.61192 0.69858 0.68182
 C3428 C 0.61875 0.68976 0.68861
 C3429 C 0.61419 0.68594 0.70018
 C3430 C 0.60308 0.69081 0.70482
 C3431 C 0.58456 0.70494 0.70308
 C3432 C 0.57615 0.69740 0.70963
 C3433 C 0.56549 0.70255 0.71497
 C3434 C 0.56299 0.71534 0.71384
 C3435 C 0.57120 0.72282 0.70699
 C3436 C 0.58188 0.71768 0.70169
 C3437 C 0.55246 0.72108 0.72061
 C3438 C 0.54509 0.73037 0.71511
 C3439 C 0.53614 0.73676 0.72206
 C3440 C 0.53457 0.73401 0.73462
 C3441 C 0.54157 0.72442 0.73999
 C3442 C 0.55037 0.71795 0.73304
 H3443 H 0.59570 0.71010 0.68093
 H3444 H 0.61504 0.70168 0.67284
 H3445 H 0.61924 0.67930 0.70576
 H3446 H 0.59996 0.68785 0.71386
 H3447 H 0.57783 0.68751 0.71069
 H3448 H 0.55925 0.69655 0.72010
 H3449 H 0.56962 0.73274 0.70615
 H3450 H 0.58826 0.72378 0.69687
 H3451 H 0.54647 0.73291 0.70552
 H3452 H 0.53090 0.74423 0.71782
 H3453 H 0.54054 0.72228 0.74972
 H3454 H 0.55600 0.71095 0.73757
 C3455 C 0.59637 0.19890 0.19877
 C3456 C 0.60119 0.20338 0.18756
 C3457 C 0.61228 0.19863 0.18280
 C3458 C 0.61886 0.18928 0.18913
 C3459 C 0.61399 0.18476 0.20033
 C3460 C 0.60288 0.18951 0.20508
 C3461 C 0.58475 0.20421 0.20399
 C3462 C 0.57591 0.19651 0.20978
 C3463 C 0.56521 0.20164 0.21507
 C3464 C 0.56311 0.21454 0.21463
 C3465 C 0.57185 0.22219 0.20868
 C3466 C 0.58255 0.21709 0.20344
 C3467 C 0.55228 0.22020 0.22099
 C3468 C 0.54576 0.23011 0.21551
 C3469 C 0.53678 0.23665 0.22220
 C3470 C 0.53419 0.23338 0.23445
 C3471 C 0.54020 0.22312 0.23977
 C3472 C 0.54912 0.21651 0.23305
 H3473 H 0.59631 0.21050 0.18239
 H3474 H 0.61562 0.20229 0.17410
 H3475 H 0.61880 0.17765 0.20555
 H3476 H 0.59951 0.18601 0.21384
 H3477 H 0.57727 0.18653 0.21019
 H3478 H 0.55857 0.19552 0.21950
 H3479 H 0.57062 0.23220 0.20843
 H3480 H 0.58929 0.22329 0.19926
 H3481 H 0.54792 0.23307 0.20619
 H3482 H 0.53233 0.24468 0.21805
 H3483 H 0.53842 0.22063 0.24930
 H3484 H 0.55408 0.20899 0.23755
 C3485 C 0.09595 0.69819 0.19900
 C3486 C 0.10288 0.70528 0.19053
 C3487 C 0.11414 0.70083 0.18587
 C3488 C 0.11879 0.68918 0.18959
 C3489 C 0.11190 0.68211 0.19811
 C3490 C 0.10061 0.68656 0.20276
 C3491 C 0.08406 0.70306 0.20406
 C3492 C 0.08109 0.70152 0.21661
 C3493 C 0.07033 0.70689 0.22154
 C3494 C 0.06235 0.71394 0.21403
 C3495 C 0.06509 0.71513 0.20140
 C3496 C 0.07580 0.70972 0.19646
 C3497 C 0.05190 0.72099 0.21959
 C3498 C 0.05028 0.73363 0.21664
 C3499 C 0.04163 0.74085 0.22302
 C3500 C 0.03430 0.73555 0.23236
 C3501 C 0.03537 0.72278 0.23488
 C3502 C 0.04418 0.71555 0.22860
 H3503 H 0.09969 0.71439 0.18764
 H3504 H 0.11925 0.70662 0.17946
 H3505 H 0.11510 0.67305 0.20110
 H3506 H 0.09544 0.68081 0.20918
 H3507 H 0.08732 0.69659 0.22275
 H3508 H 0.06856 0.70601 0.23134
 H3509 H 0.05902 0.72042 0.19538
 H3510 H 0.07769 0.71085 0.18670
 H3511 H 0.05619 0.73810 0.20986
 H3512 H 0.04098 0.75071 0.22101
 H3513 H 0.02986 0.71856 0.24214
 H3514 H 0.04521 0.70582 0.23100
 C3515 C 0.09592 0.19836 0.69946
 C3516 C 0.10011 0.20218 0.68776
 C3517 C 0.11133 0.19772 0.68299
 C3518 C 0.11863 0.18929 0.68980
 C3519 C 0.11444 0.18549 0.70150
 C3520 C 0.10323 0.18997 0.70628
 C3521 C 0.08410 0.20328 0.70465
 C3522 C 0.07616 0.19557 0.71158
 C3523 C 0.06539 0.20040 0.71701
 C3524 C 0.06230 0.21302 0.71554
 C3525 C 0.07005 0.22065 0.70835
 C3526 C 0.08085 0.21585 0.70299
 C3527 C 0.05159 0.21850 0.72223
 C3528 C 0.04368 0.22707 0.71635
 C3529 C 0.03470 0.23355 0.72313
 C3530 C 0.03362 0.23164 0.73589
 C3531 C 0.04110 0.22269 0.74168
 C3532 C 0.04994 0.21608 0.73488
 H3533 H 0.09462 0.20850 0.68219
 H3534 H 0.11417 0.20078 0.67390
 H3535 H 0.11987 0.17915 0.70709
 H3536 H 0.10039 0.18702 0.71541
 H3537 H 0.07828 0.18579 0.71284
 H3538 H 0.05951 0.19430 0.72243
 H3539 H 0.06802 0.23047 0.70726
 H3540 H 0.08687 0.22210 0.69790
 H3541 H 0.04473 0.22906 0.70660
 H3542 H 0.02913 0.24059 0.71858
 H3543 H 0.04049 0.22127 0.75157
 H3544 H 0.05599 0.20962 0.73966
 C3545 C 0.40569 0.69698 0.30401
 C3546 C 0.39695 0.69174 0.29585
 C3547 C 0.38571 0.68693 0.30027
 C3548 C 0.38288 0.68740 0.31292
 C3549 C 0.39166 0.69245 0.32110
 C3550 C 0.40296 0.69709 0.31671
 C3551 C 0.41732 0.70279 0.29926
 C3552 C 0.42206 0.71365 0.30479
 C3553 C 0.43247 0.71964 0.29989
 C3554 C 0.43834 0.71504 0.28923
 C3555 C 0.43388 0.70396 0.28393
 C3556 C 0.42352 0.69789 0.28890
 C3557 C 0.44828 0.72239 0.28304
 C3558 C 0.45828 0.71653 0.27698
 C3559 C 0.46669 0.72351 0.26992
 C3560 C 0.46521 0.73645 0.26878
 C3561 C 0.45567 0.74236 0.27540
 C3562 C 0.44730 0.73543 0.28241
 H3563 H 0.39860 0.69168 0.28599
 H3564 H 0.37908 0.68318 0.29374
 H3565 H 0.38985 0.69276 0.33093
 H3566 H 0.40956 0.70079 0.32330
 H3567 H 0.41748 0.71782 0.31267
 H3568 H 0.43577 0.72805 0.30433
 H3569 H 0.43809 0.70021 0.27564
 H3570 H 0.42025 0.68944 0.28451
 H3571 H 0.45941 0.70652 0.27743
 H3572 H 0.47395 0.71875 0.26485
 H3573 H 0.45437 0.75235 0.27472
 H3574 H 0.43966 0.74027 0.28681
 C3575 C 0.40407 0.19895 0.80099
 C3576 C 0.39658 0.20620 0.80883
 C3577 C 0.38538 0.20153 0.81342
 C3578 C 0.38135 0.18949 0.81026
 C3579 C 0.38878 0.18226 0.80234
 C3580 C 0.40002 0.18693 0.79777
 C3581 C 0.41592 0.20404 0.79603
 C3582 C 0.41946 0.20177 0.78374
 C3583 C 0.43020 0.20720 0.77886
 C3584 C 0.43760 0.21507 0.78616
 C3585 C 0.43428 0.21709 0.79853
 C3586 C 0.42359 0.21158 0.80344
 C3587 C 0.44811 0.22196 0.78052
 C3588 C 0.44914 0.23489 0.78228
 C3589 C 0.45786 0.24178 0.77560
 C3590 C 0.46584 0.23584 0.76722
 C3591 C 0.46535 0.22285 0.76598
 C3592 C 0.45648 0.21596 0.77252
 H3593 H 0.39928 0.21560 0.81128
 H3594 H 0.37983 0.20744 0.81933
 H3595 H 0.38605 0.17291 0.79980
 H3596 H 0.40563 0.18105 0.79187
 H3597 H 0.41368 0.19616 0.77773
 H3598 H 0.43243 0.20568 0.76923
 H3599 H 0.43988 0.22304 0.80437
 H3600 H 0.42127 0.21330 0.81302
 H3601 H 0.44272 0.23976 0.78829
 H3602 H 0.45803 0.25182 0.77656
 H3603 H 0.47134 0.21814 0.75943
 H3604 H 0.45589 0.20600 0.77105
 C3605 C 0.90402 0.69962 0.80204
 C3606 C 0.89720 0.69074 0.79533
 C3607 C 0.88601 0.68605 0.79993
 C3608 C 0.88135 0.69012 0.81138
 C3609 C 0.88817 0.69901 0.81808
 C3610 C 0.89937 0.70370 0.81347
 C3611 C 0.91580 0.70477 0.79700
 C3612 C 0.91850 0.71754 0.79813
 C3613 C 0.92923 0.72252 0.79278
 C3614 C 0.93745 0.71487 0.78615
 C3615 C 0.93494 0.70206 0.78531
 C3616 C 0.92424 0.69706 0.79070
 C3617 C 0.94795 0.72045 0.77921
 C3618 C 0.94990 0.71714 0.76681
 C3619 C 0.95855 0.72358 0.75965
 C3620 C 0.96554 0.73330 0.76479
 C3621 C 0.96416 0.73618 0.77734
 C3622 C 0.95535 0.72984 0.78450
 H3623 H 0.90041 0.68759 0.78637
 H3624 H 0.88097 0.67934 0.79442
 H3625 H 0.88498 0.70230 0.82696
 H3626 H 0.90446 0.71043 0.81892
 H3627 H 0.91210 0.72377 0.80275
 H3628 H 0.93082 0.73246 0.79338
 H3629 H 0.94119 0.69593 0.78034
 H3630 H 0.92253 0.68716 0.78986
 H3631 H 0.94425 0.71005 0.76246
 H3632 H 0.95946 0.72131 0.74994
 H3633 H 0.96940 0.74375 0.78141
 H3634 H 0.95407 0.73251 0.79406
 C3635 C 0.90392 0.19903 0.30129
 C3636 C 0.89982 0.18707 0.29795
 C3637 C 0.88854 0.18242 0.30241
 C3638 C 0.88110 0.18963 0.31035
 C3639 C 0.88518 0.20162 0.31362
 C3640 C 0.89643 0.20627 0.30913
 C3641 C 0.91582 0.20410 0.29645
 C3642 C 0.92350 0.21149 0.30398
 C3643 C 0.93423 0.21701 0.29918
 C3644 C 0.93757 0.21515 0.28678
 C3645 C 0.93015 0.20741 0.27937
 C3646 C 0.91937 0.20197 0.28414
 C3647 C 0.94809 0.22208 0.28126
 C3648 C 0.95646 0.21615 0.27321
 C3649 C 0.96533 0.22310 0.26673
 C3650 C 0.96581 0.23608 0.26810
 C3651 C 0.95784 0.24195 0.27653
 C3652 C 0.94912 0.23499 0.28315
 H3653 H 0.90544 0.18120 0.29203
 H3654 H 0.88577 0.17311 0.29978
 H3655 H 0.87963 0.20753 0.31955
 H3656 H 0.89917 0.21563 0.31168
 H3657 H 0.92117 0.21309 0.31358
 H3658 H 0.93985 0.22286 0.30511
 H3659 H 0.93239 0.20602 0.26971
 H3660 H 0.91358 0.19648 0.27804
 H3661 H 0.95586 0.20621 0.27162
 H3662 H 0.97130 0.21847 0.26012
 H3663 H 0.95800 0.25198 0.27757
 H3664 H 0.94270 0.23980 0.28919
 C3665 C 0.30132 0.30074 0.59566
 C3666 C 0.31301 0.29701 0.60009
 C3667 C 0.31755 0.30160 0.61128
 C3668 C 0.31052 0.31006 0.61832
 C3669 C 0.29881 0.31377 0.61390
 C3670 C 0.29427 0.30916 0.60271
 C3671 C 0.29635 0.29566 0.58390
 C3672 C 0.28960 0.30330 0.57575
 C3673 C 0.28430 0.29833 0.56505
 C3674 C 0.28569 0.28564 0.56223
 C3675 C 0.29274 0.27808 0.57017
 C3676 C 0.29800 0.28303 0.58090
 C3677 C 0.27897 0.28002 0.55166
 C3678 C 0.28473 0.27107 0.54410
 C3679 C 0.27784 0.26457 0.53524
 C3680 C 0.26508 0.26688 0.53392
 C3681 C 0.25944 0.27618 0.54106
 C3682 C 0.26634 0.28277 0.54979
 H3683 H 0.31873 0.29064 0.59482
 H3684 H 0.32665 0.29861 0.61430
 H3685 H 0.29305 0.32013 0.61911
 H3686 H 0.28511 0.31203 0.59968
 H3687 H 0.28837 0.31311 0.57768
 H3688 H 0.27900 0.30438 0.55902
 H3689 H 0.29377 0.26821 0.56835
 H3690 H 0.30297 0.27686 0.58706
 H3691 H 0.29447 0.26882 0.54532
 H3692 H 0.28228 0.25729 0.52991
 H3693 H 0.24956 0.27793 0.54025
 H3694 H 0.26163 0.28951 0.55557
 C3695 C 0.30133 0.80067 0.09577
 C3696 C 0.31299 0.79691 0.10026
 C3697 C 0.31746 0.80145 0.11150
 C3698 C 0.31039 0.80988 0.11854
 C3699 C 0.29871 0.81361 0.11405
 C3700 C 0.29423 0.80906 0.10282
 C3701 C 0.29644 0.79567 0.08393
 C3702 C 0.28972 0.80335 0.07581
 C3703 C 0.28448 0.79845 0.06504
 C3704 C 0.28592 0.78579 0.06213
 C3705 C 0.29296 0.77819 0.07005
 C3706 C 0.29814 0.78307 0.08084
 C3707 C 0.27924 0.78023 0.05151
 C3708 C 0.28503 0.77133 0.04390
 C3709 C 0.27816 0.76487 0.03500
 C3710 C 0.26540 0.76714 0.03368
 C3711 C 0.25973 0.77640 0.04086
 C3712 C 0.26661 0.78297 0.04963
 H3713 H 0.31875 0.79057 0.09499
 H3714 H 0.32654 0.79845 0.11456
 H3715 H 0.29292 0.81996 0.11927
 H3716 H 0.28510 0.81194 0.09974
 H3717 H 0.28844 0.81315 0.07781
 H3718 H 0.27919 0.80453 0.05904
 H3719 H 0.29402 0.76834 0.06815
 H3720 H 0.30310 0.77686 0.08698
 H3721 H 0.29477 0.76911 0.04512
 H3722 H 0.28262 0.75762 0.02964
 H3723 H 0.24984 0.77813 0.04005
 H3724 H 0.26187 0.78966 0.05545
 C3725 C 0.80153 0.30105 0.09553
 C3726 C 0.81324 0.29740 0.09997
 C3727 C 0.81773 0.30200 0.11119
 C3728 C 0.81061 0.31037 0.11825
 C3729 C 0.79889 0.31401 0.11381
 C3730 C 0.79440 0.30939 0.10260
 C3731 C 0.79664 0.29598 0.08372
 C3732 C 0.78986 0.30362 0.07560
 C3733 C 0.78456 0.29865 0.06489
 C3734 C 0.78596 0.28596 0.06205
 C3735 C 0.79311 0.27843 0.06992
 C3736 C 0.79837 0.28338 0.08065
 C3737 C 0.77904 0.28033 0.05161
 C3738 C 0.78457 0.27128 0.04397
 C3739 C 0.77745 0.26485 0.03522
 C3740 C 0.76469 0.26727 0.03412
 C3741 C 0.75931 0.27669 0.04133
 C3742 C 0.76642 0.28320 0.04994
 H3743 H 0.81902 0.29109 0.09469
 H3744 H 0.82685 0.29907 0.11422
 H3745 H 0.79306 0.32030 0.11905
 H3746 H 0.78523 0.31220 0.09956
 H3747 H 0.78857 0.31342 0.07757
 H3748 H 0.77920 0.30470 0.05891
 H3749 H 0.79416 0.26857 0.06808
 H3750 H 0.80340 0.27721 0.08679
 H3751 H 0.79430 0.26894 0.04502
 H3752 H 0.78173 0.25753 0.02980
 H3753 H 0.74945 0.27863 0.04065
 H3754 H 0.76187 0.29001 0.05577
 C3755 C 0.80173 0.80113 0.59575
 C3756 C 0.81344 0.79747 0.60018
 C3757 C 0.81794 0.80206 0.61140
 C3758 C 0.81083 0.81043 0.61847
 C3759 C 0.79910 0.81406 0.61405
 C3760 C 0.79460 0.80946 0.60283
 C3761 C 0.79682 0.79609 0.58394
 C3762 C 0.79001 0.80374 0.57585
 C3763 C 0.78467 0.79880 0.56516
 C3764 C 0.78607 0.78612 0.56228
 C3765 C 0.79325 0.77857 0.57012
 C3766 C 0.79854 0.78349 0.58084
 C3767 C 0.77913 0.78050 0.55184
 C3768 C 0.78466 0.77149 0.54416
 C3769 C 0.77753 0.76507 0.53542
 C3770 C 0.76476 0.76747 0.53436
 C3771 C 0.75937 0.77685 0.54161
 C3772 C 0.76650 0.78336 0.55021
 H3773 H 0.81922 0.79117 0.59488
 H3774 H 0.82706 0.79913 0.61442
 H3775 H 0.79327 0.82035 0.61929
 H3776 H 0.78543 0.81227 0.59981
 H3777 H 0.78873 0.81354 0.57785
 H3778 H 0.77929 0.80486 0.55921
 H3779 H 0.79429 0.76871 0.56825
 H3780 H 0.80359 0.77732 0.58695
 H3781 H 0.79440 0.76917 0.54519
 H3782 H 0.78181 0.75778 0.52997
 H3783 H 0.74951 0.77877 0.54096
 H3784 H 0.76195 0.79015 0.55608
 C3785 C 0.30040 0.69847 0.40451
 C3786 C 0.29338 0.69048 0.39697
 C3787 C 0.29816 0.68614 0.38578
 C3788 C 0.31010 0.68967 0.38182
 C3789 C 0.31709 0.69775 0.38931
 C3790 C 0.31230 0.70209 0.40053
 C3791 C 0.29523 0.70315 0.41638
 C3792 C 0.29715 0.71556 0.42003
 C3793 C 0.29177 0.72014 0.43087
 C3794 C 0.28429 0.71242 0.43826
 C3795 C 0.28257 0.69994 0.43478
 C3796 C 0.28802 0.69534 0.42398
 C3797 C 0.27753 0.71771 0.44897
 C3798 C 0.26472 0.71551 0.45033
 C3799 C 0.25785 0.72205 0.45915
 C3800 C 0.26370 0.73071 0.46690
 C3801 C 0.27661 0.73233 0.46613
 C3802 C 0.28347 0.72593 0.45717
 H3803 H 0.28407 0.68772 0.39963
 H3804 H 0.29240 0.68009 0.38021
 H3805 H 0.32634 0.70063 0.38664
 H3806 H 0.31801 0.70814 0.40617
 H3807 H 0.30247 0.72188 0.41430
 H3808 H 0.29304 0.72986 0.43321
 H3809 H 0.27692 0.69379 0.44037
 H3810 H 0.28656 0.68567 0.42155
 H3811 H 0.25989 0.70933 0.44406
 H3812 H 0.24786 0.72084 0.45951
 H3813 H 0.28123 0.73914 0.47190
 H3814 H 0.29334 0.72773 0.45635
 C3815 C 0.30133 0.19930 0.90387
 C3816 C 0.29427 0.19097 0.89673
 C3817 C 0.29884 0.18642 0.88553
 C3818 C 0.31058 0.19011 0.88116
 C3819 C 0.31762 0.19849 0.88827
 C3820 C 0.31305 0.20303 0.89949
 C3821 C 0.29634 0.20427 0.91568
 C3822 C 0.29803 0.21686 0.91884
 C3823 C 0.29271 0.22171 0.92959
 C3824 C 0.28556 0.21409 0.93738
 C3825 C 0.28415 0.20144 0.93442
 C3826 C 0.28952 0.19657 0.92371
 C3827 C 0.27873 0.21962 0.94794
 C3828 C 0.26606 0.21693 0.94961
 C3829 C 0.25908 0.22344 0.95834
 C3830 C 0.26468 0.23260 0.96569
 C3831 C 0.27747 0.23482 0.96457
 C3832 C 0.28445 0.22842 0.95570
 H3833 H 0.28509 0.18812 0.89971
 H3834 H 0.29306 0.18013 0.88025
 H3835 H 0.32675 0.20146 0.88530
 H3836 H 0.31878 0.20933 0.90483
 H3837 H 0.30307 0.22308 0.91277
 H3838 H 0.29376 0.23155 0.93153
 H3839 H 0.27877 0.19535 0.94035
 H3840 H 0.28826 0.18678 0.92166
 H3841 H 0.26139 0.21030 0.94367
 H3842 H 0.24917 0.22174 0.95900
 H3843 H 0.28188 0.24199 0.97007
 H3844 H 0.29421 0.23061 0.95464
 C3845 C 0.80012 0.69873 0.90417
 C3846 C 0.81174 0.70276 0.89979
 C3847 C 0.81649 0.69825 0.88864
 C3848 C 0.80975 0.68958 0.88158
 C3849 C 0.79811 0.68557 0.88595
 C3850 C 0.79335 0.69009 0.89710
 C3851 C 0.79495 0.70368 0.91593
 C3852 C 0.78830 0.69589 0.92402
 C3853 C 0.78291 0.70070 0.93477
 C3854 C 0.78414 0.71338 0.93770
 C3855 C 0.79105 0.72111 0.92978
 C3856 C 0.79637 0.71632 0.91901
 C3857 C 0.77750 0.71879 0.94844
 C3858 C 0.78332 0.72765 0.95606
 C3859 C 0.77651 0.73399 0.96510
 C3860 C 0.76378 0.73164 0.96657
 C3861 C 0.75808 0.72242 0.95937
 C3862 C 0.76491 0.71595 0.95046
 H3863 H 0.81726 0.70929 0.90508
 H3864 H 0.82553 0.70149 0.88567
 H3865 H 0.79256 0.67903 0.88073
 H3866 H 0.78426 0.68698 0.90008
 H3867 H 0.78724 0.68606 0.92204
 H3868 H 0.77773 0.69452 0.94077
 H3869 H 0.79195 0.73097 0.93169
 H3870 H 0.80125 0.72262 0.91289
 H3871 H 0.79303 0.72996 0.95474
 H3872 H 0.78099 0.74125 0.97043
 H3873 H 0.74820 0.72066 0.96025
 H3874 H 0.76016 0.70927 0.94464
 C3875 C 0.80144 0.19952 0.40398
 C3876 C 0.79448 0.19087 0.39712
 C3877 C 0.79900 0.18620 0.38594
 C3878 C 0.81059 0.19008 0.38133
 C3879 C 0.81753 0.19876 0.38819
 C3880 C 0.81301 0.20341 0.39938
 C3881 C 0.79652 0.20466 0.41574
 C3882 C 0.79794 0.21736 0.41854
 C3883 C 0.79281 0.22234 0.42932
 C3884 C 0.78610 0.21474 0.43751
 C3885 C 0.78490 0.20199 0.43487
 C3886 C 0.79008 0.19699 0.42411
 C3887 C 0.77953 0.22035 0.44819
 C3888 C 0.76706 0.21726 0.45053
 C3889 C 0.76023 0.22383 0.45934
 C3890 C 0.76579 0.23347 0.46608
 C3891 C 0.77841 0.23613 0.46432
 C3892 C 0.78524 0.22964 0.45540
 H3893 H 0.78542 0.18786 0.40030
 H3894 H 0.79331 0.17966 0.38087
 H3895 H 0.82655 0.20189 0.38505
 H3896 H 0.81866 0.20996 0.40450
 H3897 H 0.80267 0.22356 0.41220
 H3898 H 0.79367 0.23225 0.43099
 H3899 H 0.77987 0.19590 0.44109
 H3900 H 0.78901 0.18713 0.42232
 H3901 H 0.76238 0.21026 0.44503
 H3902 H 0.75043 0.22180 0.46049
 H3903 H 0.78278 0.24367 0.46934
 H3904 H 0.79486 0.23214 0.45384
 C3905 C 0.69878 0.30068 0.40381
 C3906 C 0.68711 0.29691 0.39937
 C3907 C 0.68251 0.30156 0.38822
 C3908 C 0.68946 0.31013 0.38123
 C3909 C 0.70115 0.31388 0.38566
 C3910 C 0.70576 0.30921 0.39681
 C3911 C 0.70378 0.29557 0.41556
 C3912 C 0.71046 0.30320 0.42376
 C3913 C 0.71570 0.29823 0.43450
 C3914 C 0.71431 0.28553 0.43731
 C3915 C 0.70735 0.27797 0.42930
 C3916 C 0.70216 0.28292 0.41854
 C3917 C 0.72092 0.27993 0.44798
 C3918 C 0.71512 0.27090 0.45544
 C3919 C 0.72194 0.26444 0.46440
 C3920 C 0.73464 0.26687 0.46594
 C3921 C 0.74030 0.27626 0.45891
 C3922 C 0.73348 0.28281 0.45008
 H3923 H 0.68144 0.29045 0.40460
 H3924 H 0.67342 0.29853 0.38520
 H3925 H 0.70686 0.32033 0.38048
 H3926 H 0.71489 0.31213 0.39985
 H3927 H 0.71167 0.31303 0.42185
 H3928 H 0.72093 0.30430 0.44057
 H3929 H 0.70634 0.26810 0.43111
 H3930 H 0.69724 0.27674 0.41234
 H3931 H 0.70543 0.26857 0.45406
 H3932 H 0.71748 0.25709 0.46963
 H3933 H 0.75015 0.27810 0.45988
 H3934 H 0.73823 0.28961 0.44439
 C3935 C 0.69910 0.80058 0.90414
 C3936 C 0.68742 0.79677 0.89974
 C3937 C 0.68278 0.80139 0.88859
 C3938 C 0.68969 0.80996 0.88157
 C3939 C 0.70138 0.81377 0.88598
 C3940 C 0.70603 0.80913 0.89712
 C3941 C 0.70415 0.79548 0.91588
 C3942 C 0.71087 0.80311 0.92405
 C3943 C 0.71609 0.79814 0.93480
 C3944 C 0.71465 0.78546 0.93765
 C3945 C 0.70770 0.77789 0.92962
 C3946 C 0.70253 0.78284 0.91886
 C3947 C 0.72108 0.77986 0.94842
 C3948 C 0.71511 0.77088 0.95579
 C3949 C 0.72175 0.76435 0.96482
 C3950 C 0.73445 0.76668 0.96655
 C3951 C 0.74029 0.77603 0.95963
 C3952 C 0.73364 0.78265 0.95070
 H3953 H 0.68178 0.79031 0.90500
 H3954 H 0.67370 0.79832 0.88560
 H3955 H 0.70705 0.82023 0.88078
 H3956 H 0.71516 0.81208 0.90013
 H3957 H 0.71210 0.81293 0.92213
 H3958 H 0.72132 0.80420 0.94088
 H3959 H 0.70665 0.76803 0.93144
 H3960 H 0.69759 0.77666 0.91266
 H3961 H 0.70542 0.76862 0.95429
 H3962 H 0.71717 0.75701 0.96995
 H3963 H 0.75014 0.77777 0.96073
 H3964 H 0.73851 0.78942 0.94508
 C3965 C 0.19824 0.30029 0.90387
 C3966 C 0.18666 0.29640 0.89930
 C3967 C 0.18214 0.30104 0.88811
 C3968 C 0.18909 0.30970 0.88122
 C3969 C 0.20068 0.31358 0.88581
 C3970 C 0.20520 0.30893 0.89700
 C3971 C 0.20317 0.29516 0.91563
 C3972 C 0.20960 0.30283 0.92399
 C3973 C 0.21478 0.29783 0.93474
 C3974 C 0.21360 0.28508 0.93738
 C3975 C 0.20690 0.27747 0.92919
 C3976 C 0.20176 0.28245 0.91843
 C3977 C 0.22013 0.27946 0.94808
 C3978 C 0.21440 0.27017 0.95526
 C3979 C 0.22121 0.26365 0.96416
 C3980 C 0.23383 0.26630 0.96596
 C3981 C 0.23941 0.27596 0.95925
 C3982 C 0.23260 0.28256 0.95044
 H3983 H 0.18101 0.28986 0.90444
 H3984 H 0.17313 0.29791 0.88497
 H3985 H 0.20638 0.32011 0.88073
 H3986 H 0.21426 0.31194 0.90016
 H3987 H 0.21065 0.31270 0.92220
 H3988 H 0.21980 0.30392 0.94096
 H3989 H 0.20606 0.26756 0.93086
 H3990 H 0.19704 0.27626 0.91209
 H3991 H 0.20478 0.26767 0.95368
 H3992 H 0.21683 0.25609 0.96916
 H3993 H 0.24921 0.27797 0.96041
 H3994 H 0.23729 0.28957 0.94496
 C3995 C 0.19950 0.80030 0.40373
 C3996 C 0.18780 0.79646 0.39943
 C3997 C 0.18302 0.80110 0.38834
 C3998 C 0.18982 0.80974 0.38129
 C3999 C 0.20153 0.81359 0.38561
 C4000 C 0.20632 0.80892 0.39668
 C4001 C 0.20471 0.79515 0.41538
 C4002 C 0.21148 0.80276 0.42353
 C4003 C 0.21679 0.79775 0.43423
 C4004 C 0.21537 0.78506 0.43703
 C4005 C 0.20841 0.77751 0.42901
 C4006 C 0.20317 0.78249 0.41829
 C4007 C 0.22176 0.77945 0.44782
 C4008 C 0.21572 0.77052 0.45518
 C4009 C 0.22227 0.76399 0.46426
 C4010 C 0.23496 0.76627 0.46607
 C4011 C 0.24089 0.77557 0.45914
 C4012 C 0.23432 0.78218 0.45015
 H4013 H 0.18224 0.78994 0.40471
 H4014 H 0.17393 0.79800 0.38542
 H4015 H 0.20713 0.82010 0.38039
 H4016 H 0.21546 0.81190 0.39962
 H4017 H 0.21267 0.81259 0.42165
 H4018 H 0.22203 0.80380 0.44031
 H4019 H 0.20738 0.76764 0.43079
 H4020 H 0.19820 0.77633 0.41211
 H4021 H 0.20602 0.76830 0.45364
 H4022 H 0.21763 0.75670 0.46941
 H4023 H 0.25075 0.77727 0.46030
 H4024 H 0.23925 0.78892 0.44454
 C4025 C 0.69941 0.69876 0.59625
 C4026 C 0.70306 0.68690 0.60039
 C4027 C 0.69871 0.68222 0.61166
 C4028 C 0.69059 0.68930 0.61904
 C4029 C 0.68708 0.70122 0.61495
 C4030 C 0.69144 0.70589 0.60372
 C4031 C 0.70401 0.70385 0.58431
 C4032 C 0.69615 0.71102 0.57673
 C4033 C 0.70070 0.71659 0.56598
 C4034 C 0.71317 0.71504 0.56249
 C4035 C 0.72092 0.70750 0.56979
 C4036 C 0.71640 0.70199 0.58060
 C4037 C 0.71841 0.72211 0.55194
 C4038 C 0.72664 0.71641 0.54357
 C4039 C 0.73285 0.72354 0.53467
 C4040 C 0.73106 0.73648 0.53415
 C4041 C 0.72241 0.74207 0.54211
 C4042 C 0.71606 0.73493 0.55085
 H4043 H 0.70913 0.68114 0.59482
 H4044 H 0.70156 0.67298 0.61446
 H4045 H 0.68103 0.70704 0.62045
 H4046 H 0.68868 0.71518 0.60096
 H4047 H 0.68650 0.71242 0.57918
 H4048 H 0.69451 0.72226 0.56044
 H4049 H 0.73063 0.70632 0.56743
 H4050 H 0.72274 0.69668 0.58630
 H4051 H 0.72856 0.70653 0.54419
 H4052 H 0.73962 0.71910 0.52873
 H4053 H 0.72102 0.75206 0.54192
 H4054 H 0.70987 0.73958 0.55725
 C4055 C 0.69873 0.19908 0.09579
 C4056 C 0.70239 0.18723 0.09994
 C4057 C 0.69806 0.18259 0.11122
 C4058 C 0.68996 0.18968 0.11860
 C4059 C 0.68638 0.20156 0.11447
 C4060 C 0.69072 0.20620 0.10322
 C4061 C 0.70338 0.20414 0.08387
 C4062 C 0.69556 0.21125 0.07622
 C4063 C 0.70016 0.21678 0.06547
 C4064 C 0.71266 0.21522 0.06208
 C4065 C 0.72037 0.20774 0.06946
 C4066 C 0.71580 0.20229 0.08026
 C4067 C 0.71795 0.22223 0.05153
 C4068 C 0.72618 0.21649 0.04321
 C4069 C 0.73248 0.22358 0.03435
 C4070 C 0.73077 0.23652 0.03383
 C4071 C 0.72212 0.24217 0.04174
 C4072 C 0.71568 0.23508 0.05044
 H4073 H 0.70846 0.18146 0.09439
 H4074 H 0.70094 0.17336 0.11403
 H4075 H 0.68031 0.20737 0.11997
 H4076 H 0.68794 0.21548 0.10043
 H4077 H 0.68588 0.21264 0.07860
 H4078 H 0.69400 0.22241 0.05986
 H4079 H 0.73010 0.20657 0.06716
 H4080 H 0.72211 0.19702 0.08603
 H4081 H 0.72804 0.20659 0.04384
 H4082 H 0.73925 0.21909 0.02844
 H4083 H 0.72080 0.25217 0.04155
 H4084 H 0.70948 0.23975 0.05682
 C4085 C 0.19854 0.69969 0.09576
 C4086 C 0.20540 0.69093 0.10258
 C4087 C 0.20083 0.68626 0.11374
 C4088 C 0.18927 0.69022 0.11837
 C4089 C 0.18242 0.69900 0.11155
 C4090 C 0.18700 0.70367 0.10038
 C4091 C 0.20353 0.70483 0.08401
 C4092 C 0.20223 0.71755 0.08124
 C4093 C 0.20746 0.72252 0.07050
 C4094 C 0.21413 0.71489 0.06230
 C4095 C 0.21520 0.70212 0.06491
 C4096 C 0.20994 0.69714 0.07564
 C4097 C 0.22074 0.72047 0.05161
 C4098 C 0.23318 0.71726 0.04923
 C4099 C 0.24005 0.72376 0.04038
 C4100 C 0.23455 0.73344 0.03363
 C4101 C 0.22196 0.73623 0.03547
 C4102 C 0.21510 0.72981 0.04442
 H4103 H 0.21443 0.68785 0.09940
 H4104 H 0.20646 0.67964 0.11878
 H4105 H 0.17345 0.70221 0.11472
 H4106 H 0.18142 0.71031 0.09528
 H4107 H 0.19753 0.72376 0.08758
 H4108 H 0.20668 0.73244 0.06885
 H4109 H 0.22020 0.69601 0.05870
 H4110 H 0.21091 0.68726 0.07740
 H4111 H 0.23781 0.71022 0.05472
 H4112 H 0.24982 0.72165 0.03920
 H4113 H 0.21764 0.74382 0.03046
 H4114 H 0.20551 0.73241 0.04601
 C4115 C 0.19854 0.19913 0.59599
 C4116 C 0.20547 0.19054 0.60294
 C4117 C 0.20088 0.18591 0.61411
 C4118 C 0.18924 0.18977 0.61861
 C4119 C 0.18231 0.19837 0.61165
 C4120 C 0.18690 0.20299 0.60047
 C4121 C 0.20355 0.20424 0.58424
 C4122 C 0.20208 0.21692 0.58135
 C4123 C 0.20730 0.22187 0.57060
 C4124 C 0.21415 0.21427 0.56252
 C4125 C 0.21540 0.20154 0.56525
 C4126 C 0.21013 0.19657 0.57598
 C4127 C 0.22075 0.21986 0.55184
 C4128 C 0.23327 0.21688 0.54964
 C4129 C 0.24011 0.22344 0.54082
 C4130 C 0.23449 0.23294 0.53391
 C4131 C 0.22182 0.23547 0.53555
 C4132 C 0.21499 0.22900 0.54449
 H4133 H 0.21457 0.18755 0.59986
 H4134 H 0.20656 0.17942 0.61925
 H4135 H 0.17327 0.20148 0.61472
 H4136 H 0.18127 0.20949 0.59527
 H4137 H 0.19724 0.22312 0.58760
 H4138 H 0.20639 0.23176 0.56885
 H4139 H 0.22053 0.19546 0.55912
 H4140 H 0.21123 0.18672 0.57784
 H4141 H 0.23799 0.21000 0.55525
 H4142 H 0.24994 0.22153 0.53977
 H4143 H 0.21741 0.24291 0.53041
 H4144 H 0.20533 0.23141 0.54594
   
