data_POSCAR
  _audit_creation_date              2014-09-24
  _audit_creation_method            'ToBaCCo'
  _symmetry_space_group_name_H-M    'P1'
  _symmetry_Int_Tables_number       1
  _symmetry_cell_setting            triclinic
  loop_
  _symmetry_equiv_pos_as_xyz
 x,y,z
_cell_length_a 37.0127
_cell_length_b 24.9920
_cell_length_c 27.2610
_cell_angle_alpha 90.016200
_cell_angle_beta 89.985200
_cell_angle_gamma 89.948200
loop_
  _atom_site_label
  _atom_site_type_symbol
  _atom_site_fract_x
  _atom_site_fract_y
  _atom_site_fract_z
C1 C 0.00823 0.02149 0.15698
 C2 C -0.00277 -0.02111 -0.16125
 C3 C -0.09500 -0.03165 0.07753
 C4 C -0.05378 0.13063 0.06885
 C5 C -0.09841 -0.04549 -0.06731
 C6 C 0.05792 -0.12799 -0.07444
 C7 C 0.09865 0.02626 -0.08777
 C8 C 0.06188 -0.11354 0.08299
 C9 C -0.05660 0.11698 -0.08595
 C10 C 0.10159 0.04068 0.07118
 O11 O -0.07052 -0.07480 -0.07703
 O12 O -0.09821 -0.00297 -0.04040
 O13 O -0.02308 0.10954 -0.09743
 O14 O -0.07384 0.09200 -0.05173
 O15 O 0.07396 0.07122 0.07956
 O16 O 0.10201 0.00120 0.04055
 O17 O 0.00859 0.02488 -0.14593
 O18 O -0.01245 -0.05960 -0.13292
 O19 O 0.01810 0.06035 0.12926
 O20 O -0.00399 -0.02383 0.14150
 O21 O 0.02336 -0.12476 -0.08062
 O22 O 0.07651 -0.09731 -0.04575
 O23 O -0.06621 -0.05700 0.09116
 O24 O -0.09619 0.00546 0.04474
 O25 O 0.02879 -0.10490 0.09559
 O26 O 0.07873 -0.09010 0.04755
 O27 O 0.06985 0.05217 -0.10070
 O28 O 0.10026 -0.00736 -0.05184
 O29 O 0.04182 0.14814 0.05118
 O30 O 0.03701 0.12934 -0.09469
 O31 O -0.03462 -0.14811 -0.05655
 O32 O -0.02989 -0.12897 0.09158
 O33 O -0.04357 -0.04785 0.00615
 O34 O -0.01016 0.08286 -0.01036
 O35 O 0.01449 -0.08051 0.00601
 O36 O -0.02648 0.02579 0.06271
 O37 O -0.07220 0.10000 0.03997
 O38 O -0.01921 0.12739 0.07579
 O39 O 0.03524 -0.00859 0.06300
 O40 O 0.03124 -0.02501 -0.06730
 O41 O 0.04780 0.04933 -0.00996
 O42 O -0.03042 0.01007 -0.06680
 Zr43 Zr 0.01996 0.07023 0.05339
 Zr44 Zr -0.01551 -0.06860 -0.05711
 Zr45 Zr -0.05560 0.03361 -0.00209
 Zr46 Zr -0.01151 -0.05297 0.06897
 Zr47 Zr 0.01629 0.05425 -0.07328
 Zr48 Zr 0.06025 -0.03200 -0.00212
 H49 H 0.02005 -0.11913 0.00875
 H50 H -0.04090 0.03624 0.09172
 H51 H 0.06941 0.07243 -0.01269
 H52 H -0.04636 0.01504 -0.09556
 H53 H 0.03302 0.16399 0.02015
 H54 H 0.04385 0.14753 -0.06382
 H55 H -0.03320 -0.14978 0.06103
 H56 H -0.04464 -0.15374 -0.02330
 C57 C 0.25777 0.22764 0.09020
 C58 C 0.24858 0.27277 0.40846
 C59 C 0.15498 0.28319 0.17033
 C60 C 0.19531 0.12064 0.17930
 C61 C 0.15192 0.29799 0.31587
 C62 C 0.30805 0.38008 0.31921
 C63 C 0.34848 0.22440 0.33472
 C64 C 0.31172 0.36473 0.16442
 C65 C 0.19291 0.13530 0.33450
 C66 C 0.35195 0.20662 0.17837
 O67 O 0.17999 0.32695 0.32530
 O68 O 0.15185 0.25554 0.28878
 O69 O 0.22650 0.14247 0.34576
 O70 O 0.17573 0.16016 0.30013
 O71 O 0.32401 0.17686 0.16960
 O72 O 0.35218 0.24737 0.20758
 O73 O 0.25931 0.22652 0.39324
 O74 O 0.23857 0.31137 0.38048
 O75 O 0.26784 0.18935 0.11853
 O76 O 0.24581 0.27332 0.10552
 O77 O 0.27376 0.37626 0.32716
 O78 O 0.32656 0.34903 0.29077
 O79 O 0.18385 0.30798 0.15635
 O80 O 0.15363 0.24635 0.20334
 O81 O 0.27867 0.35598 0.15168
 O82 O 0.32875 0.34036 0.19918
 O83 O 0.31973 0.19877 0.34804
 O84 O 0.35030 0.25777 0.29869
 O85 O 0.29058 0.10160 0.19658
 O86 O 0.28657 0.12153 0.34209
 O87 O 0.21568 0.39955 0.30331
 O88 O 0.22031 0.37913 0.15442
 O89 O 0.20665 0.29922 0.24123
 O90 O 0.23942 0.16823 0.25826
 O91 O 0.26455 0.33098 0.24094
 O92 O 0.22327 0.22497 0.18507
 O93 O 0.17720 0.15163 0.20834
 O94 O 0.22993 0.12350 0.17242
 O95 O 0.28534 0.25865 0.18382
 O96 O 0.28146 0.27601 0.31440
 O97 O 0.29748 0.20124 0.25746
 O98 O 0.21961 0.24158 0.31459
 Zr99 Zr 0.26957 0.18009 0.19438
 Zr100 Zr 0.23478 0.31999 0.30449
 Zr101 Zr 0.19416 0.21803 0.25010
 Zr102 Zr 0.23861 0.30341 0.17802
 Zr103 Zr 0.26616 0.19689 0.32082
 Zr104 Zr 0.31030 0.28236 0.24895
 H105 H 0.27000 0.36959 0.23797
 H106 H 0.20877 0.21454 0.15614
 H107 H 0.31892 0.17778 0.26048
 H108 H 0.20382 0.23697 0.34357
 H109 H 0.28188 0.08615 0.22784
 H110 H 0.29338 0.10332 0.31121
 H111 H 0.21646 0.40015 0.18475
 H112 H 0.20615 0.40512 0.26979
 C113 C 0.50994 0.01775 0.15888
 C114 C 0.49433 -0.02187 -0.15836
 C115 C 0.60577 0.03870 0.06765
 C116 C 0.56611 -0.12538 0.07456
 C117 C 0.60034 0.02820 -0.08556
 C118 C 0.44233 0.10838 -0.08376
 C119 C 0.40414 -0.04860 -0.06626
 C120 C 0.44805 0.11997 0.07730
 C121 C 0.55949 -0.13386 -0.07214
 C122 C 0.40971 -0.03682 0.08506
 O123 O 0.57113 0.05402 -0.09729
 O124 O 0.60227 -0.00763 -0.05160
 O125 O 0.52478 -0.13147 -0.07640
 O126 O 0.57878 -0.10087 -0.04660
 O127 O 0.43898 -0.06187 0.09809
 O128 O 0.40805 -0.00042 0.05162
 O129 O 0.48626 -0.06161 -0.13074
 O130 O 0.50705 0.02326 -0.14321
 O131 O 0.49890 -0.02840 0.14387
 O132 O 0.52105 0.05567 0.13110
 O133 O 0.47569 0.10198 -0.09629
 O134 O 0.42645 0.08403 -0.04785
 O135 O 0.57818 0.06914 0.07661
 O136 O 0.60547 -0.00226 0.03850
 O137 O 0.48280 0.11743 0.08314
 O138 O 0.42996 0.09061 0.04706
 O139 O 0.43201 -0.07752 -0.07685
 O140 O 0.40425 -0.00799 -0.03705
 O141 O 0.47575 -0.13639 0.09351
 O142 O 0.46590 -0.15165 -0.05630
 O143 O 0.53491 0.12790 -0.09187
 O144 O 0.54122 0.14470 0.05356
 O145 O 0.55042 0.04597 -0.00928
 O146 O 0.51810 -0.08565 0.00699
 O147 O 0.49182 0.07702 -0.00661
 O148 O 0.53901 -0.01412 0.06354
 O149 O 0.57917 -0.10206 0.03647
 O150 O 0.53605 -0.11182 0.09611
 O151 O 0.47716 0.01941 0.06641
 O152 O 0.47071 0.00539 -0.06395
 O153 O 0.46059 -0.05417 0.00941
 O154 O 0.53242 -0.02771 -0.06658
 Zr155 Zr 0.49326 -0.05965 0.07185
 Zr156 Zr 0.51705 0.05107 -0.07094
 Zr157 Zr 0.56272 -0.03547 -0.00301
 Zr158 Zr 0.52309 0.06469 0.05550
 Zr159 Zr 0.48671 -0.07309 -0.05521
 Zr160 Zr 0.44693 0.02701 0.00222
 H161 H 0.48538 0.11541 -0.00860
 H162 H 0.55503 -0.02018 0.09205
 H163 H 0.43969 -0.07860 0.01222
 H164 H 0.54599 -0.03835 -0.09630
 H165 H 0.47320 -0.15695 0.06270
 H166 H 0.46825 -0.16490 -0.02227
 H167 H 0.55481 0.14822 0.02247
 H168 H 0.53792 0.14798 -0.06087
 C169 C 0.75900 0.22810 0.09156
 C170 C 0.74873 0.27230 0.40845
 C171 C 0.65487 0.27824 0.17036
 C172 C 0.69788 0.11797 0.17853
 C173 C 0.65154 0.29278 0.31653
 C174 C 0.80684 0.37931 0.32126
 C175 C 0.84946 0.22490 0.33550
 C176 C 0.81055 0.36457 0.16439
 C177 C 0.69476 0.13294 0.33626
 C178 C 0.85231 0.21050 0.17663
 O179 O 0.67918 0.32273 0.32585
 O180 O 0.65200 0.25044 0.28932
 O181 O 0.72829 0.14111 0.34729
 O182 O 0.67735 0.15648 0.30126
 O183 O 0.82485 0.17952 0.16871
 O184 O 0.85232 0.25025 0.20700
 O185 O 0.76034 0.22636 0.39349
 O186 O 0.73776 0.31018 0.38050
 O187 O 0.76918 0.18940 0.11922
 O188 O 0.74616 0.27308 0.10691
 O189 O 0.77250 0.37484 0.32866
 O190 O 0.82574 0.34930 0.29237
 O191 O 0.68340 0.30417 0.15675
 O192 O 0.65394 0.24156 0.20360
 O193 O 0.77749 0.35516 0.15213
 O194 O 0.82786 0.34130 0.19960
 O195 O 0.82083 0.19869 0.34852
 O196 O 0.85072 0.25871 0.29959
 O197 O 0.79345 0.10210 0.19763
 O198 O 0.78837 0.12092 0.34239
 O199 O 0.71414 0.39723 0.30300
 O200 O 0.71845 0.37749 0.15670
 O201 O 0.70602 0.29634 0.24200
 O202 O 0.74089 0.16632 0.25878
 O203 O 0.76398 0.33036 0.24178
 O204 O 0.72399 0.22306 0.18580
 O205 O 0.67922 0.14779 0.20806
 O206 O 0.73244 0.12200 0.17200
 O207 O 0.78532 0.25870 0.18498
 O208 O 0.78137 0.27548 0.31491
 O209 O 0.79869 0.20133 0.25797
 O210 O 0.72015 0.23918 0.31489
 Zr211 Zr 0.77090 0.17964 0.19500
 Zr212 Zr 0.73410 0.31813 0.30486
 Zr213 Zr 0.69487 0.21456 0.25060
 Zr214 Zr 0.73806 0.30209 0.17921
 Zr215 Zr 0.76729 0.19593 0.32128
 Zr216 Zr 0.81035 0.28287 0.24977
 H217 H 0.76902 0.36910 0.23890
 H218 H 0.70978 0.21236 0.15670
 H219 H 0.82050 0.17858 0.26065
 H220 H 0.70452 0.23423 0.34398
 H221 H 0.78401 0.08574 0.22809
 H222 H 0.79560 0.10312 0.31150
 H223 H 0.71556 0.39856 0.18718
 H224 H 0.70215 0.40103 0.27075
 C225 C 0.00743 0.52296 0.15823
 C226 C -0.00360 0.47897 -0.15992
 C227 C -0.09596 0.46929 0.07900
 C228 C -0.05483 0.63166 0.06979
 C229 C -0.09933 0.45517 -0.06617
 C230 C 0.05649 0.37153 -0.07095
 C231 C 0.09739 0.52529 -0.08691
 C232 C 0.06077 0.38715 0.08522
 C233 C -0.05713 0.61771 -0.08513
 C234 C 0.10083 0.54210 0.07229
 O235 O -0.07144 0.42581 -0.07567
 O236 O -0.09917 0.49778 -0.03934
 O237 O -0.02364 0.60996 -0.09652
 O238 O -0.07452 0.59293 -0.05089
 O239 O 0.07318 0.57269 0.08054
 O240 O 0.10115 0.50224 0.04205
 O241 O 0.00768 0.52504 -0.14468
 O242 O -0.01330 0.44060 -0.13144
 O243 O 0.01726 0.56177 0.13043
 O244 O -0.00483 0.47764 0.14289
 O245 O 0.02222 0.37566 -0.07876
 O246 O 0.07515 0.40196 -0.04223
 O247 O -0.06701 0.44449 0.09276
 O248 O -0.09716 0.50620 0.04596
 O249 O 0.02763 0.39611 0.09748
 O250 O 0.07765 0.41080 0.04987
 O251 O 0.06873 0.55126 -0.10001
 O252 O 0.09933 0.49253 -0.05039
 O253 O 0.04082 0.64931 0.05189
 O254 O 0.03658 0.62937 -0.09334
 O255 O -0.03572 0.35253 -0.05437
 O256 O -0.03098 0.37248 0.09348
 O257 O -0.04453 0.45309 0.00768
 O258 O -0.01103 0.58353 -0.00932
 O259 O 0.01344 0.42039 0.00777
 O260 O -0.02741 0.52698 0.06391
 O261 O -0.07322 0.60097 0.04093
 O262 O -0.02024 0.62845 0.07677
 O263 O 0.03434 0.49255 0.06465
 O264 O 0.03036 0.47528 -0.06561
 O265 O 0.04693 0.54991 -0.00870
 O266 O -0.03136 0.51060 -0.06553
 Zr267 Zr 0.01907 0.57133 0.05452
 Zr268 Zr -0.01652 0.43200 -0.05551
 Zr269 Zr -0.05658 0.53449 -0.00094
 Zr270 Zr -0.01243 0.44827 0.07054
 Zr271 Zr 0.01545 0.55451 -0.07206
 Zr272 Zr 0.05932 0.46862 -0.00028
 H273 H 0.01885 0.38175 0.01085
 H274 H -0.04182 0.53751 0.09291
 H275 H 0.06859 0.57287 -0.01169
 H276 H -0.04724 0.51552 -0.09436
 H277 H 0.03167 0.66515 0.02103
 H278 H 0.04342 0.64749 -0.06245
 H279 H -0.03439 0.35154 0.06302
 H280 H -0.04601 0.34735 -0.02121
 C281 C 0.25968 0.72887 0.09197
 C282 C 0.24785 0.77509 0.40887
 C283 C 0.15641 0.78493 0.16958
 C284 C 0.19534 0.62245 0.17950
 C285 C 0.15200 0.79990 0.31518
 C286 C 0.30827 0.88119 0.32032
 C287 C 0.34804 0.72465 0.33734
 C288 C 0.31517 0.86325 0.16587
 C289 C 0.19243 0.63689 0.33487
 C290 C 0.35217 0.70744 0.17969
 O291 O 0.18006 0.82880 0.32491
 O292 O 0.15204 0.75742 0.28819
 O293 O 0.22592 0.64399 0.34658
 O294 O 0.17552 0.66191 0.30030
 O295 O 0.32426 0.67769 0.17086
 O296 O 0.35266 0.74746 0.20970
 O297 O 0.25850 0.72861 0.39413
 O298 O 0.23818 0.81358 0.38067
 O299 O 0.26897 0.68997 0.11998
 O300 O 0.24786 0.77464 0.10692
 O301 O 0.27392 0.87777 0.32781
 O302 O 0.32691 0.84958 0.29257
 O303 O 0.18555 0.80968 0.15628
 O304 O 0.15481 0.74819 0.20266
 O305 O 0.28189 0.85561 0.15294
 O306 O 0.33114 0.83900 0.20148
 O307 O 0.31911 0.69923 0.35021
 O308 O 0.35029 0.75792 0.30135
 O309 O 0.29067 0.60209 0.19890
 O310 O 0.28566 0.62274 0.34434
 O311 O 0.21612 0.90123 0.30287
 O312 O 0.22282 0.88086 0.15487
 O313 O 0.20741 0.80082 0.24135
 O314 O 0.23939 0.66936 0.25933
 O315 O 0.26570 0.83218 0.24198
 O316 O 0.22423 0.72647 0.18581
 O317 O 0.17732 0.65359 0.20847
 O318 O 0.23003 0.62487 0.17297
 O319 O 0.28627 0.75910 0.18570
 O320 O 0.28143 0.77706 0.31586
 O321 O 0.29767 0.70164 0.25925
 O322 O 0.21953 0.74328 0.31507
 Zr323 Zr 0.26998 0.68073 0.19584
 Zr324 Zr 0.23504 0.82159 0.30483
 Zr325 Zr 0.19456 0.71969 0.25035
 Zr326 Zr 0.24017 0.80482 0.17891
 Zr327 Zr 0.26580 0.69810 0.32213
 Zr328 Zr 0.31088 0.78261 0.25100
 H329 H 0.27157 0.87062 0.23871
 H330 H 0.20991 0.71615 0.15668
 H331 H 0.31900 0.67801 0.26253
 H332 H 0.20348 0.73884 0.34381
 H333 H 0.28123 0.58672 0.22980
 H334 H 0.29246 0.60407 0.31369
 H335 H 0.21953 0.90232 0.18505
 H336 H 0.20644 0.90638 0.26936
 C337 C 0.50587 0.52210 0.15850
 C338 C 0.49550 0.47579 -0.15819
 C339 C 0.60334 0.54075 0.06942
 C340 C 0.56065 0.37953 0.08303
 C341 C 0.59963 0.52548 -0.08341
 C342 C 0.44303 0.60963 -0.08791
 C343 C 0.40287 0.45423 -0.06861
 C344 C 0.44654 0.62482 0.07396
 C345 C 0.55735 0.36434 -0.06623
 C346 C 0.40595 0.47105 0.08319
 O347 O 0.57093 0.55148 -0.09643
 O348 O 0.60116 0.49065 -0.04843
 O349 O 0.52304 0.36860 -0.07395
 O350 O 0.57636 0.39618 -0.03922
 O351 O 0.43482 0.44629 0.09738
 O352 O 0.40464 0.50555 0.04810
 O353 O 0.48638 0.43695 -0.13010
 O354 O 0.50804 0.52117 -0.14337
 O355 O 0.49499 0.47589 0.14350
 O356 O 0.51708 0.55996 0.13064
 O357 O 0.47646 0.60174 -0.09947
 O358 O 0.42632 0.58708 -0.05182
 O359 O 0.57568 0.57124 0.07788
 O360 O 0.60329 0.49957 0.04071
 O361 O 0.48117 0.62190 0.08033
 O362 O 0.42844 0.59553 0.04361
 O363 O 0.43066 0.42454 -0.07791
 O364 O 0.40285 0.49566 -0.04037
 O365 O 0.46821 0.37058 0.09520
 O366 O 0.46335 0.34976 -0.05292
 O367 O 0.53606 0.62656 -0.09271
 O368 O 0.54008 0.64702 0.05155
 O369 O 0.54919 0.54615 -0.00841
 O370 O 0.51515 0.41595 0.00917
 O371 O 0.49083 0.57915 -0.00854
 O372 O 0.53545 0.48865 0.06506
 O373 O 0.57826 0.40509 0.04949
 O374 O 0.52739 0.38846 0.09496
 O375 O 0.47407 0.52415 0.06475
 O376 O 0.46991 0.50647 -0.06512
 O377 O 0.45737 0.44946 0.00845
 O378 O 0.53155 0.47160 -0.06429
 Zr379 Zr 0.48868 0.44500 0.07154
 Zr380 Zr 0.51683 0.55062 -0.07129
 Zr381 Zr 0.56084 0.46462 0.00053
 Zr382 Zr 0.52096 0.56756 0.05483
 Zr383 Zr 0.48501 0.42782 -0.05433
 Zr384 Zr 0.44505 0.53078 -0.00034
 H385 H 0.48496 0.61765 -0.01160
 H386 H 0.55081 0.48297 0.09429
 H387 H 0.43611 0.42573 0.01141
 H388 H 0.54555 0.45970 -0.09323
 H389 H 0.46124 0.35132 0.06493
 H390 H 0.46817 0.33614 -0.01948
 H391 H 0.55480 0.64906 0.02130
 H392 H 0.53832 0.64735 -0.06198
 C393 C 0.75840 0.73055 0.09108
 C394 C 0.74644 0.77467 0.40777
 C395 C 0.65407 0.77928 0.16587
 C396 C 0.69598 0.62110 0.17825
 C397 C 0.64990 0.79603 0.31541
 C398 C 0.80560 0.88154 0.32091
 C399 C 0.84709 0.72751 0.33594
 C400 C 0.81024 0.86638 0.16380
 C401 C 0.69266 0.63585 0.33462
 C402 C 0.85091 0.71213 0.17685
 O403 O 0.67758 0.82585 0.32490
 O404 O 0.65015 0.75415 0.28775
 O405 O 0.72615 0.64376 0.34576
 O406 O 0.67521 0.66001 0.29995
 O407 O 0.82335 0.68140 0.16874
 O408 O 0.85094 0.75193 0.20717
 O409 O 0.75785 0.72869 0.39275
 O410 O 0.73587 0.81287 0.37983
 O411 O 0.76803 0.69170 0.11891
 O412 O 0.74579 0.77581 0.10624
 O413 O 0.77121 0.87741 0.32819
 O414 O 0.82442 0.85141 0.29206
 O415 O 0.68288 0.80581 0.15437
 O416 O 0.65200 0.74451 0.20083
 O417 O 0.77708 0.85744 0.15154
 O418 O 0.82708 0.84293 0.19933
 O419 O 0.81842 0.70146 0.34878
 O420 O 0.84894 0.76077 0.29973
 O421 O 0.79140 0.60438 0.19778
 O422 O 0.78602 0.62356 0.34169
 O423 O 0.71296 0.90049 0.30230
 O424 O 0.71771 0.88058 0.15611
 O425 O 0.70448 0.79997 0.24082
 O426 O 0.73872 0.66956 0.25797
 O427 O 0.76282 0.83306 0.24123
 O428 O 0.72267 0.72614 0.18500
 O429 O 0.67731 0.65128 0.20737
 O430 O 0.73056 0.62485 0.17173
 O431 O 0.78408 0.76107 0.18465
 O432 O 0.77957 0.77807 0.31439
 O433 O 0.79697 0.70365 0.25772
 O434 O 0.71817 0.74236 0.31383
 Zr435 Zr 0.76927 0.68217 0.19467
 Zr436 Zr 0.73253 0.82118 0.30407
 Zr437 Zr 0.69286 0.71828 0.24930
 Zr438 Zr 0.73711 0.80502 0.17849
 Zr439 Zr 0.76515 0.69871 0.32057
 Zr440 Zr 0.80892 0.78507 0.24953
 H441 H 0.76812 0.87173 0.23827
 H442 H 0.70877 0.71521 0.15571
 H443 H 0.81867 0.68073 0.26070
 H444 H 0.70246 0.73735 0.34282
 H445 H 0.78146 0.58808 0.22797
 H446 H 0.79374 0.60602 0.31089
 H447 H 0.71469 0.90149 0.18665
 H448 H 0.70084 0.90438 0.27015
 C449 C 0.00364 0.02430 0.34087
 C450 C -0.00701 -0.01847 0.65909
 C451 C -0.05928 0.13599 0.43205
 C452 C -0.10071 -0.02577 0.41766
 C453 C -0.06104 0.12309 0.58134
 C454 C 0.09348 0.02966 0.58267
 C455 C 0.05273 -0.12241 0.57473
 C456 C 0.09626 0.04581 0.42958
 C457 C -0.10401 -0.03987 0.56909
 C458 C 0.05612 -0.10843 0.41119
 O459 O -0.02779 0.11441 0.59354
 O460 O -0.07885 0.09690 0.54848
 O461 O -0.07626 -0.06998 0.57782
 O462 O -0.10393 0.00155 0.54067
 O463 O 0.02260 -0.10062 0.40021
 O464 O 0.07276 -0.08603 0.44751
 O465 O -0.01798 -0.05649 0.63110
 O466 O 0.00422 0.02743 0.64354
 O467 O -0.00903 -0.02085 0.35627
 O468 O 0.01266 0.06333 0.36889
 O469 O 0.06484 0.05519 0.59675
 O470 O 0.09481 -0.00451 0.54734
 O471 O -0.02486 0.13168 0.42421
 O472 O -0.07778 0.10435 0.45992
 O473 O 0.06843 0.07568 0.42050
 O474 O 0.09617 0.00496 0.45851
 O475 O 0.01817 -0.11948 0.58126
 O476 O 0.07092 -0.09379 0.54393
 O477 O -0.03676 -0.12592 0.40781
 O478 O -0.04029 -0.14521 0.55307
 O479 O 0.03178 0.13162 0.59365
 O480 O 0.03549 0.15144 0.44582
 O481 O -0.01585 0.08547 0.50837
 O482 O -0.04979 -0.04483 0.49188
 O483 O 0.04189 0.05195 0.50753
 O484 O -0.03250 0.02923 0.43524
 O485 O -0.10202 0.00960 0.45219
 O486 O -0.07188 -0.05134 0.40443
 O487 O 0.02915 -0.00550 0.43451
 O488 O 0.02539 -0.02211 0.56454
 O489 O 0.00841 -0.07791 0.49164
 O490 O -0.03607 0.01343 0.56496
 Zr491 Zr -0.01767 -0.04974 0.42877
 Zr492 Zr 0.01083 0.05711 0.57096
 Zr493 Zr -0.06155 0.03667 0.50026
 Zr494 Zr 0.01400 0.07328 0.44465
 Zr495 Zr -0.02151 -0.06553 0.55523
 Zr496 Zr 0.05418 -0.02954 0.49924
 H497 H 0.06329 0.07545 0.51026
 H498 H -0.04663 0.04062 0.40626
 H499 H 0.01435 -0.11641 0.48872
 H500 H -0.05156 0.01935 0.59405
 H501 H -0.03905 -0.14647 0.43866
 H502 H -0.05423 -0.14825 0.52223
 H503 H 0.02965 0.16575 0.47873
 H504 H 0.03884 0.15029 0.56311
 C505 C 0.25291 0.22615 0.91062
 C506 C 0.24468 0.27158 0.59246
 C507 C 0.19003 0.11557 0.81714
 C508 C 0.14984 0.27796 0.83323
 C509 C 0.18850 0.13014 0.66871
 C510 C 0.34411 0.21919 0.66979
 C511 C 0.30449 0.37361 0.67864
 C512 C 0.34581 0.20196 0.82270
 C513 C 0.14716 0.29361 0.68165
 C514 C 0.30691 0.35932 0.83965
 O515 O 0.22192 0.13823 0.65695
 O516 O 0.17095 0.15661 0.70167
 O517 O 0.17516 0.32325 0.67318
 O518 O 0.14684 0.25216 0.70999
 O519 O 0.27341 0.35174 0.85092
 O520 O 0.32362 0.33595 0.80394
 O521 O 0.23389 0.30963 0.62054
 O522 O 0.25517 0.22518 0.60780
 O523 O 0.24108 0.27182 0.89527
 O524 O 0.26159 0.18700 0.88244
 O525 O 0.31528 0.19465 0.65514
 O526 O 0.34557 0.25339 0.70507
 O527 O 0.22438 0.11925 0.82545
 O528 O 0.17183 0.14799 0.78969
 O529 O 0.31768 0.17272 0.83120
 O530 O 0.34623 0.24327 0.79419
 O531 O 0.26993 0.37145 0.67182
 O532 O 0.32241 0.34368 0.70872
 O533 O 0.21421 0.37713 0.84420
 O534 O 0.21137 0.39752 0.69900
 O535 O 0.28122 0.11964 0.65660
 O536 O 0.28439 0.09872 0.80561
 O537 O 0.23400 0.16615 0.74240
 O538 O 0.20105 0.29709 0.75942
 O539 O 0.29187 0.19827 0.74391
 O540 O 0.21746 0.22224 0.81575
 O541 O 0.14838 0.24293 0.79847
 O542 O 0.17872 0.30314 0.84666
 O543 O 0.27948 0.25567 0.81732
 O544 O 0.27637 0.27321 0.68714
 O545 O 0.25951 0.32863 0.76019
 O546 O 0.21459 0.23907 0.68597
 Zr547 Zr 0.23299 0.30088 0.82276
 Zr548 Zr 0.26108 0.19438 0.68013
 Zr549 Zr 0.18875 0.21589 0.75037
 Zr550 Zr 0.26358 0.17734 0.80652
 Zr551 Zr 0.22976 0.31761 0.69639
 Zr552 Zr 0.30493 0.27932 0.75275
 H553 H 0.31301 0.17419 0.74132
 H554 H 0.20311 0.21076 0.84451
 H555 H 0.26562 0.36704 0.76324
 H556 H 0.19923 0.23372 0.65668
 H557 H 0.21201 0.39793 0.81348
 H558 H 0.19736 0.40052 0.72980
 H559 H 0.28012 0.08541 0.77191
 H560 H 0.28764 0.10013 0.68696
 C561 C 0.50271 0.02315 0.34174
 C562 C 0.49033 -0.02103 0.65878
 C563 C 0.55549 -0.11595 0.41472
 C564 C 0.59876 0.04497 0.43411
 C565 C 0.55299 -0.13031 0.57088
 C566 C 0.39817 -0.04025 0.57253
 C567 C 0.43877 0.11560 0.58569
 C568 C 0.40149 -0.02359 0.41454
 C569 C 0.59521 0.02989 0.58011
 C570 C 0.44245 0.13075 0.43008
 O571 O 0.51846 -0.12677 0.57774
 O572 O 0.57158 -0.10012 0.54178
 O573 O 0.56658 0.05566 0.59387
 O574 O 0.59625 -0.00664 0.54679
 O575 O 0.47681 0.12633 0.42227
 O576 O 0.42399 0.10026 0.45897
 O577 O 0.50323 0.02398 0.64357
 O578 O 0.48077 -0.05975 0.63078
 O579 O 0.51269 0.06153 0.36987
 O580 O 0.49118 -0.02269 0.35691
 O581 O 0.42566 -0.07104 0.58059
 O582 O 0.39800 0.00013 0.54292
 O583 O 0.52199 -0.10785 0.40389
 O584 O 0.57293 -0.09174 0.44932
 O585 O 0.43026 -0.04914 0.40129
 O586 O 0.39976 0.00951 0.45086
 O587 O 0.47193 0.10655 0.59801
 O588 O 0.42180 0.09162 0.55066
 O589 O 0.53542 0.14923 0.44717
 O590 O 0.53108 0.12859 0.59500
 O591 O 0.45790 -0.14734 0.55225
 O592 O 0.46208 -0.12701 0.40739
 O593 O 0.50980 -0.08209 0.49140
 O594 O 0.54389 0.04825 0.50864
 O595 O 0.45189 -0.04769 0.49217
 O596 O 0.53029 -0.00887 0.43553
 O597 O 0.59819 0.00261 0.46126
 O598 O 0.57097 0.07491 0.42500
 O599 O 0.46885 0.02698 0.43542
 O600 O 0.46482 0.00951 0.56549
 O601 O 0.48597 0.08160 0.50883
 O602 O 0.52630 -0.02550 0.56471
 Zr603 Zr 0.51588 0.06996 0.44561
 Zr604 Zr 0.47971 -0.06940 0.55508
 Zr605 Zr 0.55544 -0.03340 0.49982
 Zr606 Zr 0.48340 -0.05238 0.42907
 Zr607 Zr 0.51180 0.05340 0.57150
 Zr608 Zr 0.43991 0.03365 0.50069
 H609 H 0.43023 -0.07065 0.48915
 H610 H 0.54610 -0.01397 0.40664
 H611 H 0.48073 0.12029 0.51180
 H612 H 0.54047 -0.03623 0.59384
 H613 H 0.54625 0.15382 0.48008
 H614 H 0.53467 0.14969 0.56467
 H615 H 0.45504 -0.14521 0.43816
 H616 H 0.46702 -0.16314 0.52134
 C617 C 0.75469 0.22685 0.90835
 C618 C 0.74421 0.27305 0.59150
 C619 C 0.69141 0.11649 0.81700
 C620 C 0.64999 0.27549 0.83360
 C621 C 0.68980 0.13061 0.66683
 C622 C 0.84410 0.22435 0.66680
 C623 C 0.80233 0.37656 0.67624
 C624 C 0.84685 0.20728 0.81985
 C625 C 0.64648 0.29090 0.67973
 C626 C 0.80562 0.36165 0.83888
 O627 O 0.72306 0.13966 0.65493
 O628 O 0.67212 0.15599 0.70041
 O629 O 0.67393 0.32176 0.67153
 O630 O 0.64664 0.24999 0.70869
 O631 O 0.77221 0.35324 0.84999
 O632 O 0.82249 0.33938 0.80266
 O633 O 0.73282 0.31082 0.61945
 O634 O 0.75521 0.22696 0.60673
 O635 O 0.74187 0.27213 0.89342
 O636 O 0.76362 0.18803 0.88009
 O637 O 0.81545 0.19893 0.65275
 O638 O 0.84518 0.25835 0.70235
 O639 O 0.72586 0.12065 0.82478
 O640 O 0.67292 0.14794 0.78903
 O641 O 0.81920 0.17698 0.82857
 O642 O 0.84658 0.24846 0.79133
 O643 O 0.76776 0.37353 0.66982
 O644 O 0.82072 0.34759 0.70657
 O645 O 0.71263 0.37727 0.84286
 O646 O 0.70882 0.39792 0.69836
 O647 O 0.78271 0.12206 0.65565
 O648 O 0.78655 0.10096 0.80242
 O649 O 0.73490 0.16705 0.74082
 O650 O 0.70022 0.29724 0.75838
 O651 O 0.79266 0.20122 0.74193
 O652 O 0.71820 0.22269 0.81421
 O653 O 0.64862 0.24126 0.79812
 O654 O 0.67863 0.30149 0.84667
 O655 O 0.77953 0.25785 0.81523
 O656 O 0.77562 0.27569 0.68561
 O657 O 0.75840 0.33066 0.75875
 O658 O 0.71455 0.23968 0.68490
 Zr659 Zr 0.73252 0.30167 0.82135
 Zr660 Zr 0.76157 0.19636 0.67872
 Zr661 Zr 0.68910 0.21568 0.74928
 Zr662 Zr 0.76479 0.17900 0.80443
 Zr663 Zr 0.72849 0.31870 0.69523
 Zr664 Zr 0.80444 0.28279 0.75076
 H665 H 0.81418 0.17792 0.73899
 H666 H 0.70428 0.21091 0.84324
 H667 H 0.76404 0.36922 0.76191
 H668 H 0.69933 0.23380 0.65557
 H669 H 0.71006 0.39798 0.81214
 H670 H 0.69408 0.39985 0.72860
 H671 H 0.77984 0.08642 0.76991
 H672 H 0.78998 0.10333 0.68607
 C673 C 0.00373 0.52460 0.34198
 C674 C -0.00680 0.48081 0.66019
 C675 C -0.05923 0.63550 0.43378
 C676 C -0.10019 0.47305 0.41841
 C677 C -0.06094 0.62228 0.58205
 C678 C 0.09377 0.52960 0.58352
 C679 C 0.05342 0.37681 0.57521
 C680 C 0.09630 0.54611 0.43016
 C681 C -0.10363 0.45888 0.57016
 C682 C 0.05664 0.39108 0.41206
 O683 O -0.02768 0.61377 0.59428
 O684 O -0.07876 0.59580 0.54940
 O685 O -0.07572 0.42896 0.57869
 O686 O -0.10354 0.50026 0.54167
 O687 O 0.02313 0.39896 0.40107
 O688 O 0.07332 0.41366 0.44829
 O689 O -0.01748 0.44264 0.63211
 O690 O 0.00430 0.52677 0.64464
 O691 O -0.00861 0.47918 0.35723
 O692 O 0.01259 0.56358 0.37012
 O693 O 0.06505 0.55481 0.59772
 O694 O 0.09522 0.49546 0.54816
 O695 O -0.02480 0.63144 0.42598
 O696 O -0.07773 0.60338 0.46116
 O697 O 0.06838 0.57586 0.42139
 O698 O 0.09642 0.50515 0.45902
 O699 O 0.01885 0.37981 0.58175
 O700 O 0.07147 0.40577 0.54446
 O701 O -0.03600 0.37361 0.40836
 O702 O -0.03960 0.35397 0.55401
 O703 O 0.03182 0.63090 0.59509
 O704 O 0.03552 0.65117 0.44737
 O705 O -0.01576 0.58470 0.50955
 O706 O -0.04929 0.45427 0.49275
 O707 O 0.04211 0.55159 0.50859
 O708 O -0.03225 0.52867 0.43626
 O709 O -0.10168 0.50831 0.45305
 O710 O -0.07126 0.44779 0.40518
 O711 O 0.02953 0.49432 0.43541
 O712 O 0.02586 0.47731 0.56546
 O713 O 0.00895 0.42169 0.49246
 O714 O -0.03577 0.51253 0.56596
 Zr715 Zr -0.01714 0.44981 0.42962
 Zr716 Zr 0.01103 0.55642 0.57205
 Zr717 Zr -0.06131 0.53564 0.50126
 Zr718 Zr 0.01412 0.57296 0.44586
 Zr719 Zr -0.02097 0.43372 0.55613
 Zr720 Zr 0.05465 0.47020 0.50004
 H721 H 0.06345 0.57523 0.51130
 H722 H -0.04644 0.54013 0.40735
 H723 H 0.01494 0.38321 0.48946
 H724 H -0.05129 0.51837 0.59505
 H725 H -0.03861 0.35310 0.43919
 H726 H -0.05328 0.35074 0.52297
 H727 H 0.02974 0.66526 0.48037
 H728 H 0.03898 0.64969 0.56466
 C729 C 0.25455 0.72634 0.90890
 C730 C 0.24387 0.77472 0.59204
 C731 C 0.19085 0.61682 0.81584
 C732 C 0.15031 0.78012 0.83327
 C733 C 0.18837 0.63220 0.66817
 C734 C 0.34396 0.72072 0.66793
 C735 C 0.30415 0.87646 0.67786
 C736 C 0.34673 0.70356 0.81935
 C737 C 0.14683 0.79577 0.68165
 C738 C 0.30771 0.85986 0.83945
 O739 O 0.22169 0.64054 0.65608
 O740 O 0.17087 0.65864 0.70121
 O741 O 0.17485 0.82551 0.67337
 O742 O 0.14678 0.75418 0.70990
 O743 O 0.27420 0.85237 0.85074
 O744 O 0.32419 0.83711 0.80316
 O745 O 0.23321 0.81261 0.62033
 O746 O 0.25450 0.72828 0.60696
 O747 O 0.24232 0.77201 0.89416
 O748 O 0.26298 0.68742 0.88046
 O749 O 0.31499 0.69647 0.65342
 O750 O 0.34553 0.75532 0.70295
 O751 O 0.22525 0.62039 0.82364
 O752 O 0.17236 0.64966 0.78913
 O753 O 0.31860 0.67439 0.82833
 O754 O 0.34692 0.74513 0.79127
 O755 O 0.26954 0.87411 0.67145
 O756 O 0.32215 0.84629 0.70767
 O757 O 0.21504 0.87827 0.84455
 O758 O 0.21108 0.89980 0.69962
 O759 O 0.28069 0.62241 0.65398
 O760 O 0.28505 0.60025 0.80279
 O761 O 0.23411 0.66819 0.74102
 O762 O 0.20123 0.79893 0.75932
 O763 O 0.29205 0.70034 0.74205
 O764 O 0.21803 0.72357 0.81494
 O765 O 0.14875 0.74530 0.79829
 O766 O 0.17939 0.80461 0.84706
 O767 O 0.28004 0.75708 0.81583
 O768 O 0.27617 0.77572 0.68593
 O769 O 0.25973 0.83054 0.75968
 O770 O 0.21440 0.74146 0.68540
 Zr771 Zr 0.23354 0.80215 0.82229
 Zr772 Zr 0.26087 0.69686 0.67876
 Zr773 Zr 0.18889 0.71783 0.74989
 Zr774 Zr 0.26419 0.67882 0.80468
 Zr775 Zr 0.22957 0.81997 0.69617
 Zr776 Zr 0.30514 0.78138 0.75122
 H777 H 0.31310 0.67614 0.73911
 H778 H 0.20383 0.71190 0.84377
 H779 H 0.26588 0.86890 0.76303
 H780 H 0.19887 0.73620 0.65626
 H781 H 0.21269 0.89937 0.81401
 H782 H 0.19714 0.90240 0.73050
 H783 H 0.28062 0.58733 0.76902
 H784 H 0.28736 0.60243 0.68399
 C785 C 0.50129 0.52403 0.34159
 C786 C 0.49184 0.47592 0.65858
 C787 C 0.55628 0.38412 0.41319
 C788 C 0.59808 0.54553 0.43300
 C789 C 0.55399 0.36849 0.56929
 C790 C 0.39860 0.45672 0.57293
 C791 C 0.43831 0.61337 0.58624
 C792 C 0.40140 0.47433 0.41457
 C793 C 0.59534 0.52964 0.57935
 C794 C 0.44167 0.62974 0.43166
 O795 O 0.51942 0.37155 0.57604
 O796 O 0.57226 0.39927 0.54030
 O797 O 0.56658 0.55487 0.59346
 O798 O 0.59649 0.49334 0.54578
 O799 O 0.47601 0.62579 0.42364
 O800 O 0.42336 0.59847 0.46001
 O801 O 0.50395 0.52148 0.64354
 O802 O 0.48222 0.43742 0.63031
 O803 O 0.51141 0.56206 0.37002
 O804 O 0.49043 0.47767 0.35641
 O805 O 0.42642 0.42636 0.58056
 O806 O 0.39821 0.49715 0.54336
 O807 O 0.52271 0.39216 0.40236
 O808 O 0.57357 0.40830 0.44796
 O809 O 0.43025 0.44913 0.40107
 O810 O 0.39962 0.50722 0.45109
 O811 O 0.47151 0.60432 0.59853
 O812 O 0.42135 0.58925 0.55124
 O813 O 0.53461 0.64869 0.44793
 O814 O 0.53048 0.62707 0.59556
 O815 O 0.45876 0.35069 0.55137
 O816 O 0.46291 0.37180 0.40628
 O817 O 0.51030 0.41694 0.49045
 O818 O 0.54364 0.54752 0.50845
 O819 O 0.45222 0.45050 0.49179
 O820 O 0.53017 0.49083 0.43484
 O821 O 0.59799 0.50302 0.45999
 O822 O 0.57009 0.57517 0.42448
 O823 O 0.46849 0.52580 0.43555
 O824 O 0.46494 0.50733 0.56563
 O825 O 0.48553 0.58002 0.50926
 O826 O 0.52673 0.47316 0.56397
 Zr827 Zr 0.51528 0.56933 0.44579
 Zr828 Zr 0.48033 0.42877 0.55444
 Zr829 Zr 0.55571 0.46613 0.49884
 Zr830 Zr 0.48357 0.44669 0.42837
 Zr831 Zr 0.51171 0.55177 0.57159
 Zr832 Zr 0.43971 0.53158 0.50103
 H833 H 0.43069 0.42727 0.48882
 H834 H 0.54579 0.48622 0.40569
 H835 H 0.48014 0.61863 0.51256
 H836 H 0.54115 0.46235 0.59285
 H837 H 0.54549 0.65304 0.48084
 H838 H 0.53383 0.64850 0.56539
 H839 H 0.45600 0.35330 0.43695
 H840 H 0.46761 0.33529 0.52015
 C841 C 0.75505 0.72772 0.90783
 C842 C 0.74335 0.77390 0.59096
 C843 C 0.69262 0.61599 0.81675
 C844 C 0.65030 0.77625 0.83291
 C845 C 0.68983 0.63086 0.66632
 C846 C 0.84416 0.72484 0.66591
 C847 C 0.80228 0.87711 0.67527
 C848 C 0.84718 0.70801 0.81918
 C849 C 0.64622 0.79119 0.67997
 C850 C 0.80604 0.86186 0.83809
 O851 O 0.72306 0.64009 0.65431
 O852 O 0.67220 0.65604 0.70009
 O853 O 0.67371 0.82204 0.67182
 O854 O 0.64667 0.75005 0.70873
 O855 O 0.77266 0.85344 0.84936
 O856 O 0.82280 0.83975 0.80170
 O857 O 0.73206 0.81147 0.61914
 O858 O 0.75477 0.72789 0.60597
 O859 O 0.74209 0.77281 0.89281
 O860 O 0.76414 0.68887 0.87963
 O861 O 0.81547 0.69947 0.65187
 O862 O 0.84527 0.75889 0.70139
 O863 O 0.72702 0.62055 0.82430
 O864 O 0.67381 0.64747 0.78910
 O865 O 0.81957 0.67771 0.82792
 O866 O 0.84691 0.74906 0.79046
 O867 O 0.76768 0.87378 0.66908
 O868 O 0.82065 0.84819 0.70571
 O869 O 0.71300 0.87768 0.84217
 O870 O 0.70884 0.89827 0.69845
 O871 O 0.78271 0.62278 0.65431
 O872 O 0.78735 0.60170 0.80181
 O873 O 0.73527 0.66739 0.74026
 O874 O 0.70039 0.79727 0.75806
 O875 O 0.79287 0.70171 0.74108
 O876 O 0.71856 0.72292 0.81383
 O877 O 0.64892 0.74163 0.79775
 O878 O 0.67900 0.80198 0.84611
 O879 O 0.77991 0.75837 0.81450
 O880 O 0.77560 0.77622 0.68484
 O881 O 0.75858 0.83107 0.75815
 O882 O 0.71454 0.73998 0.68457
 Zr883 Zr 0.73285 0.80201 0.82077
 Zr884 Zr 0.76160 0.69689 0.67792
 Zr885 Zr 0.68933 0.71564 0.74903
 Zr886 Zr 0.76526 0.67953 0.80383
 Zr887 Zr 0.72844 0.81903 0.69489
 Zr888 Zr 0.80462 0.78325 0.74989
 H889 H 0.81440 0.67845 0.73810
 H890 H 0.70469 0.71106 0.84288
 H891 H 0.76420 0.86964 0.76129
 H892 H 0.69917 0.73413 0.65537
 H893 H 0.71075 0.89852 0.81148
 H894 H 0.69383 0.89993 0.72846
 H895 H 0.78133 0.58752 0.76892
 H896 H 0.78992 0.60376 0.68460
 N897 N 0.02374 0.07851 0.27381
 N898 N 0.02564 0.07902 0.22559
 C899 C 0.01138 0.03265 0.20964
 C900 C 0.00049 0.00307 0.25021
 N901 N 0.00875 0.03366 0.28954
 H902 H -0.01238 -0.03578 0.25106
 N903 N 0.27014 0.16989 0.97770
 N904 N 0.27201 0.16905 1.02591
 C905 C 0.25985 0.21674 1.04215
 C906 C 0.25033 0.24750 1.00150
 N907 N 0.25723 0.21618 0.96205
 H908 H 0.23943 0.28770 1.00063
 N909 N 0.19040 0.04541 0.12265
 N910 N 0.16637 0.02421 0.09224
 C911 C 0.13506 0.05087 0.09912
 C912 C 0.14055 0.08857 0.13548
 N913 N 0.17540 0.08378 0.14928
 H914 H 0.12163 0.11829 0.14879
 N915 N 0.34060 0.47247 0.08927
 N916 N 0.31449 0.44344 0.10906
 C917 C 0.33075 0.40695 0.13803
 C918 C 0.36745 0.41476 0.13606
 N919 N 0.37251 0.45590 0.10511
 H920 H 0.38844 0.39061 0.15270
 N921 N 0.44293 0.19422 0.13524
 N922 N 0.41812 0.21769 0.16304
 C923 C 0.38633 0.19340 0.15348
 C924 C 0.39246 0.15447 0.11835
 N925 N 0.42808 0.15637 0.10790
 H926 H 0.37320 0.12641 0.10315
 N927 N 0.06369 0.31190 0.14135
 N928 N 0.08818 0.28230 0.16407
 C929 C 0.12071 0.29981 0.14871
 C930 C 0.11555 0.34095 0.11585
 N931 N 0.07964 0.34729 0.11247
 H932 H 0.13578 0.36571 0.09829
 N933 N 0.43895 0.20872 0.37657
 N934 N 0.41444 0.23487 0.35042
 C935 C 0.38214 0.21278 0.36112
 C936 C 0.38756 0.17251 0.39488
 N937 N 0.42332 0.17119 0.40346
 H938 H 0.36788 0.14435 0.40890
 N939 N 0.06061 0.31908 0.35234
 N940 N 0.08515 0.29351 0.32580
 C941 C 0.11750 0.31413 0.33825
 C942 C 0.11212 0.35288 0.37373
 N943 N 0.07624 0.35461 0.38146
 H944 H 0.13208 0.37822 0.39112
 N945 N 0.16126 0.03752 0.41888
 N946 N 0.18787 0.06025 0.39398
 C947 C 0.17258 0.09732 0.36467
 C948 C 0.13576 0.09698 0.37253
 N949 N 0.12986 0.05922 0.40673
 H950 H 0.11553 0.12300 0.35657
 N951 N 0.33695 0.48449 0.39867
 N952 N 0.31113 0.46014 0.37346
 C953 C 0.32736 0.42195 0.34624
 C954 C 0.36391 0.42366 0.35542
 N955 N 0.36877 0.46302 0.38843
 H956 H 0.38449 0.39626 0.34243
 N957 N 0.51656 0.08088 0.27435
 N958 N 0.51927 0.08067 0.22622
 C959 C 0.51006 0.03127 0.21102
 C960 C 0.50129 0.00069 0.25173
 N961 N 0.50584 0.03361 0.29049
 H962 H 0.49302 -0.04081 0.25314
 N963 N 0.77583 0.17260 0.97470
 N964 N 0.77765 0.17162 1.02291
 C965 C 0.76259 0.21737 1.03909
 C966 C 0.75133 0.24704 0.99888
 N967 N 0.76015 0.21715 0.95942
 H968 H 0.73776 0.28542 0.99834
 N969 N 0.69434 0.04429 0.11990
 N970 N 0.67089 0.02359 0.08837
 C971 C 0.63934 0.04962 0.09511
 C972 C 0.64405 0.08621 0.13262
 N973 N 0.67868 0.08151 0.14724
 H974 H 0.62464 0.11493 0.14648
 N975 N -0.16143 0.46908 0.08482
 N976 N -0.18729 0.44095 0.10627
 C977 C -0.17070 0.40577 0.13628
 C978 C -0.13401 0.41325 0.13297
 N979 N -0.12935 0.45299 0.10040
 H980 H -0.11281 0.39011 0.15030
 N981 N 0.91573 0.22640 0.15658
 N982 N 0.94131 0.20728 0.12731
 C983 C 0.92599 0.16851 0.09990
 C984 C 0.89019 0.16396 0.11390
 N985 N 0.88494 0.20058 0.14947
 H986 H 0.87048 0.13508 0.10127
 N987 N 0.56348 0.30311 0.13819
 N988 N 0.58806 0.27447 0.16184
 C989 C 0.62058 0.29318 0.14759
 C990 C 0.61529 0.33392 0.11438
 N991 N 0.57936 0.33893 0.10967
 H992 H 0.63541 0.35963 0.09778
 N993 N -0.06306 0.21271 0.37692
 N994 N -0.08748 0.23718 0.34923
 C995 C -0.11975 0.21482 0.35983
 C996 C -0.11434 0.17652 0.39576
 N997 N -0.07861 0.17620 0.40511
 H998 H -0.13389 0.14864 0.41061
 N999 N 0.56023 0.31087 0.35451
 N1000 N 0.58486 0.28583 0.32766
 C1001 C 0.61705 0.30755 0.33940
 C1002 C 0.61150 0.34625 0.37474
 N1003 N 0.57572 0.34697 0.38316
 H1004 H 0.63128 0.37248 0.39141
 N1005 N 0.66401 0.03798 0.42417
 N1006 N 0.69037 0.06001 0.39821
 C1007 C 0.67476 0.09579 0.36783
 C1008 C 0.63802 0.09553 0.37632
 N1009 N 0.63247 0.05907 0.41183
 H1010 H 0.61755 0.12052 0.35954
 N1011 N -0.16493 0.48155 0.40356
 N1012 N -0.19059 0.45766 0.37769
 C1013 C -0.17414 0.42033 0.34973
 C1014 C -0.13762 0.42193 0.35930
 N1015 N -0.13301 0.46047 0.39316
 H1016 H -0.11684 0.39537 0.34549
 N1017 N 0.02311 0.57962 0.27511
 N1018 N 0.02472 0.58053 0.22687
 C1019 C 0.01068 0.53405 0.21083
 C1020 C 0.00025 0.50400 0.25130
 N1021 N 0.00854 0.53441 0.29070
 H1022 H -0.01231 0.46492 0.25205
 N1023 N 0.27443 0.67116 0.97543
 N1024 N 0.27655 0.67058 1.02364
 C1025 C 0.26283 0.71735 1.03959
 C1026 C 0.25207 0.74718 0.99926
 N1027 N 0.25982 0.71641 0.95996
 H1028 H 0.23956 0.78634 0.99854
 N1029 N 0.19007 0.54737 0.12263
 N1030 N 0.16582 0.52605 0.09261
 C1031 C 0.13452 0.55266 0.09978
 C1032 C 0.14029 0.59056 0.13595
 N1033 N 0.17525 0.58586 0.14932
 H1034 H 0.12141 0.62020 0.14952
 N1035 N 0.32059 0.93997 0.11183
 N1036 N 0.34600 0.96876 0.09023
 C1037 C 0.37814 0.94850 0.10471
 C1038 C 0.37162 0.90660 0.13655
 N1039 N 0.33540 0.90238 0.13942
 H1040 H 0.39100 0.87993 0.15356
 N1041 N 0.44194 0.69866 0.13211
 N1042 N 0.41767 0.72074 0.16165
 C1043 C 0.38602 0.69557 0.15329
 C1044 C 0.39158 0.65778 0.11702
 N1045 N 0.42679 0.66110 0.10474
 H1046 H 0.37232 0.62931 0.10246
 N1047 N 0.09122 0.78282 0.16222
 N1048 N 0.06504 0.80985 0.14037
 C1049 C 0.08124 0.84599 0.11103
 C1050 C 0.11807 0.84034 0.11519
 N1051 N 0.12313 0.80060 0.14760
 H1052 H 0.13898 0.86457 0.09854
 N1053 N 0.43813 0.70909 0.38012
 N1054 N 0.41367 0.73566 0.35427
 C1055 C 0.38143 0.71295 0.36414
 C1056 C 0.38679 0.67189 0.39706
 N1057 N 0.42249 0.67072 0.40597
 H1058 H 0.36717 0.64308 0.41012
 N1059 N 0.06046 -0.17963 0.35072
 N1060 N 0.08520 -0.20473 0.32416
 C1061 C 0.11744 -0.18408 0.33712
 C1062 C 0.11180 -0.14584 0.37294
 N1063 N 0.07588 -0.14443 0.38036
 H1064 H 0.13162 -0.12069 0.39085
 N1065 N 0.16120 0.53797 0.41844
 N1066 N 0.18761 0.56105 0.39343
 C1067 C 0.17212 0.59850 0.36468
 C1068 C 0.13536 0.59800 0.37303
 N1069 N 0.12972 0.55979 0.40694
 H1070 H 0.11502 0.62425 0.35764
 N1071 N 0.33708 -0.01334 0.39855
 N1072 N 0.31124 -0.03806 0.37369
 C1073 C 0.32749 -0.07660 0.34690
 C1074 C 0.36403 -0.07469 0.35590
 N1075 N 0.36890 -0.03490 0.38842
 H1076 H 0.38459 -0.10226 0.34319
 N1077 N 0.51217 0.58396 0.27467
 N1078 N 0.51396 0.58486 0.22645
 C1079 C 0.50584 0.53524 0.21075
 C1080 C 0.49871 0.50337 0.25124
 N1081 N 0.50313 0.53574 0.29040
 H1082 H 0.49184 0.46130 0.25223
 N1083 N 0.77626 0.67423 0.97475
 N1084 N 0.77784 0.67378 1.02299
 C1085 C 0.76246 0.71952 1.03869
 C1086 C 0.75125 0.74862 0.99814
 N1087 N 0.76041 0.71843 0.95899
 H1088 H 0.73743 0.78679 0.99716
 N1089 N 0.69217 0.54688 0.12035
 N1090 N 0.66846 0.52582 0.08941
 C1091 C 0.63696 0.55194 0.09643
 C1092 C 0.64193 0.58895 0.13341
 N1093 N 0.67668 0.58440 0.14749
 H1094 H 0.62262 0.61783 0.14727
 N1095 N 0.81352 0.94128 0.10721
 N1096 N 0.83817 0.97024 0.08413
 C1097 C 0.87064 0.95224 0.09935
 C1098 C 0.86526 0.91144 0.13252
 N1099 N 0.82929 0.90582 0.13623
 H1100 H 0.88536 0.88646 0.15012
 N1101 N 0.91447 0.72757 0.15731
 N1102 N 0.94014 0.70831 0.12827
 C1103 C 0.92487 0.66957 0.10076
 C1104 C 0.88898 0.66522 0.11449
 N1105 N 0.88364 0.70190 0.14998
 H1106 H 0.86925 0.63645 0.10168
 N1107 N 0.62983 0.77712 0.08582
 N1108 N 0.60732 0.80566 0.05911
 C1109 C 0.58595 0.83316 0.09024
 C1110 C 0.59615 0.81991 0.13783
 N1111 N 0.62424 0.78530 0.13310
 H1112 H 0.58876 0.84064 0.17125
 N1113 N -0.06292 0.71434 0.38119
 N1114 N -0.08726 0.73977 0.35412
 C1115 C -0.11946 0.71666 0.36347
 C1116 C -0.11411 0.67653 0.39750
 N1117 N -0.07850 0.67629 0.40756
 H1118 H -0.13365 0.64761 0.41058
 N1119 N 0.55916 -0.18872 0.35578
 N1120 N 0.58361 -0.21261 0.32782
 C1121 C 0.61568 -0.19014 0.33896
 C1122 C 0.61036 -0.15240 0.37507
 N1123 N 0.57477 -0.15286 0.38455
 H1124 H 0.63009 -0.12588 0.39147
 N1125 N 0.66314 0.53883 0.42125
 N1126 N 0.68907 0.56149 0.39500
 C1127 C 0.67299 0.59788 0.36567
 C1128 C 0.63641 0.59735 0.37510
 N1129 N 0.63143 0.56012 0.41011
 H1130 H 0.61569 0.62270 0.35937
 N1131 N -0.16543 -0.01659 0.40312
 N1132 N -0.19131 -0.04019 0.37742
 C1133 C -0.17513 -0.07772 0.34940
 C1134 C -0.13857 -0.07655 0.35877
 N1135 N -0.13365 -0.03806 0.39257
 H1136 H -0.11796 -0.10333 0.34484
 N1137 N -0.01881 -0.07729 0.72644
 N1138 N -0.01785 -0.07942 0.77466
 C1139 C -0.00590 -0.03157 0.79070
 C1140 C 0.00065 0.00060 0.74989
 N1141 N -0.00799 -0.02996 0.71057
 H1142 H 0.01020 0.04152 0.74883
 N1143 N 0.23654 0.33220 0.52521
 N1144 N 0.23748 0.33409 0.47694
 C1145 C 0.24659 0.28486 0.46111
 C1146 C 0.25136 0.25212 0.50183
 N1147 N 0.24464 0.28366 0.54110
 H1148 H 0.25825 0.21003 0.50281
 N1149 N 0.18503 0.05272 0.61471
 N1150 N 0.16014 0.02401 0.59179
 C1151 C 0.12777 0.04331 0.60617
 C1152 C 0.13349 0.08462 0.63864
 N1153 N 0.16949 0.08933 0.64277
 H1154 H 0.11361 0.11113 0.65479
 N1155 N 0.33494 0.47054 0.59216
 N1156 N 0.30934 0.45032 0.62064
 C1157 C 0.32480 0.41119 0.64750
 C1158 C 0.36076 0.40761 0.63407
 N1159 N 0.36593 0.44520 0.59932
 H1160 H 0.38072 0.37907 0.64672
 N1161 N 0.43559 0.19172 0.64103
 N1162 N 0.41089 0.22154 0.66313
 C1163 C 0.37845 0.20398 0.64738
 C1164 C 0.38392 0.16249 0.61500
 N1165 N 0.41986 0.15599 0.61230
 H1166 H 0.36384 0.13724 0.59773
 N1167 N 0.05769 0.30318 0.63344
 N1168 N 0.08168 0.28112 0.66336
 C1169 C 0.11335 0.30638 0.65558
 C1170 C 0.10813 0.34416 0.61919
 N1171 N 0.07306 0.34073 0.60629
 H1172 H 0.12754 0.37249 0.60477
 N1173 N 0.41072 0.20864 0.83413
 N1174 N 0.43709 0.18467 0.85849
 C1175 C 0.42162 0.14680 0.88676
 C1176 C 0.38477 0.14807 0.87883
 N1177 N 0.37917 0.18714 0.84560
 H1178 H 0.36435 0.12192 0.89409
 N1179 N 0.08527 0.26868 0.84809
 N1180 N 0.05944 0.29254 0.87370
 C1181 C 0.07570 0.33029 0.90133
 C1182 C 0.11219 0.32900 0.89192
 N1183 N 0.11703 0.29025 0.85840
 H1184 H 0.13279 0.35600 0.90545
 N1185 N 0.18600 0.03807 0.87091
 N1186 N 0.16152 0.01354 0.89834
 C1187 C 0.12934 0.03629 0.88787
 C1188 C 0.13480 0.07483 0.85226
 N1189 N 0.17053 0.07497 0.84306
 H1190 H 0.11534 0.10313 0.83777
 N1191 N 0.31125 0.43312 0.89745
 N1192 N 0.33615 0.45972 0.92237
 C1193 C 0.36836 0.43892 0.90925
 C1194 C 0.36255 0.39896 0.87526
 N1195 N 0.32658 0.39667 0.86898
 H1196 H 0.38229 0.37292 0.85819
 N1197 N 0.46955 -0.07404 0.72619
 N1198 N 0.47017 -0.07563 0.77443
 C1199 C 0.48761 -0.03136 0.78960
 C1200 C 0.49769 -0.00190 0.74881
 N1201 N 0.48588 -0.03046 0.71000
 H1202 H 0.51277 0.03515 0.74736
 N1203 N 0.73633 0.33331 0.52407
 N1204 N 0.73755 0.33462 0.47584
 C1205 C 0.74683 0.28519 0.46069
 C1206 C 0.75144 0.25296 0.50156
 N1207 N 0.74441 0.28494 0.54033
 H1208 H 0.75827 0.21087 0.50301
 N1209 N 0.68678 0.05441 0.61138
 N1210 N 0.66203 0.02592 0.58796
 C1211 C 0.62959 0.04471 0.60261
 C1212 C 0.63509 0.08535 0.63579
 N1213 N 0.67105 0.09021 0.64011
 H1214 H 0.61506 0.11107 0.65267
 N1215 N -0.16784 0.47110 0.58712
 N1216 N -0.19345 0.45129 0.61587
 C1217 C -0.17775 0.41354 0.64410
 C1218 C -0.14169 0.41025 0.63116
 N1219 N -0.13667 0.44666 0.59537
 H1220 H -0.12148 0.38287 0.64512
 N1221 N 0.90937 0.22928 0.65817
 N1222 N 0.93577 0.20219 0.63665
 C1223 C 0.91982 0.16547 0.60763
 C1224 C 0.88297 0.17103 0.61160
 N1225 N 0.87754 0.21111 0.64360
 H1226 H 0.86225 0.14576 0.59580
 N1227 N 0.55838 0.29400 0.62659
 N1228 N 0.58199 0.27379 0.65814
 C1229 C 0.61309 0.30105 0.65197
 C1230 C 0.60806 0.33782 0.61483
 N1231 N 0.57362 0.33202 0.59984
 H1232 H 0.62702 0.36745 0.60157
 N1233 N 0.91182 0.21572 0.83061
 N1234 N 0.93845 0.19273 0.85531
 C1235 C 0.92315 0.15542 0.88434
 C1236 C 0.88637 0.15588 0.87653
 N1237 N 0.88045 0.19392 0.84264
 H1238 H 0.86617 0.12966 0.89226
 N1239 N 0.58593 0.26289 0.85125
 N1240 N 0.56032 0.28509 0.87853
 C1241 C 0.57655 0.32282 0.90625
 C1242 C 0.61278 0.32329 0.89499
 N1243 N 0.61750 0.28564 0.86040
 H1244 H 0.63311 0.35117 0.90773
 N1245 N 0.68747 0.03972 0.87171
 N1246 N 0.66310 0.01573 0.89971
 C1247 C 0.63097 0.03924 0.89022
 C1248 C 0.63635 0.07781 0.85466
 N1249 N 0.67197 0.07694 0.84431
 H1250 H 0.61691 0.10621 0.84034
 N1251 N 0.80928 0.43374 0.89857
 N1252 N 0.83384 0.45957 0.92479
 C1253 C 0.86620 0.43919 0.91190
 C1254 C 0.86084 0.40041 0.87658
 N1255 N 0.82497 0.39835 0.86932
 H1256 H 0.88084 0.37521 0.85900
 N1257 N -0.01895 0.42224 0.72771
 N1258 N -0.01832 0.42036 0.77597
 C1259 C -0.00651 0.46830 0.79200
 C1260 C 0.00028 0.50026 0.75108
 N1261 N -0.00805 0.46949 0.71175
 H1262 H 0.00981 0.54118 0.74997
 N1263 N 0.23492 0.83513 0.52490
 N1264 N 0.23589 0.83677 0.47664
 C1265 C 0.24550 0.78760 0.46118
 C1266 C 0.25054 0.75519 0.50187
 N1267 N 0.24349 0.78681 0.54087
 H1268 H 0.25790 0.71329 0.50305
 N1269 N 0.18522 0.55429 0.61479
 N1270 N 0.16047 0.52492 0.59231
 C1271 C 0.12801 0.54379 0.60682
 C1272 C 0.13355 0.58553 0.63889
 N1273 N 0.16952 0.59092 0.64265
 H1274 H 0.11354 0.61189 0.65497
 N1275 N 0.30884 0.95193 0.62158
 N1276 N 0.33300 0.97438 0.59216
 C1277 C 0.36450 0.94838 0.59943
 C1278 C 0.35899 0.90970 0.63488
 N1279 N 0.32394 0.91333 0.64780
 H1280 H 0.37812 0.88036 0.64833
 N1281 N 0.43538 0.69014 0.64093
 N1282 N 0.41086 0.72109 0.66212
 C1283 C 0.37833 0.70424 0.64608
 C1284 C 0.38360 0.66187 0.61449
 N1285 N 0.41949 0.65422 0.61254
 H1286 H 0.36335 0.63694 0.59717
 N1287 N 0.08267 0.78384 0.66457
 N1288 N 0.05711 0.80345 0.63562
 C1289 C 0.07279 0.84107 0.60726
 C1290 C 0.10884 0.84449 0.62038
 N1291 N 0.11383 0.80827 0.65638
 H1292 H 0.12906 0.87174 0.60629
 N1293 N 0.41203 0.70786 0.82758
 N1294 N 0.43850 0.68354 0.85148
 C1295 C 0.42287 0.64737 0.88139
 C1296 C 0.38594 0.65001 0.87501
 N1297 N 0.38036 0.68817 0.84103
 H1298 H 0.36535 0.62552 0.89208
 N1299 N 0.08511 0.77608 0.84330
 N1300 N 0.05915 0.80099 0.86777
 C1301 C 0.07549 0.83543 0.89879
 C1302 C 0.11244 0.83040 0.89295
 N1303 N 0.11721 0.79341 0.85760
 H1304 H 0.13357 0.85404 0.90985
 N1305 N 0.18715 0.53742 0.86748
 N1306 N 0.16281 0.51208 0.89456
 C1307 C 0.13070 0.53558 0.88540
 C1308 C 0.13603 0.57575 0.85152
 N1309 N 0.17158 0.57571 0.84137
 H1310 H 0.11657 0.60501 0.83880
 N1311 N 0.31241 0.93160 0.89933
 N1312 N 0.33736 0.95702 0.92518
 C1313 C 0.36951 0.93647 0.91155
 C1314 C 0.36360 0.89789 0.87618
 N1315 N 0.32762 0.89617 0.86967
 H1316 H 0.38328 0.87244 0.85826
 N1317 N 0.47515 0.41982 0.72607
 N1318 N 0.47585 0.41833 0.77433
 C1319 C 0.49050 0.46474 0.78957
 C1320 C 0.49883 0.49537 0.74872
 N1321 N 0.48875 0.46540 0.70986
 H1322 H 0.51116 0.53459 0.74731
 N1323 N 0.73361 0.83413 0.52398
 N1324 N 0.73429 0.83588 0.47573
 C1325 C 0.74431 0.78696 0.46011
 C1326 C 0.74992 0.75459 0.50070
 N1327 N 0.74276 0.78598 0.53980
 H1328 H 0.75768 0.71283 0.50174
 N1329 N 0.68689 0.55494 0.61052
 N1330 N 0.66222 0.52640 0.58700
 C1331 C 0.62973 0.54485 0.60177
 C1332 C 0.63513 0.58537 0.63516
 N1333 N 0.67110 0.59048 0.63947
 H1334 H 0.61504 0.61083 0.65223
 N1335 N 0.80626 0.95064 0.61669
 N1336 N 0.83030 0.97274 0.58684
 C1337 C 0.86205 0.94773 0.59498
 C1338 C 0.85682 0.91011 0.63145
 N1339 N 0.82170 0.91333 0.64410
 H1340 H 0.87629 0.88197 0.64610
 N1341 N 0.90943 0.72953 0.65756
 N1342 N 0.93585 0.70201 0.63657
 C1343 C 0.91992 0.66497 0.60788
 C1344 C 0.88307 0.67080 0.61145
 N1345 N 0.87761 0.71135 0.64292
 H1346 H 0.86236 0.64542 0.59579
 N1347 N 0.58266 0.77586 0.66056
 N1348 N 0.55733 0.79428 0.63057
 C1349 C 0.57292 0.83239 0.60264
 C1350 C 0.60852 0.83743 0.61718
 N1351 N 0.61344 0.80171 0.65352
 H1352 H 0.62839 0.86584 0.60411
 N1353 N 0.91214 0.71636 0.83068
 N1354 N 0.93852 0.69336 0.85588
 C1355 C 0.92292 0.65632 0.88493
 C1356 C 0.88622 0.65694 0.87661
 N1357 N 0.88064 0.69479 0.84241
 H1358 H 0.86585 0.63089 0.89216
 N1359 N 0.58546 0.76881 0.84645
 N1360 N 0.55983 0.79311 0.87209
 C1361 C 0.57655 0.82880 0.90155
 C1362 C 0.61326 0.82508 0.89375
 N1363 N 0.61759 0.78782 0.85867
 H1364 H 0.63440 0.85007 0.90889
 N1365 N 0.68953 0.53852 0.87100
 N1366 N 0.66543 0.51384 0.89899
 C1367 C 0.63317 0.53680 0.88958
 C1368 C 0.63818 0.57588 0.85453
 N1369 N 0.67368 0.57574 0.84391
 H1370 H 0.61846 0.60420 0.84081
 N1371 N 0.81004 0.93354 0.89812
 N1372 N 0.83475 0.95911 0.92427
 C1373 C 0.86703 0.93868 0.91100
 C1374 C 0.86146 0.90015 0.87554
 N1375 N 0.82555 0.89829 0.86857
 H1376 H 0.88134 0.87501 0.85765
   
