data_POSCAR
  _audit_creation_date              2014-09-24
  _audit_creation_method            'ToBaCCo'
  _symmetry_space_group_name_H-M    'P1'
  _symmetry_Int_Tables_number       1
  _symmetry_cell_setting            triclinic
  loop_
  _symmetry_equiv_pos_as_xyz
 x,y,z
_cell_length_a 75.2993
_cell_length_b 74.4426
_cell_length_c 75.3428
_cell_angle_alpha 89.994000
_cell_angle_beta 90.071900
_cell_angle_gamma 89.995700
loop_
  _atom_site_label
  _atom_site_type_symbol
  _atom_site_fract_x
  _atom_site_fract_y
  _atom_site_fract_z
C1 C 0.35035 0.35013 0.32762
 C2 C 0.36542 0.34230 0.31988
 C3 C 0.37324 0.32689 0.32736
 C4 C 0.36589 0.31945 0.34285
 C5 C 0.35081 0.32709 0.35072
 C6 C 0.34299 0.34249 0.34309
 C7 C 0.34233 0.36529 0.31997
 C8 C 0.32701 0.37291 0.32753
 C9 C 0.31985 0.36528 0.34303
 C10 C 0.32770 0.35012 0.35083
 C11 C 0.32035 0.34234 0.36610
 C12 C 0.32800 0.32692 0.37373
 C13 C 0.34331 0.31946 0.36600
 H14 H 0.37084 0.34798 0.30780
 H15 H 0.37195 0.30770 0.34883
 H16 H 0.34780 0.37092 0.30788
 H17 H 0.30817 0.37119 0.34907
 H18 H 0.30839 0.34802 0.37180
 H19 H 0.34942 0.30770 0.37190
 C20 C 0.35206 0.85005 -0.17125
 C21 C 0.36717 0.84216 -0.17887
 C22 C 0.37483 0.82643 -0.17163
 C23 C 0.36697 0.81899 -0.15626
 C24 C 0.35197 0.82685 -0.14844
 C25 C 0.34449 0.84245 -0.15595
 C26 C 0.34428 0.86532 -0.17895
 C27 C 0.32893 0.87333 -0.17158
 C28 C 0.32177 0.86568 -0.15597
 C29 C 0.32935 0.85034 -0.14822
 C30 C 0.32175 0.84254 -0.13307
 C31 C 0.32907 0.82692 -0.12553
 C32 C 0.34427 0.81925 -0.13325
 H33 H 0.37229 0.84790 -0.19103
 H34 H 0.37278 0.80737 -0.14985
 H35 H 0.35069 0.87120 -0.19041
 H36 H 0.30969 0.87096 -0.15020
 H37 H 0.30987 0.84839 -0.12737
 H38 H 0.35014 0.80733 -0.12740
 C39 C 0.85098 0.34949 -0.17360
 C40 C 0.86594 0.34156 -0.18146
 C41 C 0.87413 0.32623 -0.17395
 C42 C 0.86686 0.31916 -0.15812
 C43 C 0.85186 0.32692 -0.15019
 C44 C 0.84394 0.34219 -0.15791
 C45 C 0.84300 0.36464 -0.18129
 C46 C 0.82786 0.37277 -0.17361
 C47 C 0.82104 0.36525 -0.15778
 C48 C 0.82888 0.35006 -0.15000
 C49 C 0.82162 0.34239 -0.13462
 C50 C 0.82923 0.32694 -0.12701
 C51 C 0.84446 0.31941 -0.13481
 H52 H 0.87147 0.34787 -0.19316
 H53 H 0.87222 0.30703 -0.15228
 H54 H 0.84910 0.37037 -0.19299
 H55 H 0.80908 0.37056 -0.15181
 H56 H 0.80976 0.34817 -0.12882
 H57 H 0.85057 0.30766 -0.12887
 C58 C 0.85073 0.85141 0.32832
 C59 C 0.86597 0.84374 0.32074
 C60 C 0.87369 0.82823 0.32812
 C61 C 0.86613 0.82059 0.34342
 C62 C 0.85088 0.82807 0.35110
 C63 C 0.84309 0.84349 0.34348
 C64 C 0.84281 0.86664 0.32071
 C65 C 0.82709 0.87414 0.32784
 C66 C 0.81971 0.86601 0.34312
 C67 C 0.82758 0.85087 0.35093
 C68 C 0.82002 0.84288 0.36602
 C69 C 0.82769 0.82749 0.37368
 C70 C 0.84318 0.82022 0.36615
 H71 H 0.87159 0.84958 0.30883
 H72 H 0.87213 0.80879 0.34936
 H73 H 0.84854 0.87199 0.30865
 H74 H 0.80813 0.87173 0.34947
 H75 H 0.80792 0.84840 0.37158
 H76 H 0.84928 0.80846 0.37206
 C77 C 0.64913 0.64868 0.32859
 C78 C 0.63402 0.65628 0.32069
 C79 C 0.62608 0.67174 0.32791
 C80 C 0.63335 0.67945 0.34334
 C81 C 0.64846 0.67201 0.35138
 C82 C 0.65640 0.65657 0.34398
 C83 C 0.65723 0.63347 0.32117
 C84 C 0.67260 0.62606 0.32886
 C85 C 0.67971 0.63395 0.34427
 C86 C 0.67174 0.64914 0.35186
 C87 C 0.67903 0.65719 0.36704
 C88 C 0.67126 0.67265 0.37444
 C89 C 0.65592 0.67992 0.36655
 H90 H 0.62839 0.65012 0.30892
 H91 H 0.62749 0.69152 0.34884
 H92 H 0.65181 0.62766 0.30913
 H93 H 0.69145 0.62821 0.35040
 H94 H 0.69101 0.65166 0.37286
 H95 H 0.64974 0.69173 0.37228
 C96 C 0.64870 0.14792 -0.17097
 C97 C 0.63342 0.15542 -0.17866
 C98 C 0.62567 0.17102 -0.17154
 C99 C 0.63325 0.17895 -0.15637
 C100 C 0.64854 0.17161 -0.14856
 C101 C 0.65635 0.15609 -0.15594
 C102 C 0.65660 0.13258 -0.17835
 C103 C 0.67236 0.12522 -0.17113
 C104 C 0.67978 0.13360 -0.15598
 C105 C 0.67190 0.14885 -0.14839
 C106 C 0.67947 0.15707 -0.13342
 C107 C 0.67179 0.17255 -0.12598
 C108 C 0.65629 0.17972 -0.13364
 H109 H 0.62752 0.14908 -0.19020
 H110 H 0.62751 0.19110 -0.15092
 H111 H 0.65084 0.12706 -0.19033
 H112 H 0.69140 0.12801 -0.14957
 H113 H 0.69159 0.15164 -0.12779
 H114 H 0.65019 0.19156 -0.12790
 C115 C 0.14912 0.64918 -0.17126
 C116 C 0.13396 0.65693 -0.17892
 C117 C 0.12649 0.67267 -0.17182
 C118 C 0.13422 0.68049 -0.15667
 C119 C 0.14938 0.67288 -0.14884
 C120 C 0.15692 0.65722 -0.15624
 C121 C 0.15675 0.63370 -0.17865
 C122 C 0.17240 0.62609 -0.17145
 C123 C 0.17995 0.63433 -0.15630
 C124 C 0.17236 0.64972 -0.14872
 C125 C 0.18008 0.65781 -0.13378
 C126 C 0.17272 0.67344 -0.12633
 C127 C 0.15730 0.68087 -0.13394
 H128 H 0.12793 0.65068 -0.19045
 H129 H 0.12869 0.69275 -0.15122
 H130 H 0.15089 0.62828 -0.19063
 H131 H 0.19148 0.62853 -0.14989
 H132 H 0.19184 0.65188 -0.12788
 H133 H 0.15169 0.69308 -0.12848
 C134 C 0.14882 0.14976 0.32825
 C135 C 0.13354 0.15740 0.32072
 C136 C 0.12553 0.17286 0.32812
 C137 C 0.13322 0.18029 0.34361
 C138 C 0.14859 0.17285 0.35119
 C139 C 0.15645 0.15758 0.34343
 C140 C 0.15670 0.13453 0.32058
 C141 C 0.17244 0.12701 0.32765
 C142 C 0.17988 0.13509 0.34292
 C143 C 0.17204 0.15021 0.35077
 C144 C 0.17968 0.15815 0.36583
 C145 C 0.17208 0.17351 0.37357
 C146 C 0.15645 0.18072 0.36621
 H147 H 0.12764 0.15078 0.30935
 H148 H 0.12793 0.19247 0.34940
 H149 H 0.15092 0.12923 0.30850
 H150 H 0.19150 0.12937 0.34923
 H151 H 0.19159 0.15234 0.37156
 H152 H 0.15062 0.19270 0.37194
 C153 C 0.64855 0.35023 0.67266
 C154 C 0.63353 0.34238 0.68049
 C155 C 0.62572 0.32695 0.67305
 C156 C 0.63299 0.31954 0.65750
 C157 C 0.64801 0.32720 0.64956
 C158 C 0.65585 0.34260 0.65716
 C159 C 0.65659 0.36539 0.68028
 C160 C 0.67187 0.37302 0.67265
 C161 C 0.67897 0.36540 0.65712
 C162 C 0.67110 0.35024 0.64935
 C163 C 0.67840 0.34244 0.63406
 C164 C 0.67073 0.32702 0.62648
 C165 C 0.65545 0.31956 0.63427
 H166 H 0.62817 0.34804 0.69260
 H167 H 0.62692 0.30778 0.65155
 H168 H 0.65118 0.37101 0.69239
 H169 H 0.69063 0.37131 0.65103
 H170 H 0.69033 0.34813 0.62831
 H171 H 0.64932 0.30779 0.62840
 C172 C 0.64924 0.85054 1.17147
 C173 C 0.63409 0.84281 1.17917
 C174 C 0.62639 0.82700 1.17211
 C175 C 0.63423 0.81935 1.15682
 C176 C 0.64931 0.82701 1.14896
 C177 C 0.65688 0.84262 1.15631
 C178 C 0.65710 0.86587 1.17897
 C179 C 0.67251 0.87341 1.17150
 C180 C 0.67988 0.86556 1.15622
 C181 C 0.67220 0.85023 1.14860
 C182 C 0.67976 0.84223 1.13353
 C183 C 0.67227 0.82664 1.12610
 C184 C 0.65699 0.81917 1.13387
 H185 H 0.62896 0.84875 1.19123
 H186 H 0.62835 0.80772 1.15052
 H187 H 0.65146 0.87169 1.19088
 H188 H 0.69160 0.87142 1.15022
 H189 H 0.69170 0.84792 1.12782
 H190 H 0.65104 0.80726 1.12812
 C191 C 0.14820 0.35053 1.17212
 C192 C 0.13305 0.34278 1.17978
 C193 C 0.12536 0.32699 1.17269
 C194 C 0.13321 0.31937 1.15739
 C195 C 0.14829 0.32705 1.14955
 C196 C 0.15585 0.34265 1.15694
 C197 C 0.15606 0.36583 1.17967
 C198 C 0.17148 0.37338 1.17224
 C199 C 0.17885 0.36558 1.15692
 C200 C 0.17117 0.35028 1.14926
 C201 C 0.17873 0.34234 1.13418
 C202 C 0.17126 0.32677 1.12670
 C203 C 0.15599 0.31926 1.13444
 H204 H 0.12791 0.34869 1.19185
 H205 H 0.12735 0.30773 1.15107
 H206 H 0.15042 0.37162 1.19160
 H207 H 0.19058 0.37146 1.15095
 H208 H 0.19068 0.34805 1.12849
 H209 H 0.15005 0.30735 1.12865
 C210 C 0.14986 0.84999 0.67172
 C211 C 0.13475 0.84238 0.67957
 C212 C 0.12640 0.82708 0.67218
 C213 C 0.13365 0.81974 0.65645
 C214 C 0.14884 0.82715 0.64855
 C215 C 0.15698 0.84233 0.65619
 C216 C 0.15804 0.86510 0.67929
 C217 C 0.17337 0.87259 0.67163
 C218 C 0.18042 0.86483 0.65615
 C219 C 0.17234 0.84977 0.64840
 C220 C 0.17954 0.84188 0.63311
 C221 C 0.17164 0.82658 0.62551
 C222 C 0.15622 0.81938 0.63327
 H223 H 0.12924 0.84891 0.69116
 H224 H 0.12812 0.80765 0.65068
 H225 H 0.15270 0.87081 0.69140
 H226 H 0.19214 0.87061 0.65005
 H227 H 0.19156 0.84738 0.62738
 H228 H 0.14993 0.80772 0.62736
 C229 C 0.35016 0.64826 0.67211
 C230 C 0.36528 0.65602 0.67981
 C231 C 0.37302 0.67151 0.67242
 C232 C 0.36554 0.67909 0.65702
 C233 C 0.35042 0.67145 0.64915
 C234 C 0.34268 0.65600 0.65673
 C235 C 0.34224 0.63304 0.67972
 C236 C 0.32685 0.62548 0.67223
 C237 C 0.31957 0.63317 0.65680
 C238 C 0.32733 0.64839 0.64906
 C239 C 0.31983 0.65627 0.63390
 C240 C 0.32734 0.67179 0.62635
 C241 C 0.34272 0.67923 0.63402
 H242 H 0.37108 0.64997 0.69155
 H243 H 0.37125 0.69117 0.65139
 H244 H 0.34780 0.62736 0.69176
 H245 H 0.30784 0.62730 0.65080
 H246 H 0.30812 0.65030 0.62796
 H247 H 0.34846 0.69133 0.62844
 C248 C 0.35190 0.14891 1.17112
 C249 C 0.36720 0.15641 1.17878
 C250 C 0.37545 0.17175 1.17139
 C251 C 0.36798 0.17922 1.15582
 C252 C 0.35261 0.17193 1.14813
 C253 C 0.34450 0.15677 1.15584
 C254 C 0.34378 0.13379 1.17874
 C255 C 0.32803 0.12642 1.17152
 C256 C 0.32080 0.13458 1.15618
 C257 C 0.32890 0.14957 1.14834
 C258 C 0.32150 0.15758 1.13319
 C259 C 0.32941 0.17281 1.12549
 C260 C 0.34501 0.17985 1.13302
 H261 H 0.37291 0.14978 1.19024
 H262 H 0.37343 0.19133 1.15005
 H263 H 0.34938 0.12845 1.19088
 H264 H 0.30917 0.12898 1.14979
 H265 H 0.30932 0.15223 1.12762
 H266 H 0.35129 0.19148 1.12705
 C267 C 0.85114 0.65011 1.17217
 C268 C 0.86618 0.65799 1.17995
 C269 C 0.87397 0.67341 1.17250
 C270 C 0.86664 0.68080 1.15695
 C271 C 0.85164 0.67303 1.14899
 C272 C 0.84388 0.65759 1.15660
 C273 C 0.84323 0.63494 1.17984
 C274 C 0.82795 0.62693 1.17228
 C275 C 0.82100 0.63452 1.15651
 C276 C 0.82877 0.64975 1.14875
 C277 C 0.82137 0.65752 1.13345
 C278 C 0.82889 0.67303 1.12590
 C279 C 0.84412 0.68061 1.13370
 H280 H 0.87186 0.65209 1.19182
 H281 H 0.87236 0.69286 1.15127
 H282 H 0.84947 0.62913 1.19144
 H283 H 0.80896 0.62926 1.15061
 H284 H 0.80950 0.65173 1.12766
 H285 H 0.85014 0.69243 1.12784
 C286 C 0.85090 0.14881 0.67087
 C287 C 0.86627 0.15653 0.67813
 C288 C 0.87389 0.17192 0.67042
 C289 C 0.86607 0.17939 0.65516
 C290 C 0.85070 0.17183 0.64777
 C291 C 0.84306 0.15648 0.65564
 C292 C 0.84307 0.13372 0.67879
 C293 C 0.82745 0.12619 0.67176
 C294 C 0.81978 0.13383 0.65648
 C295 C 0.82746 0.14893 0.64840
 C296 C 0.81960 0.15681 0.63340
 C297 C 0.82708 0.17220 0.62556
 C298 C 0.84272 0.17953 0.63278
 H299 H 0.87206 0.15084 0.69005
 H300 H 0.87197 0.19113 0.64902
 H301 H 0.84918 0.12779 0.69044
 H302 H 0.80760 0.12828 0.65112
 H303 H 0.80742 0.15122 0.62807
 H304 H 0.84869 0.19126 0.62669
 C305 C 0.35060 0.35004 0.67279
 C306 C 0.34253 0.36512 0.68046
 C307 C 0.32706 0.37258 0.67300
 C308 C 0.31987 0.36491 0.65752
 C309 C 0.32784 0.34984 0.64966
 C310 C 0.34324 0.34234 0.65735
 C311 C 0.36579 0.34240 0.68049
 C312 C 0.37369 0.32703 0.67306
 C313 C 0.36635 0.31949 0.65758
 C314 C 0.35118 0.32701 0.64971
 C315 C 0.34364 0.31928 0.63448
 C316 C 0.32823 0.32662 0.62679
 C317 C 0.32047 0.34196 0.63443
 H318 H 0.34830 0.37108 0.69226
 H319 H 0.30782 0.37042 0.65181
 H320 H 0.37148 0.34844 0.69229
 H321 H 0.37220 0.30749 0.65190
 H322 H 0.34982 0.30757 0.62857
 H323 H 0.30843 0.34753 0.62876
 C324 C 0.35145 0.85127 0.17218
 C325 C 0.34352 0.86645 0.17979
 C326 C 0.32803 0.87392 0.17241
 C327 C 0.32066 0.86616 0.15705
 C328 C 0.32849 0.85099 0.14925
 C329 C 0.34392 0.84347 0.15686
 C330 C 0.36666 0.84362 0.17980
 C331 C 0.37443 0.82814 0.17244
 C332 C 0.36692 0.82051 0.15708
 C333 C 0.35171 0.82804 0.14928
 C334 C 0.34400 0.82022 0.13419
 C335 C 0.32855 0.82756 0.12657
 C336 C 0.32093 0.84301 0.13416
 H337 H 0.34942 0.87248 0.19149
 H338 H 0.30858 0.87168 0.15141
 H339 H 0.37249 0.84973 0.19150
 H340 H 0.37266 0.80844 0.15145
 H341 H 0.35006 0.80843 0.12832
 H342 H 0.30888 0.84860 0.12854
 C343 C 0.85151 0.35154 0.17096
 C344 C 0.84339 0.36679 0.17827
 C345 C 0.82810 0.37423 0.17044
 C346 C 0.82109 0.36632 0.15499
 C347 C 0.82908 0.35109 0.14751
 C348 C 0.84433 0.34363 0.15552
 C349 C 0.86653 0.34392 0.17899
 C350 C 0.87448 0.32841 0.17187
 C351 C 0.86731 0.32067 0.15641
 C352 C 0.85228 0.32814 0.14822
 C353 C 0.84492 0.32022 0.13301
 C354 C 0.82967 0.32754 0.12497
 C355 C 0.82189 0.34303 0.13228
 H356 H 0.84873 0.37263 0.19033
 H357 H 0.80943 0.37208 0.14875
 H358 H 0.87209 0.35010 0.19078
 H359 H 0.87318 0.30857 0.15098
 H360 H 0.85110 0.30838 0.12736
 H361 H 0.80997 0.34859 0.12636
 C362 C 0.85148 0.85109 0.67137
 C363 C 0.84337 0.86627 0.67883
 C364 C 0.82798 0.87368 0.67117
 C365 C 0.82087 0.86583 0.65574
 C366 C 0.82885 0.85066 0.64811
 C367 C 0.84420 0.84323 0.65596
 C368 C 0.86661 0.84348 0.67923
 C369 C 0.87455 0.82804 0.67196
 C370 C 0.86727 0.82035 0.65653
 C371 C 0.85214 0.82781 0.64851
 C372 C 0.84467 0.81993 0.63333
 C373 C 0.82932 0.82722 0.62547
 C374 C 0.82156 0.84266 0.63291
 H375 H 0.84879 0.87206 0.69088
 H376 H 0.80913 0.87158 0.64963
 H377 H 0.87225 0.84962 0.69100
 H378 H 0.87313 0.80830 0.65099
 H379 H 0.85085 0.80814 0.62757
 H380 H 0.80956 0.84820 0.62712
 C381 C 0.64892 0.64927 0.67137
 C382 C 0.65692 0.63414 0.67909
 C383 C 0.67236 0.62662 0.67168
 C384 C 0.67966 0.63431 0.65627
 C385 C 0.67182 0.64945 0.64842
 C386 C 0.65641 0.65699 0.65601
 C387 C 0.63373 0.65702 0.67898
 C388 C 0.62594 0.67242 0.67146
 C389 C 0.63342 0.67993 0.65606
 C390 C 0.64861 0.67237 0.64834
 C391 C 0.65626 0.68010 0.63319
 C392 C 0.67170 0.67275 0.62562
 C393 C 0.67932 0.65733 0.63327
 H394 H 0.65136 0.62847 0.69111
 H395 H 0.69143 0.62847 0.65035
 H396 H 0.62822 0.65129 0.69100
 H397 H 0.62738 0.69168 0.65006
 H398 H 0.65018 0.69187 0.62726
 H399 H 0.69137 0.65172 0.62769
 C400 C 0.64954 0.15101 0.17149
 C401 C 0.65730 0.13580 0.17931
 C402 C 0.67269 0.12804 0.17201
 C403 C 0.68014 0.13557 0.15660
 C404 C 0.67256 0.15079 0.14868
 C405 C 0.65722 0.15858 0.15614
 C406 C 0.63441 0.15897 0.17896
 C407 C 0.62684 0.17444 0.17134
 C408 C 0.63453 0.18183 0.15598
 C409 C 0.64966 0.17403 0.14835
 C410 C 0.65752 0.18160 0.13321
 C411 C 0.67289 0.17397 0.12576
 C412 C 0.68024 0.15848 0.13353
 H413 H 0.65161 0.13024 0.19131
 H414 H 0.69186 0.12954 0.15075
 H415 H 0.62874 0.15335 0.19096
 H416 H 0.62868 0.19363 0.14990
 H417 H 0.65190 0.19369 0.12747
 H418 H 0.69195 0.15236 0.12775
 C419 C 0.14875 0.65039 0.17205
 C420 C 0.15670 0.63521 0.17972
 C421 C 0.17203 0.62756 0.17222
 C422 C 0.17927 0.63518 0.15675
 C423 C 0.17148 0.65036 0.14893
 C424 C 0.15618 0.65803 0.15661
 C425 C 0.13368 0.65826 0.17975
 C426 C 0.12594 0.67371 0.17226
 C427 C 0.13336 0.68113 0.15679
 C428 C 0.14843 0.67345 0.14897
 C429 C 0.15601 0.68109 0.13374
 C430 C 0.17134 0.67361 0.12607
 C431 C 0.17893 0.65816 0.13370
 H432 H 0.15118 0.62959 0.19179
 H433 H 0.19096 0.62925 0.15075
 H434 H 0.12820 0.65260 0.19182
 H435 H 0.12735 0.69291 0.15080
 H436 H 0.14996 0.69287 0.12783
 H437 H 0.19089 0.65246 0.12804
 C438 C 0.14970 0.14879 0.67175
 C439 C 0.15755 0.13362 0.67954
 C440 C 0.17297 0.12596 0.67222
 C441 C 0.18037 0.13354 0.65682
 C442 C 0.17270 0.14873 0.64891
 C443 C 0.15732 0.15642 0.65640
 C444 C 0.13454 0.15666 0.67926
 C445 C 0.12690 0.17211 0.67168
 C446 C 0.13453 0.17956 0.65631
 C447 C 0.14968 0.17184 0.64865
 C448 C 0.15747 0.17948 0.63352
 C449 C 0.17288 0.17196 0.62603
 C450 C 0.18032 0.15649 0.63377
 H451 H 0.15190 0.12802 0.69155
 H452 H 0.19212 0.12759 0.65096
 H453 H 0.12892 0.15100 0.69126
 H454 H 0.12861 0.19135 0.65027
 H455 H 0.15179 0.19155 0.62781
 H456 H 0.19206 0.15046 0.62797
 C457 C 0.35130 0.64966 0.32766
 C458 C 0.34329 0.63451 0.32004
 C459 C 0.32787 0.62700 0.32749
 C460 C 0.32064 0.63471 0.34293
 C461 C 0.32855 0.64984 0.35074
 C462 C 0.34392 0.65739 0.34306
 C463 C 0.36646 0.65733 0.31998
 C464 C 0.37431 0.67276 0.32738
 C465 C 0.36694 0.68032 0.34281
 C466 C 0.35179 0.67277 0.35067
 C467 C 0.34422 0.68052 0.36585
 C468 C 0.32884 0.67316 0.37354
 C469 C 0.32114 0.65776 0.36592
 H470 H 0.34909 0.62852 0.30828
 H471 H 0.30862 0.62917 0.34863
 H472 H 0.37218 0.65127 0.30822
 H473 H 0.37274 0.69236 0.34847
 H474 H 0.35035 0.69228 0.37174
 H475 H 0.30913 0.65215 0.37159
 C476 C 0.35066 0.14866 0.82934
 C477 C 0.34262 0.13338 0.82201
 C478 C 0.32725 0.12598 0.82970
 C479 C 0.32009 0.13397 0.84502
 C480 C 0.32801 0.14925 0.85252
 C481 C 0.34334 0.15666 0.84465
 C482 C 0.36577 0.15623 0.82146
 C483 C 0.37367 0.17175 0.82861
 C484 C 0.36635 0.17957 0.84394
 C485 C 0.35123 0.17217 0.85197
 C486 C 0.34374 0.18017 0.86705
 C487 C 0.32841 0.17292 0.87494
 C488 C 0.32068 0.15739 0.86762
 H489 H 0.34807 0.12748 0.81004
 H490 H 0.30837 0.12825 0.85115
 H491 H 0.37144 0.14999 0.80976
 H492 H 0.37219 0.19169 0.84939
 H493 H 0.34988 0.19203 0.87272
 H494 H 0.30871 0.15187 0.87344
 C495 C 0.85160 0.64991 0.82783
 C496 C 0.84380 0.63472 0.82004
 C497 C 0.82838 0.62702 0.82731
 C498 C 0.82089 0.63461 0.84268
 C499 C 0.82855 0.64980 0.85063
 C500 C 0.84394 0.65751 0.84316
 C501 C 0.86679 0.65778 0.82036
 C502 C 0.87440 0.67323 0.82796
 C503 C 0.86675 0.68064 0.84333
 C504 C 0.85156 0.67293 0.85093
 C505 C 0.84376 0.68054 0.86604
 C506 C 0.82833 0.67304 0.87349
 C507 C 0.82087 0.65759 0.86574
 H508 H 0.84978 0.62884 0.80832
 H509 H 0.80886 0.62894 0.84822
 H510 H 0.87244 0.65212 0.80837
 H511 H 0.87264 0.69242 0.84940
 H512 H 0.84972 0.69232 0.87205
 H513 H 0.80883 0.65187 0.87124
 C514 C 0.85022 0.15026 0.32847
 C515 C 0.84228 0.13510 0.32073
 C516 C 0.82688 0.12749 0.32813
 C517 C 0.81955 0.13512 0.34355
 C518 C 0.82731 0.15027 0.35143
 C519 C 0.84269 0.15790 0.34386
 C520 C 0.86536 0.15809 0.32088
 C521 C 0.87308 0.17351 0.32843
 C522 C 0.86557 0.18095 0.34386
 C523 C 0.85042 0.17330 0.35157
 C524 C 0.84275 0.18095 0.36674
 C525 C 0.82735 0.17350 0.37430
 C526 C 0.81978 0.15807 0.36660
 H527 H 0.84788 0.12947 0.30870
 H528 H 0.80780 0.12921 0.34946
 H529 H 0.87091 0.15242 0.30885
 H530 H 0.87156 0.19270 0.34989
 H531 H 0.84879 0.19271 0.37270
 H532 H 0.80776 0.15240 0.37218
 C533 C 0.64861 0.35146 0.32796
 C534 C 0.65673 0.36654 0.32028
 C535 C 0.67215 0.37402 0.32781
 C536 C 0.67930 0.36635 0.34331
 C537 C 0.67135 0.35128 0.35115
 C538 C 0.65597 0.34378 0.34343
 C539 C 0.63348 0.34374 0.32022
 C540 C 0.62559 0.32837 0.32770
 C541 C 0.63291 0.32091 0.34322
 C542 C 0.64806 0.32845 0.35108
 C543 C 0.65555 0.32074 0.36632
 C544 C 0.67097 0.32806 0.37402
 C545 C 0.67871 0.34342 0.36640
 H546 H 0.65127 0.37219 0.30819
 H547 H 0.69107 0.37216 0.34932
 H548 H 0.62807 0.34943 0.30812
 H549 H 0.62679 0.30920 0.34919
 H550 H 0.64938 0.30903 0.37223
 H551 H 0.69074 0.34899 0.37208
 C552 C 0.64880 0.84967 0.82777
 C553 C 0.65681 0.86483 0.82013
 C554 C 0.67215 0.87242 0.82770
 C555 C 0.67935 0.86477 0.84319
 C556 C 0.67150 0.84962 0.85098
 C557 C 0.65619 0.84201 0.84323
 C558 C 0.63372 0.84186 0.82000
 C559 C 0.62593 0.82643 0.82744
 C560 C 0.63329 0.81898 0.84294
 C561 C 0.64838 0.82661 0.85084
 C562 C 0.65591 0.81894 0.86609
 C563 C 0.67125 0.82637 0.87383
 C564 C 0.67889 0.84179 0.86623
 H565 H 0.65132 0.87047 0.80804
 H566 H 0.69106 0.87066 0.84923
 H567 H 0.62828 0.84755 0.80791
 H568 H 0.62725 0.80721 0.84889
 H569 H 0.64981 0.80717 0.87197
 H570 H 0.69087 0.84746 0.87194
 C571 C 0.14711 0.34990 0.82902
 C572 C 0.15488 0.36506 0.82118
 C573 C 0.17030 0.37281 0.82844
 C574 C 0.17780 0.36531 0.84387
 C575 C 0.17016 0.35015 0.85187
 C576 C 0.15479 0.34238 0.84440
 C577 C 0.13196 0.34196 0.82153
 C578 C 0.12441 0.32650 0.82915
 C579 C 0.13206 0.31917 0.84457
 C580 C 0.14721 0.32696 0.85220
 C581 C 0.15504 0.31941 0.86735
 C582 C 0.17045 0.32698 0.87480
 C583 C 0.17787 0.34243 0.86702
 H584 H 0.14889 0.37088 0.80941
 H585 H 0.18983 0.37102 0.84941
 H586 H 0.12631 0.34754 0.80949
 H587 H 0.12621 0.30738 0.85065
 H588 H 0.14912 0.30763 0.87338
 H589 H 0.18990 0.34819 0.87252
 C590 C 0.14929 0.85135 0.32853
 C591 C 0.15724 0.86652 0.32086
 C592 C 0.17268 0.87406 0.32829
 C593 C 0.18003 0.86634 0.34368
 C594 C 0.17226 0.85116 0.35149
 C595 C 0.15684 0.84361 0.34388
 C596 C 0.13412 0.84359 0.32090
 C597 C 0.12639 0.82814 0.32836
 C598 C 0.13391 0.82061 0.34375
 C599 C 0.14910 0.82818 0.35150
 C600 C 0.15680 0.82042 0.36663
 C601 C 0.17224 0.82778 0.37421
 C602 C 0.17982 0.84324 0.36661
 H603 H 0.15163 0.87221 0.30886
 H604 H 0.19181 0.87218 0.34961
 H605 H 0.12857 0.84933 0.30889
 H606 H 0.12792 0.80883 0.34971
 H607 H 0.15075 0.80863 0.37252
 H608 H 0.19187 0.84886 0.37222
 O609 O 0.24787 1.01823 0.27228
 O610 O 0.27247 0.98344 0.24782
 O611 O 0.27229 1.01848 0.24793
 O612 O 0.24819 0.98328 0.27228
 O613 O 0.22732 0.98328 0.25171
 O614 O 0.25173 1.01813 0.22704
 O615 O 0.25164 0.98314 0.22723
 O616 O 0.22730 1.01835 0.25141
 Cu617 Cu 0.26229 1.00087 0.26214
 Cu618 Cu 0.23741 1.00072 0.23728
 C619 C 0.23343 1.02434 0.26598
 C620 C 0.26621 0.97723 0.23340
 C621 C 0.26614 1.02436 0.23333
 C622 C 0.23365 0.97721 0.26617
 O623 O 0.27118 0.48166 0.74869
 O624 O 0.24688 0.51662 0.77319
 O625 O 0.24677 0.48164 0.77305
 O626 O 0.27126 0.51668 0.74872
 O627 O 0.25058 0.51667 0.72797
 O628 O 0.22601 0.48185 0.75238
 O629 O 0.22625 0.51690 0.75238
 O630 O 0.25042 0.48167 0.72801
 Cu631 Cu 0.26111 0.49914 0.76298
 Cu632 Cu 0.23623 0.49928 0.73811
 C633 C 0.26493 0.47559 0.73421
 C634 C 0.23246 0.52282 0.76694
 C635 C 0.23221 0.47570 0.76684
 C636 C 0.26508 0.52272 0.73419
 O637 O 0.74791 -0.01691 0.22715
 O638 O 0.77220 0.01799 0.25186
 O639 O 0.77215 -0.01707 0.25170
 O640 O 0.74788 0.01811 0.22734
 O641 O 0.72700 0.01796 0.24784
 O642 O 0.75143 -0.01701 0.27237
 O643 O 0.75131 0.01799 0.27235
 O644 O 0.72713 -0.01710 0.24775
 Cu645 Cu 0.76212 0.00054 0.23745
 Cu646 Cu 0.73713 0.00044 0.26213
 C647 C 0.73341 -0.02306 0.23326
 C648 C 0.76586 0.02406 0.26629
 C649 C 0.76593 -0.02310 0.26619
 C650 C 0.73332 0.02411 0.23344
 O651 O 0.77271 0.51746 0.75183
 O652 O 0.74823 0.48237 0.72760
 O653 O 0.74827 0.51738 0.72746
 O654 O 0.77269 0.48247 0.75200
 O655 O 0.75191 0.48240 0.77261
 O656 O 0.72762 0.51756 0.74818
 O657 O 0.72748 0.48253 0.74823
 O658 O 0.75209 0.51750 0.77260
 Cu659 Cu 0.76254 0.49991 0.73765
 Cu660 Cu 0.73771 0.50002 0.76249
 C661 C 0.76657 0.52355 0.76633
 C662 C 0.73370 0.47638 0.73379
 C663 C 0.73382 0.52354 0.73366
 C664 C 0.76643 0.47636 0.76644
 O665 O 0.27192 0.51765 0.25204
 O666 O 0.24740 0.48278 0.22756
 O667 O 0.24758 0.51780 0.22757
 O668 O 0.27181 0.48263 0.25197
 O669 O 0.25108 0.48269 0.27262
 O670 O 0.22684 0.51789 0.24821
 O671 O 0.22664 0.48285 0.24819
 O672 O 0.25121 0.51774 0.27271
 Cu673 Cu 0.26175 0.50021 0.23772
 Cu674 Cu 0.23687 0.50030 0.26250
 C675 C 0.26573 0.52374 0.26652
 C676 C 0.23286 0.47678 0.23371
 C677 C 0.23310 0.52394 0.23375
 C678 C 0.26556 0.47656 0.26643
 O679 O 0.77231 0.98210 0.74786
 O680 O 0.74799 1.01677 0.77281
 O681 O 0.74808 0.98179 0.77240
 O682 O 0.77221 1.01711 0.74820
 O683 O 0.75141 1.01721 0.72757
 O684 O 0.72714 0.98204 0.75191
 O685 O 0.72722 1.01710 0.75214
 O686 O 0.75138 0.98220 0.72735
 Cu687 Cu 0.76224 0.99943 0.76237
 Cu688 Cu 0.73719 0.99965 0.73768
 C689 C 0.76596 0.97613 0.73338
 C690 C 0.73349 1.02295 0.76670
 C691 C 0.73351 0.97581 0.76628
 C692 C 0.76593 1.02325 0.73376
 O693 O 0.75171 0.51808 0.22691
 O694 O 0.72766 0.48278 0.25129
 O695 O 0.72772 0.51778 0.25168
 O696 O 0.75174 0.48302 0.22656
 O697 O 0.77271 0.48270 0.24702
 O698 O 0.74882 0.51762 0.27202
 O699 O 0.74865 0.48261 0.27173
 O700 O 0.77283 0.51767 0.24722
 Cu701 Cu 0.73760 0.50043 0.23706
 Cu702 Cu 0.76286 0.50013 0.26154
 C703 C 0.76637 0.52395 0.23292
 C704 C 0.73405 0.47662 0.26567
 C705 C 0.73420 0.52372 0.26612
 C706 C 0.76630 0.47684 0.23254
 O707 O 0.24905 -0.01825 0.72816
 O708 O 0.27269 0.01695 0.75309
 O709 O 0.27313 -0.01800 0.75296
 O710 O 0.24866 0.01678 0.72831
 O711 O 0.22767 0.01654 0.74871
 O712 O 0.25203 -0.01852 0.77323
 O713 O 0.25173 0.01654 0.77351
 O714 O 0.22797 -0.01849 0.74846
 Cu715 Cu 0.26298 -0.00060 0.73858
 Cu716 Cu 0.23774 -0.00102 0.76302
 C717 C 0.23449 -0.02445 0.73407
 C718 C 0.26624 0.02281 0.76755
 C719 C 0.26674 -0.02428 0.76727
 C720 C 0.23403 0.02271 0.73433
 O721 O 0.24747 0.27337 0.98328
 O722 O 0.27268 0.24921 1.01770
 O723 O 0.27250 0.24931 0.98311
 O724 O 0.24758 0.27320 1.01791
 O725 O 0.22744 0.25169 1.01788
 O726 O 0.25235 0.22781 0.98312
 O727 O 0.25252 0.22771 1.01771
 O728 O 0.22733 0.25186 0.98328
 Cu729 Cu 0.26207 0.26343 1.00050
 Cu730 Cu 0.23789 0.23762 1.00049
 C731 C 0.23312 0.26671 0.97731
 C732 C 0.26688 0.23436 1.02366
 C733 C 0.26665 0.23450 0.97711
 C734 C 0.23329 0.26649 1.02392
 O735 O 0.24835 0.77259 0.48265
 O736 O 0.27295 0.74804 0.51730
 O737 O 0.27316 0.74829 0.48266
 O738 O 0.24808 0.77229 0.51726
 O739 O 0.22772 0.75099 0.51692
 O740 O 0.25280 0.72699 0.48234
 O741 O 0.25257 0.72677 0.51696
 O742 O 0.22801 0.75128 0.48234
 Cu743 Cu 0.26268 0.76243 0.50000
 Cu744 Cu 0.23824 0.73687 0.49960
 C745 C 0.23400 0.76610 0.47650
 C746 C 0.26690 0.73324 0.52314
 C747 C 0.26722 0.73358 0.47650
 C748 C 0.23364 0.76571 0.52307
 O749 O 0.27290 0.75192 -0.01672
 O750 O 0.24775 0.72770 0.01765
 O751 O 0.24801 0.72777 -0.01696
 O752 O 0.27266 0.75187 0.01788
 O753 O 0.25239 0.77326 0.01776
 O754 O 0.22772 0.74914 -0.01714
 O755 O 0.22747 0.74908 0.01749
 O756 O 0.25263 0.77331 -0.01687
 Cu757 Cu 0.26235 0.73767 0.00048
 Cu758 Cu 0.23802 0.76334 0.00030
 C759 C 0.26703 0.76671 -0.02276
 C760 C 0.23334 0.73429 0.02353
 C761 C 0.23370 0.73437 -0.02311
 C762 C 0.26672 0.76665 0.02385
 O763 O 0.27282 0.25167 0.48283
 O764 O 0.24814 0.22716 0.51728
 O765 O 0.24799 0.22747 0.48267
 O766 O 0.27284 0.25152 0.51742
 O767 O 0.25245 0.27279 0.51758
 O768 O 0.22756 0.24870 0.48284
 O769 O 0.22771 0.24840 0.51747
 O770 O 0.25243 0.27294 0.48293
 Cu771 Cu 0.26248 0.23733 0.50004
 Cu772 Cu 0.23800 0.26284 0.50022
 C773 C 0.26682 0.26645 0.47689
 C774 C 0.23376 0.23361 0.52336
 C775 C 0.23357 0.23401 0.47672
 C776 C 0.26686 0.26623 0.52353
 O777 O 0.75227 0.72679 0.98246
 O778 O 0.72757 0.75090 1.01724
 O779 O 0.72733 0.75094 0.98263
 O780 O 0.75252 0.72676 1.01708
 O781 O 0.77274 0.74819 1.01699
 O782 O 0.74757 0.77235 0.98252
 O783 O 0.74780 0.77233 1.01713
 O784 O 0.77251 0.74820 0.98238
 Cu785 Cu 0.73789 0.73670 0.99986
 Cu786 Cu 0.76219 0.76241 0.99974
 C787 C 0.76658 0.73341 0.97640
 C788 C 0.73350 0.76570 1.02322
 C789 C 0.73318 0.76573 0.97660
 C790 C 0.76690 0.73339 1.02301
 O791 O 0.74638 0.27309 0.48293
 O792 O 0.77102 0.24855 0.51751
 O793 O 0.77117 0.24880 0.48292
 O794 O 0.74630 0.27292 0.51753
 O795 O 0.72591 0.25166 0.51734
 O796 O 0.75079 0.22752 0.48270
 O797 O 0.75063 0.22729 0.51731
 O798 O 0.72599 0.25183 0.48273
 Cu799 Cu 0.76076 0.26297 0.50024
 Cu800 Cu 0.73628 0.23745 0.50000
 C801 C 0.73200 0.26661 0.47684
 C802 C 0.76501 0.23376 0.52340
 C803 C 0.76521 0.23407 0.47681
 C804 C 0.73189 0.26638 0.52344
 O805 O 0.72830 0.24899 -0.01802
 O806 O 0.75345 0.27307 0.01652
 O807 O 0.75327 0.27312 -0.01809
 O808 O 0.72842 0.24901 0.01661
 O809 O 0.74865 0.22759 0.01653
 O810 O 0.77348 0.25167 -0.01814
 O811 O 0.77366 0.25162 0.01645
 O812 O 0.74852 0.22755 -0.01808
 Cu813 Cu 0.73883 0.26320 -0.00074
 Cu814 Cu 0.76310 0.23746 -0.00082
 C815 C 0.73415 0.23418 -0.02403
 C816 C 0.76782 0.26643 0.02247
 C817 C 0.76760 0.26649 -0.02412
 C818 C 0.73434 0.23421 0.02259
 O819 O 0.77257 0.75156 0.48247
 O820 O 0.74790 0.72734 0.51721
 O821 O 0.74767 0.72738 0.48261
 O822 O 0.77289 0.75144 0.51708
 O823 O 0.75265 0.77285 0.51726
 O824 O 0.72742 0.74878 0.48276
 O825 O 0.72766 0.74875 0.51736
 O826 O 0.75231 0.77296 0.48264
 Cu827 Cu 0.76229 0.73728 0.49983
 Cu828 Cu 0.73798 0.76298 0.50003
 C829 C 0.76661 0.76636 0.47653
 C830 C 0.73358 0.73393 0.52329
 C831 C 0.73327 0.73399 0.47672
 C832 C 0.76705 0.76622 0.52314
 O833 O 0.98238 0.24896 0.27355
 O834 O 1.01719 0.27321 0.24900
 O835 O 0.98253 0.27346 0.24895
 O836 O 1.01704 0.24885 0.27363
 O837 O 1.01683 0.22764 0.25319
 O838 O 0.98238 0.25231 0.22845
 O839 O 1.01698 0.25210 0.22846
 O840 O 0.98222 0.22783 0.25304
 Cu841 Cu 0.99979 0.26324 0.26334
 Cu842 Cu 0.99960 0.23785 0.23874
 C843 C 0.97627 0.23429 0.26746
 C844 C 1.02310 0.26676 0.23456
 C845 C 0.97649 0.26707 0.23451
 C846 C 1.02291 0.23407 0.26759
 O847 O 0.51716 0.27197 0.74899
 O848 O 0.48244 0.24739 0.77335
 O849 O 0.51707 0.24723 0.77336
 O850 O 0.48251 0.27202 0.74888
 O851 O 0.48247 0.25107 0.72818
 O852 O 0.51698 0.22628 0.75267
 O853 O 0.48236 0.22645 0.75264
 O854 O 0.51708 0.25100 0.72831
 Cu855 Cu 0.49980 0.26176 0.76322
 Cu856 Cu 0.49972 0.23660 0.73838
 C857 C 0.52314 0.26564 0.73452
 C858 C 0.47638 0.23276 0.76712
 C859 C 0.52300 0.23254 0.76716
 C860 C 0.47650 0.26575 0.73439
 O861 O -0.01738 0.27144 0.75110
 O862 O 0.01752 0.24728 0.72666
 O863 O -0.01711 0.24720 0.72625
 O864 O 0.01719 0.27143 0.75156
 O865 O 0.01689 0.25011 0.77189
 O866 O -0.01724 0.22577 0.74646
 O867 O 0.01739 0.22594 0.74697
 O868 O -0.01776 0.24998 0.77128
 Cu869 Cu 0.00008 0.26147 0.73685
 Cu870 Cu -0.00019 0.23581 0.76118
 C871 C -0.02362 0.26481 0.76532
 C872 C 0.02353 0.23254 0.73268
 C873 C -0.02312 0.23238 0.73206
 C874 C 0.02295 0.26490 0.76604
 O875 O 0.48233 0.27334 0.25123
 O876 O 0.51732 0.24948 0.22656
 O877 O 0.48265 0.24894 0.22656
 O878 O 0.51698 0.27380 0.25132
 O879 O 0.51717 0.25260 0.27176
 O880 O 0.48314 0.22761 0.24688
 O881 O 0.51771 0.22830 0.24703
 O882 O 0.48254 0.25204 0.27157
 Cu883 Cu 0.49979 0.26352 0.23687
 Cu884 Cu 0.50016 0.23802 0.26136
 C885 C 0.47636 0.26672 0.26558
 C886 C 0.52359 0.23486 0.23261
 C887 C 0.47699 0.23403 0.23251
 C888 C 0.52302 0.26740 0.26575
 O889 O 0.98335 0.74888 0.77267
 O890 O 1.01792 0.77321 0.74787
 O891 O 0.98331 0.77332 0.74806
 O892 O 1.01799 0.74884 0.77262
 O893 O 1.01776 0.72759 0.75223
 O894 O 0.98325 0.75221 0.72752
 O895 O 1.01792 0.75192 0.72751
 O896 O 0.98313 0.72775 0.75216
 Cu897 Cu 1.00066 0.76319 0.76235
 Cu898 Cu 1.00050 0.73775 0.73780
 C899 C 0.97723 0.73420 0.76661
 C900 C 1.02393 0.76667 0.73350
 C901 C 0.97728 0.76694 0.73362
 C902 C 1.02387 0.73405 0.76660
 O903 O 0.51811 0.77292 0.24813
 O904 O 0.48327 0.74849 0.27245
 O905 O 0.51788 0.74818 0.27245
 O906 O 0.48344 0.77311 0.24797
 O907 O 0.48322 0.75212 0.22732
 O908 O 0.51782 0.72732 0.25167
 O909 O 0.48319 0.72751 0.25177
 O910 O 0.51781 0.75209 0.22731
 Cu911 Cu 0.50069 0.76278 0.26232
 Cu912 Cu 0.50050 0.73766 0.23745
 C913 C 0.52397 0.76666 0.23358
 C914 C 0.47721 0.73384 0.26624
 C915 C 0.52383 0.73352 0.26619
 C916 C 0.47734 0.76683 0.23351
 O917 O 0.01735 0.75289 0.27280
 O918 O -0.01730 0.72847 0.24821
 O919 O 0.01733 0.72845 0.24819
 O920 O -0.01726 0.75291 0.27282
 O921 O -0.01731 0.77408 0.25233
 O922 O 0.01729 0.74961 0.22770
 O923 O -0.01736 0.74961 0.22770
 O924 O 0.01734 0.77406 0.25233
 Cu925 Cu 0.00004 0.73856 0.26256
 Cu926 Cu -0.00001 0.76396 0.23796
 C927 C 0.02336 0.76761 0.26675
 C928 C -0.02334 0.73489 0.23380
 C929 C 0.02330 0.73488 0.23376
 C930 C -0.02328 0.76763 0.26675
 O931 O 0.48220 0.77185 0.75162
 O932 O 0.51680 0.74752 0.72689
 O933 O 0.48216 0.74741 0.72702
 O934 O 0.51688 0.77201 0.75149
 O935 O 0.51714 0.75080 0.77193
 O936 O 0.48229 0.72636 0.74762
 O937 O 0.51694 0.72633 0.74735
 O938 O 0.48256 0.75083 0.77226
 Cu939 Cu 0.49949 0.76182 0.73720
 Cu940 Cu 0.49974 0.73646 0.76184
 C941 C 0.47642 0.76548 0.76615
 C942 C 0.52286 0.73280 0.73291
 C943 C 0.47619 0.73272 0.73320
 C944 C 0.52303 0.76555 0.76585
 C945 C 0.41829 0.30190 0.30208
 C946 C 0.41726 0.32070 0.30355
 C947 C 0.40270 0.32882 0.31181
 C948 C 0.38885 0.31832 0.31878
 C949 C 0.38991 0.29952 0.31735
 C950 C 0.40445 0.29141 0.30910
 C951 C 0.43358 0.29322 0.29305
 C952 C 0.44102 0.27731 0.29982
 C953 C 0.45503 0.26883 0.29103
 C954 C 0.46194 0.27606 0.27525
 C955 C 0.45466 0.29210 0.26859
 C956 C 0.44064 0.30058 0.27740
 H957 H 0.40237 0.34332 0.31292
 H958 H 0.37931 0.29108 0.32231
 H959 H 0.46038 0.25653 0.29655
 H960 H 0.45964 0.29801 0.25645
 H961 H 0.40469 0.27692 0.30791
 H962 H 0.43604 0.27144 0.31199
 H963 H 0.42782 0.32913 0.29849
 H964 H 0.43507 0.31271 0.27173
 C965 C 0.41925 0.80147 0.80332
 C966 C 0.40722 0.79131 0.81338
 C967 C 0.39280 0.79949 0.82177
 C968 C 0.38980 0.81817 0.82025
 C969 C 0.40206 0.82829 0.81017
 C970 C 0.41655 0.82008 0.80192
 C971 C 0.43433 0.79263 0.79405
 C972 C 0.43953 0.79830 0.77702
 C973 C 0.45336 0.78967 0.76809
 C974 C 0.46225 0.77507 0.77591
 C975 C 0.45719 0.76949 0.79299
 C976 C 0.44344 0.77821 0.80198
 H977 H 0.38358 0.79082 0.82866
 H978 H 0.40100 0.84274 0.80911
 H979 H 0.45688 0.79423 0.75491
 H980 H 0.46385 0.75836 0.79943
 H981 H 0.42581 0.82839 0.79462
 H982 H 0.43264 0.80918 0.77041
 H983 H 0.40865 0.77687 0.81440
 H984 H 0.43999 0.77369 0.81519
 C985 C -0.08143 0.30115 0.80114
 C986 C -0.09377 0.31100 0.79112
 C987 C -0.10823 0.31934 0.79928
 C988 C -0.11094 0.31802 0.81779
 C989 C -0.09839 0.30811 0.82776
 C990 C -0.08388 0.29987 0.81956
 C991 C -0.06621 0.29207 0.79234
 C992 C -0.06062 0.27495 0.79790
 C993 C -0.04664 0.26620 0.78930
 C994 C -0.03798 0.27434 0.77487
 C995 C -0.04344 0.29153 0.76942
 C996 C -0.05735 0.30031 0.77808
 H997 H -0.11769 0.32605 0.79074
 H998 H -0.09923 0.30719 0.84205
 H999 H -0.04280 0.25293 0.79378
 H1000 H -0.03697 0.29822 0.75842
 H1001 H -0.07438 0.29272 0.82773
 H1002 H -0.06730 0.26811 0.80868
 H1003 H -0.09252 0.31190 0.77683
 H1004 H -0.06112 0.31361 0.77365
 C1005 C -0.08113 0.80328 0.30307
 C1006 C -0.08209 0.82208 0.30467
 C1007 C -0.09670 0.83020 0.31285
 C1008 C -0.11065 0.81970 0.31961
 C1009 C -0.10966 0.80091 0.31802
 C1010 C -0.09508 0.79281 0.30986
 C1011 C -0.06580 0.79458 0.29416
 C1012 C -0.05850 0.77862 0.30097
 C1013 C -0.04454 0.77003 0.29221
 C1014 C -0.03755 0.77718 0.27643
 C1015 C -0.04465 0.79330 0.26977
 C1016 C -0.05861 0.80191 0.27855
 H1017 H -0.09697 0.84468 0.31409
 H1018 H -0.12035 0.79247 0.32279
 H1019 H -0.03933 0.75767 0.29774
 H1020 H -0.03959 0.79915 0.25763
 H1021 H -0.09490 0.77832 0.30855
 H1022 H -0.06358 0.77279 0.31311
 H1023 H -0.07145 0.83049 0.29976
 H1024 H -0.06408 0.81408 0.27287
 C1025 C 0.58119 0.69664 0.30224
 C1026 C 0.58179 0.69506 0.32082
 C1027 C 0.59627 0.68686 0.32916
 C1028 C 0.61048 0.68008 0.31909
 C1029 C 0.60982 0.68158 0.30051
 C1030 C 0.59534 0.68976 0.29218
 C1031 C 0.56603 0.70573 0.29335
 C1032 C 0.55897 0.69887 0.27746
 C1033 C 0.54512 0.70776 0.26877
 C1034 C 0.53803 0.72373 0.27576
 C1035 C 0.54494 0.73046 0.29178
 C1036 C 0.55877 0.72155 0.30048
 H1037 H 0.59628 0.68567 0.34348
 H1038 H 0.62069 0.67678 0.29240
 H1039 H 0.54006 0.70218 0.25649
 H1040 H 0.53980 0.74274 0.29751
 H1041 H 0.59541 0.69105 0.27786
 H1042 H 0.56412 0.68657 0.27177
 H1043 H 0.57096 0.70001 0.32891
 H1044 H 0.56407 0.72728 0.31259
 C1045 C 0.58052 0.19580 0.80310
 C1046 C 0.58139 0.19448 0.82170
 C1047 C 0.59595 0.18632 0.82994
 C1048 C 0.60997 0.17931 0.81977
 C1049 C 0.60904 0.18054 0.80118
 C1050 C 0.59450 0.18868 0.79294
 C1051 C 0.56530 0.20483 0.79429
 C1052 C 0.55802 0.19781 0.77856
 C1053 C 0.54414 0.20667 0.76989
 C1054 C 0.53722 0.22277 0.77675
 C1055 C 0.54431 0.22966 0.79262
 C1056 C 0.55819 0.22078 0.80130
 H1057 H 0.59617 0.18535 0.84428
 H1058 H 0.61977 0.17556 0.79299
 H1059 H 0.53894 0.20097 0.75773
 H1060 H 0.53930 0.24205 0.79823
 H1061 H 0.59437 0.18977 0.77861
 H1062 H 0.56305 0.18541 0.77297
 H1063 H 0.57071 0.19962 0.82987
 H1064 H 0.56364 0.22664 0.81327
 C1065 C 1.08152 0.69774 0.80277
 C1066 C 1.09543 0.69049 0.79263
 C1067 C 1.10995 0.68232 0.80089
 C1068 C 1.11090 0.68118 0.81949
 C1069 C 1.09697 0.68840 0.82964
 C1070 C 1.08244 0.69660 0.82137
 C1071 C 1.06626 0.70668 0.79391
 C1072 C 1.05918 0.72271 0.80076
 C1073 C 1.04527 0.73149 0.79202
 C1074 C 1.03811 0.72440 0.77626
 C1075 C 1.04501 0.70822 0.76958
 C1076 C 1.05892 0.69947 0.77830
 H1077 H 1.12062 0.67719 0.79270
 H1078 H 1.09722 0.68752 0.84399
 H1079 H 1.04027 0.74394 0.79751
 H1080 H 1.03976 0.70236 0.75751
 H1081 H 1.07182 0.70186 0.82953
 H1082 H 1.06467 0.72871 0.81265
 H1083 H 1.09527 0.69146 0.77829
 H1084 H 1.06392 0.68700 0.77284
 C1085 C 1.08057 0.19749 0.30358
 C1086 C 1.08338 0.19908 0.32193
 C1087 C 1.09806 0.19098 0.33003
 C1088 C 1.11039 0.18088 0.32002
 C1089 C 1.10729 0.17921 0.30158
 C1090 C 1.09269 0.18743 0.29353
 C1091 C 1.06527 0.20655 0.29484
 C1092 C 1.05624 0.19826 0.28069
 C1093 C 1.04238 0.20711 0.27197
 C1094 C 1.03713 0.22440 0.27726
 C1095 C 1.04591 0.23257 0.29162
 C1096 C 1.05985 0.22377 0.30027
 H1097 H 1.09921 0.19218 0.34429
 H1098 H 1.11658 0.17234 0.29300
 H1099 H 1.03580 0.20040 0.26103
 H1100 H 1.04225 0.24593 0.29598
 H1101 H 1.09119 0.18630 0.27928
 H1102 H 1.05985 0.18488 0.27637
 H1103 H 1.07407 0.20640 0.33014
 H1104 H 1.06667 0.23066 0.31094
 C1105 C 0.58092 0.30164 0.69841
 C1106 C 0.58185 0.32045 0.69705
 C1107 C 0.59635 0.32869 0.68879
 C1108 C 0.61022 0.31829 0.68172
 C1109 C 0.60928 0.29948 0.68311
 C1110 C 0.59480 0.29126 0.69134
 C1111 C 0.56565 0.29282 0.70732
 C1112 C 0.55830 0.27696 0.70035
 C1113 C 0.54435 0.26828 0.70905
 C1114 C 0.53744 0.27525 0.72494
 C1115 C 0.54461 0.29126 0.73178
 C1116 C 0.55856 0.29995 0.72306
 H1117 H 0.59659 0.34319 0.68773
 H1118 H 0.61991 0.29112 0.67809
 H1119 H 0.53908 0.25602 0.70338
 H1120 H 0.53960 0.29697 0.74401
 H1121 H 0.59464 0.27676 0.69247
 H1122 H 0.56330 0.27128 0.68810
 H1123 H 0.57125 0.32880 0.70217
 H1124 H 0.56406 0.31203 0.72887
 C1125 C 0.58172 0.80243 0.19711
 C1126 C 0.59379 0.79214 0.18722
 C1127 C 0.60831 0.80019 0.17889
 C1128 C 0.61138 0.81887 0.18029
 C1129 C 0.59913 0.82911 0.19027
 C1130 C 0.58453 0.82101 0.19846
 C1131 C 0.56646 0.79370 0.20619
 C1132 C 0.56109 0.79938 0.22316
 C1133 C 0.54712 0.79079 0.23193
 C1134 C 0.53826 0.77625 0.22399
 C1135 C 0.54346 0.77070 0.20694
 C1136 C 0.55735 0.77936 0.19813
 H1137 H 0.61754 0.79143 0.17213
 H1138 H 0.60026 0.84356 0.19127
 H1139 H 0.54349 0.79534 0.24509
 H1140 H 0.53682 0.75962 0.20041
 H1141 H 0.57526 0.82941 0.20566
 H1142 H 0.56797 0.81021 0.22986
 H1143 H 0.59229 0.77771 0.18626
 H1144 H 0.56092 0.77485 0.18495
 C1145 C 1.08074 0.30237 0.19774
 C1146 C 1.08351 0.32097 0.19905
 C1147 C 1.09808 0.32908 0.19082
 C1148 C 1.11034 0.31884 0.18085
 C1149 C 1.10728 0.30016 0.17945
 C1150 C 1.09279 0.29209 0.18782
 C1151 C 1.06553 0.29365 0.20692
 C1152 C 1.05644 0.27923 0.19897
 C1153 C 1.04258 0.27060 0.20787
 C1154 C 1.03739 0.27627 0.22488
 C1155 C 1.04626 0.29087 0.23272
 C1156 C 1.06020 0.29942 0.22387
 H1157 H 1.09919 0.34353 0.19180
 H1158 H 1.11651 0.29141 0.17268
 H1159 H 1.03593 0.25947 0.20142
 H1160 H 1.04264 0.29550 0.24585
 H1161 H 1.09131 0.27766 0.18689
 H1162 H 1.05998 0.27464 0.18581
 H1163 H 1.07424 0.32936 0.20624
 H1164 H 1.06707 0.31029 0.23049
 C1165 C 1.08164 0.80273 0.69724
 C1166 C 1.09407 0.81255 0.70718
 C1167 C 1.10861 0.82068 0.69897
 C1168 C 1.11134 0.81916 0.68047
 C1169 C 1.09870 0.80931 0.67057
 C1170 C 1.08409 0.80130 0.67883
 C1171 C 1.06639 0.79377 0.70612
 C1172 C 1.06068 0.77667 0.70061
 C1173 C 1.04673 0.76800 0.70932
 C1174 C 1.03821 0.77618 0.72381
 C1175 C 1.04376 0.79336 0.72919
 C1176 C 1.05765 0.80207 0.72042
 H1177 H 1.11813 0.82736 0.70746
 H1178 H 1.09955 0.80826 0.65629
 H1179 H 1.04282 0.75473 0.70490
 H1180 H 1.03740 0.80008 0.74023
 H1181 H 1.07453 0.79417 0.67070
 H1182 H 1.06728 0.76978 0.68982
 H1183 H 1.09283 0.81356 0.72146
 H1184 H 1.06150 0.81536 0.72480
 C1185 C 0.41817 0.69651 0.69756
 C1186 C 0.41733 0.69499 0.67898
 C1187 C 0.40274 0.68681 0.67081
 C1188 C 0.38867 0.68000 0.68104
 C1189 C 0.38954 0.68151 0.69962
 C1190 C 0.40412 0.68966 0.70778
 C1191 C 0.43351 0.70542 0.70630
 C1192 C 0.44072 0.69839 0.72205
 C1193 C 0.45474 0.70711 0.73064
 C1194 C 0.46185 0.72309 0.72368
 C1195 C 0.45481 0.72998 0.70779
 C1196 C 0.44080 0.72124 0.69919
 H1197 H 0.40256 0.68562 0.65649
 H1198 H 0.37876 0.67669 0.70785
 H1199 H 0.45989 0.70141 0.74282
 H1200 H 0.45996 0.74228 0.70210
 H1201 H 0.40423 0.69091 0.72210
 H1202 H 0.43555 0.68609 0.72772
 H1203 H 0.42806 0.69993 0.67078
 H1204 H 0.43540 0.72709 0.68718
 C1205 C 0.42012 0.19655 0.19624
 C1206 C 0.40795 0.18648 0.20623
 C1207 C 0.39347 0.17813 0.19807
 C1208 C 0.39056 0.17969 0.17959
 C1209 C 0.40302 0.18971 0.16965
 C1210 C 0.41755 0.19794 0.17784
 C1211 C 0.43520 0.20587 0.20508
 C1212 C 0.44045 0.22313 0.19959
 C1213 C 0.45420 0.23215 0.20831
 C1214 C 0.46295 0.22418 0.22278
 C1215 C 0.45787 0.20684 0.22814
 C1216 C 0.44419 0.19778 0.21936
 H1217 H 0.38412 0.17129 0.20660
 H1218 H 0.40205 0.19077 0.15536
 H1219 H 0.45775 0.24553 0.20390
 H1220 H 0.46443 0.20027 0.23917
 H1221 H 0.42693 0.20524 0.16969
 H1222 H 0.43364 0.22986 0.18881
 H1223 H 0.40929 0.18548 0.22050
 H1224 H 0.44069 0.18438 0.22374
 C1225 C -0.08115 0.69867 0.19786
 C1226 C -0.08183 0.69702 0.17928
 C1227 C -0.09634 0.68877 0.17104
 C1228 C -0.11049 0.68201 0.18119
 C1229 C -0.10980 0.68368 0.19976
 C1230 C -0.09530 0.69190 0.20800
 C1231 C -0.06588 0.70760 0.20668
 C1232 C -0.05878 0.70060 0.22249
 C1233 C -0.04482 0.70932 0.23114
 C1234 C -0.03764 0.72527 0.22420
 C1235 C -0.04457 0.73214 0.20825
 C1236 C -0.05852 0.72339 0.19957
 H1237 H -0.09638 0.68747 0.15673
 H1238 H -0.12065 0.67892 0.20793
 H1239 H -0.03975 0.70363 0.24337
 H1240 H -0.03935 0.74441 0.20256
 H1241 H -0.09532 0.69326 0.22230
 H1242 H -0.06400 0.68832 0.22815
 H1243 H -0.07102 0.70191 0.17114
 H1244 H -0.06383 0.72921 0.18751
 C1245 C -0.08064 0.19689 0.69497
 C1246 C -0.09461 0.20738 0.68819
 C1247 C -0.10926 0.19927 0.68011
 C1248 C -0.11029 0.18048 0.67861
 C1249 C -0.09627 0.16999 0.68527
 C1250 C -0.08160 0.17810 0.69337
 C1251 C -0.06536 0.20556 0.70403
 C1252 C -0.05825 0.19812 0.71965
 C1253 C -0.04437 0.20669 0.72861
 C1254 C -0.03727 0.22288 0.72214
 C1255 C -0.04417 0.23015 0.70635
 C1256 C -0.05806 0.22158 0.69740
 H1257 H -0.11999 0.20771 0.67539
 H1258 H -0.09657 0.15549 0.68409
 H1259 H -0.03938 0.20075 0.74075
 H1260 H -0.03895 0.24256 0.70097
 H1261 H -0.07093 0.16968 0.69824
 H1262 H -0.06373 0.18591 0.72520
 H1263 H -0.09441 0.22186 0.68950
 H1264 H -0.06308 0.22750 0.68527
 C1265 C 0.30147 0.41822 0.30256
 C1266 C 0.32007 0.41745 0.30392
 C1267 C 0.32837 0.40280 0.31208
 C1268 C 0.31825 0.38861 0.31905
 C1269 C 0.29964 0.38941 0.31773
 C1270 C 0.29135 0.40404 0.30958
 C1271 C 0.29260 0.43360 0.29363
 C1272 C 0.27684 0.44088 0.30054
 C1273 C 0.26818 0.45497 0.29184
 C1274 C 0.27508 0.46209 0.27601
 C1275 C 0.29097 0.45496 0.26921
 C1276 C 0.29963 0.44088 0.27793
 H1277 H 0.34272 0.40269 0.31312
 H1278 H 0.29149 0.37853 0.32269
 H1279 H 0.25600 0.46019 0.29747
 H1280 H 0.29663 0.46011 0.25702
 H1281 H 0.27701 0.40407 0.30847
 H1282 H 0.27122 0.43573 0.31275
 H1283 H 0.32821 0.42828 0.29885
 H1284 H 0.31164 0.43543 0.27216
 C1285 C 0.30374 -0.08191 0.80347
 C1286 C 0.31384 -0.09413 0.79352
 C1287 C 0.32226 -0.10865 0.80170
 C1288 C 0.32076 -0.11157 0.82018
 C1289 C 0.31063 -0.09912 0.83009
 C1290 C 0.30232 -0.08453 0.82186
 C1291 C 0.29449 -0.06669 0.79461
 C1292 C 0.27740 -0.06143 0.80003
 C1293 C 0.26849 -0.04750 0.79132
 C1294 C 0.27643 -0.03857 0.77694
 C1295 C 0.29358 -0.04368 0.77164
 C1296 C 0.30253 -0.05753 0.78041
 H1297 H 0.32916 -0.11803 0.79320
 H1298 H 0.30956 -0.10011 0.84437
 H1299 H 0.25525 -0.04393 0.79568
 H1300 H 0.30012 -0.03699 0.76069
 H1301 H 0.29498 -0.07513 0.82999
 H1302 H 0.27072 -0.06835 0.81075
 H1303 H 0.31485 -0.09276 0.77925
 H1304 H 0.31580 -0.06103 0.77610
 C1305 C 0.80277 0.41787 0.80194
 C1306 C 0.81241 0.40546 0.79177
 C1307 C 0.82074 0.39078 0.79978
 C1308 C 0.81961 0.38790 0.81828
 C1309 C 0.80986 0.40049 0.82840
 C1310 C 0.80165 0.41524 0.82035
 C1311 C 0.79372 0.43334 0.79329
 C1312 C 0.77686 0.43899 0.79902
 C1313 C 0.76812 0.45315 0.79050
 C1314 C 0.77600 0.46191 0.77599
 C1315 C 0.79295 0.45642 0.77039
 C1316 C 0.80173 0.44235 0.77897
 H1317 H 0.82731 0.38129 0.79113
 H1318 H 0.80907 0.39952 0.84270
 H1319 H 0.75504 0.45701 0.79508
 H1320 H 0.79944 0.46298 0.75933
 H1321 H 0.79464 0.42477 0.82864
 H1322 H 0.77021 0.43220 0.80984
 H1323 H 0.81317 0.40683 0.77749
 H1324 H 0.81483 0.43855 0.77442
 C1325 C 0.80199 -0.08104 0.30288
 C1326 C 0.82042 -0.08355 0.30155
 C1327 C 0.82868 -0.09818 0.30976
 C1328 C 0.81878 -0.11077 0.31972
 C1329 C 0.80027 -0.10797 0.32114
 C1330 C 0.79204 -0.09341 0.31281
 C1331 C 0.79311 -0.06577 0.29372
 C1332 C 0.77875 -0.05679 0.30170
 C1333 C 0.77001 -0.04286 0.29282
 C1334 C 0.77551 -0.03749 0.27582
 C1335 C 0.79003 -0.04625 0.26795
 C1336 C 0.79869 -0.06026 0.27677
 H1337 H 0.84298 -0.09907 0.30876
 H1338 H 0.79178 -0.11746 0.32792
 H1339 H 0.75894 -0.03630 0.29930
 H1340 H 0.79454 -0.04250 0.25482
 H1341 H 0.77775 -0.09214 0.31376
 H1342 H 0.77429 -0.06048 0.31486
 H1343 H 0.82855 -0.07403 0.29436
 H1344 H 0.80952 -0.06705 0.27012
 C1345 C 0.30126 0.58049 0.69761
 C1346 C 0.31986 0.58112 0.69613
 C1347 C 0.32817 0.59564 0.68780
 C1348 C 0.31807 0.60985 0.68079
 C1349 C 0.29948 0.60919 0.68224
 C1350 C 0.29117 0.59468 0.69054
 C1351 C 0.29236 0.56524 0.70667
 C1352 C 0.27654 0.55800 0.69981
 C1353 C 0.26782 0.54406 0.70863
 C1354 C 0.27470 0.53704 0.72454
 C1355 C 0.29065 0.54411 0.73128
 C1356 C 0.29939 0.55805 0.72243
 H1357 H 0.34251 0.59565 0.68668
 H1358 H 0.29135 0.62009 0.67726
 H1359 H 0.25560 0.53887 0.70304
 H1360 H 0.29629 0.53902 0.74351
 H1361 H 0.27685 0.59475 0.69175
 H1362 H 0.27093 0.56308 0.68755
 H1363 H 0.32797 0.57027 0.70124
 H1364 H 0.31145 0.56348 0.72815
 C1365 C 0.30250 1.08193 0.19649
 C1366 C 0.32094 1.08427 0.19789
 C1367 C 0.32934 1.09879 0.18967
 C1368 C 0.31957 1.11143 0.17963
 C1369 C 0.30104 1.10878 0.17811
 C1370 C 0.29268 1.09433 0.18646
 C1371 C 0.29348 1.06680 0.20571
 C1372 C 0.27910 1.05785 0.19772
 C1373 C 0.27030 1.04400 0.20662
 C1374 C 0.27574 1.03870 0.22368
 C1375 C 0.29026 1.04747 0.23159
 C1376 C 0.29899 1.06139 0.22273
 H1377 H 0.34365 1.09955 0.19073
 H1378 H 0.29265 1.11832 0.17125
 H1379 H 0.25922 1.03743 0.20012
 H1380 H 0.29472 1.04377 0.24476
 H1381 H 0.27838 1.09317 0.18545
 H1382 H 0.27470 1.06147 0.18451
 H1383 H 0.32898 1.07471 0.20516
 H1384 H 0.30983 1.06817 0.22939
 C1385 C 0.80275 0.58210 0.19702
 C1386 C 0.81264 0.59442 0.20707
 C1387 C 0.82101 0.60900 0.19896
 C1388 C 0.81968 0.61187 0.18046
 C1389 C 0.80969 0.59937 0.17046
 C1390 C 0.80143 0.58471 0.17862
 C1391 C 0.79367 0.56675 0.20580
 C1392 C 0.77667 0.56127 0.20027
 C1393 C 0.76791 0.54721 0.20890
 C1394 C 0.77591 0.53837 0.22332
 C1395 C 0.79299 0.54369 0.22872
 C1396 C 0.80178 0.55767 0.22003
 H1397 H 0.82776 0.61845 0.20754
 H1398 H 0.80873 0.60033 0.15617
 H1399 H 0.75473 0.54348 0.20446
 H1400 H 0.79957 0.53706 0.23971
 H1401 H 0.79422 0.57524 0.17042
 H1402 H 0.76994 0.56813 0.18952
 H1403 H 0.81356 0.59308 0.22135
 H1404 H 0.81499 0.56133 0.22442
 C1405 C 0.80222 1.08124 0.69758
 C1406 C 0.80947 1.09538 0.70759
 C1407 C 0.81771 1.10989 0.69921
 C1408 C 0.81891 1.11060 0.68061
 C1409 C 0.81172 1.09643 0.67058
 C1410 C 0.80346 1.08191 0.67897
 C1411 C 0.79321 1.06599 0.70654
 C1412 C 0.77738 1.05883 0.69961
 C1413 C 0.76861 1.04484 0.70835
 C1414 C 0.77549 1.03769 0.72420
 C1415 C 0.79144 1.04470 0.73100
 C1416 C 0.80019 1.05869 0.72227
 H1417 H 0.82284 1.12074 0.70730
 H1418 H 0.81265 1.09648 0.65624
 H1419 H 0.75634 1.03977 0.70277
 H1420 H 0.79714 1.03944 0.74314
 H1421 H 0.79823 1.07110 0.67090
 H1422 H 0.77156 1.06431 0.68763
 H1423 H 0.80845 1.09541 0.72193
 H1424 H 0.81250 1.06374 0.72780
 C1425 C 0.69838 0.58109 0.30368
 C1426 C 0.70842 0.59531 0.31074
 C1427 C 0.70007 0.60979 0.31906
 C1428 C 0.68147 0.61038 0.32052
 C1429 C 0.67143 0.59608 0.31361
 C1430 C 0.67979 0.58159 0.30528
 C1431 C 0.70726 0.56598 0.29437
 C1432 C 0.70003 0.55889 0.27866
 C1433 C 0.70868 0.54506 0.26958
 C1434 C 0.72475 0.53799 0.27603
 C1435 C 0.73187 0.54492 0.29186
 C1436 C 0.72323 0.55877 0.30092
 H1437 H 0.70815 0.62074 0.32399
 H1438 H 0.65709 0.59603 0.31477
 H1439 H 0.70286 0.54004 0.25740
 H1440 H 0.74420 0.53973 0.29722
 H1441 H 0.67170 0.57071 0.30021
 H1442 H 0.68787 0.56431 0.27315
 H1443 H 0.72274 0.59545 0.30946
 H1444 H 0.72901 0.56378 0.31313
 C1445 C 0.69748 1.08040 0.80406
 C1446 C 0.70744 1.09282 0.81393
 C1447 C 0.69920 1.10735 0.82228
 C1448 C 0.68067 1.11007 0.82091
 C1449 C 0.67076 1.09736 0.81110
 C1450 C 0.67903 1.08276 0.80288
 C1451 C 0.70637 1.06525 0.79474
 C1452 C 0.70065 1.05985 0.77779
 C1453 C 0.70930 1.04596 0.76880
 C1454 C 0.72394 1.03722 0.77650
 C1455 C 0.72958 1.04249 0.79351
 C1456 C 0.72086 1.05631 0.80254
 H1457 H 0.70769 1.11690 0.82899
 H1458 H 0.65644 1.09816 0.81019
 H1459 H 0.70468 1.04228 0.75568
 H1460 H 0.74075 1.03595 0.79985
 H1461 H 0.67089 1.07318 0.79575
 H1462 H 0.68972 1.06662 0.77127
 H1463 H 0.72175 1.09163 0.81480
 H1464 H 0.72543 1.05993 0.81570
 C1465 C 0.19690 0.58088 0.80378
 C1466 C 0.17849 0.58355 0.80252
 C1467 C 0.17041 0.59828 0.81071
 C1468 C 0.18049 0.61083 0.82056
 C1469 C 0.19898 0.60784 0.82195
 C1470 C 0.20702 0.59318 0.81364
 C1471 C 0.20559 0.56554 0.79460
 C1472 C 0.21989 0.55643 0.80256
 C1473 C 0.22850 0.54247 0.79365
 C1474 C 0.22295 0.53721 0.77661
 C1475 C 0.20846 0.54609 0.76876
 C1476 C 0.19992 0.56013 0.77763
 H1477 H 0.15612 0.59930 0.80976
 H1478 H 0.20761 0.61728 0.82865
 H1479 H 0.23954 0.53581 0.80011
 H1480 H 0.20391 0.54241 0.75562
 H1481 H 0.22130 0.59177 0.81454
 H1482 H 0.22441 0.56004 0.81573
 H1483 H 0.17023 0.57408 0.79538
 H1484 H 0.18912 0.56702 0.77101
 C1485 C 0.19738 1.08223 0.30259
 C1486 C 0.17896 1.08476 0.30127
 C1487 C 0.17074 1.09938 0.30951
 C1488 C 0.18069 1.11194 0.31948
 C1489 C 0.19921 1.10913 0.32086
 C1490 C 0.20739 1.09458 0.31249
 C1491 C 0.20622 1.06695 0.29345
 C1492 C 0.22054 1.05793 0.30148
 C1493 C 0.22926 1.04401 0.29263
 C1494 C 0.22381 1.03869 0.27558
 C1495 C 0.20931 1.04748 0.26765
 C1496 C 0.20065 1.06149 0.27646
 H1497 H 0.15644 1.10028 0.30854
 H1498 H 0.20774 1.11861 0.32762
 H1499 H 0.24031 1.03742 0.29915
 H1500 H 0.20483 1.04376 0.25449
 H1501 H 0.22168 1.09329 0.31342
 H1502 H 0.22497 1.06159 0.31467
 H1503 H 0.17080 1.07525 0.29407
 H1504 H 0.18984 1.06830 0.26979
 C1505 C 0.69753 0.41823 0.69766
 C1506 C 0.67892 0.41749 0.69634
 C1507 C 0.67058 0.40289 0.68816
 C1508 C 0.68068 0.38869 0.68112
 C1509 C 0.69928 0.38946 0.68241
 C1510 C 0.70761 0.40405 0.69057
 C1511 C 0.70645 0.43357 0.70659
 C1512 C 0.72220 0.44083 0.69964
 C1513 C 0.73092 0.45487 0.70835
 C1514 C 0.72409 0.46197 0.72422
 C1515 C 0.70820 0.45488 0.73104
 C1516 C 0.69947 0.44084 0.72232
 H1517 H 0.65624 0.40279 0.68716
 H1518 H 0.70741 0.37859 0.67740
 H1519 H 0.74310 0.46007 0.70269
 H1520 H 0.70260 0.46002 0.74326
 H1521 H 0.72195 0.40406 0.69165
 H1522 H 0.72777 0.43569 0.68740
 H1523 H 0.67081 0.42832 0.70145
 H1524 H 0.68747 0.43540 0.72812
 C1525 C 0.69775 -0.08119 0.19658
 C1526 C 0.67916 -0.08193 0.19497
 C1527 C 0.67096 -0.09658 0.18673
 C1528 C 0.68117 -0.11081 0.17993
 C1529 C 0.69975 -0.11002 0.18149
 C1530 C 0.70794 -0.09538 0.18970
 C1531 C 0.70652 -0.06583 0.20563
 C1532 C 0.72235 -0.05855 0.19889
 C1533 C 0.73095 -0.04452 0.20773
 C1534 C 0.72392 -0.03746 0.22354
 C1535 C 0.70795 -0.04457 0.23015
 C1536 C 0.69934 -0.05859 0.22128
 H1537 H 0.65663 -0.09669 0.18551
 H1538 H 0.70796 -0.12092 0.17668
 H1539 H 0.74320 -0.03931 0.20224
 H1540 H 0.70219 -0.03945 0.24230
 H1541 H 0.72227 -0.09536 0.19101
 H1542 H 0.72808 -0.06367 0.18673
 H1543 H 0.67097 -0.07108 0.19993
 H1544 H 0.68726 -0.06404 0.22691
 C1545 C 0.19685 0.41870 0.19733
 C1546 C 0.17826 0.41800 0.19576
 C1547 C 0.17001 0.40336 0.18754
 C1548 C 0.18017 0.38911 0.18072
 C1549 C 0.19876 0.38985 0.18226
 C1550 C 0.20700 0.40447 0.19046
 C1551 C 0.20568 0.43407 0.20629
 C1552 C 0.22151 0.44128 0.19947
 C1553 C 0.23020 0.45529 0.20824
 C1554 C 0.22325 0.46242 0.22406
 C1555 C 0.20728 0.45539 0.23075
 C1556 C 0.19858 0.44138 0.22195
 H1557 H 0.15568 0.40329 0.18634
 H1558 H 0.20694 0.37893 0.17744
 H1559 H 0.24244 0.46044 0.20269
 H1560 H 0.20159 0.46056 0.24291
 H1561 H 0.22132 0.40446 0.19174
 H1562 H 0.22717 0.43610 0.18730
 H1563 H 0.17010 0.42887 0.20072
 H1564 H 0.18651 0.43598 0.22764
 C1565 C 0.19901 -0.08230 0.69679
 C1566 C 0.18041 -0.08293 0.69524
 C1567 C 0.17210 -0.09748 0.68694
 C1568 C 0.18220 -0.11172 0.68002
 C1569 C 0.20080 -0.11101 0.68143
 C1570 C 0.20911 -0.09647 0.68972
 C1571 C 0.20784 -0.06710 0.70604
 C1572 C 0.22373 -0.05979 0.69945
 C1573 C 0.23228 -0.04582 0.70843
 C1574 C 0.22514 -0.03885 0.72423
 C1575 C 0.20915 -0.04604 0.73072
 C1576 C 0.20060 -0.05999 0.72173
 H1577 H 0.15777 -0.09751 0.68581
 H1578 H 0.20893 -0.12191 0.67648
 H1579 H 0.24455 -0.04056 0.70304
 H1580 H 0.20332 -0.04101 0.74288
 H1581 H 0.22344 -0.09652 0.69096
 H1582 H 0.22951 -0.06482 0.68727
 H1583 H 0.17228 -0.07209 0.70030
 H1584 H 0.18850 -0.06548 0.72727
 C1585 C 0.30329 0.30196 0.41907
 C1586 C 0.31014 0.29147 0.40516
 C1587 C 0.31826 0.29957 0.39055
 C1588 C 0.31973 0.31836 0.38949
 C1589 C 0.31298 0.32886 0.40345
 C1590 C 0.30485 0.32075 0.41807
 C1591 C 0.29433 0.29329 0.43439
 C1592 C 0.27870 0.30065 0.44153
 C1593 C 0.26989 0.29208 0.45549
 C1594 C 0.27653 0.27598 0.46263
 C1595 C 0.29232 0.26879 0.45569
 C1596 C 0.30111 0.27735 0.44173
 H1597 H 0.32304 0.29112 0.37987
 H1598 H 0.31414 0.34336 0.40313
 H1599 H 0.25773 0.29795 0.46051
 H1600 H 0.29784 0.25645 0.46093
 H1601 H 0.29992 0.32918 0.42869
 H1602 H 0.27303 0.31281 0.43603
 H1603 H 0.30887 0.27698 0.40538
 H1604 H 0.31327 0.27149 0.43669
 C1605 C 0.30398 0.80202 -0.08038
 C1606 C 0.31064 0.79152 -0.09438
 C1607 C 0.31885 0.79961 -0.10894
 C1608 C 0.32061 0.81838 -0.10986
 C1609 C 0.31403 0.82888 -0.09583
 C1610 C 0.30580 0.82079 -0.08125
 C1611 C 0.29491 0.79338 -0.06511
 C1612 C 0.27938 0.80090 -0.05795
 C1613 C 0.27045 0.79238 -0.04404
 C1614 C 0.27688 0.77615 -0.03697
 C1615 C 0.29259 0.76879 -0.04394
 C1616 C 0.30149 0.77730 -0.05786
 H1617 H 0.32350 0.79117 -0.11968
 H1618 H 0.31541 0.84336 -0.09605
 H1619 H 0.25838 0.79839 -0.03899
 H1620 H 0.29794 0.75635 -0.03875
 H1621 H 0.30101 0.82922 -0.07057
 H1622 H 0.27387 0.81317 -0.06338
 H1623 H 0.30916 0.77706 -0.09425
 H1624 H 0.31357 0.77132 -0.06293
 C1625 C 0.80444 0.30194 -0.08175
 C1626 C 0.81123 0.29147 -0.09570
 C1627 C 0.81938 0.29958 -0.11028
 C1628 C 0.82096 0.31837 -0.11125
 C1629 C 0.81429 0.32885 -0.09725
 C1630 C 0.80611 0.32072 -0.08266
 C1631 C 0.79539 0.29325 -0.06649
 C1632 C 0.77979 0.30070 -0.05935
 C1633 C 0.77089 0.29214 -0.04545
 C1634 C 0.77738 0.27594 -0.03837
 C1635 C 0.79313 0.26865 -0.04532
 C1636 C 0.80202 0.27721 -0.05922
 H1637 H 0.82411 0.29116 -0.12099
 H1638 H 0.81553 0.34334 -0.09751
 H1639 H 0.75878 0.29809 -0.04042
 H1640 H 0.79853 0.25624 -0.04011
 H1641 H 0.80124 0.32913 -0.07200
 H1642 H 0.77424 0.31293 -0.06480
 H1643 H 0.80987 0.27699 -0.09554
 H1644 H 0.81414 0.27128 -0.06426
 C1645 C 0.80291 0.80210 0.41873
 C1646 C 0.80985 0.79173 0.40477
 C1647 C 0.81795 0.79997 0.39023
 C1648 C 0.81932 0.81877 0.38930
 C1649 C 0.81246 0.82915 0.40328
 C1650 C 0.80435 0.82091 0.41784
 C1651 C 0.79397 0.79329 0.43399
 C1652 C 0.77834 0.80059 0.44118
 C1653 C 0.76958 0.79197 0.45513
 C1654 C 0.77627 0.77586 0.46222
 C1655 C 0.79203 0.76870 0.45520
 C1656 C 0.80078 0.77731 0.44124
 H1657 H 0.82284 0.79163 0.37953
 H1658 H 0.81354 0.84366 0.40305
 H1659 H 0.75745 0.79783 0.46021
 H1660 H 0.79757 0.75634 0.46040
 H1661 H 0.79936 0.82924 0.42850
 H1662 H 0.77264 0.81276 0.43574
 H1663 H 0.80867 0.77723 0.40491
 H1664 H 0.81294 0.77150 0.43616
 C1665 C 0.69528 0.30189 0.58117
 C1666 C 0.69371 0.32068 0.58209
 C1667 C 0.68563 0.32885 0.59671
 C1668 C 0.67895 0.31839 0.61073
 C1669 C 0.68043 0.29960 0.60975
 C1670 C 0.68849 0.29145 0.59514
 C1671 C 0.70427 0.29318 0.56589
 C1672 C 0.69754 0.27718 0.55860
 C1673 C 0.70637 0.26862 0.54466
 C1674 C 0.72214 0.27585 0.53770
 C1675 C 0.72872 0.29198 0.54482
 C1676 C 0.71988 0.30056 0.55875
 H1677 H 0.68446 0.34334 0.59697
 H1678 H 0.67569 0.29120 0.62047
 H1679 H 0.70090 0.25624 0.53944
 H1680 H 0.74085 0.29789 0.53978
 H1681 H 0.68978 0.27696 0.59497
 H1682 H 0.68540 0.27130 0.56365
 H1683 H 0.69859 0.32908 0.57142
 H1684 H 0.72551 0.31275 0.56421
 C1685 C 0.69708 0.80129 1.08104
 C1686 C 0.69539 0.82008 1.08181
 C1687 C 0.68725 0.82830 1.09637
 C1688 C 0.68064 0.81793 1.11047
 C1689 C 0.68226 0.79914 1.10965
 C1690 C 0.69038 0.79091 1.09511
 C1691 C 0.70606 0.79251 1.06578
 C1692 C 0.69939 0.77642 1.05863
 C1693 C 0.70816 0.76785 1.04467
 C1694 C 0.72382 0.77515 1.03754
 C1695 C 0.73036 0.79137 1.04453
 C1696 C 0.72157 0.79995 1.05849
 H1697 H 0.68597 0.84279 1.09650
 H1698 H 0.67757 0.79079 1.12045
 H1699 H 0.70274 0.75541 1.03955
 H1700 H 0.74241 0.79734 1.03937
 H1701 H 0.69176 0.77644 1.09505
 H1702 H 0.68733 0.77049 1.06380
 H1703 H 0.70020 0.82841 1.07106
 H1704 H 0.72716 0.81221 1.06384
 C1705 C 0.19634 0.30166 1.08165
 C1706 C 0.19456 0.32044 1.08247
 C1707 C 0.18630 0.32858 1.09700
 C1708 C 0.17966 0.31813 1.11104
 C1709 C 0.18135 0.29935 1.11016
 C1710 C 0.18959 0.29121 1.09564
 C1711 C 0.20547 0.29299 1.06643
 C1712 C 0.19892 0.27691 1.05917
 C1713 C 0.20782 0.26843 1.04523
 C1714 C 0.22350 0.27584 1.03824
 C1715 C 0.22992 0.29205 1.04534
 C1716 C 0.22100 0.30053 1.05927
 H1717 H 0.18497 0.34307 1.09718
 H1718 H 0.17663 0.29095 1.12090
 H1719 H 0.20248 0.25599 1.04002
 H1720 H 0.24198 0.29809 1.04028
 H1721 H 0.19103 0.27674 1.09554
 H1722 H 0.18685 0.27090 1.06423
 H1723 H 0.19940 0.32884 1.07178
 H1724 H 0.22650 0.31279 1.06472
 C1725 C 0.19634 0.80124 0.58038
 C1726 C 0.18926 0.79084 0.59425
 C1727 C 0.18108 0.79906 0.60877
 C1728 C 0.17978 0.81787 0.60976
 C1729 C 0.18669 0.82826 0.59581
 C1730 C 0.19488 0.82004 0.58128
 C1731 C 0.20554 0.79248 0.56525
 C1732 C 0.22128 0.79982 0.55833
 C1733 C 0.23029 0.79125 0.54451
 C1734 C 0.22376 0.77514 0.53728
 C1735 C 0.20789 0.76793 0.54403
 C1736 C 0.19889 0.77650 0.55786
 H1737 H 0.17615 0.79070 0.61944
 H1738 H 0.18565 0.84277 0.59607
 H1739 H 0.24249 0.79715 0.53964
 H1740 H 0.20247 0.75558 0.53871
 H1741 H 0.19996 0.82840 0.57068
 H1742 H 0.22686 0.81199 0.56388
 H1743 H 0.19043 0.77635 0.59410
 H1744 H 0.18667 0.77064 0.56274
 C1745 C 0.30249 0.69708 0.58120
 C1746 C 0.29219 0.69016 0.59515
 C1747 C 0.30026 0.68196 0.60975
 C1748 C 0.31884 0.68044 0.61073
 C1749 C 0.32917 0.68736 0.59678
 C1750 C 0.32108 0.69560 0.58218
 C1751 C 0.29382 0.70597 0.56582
 C1752 C 0.30087 0.72185 0.55862
 C1753 C 0.29228 0.73059 0.54461
 C1754 C 0.27646 0.72361 0.53746
 C1755 C 0.26959 0.70755 0.54447
 C1756 C 0.27816 0.69884 0.55849
 H1757 H 0.29195 0.67708 0.62043
 H1758 H 0.34350 0.68618 0.59706
 H1759 H 0.29791 0.74295 0.53953
 H1760 H 0.25747 0.70178 0.53923
 H1761 H 0.32936 0.70062 0.57153
 H1762 H 0.31282 0.72776 0.56411
 H1763 H 0.27786 0.69139 0.59495
 H1764 H 0.27255 0.68649 0.56358
 C1765 C 0.30437 0.19845 1.08067
 C1766 C 0.31161 0.20875 1.09454
 C1767 C 0.31988 0.20043 1.10897
 C1768 C 0.32109 0.18162 1.10988
 C1769 C 0.31400 0.17131 1.09594
 C1770 C 0.30574 0.17963 1.08150
 C1771 C 0.29512 0.20731 1.06562
 C1772 C 0.27932 0.20006 1.05872
 C1773 C 0.27027 0.20872 1.04497
 C1774 C 0.27681 0.22484 1.03779
 C1775 C 0.29273 0.23197 1.04453
 C1776 C 0.30178 0.22331 1.05828
 H1777 H 0.32496 0.20872 1.11964
 H1778 H 0.31497 0.15679 1.09616
 H1779 H 0.25802 0.20289 1.04011
 H1780 H 0.29817 0.24433 1.03925
 H1781 H 0.30053 0.17134 1.07089
 H1782 H 0.27372 0.18788 1.06424
 H1783 H 0.31051 0.22325 1.09445
 H1784 H 0.31405 0.22909 1.06314
 C1785 C 0.80398 0.69800 1.08062
 C1786 C 0.81073 0.70849 1.09459
 C1787 C 0.81891 0.70038 1.10919
 C1788 C 0.82056 0.68160 1.11015
 C1789 C 0.81391 0.67111 1.09612
 C1790 C 0.80571 0.67922 1.08152
 C1791 C 0.79488 0.70667 1.06535
 C1792 C 0.77930 0.69918 1.05820
 C1793 C 0.77034 0.70772 1.04430
 C1794 C 0.77678 0.72393 1.03722
 C1795 C 0.79252 0.73126 1.04418
 C1796 C 0.80146 0.72273 1.05808
 H1797 H 0.82361 0.70881 1.11992
 H1798 H 0.81520 0.65662 1.09637
 H1799 H 0.75824 0.70173 1.03927
 H1800 H 0.79788 0.74369 1.03898
 H1801 H 0.80086 0.67081 1.07084
 H1802 H 0.77379 0.68693 1.06365
 H1803 H 0.80933 0.72296 1.09445
 H1804 H 0.81357 0.72869 1.06314
 C1805 C 0.80155 0.19764 0.58090
 C1806 C 0.80869 0.20798 0.59479
 C1807 C 0.81700 0.19971 0.60922
 C1808 C 0.81836 0.18091 0.61011
 C1809 C 0.81122 0.17055 0.59624
 C1810 C 0.80290 0.17883 0.58178
 C1811 C 0.79253 0.20651 0.56571
 C1812 C 0.77677 0.19935 0.55862
 C1813 C 0.76795 0.20807 0.54474
 C1814 C 0.77470 0.22414 0.53763
 C1815 C 0.79060 0.23115 0.54454
 C1816 C 0.79941 0.22243 0.55841
 H1817 H 0.82208 0.20804 0.61985
 H1818 H 0.81227 0.15604 0.59645
 H1819 H 0.75571 0.20234 0.53974
 H1820 H 0.79620 0.24345 0.53931
 H1821 H 0.79773 0.17051 0.57118
 H1822 H 0.77103 0.18722 0.56409
 H1823 H 0.80757 0.22248 0.59467
 H1824 H 0.81166 0.22813 0.56341
 C1825 C 0.69598 0.69824 0.41947
 C1826 C 0.69436 0.67944 0.41875
 C1827 C 0.68619 0.67114 0.40424
 C1828 C 0.67945 0.68146 0.39013
 C1829 C 0.68090 0.70026 0.39094
 C1830 C 0.68907 0.70856 0.40544
 C1831 C 0.70516 0.70707 0.43459
 C1832 C 0.69859 0.72317 0.44179
 C1833 C 0.70759 0.73179 0.45561
 C1834 C 0.72337 0.72452 0.46253
 C1835 C 0.72981 0.70829 0.45549
 C1836 C 0.72081 0.69967 0.44168
 H1837 H 0.68503 0.65664 0.40412
 H1838 H 0.67610 0.70855 0.38015
 H1839 H 0.70223 0.74423 0.46078
 H1840 H 0.74195 0.70235 0.46050
 H1841 H 0.69036 0.72304 0.40546
 H1842 H 0.68644 0.72907 0.43677
 H1843 H 0.69931 0.67115 0.42948
 H1844 H 0.72633 0.68741 0.43628
 C1845 C 0.69690 0.19833 -0.08127
 C1846 C 0.69536 0.17953 -0.08195
 C1847 C 0.68709 0.17117 -0.09637
 C1848 C 0.68017 0.18143 -0.11043
 C1849 C 0.68158 0.20024 -0.10968
 C1850 C 0.68985 0.20859 -0.09526
 C1851 C 0.70611 0.20722 -0.06619
 C1852 C 0.69951 0.22330 -0.05899
 C1853 C 0.70849 0.23195 -0.04517
 C1854 C 0.72428 0.22471 -0.03824
 C1855 C 0.73078 0.20851 -0.04531
 C1856 C 0.72179 0.19987 -0.05912
 H1857 H 0.68597 0.15667 -0.09645
 H1858 H 0.67664 0.20849 -0.12044
 H1859 H 0.70309 0.24437 -0.03998
 H1860 H 0.74293 0.20260 -0.04031
 H1861 H 0.69108 0.22308 -0.09528
 H1862 H 0.68733 0.22917 -0.06399
 H1863 H 0.70041 0.17127 -0.07124
 H1864 H 0.72734 0.18763 -0.06453
 C1865 C 0.19789 0.69877 -0.08138
 C1866 C 0.17929 0.69741 -0.08229
 C1867 C 0.17110 0.68919 -0.09685
 C1868 C 0.18134 0.68217 -0.11082
 C1869 C 0.19993 0.68360 -0.10992
 C1870 C 0.20810 0.69179 -0.09537
 C1871 C 0.20666 0.70756 -0.06600
 C1872 C 0.22229 0.70031 -0.05872
 C1873 C 0.23091 0.70887 -0.04464
 C1874 C 0.22412 0.72491 -0.03752
 C1875 C 0.20834 0.73204 -0.04463
 C1876 C 0.19970 0.72344 -0.05870
 H1877 H 0.15676 0.68808 -0.09706
 H1878 H 0.20817 0.67864 -0.12062
 H1879 H 0.24300 0.70299 -0.03944
 H1880 H 0.20277 0.74438 -0.03946
 H1881 H 0.22244 0.69293 -0.09521
 H1882 H 0.22783 0.68795 -0.06389
 H1883 H 0.17108 0.70247 -0.07162
 H1884 H 0.18778 0.72945 -0.06414
 C1885 C 0.19738 0.19864 0.41856
 C1886 C 0.17879 0.19700 0.41786
 C1887 C 0.17055 0.18885 0.40328
 C1888 C 0.18072 0.18220 0.38909
 C1889 C 0.19930 0.18394 0.38978
 C1890 C 0.20752 0.19204 0.40434
 C1891 C 0.20623 0.20733 0.43395
 C1892 C 0.22203 0.20018 0.44094
 C1893 C 0.23075 0.20869 0.45499
 C1894 C 0.22388 0.22457 0.46237
 C1895 C 0.20792 0.23157 0.45557
 C1896 C 0.19917 0.22303 0.44153
 H1897 H 0.15623 0.18751 0.40323
 H1898 H 0.20749 0.17928 0.37891
 H1899 H 0.24298 0.20290 0.45995
 H1900 H 0.20228 0.24380 0.46095
 H1901 H 0.22184 0.19342 0.40434
 H1902 H 0.22765 0.18796 0.43555
 H1903 H 0.17064 0.20178 0.42870
 H1904 H 0.18711 0.22895 0.43632
 C1905 C 0.30125 0.41748 0.69830
 C1906 C 0.30281 0.41680 0.67972
 C1907 C 0.31121 0.40227 0.67149
 C1908 C 0.31822 0.38811 0.68166
 C1909 C 0.31661 0.38878 0.70023
 C1910 C 0.30823 0.40329 0.70845
 C1911 C 0.29225 0.43280 0.70713
 C1912 C 0.29913 0.44006 0.72292
 C1913 C 0.29038 0.45408 0.73158
 C1914 C 0.27452 0.46118 0.72465
 C1915 C 0.26775 0.45409 0.70872
 C1916 C 0.27653 0.44007 0.70005
 H1917 H 0.31245 0.40224 0.65717
 H1918 H 0.32156 0.37792 0.70841
 H1919 H 0.29599 0.45928 0.74378
 H1920 H 0.25555 0.45924 0.70305
 H1921 H 0.30695 0.40326 0.72276
 H1922 H 0.31135 0.43493 0.72856
 H1923 H 0.29775 0.42763 0.67157
 H1924 H 0.27080 0.43464 0.68800
 C1925 C 0.30257 0.91908 0.19762
 C1926 C 0.30401 0.91828 0.17903
 C1927 C 0.31230 0.90367 0.17083
 C1928 C 0.31933 0.88955 0.18104
 C1929 C 0.31787 0.89036 0.19961
 C1930 C 0.30961 0.90495 0.20780
 C1931 C 0.29360 0.93445 0.20640
 C1932 C 0.30053 0.94180 0.22213
 C1933 C 0.29177 0.95584 0.23076
 C1934 C 0.27585 0.96283 0.22387
 C1935 C 0.26905 0.95565 0.20800
 C1936 C 0.27783 0.94162 0.19935
 H1937 H 0.31342 0.90353 0.15650
 H1938 H 0.32285 0.87953 0.20783
 H1939 H 0.29741 0.96111 0.24292
 H1940 H 0.25680 0.96072 0.20235
 H1941 H 0.30842 0.90501 0.22213
 H1942 H 0.31279 0.93673 0.22774
 H1943 H 0.29891 0.92907 0.17084
 H1944 H 0.27206 0.93611 0.18736
 C1945 C 0.80225 0.41937 0.19524
 C1946 C 0.82085 0.41881 0.19379
 C1947 C 0.82924 0.40426 0.18559
 C1948 C 0.81921 0.38996 0.17866
 C1949 C 0.80060 0.39061 0.17996
 C1950 C 0.79222 0.40515 0.18815
 C1951 C 0.79333 0.43452 0.20445
 C1952 C 0.77741 0.44175 0.19780
 C1953 C 0.76874 0.45562 0.20680
 C1954 C 0.77578 0.46256 0.22267
 C1955 C 0.79180 0.45546 0.22922
 C1956 C 0.80047 0.44161 0.22021
 H1957 H 0.84358 0.40426 0.18455
 H1958 H 0.79253 0.37966 0.17501
 H1959 H 0.75645 0.46083 0.20136
 H1960 H 0.79756 0.46047 0.24143
 H1961 H 0.77789 0.40505 0.18931
 H1962 H 0.77170 0.43673 0.18557
 H1963 H 0.82892 0.42969 0.19888
 H1964 H 0.81259 0.43616 0.22580
 C1965 C 0.80210 0.91866 0.69627
 C1966 C 0.82070 0.91814 0.69477
 C1967 C 0.82910 0.90364 0.68649
 C1968 C 0.81909 0.88934 0.67955
 C1969 C 0.80049 0.88992 0.68095
 C1970 C 0.79209 0.90441 0.68920
 C1971 C 0.79316 0.93381 0.70545
 C1972 C 0.77724 0.94099 0.69876
 C1973 C 0.76852 0.95486 0.70771
 C1974 C 0.77552 0.96186 0.72357
 C1975 C 0.79156 0.95483 0.73015
 C1976 C 0.80028 0.94097 0.72118
 H1977 H 0.84344 0.90369 0.68539
 H1978 H 0.79242 0.87896 0.67600
 H1979 H 0.75622 0.96002 0.70225
 H1980 H 0.79729 0.95990 0.74235
 H1981 H 0.77777 0.90427 0.69042
 H1982 H 0.77155 0.93592 0.68654
 H1983 H 0.82876 0.92904 0.69985
 H1984 H 0.81241 0.93558 0.72679
 C1985 C 0.69788 0.58154 0.69707
 C1986 C 0.67929 0.58220 0.69552
 C1987 C 0.67100 0.59675 0.68720
 C1988 C 0.68112 0.61098 0.68027
 C1989 C 0.69971 0.61028 0.68178
 C1990 C 0.70799 0.59574 0.69007
 C1991 C 0.70674 0.56625 0.70613
 C1992 C 0.72255 0.55898 0.69932
 C1993 C 0.73121 0.54498 0.70814
 C1994 C 0.72427 0.53793 0.72399
 C1995 C 0.70833 0.54503 0.73068
 C1996 C 0.69965 0.55903 0.72184
 H1997 H 0.65666 0.59679 0.68602
 H1998 H 0.70786 0.62118 0.67687
 H1999 H 0.74343 0.53976 0.70259
 H2000 H 0.70264 0.53993 0.74287
 H2001 H 0.72232 0.59578 0.69133
 H2002 H 0.72820 0.56408 0.68711
 H2003 H 0.67116 0.57134 0.70056
 H2004 H 0.68760 0.56448 0.72751
 C2005 C 0.69771 0.08264 0.19733
 C2006 C 0.70796 0.09679 0.19046
 C2007 C 0.69983 0.11147 0.18224
 C2008 C 0.68125 0.11234 0.18068
 C2009 C 0.67098 0.09820 0.18755
 C2010 C 0.67912 0.08351 0.19579
 C2011 C 0.70644 0.06717 0.20623
 C2012 C 0.69929 0.05982 0.22185
 C2013 C 0.70788 0.04569 0.23057
 C2014 C 0.72381 0.03858 0.22384
 C2015 C 0.73080 0.04574 0.20807
 C2016 C 0.72222 0.05987 0.19937
 H2017 H 0.70809 0.12230 0.17738
 H2018 H 0.65665 0.09838 0.18635
 H2019 H 0.70216 0.04051 0.24271
 H2020 H 0.74300 0.04053 0.20249
 H2021 H 0.67088 0.07270 0.20076
 H2022 H 0.68726 0.06528 0.22757
 H2023 H 0.72229 0.09669 0.19173
 H2024 H 0.72791 0.06506 0.18721
 C2025 C 0.19739 0.58227 0.19740
 C2026 C 0.20756 0.59640 0.19037
 C2027 C 0.19933 0.61102 0.18215
 C2028 C 0.18073 0.61185 0.18074
 C2029 C 0.17055 0.59769 0.18772
 C2030 C 0.17879 0.58306 0.19597
 C2031 C 0.20619 0.56689 0.20640
 C2032 C 0.19911 0.55966 0.22210
 C2033 C 0.20772 0.54559 0.23088
 C2034 C 0.22361 0.53841 0.22413
 C2035 C 0.23056 0.54547 0.20829
 C2036 C 0.22195 0.55955 0.19953
 H2037 H 0.20752 0.62187 0.17719
 H2038 H 0.15621 0.59783 0.18662
 H2039 H 0.20204 0.54047 0.24307
 H2040 H 0.24273 0.54021 0.20270
 H2041 H 0.17061 0.57226 0.20104
 H2042 H 0.18710 0.56516 0.22783
 H2043 H 0.22189 0.59634 0.19155
 H2044 H 0.22760 0.56466 0.18732
 C2045 C 0.19823 0.08081 0.69775
 C2046 C 0.20841 0.09499 0.69083
 C2047 C 0.20021 0.10956 0.68251
 C2048 C 0.18162 0.11031 0.68090
 C2049 C 0.17142 0.09613 0.68781
 C2050 C 0.17964 0.08154 0.69615
 C2051 C 0.20702 0.06546 0.70679
 C2052 C 0.19986 0.05817 0.72243
 C2053 C 0.20850 0.04415 0.73127
 C2054 C 0.22449 0.03709 0.72464
 C2055 C 0.23150 0.04420 0.70885
 C2056 C 0.22287 0.05822 0.70003
 H2057 H 0.20841 0.12043 0.67762
 H2058 H 0.15710 0.09622 0.68657
 H2059 H 0.20276 0.03900 0.74342
 H2060 H 0.24375 0.03902 0.70334
 H2061 H 0.17145 0.07071 0.70115
 H2062 H 0.18777 0.06359 0.72807
 H2063 H 0.22273 0.09499 0.69214
 H2064 H 0.22858 0.06337 0.68787
 C2065 C 0.30220 0.58189 0.30233
 C2066 C 0.30377 0.58266 0.32091
 C2067 C 0.31213 0.59726 0.32910
 C2068 C 0.31909 0.61139 0.31888
 C2069 C 0.31749 0.61061 0.30031
 C2070 C 0.30916 0.59604 0.29213
 C2071 C 0.29320 0.56652 0.29356
 C2072 C 0.30005 0.55920 0.27779
 C2073 C 0.29127 0.54517 0.26916
 C2074 C 0.27540 0.53812 0.27609
 C2075 C 0.26868 0.54525 0.29200
 C2076 C 0.27749 0.55928 0.30065
 H2077 H 0.31336 0.59737 0.34342
 H2078 H 0.32241 0.62145 0.29209
 H2079 H 0.29684 0.53994 0.25697
 H2080 H 0.25648 0.54014 0.29767
 H2081 H 0.30787 0.59600 0.27782
 H2082 H 0.31226 0.56431 0.27214
 H2083 H 0.29873 0.57186 0.32911
 H2084 H 0.27178 0.56475 0.31267
 C2085 C 0.30171 0.08065 0.80484
 C2086 C 0.32030 0.08127 0.80648
 C2087 C 0.32858 0.09587 0.81470
 C2088 C 0.31846 0.11018 0.82146
 C2089 C 0.29987 0.10947 0.81998
 C2090 C 0.29159 0.09487 0.81176
 C2091 C 0.29291 0.06542 0.79561
 C2092 C 0.27700 0.05815 0.80218
 C2093 C 0.26844 0.04418 0.79319
 C2094 C 0.27559 0.03720 0.77741
 C2095 C 0.29161 0.04434 0.77095
 C2096 C 0.30018 0.05828 0.77995
 H2097 H 0.34291 0.09591 0.81589
 H2098 H 0.29172 0.12042 0.82479
 H2099 H 0.25615 0.03894 0.79855
 H2100 H 0.29746 0.03929 0.75881
 H2101 H 0.27727 0.09492 0.81045
 H2102 H 0.27119 0.06320 0.81434
 H2103 H 0.32844 0.07039 0.80151
 H2104 H 0.31230 0.06375 0.77444
 C2105 C 0.80312 0.58175 0.80201
 C2106 C 0.80464 0.58251 0.82059
 C2107 C 0.81293 0.59713 0.82881
 C2108 C 0.81986 0.61131 0.81862
 C2109 C 0.81838 0.61051 0.80004
 C2110 C 0.81011 0.59590 0.79184
 C2111 C 0.79407 0.56640 0.79323
 C2112 C 0.80088 0.55908 0.77745
 C2113 C 0.79208 0.54503 0.76885
 C2114 C 0.77624 0.53797 0.77583
 C2115 C 0.76955 0.54513 0.79175
 C2116 C 0.77838 0.55917 0.80035
 H2117 H 0.81408 0.59724 0.84313
 H2118 H 0.82330 0.62136 0.79185
 H2119 H 0.79763 0.53978 0.75666
 H2120 H 0.75736 0.54002 0.79746
 H2121 H 0.80888 0.59586 0.77752
 H2122 H 0.81308 0.56418 0.77177
 H2123 H 0.79960 0.57170 0.82877
 H2124 H 0.77269 0.56466 0.81238
 C2125 C 0.80156 0.08225 0.30282
 C2126 C 0.82016 0.08299 0.30437
 C2127 C 0.82838 0.09761 0.31264
 C2128 C 0.81819 0.11181 0.31954
 C2129 C 0.79961 0.11103 0.31801
 C2130 C 0.79139 0.09643 0.30976
 C2131 C 0.79277 0.06689 0.29379
 C2132 C 0.77694 0.05961 0.30057
 C2133 C 0.76834 0.04556 0.29177
 C2134 C 0.77535 0.03847 0.27597
 C2135 C 0.79131 0.04558 0.26932
 C2136 C 0.79993 0.05962 0.27814
 H2137 H 0.84271 0.09771 0.31383
 H2138 H 0.79141 0.12190 0.32291
 H2139 H 0.75611 0.04035 0.29729
 H2140 H 0.79705 0.04044 0.25717
 H2141 H 0.77706 0.09641 0.30849
 H2142 H 0.77124 0.06475 0.31274
 H2143 H 0.82834 0.07216 0.29936
 H2144 H 0.81199 0.06507 0.27248
 C2145 C 0.69798 0.41885 0.30240
 C2146 C 0.67938 0.41833 0.30391
 C2147 C 0.67099 0.40386 0.31225
 C2148 C 0.68102 0.38959 0.31925
 C2149 C 0.69962 0.39015 0.31781
 C2150 C 0.70800 0.40461 0.30948
 C2151 C 0.70693 0.43403 0.29328
 C2152 C 0.72283 0.44119 0.30002
 C2153 C 0.73154 0.45513 0.29116
 C2154 C 0.72454 0.46223 0.27534
 C2155 C 0.70852 0.45520 0.26870
 C2156 C 0.69981 0.44127 0.27757
 H2157 H 0.65666 0.40392 0.31338
 H2158 H 0.70769 0.37922 0.32280
 H2159 H 0.74381 0.46028 0.29667
 H2160 H 0.70279 0.46034 0.25652
 H2161 H 0.72232 0.40446 0.30826
 H2162 H 0.72852 0.43608 0.31222
 H2163 H 0.67132 0.42922 0.29881
 H2164 H 0.68770 0.43590 0.27193
 C2165 C 0.69766 0.91759 0.80254
 C2166 C 0.67907 0.91689 0.80398
 C2167 C 0.67078 0.90230 0.81222
 C2168 C 0.68091 0.88809 0.81920
 C2169 C 0.69951 0.88883 0.81780
 C2170 C 0.70778 0.90340 0.80957
 C2171 C 0.70652 0.93292 0.79355
 C2172 C 0.72234 0.94016 0.80041
 C2173 C 0.73098 0.95421 0.79167
 C2174 C 0.72400 0.96134 0.77585
 C2175 C 0.70806 0.95426 0.76910
 C2176 C 0.69941 0.94021 0.77786
 H2177 H 0.65644 0.90223 0.81331
 H2178 H 0.70766 0.87794 0.82276
 H2179 H 0.74320 0.95941 0.79726
 H2180 H 0.70235 0.95942 0.75693
 H2181 H 0.72211 0.90339 0.80840
 H2182 H 0.72801 0.93501 0.81260
 H2183 H 0.67092 0.92773 0.79891
 H2184 H 0.68736 0.93478 0.77214
 C2185 C 0.19556 0.41786 0.80285
 C2186 C 0.19405 0.41725 0.82143
 C2187 C 0.18576 0.40270 0.82975
 C2188 C 0.17882 0.38845 0.81966
 C2189 C 0.18028 0.38911 0.80108
 C2190 C 0.18855 0.40364 0.79277
 C2191 C 0.20463 0.43312 0.79397
 C2192 C 0.19780 0.44036 0.77814
 C2193 C 0.20664 0.45432 0.76946
 C2194 C 0.22252 0.46135 0.77640
 C2195 C 0.22923 0.45427 0.79236
 C2196 C 0.22037 0.44032 0.80105
 H2197 H 0.18461 0.40270 0.84407
 H2198 H 0.17536 0.37819 0.79295
 H2199 H 0.20108 0.45952 0.75723
 H2200 H 0.24144 0.45937 0.79804
 H2201 H 0.18978 0.40357 0.77845
 H2202 H 0.18557 0.43527 0.77250
 H2203 H 0.19910 0.42812 0.82954
 H2204 H 0.22606 0.43489 0.81312
 C2205 C 0.19799 0.91919 0.30288
 C2206 C 0.17940 0.91851 0.30450
 C2207 C 0.17118 0.90395 0.31284
 C2208 C 0.18137 0.88973 0.31973
 C2209 C 0.19995 0.89045 0.31816
 C2210 C 0.20816 0.90501 0.30984
 C2211 C 0.20677 0.93449 0.29379
 C2212 C 0.22262 0.94177 0.30053
 C2213 C 0.23121 0.95577 0.29168
 C2214 C 0.22416 0.96282 0.27586
 C2215 C 0.20819 0.95571 0.26923
 C2216 C 0.19958 0.94171 0.27810
 H2217 H 0.15686 0.90389 0.31407
 H2218 H 0.20814 0.87956 0.32305
 H2219 H 0.24346 0.96099 0.29719
 H2220 H 0.20242 0.96082 0.25706
 H2221 H 0.22248 0.90498 0.30853
 H2222 H 0.22835 0.93667 0.31272
 H2223 H 0.17123 0.92936 0.29948
 H2224 H 0.18749 0.93625 0.27247
 C2225 C 0.41880 0.30216 0.69843
 C2226 C 0.40463 0.30889 0.70856
 C2227 C 0.39007 0.31700 0.70032
 C2228 C 0.38933 0.31860 0.68175
 C2229 C 0.40353 0.31193 0.67160
 C2230 C 0.41810 0.30378 0.67985
 C2231 C 0.43408 0.29323 0.70724
 C2232 C 0.44146 0.27747 0.70010
 C2233 C 0.45538 0.26867 0.70879
 C2234 C 0.46225 0.27546 0.72480
 C2235 C 0.45507 0.29139 0.73178
 C2236 C 0.44114 0.30016 0.72311
 H2237 H 0.37920 0.32170 0.70850
 H2238 H 0.40345 0.31318 0.65728
 H2239 H 0.46059 0.25642 0.70307
 H2240 H 0.46011 0.29701 0.74405
 H2241 H 0.42892 0.29893 0.67170
 H2242 H 0.43618 0.27169 0.68801
 H2243 H 0.40463 0.30754 0.72287
 H2244 H 0.43590 0.31241 0.72880
 C2245 C 0.41961 0.80329 0.19767
 C2246 C 0.41879 0.80479 0.17908
 C2247 C 0.40419 0.81292 0.17088
 C2248 C 0.39009 0.81972 0.18108
 C2249 C 0.39094 0.81824 0.19966
 C2250 C 0.40553 0.81014 0.20785
 C2251 C 0.43491 0.79436 0.20645
 C2252 C 0.44208 0.80135 0.22223
 C2253 C 0.45603 0.79257 0.23088
 C2254 C 0.46310 0.77657 0.22395
 C2255 C 0.45611 0.76973 0.20801
 C2256 C 0.44218 0.77853 0.19935
 H2257 H 0.40402 0.81407 0.15655
 H2258 H 0.38015 0.82305 0.20787
 H2259 H 0.46115 0.79823 0.24309
 H2260 H 0.46124 0.75742 0.20233
 H2261 H 0.40562 0.80890 0.22217
 H2262 H 0.43693 0.81366 0.22789
 H2263 H 0.42954 0.79984 0.17090
 H2264 H 0.43681 0.77271 0.18732
 C2265 C 0.91921 0.30359 0.19795
 C2266 C 0.90501 0.31055 0.20788
 C2267 C 0.89058 0.31868 0.19943
 C2268 C 0.89002 0.32007 0.18083
 C2269 C 0.90427 0.31320 0.17089
 C2270 C 0.91871 0.30505 0.17935
 C2271 C 0.93433 0.29459 0.20697
 C2272 C 0.94164 0.27872 0.20000
 C2273 C 0.95545 0.26990 0.20883
 C2274 C 0.96230 0.27677 0.22482
 C2275 C 0.95517 0.29279 0.23165
 C2276 C 0.94133 0.30159 0.22284
 H2277 H 0.87967 0.32355 0.20744
 H2278 H 0.90434 0.31430 0.15655
 H2279 H 0.96063 0.25757 0.20322
 H2280 H 0.96017 0.29847 0.24390
 H2281 H 0.92957 0.30004 0.17135
 H2282 H 0.93640 0.27289 0.18792
 H2283 H 0.90487 0.30936 0.22221
 H2284 H 0.93615 0.31392 0.22841
 C2285 C 0.91959 0.80325 0.69753
 C2286 C 0.91891 0.80477 0.67895
 C2287 C 0.90437 0.81292 0.67064
 C2288 C 0.89019 0.81970 0.68074
 C2289 C 0.89092 0.81823 0.69933
 C2290 C 0.90545 0.81012 0.70762
 C2291 C 0.93484 0.79431 0.70640
 C2292 C 0.94194 0.80132 0.72220
 C2293 C 0.95587 0.79257 0.73090
 C2294 C 0.96301 0.77659 0.72400
 C2295 C 0.95608 0.76971 0.70806
 C2296 C 0.94216 0.77848 0.69934
 H2297 H 0.90431 0.81407 0.65632
 H2298 H 0.88006 0.82303 0.70746
 H2299 H 0.96094 0.79827 0.74312
 H2300 H 0.96126 0.75741 0.70240
 H2301 H 0.90544 0.80887 0.72194
 H2302 H 0.93674 0.81363 0.72783
 H2303 H 0.92971 0.79983 0.67083
 H2304 H 0.93685 0.77264 0.68729
 C2305 C 0.58059 0.30335 0.30233
 C2306 C 0.59444 0.29289 0.30938
 C2307 C 0.60897 0.30102 0.31764
 C2308 C 0.61001 0.31981 0.31906
 C2309 C 0.59616 0.33030 0.31202
 C2310 C 0.58161 0.32215 0.30374
 C2311 C 0.56530 0.29461 0.29335
 C2312 C 0.55824 0.30181 0.27760
 C2313 C 0.54433 0.29313 0.26877
 C2314 C 0.53717 0.27708 0.27550
 C2315 C 0.54403 0.27007 0.29142
 C2316 C 0.55793 0.27874 0.30024
 H2317 H 0.61958 0.29259 0.32264
 H2318 H 0.59648 0.34480 0.31310
 H2319 H 0.53937 0.29886 0.25652
 H2320 H 0.53877 0.25777 0.29702
 H2321 H 0.57104 0.33056 0.29862
 H2322 H 0.56376 0.31391 0.27186
 H2323 H 0.59422 0.27839 0.30821
 H2324 H 0.56290 0.27301 0.31249
 C2325 C 0.58096 0.80132 0.80208
 C2326 C 0.59485 0.79088 0.80909
 C2327 C 0.60937 0.79904 0.81735
 C2328 C 0.61036 0.81783 0.81881
 C2329 C 0.59647 0.82829 0.81181
 C2330 C 0.58193 0.82012 0.80353
 C2331 C 0.56565 0.79257 0.79313
 C2332 C 0.55849 0.79980 0.77744
 C2333 C 0.54451 0.79117 0.76869
 C2334 C 0.53736 0.77512 0.77546
 C2335 C 0.54434 0.76805 0.79130
 C2336 C 0.55832 0.77667 0.80003
 H2337 H 0.62001 0.79063 0.82231
 H2338 H 0.59675 0.84279 0.81293
 H2339 H 0.53945 0.79695 0.75650
 H2340 H 0.53909 0.75576 0.79691
 H2341 H 0.57132 0.82851 0.79846
 H2342 H 0.56398 0.81192 0.77170
 H2343 H 0.59467 0.77639 0.80789
 H2344 H 0.56337 0.77092 0.81223
 C2345 C 0.07972 0.30090 0.80382
 C2346 C 0.09368 0.29060 0.81089
 C2347 C 0.10807 0.29891 0.81924
 C2348 C 0.10884 0.31771 0.82071
 C2349 C 0.09482 0.32802 0.81376
 C2350 C 0.08042 0.31970 0.80540
 C2351 C 0.06470 0.29204 0.79451
 C2352 C 0.05778 0.29936 0.77875
 C2353 C 0.04409 0.29066 0.76963
 C2354 C 0.03700 0.27445 0.77605
 C2355 C 0.04374 0.26727 0.79195
 C2356 C 0.05744 0.27596 0.80106
 H2357 H 0.11881 0.29062 0.82418
 H2358 H 0.09493 0.34251 0.81492
 H2359 H 0.03922 0.29654 0.75740
 H2360 H 0.03853 0.25485 0.79730
 H2361 H 0.06974 0.32798 0.80031
 H2362 H 0.06324 0.31161 0.77325
 H2363 H 0.09368 0.27611 0.80961
 H2364 H 0.06232 0.27012 0.81330
 C2365 C 0.08124 0.80318 0.30320
 C2366 C 0.09515 0.79270 0.31010
 C2367 C 0.10972 0.80080 0.31831
 C2368 C 0.11073 0.81959 0.31984
 C2369 C 0.09681 0.83009 0.31298
 C2370 C 0.08222 0.82197 0.30474
 C2371 C 0.06592 0.79449 0.29422
 C2372 C 0.05879 0.80179 0.27856
 C2373 C 0.04481 0.79321 0.26975
 C2374 C 0.03765 0.77713 0.27643
 C2375 C 0.04460 0.77000 0.29226
 C2376 C 0.05857 0.77857 0.30104
 H2377 H 0.12039 0.79236 0.32317
 H2378 H 0.09710 0.84458 0.31416
 H2379 H 0.03978 0.79904 0.25758
 H2380 H 0.03934 0.75768 0.29781
 H2381 H 0.07160 0.83039 0.29976
 H2382 H 0.06429 0.81393 0.27287
 H2383 H 0.09494 0.77821 0.30883
 H2384 H 0.06360 0.77276 0.31323
 C2385 C 0.58071 0.69731 0.69646
 C2386 C 0.59458 0.70782 0.68955
 C2387 C 0.60918 0.69974 0.68139
 C2388 C 0.61026 0.68095 0.67993
 C2389 C 0.59637 0.67042 0.68679
 C2390 C 0.58176 0.67852 0.69497
 C2391 C 0.56538 0.70598 0.70541
 C2392 C 0.55829 0.69866 0.72107
 C2393 C 0.54432 0.70723 0.72987
 C2394 C 0.53712 0.72329 0.72319
 C2395 C 0.54401 0.73043 0.70736
 C2396 C 0.55798 0.72188 0.69858
 H2397 H 0.61982 0.70820 0.67653
 H2398 H 0.59672 0.65593 0.68565
 H2399 H 0.53934 0.70138 0.74205
 H2400 H 0.53871 0.74274 0.70182
 H2401 H 0.57117 0.67007 0.69995
 H2402 H 0.56384 0.68654 0.72677
 H2403 H 0.59433 0.72231 0.69078
 H2404 H 0.56297 0.72770 0.68640
 C2405 C 0.58163 0.19963 0.19611
 C2406 C 0.59556 0.21007 0.18922
 C2407 C 0.61014 0.20190 0.18109
 C2408 C 0.61113 0.18310 0.17965
 C2409 C 0.59715 0.17266 0.18643
 C2410 C 0.58256 0.18084 0.19458
 C2411 C 0.56635 0.20834 0.20513
 C2412 C 0.55924 0.20095 0.22075
 C2413 C 0.54524 0.20945 0.22956
 C2414 C 0.53801 0.22552 0.22294
 C2415 C 0.54497 0.23279 0.20720
 C2416 C 0.55898 0.22430 0.19840
 H2417 H 0.62084 0.21030 0.17626
 H2418 H 0.59741 0.15817 0.18529
 H2419 H 0.54021 0.20351 0.24168
 H2420 H 0.53967 0.24512 0.20171
 H2421 H 0.57191 0.17245 0.19953
 H2422 H 0.56476 0.18879 0.22639
 H2423 H 0.59538 0.22456 0.19045
 H2424 H 0.56401 0.23019 0.18627
 C2425 C 0.08101 0.69900 0.19741
 C2426 C 0.09493 0.70939 0.19043
 C2427 C 0.10944 0.70117 0.18224
 C2428 C 0.11038 0.68237 0.18082
 C2429 C 0.09645 0.67197 0.18777
 C2430 C 0.08192 0.68019 0.19598
 C2431 C 0.06575 0.70780 0.20636
 C2432 C 0.05863 0.70057 0.22205
 C2433 C 0.04470 0.70923 0.23082
 C2434 C 0.03757 0.72531 0.22410
 C2435 C 0.04451 0.73239 0.20826
 C2436 C 0.05844 0.72373 0.19950
 H2437 H 0.12011 0.70954 0.17730
 H2438 H 0.09669 0.65747 0.18667
 H2439 H 0.03968 0.70344 0.24301
 H2440 H 0.03927 0.74471 0.20268
 H2441 H 0.07129 0.67184 0.20103
 H2442 H 0.06410 0.68843 0.22778
 H2443 H 0.09478 0.72388 0.19161
 H2444 H 0.06346 0.72949 0.18730
 C2445 C 0.08167 0.19718 0.69651
 C2446 C 0.08263 0.17839 0.69495
 C2447 C 0.09723 0.17025 0.68681
 C2448 C 0.11120 0.18072 0.68004
 C2449 C 0.11020 0.19951 0.68154
 C2450 C 0.09561 0.20764 0.68967
 C2451 C 0.06634 0.20587 0.70544
 C2452 C 0.05902 0.22183 0.69865
 C2453 C 0.04498 0.23035 0.70737
 C2454 C 0.03794 0.22312 0.72309
 C2455 C 0.04509 0.20702 0.72975
 C2456 C 0.05913 0.19850 0.72102
 H2457 H 0.09751 0.15575 0.68564
 H2458 H 0.12089 0.20793 0.67673
 H2459 H 0.03974 0.24269 0.70184
 H2460 H 0.04000 0.20112 0.74185
 H2461 H 0.09542 0.22213 0.69093
 H2462 H 0.06411 0.22771 0.68653
 H2463 H 0.07198 0.16998 0.69987
 H2464 H 0.06461 0.18633 0.72669
 C2465 C 0.41937 0.69767 0.30209
 C2466 C 0.40522 0.69088 0.29192
 C2467 C 0.39067 0.68275 0.30014
 C2468 C 0.38993 0.68120 0.31871
 C2469 C 0.40409 0.68796 0.32889
 C2470 C 0.41865 0.69611 0.32067
 C2471 C 0.43466 0.70657 0.29329
 C2472 C 0.44205 0.72234 0.30040
 C2473 C 0.45600 0.73108 0.29175
 C2474 C 0.46290 0.72422 0.27580
 C2475 C 0.45570 0.70829 0.26884
 C2476 C 0.44173 0.69957 0.27748
 H2477 H 0.37983 0.67799 0.29194
 H2478 H 0.40401 0.68675 0.34321
 H2479 H 0.46123 0.74334 0.29745
 H2480 H 0.46074 0.70261 0.25661
 H2481 H 0.42946 0.70101 0.32884
 H2482 H 0.43676 0.72817 0.31246
 H2483 H 0.40523 0.69217 0.27761
 H2484 H 0.43649 0.68730 0.27180
 C2485 C 0.41870 0.19642 0.80305
 C2486 C 0.40457 0.18949 0.79295
 C2487 C 0.39005 0.18140 0.80124
 C2488 C 0.38931 0.18003 0.81983
 C2489 C 0.40349 0.18686 0.82994
 C2490 C 0.41802 0.19497 0.82164
 C2491 C 0.43393 0.20537 0.79420
 C2492 C 0.44124 0.22120 0.80127
 C2493 C 0.45516 0.22998 0.79260
 C2494 C 0.46209 0.22311 0.77667
 C2495 C 0.45495 0.20713 0.76974
 C2496 C 0.44102 0.19837 0.77840
 H2497 H 0.37920 0.17655 0.79311
 H2498 H 0.40342 0.18577 0.84427
 H2499 H 0.46034 0.24228 0.79827
 H2500 H 0.46003 0.20144 0.75753
 H2501 H 0.42882 0.19995 0.82977
 H2502 H 0.43593 0.22704 0.81331
 H2503 H 0.40456 0.19068 0.77863
 H2504 H 0.43584 0.18606 0.77276
 C2505 C 0.91952 0.69850 0.80313
 C2506 C 0.90557 0.70890 0.81004
 C2507 C 0.89102 0.70070 0.81818
 C2508 C 0.89007 0.68190 0.81961
 C2509 C 0.90406 0.67149 0.81278
 C2510 C 0.91862 0.67970 0.80463
 C2511 C 0.93478 0.70727 0.79414
 C2512 C 0.94189 0.69998 0.77848
 C2513 C 0.95581 0.70860 0.76966
 C2514 C 0.96295 0.72469 0.77632
 C2515 C 0.95602 0.73184 0.79212
 C2516 C 0.94209 0.72323 0.80093
 H2517 H 0.88031 0.70907 0.82302
 H2518 H 0.90382 0.65699 0.81390
 H2519 H 0.96083 0.70275 0.75750
 H2520 H 0.96126 0.74418 0.79764
 H2521 H 0.92928 0.67134 0.79965
 H2522 H 0.93641 0.68782 0.77281
 H2523 H 0.90572 0.72339 0.80882
 H2524 H 0.93706 0.72905 0.81310
 C2525 C 0.91827 0.19867 0.30360
 C2526 C 0.91729 0.17986 0.30504
 C2527 C 0.90268 0.17168 0.31315
 C2528 C 0.88874 0.18213 0.32000
 C2529 C 0.88975 0.20093 0.31860
 C2530 C 0.90434 0.20910 0.31051
 C2531 C 0.93360 0.20741 0.29471
 C2532 C 0.94093 0.22332 0.30159
 C2533 C 0.95494 0.23192 0.29288
 C2534 C 0.96192 0.22479 0.27708
 C2535 C 0.95476 0.20874 0.27035
 C2536 C 0.94077 0.20014 0.27907
 H2537 H 0.90239 0.15718 0.31424
 H2538 H 0.87908 0.20933 0.32346
 H2539 H 0.96019 0.24422 0.29846
 H2540 H 0.95982 0.20291 0.25819
 H2541 H 0.90455 0.22359 0.30932
 H2542 H 0.93587 0.22912 0.31375
 H2543 H 0.92793 0.17147 0.30006
 H2544 H 0.93527 0.18801 0.27333
 C2545 C 0.30354 0.30155 0.58143
 C2546 C 0.30501 0.32035 0.58245
 C2547 C 0.31314 0.32848 0.59707
 C2548 C 0.31998 0.31800 0.61102
 C2549 C 0.31863 0.29921 0.60994
 C2550 C 0.31050 0.29108 0.59532
 C2551 C 0.29451 0.29287 0.56613
 C2552 C 0.30127 0.27694 0.55874
 C2553 C 0.29242 0.26843 0.54476
 C2554 C 0.27661 0.27565 0.53785
 C2555 C 0.26998 0.29172 0.54507
 C2556 C 0.27884 0.30023 0.55905
 H2557 H 0.31422 0.34299 0.59741
 H2558 H 0.32350 0.29078 0.62060
 H2559 H 0.29792 0.25611 0.53946
 H2560 H 0.25781 0.29761 0.54008
 H2561 H 0.30931 0.27658 0.59508
 H2562 H 0.31345 0.27108 0.56374
 H2563 H 0.30001 0.32877 0.57184
 H2564 H 0.27318 0.31237 0.56459
 C2565 C 0.30345 0.80223 0.08159
 C2566 C 0.30499 0.82103 0.08245
 C2567 C 0.31324 0.82925 0.09696
 C2568 C 0.32013 0.81886 0.11094
 C2569 C 0.31868 0.80006 0.11003
 C2570 C 0.31044 0.79184 0.09553
 C2571 C 0.29436 0.79345 0.06638
 C2572 C 0.30107 0.77745 0.05910
 C2573 C 0.29222 0.76887 0.04517
 C2574 C 0.27644 0.77610 0.03818
 C2575 C 0.26985 0.79223 0.04530
 C2576 C 0.27872 0.80081 0.05923
 H2577 H 0.31439 0.84375 0.09717
 H2578 H 0.32358 0.79170 0.12074
 H2579 H 0.29769 0.75651 0.03994
 H2580 H 0.25771 0.79814 0.04025
 H2581 H 0.30919 0.77735 0.09542
 H2582 H 0.31323 0.77158 0.06414
 H2583 H 0.29998 0.82938 0.07179
 H2584 H 0.27310 0.81301 0.06469
 C2585 C 0.80509 0.30203 0.07982
 C2586 C 0.80680 0.32082 0.08054
 C2587 C 0.81495 0.32909 0.09507
 C2588 C 0.82157 0.31875 0.10922
 C2589 C 0.82004 0.29995 0.10841
 C2590 C 0.81190 0.29169 0.09388
 C2591 C 0.79591 0.29325 0.06468
 C2592 C 0.80243 0.27712 0.05750
 C2593 C 0.79344 0.26854 0.04365
 C2594 C 0.77771 0.27588 0.03668
 C2595 C 0.77131 0.29213 0.04370
 C2596 C 0.78032 0.30071 0.05753
 H2597 H 0.81618 0.34358 0.09519
 H2598 H 0.82475 0.29164 0.11924
 H2599 H 0.79876 0.25607 0.03850
 H2600 H 0.75922 0.29812 0.03865
 H2601 H 0.81053 0.27721 0.09386
 H2602 H 0.81454 0.27116 0.06256
 H2603 H 0.80193 0.32913 0.06978
 H2604 H 0.77483 0.31300 0.06292
 C2605 C 0.80448 0.80179 0.58041
 C2606 C 0.80611 0.82059 0.58119
 C2607 C 0.81434 0.82883 0.59570
 C2608 C 0.82112 0.81847 0.60976
 C2609 C 0.81965 0.79967 0.60889
 C2610 C 0.81143 0.79143 0.59439
 C2611 C 0.79525 0.79302 0.56529
 C2612 C 0.80180 0.77694 0.55802
 C2613 C 0.79277 0.76837 0.54420
 C2614 C 0.77697 0.77567 0.53733
 C2615 C 0.77055 0.79187 0.54444
 C2616 C 0.77959 0.80045 0.55826
 H2617 H 0.81551 0.84333 0.59587
 H2618 H 0.82448 0.79134 0.61964
 H2619 H 0.79812 0.75594 0.53898
 H2620 H 0.75840 0.79783 0.53948
 H2621 H 0.81012 0.77694 0.59432
 H2622 H 0.81396 0.77102 0.56300
 H2623 H 0.80114 0.82892 0.57050
 H2624 H 0.77409 0.81270 0.56371
 C2625 C 0.30410 0.69827 0.41878
 C2626 C 0.31103 0.70873 0.40488
 C2627 C 0.31916 0.70059 0.39030
 C2628 C 0.32058 0.68179 0.38927
 C2629 C 0.31378 0.67133 0.40323
 C2630 C 0.30563 0.67948 0.41782
 C2631 C 0.29503 0.70696 0.43403
 C2632 C 0.27938 0.69956 0.44107
 C2633 C 0.27048 0.70807 0.45500
 C2634 C 0.27703 0.72418 0.46222
 C2635 C 0.29283 0.73144 0.45535
 C2636 C 0.30171 0.72293 0.44141
 H2637 H 0.32400 0.70900 0.37962
 H2638 H 0.31490 0.65683 0.40293
 H2639 H 0.25833 0.70214 0.45996
 H2640 H 0.29827 0.74380 0.46064
 H2641 H 0.30066 0.67107 0.42843
 H2642 H 0.27377 0.68739 0.43554
 H2643 H 0.30979 0.72322 0.40508
 H2644 H 0.31387 0.72883 0.43643
 C2645 C 0.30368 0.19870 0.91980
 C2646 C 0.30534 0.17990 0.91918
 C2647 C 0.31351 0.17154 0.90472
 C2648 C 0.32020 0.18179 0.89056
 C2649 C 0.31869 0.20060 0.89126
 C2650 C 0.31053 0.20895 0.90571
 C2651 C 0.29453 0.20758 0.93488
 C2652 C 0.30109 0.22373 0.94200
 C2653 C 0.29215 0.23237 0.95584
 C2654 C 0.27645 0.22505 0.96285
 C2655 C 0.27000 0.20880 0.95587
 C2656 C 0.27894 0.20017 0.94205
 H2657 H 0.31471 0.15705 0.90467
 H2658 H 0.32346 0.20884 0.88043
 H2659 H 0.29751 0.24483 0.96096
 H2660 H 0.25792 0.20283 0.96094
 H2661 H 0.30920 0.22344 0.90566
 H2662 H 0.31319 0.22965 0.93693
 H2663 H 0.30044 0.17166 0.92995
 H2664 H 0.27343 0.18787 0.93670
 C2665 C 0.80313 0.69803 0.91854
 C2666 C 0.80470 0.67923 0.91757
 C2667 C 0.81294 0.67111 0.90301
 C2668 C 0.81979 0.68160 0.88911
 C2669 C 0.81825 0.70039 0.89010
 C2670 C 0.81002 0.70850 0.90464
 C2671 C 0.79412 0.70671 0.93382
 C2672 C 0.80086 0.72268 0.94115
 C2673 C 0.79205 0.73122 0.95512
 C2674 C 0.77629 0.72398 0.96208
 C2675 C 0.76968 0.70786 0.95492
 C2676 C 0.77850 0.69933 0.94095
 H2677 H 0.81413 0.65662 0.90273
 H2678 H 0.82311 0.70882 0.87945
 H2679 H 0.79754 0.74357 0.96037
 H2680 H 0.75755 0.70195 0.95995
 H2681 H 0.80874 0.72299 0.90483
 H2682 H 0.81300 0.72856 0.93612
 H2683 H 0.79973 0.67081 0.92818
 H2684 H 0.77286 0.68715 0.93546
 C2685 C 0.80218 0.19860 0.41929
 C2686 C 0.80375 0.17980 0.41837
 C2687 C 0.81202 0.17165 0.40385
 C2688 C 0.81890 0.18211 0.38993
 C2689 C 0.81741 0.20090 0.39091
 C2690 C 0.80915 0.20905 0.40541
 C2691 C 0.79306 0.20731 0.43449
 C2692 C 0.79976 0.22328 0.44186
 C2693 C 0.79085 0.23183 0.45574
 C2694 C 0.77501 0.22462 0.46257
 C2695 C 0.76844 0.20851 0.45537
 C2696 C 0.77737 0.19995 0.44149
 H2697 H 0.81319 0.15715 0.40359
 H2698 H 0.82230 0.20931 0.38025
 H2699 H 0.79630 0.24418 0.46104
 H2700 H 0.75626 0.20262 0.46031
 H2701 H 0.80788 0.22354 0.40558
 H2702 H 0.81195 0.22914 0.43692
 H2703 H 0.79873 0.17141 0.42897
 H2704 H 0.77177 0.18778 0.43596
 C2705 C 0.69561 0.30264 0.41919
 C2706 C 0.69419 0.32145 0.41831
 C2707 C 0.68610 0.32971 0.40372
 C2708 C 0.67924 0.31934 0.38971
 C2709 C 0.68059 0.30054 0.39065
 C2710 C 0.68867 0.29229 0.40521
 C2711 C 0.70455 0.29381 0.43445
 C2712 C 0.69771 0.27784 0.44168
 C2713 C 0.70649 0.26915 0.45559
 C2714 C 0.72232 0.27623 0.46260
 C2715 C 0.72902 0.29234 0.45555
 C2716 C 0.72023 0.30104 0.44164
 H2717 H 0.68504 0.34422 0.40349
 H2718 H 0.67572 0.29220 0.37992
 H2719 H 0.70092 0.25680 0.46077
 H2720 H 0.74121 0.29813 0.46062
 H2721 H 0.68984 0.27779 0.40534
 H2722 H 0.68551 0.27208 0.43660
 H2723 H 0.69919 0.32978 0.42898
 H2724 H 0.72595 0.31320 0.43622
 C2725 C 0.69610 0.80123 0.91905
 C2726 C 0.69450 0.82003 0.91814
 C2727 C 0.68632 0.82819 0.90356
 C2728 C 0.67955 0.81774 0.88956
 C2729 C 0.68105 0.79895 0.89054
 C2730 C 0.68922 0.79079 0.90511
 C2731 C 0.70521 0.79252 0.93429
 C2732 C 0.69858 0.77650 0.94158
 C2733 C 0.70752 0.76793 0.95548
 C2734 C 0.72331 0.77520 0.96239
 C2735 C 0.72980 0.79137 0.95527
 C2736 C 0.72085 0.79994 0.94138
 H2737 H 0.68514 0.84268 0.90330
 H2738 H 0.67624 0.79055 0.87983
 H2739 H 0.70212 0.75553 0.96070
 H2740 H 0.74195 0.79731 0.96026
 H2741 H 0.69052 0.77631 0.90526
 H2742 H 0.68643 0.77059 0.93657
 H2743 H 0.69945 0.82842 0.92880
 H2744 H 0.72641 0.81215 0.93591
 C2745 C 0.19592 0.30208 0.91979
 C2746 C 0.18900 0.29158 0.90591
 C2747 C 0.18067 0.29966 0.89139
 C2748 C 0.17906 0.31844 0.89041
 C2749 C 0.18592 0.32896 0.90431
 C2750 C 0.19426 0.32086 0.91885
 C2751 C 0.20507 0.29342 0.93502
 C2752 C 0.22072 0.30086 0.94207
 C2753 C 0.22970 0.29232 0.95595
 C2754 C 0.22323 0.27616 0.96311
 C2755 C 0.20742 0.26888 0.95625
 C2756 C 0.19845 0.27741 0.94237
 H2757 H 0.17581 0.29122 0.88075
 H2758 H 0.18467 0.34345 0.90403
 H2759 H 0.24186 0.29827 0.96091
 H2760 H 0.20203 0.25649 0.96151
 H2761 H 0.19925 0.32930 0.92945
 H2762 H 0.22626 0.31306 0.93656
 H2763 H 0.19035 0.27710 0.90609
 H2764 H 0.18629 0.27149 0.93740
 C2765 C 0.19741 0.80224 0.41904
 C2766 C 0.19591 0.82105 0.41826
 C2767 C 0.18766 0.82935 0.40378
 C2768 C 0.18073 0.81903 0.38978
 C2769 C 0.18218 0.80023 0.39060
 C2770 C 0.19042 0.79193 0.40505
 C2771 C 0.20644 0.79336 0.43422
 C2772 C 0.19965 0.77735 0.44141
 C2773 C 0.20848 0.76863 0.45527
 C2774 C 0.22431 0.77572 0.46227
 C2775 C 0.23096 0.79187 0.45526
 C2776 C 0.22212 0.80060 0.44140
 H2777 H 0.18653 0.84385 0.40364
 H2778 H 0.17726 0.79192 0.37986
 H2779 H 0.20295 0.75626 0.46041
 H2780 H 0.24314 0.79767 0.46034
 H2781 H 0.19164 0.77744 0.40510
 H2782 H 0.18746 0.77158 0.43634
 H2783 H 0.20095 0.82934 0.42894
 H2784 H 0.22780 0.81280 0.43601
 C2785 C 0.69680 0.69814 0.58075
 C2786 C 0.68982 0.70850 0.59469
 C2787 C 0.68158 0.70026 0.60915
 C2788 C 0.68013 0.68146 0.61003
 C2789 C 0.68703 0.67109 0.59606
 C2790 C 0.69528 0.67934 0.58158
 C2791 C 0.70589 0.70695 0.56559
 C2792 C 0.72156 0.69964 0.55849
 C2793 C 0.73044 0.70828 0.54463
 C2794 C 0.72385 0.72442 0.53754
 C2795 C 0.70804 0.73160 0.54446
 C2796 C 0.69917 0.72297 0.55833
 H2797 H 0.67667 0.70860 0.61985
 H2798 H 0.68589 0.65659 0.59625
 H2799 H 0.74260 0.70241 0.53962
 H2800 H 0.70256 0.74398 0.53925
 H2801 H 0.70031 0.67101 0.57093
 H2802 H 0.72718 0.68743 0.56394
 H2803 H 0.69106 0.72299 0.59460
 H2804 H 0.68699 0.72880 0.56333
 C2805 C 0.69821 0.19870 0.08063
 C2806 C 0.67961 0.19736 0.08145
 C2807 C 0.67137 0.18929 0.09604
 C2808 C 0.68156 0.18241 0.11014
 C2809 C 0.70016 0.18378 0.10930
 C2810 C 0.70838 0.19182 0.09472
 C2811 C 0.70704 0.20743 0.06527
 C2812 C 0.72270 0.20016 0.05812
 C2813 C 0.73141 0.20871 0.04410
 C2814 C 0.72467 0.22475 0.03692
 C2815 C 0.70885 0.23188 0.04389
 C2816 C 0.70012 0.22330 0.05789
 H2817 H 0.65703 0.18823 0.09619
 H2818 H 0.70836 0.17893 0.12010
 H2819 H 0.74352 0.20282 0.03900
 H2820 H 0.70332 0.24423 0.03867
 H2821 H 0.72272 0.19294 0.09463
 H2822 H 0.72821 0.18781 0.06335
 H2823 H 0.67143 0.20235 0.07069
 H2824 H 0.68819 0.22933 0.06324
 C2825 C 0.19629 0.69873 0.08096
 C2826 C 0.18942 0.70918 0.09489
 C2827 C 0.18123 0.70102 0.10943
 C2828 C 0.17970 0.68223 0.11039
 C2829 C 0.18647 0.67178 0.09641
 C2830 C 0.19468 0.67994 0.08186
 C2831 C 0.20538 0.70745 0.06574
 C2832 C 0.22102 0.70004 0.05868
 C2833 C 0.22997 0.70862 0.04482
 C2834 C 0.22347 0.72480 0.03770
 C2835 C 0.20767 0.73205 0.04458
 C2836 C 0.19874 0.72347 0.05844
 H2837 H 0.17643 0.70943 0.12013
 H2838 H 0.18528 0.65729 0.09666
 H2839 H 0.24212 0.70270 0.03986
 H2840 H 0.20227 0.74445 0.03934
 H2841 H 0.19962 0.67155 0.07121
 H2842 H 0.22659 0.68783 0.06416
 H2843 H 0.19073 0.72366 0.09475
 H2844 H 0.18659 0.72937 0.06342
 C2845 C 0.19797 0.19720 0.58105
 C2846 C 0.17938 0.19568 0.58186
 C2847 C 0.17122 0.18741 0.59639
 C2848 C 0.18147 0.18051 0.61043
 C2849 C 0.20006 0.18203 0.60959
 C2850 C 0.20820 0.19026 0.59507
 C2851 C 0.20671 0.20616 0.56577
 C2852 C 0.22242 0.19910 0.55854
 C2853 C 0.23104 0.20787 0.54461
 C2854 C 0.22416 0.22393 0.53759
 C2855 C 0.20829 0.23085 0.54464
 C2856 C 0.19965 0.22205 0.55856
 H2857 H 0.15689 0.18623 0.59655
 H2858 H 0.20831 0.17716 0.62034
 H2859 H 0.24320 0.20214 0.53945
 H2860 H 0.20265 0.24321 0.53955
 H2861 H 0.22253 0.19151 0.59499
 H2862 H 0.22804 0.18674 0.56365
 H2863 H 0.17115 0.20069 0.57116
 H2864 H 0.18766 0.22791 0.56397
   
