data_POSCAR
  _audit_creation_date              2014-09-24
  _audit_creation_method            'ToBaCCo'
  _symmetry_space_group_name_H-M    'P1'
  _symmetry_Int_Tables_number       1
  _symmetry_cell_setting            triclinic
  loop_
  _symmetry_equiv_pos_as_xyz
 x,y,z
_cell_length_a 41.8753
_cell_length_b 40.8413
_cell_length_c 39.5604
_cell_angle_alpha 92.849800
_cell_angle_beta 86.790900
_cell_angle_gamma 86.231500
loop_
  _atom_site_label
  _atom_site_type_symbol
  _atom_site_fract_x
  _atom_site_fract_y
  _atom_site_fract_z
C1 C 0.75238 0.62000 1.00459
 C2 C 0.73963 0.36748 0.50136
 C3 C 0.22556 -0.13502 -0.01326
 C4 C 0.26418 0.09936 0.49355
 C5 C 0.11348 0.51582 0.29478
 C6 C -0.11278 0.03428 0.23678
 C7 C 0.38764 0.50197 0.78046
 C8 C 0.63972 0.98976 0.74115
 C9 C -0.01967 0.27466 -0.12343
 C10 C 0.46594 0.23948 0.13051
 C11 C 1.01985 0.76202 0.60160
 C12 C 0.51328 0.75356 0.38655
 C13 C 0.45019 -0.06449 0.23213
 H14 H 0.45792 -0.04017 0.22812
 C15 C 0.47169 -0.08862 0.24352
 H16 H 0.49602 -0.08294 0.24814
 C17 C 0.40822 -0.10076 0.23495
 H18 H 0.38300 -0.10463 0.23371
 C19 C 0.42900 -0.12570 0.24550
 H20 H 0.41981 -0.14895 0.25185
 N21 N 0.41895 -0.07077 0.22885
 C22 C 0.40093 0.02985 0.23679
 H23 H 0.38926 0.02753 0.26153
 C24 C 0.40810 0.06087 0.22649
 H25 H 0.40188 0.08227 0.24343
 C26 C 0.42104 0.00520 0.18362
 H27 H 0.42490 -0.01651 0.16670
 C28 C 0.42847 0.03569 0.17227
 H29 H 0.43881 0.03722 0.14673
 Zn30 Zn 0.38754 -0.03638 0.22344
 N31 N 0.40648 0.00306 0.21489
 C32 C 0.37386 -0.04272 0.29307
 N33 N 0.36188 -0.03022 0.26472
 C34 C 0.33449 -0.01022 0.26666
 C35 C 0.31907 -0.00069 0.29814
 C36 C 0.35907 -0.03401 0.32502
 C37 C 0.36586 -0.07499 0.16801
 C38 C 0.34866 -0.08027 0.13927
 C39 C 0.32674 -0.02397 0.14579
 C40 C 0.34401 -0.01988 0.17475
 N41 N 0.36274 -0.04535 0.18563
 H42 H 0.39606 -0.05788 0.29132
 H43 H 0.32547 -0.00022 0.24405
 H44 H 0.29804 0.01633 0.29938
 H45 H 0.36996 -0.04275 0.34738
 H46 H 0.38190 -0.09455 0.17579
 H47 H 0.35082 -0.10414 0.12580
 H48 H 0.31167 -0.00368 0.13753
 H49 H 0.34305 0.00394 0.18809
 C50 C 0.42083 0.06411 0.19337
 C51 C 0.46080 -0.11936 0.25076
 C52 C 0.32889 -0.05456 0.12802
 C53 C 0.33196 -0.01186 0.32785
 C54 C 0.05625 1.04982 0.77721
 H55 H 0.05240 1.02809 0.79103
 C56 C 0.03679 1.07856 0.78521
 H57 H 0.01811 1.07876 0.80530
 C58 C 0.08601 1.07644 0.73533
 H59 H 0.10556 1.07577 0.71626
 C60 C 0.06695 1.10569 0.74237
 H61 H 0.07238 1.12736 0.72903
 N62 N 0.08128 1.04964 0.75373
 C63 C 0.11301 0.94520 0.73499
 H64 H 0.13834 0.94699 0.73757
 C65 C 0.10192 0.91490 0.72553
 H66 H 0.11926 0.89414 0.72071
 C67 C 0.06071 0.97088 0.73505
 H68 H 0.04480 0.99286 0.73819
 C69 C 0.04839 0.94072 0.72616
 H70 H 0.02291 0.93995 0.72324
 Zn71 Zn 0.11204 1.01272 0.74923
 N72 N 0.09265 0.97261 0.73904
 C73 C 0.11999 1.01941 0.82104
 N74 N 0.13337 1.00773 0.79021
 C75 C 0.16142 0.98876 0.78772
 C76 C 0.17540 0.97820 0.81677
 C77 C 0.13343 1.00968 0.85088
 C78 C 0.14438 0.99980 0.68474
 C79 C 0.16732 1.00380 0.65863
 C80 C 0.18765 1.04762 0.69267
 C81 C 0.16467 1.04230 0.71848
 N82 N 0.14336 1.01897 0.71394
 H83 H 0.09812 1.03498 0.82281
 H84 H 0.17231 0.98061 0.76307
 H85 H 0.19675 0.96159 0.81428
 H86 H 0.12153 1.01750 0.87522
 H87 H 0.12714 0.98156 0.68137
 H88 H 0.16774 0.98792 0.63586
 H89 H 0.20345 1.06725 0.69635
 H90 H 0.16341 1.05718 0.74198
 C91 C 0.06919 0.91215 0.72076
 C92 C 0.04284 1.10732 0.76858
 C93 C 0.18905 1.02839 0.66203
 C94 C 0.16070 0.98771 0.84876
 C95 C 0.57340 0.51429 0.29739
 H96 H 0.57622 0.49098 0.30910
 C97 C 0.55990 0.54192 0.31638
 H98 H 0.55226 0.53989 0.34276
 C99 C 0.58257 0.54608 0.24964
 H100 H 0.59264 0.54796 0.22416
 C101 C 0.56861 0.57421 0.26751
 H102 H 0.56806 0.59756 0.25565
 N103 N 0.58529 0.51705 0.26503
 C104 C 0.59941 0.41993 0.21400
 H105 H 0.62504 0.41834 0.20823
 C106 C 0.58107 0.39459 0.20293
 H107 H 0.59274 0.37368 0.18818
 C108 C 0.55298 0.44988 0.23922
 H109 H 0.54213 0.47154 0.25322
 C110 C 0.53376 0.42511 0.22872
 H111 H 0.50821 0.42786 0.23510
 Zn112 Zn 0.61104 0.48071 0.24532
 N113 N 0.58516 0.44685 0.23177
 C114 C 0.63369 0.43668 0.29215
 N115 N 0.63739 0.46672 0.27980
 C116 C 0.65523 0.48887 0.29562
 C117 C 0.67003 0.48115 0.32532
 C118 C 0.64772 0.42811 0.32184
 C119 C 0.61747 0.49983 0.17939
 C120 C 0.63128 0.51439 0.15156
 C121 C 0.68134 0.51385 0.17915
 C122 C 0.66648 0.49924 0.20663
 N123 N 0.63476 0.49371 0.20671
 H124 H 0.61844 0.41990 0.28006
 H125 H 0.65683 0.51306 0.28597
 H126 H 0.68404 0.49911 0.33761
 H127 H 0.64313 0.40458 0.33188
 H128 H 0.59238 0.49492 0.18001
 H129 H 0.61672 0.52031 0.13063
 H130 H 0.70608 0.51987 0.18017
 H131 H 0.67992 0.49378 0.22842
 C132 C 0.54774 0.39708 0.21013
 C133 C 0.55820 0.57240 0.30160
 C134 C 0.66328 0.52266 0.15175
 C135 C 0.66601 0.45053 0.33907
 C136 C 0.94509 0.47583 0.72987
 H137 H 0.95963 0.49530 0.72215
 C138 C 0.95988 0.44724 0.74211
 H139 H 0.98555 0.44544 0.74457
 C140 C 0.89416 0.45434 0.73682
 H141 H 0.86858 0.45699 0.73444
 C142 C 0.90783 0.42553 0.74886
 H143 H 0.89245 0.40638 0.75596
 N144 N 0.91254 0.47938 0.72884
 C145 C 0.89928 0.57018 0.67745
 H146 H 0.87789 0.56250 0.66623
 C147 C 0.91135 0.59970 0.66840
 H148 H 0.89972 0.61377 0.64949
 C149 C 0.93912 0.56254 0.71708
 H150 H 0.94855 0.54925 0.73768
 C151 C 0.95225 0.59190 0.70842
 H152 H 0.97247 0.60025 0.72155
 Zn153 Zn 0.88795 0.51818 0.71807
 N154 N 0.91287 0.55235 0.70173
 C155 C 0.87175 0.56460 0.77217
 N156 N 0.86340 0.53551 0.75821
 C157 C 0.83956 0.51922 0.77335
 C158 C 0.82304 0.53236 0.80333
 C159 C 0.85659 0.57807 0.80234
 C160 C 0.87687 0.49207 0.65419
 C161 C 0.85977 0.48177 0.62678
 C162 C 0.81053 0.49923 0.65933
 C163 C 0.82864 0.50975 0.68600
 N164 N 0.86121 0.50560 0.68310
 H165 H 0.89066 0.57745 0.76039
 H166 H 0.83297 0.49618 0.76209
 H167 H 0.80368 0.51932 0.81432
 H168 H 0.86500 0.60054 0.81318
 H169 H 0.90278 0.48919 0.65254
 H170 H 0.87266 0.47048 0.60423
 H171 H 0.78461 0.50220 0.66209
 H172 H 0.81663 0.52111 0.70891
 C173 C 0.93774 0.61123 0.68441
 C174 C 0.94094 0.42215 0.75292
 C175 C 0.82616 0.48498 0.62929
 C176 C 0.83156 0.56226 0.81838
 C177 C 0.27309 0.40727 -0.03410
 H178 H 0.28601 0.38504 -0.02765
 C179 C 0.28745 0.42687 -0.05739
 H180 H 0.31087 0.41869 -0.06888
 C181 C 0.22684 0.44410 -0.02800
 H182 H 0.20336 0.45091 -0.01603
 C183 C 0.24048 0.46472 -0.05128
 H184 H 0.22727 0.48715 -0.05728
 N185 N 0.24303 0.41562 -0.02038
 C186 C 0.17344 0.40364 0.05716
 H187 H 0.16065 0.38664 0.04215
 C188 C 0.15869 0.41780 0.08721
 H189 H 0.13431 0.41228 0.09399
 C190 C 0.22035 0.43138 0.06628
 H191 H 0.24454 0.43626 0.05797
 C192 C 0.20686 0.44525 0.09734
 H193 H 0.22115 0.46038 0.11288
 Zn194 Zn 0.22398 0.38594 0.00890
 N195 N 0.20400 0.40992 0.04762
 C196 C 0.26675 0.35887 0.05475
 N197 N 0.25679 0.35495 0.02276
 C198 C 0.27201 0.33188 0.00028
 C199 C 0.29918 0.31302 0.00916
 C200 C 0.29399 0.34109 0.06444
 C201 C 0.16797 0.38413 -0.02662
 C202 C 0.14233 0.37043 -0.04182
 C203 C 0.16606 0.31650 -0.03201
 C204 C 0.19102 0.33127 -0.01639
 N205 N 0.19166 0.36459 -0.01412
 H206 H 0.25449 0.37677 0.07264
 H207 H 0.26392 0.32907 -0.02514
 H208 H 0.31099 0.29515 -0.00932
 H209 H 0.30217 0.34655 0.08942
 H210 H 0.16846 0.41049 -0.02398
 H211 H 0.12369 0.38639 -0.05154
 H212 H 0.16580 0.28997 -0.03360
 H213 H 0.20946 0.31608 -0.00554
 C214 C 0.17587 0.43773 0.10866
 C215 C 0.27118 0.45600 -0.06644
 C216 C 0.14122 0.33623 -0.04471
 C217 C 0.31105 0.31801 0.04146
 C218 C 0.77764 0.10848 1.03115
 H219 H 0.79059 0.10513 1.00665
 C220 C 0.79119 0.09595 1.05968
 H221 H 0.81438 0.08243 1.05670
 C222 C 0.73168 0.13028 1.06452
 H223 H 0.70865 0.14405 1.06627
 C224 C 0.74441 0.11824 1.09381
 H225 H 0.73106 0.12309 1.11796
 N226 N 0.74851 0.12543 1.03405
 C227 C 0.71285 0.12346 0.93273
 H228 H 0.70768 0.14965 0.93134
 C229 C 0.70583 0.10225 0.90602
 H230 H 0.69452 0.11253 0.88463
 C231 C 0.73242 0.07879 0.96345
 H232 H 0.74261 0.06983 0.98602
 C233 C 0.72620 0.05654 0.93685
 H234 H 0.73206 0.03057 0.93913
 Zn235 Zn 0.73354 0.14448 0.99474
 N236 N 0.72584 0.11162 0.96079
 C237 C 0.78060 0.15962 0.94593
 N238 N 0.76654 0.16994 0.97680
 C239 C 0.77789 0.19539 0.99510
 C240 C 0.80351 0.21222 0.98174
 C241 C 0.80593 0.17563 0.93174
 C242 C 0.66692 0.15510 0.99654
 C243 C 0.63657 0.17031 1.00447
 C244 C 0.66102 0.21571 1.03162
 C245 C 0.69126 0.19976 1.02252
 N246 N 0.69369 0.16978 1.00547
 H247 H 0.77291 0.13832 0.93233
 H248 H 0.76755 0.20230 1.02027
 H249 H 0.81207 0.23264 0.99633
 H250 H 0.81676 0.16659 0.90726
 H251 H 0.66881 0.13086 0.98417
 H252 H 0.61582 0.15781 0.99708
 H253 H 0.65946 0.23882 1.04646
 H254 H 0.71259 0.21094 1.03002
 C255 C 0.71278 0.06825 0.90752
 C256 C 0.77478 0.10116 1.09169
 C257 C 0.63314 0.20057 1.02311
 C258 C 0.81753 0.20252 0.94940
 C259 C 0.32067 0.56816 0.54603
 H260 H 0.33325 0.56380 0.52143
 C261 C 0.33268 0.55336 0.57413
 H262 H 0.35471 0.53777 0.57119
 C263 C 0.27819 0.59607 0.58047
 H264 H 0.25791 0.61395 0.58314
 C265 C 0.28912 0.58134 0.60921
 H266 H 0.27716 0.58790 0.63383
 N267 N 0.29440 0.58970 0.54979
 C268 C 0.28123 0.59721 0.44280
 H269 H 0.29112 0.62072 0.43946
 C270 C 0.26888 0.58062 0.41532
 H271 H 0.26958 0.59128 0.39079
 C272 C 0.26457 0.55673 0.47971
 H273 H 0.26169 0.54845 0.50518
 C274 C 0.25120 0.53977 0.45307
 H275 H 0.23822 0.51826 0.45802
 Zn276 Zn 0.28497 0.61388 0.51170
 N277 N 0.27849 0.58531 0.47427
 C278 C 0.34515 0.62412 0.48155
 N279 N 0.32079 0.63879 0.50232
 C280 C 0.32367 0.66857 0.51853
 C281 C 0.35102 0.68576 0.51220
 C282 C 0.37314 0.64002 0.47521
 C283 C 0.22033 0.62276 0.52939
 C284 C 0.18958 0.63810 0.53328
 C285 C 0.21106 0.68834 0.51544
 C286 C 0.24159 0.67190 0.51180
 N287 N 0.24570 0.63977 0.51935
 H288 H 0.34298 0.59984 0.47012
 H289 H 0.30489 0.67893 0.53653
 H290 H 0.35284 0.70981 0.52449
 H291 H 0.39216 0.62826 0.45824
 H292 H 0.22401 0.59699 0.53423
 H293 H 0.16993 0.62412 0.54202
 H294 H 0.20809 0.71381 0.50913
 H295 H 0.26161 0.68458 0.50191
 C296 C 0.25262 0.55228 0.42069
 C297 C 0.31719 0.56053 0.60619
 C298 C 0.18456 0.67131 0.52619
 C299 C 0.37606 0.67131 0.49033
 C300 C 0.77948 0.92366 0.43303
 H301 H 0.76798 0.93526 0.45609
 C302 C 0.78695 0.94281 0.40566
 H303 H 0.78087 0.96904 0.40789
 C304 C 0.80146 0.87557 0.40195
 H305 H 0.80691 0.84926 0.40070
 C306 C 0.80916 0.89367 0.37401
 H307 H 0.82118 0.88118 0.35158
 N308 N 0.78624 0.89056 0.43042
 C309 C 0.76634 0.87777 0.53538
 H310 H 0.78694 0.86070 0.53698
 C311 C 0.74978 0.89069 0.56522
 H312 H 0.75816 0.88346 0.58932
 C313 C 0.72864 0.90504 0.50215
 H314 H 0.71990 0.90957 0.47748
 C315 C 0.71161 0.91888 0.53133
 H316 H 0.69042 0.93496 0.52863
 Zn317 Zn 0.77421 0.86205 0.46472
 N318 N 0.75551 0.88496 0.50462
 C319 C 0.83542 0.85466 0.48722
 N320 N 0.81168 0.83709 0.47517
 C321 C 0.81510 0.80375 0.47123
 C322 C 0.84302 0.78674 0.48080
 C323 C 0.86339 0.83873 0.49751
 C324 C 0.73136 0.83999 0.41754
 C325 C 0.70500 0.82404 0.40701
 C326 C 0.70136 0.79874 0.46088
 C327 C 0.72819 0.81497 0.47030
 N328 N 0.74242 0.83533 0.44873
 H329 H 0.83208 0.88118 0.48988
 H330 H 0.79609 0.79033 0.46100
 H331 H 0.84526 0.76020 0.47758
 H332 H 0.88105 0.85341 0.50871
 H333 H 0.74201 0.85713 0.40117
 H334 H 0.69606 0.82890 0.38246
 H335 H 0.68990 0.78304 0.47845
 H336 H 0.73699 0.81228 0.49527
 C337 C 0.72174 0.91126 0.56351
 C338 C 0.80159 0.92771 0.37547
 C339 C 0.68940 0.80343 0.42890
 C340 C 0.86750 0.80423 0.49472
 C341 C -0.02988 0.29771 0.45641
 H342 H -0.01373 0.31588 0.44866
 C343 C -0.05824 0.30768 0.47522
 H344 H -0.06403 0.33361 0.48138
 C345 C -0.04327 0.24217 0.45580
 H346 H -0.03769 0.21681 0.44720
 C347 C -0.07204 0.25112 0.47468
 H348 H -0.08876 0.23267 0.48008
 N349 N -0.02368 0.26566 0.44580
 C350 C 0.06771 0.21825 0.40925
 H351 H 0.06442 0.21868 0.38234
 C352 C 0.09612 0.20451 0.42059
 H353 H 0.11460 0.19414 0.40216
 C354 C 0.04810 0.23318 0.46573
 H355 H 0.02945 0.24508 0.48297
 C356 C 0.07635 0.21965 0.47826
 H357 H 0.07908 0.22043 0.50533
 Zn358 Zn 0.00996 0.25477 0.41260
 N359 N 0.04457 0.23240 0.43173
 C360 C 0.05580 0.30065 0.40116
 N361 N 0.02517 0.29406 0.39503
 C362 C 0.00613 0.31555 0.37849
 C363 C 0.01856 0.34362 0.36530
 C364 C 0.06890 0.32854 0.38910
 C365 C -0.00427 0.19362 0.38427
 C366 C -0.01688 0.17124 0.36164
 C367 C -0.03077 0.21604 0.32647
 C368 C -0.01741 0.23751 0.34952
 N369 N -0.00504 0.22618 0.37816
 H370 H 0.07030 0.28452 0.41578
 H371 H -0.01874 0.31107 0.37559
 H372 H 0.00340 0.35968 0.35110
 H373 H 0.09324 0.33314 0.39480
 H374 H 0.00553 0.18507 0.40723
 H375 H -0.01692 0.14561 0.36747
 H376 H -0.04130 0.22558 0.30426
 H377 H -0.01768 0.26321 0.34466
 C378 C 0.10080 0.20522 0.45546
 C379 C -0.08033 0.28443 0.48312
 C380 C -0.03093 0.18252 0.33266
 C381 C 0.05063 0.35007 0.37004
 C382 C 1.01440 0.78255 0.08672
 H383 H 0.98972 0.79213 0.08633
 C384 C 1.03808 0.79591 0.06663
 H385 H 1.03124 0.81544 0.05039
 C386 C 1.05309 0.74610 0.10928
 H387 H 1.05886 0.72733 0.12670
 C388 C 1.07773 0.75912 0.08982
 H389 H 1.10233 0.75027 0.09259
 N390 N 1.02221 0.75837 0.10775
 C391 C 0.92932 0.71994 0.13152
 H392 H 0.92832 0.72287 0.15889
 C393 C 0.90484 0.70501 0.11533
 H394 H 0.88510 0.69639 0.13052
 C395 C 0.95737 0.72598 0.07874
 H396 H 0.97824 0.73337 0.06459
 C397 C 0.93339 0.71124 0.06151
 H398 H 0.93576 0.70827 0.03412
 Zn399 Zn 0.98854 0.74652 0.13765
 N400 N 0.95490 0.73009 0.11314
 C401 C 0.94455 0.79989 0.15966
 N402 N 0.97409 0.78534 0.16394
 C403 C 0.99522 0.80032 0.18347
 C404 C 0.98709 0.83144 0.19920
 C405 C 0.93561 0.83107 0.17458
 C406 C 1.01179 0.68318 0.14785
 C407 C 1.02023 0.65556 0.16556
 C408 C 1.00985 0.68842 0.21802
 C409 C 1.00134 0.71545 0.19924
 N410 N 1.00264 0.71235 0.16478
 H411 H 0.92839 0.78805 0.14339
 H412 H 1.01886 0.78859 0.18578
 H413 H 1.00450 0.84349 0.21378
 H414 H 0.91229 0.84265 0.17020
 H415 H 1.01214 0.68136 0.12045
 H416 H 1.02780 0.63265 0.15156
 H417 H 1.00855 0.69114 0.24544
 H418 H 0.99320 0.73865 0.21222
 C419 C 0.90681 0.70024 0.07985
 C420 C 1.07039 0.78498 0.06878
 C421 C 1.01926 0.65794 0.20112
 C422 C 0.95723 0.84749 0.19410
 C423 C 0.52330 0.27725 0.57548
 H424 H 0.49883 0.28716 0.57412
 C425 C 0.54827 0.29264 0.55939
 H426 H 0.54259 0.31375 0.54478
 C427 C 0.56029 0.23885 0.59781
 H428 H 0.56500 0.21885 0.61410
 C429 C 0.58605 0.25380 0.58252
 H430 H 0.61023 0.24485 0.58716
 N431 N 0.52967 0.25115 0.59461
 C432 C 0.43711 0.21036 0.61659
 H433 H 0.43791 0.20945 0.64382
 C434 C 0.41216 0.19664 0.60009
 H435 H 0.39401 0.18500 0.61487
 C436 C 0.46128 0.22460 0.56426
 H437 H 0.48087 0.23469 0.55027
 C438 C 0.43667 0.21134 0.54673
 H439 H 0.43732 0.21213 0.51939
 Zn440 Zn 0.49576 0.23770 0.62325
 N441 N 0.46110 0.22382 0.59859
 C442 C 0.45182 0.28686 0.65627
 N443 N 0.48293 0.27476 0.65257
 C444 C 0.50677 0.29145 0.66593
 C445 C 0.49985 0.32214 0.68289
 C446 C 0.44377 0.31708 0.67376
 C447 C 0.52012 0.17386 0.62775
 C448 C 0.53172 0.14563 0.64264
 C449 C 0.52178 0.17405 0.69768
 C450 C 0.51066 0.20204 0.68162
 N451 N 0.51045 0.20145 0.64722
 H452 H 0.43335 0.27368 0.64476
 H453 H 0.53136 0.28151 0.66210
 H454 H 0.51907 0.33561 0.69269
 H455 H 0.41900 0.32677 0.67607
 H456 H 0.51916 0.17402 0.60048
 H457 H 0.53978 0.12402 0.62668
 H458 H 0.52249 0.17486 0.72503
 H459 H 0.50238 0.22418 0.69654
 C460 C 0.41192 0.19661 0.56460
 C461 C 0.58024 0.28171 0.56382
 C462 C 0.53292 0.14560 0.67798
 C463 C 0.46805 0.33531 0.68666
 C464 C 0.45614 0.80626 0.91903
 H465 H 0.46935 0.82453 0.90660
 C466 C 0.42573 0.81515 0.93435
 H467 H 0.41609 0.84039 0.93400
 C468 C 0.45130 0.75089 0.93259
 H469 H 0.46051 0.72549 0.93007
 C470 C 0.42090 0.75878 0.94842
 H471 H 0.40726 0.73946 0.95851
 N472 N 0.46817 0.77445 0.91799
 C473 C 0.57013 0.75029 0.90420
 H474 H 0.57392 0.76535 0.88283
 C475 C 0.59652 0.73443 0.91796
 H476 H 0.62041 0.73773 0.90732
 C477 C 0.53450 0.72524 0.94205
 H478 H 0.51036 0.72101 0.95083
 C479 C 0.56021 0.70849 0.95618
 H480 H 0.55560 0.69178 0.97604
 Zn481 Zn 0.50549 0.76026 0.89014
 N482 N 0.53981 0.74501 0.91590
 C483 C 0.53116 0.82127 0.87917
 N484 N 0.51959 0.79463 0.86321
 C485 C 0.52022 0.79140 0.82879
 C486 C 0.53311 0.81531 0.80908
 C487 C 0.54460 0.84562 0.86041
 C488 C 0.50687 0.69366 0.86604
 C489 C 0.49349 0.66640 0.85123
 C490 C 0.45480 0.70329 0.82676
 C491 C 0.46826 0.72972 0.84292
 N492 N 0.49347 0.72448 0.86257
 H493 H 0.53094 0.82303 0.90656
 H494 H 0.51150 0.76988 0.81642
 H495 H 0.53331 0.81212 0.78174
 H496 H 0.55481 0.86587 0.87371
 H497 H 0.52683 0.68991 0.88187
 H498 H 0.50323 0.64212 0.85649
 H499 H 0.43469 0.70826 0.81134
 H500 H 0.45782 0.75444 0.84086
 C501 C 0.59159 0.71245 0.94352
 C502 C 0.40743 0.79109 0.94856
 C503 C 0.46643 0.67090 0.83204
 C504 C 0.54612 0.84263 0.82480
 C505 C 0.49891 -0.18575 0.37879
 C506 C 0.50752 -0.21732 0.36349
 C507 C 0.51266 -0.22017 0.32779
 C508 C 0.50400 -0.19384 0.30798
 C509 C 0.49266 -0.16325 0.32394
 C510 C 0.49136 -0.15913 0.35930
 C511 C 0.48141 -0.13778 0.30436
 C512 C 0.48019 -0.14297 0.26919
 C513 C 0.49244 -0.17294 0.25325
 C514 C 0.50489 -0.19806 0.27248
 H515 H 0.52261 -0.24289 0.31506
 H516 H 0.48336 -0.13563 0.37194
 H517 H 0.47140 -0.11474 0.31664
 H518 H 0.51351 -0.22135 0.25980
 H519 H 0.49673 -0.18208 0.40614
 H520 H 0.49118 -0.17728 0.22614
 C521 C 0.94198 0.32433 0.86614
 C522 C 0.96887 0.30305 0.85436
 C523 C 0.98716 0.31219 0.82551
 C524 C 0.97683 0.33957 0.80734
 C525 C 0.94859 0.35860 0.81881
 C526 C 0.93167 0.35102 0.84834
 C527 C 0.93769 0.38544 0.80103
 C528 C 0.95437 0.39405 0.77143
 C529 C 0.98301 0.37575 0.76033
 C530 C 0.99411 0.34862 0.77810
 H531 H 1.00938 0.29822 0.81739
 H532 H 0.91055 0.36608 0.85805
 H533 H 0.91610 0.39992 0.81046
 H534 H 1.01599 0.33463 0.76884
 H535 H 0.92869 0.32095 0.88979
 H536 H 0.99640 0.38203 0.73763
 C537 C 0.00524 1.21682 0.87840
 C538 C -0.00723 1.24153 0.85795
 C539 C -0.00937 1.23341 0.82297
 C540 C 0.00250 1.20213 0.80893
 C541 C 0.01525 1.17841 0.83026
 C542 C 0.01627 1.18594 0.86486
 C543 C 0.02721 1.14744 0.81679
 C544 C 0.02744 1.13951 0.78192
 C545 C 0.01500 1.16308 0.76052
 C546 C 0.00224 1.19401 0.77397
 H547 H -0.02037 1.25080 0.80669
 H548 H 0.02586 1.16798 0.88156
 H549 H 0.03741 1.12974 0.83343
 H550 H -0.00730 1.21172 0.75701
 H551 H 0.00668 1.22169 0.90541
 H552 H 0.01512 1.15752 0.73346
 C553 C 0.49475 0.71070 0.34315
 C554 C 0.51696 0.71952 0.36705
 C555 C 0.53943 0.69467 0.37626
 C556 C 0.54227 0.66369 0.35933
 C557 C 0.52218 0.65664 0.33281
 C558 C 0.49800 0.68008 0.32541
 C559 C 0.52669 0.62628 0.31432
 C560 C 0.55050 0.60280 0.32284
 C561 C 0.56921 0.60946 0.35037
 C562 C 0.56525 0.63974 0.36839
 H563 H 0.55475 0.69910 0.39692
 H564 H 0.48153 0.67471 0.30603
 H565 H 0.51208 0.62101 0.29320
 H566 H 0.58061 0.64467 0.38894
 H567 H 0.47526 0.72797 0.33757
 H568 H 0.58781 0.59163 0.35705
 C569 C 0.51217 0.25690 0.16589
 C570 C 0.48258 0.26568 0.15200
 C571 C 0.47196 0.29942 0.15402
 C572 C 0.48993 0.32316 0.16930
 C573 C 0.51932 0.31371 0.18295
 C574 C 0.53004 0.28046 0.18146
 C575 C 0.53790 0.33780 0.19692
 C576 C 0.52750 0.37131 0.19713
 C577 C 0.49795 0.38029 0.18381
 C578 C 0.47933 0.35647 0.17011
 H579 H 0.45048 0.30810 0.14242
 H580 H 0.55270 0.27272 0.19152
 H581 H 0.56049 0.33051 0.20740
 H582 H 0.45687 0.36418 0.15959
 H583 H 0.52187 0.23159 0.16385
 H584 H 0.48956 0.40589 0.18317
 C585 C -0.00175 0.82060 0.62551
 C586 C 0.01934 0.79225 0.62718
 C587 C 0.04054 0.79188 0.65379
 C588 C 0.04448 0.82051 0.67386
 C589 C 0.02624 0.84983 0.66834
 C590 C 0.00223 0.84921 0.64519
 C591 C 0.03303 0.87946 0.68514
 C592 C 0.05786 0.88020 0.70771
 C593 C 0.07387 0.85019 0.71517
 C594 C 0.06745 0.82073 0.69822
 H595 H 0.05569 0.76987 0.65715
 H596 H -0.01308 0.87109 0.64173
 H597 H 0.02025 0.90208 0.67892
 H598 H 0.08121 0.79831 0.70340
 H599 H -0.02107 0.82144 0.60856
 H600 H 0.09215 0.84950 0.73346
 C601 C 1.03366 0.70712 0.63024
 C602 C 1.01093 0.73287 0.62342
 C603 C 0.97975 0.73215 0.63885
 C604 C 0.96982 0.70358 0.65352
 C605 C 0.99221 0.67657 0.65638
 C606 C 1.02433 0.67927 0.64614
 C607 C 0.98195 0.64698 0.66835
 C608 C 0.94929 0.64364 0.67630
 C609 C 0.92732 0.67099 0.67451
 C610 C 0.93754 0.70082 0.66360
 H611 H 0.96244 0.75276 0.63662
 H612 H 1.04214 0.65937 0.64940
 H613 H 0.99904 0.62601 0.66961
 H614 H 0.91999 0.72126 0.66174
 H615 H 1.05885 0.70790 0.62301
 H616 H 0.90207 0.66907 0.68108
 C617 C 0.46166 0.20686 0.18604
 C618 C 0.45459 0.21094 0.15191
 C619 C 0.43624 0.18729 0.13620
 C620 C 0.43027 0.15804 0.15146
 C621 C 0.44038 0.15290 0.18432
 C622 C 0.45486 0.17802 0.20190
 C623 C 0.43659 0.12243 0.19852
 C624 C 0.42356 0.09693 0.17971
 C625 C 0.41274 0.10281 0.14744
 C626 C 0.41589 0.13315 0.13351
 H627 H 0.42938 0.19031 0.11044
 H628 H 0.46181 0.17499 0.22760
 H629 H 0.44485 0.11815 0.22351
 H630 H 0.40786 0.13682 0.10832
 H631 H 0.47291 0.22531 0.20075
 H632 H 0.40183 0.08381 0.13290
 C633 C 0.38479 0.49158 -0.15699
 C634 C 0.36781 0.50055 -0.18542
 C635 C 0.33422 0.50713 -0.18076
 C636 C 0.31790 0.49959 -0.15034
 C637 C 0.33553 0.48847 -0.12324
 C638 C 0.36894 0.48603 -0.12628
 C639 C 0.31962 0.47784 -0.09426
 C640 C 0.28627 0.47573 -0.09271
 C641 C 0.26854 0.48867 -0.11875
 C642 C 0.28425 0.50102 -0.14715
 H643 H 0.32046 0.51680 -0.20074
 H644 H 0.38281 0.47790 -0.10555
 H645 H 0.33349 0.46896 -0.07384
 H646 H 0.27021 0.50964 -0.16753
 H647 H 0.41065 0.48736 -0.15915
 H648 H 0.24277 0.48746 -0.11816
 C649 C 0.86659 1.03678 0.30062
 C650 C 0.86500 1.02374 0.26686
 C651 C 0.84625 0.99641 0.26200
 C652 C 0.83234 0.98107 0.28969
 C653 C 0.83557 0.99396 0.32298
 C654 C 0.85175 1.02241 0.32801
 C655 C 0.82409 0.97729 0.35085
 C656 C 0.81006 0.94726 0.34597
 C657 C 0.80597 0.93510 0.31269
 C658 C 0.81680 0.95196 0.28480
 H659 H 0.84455 0.98558 0.23664
 H660 H 0.85441 1.03266 0.35342
 H661 H 0.82773 0.98676 0.37633
 H662 H 0.81397 0.94167 0.25946
 H663 H 0.88056 1.05716 0.30703
 H664 H 0.79475 0.91226 0.30823
 C665 C 0.88570 0.06690 1.18343
 C666 C 0.86821 0.05150 1.20912
 C667 C 0.83449 0.05203 1.20751
 C668 C 0.81930 0.06532 1.17986
 C669 C 0.83766 0.07941 1.15407
 C670 C 0.87070 0.08067 1.15647
 C671 C 0.82286 0.09160 1.12590
 C672 C 0.78979 0.08953 1.12260
 C673 C 0.77151 0.07604 1.14871
 C674 C 0.78610 0.06415 1.17712
 H675 H 0.81981 0.04169 1.22701
 H676 H 0.88514 0.09154 1.13699
 H677 H 0.83720 0.10262 1.10642
 H678 H 0.77150 0.05346 1.19660
 H679 H 0.91154 0.06716 1.18362
 H680 H 0.74602 0.07399 1.14682
 C681 C 0.34140 0.49328 0.74078
 C682 C 0.36838 0.51036 0.74923
 C683 C 0.38069 0.53134 0.72499
 C684 C 0.36504 0.53772 0.69557
 C685 C 0.33646 0.52269 0.68907
 C686 C 0.32504 0.50014 0.71168
 C687 C 0.32045 0.53003 0.65972
 C688 C 0.33350 0.55142 0.63669
 C689 C 0.36236 0.56543 0.64309
 C690 C 0.37793 0.55881 0.67237
 H691 H 0.40317 0.54240 0.72825
 H692 H 0.30381 0.48737 0.70658
 H693 H 0.29823 0.51903 0.65459
 H694 H 0.40000 0.57032 0.67693
 H695 H 0.33286 0.47458 0.75680
 H696 H 0.37255 0.58206 0.62558
 C697 C 0.12529 0.53419 0.35483
 C698 C 0.13766 0.52316 0.32195
 C699 C 0.17125 0.51692 0.31660
 C700 C 0.19174 0.52384 0.34259
 C701 C 0.17862 0.53548 0.37496
 C702 C 0.14542 0.54023 0.38091
 C703 C 0.19892 0.54285 0.40078
 C704 C 0.23226 0.53985 0.39445
 C705 C 0.24535 0.52838 0.36229
 C706 C 0.22521 0.51988 0.33665
 H707 H 0.18183 0.50653 0.29260
 H708 H 0.13498 0.54901 0.40565
 H709 H 0.18882 0.55234 0.42547
 H710 H 0.23576 0.51111 0.31196
 H711 H 0.09966 0.53838 0.36021
 H712 H 0.27108 0.52633 0.35702
 C713 C 0.67713 0.03388 0.76170
 C714 C 0.66120 0.00508 0.76804
 C715 C 0.66624 -0.00927 0.79946
 C716 C 0.68099 0.00770 0.82545
 C717 C 0.69406 0.03786 0.81913
 C718 C 0.69327 0.04994 0.78679
 C719 C 0.70673 0.05609 0.84549
 C720 C 0.70487 0.04565 0.87888
 C721 C 0.69297 0.01486 0.88473
 C722 C 0.68156 -0.00416 0.85813
 H723 H 0.65757 -0.03301 0.80456
 H724 H 0.70409 0.07260 0.78119
 H725 H 0.71687 0.07915 0.84016
 H726 H 0.67167 -0.02733 0.86352
 H727 H 0.67708 0.04478 0.73754
 H728 H 0.69112 0.00608 0.91008
 C729 C 0.69462 0.96472 0.71319
 C730 C 0.66101 0.97043 0.71230
 C731 C 0.64657 0.96025 0.68238
 C732 C 0.66498 0.94703 0.65373
 C733 C 0.69862 0.94315 0.65453
 C734 C 0.71313 0.95144 0.68460
 C735 C 0.71715 0.93149 0.62513
 C736 C 0.70236 0.92340 0.59493
 C737 C 0.66869 0.92656 0.59498
 C738 C 0.65022 0.93837 0.62400
 H739 H 0.62077 0.96384 0.68120
 H740 H 0.73892 0.94817 0.68584
 H741 H 0.74304 0.92944 0.62562
 H742 H 0.62436 0.94091 0.62311
 H743 H 0.70703 0.97113 0.73556
 H744 H 0.65645 0.91963 0.57261
 C745 C 0.15015 0.52532 0.24224
 C746 C 0.12976 0.50453 0.25943
 C747 C 0.12162 0.47577 0.24142
 C748 C 0.13539 0.46664 0.20908
 C749 C 0.15627 0.48730 0.19266
 C750 C 0.16334 0.51677 0.20942
 C751 C 0.16929 0.47823 0.15968
 C752 C 0.16211 0.44832 0.14335
 C753 C 0.14192 0.42771 0.16076
 C754 C 0.12834 0.43699 0.19295
 H755 H 0.10389 0.46038 0.25175
 H756 H 0.17901 0.53325 0.19715
 H757 H 0.18461 0.49459 0.14676
 H758 H 0.11268 0.42064 0.20546
 H759 H 0.15577 0.54843 0.25436
 H760 H 0.13682 0.40397 0.14978
 C761 C -0.20831 0.35996 0.46315
 C762 C -0.22650 0.35061 0.49199
 C763 C -0.21062 0.33035 0.51477
 C764 C -0.17853 0.31819 0.50760
 C765 C -0.16168 0.32755 0.47811
 C766 C -0.17673 0.34829 0.45617
 C767 C -0.12970 0.31655 0.47105
 C768 C -0.11390 0.29579 0.49271
 C769 C -0.13062 0.28565 0.52170
 C770 C -0.16272 0.29712 0.52934
 H771 H -0.22314 0.32443 0.53816
 H772 H -0.16382 0.35615 0.43380
 H773 H -0.11701 0.32388 0.44827
 H774 H -0.17516 0.28945 0.55205
 H775 H -0.21782 0.37753 0.44612
 H776 H -0.11875 0.26928 0.53849
 C777 C 0.27121 0.85496 0.93929
 C778 C 0.25729 0.84674 0.97106
 C779 C 0.27644 0.82643 0.99116
 C780 C 0.30832 0.81593 0.98045
 C781 C 0.32127 0.82521 0.94893
 C782 C 0.30230 0.84391 0.92829
 C783 C 0.35343 0.81674 0.93887
 C784 C 0.37331 0.79907 0.95987
 C785 C 0.36024 0.78889 0.99083
 C786 C 0.32800 0.79738 1.00112
 H787 H 0.26709 0.82050 1.01605
 H788 H 0.31204 0.85142 0.90414
 H789 H 0.36311 0.82408 0.91460
 H790 H 0.31862 0.78989 1.02541
 H791 H 0.25933 0.87168 0.92305
 H792 H 0.37514 0.77498 1.00731
 C793 C 1.20247 0.80752 -0.00455
 C794 C 1.19908 0.84219 -0.00227
 C795 C 1.16938 0.85744 0.01080
 C796 C 1.14486 0.83921 0.02361
 C797 C 1.14904 0.80464 0.02279
 C798 C 1.17776 0.78899 0.00808
 C799 C 1.12454 0.78659 0.03702
 C800 C 1.09611 0.80298 0.05201
 C801 C 1.09253 0.83747 0.05224
 C802 C 1.11653 0.85536 0.03807
 H803 H 1.16599 0.88405 0.01237
 H804 H 1.18125 0.76243 0.00664
 H805 H 1.12759 0.76002 0.03654
 H806 H 1.11315 0.88193 0.03900
 H807 H 1.22404 0.79448 -0.01580
 H808 H 1.07137 0.85086 0.06424
 C809 C 0.71811 0.30968 0.51054
 C810 C 0.71405 0.34433 0.51366
 C811 C 0.68339 0.35878 0.52455
 C812 C 0.65815 0.33967 0.53364
 C813 C 0.66278 0.30511 0.53128
 C814 C 0.69285 0.29036 0.51961
 C815 C 0.63717 0.28605 0.54039
 C816 C 0.60710 0.30128 0.55209
 C817 C 0.60310 0.33581 0.55429
 C818 C 0.62827 0.35478 0.54500
 H819 H 0.67930 0.38533 0.52584
 H820 H 0.69673 0.26384 0.51701
 H821 H 0.64064 0.25948 0.53829
 H822 H 0.62445 0.38132 0.54711
 H823 H 0.74028 0.29722 0.50009
 H824 H 0.58064 0.34835 0.56404
 C825 C 0.27990 0.14091 0.54089
 C826 C 0.28836 0.12250 0.50998
 C827 C 0.32068 0.12321 0.49709
 C828 C 0.34255 0.14246 0.51299
 C829 C 0.33301 0.16122 0.54311
 C830 C 0.30159 0.16027 0.55685
 C831 C 0.35539 0.17963 0.55953
 C832 C 0.38738 0.17922 0.54625
 C833 C 0.39638 0.16058 0.51598
 C834 C 0.37422 0.14247 0.49950
 H835 H 0.33001 0.10802 0.47522
 H836 H 0.29397 0.17380 0.58049
 H837 H 0.34799 0.19402 0.58273
 H838 H 0.38203 0.12803 0.47645
 H839 H 0.25664 0.13912 0.55380
 H840 H 0.42089 0.15917 0.50545
 C841 C 0.77036 0.65985 0.05060
 C842 C 0.77882 0.63831 0.02197
 C843 C 0.81179 0.63223 0.01226
 C844 C 0.83511 0.64897 0.02885
 C845 C 0.82589 0.67149 0.05643
 C846 C 0.79347 0.67653 0.06728
 C847 C 0.84929 0.68832 0.07289
 C848 C 0.88191 0.68286 0.06218
 C849 C 0.89076 0.66019 0.03480
 C850 C 0.86762 0.64341 0.01832
 H851 H 0.81977 0.61421 -0.00790
 H852 H 0.78596 0.69332 0.08874
 H853 H 0.84206 0.70588 0.09381
 H854 H 0.87516 0.62605 -0.00266
 H855 H 0.74551 0.66412 0.05977
 H856 H 0.91572 0.65501 0.02642
 C857 C 0.72725 0.67808 0.99216
 C858 C 0.72496 0.64376 0.99342
 C859 C 0.69723 0.63035 0.98137
 C860 C 0.67119 0.65061 0.97230
 C861 C 0.67340 0.68496 0.97264
 C862 C 0.70173 0.69837 0.98205
 C863 C 0.64730 0.70524 0.96336
 C864 C 0.61879 0.69154 0.95459
 C865 C 0.61673 0.65736 0.95479
 C866 C 0.64281 0.63703 0.96330
 H867 H 0.69553 0.60394 0.98047
 H868 H 0.70413 0.72461 0.98171
 H869 H 0.64899 0.73161 0.96324
 H870 H 0.64072 0.61071 0.96298
 H871 H 0.74885 0.68953 0.99838
 H872 H 0.59512 0.64632 0.94760
 C873 C 0.21614 0.10416 0.45539
 C874 C 0.23342 0.11876 0.48154
 C875 C 0.22051 0.14972 0.49585
 C876 C 0.19080 0.16363 0.48654
 C877 C 0.17408 0.14739 0.46151
 C878 C 0.18720 0.11805 0.44573
 C879 C 0.14451 0.16078 0.45225
 C880 C 0.13116 0.19065 0.46742
 C881 C 0.14761 0.20681 0.49263
 C882 C 0.17729 0.19345 0.50204
 H883 H 0.23272 0.16377 0.51402
 H884 H 0.17487 0.10548 0.42606
 H885 H 0.13179 0.14785 0.43314
 H886 H 0.18965 0.20644 0.52137
 H887 H 0.22458 0.08106 0.44232
 H888 H 0.13788 0.23008 0.50447
 C889 C 0.63549 0.03382 0.69640
 C890 C 0.62072 0.01870 0.72432
 C891 C 0.58975 0.03223 0.73620
 C892 C 0.57532 0.06011 0.72205
 C893 C 0.59108 0.07423 0.69452
 C894 C 0.62091 0.06068 0.68169
 C895 C 0.57697 0.10197 0.68036
 C896 C 0.54732 0.11640 0.69366
 C897 C 0.53176 0.10263 0.72138
 C898 C 0.54550 0.07450 0.73527
 H899 H 0.57621 0.02193 0.75633
 H900 H 0.63342 0.07130 0.66061
 H901 H 0.58933 0.11273 0.65925
 H902 H 0.53294 0.06418 0.75649
 H903 H 0.65925 0.02547 0.68602
 H904 H 0.50877 0.11335 0.73189
 C905 C 1.10012 0.57895 0.29858
 C906 C 1.09227 0.54703 0.28777
 C907 C 1.06803 0.54450 0.26447
 C908 C 1.05341 0.57260 0.25119
 C909 C 1.06223 0.60405 0.26193
 C910 C 1.08489 0.60694 0.28631
 C911 C 1.04969 0.63201 0.24670
 C912 C 1.02903 0.62890 0.22014
 C913 C 1.01955 0.59757 0.21037
 C914 C 1.03145 0.56969 0.22592
 H915 H 1.06214 0.52042 0.25497
 H916 H 1.09215 0.63089 0.29460
 H917 H 1.05745 0.65598 0.25418
 H918 H 1.02431 0.54577 0.21739
 H919 H 1.11936 0.58289 0.31504
 H920 H 1.00326 0.59462 0.19029
 C921 C 0.90315 0.99095 0.18676
 C922 C 0.90539 1.00182 0.22114
 C923 C 0.92046 0.97943 0.24261
 C924 C 0.93142 0.94738 0.23064
 C925 C 0.92788 0.93732 0.19652
 C926 C 0.91448 0.95948 0.17472
 C927 C 0.93683 0.90490 0.18485
 C928 C 0.94934 0.88203 0.20681
 C929 C 0.95387 0.89237 0.24052
 C930 C 0.94486 0.92478 0.25240
 H931 H 0.92211 0.98651 0.26920
 H932 H 0.91158 0.95206 0.14844
 H933 H 0.93381 0.89731 0.15862
 H934 H 0.94788 0.93198 0.27869
 H935 H 0.89131 1.00566 0.16872
 H936 H 0.96361 0.87515 0.25786
 C937 C 0.39168 0.43885 0.78286
 C938 C 0.40444 0.46758 0.77045
 C939 C 0.42865 0.46336 0.74388
 C940 C 0.44026 0.43175 0.73109
 C941 C 0.42686 0.40378 0.74412
 C942 C 0.40296 0.40762 0.77021
 C943 C 0.43664 0.37235 0.73000
 C944 C 0.46003 0.36830 0.70316
 C945 C 0.47429 0.39597 0.69105
 C946 C 0.46433 0.42753 0.70477
 H947 H 0.43769 0.48471 0.73239
 H948 H 0.39214 0.38642 0.78015
 H949 H 0.42573 0.35100 0.73952
 H950 H 0.47506 0.44859 0.69445
 H951 H 0.37166 0.44002 0.80145
 H952 H 0.49236 0.39322 0.67024
 C953 C 0.44340 0.52524 0.79091
 C954 C 0.40995 0.52980 0.78827
 C955 C 0.39520 0.56169 0.79515
 C956 C 0.41301 0.58837 0.80316
 C957 C 0.44655 0.58382 0.80448
 C958 C 0.46153 0.55210 0.79837
 C959 C 0.46426 0.61094 0.81266
 C960 C 0.44858 0.64234 0.82048
 C961 C 0.41499 0.64602 0.81933
 C962 C 0.39749 0.61947 0.81039
 H963 H 0.36940 0.56561 0.79421
 H964 H 0.48721 0.54797 0.79998
 H965 H 0.49009 0.60746 0.81312
 H966 H 0.37166 0.62316 0.80984
 H967 H 0.45568 0.50110 0.78792
 H968 H 0.40184 0.66928 0.82631
 C969 C -0.05674 0.05234 0.25422
 C970 C -0.08970 0.05975 0.25010
 C971 C -0.10245 0.09211 0.25954
 C972 C -0.08394 0.11520 0.27505
 C973 C -0.05176 0.10644 0.28133
 C974 C -0.03819 0.07525 0.27005
 C975 C -0.03402 0.12881 0.29938
 C976 C -0.04810 0.15995 0.31075
 C977 C -0.07972 0.16882 0.30299
 C978 C -0.09753 0.14661 0.28543
 H979 H -0.12755 0.09877 0.25637
 H980 H -0.01328 0.06836 0.27391
 H981 H -0.00953 0.12191 0.30502
 H982 H -0.12218 0.15375 0.28064
 H983 H -0.04493 0.02883 0.24596
 H984 H -0.09109 0.19256 0.31170
 C985 C 0.06178 0.49197 0.32120
 C986 C 0.09449 0.48816 0.30995
 C987 C 0.11155 0.45800 0.31503
 C988 C 0.09620 0.43164 0.32804
 C989 C 0.06335 0.43545 0.33847
 C990 C 0.04643 0.46587 0.33526
 C991 C 0.04823 0.40885 0.35212
 C992 C 0.06563 0.37841 0.35486
 C993 C 0.09814 0.37499 0.34325
 C994 C 0.11332 0.40139 0.33039
 H995 H 0.13694 0.45483 0.30761
 H996 H 0.02129 0.46947 0.34357
 H997 H 0.02324 0.41204 0.36104
 H998 H 0.13846 0.39801 0.32198
 H999 H 0.04797 0.51510 0.31981
 H1000 H 0.11198 0.35172 0.34390
 C1001 C 0.59794 0.97660 0.78869
 C1002 C 0.61670 0.96594 0.75872
 C1003 C 0.61648 0.93213 0.74841
 C1004 C 0.59802 0.91059 0.76642
 C1005 C 0.57920 0.92220 0.79573
 C1006 C 0.57919 0.95533 0.80651
 C1007 C 0.56162 0.90024 0.81435
 C1008 C 0.56297 0.86657 0.80419
 C1009 C 0.58173 0.85547 0.77472
 C1010 C 0.59892 0.87722 0.75599
 H1011 H 0.63150 0.92140 0.72718
 H1012 H 0.56547 0.96465 0.82941
 H1013 H 0.54712 0.90933 0.83683
 H1014 H 0.61341 0.86778 0.73364
 H1015 H 0.59899 1.00135 0.79949
 H1016 H 0.58390 0.82970 0.76653
 C1017 C 0.75981 0.57091 0.04264
 C1018 C 0.73981 0.59718 0.03195
 C1019 C 0.71002 0.60448 0.05033
 C1020 C 0.69902 0.58426 0.07533
 C1021 C 0.71854 0.55693 0.08424
 C1022 C 0.74915 0.55074 0.06803
 C1023 C 0.70713 0.53670 0.10946
 C1024 C 0.67623 0.54343 0.12525
 C1025 C 0.65733 0.57096 0.11619
 C1026 C 0.66863 0.59123 0.09162
 H1027 H 0.69515 0.62633 0.04600
 H1028 H 0.76489 0.53037 0.07501
 H1029 H 0.72195 0.51563 0.11642
 H1030 H 0.65347 0.61228 0.08520
 H1031 H 0.78377 0.56584 0.03100
 H1032 H 0.63379 0.57707 0.12850
 C1033 C 0.22572 1.05613 0.51361
 C1034 C 0.25248 1.07457 0.51974
 C1035 C 0.26624 1.07091 0.55145
 C1036 C 0.24948 1.05672 0.57817
 C1037 C 0.22014 1.04301 0.57241
 C1038 C 0.20951 1.04107 0.53963
 C1039 C 0.20132 1.03246 0.59961
 C1040 C 0.21125 1.03555 0.63294
 C1041 C 0.24152 1.04740 0.63818
 C1042 C 0.26052 1.05777 0.61102
 H1043 H 0.28898 1.08073 0.55638
 H1044 H 0.18787 1.02907 0.53434
 H1045 H 0.17803 1.02371 0.59486
 H1046 H 0.28321 1.06784 0.61594
 H1047 H 0.21615 1.05398 0.48903
 H1048 H 0.25029 1.04926 0.66338
 C1049 C 0.19876 0.86916 0.93110
 C1050 C 0.20976 0.88607 0.95983
 C1051 C 0.20542 0.92079 0.96214
 C1052 C 0.19318 0.93790 0.93504
 C1053 C 0.18447 0.92015 0.90578
 C1054 C 0.18665 0.88590 0.90441
 C1055 C 0.17387 0.93683 0.87808
 C1056 C 0.17143 0.97124 0.87898
 C1057 C 0.17887 0.98901 0.90848
 C1058 C 0.18988 0.97244 0.93629
 H1059 H 0.21167 0.93469 0.98447
 H1060 H 0.17956 0.87197 0.88236
 H1061 H 0.16741 0.92302 0.85563
 H1062 H 0.19614 0.98660 0.95855
 H1063 H 0.20097 0.84256 0.92874
 H1064 H 0.17679 1.01562 0.90969
 C1065 C 0.72272 0.35764 0.44159
 C1066 C 0.72543 0.38069 0.46901
 C1067 C 0.71455 0.41373 0.46526
 C1068 C 0.70310 0.42348 0.43417
 C1069 C 0.70212 0.39997 0.40687
 C1070 C 0.71169 0.36716 0.41095
 C1071 C 0.69115 0.40933 0.37584
 C1072 C 0.67997 0.44189 0.37150
 C1073 C 0.68097 0.46534 0.39869
 C1074 C 0.69255 0.45624 0.42971
 H1075 H 0.71475 0.43179 0.48618
 H1076 H 0.71066 0.34876 0.39040
 H1077 H 0.69123 0.39106 0.35500
 H1078 H 0.69293 0.47473 0.45027
 H1079 H 0.73020 0.33197 0.44371
 H1080 H 0.67213 0.49057 0.39628
 C1081 C 0.73675 0.38970 0.56403
 C1082 C 0.74559 0.39392 0.52948
 C1083 C 0.76614 0.41916 0.52221
 C1084 C 0.77853 0.43821 0.54839
 C1085 C 0.76937 0.43316 0.58252
 C1086 C 0.74778 0.40955 0.58994
 C1087 C 0.78354 0.45020 0.60880
 C1088 C 0.80778 0.47137 0.60149
 C1089 C 0.81625 0.47694 0.56747
 C1090 C 0.80148 0.46081 0.54113
 H1091 H 0.77431 0.42239 0.49620
 H1092 H 0.74089 0.40501 0.61602
 H1093 H 0.77722 0.44534 0.63495
 H1094 H 0.80892 0.46503 0.51513
 H1095 H 0.72274 0.36983 0.57182
 H1096 H 0.83477 0.49334 0.56129
 C1097 C 0.22656 -0.12280 0.05180
 C1098 C 0.23594 -0.11489 0.01828
 C1099 C 0.26024 -0.09256 0.01445
 C1100 C 0.27544 -0.08002 0.04269
 C1101 C 0.26594 -0.08928 0.07547
 C1102 C 0.24093 -0.10977 0.07978
 C1103 C 0.28277 -0.07947 0.10338
 C1104 C 0.30922 -0.06065 0.09904
 C1105 C 0.31801 -0.05024 0.06677
 C1106 C 0.30116 -0.05984 0.03869
 H1107 H 0.26873 -0.08671 -0.01078
 H1108 H 0.23357 -0.11725 0.10479
 H1109 H 0.27612 -0.08752 0.12838
 H1110 H 0.30887 -0.05239 0.01379
 H1111 H 0.20946 -0.14074 0.05719
 H1112 H 0.33853 -0.03570 0.06318
 C1113 C 0.28739 0.10027 0.43287
 C1114 C 0.28084 0.08134 0.46116
 C1115 C 0.28769 0.04693 0.45740
 C1116 C 0.29890 0.03197 0.42573
 C1117 C 0.30401 0.05157 0.39773
 C1118 C 0.29878 0.08564 0.40173
 C1119 C 0.31423 0.03688 0.36597
 C1120 C 0.31971 0.00268 0.36147
 C1121 C 0.31517 -0.01681 0.38943
 C1122 C 0.30470 -0.00228 0.42130
 H1123 H 0.28374 0.03159 0.47855
 H1124 H 0.30292 0.10102 0.38058
 H1125 H 0.31849 0.05218 0.34475
 H1126 H 0.30104 -0.01781 0.44240
 H1127 H 0.28283 0.12674 0.43492
 H1128 H 0.31952 -0.04326 0.38651
 C1129 C 0.76372 0.56770 0.96333
 C1130 C 0.76546 0.60173 0.97079
 C1131 C 0.77776 0.62070 0.94477
 C1132 C 0.78923 0.60631 0.91324
 C1133 C 0.78946 0.57201 0.90710
 C1134 C 0.77634 0.55296 0.93224
 C1135 C 0.80275 0.55751 0.87597
 C1136 C 0.81510 0.57714 0.85058
 C1137 C 0.81271 0.61154 0.85664
 C1138 C 0.80043 0.62588 0.88774
 H1139 H 0.77848 0.64703 0.94929
 H1140 H 0.77539 0.52667 0.92767
 H1141 H 0.80417 0.53101 0.87201
 H1142 H 0.79969 0.65237 0.89181
 H1143 H 0.75240 0.55215 0.98101
 H1144 H 0.82051 0.62764 0.83737
 C1145 C 0.07936 0.77424 0.58643
 C1146 C 0.05321 0.75440 0.58269
 C1147 C 0.05810 0.72591 0.56077
 C1148 C 0.08899 0.71443 0.54830
 C1149 C 0.11543 0.73267 0.55577
 C1150 C 0.11016 0.76325 0.57351
 C1151 C 0.14671 0.71941 0.54665
 C1152 C 0.15181 0.68777 0.53075
 C1153 C 0.12517 0.67076 0.52163
 C1154 C 0.09404 0.68401 0.53022
 H1155 H 0.03807 0.71114 0.55598
 H1156 H 0.13000 0.77821 0.57836
 H1157 H 0.16701 0.73281 0.55381
 H1158 H 0.07399 0.66986 0.52392
 H1159 H 0.07658 0.79798 0.59992
 H1160 H 0.12843 0.64673 0.50857
 C1161 C 0.50192 0.19190 1.09824
 C1162 C 0.49183 0.22582 1.10231
 C1163 C 0.51055 0.24786 1.08435
 C1164 C 0.53983 0.23678 1.06671
 C1165 C 0.54933 0.20296 1.06456
 C1166 C 0.52963 0.18077 1.07913
 C1167 C 0.57925 0.19170 1.04949
 C1168 C 0.60070 0.21368 1.03674
 C1169 C 0.59117 0.24745 1.03846
 C1170 C 0.56081 0.25888 1.05301
 H1171 H 0.50380 0.27398 1.08676
 H1172 H 0.53671 0.15469 1.07764
 H1173 H 0.58647 0.16570 1.04928
 H1174 H 0.55417 0.28502 1.05447
 H1175 H 0.49022 0.17309 1.11118
 H1176 H 0.60719 0.26494 1.02865
 C1177 C 0.95155 0.25960 0.93380
 C1178 C 0.95135 0.26408 0.89864
 C1179 C 0.92401 0.25559 0.88174
 C1180 C 0.89715 0.24483 0.89923
 C1181 C 0.89746 0.24066 0.93440
 C1182 C 0.92483 0.24814 0.95146
 C1183 C 0.87080 0.22811 0.95143
 C1184 C 0.84414 0.21971 0.93340
 C1185 C 0.84385 0.22550 0.89869
 C1186 C 0.87011 0.23775 0.88175
 H1187 H 0.92371 0.25764 0.85453
 H1188 H 0.92577 0.24467 0.97837
 H1189 H 0.87134 0.22365 0.97818
 H1190 H 0.86944 0.24125 0.85481
 H1191 H 0.97252 0.26390 0.94765
 H1192 H 0.82338 0.21989 0.88441
 C1193 C 0.45328 0.76362 0.40612
 C1194 C 0.48439 0.75021 0.41205
 C1195 C 0.48716 0.72715 0.43741
 C1196 C 0.45985 0.71615 0.45436
 C1197 C 0.42911 0.72963 0.44750
 C1198 C 0.42622 0.75416 0.42427
 C1199 C 0.40166 0.71654 0.46185
 C1200 C 0.40461 0.68909 0.48161
 C1201 C 0.43516 0.67628 0.48911
 C1202 C 0.46262 0.69010 0.47608
 H1203 H 0.51050 0.71565 0.44185
 H1204 H 0.40278 0.76439 0.41833
 H1205 H 0.37804 0.72604 0.45560
 H1206 H 0.48599 0.67931 0.48152
 H1207 H 0.44910 0.77991 0.38590
 H1208 H 0.43770 0.65497 0.50422
 C1209 C 0.54582 0.77370 0.43686
 C1210 C 0.54466 0.76134 0.40303
 C1211 C 0.57326 0.75903 0.38215
 C1212 C 0.60227 0.76755 0.39465
 C1213 C 0.60318 0.77974 0.42855
 C1214 C 0.57483 0.78258 0.44950
 C1215 C 0.63217 0.79000 0.44038
 C1216 C 0.65998 0.78844 0.41844
 C1217 C 0.65884 0.77508 0.38516
 C1218 C 0.63026 0.76473 0.37336
 H1219 H 0.57274 0.75065 0.35576
 H1220 H 0.57497 0.79228 0.47548
 H1221 H 0.63275 0.80056 0.46600
 H1222 H 0.62992 0.75514 0.34736
 H1223 H 0.52432 0.77744 0.45340
 H1224 H 0.68004 0.77326 0.36800
 C1225 C 0.00065 0.31420 -0.07780
 C1226 C 0.00748 0.28898 -0.10338
 C1227 C 0.04014 0.28022 -0.11301
 C1228 C 0.06484 0.29371 -0.09575
 C1229 C 0.05747 0.31814 -0.06953
 C1230 C 0.02528 0.32841 -0.06092
 C1231 C 0.08249 0.33208 -0.05280
 C1232 C 0.11466 0.32128 -0.06163
 C1233 C 0.12155 0.29658 -0.08741
 C1234 C 0.09689 0.28312 -0.10454
 H1235 H 0.04680 0.26300 -0.13430
 H1236 H 0.01914 0.34749 -0.04119
 H1237 H 0.07702 0.35107 -0.03280
 H1238 H 0.10290 0.26434 -0.12463
 H1239 H -0.02390 0.32297 -0.07085
 H1240 H 0.14615 0.28817 -0.09477
 C1241 C 0.40867 0.26409 0.14002
 C1242 C 0.43484 0.25494 0.11649
 C1243 C 0.43044 0.25909 0.08172
 C1244 C 0.40084 0.27238 0.07117
 C1245 C 0.37514 0.28069 0.09536
 C1246 C 0.37931 0.27638 0.12963
 C1247 C 0.34566 0.29380 0.08519
 C1248 C 0.34146 0.30048 0.05112
 C1249 C 0.36717 0.29199 0.02705
 C1250 C 0.39640 0.27778 0.03692
 H1251 H 0.44967 0.25218 0.06282
 H1252 H 0.35991 0.28287 0.14856
 H1253 H 0.32607 0.29911 0.10412
 H1254 H 0.41577 0.27174 0.01786
 H1255 H 0.41109 0.26151 0.16689
 H1256 H 0.36510 0.29713 0.00066
 C1257 C 1.00175 0.79478 0.55175
 C1258 C 0.99669 0.76838 0.57280
 C1259 C 0.97064 0.74912 0.56608
 C1260 C 0.94691 0.76008 0.54477
 C1261 C 0.95073 0.78875 0.52695
 C1262 C 0.97902 0.80494 0.52927
 C1263 C 0.92569 0.80155 0.50831
 C1264 C 0.89608 0.78698 0.50855
 C1265 C 0.89321 0.75744 0.52501
 C1266 C 0.91854 0.74387 0.54252
 H1267 H 0.96773 0.72625 0.57804
 H1268 H 0.98281 0.82651 0.51508
 H1269 H 0.92883 0.82369 0.49487
 H1270 H 0.91522 0.72174 0.55594
 H1271 H 1.02248 0.80902 0.55447
 H1272 H 0.87083 0.74561 0.52594
   
