data_POSCAR
  _audit_creation_date              2014-09-24
  _audit_creation_method            'ToBaCCo'
  _symmetry_space_group_name_H-M    'P1'
  _symmetry_Int_Tables_number       1
  _symmetry_cell_setting            triclinic
  loop_
  _symmetry_equiv_pos_as_xyz
 x,y,z
_cell_length_a 53.4727
_cell_length_b 53.5229
_cell_length_c 53.2143
_cell_angle_alpha 89.986900
_cell_angle_beta 90.026400
_cell_angle_gamma 90.092300
loop_
  _atom_site_label
  _atom_site_type_symbol
  _atom_site_fract_x
  _atom_site_fract_y
  _atom_site_fract_z
O1 O 0.34085 0.37622 0.02426
 O2 O 0.37546 0.34236 -0.02494
 O3 O 0.34055 0.37645 -0.02454
 O4 O 0.37574 0.34214 0.02407
 O5 O 0.34676 0.31262 0.02405
 O6 O 0.31163 0.34687 -0.02448
 O7 O 0.34647 0.31285 -0.02487
 O8 O 0.31192 0.34663 0.02425
 Cu9 Cu 0.36111 0.36225 -0.00030
 Cu10 Cu 0.32631 0.32674 -0.00026
 C11 C 0.32045 0.36721 0.03241
 C12 C 0.36681 0.32185 -0.03316
 C13 C 0.32004 0.36753 -0.03257
 C14 C 0.36719 0.32155 0.03223
 O15 O 0.62871 0.66229 -0.02515
 O16 O 0.66188 0.62690 0.02393
 O17 O 0.62856 0.66247 0.02369
 O18 O 0.66197 0.62663 -0.02491
 O19 O 0.69220 0.65487 -0.02495
 O20 O 0.65880 0.69071 0.02363
 O21 O 0.69209 0.65516 0.02386
 O22 O 0.65898 0.69051 -0.02517
 Cu23 Cu 0.64223 0.64172 -0.00061
 Cu24 Cu 0.67857 0.67566 -0.00067
 C25 C 0.63818 0.68246 -0.03332
 C26 C 0.68265 0.63501 0.03208
 C27 C 0.63798 0.68271 0.03176
 C28 C 0.68280 0.63464 -0.03304
 O29 O 0.65862 0.37462 0.97706
 O30 O 0.62515 0.33976 1.02639
 O31 O 0.65913 0.37481 1.02615
 O32 O 0.62468 0.33962 0.97762
 O33 O 0.65437 0.31089 0.97748
 O34 O 0.68876 0.34604 1.02593
 O35 O 0.65485 0.31104 1.02618
 O36 O 0.68825 0.34583 0.97693
 Cu37 Cu 0.63894 0.36016 1.00184
 Cu38 Cu 0.67460 0.32561 1.00163
 C39 C 0.67905 0.36602 0.96861
 C40 C 0.63427 0.31940 1.03444
 C41 C 0.67976 0.36632 1.03426
 C42 C 0.63366 0.31924 0.96948
 O43 O 0.37958 0.65571 1.02397
 O44 O 0.34428 0.62182 0.97513
 O45 O 0.37946 0.65576 0.97503
 O46 O 0.34442 0.62186 1.02417
 O47 O 0.31576 0.65160 1.02416
 O48 O 0.35071 0.68541 0.97515
 O49 O 0.31562 0.65156 0.97524
 O50 O 0.35083 0.68537 1.02397
 Cu51 Cu 0.36481 0.63577 0.99955
 Cu52 Cu 0.33033 0.67145 0.99962
 C53 C 0.37117 0.67632 1.03215
 C54 C 0.32396 0.63098 0.96698
 C55 C 0.37104 0.67639 0.96690
 C56 C 0.32417 0.63104 1.03247
 O57 O 0.02590 0.34269 0.37706
 O58 O -0.02224 0.37673 0.34126
 O59 O -0.02288 0.34238 0.37606
 O60 O 0.02639 0.37717 0.34234
 O61 O 0.02711 0.34788 0.31305
 O62 O -0.02208 0.31315 0.34672
 O63 O -0.02143 0.34742 0.31198
 O64 O 0.02660 0.31347 0.34769
 Cu65 Cu 0.00173 0.36268 0.36217
 Cu66 Cu 0.00264 0.32751 0.32693
 C67 C 0.03434 0.32229 0.36839
 C68 C -0.02986 0.36785 0.32052
 C69 C -0.03080 0.32188 0.36707
 C70 C 0.03495 0.36845 0.32191
 O71 O 0.02188 0.66010 0.62647
 O72 O -0.02704 0.62465 0.65971
 O73 O -0.02678 0.65961 0.62559
 O74 O 0.02161 0.62517 0.66079
 O75 O 0.02078 0.65403 0.69051
 O76 O -0.02752 0.68840 0.65538
 O77 O -0.02780 0.65351 0.68945
 O78 O 0.02106 0.68891 0.65624
 Cu79 Cu -0.00247 0.63947 0.64013
 Cu80 Cu -0.00343 0.67411 0.67590
 C81 C 0.02961 0.68056 0.63567
 C82 C -0.03563 0.63309 0.68023
 C83 C -0.03527 0.67987 0.63454
 C84 C 0.02926 0.63373 0.68167
 O85 O 1.02365 0.62476 0.34053
 O86 O 0.97573 0.65937 0.37611
 O87 O 0.97496 0.62488 0.34140
 O88 O 1.02437 0.65873 0.37570
 O89 O 1.02423 0.68816 0.34653
 O90 O 0.97487 0.65431 0.31222
 O91 O 0.97567 0.68874 0.34686
 O92 O 1.02346 0.65426 0.31141
 Cu93 Cu 0.99968 0.63896 0.36138
 Cu94 Cu 0.99954 0.67432 0.32631
 C95 C 1.03157 0.63368 0.31991
 C96 C 0.96772 0.67999 0.36751
 C97 C 0.96666 0.63382 0.32096
 C98 C 1.03256 0.67923 0.36697
 O99 O 0.97682 0.33874 0.62612
 O100 O 1.02583 0.37303 0.66047
 O101 O 1.02541 0.33827 0.62609
 O102 O 0.97715 0.37325 0.66082
 O103 O 0.97705 0.34410 0.69028
 O104 O 1.02523 0.30921 0.65563
 O105 O 1.02568 0.34392 0.68997
 O106 O 0.97669 0.30963 0.65561
 Cu107 Cu 1.00130 0.35878 0.64041
 Cu108 Cu 1.00114 0.32380 0.67586
 C109 C 0.96862 0.31831 0.63497
 C110 C 1.03397 0.36430 0.68106
 C111 C 1.03336 0.31775 0.63495
 C112 C 0.96904 0.36461 0.68148
 O113 O 0.36998 0.02263 0.33666
 O114 O 0.33578 -0.02616 0.37133
 O115 O 0.37025 -0.02592 0.33659
 O116 O 0.33558 0.02239 0.37141
 O117 O 0.30628 0.02223 0.34206
 O118 O 0.34094 -0.02605 0.30726
 O119 O 0.30649 -0.02629 0.34197
 O120 O 0.34065 0.02247 0.30734
 Cu121 Cu 0.35586 -0.00177 0.35696
 Cu122 Cu 0.32063 -0.00194 0.32170
 C123 C 0.36113 0.03069 0.31608
 C124 C 0.31528 -0.03434 0.36257
 C125 C 0.36152 -0.03402 0.31597
 C126 C 0.31501 0.03037 0.36266
 O127 O 0.62336 0.02672 0.65628
 O128 O 0.65888 -0.02180 0.62253
 O129 O 0.62375 -0.02199 0.65662
 O130 O 0.65828 0.02680 0.62200
 O131 O 0.68709 0.02734 0.65183
 O132 O 0.65260 -0.02137 0.68640
 O133 O 0.68766 -0.02117 0.65239
 O134 O 0.65225 0.02723 0.68603
 Cu135 Cu 0.63814 0.00237 0.63636
 Cu136 Cu 0.67278 0.00306 0.67217
 C137 C 0.63182 0.03512 0.67690
 C138 C 0.67934 -0.02957 0.63173
 C139 C 0.63233 -0.02987 0.67740
 C140 C 0.67859 0.03521 0.63102
 O141 O 0.37440 0.97479 0.66028
 O142 O 0.34059 1.02337 0.62494
 O143 O 0.37456 1.02334 0.66016
 O144 O 0.34044 0.97467 0.62503
 O145 O 0.31080 0.97480 0.65399
 O146 O 0.34485 1.02340 0.68907
 O147 O 0.31095 1.02343 0.65391
 O148 O 0.34469 0.97493 0.68919
 Cu149 Cu 0.36048 0.99903 0.63965
 Cu150 Cu 0.32480 0.99914 0.67443
 C151 C 0.36532 0.96680 0.68079
 C152 C 0.32004 1.03157 0.63348
 C153 C 0.36552 1.03147 0.68063
 C154 C 0.31982 0.96656 0.63358
 O155 O 0.62364 0.97635 0.34358
 O156 O 0.65992 1.02477 0.37691
 O157 O 0.62412 1.02503 0.34344
 O158 O 0.65907 0.97613 0.37730
 O159 O 0.68738 0.97568 0.34702
 O160 O 0.65246 1.02452 0.31319
 O161 O 0.68818 1.02422 0.34658
 O162 O 0.65203 0.97594 0.31337
 Cu163 Cu 0.63882 1.00064 0.36336
 Cu164 Cu 0.67285 1.00006 0.32699
 C165 C 0.63174 0.96801 0.32281
 C166 C 0.68026 1.03256 0.36741
 C167 C 0.63234 1.03294 0.32253
 C168 C 0.67915 0.96770 0.36789
 C169 C 0.81265 0.81371 0.51385
 C170 C 0.81308 0.81321 0.48822
 C171 C 0.83119 0.79746 0.47425
 C172 C 0.79643 0.82941 0.47291
 C173 C 0.79713 0.83202 0.52781
 C174 C 0.82869 0.79690 0.52917
 C175 C 0.85701 0.79990 0.47837
 C176 C 0.87389 0.78491 0.46523
 C177 C 0.86529 0.76738 0.44753
 C178 C 0.83942 0.76529 0.44318
 C179 C 0.82255 0.78029 0.45634
 C180 C 0.80688 0.84560 0.45502
 C181 C 0.79171 0.86199 0.44147
 C182 C 0.76572 0.86244 0.44542
 C183 C 0.75517 0.84562 0.46276
 C184 C 0.77038 0.82919 0.47632
 C185 C 0.77981 0.82363 0.54571
 C186 C 0.76493 0.84070 0.55876
 C187 C 0.76730 0.86650 0.55431
 C188 C 0.78501 0.87485 0.53667
 C189 C 0.79987 0.85777 0.52364
 C190 C 0.82814 0.77087 0.52580
 C191 C 0.84444 0.75550 0.53934
 C192 C 0.86146 0.76588 0.55661
 C193 C 0.86134 0.79186 0.56051
 C194 C 0.84507 0.80718 0.54699
 H195 H 0.86406 0.81338 0.49180
 H196 H 0.89367 0.78684 0.46913
 H197 H 0.83226 0.75226 0.42936
 H198 H 0.80270 0.77836 0.45272
 H199 H 0.82690 0.84594 0.45196
 H200 H 0.80035 0.87437 0.42790
 H201 H 0.76190 0.81657 0.48976
 H202 H 0.77764 0.80384 0.54936
 H203 H 0.75176 0.83373 0.57254
 H204 H 0.78716 0.89457 0.53269
 H205 H 0.81347 0.86463 0.51022
 H206 H 0.81537 0.76253 0.51241
 H207 H 0.84416 0.73558 0.53584
 H208 H 0.87387 0.80036 0.57403
 H209 H 0.84567 0.82719 0.55001
 H210 H 0.73523 0.84559 0.46630
 C211 C 0.18712 0.18669 0.51335
 C212 C 0.18746 0.18651 0.48773
 C213 C 0.17143 0.20358 0.47277
 C214 C 0.20274 0.16827 0.47339
 C215 C 0.20380 0.17029 0.52837
 C216 C 0.16908 0.20228 0.52762
 C217 C 0.15478 0.19360 0.45504
 C218 C 0.13848 0.20918 0.44190
 C219 C 0.13860 0.23511 0.44611
 C220 C 0.15590 0.24519 0.46326
 C221 C 0.17223 0.22956 0.47642
 C222 C 0.19990 0.14247 0.47726
 C223 C 0.21413 0.12546 0.46346
 C224 C 0.23130 0.13390 0.44532
 C225 C 0.23386 0.15975 0.44128
 C226 C 0.21962 0.17675 0.45511
 C227 C 0.22983 0.17050 0.52480
 C228 C 0.24507 0.15393 0.53811
 C229 C 0.23456 0.13699 0.55535
 C230 C 0.20860 0.13743 0.55944
 C231 C 0.19340 0.15396 0.54614
 C232 C 0.17779 0.21917 0.54577
 C233 C 0.16097 0.23394 0.55928
 C234 C 0.13508 0.23189 0.55504
 C235 C 0.12641 0.21466 0.53707
 C236 C 0.14324 0.19991 0.52359
 H237 H 0.15399 0.17363 0.45182
 H238 H 0.12571 0.20093 0.42845
 H239 H 0.15636 0.26507 0.46696
 H240 H 0.18522 0.23765 0.48977
 H241 H 0.18661 0.13553 0.49095
 H242 H 0.21186 0.10569 0.46714
 H243 H 0.22183 0.19657 0.45165
 H244 H 0.23826 0.18324 0.51143
 H245 H 0.26499 0.15396 0.53449
 H246 H 0.20002 0.12494 0.57294
 H247 H 0.17339 0.15363 0.54931
 H248 H 0.19765 0.22104 0.54933
 H249 H 0.16819 0.24673 0.57328
 H250 H 0.10661 0.21277 0.53324
 H251 H 0.13612 0.18664 0.50998
 H252 H 0.24662 0.16681 0.42716
 C253 C 0.18577 0.81163 0.48825
 C254 C 0.18560 0.81154 0.51387
 C255 C 0.16747 0.79618 0.52828
 C256 C 0.20247 0.82796 0.52876
 C257 C 0.20135 0.82954 0.47382
 C258 C 0.16924 0.79491 0.47333
 C259 C 0.14164 0.79889 0.52450
 C260 C 0.12472 0.78434 0.53814
 C261 C 0.13332 0.76700 0.55601
 C262 C 0.15920 0.76464 0.56002
 C263 C 0.17611 0.77920 0.54635
 C264 C 0.19223 0.84447 0.54643
 C265 C 0.20757 0.86100 0.55963
 C266 C 0.23355 0.86128 0.55555
 C267 C 0.24389 0.84417 0.53841
 C268 C 0.22849 0.82760 0.52519
 C269 C 0.21823 0.82068 0.45576
 C270 C 0.23278 0.83738 0.44185
 C271 C 0.23051 0.86328 0.44559
 C272 C 0.21335 0.87210 0.46352
 C273 C 0.19881 0.85539 0.47741
 C274 C 0.16937 0.76891 0.47689
 C275 C 0.15289 0.75365 0.46338
 C276 C 0.13612 0.76412 0.44595
 C277 C 0.13658 0.79008 0.44195
 C278 C 0.15301 0.80528 0.45545
 H279 H 0.13460 0.81224 0.51095
 H280 H 0.10491 0.78646 0.53450
 H281 H 0.16636 0.75174 0.57394
 H282 H 0.19597 0.77710 0.54972
 H283 H 0.17222 0.84493 0.54960
 H284 H 0.19910 0.87361 0.57305
 H285 H 0.23681 0.81474 0.51191
 H286 H 0.22020 0.80079 0.45255
 H287 H 0.24553 0.83005 0.42789
 H288 H 0.21131 0.89194 0.46695
 H289 H 0.18553 0.86260 0.49094
 H290 H 0.18202 0.76049 0.49034
 H291 H 0.15291 0.73373 0.46694
 H292 H 0.12424 0.79865 0.42833
 H293 H 0.15273 0.82527 0.45227
 H294 H 0.26382 0.84401 0.53479
 C295 C 0.81467 0.18745 0.48429
 C296 C 0.81470 0.18767 0.50993
 C297 C 0.83252 0.20336 0.52443
 C298 C 0.79774 0.17133 0.52480
 C299 C 0.79926 0.16927 0.46995
 C300 C 0.83079 0.20460 0.46936
 C301 C 0.85841 0.20136 0.52059
 C302 C 0.87499 0.21620 0.53435
 C303 C 0.86601 0.23310 0.55244
 C304 C 0.84008 0.23474 0.55652
 C305 C 0.82351 0.21994 0.54270
 C306 C 0.80783 0.15498 0.54273
 C307 C 0.79234 0.13872 0.55612
 C308 C 0.76637 0.13857 0.55198
 C309 C 0.75619 0.15547 0.53451
 C310 C 0.77173 0.17176 0.52111
 C311 C 0.78201 0.17782 0.45207
 C312 C 0.76702 0.16088 0.43890
 C313 C 0.76919 0.13505 0.44321
 C314 C 0.78689 0.12653 0.46078
 C315 C 0.80187 0.14347 0.47392
 C316 C 0.83027 0.23056 0.47324
 C317 C 0.84645 0.24625 0.45988
 C318 C 0.86321 0.23632 0.44215
 C319 C 0.86316 0.21040 0.43784
 C320 C 0.84707 0.19474 0.45125
 H321 H 0.86576 0.18822 0.50700
 H322 H 0.89487 0.21416 0.53113
 H323 H 0.83259 0.24773 0.57017
 H324 H 0.80360 0.22161 0.54603
 H325 H 0.82782 0.15448 0.54601
 H326 H 0.80070 0.12628 0.56977
 H327 H 0.76352 0.18451 0.50764
 H328 H 0.77994 0.19764 0.44858
 H329 H 0.75386 0.16798 0.42519
 H330 H 0.78890 0.10678 0.46465
 H331 H 0.81539 0.13649 0.48735
 H332 H 0.81749 0.23862 0.48676
 H333 H 0.84575 0.26618 0.46332
 H334 H 0.87603 0.20214 0.42453
 H335 H 0.84777 0.17478 0.44794
 H336 H 0.73628 0.15572 0.53082
 C337 C 0.51466 0.81397 0.81257
 C338 C 0.48916 0.81351 0.81269
 C339 C 0.47432 0.83128 0.79736
 C340 C 0.47482 0.79623 0.82921
 C341 C 0.52948 0.79867 0.83041
 C342 C 0.52900 0.83082 0.79562
 C343 C 0.47752 0.85717 0.80011
 C344 C 0.46360 0.87375 0.78547
 C345 C 0.44602 0.86475 0.76801
 C346 C 0.44256 0.83881 0.76563
 C347 C 0.45651 0.82223 0.78029
 C348 C 0.45702 0.80596 0.84589
 C349 C 0.44418 0.79023 0.86238
 C350 C 0.44873 0.76436 0.86245
 C351 C 0.46605 0.75453 0.84520
 C352 C 0.47892 0.77032 0.82867
 C353 C 0.54760 0.78209 0.82130
 C354 C 0.56157 0.76751 0.83793
 C355 C 0.55782 0.76946 0.86401
 C356 C 0.53992 0.78642 0.87309
 C357 C 0.52597 0.80099 0.85645
 C358 C 0.52520 0.83060 0.76950
 C359 C 0.53810 0.84738 0.75403
 C360 C 0.55514 0.86459 0.76438
 C361 C 0.55939 0.86424 0.79046
 C362 C 0.54652 0.84749 0.80588
 H363 H 0.49087 0.86451 0.81353
 H364 H 0.46682 0.89361 0.78760
 H365 H 0.42887 0.83134 0.75264
 H366 H 0.45359 0.80232 0.77815
 H367 H 0.45343 0.82586 0.84650
 H368 H 0.43062 0.79832 0.87509
 H369 H 0.49230 0.76237 0.81567
 H370 H 0.55074 0.78029 0.80127
 H371 H 0.57550 0.75490 0.83041
 H372 H 0.53649 0.78821 0.89305
 H373 H 0.51238 0.81403 0.86385
 H374 H 0.51204 0.81763 0.76115
 H375 H 0.53434 0.84726 0.73403
 H376 H 0.57274 0.87691 0.79895
 H377 H 0.54987 0.84786 0.82595
 H378 H 0.47004 0.73471 0.84485
 C379 C 0.51125 0.18657 0.18792
 C380 C 0.48575 0.18650 0.18766
 C381 C 0.47112 0.16838 0.20282
 C382 C 0.47121 0.20346 0.17103
 C383 C 0.52585 0.20219 0.17018
 C384 C 0.52584 0.16997 0.20487
 C385 C 0.47479 0.14257 0.20003
 C386 C 0.46087 0.12567 0.21431
 C387 C 0.44284 0.13426 0.23147
 C388 C 0.43897 0.16012 0.23393
 C389 C 0.45291 0.17701 0.21963
 C390 C 0.45378 0.19334 0.15414
 C391 C 0.44082 0.20879 0.13750
 C392 C 0.44491 0.23475 0.13749
 C393 C 0.46184 0.24496 0.15494
 C394 C 0.47482 0.22946 0.17162
 C395 C 0.54356 0.21922 0.17940
 C396 C 0.55737 0.23406 0.16284
 C397 C 0.55387 0.23193 0.13674
 C398 C 0.53637 0.21455 0.12756
 C399 C 0.52258 0.19973 0.14413
 C400 C 0.52193 0.16997 0.23097
 C401 C 0.53519 0.15349 0.24644
 C402 C 0.55270 0.13682 0.23608
 C403 C 0.55701 0.13739 0.21003
 C404 C 0.54378 0.15383 0.19462
 H405 H 0.48845 0.13555 0.18678
 H406 H 0.46441 0.10587 0.21213
 H407 H 0.42493 0.16726 0.24669
 H408 H 0.44963 0.19686 0.22179
 H409 H 0.45058 0.17336 0.15349
 H410 H 0.42756 0.20040 0.12464
 H411 H 0.48792 0.23769 0.18476
 H412 H 0.54652 0.22114 0.19945
 H413 H 0.57101 0.24700 0.17043
 H414 H 0.53312 0.21261 0.10757
 H415 H 0.50931 0.18635 0.13665
 H416 H 0.50844 0.18255 0.23932
 H417 H 0.53137 0.15343 0.26642
 H418 H 0.57071 0.12514 0.20154
 H419 H 0.54722 0.15364 0.17457
 H420 H 0.46546 0.26486 0.15532
 C421 C 0.48669 0.18797 0.81206
 C422 C 0.51219 0.18843 0.81238
 C423 C 0.52723 0.17239 0.79535
 C424 C 0.52630 0.20391 0.83074
 C425 C 0.47163 0.20473 0.82834
 C426 C 0.47261 0.16971 0.79648
 C427 C 0.54499 0.15601 0.80554
 C428 C 0.55822 0.13971 0.79001
 C429 C 0.55407 0.13957 0.76392
 C430 C 0.53687 0.15659 0.75363
 C431 C 0.52362 0.17292 0.76921
 C432 C 0.52227 0.20123 0.85667
 C433 C 0.53565 0.21583 0.87379
 C434 C 0.55352 0.23321 0.86533
 C435 C 0.55776 0.23556 0.83935
 C436 C 0.54435 0.22095 0.82224
 C437 C 0.47511 0.23074 0.82793
 C438 C 0.46175 0.24608 0.84440
 C439 C 0.44454 0.23567 0.86145
 C440 C 0.44053 0.20971 0.86119
 C441 C 0.45388 0.19442 0.84476
 C442 C 0.45449 0.17815 0.77943
 C443 C 0.44110 0.16112 0.76473
 C444 C 0.44541 0.13531 0.76700
 C445 C 0.46335 0.12691 0.78438
 C446 C 0.47673 0.14394 0.79907
 H447 H 0.54818 0.15543 0.82564
 H448 H 0.57169 0.12716 0.79843
 H449 H 0.53320 0.15686 0.73362
 H450 H 0.51026 0.18570 0.76095
 H451 H 0.50874 0.18784 0.86363
 H452 H 0.53183 0.21371 0.89366
 H453 H 0.54792 0.22305 0.80231
 H454 H 0.48845 0.23910 0.81512
 H455 H 0.46531 0.26599 0.84423
 H456 H 0.42706 0.20120 0.87376
 H457 H 0.45078 0.17442 0.84524
 H458 H 0.45087 0.19795 0.77739
 H459 H 0.42711 0.16814 0.75182
 H460 H 0.46724 0.10717 0.78644
 H461 H 0.49030 0.13704 0.81247
 H462 H 0.57169 0.24847 0.83228
 C463 C 0.48866 0.81270 0.18697
 C464 C 0.51416 0.81295 0.18702
 C465 C 0.52857 0.82945 0.20419
 C466 C 0.52889 0.79775 0.16897
 C467 C 0.47424 0.79551 0.17048
 C468 C 0.47389 0.83053 0.20233
 C469 C 0.54608 0.84626 0.19419
 C470 C 0.55882 0.86287 0.20985
 C471 C 0.55442 0.86291 0.23589
 C472 C 0.53745 0.84551 0.24600
 C473 C 0.52469 0.82887 0.23029
 C474 C 0.52521 0.80021 0.14297
 C475 C 0.53913 0.78582 0.12614
 C476 C 0.55719 0.76889 0.13499
 C477 C 0.56109 0.76678 0.16104
 C478 C 0.54715 0.78118 0.17785
 C479 C 0.47825 0.76959 0.17108
 C480 C 0.46542 0.75386 0.15449
 C481 C 0.44824 0.76379 0.13715
 C482 C 0.44374 0.78966 0.13718
 C483 C 0.45656 0.80533 0.15373
 C484 C 0.45567 0.82156 0.21902
 C485 C 0.44151 0.83818 0.23340
 C486 C 0.44514 0.86411 0.23117
 C487 C 0.46321 0.87304 0.21418
 C488 C 0.47735 0.85642 0.19981
 H489 H 0.54948 0.84688 0.17413
 H490 H 0.57213 0.87572 0.20157
 H491 H 0.53361 0.84516 0.26598
 H492 H 0.51152 0.81578 0.23842
 H493 H 0.51152 0.81325 0.13571
 H494 H 0.53555 0.78774 0.10621
 H495 H 0.55045 0.77926 0.19785
 H496 H 0.49156 0.76161 0.18414
 H497 H 0.46934 0.73403 0.15485
 H498 H 0.43028 0.79779 0.12437
 H499 H 0.45306 0.82525 0.15309
 H500 H 0.45254 0.80166 0.22099
 H501 H 0.42747 0.83075 0.24601
 H502 H 0.46658 0.89289 0.21216
 H503 H 0.49098 0.86373 0.18667
 H504 H 0.57515 0.75421 0.16841
 C505 C 0.81048 0.51026 0.81230
 C506 C 0.81110 0.48480 0.81178
 C507 C 0.79411 0.46949 0.82761
 C508 C 0.82964 0.47101 0.79631
 C509 C 0.82676 0.52554 0.79571
 C510 C 0.79450 0.52417 0.83033
 C511 C 0.80420 0.45155 0.84392
 C512 C 0.78866 0.43793 0.85993
 C513 C 0.76268 0.44188 0.85986
 C514 C 0.75252 0.45938 0.84301
 C515 C 0.76809 0.47294 0.82690
 C516 C 0.85539 0.47528 0.79924
 C517 C 0.87267 0.46218 0.78464
 C518 C 0.86455 0.44436 0.76700
 C519 C 0.83875 0.43989 0.76438
 C520 C 0.82149 0.45301 0.77899
 C521 C 0.82655 0.52231 0.76952
 C522 C 0.84295 0.53598 0.75435
 C523 C 0.85970 0.55321 0.76511
 C524 C 0.85925 0.55693 0.79125
 C525 C 0.84289 0.54329 0.80638
 C526 C 0.77790 0.54242 0.82147
 C527 C 0.76316 0.55603 0.83825
 C528 C 0.76489 0.55176 0.86427
 C529 C 0.78170 0.53357 0.87311
 C530 C 0.79647 0.52002 0.85631
 H531 H 0.82422 0.44859 0.84474
 H532 H 0.79707 0.42478 0.87288
 H533 H 0.73253 0.46252 0.84227
 H534 H 0.75989 0.48635 0.81408
 H535 H 0.86209 0.48876 0.81285
 H536 H 0.89239 0.46618 0.78698
 H537 H 0.80171 0.44926 0.77668
 H538 H 0.81396 0.50896 0.76091
 H539 H 0.84295 0.53264 0.73428
 H540 H 0.87160 0.57042 0.80002
 H541 H 0.84319 0.54618 0.82652
 H542 H 0.77625 0.54600 0.80150
 H543 H 0.75024 0.56973 0.83086
 H544 H 0.78380 0.53018 0.89306
 H545 H 0.80963 0.50646 0.86357
 H546 H 0.83194 0.42599 0.75127
 C547 C 0.18841 0.51516 0.18713
 C548 C 0.18853 0.48967 0.18701
 C549 C 0.20416 0.47534 0.16905
 C550 C 0.17205 0.47483 0.20389
 C551 C 0.17009 0.52940 0.20239
 C552 C 0.20573 0.53000 0.17110
 C553 C 0.20197 0.47923 0.14305
 C554 C 0.21674 0.46566 0.12630
 C555 C 0.23380 0.44775 0.13521
 C556 C 0.23567 0.44366 0.16124
 C557 C 0.22088 0.45726 0.17799
 C558 C 0.15577 0.45699 0.19358
 C559 C 0.13939 0.44363 0.20898
 C560 C 0.13903 0.44771 0.23508
 C561 C 0.15586 0.46509 0.24548
 C562 C 0.17228 0.47847 0.23003
 C563 C 0.17849 0.54722 0.21977
 C564 C 0.16140 0.56037 0.23456
 C565 C 0.13556 0.55611 0.23203
 C566 C 0.12720 0.53858 0.21421
 C567 C 0.14430 0.52545 0.19945
 C568 C 0.23169 0.52604 0.17181
 C569 C 0.24756 0.53924 0.15564
 C570 C 0.23780 0.55688 0.13868
 C571 C 0.21188 0.56129 0.13856
 C572 C 0.19604 0.54804 0.15464
 H573 H 0.18883 0.49280 0.13576
 H574 H 0.21501 0.46936 0.10637
 H575 H 0.24834 0.42971 0.16864
 H576 H 0.22261 0.45382 0.19798
 H577 H 0.15541 0.45375 0.17349
 H578 H 0.12700 0.43003 0.20045
 H579 H 0.18497 0.49188 0.23842
 H580 H 0.19832 0.55070 0.22209
 H581 H 0.16838 0.57406 0.24781
 H582 H 0.10744 0.53474 0.21194
 H583 H 0.13743 0.51207 0.18581
 H584 H 0.23962 0.51257 0.18472
 H585 H 0.26747 0.53573 0.15648
 H586 H 0.20374 0.57453 0.12554
 H587 H 0.17609 0.55140 0.15378
 H588 H 0.15596 0.46874 0.26550
 C589 C 0.81306 0.48620 0.18782
 C590 C 0.81267 0.51168 0.18751
 C591 C 0.79674 0.52574 0.16960
 C592 C 0.82913 0.52680 0.20415
 C593 C 0.83146 0.47223 0.20325
 C594 C 0.79599 0.47105 0.17184
 C595 C 0.79873 0.52176 0.14361
 C596 C 0.78371 0.53516 0.12692
 C597 C 0.76665 0.55302 0.13590
 C598 C 0.76500 0.55722 0.16192
 C599 C 0.77998 0.54375 0.17861
 C600 C 0.84519 0.54465 0.19355
 C601 C 0.86156 0.55830 0.20871
 C602 C 0.86211 0.55448 0.23484
 C603 C 0.84549 0.53708 0.24554
 C604 C 0.82908 0.52342 0.23033
 C605 C 0.82313 0.45443 0.22069
 C606 C 0.84027 0.44134 0.23547
 C607 C 0.86609 0.44566 0.23289
 C608 C 0.87439 0.46321 0.21507
 C609 C 0.85723 0.47628 0.20030
 C610 C 0.76997 0.47460 0.17247
 C611 C 0.75434 0.46099 0.15642
 C612 C 0.76442 0.44335 0.13967
 C613 C 0.79041 0.43939 0.13960
 C614 C 0.80600 0.45305 0.15555
 H615 H 0.81200 0.50836 0.13627
 H616 H 0.78575 0.53187 0.10695
 H617 H 0.75189 0.57070 0.16940
 H618 H 0.77832 0.54717 0.19860
 H619 H 0.84539 0.54769 0.17342
 H620 H 0.87379 0.57190 0.19996
 H621 H 0.81654 0.51001 0.23893
 H622 H 0.80331 0.45088 0.22301
 H623 H 0.83335 0.42764 0.24873
 H624 H 0.89413 0.46707 0.21277
 H625 H 0.86403 0.48963 0.18661
 H626 H 0.76181 0.48805 0.18526
 H627 H 0.73437 0.46416 0.15718
 H628 H 0.79877 0.42615 0.12673
 H629 H 0.82600 0.45001 0.15476
 H630 H 0.84555 0.53365 0.26559
 C631 C 0.18716 0.48801 0.81366
 C632 C 0.18666 0.51349 0.81298
 C633 C 0.20373 0.52876 0.82880
 C634 C 0.16819 0.52732 0.79743
 C635 C 0.17084 0.47264 0.79716
 C636 C 0.20318 0.47421 0.83177
 C637 C 0.19371 0.54641 0.84544
 C638 C 0.20932 0.55969 0.86171
 C639 C 0.23529 0.55568 0.86155
 C640 C 0.24540 0.53866 0.84419
 C641 C 0.22976 0.52538 0.82789
 C642 C 0.14241 0.52309 0.80021
 C643 C 0.12521 0.53624 0.78554
 C644 C 0.13342 0.55409 0.76796
 C645 C 0.15924 0.55853 0.76550
 C646 C 0.17643 0.54535 0.78018
 C647 C 0.17090 0.47579 0.77096
 C648 C 0.15460 0.46189 0.75587
 C649 C 0.13808 0.44449 0.76671
 C650 C 0.13864 0.44088 0.79287
 C651 C 0.15490 0.45476 0.80792
 C652 C 0.22007 0.45619 0.82300
 C653 C 0.23509 0.44294 0.83986
 C654 C 0.23333 0.44731 0.86586
 C655 C 0.21616 0.46519 0.87460
 C656 C 0.20114 0.47841 0.85773
 H657 H 0.17371 0.54943 0.84629
 H658 H 0.20103 0.57303 0.87452
 H659 H 0.26532 0.53510 0.84369
 H660 H 0.23788 0.51210 0.81490
 H661 H 0.13563 0.50958 0.81376
 H662 H 0.10548 0.53226 0.78777
 H663 H 0.19622 0.54909 0.77798
 H664 H 0.18335 0.48922 0.76226
 H665 H 0.15452 0.46516 0.73579
 H666 H 0.12649 0.42728 0.80172
 H667 H 0.15471 0.45190 0.82807
 H668 H 0.22170 0.45249 0.80306
 H669 H 0.24783 0.42901 0.83257
 H670 H 0.21448 0.46911 0.89448
 H671 H 0.18788 0.49191 0.86491
 H672 H 0.16614 0.57245 0.75245
 C673 C 0.27909 0.40603 0.08345
 C674 C 0.25395 0.41073 0.07794
 C675 C 0.23921 0.42426 0.09478
 C676 C 0.30642 0.38079 0.05083
 C677 C 0.27474 0.42841 0.12279
 C678 C 0.28947 0.41488 0.10590
 C679 C 0.29417 0.39227 0.06590
 C680 C 0.24945 0.43328 0.11739
 H681 H 0.24572 0.40392 0.06064
 H682 H 0.21972 0.42742 0.09026
 H683 H 0.28322 0.43537 0.13990
 H684 H 0.30894 0.41141 0.11029
 C685 C 0.72172 0.59488 0.08393
 C686 C 0.73244 0.60678 0.10472
 C687 C 0.74690 0.59314 0.12175
 C688 C 0.69597 0.62094 0.05066
 C689 C 0.73984 0.55558 0.09727
 C690 C 0.72537 0.56925 0.08028
 C691 C 0.70753 0.60907 0.06597
 C692 C 0.75086 0.56740 0.11814
 H693 H 0.72983 0.62664 0.10764
 H694 H 0.75540 0.60281 0.13746
 H695 H 0.74229 0.53574 0.09418
 H696 H 0.71714 0.55987 0.06423
 C697 C 0.71743 0.40298 0.91386
 C698 C 0.73623 0.39028 0.90084
 C699 C 0.75065 0.40280 0.88292
 C700 C 0.69208 0.37934 0.94926
 C701 C 0.72720 0.44075 0.89070
 C702 C 0.71281 0.42818 0.90865
 C703 C 0.70341 0.39025 0.93305
 C704 C 0.74644 0.42823 0.87782
 H705 H 0.73992 0.37075 0.90470
 H706 H 0.76512 0.39260 0.87308
 H707 H 0.72374 0.46041 0.88740
 H708 H 0.69835 0.43821 0.91870
 C709 C 0.28226 0.59365 0.91492
 C710 C 0.25905 0.58407 0.92234
 C711 C 0.24384 0.57172 0.90498
 C712 C 0.30989 0.61771 0.94830
 C713 C 0.27506 0.57834 0.87263
 C714 C 0.29026 0.59074 0.89005
 C715 C 0.29757 0.60669 0.93289
 C716 C 0.25162 0.56878 0.87989
 H717 H 0.25270 0.58615 0.94155
 H718 H 0.22610 0.56420 0.91125
 H719 H 0.28145 0.57657 0.85341
 H720 H 0.30817 0.59816 0.88410
 C721 C 0.08569 0.28170 0.40751
 C722 C 0.11042 0.28979 0.41055
 C723 C 0.12767 0.27475 0.42326
 C724 C 0.05276 0.30870 0.38236
 C725 C 0.09541 0.24358 0.42998
 C726 C 0.07822 0.25863 0.41732
 C727 C 0.06796 0.29671 0.39391
 C728 C 0.12037 0.25139 0.43297
 H729 H 0.11640 0.30760 0.40294
 H730 H 0.14680 0.28115 0.42508
 H731 H 0.08913 0.22589 0.43761
 H732 H 0.05911 0.25222 0.41512
 C733 C 0.08101 0.72209 0.59751
 C734 C 0.07600 0.74736 0.59309
 C735 C 0.09303 0.76199 0.57966
 C736 C 0.04807 0.69479 0.62237
 C737 C 0.12025 0.72610 0.57508
 C738 C 0.10317 0.71149 0.58852
 C739 C 0.06325 0.70708 0.61109
 C740 C 0.11534 0.75151 0.57046
 H741 H 0.05892 0.75576 0.60003
 H742 H 0.08889 0.78157 0.57669
 H743 H 0.13711 0.71743 0.56798
 H744 H 0.10718 0.69192 0.59177
 C745 C 0.91730 0.72143 0.40693
 C746 C 0.92271 0.74664 0.41131
 C747 C 0.90582 0.76158 0.42452
 C748 C 0.94963 0.69396 0.38154
 C749 C 0.87796 0.72609 0.42905
 C750 C 0.89490 0.71118 0.41584
 C751 C 0.93474 0.70624 0.39318
 C752 C 0.88324 0.75148 0.43354
 H753 H 0.93996 0.75479 0.40441
 H754 H 0.91027 0.78112 0.42736
 H755 H 0.86088 0.71771 0.43603
 H756 H 0.89055 0.69166 0.41259
 C757 C 0.91744 0.27815 0.59496
 C758 C 0.89673 0.26732 0.60680
 C759 C 0.87991 0.25278 0.59296
 C760 C 0.95021 0.30449 0.62113
 C761 C 0.90446 0.25992 0.55534
 C762 C 0.92123 0.27447 0.56921
 C763 C 0.93511 0.29261 0.60928
 C764 C 0.88364 0.24884 0.56709
 H765 H 0.89369 0.26996 0.62675
 H766 H 0.86424 0.24424 0.60259
 H767 H 0.90764 0.25750 0.53540
 H768 H 0.93720 0.28279 0.55986
 C769 C 0.40029 0.08202 0.27544
 C770 C 0.40924 0.10403 0.28645
 C771 C 0.42302 0.12108 0.27214
 C772 C 0.37477 0.04912 0.30216
 C773 C 0.41891 0.09414 0.23575
 C774 C 0.40512 0.07713 0.25008
 C775 C 0.38635 0.06429 0.29013
 C776 C 0.42805 0.11629 0.24664
 H777 H 0.40567 0.10794 0.30610
 H778 H 0.43008 0.13783 0.28112
 H779 H 0.42218 0.09009 0.21609
 H780 H 0.39822 0.06016 0.24137
 C781 C 0.59283 0.08662 0.71742
 C782 C 0.58959 0.11122 0.70909
 C783 C 0.57685 0.12848 0.72411
 C784 C 0.61793 0.05363 0.69044
 C785 C 0.57051 0.09650 0.75574
 C786 C 0.58320 0.07931 0.74072
 C787 C 0.60641 0.06887 0.70241
 C788 C 0.56730 0.12133 0.74768
 H789 H 0.59705 0.11710 0.69111
 H790 H 0.57486 0.14751 0.71750
 H791 H 0.56302 0.09032 0.77360
 H792 H 0.58555 0.06030 0.74732
 C793 C 0.40398 0.91609 0.72259
 C794 C 0.40816 0.92122 0.74803
 C795 C 0.42175 0.90449 0.76283
 C796 C 0.37883 0.94854 0.69504
 C797 C 0.42696 0.87732 0.72677
 C798 C 0.41337 0.89410 0.71199
 C799 C 0.39026 0.93357 0.70741
 C800 C 0.43135 0.88237 0.75235
 H801 H 0.40092 0.93817 0.75643
 H802 H 0.42453 0.90874 0.78253
 H803 H 0.43438 0.86060 0.71811
 H804 H 0.41031 0.89000 0.69229
 C805 C 0.59242 0.91636 0.28263
 C806 C 0.58267 0.92359 0.25935
 C807 C 0.57017 0.90625 0.24428
 C808 C 0.61763 0.94949 0.30945
 C809 C 0.57686 0.87429 0.27585
 C810 C 0.58941 0.89170 0.29091
 C811 C 0.60601 0.93420 0.29757
 C812 C 0.56726 0.88136 0.25227
 H813 H 0.58485 0.94264 0.25278
 H814 H 0.56263 0.91235 0.22641
 H815 H 0.57510 0.85522 0.28241
 H816 H 0.59697 0.88589 0.30887
 C817 C 0.40537 0.28150 0.91476
 C818 C 0.41506 0.25834 0.92206
 C819 C 0.42786 0.24353 0.90474
 C820 C 0.38044 0.30829 0.94809
 C821 C 0.42151 0.27507 0.87267
 C822 C 0.40866 0.28987 0.89006
 C823 C 0.39184 0.29637 0.93269
 C824 C 0.43114 0.25166 0.87981
 H825 H 0.41268 0.25171 0.94115
 H826 H 0.43541 0.22580 0.91091
 H827 H 0.42355 0.28172 0.85356
 H828 H 0.40118 0.30775 0.88420
 C829 C 0.59993 0.72426 0.91555
 C830 C 0.59539 0.74942 0.92099
 C831 C 0.58179 0.76415 0.90419
 C832 C 0.62490 0.69674 0.94825
 C833 C 0.57731 0.72859 0.87633
 C834 C 0.59091 0.71388 0.89318
 C835 C 0.61358 0.70912 0.93315
 C836 C 0.57254 0.75389 0.88169
 H837 H 0.60234 0.75765 0.93825
 H838 H 0.57871 0.78364 0.90868
 H839 H 0.57016 0.72009 0.85931
 H840 H 0.59425 0.69439 0.88885
 C841 C 0.41003 0.71698 0.08387
 C842 C 0.41958 0.74017 0.07645
 C843 C 0.43214 0.75528 0.09374
 C844 C 0.38502 0.68991 0.05074
 C845 C 0.42588 0.72392 0.12602
 C846 C 0.41327 0.70882 0.10866
 C847 C 0.39651 0.70192 0.06605
 C848 C 0.43531 0.74740 0.11877
 H849 H 0.41723 0.74664 0.05730
 H850 H 0.43954 0.77307 0.08749
 H851 H 0.42784 0.71745 0.14520
 H852 H 0.40588 0.69092 0.11462
 C853 C 0.59576 0.27762 0.08542
 C854 C 0.58631 0.28798 0.10760
 C855 C 0.57276 0.27311 0.12438
 C856 C 0.62082 0.30524 0.05286
 C857 C 0.57814 0.23746 0.09681
 C858 C 0.59169 0.25235 0.08008
 C859 C 0.60943 0.29287 0.06792
 C860 C 0.56848 0.24769 0.11912
 H861 H 0.58930 0.30756 0.11185
 H862 H 0.56530 0.28157 0.14126
 H863 H 0.57544 0.21789 0.09242
 H864 H 0.59898 0.24415 0.06298
 C865 C 0.28004 0.08349 0.59451
 C866 C 0.28863 0.10801 0.59128
 C867 C 0.27395 0.12545 0.57842
 C868 C 0.30657 0.05019 0.61965
 C869 C 0.24210 0.09381 0.57191
 C870 C 0.25680 0.07643 0.58473
 C871 C 0.29476 0.06556 0.60813
 C872 C 0.25044 0.11855 0.56871
 H873 H 0.30658 0.11367 0.59885
 H874 H 0.28076 0.14441 0.57645
 H875 H 0.22429 0.08783 0.56429
 H876 H 0.25000 0.05749 0.58705
 C877 C 0.72234 0.08266 0.40391
 C878 C 0.74766 0.07736 0.40779
 C879 C 0.76292 0.09440 0.42049
 C880 C 0.69406 0.04987 0.37988
 C881 C 0.72755 0.12224 0.42545
 C882 C 0.71231 0.10514 0.41274
 C883 C 0.70674 0.06497 0.39087
 C884 C 0.75303 0.11704 0.42950
 H885 H 0.75563 0.06004 0.40095
 H886 H 0.78252 0.09001 0.42302
 H887 H 0.71933 0.13935 0.43244
 H888 H 0.69272 0.10941 0.40989
 C889 C 0.72133 0.91919 0.59398
 C890 C 0.74666 0.92434 0.58988
 C891 C 0.76162 0.90721 0.57701
 C892 C 0.69361 0.95207 0.61838
 C893 C 0.72593 0.87962 0.57233
 C894 C 0.71098 0.89680 0.58519
 C895 C 0.70605 0.93694 0.60722
 C896 C 0.75142 0.88465 0.56807
 H897 H 0.75487 0.94158 0.59668
 H898 H 0.78124 0.91146 0.57433
 H899 H 0.71747 0.86256 0.56540
 H900 H 0.69138 0.89266 0.58822
 C901 C 0.27473 0.91485 0.40248
 C902 C 0.24951 0.91992 0.40724
 C903 C 0.23512 0.90315 0.42124
 C904 C 0.30146 0.94735 0.37647
 C905 C 0.27116 0.87607 0.42574
 C906 C 0.28553 0.89290 0.41174
 C907 C 0.28946 0.93234 0.38828
 C908 C 0.24579 0.88105 0.43068
 H909 H 0.24097 0.93684 0.40011
 H910 H 0.21557 0.90732 0.42443
 H911 H 0.27996 0.85936 0.43301
 H912 H 0.30506 0.88885 0.40823
 C913 C 0.08555 0.40344 0.72154
 C914 C 0.07826 0.41324 0.74477
 C915 C 0.09533 0.42664 0.75938
 C916 C 0.05257 0.37794 0.69480
 C917 C 0.12713 0.42061 0.72751
 C918 C 0.11000 0.40717 0.71290
 C919 C 0.06783 0.38952 0.70675
 C920 C 0.11999 0.43041 0.75096
 H921 H 0.05935 0.41055 0.75158
 H922 H 0.08916 0.43429 0.77716
 H923 H 0.14604 0.42301 0.72064
 H924 H 0.11583 0.39962 0.69495
 C925 C 0.08273 0.59567 0.27800
 C926 C 0.10504 0.58685 0.28849
 C927 C 0.12227 0.57403 0.27355
 C928 C 0.04984 0.62014 0.30568
 C929 C 0.09491 0.57884 0.23754
 C930 C 0.07773 0.59166 0.25251
 C931 C 0.06496 0.60892 0.29327
 C932 C 0.11738 0.56987 0.24789
 H933 H 0.10907 0.58982 0.30822
 H934 H 0.13926 0.56708 0.28213
 H935 H 0.09076 0.57622 0.21780
 H936 H 0.06055 0.59849 0.24418
 C937 C 0.91896 0.40583 0.27860
 C938 C 0.89674 0.41472 0.28919
 C939 C 0.87950 0.42765 0.27433
 C940 C 0.95186 0.38128 0.30621
 C941 C 0.90671 0.42284 0.23823
 C942 C 0.92390 0.40990 0.25311
 C943 C 0.93674 0.39250 0.29380
 C944 C 0.88431 0.43186 0.24868
 H945 H 0.89277 0.41171 0.30893
 H946 H 0.86258 0.43464 0.28298
 H947 H 0.91079 0.42550 0.21848
 H948 H 0.94101 0.40303 0.24471
 C949 C 0.91265 0.59348 0.71989
 C950 C 0.88813 0.59014 0.71129
 C951 C 0.87086 0.57691 0.72589
 C952 C 0.94575 0.61913 0.69355
 C953 C 0.90269 0.57027 0.75765
 C954 C 0.91990 0.58345 0.74304
 C955 C 0.93044 0.60741 0.70526
 C956 C 0.87794 0.56695 0.74931
 H957 H 0.88233 0.59789 0.69341
 H958 H 0.85188 0.57483 0.71910
 H959 H 0.90881 0.56247 0.77540
 H960 H 0.93886 0.58587 0.74982
 C961 C 0.72100 0.59455 0.91646
 C962 C 0.73173 0.60618 0.89552
 C963 C 0.74587 0.59225 0.87846
 C964 C 0.69546 0.62112 0.94956
 C965 C 0.73851 0.55493 0.90320
 C966 C 0.72436 0.56890 0.92023
 C967 C 0.70697 0.60903 0.93436
 C968 C 0.74950 0.56647 0.88215
 H969 H 0.72935 0.62606 0.89249
 H970 H 0.75436 0.60174 0.86264
 H971 H 0.74069 0.53507 0.90638
 H972 H 0.71611 0.55970 0.93637
 C973 C 0.27905 0.40597 0.91778
 C974 C 0.28923 0.41461 0.89516
 C975 C 0.27440 0.42807 0.87826
 C976 C 0.30657 0.38054 0.95021
 C977 C 0.23912 0.42432 0.90660
 C978 C 0.25397 0.41086 0.92345
 C979 C 0.29422 0.39212 0.93526
 C980 C 0.24916 0.43309 0.88380
 H981 H 0.30864 0.41100 0.89061
 H982 H 0.28276 0.43483 0.86102
 H983 H 0.21969 0.42757 0.91126
 H984 H 0.24587 0.40421 0.94087
 C985 C 0.28450 0.59525 0.08526
 C986 C 0.26547 0.60811 0.09782
 C987 C 0.25054 0.59576 0.11545
 C988 C 0.31113 0.61865 0.05051
 C989 C 0.27382 0.55761 0.10833
 C990 C 0.28873 0.57001 0.09066
 C991 C 0.29921 0.60786 0.06643
 C992 C 0.25441 0.57030 0.12079
 H993 H 0.26205 0.62767 0.09383
 H994 H 0.23597 0.60613 0.12496
 H995 H 0.27708 0.53794 0.11178
 H996 H 0.30335 0.55983 0.08099
 C997 C 0.71857 0.40349 0.08668
 C998 C 0.71390 0.42874 0.09165
 C999 C 0.72853 0.44163 0.10921
 C1000 C 0.69253 0.37917 0.05215
 C1001 C 0.75236 0.40394 0.11707
 C1002 C 0.73771 0.39110 0.09955
 C1003 C 0.70419 0.39037 0.06797
 C1004 C 0.74806 0.42941 0.12197
 H1005 H 0.69919 0.43854 0.08174
 H1006 H 0.72496 0.46129 0.11234
 H1007 H 0.76704 0.39394 0.12682
 H1008 H 0.74145 0.37154 0.09589
 C1009 C 0.91429 0.71987 0.59624
 C1010 C 0.88967 0.71156 0.59284
 C1011 C 0.87245 0.72642 0.57986
 C1012 C 0.94727 0.69289 0.62147
 C1013 C 0.90449 0.75790 0.57359
 C1014 C 0.92164 0.74302 0.58653
 C1015 C 0.93204 0.70491 0.60993
 C1016 C 0.87965 0.74983 0.57019
 H1017 H 0.88376 0.69369 0.60035
 H1018 H 0.85342 0.71981 0.57774
 H1019 H 0.91072 0.77563 0.56602
 H1020 H 0.94066 0.74961 0.58898
 C1021 C 0.91649 0.28255 0.40316
 C1022 C 0.90382 0.26351 0.39035
 C1023 C 0.88624 0.24873 0.40291
 C1024 C 0.95116 0.30892 0.37948
 C1025 C 0.89364 0.27218 0.44116
 C1026 C 0.91126 0.28693 0.42855
 C1027 C 0.93527 0.29710 0.39035
 C1028 C 0.88106 0.25277 0.42851
 H1029 H 0.90768 0.25997 0.37068
 H1030 H 0.87665 0.23416 0.39257
 H1031 H 0.89031 0.27555 0.46094
 H1032 H 0.92101 0.30155 0.43869
 C1033 C 0.08312 0.27715 0.59652
 C1034 C 0.07773 0.25200 0.59178
 C1035 C 0.09462 0.23728 0.57832
 C1036 C 0.05058 0.30443 0.62191
 C1037 C 0.12245 0.27285 0.57430
 C1038 C 0.10551 0.28755 0.58776
 C1039 C 0.06558 0.29220 0.61033
 C1040 C 0.11718 0.24753 0.56940
 H1041 H 0.06048 0.24374 0.59854
 H1042 H 0.09018 0.21778 0.57516
 H1043 H 0.13951 0.28135 0.56742
 H1044 H 0.10983 0.30702 0.59126
 C1045 C 0.08332 0.71871 0.40549
 C1046 C 0.07607 0.74184 0.41527
 C1047 C 0.09321 0.75650 0.42853
 C1048 C 0.05023 0.69210 0.37995
 C1049 C 0.12499 0.72482 0.42250
 C1050 C 0.10779 0.71018 0.40918
 C1051 C 0.06555 0.70396 0.39157
 C1052 C 0.11790 0.74822 0.43220
 H1053 H 0.05715 0.74858 0.41262
 H1054 H 0.08706 0.77422 0.43612
 H1055 H 0.14392 0.71806 0.42482
 H1056 H 0.11360 0.69230 0.40166
 C1057 C 0.59384 0.91817 0.71821
 C1058 C 0.59049 0.89365 0.70966
 C1059 C 0.57775 0.87621 0.72455
 C1060 C 0.61872 0.95149 0.69120
 C1061 C 0.57158 0.90784 0.75652
 C1062 C 0.58428 0.92522 0.74162
 C1063 C 0.60734 0.93613 0.70325
 C1064 C 0.56827 0.88308 0.74823
 H1065 H 0.59787 0.88797 0.69159
 H1066 H 0.57572 0.85725 0.71775
 H1067 H 0.56416 0.91383 0.77446
 H1068 H 0.58668 0.94416 0.74841
 C1069 C 0.40157 0.91546 0.27517
 C1070 C 0.41057 0.89343 0.28605
 C1071 C 0.42470 0.87668 0.27175
 C1072 C 0.37542 0.94781 0.30196
 C1073 C 0.42084 0.90398 0.23561
 C1074 C 0.40671 0.92067 0.24993
 C1075 C 0.38727 0.93289 0.28989
 C1076 C 0.43004 0.88180 0.24636
 H1077 H 0.40678 0.88926 0.30561
 H1078 H 0.43177 0.85992 0.28065
 H1079 H 0.42433 0.90828 0.21604
 H1080 H 0.39980 0.93765 0.24130
 C1081 C 0.59278 0.08424 0.28208
 C1082 C 0.58879 0.10862 0.29073
 C1083 C 0.57558 0.12573 0.27591
 C1084 C 0.61842 0.05144 0.30891
 C1085 C 0.57021 0.09404 0.24383
 C1086 C 0.58337 0.07700 0.25866
 C1087 C 0.60672 0.06661 0.29697
 C1088 C 0.56626 0.11866 0.25221
 H1089 H 0.59603 0.11445 0.30882
 H1090 H 0.57305 0.14460 0.28277
 H1091 H 0.56293 0.08790 0.22586
 H1092 H 0.58625 0.05816 0.25181
 C1093 C 0.40422 0.08273 0.72197
 C1094 C 0.41285 0.10505 0.71132
 C1095 C 0.42621 0.12219 0.72594
 C1096 C 0.37910 0.04985 0.69474
 C1097 C 0.42236 0.09471 0.76196
 C1098 C 0.40899 0.07762 0.74731
 C1099 C 0.39054 0.06499 0.70698
 C1100 C 0.43115 0.11719 0.75144
 H1101 H 0.40932 0.10915 0.69170
 H1102 H 0.43300 0.13918 0.71723
 H1103 H 0.42555 0.09048 0.78160
 H1104 H 0.40234 0.06044 0.75577
 C1105 C 0.59946 0.72432 0.08293
 C1106 C 0.59071 0.71377 0.10534
 C1107 C 0.57705 0.72827 0.12233
 C1108 C 0.62462 0.69706 0.05012
 C1109 C 0.58088 0.76396 0.09454
 C1110 C 0.59455 0.74944 0.07760
 C1111 C 0.61323 0.70937 0.06523
 C1112 C 0.57192 0.75352 0.11709
 H1113 H 0.59433 0.69432 0.10961
 H1114 H 0.57015 0.71962 0.13937
 H1115 H 0.57753 0.78342 0.09013
 H1116 H 0.60127 0.75781 0.06033
 C1117 C 0.40609 0.28096 0.08405
 C1118 C 0.40927 0.28919 0.10883
 C1119 C 0.42206 0.27430 0.12623
 C1120 C 0.38099 0.30786 0.05083
 C1121 C 0.42862 0.24296 0.09404
 C1122 C 0.41588 0.25787 0.07670
 C1123 C 0.39248 0.29588 0.06616
 C1124 C 0.43175 0.25093 0.11905
 H1125 H 0.40171 0.30701 0.11475
 H1126 H 0.42396 0.28084 0.14539
 H1127 H 0.43621 0.22527 0.08781
 H1128 H 0.41360 0.25133 0.05757
 C1129 C 0.59475 0.27801 0.91816
 C1130 C 0.59004 0.25279 0.92327
 C1131 C 0.57666 0.23822 0.90610
 C1132 C 0.61998 0.30513 0.95112
 C1133 C 0.57265 0.27407 0.87856
 C1134 C 0.58603 0.28862 0.89578
 C1135 C 0.60848 0.29293 0.93596
 C1136 C 0.56779 0.24869 0.88354
 H1137 H 0.59677 0.24437 0.94051
 H1138 H 0.57352 0.21867 0.91033
 H1139 H 0.56580 0.28274 0.86151
 H1140 H 0.58951 0.30815 0.89167
 C1141 C 0.41006 0.71733 0.91536
 C1142 C 0.41937 0.74062 0.92284
 C1143 C 0.43207 0.75578 0.90568
 C1144 C 0.38490 0.69008 0.94832
 C1145 C 0.42647 0.72432 0.87341
 C1146 C 0.41371 0.70917 0.89063
 C1147 C 0.39643 0.70218 0.93308
 C1148 C 0.43565 0.74789 0.88071
 H1149 H 0.41673 0.74711 0.94194
 H1150 H 0.43927 0.77363 0.91200
 H1151 H 0.42872 0.71782 0.85428
 H1152 H 0.40652 0.69120 0.88462
 C1153 C 0.72011 0.91571 0.40593
 C1154 C 0.74345 0.92278 0.41547
 C1155 C 0.75821 0.90547 0.42833
 C1156 C 0.69307 0.94904 0.38126
 C1157 C 0.72628 0.87385 0.42228
 C1158 C 0.71153 0.89122 0.40938
 C1159 C 0.70517 0.93366 0.39250
 C1160 C 0.74985 0.88077 0.43183
 H1161 H 0.75024 0.94171 0.41299
 H1162 H 0.77607 0.91150 0.43580
 H1163 H 0.71943 0.85492 0.42447
 H1164 H 0.69351 0.88553 0.40203
 C1165 C 0.27944 0.91468 0.59465
 C1166 C 0.25625 0.92181 0.58485
 C1167 C 0.24143 0.90447 0.57204
 C1168 C 0.30621 0.94794 0.61979
 C1169 C 0.27306 0.87273 0.57857
 C1170 C 0.28787 0.89013 0.59143
 C1171 C 0.29429 0.93259 0.60829
 C1172 C 0.24960 0.87969 0.56885
 H1173 H 0.24958 0.94077 0.58717
 H1174 H 0.22366 0.91052 0.56443
 H1175 H 0.27975 0.85375 0.57661
 H1176 H 0.30577 0.88440 0.59900
 C1177 C 0.27474 0.08147 0.40249
 C1178 C 0.28578 0.10350 0.41134
 C1179 C 0.27168 0.12058 0.42525
 C1180 C 0.30115 0.04867 0.37654
 C1181 C 0.23541 0.09361 0.42152
 C1182 C 0.24953 0.07658 0.40760
 C1183 C 0.28924 0.06376 0.38832
 C1184 C 0.24632 0.11581 0.43052
 H1185 H 0.30531 0.10743 0.40757
 H1186 H 0.28069 0.13735 0.43219
 H1187 H 0.21586 0.08957 0.42496
 H1188 H 0.24079 0.05960 0.40080
 C1189 C 0.71983 0.08632 0.59193
 C1190 C 0.74303 0.07882 0.58244
 C1191 C 0.75806 0.09578 0.56937
 C1192 C 0.69250 0.05364 0.61727
 C1193 C 0.72667 0.12789 0.57505
 C1194 C 0.71164 0.11087 0.58816
 C1195 C 0.70468 0.06875 0.60571
 C1196 C 0.75012 0.12055 0.56561
 H1197 H 0.74952 0.05984 0.58517
 H1198 H 0.77582 0.08943 0.56200
 H1199 H 0.72015 0.14689 0.57267
 H1200 H 0.69374 0.11690 0.59548
 C1201 C 0.91487 0.59502 0.28032
 C1202 C 0.92208 0.58539 0.25699
 C1203 C 0.90495 0.57215 0.24229
 C1204 C 0.94797 0.62029 0.30719
 C1205 C 0.87323 0.57796 0.27428
 C1206 C 0.89043 0.59125 0.28897
 C1207 C 0.93265 0.60881 0.29519
 C1208 C 0.88029 0.56835 0.25071
 H1209 H 0.94098 0.58810 0.25016
 H1210 H 0.91108 0.56464 0.22443
 H1211 H 0.85433 0.57555 0.28115
 H1212 H 0.88463 0.59865 0.30699
 C1213 C 0.91772 0.40368 0.72231
 C1214 C 0.92260 0.40840 0.74771
 C1215 C 0.90535 0.42165 0.76224
 C1216 C 0.95070 0.37841 0.69541
 C1217 C 0.87819 0.42551 0.72597
 C1218 C 0.89549 0.41227 0.71147
 C1219 C 0.93555 0.38996 0.70749
 C1220 C 0.88292 0.43035 0.75153
 H1221 H 0.93972 0.40177 0.75632
 H1222 H 0.90939 0.42476 0.78193
 H1223 H 0.86125 0.43224 0.71711
 H1224 H 0.89155 0.40877 0.69181
 C1225 C 0.08048 0.59488 0.72297
 C1226 C 0.10279 0.58634 0.71227
 C1227 C 0.12002 0.57307 0.72687
 C1228 C 0.04758 0.62006 0.69579
 C1229 C 0.09263 0.57682 0.76295
 C1230 C 0.07545 0.59008 0.74832
 C1231 C 0.06270 0.60857 0.70801
 C1232 C 0.11513 0.56815 0.75240
 H1233 H 0.10685 0.58988 0.69265
 H1234 H 0.13701 0.56638 0.71812
 H1235 H 0.08847 0.57364 0.78260
 H1236 H 0.05827 0.59667 0.75682
 C1237 C 0.08641 0.40774 0.28127
 C1238 C 0.07908 0.41722 0.25790
 C1239 C 0.09615 0.43030 0.24299
 C1240 C 0.05353 0.38229 0.30826
 C1241 C 0.12805 0.42467 0.27485
 C1242 C 0.11092 0.41154 0.28975
 C1243 C 0.06874 0.39391 0.29626
 C1244 C 0.12088 0.43409 0.25122
 H1245 H 0.06014 0.41446 0.25118
 H1246 H 0.08993 0.43766 0.22510
 H1247 H 0.14701 0.42708 0.28160
 H1248 H 0.11682 0.40424 0.30779
   
