data_POSCAR
  _audit_creation_date              2014-09-24
  _audit_creation_method            'ToBaCCo'
  _symmetry_space_group_name_H-M    'P1'
  _symmetry_Int_Tables_number       1
  _symmetry_cell_setting            triclinic
  loop_
  _symmetry_equiv_pos_as_xyz
 x,y,z
_cell_length_a 50.3150
_cell_length_b 50.2882
_cell_length_c 50.1716
_cell_angle_alpha 89.698600
_cell_angle_beta 90.023400
_cell_angle_gamma 89.903300
loop_
  _atom_site_label
  _atom_site_type_symbol
  _atom_site_fract_x
  _atom_site_fract_y
  _atom_site_fract_z
C1 C 0.24703 0.96457 0.00367
 C2 C 0.25172 0.96536 -0.02428
 C3 C 0.25422 0.99056 -0.03664
 C4 C 0.25255 1.01462 -0.02241
 C5 C 0.24967 1.01326 0.00566
 C6 C 0.24644 0.98846 0.01799
 H7 H 0.24501 0.98763 0.03956
 H8 H 0.25504 0.99150 -0.05820
 C9 C 0.74403 0.46706 0.50644
 C10 C 0.74622 0.46833 0.47834
 C11 C 0.74672 0.49340 0.46582
 C12 C 0.74613 0.51707 0.48051
 C13 C 0.74553 0.51571 0.50861
 C14 C 0.74404 0.49079 0.52108
 H15 H 0.74392 0.48979 0.54268
 H16 H 0.74718 0.49452 0.44424
 C17 C 0.78399 1.00931 0.97036
 C18 C 0.77679 0.98199 0.96991
 C19 C 0.77348 0.96825 0.99430
 C20 C 0.77662 0.98072 1.01930
 C21 C 0.78335 1.00813 1.01942
 C22 C 0.78775 1.02146 0.99527
 H23 H 0.79135 1.04270 0.99606
 H24 H 0.76987 0.94704 0.99361
 C25 C 0.27992 0.50650 0.46817
 C26 C 0.27593 0.47864 0.46813
 C27 C 0.27346 0.46525 0.49280
 C28 C 0.27430 0.47891 0.51722
 C29 C 0.27800 0.50677 0.51691
 C30 C 0.28111 0.51996 0.49250
 H31 H 0.28307 0.54145 0.49234
 H32 H 0.27122 0.44381 0.49305
 C33 C 1.01617 0.25684 -0.00401
 C34 C 1.01704 0.24770 0.02304
 C35 C 0.99260 0.24327 0.03636
 C36 C 0.96780 0.24684 0.02394
 C37 C 0.96714 0.25441 -0.00317
 C38 C 0.99110 0.25987 -0.01630
 H39 H 0.99018 0.26443 -0.03743
 H40 H 0.99270 0.23872 0.05749
 C41 C 0.46398 0.75285 0.52469
 C42 C 0.46359 0.75944 0.49728
 C43 C 0.48752 0.76439 0.48397
 C44 C 0.51221 0.76225 0.49686
 C45 C 0.51290 0.75484 0.52414
 C46 C 0.48869 0.75073 0.53766
 H47 H 0.48909 0.74616 0.55880
 H48 H 0.48693 0.76901 0.46282
 C49 C 0.00172 0.76178 0.03482
 C50 C -0.02398 0.77339 0.03457
 C51 C -0.03633 0.77769 0.00967
 C52 C -0.02454 0.77008 -0.01461
 C53 C 0.00154 0.75922 -0.01394
 C54 C 0.01403 0.75514 0.01073
 H55 H 0.03431 0.74778 0.01122
 H56 H -0.05682 0.78430 0.00943
 C57 C 0.50534 0.27138 0.48424
 C58 C 0.47754 0.27546 0.48479
 C59 C 0.46482 0.27883 0.50939
 C60 C 0.47901 0.27816 0.53338
 C61 C 0.50687 0.27496 0.53288
 C62 C 0.51961 0.27164 0.50827
 H63 H 0.54099 0.26886 0.50782
 H64 H 0.44338 0.28115 0.50998
 C65 C 1.02921 0.02245 0.23114
 C66 C 1.03027 -0.00446 0.23997
 C67 C 1.00636 -0.01829 0.24435
 C68 C 0.98117 -0.00663 0.24036
 C69 C 0.98017 0.02038 0.23205
 C70 C 1.00396 0.03411 0.22727
 H71 H 1.00257 0.05512 0.22250
 H72 H 1.00758 -0.03931 0.24907
 C73 C 0.48223 0.49091 0.73660
 C74 C 0.48150 0.51843 0.73082
 C75 C 0.50547 0.53211 0.72704
 C76 C 0.53022 0.51936 0.72942
 C77 C 0.53102 0.49193 0.73582
 C78 C 0.50693 0.47813 0.73888
 H79 H 0.50737 0.45688 0.74263
 H80 H 0.50490 0.55336 0.72324
 C81 C 1.02174 0.98041 0.74791
 C82 C 0.99399 0.97972 0.74415
 C83 C 0.97954 1.00349 0.74471
 C84 C 0.99177 1.02848 0.74778
 C85 C 1.01999 1.02929 0.74935
 C86 C 1.03432 1.00523 0.74986
 H87 H 1.05575 1.00582 0.75218
 H88 H 0.95819 1.00237 0.74183
 C89 C 0.52006 0.48448 0.24125
 C90 C 0.49291 0.48435 0.23376
 C91 C 0.47936 0.50865 0.23124
 C92 C 0.49192 0.53297 0.23599
 C93 C 0.51914 0.53338 0.24282
 C94 C 0.53279 0.50906 0.24523
 H95 H 0.55381 0.50928 0.24997
 H96 H 0.45831 0.50863 0.22653
 O97 O 0.26555 0.17724 0.20061
 O98 O 0.29565 0.17024 0.23758
 O99 O 0.19766 0.21106 0.23595
 O100 O 0.18819 0.24668 0.26145
 O101 O 0.23176 0.24748 0.16524
 O102 O 0.26983 0.27435 0.15746
 O103 O 0.26620 0.28526 0.30307
 O104 O 0.23609 0.25086 0.31115
 O105 O 0.33517 0.24601 0.27310
 O106 O 0.34299 0.21545 0.23539
 O107 O 0.30579 0.31463 0.23486
 O108 O 0.26784 0.32279 0.20337
 O109 O 0.26925 0.31654 0.27036
 O110 O 0.23999 0.32484 0.23192
 O111 O 0.33663 0.28168 0.23795
 O112 O 0.34458 0.24407 0.20731
 O113 O 0.30287 0.25093 0.30436
 O114 O 0.26584 0.21917 0.31295
 O115 O 0.26773 0.20813 0.16737
 O116 O 0.29847 0.24414 0.15939
 O117 O 0.19917 0.24736 0.19663
 O118 O 0.19259 0.27929 0.23241
 O119 O 0.22946 0.17897 0.23898
 O120 O 0.26630 0.17105 0.26702
 Zr121 Zr 0.26547 0.19952 0.23588
 O122 O 0.29024 0.22223 0.26053
 Zr123 Zr 0.21953 0.24689 0.23333
 O124 O 0.24239 0.27190 0.25803
 Zr125 Zr 0.26718 0.24484 0.18750
 O126 O 0.29211 0.26977 0.21009
 Zr127 Zr 0.26710 0.24890 0.28278
 O128 O 0.24186 0.22378 0.26049
 Zr129 Zr 0.31453 0.24647 0.23675
 O130 O 0.29197 0.22131 0.21188
 Zr131 Zr 0.26900 0.29441 0.23468
 O132 O 0.24386 0.27161 0.20964
 O133 O 0.24156 0.22124 0.20986
 O134 O 0.29293 0.27259 0.26063
 C135 C 0.26662 0.18397 0.17588
 C136 C 0.20514 0.18666 0.23852
 C137 C 0.20721 0.24812 0.17230
 C138 C 0.26755 0.30951 0.29499
 C139 C 0.32731 0.24887 0.29725
 C140 C 0.32990 0.30627 0.23685
 H141 H 0.30084 0.21020 0.27200
 H142 H 0.30354 0.28025 0.19798
 H143 H 0.22995 0.20986 0.19882
 H144 H 0.23042 0.28328 0.26865
 H145 H 0.22219 0.23826 0.30526
 H146 H 0.19379 0.25779 0.27665
 H147 H 0.34151 0.25848 0.19418
 H148 H 0.31202 0.23169 0.16650
 H149 H 0.28157 0.20753 0.31104
 H150 H 0.25567 0.17860 0.28176
 H151 H 0.28303 0.31923 0.19139
 H152 H 0.25860 0.28937 0.16340
 H153 H 0.30917 0.17534 0.22417
 H154 H 0.33872 0.20265 0.24979
 H155 H 0.19911 0.29185 0.21865
 H156 H 0.22615 0.32107 0.24540
 O157 O 0.74724 0.83574 0.22940
 O158 O 0.71708 0.84268 0.26679
 O159 O 0.81596 0.80344 0.26892
 O160 O 0.82535 0.76901 0.29548
 O161 O 0.78477 0.76684 0.19820
 O162 O 0.74751 0.73661 0.19114
 O163 O 0.74815 0.72894 0.33585
 O164 O 0.77820 0.76630 0.34249
 O165 O 0.67874 0.76558 0.30460
 O166 O 0.67089 0.79686 0.26664
 O167 O 0.71031 0.69836 0.26897
 O168 O 0.74763 0.69047 0.23691
 O169 O 0.74774 0.69777 0.30320
 O170 O 0.77600 0.68946 0.26478
 O171 O 0.67838 0.73036 0.26752
 O172 O 0.67005 0.76883 0.23834
 O173 O 0.71108 0.76221 0.33608
 O174 O 0.74161 0.79374 0.34517
 O175 O 0.74622 0.80344 0.19785
 O176 O 0.71867 0.76665 0.18961
 O177 O 0.81611 0.76591 0.23091
 O178 O 0.82263 0.73605 0.26826
 O179 O 0.78426 0.83563 0.26641
 O180 O 0.74666 0.84413 0.29555
 Zr181 Zr 0.74820 0.81440 0.26591
 O182 O 0.72368 0.79140 0.29124
 Zr183 Zr 0.79473 0.76760 0.26663
 O184 O 0.77208 0.74236 0.29113
 Zr185 Zr 0.74840 0.76768 0.21935
 O186 O 0.72315 0.74315 0.24215
 Zr187 Zr 0.74658 0.76527 0.31470
 O188 O 0.77144 0.79111 0.29231
 Zr189 Zr 0.69982 0.76626 0.26808
 O190 O 0.72251 0.79115 0.24251
 Zr191 Zr 0.74646 0.71934 0.26748
 O192 O 0.77187 0.74202 0.24271
 O193 O 0.77299 0.79230 0.24143
 O194 O 0.72162 0.74076 0.29268
 C195 C 0.74609 0.82790 0.20502
 C196 C 0.80856 0.82791 0.26817
 C197 C 0.80903 0.76562 0.20636
 C198 C 0.74865 0.70472 0.32773
 C199 C 0.68664 0.76308 0.32890
 C200 C 0.68590 0.70594 0.26842
 H201 H 0.71300 0.80326 0.30270
 H202 H 0.71205 0.73239 0.23008
 H203 H 0.78441 0.80363 0.23003
 H204 H 0.78427 0.73141 0.30209
 H205 H 0.78895 0.78226 0.33825
 H206 H 0.81869 0.75988 0.31164
 H207 H 0.67399 0.75520 0.22476
 H208 H 0.70374 0.77759 0.19628
 H209 H 0.74869 0.81063 0.33804
 H210 H 0.76149 0.84065 0.30807
 H211 H 0.73238 0.69369 0.22487
 H212 H 0.76061 0.72316 0.19719
 H213 H 0.70367 0.83678 0.25366
 H214 H 0.67460 0.80931 0.28136
 H215 H 0.81726 0.72298 0.25459
 H216 H 0.78980 0.69343 0.27823
 O217 O 0.74846 0.17841 0.78451
 O218 O 0.72181 0.17140 0.74749
 O219 O 0.81907 0.21243 0.74885
 O220 O 0.83043 0.24798 0.72604
 O221 O 0.78540 0.24647 0.82073
 O222 O 0.74903 0.27416 0.82936
 O223 O 0.75123 0.28641 0.68207
 O224 O 0.77879 0.25172 0.67306
 O225 O 0.68141 0.25215 0.71434
 O226 O 0.67133 0.22267 0.74995
 O227 O 0.71505 0.31844 0.75038
 O228 O 0.75123 0.32656 0.77982
 O229 O 0.74970 0.31795 0.71431
 O230 O 0.78212 0.32360 0.75387
 O231 O 0.68237 0.28733 0.75085
 O232 O 0.67496 0.24699 0.78158
 O233 O 0.71318 0.25460 0.68225
 O234 O 0.74963 0.21945 0.67487
 O235 O 0.74957 0.20852 0.81819
 O236 O 0.71831 0.24600 0.82578
 O237 O 0.81799 0.24840 0.78942
 O238 O 0.82426 0.28066 0.75147
 O239 O 0.78731 0.18031 0.74849
 O240 O 0.74982 0.17500 0.71713
 Zr241 Zr 0.75104 0.20142 0.74977
 O242 O 0.72576 0.22514 0.72615
 Zr243 Zr 0.79773 0.24802 0.75245
 O244 O 0.77544 0.27296 0.72703
 Zr245 Zr 0.75026 0.24587 0.79840
 O246 O 0.72664 0.27261 0.77608
 Zr247 Zr 0.74941 0.25068 0.70316
 O248 O 0.77500 0.22551 0.72528
 Zr249 Zr 0.70278 0.25054 0.75011
 O250 O 0.72488 0.22355 0.77392
 Zr251 Zr 0.75029 0.29631 0.75069
 O252 O 0.77414 0.27267 0.77646
 O253 O 0.77542 0.22223 0.77582
 O254 O 0.72500 0.27553 0.72553
 C255 C 0.74847 0.18454 0.80928
 C256 C 0.81170 0.18803 0.74785
 C257 C 0.80987 0.24794 0.81376
 C258 C 0.75047 0.31064 0.68974
 C259 C 0.68879 0.25445 0.68997
 C260 C 0.69052 0.31159 0.75045
 H261 H 0.71443 0.21366 0.71499
 H262 H 0.71592 0.28356 0.78836
 H263 H 0.78674 0.21041 0.78688
 H264 H 0.78764 0.28377 0.71597
 H265 H 0.79341 0.23997 0.67915
 H266 H 0.82357 0.25390 0.70852
 H267 H 0.67674 0.26283 0.79305
 H268 H 0.70605 0.23165 0.82032
 H269 H 0.73195 0.21089 0.67479
 H270 H 0.76421 0.18042 0.70480
 H271 H 0.73993 0.32064 0.79482
 H272 H 0.75973 0.28949 0.82316
 H273 H 0.70634 0.17795 0.75773
 H274 H 0.67679 0.20776 0.73840
 H275 H 0.82023 0.29180 0.76718
 H276 H 0.79243 0.32293 0.73710
 O277 O 0.23125 0.79317 0.79338
 O278 O 0.26050 0.80177 0.75659
 O279 O 0.16183 0.76384 0.75024
 O280 O 0.15137 0.72948 0.72527
 O281 O 0.19132 0.72306 0.82216
 O282 O 0.22817 0.69361 0.82989
 O283 O 0.23385 0.69074 0.68471
 O284 O 0.20140 0.72577 0.67749
 O285 O 0.29929 0.72465 0.71873
 O286 O 0.30709 0.75360 0.75799
 O287 O 0.26520 0.65639 0.75254
 O288 O 0.22625 0.64846 0.78200
 O289 O 0.23009 0.65817 0.71608
 O290 O 0.19912 0.64952 0.75272
 O291 O 0.29760 0.68782 0.75276
 O292 O 0.30597 0.72420 0.78530
 O293 O 0.26822 0.72718 0.68594
 O294 O 0.23226 0.75703 0.67733
 O295 O 0.22867 0.76014 0.82441
 O296 O 0.25753 0.72308 0.83155
 O297 O 0.16016 0.72704 0.78951
 O298 O 0.15474 0.69572 0.75196
 O299 O 0.19396 0.79522 0.75501
 O300 O 0.23156 0.80340 0.72690
 Zr301 Zr 0.22963 0.77330 0.75641
 O302 O 0.25469 0.75091 0.73144
 Zr303 Zr 0.18225 0.72751 0.75386
 O304 O 0.20523 0.70308 0.72876
 Zr305 Zr 0.22780 0.72513 0.80184
 O306 O 0.25283 0.70062 0.77902
 Zr307 Zr 0.23186 0.72639 0.70654
 O308 O 0.20656 0.75129 0.72919
 Zr309 Zr 0.27722 0.72422 0.75447
 O310 O 0.25445 0.74889 0.77985
 Zr311 Zr 0.22963 0.67846 0.75242
 O312 O 0.20430 0.70071 0.77751
 O313 O 0.20396 0.75103 0.77990
 O314 O 0.25560 0.70039 0.72854
 C315 C 0.23055 0.78474 0.81766
 C316 C 0.16964 0.78811 0.75167
 C317 C 0.16712 0.72453 0.81405
 C318 C 0.23256 0.66619 0.69191
 C319 C 0.29240 0.72604 0.69407
 C320 C 0.28968 0.66357 0.75216
 H321 H 0.26615 0.76316 0.72115
 H322 H 0.26335 0.68905 0.79102
 H323 H 0.19253 0.76243 0.79114
 H324 H 0.19351 0.69272 0.71691
 H325 H 0.18807 0.73921 0.68291
 H326 H 0.15763 0.72006 0.70920
 H327 H 0.30204 0.70913 0.79741
 H328 H 0.27216 0.73477 0.82549
 H329 H 0.24431 0.77118 0.68360
 H330 H 0.21938 0.79795 0.71243
 H331 H 0.24083 0.65096 0.79498
 H332 H 0.21572 0.67999 0.82315
 H333 H 0.27447 0.79469 0.76859
 H334 H 0.30416 0.76695 0.74374
 H335 H 0.15912 0.68331 0.76672
 H336 H 0.18614 0.65441 0.73871
 O337 O 0.24628 0.33462 0.72946
 O338 O 0.21703 0.33982 0.76775
 O339 O 0.31638 0.30182 0.76555
 O340 O 0.32718 0.26672 0.79045
 O341 O 0.28329 0.26746 0.69456
 O342 O 0.24631 0.23706 0.68752
 O343 O 0.25130 0.22418 0.83194
 O344 O 0.28143 0.26143 0.83893
 O345 O 0.18092 0.26091 0.80420
 O346 O 0.17111 0.29285 0.76773
 O347 O 0.21235 0.19538 0.76329
 O348 O 0.24963 0.18907 0.73184
 O349 O 0.24972 0.19412 0.79833
 O350 O 0.27810 0.18762 0.75932
 O351 O 0.17990 0.22666 0.76649
 O352 O 0.17023 0.26601 0.73819
 O353 O 0.21419 0.25722 0.83462
 O354 O 0.24474 0.28857 0.84370
 O355 O 0.24429 0.30345 0.69683
 O356 O 0.21692 0.26656 0.68824
 O357 O 0.31570 0.26520 0.72619
 O358 O 0.32382 0.23456 0.76254
 O359 O 0.28419 0.33363 0.76526
 O360 O 0.24725 0.34047 0.79595
 Zr361 Zr 0.24841 0.31195 0.76510
 O362 O 0.22498 0.28771 0.79031
 Zr363 Zr 0.29555 0.26581 0.76269
 O364 O 0.27404 0.23945 0.78706
 Zr365 Zr 0.24769 0.26699 0.71693
 O366 O 0.22364 0.24122 0.73961
 Zr367 Zr 0.24894 0.26117 0.81214
 O368 O 0.27278 0.28808 0.78991
 Zr369 Zr 0.20077 0.26295 0.76709
 O370 O 0.22225 0.28917 0.74177
 Zr371 Zr 0.24811 0.21690 0.76332
 O372 O 0.27228 0.24084 0.73856
 O373 O 0.27272 0.29109 0.73908
 O374 O 0.22370 0.23697 0.79006
 C375 C 0.24433 0.32762 0.70487
 C376 C 0.30863 0.32617 0.76596
 C377 C 0.30775 0.26579 0.70191
 C378 C 0.25130 0.20024 0.82307
 C379 C 0.18954 0.25798 0.82820
 C380 C 0.18784 0.20244 0.76456
 H381 H 0.21450 0.29902 0.80250
 H382 H 0.21240 0.23073 0.72742
 H383 H 0.28366 0.30293 0.72773
 H384 H 0.28661 0.22829 0.79735
 H385 H 0.29189 0.27765 0.83498
 H386 H 0.32114 0.25714 0.80660
 H387 H 0.17356 0.25232 0.72449
 H388 H 0.20205 0.27692 0.69589
 H389 H 0.25178 0.30566 0.83703
 H390 H 0.26270 0.33700 0.80769
 H391 H 0.23493 0.19322 0.71938
 H392 H 0.26008 0.22380 0.69234
 H393 H 0.20327 0.33410 0.75489
 H394 H 0.17557 0.30538 0.78218
 H395 H 0.31799 0.22168 0.74889
 H396 H 0.29173 0.19098 0.77310
 O397 O 0.75913 0.67965 0.70342
 O398 O 0.78936 0.67181 0.74031
 O399 O 0.69231 0.71502 0.73912
 O400 O 0.68390 0.75081 0.76483
 O401 O 0.72713 0.75089 0.66845
 O402 O 0.76586 0.77678 0.66067
 O403 O 0.76293 0.78734 0.80629
 O404 O 0.73211 0.75361 0.81446
 O405 O 0.83083 0.74613 0.77588
 O406 O 0.83750 0.71542 0.73791
 O407 O 0.80322 0.81565 0.73854
 O408 O 0.76551 0.82488 0.70658
 O409 O 0.76661 0.81856 0.77359
 O410 O 0.73775 0.82779 0.73527
 O411 O 0.83310 0.78179 0.74126
 O412 O 0.84000 0.74440 0.71017
 O413 O 0.79891 0.75222 0.80730
 O414 O 0.76100 0.72113 0.81594
 O415 O 0.76210 0.71062 0.67032
 O416 O 0.79365 0.74584 0.66233
 O417 O 0.69457 0.75127 0.69989
 O418 O 0.68899 0.78337 0.73576
 O419 O 0.72339 0.68223 0.74239
 O420 O 0.76012 0.67298 0.76965
 Zr421 Zr 0.75985 0.70178 0.73882
 O422 O 0.78525 0.72371 0.76353
 Zr423 Zr 0.71509 0.75030 0.73656
 O424 O 0.73870 0.77462 0.76126
 Zr425 Zr 0.76253 0.74723 0.69059
 O426 O 0.78822 0.77136 0.71317
 Zr427 Zr 0.76291 0.75097 0.78592
 O428 O 0.73696 0.72658 0.76359
 Zr429 Zr 0.81004 0.74730 0.73966
 O430 O 0.78677 0.72292 0.71475
 Zr431 Zr 0.76584 0.79650 0.73790
 O432 O 0.73998 0.77448 0.71289
 O433 O 0.73639 0.72417 0.71294
 O434 O 0.78925 0.77394 0.76368
 C435 C 0.76040 0.68646 0.67872
 C436 C 0.69929 0.69050 0.74193
 C437 C 0.70260 0.75200 0.67556
 C438 C 0.76483 0.81156 0.79822
 C439 C 0.82325 0.74939 0.80005
 C440 C 0.82706 0.80655 0.74062
 H441 H 0.79555 0.71137 0.77492
 H442 H 0.79992 0.78158 0.70111
 H443 H 0.72445 0.71311 0.70193
 H444 H 0.72707 0.78630 0.77193
 H445 H 0.71783 0.74147 0.80853
 H446 H 0.68984 0.76178 0.78000
 H447 H 0.83734 0.75903 0.69720
 H448 H 0.80700 0.73316 0.66941
 H449 H 0.77674 0.70945 0.81430
 H450 H 0.75038 0.68093 0.78478
 H451 H 0.78098 0.82132 0.69497
 H452 H 0.75515 0.79212 0.66678
 H453 H 0.80277 0.67644 0.72663
 H454 H 0.83314 0.70284 0.75249
 H455 H 0.69574 0.79574 0.72193
 H456 H 0.72361 0.82414 0.74847
 O457 O 0.24434 0.67975 0.28689
 O458 O 0.21776 0.67202 0.24996
 O459 O 0.31514 0.71204 0.24800
 O460 O 0.32717 0.74799 0.22626
 O461 O 0.28306 0.74938 0.32087
 O462 O 0.24653 0.77611 0.32976
 O463 O 0.24758 0.78547 0.18201
 O464 O 0.27456 0.75025 0.17341
 O465 O 0.17770 0.75198 0.21584
 O466 O 0.16765 0.72412 0.25229
 O467 O 0.21249 0.81929 0.24994
 O468 O 0.24918 0.82760 0.27886
 O469 O 0.24701 0.81767 0.21362
 O470 O 0.27975 0.82367 0.25276
 O471 O 0.17952 0.78853 0.25157
 O472 O 0.17222 0.74883 0.28337
 O473 O 0.20907 0.75389 0.18329
 O474 O 0.24519 0.71834 0.17624
 O475 O 0.24712 0.71052 0.31989
 O476 O 0.21589 0.74827 0.32687
 O477 O 0.31537 0.74698 0.28930
 O478 O 0.32110 0.78041 0.25152
 O479 O 0.28331 0.68007 0.25089
 O480 O 0.24573 0.67471 0.21950
 Zr481 Zr 0.24730 0.70180 0.25157
 O482 O 0.22199 0.72532 0.22774
 Zr483 Zr 0.29446 0.74788 0.25266
 O484 O 0.27214 0.77257 0.22698
 Zr485 Zr 0.24757 0.74740 0.29918
 O486 O 0.22394 0.77387 0.27656
 Zr487 Zr 0.24555 0.75016 0.20387
 O488 O 0.27114 0.72513 0.22622
 Zr489 Zr 0.19953 0.75149 0.25138
 O490 O 0.22167 0.72479 0.27550
 Zr491 Zr 0.24753 0.79675 0.25039
 O492 O 0.27146 0.77340 0.27637
 O493 O 0.27218 0.72288 0.27689
 O494 O 0.22166 0.77575 0.22597
 C495 C 0.24511 0.68642 0.31150
 C496 C 0.30764 0.68766 0.24860
 C497 C 0.30751 0.74859 0.31367
 C498 C 0.24740 0.80987 0.18920
 C499 C 0.18479 0.75366 0.19135
 C500 C 0.18789 0.81270 0.25058
 H501 H 0.21041 0.71368 0.21701
 H502 H 0.21348 0.78520 0.28872
 H503 H 0.28346 0.71109 0.28801
 H504 H 0.28436 0.78297 0.21557
 H505 H 0.28926 0.73872 0.17971
 H506 H 0.32006 0.75270 0.20849
 H507 H 0.17414 0.76501 0.29433
 H508 H 0.20361 0.73374 0.32196
 H509 H 0.22752 0.70978 0.17675
 H510 H 0.26012 0.67975 0.20702
 H511 H 0.23741 0.82250 0.29380
 H512 H 0.25640 0.79172 0.32289
 H513 H 0.20243 0.67887 0.26022
 H514 H 0.17296 0.70865 0.24143
 H515 H 0.31774 0.79112 0.26768
 H516 H 0.29006 0.82232 0.23604
 O517 O 0.73096 0.29906 0.29071
 O518 O 0.76100 0.30745 0.25447
 O519 O 0.66248 0.26949 0.24614
 O520 O 0.65262 0.23499 0.22107
 O521 O 0.69045 0.22908 0.31882
 O522 O 0.72713 0.19967 0.32758
 O523 O 0.73586 0.19597 0.18259
 O524 O 0.70353 0.23106 0.17456
 O525 O 0.80056 0.22990 0.21784
 O526 O 0.80767 0.25910 0.25691
 O527 O 0.76576 0.16197 0.25138
 O528 O 0.72602 0.15435 0.28004
 O529 O 0.73139 0.16358 0.21407
 O530 O 0.69980 0.15501 0.24995
 O531 O 0.79821 0.19336 0.25209
 O532 O 0.80572 0.23010 0.28465
 O533 O 0.77020 0.23231 0.18439
 O534 O 0.73457 0.26218 0.17480
 O535 O 0.72753 0.26609 0.32174
 O536 O 0.75643 0.22918 0.32969
 O537 O 0.65992 0.23303 0.28557
 O538 O 0.65529 0.20142 0.24817
 O539 O 0.69443 0.30095 0.25157
 O540 O 0.73268 0.30889 0.22409
 Zr541 Zr 0.73013 0.27900 0.25376
 O542 O 0.75572 0.25641 0.22946
 Zr543 Zr 0.68280 0.23317 0.25041
 O544 O 0.70632 0.20858 0.22597
 Zr545 Zr 0.72734 0.23101 0.29932
 O546 O 0.75285 0.20635 0.27723
 Zr547 Zr 0.73343 0.23175 0.20420
 O548 O 0.70766 0.25682 0.22616
 Zr549 Zr 0.77776 0.22980 0.25309
 O550 O 0.75446 0.25467 0.27782
 Zr551 Zr 0.73020 0.18406 0.25028
 O552 O 0.70433 0.20648 0.27466
 O553 O 0.70398 0.25681 0.27677
 O554 O 0.75668 0.20585 0.22684
 C555 C 0.72954 0.29067 0.31498
 C556 C 0.67020 0.29379 0.24771
 C557 C 0.66642 0.23065 0.31025
 C558 C 0.73437 0.17146 0.18991
 C559 C 0.79420 0.23108 0.19303
 C560 C 0.79026 0.16911 0.25152
 H561 H 0.76740 0.26857 0.21933
 H562 H 0.76309 0.19485 0.28954
 H563 H 0.69231 0.26827 0.28769
 H564 H 0.69485 0.19815 0.21392
 H565 H 0.69017 0.24461 0.17961
 H566 H 0.65919 0.22535 0.20525
 H567 H 0.80166 0.21497 0.29664
 H568 H 0.77112 0.24095 0.32393
 H569 H 0.74632 0.27645 0.18135
 H570 H 0.72071 0.30340 0.20946
 H571 H 0.74044 0.15678 0.29321
 H572 H 0.71476 0.18603 0.32070
 H573 H 0.77474 0.30038 0.26675
 H574 H 0.80490 0.27248 0.24266
 H575 H 0.65937 0.18909 0.26308
 H576 H 0.68691 0.16005 0.23592
 C577 C 0.27520 0.05365 0.02014
 C578 C 0.27896 0.07502 0.03742
 C579 C 0.26133 0.07925 0.05853
 C580 C 0.23932 0.06235 0.06172
 C581 C 0.23525 0.04133 0.04416
 C582 C 0.25323 0.03666 0.02329
 N583 N 0.26630 0.10041 0.07681
 N584 N 0.25517 0.10080 0.09955
 C585 C 0.25921 0.12170 0.11829
 C586 C 0.25047 0.11791 0.14444
 C587 C 0.25353 0.13794 0.16327
 C588 C 0.26502 0.16242 0.15608
 C589 C 0.27378 0.16626 0.12974
 C590 C 0.27110 0.14594 0.11098
 H591 H 0.28958 0.05019 0.00448
 H592 H 0.29601 0.08788 0.03481
 H593 H 0.22529 0.06540 0.07777
 H594 H 0.21812 0.02860 0.04693
 H595 H 0.24119 0.09933 0.15022
 H596 H 0.24630 0.13448 0.18332
 H597 H 0.28266 0.18494 0.12366
 H598 H 0.27787 0.14930 0.09077
 C599 C 0.76852 0.55802 0.52164
 C600 C 0.77152 0.57963 0.53878
 C601 C 0.75447 0.58273 0.56056
 C602 C 0.73368 0.56449 0.56451
 C603 C 0.73037 0.54320 0.54714
 C604 C 0.74789 0.53960 0.52568
 N605 N 0.75900 0.60397 0.57885
 N606 N 0.74844 0.60380 0.60187
 C607 C 0.75232 0.62466 0.62069
 C608 C 0.74385 0.62063 0.64690
 C609 C 0.74704 0.64053 0.66587
 C610 C 0.75843 0.66507 0.65877
 C611 C 0.76688 0.66916 0.63235
 C612 C 0.76403 0.64900 0.61345
 H613 H 0.78262 0.55539 0.50557
 H614 H 0.78765 0.59351 0.53559
 H615 H 0.72010 0.56663 0.58110
 H616 H 0.71428 0.52932 0.55059
 H617 H 0.73473 0.60196 0.65263
 H618 H 0.74007 0.63687 0.68598
 H619 H 0.77569 0.68788 0.62633
 H620 H 0.77062 0.65254 0.59321
 C621 C 0.78953 0.97040 0.06586
 C622 C 0.78636 0.95550 0.08927
 C623 C 0.76763 0.93506 0.09060
 C624 C 0.75195 0.92968 0.06811
 C625 C 0.75494 0.94463 0.04472
 C626 C 0.77363 0.96552 0.04317
 N627 N 0.76539 0.91960 0.11464
 N628 N 0.75026 0.89938 0.11601
 C629 C 0.74796 0.88306 0.13940
 C630 C 0.73424 0.85903 0.13738
 C631 C 0.73307 0.84152 0.15901
 C632 C 0.74527 0.84794 0.18334
 C633 C 0.75815 0.87261 0.18579
 C634 C 0.75969 0.89000 0.16387
 H635 H 0.80521 0.98507 0.06536
 H636 H 0.79892 0.95958 0.10629
 H637 H 0.73725 0.91399 0.06859
 H638 H 0.74183 0.94031 0.02820
 H639 H 0.72504 0.85351 0.11870
 H640 H 0.72288 0.82273 0.15658
 H641 H 0.76787 0.87795 0.20427
 H642 H 0.77032 0.90857 0.16591
 C643 C 0.28955 0.46688 0.56360
 C644 C 0.28659 0.45247 0.58736
 C645 C 0.26574 0.43429 0.59037
 C646 C 0.24763 0.43088 0.56929
 C647 C 0.25046 0.44542 0.54563
 C648 C 0.27141 0.46360 0.54253
 N649 N 0.26382 0.41896 0.61452
 N650 N 0.24685 0.40037 0.61704
 C651 C 0.24480 0.38403 0.64044
 C652 C 0.22912 0.36116 0.63918
 C653 C 0.22832 0.34334 0.66056
 C654 C 0.24282 0.34835 0.68394
 C655 C 0.25759 0.37198 0.68579
 C656 C 0.25880 0.38963 0.66405
 H657 H 0.30613 0.48044 0.56158
 H658 H 0.30080 0.45517 0.60333
 H659 H 0.23133 0.41697 0.57106
 H660 H 0.23615 0.44260 0.52976
 H661 H 0.21820 0.35667 0.62115
 H662 H 0.21671 0.32532 0.65865
 H663 H 0.26911 0.37617 0.70352
 H664 H 0.27097 0.40729 0.66549
 C665 C 0.80372 0.04667 0.94595
 C666 C 0.80134 0.06691 0.92705
 C667 C 0.78017 0.06711 0.90912
 C668 C 0.76230 0.04563 0.90897
 C669 C 0.76471 0.02512 0.92790
 C670 C 0.78484 0.02598 0.94748
 N671 N 0.77646 0.09023 0.89274
 N672 N 0.75766 0.09249 0.87592
 C673 C 0.75407 0.11638 0.86061
 C674 C 0.73814 0.11569 0.83781
 C675 C 0.73558 0.13822 0.82161
 C676 C 0.74843 0.16209 0.82835
 C677 C 0.76338 0.16318 0.85194
 C678 C 0.76640 0.14041 0.86785
 H679 H 0.82002 0.04766 0.96003
 H680 H 0.81546 0.08315 0.92710
 H681 H 0.74579 0.04534 0.89514
 H682 H 0.74941 0.01003 0.92856
 H683 H 0.72838 0.09739 0.83213
 H684 H 0.72390 0.13689 0.80353
 H685 H 0.77367 0.18125 0.85742
 H686 H 0.77857 0.14150 0.88561
 C687 C 0.30167 0.54095 0.43991
 C688 C 0.29950 0.56180 0.42157
 C689 C 0.27613 0.56535 0.40688
 C690 C 0.25552 0.54660 0.40937
 C691 C 0.25769 0.52566 0.42778
 C692 C 0.28045 0.52325 0.44381
 N693 N 0.27321 0.58909 0.39123
 N694 N 0.25262 0.59385 0.37727
 C695 C 0.24964 0.61813 0.36249
 C696 C 0.23095 0.61925 0.34190
 C697 C 0.22875 0.64200 0.32598
 C698 C 0.24473 0.66434 0.33091
 C699 C 0.26253 0.66379 0.35245
 C700 C 0.26518 0.64071 0.36801
 H701 H 0.31929 0.53955 0.45226
 H702 H 0.31554 0.57603 0.41976
 H703 H 0.23729 0.54888 0.39813
 H704 H 0.24094 0.51248 0.43080
 H705 H 0.21873 0.60209 0.33759
 H706 H 0.21493 0.64198 0.30942
 H707 H 0.27525 0.68067 0.35640
 H708 H 0.27955 0.64038 0.38407
 C709 C 0.27028 0.94199 0.93719
 C710 C 0.26963 0.92129 0.91887
 C711 C 0.25181 0.90033 0.92203
 C712 C 0.23506 0.89976 0.94443
 C713 C 0.23557 0.92062 0.96289
 C714 C 0.25287 0.94244 0.95928
 N715 N 0.25038 0.88083 0.90138
 N716 N 0.23614 0.86000 0.90300
 C717 C 0.23468 0.84156 0.88134
 C718 C 0.22342 0.81651 0.88568
 C719 C 0.22209 0.79803 0.86499
 C720 C 0.23160 0.80452 0.83938
 C721 C 0.24241 0.82990 0.83494
 C722 C 0.24413 0.84819 0.85577
 H723 H 0.28458 0.95776 0.93396
 H724 H 0.28280 0.92182 0.90181
 H725 H 0.22093 0.88376 0.94715
 H726 H 0.22112 0.92038 0.97885
 H727 H 0.21593 0.81119 0.90522
 H728 H 0.21345 0.77871 0.86900
 H729 H 0.24994 0.83545 0.81547
 H730 H 0.25272 0.86754 0.85184
 C731 C 0.76793 0.44319 0.44161
 C732 C 0.76788 0.42304 0.42263
 C733 C 0.74800 0.40369 0.42279
 C734 C 0.72846 0.40419 0.44286
 C735 C 0.72837 0.42457 0.46184
 C736 C 0.74790 0.44450 0.46107
 N737 N 0.74751 0.38475 0.40157
 N738 N 0.73170 0.36503 0.40120
 C739 C 0.73111 0.34694 0.37921
 C740 C 0.71827 0.32249 0.38231
 C741 C 0.71777 0.30424 0.36140
 C742 C 0.72968 0.31040 0.33675
 C743 C 0.74201 0.33524 0.33344
 C744 C 0.74295 0.35328 0.35458
 H745 H 0.78324 0.45829 0.44066
 H746 H 0.78306 0.42284 0.40733
 H747 H 0.71283 0.38943 0.44331
 H748 H 0.71251 0.42537 0.47640
 H749 H 0.70893 0.31743 0.40110
 H750 H 0.70790 0.28535 0.36447
 H751 H 0.75137 0.34048 0.31471
 H752 H 0.75278 0.37220 0.35163
 C753 C 0.04288 0.22447 0.05755
 C754 C 0.06475 0.22281 0.07454
 C755 C 0.08532 0.24127 0.07274
 C756 C 0.08406 0.26140 0.05325
 C757 C 0.06193 0.26334 0.03630
 C758 C 0.04078 0.24497 0.03829
 N759 N 0.10631 0.23978 0.09198
 N760 N 0.12770 0.25316 0.09032
 C761 C 0.14751 0.25157 0.11088
 C762 C 0.17313 0.26124 0.10595
 C763 C 0.19272 0.25985 0.12576
 C764 C 0.18676 0.24928 0.15108
 C765 C 0.16094 0.23984 0.15604
 C766 C 0.14157 0.24078 0.13610
 H767 H 0.02760 0.20944 0.05946
 H768 H 0.06555 0.20715 0.08941
 H769 H 0.09965 0.27614 0.05177
 H770 H 0.06087 0.28006 0.02268
 H771 H 0.17797 0.26968 0.08665
 H772 H 0.21240 0.26739 0.12142
 H773 H 0.15578 0.23147 0.17529
 H774 H 0.12187 0.23334 0.14050
 C775 C 0.54118 0.72883 0.55591
 C776 C 0.56297 0.72656 0.57298
 C777 C 0.58228 0.74648 0.57379
 C778 C 0.57986 0.76865 0.55674
 C779 C 0.55775 0.77115 0.53983
 C780 C 0.53801 0.75137 0.53950
 N781 N 0.60304 0.74431 0.59326
 N782 N 0.62367 0.75893 0.59315
 C783 C 0.64329 0.75681 0.61383
 C784 C 0.66869 0.76737 0.60964
 C785 C 0.68813 0.76554 0.62956
 C786 C 0.68222 0.75369 0.65431
 C787 C 0.65660 0.74343 0.65860
 C788 C 0.63739 0.74474 0.63847
 H789 H 0.52638 0.71322 0.55597
 H790 H 0.56459 0.70939 0.58601
 H791 H 0.59447 0.78442 0.55720
 H792 H 0.55561 0.78894 0.52776
 H793 H 0.67349 0.77683 0.59081
 H794 H 0.70767 0.77374 0.62576
 H795 H 0.65152 0.73408 0.67741
 H796 H 0.61784 0.73662 0.64229
 C797 C 0.01961 0.77470 0.94193
 C798 C 0.03610 0.77110 0.91983
 C799 C 0.05150 0.74804 0.91751
 C800 C 0.04952 0.72805 0.93707
 C801 C 0.03267 0.73139 0.95889
 C802 C 0.01776 0.75487 0.96170
 N803 N 0.06975 0.74582 0.89578
 N804 N 0.08850 0.72881 0.89603
 C805 C 0.10717 0.72670 0.87467
 C806 C 0.13089 0.71283 0.87904
 C807 C 0.15034 0.71187 0.85922
 C808 C 0.14603 0.72431 0.83445
 C809 C 0.12179 0.73745 0.82976
 C810 C 0.10258 0.73887 0.84981
 H811 H 0.00869 0.79316 0.94384
 H812 H 0.03756 0.78667 0.90492
 H813 H 0.06110 0.70996 0.93557
 H814 H 0.03146 0.71576 0.97377
 H815 H 0.13459 0.70335 0.89811
 H816 H 0.16879 0.70148 0.86329
 H817 H 0.11802 0.74731 0.81088
 H818 H 0.08428 0.74958 0.84598
 C819 C 0.51883 0.28391 0.43753
 C820 C 0.53425 0.27938 0.41479
 C821 C 0.55152 0.25754 0.41375
 C822 C 0.55252 0.23967 0.43536
 C823 C 0.53698 0.24401 0.45788
 C824 C 0.52024 0.26631 0.45933
 N825 N 0.56884 0.25452 0.39134
 N826 N 0.58803 0.23803 0.39202
 C827 C 0.60633 0.23489 0.37049
 C828 C 0.62977 0.22065 0.37514
 C829 C 0.64913 0.21882 0.35535
 C830 C 0.64505 0.23083 0.33034
 C831 C 0.62102 0.24426 0.32532
 C832 C 0.60185 0.24650 0.34536
 H833 H 0.50625 0.30138 0.43835
 H834 H 0.53336 0.29333 0.39829
 H835 H 0.56557 0.22254 0.43499
 H836 H 0.53821 0.23009 0.47439
 H837 H 0.63336 0.21160 0.39444
 H838 H 0.66741 0.20824 0.35968
 H839 H 0.61746 0.25382 0.30624
 H840 H 0.58377 0.25751 0.34135
 C841 C 0.94308 0.80011 0.05867
 C842 C 0.92397 0.80207 0.07869
 C843 C 0.92228 0.78262 0.09853
 C844 C 0.94117 0.76201 0.09922
 C845 C 0.96033 0.75996 0.07915
 C846 C 0.96098 0.77843 0.05791
 N847 N 0.90007 0.78308 0.11634
 N848 N 0.89740 0.76605 0.13497
 C849 C 0.87459 0.76566 0.15196
 C850 C 0.87576 0.75093 0.17560
 C851 C 0.85414 0.75055 0.19297
 C852 C 0.83068 0.76444 0.18665
 C853 C 0.82910 0.77847 0.16244
 C854 C 0.85104 0.77930 0.14528
 H855 H 0.94334 0.81526 0.04324
 H856 H 0.90973 0.81823 0.07813
 H857 H 0.94021 0.74666 0.11439
 H858 H 0.97266 0.74237 0.07905
 H859 H 0.89369 0.74016 0.18082
 H860 H 0.85579 0.73948 0.21149
 H861 H 0.81128 0.78946 0.15725
 H862 H 0.84962 0.79056 0.12688
 C863 C 0.45442 0.30461 0.56721
 C864 C 0.43471 0.30592 0.58684
 C865 C 0.42396 0.28255 0.59762
 C866 C 0.43369 0.25778 0.58912
 C867 C 0.45298 0.25649 0.56923
 C868 C 0.46343 0.27985 0.55813
 N869 N 0.40213 0.28423 0.61584
 N870 N 0.39430 0.26391 0.62882
 C871 C 0.37187 0.26453 0.64625
 C872 C 0.36991 0.24507 0.66612
 C873 C 0.34866 0.24532 0.68392
 C874 C 0.32857 0.26456 0.68151
 C875 C 0.32992 0.28355 0.66097
 C876 C 0.35169 0.28375 0.64357
 H877 H 0.46169 0.32280 0.55817
 H878 H 0.42725 0.32511 0.59308
 H879 H 0.42548 0.23943 0.59689
 H880 H 0.45887 0.23725 0.56161
 H881 H 0.38524 0.23006 0.66818
 H882 H 0.34792 0.23055 0.69970
 H883 H 0.31467 0.29868 0.65901
 H884 H 0.35274 0.29876 0.62807
 C885 C 0.92538 0.23219 0.98068
 C886 C 0.90490 0.23014 0.96191
 C887 C 0.90164 0.24975 0.94225
 C888 C 0.91780 0.27246 0.94275
 C889 C 0.93781 0.27484 0.96186
 C890 C 0.94243 0.25433 0.98046
 N891 N 0.88275 0.24570 0.92130
 N892 N 0.88495 0.25763 0.89896
 C893 C 0.86630 0.25410 0.87771
 C894 C 0.87258 0.26386 0.85229
 C895 C 0.85462 0.26117 0.83119
 C896 C 0.82980 0.24910 0.83539
 C897 C 0.82363 0.23916 0.86092
 C898 C 0.84179 0.24146 0.88186
 H899 H 0.92869 0.21590 0.99448
 H900 H 0.89248 0.21258 0.96179
 H901 H 0.91531 0.28809 0.92803
 H902 H 0.95046 0.29225 0.96141
 H903 H 0.89144 0.27364 0.84887
 H904 H 0.85983 0.26916 0.81180
 H905 H 0.80470 0.22964 0.86473
 H906 H 0.83648 0.23378 0.90134
 C907 C 0.42628 0.78297 0.47433
 C908 C 0.40646 0.78341 0.45479
 C909 C 0.40033 0.76034 0.44057
 C910 C 0.41306 0.73632 0.44728
 C911 C 0.43226 0.73569 0.46744
 C912 C 0.43926 0.75909 0.48082
 N913 N 0.38190 0.76198 0.41887
 N914 N 0.38279 0.74592 0.39934
 C915 C 0.36414 0.74741 0.37778
 C916 C 0.36983 0.73437 0.35382
 C917 C 0.35186 0.73540 0.33251
 C918 C 0.32758 0.74897 0.33517
 C919 C 0.32193 0.76200 0.35925
 C920 C 0.34013 0.76145 0.38027
 H921 H 0.43212 0.80138 0.48376
 H922 H 0.39685 0.80205 0.44972
 H923 H 0.40848 0.71823 0.43662
 H924 H 0.44263 0.71726 0.47171
 H925 H 0.38827 0.72346 0.35166
 H926 H 0.35658 0.72500 0.31426
 H927 H 0.30338 0.77264 0.36183
 H928 H 0.33524 0.77158 0.39861
 C929 C 0.05215 0.05874 0.20777
 C930 C 0.07209 0.07791 0.20681
 C931 C 0.09244 0.07787 0.22566
 C932 C 0.09343 0.05745 0.24489
 C933 C 0.07339 0.03811 0.24594
 C934 C 0.05191 0.03891 0.22783
 N935 N 0.11091 0.09952 0.22547
 N936 N 0.13060 0.10076 0.24131
 C937 C 0.14836 0.12302 0.24121
 C938 C 0.17263 0.12076 0.25457
 C939 C 0.19082 0.14169 0.25405
 C940 C 0.18481 0.16556 0.24056
 C941 C 0.16004 0.16820 0.22790
 C942 C 0.14201 0.14699 0.22801
 H943 H 0.03666 0.05964 0.19279
 H944 H 0.07130 0.09333 0.19167
 H945 H 0.10905 0.05704 0.25974
 H946 H 0.07381 0.02389 0.26219
 H947 H 0.17768 0.10251 0.26495
 H948 H 0.20971 0.13916 0.26412
 H949 H 0.15498 0.18631 0.21724
 H950 H 0.12322 0.14928 0.21773
 C951 C 0.55687 0.55289 0.70437
 C952 C 0.57600 0.57293 0.70391
 C953 C 0.59284 0.57664 0.72574
 C954 C 0.59128 0.55905 0.74761
 C955 C 0.57201 0.53898 0.74812
 C956 C 0.55421 0.53622 0.72676
 N957 N 0.61018 0.59920 0.72573
 N958 N 0.62657 0.60353 0.74451
 C959 C 0.64338 0.62647 0.74468
 C960 C 0.66543 0.62658 0.76161
 C961 C 0.68313 0.64790 0.76123
 C962 C 0.67868 0.66985 0.74434
 C963 C 0.65589 0.67038 0.72821
 C964 C 0.63845 0.64867 0.72816
 H965 H 0.54326 0.55115 0.68773
 H966 H 0.57709 0.58625 0.68692
 H967 H 0.60415 0.56149 0.76471
 H968 H 0.57005 0.52661 0.76574
 H969 H 0.66933 0.60971 0.77455
 H970 H 0.70057 0.64710 0.77388
 H971 H 0.65221 0.68700 0.71488
 H972 H 0.62132 0.64910 0.71510
 C973 C 0.98094 0.07480 0.73443
 C974 C 0.96247 0.09571 0.73338
 C975 C 0.93781 0.09330 0.74608
 C976 C 0.93227 0.07034 0.76097
 C977 C 0.95061 0.04968 0.76225
 C978 C 0.97506 0.05119 0.74857
 N979 N 0.91825 0.11385 0.74317
 N980 N 0.89417 0.10962 0.74970
 C981 C 0.87379 0.12937 0.74778
 C982 C 0.84756 0.12198 0.75328
 C983 C 0.82718 0.14087 0.75265
 C984 C 0.83285 0.16761 0.74676
 C985 C 0.85924 0.17489 0.74089
 C986 C 0.87954 0.15591 0.74130
 H987 H 0.99894 0.07660 0.72279
 H988 H 0.96697 0.11335 0.72178
 H989 H 0.91359 0.06819 0.77147
 H990 H 0.94555 0.03237 0.77415
 H991 H 0.84295 0.10154 0.75834
 H992 H 0.80713 0.13464 0.75740
 H993 H 0.86426 0.19531 0.73617
 H994 H 0.89971 0.16204 0.73701
 C995 C 0.46827 0.56958 0.21202
 C996 C 0.44843 0.58907 0.21142
 C997 C 0.43414 0.59513 0.23454
 C998 C 0.44099 0.58268 0.25873
 C999 C 0.46140 0.56380 0.25949
 C1000 C 0.47489 0.55686 0.23607
 N1001 N 0.41227 0.61329 0.23284
 N1002 N 0.39287 0.61224 0.24910
 C1003 C 0.37121 0.63071 0.24775
 C1004 C 0.34761 0.62503 0.26144
 C1005 C 0.32637 0.64305 0.26092
 C1006 C 0.32877 0.66733 0.24718
 C1007 C 0.35242 0.67289 0.23334
 C1008 C 0.37337 0.65465 0.23340
 H1009 H 0.47787 0.56381 0.19362
 H1010 H 0.44327 0.59851 0.19267
 H1011 H 0.43028 0.58724 0.27685
 H1012 H 0.46584 0.55365 0.27807
 H1013 H 0.34573 0.60663 0.27259
 H1014 H 0.30845 0.63842 0.27196
 H1015 H 0.35477 0.69146 0.22256
 H1016 H 0.39144 0.65953 0.22276
 C1017 C 0.05595 0.95382 0.77220
 C1018 C 0.07308 0.93210 0.77433
 C1019 C 0.07268 0.91203 0.75520
 C1020 C 0.05467 0.91376 0.73381
 C1021 C 0.03770 0.93577 0.73144
 C1022 C 0.03826 0.95605 0.75062
 N1023 N 0.09158 0.89085 0.75750
 N1024 N 0.09053 0.86989 0.74346
 C1025 C 0.11044 0.84960 0.74580
 C1026 C 0.10570 0.82453 0.73483
 C1027 C 0.12482 0.80439 0.73696
 C1028 C 0.14926 0.80925 0.74964
 C1029 C 0.15408 0.83455 0.76035
 C1030 C 0.13478 0.85449 0.75864
 H1031 H 0.05671 0.96913 0.78729
 H1032 H 0.08690 0.93098 0.79086
 H1033 H 0.05423 0.89855 0.71864
 H1034 H 0.02464 0.93727 0.71433
 H1035 H 0.08708 0.82054 0.72481
 H1036 H 0.12061 0.78513 0.72838
 H1037 H 0.17267 0.83886 0.77032
 H1038 H 0.13899 0.87378 0.76712
 C1039 C 0.55213 0.45697 0.26766
 C1040 C 0.56935 0.43535 0.27030
 C1041 C 0.57062 0.41594 0.25050
 C1042 C 0.55400 0.41815 0.22804
 C1043 C 0.53695 0.44006 0.22519
 C1044 C 0.53603 0.45981 0.24492
 N1045 N 0.58986 0.39508 0.25321
 N1046 N 0.59015 0.37467 0.23833
 C1047 C 0.61035 0.35467 0.24096
 C1048 C 0.60651 0.32984 0.22913
 C1049 C 0.62586 0.30995 0.23149
 C1050 C 0.64972 0.31483 0.24525
 C1051 C 0.65370 0.33992 0.25678
 C1052 C 0.63411 0.35959 0.25486
 H1053 H 0.55173 0.47183 0.28322
 H1054 H 0.58205 0.43387 0.28768
 H1055 H 0.55481 0.40346 0.21237
 H1056 H 0.52512 0.44199 0.20725
 H1057 H 0.58837 0.32582 0.21827
 H1058 H 0.62230 0.29086 0.22227
 H1059 H 0.67182 0.34421 0.26760
 H1060 H 0.63763 0.37872 0.26401
 C1061 C 0.93606 0.97971 0.22643
 C1062 C 0.91400 0.96306 0.22931
 C1063 C 0.91365 0.94332 0.24900
 C1064 C 0.93540 0.94078 0.26634
 C1065 C 0.95730 0.95756 0.26374
 C1066 C 0.95815 0.97735 0.24368
 N1067 N 0.89149 0.92555 0.25053
 N1068 N 0.89233 0.90458 0.26483
 C1069 C 0.87065 0.88629 0.26646
 C1070 C 0.87499 0.86145 0.27833
 C1071 C 0.85472 0.84254 0.27914
 C1072 C 0.82954 0.84841 0.26847
 C1073 C 0.82498 0.87367 0.25720
 C1074 C 0.84544 0.89243 0.25601
 H1075 H 0.93619 0.99354 0.20985
 H1076 H 0.89747 0.96501 0.21560
 H1077 H 0.93549 0.92581 0.28192
 H1078 H 0.97335 0.95531 0.27796
 H1079 H 0.89432 0.85655 0.28649
 H1080 H 0.85877 0.82329 0.28807
 H1081 H 0.80581 0.87868 0.24869
 H1082 H 0.84163 0.91159 0.24683
 C1083 C 0.43745 0.47527 0.72083
 C1084 C 0.41515 0.45894 0.72374
 C1085 C 0.41325 0.44139 0.74540
 C1086 C 0.43349 0.44094 0.76468
 C1087 C 0.45552 0.45753 0.76203
 C1088 C 0.45786 0.47467 0.73997
 N1089 N 0.39119 0.42352 0.74695
 N1090 N 0.39156 0.40352 0.76258
 C1091 C 0.37001 0.38510 0.76431
 C1092 C 0.37438 0.36058 0.77682
 C1093 C 0.35432 0.34146 0.77760
 C1094 C 0.32931 0.34689 0.76635
 C1095 C 0.32465 0.37188 0.75454
 C1096 C 0.34495 0.39079 0.75329
 H1097 H 0.43899 0.48800 0.70343
 H1098 H 0.39971 0.45938 0.70870
 H1099 H 0.43236 0.42768 0.78171
 H1100 H 0.47091 0.45684 0.77713
 H1101 H 0.39362 0.35604 0.78543
 H1102 H 0.35837 0.32242 0.78694
 H1103 H 0.30558 0.37649 0.74560
 H1104 H 0.34114 0.40972 0.74364
 C1105 C 0.03907 0.28139 0.96060
 C1106 C 0.05881 0.28307 0.94123
 C1107 C 0.07886 0.26396 0.94000
 C1108 C 0.07963 0.24349 0.95921
 C1109 C 0.05970 0.24167 0.97871
 C1110 C 0.03872 0.26034 0.97933
 N1111 N 0.09719 0.26527 0.91820
 N1112 N 0.11726 0.25001 0.91613
 C1113 C 0.13464 0.25156 0.89354
 C1114 C 0.15962 0.23945 0.89497
 C1115 C 0.17734 0.24142 0.87362
 C1116 C 0.17013 0.25513 0.85016
 C1117 C 0.14472 0.26658 0.84840
 C1118 C 0.12718 0.26503 0.87001
 H1119 H 0.02374 0.29655 0.96071
 H1120 H 0.05815 0.29905 0.92669
 H1121 H 0.09497 0.22840 0.95853
 H1122 H 0.05988 0.22474 0.99212
 H1123 H 0.16555 0.22887 0.91287
 H1124 H 0.19671 0.23217 0.87545
 H1125 H 0.13867 0.27726 0.83060
 H1126 H 0.10783 0.27434 0.86834
 C1127 C 0.53819 0.78938 0.46431
 C1128 C 0.55790 0.79156 0.44487
 C1129 C 0.57620 0.77098 0.44112
 C1130 C 0.57526 0.74848 0.45791
 C1131 C 0.55532 0.74618 0.47729
 C1132 C 0.53629 0.76641 0.48027
 N1133 N 0.59445 0.77287 0.41926
 N1134 N 0.61310 0.75614 0.41576
 C1135 C 0.63071 0.75774 0.39336
 C1136 C 0.65463 0.74363 0.39425
 C1137 C 0.67262 0.74530 0.37314
 C1138 C 0.66669 0.76064 0.35038
 C1139 C 0.64226 0.77413 0.34905
 C1140 C 0.62448 0.77294 0.37054
 H1141 H 0.52368 0.80520 0.46620
 H1142 H 0.55846 0.80900 0.43214
 H1143 H 0.58919 0.73227 0.45535
 H1144 H 0.55399 0.72810 0.48904
 H1145 H 0.65957 0.73170 0.41160
 H1146 H 0.69122 0.73452 0.37459
 H1147 H 0.63726 0.78611 0.33175
 H1148 H 0.60592 0.78379 0.36931
 C1149 C 0.94154 0.79251 0.95800
 C1150 C 0.92399 0.79248 0.93650
 C1151 C 0.92439 0.77175 0.91815
 C1152 C 0.94311 0.75121 0.92106
 C1153 C 0.96055 0.75102 0.94273
 C1154 C 0.95989 0.77154 0.96182
 N1155 N 0.90458 0.77123 0.89775
 N1156 N 0.90516 0.75454 0.87881
 C1157 C 0.88443 0.75347 0.85935
 C1158 C 0.88868 0.73931 0.83583
 C1159 C 0.86876 0.73795 0.81650
 C1160 C 0.84403 0.75029 0.82074
 C1161 C 0.83964 0.76412 0.84458
 C1162 C 0.85976 0.76588 0.86366
 H1163 H 0.94074 0.80912 0.97164
 H1164 H 0.90971 0.80849 0.93434
 H1165 H 0.94353 0.73477 0.90723
 H1166 H 0.97331 0.73386 0.94531
 H1167 H 0.90756 0.72955 0.83239
 H1168 H 0.87263 0.72708 0.79832
 H1169 H 0.82084 0.77396 0.84826
 H1170 H 0.85597 0.77675 0.88184
 C1171 C 0.44275 0.29601 0.45587
 C1172 C 0.42523 0.29496 0.43437
 C1173 C 0.42565 0.27330 0.41706
 C1174 C 0.44404 0.25263 0.42127
 C1175 C 0.46135 0.25346 0.44303
 C1176 C 0.46081 0.27518 0.46052
 N1177 N 0.40632 0.27217 0.39625
 N1178 N 0.40755 0.25524 0.37756
 C1179 C 0.38727 0.25381 0.35766
 C1180 C 0.39227 0.23985 0.33416
 C1181 C 0.37280 0.23829 0.31438
 C1182 C 0.34780 0.25019 0.31818
 C1183 C 0.34268 0.26383 0.34199
 C1184 C 0.36233 0.26581 0.36150
 H1185 H 0.44196 0.31290 0.46916
 H1186 H 0.41106 0.31093 0.43134
 H1187 H 0.44448 0.23553 0.40825
 H1188 H 0.47467 0.23689 0.44659
 H1189 H 0.41139 0.23042 0.33107
 H1190 H 0.37720 0.22757 0.29623
 H1191 H 0.32364 0.27333 0.34534
 H1192 H 0.35796 0.27652 0.37964
 C1193 C 0.02466 0.73443 0.06945
 C1194 C 0.04400 0.73179 0.08927
 C1195 C 0.05823 0.75403 0.09788
 C1196 C 0.05175 0.77932 0.08771
 C1197 C 0.03172 0.78209 0.06853
 C1198 C 0.01839 0.75960 0.05897
 N1199 N 0.07972 0.75030 0.11619
 N1200 N 0.09963 0.76588 0.11664
 C1201 C 0.12099 0.76214 0.13517
 C1202 C 0.14549 0.77444 0.13030
 C1203 C 0.16668 0.77102 0.14810
 C1204 C 0.16334 0.75577 0.17139
 C1205 C 0.13871 0.74355 0.17626
 C1206 C 0.11779 0.74647 0.15819
 H1207 H 0.01499 0.71682 0.06180
 H1208 H 0.04886 0.71222 0.09697
 H1209 H 0.06244 0.79676 0.09428
 H1210 H 0.02753 0.80156 0.06017
 H1211 H 0.14818 0.78658 0.11263
 H1212 H 0.18539 0.78087 0.14406
 H1213 H 0.13564 0.73168 0.19408
 H1214 H 0.09901 0.73687 0.16242
 C1215 C 0.52065 0.25483 0.57665
 C1216 C 0.53946 0.25204 0.59701
 C1217 C 0.56185 0.26851 0.59767
 C1218 C 0.56444 0.28897 0.57870
 C1219 C 0.54539 0.29211 0.55870
 C1220 C 0.52363 0.27472 0.55714
 N1221 N 0.58231 0.26322 0.61680
 N1222 N 0.60572 0.27237 0.61398
 C1223 C 0.62636 0.26707 0.63292
 C1224 C 0.65246 0.27456 0.62684
 C1225 C 0.67303 0.26979 0.64503
 C1226 C 0.66764 0.25774 0.66978
 C1227 C 0.64140 0.25012 0.67573
 C1228 C 0.62097 0.25460 0.65742
 H1229 H 0.50474 0.24051 0.57534
 H1230 H 0.53735 0.23611 0.61146
 H1231 H 0.58147 0.30209 0.57897
 H1232 H 0.54819 0.30744 0.54372
 H1233 H 0.65684 0.28417 0.60799
 H1234 H 0.69298 0.27610 0.64000
 H1235 H 0.63663 0.24076 0.69462
 H1236 H 0.60095 0.24863 0.66257
 C1237 C 0.92325 0.26391 0.03927
 C1238 C 0.90141 0.26279 0.05649
 C1239 C 0.89952 0.24263 0.07574
 C1240 C 0.91921 0.22282 0.07681
 C1241 C 0.94075 0.22359 0.05921
 C1242 C 0.94328 0.24439 0.04051
 N1243 N 0.87792 0.24311 0.09437
 N1244 N 0.87859 0.22991 0.11609
 C1245 C 0.85714 0.23028 0.13490
 C1246 C 0.86145 0.22027 0.16063
 C1247 C 0.84114 0.22081 0.17964
 C1248 C 0.81589 0.23091 0.17304
 C1249 C 0.81149 0.24061 0.14704
 C1250 C 0.83199 0.24051 0.12820
 H1251 H 0.92486 0.28050 0.02552
 H1252 H 0.88638 0.27821 0.05548
 H1253 H 0.91803 0.20686 0.09132
 H1254 H 0.95572 0.20813 0.06051
 H1255 H 0.88073 0.21229 0.16603
 H1256 H 0.84512 0.21307 0.19942
 H1257 H 0.79228 0.24855 0.14135
 H1258 H 0.82814 0.24825 0.10839
 C1259 C 0.41886 0.76760 0.54065
 C1260 C 0.39710 0.76487 0.55780
 C1261 C 0.39581 0.74359 0.57584
 C1262 C 0.41603 0.72429 0.57571
 C1263 C 0.43750 0.72668 0.55813
 C1264 C 0.43936 0.74857 0.54063
 N1265 N 0.37440 0.74260 0.59469
 N1266 N 0.37558 0.72841 0.61576
 C1267 C 0.35433 0.72756 0.63481
 C1268 C 0.35916 0.71673 0.66012
 C1269 C 0.33915 0.71640 0.67948
 C1270 C 0.31368 0.72642 0.67363
 C1271 C 0.30874 0.73682 0.64800
 C1272 C 0.32893 0.73761 0.62884
 H1273 H 0.42019 0.78522 0.52831
 H1274 H 0.38176 0.77999 0.55783
 H1275 H 0.41538 0.70755 0.58934
 H1276 H 0.45302 0.71174 0.55861
 H1277 H 0.37864 0.70889 0.66498
 H1278 H 0.34355 0.70813 0.69896
 H1279 H 0.28935 0.74473 0.64288
 H1280 H 0.32467 0.74597 0.60937
 C1281 C 0.23605 0.06044 0.97080
 C1282 C 0.23560 0.08407 0.95601
 C1283 C 0.25118 0.08672 0.93313
 C1284 C 0.26781 0.06566 0.92547
 C1285 C 0.26852 0.04216 0.94031
 C1286 C 0.25262 0.03904 0.96327
 N1287 N 0.24914 0.11043 0.91734
 N1288 N 0.25950 0.11159 0.89426
 C1289 C 0.25776 0.13449 0.87741
 C1290 C 0.26603 0.13205 0.85099
 C1291 C 0.26389 0.15348 0.83345
 C1292 C 0.25376 0.17800 0.84219
 C1293 C 0.24597 0.18069 0.86895
 C1294 C 0.24775 0.15896 0.88645
 H1295 H 0.22248 0.05863 0.98743
 H1296 H 0.22244 0.10005 0.96193
 H1297 H 0.28027 0.06731 0.90796
 H1298 H 0.28209 0.02667 0.93405
 H1299 H 0.27383 0.11329 0.84388
 H1300 H 0.27032 0.15087 0.81303
 H1301 H 0.23810 0.19936 0.87617
 H1302 H 0.24133 0.16124 0.90691
 C1303 C 0.72647 0.56217 0.47146
 C1304 C 0.72609 0.58614 0.45723
 C1305 C 0.74463 0.59078 0.43697
 C1306 C 0.76404 0.57141 0.43149
 C1307 C 0.76461 0.54763 0.44587
 C1308 C 0.74577 0.54273 0.46588
 N1309 N 0.74279 0.61463 0.42137
 N1310 N 0.75613 0.61709 0.40000
 C1311 C 0.75479 0.63999 0.38314
 C1312 C 0.76599 0.63822 0.35778
 C1313 C 0.76403 0.65942 0.33998
 C1314 C 0.75120 0.68307 0.34744
 C1315 C 0.74067 0.68526 0.37327
 C1316 C 0.74219 0.66367 0.39100
 H1317 H 0.71153 0.55865 0.48660
 H1318 H 0.71096 0.60084 0.46154
 H1319 H 0.77868 0.57456 0.41600
 H1320 H 0.77977 0.53301 0.44137
 H1321 H 0.77581 0.62008 0.35162
 H1322 H 0.77262 0.65730 0.32031
 H1323 H 0.73075 0.70332 0.37947
 H1324 H 0.73351 0.66542 0.41065
 C1325 C 0.80160 0.04333 0.04941
 C1326 C 0.79788 0.06258 0.06901
 C1327 C 0.77392 0.06394 0.08303
 C1328 C 0.75392 0.04514 0.07793
 C1329 C 0.75751 0.02603 0.05812
 C1330 C 0.78124 0.02523 0.04340
 N1331 N 0.76986 0.08541 0.10120
 N1332 N 0.74958 0.08663 0.11627
 C1333 C 0.74519 0.10862 0.13370
 C1334 C 0.72731 0.10567 0.15481
 C1335 C 0.72339 0.12636 0.17282
 C1336 C 0.73681 0.15064 0.16952
 C1337 C 0.75400 0.15399 0.14773
 C1338 C 0.75838 0.13301 0.13006
 H1339 H 0.82001 0.04313 0.03822
 H1340 H 0.81343 0.07694 0.07279
 H1341 H 0.73518 0.04586 0.08849
 H1342 H 0.74136 0.01260 0.05351
 H1343 H 0.71690 0.08703 0.15769
 H1344 H 0.70998 0.12336 0.18945
 H1345 H 0.76472 0.17245 0.14492
 H1346 H 0.77209 0.13579 0.11366
 C1347 C 0.29615 0.54256 0.54600
 C1348 C 0.29278 0.56132 0.56611
 C1349 C 0.26981 0.56120 0.58176
 C1350 C 0.25052 0.54142 0.57775
 C1351 C 0.25376 0.52276 0.55744
 C1352 C 0.27642 0.52346 0.54113
 N1353 N 0.26592 0.58224 0.60045
 N1354 N 0.24659 0.58243 0.61677
 C1355 C 0.24243 0.60408 0.63467
 C1356 C 0.22581 0.60037 0.65668
 C1357 C 0.22220 0.62079 0.67508
 C1358 C 0.23467 0.64552 0.67131
 C1359 C 0.25058 0.64957 0.64867
 C1360 C 0.25465 0.62891 0.63058
 H1361 H 0.31374 0.54350 0.53359
 H1362 H 0.30777 0.57646 0.56905
 H1363 H 0.23254 0.54101 0.58958
 H1364 H 0.23807 0.50853 0.55373
 H1365 H 0.21616 0.58139 0.65992
 H1366 H 0.20977 0.61722 0.69235
 H1367 H 0.26056 0.66839 0.64545
 H1368 H 0.26736 0.63228 0.61350
 C1369 C 0.79556 0.96759 0.92554
 C1370 C 0.79529 0.95068 0.90342
 C1371 C 0.77523 0.93162 0.90054
 C1372 C 0.75466 0.93052 0.91946
 C1373 C 0.75464 0.94770 0.94127
 C1374 C 0.77533 0.96612 0.94486
 N1375 N 0.77661 0.91295 0.87901
 N1376 N 0.76305 0.89159 0.87941
 C1377 C 0.76383 0.87220 0.85856
 C1378 C 0.75252 0.84726 0.86338
 C1379 C 0.75309 0.82757 0.84385
 C1380 C 0.76458 0.83263 0.81880
 C1381 C 0.77565 0.85787 0.81380
 C1382 C 0.77550 0.87745 0.83363
 H1383 H 0.81199 0.98123 0.92797
 H1384 H 0.81129 0.95175 0.88903
 H1385 H 0.73876 0.91618 0.91756
 H1386 H 0.73869 0.94625 0.95569
 H1387 H 0.74342 0.84298 0.88248
 H1388 H 0.74422 0.80844 0.84829
 H1389 H 0.78471 0.86232 0.79472
 H1390 H 0.78429 0.89666 0.82943
 C1391 C 0.29399 0.46592 0.42296
 C1392 C 0.29394 0.44928 0.40063
 C1393 C 0.27512 0.42892 0.39832
 C1394 C 0.25556 0.42613 0.41813
 C1395 C 0.25533 0.44297 0.44019
 C1396 C 0.27479 0.46279 0.44312
 N1397 N 0.27677 0.41070 0.37642
 N1398 N 0.26414 0.38878 0.37683
 C1399 C 0.26520 0.36969 0.35574
 C1400 C 0.25465 0.34440 0.36043
 C1401 C 0.25559 0.32492 0.34074
 C1402 C 0.26673 0.33051 0.31563
 C1403 C 0.27701 0.35609 0.31073
 C1404 C 0.27646 0.37551 0.33073
 H1405 H 0.30954 0.48063 0.42488
 H1406 H 0.30918 0.45164 0.38557
 H1407 H 0.24061 0.41075 0.41672
 H1408 H 0.24014 0.44023 0.45524
 H1409 H 0.24587 0.33969 0.37959
 H1410 H 0.24733 0.30551 0.34511
 H1411 H 0.28578 0.36096 0.29161
 H1412 H 0.28467 0.39499 0.32664
 C1413 C 0.26712 0.92153 0.01971
 C1414 C 0.26850 0.90137 0.03904
 C1415 C 0.24926 0.89977 0.05918
 C1416 C 0.22747 0.91722 0.05861
 C1417 C 0.22579 0.93693 0.03905
 C1418 C 0.24603 0.93987 0.01997
 N1419 N 0.25274 0.88123 0.08066
 N1420 N 0.24125 0.88459 0.10301
 C1421 C 0.24411 0.86620 0.12470
 C1422 C 0.23447 0.87316 0.14993
 C1423 C 0.23632 0.85527 0.17133
 C1424 C 0.24744 0.82994 0.16758
 C1425 C 0.25736 0.82316 0.14228
 C1426 C 0.25587 0.84117 0.12108
 H1427 H 0.28315 0.92362 0.00545
 H1428 H 0.28532 0.88791 0.03920
 H1429 H 0.21214 0.91605 0.07371
 H1430 H 0.20931 0.95082 0.03959
 H1431 H 0.22535 0.89243 0.15294
 H1432 H 0.22836 0.86094 0.19054
 H1433 H 0.26614 0.80381 0.13881
 H1434 H 0.26343 0.83532 0.10178
 C1435 C 0.76371 0.42313 0.52025
 C1436 C 0.76565 0.40268 0.53923
 C1437 C 0.74745 0.40121 0.56033
 C1438 C 0.72596 0.41900 0.56104
 C1439 C 0.72372 0.43904 0.54190
 C1440 C 0.74311 0.44193 0.52195
 N1441 N 0.75183 0.38259 0.58156
 N1442 N 0.74133 0.38591 0.60440
 C1443 C 0.74515 0.36752 0.62593
 C1444 C 0.73582 0.37409 0.65138
 C1445 C 0.73844 0.35609 0.67261
 C1446 C 0.75009 0.33106 0.66846
 C1447 C 0.75985 0.32477 0.64297
 C1448 C 0.75753 0.34286 0.62194
 H1449 H 0.77908 0.42518 0.50529
 H1450 H 0.78222 0.38894 0.53840
 H1451 H 0.71139 0.41793 0.57688
 H1452 H 0.70762 0.45327 0.54350
 H1453 H 0.72625 0.39309 0.65468
 H1454 H 0.73058 0.36137 0.69197
 H1455 H 0.76904 0.30566 0.63918
 H1456 H 0.76492 0.33734 0.60247
 C1457 C 0.03085 0.07200 0.77322
 C1458 C 0.04739 0.09411 0.77677
 C1459 C 0.06924 0.09822 0.75993
 C1460 C 0.07372 0.08056 0.73878
 C1461 C 0.05704 0.05882 0.73499
 C1462 C 0.03565 0.05410 0.75232
 N1463 N 0.08718 0.11977 0.76492
 N1464 N 0.11028 0.11984 0.75457
 C1465 C 0.12919 0.14072 0.75827
 C1466 C 0.15529 0.13643 0.74979
 C1467 C 0.17438 0.15632 0.75235
 C1468 C 0.16758 0.18118 0.76308
 C1469 C 0.14128 0.18552 0.77163
 C1470 C 0.12222 0.16534 0.76942
 H1471 H 0.01468 0.06855 0.78705
 H1472 H 0.04370 0.10756 0.79314
 H1473 H 0.09028 0.08342 0.72530
 H1474 H 0.06109 0.04532 0.71872
 H1475 H 0.16083 0.11755 0.74109
 H1476 H 0.19437 0.15237 0.74539
 H1477 H 0.13547 0.20445 0.78003
 H1478 H 0.10208 0.16908 0.77599
 C1479 C 0.53404 0.57880 0.22781
 C1480 C 0.55052 0.60100 0.23057
 C1481 C 0.56799 0.60287 0.25219
 C1482 C 0.56788 0.58284 0.27181
 C1483 C 0.55099 0.56093 0.26936
 C1484 C 0.53417 0.55845 0.24711
 N1485 N 0.58650 0.62450 0.25307
 N1486 N 0.60716 0.62366 0.26772
 C1487 C 0.62612 0.64488 0.26844
 C1488 C 0.65106 0.64012 0.27988
 C1489 C 0.67052 0.65993 0.27984
 C1490 C 0.66513 0.68512 0.26880
 C1491 C 0.63983 0.69010 0.25791
 C1492 C 0.62055 0.67006 0.25750
 H1493 H 0.52216 0.57702 0.20997
 H1494 H 0.55056 0.61620 0.21520
 H1495 H 0.58108 0.58394 0.28881
 H1496 H 0.55154 0.54553 0.28453
 H1497 H 0.65558 0.62081 0.28842
 H1498 H 0.68974 0.65559 0.28858
 H1499 H 0.63513 0.70930 0.24923
 H1500 H 0.60135 0.67423 0.24864
 C1501 C 0.07294 0.97831 0.22004
 C1502 C 0.09353 0.95948 0.21986
 C1503 C 0.09618 0.94114 0.24084
 C1504 C 0.07925 0.94310 0.26297
 C1505 C 0.05914 0.96225 0.26346
 C1506 C 0.05517 0.97948 0.24163
 N1507 N 0.11531 0.92006 0.23887
 N1508 N 0.11270 0.89857 0.25218
 C1509 C 0.13153 0.87718 0.25090
 C1510 C 0.12464 0.85234 0.26161
 C1511 C 0.14266 0.83110 0.26100
 C1512 C 0.16816 0.83459 0.25015
 C1513 C 0.17501 0.85957 0.23939
 C1514 C 0.15680 0.88062 0.23956
 H1515 H 0.07015 0.99105 0.20280
 H1516 H 0.10654 0.95826 0.20273
 H1517 H 0.08121 0.92945 0.27962
 H1518 H 0.04585 0.96285 0.28043
 H1519 H 0.10521 0.84945 0.27043
 H1520 H 0.13687 0.81216 0.26954
 H1521 H 0.19446 0.86284 0.23076
 H1522 H 0.16261 0.89964 0.23122
 C1523 C 0.57546 0.47657 0.71846
 C1524 C 0.59642 0.45817 0.71912
 C1525 C 0.59786 0.43902 0.73948
 C1526 C 0.57926 0.43971 0.76029
 C1527 C 0.55872 0.45835 0.75995
 C1528 C 0.55603 0.47637 0.73859
 N1529 N 0.61743 0.41833 0.73810
 N1530 N 0.61432 0.39644 0.75060
 C1531 C 0.63348 0.37536 0.74988
 C1532 C 0.62642 0.35023 0.75974
 C1533 C 0.64471 0.32924 0.75952
 C1534 C 0.67061 0.33328 0.74989
 C1535 C 0.67764 0.35857 0.74002
 C1536 C 0.65919 0.37938 0.73983
 H1537 H 0.57369 0.48996 0.70159
 H1538 H 0.61074 0.45793 0.70301
 H1539 H 0.58025 0.42543 0.77649
 H1540 H 0.54416 0.45796 0.77586
 H1541 H 0.60663 0.34692 0.76755
 H1542 H 0.63878 0.31003 0.76733
 H1543 H 0.69740 0.36227 0.73233
 H1544 H 0.66513 0.39863 0.73216
 C1545 C 0.94978 0.05278 0.20922
 C1546 C 0.92778 0.06971 0.20932
 C1547 C 0.91061 0.07022 0.23120
 C1548 C 0.91551 0.05335 0.25308
 C1549 C 0.93785 0.03674 0.25323
 C1550 C 0.95523 0.03634 0.23129
 N1551 N 0.88941 0.08921 0.23135
 N1552 N 0.87016 0.08803 0.24775
 C1553 C 0.85014 0.10830 0.24826
 C1554 C 0.82568 0.10308 0.26048
 C1555 C 0.80595 0.12272 0.26132
 C1556 C 0.81078 0.14813 0.25057
 C1557 C 0.83548 0.15339 0.23863
 C1558 C 0.85489 0.13360 0.23725
 H1559 H 0.96288 0.05285 0.19209
 H1560 H 0.92424 0.08272 0.19241
 H1561 H 0.90264 0.05368 0.27036
 H1562 H 0.94190 0.02463 0.27069
 H1563 H 0.82184 0.08370 0.26916
 H1564 H 0.78711 0.11820 0.27072
 H1565 H 0.83966 0.17274 0.23007
 H1566 H 0.87375 0.13818 0.22792
 C1567 C 0.45156 0.55147 0.70855
 C1568 C 0.42917 0.56787 0.70860
 C1569 C 0.41112 0.56682 0.72974
 C1570 C 0.41549 0.54890 0.75088
 C1571 C 0.43815 0.53278 0.75108
 C1572 C 0.45642 0.53396 0.72991
 N1573 N 0.38961 0.58541 0.73010
 N1574 N 0.37006 0.58330 0.74604
 C1575 C 0.34981 0.60328 0.74695
 C1576 C 0.32545 0.59755 0.75916
 C1577 C 0.30560 0.61702 0.76061
 C1578 C 0.31022 0.64271 0.75047
 C1579 C 0.33477 0.64843 0.73845
 C1580 C 0.35430 0.62885 0.73650
 H1581 H 0.46536 0.55274 0.69203
 H1582 H 0.42604 0.58172 0.69229
 H1583 H 0.40193 0.54804 0.76761
 H1584 H 0.44176 0.51989 0.76806
 H1585 H 0.32182 0.57795 0.76740
 H1586 H 0.28686 0.61215 0.77004
 H1587 H 0.33878 0.66800 0.73032
 H1588 H 0.37307 0.63382 0.72719
 C1589 C 0.96337 0.95312 0.71622
 C1590 C 0.94466 0.93292 0.71354
 C1591 C 0.94107 0.91427 0.73394
 C1592 C 0.95744 0.91520 0.75669
 C1593 C 0.97616 0.93561 0.75947
 C1594 C 0.97874 0.95506 0.73949
 N1595 N 0.91941 0.89601 0.73179
 N1596 N 0.91567 0.87719 0.74837
 C1597 C 0.89308 0.86005 0.74638
 C1598 C 0.89342 0.83569 0.75989
 C1599 C 0.87187 0.81837 0.75795
 C1600 C 0.84930 0.82545 0.74295
 C1601 C 0.84859 0.85026 0.73003
 C1602 C 0.87047 0.86735 0.73149
 H1603 H 0.96502 0.96805 0.70066
 H1604 H 0.93220 0.93237 0.69595
 H1605 H 0.95495 0.90096 0.77274
 H1606 H 0.98760 0.93701 0.77770
 H1607 H 0.91060 0.82997 0.77160
 H1608 H 0.87278 0.79946 0.76837
 H1609 H 0.83142 0.85614 0.71837
 H1610 H 0.86966 0.88628 0.72114
 C1611 C 0.46129 0.45712 0.20709
 C1612 C 0.44272 0.43664 0.20522
 C1613 C 0.43981 0.41827 0.22600
 C1614 C 0.45652 0.41996 0.24843
 C1615 C 0.47499 0.44068 0.25045
 C1616 C 0.47715 0.45973 0.22999
 N1617 N 0.41866 0.39931 0.22450
 N1618 N 0.41612 0.38032 0.24115
 C1619 C 0.39416 0.36228 0.23996
 C1620 C 0.39586 0.33803 0.25358
 C1621 C 0.37492 0.31986 0.25252
 C1622 C 0.35159 0.32596 0.23828
 C1623 C 0.34957 0.35063 0.22519
 C1624 C 0.37082 0.36857 0.22577
 H1625 H 0.46257 0.47161 0.19109
 H1626 H 0.43000 0.43553 0.18784
 H1627 H 0.45454 0.40601 0.26480
 H1628 H 0.48665 0.44254 0.26849
 H1629 H 0.41362 0.33305 0.26475
 H1630 H 0.37690 0.30108 0.26302
 H1631 H 0.33182 0.35578 0.21407
 H1632 H 0.36895 0.38737 0.21533
   
