data_POSCAR
  _audit_creation_date              2014-09-24
  _audit_creation_method            'ToBaCCo'
  _symmetry_space_group_name_H-M    'P1'
  _symmetry_Int_Tables_number       1
  _symmetry_cell_setting            triclinic
  loop_
  _symmetry_equiv_pos_as_xyz
 x,y,z
_cell_length_a 56.1540
_cell_length_b 56.1342
_cell_length_c 55.2425
_cell_angle_alpha 89.531300
_cell_angle_beta 89.909800
_cell_angle_gamma 89.785500
loop_
  _atom_site_label
  _atom_site_type_symbol
  _atom_site_fract_x
  _atom_site_fract_y
  _atom_site_fract_z
N1 N 0.37722 0.31210 0.31797
 N2 N 0.37500 0.32915 0.30167
 C3 C 0.39089 0.32566 0.28383
 C4 C 0.40407 0.30564 0.28930
 C5 C 0.39499 0.29731 0.31111
 H6 H 0.39221 0.33628 0.26747
 H7 H 0.39972 0.28086 0.32024
 Cu8 Cu 0.35054 0.35343 0.30373
 Cu9 Cu 0.35446 0.30900 0.34465
 Cu10 Cu 0.31020 0.35243 0.34884
 N11 N 0.32527 0.37684 0.30575
 N12 N 0.30973 0.37706 0.32356
 C13 C 0.29333 0.39421 0.31903
 C14 C 0.29910 0.40508 0.29717
 C15 C 0.31930 0.39357 0.28932
 H16 H 0.27745 0.39721 0.32969
 H17 H 0.32817 0.39638 0.27215
 N18 N 0.31355 0.32592 0.37245
 N19 N 0.32985 0.30901 0.37031
 C20 C 0.32545 0.29180 0.38685
 C21 C 0.30572 0.29825 0.40020
 C22 C 0.29861 0.32001 0.39068
 H23 H 0.33513 0.27516 0.38836
 H24 H 0.28269 0.32980 0.39545
 H25 H 0.32605 0.32621 0.32796
 H26 H 0.34607 0.34466 0.34693
 N27 N 0.37453 0.81106 -0.17996
 N28 N 0.37081 0.82633 -0.19772
 C29 C 0.38752 0.82347 -0.21484
 C30 C 0.40254 0.80535 -0.20763
 C31 C 0.39399 0.79788 -0.18521
 H32 H 0.38808 0.83311 -0.23187
 H33 H 0.40041 0.78310 -0.17433
 Cu34 Cu 0.34328 0.84689 -0.19863
 Cu35 Cu 0.35174 0.80785 -0.15333
 Cu36 Cu 0.30765 0.85143 -0.15002
 N37 N 0.32232 0.87378 -0.19446
 N38 N 0.30821 0.87589 -0.17559
 C39 C 0.29408 0.89517 -0.17893
 C40 C 0.29978 0.90534 -0.20123
 C41 C 0.31787 0.89145 -0.21033
 H42 H 0.27987 0.90041 -0.16684
 H43 H 0.32628 0.89333 -0.22787
 N44 N 0.31035 0.82480 -0.12635
 N45 N 0.32682 0.80800 -0.12803
 C46 C 0.32191 0.79055 -0.11195
 C47 C 0.30157 0.79666 -0.09938
 C48 C 0.29471 0.81853 -0.10887
 H49 H 0.33155 0.77389 -0.11044
 H50 H 0.27849 0.82813 -0.10475
 H51 H 0.32166 0.82302 -0.16905
 H52 H 0.34340 0.84382 -0.15483
 N53 N 0.87409 0.30945 -0.17761
 N54 N 0.87154 0.32408 -0.19615
 C55 C 0.88811 0.31923 -0.21294
 C56 C 0.90192 0.30063 -0.20467
 C57 C 0.89266 0.29474 -0.18209
 H58 H 0.88928 0.32774 -0.23054
 H59 H 0.89785 0.27984 -0.17071
 Cu60 Cu 0.84536 0.34630 -0.19869
 Cu61 Cu 0.85072 0.30881 -0.15112
 Cu62 Cu 0.80808 0.35388 -0.15213
 N63 N 0.82531 0.37422 -0.19645
 N64 N 0.81043 0.37724 -0.17836
 C65 C 0.79698 0.39674 -0.18279
 C66 C 0.80388 0.40621 -0.20501
 C67 C 0.82202 0.39162 -0.21296
 H68 H 0.78252 0.40268 -0.17138
 H69 H 0.83120 0.39284 -0.23015
 N70 N 0.80879 0.32854 -0.12723
 N71 N 0.82516 0.31158 -0.12639
 C72 C 0.81926 0.29586 -0.10875
 C73 C 0.79807 0.30328 -0.09830
 C74 C 0.79200 0.32393 -0.11047
 H75 H 0.82855 0.27931 -0.10512
 H76 H 0.77572 0.33403 -0.10819
 H77 H 0.82226 0.32389 -0.16902
 H78 H 0.84399 0.34470 -0.15483
 N79 N 0.87480 0.80838 0.32558
 N80 N 0.87580 0.82717 0.31127
 C81 C 0.89448 0.82460 0.29606
 C82 C 0.90554 0.80301 0.30134
 C83 C 0.89261 0.79336 0.32015
 H84 H 0.89847 0.83645 0.28107
 H85 H 0.89494 0.77581 0.32805
 Cu86 Cu 0.85027 0.85095 0.31183
 Cu87 Cu 0.84848 0.80238 0.34732
 Cu88 Cu 0.80597 0.84660 0.35319
 N89 N 0.82432 0.87422 0.31312
 N90 N 0.80694 0.87192 0.32897
 C91 C 0.78998 0.88826 0.32424
 C92 C 0.79705 0.90167 0.30449
 C93 C 0.81911 0.89248 0.29796
 H94 H 0.77320 0.88961 0.33378
 H95 H 0.82971 0.89752 0.28239
 N96 N 0.80812 0.81904 0.37541
 N97 N 0.82396 0.80186 0.37256
 C98 C 0.81960 0.78439 0.38872
 C99 C 0.80014 0.79081 0.40236
 C100 C 0.79325 0.81293 0.39359
 H101 H 0.82930 0.76775 0.38996
 H102 H 0.77773 0.82304 0.39898
 H103 H 0.82211 0.82326 0.33055
 H104 H 0.84182 0.83811 0.35306
 N105 N 0.62284 0.68870 0.32021
 N106 N 0.62578 0.67293 0.30298
 C107 C 0.60943 0.67696 0.28556
 C108 C 0.59537 0.69601 0.29248
 C109 C 0.60436 0.70300 0.31457
 H110 H 0.60848 0.66755 0.26859
 H111 H 0.59916 0.71858 0.32472
 Cu112 Cu 0.65188 0.64984 0.30431
 Cu113 Cu 0.64612 0.69259 0.34582
 Cu114 Cu 0.69331 0.65322 0.34823
 N115 N 0.67716 0.62607 0.30754
 N116 N 0.69355 0.62773 0.32444
 C117 C 0.71030 0.61091 0.32079
 C118 C 0.70391 0.59781 0.30078
 C119 C 0.68276 0.60785 0.29283
 H120 H 0.72654 0.60905 0.33114
 H121 H 0.67319 0.60331 0.27655
 N122 N 0.68751 0.67739 0.37345
 N123 N 0.66952 0.69258 0.37227
 C124 C 0.67169 0.70854 0.39015
 C125 C 0.69175 0.70305 0.40338
 C126 C 0.70141 0.68314 0.39241
 H127 H 0.66041 0.72400 0.39255
 H128 H 0.71824 0.67472 0.39674
 H129 H 0.67511 0.67813 0.32791
 H130 H 0.65718 0.65729 0.34708
 N131 N 0.62871 0.19259 -0.17113
 N132 N 0.62658 0.17711 -0.18873
 C133 C 0.60846 0.18389 -0.20321
 C134 C 0.59898 0.20483 -0.19425
 C135 C 0.61228 0.20988 -0.17400
 H136 H 0.60360 0.17525 -0.21990
 H137 H 0.61083 0.22559 -0.16287
 Cu138 Cu 0.64966 0.15151 -0.19268
 Cu139 Cu 0.65406 0.19062 -0.14722
 Cu140 Cu 0.69404 0.14373 -0.15271
 N141 N 0.67247 0.12556 -0.19587
 N142 N 0.68882 0.12173 -0.17925
 C143 C 0.70243 0.10309 -0.18582
 C144 C 0.69451 0.09516 -0.20809
 C145 C 0.67551 0.10982 -0.21391
 H146 H 0.71801 0.09706 -0.17603
 H147 H 0.66519 0.10945 -0.23042
 N148 N 0.69641 0.16799 -0.12725
 N149 N 0.68091 0.18557 -0.12486
 C150 C 0.68841 0.20020 -0.10727
 C151 C 0.70978 0.19155 -0.09841
 C152 C 0.71435 0.17120 -0.11147
 H153 H 0.67994 0.21685 -0.10251
 H154 H 0.73024 0.16030 -0.11037
 H155 H 0.67870 0.17343 -0.16892
 H156 H 0.65894 0.15433 -0.14977
 N157 N 0.12444 0.68821 -0.17637
 N158 N 0.12480 0.67195 -0.19336
 C159 C 0.10844 0.67737 -0.21024
 C160 C 0.09685 0.69782 -0.20344
 C161 C 0.10737 0.70442 -0.18182
 H162 H 0.10599 0.66795 -0.22704
 H163 H 0.10436 0.72082 -0.17211
 Cu164 Cu 0.14795 0.64647 -0.19415
 Cu165 Cu 0.14934 0.68920 -0.15154
 Cu166 Cu 0.19314 0.64525 -0.15453
 N167 N 0.17222 0.62200 -0.19509
 N168 N 0.18976 0.62109 -0.17940
 C169 C 0.20477 0.60332 -0.18561
 C170 C 0.19605 0.59281 -0.20638
 C171 C 0.17554 0.60515 -0.21190
 H172 H 0.22160 0.59957 -0.17687
 H173 H 0.16460 0.60278 -0.22779
 N174 N 0.19353 0.67102 -0.13053
 N175 N 0.17642 0.68713 -0.12855
 C176 C 0.18253 0.70272 -0.11116
 C177 C 0.20464 0.69622 -0.10214
 C178 C 0.21108 0.67621 -0.11487
 H179 H 0.17258 0.71861 -0.10665
 H180 H 0.22782 0.66674 -0.11343
 H181 H 0.17505 0.67274 -0.17241
 H182 H 0.15731 0.65347 -0.15158
 N183 N 0.12756 0.19121 0.32882
 N184 N 0.12616 0.17496 0.31184
 C185 C 0.10806 0.18090 0.29676
 C186 C 0.09792 0.20202 0.30479
 C187 C 0.11080 0.20795 0.32506
 H188 H 0.10393 0.17179 0.28011
 H189 H 0.10905 0.22419 0.33533
 Cu190 Cu 0.15098 0.15023 0.30951
 Cu191 Cu 0.15313 0.19224 0.35264
 Cu192 Cu 0.19718 0.14945 0.34790
 N193 N 0.17571 0.12532 0.30757
 N194 N 0.19372 0.12580 0.32275
 C195 C 0.20984 0.10925 0.31655
 C196 C 0.20169 0.09743 0.29654
 C197 C 0.17988 0.10799 0.29114
 H198 H 0.22701 0.10682 0.32507
 H199 H 0.16898 0.10466 0.27540
 N200 N 0.19779 0.17458 0.37239
 N201 N 0.18057 0.19043 0.37491
 C202 C 0.18679 0.20588 0.39235
 C203 C 0.20910 0.19950 0.40087
 C204 C 0.21555 0.17972 0.38782
 H205 H 0.17673 0.22158 0.39725
 H206 H 0.23240 0.17041 0.38885
 H207 H 0.17824 0.17652 0.33079
 H208 H 0.16126 0.15663 0.35176
 N209 N 0.62966 0.30487 0.67276
 N210 N 0.62614 0.32094 0.68960
 C211 C 0.60764 0.31403 0.70360
 C212 C 0.59949 0.29237 0.69512
 C213 C 0.61393 0.28708 0.67570
 H214 H 0.60170 0.32307 0.71975
 H215 H 0.61395 0.27075 0.66545
 Cu216 Cu 0.64818 0.34756 0.69326
 Cu217 Cu 0.65643 0.30638 0.65052
 Cu218 Cu 0.69453 0.35421 0.65462
 N219 N 0.67149 0.37297 0.69704
 N220 N 0.68883 0.37610 0.68129
 C221 C 0.70258 0.39431 0.68852
 C222 C 0.69343 0.40302 0.70998
 C223 C 0.67386 0.38893 0.71497
 H224 H 0.71904 0.39959 0.67985
 H225 H 0.66274 0.38972 0.73095
 N226 N 0.69729 0.32984 0.62910
 N227 N 0.68215 0.31204 0.62702
 C228 C 0.68924 0.29792 0.60877
 C229 C 0.71008 0.30702 0.59919
 C230 C 0.71479 0.32713 0.61259
 H231 H 0.68089 0.28132 0.60388
 H232 H 0.73036 0.33832 0.61108
 H233 H 0.67958 0.32602 0.67203
 H234 H 0.65974 0.34312 0.65101
 N235 N 0.62625 0.80642 1.17447
 N236 N 0.62470 0.82237 1.19172
 C237 C 0.60651 0.81656 1.20655
 C238 C 0.59636 0.79575 1.19819
 C239 C 0.60938 0.78977 1.17794
 H240 H 0.60203 0.82573 1.22309
 H241 H 0.60739 0.77388 1.16721
 Cu242 Cu 0.64873 0.84713 1.19466
 Cu243 Cu 0.65133 0.80698 1.15009
 Cu244 Cu 0.69331 0.85188 1.15438
 N245 N 0.67263 0.87205 1.19722
 N246 N 0.68919 0.87447 1.18053
 C247 C 0.70396 0.89216 1.18677
 C248 C 0.69651 0.90110 1.20875
 C249 C 0.67667 0.88787 1.21497
 H250 H 0.72002 0.89686 1.17706
 H251 H 0.66663 0.88906 1.23164
 N252 N 0.69443 0.82725 1.12933
 N253 N 0.67805 0.81058 1.12722
 C254 C 0.68468 0.79550 1.10961
 C255 C 0.70641 0.80287 1.10055
 C256 C 0.71213 0.82292 1.11347
 H257 H 0.67538 0.77933 1.10501
 H258 H 0.72853 0.83288 1.11218
 H259 H 0.67680 0.82340 1.17127
 H260 H 0.65783 0.84307 1.15180
 N261 N 0.12709 0.30373 1.17145
 N262 N 0.12390 0.31949 1.18863
 C263 C 0.10583 0.31233 1.20300
 C264 C 0.09751 0.29083 1.19443
 C265 C 0.11143 0.28586 1.17448
 H266 H 0.10028 0.32114 1.21941
 H267 H 0.11104 0.26980 1.16383
 Cu268 Cu 0.14591 0.34587 1.19241
 Cu269 Cu 0.15302 0.30599 1.14805
 Cu270 Cu 0.19195 0.35343 1.15440
 N271 N 0.16786 0.37233 1.19598
 N272 N 0.18540 0.37562 1.18054
 C273 C 0.19875 0.39407 1.18786
 C274 C 0.18912 0.40265 1.20916
 C275 C 0.16965 0.38842 1.21385
 H276 H 0.21525 0.39957 1.17944
 H277 H 0.15839 0.38908 1.22972
 N278 N 0.19551 0.32909 1.12914
 N279 N 0.18036 0.31140 1.12630
 C280 C 0.18848 0.29704 1.10866
 C281 C 0.20988 0.30601 1.10028
 C282 C 0.21382 0.32623 1.11365
 H283 H 0.18034 0.28043 1.10347
 H284 H 0.22946 0.33740 1.11284
 H285 H 0.17635 0.32380 1.17045
 H286 H 0.15716 0.34242 1.15005
 N287 N 0.12851 0.80404 0.67335
 N288 N 0.12447 0.82102 0.68911
 C289 C 0.10555 0.81512 0.70285
 C290 C 0.09744 0.79315 0.69542
 C291 C 0.11248 0.78655 0.67678
 H292 H 0.09938 0.82504 0.71834
 H293 H 0.11267 0.76965 0.66750
 Cu294 Cu 0.14696 0.84685 0.69252
 Cu295 Cu 0.15639 0.80454 0.65205
 Cu296 Cu 0.18956 0.85707 0.65187
 N297 N 0.17032 0.87153 0.69780
 N298 N 0.18672 0.87612 0.68141
 C299 C 0.20053 0.89404 0.68933
 C300 C 0.19237 0.90070 0.71200
 C301 C 0.17339 0.88594 0.71687
 H302 H 0.21608 0.90077 0.67998
 H303 H 0.16294 0.88550 0.73333
 N304 N 0.19461 0.83100 0.62838
 N305 N 0.18161 0.81142 0.62798
 C306 C 0.18990 0.79704 0.61043
 C307 C 0.20931 0.80789 0.59962
 C308 C 0.21188 0.82927 0.61151
 H309 H 0.18325 0.77939 0.60676
 H310 H 0.22583 0.84222 0.60863
 H311 H 0.17908 0.82764 0.67052
 H312 H 0.15619 0.84065 0.64993
 N313 N 0.37521 0.69029 0.67762
 N314 N 0.37317 0.67507 0.69572
 C315 C 0.39006 0.67936 0.71222
 C316 C 0.40345 0.69832 0.70430
 C317 C 0.39368 0.70494 0.68216
 H318 H 0.39166 0.67032 0.72951
 H319 H 0.39848 0.72020 0.67115
 Cu320 Cu 0.34696 0.65318 0.69849
 Cu321 Cu 0.35156 0.69143 0.65154
 Cu322 Cu 0.30895 0.64660 0.65259
 N323 N 0.32664 0.62569 0.69642
 N324 N 0.31156 0.62293 0.67851
 C325 C 0.29796 0.60368 0.68318
 C326 C 0.30504 0.59409 0.70523
 C327 C 0.32323 0.60845 0.71303
 H328 H 0.28298 0.59819 0.67231
 H329 H 0.33226 0.60727 0.73028
 N330 N 0.30944 0.67221 0.62798
 N331 N 0.32581 0.68905 0.62715
 C332 C 0.31990 0.70490 0.60963
 C333 C 0.29872 0.69770 0.59924
 C334 C 0.29262 0.67704 0.61132
 H335 H 0.32924 0.72136 0.60599
 H336 H 0.27637 0.66705 0.60900
 H337 H 0.32337 0.67620 0.66967
 H338 H 0.34488 0.65551 0.65469
 N339 N 0.37642 0.19017 1.17774
 N340 N 0.37427 0.17512 1.19597
 C341 C 0.39186 0.17885 1.21192
 C342 C 0.40586 0.19719 1.20341
 C343 C 0.39563 0.20405 1.18156
 H344 H 0.39352 0.16991 1.22926
 H345 H 0.40059 0.21915 1.17039
 Cu346 Cu 0.34708 0.15417 1.19952
 Cu347 Cu 0.35154 0.19277 1.15303
 Cu348 Cu 0.31164 0.14582 1.15145
 N349 N 0.32581 0.12716 1.19761
 N350 N 0.31279 0.12327 1.17831
 C351 C 0.29865 0.10437 1.18250
 C352 C 0.30300 0.09615 1.20576
 C353 C 0.32029 0.11100 1.21481
 H354 H 0.28487 0.09836 1.17037
 H355 H 0.32741 0.11077 1.23299
 N356 N 0.31284 0.17089 1.12638
 N357 N 0.32789 0.18891 1.12678
 C358 C 0.32175 0.20462 1.10920
 C359 C 0.30173 0.19607 1.09754
 C360 C 0.29663 0.17478 1.10889
 H361 H 0.32983 0.22190 1.10653
 H362 H 0.28109 0.16390 1.10581
 H363 H 0.32295 0.17566 1.16956
 H364 H 0.34673 0.15686 1.15565
 N365 N 0.87559 0.69468 1.17969
 N366 N 0.87321 0.68034 1.19845
 C367 C 0.88922 0.68639 1.21544
 C368 C 0.90239 0.70533 1.20672
 C369 C 0.89337 0.71010 1.18393
 H370 H 0.89067 0.67828 1.23320
 H371 H 0.89823 0.72471 1.17207
 Cu372 Cu 0.84848 0.65615 1.19958
 Cu373 Cu 0.85293 0.69513 1.15325
 Cu374 Cu 0.81059 0.65058 1.15244
 N375 N 0.82558 0.63038 1.19788
 N376 N 0.81152 0.62758 1.17910
 C377 C 0.79691 0.60902 1.18341
 C378 C 0.80206 0.59992 1.20619
 C379 C 0.82022 0.61391 1.21483
 H380 H 0.78248 0.60372 1.17172
 H381 H 0.82815 0.61277 1.23263
 N382 N 0.81253 0.67578 1.12737
 N383 N 0.82858 0.69288 1.12808
 C384 C 0.82340 0.70936 1.11110
 C385 C 0.80327 0.70233 1.09900
 C386 C 0.79679 0.68089 1.10963
 H387 H 0.83257 0.72612 1.10875
 H388 H 0.78072 0.67094 1.10614
 H389 H 0.82423 0.67915 1.17120
 H390 H 0.84602 0.65889 1.15582
 N391 N 0.87678 0.18485 0.68026
 N392 N 0.87240 0.16852 0.69691
 C393 C 0.88717 0.17172 0.71576
 C394 C 0.90184 0.19071 0.71041
 C395 C 0.89482 0.19863 0.68772
 H396 H 0.88680 0.16158 0.73249
 H397 H 0.90121 0.21423 0.67809
 Cu398 Cu 0.84670 0.14593 0.69281
 Cu399 Cu 0.85709 0.18831 0.65129
 Cu400 Cu 0.80424 0.15616 0.65230
 N401 N 0.82106 0.12323 0.68848
 N402 N 0.80407 0.12774 0.67270
 C403 C 0.78650 0.11183 0.67566
 C404 C 0.79281 0.09637 0.69411
 C405 C 0.81491 0.10404 0.70187
 H406 H 0.76956 0.11251 0.66632
 H407 H 0.82469 0.09748 0.71741
 N408 N 0.81107 0.18129 0.62827
 N409 N 0.83076 0.19408 0.62828
 C410 C 0.82881 0.21145 0.61138
 C411 C 0.80716 0.20897 0.59986
 C412 C 0.79642 0.18967 0.61095
 H413 H 0.84184 0.22526 0.60815
 H414 H 0.77866 0.18313 0.60757
 H415 H 0.82799 0.17848 0.67059
 H416 H 0.84030 0.15510 0.65028
 N417 N 0.30776 0.37363 0.67568
 N418 N 0.32286 0.37279 0.69382
 C419 C 0.31909 0.39153 0.70830
 C420 C 0.30039 0.40467 0.69904
 C421 C 0.29357 0.39288 0.67822
 H422 H 0.32818 0.39453 0.72525
 H423 H 0.27870 0.39718 0.66655
 Cu424 Cu 0.34357 0.34566 0.69929
 Cu425 Cu 0.30608 0.34789 0.65226
 Cu426 Cu 0.35329 0.30781 0.65349
 N427 N 0.37062 0.32429 0.69914
 N428 N 0.37510 0.31021 0.68079
 C429 C 0.39421 0.29659 0.68614
 C430 C 0.40185 0.30244 0.70916
 C431 C 0.38646 0.31997 0.71687
 H432 H 0.40084 0.28224 0.67501
 H433 H 0.38620 0.32820 0.73451
 N434 N 0.32892 0.30823 0.62776
 N435 N 0.31115 0.32370 0.62701
 C436 C 0.29646 0.31794 0.60871
 C437 C 0.30525 0.29766 0.59773
 C438 C 0.32573 0.29197 0.61029
 H439 H 0.27963 0.32661 0.60492
 H440 H 0.33664 0.27626 0.60778
 H441 H 0.32315 0.31998 0.67036
 H442 H 0.34212 0.34305 0.65547
 N443 N 0.30548 0.87146 0.17052
 N444 N 0.32248 0.87419 0.18662
 C445 C 0.31614 0.89191 0.20179
 C446 C 0.29394 0.90040 0.19480
 C447 C 0.28776 0.88696 0.17506
 H448 H 0.32603 0.89708 0.21768
 H449 H 0.27103 0.88773 0.16540
 Cu450 Cu 0.34974 0.85228 0.18813
 Cu451 Cu 0.30600 0.84660 0.14625
 Cu452 Cu 0.35082 0.80488 0.15070
 N453 N 0.37396 0.82714 0.19097
 N454 N 0.37380 0.80867 0.17647
 C455 C 0.39049 0.79294 0.18362
 C456 C 0.40196 0.80193 0.20351
 C457 C 0.39112 0.82375 0.20782
 H458 H 0.39342 0.77564 0.17564
 H459 H 0.39436 0.83537 0.22297
 N460 N 0.32620 0.80378 0.12556
 N461 N 0.30939 0.82011 0.12332
 C462 C 0.29447 0.81368 0.10543
 C463 C 0.30224 0.79214 0.09623
 C464 C 0.32229 0.78640 0.10942
 H465 H 0.27825 0.82301 0.10063
 H466 H 0.33259 0.77015 0.10803
 H467 H 0.32402 0.82321 0.16872
 H468 H 0.34222 0.84059 0.14631
 N469 N 0.80995 0.37529 0.17833
 N470 N 0.82651 0.37323 0.19503
 C471 C 0.82288 0.39021 0.21182
 C472 C 0.80333 0.40376 0.20491
 C473 C 0.79565 0.39380 0.18356
 H474 H 0.83293 0.39194 0.22839
 H475 H 0.77961 0.39838 0.17373
 Cu476 Cu 0.84989 0.34722 0.19377
 Cu477 Cu 0.80497 0.35106 0.15408
 Cu478 Cu 0.84795 0.30735 0.14830
 N479 N 0.87388 0.32199 0.19071
 N480 N 0.87267 0.30645 0.17304
 C481 C 0.88941 0.28955 0.17641
 C482 C 0.90207 0.29483 0.19704
 C483 C 0.89181 0.31559 0.20572
 H484 H 0.89148 0.27385 0.16538
 H485 H 0.89600 0.32430 0.22257
 N486 N 0.82130 0.31124 0.12529
 N487 N 0.80464 0.32768 0.12790
 C488 C 0.78742 0.32412 0.11144
 C489 C 0.79351 0.30464 0.09775
 C490 C 0.81515 0.29687 0.10689
 H491 H 0.77098 0.33414 0.11022
 H492 H 0.82473 0.28096 0.10173
 H493 H 0.82299 0.32236 0.17023
 H494 H 0.84080 0.34324 0.15098
 N495 N 0.80460 0.87188 0.67136
 N496 N 0.82079 0.87419 0.68834
 C497 C 0.81419 0.89194 0.70323
 C498 C 0.79260 0.90095 0.69526
 C499 C 0.78699 0.88776 0.67509
 H500 H 0.82343 0.89674 0.71963
 H501 H 0.77076 0.88894 0.66462
 Cu502 Cu 0.84693 0.85151 0.69131
 Cu503 Cu 0.80625 0.84695 0.64701
 Cu504 Cu 0.85398 0.80770 0.65104
 N505 N 0.87332 0.82901 0.69372
 N506 N 0.87653 0.81262 0.67716
 C507 C 0.89474 0.79837 0.68374
 C508 C 0.90325 0.80606 0.70579
 C509 C 0.88925 0.82547 0.71165
 H510 H 0.89997 0.78236 0.67434
 H511 H 0.88973 0.83535 0.72836
 N512 N 0.82929 0.80548 0.62595
 N513 N 0.81124 0.82054 0.62412
 C514 C 0.79643 0.81293 0.60663
 C515 C 0.80553 0.79196 0.59734
 C516 C 0.82625 0.78776 0.60999
 H517 H 0.77944 0.82098 0.60226
 H518 H 0.83751 0.77218 0.60854
 H519 H 0.82453 0.82243 0.66809
 H520 H 0.84257 0.84265 0.64842
 N521 N 0.69081 0.62531 0.67825
 N522 N 0.67682 0.62731 0.69725
 C523 C 0.68266 0.61047 0.71364
 C524 C 0.70122 0.59720 0.70453
 C525 C 0.70603 0.60700 0.68197
 H526 H 0.67488 0.60872 0.73149
 H527 H 0.72063 0.60242 0.67007
 Cu528 Cu 0.65374 0.65284 0.70043
 Cu529 Cu 0.69090 0.64908 0.65228
 Cu530 Cu 0.64977 0.69495 0.65748
 N531 N 0.62679 0.67456 0.69872
 N532 N 0.62497 0.69067 0.68144
 C533 C 0.60614 0.70485 0.68595
 C534 C 0.59574 0.69725 0.70734
 C535 C 0.60925 0.67802 0.71493
 H536 H 0.60166 0.72068 0.67562
 H537 H 0.60732 0.66832 0.73181
 N538 N 0.67277 0.69307 0.63092
 N539 N 0.68820 0.67546 0.62846
 C540 C 0.70288 0.68066 0.60981
 C541 C 0.69624 0.70260 0.60032
 C542 C 0.67715 0.70985 0.61405
 H543 H 0.71832 0.67025 0.60477
 H544 H 0.66804 0.72681 0.61267
 H545 H 0.67855 0.67639 0.67282
 H546 H 0.65544 0.65858 0.65683
 N547 N 0.69195 0.12305 0.17853
 N548 N 0.67623 0.12584 0.19591
 C549 C 0.68079 0.10998 0.21376
 C550 C 0.70006 0.09632 0.20695
 C551 C 0.70678 0.10503 0.18447
 H552 H 0.67138 0.10899 0.23083
 H553 H 0.72223 0.09972 0.17412
 Cu554 Cu 0.65233 0.15083 0.19431
 Cu555 Cu 0.69434 0.14557 0.15165
 Cu556 Cu 0.65196 0.19083 0.14851
 N557 N 0.62896 0.17627 0.19267
 N558 N 0.62810 0.19144 0.17442
 C559 C 0.61086 0.20769 0.17874
 C560 C 0.60069 0.20237 0.20101
 C561 C 0.61264 0.18252 0.20931
 H562 H 0.60704 0.22303 0.16742
 H563 H 0.61021 0.17387 0.22670
 N564 N 0.67781 0.18710 0.12433
 N565 N 0.69401 0.17002 0.12591
 C566 C 0.71105 0.17399 0.10923
 C567 C 0.70537 0.19436 0.09642
 C568 C 0.68411 0.20225 0.10632
 H569 H 0.72728 0.16372 0.10748
 H570 H 0.67505 0.21878 0.10207
 H571 H 0.67861 0.17470 0.16870
 H572 H 0.65877 0.15502 0.15077
 N573 N 0.19097 0.62703 0.17617
 N574 N 0.17570 0.62854 0.19418
 C575 C 0.17917 0.61036 0.20967
 C576 C 0.19777 0.59671 0.20134
 C577 C 0.20499 0.60769 0.17990
 H578 H 0.16988 0.60806 0.22669
 H579 H 0.22018 0.60296 0.16885
 Cu580 Cu 0.15499 0.65571 0.19856
 Cu581 Cu 0.19270 0.65251 0.15157
 Cu582 Cu 0.14480 0.69202 0.15148
 N583 N 0.12755 0.67648 0.19775
 N584 N 0.12295 0.69009 0.17886
 C585 C 0.10395 0.70393 0.18386
 C586 C 0.09643 0.69867 0.20719
 C587 C 0.11181 0.68123 0.21544
 H588 H 0.09746 0.71812 0.17225
 H589 H 0.11230 0.67357 0.23346
 N590 N 0.16915 0.69154 0.12575
 N591 N 0.18745 0.67664 0.12547
 C592 C 0.20234 0.68326 0.10738
 C593 C 0.19299 0.70340 0.09614
 C594 C 0.17212 0.70810 0.10831
 H595 H 0.21967 0.67546 0.10409
 H596 H 0.16091 0.72362 0.10576
 H597 H 0.17548 0.68055 0.16846
 H598 H 0.15683 0.65690 0.15466
 N599 N 0.19669 0.12896 0.67040
 N600 N 0.18018 0.12520 0.68689
 C601 C 0.18711 0.10702 0.70134
 C602 C 0.20921 0.09920 0.69360
 C603 C 0.21482 0.11359 0.67406
 H604 H 0.17764 0.10103 0.71732
 H605 H 0.23130 0.11347 0.66390
 Cu606 Cu 0.15282 0.14636 0.69025
 Cu607 Cu 0.19427 0.15461 0.64662
 Cu608 Cu 0.14648 0.19326 0.65218
 N609 N 0.12739 0.16974 0.69412
 N610 N 0.12430 0.18730 0.67854
 C611 C 0.10629 0.20127 0.68614
 C612 C 0.09788 0.19216 0.70783
 C613 C 0.11173 0.17225 0.71243
 H614 H 0.10100 0.21786 0.67759
 H615 H 0.11111 0.16110 0.72849
 N616 N 0.17079 0.19656 0.62669
 N617 N 0.18878 0.18157 0.62421
 C618 C 0.20318 0.18961 0.60641
 C619 C 0.19393 0.21082 0.59758
 C620 C 0.17350 0.21472 0.61086
 H621 H 0.22003 0.18162 0.60146
 H622 H 0.16214 0.23029 0.60981
 H623 H 0.17541 0.17723 0.66910
 H624 H 0.15777 0.15839 0.64796
 N625 N 0.31107 0.62440 0.31986
 N626 N 0.32786 0.62724 0.30349
 C627 C 0.32470 0.61139 0.28564
 C628 C 0.30507 0.59775 0.29121
 C629 C 0.29670 0.60649 0.31301
 H630 H 0.33538 0.61022 0.26938
 H631 H 0.28048 0.60135 0.32221
 Cu632 Cu 0.35148 0.65205 0.30672
 Cu633 Cu 0.30763 0.64633 0.34705
 Cu634 Cu 0.35026 0.69114 0.35204
 N635 N 0.37419 0.67785 0.30805
 N636 N 0.37457 0.69249 0.32652
 C637 C 0.39151 0.70906 0.32257
 C638 C 0.40211 0.70444 0.30044
 C639 C 0.39061 0.68470 0.29168
 H640 H 0.39456 0.72439 0.33386
 H641 H 0.39354 0.67652 0.27425
 N642 N 0.32385 0.68682 0.37549
 N643 N 0.30735 0.67026 0.37311
 C644 C 0.29009 0.67401 0.38960
 C645 C 0.29601 0.69366 0.40314
 C646 C 0.31757 0.70133 0.39380
 H647 H 0.27372 0.66400 0.39087
 H648 H 0.32697 0.71735 0.39871
 H649 H 0.32413 0.67560 0.33096
 H650 H 0.34307 0.65532 0.34972
 N651 N 0.31152 0.12438 0.82143
 N652 N 0.32863 0.12660 0.80527
 C653 C 0.32512 0.11068 0.78754
 C654 C 0.30505 0.09758 0.79312
 C655 C 0.29684 0.10673 0.81473
 H656 H 0.33587 0.10918 0.77136
 H657 H 0.28047 0.10205 0.82392
 Cu658 Cu 0.35317 0.15084 0.80825
 Cu659 Cu 0.30746 0.14678 0.84778
 Cu660 Cu 0.34884 0.19203 0.85216
 N661 N 0.37593 0.17680 0.81091
 N662 N 0.37382 0.19306 0.82782
 C663 C 0.39024 0.21010 0.82409
 C664 C 0.40358 0.20404 0.80408
 C665 C 0.39405 0.18282 0.79610
 H666 H 0.39175 0.22627 0.83449
 H667 H 0.39899 0.17334 0.77988
 N668 N 0.32233 0.18813 0.87519
 N669 N 0.30624 0.17118 0.87316
 C670 C 0.28895 0.17481 0.88966
 C671 C 0.29456 0.19477 0.90282
 C672 C 0.31587 0.20277 0.89328
 H673 H 0.27288 0.16437 0.89134
 H674 H 0.32507 0.21894 0.89806
 H675 H 0.32424 0.17492 0.83051
 H676 H 0.34282 0.15586 0.85092
 N677 N 0.80668 0.62809 0.82539
 N678 N 0.82430 0.62660 0.80971
 C679 C 0.81981 0.60846 0.79445
 C680 C 0.79817 0.59837 0.80095
 C681 C 0.79041 0.61133 0.82053
 H682 H 0.83042 0.60414 0.77872
 H683 H 0.77351 0.60947 0.82976
 Cu684 Cu 0.84901 0.65124 0.80883
 Cu685 Cu 0.80416 0.65341 0.84911
 Cu686 Cu 0.85091 0.69296 0.85200
 N687 N 0.87406 0.67554 0.80901
 N688 N 0.87423 0.69162 0.82620
 C689 C 0.89058 0.70827 0.82106
 C690 C 0.90161 0.70237 0.79974
 C691 C 0.89079 0.68144 0.79238
 H692 H 0.89312 0.72449 0.83114
 H693 H 0.89338 0.67255 0.77527
 N694 N 0.82543 0.69186 0.87624
 N695 N 0.80745 0.67683 0.87529
 C696 C 0.79191 0.68210 0.89312
 C697 C 0.80052 0.70158 0.90551
 C698 C 0.82167 0.70729 0.89433
 H699 H 0.77485 0.67360 0.89577
 H700 H 0.83273 0.72250 0.89824
 H701 H 0.82413 0.67926 0.83123
 H702 H 0.84017 0.65752 0.85126
 N703 N 0.80614 0.12402 0.32822
 N704 N 0.82305 0.12172 0.31190
 C705 C 0.81765 0.10345 0.29726
 C706 C 0.79599 0.09417 0.30457
 C707 C 0.78915 0.10771 0.32415
 H708 H 0.82769 0.09849 0.28134
 H709 H 0.77247 0.10657 0.33388
 Cu710 Cu 0.84845 0.14497 0.30884
 Cu711 Cu 0.80641 0.14914 0.35224
 Cu712 Cu 0.85384 0.18839 0.35036
 N713 N 0.87157 0.17044 0.30527
 N714 N 0.87434 0.18679 0.32194
 C715 C 0.89159 0.20193 0.31487
 C716 C 0.89989 0.19473 0.29249
 C717 C 0.88669 0.17487 0.28684
 H718 H 0.89662 0.21782 0.32453
 H719 H 0.88772 0.16472 0.27030
 N720 N 0.82754 0.19101 0.37393
 N721 N 0.80986 0.17560 0.37512
 C722 C 0.79452 0.18246 0.39251
 C723 C 0.80277 0.20335 0.40246
 C724 C 0.82358 0.20841 0.39014
 H725 H 0.77786 0.17375 0.39670
 H726 H 0.83458 0.22402 0.39235
 H727 H 0.82556 0.17377 0.33204
 H728 H 0.84260 0.15284 0.35205
 N729 N 0.69422 0.37277 0.32175
 N730 N 0.67576 0.37521 0.30731
 C731 C 0.67980 0.39382 0.29217
 C732 C 0.70199 0.40324 0.29765
 C733 C 0.71044 0.38949 0.31648
 H734 H 0.66854 0.39878 0.27707
 H735 H 0.72792 0.39052 0.32460
 Cu736 Cu 0.65090 0.35076 0.30726
 Cu737 Cu 0.69850 0.34572 0.34316
 Cu738 Cu 0.64872 0.31124 0.35365
 N739 N 0.62686 0.32559 0.30862
 N740 N 0.62696 0.30964 0.32623
 C741 C 0.61069 0.29277 0.32150
 C742 C 0.59956 0.29853 0.30000
 C743 C 0.61019 0.31949 0.29224
 H744 H 0.60772 0.27702 0.33250
 H745 H 0.60716 0.32857 0.27517
 N746 N 0.67717 0.31000 0.37455
 N747 N 0.69630 0.32283 0.36991
 C748 C 0.71360 0.31676 0.38556
 C749 C 0.70509 0.29924 0.40074
 C750 C 0.68186 0.29528 0.39340
 H751 H 0.73147 0.32389 0.38542
 H752 H 0.66990 0.28171 0.40019
 H753 H 0.67401 0.32111 0.32980
 H754 H 0.66281 0.34564 0.34948
 N755 N 0.69395 0.87209 0.83173
 N756 N 0.67831 0.87538 0.81431
 C757 C 0.68579 0.89325 0.79981
 C758 C 0.70732 0.90136 0.80855
 C759 C 0.71205 0.88748 0.82869
 H760 H 0.67705 0.89892 0.78331
 H761 H 0.72803 0.88787 0.83959
 Cu762 Cu 0.65109 0.85440 0.81044
 Cu763 Cu 0.69096 0.84667 0.85560
 Cu764 Cu 0.64362 0.80808 0.84889
 N765 N 0.62572 0.83127 0.80627
 N766 N 0.62219 0.81396 0.82202
 C767 C 0.60420 0.80019 0.81435
 C768 C 0.59617 0.80926 0.79252
 C769 C 0.61027 0.82887 0.78783
 H770 H 0.59864 0.78377 0.82298
 H771 H 0.60990 0.83996 0.77173
 N772 N 0.66718 0.80482 0.87495
 N773 N 0.68497 0.81981 0.87790
 C774 C 0.69901 0.81169 0.89596
 C775 C 0.68970 0.79044 0.90444
 C776 C 0.66962 0.78662 0.89077
 H777 H 0.71570 0.81962 0.90126
 H778 H 0.65840 0.77102 0.89150
 H779 H 0.67319 0.82378 0.83287
 H780 H 0.65467 0.84289 0.85306
 N781 N 0.18668 0.37203 0.81854
 N782 N 0.16833 0.36953 0.80404
 C783 C 0.16968 0.38584 0.78612
 C784 C 0.18973 0.39944 0.78973
 C785 C 0.20016 0.39026 0.81049
 H786 H 0.15771 0.38703 0.77081
 H787 H 0.21723 0.39511 0.81798
 Cu788 Cu 0.14604 0.34344 0.80861
 Cu789 Cu 0.19391 0.34880 0.84391
 Cu790 Cu 0.15179 0.30507 0.85516
 N791 N 0.12370 0.31747 0.81339
 N792 N 0.12644 0.30224 0.83139
 C793 C 0.11084 0.28428 0.82883
 C794 C 0.09739 0.28874 0.80843
 C795 C 0.10597 0.30995 0.79905
 H796 H 0.11022 0.26849 0.84016
 H797 H 0.10086 0.31822 0.78205
 N798 N 0.17921 0.31063 0.87654
 N799 N 0.19571 0.32673 0.87183
 C800 C 0.21371 0.32388 0.88768
 C801 C 0.20822 0.30522 0.90310
 C802 C 0.18619 0.29727 0.89562
 H803 H 0.23018 0.33377 0.88732
 H804 H 0.17687 0.28175 0.90233
 H805 H 0.17519 0.31964 0.83087
 H806 H 0.15879 0.34114 0.85043
 N807 N 0.18976 0.87390 0.31970
 N808 N 0.17200 0.87214 0.30436
 C809 C 0.17424 0.88909 0.28714
 C810 C 0.19423 0.90233 0.29218
 C811 C 0.20368 0.89228 0.31301
 H812 H 0.16295 0.89097 0.27139
 H813 H 0.22043 0.89673 0.32147
 Cu814 Cu 0.14911 0.84640 0.30714
 Cu815 Cu 0.19582 0.84952 0.34418
 Cu816 Cu 0.15336 0.80539 0.35173
 N817 N 0.12614 0.82089 0.31038
 N818 N 0.12815 0.80455 0.32746
 C819 C 0.11150 0.78771 0.32400
 C820 C 0.09821 0.79408 0.30393
 C821 C 0.10796 0.81521 0.29573
 H822 H 0.10976 0.77158 0.33470
 H823 H 0.10315 0.82482 0.27941
 N824 N 0.18048 0.80954 0.37411
 N825 N 0.19691 0.82604 0.37081
 C826 C 0.21437 0.82273 0.38715
 C827 C 0.20866 0.80339 0.40151
 C828 C 0.18700 0.79544 0.39288
 H829 H 0.23065 0.83290 0.38791
 H830 H 0.17759 0.77965 0.39873
 H831 H 0.17735 0.82108 0.32898
 H832 H 0.16033 0.84140 0.34930
 C833 C 0.22565 1.04886 0.25443
 C834 C 0.24103 1.06087 0.23858
 C835 C 0.25839 1.04880 0.22525
 C836 C 0.26049 1.02382 0.22733
 C837 C 0.24532 1.01130 0.24353
 C838 C 0.22775 1.02381 0.25706
 C839 C 0.21336 1.01104 0.27342
 C840 C 0.21613 0.98651 0.27645
 C841 C 0.23333 0.97383 0.26318
 C842 C 0.24806 0.98628 0.24654
 C843 C 0.27777 1.01113 0.21417
 C844 C 0.28018 0.98655 0.21684
 C845 C 0.26560 0.97377 0.23299
 C846 C 0.26770 0.94874 0.23562
 C847 C 0.25279 0.93675 0.25191
 C848 C 0.23598 0.94894 0.26584
 H849 H 0.19994 1.01991 0.28419
 H850 H 0.20459 0.97753 0.28929
 H851 H 0.28964 1.02013 0.20167
 H852 H 0.29365 0.97765 0.20613
 H853 H 0.23954 1.08007 0.23664
 H854 H 0.25463 0.91761 0.25417
 C855 C 0.25362 0.44697 0.72342
 C856 C 0.24001 0.43473 0.74059
 C857 C 0.22914 0.44658 0.75989
 C858 C 0.23156 0.47154 0.76187
 C859 C 0.24480 0.48428 0.74412
 C860 C 0.25596 0.47193 0.72485
 C861 C 0.26922 0.48481 0.70762
 C862 C 0.27133 0.50946 0.70913
 C863 C 0.26026 0.52209 0.72794
 C864 C 0.24704 0.50938 0.74573
 C865 C 0.22072 0.48416 0.78086
 C866 C 0.22287 0.50880 0.78241
 C867 C 0.23595 0.52172 0.76507
 C868 C 0.23781 0.54675 0.76620
 C869 C 0.25106 0.55898 0.74871
 C870 C 0.26244 0.54706 0.72978
 H871 H 0.27798 0.47591 0.69272
 H872 H 0.28177 0.51850 0.69540
 H873 H 0.21025 0.47514 0.79457
 H874 H 0.21409 0.51768 0.79731
 H875 H 0.23882 0.41548 0.73955
 H876 H 0.25234 0.57824 0.74974
 C877 C 0.77365 -0.05338 0.25984
 C878 C 0.75657 -0.06519 0.24604
 C879 C 0.74099 -0.05270 0.23077
 C880 C 0.74211 -0.02757 0.22952
 C881 C 0.75866 -0.01529 0.24421
 C882 C 0.77466 -0.02824 0.25926
 C883 C 0.79077 -0.01572 0.27380
 C884 C 0.79079 0.00910 0.27403
 C885 C 0.77492 0.02229 0.25945
 C886 C 0.75899 0.01000 0.24408
 C887 C 0.72669 -0.01439 0.21446
 C888 C 0.72725 0.01039 0.21407
 C889 C 0.74307 0.02294 0.22891
 C890 C 0.74286 0.04809 0.22959
 C891 C 0.75810 0.05990 0.24543
 C892 C 0.77405 0.04743 0.26029
 H893 H 0.80316 -0.02503 0.28556
 H894 H 0.80319 0.01783 0.28600
 H895 H 0.71373 -0.02311 0.20311
 H896 H 0.71472 0.01963 0.20243
 H897 H 0.75605 -0.08450 0.24646
 H898 H 0.75808 0.07923 0.24568
 C899 C 0.76141 0.45136 0.77025
 C900 C 0.74564 0.43951 0.75502
 C901 C 0.73394 0.45134 0.73604
 C902 C 0.73760 0.47611 0.73269
 C903 C 0.75347 0.48842 0.74819
 C904 C 0.76562 0.47595 0.76691
 C905 C 0.78169 0.48833 0.78168
 C906 C 0.78554 0.51266 0.77836
 C907 C 0.77333 0.52551 0.76029
 C908 C 0.75717 0.51327 0.74502
 C909 C 0.72542 0.48899 0.71459
 C910 C 0.72853 0.51348 0.71193
 C911 C 0.74423 0.52595 0.72700
 C912 C 0.74677 0.55091 0.72510
 C913 C 0.76270 0.56272 0.74023
 C914 C 0.77618 0.55043 0.75758
 H915 H 0.79133 0.47931 0.79605
 H916 H 0.79789 0.52142 0.79037
 H917 H 0.71293 0.48034 0.70266
 H918 H 0.71839 0.52260 0.69798
 H919 H 0.74329 0.42045 0.75734
 H920 H 0.76448 0.58190 0.73858
 C921 C 0.25406 0.45042 0.27294
 C922 C 0.24016 0.43829 0.25610
 C923 C 0.22904 0.45020 0.23684
 C924 C 0.23187 0.47511 0.23419
 C925 C 0.24537 0.48779 0.25153
 C926 C 0.25631 0.47544 0.27113
 C927 C 0.26977 0.48831 0.28794
 C928 C 0.27229 0.51292 0.28573
 C929 C 0.26164 0.52555 0.26649
 C930 C 0.24825 0.51284 0.24906
 C931 C 0.22129 0.48773 0.21489
 C932 C 0.22416 0.51227 0.21243
 C933 C 0.23762 0.52513 0.22925
 C934 C 0.24034 0.55006 0.22709
 C935 C 0.25375 0.56228 0.24424
 C936 C 0.26440 0.55049 0.26389
 H937 H 0.27846 0.47944 0.30300
 H938 H 0.28295 0.52188 0.29915
 H939 H 0.21055 0.47877 0.20153
 H940 H 0.21571 0.52112 0.19721
 H941 H 0.23878 0.41905 0.25750
 H942 H 0.25523 0.58151 0.24266
 C943 C 0.76767 0.94795 0.73810
 C944 C 0.75090 0.93597 0.75239
 C945 C 0.73453 0.94833 0.76673
 C946 C 0.73485 0.97349 0.76699
 C947 C 0.75170 0.98592 0.75252
 C948 C 0.76821 0.97312 0.73806
 C949 C 0.78442 0.98582 0.72352
 C950 C 0.78437 1.01062 0.72307
 C951 C 0.76829 1.02366 0.73737
 C952 C 0.75194 1.01120 0.75240
 C953 C 0.71908 0.98652 0.78165
 C954 C 0.71969 1.01132 0.78194
 C955 C 0.73586 1.02398 0.76733
 C956 C 0.73613 1.04913 0.76697
 C957 C 0.75162 1.06116 0.75134
 C958 C 0.76775 1.04883 0.73667
 H959 H 0.79709 0.97669 0.71206
 H960 H 0.79696 1.01947 0.71122
 H961 H 0.70620 0.97765 0.79317
 H962 H 0.70710 1.02052 0.79346
 H963 H 0.75058 0.91664 0.75229
 H964 H 0.75190 1.08049 0.75142
 C965 C 0.75832 0.45089 0.22477
 C966 C 0.74207 0.43848 0.23929
 C967 C 0.72485 0.45036 0.25307
 C968 C 0.72428 0.47554 0.25303
 C969 C 0.74084 0.48841 0.23859
 C970 C 0.75754 0.47605 0.22396
 C971 C 0.77347 0.48916 0.20947
 C972 C 0.77335 0.51397 0.20968
 C973 C 0.75751 0.52658 0.22463
 C974 C 0.74104 0.51371 0.23918
 C975 C 0.70822 0.48816 0.26771
 C976 C 0.70871 0.51294 0.26863
 C977 C 0.72508 0.52605 0.25466
 C978 C 0.72644 0.55113 0.25628
 C979 C 0.74297 0.56350 0.24206
 C980 C 0.75821 0.55169 0.22604
 H981 H 0.78643 0.48034 0.19808
 H982 H 0.78623 0.52315 0.19844
 H983 H 0.69546 0.47895 0.27908
 H984 H 0.69631 0.52171 0.28068
 H985 H 0.74247 0.41915 0.23943
 H986 H 0.74347 0.58279 0.24294
 C987 C 0.25585 -0.04974 0.77618
 C988 C 0.24229 -0.06210 0.75927
 C989 C 0.22971 -0.05023 0.74092
 C990 C 0.23034 -0.02505 0.73967
 C991 C 0.24423 -0.01225 0.75662
 C992 C 0.25712 -0.02465 0.77489
 C993 C 0.27137 -0.01173 0.79097
 C994 C 0.27308 0.01297 0.78907
 C995 C 0.26028 0.02569 0.77128
 C996 C 0.24549 0.01299 0.75508
 C997 C 0.21720 -0.01231 0.72219
 C998 C 0.21785 0.01248 0.72117
 C999 C 0.23198 0.02547 0.73734
 C1000 C 0.23334 0.05059 0.73590
 C1001 C 0.24885 0.06274 0.75126
 C1002 C 0.26226 0.05071 0.76890
 H1003 H 0.28157 -0.02066 0.80499
 H1004 H 0.28468 0.02197 0.80164
 H1005 H 0.20608 -0.02138 0.70923
 H1006 H 0.20749 0.02135 0.70725
 H1007 H 0.24218 -0.08143 0.75999
 H1008 H 0.24957 0.08204 0.75034
 C1009 C 0.23863 0.26543 1.05328
 C1010 C 0.25689 0.25317 1.06533
 C1011 C 0.27416 0.24027 1.05267
 C1012 C 0.27340 0.23964 1.02712
 C1013 C 0.25498 0.25198 1.01462
 C1014 C 0.23749 0.26486 1.02774
 C1015 C 0.21959 0.27722 1.01498
 C1016 C 0.21881 0.27690 0.98981
 C1017 C 0.23576 0.26401 0.97645
 C1018 C 0.25398 0.25137 0.98895
 C1019 C 0.29021 0.22656 1.01378
 C1020 C 0.28908 0.22572 0.98861
 C1021 C 0.27122 0.23812 0.97584
 C1022 C 0.26980 0.23725 0.95033
 C1023 C 0.25210 0.25028 0.93826
 C1024 C 0.23533 0.26384 0.95089
 H1025 H 0.20613 0.28750 1.02433
 H1026 H 0.20478 0.28691 0.98092
 H1027 H 0.30434 0.21669 1.02270
 H1028 H 0.30235 0.21520 0.97927
 H1029 H 0.25746 0.25338 1.08496
 H1030 H 0.25141 0.24991 0.91864
 C1031 C 0.27033 0.73632 0.45040
 C1032 C 0.25249 0.74878 0.43791
 C1033 C 0.23542 0.76246 0.45002
 C1034 C 0.23581 0.76353 0.47557
 C1035 C 0.25406 0.75143 0.48856
 C1036 C 0.27150 0.73791 0.47594
 C1037 C 0.28927 0.72593 0.48923
 C1038 C 0.29006 0.72732 0.51439
 C1039 C 0.27309 0.74071 0.52723
 C1040 C 0.25486 0.75282 0.51423
 C1041 C 0.21874 0.77679 0.48843
 C1042 C 0.21943 0.77802 0.51359
 C1043 C 0.23728 0.76613 0.52686
 C1044 C 0.23826 0.76749 0.55241
 C1045 C 0.25628 0.75532 0.56492
 C1046 C 0.27345 0.74178 0.55278
 H1047 H 0.30268 0.71522 0.48033
 H1048 H 0.30408 0.71767 0.52372
 H1049 H 0.20469 0.78640 0.47912
 H1050 H 0.20590 0.78854 0.52255
 H1051 H 0.25195 0.74795 0.41830
 H1052 H 0.25667 0.75595 0.58454
 C1053 C 0.25689 0.77125 -0.05360
 C1054 C 0.24255 0.75518 -0.06614
 C1055 C 0.22816 0.73867 -0.05392
 C1056 C 0.22890 0.73733 -0.02834
 C1057 C 0.24346 0.75341 -0.01535
 C1058 C 0.25704 0.77082 -0.02799
 C1059 C 0.27090 0.78690 -0.01472
 C1060 C 0.27153 0.78586 0.01047
 C1061 C 0.25862 0.76847 0.02336
 C1062 C 0.24461 0.75193 0.01033
 C1063 C 0.21598 0.71994 -0.01545
 C1064 C 0.21758 0.71811 0.00968
 C1065 C 0.23189 0.73382 0.02292
 C1066 C 0.23348 0.73222 0.04845
 C1067 C 0.24733 0.74871 0.06097
 C1068 C 0.25981 0.76679 0.04889
 H1069 H 0.28152 0.80038 -0.02371
 H1070 H 0.28262 0.79860 0.01973
 H1071 H 0.20483 0.70727 -0.02474
 H1072 H 0.20741 0.70428 0.01867
 H1073 H 0.24205 0.75604 -0.08576
 H1074 H 0.24828 0.74755 0.08056
 C1075 C 0.26220 0.27459 0.44800
 C1076 C 0.24775 0.25847 0.43566
 C1077 C 0.23264 0.24279 0.44805
 C1078 C 0.23262 0.24235 0.47362
 C1079 C 0.24723 0.25849 0.48644
 C1080 C 0.26167 0.27505 0.47361
 C1081 C 0.27563 0.29116 0.48675
 C1082 C 0.27552 0.29096 0.51198
 C1083 C 0.26171 0.27440 0.52503
 C1084 C 0.24755 0.25790 0.51216
 C1085 C 0.21884 0.22577 0.48666
 C1086 C 0.21960 0.22482 0.51183
 C1087 C 0.23391 0.24064 0.52493
 C1088 C 0.23467 0.23988 0.55049
 C1089 C 0.24866 0.25629 0.56292
 C1090 C 0.26214 0.27347 0.55062
 H1091 H 0.28693 0.30399 0.47762
 H1092 H 0.28670 0.30367 0.52118
 H1093 H 0.20765 0.21304 0.47750
 H1094 H 0.20876 0.21159 0.52095
 H1095 H 0.24767 0.25869 0.41602
 H1096 H 0.24916 0.25559 0.58255
 C1097 C 0.75598 0.72578 0.95114
 C1098 C 0.74295 0.74335 0.93885
 C1099 C 0.72988 0.76057 0.95133
 C1100 C 0.72957 0.76024 0.97687
 C1101 C 0.74277 0.74254 0.98959
 C1102 C 0.75606 0.72524 0.97669
 C1103 C 0.76954 0.70829 0.98964
 C1104 C 0.77007 0.70840 1.01485
 C1105 C 0.75688 0.72527 1.02800
 C1106 C 0.74291 0.74233 1.01526
 C1107 C 0.71614 0.77690 0.99001
 C1108 C 0.71583 0.77634 1.01517
 C1109 C 0.72919 0.75930 1.02813
 C1110 C 0.72962 0.75915 1.05365
 C1111 C 0.74429 0.74298 1.06598
 C1112 C 0.75779 0.72600 1.05354
 H1113 H 0.78006 0.69497 0.98038
 H1114 H 0.78104 0.69520 1.02392
 H1115 H 0.70565 0.79050 0.98094
 H1116 H 0.70536 0.78973 1.02440
 H1117 H 0.74325 0.74381 0.91921
 H1118 H 0.74459 0.74306 1.08561
 C1119 C 0.75922 0.22654 0.44985
 C1120 C 0.74297 0.24085 0.43727
 C1121 C 0.72733 0.25616 0.44938
 C1122 C 0.72820 0.25766 0.47487
 C1123 C 0.74495 0.24359 0.48788
 C1124 C 0.76019 0.22760 0.47537
 C1125 C 0.77641 0.21359 0.48863
 C1126 C 0.77793 0.21548 0.51369
 C1127 C 0.76343 0.23163 0.52638
 C1128 C 0.74676 0.24580 0.51339
 C1129 C 0.71337 0.27345 0.48761
 C1130 C 0.71518 0.27565 0.51264
 C1131 C 0.73188 0.26212 0.52586
 C1132 C 0.73444 0.26480 0.55117
 C1133 C 0.75143 0.25114 0.56360
 C1134 C 0.76547 0.23425 0.55169
 H1135 H 0.78829 0.20121 0.47970
 H1136 H 0.79095 0.20449 0.52298
 H1137 H 0.70046 0.28455 0.47829
 H1138 H 0.70360 0.28837 0.52146
 H1139 H 0.74226 0.23982 0.41768
 H1140 H 0.75264 0.25254 0.58314
 C1141 C 0.76789 0.26270 0.05041
 C1142 C 0.74976 0.25040 0.06257
 C1143 C 0.73267 0.23732 0.05006
 C1144 C 0.73342 0.23664 0.02450
 C1145 C 0.75190 0.24873 0.01188
 C1146 C 0.76927 0.26173 0.02488
 C1147 C 0.78721 0.27382 0.01197
 C1148 C 0.78826 0.27298 -0.01320
 C1149 C 0.77144 0.26000 -0.02644
 C1150 C 0.75304 0.24780 -0.01379
 C1151 C 0.71652 0.22376 0.01127
 C1152 C 0.71764 0.22282 -0.01388
 C1153 C 0.73569 0.23477 -0.02676
 C1154 C 0.73711 0.23368 -0.05227
 C1155 C 0.75517 0.24600 -0.06449
 C1156 C 0.77213 0.25934 -0.05202
 H1157 H 0.80056 0.28418 0.02122
 H1158 H 0.80239 0.28269 -0.02222
 H1159 H 0.70229 0.21418 0.02027
 H1160 H 0.70424 0.21250 -0.02311
 H1161 H 0.74904 0.25086 0.08219
 H1162 H 0.75583 0.24550 -0.08411
 C1163 C 0.76364 0.76304 0.55193
 C1164 C 0.75216 0.74482 0.56474
 C1165 C 0.73912 0.72724 0.55289
 C1166 C 0.73786 0.72741 0.52736
 C1167 C 0.74925 0.74591 0.51411
 C1168 C 0.76207 0.76388 0.52643
 C1169 C 0.77334 0.78193 0.51292
 C1170 C 0.77192 0.78247 0.48779
 C1171 C 0.75910 0.76502 0.47524
 C1172 C 0.74768 0.74654 0.48848
 C1173 C 0.72504 0.70997 0.51478
 C1174 C 0.72357 0.71055 0.48962
 C1175 C 0.73480 0.72862 0.47613
 C1176 C 0.73316 0.72956 0.45062
 C1177 C 0.74476 0.74773 0.43787
 C1178 C 0.75787 0.76520 0.44974
 H1179 H 0.78352 0.79576 0.52164
 H1180 H 0.78103 0.79670 0.47827
 H1181 H 0.71599 0.69569 0.52428
 H1182 H 0.71344 0.69673 0.48082
 H1183 H 0.75293 0.74461 0.58437
 H1184 H 0.74382 0.74812 0.41825
 C1185 C 0.94947 0.26837 0.23928
 C1186 C 0.93711 0.25199 0.25371
 C1187 C 0.94902 0.23522 0.26817
 C1188 C 0.97418 0.23397 0.26756
 C1189 C 0.98705 0.25027 0.25283
 C1190 C 0.97467 0.26788 0.23905
 C1191 C 0.98781 0.28412 0.22497
 C1192 C 1.01260 0.28309 0.22434
 C1193 C 1.02520 0.26562 0.23755
 C1194 C 1.01233 0.24891 0.25180
 C1195 C 0.98676 0.21654 0.28085
 C1196 C 1.01152 0.21492 0.27949
 C1197 C 1.02466 0.23083 0.26499
 C1198 C 1.04985 0.22952 0.26369
 C1199 C 1.06216 0.24609 0.24937
 C1200 C 1.05030 0.26407 0.23643
 H1201 H 0.97902 0.29769 0.21415
 H1202 H 1.02178 0.29594 0.21303
 H1203 H 0.97753 0.20372 0.29217
 H1204 H 1.02028 0.20109 0.28998
 H1205 H 0.91781 0.25290 0.25439
 H1206 H 1.08145 0.24515 0.24853
 C1207 C 0.55186 0.23063 0.76331
 C1208 C 0.56385 0.24820 0.75003
 C1209 C 0.55160 0.26467 0.73555
 C1210 C 0.52647 0.26374 0.73429
 C1211 C 0.51402 0.24609 0.74779
 C1212 C 0.52676 0.22944 0.76232
 C1213 C 0.51404 0.21243 0.77592
 C1214 C 0.48925 0.21188 0.77544
 C1215 C 0.47627 0.22809 0.76108
 C1216 C 0.48878 0.24516 0.74687
 C1217 C 0.51352 0.27967 0.71957
 C1218 C 0.48878 0.27848 0.71832
 C1219 C 0.47607 0.26149 0.73193
 C1220 C 0.45094 0.26078 0.73154
 C1221 C 0.43887 0.24445 0.74631
 C1222 C 0.45110 0.22816 0.76102
 H1223 H 0.52314 0.19962 0.78740
 H1224 H 0.48034 0.19870 0.78659
 H1225 H 0.52240 0.29318 0.70883
 H1226 H 0.47968 0.29129 0.70684
 H1227 H 0.58314 0.24897 0.75086
 H1228 H 0.41956 0.24398 0.74585
 C1229 C -0.05034 0.25813 0.77161
 C1230 C -0.06248 0.24373 0.75521
 C1231 C -0.05039 0.23057 0.73762
 C1232 C -0.02527 0.23141 0.73651
 C1233 C -0.01265 0.24582 0.75309
 C1234 C -0.02523 0.25936 0.77061
 C1235 C -0.01241 0.27421 0.78621
 C1236 C 0.01232 0.27552 0.78486
 C1237 C 0.02515 0.26181 0.76807
 C1238 C 0.01259 0.24675 0.75210
 C1239 C -0.01242 0.21786 0.71958
 C1240 C 0.01236 0.21838 0.71898
 C1241 C 0.02522 0.23267 0.73508
 C1242 C 0.05039 0.23291 0.73497
 C1243 C 0.06252 0.24761 0.75108
 C1244 C 0.05027 0.26242 0.76713
 H1245 H -0.02140 0.28504 0.79955
 H1246 H 0.02133 0.28715 0.79740
 H1247 H -0.02138 0.20640 0.70688
 H1248 H 0.02135 0.20731 0.70584
 H1249 H -0.08178 0.24319 0.75582
 H1250 H 0.08182 0.24837 0.75034
 C1251 C 0.55305 0.27558 0.25552
 C1252 C 0.56559 0.26180 0.23879
 C1253 C 0.55385 0.24705 0.22240
 C1254 C 0.52868 0.24603 0.22256
 C1255 C 0.51572 0.25916 0.24009
 C1256 C 0.52793 0.27405 0.25658
 C1257 C 0.51478 0.28645 0.27414
 C1258 C 0.49015 0.28403 0.27575
 C1259 C 0.47769 0.26933 0.25967
 C1260 C 0.49053 0.25707 0.24139
 C1261 C 0.51619 0.23166 0.20620
 C1262 C 0.49144 0.23010 0.20707
 C1263 C 0.47826 0.24255 0.22457
 C1264 C 0.45320 0.24040 0.22617
 C1265 C 0.44090 0.25260 0.24435
 C1266 C 0.45268 0.26692 0.26107
 H1267 H 0.52350 0.29784 0.28711
 H1268 H 0.48093 0.29385 0.28973
 H1269 H 0.52548 0.22139 0.19263
 H1270 H 0.48276 0.21869 0.19411
 H1271 H 0.58488 0.26282 0.23828
 H1272 H 0.42168 0.25097 0.24548
 C1273 C 1.04950 0.73994 0.77098
 C1274 C 1.06177 0.75581 0.75584
 C1275 C 1.04986 0.76997 0.73880
 C1276 C 1.02485 0.76855 0.73682
 C1277 C 1.01221 0.75190 0.75138
 C1278 C 1.02455 0.73756 0.76858
 C1279 C 1.01171 0.72080 0.78237
 C1280 C 0.98725 0.71801 0.77920
 C1281 C 0.97464 0.73212 0.76238
 C1282 C 0.98721 0.74946 0.74857
 C1283 C 1.01224 0.78296 0.72030
 C1284 C 0.98763 0.78110 0.71810
 C1285 C 0.97481 0.76440 0.73197
 C1286 C 0.94984 0.76252 0.72999
 C1287 C 0.93771 0.74531 0.74355
 C1288 C 0.94971 0.72985 0.75941
 H1289 H 1.02052 0.70947 0.79556
 H1290 H 0.97827 0.70483 0.79029
 H1291 H 1.02129 0.79588 0.70895
 H1292 H 0.97875 0.79282 0.70531
 H1293 H 1.08095 0.75741 0.75755
 H1294 H 0.91859 0.74365 0.74136
 C1295 C 0.44820 0.78242 0.25039
 C1296 C 0.43596 0.76739 0.26639
 C1297 C 0.44794 0.75085 0.28103
 C1298 C 0.47300 0.74898 0.27962
 C1299 C 0.48572 0.76392 0.26332
 C1300 C 0.47332 0.78100 0.24893
 C1301 C 0.48628 0.79550 0.23283
 C1302 C 0.51090 0.79313 0.23065
 C1303 C 0.52348 0.77600 0.24431
 C1304 C 0.51079 0.76124 0.26081
 C1305 C 0.48556 0.73193 0.29338
 C1306 C 0.51011 0.72928 0.29089
 C1307 C 0.52306 0.74365 0.27463
 C1308 C 0.54787 0.74050 0.27138
 C1309 C 0.56001 0.75489 0.25468
 C1310 C 0.54832 0.77281 0.24147
 H1311 H 0.47744 0.80866 0.22155
 H1312 H 0.51993 0.80455 0.21773
 H1313 H 0.47644 0.72014 0.30588
 H1314 H 0.51876 0.71548 0.30151
 H1315 H 0.41667 0.76846 0.26729
 H1316 H 0.57917 0.75299 0.25293
 C1317 C -0.05079 0.75098 0.22450
 C1318 C -0.06240 0.76758 0.23906
 C1319 C -0.04970 0.78319 0.25377
 C1320 C -0.02461 0.78195 0.25444
 C1321 C -0.01256 0.76506 0.23984
 C1322 C -0.02568 0.74985 0.22443
 C1323 C -0.01342 0.73329 0.21007
 C1324 C 0.01126 0.73139 0.21111
 C1325 C 0.02457 0.74580 0.22674
 C1326 C 0.01256 0.76282 0.24124
 C1327 C -0.01135 0.79647 0.26999
 C1328 C 0.01327 0.79403 0.27165
 C1329 C 0.02555 0.77719 0.25756
 C1330 C 0.05038 0.77384 0.25984
 C1331 C 0.06192 0.75683 0.24562
 C1332 C 0.04949 0.74305 0.22890
 H1333 H -0.02285 0.72135 0.19819
 H1334 H 0.01972 0.71796 0.20006
 H1335 H -0.01998 0.80956 0.28137
 H1336 H 0.02251 0.80519 0.28443
 H1337 H -0.08171 0.76831 0.23900
 H1338 H 0.08112 0.75503 0.24684
 C1339 C 0.44898 0.76537 0.76610
 C1340 C 0.43704 0.75320 0.74785
 C1341 C 0.44937 0.74138 0.72947
 C1342 C 0.47451 0.74185 0.72912
 C1343 C 0.48689 0.75425 0.74752
 C1344 C 0.47408 0.76604 0.76610
 C1345 C 0.48667 0.77853 0.78389
 C1346 C 0.51145 0.77938 0.78352
 C1347 C 0.52453 0.76747 0.76555
 C1348 C 0.51214 0.75470 0.74745
 C1349 C 0.48758 0.72974 0.71131
 C1350 C 0.51236 0.72978 0.71153
 C1351 C 0.52496 0.74220 0.72938
 C1352 C 0.55007 0.74200 0.73002
 C1353 C 0.56205 0.75529 0.74744
 C1354 C 0.54967 0.76827 0.76494
 H1355 H 0.47745 0.78791 0.79818
 H1356 H 0.52024 0.78943 0.79752
 H1357 H 0.47875 0.71990 0.69717
 H1358 H 0.52158 0.72000 0.69753
 H1359 H 0.41771 0.75278 0.74803
 H1360 H 0.58137 0.75521 0.74757
 C1361 C 0.42053 0.29393 0.27247
 C1362 C 0.43803 0.27926 0.27947
 H1363 H 0.41822 0.29777 0.25335
 H1364 H 0.44172 0.27637 0.29852
 C1365 C 0.42015 0.79547 0.77775
 C1366 C 0.43431 0.77746 0.78452
 H1367 H 0.42169 0.80230 0.75938
 H1368 H 0.43441 0.77070 0.80293
 C1369 C -0.08107 0.28753 0.78018
 C1370 C -0.06478 0.27230 0.78875
 H1371 H -0.08221 0.29045 0.76078
 H1372 H -0.06211 0.27010 0.80806
 C1373 C -0.07694 0.78961 0.28707
 C1374 C -0.06359 0.79914 0.26956
 H1375 H -0.07568 0.77058 0.29046
 H1376 H -0.06332 0.81817 0.26623
 C1377 C 0.57810 0.70903 0.27728
 C1378 C 0.56210 0.72405 0.28674
 H1379 H 0.57918 0.70692 0.25783
 H1380 H 0.55999 0.72512 0.30619
 C1381 C 0.58181 0.22093 0.79397
 C1382 C 0.56632 0.21344 0.77740
 H1383 H 0.58236 0.23964 0.79862
 H1384 H 0.56448 0.19462 0.77367
 C1385 C 1.08115 0.71171 0.78058
 C1386 C 1.06363 0.72572 0.78852
 H1387 H 1.08381 0.70978 0.76124
 H1388 H 1.05945 0.72658 0.80765
 C1389 C 1.08140 0.21839 0.29219
 C1390 C 1.06415 0.21145 0.27719
 H1391 H 1.08347 0.23726 0.29571
 H1392 H 1.06054 0.19268 0.27470
 C1393 C 0.58284 0.27570 0.70679
 C1394 C 0.56582 0.28260 0.72216
 H1395 H 0.58492 0.25691 0.70284
 H1396 H 0.56247 0.30134 0.72527
 C1397 C 0.57884 0.78048 0.21051
 C1398 C 0.56303 0.78899 0.22637
 H1399 H 0.57939 0.76154 0.20686
 H1400 H 0.56131 0.80802 0.22899
 C1401 C 1.08080 0.27431 0.20629
 C1402 C 1.06485 0.28146 0.22269
 H1403 H 1.08198 0.25559 0.20170
 H1404 H 1.06250 0.30025 0.22636
 C1405 C 1.08025 0.77770 0.70800
 C1406 C 1.06423 0.78624 0.72366
 H1407 H 1.08145 0.75867 0.70505
 H1408 H 1.06198 0.80526 0.72601
 C1409 C 0.42054 0.71088 0.71961
 C1410 C 0.43519 0.72791 0.71170
 H1411 H 0.42063 0.70619 0.73870
 H1412 H 0.43659 0.73216 0.69260
 C1413 C 0.42373 0.20959 0.21808
 C1414 C 0.43898 0.22574 0.20931
 H1415 H 0.42367 0.20582 0.23737
 H1416 H 0.44036 0.22895 0.19000
 C1417 C -0.08065 0.71968 0.22057
 C1418 C -0.06561 0.73490 0.20990
 H1419 H -0.08088 0.71805 0.24014
 H1420 H -0.06422 0.73586 0.19036
 C1421 C -0.08169 0.20209 0.72732
 C1422 C -0.06473 0.21715 0.71997
 H1423 H -0.08382 0.19822 0.74645
 H1424 H -0.06146 0.21998 0.70084
 C1425 C 0.28507 0.42159 0.28210
 C1426 C 0.26793 0.43590 0.29045
 H1427 H 0.28911 0.42186 0.26289
 H1428 H 0.26420 0.43710 0.30963
 C1429 C 0.28835 -0.07669 0.78561
 C1430 C 0.26976 -0.06412 0.79366
 H1431 H 0.29423 -0.07374 0.76710
 H1432 H 0.26342 -0.06582 0.81211
 C1433 C 0.79344 0.42433 0.78120
 C1434 C 0.77435 0.43677 0.78823
 H1435 H 0.80045 0.42741 0.76312
 H1436 H 0.76648 0.43430 0.80596
 C1437 C 0.78292 -0.08144 0.29255
 C1438 C 0.79058 -0.06810 0.27397
 H1439 H 0.76457 -0.07948 0.29843
 H1440 H 0.80909 -0.06827 0.26845
 C1441 C 0.29313 0.57619 0.72042
 C1442 C 0.27631 0.56154 0.71234
 H1443 H 0.29775 0.57577 0.73948
 H1444 H 0.27214 0.56069 0.69323
 C1445 C 0.28906 1.07895 0.22000
 C1446 C 0.27446 1.06317 0.20990
 H1447 H 0.29026 1.07983 0.23957
 H1448 H 0.27384 1.06102 0.19045
 C1449 C 0.78843 0.58258 0.22060
 C1450 C 0.77416 0.56636 0.21070
 H1451 H 0.78980 0.58352 0.24014
 H1452 H 0.77374 0.56408 0.19125
 C1453 C 0.77678 1.07953 0.70635
 C1454 C 0.78462 1.06296 0.72192
 H1455 H 0.75782 1.08136 0.70307
 H1456 H 0.80354 1.05999 0.72435
 C1457 C 0.71905 0.58054 0.28802
 C1458 C 0.71035 0.56525 0.27186
 H1459 H 0.73806 0.58097 0.29139
 H1460 H 0.69130 0.56357 0.26937
 C1461 C 0.70494 1.07821 0.77682
 C1462 C 0.72232 1.06353 0.78427
 H1463 H 0.69901 1.07737 0.75817
 H1464 H 0.72752 1.06263 0.80312
 C1465 C 0.20783 0.57585 0.77744
 C1466 C 0.22517 0.56107 0.78450
 H1467 H 0.20221 0.57587 0.75866
 H1468 H 0.23037 0.55971 0.80333
 C1469 C 0.21670 1.08155 0.28189
 C1470 C 0.20861 1.06344 0.26875
 H1471 H 0.23579 1.08436 0.28294
 H1472 H 0.18985 1.05895 0.26900
 C1473 C 0.70439 0.42035 0.72645
 C1474 C 0.71994 0.43683 0.71881
 H1475 H 0.70000 0.41908 0.74552
 H1476 H 0.72330 0.43914 0.69962
 C1477 C 0.70953 -0.08228 0.22429
 C1478 C 0.72505 -0.06662 0.21509
 H1479 H 0.70690 -0.08348 0.24370
 H1480 H 0.72667 -0.06429 0.19567
 C1481 C 0.19969 0.41983 0.22593
 C1482 C 0.21608 0.43569 0.21893
 H1483 H 0.19432 0.41893 0.24477
 H1484 H 0.22062 0.43763 0.19995
 C1485 C 0.20305 -0.08273 0.72929
 C1486 C 0.21733 -0.06484 0.72261
 H1487 H 0.19900 -0.08547 0.74829
 H1488 H 0.22034 -0.06105 0.70359
 C1489 C 0.29274 0.28275 0.41730
 C1490 C 0.27701 0.29110 0.43337
 H1491 H 0.29600 0.26373 0.41638
 H1492 H 0.27463 0.31011 0.43564
 C1493 C 0.28809 0.78068 -0.08314
 C1494 C 0.27124 0.78839 -0.06795
 H1495 H 0.29213 0.76180 -0.08381
 H1496 H 0.26794 0.80729 -0.06585
 C1497 C 0.78224 0.29019 -0.08163
 C1498 C 0.78968 0.27298 -0.06655
 H1499 H 0.76350 0.29490 -0.08189
 H1500 H 0.80846 0.26888 -0.06478
 C1501 C 0.78766 0.77507 0.41943
 C1502 C 0.77091 0.78265 0.43472
 H1503 H 0.79225 0.75629 0.41914
 H1504 H 0.76685 0.80143 0.43646
 C1505 C 0.72606 0.29550 0.58163
 C1506 C 0.71802 0.27969 0.56563
 H1507 H 0.74492 0.29948 0.58238
 H1508 H 0.69906 0.27672 0.56377
 C1509 C 0.72222 0.78979 1.08412
 C1510 C 0.71369 0.77446 1.06802
 H1511 H 0.74126 0.79251 1.08555
 H1512 H 0.69466 0.77283 1.06531
 C1513 C 0.22698 0.29471 1.08374
 C1514 C 0.22060 0.27795 1.06802
 H1515 H 0.24543 0.30022 1.08464
 H1516 H 0.20203 0.27333 1.06575
 C1517 C 0.22628 0.79737 0.58234
 C1518 C 0.22009 0.78026 0.56687
 H1519 H 0.24454 0.80355 0.58269
 H1520 H 0.20161 0.77507 0.56516
 C1521 C 0.28309 0.71089 0.58248
 C1522 C 0.29075 0.72813 0.56761
 H1523 H 0.26435 0.70626 0.58245
 H1524 H 0.30955 0.73215 0.56611
 C1525 C 0.28553 0.20871 1.08091
 C1526 C 0.29218 0.22704 1.06695
 H1527 H 0.26716 0.20282 1.08036
 H1528 H 0.31065 0.23247 1.06602
 C1529 C 0.78947 0.71758 1.08245
 C1530 C 0.77249 0.70928 1.06796
 H1531 H 0.79330 0.73650 1.08239
 H1532 H 0.76934 0.69032 1.06656
 C1533 C 0.79620 0.22535 0.58221
 C1534 C 0.77985 0.21769 0.56659
 H1535 H 0.80105 0.24401 0.58248
 H1536 H 0.77622 0.19880 0.56514
 C1537 C 0.70282 0.71882 0.42117
 C1538 C 0.71995 0.71175 0.43640
 H1539 H 0.69723 0.73733 0.42108
 H1540 H 0.72494 0.69314 0.43783
 C1541 C 0.72643 0.20339 -0.08194
 C1542 C 0.71954 0.22058 -0.06685
 H1543 H 0.74499 0.19801 -0.08246
 H1544 H 0.70087 0.22514 -0.06502
 C1545 C 0.22029 0.70971 -0.08593
 C1546 C 0.21192 0.72378 -0.06846
 H1547 H 0.23937 0.70784 -0.08832
 H1548 H 0.19300 0.72444 -0.06466
 C1549 C 0.22479 0.21294 0.41701
 C1550 C 0.21639 0.22786 0.43368
 H1551 H 0.24386 0.21052 0.41508
 H1552 H 0.19741 0.22918 0.43700
 C1553 C 0.28839 0.42411 0.71196
 C1554 C 0.26695 0.43251 0.70583
 H1555 H 0.29644 0.43004 0.72869
 H1556 H 0.25780 0.42619 0.68991
 C1557 C 0.27776 0.91667 0.20766
 C1558 C 0.28518 0.93437 0.22179
 H1559 H 0.25880 0.91406 0.20516
 H1560 H 0.30398 0.93839 0.22322
 C1561 C 0.79033 0.42129 0.21964
 C1562 C 0.77491 0.43679 0.20973
 H1563 H 0.79258 0.42068 0.23912
 H1564 H 0.77355 0.43853 0.19024
 C1565 C 0.77666 0.91772 0.70770
 C1566 C 0.78454 0.93345 0.72380
 H1567 H 0.75778 0.91686 0.70374
 H1568 H 0.80347 0.93564 0.72683
 C1569 C 0.71523 0.57987 0.71861
 C1570 C 0.73176 0.56567 0.70896
 H1571 H 0.71221 0.57925 0.73801
 H1572 H 0.73466 0.56515 0.68960
 C1573 C 0.71299 0.07931 0.22245
 C1574 C 0.72760 0.06271 0.21345
 H1575 H 0.71079 0.08082 0.24186
 H1576 H 0.72872 0.05995 0.19410
 C1577 C 0.20939 0.57813 0.21609
 C1578 C 0.22754 0.56457 0.20879
 H1579 H 0.20336 0.57640 0.23470
 H1580 H 0.23392 0.56520 0.19030
 C1581 C 0.22533 0.08239 0.70600
 C1582 C 0.21721 0.06487 0.72028
 H1583 H 0.24435 0.08486 0.70381
 H1584 H 0.19827 0.06134 0.72126
 C1585 C 0.29373 0.58079 0.27476
 C1586 C 0.27726 0.56506 0.28187
 H1587 H 0.29886 0.58172 0.25586
 H1588 H 0.27280 0.56309 0.30087
 C1589 C 0.29289 0.08067 0.77720
 C1590 C 0.27682 0.06510 0.78557
 H1591 H 0.29675 0.08155 0.75799
 H1592 H 0.27384 0.06315 0.80486
 C1593 C 0.78343 0.58147 0.78737
 C1594 C 0.79233 0.56459 0.77299
 H1595 H 0.76426 0.58313 0.78920
 H1596 H 0.81135 0.56141 0.77210
 C1597 C 0.78096 0.07717 0.29158
 C1598 C 0.78993 0.06147 0.27591
 H1599 H 0.76185 0.07810 0.29435
 H1600 H 0.80900 0.05935 0.27389
 C1601 C 0.71674 0.42010 0.28380
 C1602 C 0.70818 0.43574 0.26770
 H1603 H 0.73580 0.41945 0.28693
 H1604 H 0.68916 0.43793 0.26527
 C1605 C 0.72398 0.91786 0.79673
 C1606 C 0.71693 0.93428 0.78062
 H1607 H 0.74273 0.91599 0.80098
 H1608 H 0.69816 0.93731 0.77718
 C1609 C 0.19995 0.41648 0.77229
 C1610 C 0.21680 0.43205 0.77846
 H1611 H 0.19387 0.41578 0.75370
 H1612 H 0.22201 0.43388 0.79720
 C1613 C 0.20549 0.91970 0.27583
 C1614 C 0.22201 0.93492 0.28341
 H1615 H 0.20073 0.91935 0.25683
 H1616 H 0.22627 0.93635 0.30246
 C1617 C 0.41907 0.28973 0.72452
 C1618 C 0.43655 0.27629 0.71548
 H1619 H 0.41684 0.29091 0.74397
 H1620 H 0.43997 0.27603 0.69618
 C1621 C 0.41861 0.78825 0.21875
 C1622 C 0.43380 0.79804 0.23434
 H1623 H 0.41831 0.76902 0.21701
 H1624 H 0.43563 0.81720 0.23542
 C1625 C 0.91902 0.27867 0.20925
 C1626 C 0.93523 0.28598 0.22525
 H1627 H 0.91789 0.25987 0.20509
 H1628 H 0.93778 0.30480 0.22849
 C1629 C 0.92004 0.79346 0.72185
 C1630 C 0.93578 0.77766 0.71336
 H1631 H 0.91897 0.79667 0.74114
 H1632 H 0.93802 0.77520 0.69408
 C1633 C 0.58337 0.28306 0.28639
 C1634 C 0.56690 0.29168 0.27120
 H1635 H 0.58520 0.26395 0.28879
 H1636 H 0.56380 0.31071 0.26983
 C1637 C 0.57954 0.79806 0.77562
 C1638 C 0.56373 0.78169 0.78279
 H1639 H 0.58094 0.80281 0.75662
 H1640 H 0.56133 0.77764 0.80184
 C1641 C 0.08103 0.27204 0.79678
 C1642 C 0.06428 0.27947 0.78139
 H1643 H 0.08316 0.25316 0.80054
 H1644 H 0.06099 0.29835 0.77867
 C1645 C 0.08052 0.77942 0.29145
 C1646 C 0.06517 0.78891 0.27556
 H1647 H 0.08069 0.76035 0.29469
 H1648 H 0.06389 0.80806 0.27333
 C1649 C 0.57801 0.70980 0.72207
 C1650 C 0.56455 0.72755 0.71336
 H1651 H 0.57679 0.70503 0.74109
 H1652 H 0.56459 0.73204 0.69426
 C1653 C 0.58394 0.21650 0.21549
 C1654 C 0.56866 0.23234 0.20608
 H1655 H 0.58427 0.21368 0.23492
 H1656 H 0.56689 0.23446 0.18666
 C1657 C 0.07953 0.71195 0.22231
 C1658 C 0.06334 0.72696 0.21309
 H1659 H 0.08106 0.70996 0.24179
 H1660 H 0.06063 0.72810 0.19371
 C1661 C 0.08120 0.20356 0.72475
 C1662 C 0.06467 0.21919 0.71737
 H1663 H 0.08290 0.19939 0.74387
 H1664 H 0.06177 0.22240 0.69823
 C1665 C 0.41861 0.71940 0.28647
 C1666 C 0.43343 0.73499 0.29656
 H1667 H 0.41829 0.71764 0.26695
 H1668 H 0.43502 0.73620 0.31605
 C1669 C 0.42079 0.21952 0.79163
 C1670 C 0.43678 0.21136 0.77574
 H1671 H 0.41976 0.23846 0.79517
 H1672 H 0.43899 0.19240 0.77294
 C1673 C 0.91664 0.71882 0.78580
 C1674 C 0.93544 0.71190 0.77282
 H1675 H 0.91283 0.73769 0.78747
 H1676 H 0.94079 0.69334 0.77266
 C1677 C 0.91648 0.20731 0.27630
 C1678 C 0.93454 0.22029 0.28466
 H1679 H 0.91371 0.20597 0.25694
 H1680 H 0.93850 0.22049 0.30384
 C1681 C 0.29310 0.28221 0.58032
 C1682 C 0.27623 0.29024 0.56526
 H1683 H 0.29781 0.26346 0.58029
 H1684 H 0.27230 0.30911 0.56393
 C1685 C 0.28992 0.77621 0.07938
 C1686 C 0.27347 0.78387 0.06365
 H1687 H 0.29442 0.75742 0.08012
 H1688 H 0.26984 0.80274 0.06158
 C1689 C 0.77765 0.29260 0.08067
 C1690 C 0.78519 0.27609 0.06513
 H1691 H 0.75889 0.29724 0.08121
 H1692 H 0.80400 0.27223 0.06321
 C1693 C 0.79391 0.77499 0.58111
 C1694 C 0.77645 0.78127 0.56596
 H1695 H 0.79976 0.75657 0.58188
 H1696 H 0.77136 0.79980 0.56381
 C1697 C 0.28008 0.70598 0.42022
 C1698 C 0.28763 0.72230 0.43597
 H1699 H 0.26128 0.70173 0.41952
 H1700 H 0.30648 0.72571 0.43808
 C1701 C 0.27882 0.20694 0.92006
 C1702 C 0.28670 0.22333 0.93550
 H1703 H 0.26002 0.20260 0.91975
 H1704 H 0.30558 0.22682 0.93716
 C1705 C 0.78803 0.71660 0.92308
 C1706 C 0.76984 0.70881 0.93649
 H1707 H 0.79363 0.73499 0.92459
 H1708 H 0.76473 0.69023 0.93643
 C1709 C 0.79026 0.21889 0.41966
 C1710 C 0.77442 0.21035 0.43558
 H1711 H 0.79369 0.23788 0.41881
 H1712 H 0.77183 0.19132 0.43762
 C1713 C 0.71985 0.28551 0.41772
 C1714 C 0.71099 0.27090 0.43459
 H1715 H 0.73901 0.28732 0.41602
 H1716 H 0.69197 0.26978 0.43767
 C1717 C 0.70084 0.77300 0.92086
 C1718 C 0.71734 0.77904 0.93701
 H1719 H 0.69551 0.75453 0.91942
 H1720 H 0.72177 0.79757 0.93986
 C1721 C 0.22470 0.29361 0.92018
 C1722 C 0.21763 0.27749 0.93660
 H1723 H 0.24346 0.29793 0.91870
 H1724 H 0.19888 0.27391 0.93939
 C1725 C 0.22486 0.79164 0.41879
 C1726 C 0.21769 0.77556 0.43519
 H1727 H 0.24360 0.79613 0.41766
 H1728 H 0.19894 0.77183 0.43770
 C1729 C 0.70894 0.71787 0.58296
 C1730 C 0.72584 0.70997 0.56799
 H1731 H 0.70443 0.73668 0.58279
 H1732 H 0.72992 0.69115 0.56675
 C1733 C 0.72166 0.20693 0.07982
 C1734 C 0.71472 0.22413 0.06450
 H1735 H 0.74032 0.20189 0.08038
 H1736 H 0.69604 0.22854 0.06244
 C1737 C 0.20478 0.72024 0.07947
 C1738 C 0.22083 0.71380 0.06287
 H1739 H 0.19991 0.73889 0.08091
 H1740 H 0.22481 0.69516 0.05989
 C1741 C 0.20530 0.22807 0.58109
 C1742 C 0.22175 0.22171 0.56485
 H1743 H 0.20017 0.24664 0.58252
 H1744 H 0.22597 0.20309 0.56206
   
