data_POSCAR
  _audit_creation_date              2014-09-24
  _audit_creation_method            'ToBaCCo'
  _symmetry_space_group_name_H-M    'P1'
  _symmetry_Int_Tables_number       1
  _symmetry_cell_setting            triclinic
  loop_
  _symmetry_equiv_pos_as_xyz
 x,y,z
_cell_length_a 84.9855
_cell_length_b 84.1852
_cell_length_c 86.1539
_cell_angle_alpha 90.211700
_cell_angle_beta 90.043600
_cell_angle_gamma 89.867300
loop_
  _atom_site_label
  _atom_site_type_symbol
  _atom_site_fract_x
  _atom_site_fract_y
  _atom_site_fract_z
N1 N 0.35816 0.31421 0.33233
 N2 N 0.35866 0.32570 0.32205
 C3 C 0.37155 0.32369 0.31310
 C4 C 0.37956 0.31025 0.31814
 C5 C 0.37061 0.30458 0.33032
 H6 H 0.37502 0.33155 0.30382
 H7 H 0.37292 0.29414 0.33722
 Cu8 Cu 0.34248 0.34229 0.32192
 Cu9 Cu 0.34174 0.31246 0.34793
 Cu10 Cu 0.31261 0.34110 0.34755
 N11 N 0.32560 0.35815 0.32164
 N12 N 0.31411 0.35746 0.33181
 C13 C 0.30427 0.36974 0.32962
 C14 C 0.30979 0.37879 0.31743
 C15 C 0.32337 0.37101 0.31255
 H16 H 0.29380 0.37188 0.33643
 H17 H 0.33117 0.37463 0.30332
 N18 N 0.31305 0.32363 0.36263
 N19 N 0.32416 0.31268 0.36280
 C20 C 0.32148 0.30272 0.37470
 C21 C 0.30802 0.30764 0.38245
 C22 C 0.30301 0.32093 0.37440
 H23 H 0.32899 0.29283 0.37773
 H24 H 0.29285 0.32820 0.37697
 H25 H 0.32475 0.32403 0.33509
 H26 H 0.33643 0.33636 0.34900
 N27 N 0.36182 0.81315 -0.16719
 N28 N 0.36077 0.82342 -0.17858
 C29 C 0.37305 0.82127 -0.18826
 C30 C 0.38238 0.80896 -0.18263
 C31 C 0.37478 0.80418 -0.16916
 H32 H 0.37499 0.82822 -0.19859
 H33 H 0.37817 0.79470 -0.16143
 Cu34 Cu 0.34339 0.83853 -0.17967
 Cu35 Cu 0.34606 0.81166 -0.15089
 Cu36 Cu 0.31511 0.83839 -0.15235
 N37 N 0.32629 0.85404 -0.17980
 N38 N 0.31516 0.85365 -0.16925
 C39 C 0.30484 0.86544 -0.17193
 C40 C 0.30973 0.87390 -0.18487
 C41 C 0.32347 0.86623 -0.18953
 H42 H 0.29472 0.86778 -0.16470
 H43 H 0.33091 0.86922 -0.19924
 N44 N 0.31710 0.82212 -0.13612
 N45 N 0.32894 0.81199 -0.13549
 C46 C 0.32700 0.80248 -0.12311
 C47 C 0.31325 0.80680 -0.11551
 C48 C 0.30733 0.81933 -0.12414
 H49 H 0.33497 0.79302 -0.11993
 H50 H 0.29674 0.82605 -0.12183
 H51 H 0.32763 0.82071 -0.16372
 H52 H 0.33925 0.83519 -0.15189
 N53 N 0.86165 0.31443 -0.17236
 N54 N 0.86063 0.32595 -0.18255
 C55 C 0.87240 0.32436 -0.19292
 C56 C 0.88130 0.31112 -0.18901
 C57 C 0.87405 0.30515 -0.17587
 H58 H 0.87441 0.33236 -0.20249
 H59 H 0.87747 0.29482 -0.16927
 Cu60 Cu 0.84406 0.34194 -0.18106
 Cu61 Cu 0.84709 0.31237 -0.15511
 Cu62 Cu 0.81713 0.34019 -0.15245
 N63 N 0.82687 0.35725 -0.17965
 N64 N 0.81646 0.35651 -0.16842
 C65 C 0.80603 0.36843 -0.17005
 C66 C 0.81005 0.37726 -0.18307
 C67 C 0.82340 0.36969 -0.18884
 H68 H 0.79629 0.37043 -0.16225
 H69 H 0.83020 0.37296 -0.19891
 N70 N 0.81981 0.32276 -0.13742
 N71 N 0.83126 0.31220 -0.13847
 C72 C 0.83011 0.30198 -0.12655
 C73 C 0.81731 0.30624 -0.11751
 C74 C 0.81106 0.31949 -0.12480
 H75 H 0.83798 0.29207 -0.12465
 H76 H 0.80100 0.32638 -0.12106
 H77 H 0.82830 0.32339 -0.16600
 H78 H 0.84105 0.33617 -0.15349
 N79 N 0.85599 0.81456 0.32961
 N80 N 0.85613 0.82559 0.31887
 C81 C 0.86830 0.82284 0.30920
 C82 C 0.87623 0.80933 0.31413
 C83 C 0.86798 0.80442 0.32713
 H84 H 0.87137 0.83035 0.29953
 H85 H 0.87058 0.79434 0.33443
 Cu86 Cu 0.84089 0.84295 0.31913
 Cu87 Cu 0.84079 0.81445 0.34649
 Cu88 Cu 0.81435 0.84575 0.34793
 N89 N 0.82545 0.86014 0.31982
 N90 N 0.81578 0.86157 0.33162
 C91 C 0.80692 0.87466 0.32978
 C92 C 0.81103 0.88187 0.31590
 C93 C 0.82286 0.87220 0.30987
 H94 H 0.79776 0.87827 0.33774
 H95 H 0.82933 0.87394 0.29922
 N96 N 0.81461 0.82853 0.36331
 N97 N 0.82454 0.81648 0.36269
 C98 C 0.82142 0.80651 0.37450
 C99 C 0.80886 0.81255 0.38293
 C100 C 0.80489 0.82653 0.37547
 H101 H 0.82765 0.79554 0.37666
 H102 H 0.79559 0.83467 0.37866
 H103 H 0.82334 0.82698 0.33509
 H104 H 0.83766 0.83871 0.34693
 N105 N 0.64178 0.68362 0.32736
 N106 N 0.64227 0.67204 0.31711
 C107 C 0.63058 0.67412 0.30675
 C108 C 0.62228 0.68774 0.31075
 C109 C 0.62979 0.69343 0.32391
 H110 H 0.62817 0.66618 0.29716
 H111 H 0.62681 0.70392 0.33055
 Cu112 Cu 0.65798 0.65527 0.31842
 Cu113 Cu 0.65645 0.68499 0.34460
 Cu114 Cu 0.68522 0.65591 0.34687
 N115 N 0.67462 0.63943 0.31959
 N116 N 0.68521 0.63973 0.33070
 C117 C 0.69525 0.62752 0.32874
 C118 C 0.69076 0.61906 0.31564
 C119 C 0.67759 0.62701 0.31015
 H120 H 0.70515 0.62509 0.33624
 H121 H 0.67059 0.62393 0.30012
 N122 N 0.68325 0.67329 0.36209
 N123 N 0.67230 0.68437 0.36121
 C124 C 0.67391 0.69441 0.37329
 C125 C 0.68650 0.68944 0.38226
 C126 C 0.69213 0.67600 0.37477
 H127 H 0.66647 0.70462 0.37538
 H128 H 0.70184 0.66858 0.37839
 H129 H 0.67464 0.67313 0.33345
 H130 H 0.66147 0.66092 0.34601
 N131 N 0.63753 0.18332 -0.17181
 N132 N 0.63594 0.17045 -0.18030
 C133 C 0.62379 0.17233 -0.19011
 C134 C 0.61728 0.18725 -0.18768
 C135 C 0.62637 0.19388 -0.17592
 H136 H 0.62000 0.16339 -0.19832
 H137 H 0.62498 0.20546 -0.17064
 Cu138 Cu 0.64970 0.15233 -0.17778
 Cu139 Cu 0.65371 0.18503 -0.15586
 Cu140 Cu 0.68203 0.15531 -0.15536
 N141 N 0.66713 0.13771 -0.17988
 N142 N 0.67983 0.13882 -0.17127
 C143 C 0.68996 0.12723 -0.17544
 C144 C 0.68321 0.11835 -0.18740
 C145 C 0.66868 0.12550 -0.18983
 H146 H 0.70136 0.12552 -0.17014
 H147 H 0.65981 0.12228 -0.19824
 N148 N 0.68180 0.17316 -0.14036
 N149 N 0.67100 0.18445 -0.14063
 C150 C 0.67346 0.19444 -0.12865
 C151 C 0.68643 0.18923 -0.12035
 C152 C 0.69145 0.17572 -0.12818
 H153 H 0.66617 0.20463 -0.12605
 H154 H 0.70108 0.16800 -0.12495
 H155 H 0.66925 0.17103 -0.16858
 H156 H 0.65861 0.16104 -0.15229
 N157 N 0.14101 0.68458 -0.17099
 N158 N 0.14098 0.67329 -0.18156
 C159 C 0.12911 0.67594 -0.19159
 C160 C 0.12125 0.68966 -0.18707
 C161 C 0.12919 0.69477 -0.17391
 H162 H 0.12654 0.66849 -0.20151
 H163 H 0.12655 0.70508 -0.16687
 Cu164 Cu 0.15639 0.65618 -0.18137
 Cu165 Cu 0.15634 0.68536 -0.15425
 Cu166 Cu 0.18682 0.65833 -0.15635
 N167 N 0.17501 0.64289 -0.18371
 N168 N 0.18686 0.64396 -0.17397
 C169 C 0.19803 0.63345 -0.17805
 C170 C 0.19299 0.62525 -0.19108
 C171 C 0.17826 0.63156 -0.19435
 H172 H 0.20886 0.63164 -0.17170
 H173 H 0.17046 0.62818 -0.20371
 N174 N 0.18472 0.67379 -0.13936
 N175 N 0.17308 0.68413 -0.13848
 C176 C 0.17502 0.69311 -0.12565
 C177 C 0.18857 0.68818 -0.11807
 C178 C 0.19435 0.67587 -0.12714
 H179 H 0.16722 0.70264 -0.12220
 H180 H 0.20479 0.66887 -0.12502
 H181 H 0.17338 0.67501 -0.16806
 H182 H 0.16275 0.66167 -0.15423
 N183 N 0.14004 0.18274 0.32901
 N184 N 0.14086 0.17215 0.31778
 C185 C 0.12878 0.17448 0.30791
 C186 C 0.11990 0.18721 0.31322
 C187 C 0.12744 0.19214 0.32666
 H188 H 0.12668 0.16751 0.29756
 H189 H 0.12394 0.20171 0.33431
 Cu190 Cu 0.15760 0.15634 0.31722
 Cu191 Cu 0.15523 0.18354 0.34592
 Cu192 Cu 0.18552 0.15594 0.34486
 N193 N 0.17494 0.14118 0.31662
 N194 N 0.18580 0.14117 0.32748
 C195 C 0.19628 0.12959 0.32448
 C196 C 0.19181 0.12183 0.31098
 C197 C 0.17816 0.12954 0.30632
 H198 H 0.20626 0.12685 0.33178
 H199 H 0.17113 0.12690 0.29619
 N200 N 0.18328 0.17182 0.36152
 N201 N 0.17178 0.18237 0.36193
 C202 C 0.17352 0.19152 0.37468
 C203 C 0.18674 0.18647 0.38270
 C204 C 0.19260 0.17396 0.37399
 H205 H 0.16564 0.20104 0.37796
 H206 H 0.20302 0.16702 0.37645
 H207 H 0.17354 0.17386 0.33335
 H208 H 0.16142 0.15985 0.34510
 N209 N 0.63846 0.31610 0.66969
 N210 N 0.63936 0.32624 0.68126
 C211 C 0.62759 0.32332 0.69132
 C212 C 0.61888 0.31062 0.68576
 C213 C 0.62616 0.30636 0.67198
 H214 H 0.62570 0.32974 0.70205
 H215 H 0.62276 0.29691 0.66416
 Cu216 Cu 0.65605 0.34198 0.68234
 Cu217 Cu 0.65350 0.31603 0.65274
 Cu218 Cu 0.68472 0.34238 0.65518
 N219 N 0.67370 0.35654 0.68354
 N220 N 0.68495 0.35669 0.67308
 C221 C 0.69540 0.36811 0.67683
 C222 C 0.69046 0.37547 0.69043
 C223 C 0.67664 0.36777 0.69429
 H224 H 0.70578 0.37087 0.67012
 H225 H 0.66907 0.37035 0.70405
 N226 N 0.68219 0.32701 0.63793
 N227 N 0.66986 0.31758 0.63674
 C228 C 0.67089 0.30920 0.62346
 C229 C 0.68461 0.31337 0.61598
 C230 C 0.69157 0.32463 0.62549
 H231 H 0.66245 0.30045 0.61959
 H232 H 0.70247 0.33083 0.62331
 H233 H 0.67209 0.32468 0.66596
 H234 H 0.66069 0.33956 0.65447
 N235 N 0.64210 0.81247 1.16993
 N236 N 0.64260 0.82225 1.18183
 C237 C 0.63040 0.81919 1.19129
 C238 C 0.62174 0.80676 1.18505
 C239 C 0.62959 0.80282 1.17145
 H240 H 0.62795 0.82572 1.20184
 H241 H 0.62646 0.79366 1.16320
 Cu242 Cu 0.65888 0.83831 1.18402
 Cu243 Cu 0.65756 0.81312 1.15332
 Cu244 Cu 0.68472 0.84356 1.15483
 N245 N 0.67365 0.85594 1.18386
 N246 N 0.68337 0.85817 1.17223
 C247 C 0.69207 0.87119 1.17503
 C248 C 0.68765 0.87745 1.18924
 C249 C 0.67592 0.86744 1.19453
 H250 H 0.70123 0.87554 1.16747
 H251 H 0.66945 0.86854 1.20528
 N252 N 0.68441 0.82760 1.13817
 N253 N 0.67418 0.81586 1.13762
 C254 C 0.67738 0.80668 1.12517
 C255 C 0.69031 0.81292 1.11751
 C256 C 0.69438 0.82621 1.12612
 H257 H 0.67094 0.79608 1.12209
 H258 H 0.70398 0.83426 1.12389
 H259 H 0.67546 0.82368 1.16575
 H260 H 0.66109 0.83719 1.15587
 N261 N 0.14006 0.31363 1.17256
 N262 N 0.14103 0.32481 1.18319
 C263 C 0.12951 0.32262 1.19373
 C264 C 0.12093 0.30929 1.18948
 C265 C 0.12800 0.30395 1.17596
 H266 H 0.12761 0.33006 1.20381
 H267 H 0.12452 0.29389 1.16894
 Cu268 Cu 0.15743 0.34093 1.18209
 Cu269 Cu 0.15432 0.31235 1.15497
 Cu270 Cu 0.18306 0.34130 1.15225
 N271 N 0.17352 0.35728 1.18030
 N272 N 0.18346 0.35733 1.16862
 C273 C 0.19331 0.36972 1.17020
 C274 C 0.18939 0.37796 1.18361
 C275 C 0.17674 0.36967 1.18971
 H276 H 0.20273 0.37241 1.16221
 H277 H 0.17027 0.37250 1.20015
 N278 N 0.18070 0.32403 1.13687
 N279 N 0.16977 0.31300 1.13799
 C280 C 0.17117 0.30288 1.12595
 C281 C 0.18359 0.30771 1.11671
 C282 C 0.18935 0.32120 1.12404
 H283 H 0.16375 0.29265 1.12413
 H284 H 0.19907 0.32848 1.12028
 H285 H 0.17319 0.32357 1.16549
 H286 H 0.15938 0.33638 1.15420
 N287 N 0.13881 0.81597 0.67029
 N288 N 0.13749 0.82902 0.67857
 C289 C 0.12538 0.82755 0.68849
 C290 C 0.11863 0.81273 0.68632
 C291 C 0.12752 0.80573 0.67462
 H292 H 0.12181 0.83669 0.69660
 H293 H 0.12595 0.79407 0.66957
 Cu294 Cu 0.15170 0.84667 0.67578
 Cu295 Cu 0.15489 0.81362 0.65433
 Cu296 Cu 0.18397 0.84241 0.65339
 N297 N 0.16963 0.86058 0.67791
 N298 N 0.18232 0.85900 0.66934
 C299 C 0.19289 0.87006 0.67376
 C300 C 0.18645 0.87897 0.68583
 C301 C 0.17165 0.87254 0.68804
 H302 H 0.20447 0.87133 0.66873
 H303 H 0.16291 0.87616 0.69645
 N304 N 0.18310 0.82446 0.63846
 N305 N 0.17206 0.81347 0.63901
 C306 C 0.17416 0.80322 0.62719
 C307 C 0.18714 0.80789 0.61864
 C308 C 0.19254 0.82143 0.62621
 H309 H 0.16654 0.79325 0.62485
 H310 H 0.20237 0.82877 0.62288
 H311 H 0.17085 0.82743 0.66681
 H312 H 0.16042 0.83749 0.65038
 N313 N 0.36036 0.68742 0.66752
 N314 N 0.36052 0.67697 0.67882
 C315 C 0.37327 0.67964 0.68782
 C316 C 0.38153 0.69243 0.68176
 C317 C 0.37290 0.69701 0.66890
 H318 H 0.37637 0.67272 0.69792
 H319 H 0.37541 0.70673 0.66115
 Cu320 Cu 0.34390 0.66102 0.68050
 Cu321 Cu 0.34411 0.68806 0.65163
 Cu322 Cu 0.31524 0.65939 0.65356
 N323 N 0.32760 0.64462 0.68109
 N324 N 0.31657 0.64423 0.67040
 C325 C 0.30663 0.63227 0.67337
 C326 C 0.31152 0.62463 0.68670
 C327 C 0.32499 0.63275 0.69128
 H328 H 0.29658 0.62934 0.66624
 H329 H 0.33214 0.63037 0.70139
 N330 N 0.31574 0.67571 0.63736
 N331 N 0.32668 0.68675 0.63661
 C332 C 0.32362 0.69622 0.62439
 C333 C 0.31006 0.69090 0.61711
 C334 C 0.30544 0.67785 0.62569
 H335 H 0.33067 0.70634 0.62114
 H336 H 0.29536 0.67037 0.62355
 H337 H 0.32669 0.67782 0.66484
 H338 H 0.33912 0.66420 0.65279
 N339 N 0.35988 0.18766 1.16882
 N340 N 0.36054 0.17701 1.17991
 C341 C 0.37297 0.18016 1.18910
 C342 C 0.38054 0.19353 1.18349
 C343 C 0.37187 0.19794 1.17057
 H344 H 0.37638 0.17310 1.19899
 H345 H 0.37403 0.20794 1.16304
 Cu346 Cu 0.34516 0.15995 1.18121
 Cu347 Cu 0.34351 0.18747 1.15297
 Cu348 Cu 0.31593 0.15730 1.15511
 N349 N 0.32961 0.14303 1.18220
 N350 N 0.31823 0.14212 1.17192
 C351 C 0.30917 0.12948 1.17511
 C352 C 0.31513 0.12197 1.18814
 C353 C 0.32815 0.13095 1.19232
 H354 H 0.29907 0.12597 1.16831
 H355 H 0.33593 0.12891 1.20204
 N356 N 0.31554 0.17374 1.13895
 N357 N 0.32603 0.18522 1.13804
 C358 C 0.32254 0.19444 1.12575
 C359 C 0.30917 0.18850 1.11858
 C360 C 0.30512 0.17535 1.12730
 H361 H 0.32919 0.20478 1.12235
 H362 H 0.29538 0.16740 1.12524
 H363 H 0.32677 0.17609 1.16625
 H364 H 0.33941 0.16329 1.15367
 N365 N 0.85974 0.68428 1.17067
 N366 N 0.86107 0.67206 1.18003
 C367 C 0.87290 0.67466 1.19006
 C368 C 0.87947 0.68932 1.18685
 C369 C 0.87080 0.69508 1.17440
 H370 H 0.87650 0.66639 1.19896
 H371 H 0.87227 0.70636 1.16864
 Cu372 Cu 0.84732 0.65383 1.17852
 Cu373 Cu 0.84351 0.68523 1.15459
 Cu374 Cu 0.81552 0.65539 1.15561
 N375 N 0.83013 0.63897 1.18093
 N376 N 0.81770 0.63961 1.17190
 C377 C 0.80769 0.62797 1.17589
 C378 C 0.81419 0.61955 1.18812
 C379 C 0.82846 0.62693 1.19102
 H380 H 0.79646 0.62591 1.17035
 H381 H 0.83710 0.62370 1.19968
 N382 N 0.81537 0.67237 1.14002
 N383 N 0.82600 0.68376 1.13952
 C384 C 0.82270 0.69333 1.12742
 C385 C 0.80934 0.68768 1.11997
 C386 C 0.80509 0.67436 1.12833
 H387 H 0.82952 0.70365 1.12430
 H388 H 0.79537 0.66648 1.12594
 H389 H 0.82819 0.67234 1.16798
 H390 H 0.83907 0.66131 1.15243
 N391 N 0.86307 0.18560 0.67021
 N392 N 0.86248 0.17612 0.68224
 C393 C 0.87447 0.17965 0.69191
 C394 C 0.88304 0.19206 0.68559
 C395 C 0.87538 0.19549 0.67178
 H396 H 0.87673 0.17361 0.70273
 H397 H 0.87851 0.20444 0.66339
 Cu398 Cu 0.84619 0.15998 0.68374
 Cu399 Cu 0.84778 0.18460 0.65341
 Cu400 Cu 0.81794 0.15667 0.65659
 N401 N 0.82988 0.14389 0.68525
 N402 N 0.81881 0.14265 0.67468
 C403 C 0.80953 0.13020 0.67817
 C404 C 0.81512 0.12320 0.69167
 C405 C 0.82804 0.13229 0.69582
 H406 H 0.79978 0.12624 0.67110
 H407 H 0.83564 0.13052 0.70572
 N408 N 0.81937 0.17189 0.63914
 N409 N 0.83121 0.18190 0.63767
 C410 C 0.82957 0.18992 0.62429
 C411 C 0.81598 0.18491 0.61703
 C412 C 0.80971 0.17353 0.62679
 H413 H 0.83754 0.19896 0.62017
 H414 H 0.79912 0.16671 0.62481
 H415 H 0.82957 0.17563 0.66658
 H416 H 0.84184 0.16087 0.65581
 N417 N 0.31371 0.35866 0.67116
 N418 N 0.32611 0.36094 0.67997
 C419 C 0.32342 0.37332 0.68952
 C420 C 0.30847 0.37915 0.68654
 C421 C 0.30266 0.36952 0.67479
 H422 H 0.33171 0.37763 0.69808
 H423 H 0.29137 0.37050 0.66909
 Cu424 Cu 0.34461 0.34761 0.67820
 Cu425 Cu 0.31309 0.34209 0.65538
 Cu426 Cu 0.34356 0.31471 0.65578
 N427 N 0.35959 0.33049 0.68078
 N428 N 0.35930 0.31768 0.67203
 C429 C 0.37097 0.30786 0.67651
 C430 C 0.37893 0.31488 0.68881
 C431 C 0.37134 0.32926 0.69115
 H432 H 0.37331 0.29637 0.67135
 H433 H 0.37412 0.33824 0.69971
 N434 N 0.32634 0.31409 0.64040
 N435 N 0.31472 0.32451 0.64037
 C436 C 0.30499 0.32124 0.62848
 C437 C 0.31068 0.30807 0.62058
 C438 C 0.32427 0.30387 0.62851
 H439 H 0.29470 0.32818 0.62562
 H440 H 0.33211 0.29413 0.62582
 H441 H 0.32717 0.32713 0.66852
 H442 H 0.33713 0.33818 0.65246
 N443 N 0.31727 0.85736 0.17292
 N444 N 0.32862 0.85726 0.18328
 C445 C 0.32628 0.86924 0.19341
 C446 C 0.31273 0.87735 0.18919
 C447 C 0.30733 0.86940 0.17610
 H448 H 0.33409 0.87206 0.20292
 H449 H 0.29706 0.87224 0.16924
 Cu450 Cu 0.34566 0.84188 0.18208
 Cu451 Cu 0.31653 0.84223 0.15574
 Cu452 Cu 0.34730 0.81515 0.15317
 N453 N 0.36255 0.82633 0.18090
 N454 N 0.36340 0.81629 0.16921
 C455 C 0.37631 0.80719 0.17083
 C456 C 0.38391 0.81165 0.18435
 C457 C 0.37484 0.82381 0.19048
 H458 H 0.37975 0.79780 0.16292
 H459 H 0.37715 0.83043 0.20101
 N460 N 0.32983 0.81585 0.13820
 N461 N 0.31800 0.82598 0.13924
 C462 C 0.30781 0.82309 0.12758
 C463 C 0.31347 0.81049 0.11879
 C464 C 0.32748 0.80627 0.12589
 H465 H 0.29697 0.82955 0.12577
 H466 H 0.33542 0.79689 0.12240
 H467 H 0.32921 0.82433 0.16651
 H468 H 0.34053 0.83867 0.15441
 N469 N 0.81504 0.35702 0.16870
 N470 N 0.82508 0.35788 0.18024
 C471 C 0.82141 0.37048 0.18921
 C472 C 0.80832 0.37795 0.18297
 C473 C 0.80460 0.36902 0.16992
 H474 H 0.82772 0.37380 0.19960
 H475 H 0.79508 0.37107 0.16184
 Cu476 Cu 0.84184 0.34236 0.18256
 Cu477 Cu 0.81613 0.34029 0.15307
 Cu478 Cu 0.84621 0.31254 0.15686
 N479 N 0.85879 0.32699 0.18443
 N480 N 0.86048 0.31529 0.17446
 C481 C 0.87304 0.30645 0.17860
 C482 C 0.87961 0.31302 0.19193
 C483 C 0.87019 0.32606 0.19521
 H484 H 0.87704 0.29605 0.17235
 H485 H 0.87154 0.33435 0.20470
 N486 N 0.83055 0.31190 0.13989
 N487 N 0.81918 0.32249 0.13847
 C488 C 0.81042 0.31883 0.12594
 C489 C 0.81650 0.30525 0.11905
 C490 C 0.82930 0.30121 0.12827
 H491 H 0.80032 0.32559 0.12218
 H492 H 0.83708 0.29118 0.12672
 H493 H 0.82697 0.32346 0.16690
 H494 H 0.84011 0.33622 0.15492
 N495 N 0.81589 0.85906 0.67043
 N496 N 0.82670 0.86013 0.68129
 C497 C 0.82365 0.87297 0.69018
 C498 C 0.81021 0.88036 0.68454
 C499 C 0.80564 0.87114 0.67201
 H500 H 0.83079 0.87677 0.69989
 H501 H 0.79553 0.87297 0.66460
 Cu502 Cu 0.84380 0.84470 0.68255
 Cu503 Cu 0.81578 0.84224 0.65494
 Cu504 Cu 0.84537 0.81410 0.65735
 N505 N 0.86008 0.82839 0.68397
 N506 N 0.86052 0.81653 0.67404
 C507 C 0.87276 0.80703 0.67743
 C508 C 0.88055 0.81322 0.69020
 C509 C 0.87211 0.82682 0.69407
 H510 H 0.87565 0.79634 0.67107
 H511 H 0.87462 0.83502 0.70342
 N512 N 0.82898 0.81363 0.64125
 N513 N 0.81767 0.82433 0.64033
 C514 C 0.80839 0.82080 0.62812
 C515 C 0.81413 0.80719 0.62099
 C516 C 0.82721 0.80302 0.62968
 H517 H 0.79820 0.82764 0.62472
 H518 H 0.83500 0.79308 0.62765
 H519 H 0.82723 0.82581 0.66866
 H520 H 0.83967 0.83791 0.65530
 N521 N 0.68595 0.63955 0.67311
 N522 N 0.67552 0.63931 0.68435
 C523 C 0.67875 0.62703 0.69384
 C524 C 0.69198 0.61918 0.68827
 C525 C 0.69618 0.62751 0.67507
 H526 H 0.67207 0.62412 0.70410
 H527 H 0.70586 0.62495 0.66733
 Cu528 Cu 0.65881 0.65515 0.68549
 Cu529 Cu 0.68557 0.65540 0.65671
 Cu530 Cu 0.65549 0.68319 0.65790
 N531 N 0.64179 0.67070 0.68580
 N532 N 0.64058 0.68158 0.67497
 C533 C 0.62795 0.69075 0.67791
 C534 C 0.62076 0.68538 0.69134
 C535 C 0.62992 0.67259 0.69600
 H536 H 0.62425 0.70053 0.67068
 H537 H 0.62816 0.66527 0.70612
 N538 N 0.67172 0.68289 0.64157
 N539 N 0.68321 0.67234 0.64115
 C540 C 0.69242 0.67534 0.62879
 C541 C 0.68649 0.68843 0.62100
 C542 C 0.67332 0.69286 0.62948
 H543 H 0.70276 0.66851 0.62578
 H544 H 0.66544 0.70262 0.62707
 H545 H 0.67432 0.67300 0.66932
 H546 H 0.66158 0.65942 0.65765
 N547 N 0.68252 0.14149 0.17291
 N548 N 0.67150 0.14218 0.18357
 C549 C 0.67366 0.13024 0.19370
 C550 C 0.68675 0.12150 0.18918
 C551 C 0.69205 0.12906 0.17588
 H552 H 0.66621 0.12809 0.20361
 H553 H 0.70208 0.12582 0.16884
 Cu554 Cu 0.65531 0.15856 0.18329
 Cu555 Cu 0.68372 0.15682 0.15603
 Cu556 Cu 0.65551 0.18661 0.15567
 N557 N 0.63978 0.17561 0.18310
 N558 N 0.63996 0.18652 0.17224
 C559 C 0.62811 0.19683 0.17474
 C560 C 0.62000 0.19222 0.18793
 C561 C 0.62779 0.17865 0.19291
 H562 H 0.62555 0.20686 0.16737
 H563 H 0.62501 0.17157 0.20297
 N564 N 0.67217 0.18478 0.13987
 N565 N 0.68293 0.17347 0.13994
 C566 C 0.69250 0.17547 0.12762
 C567 C 0.68754 0.18870 0.11937
 C568 C 0.67460 0.19425 0.12756
 H569 H 0.70231 0.16779 0.12484
 H570 H 0.66740 0.20443 0.12479
 H571 H 0.67304 0.17515 0.16817
 H572 H 0.66013 0.16249 0.15568
 N573 N 0.18336 0.64065 0.17386
 N574 N 0.17282 0.64017 0.18500
 C575 C 0.17596 0.62772 0.19429
 C576 C 0.18922 0.61993 0.18871
 C577 C 0.19356 0.62854 0.17570
 H578 H 0.16913 0.62462 0.20440
 H579 H 0.20332 0.62615 0.16801
 Cu580 Cu 0.15596 0.65582 0.18630
 Cu581 Cu 0.18308 0.65688 0.15774
 Cu582 Cu 0.15273 0.68434 0.15934
 N583 N 0.13881 0.67121 0.18681
 N584 N 0.13768 0.68228 0.17617
 C585 C 0.12504 0.69141 0.17915
 C586 C 0.11777 0.68582 0.19242
 C587 C 0.12684 0.67293 0.19695
 H588 H 0.12138 0.70132 0.17206
 H589 H 0.12498 0.66548 0.20697
 N590 N 0.16904 0.68460 0.14319
 N591 N 0.18069 0.67424 0.14253
 C592 C 0.18993 0.67781 0.13030
 C593 C 0.18380 0.69108 0.12291
 C594 C 0.17053 0.69497 0.13146
 H595 H 0.20042 0.67129 0.12711
 H596 H 0.16247 0.70464 0.12929
 H597 H 0.17165 0.67398 0.17067
 H598 H 0.15913 0.66056 0.15858
 N599 N 0.18780 0.13743 0.67232
 N600 N 0.17739 0.13686 0.68355
 C601 C 0.18056 0.12424 0.69261
 C602 C 0.19371 0.11646 0.68674
 C603 C 0.19794 0.12526 0.67384
 H604 H 0.17374 0.12094 0.70267
 H605 H 0.20770 0.12306 0.66609
 Cu606 Cu 0.16073 0.15272 0.68512
 Cu607 Cu 0.18750 0.15381 0.65651
 Cu608 Cu 0.15769 0.18189 0.65855
 N609 N 0.14380 0.16830 0.68587
 N610 N 0.14269 0.17969 0.67555
 C611 C 0.13000 0.18872 0.67882
 C612 C 0.12271 0.18265 0.69191
 C613 C 0.13185 0.16968 0.69604
 H614 H 0.12630 0.19884 0.67204
 H615 H 0.13002 0.16187 0.70580
 N616 N 0.17404 0.18201 0.64226
 N617 N 0.18532 0.17124 0.64154
 C618 C 0.19456 0.17433 0.62927
 C619 C 0.18893 0.18772 0.62180
 C620 C 0.17585 0.19226 0.63040
 H621 H 0.20460 0.16720 0.62595
 H622 H 0.16825 0.20231 0.62824
 H623 H 0.17634 0.17111 0.66967
 H624 H 0.16349 0.15810 0.65748
 N625 N 0.31612 0.64081 0.32490
 N626 N 0.32669 0.64154 0.31381
 C627 C 0.32461 0.62930 0.30397
 C628 C 0.31209 0.62025 0.30910
 C629 C 0.30693 0.62800 0.32246
 H630 H 0.33179 0.62709 0.29385
 H631 H 0.29743 0.62445 0.33000
 Cu632 Cu 0.34275 0.65786 0.31351
 Cu633 Cu 0.31545 0.65648 0.34177
 Cu634 Cu 0.34464 0.68532 0.34160
 N635 N 0.35879 0.67425 0.31335
 N636 N 0.35984 0.68462 0.32473
 C637 C 0.37219 0.69421 0.32215
 C638 C 0.37920 0.68969 0.30832
 C639 C 0.37037 0.67699 0.30304
 H640 H 0.37564 0.70396 0.32961
 H641 H 0.37241 0.67014 0.29260
 N642 N 0.32819 0.68424 0.35763
 N643 N 0.31694 0.67346 0.35775
 C644 C 0.30726 0.67648 0.36985
 C645 C 0.31268 0.68987 0.37764
 C646 C 0.32601 0.69435 0.36955
 H647 H 0.29688 0.66965 0.37258
 H648 H 0.33357 0.70432 0.37207
 H649 H 0.32613 0.67462 0.32976
 H650 H 0.33913 0.66130 0.34141
 N651 N 0.31712 0.13945 0.82626
 N652 N 0.32981 0.13784 0.81769
 C653 C 0.32758 0.12600 0.80741
 C654 C 0.31270 0.11977 0.80965
 C655 C 0.30640 0.12858 0.82176
 H656 H 0.33632 0.12205 0.79913
 H657 H 0.29489 0.12719 0.82691
 Cu658 Cu 0.34840 0.15098 0.82054
 Cu659 Cu 0.31569 0.15530 0.84274
 Cu660 Cu 0.34443 0.18392 0.84257
 N661 N 0.36196 0.16937 0.81792
 N662 N 0.36017 0.18233 0.82627
 C663 C 0.37103 0.19306 0.82198
 C664 C 0.38021 0.18649 0.81031
 C665 C 0.37406 0.17139 0.80806
 H666 H 0.37218 0.20476 0.82705
 H667 H 0.37815 0.16241 0.80003
 N668 N 0.32763 0.18341 0.85821
 N669 N 0.31660 0.17242 0.85840
 C670 C 0.30693 0.17521 0.87051
 C671 C 0.31211 0.18868 0.87830
 C672 C 0.32530 0.19348 0.87015
 H673 H 0.29681 0.16805 0.87335
 H674 H 0.33280 0.20347 0.87279
 H675 H 0.32896 0.17028 0.82896
 H676 H 0.33908 0.16010 0.84562
 N677 N 0.81928 0.63889 0.82772
 N678 N 0.82863 0.64076 0.81572
 C679 C 0.82628 0.62886 0.80555
 C680 C 0.81491 0.61881 0.81147
 C681 C 0.81072 0.62558 0.82561
 H682 H 0.83239 0.62764 0.79462
 H683 H 0.80232 0.62104 0.83389
 Cu684 Cu 0.84354 0.65811 0.81468
 Cu685 Cu 0.81954 0.65375 0.84527
 Cu686 Cu 0.83857 0.68943 0.83789
 N687 N 0.85915 0.67488 0.81577
 N688 N 0.85708 0.68727 0.82484
 C689 C 0.86916 0.69739 0.82301
 C690 C 0.87943 0.69096 0.81219
 C691 C 0.87267 0.67664 0.80786
 H692 H 0.87021 0.70867 0.82896
 H693 H 0.87724 0.66811 0.79959
 N694 N 0.82415 0.68643 0.85539
 N695 N 0.81734 0.67279 0.85870
 C696 C 0.80935 0.67446 0.87214
 C697 C 0.81136 0.68989 0.87755
 C698 C 0.82074 0.69709 0.86652
 H699 H 0.80292 0.66504 0.87776
 H700 H 0.82510 0.70913 0.86668
 H701 H 0.82327 0.67146 0.83006
 H702 H 0.84077 0.66573 0.84187
 N703 N 0.81818 0.13910 0.32597
 N704 N 0.82981 0.13977 0.31598
 C705 C 0.82814 0.12804 0.30547
 C706 C 0.81471 0.11949 0.30903
 C707 C 0.80870 0.12689 0.32218
 H708 H 0.83615 0.12586 0.29597
 H709 H 0.79816 0.12376 0.32845
 Cu710 Cu 0.84570 0.15620 0.31763
 Cu711 Cu 0.81621 0.15427 0.34305
 Cu712 Cu 0.84453 0.18407 0.34545
 N713 N 0.86135 0.17288 0.31855
 N714 N 0.86089 0.18389 0.32940
 C715 C 0.87290 0.19407 0.32715
 C716 C 0.88133 0.18918 0.31415
 C717 C 0.87357 0.17567 0.30907
 H718 H 0.87523 0.20430 0.33442
 H719 H 0.87653 0.16838 0.29917
 N720 N 0.82697 0.18200 0.36045
 N721 N 0.81629 0.17068 0.35944
 C722 C 0.80603 0.17229 0.37122
 C723 C 0.81036 0.18524 0.38021
 C724 C 0.82374 0.19110 0.37298
 H725 H 0.79617 0.16449 0.37311
 H726 H 0.83068 0.20119 0.37660
 H727 H 0.82758 0.17296 0.33221
 H728 H 0.83980 0.16011 0.34503
 N729 N 0.68627 0.35853 0.32881
 N730 N 0.67508 0.35908 0.31833
 C731 C 0.67794 0.37121 0.30859
 C732 C 0.69169 0.37870 0.31322
 C733 C 0.69662 0.37026 0.32614
 H734 H 0.67049 0.37436 0.29891
 H735 H 0.70687 0.37251 0.33321
 Cu736 Cu 0.65781 0.34401 0.31860
 Cu737 Cu 0.68639 0.34290 0.34532
 Cu738 Cu 0.65588 0.31555 0.34606
 N739 N 0.64105 0.32840 0.31880
 N740 N 0.64018 0.31731 0.32946
 C741 C 0.62739 0.30827 0.32663
 C742 C 0.61984 0.31403 0.31347
 C743 C 0.62895 0.32679 0.30887
 H744 H 0.62388 0.29829 0.33367
 H745 H 0.62701 0.33433 0.29895
 N746 N 0.67303 0.31591 0.36170
 N747 N 0.68462 0.32630 0.36116
 C748 C 0.69443 0.32377 0.37313
 C749 C 0.68885 0.31122 0.38184
 C750 C 0.67523 0.30647 0.37418
 H751 H 0.70491 0.33063 0.37530
 H752 H 0.66742 0.29697 0.37752
 H753 H 0.67385 0.32546 0.33347
 H754 H 0.66222 0.33911 0.34617
 N755 N 0.68554 0.85939 0.82920
 N756 N 0.67477 0.86014 0.81827
 C757 C 0.67775 0.87284 0.80922
 C758 C 0.69110 0.88046 0.81483
 C759 C 0.69567 0.87149 0.82751
 H760 H 0.67064 0.87637 0.79941
 H761 H 0.70571 0.87352 0.83496
 Cu762 Cu 0.65785 0.84444 0.81715
 Cu763 Cu 0.68579 0.84297 0.84504
 Cu764 Cu 0.65659 0.81460 0.84300
 N765 N 0.64177 0.82784 0.81590
 N766 N 0.64150 0.81636 0.82618
 C767 C 0.62952 0.80653 0.82301
 C768 C 0.62168 0.81196 0.80997
 C769 C 0.62983 0.82561 0.80576
 H770 H 0.62672 0.79620 0.82985
 H771 H 0.62729 0.83331 0.79606
 N772 N 0.67285 0.81465 0.85922
 N773 N 0.68406 0.82541 0.86004
 C774 C 0.69333 0.82216 0.87233
 C775 C 0.68769 0.80864 0.87963
 C776 C 0.67467 0.80428 0.87093
 H777 H 0.70345 0.82911 0.87569
 H778 H 0.66698 0.79432 0.87298
 H779 H 0.67465 0.82615 0.83155
 H780 H 0.66199 0.83853 0.84459
 N781 N 0.19114 0.35829 0.82379
 N782 N 0.17919 0.36005 0.81427
 C783 C 0.18174 0.37286 0.80530
 C784 C 0.19614 0.37941 0.80935
 C785 C 0.20175 0.36978 0.82114
 H786 H 0.17386 0.37694 0.79630
 H787 H 0.21266 0.37107 0.82747
 Cu788 Cu 0.16183 0.34500 0.81422
 Cu789 Cu 0.19228 0.34108 0.83866
 Cu790 Cu 0.15862 0.31833 0.84321
 N791 N 0.14415 0.33046 0.81545
 N792 N 0.14290 0.32011 0.82678
 C793 C 0.12976 0.31146 0.82463
 C794 C 0.12232 0.31670 0.81125
 C795 C 0.13182 0.32879 0.80578
 H796 H 0.12594 0.30205 0.83223
 H797 H 0.13004 0.33565 0.79535
 N798 N 0.17616 0.31822 0.85827
 N799 N 0.18901 0.32673 0.85628
 C800 C 0.19879 0.32432 0.86832
 C801 C 0.19187 0.31368 0.87841
 C802 C 0.17752 0.31001 0.87162
 H803 H 0.21014 0.32992 0.86961
 H804 H 0.16865 0.30212 0.87617
 H805 H 0.17627 0.32485 0.82889
 H806 H 0.16804 0.34103 0.84142
 N807 N 0.18306 0.86058 0.32322
 N808 N 0.17177 0.85935 0.31288
 C809 C 0.17357 0.87079 0.30216
 C810 C 0.18672 0.87973 0.30595
 C811 C 0.19243 0.87284 0.31944
 H812 H 0.16576 0.87256 0.29243
 H813 H 0.20260 0.87645 0.32609
 Cu814 Cu 0.15571 0.84305 0.31448
 Cu815 Cu 0.18460 0.84628 0.34089
 Cu816 Cu 0.15573 0.81737 0.34428
 N817 N 0.13948 0.82699 0.31661
 N818 N 0.13950 0.81696 0.32826
 C819 C 0.12704 0.80719 0.32685
 C820 C 0.11872 0.81133 0.31360
 C821 C 0.12702 0.82396 0.30743
 H822 H 0.12420 0.79786 0.33496
 H823 H 0.12431 0.83040 0.29694
 N824 N 0.17317 0.81976 0.35926
 N825 N 0.18413 0.83075 0.35793
 C826 C 0.19431 0.82935 0.36982
 C827 C 0.18960 0.81687 0.37915
 C828 C 0.17613 0.81108 0.37204
 H829 H 0.20450 0.83681 0.37147
 H830 H 0.16892 0.80132 0.37593
 H831 H 0.17316 0.82717 0.33073
 H832 H 0.16078 0.84124 0.34227
 C833 C 0.24265 1.00066 0.24955
 C834 C 0.25327 1.00064 0.23773
 C835 C 0.25962 1.01563 0.23125
 C836 C 0.25894 0.98563 0.23058
 C837 C 0.23763 0.98574 0.25725
 C838 C 0.23541 1.01560 0.25537
 C839 C 0.25844 1.01854 0.21527
 C840 C 0.26418 1.03266 0.20903
 C841 C 0.27134 1.04410 0.21863
 C842 C 0.27281 1.04101 0.23459
 C843 C 0.26703 1.02688 0.24084
 C844 C 0.24831 0.97458 0.22432
 C845 C 0.25381 0.96049 0.21760
 C846 C 0.27003 0.95725 0.21697
 C847 C 0.28063 0.96845 0.22305
 C848 C 0.27514 0.98254 0.22971
 C849 C 0.24871 0.97529 0.26373
 C850 C 0.24378 0.96143 0.27116
 C851 C 0.22767 0.95784 0.27230
 C852 C 0.21662 0.96842 0.26593
 C853 C 0.22156 0.98226 0.25853
 C854 C 0.23624 1.01933 0.27122
 C855 C 0.22929 1.03320 0.27692
 C856 C 0.22124 1.04355 0.26688
 C857 C 0.22026 1.03969 0.25102
 C858 C 0.22726 1.02581 0.24532
 H859 H 0.25292 1.00993 0.20766
 H860 H 0.26316 1.03458 0.19665
 H861 H 0.27825 1.04961 0.24226
 H862 H 0.26831 1.02471 0.25316
 H863 H 0.23577 0.97689 0.22464
 H864 H 0.24538 0.95202 0.21307
 H865 H 0.28352 0.99101 0.23433
 H866 H 0.26116 0.97792 0.26309
 H867 H 0.25256 0.95346 0.27588
 H868 H 0.20413 0.96612 0.26688
 H869 H 0.21282 0.99025 0.25374
 H870 H 0.24235 1.01150 0.27917
 H871 H 0.23001 1.03573 0.28923
 H872 H 0.21420 1.04748 0.24301
 H873 H 0.22625 1.02298 0.23308
 H874 H 0.29320 0.96638 0.22250
 C875 C 0.24652 0.50298 0.75338
 C876 C 0.25899 0.50286 0.74363
 C877 C 0.26662 0.51771 0.73846
 C878 C 0.26588 0.48777 0.73817
 C879 C 0.23942 0.48805 0.75893
 C880 C 0.23893 0.51796 0.75828
 C881 C 0.26633 0.52190 0.72274
 C882 C 0.27367 0.53579 0.71776
 C883 C 0.28159 0.54565 0.72839
 C884 C 0.28201 0.54134 0.74413
 C885 C 0.27453 0.52748 0.74913
 C886 C 0.26065 0.48083 0.72431
 C887 C 0.26745 0.46673 0.71895
 C888 C 0.27951 0.45929 0.72746
 C889 C 0.28446 0.46617 0.74155
 C890 C 0.27772 0.48034 0.74682
 C891 C 0.24379 0.48174 0.77331
 C892 C 0.23674 0.46787 0.77875
 C893 C 0.22527 0.45998 0.76981
 C894 C 0.22112 0.46628 0.75526
 C895 C 0.22812 0.48022 0.74989
 C896 C 0.24025 0.52318 0.77367
 C897 C 0.23297 0.53727 0.77836
 C898 C 0.22411 0.54627 0.76776
 C899 C 0.22272 0.54093 0.75235
 C900 C 0.23015 0.52689 0.74763
 H901 H 0.26031 0.51450 0.71434
 H902 H 0.27332 0.53875 0.70554
 H903 H 0.28795 0.54878 0.75256
 H904 H 0.27496 0.52433 0.76129
 H905 H 0.25140 0.48641 0.71759
 H906 H 0.26349 0.46185 0.70799
 H907 H 0.28173 0.48554 0.75764
 H908 H 0.25259 0.48762 0.78036
 H909 H 0.24007 0.46348 0.79008
 H910 H 0.21253 0.46038 0.74798
 H911 H 0.22472 0.48493 0.73870
 H912 H 0.24701 0.51643 0.78201
 H913 H 0.23408 0.54102 0.79034
 H914 H 0.21603 0.54769 0.74395
 H915 H 0.22899 0.52293 0.73571
 H916 H 0.29351 0.46058 0.74851
 C917 C 0.74768 -0.00036 0.23955
 C918 C 0.75860 -0.00086 0.25104
 C919 C 0.76512 -0.01620 0.25642
 C920 C 0.76386 0.01366 0.25934
 C921 C 0.74190 0.01483 0.23287
 C922 C 0.74152 -0.01518 0.23265
 C923 C 0.75718 -0.02499 0.26772
 C924 C 0.76360 -0.03918 0.27325
 C925 C 0.77827 -0.04470 0.26780
 C926 C 0.78601 -0.03591 0.25622
 C927 C 0.77940 -0.02190 0.25047
 C928 C 0.75289 0.02369 0.26666
 C929 C 0.75789 0.03733 0.27453
 C930 C 0.77396 0.04115 0.27524
 C931 C 0.78492 0.03098 0.26807
 C932 C 0.77992 0.01736 0.26024
 C933 C 0.75250 0.02616 0.22715
 C934 C 0.74697 0.04027 0.22055
 C935 C 0.73072 0.04326 0.21944
 C936 C 0.72015 0.03183 0.22508
 C937 C 0.72568 0.01776 0.23169
 C938 C 0.74897 -0.02197 0.21975
 C939 C 0.74289 -0.03571 0.21290
 C940 C 0.72909 -0.04276 0.21872
 C941 C 0.72181 -0.03596 0.23183
 C942 C 0.72805 -0.02235 0.23880
 H943 H 0.74603 -0.02080 0.27227
 H944 H 0.75704 -0.04579 0.28182
 H945 H 0.79738 -0.03960 0.25184
 H946 H 0.78556 -0.01534 0.24156
 H947 H 0.74045 0.02094 0.26627
 H948 H 0.74918 0.04498 0.27989
 H949 H 0.78863 0.00984 0.25474
 H950 H 0.76506 0.02403 0.22767
 H951 H 0.75541 0.04888 0.21641
 H952 H 0.70757 0.03365 0.22416
 H953 H 0.71725 0.00920 0.23592
 H954 H 0.75948 -0.01660 0.21500
 H955 H 0.74900 -0.04081 0.20305
 H956 H 0.71108 -0.04090 0.23652
 H957 H 0.72224 -0.01724 0.24883
 H958 H 0.79740 0.03349 0.26864
 C959 C 0.74555 0.49736 0.74582
 C960 C 0.75631 0.49746 0.75756
 C961 C 0.76355 0.48257 0.76348
 C962 C 0.76161 0.51248 0.76499
 C963 C 0.73767 0.51213 0.74042
 C964 C 0.74095 0.48244 0.73778
 C965 C 0.75426 0.47007 0.76907
 C966 C 0.76131 0.45616 0.77459
 C967 C 0.77780 0.45455 0.77474
 C968 C 0.78704 0.46721 0.76934
 C969 C 0.77999 0.48108 0.76382
 C970 C 0.76041 0.51432 0.78114
 C971 C 0.76552 0.52829 0.78834
 C972 C 0.77208 0.54064 0.77954
 C973 C 0.77333 0.53872 0.76335
 C974 C 0.76821 0.52475 0.75616
 C975 C 0.73817 0.51613 0.72464
 C976 C 0.73081 0.52992 0.71932
 C977 C 0.72270 0.53997 0.72966
 C978 C 0.72200 0.53581 0.74544
 C979 C 0.72936 0.52198 0.75076
 C980 C 0.75214 0.47290 0.73016
 C981 C 0.74751 0.45891 0.72263
 C982 C 0.73163 0.45426 0.72260
 C983 C 0.72047 0.46399 0.73004
 C984 C 0.72508 0.47797 0.73749
 H985 H 0.74155 0.47109 0.76917
 H986 H 0.75387 0.44659 0.77859
 H987 H 0.79976 0.46646 0.76956
 H988 H 0.78737 0.49065 0.75970
 H989 H 0.75545 0.50494 0.78816
 H990 H 0.76459 0.52933 0.80084
 H991 H 0.76944 0.52347 0.74370
 H992 H 0.74437 0.50860 0.71644
 H993 H 0.73132 0.53262 0.70705
 H994 H 0.71592 0.54335 0.75371
 H995 H 0.72857 0.51894 0.76294
 H996 H 0.76442 0.47629 0.73007
 H997 H 0.75636 0.45161 0.71702
 H998 H 0.70811 0.46086 0.72997
 H999 H 0.71626 0.48525 0.74318
 H1000 H 0.77818 0.54808 0.75623
 C1001 C 0.24087 0.49779 0.24743
 C1002 C 0.25289 0.49789 0.25790
 C1003 C 0.26050 0.48301 0.26326
 C1004 C 0.25885 0.51288 0.26482
 C1005 C 0.23331 0.51268 0.24195
 C1006 C 0.23445 0.48277 0.24098
 C1007 C 0.25188 0.47129 0.27104
 C1008 C 0.25932 0.45743 0.27617
 C1009 C 0.27553 0.45509 0.27366
 C1010 C 0.28411 0.46688 0.26590
 C1011 C 0.27668 0.48076 0.26084
 C1012 C 0.25814 0.51505 0.28096
 C1013 C 0.26329 0.52921 0.28772
 C1014 C 0.26942 0.54144 0.27847
 C1015 C 0.27032 0.53916 0.26230
 C1016 C 0.26512 0.52498 0.25554
 C1017 C 0.23308 0.51604 0.22603
 C1018 C 0.22610 0.52997 0.22058
 C1019 C 0.21912 0.54082 0.23095
 C1020 C 0.21917 0.53732 0.24691
 C1021 C 0.22615 0.52334 0.25236
 C1022 C 0.24394 0.47210 0.23260
 C1023 C 0.23758 0.45800 0.22670
 C1024 C 0.22161 0.45436 0.22905
 C1025 C 0.21212 0.46520 0.23726
 C1026 C 0.21847 0.47928 0.24309
 H1027 H 0.23943 0.47291 0.27319
 H1028 H 0.25239 0.44850 0.28203
 H1029 H 0.29663 0.46551 0.26400
 H1030 H 0.28353 0.48974 0.25495
 H1031 H 0.25338 0.50582 0.28831
 H1032 H 0.26265 0.53054 0.30021
 H1033 H 0.26588 0.52346 0.24307
 H1034 H 0.23843 0.50789 0.21781
 H1035 H 0.22600 0.53217 0.20820
 H1036 H 0.21398 0.54548 0.25520
 H1037 H 0.22599 0.52084 0.26468
 H1038 H 0.25625 0.47471 0.23064
 H1039 H 0.24518 0.44985 0.22046
 H1040 H 0.19973 0.46287 0.23902
 H1041 H 0.21093 0.48745 0.24940
 H1042 H 0.27488 0.54842 0.25487
 C1043 C 0.74542 1.00114 0.75575
 C1044 C 0.75664 1.00135 0.74447
 C1045 C 0.76264 1.01640 0.73779
 C1046 C 0.76351 0.98649 0.73815
 C1047 C 0.73847 0.98610 0.76149
 C1048 C 0.73941 1.01595 0.76298
 C1049 C 0.76081 1.01915 0.72185
 C1050 C 0.76599 1.03334 0.71526
 C1051 C 0.77324 1.04504 0.72447
 C1052 C 0.77537 1.04212 0.74041
 C1053 C 0.77015 1.02790 0.74701
 C1054 C 0.75420 0.97517 0.73048
 C1055 C 0.76093 0.96104 0.72504
 C1056 C 0.77709 0.95805 0.72714
 C1057 C 0.78639 0.96958 0.73457
 C1058 C 0.77967 0.98369 0.73995
 C1059 C 0.74771 0.97445 0.76877
 C1060 C 0.74082 0.96036 0.77400
 C1061 C 0.72458 0.95771 0.77209
 C1062 C 0.71539 0.96950 0.76495
 C1063 C 0.72226 0.98358 0.75979
 C1064 C 0.74125 1.01820 0.77901
 C1065 C 0.73589 1.03210 0.78613
 C1066 C 0.72844 1.04398 0.77737
 C1067 C 0.72642 1.04162 0.76131
 C1068 C 0.73181 1.02768 0.75418
 H1069 H 0.75519 1.01036 0.71452
 H1070 H 0.76445 1.03508 0.70291
 H1071 H 0.78086 1.05093 0.74782
 H1072 H 0.77188 1.02588 0.75930
 H1073 H 0.74173 0.97725 0.72881
 H1074 H 0.75347 0.95234 0.71941
 H1075 H 0.78704 0.99237 0.74574
 H1076 H 0.76021 0.97628 0.77038
 H1077 H 0.74822 0.95146 0.77939
 H1078 H 0.70283 0.96794 0.76355
 H1079 H 0.71493 0.99250 0.75433
 H1080 H 0.74698 1.00920 0.78600
 H1081 H 0.73735 1.03345 0.79855
 H1082 H 0.72079 1.05060 0.75424
 H1083 H 0.73009 1.02604 0.74182
 H1084 H 0.79891 0.96773 0.73610
 C1085 C 0.74092 0.49938 0.25078
 C1086 C 0.75269 0.49935 0.24007
 C1087 C 0.75858 0.51427 0.23305
 C1088 C 0.76027 0.48440 0.23473
 C1089 C 0.73392 0.48444 0.25667
 C1090 C 0.73438 0.51439 0.25716
 C1091 C 0.74828 0.52486 0.22561
 C1092 C 0.75403 0.53870 0.21879
 C1093 C 0.77022 0.54212 0.21911
 C1094 C 0.78051 0.53141 0.22645
 C1095 C 0.77474 0.51761 0.23331
 C1096 C 0.76113 0.48103 0.21880
 C1097 C 0.76846 0.46717 0.21355
 C1098 C 0.77516 0.45645 0.22414
 C1099 C 0.77440 0.45990 0.24011
 C1100 C 0.76708 0.47380 0.24535
 C1101 C 0.73313 0.48183 0.27271
 C1102 C 0.72646 0.46793 0.27849
 C1103 C 0.72036 0.45639 0.26831
 C1104 C 0.72096 0.45912 0.25223
 C1105 C 0.72763 0.47306 0.24647
 C1106 C 0.74410 0.52551 0.26461
 C1107 C 0.73773 0.53955 0.27064
 C1108 C 0.72152 0.54267 0.26934
 C1109 C 0.71181 0.53141 0.26203
 C1110 C 0.71818 0.51736 0.25607
 H1111 H 0.73580 0.52234 0.22501
 H1112 H 0.74580 0.54677 0.21332
 H1113 H 0.79306 0.53355 0.22663
 H1114 H 0.78290 0.50951 0.23885
 H1115 H 0.75610 0.48915 0.21042
 H1116 H 0.76909 0.46496 0.20118
 H1117 H 0.76678 0.47633 0.25768
 H1118 H 0.73777 0.49055 0.28077
 H1119 H 0.72588 0.46630 0.29093
 H1120 H 0.71641 0.45042 0.24412
 H1121 H 0.72786 0.47501 0.23405
 H1122 H 0.75661 0.52330 0.26577
 H1123 H 0.74549 0.54805 0.27617
 H1124 H 0.69925 0.53338 0.26110
 H1125 H 0.71048 0.50884 0.25049
 H1126 H 0.77935 0.45179 0.24854
 C1127 C 0.24832 -0.00427 0.74554
 C1128 C 0.25939 -0.00424 0.75702
 C1129 C 0.26730 -0.01905 0.76227
 C1130 C 0.26409 0.01068 0.76504
 C1131 C 0.24094 0.01069 0.74001
 C1132 C 0.24299 -0.01913 0.73779
 C1133 C 0.26729 -0.02286 0.77810
 C1134 C 0.27434 -0.03685 0.78329
 C1135 C 0.28157 -0.04738 0.77276
 C1136 C 0.28189 -0.04337 0.75692
 C1137 C 0.27493 -0.02927 0.75175
 C1138 C 0.25300 0.02011 0.77292
 C1139 C 0.25761 0.03426 0.78016
 C1140 C 0.27340 0.03920 0.77970
 C1141 C 0.28451 0.02955 0.77205
 C1142 C 0.27990 0.01541 0.76486
 C1143 C 0.25009 0.02306 0.73398
 C1144 C 0.24294 0.03701 0.72872
 C1145 C 0.22648 0.03877 0.72930
 C1146 C 0.21736 0.02628 0.73522
 C1147 C 0.22452 0.01235 0.74045
 C1148 C 0.24357 -0.02028 0.72155
 C1149 C 0.23835 -0.03397 0.71397
 C1150 C 0.23235 -0.04682 0.72247
 C1151 C 0.23170 -0.04562 0.73877
 C1152 C 0.23689 -0.03187 0.74635
 H1153 H 0.26163 -0.01507 0.78644
 H1154 H 0.27420 -0.03938 0.79561
 H1155 H 0.28729 -0.05124 0.74850
 H1156 H 0.27536 -0.02640 0.73951
 H1157 H 0.24078 0.01655 0.77338
 H1158 H 0.24878 0.04148 0.78590
 H1159 H 0.28865 0.00822 0.75896
 H1160 H 0.26277 0.02190 0.73332
 H1161 H 0.25028 0.04646 0.72431
 H1162 H 0.20465 0.02719 0.73557
 H1163 H 0.21725 0.00286 0.74494
 H1164 H 0.24810 -0.01052 0.71473
 H1165 H 0.23873 -0.03437 0.70141
 H1166 H 0.22724 -0.05534 0.74566
 H1167 H 0.23608 -0.03113 0.75887
 H1168 H 0.29680 0.03289 0.77172
 C1169 C 0.25366 0.24156 0.99787
 C1170 C 0.24217 0.25287 0.99777
 C1171 C 0.23634 0.26030 1.01232
 C1172 C 0.23499 0.25860 0.98310
 C1173 C 0.25898 0.23352 0.98342
 C1174 C 0.26171 0.23678 1.01244
 C1175 C 0.22996 0.25104 1.02427
 C1176 C 0.22465 0.25821 1.03796
 C1177 C 0.22556 0.27478 1.03990
 C1178 C 0.23180 0.28402 1.02784
 C1179 C 0.23705 0.27684 1.01415
 C1180 C 0.21862 0.25801 0.98116
 C1181 C 0.21167 0.26354 0.96750
 C1182 C 0.22098 0.26992 0.95558
 C1183 C 0.23739 0.27060 0.95762
 C1184 C 0.24433 0.26506 0.97128
 C1185 C 0.27496 0.23384 0.97943
 C1186 C 0.28021 0.22651 0.96582
 C1187 C 0.26959 0.21858 0.95598
 C1188 C 0.25361 0.21799 0.96015
 C1189 C 0.24835 0.22538 0.97377
 C1190 C 0.26955 0.24798 1.02175
 C1191 C 0.27712 0.24325 1.03540
 C1192 C 0.27706 0.22721 1.03993
 C1193 C 0.26938 0.21602 1.03044
 C1194 C 0.26185 0.22076 1.01680
 H1195 H 0.22912 0.23826 1.02298
 H1196 H 0.22000 0.25079 1.04711
 H1197 H 0.23244 0.29682 1.02892
 H1198 H 0.24185 0.28419 1.00501
 H1199 H 0.21123 0.25319 0.99022
 H1200 H 0.19899 0.26308 0.96638
 H1201 H 0.25697 0.26587 0.97268
 H1202 H 0.28336 0.23993 0.98679
 H1203 H 0.29263 0.22694 0.96307
 H1204 H 0.24515 0.21201 0.95277
 H1205 H 0.23599 0.22480 0.97679
 H1206 H 0.26980 0.26037 1.01842
 H1207 H 0.28287 0.25215 1.04249
 H1208 H 0.26935 0.20355 1.03346
 H1209 H 0.25602 0.21192 1.00967
 H1210 H 0.24489 0.27532 0.94860
 C1211 C 0.25630 0.74601 0.49689
 C1212 C 0.24479 0.75731 0.49725
 C1213 C 0.23913 0.76431 0.51211
 C1214 C 0.23731 0.76326 0.48281
 C1215 C 0.26121 0.73804 0.48225
 C1216 C 0.26464 0.74098 0.51120
 C1217 C 0.23333 0.75464 0.52405
 C1218 C 0.22826 0.76137 0.53804
 C1219 C 0.22876 0.77792 0.54034
 C1220 C 0.23438 0.78757 0.52827
 C1221 C 0.23945 0.78083 0.51428
 C1222 C 0.22091 0.76255 0.48114
 C1223 C 0.21370 0.76798 0.46758
 C1224 C 0.22276 0.77438 0.45548
 C1225 C 0.23918 0.77531 0.45728
 C1226 C 0.24639 0.76983 0.47084
 C1227 C 0.27714 0.73801 0.47802
 C1228 C 0.28209 0.73032 0.46450
 C1229 C 0.27122 0.72237 0.45494
 C1230 C 0.25527 0.72221 0.45929
 C1231 C 0.25031 0.72996 0.47285
 C1232 C 0.27267 0.75202 0.52054
 C1233 C 0.28023 0.74709 0.53411
 C1234 C 0.27994 0.73103 0.53853
 C1235 C 0.27219 0.71998 0.52894
 C1236 C 0.26468 0.72491 0.51538
 H1237 H 0.23277 0.74188 0.52253
 H1238 H 0.22411 0.75360 0.54714
 H1239 H 0.23467 0.80037 0.52957
 H1240 H 0.24377 0.78850 0.50517
 H1241 H 0.21371 0.75762 0.49030
 H1242 H 0.20102 0.76733 0.46662
 H1243 H 0.25905 0.77070 0.47201
 H1244 H 0.28575 0.74404 0.48519
 H1245 H 0.29448 0.73042 0.46161
 H1246 H 0.24662 0.71626 0.45212
 H1247 H 0.23800 0.72959 0.47605
 H1248 H 0.27299 0.76444 0.51734
 H1249 H 0.28608 0.75586 0.54129
 H1250 H 0.27202 0.70749 0.53190
 H1251 H 0.25870 0.71620 0.50823
 H1252 H 0.24647 0.78010 0.44812
 C1253 C 0.23678 0.74767 0.00281
 C1254 C 0.24753 0.75963 0.00233
 C1255 C 0.25361 0.76586 -0.01260
 C1256 C 0.25389 0.76700 0.01668
 C1257 C 0.23219 0.73992 0.01759
 C1258 C 0.22910 0.74167 -0.01152
 C1259 C 0.26095 0.75574 -0.02339
 C1260 C 0.26698 0.76181 -0.03724
 C1261 C 0.26580 0.77812 -0.04052
 C1262 C 0.25850 0.78822 -0.02966
 C1263 C 0.25256 0.78216 -0.01579
 C1264 C 0.27022 0.76802 0.01879
 C1265 C 0.27641 0.77506 0.03213
 C1266 C 0.26637 0.78132 0.04360
 C1267 C 0.25001 0.78049 0.04137
 C1268 C 0.24382 0.77343 0.02800
 C1269 C 0.21622 0.73864 0.02147
 C1270 C 0.21167 0.73109 0.03514
 C1271 C 0.22299 0.72455 0.04518
 C1272 C 0.23899 0.72567 0.04119
 C1273 C 0.24354 0.73326 0.02749
 C1274 C 0.22090 0.75200 -0.02143
 C1275 C 0.21378 0.74620 -0.03492
 C1276 C 0.21468 0.72996 -0.03869
 C1277 C 0.22265 0.71962 -0.02858
 C1278 C 0.22974 0.72542 -0.01510
 H1279 H 0.26210 0.74317 -0.02102
 H1280 H 0.27246 0.75374 -0.04544
 H1281 H 0.25762 0.80086 -0.03178
 H1282 H 0.24708 0.79017 -0.00753
 H1283 H 0.27818 0.76326 0.01011
 H1284 H 0.28906 0.77576 0.03341
 H1285 H 0.23118 0.77300 0.02645
 H1286 H 0.20727 0.74354 0.01391
 H1287 H 0.19924 0.73017 0.03776
 H1288 H 0.24798 0.72081 0.04872
 H1289 H 0.25592 0.73386 0.02457
 H1290 H 0.22005 0.76454 -0.01872
 H1291 H 0.20779 0.75444 -0.04254
 H1292 H 0.22331 0.70702 -0.03106
 H1293 H 0.23589 0.71726 -0.00751
 H1294 H 0.24201 0.78514 0.05006
 C1295 C 0.23217 0.25199 0.50190
 C1296 C 0.24397 0.26291 0.50209
 C1297 C 0.25039 0.26978 0.48758
 C1298 C 0.25100 0.26863 0.51683
 C1299 C 0.22506 0.24588 0.51642
 C1300 C 0.22595 0.24540 0.48713
 C1301 C 0.26658 0.26878 0.48456
 C1302 C 0.27280 0.27507 0.47091
 C1303 C 0.26295 0.28261 0.46007
 C1304 C 0.24676 0.28381 0.46323
 C1305 C 0.24054 0.27749 0.47689
 C1306 C 0.25817 0.25805 0.52725
 C1307 C 0.26458 0.26365 0.54118
 C1308 C 0.26390 0.27991 0.54489
 C1309 C 0.25697 0.29048 0.53429
 C1310 C 0.25066 0.28489 0.52035
 C1311 C 0.21823 0.25620 0.52736
 C1312 C 0.21181 0.25021 0.54109
 C1313 C 0.21206 0.23380 0.54406
 C1314 C 0.21859 0.22350 0.53290
 C1315 C 0.22497 0.22948 0.51920
 C1316 C 0.20987 0.24675 0.48375
 C1317 C 0.20386 0.24075 0.46983
 C1318 C 0.21382 0.23311 0.45913
 C1319 C 0.22991 0.23157 0.46265
 C1320 C 0.23592 0.23763 0.47655
 H1321 H 0.27438 0.26299 0.49274
 H1322 H 0.28535 0.27420 0.46892
 H1323 H 0.23888 0.28947 0.45506
 H1324 H 0.22805 0.27861 0.47913
 H1325 H 0.25873 0.24548 0.52460
 H1326 H 0.26983 0.25527 0.54917
 H1327 H 0.24530 0.29323 0.51239
 H1328 H 0.21795 0.26888 0.52530
 H1329 H 0.20691 0.25843 0.54951
 H1330 H 0.21870 0.21079 0.53474
 H1331 H 0.23006 0.22133 0.51084
 H1332 H 0.20199 0.25261 0.49184
 H1333 H 0.19139 0.24191 0.46752
 H1334 H 0.23787 0.22582 0.45457
 H1335 H 0.24834 0.23630 0.47907
 H1336 H 0.25652 0.30310 0.53675
 C1337 C 0.75643 0.74230 0.99892
 C1338 C 0.74525 0.75391 0.99879
 C1339 C 0.73778 0.75967 1.01336
 C1340 C 0.73987 0.76139 0.98410
 C1341 C 0.76168 0.73426 0.98442
 C1342 C 0.76403 0.73716 1.01362
 C1343 C 0.73076 0.74897 1.02371
 C1344 C 0.72332 0.75449 1.03714
 C1345 C 0.72266 0.77085 1.04043
 C1346 C 0.72963 0.78155 1.03000
 C1347 C 0.73706 0.77601 1.01657
 C1348 C 0.72373 0.76267 0.98091
 C1349 C 0.71852 0.77004 0.96735
 C1350 C 0.72936 0.77637 0.95672
 C1351 C 0.74553 0.77520 0.96000
 C1352 C 0.75073 0.76784 0.97359
 C1353 C 0.77779 0.73287 0.98116
 C1354 C 0.78287 0.72529 0.96762
 C1355 C 0.77193 0.71887 0.95708
 C1356 C 0.75580 0.71998 0.96052
 C1357 C 0.75073 0.72756 0.97409
 C1358 C 0.77129 0.74829 1.02346
 C1359 C 0.77864 0.74335 1.03714
 C1360 C 0.77888 0.72721 1.04120
 C1361 C 0.77173 0.71609 1.03124
 C1362 C 0.76445 0.72102 1.01754
 H1363 H 0.73094 0.73633 1.02131
 H1364 H 0.71818 0.74597 1.04502
 H1365 H 0.72910 0.79422 1.03210
 H1366 H 0.74229 0.78447 1.00867
 H1367 H 0.71514 0.75793 0.98894
 H1368 H 0.70599 0.77099 0.96528
 H1369 H 0.76323 0.76725 0.97597
 H1370 H 0.78645 0.73780 0.98904
 H1371 H 0.79539 0.72436 0.96543
 H1372 H 0.74709 0.71523 0.95259
 H1373 H 0.73825 0.72822 0.97654
 H1374 H 0.77132 0.76078 1.02051
 H1375 H 0.78399 0.75218 1.04463
 H1376 H 0.77195 0.70354 1.03397
 H1377 H 0.75904 0.71224 1.01003
 H1378 H 0.75416 0.77987 0.95199
 C1379 C 0.75455 0.24062 0.50026
 C1380 C 0.74258 0.25138 0.50039
 C1381 C 0.73745 0.25870 0.51522
 C1382 C 0.73450 0.25679 0.48599
 C1383 C 0.76254 0.23554 0.48571
 C1384 C 0.76025 0.23356 0.51496
 C1385 C 0.72277 0.25503 0.52158
 C1386 C 0.71787 0.26226 0.53540
 C1387 C 0.72745 0.27357 0.54293
 C1388 C 0.74217 0.27721 0.53638
 C1389 C 0.74716 0.26976 0.52273
 C1390 C 0.72922 0.24586 0.47477
 C1391 C 0.72171 0.25113 0.46126
 C1392 C 0.71914 0.26744 0.45879
 C1393 C 0.72403 0.27830 0.47026
 C1394 C 0.73162 0.27303 0.48368
 C1395 C 0.76817 0.24678 0.47507
 C1396 C 0.77573 0.24188 0.46145
 C1397 C 0.77794 0.22564 0.45827
 C1398 C 0.77255 0.21443 0.46909
 C1399 C 0.76499 0.21933 0.48268
 C1400 C 0.77490 0.23786 0.52106
 C1401 C 0.78020 0.23123 0.53498
 C1402 C 0.77109 0.21987 0.54290
 C1403 C 0.75641 0.21555 0.53658
 C1404 C 0.75100 0.22242 0.52283
 H1405 H 0.71517 0.24648 0.51590
 H1406 H 0.70661 0.25889 0.54021
 H1407 H 0.74975 0.28605 0.54161
 H1408 H 0.75847 0.27284 0.51782
 H1409 H 0.73094 0.23323 0.47643
 H1410 H 0.71815 0.24247 0.45264
 H1411 H 0.73539 0.28171 0.49220
 H1412 H 0.76671 0.25937 0.47731
 H1413 H 0.77966 0.25080 0.45331
 H1414 H 0.77432 0.20184 0.46711
 H1415 H 0.76091 0.21044 0.49078
 H1416 H 0.78212 0.24652 0.51514
 H1417 H 0.79138 0.23517 0.53960
 H1418 H 0.74917 0.20666 0.54211
 H1419 H 0.73969 0.21891 0.51817
 H1420 H 0.72193 0.29091 0.46891
 C1421 C 0.74914 0.23639 -0.00034
 C1422 C 0.75903 0.24912 0.00007
 C1423 C 0.76489 0.25664 -0.01439
 C1424 C 0.76429 0.25648 0.01488
 C1425 C 0.74353 0.22851 0.01405
 C1426 C 0.74298 0.23001 -0.01525
 C1427 C 0.77326 0.24784 -0.02553
 C1428 C 0.77848 0.25508 -0.03915
 C1429 C 0.77548 0.27129 -0.04184
 C1430 C 0.76730 0.28010 -0.03054
 C1431 C 0.76211 0.27286 -0.01693
 C1432 C 0.78042 0.25860 0.01765
 C1433 C 0.78561 0.26582 0.03134
 C1434 C 0.77476 0.27113 0.04253
 C1435 C 0.75858 0.26913 0.03967
 C1436 C 0.75340 0.26197 0.02592
 C1437 C 0.72732 0.22666 0.01647
 C1438 C 0.72173 0.21978 0.03010
 C1439 C 0.73224 0.21455 0.04162
 C1440 C 0.74851 0.21599 0.03900
 C1441 C 0.75411 0.22283 0.02529
 C1442 C 0.73460 0.23975 -0.02555
 C1443 C 0.72902 0.23363 -0.03961
 C1444 C 0.73155 0.21760 -0.04356
 C1445 C 0.73973 0.20782 -0.03308
 C1446 C 0.74533 0.21396 -0.01904
 H1447 H 0.77569 0.23535 -0.02368
 H1448 H 0.78467 0.24797 -0.04769
 H1449 H 0.76503 0.29265 -0.03216
 H1450 H 0.75576 0.27987 -0.00841
 H1451 H 0.78901 0.25464 0.00918
 H1452 H 0.79813 0.26747 0.03303
 H1453 H 0.74088 0.26076 0.02387
 H1454 H 0.71896 0.23082 0.00789
 H1455 H 0.70915 0.21853 0.03161
 H1456 H 0.75690 0.21214 0.04767
 H1457 H 0.76668 0.22387 0.02353
 H1458 H 0.73241 0.25210 -0.02272
 H1459 H 0.72285 0.24150 -0.04747
 H1460 H 0.74163 0.19537 -0.03564
 H1461 H 0.75163 0.20622 -0.01115
 H1462 H 0.74994 0.27301 0.04809
 C1463 C 0.74729 0.73948 0.50188
 C1464 C 0.75803 0.75147 0.50175
 C1465 C 0.76525 0.75720 0.48710
 C1466 C 0.76317 0.75948 0.51624
 C1467 C 0.74140 0.73250 0.51659
 C1468 C 0.74100 0.73265 0.48727
 C1469 C 0.77312 0.74672 0.47702
 C1470 C 0.78007 0.75236 0.46341
 C1471 C 0.77937 0.76860 0.45970
 C1472 C 0.77164 0.77907 0.46992
 C1473 C 0.76469 0.77343 0.48350
 C1474 C 0.77926 0.76047 0.51970
 C1475 C 0.78432 0.76805 0.53322
 C1476 C 0.77338 0.77489 0.54349
 C1477 C 0.75726 0.77411 0.53990
 C1478 C 0.75220 0.76649 0.52636
 C1479 C 0.72515 0.73137 0.51920
 C1480 C 0.71943 0.72457 0.53284
 C1481 C 0.72987 0.71864 0.54410
 C1482 C 0.74616 0.71967 0.54140
 C1483 C 0.75186 0.72647 0.52775
 C1484 C 0.73362 0.74234 0.47620
 C1485 C 0.72802 0.73580 0.46235
 C1486 C 0.72961 0.71944 0.45937
 C1487 C 0.73677 0.70974 0.47060
 C1488 C 0.74234 0.71628 0.48446
 H1489 H 0.77395 0.73420 0.47972
 H1490 H 0.78587 0.74400 0.45572
 H1491 H 0.77116 0.79168 0.46754
 H1492 H 0.75881 0.78173 0.49120
 H1493 H 0.78790 0.75526 0.51196
 H1494 H 0.79682 0.76871 0.53557
 H1495 H 0.73974 0.76608 0.52375
 H1496 H 0.71688 0.73580 0.51067
 H1497 H 0.70683 0.72372 0.53447
 H1498 H 0.75449 0.71531 0.54990
 H1499 H 0.76445 0.72696 0.52584
 H1500 H 0.73229 0.75496 0.47827
 H1501 H 0.72264 0.74357 0.45386
 H1502 H 0.73793 0.69707 0.46872
 H1503 H 0.74790 0.70862 0.49292
 H1504 H 0.74858 0.77922 0.54765
 C1505 C 1.00045 0.26371 0.25324
 C1506 C 1.00074 0.25350 0.26546
 C1507 C 1.01579 0.24733 0.27184
 C1508 C 0.98605 0.24756 0.27277
 C1509 C 0.98556 0.26789 0.24516
 C1510 C 1.01509 0.27092 0.24703
 C1511 C 1.02666 0.23946 0.26224
 C1512 C 1.04061 0.23334 0.26843
 C1513 C 1.04389 0.23489 0.28436
 C1514 C 1.03292 0.24268 0.29395
 C1515 C 1.01897 0.24877 0.28776
 C1516 C 0.98383 0.23117 0.27453
 C1517 C 0.97012 0.22536 0.28134
 C1518 C 0.95837 0.23584 0.28664
 C1519 C 0.96073 0.25229 0.28515
 C1520 C 0.97448 0.25810 0.27829
 C1521 C 0.98155 0.28389 0.24303
 C1522 C 0.96785 0.28801 0.23503
 C1523 C 0.95797 0.27619 0.22887
 C1524 C 0.96209 0.26014 0.23089
 C1525 C 0.97579 0.25603 0.23894
 C1526 C 1.02530 0.27956 0.25671
 C1527 C 1.03905 0.28624 0.25070
 C1528 C 1.04282 0.28442 0.23491
 C1529 C 1.03243 0.27598 0.22523
 C1530 C 1.01869 0.26936 0.23122
 H1531 H 1.02429 0.23796 0.24997
 H1532 H 1.04888 0.22750 0.26074
 H1533 H 1.03501 0.24384 0.30631
 H1534 H 1.01064 0.25465 0.29537
 H1535 H 0.99266 0.22284 0.27048
 H1536 H 0.96876 0.21264 0.28258
 H1537 H 0.97609 0.27081 0.27727
 H1538 H 0.98903 0.29321 0.24757
 H1539 H 0.96511 0.30047 0.23345
 H1540 H 0.95464 0.25079 0.22635
 H1541 H 0.97884 0.24360 0.24021
 H1542 H 1.02260 0.28110 0.26891
 H1543 H 1.04686 0.29263 0.25844
 H1544 H 1.03488 0.27463 0.21296
 H1545 H 1.01091 0.26285 0.22354
 H1546 H 0.95186 0.26063 0.28906
 C1547 C 0.49880 0.26155 0.74801
 C1548 C 0.49899 0.25112 0.76006
 C1549 C 0.51398 0.24535 0.76688
 C1550 C 0.48426 0.24485 0.76701
 C1551 C 0.48396 0.26602 0.74005
 C1552 C 0.51345 0.26892 0.74199
 C1553 C 0.52550 0.23809 0.75757
 C1554 C 0.53952 0.23265 0.76414
 C1555 C 0.54221 0.23421 0.78018
 C1556 C 0.53059 0.24137 0.78948
 C1557 C 0.51659 0.24685 0.78289
 C1558 C 0.48210 0.22839 0.76829
 C1559 C 0.46842 0.22231 0.77499
 C1560 C 0.45668 0.23258 0.78067
 C1561 C 0.45894 0.24908 0.77951
 C1562 C 0.47262 0.25516 0.77278
 C1563 C 0.48001 0.28211 0.73849
 C1564 C 0.46628 0.28656 0.73075
 C1565 C 0.45625 0.27500 0.72435
 C1566 C 0.46031 0.25888 0.72578
 C1567 C 0.47408 0.25442 0.73353
 C1568 C 0.52359 0.27744 0.75183
 C1569 C 0.53731 0.28430 0.74595
 C1570 C 0.54108 0.28286 0.73011
 C1571 C 0.53075 0.27453 0.72027
 C1572 C 0.51707 0.26768 0.72615
 H1573 H 0.52360 0.23660 0.74521
 H1574 H 0.54831 0.22729 0.75666
 H1575 H 0.53221 0.24250 0.80191
 H1576 H 0.50779 0.25231 0.79028
 H1577 H 0.49100 0.22024 0.76403
 H1578 H 0.46713 0.20955 0.77593
 H1579 H 0.47417 0.26790 0.77212
 H1580 H 0.48757 0.29122 0.74331
 H1581 H 0.46361 0.29909 0.72959
 H1582 H 0.45277 0.24972 0.72102
 H1583 H 0.47708 0.24195 0.73437
 H1584 H 0.52087 0.27877 0.76404
 H1585 H 0.54507 0.29058 0.75382
 H1586 H 0.53317 0.27346 0.70797
 H1587 H 0.50932 0.26129 0.71834
 H1588 H 0.45006 0.25728 0.78368
 C1589 C 0.00341 0.24257 0.74742
 C1590 C 0.00329 0.25306 0.75951
 C1591 C -0.01161 0.25848 0.76680
 C1592 C 0.01804 0.25952 0.76627
 C1593 C 0.01829 0.23687 0.74028
 C1594 C -0.01135 0.23594 0.74086
 C1595 C -0.01511 0.27476 0.76734
 C1596 C -0.02908 0.28012 0.77410
 C1597 C -0.03978 0.26930 0.78058
 C1598 C -0.03615 0.25299 0.78019
 C1599 C -0.02215 0.24763 0.77342
 C1600 C 0.02891 0.26788 0.75718
 C1601 C 0.04274 0.27381 0.76383
 C1602 C 0.04588 0.27156 0.77972
 C1603 C 0.03483 0.26338 0.78880
 C1604 C 0.02104 0.25748 0.78215
 C1605 C 0.02977 0.22898 0.74909
 C1606 C 0.04366 0.22362 0.74209
 C1607 C 0.04625 0.22599 0.72613
 C1608 C 0.03461 0.23373 0.71734
 C1609 C 0.02074 0.23904 0.72434
 C1610 C -0.01358 0.21944 0.74076
 C1611 C -0.02752 0.21293 0.73505
 C1612 C -0.03949 0.22278 0.72920
 C1613 C -0.03710 0.23931 0.72900
 C1614 C -0.02313 0.24584 0.73475
 H1615 H -0.00705 0.28331 0.76241
 H1616 H -0.03141 0.29277 0.77446
 H1617 H -0.04419 0.24436 0.78500
 H1618 H -0.01953 0.23504 0.77334
 H1619 H 0.02669 0.26979 0.74495
 H1620 H 0.05107 0.27998 0.75652
 H1621 H 0.01274 0.25118 0.78938
 H1622 H 0.02796 0.22695 0.76137
 H1623 H 0.05244 0.21777 0.74917
 H1624 H 0.03613 0.23547 0.70499
 H1625 H 0.01193 0.24496 0.71733
 H1626 H -0.00457 0.21161 0.74531
 H1627 H -0.02890 0.20014 0.73510
 H1628 H -0.04614 0.24721 0.72462
 H1629 H -0.02153 0.25859 0.73453
 H1630 H 0.03677 0.26171 0.80111
 C1631 C 0.49939 0.24388 0.24808
 C1632 C 0.49936 0.25571 0.25893
 C1633 C 0.48449 0.26314 0.26439
 C1634 C 0.51409 0.26156 0.26623
 C1635 C 0.51418 0.23631 0.24257
 C1636 C 0.48458 0.23761 0.24131
 C1637 C 0.48203 0.27946 0.26221
 C1638 C 0.46811 0.28667 0.26729
 C1639 C 0.45650 0.27771 0.27485
 C1640 C 0.45908 0.26137 0.27714
 C1641 C 0.47296 0.25415 0.27197
 C1642 C 0.52643 0.26772 0.25728
 C1643 C 0.54032 0.27287 0.26442
 C1644 C 0.54205 0.27205 0.28065
 C1645 C 0.52957 0.26609 0.28956
 C1646 C 0.51572 0.26095 0.28242
 C1647 C 0.52448 0.22860 0.25285
 C1648 C 0.53831 0.22150 0.24733
 C1649 C 0.54201 0.22192 0.23142
 C1650 C 0.53152 0.22944 0.22117
 C1651 C 0.51773 0.23650 0.22668
 C1652 C 0.48104 0.22145 0.24297
 C1653 C 0.46711 0.21526 0.23692
 C1654 C 0.45646 0.22509 0.22894
 C1655 C 0.46015 0.24125 0.22702
 C1656 C 0.47411 0.24746 0.23314
 H1657 H 0.49087 0.28659 0.25649
 H1658 H 0.46654 0.29931 0.26555
 H1659 H 0.45029 0.25416 0.28285
 H1660 H 0.47475 0.24157 0.27391
 H1661 H 0.52534 0.26847 0.24478
 H1662 H 0.54977 0.27731 0.25724
 H1663 H 0.50629 0.25632 0.28954
 H1664 H 0.52180 0.22808 0.26513
 H1665 H 0.54619 0.21585 0.25551
 H1666 H 0.53389 0.22970 0.20882
 H1667 H 0.50984 0.24223 0.21855
 H1668 H 0.48903 0.21365 0.24913
 H1669 H 0.46472 0.20273 0.23837
 H1670 H 0.45212 0.24911 0.22099
 H1671 H 0.47675 0.25993 0.23155
 H1672 H 0.53044 0.26556 0.30209
 C1673 C 1.00061 0.74944 0.73951
 C1674 C 1.00075 0.73801 0.75065
 C1675 C 1.01562 0.73093 0.75646
 C1676 C 0.98600 0.73166 0.75738
 C1677 C 0.98571 0.75579 0.73298
 C1678 C 1.01536 0.75577 0.73275
 C1679 C 1.02615 0.72322 0.74637
 C1680 C 1.04002 0.71647 0.75212
 C1681 C 1.04353 0.71725 0.76806
 C1682 C 1.03282 0.72478 0.77812
 C1683 C 1.01898 0.73149 0.77238
 C1684 C 0.98315 0.71527 0.75680
 C1685 C 0.96919 0.70905 0.76269
 C1686 C 0.95782 0.71911 0.76936
 C1687 C 0.96085 0.73550 0.77026
 C1688 C 0.97486 0.74172 0.76438
 C1689 C 0.98281 0.77220 0.73336
 C1690 C 0.96905 0.77842 0.72689
 C1691 C 0.95800 0.76835 0.71978
 C1692 C 0.96097 0.75190 0.71938
 C1693 C 0.97474 0.74569 0.72585
 C1694 C 1.02699 0.76274 0.74211
 C1695 C 1.04089 0.76842 0.73548
 C1696 C 1.04332 0.76728 0.71936
 C1697 C 1.03152 0.76053 0.71003
 C1698 C 1.01767 0.75488 0.71666
 H1699 H 1.02361 0.72241 0.73408
 H1700 H 1.04808 0.71079 0.74410
 H1701 H 1.03506 0.72531 0.79049
 H1702 H 1.01089 0.73722 0.78035
 H1703 H 0.99167 0.70730 0.75157
 H1704 H 0.96733 0.69634 0.76210
 H1705 H 0.97696 0.75438 0.76518
 H1706 H 0.99124 0.78019 0.73866
 H1707 H 0.96722 0.79115 0.72716
 H1708 H 0.95263 0.74384 0.71408
 H1709 H 0.97690 0.73303 0.72520
 H1710 H 1.02532 0.76375 0.75454
 H1711 H 1.04981 0.77352 0.74295
 H1712 H 1.03292 0.75978 0.69755
 H1713 H 1.00877 0.74965 0.70923
 H1714 H 0.95227 0.74355 0.77528
 C1715 C 0.50143 0.76017 0.24928
 C1716 C 0.50160 0.74894 0.26053
 C1717 C 0.51643 0.74300 0.26746
 C1718 C 0.48677 0.74288 0.26718
 C1719 C 0.48638 0.76647 0.24333
 C1720 C 0.51608 0.76642 0.24225
 C1721 C 0.51978 0.72668 0.26736
 C1722 C 0.53362 0.72096 0.27406
 C1723 C 0.54434 0.73146 0.28108
 C1724 C 0.54092 0.74780 0.28125
 C1725 C 0.52705 0.75351 0.27455
 C1726 C 0.47964 0.72926 0.26105
 C1727 C 0.46597 0.72323 0.26780
 C1728 C 0.45906 0.73088 0.28069
 C1729 C 0.46615 0.74477 0.28654
 C1730 C 0.47994 0.75064 0.27990
 C1731 C 0.47935 0.77973 0.25034
 C1732 C 0.46524 0.78582 0.24452
 C1733 C 0.45782 0.77859 0.23172
 C1734 C 0.46482 0.76506 0.22495
 C1735 C 0.47904 0.75911 0.23068
 C1736 C 0.51921 0.78277 0.24274
 C1737 C 0.53318 0.78873 0.23659
 C1738 C 0.54426 0.77848 0.22974
 C1739 C 0.54096 0.76214 0.22892
 C1740 C 0.52697 0.75617 0.23512
 H1741 H 0.51174 0.71835 0.26201
 H1742 H 0.53583 0.70829 0.27397
 H1743 H 0.54901 0.75618 0.28648
 H1744 H 0.52456 0.76613 0.27494
 H1745 H 0.48479 0.72319 0.25118
 H1746 H 0.46102 0.71238 0.26313
 H1747 H 0.48531 0.76125 0.28467
 H1748 H 0.48486 0.78544 0.26023
 H1749 H 0.46031 0.79635 0.24989
 H1750 H 0.45928 0.75899 0.21530
 H1751 H 0.48431 0.74874 0.22529
 H1752 H 0.51099 0.79092 0.24813
 H1753 H 0.53529 0.80140 0.23715
 H1754 H 0.54931 0.75397 0.22376
 H1755 H 0.52469 0.74353 0.23446
 H1756 H 0.46102 0.75117 0.29622
 C1757 C -0.00201 0.75174 0.23987
 C1758 C -0.00221 0.76288 0.25137
 C1759 C -0.01720 0.76915 0.25785
 C1760 C 0.01255 0.76974 0.25775
 C1761 C 0.01292 0.74484 0.23392
 C1762 C -0.01669 0.74606 0.23236
 C1763 C -0.02010 0.78555 0.25771
 C1764 C -0.03425 0.79165 0.26344
 C1765 C -0.04574 0.78146 0.26956
 C1766 C -0.04268 0.76504 0.26997
 C1767 C -0.02852 0.75894 0.26419
 C1768 C 0.02354 0.77709 0.24799
 C1769 C 0.03729 0.78366 0.25415
 C1770 C 0.04023 0.78313 0.27021
 C1771 C 0.02913 0.77587 0.27996
 C1772 C 0.01538 0.76931 0.27378
 C1773 C 0.02361 0.73721 0.24387
 C1774 C 0.03764 0.73088 0.23803
 C1775 C 0.04118 0.73204 0.22213
 C1776 C 0.03031 0.73944 0.21219
 C1777 C 0.01630 0.74572 0.21802
 C1778 C -0.01998 0.72976 0.23198
 C1779 C -0.03364 0.72418 0.22484
 C1780 C -0.04424 0.73480 0.21781
 C1781 C -0.04081 0.75113 0.21798
 C1782 C -0.02711 0.75671 0.22515
 H1783 H -0.01145 0.79363 0.25298
 H1784 H -0.03613 0.80437 0.26323
 H1785 H -0.05133 0.75689 0.27457
 H1786 H -0.02641 0.74625 0.26461
 H1787 H 0.02145 0.77779 0.23561
 H1788 H 0.04566 0.78907 0.24634
 H1789 H 0.00696 0.76383 0.28150
 H1790 H 0.02109 0.73622 0.25615
 H1791 H 0.04584 0.72530 0.24595
 H1792 H 0.03260 0.74027 0.19986
 H1793 H 0.00816 0.75146 0.21015
 H1794 H -0.01198 0.72135 0.23732
 H1795 H -0.03582 0.71151 0.22464
 H1796 H -0.04879 0.75958 0.21272
 H1797 H -0.02462 0.76931 0.22505
 H1798 H 0.03094 0.77551 0.29239
 C1799 C 0.50051 0.74961 0.74017
 C1800 C 0.50046 0.76217 0.75021
 C1801 C 0.48562 0.76860 0.75690
 C1802 C 0.51526 0.76996 0.75538
 C1803 C 0.51536 0.74288 0.73386
 C1804 C 0.48571 0.74202 0.73477
 C1805 C 0.48226 0.78486 0.75559
 C1806 C 0.46850 0.79119 0.76197
 C1807 C 0.45782 0.78138 0.76988
 C1808 C 0.46130 0.76510 0.77132
 C1809 C 0.47512 0.75880 0.76499
 C1810 C 0.52588 0.77660 0.74473
 C1811 C 0.53979 0.78375 0.74994
 C1812 C 0.54328 0.78443 0.76590
 C1813 C 0.53242 0.77810 0.77650
 C1814 C 0.51856 0.77100 0.77129
 C1815 C 0.52704 0.73672 0.74369
 C1816 C 0.54101 0.73059 0.73747
 C1817 C 0.54349 0.73050 0.72133
 C1818 C 0.53162 0.73642 0.71155
 C1819 C 0.51767 0.74248 0.71776
 C1820 C 0.48330 0.72577 0.73738
 C1821 C 0.46944 0.71841 0.73242
 C1822 C 0.45783 0.72714 0.72453
 C1823 C 0.46036 0.74340 0.72177
 C1824 C 0.47418 0.75077 0.72683
 H1825 H 0.49031 0.79266 0.74956
 H1826 H 0.46633 0.80381 0.76091
 H1827 H 0.45327 0.75720 0.77722
 H1828 H 0.47765 0.74628 0.76645
 H1829 H 0.52341 0.77619 0.73240
 H1830 H 0.54795 0.78849 0.74151
 H1831 H 0.51045 0.76612 0.77971
 H1832 H 0.52535 0.73672 0.75615
 H1833 H 0.54998 0.72615 0.74528
 H1834 H 0.53309 0.73626 0.69907
 H1835 H 0.50873 0.74704 0.70999
 H1836 H 0.49213 0.71880 0.74338
 H1837 H 0.46792 0.70584 0.73451
 H1838 H 0.45158 0.75044 0.71579
 H1839 H 0.47593 0.76328 0.72453
 H1840 H 0.53461 0.77872 0.78887
 C1841 C 0.40301 0.29253 0.32142
 C1842 C 0.39449 0.30333 0.31222
 C1843 C 0.40026 0.30717 0.29738
 C1844 C 0.41417 0.30009 0.29177
 C1845 C 0.42243 0.28912 0.30111
 C1846 C 0.41681 0.28551 0.31594
 C1847 C 0.43619 0.28188 0.29551
 C1848 C 0.44191 0.28545 0.28064
 C1849 C 0.43370 0.29648 0.27145
 C1850 C 0.41994 0.30372 0.27694
 H1851 H 0.39383 0.31540 0.29011
 H1852 H 0.42308 0.27723 0.32331
 H1853 H 0.44255 0.27359 0.30280
 H1854 H 0.41379 0.31209 0.26958
 H1855 H 0.39911 0.28949 0.33298
 H1856 H 0.43782 0.29935 0.25990
 C1857 C 0.40486 0.79062 0.81862
 C1858 C 0.39629 0.80258 0.81084
 C1859 C 0.40194 0.80791 0.79636
 C1860 C 0.41563 0.80138 0.78979
 C1861 C 0.42403 0.78945 0.79779
 C1862 C 0.41857 0.78420 0.81220
 C1863 C 0.43776 0.78297 0.79126
 C1864 C 0.44320 0.78817 0.77673
 C1865 C 0.43467 0.79999 0.76883
 C1866 C 0.42105 0.80655 0.77531
 H1867 H 0.39570 0.81700 0.78998
 H1868 H 0.42488 0.77508 0.81851
 H1869 H 0.44430 0.77404 0.79761
 H1870 H 0.41472 0.81562 0.76895
 H1871 H 0.40118 0.78615 0.82978
 H1872 H 0.43844 0.80407 0.75752
 C1873 C -0.09928 0.31130 0.78896
 C1874 C -0.10440 0.30483 0.80311
 C1875 C -0.09568 0.29233 0.80975
 C1876 C -0.08208 0.28648 0.80247
 C1877 C -0.07703 0.29316 0.78832
 C1878 C -0.08574 0.30553 0.78164
 C1879 C -0.06331 0.28742 0.78114
 C1880 C -0.05453 0.27507 0.78795
 C1881 C -0.05975 0.26845 0.80198
 C1882 C -0.07339 0.27409 0.80917
 H1883 H -0.09930 0.28716 0.82065
 H1884 H -0.08206 0.31078 0.77077
 H1885 H -0.05954 0.29249 0.77022
 H1886 H -0.07708 0.26885 0.82004
 H1887 H -0.10571 0.32083 0.78344
 H1888 H -0.05311 0.25908 0.80756
 C1889 C -0.10140 0.78978 0.31535
 C1890 C -0.10924 0.80212 0.30750
 C1891 C -0.10295 0.80762 0.29339
 C1892 C -0.08903 0.80105 0.28734
 C1893 C -0.08126 0.78874 0.29543
 C1894 C -0.08757 0.78317 0.30939
 C1895 C -0.06724 0.78229 0.28951
 C1896 C -0.06079 0.78801 0.27560
 C1897 C -0.06868 0.80020 0.26759
 C1898 C -0.08267 0.80664 0.27339
 H1899 H -0.10881 0.81702 0.28706
 H1900 H -0.08176 0.77376 0.31576
 H1901 H -0.06119 0.77304 0.29590
 H1902 H -0.08847 0.81604 0.26699
 H1903 H -0.10578 0.78525 0.32624
 H1904 H -0.06407 0.80468 0.25674
 C1905 C 0.60328 0.68869 0.28840
 C1906 C 0.60822 0.69452 0.30293
 C1907 C 0.59954 0.70681 0.31002
 C1908 C 0.58612 0.71309 0.30281
 C1909 C 0.58123 0.70705 0.28827
 C1910 C 0.58992 0.69489 0.28115
 C1911 C 0.56769 0.71319 0.28116
 C1912 C 0.55891 0.72530 0.28840
 C1913 C 0.56396 0.73130 0.30281
 C1914 C 0.57743 0.72525 0.30996
 H1915 H 0.60302 0.71143 0.32124
 H1916 H 0.58636 0.69015 0.26998
 H1917 H 0.56402 0.70861 0.26995
 H1918 H 0.58099 0.72999 0.32113
 H1919 H 0.60973 0.67934 0.28254
 H1920 H 0.55729 0.74048 0.30872
 C1921 C 0.59587 0.18598 0.79225
 C1922 C 0.60342 0.19429 0.80434
 C1923 C 0.59749 0.20924 0.80884
 C1924 C 0.58413 0.21564 0.80156
 C1925 C 0.57660 0.20705 0.78957
 C1926 C 0.58261 0.19229 0.78495
 C1927 C 0.56306 0.21327 0.78251
 C1928 C 0.55688 0.22799 0.78728
 C1929 C 0.56457 0.23654 0.79910
 C1930 C 0.57808 0.23043 0.80617
 H1931 H 0.60307 0.21588 0.81809
 H1932 H 0.57700 0.18557 0.77574
 H1933 H 0.55713 0.20645 0.77356
 H1934 H 0.58374 0.23723 0.81529
 H1935 H 0.60009 0.17452 0.78836
 H1936 H 0.56016 0.24801 0.80284
 C1937 C 1.10227 0.71237 0.81028
 C1938 C 1.10734 0.69719 0.80552
 C1939 C 1.09889 0.68924 0.79377
 C1940 C 1.08551 0.69624 0.78708
 C1941 C 1.08048 0.71140 0.79214
 C1942 C 1.08899 0.71940 0.80367
 C1943 C 1.06694 0.71827 0.78571
 C1944 C 1.05823 0.71018 0.77429
 C1945 C 1.06344 0.69519 0.76916
 C1946 C 1.07696 0.68828 0.77550
 H1947 H 1.10252 0.67754 0.78995
 H1948 H 1.08534 0.73106 0.80764
 H1949 H 1.06317 0.72994 0.78958
 H1950 H 1.08063 0.67664 0.77147
 H1951 H 1.10854 0.71893 0.81914
 H1952 H 1.05686 0.68866 0.76048
 C1953 C 1.09695 0.18542 0.29494
 C1954 C 1.10546 0.19402 0.30616
 C1955 C 1.10003 0.20915 0.31065
 C1956 C 1.08632 0.21558 0.30409
 C1957 C 1.07786 0.20681 0.29285
 C1958 C 1.08328 0.19175 0.28835
 C1959 C 1.06409 0.21320 0.28637
 C1960 C 1.05861 0.22826 0.29101
 C1961 C 1.06717 0.23691 0.30214
 C1962 C 1.08091 0.23064 0.30861
 H1963 H 1.10649 0.21604 0.31916
 H1964 H 1.07693 0.18483 0.27978
 H1965 H 1.05749 0.20633 0.27794
 H1966 H 1.08728 0.23757 0.31716
 H1967 H 1.10070 0.17369 0.29133
 H1968 H 1.06331 0.24862 0.30576
 C1969 C 0.60022 0.28778 0.68841
 C1970 C 0.60493 0.30310 0.69298
 C1971 C 0.59617 0.31120 0.70440
 C1972 C 0.58279 0.30417 0.71100
 C1973 C 0.57814 0.28881 0.70621
 C1974 C 0.58698 0.28070 0.69498
 C1975 C 0.56467 0.28186 0.71265
 C1976 C 0.55564 0.29008 0.72376
 C1977 C 0.56045 0.30531 0.72854
 C1978 C 0.57389 0.31229 0.72222
 H1979 H 0.59955 0.32306 0.70798
 H1980 H 0.58361 0.26888 0.69122
 H1981 H 0.56124 0.27002 0.70903
 H1982 H 0.57725 0.32410 0.72600
 H1983 H 0.60682 0.28115 0.67982
 H1984 H 0.55361 0.31197 0.73695
 C1985 C 0.59889 0.78788 0.18297
 C1986 C 0.60717 0.79953 0.19142
 C1987 C 0.60131 0.80433 0.20598
 C1988 C 0.58742 0.79778 0.21193
 C1989 C 0.57921 0.78615 0.20331
 C1990 C 0.58507 0.78126 0.18886
 C1991 C 0.56521 0.77973 0.20922
 C1992 C 0.55926 0.78489 0.22361
 C1993 C 0.56761 0.79639 0.23212
 C1994 C 0.58157 0.80276 0.22635
 H1995 H 0.60746 0.81319 0.21277
 H1996 H 0.57891 0.77237 0.18207
 H1997 H 0.55879 0.77097 0.20249
 H1998 H 0.58775 0.81163 0.23314
 H1999 H 0.60298 0.78390 0.17173
 H2000 H 0.56339 0.80038 0.24333
 C2001 C 1.10242 0.28663 0.19378
 C2002 C 1.10711 0.30223 0.19738
 C2003 C 1.09833 0.31102 0.20830
 C2004 C 1.08490 0.30442 0.21525
 C2005 C 1.08023 0.28882 0.21131
 C2006 C 1.08914 0.27999 0.20068
 C2007 C 1.06664 0.28233 0.21794
 C2008 C 1.05752 0.29122 0.22846
 C2009 C 1.06237 0.30664 0.23251
 C2010 C 1.07593 0.31320 0.22595
 H2011 H 1.10171 0.32307 0.21117
 H2012 H 1.08578 0.26797 0.19760
 H2013 H 1.06316 0.27033 0.21492
 H2014 H 1.07930 0.32518 0.22912
 H2015 H 1.10902 0.27943 0.18563
 H2016 H 1.05549 0.31378 0.24050
 C2017 C 1.09757 0.81450 0.70674
 C2018 C 1.10478 0.80604 0.69452
 C2019 C 1.09851 0.79124 0.69010
 C2020 C 1.08520 0.78510 0.69758
 C2021 C 1.07801 0.79381 0.70971
 C2022 C 1.08434 0.80844 0.71425
 C2023 C 1.06450 0.78783 0.71697
 C2024 C 1.05801 0.77326 0.71219
 C2025 C 1.06538 0.76461 0.70024
 C2026 C 1.07886 0.77046 0.69301
 H2027 H 1.10379 0.78450 0.68073
 H2028 H 1.07900 0.81527 0.72355
 H2029 H 1.05882 0.79470 0.72605
 H2030 H 1.08426 0.76359 0.68377
 H2031 H 1.10207 0.82585 0.71056
 H2032 H 1.06073 0.75326 0.69651
 C2033 C 0.40468 0.71045 0.67810
 C2034 C 0.39629 0.69983 0.68757
 C2035 C 0.40202 0.69659 0.70258
 C2036 C 0.41577 0.70401 0.70807
 C2037 C 0.42391 0.71479 0.69845
 C2038 C 0.41832 0.71784 0.68348
 C2039 C 0.43755 0.72234 0.70392
 C2040 C 0.44329 0.71922 0.71891
 C2041 C 0.43517 0.70841 0.72838
 C2042 C 0.42152 0.70091 0.72303
 H2043 H 0.39574 0.68849 0.71007
 H2044 H 0.42448 0.72598 0.67591
 H2045 H 0.44382 0.73047 0.69643
 H2046 H 0.41545 0.69270 0.73059
 H2047 H 0.40082 0.71305 0.66643
 H2048 H 0.43929 0.70590 0.74001
 C2049 C 0.40337 0.21230 0.18102
 C2050 C 0.39483 0.20129 0.18989
 C2051 C 0.40010 0.19764 0.20495
 C2052 C 0.41375 0.20468 0.21097
 C2053 C 0.42230 0.21562 0.20190
 C2054 C 0.41696 0.21940 0.18696
 C2055 C 0.43612 0.22246 0.20787
 C2056 C 0.44155 0.21841 0.22278
 C2057 C 0.43281 0.20764 0.23173
 C2058 C 0.41904 0.20086 0.22590
 H2059 H 0.39360 0.18937 0.21207
 H2060 H 0.42336 0.22777 0.17984
 H2061 H 0.44283 0.23061 0.20078
 H2062 H 0.41258 0.19257 0.23305
 H2063 H 0.39971 0.21530 0.16936
 H2064 H 0.43661 0.20450 0.24332
 C2065 C -0.10228 0.69137 0.20960
 C2066 C -0.10709 0.69691 0.19495
 C2067 C -0.09877 0.70947 0.18804
 C2068 C -0.08564 0.71614 0.19551
 C2069 C -0.08084 0.71028 0.21012
 C2070 C -0.08931 0.69800 0.21711
 C2071 C -0.06753 0.71664 0.21743
 C2072 C -0.05878 0.72874 0.21032
 C2073 C -0.06377 0.73468 0.19589
 C2074 C -0.07709 0.72844 0.18855
 H2075 H -0.10224 0.71383 0.17673
 H2076 H -0.08582 0.69342 0.22834
 H2077 H -0.06395 0.71215 0.22868
 H2078 H -0.08058 0.73308 0.17735
 H2079 H -0.10855 0.68191 0.21535
 H2080 H -0.05716 0.74391 0.19011
 C2081 C -0.09549 0.21253 0.68411
 C2082 C -0.10261 0.19980 0.69198
 C2083 C -0.09580 0.19446 0.70593
 C2084 C -0.08213 0.20161 0.71184
 C2085 C -0.07510 0.21433 0.70376
 C2086 C -0.08190 0.21971 0.68994
 C2087 C -0.06131 0.22135 0.70956
 C2088 C -0.05437 0.21575 0.72332
 C2089 C -0.06155 0.20318 0.73133
 C2090 C -0.07530 0.19619 0.72566
 H2091 H -0.10099 0.18468 0.71221
 H2092 H -0.07668 0.22946 0.68358
 H2093 H -0.05581 0.23092 0.70320
 H2094 H -0.08057 0.18651 0.73206
 H2095 H -0.10034 0.21703 0.67339
 H2096 H -0.05657 0.19880 0.74207
 C2097 C 0.29166 0.40204 0.32058
 C2098 C 0.30259 0.39363 0.31140
 C2099 C 0.30624 0.39937 0.29651
 C2100 C 0.29883 0.41314 0.29080
 C2101 C 0.28772 0.42128 0.30011
 C2102 C 0.28432 0.41569 0.31500
 C2103 C 0.28017 0.43489 0.29443
 C2104 C 0.28354 0.44060 0.27950
 C2105 C 0.29468 0.43251 0.27033
 C2106 C 0.30224 0.41888 0.27591
 H2107 H 0.31459 0.39304 0.28928
 H2108 H 0.27594 0.42187 0.32234
 H2109 H 0.27180 0.44117 0.30171
 H2110 H 0.31070 0.41283 0.26857
 H2111 H 0.28878 0.39816 0.33218
 H2112 H 0.29740 0.43662 0.25875
 C2113 C 0.28804 -0.10681 0.81441
 C2114 C 0.30249 -0.11256 0.80855
 C2115 C 0.30956 -0.10431 0.79612
 C2116 C 0.30254 -0.09055 0.78999
 C2117 C 0.28816 -0.08499 0.79615
 C2118 C 0.28097 -0.09326 0.80825
 C2119 C 0.28125 -0.07113 0.79025
 C2120 C 0.28864 -0.06249 0.77838
 C2121 C 0.30289 -0.06821 0.77219
 C2122 C 0.30975 -0.08213 0.77791
 H2123 H 0.32065 -0.10830 0.79131
 H2124 H 0.26990 -0.08917 0.81308
 H2125 H 0.27009 -0.06709 0.79491
 H2126 H 0.32080 -0.08620 0.77303
 H2127 H 0.28199 -0.11270 0.82379
 H2128 H 0.30893 -0.06174 0.76315
 C2129 C 0.78900 0.39728 0.81854
 C2130 C 0.80237 0.39090 0.81104
 C2131 C 0.80790 0.39854 0.79754
 C2132 C 0.80038 0.41218 0.79180
 C2133 C 0.78708 0.41841 0.79954
 C2134 C 0.78149 0.41085 0.81287
 C2135 C 0.77966 0.43215 0.79388
 C2136 C 0.78539 0.43980 0.78054
 C2137 C 0.79858 0.43341 0.77288
 C2138 C 0.80601 0.41975 0.77845
 H2139 H 0.81808 0.39404 0.79139
 H2140 H 0.77129 0.41546 0.81897
 H2141 H 0.76963 0.43705 0.80003
 H2142 H 0.81617 0.41512 0.77232
 H2143 H 0.78422 0.39194 0.82889
 H2144 H 0.80311 0.43892 0.76247
 C2145 C 0.79449 -0.09439 0.31838
 C2146 C 0.80439 -0.10427 0.30941
 C2147 C 0.80729 -0.10004 0.29382
 C2148 C 0.80015 -0.08653 0.28732
 C2149 C 0.79043 -0.07673 0.29658
 C2150 C 0.78777 -0.08071 0.31210
 C2151 C 0.78345 -0.06312 0.29020
 C2152 C 0.78565 -0.05928 0.27445
 C2153 C 0.79513 -0.06932 0.26526
 C2154 C 0.80242 -0.08271 0.27165
 H2155 H 0.81466 -0.10745 0.28653
 H2156 H 0.78037 -0.07330 0.31939
 H2157 H 0.77647 -0.05544 0.29761
 H2158 H 0.80971 -0.09015 0.26430
 H2159 H 0.79208 -0.09692 0.33044
 H2160 H 0.79684 -0.06695 0.25304
 C2161 C 0.28801 0.60719 0.69017
 C2162 C 0.30363 0.61092 0.69418
 C2163 C 0.31157 0.60127 0.70499
 C2164 C 0.30411 0.58785 0.71132
 C2165 C 0.28855 0.58412 0.70683
 C2166 C 0.28056 0.59395 0.69641
 C2167 C 0.28124 0.57051 0.71267
 C2168 C 0.28923 0.56044 0.72297
 C2169 C 0.30458 0.56437 0.72768
 C2170 C 0.31198 0.57795 0.72188
 H2171 H 0.32360 0.60394 0.70822
 H2172 H 0.26858 0.59133 0.69296
 H2173 H 0.26930 0.56771 0.70916
 H2174 H 0.32390 0.58059 0.72550
 H2175 H 0.28139 0.61449 0.68217
 H2176 H 0.31100 0.55674 0.73557
 C2177 C 0.31791 1.09944 0.20705
 C2178 C 0.30898 1.10744 0.19574
 C2179 C 0.29415 1.10134 0.19160
 C2180 C 0.28841 1.08743 0.19846
 C2181 C 0.29755 1.07944 0.20972
 C2182 C 0.31226 1.08558 0.21396
 C2183 C 0.29186 1.06540 0.21642
 C2184 C 0.27719 1.05918 0.21193
 C2185 C 0.26817 1.06732 0.20081
 C2186 C 0.27372 1.08132 0.19415
 H2187 H 0.28697 1.10735 0.18306
 H2188 H 0.31945 1.07960 0.22254
 H2189 H 0.29899 1.05914 0.22487
 H2190 H 0.26654 1.08732 0.18557
 H2191 H 0.32938 1.10374 0.21049
 H2192 H 0.25674 1.06289 0.19733
 C2193 C 0.81341 0.60065 0.21055
 C2194 C 0.80745 0.60558 0.19612
 C2195 C 0.79504 0.59699 0.18930
 C2196 C 0.78874 0.58365 0.19672
 C2197 C 0.79484 0.57880 0.21121
 C2198 C 0.80714 0.58741 0.21805
 C2199 C 0.78862 0.56538 0.21856
 C2200 C 0.77643 0.55662 0.21156
 C2201 C 0.77042 0.56160 0.19717
 C2202 C 0.77650 0.57500 0.18982
 H2203 H 0.79040 0.60047 0.17811
 H2204 H 0.81195 0.58387 0.22916
 H2205 H 0.79321 0.56180 0.22976
 H2206 H 0.77173 0.57852 0.17868
 H2207 H 0.82286 0.60707 0.21617
 H2208 H 0.76120 0.55495 0.19142
 C2209 C 0.81845 1.10104 0.71088
 C2210 C 0.80924 1.10866 0.69952
 C2211 C 0.79450 1.10215 0.69563
 C2212 C 0.78909 1.08829 0.70293
 C2213 C 0.79850 1.08077 0.71428
 C2214 C 0.81314 1.08727 0.71817
 C2215 C 0.79320 1.06681 0.72144
 C2216 C 0.77860 1.06016 0.71735
 C2217 C 0.76927 1.06784 0.70614
 C2218 C 0.77445 1.08176 0.69901
 H2219 H 0.78718 1.10785 0.68698
 H2220 H 0.82055 1.08164 0.72681
 H2221 H 0.80059 1.06094 0.72993
 H2222 H 0.76703 1.08739 0.69040
 H2223 H 0.82991 1.10556 0.71407
 H2224 H 0.75788 1.06311 0.70295
 C2225 C 0.70977 0.59625 0.31746
 C2226 C 0.69832 0.60466 0.30899
 C2227 C 0.69408 0.59915 0.29413
 C2228 C 0.70101 0.58541 0.28790
 C2229 C 0.71244 0.57704 0.29655
 C2230 C 0.71677 0.58258 0.31129
 C2231 C 0.71924 0.56319 0.29038
 C2232 C 0.71469 0.55754 0.27568
 C2233 C 0.70338 0.56603 0.26713
 C2234 C 0.69663 0.57986 0.27317
 H2235 H 0.68542 0.60551 0.28732
 H2236 H 0.72550 0.57630 0.31810
 H2237 H 0.72781 0.55663 0.29714
 H2238 H 0.68793 0.58617 0.26634
 H2239 H 0.71326 0.60007 0.32895
 H2240 H 0.69983 0.56201 0.25570
 C2241 C 0.68083 1.09745 0.79280
 C2242 C 0.68952 1.10508 0.80465
 C2243 C 0.70457 1.09904 0.80835
 C2244 C 0.71066 1.08570 0.80054
 C2245 C 0.70170 1.07823 0.78880
 C2246 C 0.68684 1.08422 0.78501
 C2247 C 0.70765 1.06479 0.78114
 C2248 C 0.72248 1.05860 0.78507
 C2249 C 0.73139 1.06619 0.79668
 C2250 C 0.72554 1.07963 0.80434
 H2251 H 0.71162 1.10454 0.81734
 H2252 H 0.67981 1.07863 0.77604
 H2253 H 0.70057 1.05892 0.77236
 H2254 H 0.73263 1.08521 0.81327
 H2255 H 0.66927 1.10152 0.78943
 H2256 H 0.74294 1.06176 0.79980
 C2257 C 0.21738 0.60930 0.80403
 C2258 C 0.20132 0.61202 0.80102
 C2259 C 0.19326 0.60163 0.79095
 C2260 C 0.20099 0.58840 0.78449
 C2261 C 0.21699 0.58558 0.78806
 C2262 C 0.22512 0.59622 0.79763
 C2263 C 0.22454 0.57201 0.78224
 C2264 C 0.21632 0.56111 0.77291
 C2265 C 0.20054 0.56421 0.76904
 C2266 C 0.19292 0.57773 0.77481
 H2267 H 0.18089 0.60352 0.78848
 H2268 H 0.23743 0.59430 0.80035
 H2269 H 0.23679 0.56982 0.78509
 H2270 H 0.18066 0.57970 0.77193
 H2271 H 0.22404 0.61722 0.81144
 H2272 H 0.19397 0.55592 0.76191
 C2273 C 0.21505 1.10367 0.30802
 C2274 C 0.19971 1.10803 0.30355
 C2275 C 0.19194 1.09893 0.29216
 C2276 C 0.19924 1.08553 0.28558
 C2277 C 0.21455 1.08118 0.29037
 C2278 C 0.22239 1.09039 0.30149
 C2279 C 0.22173 1.06760 0.28407
 C2280 C 0.21381 1.05823 0.27304
 C2281 C 0.19866 1.06277 0.26819
 C2282 C 0.19143 1.07630 0.27441
 H2283 H 0.18011 1.10203 0.28859
 H2284 H 0.23418 1.08728 0.30523
 H2285 H 0.23351 1.06434 0.28774
 H2286 H 0.17968 1.07944 0.27061
 H2287 H 0.22147 1.11051 0.31656
 H2288 H 0.19225 1.05566 0.25982
 C2289 C 0.69279 0.39285 0.71399
 C2290 C 0.69775 0.38903 0.69884
 C2291 C 0.70930 0.39853 0.69176
 C2292 C 0.71542 0.41189 0.69952
 C2293 C 0.70999 0.41575 0.71457
 C2294 C 0.69884 0.40605 0.72176
 C2295 C 0.71562 0.42937 0.72213
 C2296 C 0.72657 0.43934 0.71486
 C2297 C 0.73220 0.43524 0.70003
 C2298 C 0.72667 0.42164 0.69242
 H2299 H 0.71326 0.39583 0.68010
 H2300 H 0.69464 0.40878 0.73334
 H2301 H 0.71139 0.43227 0.73367
 H2302 H 0.73100 0.41889 0.68089
 H2303 H 0.68417 0.38568 0.71993
 H2304 H 0.74058 0.44280 0.69416
 C2305 C 0.69343 -0.10685 0.21335
 C2306 C 0.69438 -0.10847 0.19713
 C2307 C 0.70200 -0.09665 0.18848
 C2308 C 0.70865 -0.08342 0.19589
 C2309 C 0.70784 -0.08201 0.21221
 C2310 C 0.70018 -0.09377 0.22083
 C2311 C 0.71469 -0.06886 0.21963
 C2312 C 0.72213 -0.05690 0.21093
 C2313 C 0.72265 -0.05839 0.19466
 C2314 C 0.71606 -0.07155 0.18723
 H2315 H 0.70263 -0.09763 0.17595
 H2316 H 0.69941 -0.09287 0.23336
 H2317 H 0.71433 -0.06804 0.23218
 H2318 H 0.71665 -0.07237 0.17469
 H2319 H 0.68772 -0.11583 0.22030
 H2320 H 0.72795 -0.04924 0.18760
 C2321 C 0.20778 0.40115 0.18099
 C2322 C 0.19705 0.39244 0.19001
 C2323 C 0.19365 0.39771 0.20516
 C2324 C 0.20075 0.41147 0.21116
 C2325 C 0.21145 0.42012 0.20195
 C2326 C 0.21490 0.41484 0.18689
 C2327 C 0.21842 0.43399 0.20790
 C2328 C 0.21474 0.43939 0.22294
 C2329 C 0.20417 0.43059 0.23203
 C2330 C 0.19725 0.41676 0.22621
 H2331 H 0.18555 0.39114 0.21238
 H2332 H 0.22305 0.42135 0.17965
 H2333 H 0.22641 0.44075 0.20071
 H2334 H 0.18912 0.41024 0.23347
 H2335 H 0.21060 0.39753 0.16926
 H2336 H 0.20130 0.43438 0.24372
 C2337 C 0.18614 -0.10173 0.70809
 C2338 C 0.19361 -0.10766 0.69468
 C2339 C 0.20776 -0.10059 0.68980
 C2340 C 0.21414 -0.08765 0.69803
 C2341 C 0.20634 -0.08173 0.71133
 C2342 C 0.19242 -0.08892 0.71631
 C2343 C 0.21246 -0.06860 0.71936
 C2344 C 0.22633 -0.06118 0.71430
 C2345 C 0.23413 -0.06729 0.70116
 C2346 C 0.22811 -0.08040 0.69311
 H2347 H 0.21370 -0.10492 0.67950
 H2348 H 0.18632 -0.08459 0.72653
 H2349 H 0.20617 -0.06390 0.72932
 H2350 H 0.23432 -0.08480 0.68298
 H2351 H 0.17538 -0.10693 0.71238
 H2352 H 0.24495 -0.06195 0.69712
 C2353 C 0.30569 0.28557 0.40187
 C2354 C 0.30086 0.30059 0.39656
 C2355 C 0.28922 0.30891 0.40493
 C2356 C 0.28259 0.30239 0.41838
 C2357 C 0.28763 0.28734 0.42362
 C2358 C 0.29913 0.27900 0.41525
 C2359 C 0.28111 0.28090 0.43717
 C2360 C 0.26961 0.28932 0.44559
 C2361 C 0.26462 0.30425 0.44021
 C2362 C 0.27106 0.31074 0.42674
 H2363 H 0.28538 0.32054 0.40116
 H2364 H 0.30308 0.26740 0.41906
 H2365 H 0.28491 0.26928 0.44109
 H2366 H 0.26709 0.32232 0.42292
 H2367 H 0.31449 0.27877 0.39566
 H2368 H 0.25592 0.31104 0.44658
 C2369 C 0.31487 0.78824 -0.09274
 C2370 C 0.30641 0.79966 -0.10127
 C2371 C 0.29138 0.80425 -0.09603
 C2372 C 0.28497 0.79768 -0.08250
 C2373 C 0.29361 0.78626 -0.07405
 C2374 C 0.30853 0.78161 -0.07929
 C2375 C 0.28723 0.77977 -0.06046
 C2376 C 0.27235 0.78465 -0.05511
 C2377 C 0.26384 0.79599 -0.06364
 C2378 C 0.27007 0.80242 -0.07723
 H2379 H 0.28456 0.81291 -0.10242
 H2380 H 0.31534 0.77288 -0.07294
 H2381 H 0.29398 0.77118 -0.05387
 H2382 H 0.26325 0.81114 -0.08358
 H2383 H 0.32648 0.78446 -0.09632
 H2384 H 0.25228 0.79980 -0.05986
 C2385 C 0.82141 0.28747 -0.09531
 C2386 C 0.81170 0.29837 -0.10316
 C2387 C 0.79661 0.30162 -0.09719
 C2388 C 0.79132 0.29411 -0.08365
 C2389 C 0.80121 0.28318 -0.07591
 C2390 C 0.81622 0.27996 -0.08183
 C2391 C 0.79596 0.27571 -0.06234
 C2392 C 0.78093 0.27903 -0.05633
 C2393 C 0.77116 0.28988 -0.06415
 C2394 C 0.77630 0.29734 -0.07769
 H2395 H 0.78890 0.30988 -0.10311
 H2396 H 0.82398 0.27165 -0.07602
 H2397 H 0.80368 0.26752 -0.05631
 H2398 H 0.76852 0.30563 -0.08350
 H2399 H 0.83313 0.28480 -0.09944
 H2400 H 0.75946 0.29249 -0.05987
 C2401 C 0.78620 0.81092 0.40146
 C2402 C 0.80113 0.80553 0.39673
 C2403 C 0.80859 0.79346 0.40531
 C2404 C 0.80132 0.78703 0.41850
 C2405 C 0.78637 0.79267 0.42316
 C2406 C 0.77889 0.80454 0.41452
 C2407 C 0.77920 0.78644 0.43646
 C2408 C 0.78679 0.77470 0.44530
 C2409 C 0.80159 0.76906 0.44049
 C2410 C 0.80879 0.77516 0.42720
 H2411 H 0.82013 0.78922 0.40193
 H2412 H 0.76739 0.80894 0.41789
 H2413 H 0.76767 0.79072 0.43990
 H2414 H 0.82026 0.77069 0.42383
 H2415 H 0.78003 0.82002 0.39503
 H2416 H 0.80777 0.76014 0.44718
 C2417 C 0.67959 0.30247 0.58951
 C2418 C 0.69039 0.30684 0.60110
 C2419 C 0.70653 0.30427 0.59864
 C2420 C 0.71179 0.29695 0.58489
 C2421 C 0.70081 0.29266 0.57329
 C2422 C 0.68476 0.29561 0.57565
 C2423 C 0.70601 0.28529 0.55959
 C2424 C 0.72204 0.28168 0.55740
 C2425 C 0.73283 0.28590 0.56912
 C2426 C 0.72778 0.29357 0.58266
 H2427 H 0.71491 0.30745 0.60761
 H2428 H 0.67617 0.29238 0.56689
 H2429 H 0.69752 0.28245 0.55061
 H2430 H 0.73636 0.29663 0.59147
 H2431 H 0.66710 0.30442 0.59115
 H2432 H 0.74520 0.28306 0.56797
 C2433 C 0.71285 0.81301 1.09868
 C2434 C 0.69834 0.80663 1.10344
 C2435 C 0.69164 0.79422 1.09467
 C2436 C 0.69926 0.78833 1.08139
 C2437 C 0.71379 0.79492 1.07674
 C2438 C 0.72048 0.80722 1.08548
 C2439 C 0.72138 0.78911 1.06343
 C2440 C 0.71467 0.77678 1.05463
 C2441 C 0.70025 0.77025 1.05939
 C2442 C 0.69261 0.77598 1.07263
 H2443 H 0.68045 0.78918 1.09805
 H2444 H 0.73163 0.81237 1.08210
 H2445 H 0.73260 0.79410 1.06001
 H2446 H 0.68146 0.77081 1.07599
 H2447 H 0.71846 0.82244 1.10516
 H2448 H 0.69475 0.76086 1.05270
 C2449 C 0.18060 0.28786 1.09507
 C2450 C 0.18938 0.30001 1.10223
 C2451 C 0.20371 0.30467 1.09546
 C2452 C 0.20917 0.29731 1.08182
 C2453 C 0.20024 0.28508 1.07484
 C2454 C 0.18598 0.28047 1.08154
 C2455 C 0.20569 0.27771 1.06123
 C2456 C 0.21994 0.28245 1.05441
 C2457 C 0.22872 0.29464 1.06145
 C2458 C 0.22340 0.30199 1.07504
 H2459 H 0.21072 0.31392 1.10079
 H2460 H 0.17895 0.27115 1.07631
 H2461 H 0.19871 0.26846 1.05579
 H2462 H 0.23042 0.31134 1.08023
 H2463 H 0.16946 0.28404 1.09981
 H2464 H 0.23982 0.29839 1.05650
 C2465 C 0.18519 0.78757 0.59726
 C2466 C 0.19326 0.80039 0.60416
 C2467 C 0.20704 0.80602 0.59697
 C2468 C 0.21256 0.79905 0.58314
 C2469 C 0.20426 0.78625 0.57638
 C2470 C 0.19063 0.78059 0.58356
 C2471 C 0.20964 0.77937 0.56250
 C2472 C 0.22326 0.78511 0.55517
 C2473 C 0.23149 0.79781 0.56203
 C2474 C 0.22621 0.80470 0.57589
 H2475 H 0.21350 0.81582 0.60204
 H2476 H 0.18411 0.77079 0.57853
 H2477 H 0.20306 0.76973 0.55725
 H2478 H 0.23279 0.81445 0.58092
 H2479 H 0.17455 0.78289 0.60232
 H2480 H 0.24212 0.80233 0.55674
 C2481 C 0.28695 0.69241 0.59906
 C2482 C 0.30215 0.69753 0.60317
 C2483 C 0.30971 0.70883 0.59377
 C2484 C 0.30232 0.71469 0.58037
 C2485 C 0.28715 0.70923 0.57631
 C2486 C 0.27954 0.69819 0.58578
 C2487 C 0.27987 0.71478 0.56277
 C2488 C 0.28754 0.72572 0.55312
 C2489 C 0.30252 0.73131 0.55736
 C2490 C 0.30986 0.72582 0.57086
 H2491 H 0.32142 0.71291 0.59668
 H2492 H 0.26787 0.69394 0.58287
 H2493 H 0.26820 0.71060 0.55975
 H2494 H 0.32149 0.73016 0.57378
 H2495 H 0.28065 0.68394 0.60610
 H2496 H 0.30870 0.73967 0.55006
 C2497 C 0.28594 0.18894 1.10060
 C2498 C 0.30096 0.19466 1.10460
 C2499 C 0.30805 0.20614 1.09505
 C2500 C 0.30036 0.21163 1.08165
 C2501 C 0.28537 0.20562 1.07772
 C2502 C 0.27823 0.19436 1.08732
 C2503 C 0.27778 0.21088 1.06421
 C2504 C 0.28497 0.22208 1.05447
 C2505 C 0.29982 0.22814 1.05857
 C2506 C 0.30745 0.22295 1.07202
 H2507 H 0.31963 0.21066 1.09787
 H2508 H 0.26670 0.18968 1.08454
 H2509 H 0.26623 0.20629 1.06130
 H2510 H 0.31895 0.22769 1.07483
 H2511 H 0.28001 0.18029 1.10775
 H2512 H 0.30567 0.23667 1.05120
 C2513 C 0.78646 0.68841 1.10159
 C2514 C 0.80140 0.69408 1.10595
 C2515 C 0.80870 0.70567 1.09669
 C2516 C 0.80130 0.71128 1.08318
 C2517 C 0.78641 0.70527 1.07886
 C2518 C 0.77906 0.69393 1.08820
 C2519 C 0.77914 0.71061 1.06524
 C2520 C 0.78651 0.72192 1.05579
 C2521 C 0.80123 0.72802 1.06027
 C2522 C 0.80858 0.72272 1.07383
 H2523 H 0.82020 0.71017 1.09979
 H2524 H 0.76760 0.68927 1.08510
 H2525 H 0.76767 0.70602 1.06202
 H2526 H 0.81999 0.72749 1.07695
 H2527 H 0.78036 0.67968 1.10850
 H2528 H 0.80719 0.73666 1.05311
 C2529 C 0.82036 0.19504 0.59023
 C2530 C 0.80983 0.19063 0.60200
 C2531 C 0.79357 0.19235 0.59951
 C2532 C 0.78793 0.19885 0.58554
 C2533 C 0.79866 0.20318 0.57377
 C2534 C 0.81483 0.20108 0.57618
 C2535 C 0.79309 0.20973 0.55985
 C2536 C 0.77690 0.21251 0.55758
 C2537 C 0.76636 0.20828 0.56948
 C2538 C 0.77180 0.20141 0.58324
 H2539 H 0.78538 0.18914 0.60861
 H2540 H 0.82323 0.20435 0.56730
 H2541 H 0.80141 0.21260 0.55077
 H2542 H 0.76339 0.19832 0.59218
 H2543 H 0.83293 0.19373 0.59187
 H2544 H 0.75387 0.21052 0.56830
 C2545 C 0.68347 0.70819 0.40479
 C2546 C 0.69247 0.69675 0.39680
 C2547 C 0.70719 0.69226 0.40287
 C2548 C 0.71279 0.69900 0.41670
 C2549 C 0.70362 0.71046 0.42462
 C2550 C 0.68899 0.71498 0.41856
 C2551 C 0.70919 0.71715 0.43850
 C2552 C 0.72382 0.71249 0.44462
 C2553 C 0.73286 0.70112 0.43663
 C2554 C 0.72742 0.69445 0.42278
 H2555 H 0.71438 0.68358 0.39685
 H2556 H 0.68178 0.72372 0.42451
 H2557 H 0.70203 0.72577 0.44467
 H2558 H 0.73463 0.68572 0.41683
 H2559 H 0.67204 0.71183 0.40054
 H2560 H 0.74426 0.69749 0.44102
 C2561 C 0.68394 0.20713 -0.09712
 C2562 C 0.69287 0.19616 -0.10580
 C2563 C 0.70789 0.19178 -0.10038
 C2564 C 0.71385 0.19821 -0.08650
 C2565 C 0.70469 0.20915 -0.07789
 C2566 C 0.68978 0.21354 -0.08331
 C2567 C 0.71055 0.21546 -0.06395
 C2568 C 0.72550 0.21103 -0.05844
 C2569 C 0.73456 0.20021 -0.06716
 C2570 C 0.72879 0.19386 -0.08105
 H2571 H 0.71501 0.18346 -0.10695
 H2572 H 0.68258 0.22189 -0.07684
 H2573 H 0.70333 0.22361 -0.05725
 H2574 H 0.73602 0.18554 -0.08752
 H2575 H 0.67229 0.21065 -0.10083
 H2576 H 0.74620 0.19676 -0.06330
 C2577 C 0.21063 0.68975 -0.09875
 C2578 C 0.19557 0.69468 -0.10358
 C2579 C 0.18732 0.70584 -0.09446
 C2580 C 0.19399 0.71191 -0.08076
 C2581 C 0.20909 0.70675 -0.07606
 C2582 C 0.21730 0.69571 -0.08515
 C2583 C 0.21575 0.71272 -0.06236
 C2584 C 0.20754 0.72381 -0.05321
 C2585 C 0.19256 0.72896 -0.05800
 C2586 C 0.18583 0.72304 -0.07165
 H2587 H 0.17570 0.70977 -0.09789
 H2588 H 0.22891 0.69167 -0.08173
 H2589 H 0.22741 0.70886 -0.05891
 H2590 H 0.17423 0.72713 -0.07505
 H2591 H 0.21741 0.68132 -0.10549
 H2592 H 0.18596 0.73739 -0.05106
 C2593 C 0.20413 0.18417 0.40613
 C2594 C 0.19325 0.19301 0.39737
 C2595 C 0.18867 0.20814 0.40271
 C2596 C 0.19489 0.21436 0.41654
 C2597 C 0.20584 0.20536 0.42520
 C2598 C 0.21036 0.19028 0.41991
 C2599 C 0.21205 0.21157 0.43904
 C2600 C 0.20740 0.22666 0.44439
 C2601 C 0.19651 0.23552 0.43568
 C2602 C 0.19034 0.22944 0.42186
 H2603 H 0.18042 0.21519 0.39607
 H2604 H 0.21868 0.18318 0.42645
 H2605 H 0.22030 0.20456 0.44575
 H2606 H 0.18200 0.23653 0.41534
 H2607 H 0.20776 0.17242 0.40247
 H2608 H 0.19289 0.24724 0.43947
 C2609 C 0.28420 0.39488 0.69275
 C2610 C 0.30059 0.39291 0.69397
 C2611 C 0.30943 0.40430 0.70215
 C2612 C 0.30205 0.41759 0.70880
 C2613 C 0.28559 0.41949 0.70742
 C2614 C 0.27676 0.40801 0.69947
 C2615 C 0.27825 0.43292 0.71383
 C2616 C 0.28717 0.44466 0.72143
 C2617 C 0.30354 0.44257 0.72283
 C2618 C 0.31090 0.42914 0.71662
 H2619 H 0.32208 0.40306 0.70310
 H2620 H 0.26412 0.40926 0.69833
 H2621 H 0.26560 0.43424 0.71286
 H2622 H 0.32354 0.42791 0.71775
 H2623 H 0.27707 0.38624 0.68668
 H2624 H 0.31072 0.45152 0.72843
 C2625 C 0.31204 0.89739 0.21086
 C2626 C 0.30599 0.89178 0.19665
 C2627 C 0.29361 0.90021 0.18955
 C2628 C 0.28756 0.91409 0.19638
 C2629 C 0.29392 0.91967 0.21054
 C2630 C 0.30608 0.91119 0.21771
 C2631 C 0.28809 0.93370 0.21723
 C2632 C 0.27594 0.94227 0.20999
 C2633 C 0.26957 0.93653 0.19600
 C2634 C 0.27535 0.92258 0.18923
 H2635 H 0.28874 0.89615 0.17863
 H2636 H 0.31106 0.91528 0.22859
 H2637 H 0.29297 0.93791 0.22813
 H2638 H 0.27032 0.91848 0.17838
 H2639 H 0.32140 0.89115 0.21678
 H2640 H 0.26027 0.94298 0.19016
 C2641 C 0.78566 0.39719 0.18255
 C2642 C 0.80006 0.39226 0.18903
 C2643 C 0.80649 0.40109 0.20141
 C2644 C 0.79869 0.41456 0.20721
 C2645 C 0.78427 0.41938 0.20055
 C2646 C 0.77785 0.41060 0.18825
 C2647 C 0.77656 0.43294 0.20623
 C2648 C 0.78311 0.44184 0.21848
 C2649 C 0.79740 0.43686 0.22510
 C2650 C 0.80513 0.42335 0.21951
 H2651 H 0.81760 0.39763 0.20655
 H2652 H 0.76679 0.41413 0.18300
 H2653 H 0.76543 0.43653 0.20116
 H2654 H 0.81619 0.41983 0.22476
 H2655 H 0.78029 0.39066 0.17310
 H2656 H 0.80275 0.44358 0.23444
 C2657 C 0.79125 0.90301 0.68129
 C2658 C 0.80244 0.89499 0.69044
 C2659 C 0.80615 0.90108 0.70521
 C2660 C 0.79884 0.91495 0.71075
 C2661 C 0.78764 0.92289 0.70142
 C2662 C 0.78393 0.91681 0.68672
 C2663 C 0.78042 0.93683 0.70690
 C2664 C 0.78432 0.94303 0.72157
 C2665 C 0.79540 0.93498 0.73079
 C2666 C 0.80257 0.92106 0.72544
 H2667 H 0.81463 0.89503 0.71249
 H2668 H 0.77541 0.92277 0.67939
 H2669 H 0.77202 0.94303 0.69961
 H2670 H 0.81108 0.91510 0.73278
 H2671 H 0.78822 0.89875 0.66982
 H2672 H 0.79844 0.93941 0.74222
 C2673 C 0.71501 0.60053 0.68968
 C2674 C 0.69993 0.60499 0.69488
 C2675 C 0.69254 0.59573 0.70632
 C2676 C 0.70000 0.58217 0.71234
 C2677 C 0.71509 0.57780 0.70690
 C2678 C 0.72251 0.58709 0.69564
 C2679 C 0.72248 0.56416 0.71273
 C2680 C 0.71499 0.55468 0.72391
 C2681 C 0.70003 0.55921 0.72935
 C2682 C 0.69261 0.57283 0.72362
 H2683 H 0.68090 0.59888 0.71043
 H2684 H 0.73409 0.58394 0.69137
 H2685 H 0.73412 0.56096 0.70861
 H2686 H 0.68103 0.57598 0.72792
 H2687 H 0.72114 0.60745 0.68105
 H2688 H 0.69394 0.55205 0.73784
 C2689 C 0.68657 0.10121 0.21052
 C2690 C 0.69344 0.10720 0.19688
 C2691 C 0.70667 0.09932 0.19065
 C2692 C 0.71280 0.08569 0.19783
 C2693 C 0.70569 0.07981 0.21145
 C2694 C 0.69263 0.08768 0.21772
 C2695 C 0.71170 0.06610 0.21855
 C2696 C 0.72474 0.05808 0.21219
 C2697 C 0.73180 0.06411 0.19869
 C2698 C 0.72589 0.07778 0.19157
 H2699 H 0.71220 0.10366 0.18019
 H2700 H 0.68702 0.08334 0.22817
 H2701 H 0.70628 0.06173 0.22909
 H2702 H 0.73149 0.08208 0.18111
 H2703 H 0.67645 0.10689 0.21573
 H2704 H 0.74173 0.05806 0.19344
 C2705 C 0.21151 0.60023 0.18924
 C2706 C 0.19699 0.60554 0.19518
 C2707 C 0.18995 0.59696 0.20733
 C2708 C 0.19721 0.58331 0.21336
 C2709 C 0.21173 0.57809 0.20721
 C2710 C 0.21881 0.58667 0.19520
 C2711 C 0.21890 0.56434 0.21310
 C2712 C 0.21172 0.55564 0.22507
 C2713 C 0.19733 0.56103 0.23120
 C2714 C 0.19015 0.57474 0.22541
 H2715 H 0.17875 0.60072 0.21206
 H2716 H 0.22998 0.58287 0.19037
 H2717 H 0.23011 0.56045 0.20843
 H2718 H 0.17901 0.57856 0.23027
 H2719 H 0.21736 0.60655 0.18000
 H2720 H 0.19146 0.55447 0.24029
 C2721 C 0.21417 0.09496 0.68466
 C2722 C 0.20154 0.10193 0.69280
 C2723 C 0.19650 0.09488 0.70672
 C2724 C 0.20391 0.08116 0.71240
 C2725 C 0.21658 0.07434 0.70410
 C2726 C 0.22160 0.08133 0.69025
 C2727 C 0.22396 0.06059 0.70972
 C2728 C 0.21882 0.05348 0.72355
 C2729 C 0.20621 0.06037 0.73173
 C2730 C 0.19884 0.07409 0.72623
 H2731 H 0.18684 0.10000 0.71322
 H2732 H 0.23127 0.07623 0.68371
 H2733 H 0.23353 0.05528 0.70318
 H2734 H 0.18917 0.07917 0.73278
 H2735 H 0.21837 0.09992 0.67389
 H2736 H 0.20215 0.05522 0.74250
 C2737 C 0.31461 0.59780 0.29002
 C2738 C 0.30603 0.60537 0.30192
 C2739 C 0.29174 0.59859 0.30679
 C2740 C 0.28611 0.58457 0.29984
 C2741 C 0.29485 0.57722 0.28785
 C2742 C 0.30908 0.58392 0.28306
 C2743 C 0.28928 0.56325 0.28086
 C2744 C 0.27508 0.55639 0.28573
 C2745 C 0.26647 0.56375 0.29769
 C2746 C 0.27191 0.57772 0.30466
 H2747 H 0.28494 0.60423 0.31589
 H2748 H 0.31596 0.57839 0.27394
 H2749 H 0.29614 0.55756 0.27181
 H2750 H 0.26501 0.58317 0.31381
 H2751 H 0.32573 0.60247 0.28606
 H2752 H 0.25541 0.55877 0.30154
 C2753 C 0.31080 0.10190 0.78647
 C2754 C 0.30562 0.10604 0.80144
 C2755 C 0.29417 0.09658 0.80871
 C2756 C 0.28854 0.08277 0.80141
 C2757 C 0.29418 0.07852 0.78653
 C2758 C 0.30509 0.08832 0.77905
 C2759 C 0.28902 0.06443 0.77945
 C2760 C 0.27833 0.05439 0.78706
 C2761 C 0.27259 0.05884 0.80175
 C2762 C 0.27763 0.07291 0.80886
 H2763 H 0.29007 0.09964 0.82025
 H2764 H 0.30939 0.08533 0.76757
 H2765 H 0.29335 0.06126 0.76802
 H2766 H 0.27317 0.07596 0.82027
 H2767 H 0.31933 0.10918 0.78048
 H2768 H 0.26444 0.05126 0.80790
 C2769 C 0.81750 0.59662 0.79219
 C2770 C 0.80894 0.60397 0.80422
 C2771 C 0.79468 0.59710 0.80906
 C2772 C 0.78901 0.58322 0.80187
 C2773 C 0.79774 0.57606 0.78975
 C2774 C 0.81196 0.58283 0.78504
 C2775 C 0.79214 0.56222 0.78254
 C2776 C 0.77787 0.55534 0.78722
 C2777 C 0.76925 0.56254 0.79928
 C2778 C 0.77475 0.57637 0.80652
 H2779 H 0.78789 0.60263 0.81826
 H2780 H 0.81881 0.57747 0.77579
 H2781 H 0.79903 0.55666 0.77342
 H2782 H 0.76782 0.58172 0.81572
 H2783 H 0.82861 0.60141 0.78831
 H2784 H 0.75813 0.55758 0.80299
 C2785 C 0.81436 0.10125 0.28594
 C2786 C 0.80830 0.10553 0.30058
 C2787 C 0.79622 0.09627 0.30707
 C2788 C 0.79043 0.08289 0.29916
 C2789 C 0.79677 0.07867 0.28456
 C2790 C 0.80866 0.08797 0.27803
 C2791 C 0.79120 0.06518 0.27676
 C2792 C 0.77938 0.05571 0.28335
 C2793 C 0.77300 0.06009 0.29780
 C2794 C 0.77848 0.07356 0.30564
 H2795 H 0.79143 0.09928 0.31834
 H2796 H 0.81361 0.08495 0.26681
 H2797 H 0.79604 0.06206 0.26550
 H2798 H 0.77346 0.07659 0.31683
 H2799 H 0.82350 0.10816 0.28048
 H2800 H 0.76398 0.05292 0.30318
 C2801 C 0.71347 0.39883 0.31228
 C2802 C 0.69929 0.39284 0.30618
 C2803 C 0.69238 0.40056 0.29340
 C2804 C 0.69938 0.41411 0.28697
 C2805 C 0.71352 0.42005 0.29333
 C2806 C 0.72050 0.41227 0.30592
 C2807 C 0.72039 0.43372 0.28708
 C2808 C 0.71329 0.44163 0.27454
 C2809 C 0.69930 0.43554 0.26819
 C2810 C 0.69240 0.42190 0.27435
 H2811 H 0.68151 0.39620 0.28844
 H2812 H 0.73138 0.41664 0.31092
 H2813 H 0.73130 0.43818 0.29194
 H2814 H 0.68154 0.41753 0.26934
 H2815 H 0.71920 0.39321 0.32203
 H2816 H 0.69352 0.44150 0.25863
 C2817 C 0.71033 0.90289 0.81781
 C2818 C 0.69884 0.89506 0.80885
 C2819 C 0.69487 0.90129 0.79421
 C2820 C 0.70228 0.91505 0.78863
 C2821 C 0.71383 0.92273 0.79776
 C2822 C 0.71774 0.91655 0.81233
 C2823 C 0.72121 0.93650 0.79224
 C2824 C 0.71714 0.94283 0.77770
 C2825 C 0.70567 0.93507 0.76868
 C2826 C 0.69833 0.92131 0.77408
 H2827 H 0.68612 0.89543 0.78708
 H2828 H 0.72650 0.92233 0.81953
 H2829 H 0.72988 0.94248 0.79939
 H2830 H 0.68953 0.91559 0.76688
 H2831 H 0.71360 0.89860 0.82918
 H2832 H 0.70244 0.93960 0.75737
 C2833 C 0.22017 0.39595 0.80475
 C2834 C 0.20396 0.39350 0.80256
 C2835 C 0.19528 0.40466 0.79393
 C2836 C 0.20265 0.41814 0.78774
 C2837 C 0.21893 0.42047 0.79009
 C2838 C 0.22759 0.40927 0.79855
 C2839 C 0.22627 0.43400 0.78404
 C2840 C 0.21755 0.44540 0.77576
 C2841 C 0.20136 0.44291 0.77344
 C2842 C 0.19398 0.42940 0.77934
 H2843 H 0.18276 0.40305 0.79223
 H2844 H 0.24009 0.41084 0.80044
 H2845 H 0.23880 0.43561 0.78572
 H2846 H 0.18148 0.42785 0.77745
 H2847 H 0.22723 0.38751 0.81116
 H2848 H 0.19429 0.45157 0.76730
 C2849 C 0.18638 0.89844 0.28329
 C2850 C 0.19304 0.89372 0.29752
 C2851 C 0.20566 0.90257 0.30365
 C2852 C 0.21139 0.91596 0.29582
 C2853 C 0.20445 0.92062 0.28164
 C2854 C 0.19202 0.91174 0.27545
 C2855 C 0.20996 0.93415 0.27394
 C2856 C 0.22232 0.94319 0.28023
 C2857 C 0.22928 0.93835 0.29425
 C2858 C 0.22386 0.92487 0.30199
 H2859 H 0.21099 0.89922 0.31458
 H2860 H 0.18659 0.91511 0.26456
 H2861 H 0.20465 0.93762 0.26302
 H2862 H 0.22931 0.92150 0.31286
 H2863 H 0.17677 0.89192 0.27811
 H2864 H 0.23873 0.94519 0.29940
 C2865 C 0.39679 0.31544 0.71195
 C2866 C 0.39254 0.30856 0.69764
 C2867 C 0.40152 0.29580 0.69181
 C2868 C 0.41471 0.29023 0.69999
 C2869 C 0.41893 0.29743 0.71424
 C2870 C 0.40982 0.30991 0.72018
 C2871 C 0.43230 0.29217 0.72225
 C2872 C 0.44167 0.27987 0.71618
 C2873 C 0.43726 0.27259 0.70212
 C2874 C 0.42389 0.27773 0.69410
 H2875 H 0.39848 0.29039 0.68079
 H2876 H 0.41284 0.31548 0.73113
 H2877 H 0.43544 0.29769 0.73321
 H2878 H 0.42084 0.27206 0.68320
 H2879 H 0.39003 0.32510 0.71690
 H2880 H 0.44437 0.26317 0.69716
 C2881 C 0.40972 0.79779 0.18097
 C2882 C 0.39852 0.80481 0.19083
 C2883 C 0.40129 0.80517 0.20691
 C2884 C 0.41508 0.79852 0.21309
 C2885 C 0.42637 0.79167 0.20304
 C2886 C 0.42359 0.79138 0.18701
 C2887 C 0.44027 0.78525 0.20918
 C2888 C 0.44299 0.78530 0.22530
 C2889 C 0.43153 0.79193 0.23519
 C2890 C 0.41776 0.79856 0.22914
 H2891 H 0.39262 0.81035 0.21465
 H2892 H 0.43212 0.78618 0.17913
 H2893 H 0.44907 0.78044 0.20137
 H2894 H 0.40918 0.80364 0.23703
 H2895 H 0.40787 0.79746 0.16854
 H2896 H 0.43312 0.79186 0.24766
 C2897 C 0.89769 0.31495 0.21492
 C2898 C 0.89361 0.30752 0.20081
 C2899 C 0.90304 0.29492 0.19531
 C2900 C 0.91637 0.28997 0.20368
 C2901 C 0.92036 0.29768 0.21773
 C2902 C 0.91090 0.31008 0.22327
 C2903 C 0.93381 0.29300 0.22596
 C2904 C 0.94345 0.28067 0.22035
 C2905 C 0.93928 0.27288 0.20648
 C2906 C 0.92587 0.27750 0.19821
 H2907 H 0.90016 0.28901 0.18451
 H2908 H 0.91378 0.31609 0.23405
 H2909 H 0.93677 0.29893 0.23676
 H2910 H 0.92300 0.27141 0.18748
 H2911 H 0.89071 0.32455 0.21966
 H2912 H 0.94657 0.26341 0.20188
 C2913 C 0.89987 0.81248 0.71234
 C2914 C 0.89478 0.80662 0.69788
 C2915 C 0.90339 0.79429 0.69075
 C2916 C 0.91675 0.78786 0.69794
 C2917 C 0.92173 0.79383 0.71247
 C2918 C 0.91321 0.80614 0.71957
 C2919 C 0.93515 0.78738 0.71962
 C2920 C 0.94365 0.77502 0.71242
 C2921 C 0.93853 0.76920 0.69796
 C2922 C 0.92522 0.77556 0.69079
 H2923 H 0.89984 0.78968 0.67955
 H2924 H 0.91684 0.81086 0.73073
 H2925 H 0.93888 0.79187 0.73084
 H2926 H 0.92159 0.77089 0.67961
 H2927 H 0.89348 0.82188 0.71820
 H2928 H 0.94500 0.75987 0.69206
 C2929 C 0.59857 0.31656 0.29336
 C2930 C 0.60530 0.30807 0.30577
 C2931 C 0.59803 0.29392 0.31064
 C2932 C 0.58434 0.28839 0.30323
 C2933 C 0.57780 0.29706 0.29077
 C2934 C 0.58501 0.31112 0.28594
 C2935 C 0.56411 0.29162 0.28339
 C2936 C 0.55674 0.27759 0.28830
 C2937 C 0.56334 0.26901 0.30070
 C2938 C 0.57702 0.27434 0.30807
 H2939 H 0.60299 0.28716 0.32013
 H2940 H 0.58014 0.31794 0.27644
 H2941 H 0.55903 0.29847 0.27400
 H2942 H 0.58186 0.26748 0.31757
 H2943 H 0.60365 0.32754 0.28930
 H2944 H 0.55800 0.25807 0.30459
 C2945 C 0.60190 0.78997 0.80804
 C2946 C 0.60759 0.80462 0.80257
 C2947 C 0.59958 0.81209 0.79024
 C2948 C 0.58599 0.80517 0.78376
 C2949 C 0.58036 0.79061 0.78966
 C2950 C 0.58846 0.78308 0.80169
 C2951 C 0.56664 0.78385 0.78356
 C2952 C 0.55825 0.79141 0.77162
 C2953 C 0.56407 0.80573 0.76556
 C2954 C 0.57780 0.81257 0.77159
 H2955 H 0.60373 0.82333 0.78580
 H2956 H 0.58433 0.77188 0.80630
 H2957 H 0.56245 0.77265 0.78813
 H2958 H 0.58191 0.82371 0.76686
 H2959 H 0.60772 0.78367 0.81732
 H2960 H 0.55779 0.81183 0.75640
 C2961 C 0.09943 0.31966 0.79309
 C2962 C 0.10767 0.31053 0.80407
 C2963 C 0.10191 0.29542 0.80799
 C2964 C 0.08820 0.28948 0.80098
 C2965 C 0.08004 0.29877 0.78995
 C2966 C 0.08574 0.31386 0.78613
 C2967 C 0.06631 0.29285 0.78297
 C2968 C 0.06058 0.27772 0.78687
 C2969 C 0.06886 0.26856 0.79780
 C2970 C 0.08252 0.27437 0.80479
 H2971 H 0.10817 0.28815 0.81631
 H2972 H 0.07960 0.32119 0.77775
 H2973 H 0.05994 0.30013 0.77472
 H2974 H 0.08866 0.26705 0.81317
 H2975 H 0.10345 0.33140 0.78994
 H2976 H 0.06483 0.25678 0.80085
 C2977 C 0.09885 0.78922 0.31288
 C2978 C 0.10421 0.80391 0.30726
 C2979 C 0.09564 0.81148 0.29540
 C2980 C 0.08203 0.80450 0.28922
 C2981 C 0.07679 0.78973 0.29493
 C2982 C 0.08529 0.78219 0.30677
 C2983 C 0.06315 0.78277 0.28871
 C2984 C 0.05469 0.79040 0.27680
 C2985 C 0.06006 0.80510 0.27124
 C2986 C 0.07359 0.81208 0.27739
 H2987 H 0.09942 0.82286 0.29098
 H2988 H 0.08148 0.77083 0.31127
 H2989 H 0.05924 0.77136 0.29299
 H2990 H 0.07742 0.82344 0.27291
 H2991 H 0.10521 0.78302 0.32191
 H2992 H 0.05365 0.81133 0.26226
 C2993 C 0.59910 0.68369 0.71118
 C2994 C 0.60640 0.69188 0.69894
 C2995 C 0.59980 0.70634 0.69393
 C2996 C 0.58613 0.71243 0.70088
 C2997 C 0.57890 0.70406 0.71313
 C2998 C 0.58550 0.68972 0.71821
 C2999 C 0.56511 0.71011 0.71997
 C3000 C 0.55838 0.72435 0.71460
 C3001 C 0.56578 0.73261 0.70249
 C3002 C 0.57953 0.72673 0.69571
 H3003 H 0.60524 0.71294 0.68462
 H3004 H 0.58008 0.68310 0.72754
 H3005 H 0.55942 0.70357 0.72920
 H3006 H 0.58496 0.73334 0.68637
 H3007 H 0.60376 0.67251 0.71530
 H3008 H 0.56096 0.74372 0.69830
 C3009 C 0.60119 0.21519 0.18992
 C3010 C 0.60603 0.20007 0.19500
 C3011 C 0.59732 0.19252 0.20676
 C3012 C 0.58392 0.19984 0.21315
 C3013 C 0.57913 0.21492 0.20777
 C3014 C 0.58789 0.22252 0.19623
 C3015 C 0.56559 0.22213 0.21392
 C3016 C 0.55668 0.21447 0.22541
 C3017 C 0.56165 0.19955 0.23084
 C3018 C 0.57513 0.19228 0.22474
 H3019 H 0.60078 0.18088 0.21083
 H3020 H 0.58442 0.23413 0.19202
 H3021 H 0.56201 0.23374 0.20979
 H3022 H 0.57860 0.18070 0.22900
 H3023 H 0.60767 0.22147 0.18107
 H3024 H 0.55492 0.19332 0.23957
 C3025 C 0.09520 0.68353 0.21115
 C3026 C 0.10346 0.69237 0.20000
 C3027 C 0.09787 0.70754 0.19597
 C3028 C 0.08416 0.71371 0.20274
 C3029 C 0.07586 0.70468 0.21382
 C3030 C 0.08152 0.68963 0.21800
 C3031 C 0.06195 0.71079 0.22036
 C3032 C 0.05620 0.72577 0.21584
 C3033 C 0.06471 0.73469 0.20496
 C3034 C 0.07857 0.72874 0.19849
 H3035 H 0.10415 0.71466 0.18758
 H3036 H 0.07532 0.68252 0.22648
 H3037 H 0.05542 0.70376 0.22866
 H3038 H 0.08485 0.73585 0.19008
 H3039 H 0.09913 0.67179 0.21445
 H3040 H 0.06066 0.74635 0.20148
 C3041 C 0.10059 0.17924 0.71092
 C3042 C 0.10829 0.18861 0.69977
 C3043 C 0.10208 0.20369 0.69623
 C3044 C 0.08846 0.20930 0.70369
 C3045 C 0.08088 0.19974 0.71486
 C3046 C 0.08704 0.18474 0.71837
 C3047 C 0.06721 0.20530 0.72225
 C3048 C 0.06093 0.22030 0.71860
 C3049 C 0.06863 0.22974 0.70753
 C3050 C 0.08227 0.22431 0.70016
 H3051 H 0.10786 0.21115 0.68778
 H3052 H 0.08135 0.17723 0.72686
 H3053 H 0.06129 0.19782 0.73062
 H3054 H 0.08795 0.23184 0.69168
 H3055 H 0.10491 0.16753 0.71383
 H3056 H 0.06415 0.24141 0.70465
 C3057 C 0.39510 0.69568 0.28463
 C3058 C 0.39310 0.69684 0.30078
 C3059 C 0.40452 0.70476 0.30969
 C3060 C 0.41786 0.71131 0.30259
 C3061 C 0.41969 0.71019 0.28633
 C3062 C 0.40822 0.70239 0.27745
 C3063 C 0.43299 0.71679 0.27922
 C3064 C 0.44473 0.72425 0.28817
 C3065 C 0.44281 0.72513 0.30438
 C3066 C 0.42948 0.71882 0.31149
 H3067 H 0.40320 0.70556 0.32218
 H3068 H 0.40944 0.70139 0.26498
 H3069 H 0.43412 0.71619 0.26671
 H3070 H 0.42835 0.71965 0.32399
 H3071 H 0.38641 0.68975 0.27750
 H3072 H 0.45176 0.73048 0.31164
 C3073 C 0.39997 0.18708 0.78867
 C3074 C 0.39398 0.19373 0.80246
 C3075 C 0.40143 0.20717 0.80885
 C3076 C 0.41487 0.21362 0.80182
 C3077 C 0.42092 0.20664 0.78812
 C3078 C 0.41330 0.19348 0.78157
 C3079 C 0.43453 0.21290 0.78125
 C3080 C 0.44219 0.22609 0.78787
 C3081 C 0.43599 0.23299 0.80144
 C3082 C 0.42246 0.22681 0.80835
 H3083 H 0.39703 0.21248 0.81946
 H3084 H 0.41771 0.18806 0.77100
 H3085 H 0.43909 0.20757 0.77070
 H3086 H 0.41801 0.23230 0.81888
 H3087 H 0.39435 0.17694 0.78330
 H3088 H 0.44178 0.24302 0.80687
 C3089 C 0.90188 0.71011 0.81460
 C3090 C 0.89420 0.69799 0.80628
 C3091 C 0.90070 0.69265 0.79220
 C3092 C 0.91465 0.69927 0.78650
 C3093 C 0.92232 0.71138 0.79499
 C3094 C 0.91583 0.71672 0.80902
 C3095 C 0.93636 0.71790 0.78932
 C3096 C 0.94284 0.71245 0.77526
 C3097 C 0.93501 0.70050 0.76686
 C3098 C 0.92104 0.69396 0.77242
 H3099 H 0.89485 0.68345 0.78554
 H3100 H 0.92156 0.72599 0.81570
 H3101 H 0.94237 0.72700 0.79598
 H3102 H 0.91525 0.68476 0.76571
 H3103 H 0.89723 0.71439 0.82554
 H3104 H 0.93961 0.69628 0.75587
 C3105 C 0.90206 0.19002 0.29342
 C3106 C 0.89551 0.19655 0.30704
 C3107 C 0.90269 0.21001 0.31374
 C3108 C 0.91623 0.21667 0.30701
 C3109 C 0.92267 0.20982 0.29343
 C3110 C 0.91547 0.19656 0.28671
 C3111 C 0.93627 0.21626 0.28680
 C3112 C 0.94367 0.22950 0.29354
 C3113 C 0.93710 0.23639 0.30695
 C3114 C 0.92351 0.23002 0.31365
 H3115 H 0.89788 0.21528 0.32419
 H3116 H 0.92024 0.19118 0.27627
 H3117 H 0.94108 0.21099 0.27632
 H3118 H 0.91878 0.23545 0.32407
 H3119 H 0.89692 0.17977 0.28780
 H3120 H 0.94265 0.24653 0.31243
 C3121 C 0.31246 0.28924 0.59789
 C3122 C 0.30389 0.30059 0.60645
 C3123 C 0.28881 0.30501 0.60124
 C3124 C 0.28251 0.29848 0.58762
 C3125 C 0.29128 0.28720 0.57904
 C3126 C 0.30621 0.28260 0.58433
 C3127 C 0.28505 0.28091 0.56523
 C3128 C 0.27025 0.28594 0.55980
 C3129 C 0.26159 0.29704 0.56853
 C3130 C 0.26763 0.30321 0.58234
 H3131 H 0.28189 0.31359 0.60769
 H3132 H 0.31313 0.27399 0.57789
 H3133 H 0.29186 0.27242 0.55851
 H3134 H 0.26071 0.31178 0.58883
 H3135 H 0.32411 0.28561 0.60150
 H3136 H 0.25006 0.30090 0.56469
 C3137 C 0.31210 0.78855 0.09904
 C3138 C 0.30612 0.80295 0.10497
 C3139 C 0.29312 0.81004 0.09756
 C3140 C 0.28631 0.80293 0.08441
 C3141 C 0.29254 0.78854 0.07857
 C3142 C 0.30539 0.78142 0.08600
 C3143 C 0.28588 0.78150 0.06536
 C3144 C 0.27304 0.78865 0.05782
 C3145 C 0.26681 0.80289 0.06379
 C3146 C 0.27339 0.80998 0.07697
 H3147 H 0.28835 0.82115 0.10185
 H3148 H 0.31025 0.77034 0.08171
 H3149 H 0.29062 0.77038 0.06100
 H3150 H 0.26845 0.82103 0.08126
 H3151 H 0.32195 0.78264 0.10449
 H3152 H 0.25703 0.80872 0.05808
 C3153 C 0.81841 0.28344 0.09905
 C3154 C 0.81054 0.29689 0.10498
 C3155 C 0.79692 0.30231 0.09730
 C3156 C 0.79133 0.29455 0.08395
 C3157 C 0.79939 0.28112 0.07813
 C3158 C 0.81289 0.27564 0.08578
 C3159 C 0.79384 0.27341 0.06473
 C3160 C 0.78034 0.27901 0.05698
 C3161 C 0.77239 0.29237 0.06294
 C3162 C 0.77782 0.30006 0.07630
 H3163 H 0.79059 0.31259 0.10158
 H3164 H 0.81923 0.26535 0.08147
 H3165 H 0.79997 0.26300 0.06039
 H3166 H 0.77152 0.31039 0.08057
 H3167 H 0.82891 0.27891 0.10458
 H3168 H 0.76212 0.29708 0.05709
 C3169 C 0.81402 0.78418 0.60238
 C3170 C 0.80783 0.79897 0.60704
 C3171 C 0.79566 0.80584 0.59820
 C3172 C 0.78991 0.79816 0.58488
 C3173 C 0.79637 0.78341 0.58029
 C3174 C 0.80836 0.77649 0.58915
 C3175 C 0.79081 0.77583 0.56687
 C3176 C 0.77885 0.78279 0.55790
 C3177 C 0.77236 0.79739 0.56264
 C3178 C 0.77786 0.80503 0.57600
 H3179 H 0.79072 0.81721 0.60150
 H3180 H 0.81340 0.76514 0.58582
 H3181 H 0.79574 0.76445 0.56344
 H3182 H 0.77277 0.81636 0.57932
 H3183 H 0.82326 0.77843 0.60893
 H3184 H 0.76323 0.80305 0.55582
 C3185 C 0.31089 0.71348 0.39536
 C3186 C 0.30576 0.69811 0.39134
 C3187 C 0.29419 0.69080 0.40057
 C3188 C 0.28809 0.69863 0.41374
 C3189 C 0.29359 0.71396 0.41767
 C3190 C 0.30488 0.72130 0.40836
 C3191 C 0.28782 0.72169 0.43094
 C3192 C 0.27663 0.71433 0.44050
 C3193 C 0.27102 0.69918 0.43638
 C3194 C 0.27671 0.69139 0.42313
 H3195 H 0.29008 0.67897 0.39773
 H3196 H 0.30914 0.73309 0.41116
 H3197 H 0.29205 0.73347 0.43383
 H3198 H 0.27234 0.67965 0.42033
 H3199 H 0.31954 0.71963 0.38846
 H3200 H 0.26249 0.69320 0.44361
 C3201 C 0.30996 0.21185 0.89655
 C3202 C 0.30512 0.19649 0.89219
 C3203 C 0.29366 0.18876 0.90120
 C3204 C 0.28732 0.19618 0.91445
 C3205 C 0.29246 0.21154 0.91874
 C3206 C 0.30369 0.21929 0.90965
 C3207 C 0.28641 0.21885 0.93211
 C3208 C 0.27531 0.21102 0.94142
 C3209 C 0.27005 0.19585 0.93694
 C3210 C 0.27601 0.18849 0.92359
 H3211 H 0.28980 0.17692 0.89811
 H3212 H 0.30770 0.23111 0.91272
 H3213 H 0.29034 0.23067 0.93527
 H3214 H 0.27191 0.17672 0.92049
 H3215 H 0.31857 0.21827 0.88982
 H3216 H 0.26160 0.18952 0.94398
 C3217 C 0.81244 0.71119 0.89790
 C3218 C 0.80561 0.69709 0.89225
 C3219 C 0.79333 0.69005 0.90074
 C3220 C 0.78792 0.69707 0.91459
 C3221 C 0.79494 0.71123 0.92006
 C3222 C 0.80716 0.71818 0.91163
 C3223 C 0.78964 0.71824 0.93388
 C3224 C 0.77737 0.71133 0.94242
 C3225 C 0.77036 0.69731 0.93684
 C3226 C 0.77559 0.69024 0.92305
 H3227 H 0.78787 0.67924 0.89655
 H3228 H 0.81268 0.72902 0.91568
 H3229 H 0.79496 0.72920 0.93790
 H3230 H 0.77001 0.67942 0.91902
 H3231 H 0.82205 0.71682 0.89183
 H3232 H 0.76095 0.69169 0.94325
 C3233 C 0.78895 0.18347 0.40022
 C3234 C 0.80243 0.19120 0.39451
 C3235 C 0.80821 0.20453 0.40263
 C3236 C 0.80075 0.20992 0.41623
 C3237 C 0.78731 0.20192 0.42182
 C3238 C 0.78149 0.18877 0.41370
 C3239 C 0.77991 0.20717 0.43545
 C3240 C 0.78574 0.22034 0.44370
 C3241 C 0.79905 0.22830 0.43799
 C3242 C 0.80650 0.22314 0.42440
 H3243 H 0.81852 0.21072 0.39848
 H3244 H 0.77118 0.18252 0.41781
 H3245 H 0.76950 0.20107 0.43957
 H3246 H 0.81680 0.22942 0.42032
 H3247 H 0.78405 0.17324 0.39438
 H3248 H 0.80388 0.23838 0.44420
 C3249 C 0.70869 0.31277 0.40336
 C3250 C 0.69602 0.30476 0.39629
 C3251 C 0.69043 0.29068 0.40315
 C3252 C 0.69746 0.28474 0.41677
 C3253 C 0.71021 0.29296 0.42359
 C3254 C 0.71571 0.30692 0.41679
 C3255 C 0.71725 0.28715 0.43714
 C3256 C 0.71169 0.27324 0.44422
 C3257 C 0.69905 0.26506 0.43733
 C3258 C 0.69201 0.27074 0.42372
 H3259 H 0.68072 0.28430 0.39793
 H3260 H 0.72544 0.31340 0.42191
 H3261 H 0.72719 0.29342 0.44210
 H3262 H 0.68225 0.26425 0.41869
 H3263 H 0.71325 0.32371 0.39866
 H3264 H 0.69442 0.25439 0.44260
 C3265 C 0.68733 0.78626 0.89883
 C3266 C 0.69404 0.80056 0.89364
 C3267 C 0.70678 0.80703 0.90200
 C3268 C 0.71258 0.79943 0.91533
 C3269 C 0.70559 0.78517 0.92042
 C3270 C 0.69303 0.77866 0.91206
 C3271 C 0.71121 0.77765 0.93383
 C3272 C 0.72376 0.78420 0.94232
 C3273 C 0.73074 0.79833 0.93710
 C3274 C 0.72520 0.80588 0.92373
 H3275 H 0.71218 0.81800 0.89827
 H3276 H 0.68757 0.76769 0.91577
 H3277 H 0.70587 0.76664 0.93759
 H3278 H 0.73072 0.81683 0.92004
 H3279 H 0.67762 0.78081 0.89273
 H3280 H 0.74032 0.80370 0.94352
 C3281 C 0.21079 0.31602 0.90061
 C3282 C 0.19853 0.30771 0.89322
 C3283 C 0.19292 0.29361 0.89996
 C3284 C 0.19963 0.28780 0.91374
 C3285 C 0.21204 0.29622 0.92093
 C3286 C 0.21745 0.31036 0.91433
 C3287 C 0.21889 0.29036 0.93458
 C3288 C 0.21358 0.27610 0.94118
 C3289 C 0.20116 0.26784 0.93399
 C3290 C 0.19425 0.27364 0.92040
 H3291 H 0.18356 0.28700 0.89438
 H3292 H 0.22689 0.31702 0.91974
 H3293 H 0.22826 0.29697 0.94015
 H3294 H 0.18477 0.26700 0.91505
 H3295 H 0.21523 0.32701 0.89586
 H3296 H 0.19694 0.25676 0.93877
 C3297 C 0.20950 0.81984 0.40055
 C3298 C 0.19735 0.81102 0.39352
 C3299 C 0.19272 0.79659 0.40034
 C3300 C 0.20012 0.79105 0.41386
 C3301 C 0.21234 0.80001 0.42072
 C3302 C 0.21691 0.81439 0.41399
 C3303 C 0.21975 0.79447 0.43424
 C3304 C 0.21506 0.78011 0.44107
 C3305 C 0.20288 0.77129 0.43414
 C3306 C 0.19550 0.77669 0.42066
 H3307 H 0.18347 0.78956 0.39512
 H3308 H 0.22622 0.82145 0.41913
 H3309 H 0.22899 0.80147 0.43957
 H3310 H 0.18617 0.76964 0.41554
 H3311 H 0.21328 0.83105 0.39577
 H3312 H 0.19918 0.76010 0.43908
 C3313 C 0.68601 0.71009 0.60094
 C3314 C 0.69287 0.69609 0.60679
 C3315 C 0.70589 0.68950 0.59894
 C3316 C 0.71191 0.69671 0.58554
 C3317 C 0.70486 0.71072 0.57980
 C3318 C 0.69194 0.71732 0.58761
 C3319 C 0.71081 0.71788 0.56635
 C3320 C 0.72376 0.71121 0.55850
 C3321 C 0.73073 0.69731 0.56436
 C3322 C 0.72487 0.69012 0.57775
 H3323 H 0.71138 0.67873 0.60314
 H3324 H 0.68640 0.72808 0.58339
 H3325 H 0.70545 0.72871 0.56207
 H3326 H 0.73041 0.67936 0.58195
 H3327 H 0.67605 0.71558 0.60664
 H3328 H 0.74058 0.69182 0.55843
 C3329 C 0.68747 0.20892 0.09797
 C3330 C 0.69437 0.19548 0.10491
 C3331 C 0.70775 0.18863 0.09787
 C3332 C 0.71402 0.19504 0.08415
 C3333 C 0.70686 0.20849 0.07736
 C3334 C 0.69365 0.21535 0.08438
 C3335 C 0.71297 0.21484 0.06361
 C3336 C 0.72615 0.20790 0.05639
 C3337 C 0.73329 0.19461 0.06330
 C3338 C 0.72729 0.18823 0.07705
 H3339 H 0.71333 0.17832 0.10296
 H3340 H 0.68804 0.22568 0.07933
 H3341 H 0.70752 0.22528 0.05859
 H3342 H 0.73296 0.17791 0.08207
 H3343 H 0.67720 0.21457 0.10293
 H3344 H 0.74337 0.18896 0.05791
 C3345 C 0.18328 0.71405 0.10442
 C3346 C 0.18991 0.69945 0.10898
 C3347 C 0.20226 0.69296 0.10006
 C3348 C 0.20771 0.70083 0.08673
 C3349 C 0.20075 0.71537 0.08226
 C3350 C 0.18862 0.72190 0.09121
 C3351 C 0.20595 0.72312 0.06884
 C3352 C 0.21802 0.71655 0.05970
 C3353 C 0.22503 0.70218 0.06434
 C3354 C 0.21992 0.69438 0.07772
 H3355 H 0.20754 0.68174 0.10330
 H3356 H 0.18319 0.73307 0.08797
 H3357 H 0.20062 0.73432 0.06553
 H3358 H 0.22541 0.68324 0.08095
 H3359 H 0.17393 0.71956 0.11102
 H3360 H 0.23426 0.69679 0.05742
 C3361 C 0.21005 0.19014 0.60160
 C3362 C 0.19550 0.19528 0.60764
 C3363 C 0.18732 0.20751 0.59995
 C3364 C 0.19347 0.21432 0.58637
 C3365 C 0.20798 0.20884 0.58039
 C3366 C 0.21620 0.19683 0.58813
 C3367 C 0.21401 0.21538 0.56670
 C3368 C 0.20575 0.22735 0.55880
 C3369 C 0.19143 0.23291 0.56493
 C3370 C 0.18532 0.22643 0.57859
 H3371 H 0.17611 0.21166 0.60434
 H3372 H 0.22739 0.19255 0.58374
 H3373 H 0.22521 0.21119 0.56223
 H3374 H 0.17418 0.23080 0.58298
 H3375 H 0.21681 0.18092 0.60723
 H3376 H 0.18480 0.24205 0.55899
   
