data_POSCAR
  _audit_creation_date              2014-09-24
  _audit_creation_method            'ToBaCCo'
  _symmetry_space_group_name_H-M    'P1'
  _symmetry_Int_Tables_number       1
  _symmetry_cell_setting            triclinic
  loop_
  _symmetry_equiv_pos_as_xyz
 x,y,z
_cell_length_a 101.8578
_cell_length_b 101.9549
_cell_length_c 102.7597
_cell_angle_alpha 90.000100
_cell_angle_beta 89.977500
_cell_angle_gamma 89.952300
loop_
  _atom_site_label
  _atom_site_type_symbol
  _atom_site_fract_x
  _atom_site_fract_y
  _atom_site_fract_z
C1 C 0.35483 0.33582 0.34656
 C2 C 0.34513 0.33594 0.35625
 C3 C 0.33552 0.34557 0.35619
 C4 C 0.33549 0.35519 0.34643
 C5 C 0.34507 0.35507 0.33686
 C6 C 0.35480 0.34533 0.33692
 C7 C 0.36505 0.32738 0.34393
 N8 N 0.37114 0.33160 0.33299
 C9 C 0.36501 0.34251 0.32858
 C10 C 0.34235 0.36522 0.32843
 N11 N 0.33140 0.37141 0.33273
 C12 C 0.32709 0.36541 0.34368
 C13 C 0.32716 0.34301 0.36641
 N14 N 0.33153 0.33212 0.37259
 C15 C 0.34246 0.32767 0.36651
 H16 H 0.36773 0.31871 0.34941
 H17 H 0.36765 0.34785 0.31985
 H18 H 0.34775 0.36778 0.31972
 H19 H 0.31838 0.36815 0.34909
 H20 H 0.31845 0.34850 0.36904
 H21 H 0.34791 0.31897 0.36923
 C22 C 0.35562 0.83613 -0.15386
 C23 C 0.34592 0.83629 -0.14418
 C24 C 0.33637 0.84598 -0.14422
 C25 C 0.33641 0.85563 -0.15394
 C26 C 0.34601 0.85548 -0.16351
 C27 C 0.35567 0.84567 -0.16347
 C28 C 0.36580 0.82763 -0.15650
 N29 N 0.37193 0.83186 -0.16742
 C30 C 0.36587 0.84283 -0.17181
 C31 C 0.34337 0.86568 -0.17190
 N32 N 0.33247 0.87193 -0.16758
 C33 C 0.32808 0.86593 -0.15666
 C34 C 0.32799 0.84343 -0.13401
 N35 N 0.33229 0.83249 -0.12786
 C36 C 0.34320 0.82800 -0.13395
 H37 H 0.36841 0.81893 -0.15104
 H38 H 0.36855 0.84819 -0.18052
 H39 H 0.34882 0.86823 -0.18059
 H40 H 0.31939 0.86870 -0.15124
 H41 H 0.31931 0.84896 -0.13136
 H42 H 0.34859 0.81926 -0.13125
 C43 C 0.85516 0.33613 -0.15411
 C44 C 0.84556 0.33619 -0.14433
 C45 C 0.83593 0.34580 -0.14424
 C46 C 0.83578 0.35547 -0.15394
 C47 C 0.84527 0.35542 -0.16362
 C48 C 0.85501 0.34570 -0.16370
 C49 C 0.86538 0.32773 -0.15688
 N50 N 0.87136 0.33204 -0.16785
 C51 C 0.86516 0.34296 -0.17215
 C52 C 0.84246 0.36563 -0.17194
 N53 N 0.83156 0.37178 -0.16748
 C54 C 0.82735 0.36571 -0.15653
 C55 C 0.82770 0.34317 -0.13393
 N56 N 0.83215 0.33226 -0.12785
 C57 C 0.84302 0.32787 -0.13407
 H58 H 0.86813 0.31904 -0.15145
 H59 H 0.86770 0.34837 -0.18087
 H60 H 0.84779 0.36826 -0.18068
 H61 H 0.81870 0.36841 -0.15100
 H62 H 0.81901 0.34863 -0.13118
 H63 H 0.84852 0.31917 -0.13145
 C64 C 0.85525 0.83629 0.34596
 C65 C 0.84554 0.83637 0.35563
 C66 C 0.83594 0.84602 0.35562
 C67 C 0.83594 0.85570 0.34593
 C68 C 0.84554 0.85562 0.33636
 C69 C 0.85525 0.84586 0.33638
 C70 C 0.86547 0.82786 0.34331
 N71 N 0.87159 0.83215 0.33241
 C72 C 0.86548 0.84310 0.32804
 C73 C 0.84287 0.86584 0.32801
 N74 N 0.83194 0.87203 0.33234
 C75 C 0.82757 0.86597 0.34324
 C76 C 0.82758 0.84341 0.36583
 N77 N 0.83193 0.83248 0.37195
 C78 C 0.84286 0.82806 0.36585
 H79 H 0.86813 0.81915 0.34875
 H80 H 0.86814 0.84850 0.31935
 H81 H 0.84832 0.86845 0.31933
 H82 H 0.81887 0.86870 0.34867
 H83 H 0.81888 0.84890 0.36850
 H84 H 0.84830 0.81934 0.36854
 C85 C 0.64454 0.66424 0.34576
 C86 C 0.65420 0.66410 0.35547
 C87 C 0.66377 0.65443 0.35546
 C88 C 0.66379 0.64478 0.34574
 C89 C 0.65423 0.64492 0.33614
 C90 C 0.64455 0.65471 0.33615
 C91 C 0.63434 0.67270 0.34310
 N92 N 0.62825 0.66846 0.33217
 C93 C 0.63436 0.65751 0.32780
 C94 C 0.65691 0.63471 0.32777
 N95 N 0.66779 0.62846 0.33212
 C96 C 0.67212 0.63448 0.34305
 C97 C 0.67208 0.65698 0.36572
 N98 N 0.66773 0.66790 0.37186
 C99 C 0.65685 0.67237 0.36573
 H100 H 0.63166 0.68139 0.34855
 H101 H 0.63171 0.65215 0.31909
 H102 H 0.65149 0.63213 0.31908
 H103 H 0.68079 0.63170 0.34850
 H104 H 0.68075 0.65145 0.36841
 H105 H 0.65141 0.68109 0.36843
 C106 C 0.64517 0.16419 -0.15473
 C107 C 0.65491 0.16414 -0.14509
 C108 C 0.66450 0.15449 -0.14510
 C109 C 0.66447 0.14478 -0.15476
 C110 C 0.65485 0.14483 -0.16430
 C111 C 0.64514 0.15459 -0.16428
 C112 C 0.63491 0.17259 -0.15736
 N113 N 0.62875 0.16824 -0.16821
 C114 C 0.63486 0.15729 -0.17257
 C115 C 0.65748 0.13455 -0.17260
 N116 N 0.66840 0.12836 -0.16827
 C117 C 0.67280 0.13447 -0.15741
 C118 C 0.67286 0.15710 -0.13491
 N119 N 0.66853 0.16804 -0.12879
 C120 C 0.65760 0.17247 -0.13488
 H121 H 0.63224 0.18129 -0.15191
 H122 H 0.63216 0.15183 -0.18120
 H123 H 0.65199 0.13189 -0.18124
 H124 H 0.68150 0.13174 -0.15199
 H125 H 0.68155 0.15160 -0.13224
 H126 H 0.65216 0.18119 -0.13219
 C127 C 0.14456 0.66392 -0.15469
 C128 C 0.15428 0.66385 -0.14502
 C129 C 0.16387 0.65419 -0.14504
 C130 C 0.16385 0.64450 -0.15472
 C131 C 0.15425 0.64457 -0.16428
 C132 C 0.14454 0.65433 -0.16426
 C133 C 0.13430 0.67233 -0.15731
 N134 N 0.12816 0.66801 -0.16818
 C135 C 0.13428 0.65706 -0.17256
 C136 C 0.15689 0.63431 -0.17260
 N137 N 0.16781 0.62811 -0.16826
 C138 C 0.17219 0.63420 -0.15738
 C139 C 0.17222 0.65679 -0.13483
 N140 N 0.16788 0.66772 -0.12871
 C141 C 0.15696 0.67216 -0.13480
 H142 H 0.13163 0.68102 -0.15185
 H143 H 0.13159 0.65163 -0.18121
 H144 H 0.15142 0.63167 -0.18125
 H145 H 0.18088 0.63147 -0.15195
 H146 H 0.18091 0.65128 -0.13217
 H147 H 0.15151 0.68087 -0.13210
 C148 C 0.14510 0.16442 0.34561
 C149 C 0.15473 0.16437 0.35535
 C150 C 0.16440 0.15479 0.35537
 C151 C 0.16454 0.14515 0.34563
 C152 C 0.15502 0.14520 0.33600
 C153 C 0.14524 0.15489 0.33599
 C154 C 0.13479 0.17276 0.34295
 N155 N 0.12877 0.16844 0.33201
 C156 C 0.13502 0.15757 0.32763
 C157 C 0.15779 0.13500 0.32766
 N158 N 0.16871 0.12884 0.33206
 C159 C 0.17297 0.13491 0.34300
 C160 C 0.17262 0.15738 0.36568
 N161 N 0.16813 0.16823 0.37184
 C162 C 0.15724 0.17263 0.36566
 H163 H 0.13199 0.18139 0.34844
 H164 H 0.13243 0.15215 0.31893
 H165 H 0.15240 0.13236 0.31896
 H166 H 0.18162 0.13219 0.34850
 H167 H 0.18132 0.15191 0.36841
 H168 H 0.15169 0.18127 0.36837
 C169 C 0.64477 0.33605 0.65376
 C170 C 0.65453 0.33614 0.64412
 C171 C 0.66408 0.34580 0.64417
 C172 C 0.66401 0.35549 0.65386
 C173 C 0.65437 0.35540 0.66338
 C174 C 0.64470 0.34563 0.66333
 C175 C 0.63454 0.32762 0.65637
 N176 N 0.62836 0.33192 0.66723
 C177 C 0.63443 0.34287 0.67161
 C178 C 0.65697 0.36565 0.67172
 N179 N 0.66789 0.37186 0.66743
 C180 C 0.67231 0.36579 0.65656
 C181 C 0.67249 0.34322 0.63399
 N182 N 0.66821 0.33228 0.62785
 C183 C 0.65728 0.32783 0.63391
 H184 H 0.63191 0.31892 0.65093
 H185 H 0.63169 0.34829 0.68026
 H186 H 0.65148 0.36827 0.68036
 H187 H 0.68102 0.36854 0.65117
 H188 H 0.68118 0.34873 0.63136
 H189 H 0.65188 0.31910 0.63120
 C190 C 0.64421 0.83616 1.15358
 C191 C 0.65400 0.83627 1.14398
 C192 C 0.66360 0.84590 1.14413
 C193 C 0.66353 0.85552 1.15388
 C194 C 0.65385 0.85541 1.16337
 C195 C 0.64414 0.84568 1.16322
 C196 C 0.63395 0.82774 1.15611
 N197 N 0.62775 0.83199 1.16698
 C198 C 0.63384 0.84290 1.17146
 C199 C 0.65648 0.86558 1.17180
 N200 N 0.66744 0.87177 1.16759
 C201 C 0.67188 0.86575 1.15669
 C202 C 0.67205 0.84334 1.13398
 N203 N 0.66775 0.83245 1.12775
 C204 C 0.65677 0.82801 1.13374
 H205 H 0.63133 0.81907 1.15060
 H206 H 0.63112 0.84826 1.18015
 H207 H 0.65097 0.86816 1.18044
 H208 H 0.68062 0.86850 1.15136
 H209 H 0.68077 0.84883 1.13142
 H210 H 0.65135 0.81931 1.13096
 C211 C 0.14440 0.33582 1.15383
 C212 C 0.15415 0.33595 1.14418
 C213 C 0.16369 0.34563 1.14425
 C214 C 0.16360 0.35529 1.15396
 C215 C 0.15397 0.35516 1.16349
 C216 C 0.14432 0.34537 1.16342
 C217 C 0.13420 0.32734 1.15643
 N218 N 0.12803 0.33160 1.16731
 C219 C 0.13407 0.34257 1.17172
 C220 C 0.15657 0.36538 1.17187
 N221 N 0.16748 0.37162 1.16759
 C222 C 0.17190 0.36559 1.15669
 C223 C 0.17211 0.34307 1.13407
 N224 N 0.16784 0.33213 1.12791
 C225 C 0.15691 0.32766 1.13396
 H226 H 0.13161 0.31864 1.15096
 H227 H 0.13135 0.34795 1.18040
 H228 H 0.15109 0.36796 1.18053
 H229 H 0.18061 0.36836 1.15131
 H230 H 0.18079 0.34860 1.13145
 H231 H 0.15153 0.31892 1.13125
 C232 C 0.14503 0.83615 0.65371
 C233 C 0.15476 0.83631 0.64405
 C234 C 0.16435 0.84595 0.64418
 C235 C 0.16433 0.85553 0.65397
 C236 C 0.15471 0.85536 0.66352
 C237 C 0.14501 0.84562 0.66339
 C238 C 0.13479 0.82772 0.65626
 N239 N 0.12864 0.83190 0.66718
 C240 C 0.13476 0.84279 0.67166
 C241 C 0.15737 0.86550 0.67198
 N242 N 0.16830 0.87172 0.66773
 C243 C 0.17269 0.86576 0.65677
 C244 C 0.17273 0.84343 0.63396
 N245 N 0.16840 0.83257 0.62772
 C246 C 0.15746 0.82810 0.63375
 H247 H 0.13213 0.81908 0.65073
 H248 H 0.13206 0.84811 0.68039
 H249 H 0.15190 0.86803 0.68067
 H250 H 0.18140 0.86853 0.65139
 H251 H 0.18144 0.84894 0.63138
 H252 H 0.15204 0.81941 0.63097
 C253 C 0.35532 0.66390 0.65385
 C254 C 0.34569 0.66389 0.64410
 C255 C 0.33606 0.65430 0.64402
 C256 C 0.33594 0.64460 0.65369
 C257 C 0.34546 0.64461 0.66333
 C258 C 0.35520 0.65431 0.66341
 C259 C 0.36555 0.67227 0.65660
 N260 N 0.37156 0.66794 0.66753
 C261 C 0.36537 0.65701 0.67182
 C262 C 0.34266 0.63438 0.67164
 N263 N 0.33175 0.62826 0.66722
 C264 C 0.32751 0.63438 0.65630
 C265 C 0.32778 0.65699 0.63376
 N266 N 0.33223 0.66792 0.62770
 C267 C 0.34312 0.67226 0.63389
 H268 H 0.36829 0.68097 0.65120
 H269 H 0.36795 0.65159 0.68052
 H270 H 0.34802 0.63171 0.68035
 H271 H 0.31885 0.63170 0.65081
 H272 H 0.31908 0.65156 0.63103
 H273 H 0.34861 0.68096 0.63128
 C274 C 0.35579 0.16368 1.15392
 C275 C 0.34619 0.16370 1.14413
 C276 C 0.33657 0.15410 1.14399
 C277 C 0.33642 0.14436 1.15363
 C278 C 0.34590 0.14435 1.16330
 C279 C 0.35564 0.15406 1.16344
 C280 C 0.36600 0.17205 1.15674
 N281 N 0.37197 0.16769 1.16769
 C282 C 0.36577 0.15674 1.17191
 C283 C 0.34309 0.13410 1.17158
 N284 N 0.33219 0.12799 1.16709
 C285 C 0.32798 0.13413 1.15617
 C286 C 0.32833 0.15681 1.13371
 N287 N 0.33278 0.16776 1.12770
 C288 C 0.34365 0.17209 1.13394
 H289 H 0.36875 0.18078 1.15139
 H290 H 0.36831 0.15129 1.18060
 H291 H 0.34843 0.13142 1.18030
 H292 H 0.31933 0.13147 1.15064
 H293 H 0.31964 0.15139 1.13093
 H294 H 0.34915 0.18081 1.13137
 C295 C 0.85558 0.66403 1.15428
 C296 C 0.84599 0.66397 1.14448
 C297 C 0.83642 0.65433 1.14436
 C298 C 0.83631 0.64462 1.15403
 C299 C 0.84579 0.64468 1.16371
 C300 C 0.85547 0.65444 1.16383
 C301 C 0.86575 0.67246 1.15708
 N302 N 0.87173 0.66816 1.16804
 C303 C 0.86559 0.65720 1.17229
 C304 C 0.84301 0.63444 1.17201
 N305 N 0.83215 0.62826 1.16754
 C306 C 0.82793 0.63435 1.15660
 C307 C 0.82817 0.65696 1.13407
 N308 N 0.83258 0.66791 1.12803
 C309 C 0.84342 0.67232 1.13426
 H310 H 0.86846 0.68118 1.15170
 H311 H 0.86815 0.65179 1.18100
 H312 H 0.84834 0.63180 1.18074
 H313 H 0.81931 0.63163 1.15107
 H314 H 0.81951 0.65148 1.13129
 H315 H 0.84887 0.68106 1.13167
 C316 C 0.85593 0.16380 0.65445
 C317 C 0.84632 0.16384 0.64468
 C318 C 0.83669 0.15426 0.64454
 C319 C 0.83655 0.14450 0.65416
 C320 C 0.84605 0.14445 0.66381
 C321 C 0.85580 0.15416 0.66396
 C322 C 0.86617 0.17215 0.65725
 N323 N 0.87216 0.16774 0.66818
 C324 C 0.86595 0.15679 0.67241
 C325 C 0.84324 0.13419 0.67206
 N326 N 0.83233 0.12809 0.66759
 C327 C 0.82812 0.13426 0.65670
 C328 C 0.82844 0.15699 0.63427
 N329 N 0.83289 0.16794 0.62827
 C330 C 0.84378 0.17225 0.63450
 H331 H 0.86892 0.18087 0.65190
 H332 H 0.86850 0.15130 0.68107
 H333 H 0.84858 0.13147 0.68076
 H334 H 0.81946 0.13161 0.65118
 H335 H 0.81974 0.15157 0.63149
 H336 H 0.84927 0.18096 0.63194
 C337 C 0.33610 0.35528 0.65408
 C338 C 0.33610 0.34563 0.64434
 C339 C 0.34565 0.33595 0.64432
 C340 C 0.35532 0.33579 0.65403
 C341 C 0.35532 0.34532 0.66365
 C342 C 0.34565 0.35512 0.66367
 C343 C 0.32775 0.36556 0.65679
 N344 N 0.33208 0.37155 0.66774
 C345 C 0.34297 0.36530 0.67207
 C346 C 0.36550 0.34248 0.67201
 N347 N 0.37159 0.33152 0.66764
 C348 C 0.36550 0.32731 0.65669
 C349 C 0.34297 0.32768 0.63407
 N350 N 0.33208 0.33216 0.62796
 C351 C 0.32776 0.34309 0.63410
 H352 H 0.31907 0.36834 0.65137
 H353 H 0.34837 0.36785 0.68078
 H354 H 0.36815 0.34782 0.68072
 H355 H 0.36815 0.31861 0.65124
 H356 H 0.34838 0.31894 0.63137
 H357 H 0.31908 0.34863 0.63144
 C358 C 0.33538 0.85561 0.15330
 C359 C 0.33544 0.84595 0.14359
 C360 C 0.34505 0.83633 0.14359
 C361 C 0.35472 0.83625 0.15330
 C362 C 0.35466 0.84579 0.16290
 C363 C 0.34494 0.85554 0.16290
 C364 C 0.32697 0.86585 0.15599
 N365 N 0.33126 0.87189 0.16693
 C366 C 0.34218 0.86572 0.17127
 C367 C 0.36486 0.84302 0.17127
 N368 N 0.37101 0.83209 0.16691
 C369 C 0.36494 0.82783 0.15598
 C370 C 0.34242 0.82802 0.13335
 N371 N 0.33151 0.83243 0.12723
 C372 C 0.32712 0.84334 0.13336
 H373 H 0.31828 0.86856 0.15056
 H374 H 0.34757 0.86833 0.17998
 H375 H 0.36747 0.84840 0.17998
 H376 H 0.36764 0.81913 0.15054
 H377 H 0.34788 0.81931 0.13068
 H378 H 0.31841 0.84882 0.13068
 C379 C 0.83609 0.35495 0.15386
 C380 C 0.83614 0.34529 0.14414
 C381 C 0.84576 0.33567 0.14412
 C382 C 0.85544 0.33559 0.15382
 C383 C 0.85539 0.34514 0.16342
 C384 C 0.84566 0.35487 0.16345
 C385 C 0.82768 0.36518 0.15657
 N386 N 0.83197 0.37122 0.16750
 C387 C 0.84291 0.36505 0.17183
 C388 C 0.86559 0.34236 0.17178
 N389 N 0.87174 0.33143 0.16742
 C390 C 0.86566 0.32717 0.15649
 C391 C 0.84311 0.32736 0.13389
 N392 N 0.83218 0.33177 0.12779
 C393 C 0.82780 0.34268 0.13392
 H394 H 0.81897 0.36789 0.15116
 H395 H 0.84831 0.36765 0.18053
 H396 H 0.86821 0.34773 0.18049
 H397 H 0.86836 0.31848 0.15105
 H398 H 0.84857 0.31866 0.13121
 H399 H 0.81909 0.34815 0.13126
 C400 C 0.83598 0.85528 0.65358
 C401 C 0.83612 0.84565 0.64384
 C402 C 0.84575 0.83605 0.64386
 C403 C 0.85537 0.83597 0.65362
 C404 C 0.85523 0.84548 0.66325
 C405 C 0.84548 0.85520 0.66323
 C406 C 0.82752 0.86548 0.65625
 N407 N 0.83172 0.87150 0.66723
 C408 C 0.84265 0.86535 0.67162
 C409 C 0.86538 0.84271 0.67167
 N410 N 0.87158 0.83181 0.66732
 C411 C 0.86559 0.82756 0.65634
 C412 C 0.84320 0.82776 0.63359
 N413 N 0.83230 0.83216 0.62743
 C414 C 0.82785 0.84304 0.63356
 H415 H 0.81885 0.86819 0.65078
 H416 H 0.84797 0.86794 0.68037
 H417 H 0.86793 0.84807 0.68041
 H418 H 0.86835 0.81889 0.65090
 H419 H 0.84869 0.81906 0.63092
 H420 H 0.81914 0.84850 0.63086
 C421 C 0.66449 0.64506 0.65426
 C422 C 0.66432 0.65475 0.64457
 C423 C 0.65461 0.66427 0.64462
 C424 C 0.64495 0.66423 0.65434
 C425 C 0.64512 0.65465 0.66392
 C426 C 0.65494 0.64501 0.66387
 C427 C 0.67297 0.63487 0.65688
 N428 N 0.66874 0.62873 0.66779
 C429 C 0.65777 0.63480 0.67218
 C430 C 0.63488 0.65726 0.67228
 N431 N 0.62859 0.66812 0.66796
 C432 C 0.63461 0.67250 0.65704
 C433 C 0.65711 0.67261 0.63437
 N434 N 0.66805 0.66832 0.62820
 C435 C 0.67258 0.65745 0.63430
 H436 H 0.68167 0.63223 0.65140
 H437 H 0.65240 0.63209 0.68087
 H438 H 0.63230 0.65180 0.68096
 H439 H 0.63178 0.68116 0.65162
 H440 H 0.65154 0.68126 0.63171
 H441 H 0.68132 0.65205 0.63158
 C442 C 0.66397 0.14445 0.15382
 C443 C 0.66392 0.15411 0.14411
 C444 C 0.65435 0.16377 0.14413
 C445 C 0.64470 0.16389 0.15387
 C446 C 0.64474 0.15434 0.16347
 C447 C 0.65443 0.14456 0.16345
 C448 C 0.67232 0.13416 0.15647
 N449 N 0.66802 0.12812 0.16740
 C450 C 0.65714 0.13434 0.17179
 C451 C 0.63456 0.15713 0.17185
 N452 N 0.62843 0.16808 0.16751
 C453 C 0.63450 0.17233 0.15657
 C454 C 0.65697 0.17205 0.13387
 N455 N 0.66784 0.16759 0.12770
 C456 C 0.67221 0.15666 0.13383
 H457 H 0.68097 0.13138 0.15099
 H458 H 0.65175 0.13175 0.18050
 H459 H 0.63193 0.15175 0.18056
 H460 H 0.63180 0.18102 0.15113
 H461 H 0.65152 0.18077 0.13119
 H462 H 0.68088 0.15114 0.13111
 C463 C 0.16408 0.64520 0.15415
 C464 C 0.16403 0.65485 0.14443
 C465 C 0.15444 0.66450 0.14443
 C466 C 0.14478 0.66461 0.15416
 C467 C 0.14483 0.65507 0.16377
 C468 C 0.15453 0.64531 0.16376
 C469 C 0.17242 0.63490 0.15679
 N470 N 0.16810 0.62885 0.16772
 C471 C 0.15722 0.63508 0.17210
 C472 C 0.13461 0.65783 0.17211
 N473 N 0.12845 0.66875 0.16774
 C474 C 0.13453 0.67302 0.15681
 C475 C 0.15704 0.67275 0.13414
 N476 N 0.16791 0.66829 0.12798
 C477 C 0.17231 0.65739 0.13413
 H478 H 0.18106 0.63212 0.15131
 H479 H 0.15180 0.63246 0.18079
 H480 H 0.13195 0.65244 0.18080
 H481 H 0.13181 0.68168 0.15134
 H482 H 0.15157 0.68145 0.13144
 H483 H 0.18097 0.65187 0.13142
 C484 C 0.16360 0.14408 0.65438
 C485 C 0.16358 0.15390 0.64482
 C486 C 0.15397 0.16352 0.64493
 C487 C 0.14425 0.16344 0.65460
 C488 C 0.14427 0.15374 0.66405
 C489 C 0.15400 0.14400 0.66394
 C490 C 0.17199 0.13380 0.65694
 N491 N 0.16766 0.12758 0.66775
 C492 C 0.15671 0.13368 0.67215
 C493 C 0.13403 0.15636 0.67241
 N494 N 0.12789 0.16735 0.66821
 C495 C 0.13400 0.17180 0.65737
 C496 C 0.15664 0.17199 0.63483
 N497 N 0.16759 0.16768 0.62869
 C498 C 0.17196 0.15667 0.63466
 H499 H 0.18071 0.13117 0.65149
 H500 H 0.15127 0.13093 0.68079
 H501 H 0.13137 0.15083 0.68102
 H502 H 0.13131 0.18057 0.65206
 H503 H 0.15120 0.18074 0.63227
 H504 H 0.18068 0.15124 0.63194
 C505 C 0.33615 0.64457 0.34572
 C506 C 0.33622 0.65427 0.35539
 C507 C 0.34582 0.66390 0.35532
 C508 C 0.35546 0.66393 0.34557
 C509 C 0.35539 0.65434 0.33602
 C510 C 0.34568 0.64460 0.33609
 C511 C 0.32777 0.63430 0.34312
 N512 N 0.33205 0.62819 0.33221
 C513 C 0.34294 0.63436 0.32779
 C514 C 0.36557 0.65704 0.32762
 N515 N 0.37174 0.66798 0.33191
 C516 C 0.36570 0.67231 0.34283
 C517 C 0.34323 0.67223 0.36555
 N518 N 0.33235 0.66784 0.37174
 C519 C 0.32794 0.65691 0.36566
 H520 H 0.31911 0.63159 0.34862
 H521 H 0.34833 0.63170 0.31910
 H522 H 0.36819 0.65161 0.31894
 H523 H 0.36842 0.68101 0.34824
 H524 H 0.34870 0.68094 0.36819
 H525 H 0.31927 0.65143 0.36840
 C526 C 0.33596 0.14435 0.84592
 C527 C 0.33604 0.15402 0.85562
 C528 C 0.34571 0.16357 0.85565
 C529 C 0.35543 0.16356 0.84598
 C530 C 0.35535 0.15400 0.83639
 C531 C 0.34556 0.14434 0.83636
 C532 C 0.32752 0.13415 0.84323
 N533 N 0.33184 0.12805 0.83233
 C534 C 0.34281 0.13414 0.82801
 C535 C 0.36563 0.15665 0.82808
 N536 N 0.37184 0.16753 0.83246
 C537 C 0.36575 0.17187 0.84335
 C538 C 0.34311 0.17189 0.86589
 N539 N 0.33215 0.16756 0.87199
 C540 C 0.32770 0.15669 0.86585
 H541 H 0.31880 0.13149 0.84865
 H542 H 0.34824 0.13146 0.81934
 H543 H 0.36827 0.15123 0.81941
 H544 H 0.36850 0.18052 0.84881
 H545 H 0.34863 0.18054 0.86860
 H546 H 0.31896 0.15128 0.86851
 C547 C 0.83640 0.64431 0.84642
 C548 C 0.83648 0.65404 0.85605
 C549 C 0.84606 0.66369 0.85591
 C550 C 0.85567 0.66371 0.84614
 C551 C 0.85559 0.65409 0.83662
 C552 C 0.84590 0.64433 0.83676
 C553 C 0.82803 0.63401 0.84388
 N554 N 0.83229 0.62788 0.83297
 C555 C 0.84315 0.63405 0.82850
 C556 C 0.86573 0.65680 0.82817
 N557 N 0.87187 0.66777 0.83239
 C558 C 0.86586 0.67212 0.84333
 C559 C 0.84347 0.67207 0.86611
 N560 N 0.83262 0.66767 0.87235
 C561 C 0.82822 0.65671 0.86634
 H562 H 0.81939 0.63131 0.84940
 H563 H 0.84851 0.63138 0.81979
 H564 H 0.86832 0.65135 0.81949
 H565 H 0.86857 0.68086 0.84868
 H566 H 0.84892 0.68080 0.86870
 H567 H 0.81956 0.65123 0.86912
 C568 C 0.83642 0.14432 0.34620
 C569 C 0.83658 0.15399 0.35590
 C570 C 0.84626 0.16354 0.35584
 C571 C 0.85589 0.16353 0.34609
 C572 C 0.85573 0.15397 0.33650
 C573 C 0.84594 0.14431 0.33656
 C574 C 0.82795 0.13413 0.34358
 N575 N 0.83216 0.12803 0.33264
 C576 C 0.84310 0.13412 0.32823
 C577 C 0.86591 0.15662 0.32809
 N578 N 0.87216 0.16751 0.33240
 C579 C 0.86617 0.17185 0.34335
 C580 C 0.84373 0.17187 0.36609
 N581 N 0.83282 0.16755 0.37228
 C582 C 0.82833 0.15667 0.36618
 H583 H 0.81927 0.13148 0.34906
 H584 H 0.84845 0.13145 0.31951
 H585 H 0.86846 0.15120 0.31939
 H586 H 0.86896 0.18052 0.34877
 H587 H 0.84927 0.18053 0.36874
 H588 H 0.81961 0.15126 0.36891
 C589 C 0.66404 0.35543 0.34641
 C590 C 0.66414 0.34580 0.35614
 C591 C 0.65456 0.33616 0.35630
 C592 C 0.64476 0.33604 0.34672
 C593 C 0.64466 0.34556 0.33709
 C594 C 0.65436 0.35531 0.33694
 C595 C 0.67238 0.36568 0.34358
 N596 N 0.66793 0.37169 0.33269
 C597 C 0.65696 0.36548 0.32851
 C598 C 0.63437 0.34276 0.32887
 N599 N 0.62830 0.33183 0.33333
 C600 C 0.63452 0.32760 0.34419
 C601 C 0.65736 0.32788 0.36652
 N602 N 0.66834 0.33232 0.37249
 C603 C 0.67261 0.34323 0.36628
 H604 H 0.68113 0.36842 0.34889
 H605 H 0.65145 0.36805 0.31987
 H606 H 0.63162 0.34812 0.32019
 H607 H 0.63192 0.31892 0.34968
 H608 H 0.65196 0.31917 0.36929
 H609 H 0.68133 0.34872 0.36882
 C610 C 0.66367 0.85559 0.84633
 C611 C 0.66380 0.84595 0.85606
 C612 C 0.65426 0.83626 0.85619
 C613 C 0.64448 0.83610 0.84659
 C614 C 0.64435 0.84563 0.83697
 C615 C 0.65401 0.85543 0.83684
 C616 C 0.67196 0.86587 0.84353
 N617 N 0.66750 0.87187 0.83263
 C618 C 0.65657 0.86562 0.82842
 C619 C 0.63408 0.84280 0.82873
 N620 N 0.62805 0.83184 0.83318
 C621 C 0.63427 0.82763 0.84405
 C622 C 0.65706 0.82800 0.86642
 N623 N 0.66801 0.83249 0.87241
 C624 C 0.67225 0.84341 0.86621
 H625 H 0.68069 0.86866 0.84886
 H626 H 0.65106 0.86818 0.81978
 H627 H 0.63131 0.84815 0.82005
 H628 H 0.63169 0.81894 0.84954
 H629 H 0.65170 0.81926 0.86918
 H630 H 0.68094 0.84895 0.86878
 C631 C 0.16377 0.35541 0.84639
 C632 C 0.16368 0.34574 0.85609
 C633 C 0.15403 0.33617 0.85609
 C634 C 0.14435 0.33616 0.84639
 C635 C 0.14444 0.34571 0.83680
 C636 C 0.15420 0.35540 0.83680
 C637 C 0.17220 0.36562 0.84372
 N638 N 0.16792 0.37171 0.83280
 C639 C 0.15697 0.36560 0.82845
 C640 C 0.13421 0.34302 0.82845
 N641 N 0.12802 0.33212 0.83280
 C642 C 0.13408 0.32781 0.84372
 C643 C 0.15663 0.32784 0.86632
 N644 N 0.16756 0.33219 0.87245
 C645 C 0.17199 0.34308 0.86632
 H646 H 0.18090 0.36829 0.84916
 H647 H 0.15158 0.36825 0.81976
 H648 H 0.13160 0.34843 0.81976
 H649 H 0.13134 0.31913 0.84916
 H650 H 0.15113 0.31917 0.86900
 H651 H 0.18072 0.34851 0.86900
 C652 C 0.16393 0.85641 0.34628
 C653 C 0.16394 0.84672 0.35597
 C654 C 0.15432 0.83711 0.35601
 C655 C 0.14459 0.83708 0.34637
 C656 C 0.14458 0.84666 0.33680
 C657 C 0.15431 0.85638 0.33675
 C658 C 0.17233 0.86663 0.34357
 N659 N 0.16798 0.87271 0.33268
 C660 C 0.15701 0.86658 0.32839
 C661 C 0.13433 0.84393 0.32849
 N662 N 0.12820 0.83299 0.33285
 C663 C 0.13434 0.82869 0.34373
 C664 C 0.15704 0.82876 0.36620
 N665 N 0.16800 0.83314 0.37225
 C666 C 0.17234 0.84406 0.36613
 H667 H 0.18106 0.86931 0.34895
 H668 H 0.15157 0.86922 0.31972
 H669 H 0.13165 0.84933 0.31982
 H670 H 0.13168 0.81998 0.34917
 H671 H 0.15160 0.82005 0.36889
 H672 H 0.18107 0.84951 0.36874
 O673 O 0.23321 0.98807 0.25131
 O674 O 0.25100 1.01351 0.23298
 O675 O 0.25092 0.98794 0.23306
 O676 O 0.23331 1.01364 0.25127
 O677 O 0.24897 1.01360 0.26618
 O678 O 0.26658 0.98792 0.24797
 O679 O 0.26666 1.01349 0.24789
 O680 O 0.24887 0.98803 0.26622
 Cu681 Cu 0.24053 1.00080 0.24065
 Cu682 Cu 0.25935 1.00076 0.25857
 C683 C 0.23806 0.98373 0.26183
 C684 C 0.26182 1.01781 0.23735
 C685 C 0.26170 0.98357 0.23747
 C686 C 0.23817 1.01797 0.26179
 O687 O 0.26641 0.48733 0.74840
 O688 O 0.24845 0.51290 0.76643
 O689 O 0.24860 0.48734 0.76655
 O690 O 0.26627 0.51290 0.74827
 O691 O 0.25071 0.51275 0.73327
 O692 O 0.23303 0.48719 0.75155
 O693 O 0.23289 0.51276 0.75144
 O694 O 0.25085 0.48718 0.73340
 Cu695 Cu 0.25900 0.50014 0.75893
 Cu696 Cu 0.24030 0.49996 0.74090
 C697 C 0.26164 0.48291 0.73788
 C698 C 0.23765 0.51716 0.76197
 C699 C 0.23785 0.48292 0.76212
 C700 C 0.26146 0.51716 0.73770
 O701 O 0.74867 -0.01308 0.23368
 O702 O 0.76661 0.01253 0.25164
 O703 O 0.76661 -0.01304 0.25171
 O704 O 0.74870 0.01249 0.23359
 O705 O 0.73323 0.01256 0.24869
 O706 O 0.75114 -0.01298 0.26682
 O707 O 0.75113 0.01260 0.26674
 O708 O 0.73320 -0.01300 0.24879
 Cu709 Cu 0.75921 -0.00028 0.24113
 Cu710 Cu 0.74061 -0.00020 0.25928
 C711 C 0.73792 -0.01738 0.23822
 C712 C 0.76187 0.01691 0.26221
 C713 C 0.76189 -0.01734 0.26230
 C714 C 0.73796 0.01685 0.23809
 O715 O 0.76664 0.51242 0.75220
 O716 O 0.74865 0.48707 0.73393
 O717 O 0.74892 0.51263 0.73397
 O718 O 0.76641 0.48686 0.75214
 O719 O 0.75079 0.48699 0.76710
 O720 O 0.73329 0.51278 0.74892
 O721 O 0.73304 0.48721 0.74889
 O722 O 0.75102 0.51255 0.76714
 Cu723 Cu 0.75923 0.49973 0.74155
 Cu724 Cu 0.74046 0.49989 0.75952
 C725 C 0.76185 0.51679 0.76274
 C726 C 0.73782 0.48284 0.73835
 C727 C 0.73817 0.51708 0.73840
 C728 C 0.76155 0.48256 0.76267
 O729 O 0.25082 0.48715 0.26652
 O730 O 0.23306 0.51280 0.24841
 O731 O 0.23294 0.48724 0.24845
 O732 O 0.25092 0.51272 0.26651
 O733 O 0.26644 0.51263 0.25145
 O734 O 0.24845 0.48714 0.23338
 O735 O 0.24857 0.51270 0.23334
 O736 O 0.26634 0.48706 0.25145
 Cu737 Cu 0.24037 0.49999 0.25899
 Cu738 Cu 0.25902 0.49988 0.24089
 C739 C 0.26156 0.48275 0.26202
 C740 C 0.23783 0.51710 0.23783
 C741 C 0.23768 0.48286 0.23789
 C742 C 0.26170 0.51700 0.26202
 O743 O 0.76620 0.98709 0.74822
 O744 O 0.74844 1.01276 0.76632
 O745 O 0.74831 0.98719 0.76631
 O746 O 0.76631 1.01266 0.74820
 O747 O 0.75079 1.01274 0.73315
 O748 O 0.73280 0.98728 0.75126
 O749 O 0.73293 1.01285 0.75127
 O750 O 0.75068 0.98718 0.73317
 Cu751 Cu 0.75888 0.99992 0.75878
 Cu752 Cu 0.74024 1.00002 0.74069
 C753 C 0.76142 0.98278 0.73766
 C754 C 0.73770 1.01715 0.76184
 C755 C 0.73754 0.98291 0.76182
 C756 C 0.76157 1.01702 0.73764
 O757 O 0.75117 0.51259 0.23322
 O758 O 0.73328 0.48706 0.25134
 O759 O 0.73321 0.51263 0.25125
 O760 O 0.75124 0.48702 0.23334
 O761 O 0.76668 0.48711 0.24846
 O762 O 0.74865 0.51272 0.26637
 O763 O 0.74871 0.48715 0.26647
 O764 O 0.76661 0.51268 0.24835
 Cu765 Cu 0.74067 0.49982 0.24076
 Cu766 Cu 0.75922 0.49993 0.25894
 C767 C 0.76189 0.51697 0.23774
 C768 C 0.73799 0.48277 0.26194
 C769 C 0.73790 0.51702 0.26182
 C770 C 0.76198 0.48271 0.23790
 O771 O 0.25156 -0.01340 0.76658
 O772 O 0.23350 0.01203 0.74845
 O773 O 0.23360 -0.01353 0.74857
 O774 O 0.25143 0.01217 0.76648
 O775 O 0.26689 0.01217 0.75136
 O776 O 0.24905 -0.01354 0.73344
 O777 O 0.24896 0.01202 0.73333
 O778 O 0.26701 -0.01341 0.75145
 Cu779 Cu 0.24097 -0.00068 0.75905
 Cu780 Cu 0.25954 -0.00069 0.74087
 C781 C 0.26232 -0.01772 0.76205
 C782 C 0.23820 0.01634 0.73785
 C783 C 0.23833 -0.01789 0.73800
 C784 C 0.26215 0.01653 0.76193
 O785 O 0.24874 0.26667 0.98729
 O786 O 0.26711 0.24881 1.01257
 O787 O 0.26692 0.24872 0.98721
 O788 O 0.24895 0.26677 1.01265
 O789 O 0.23369 0.25135 1.01284
 O790 O 0.25167 0.23330 0.98738
 O791 O 0.25185 0.23339 1.01275
 O792 O 0.23348 0.25126 0.98747
 Cu793 Cu 0.25947 0.25930 0.99991
 Cu794 Cu 0.24113 0.24077 1.00013
 C795 C 0.23802 0.26197 0.98310
 C796 C 0.26257 0.23811 1.01696
 C797 C 0.26232 0.23798 0.98298
 C798 C 0.23831 0.26209 1.01706
 O799 O 0.23391 0.75200 0.51235
 O800 O 0.25192 0.73379 0.48704
 O801 O 0.25189 0.73386 0.51241
 O802 O 0.23392 0.75193 0.48698
 O803 O 0.24934 0.76719 0.48694
 O804 O 0.26730 0.74912 0.51237
 O805 O 0.26733 0.74905 0.48700
 O806 O 0.24933 0.76726 0.51231
 Cu807 Cu 0.24135 0.74136 0.49969
 Cu808 Cu 0.25988 0.75970 0.49965
 C809 C 0.23860 0.76269 0.51663
 C810 C 0.26266 0.73836 0.48273
 C811 C 0.26261 0.73846 0.51670
 C812 C 0.23861 0.76259 0.48265
 O813 O 0.26627 0.75141 -0.01312
 O814 O 0.24810 0.73337 0.01218
 O815 O 0.24829 0.73329 -0.01320
 O816 O 0.26608 0.75150 0.01223
 O817 O 0.25065 0.76677 0.01208
 O818 O 0.23286 0.74856 -0.01336
 O819 O 0.23267 0.74865 0.01202
 O820 O 0.25084 0.76669 -0.01328
 Cu821 Cu 0.25874 0.74085 -0.00046
 Cu822 Cu 0.24020 0.75921 -0.00065
 C823 C 0.26161 0.76209 -0.01748
 C824 C 0.23733 0.73798 0.01639
 C825 C 0.23760 0.73787 -0.01760
 C826 C 0.26136 0.76220 0.01646
 O827 O 0.26562 0.25165 0.48774
 O828 O 0.24773 0.23368 0.51327
 O829 O 0.24759 0.23358 0.48789
 O830 O 0.26576 0.25175 0.51309
 O831 O 0.25038 0.26707 0.51312
 O832 O 0.23221 0.24890 0.48792
 O833 O 0.23235 0.24900 0.51330
 O834 O 0.25024 0.26697 0.48777
 Cu835 Cu 0.25823 0.24112 0.50049
 Cu836 Cu 0.23974 0.25953 0.50053
 C837 C 0.26094 0.26234 0.48343
 C838 C 0.23704 0.23833 0.51763
 C839 C 0.23686 0.23819 0.48363
 C840 C 0.26112 0.26246 0.51738
 O841 O 0.74949 0.76721 0.98742
 O842 O 0.76749 0.74915 1.01282
 O843 O 0.76752 0.74912 0.98746
 O844 O 0.74945 0.76724 1.01279
 O845 O 0.73407 0.75194 1.01280
 O846 O 0.75215 0.73382 0.98747
 O847 O 0.75211 0.73385 1.01283
 O848 O 0.73411 0.75191 0.98742
 Cu849 Cu 0.76004 0.75973 1.00013
 Cu850 Cu 0.74156 0.74134 1.00013
 C851 C 0.73878 0.76260 0.98311
 C852 C 0.76283 0.73847 1.01713
 C853 C 0.76287 0.73842 0.98317
 C854 C 0.73873 0.76263 1.01710
 O855 O 0.74983 0.26699 0.48744
 O856 O 0.76783 0.24902 0.51290
 O857 O 0.76789 0.24892 0.48754
 O858 O 0.74977 0.26707 0.51281
 O859 O 0.73441 0.25174 0.51283
 O860 O 0.75254 0.23360 0.48756
 O861 O 0.75248 0.23369 0.51292
 O862 O 0.73447 0.25167 0.48745
 Cu863 Cu 0.76038 0.25955 0.50017
 Cu864 Cu 0.74193 0.24113 0.50019
 C865 C 0.73913 0.26235 0.48313
 C866 C 0.76318 0.23834 0.51723
 C867 C 0.76327 0.23821 0.48326
 C868 C 0.73905 0.26245 0.51711
 O869 O 0.76685 0.25112 -0.01270
 O870 O 0.74855 0.23304 0.01248
 O871 O 0.74880 0.23308 -0.01290
 O872 O 0.76661 0.25110 0.01265
 O873 O 0.75124 0.26644 0.01253
 O874 O 0.73344 0.24841 -0.01302
 O875 O 0.73319 0.24838 0.01235
 O876 O 0.75148 0.26646 -0.01283
 Cu877 Cu 0.75925 0.24053 -0.00010
 Cu878 Cu 0.74078 0.25896 -0.00025
 C879 C 0.76224 0.26182 -0.01704
 C880 C 0.73780 0.23767 0.01669
 C881 C 0.73814 0.23773 -0.01730
 C882 C 0.76192 0.26180 0.01691
 O883 O 0.76637 0.75144 0.48705
 O884 O 0.74825 0.73359 0.51252
 O885 O 0.74824 0.73346 0.48715
 O886 O 0.76639 0.75155 0.51241
 O887 O 0.75109 0.76696 0.51236
 O888 O 0.73294 0.74887 0.48710
 O889 O 0.73295 0.74900 0.51246
 O890 O 0.75107 0.76685 0.48700
 Cu891 Cu 0.75885 0.74096 0.49979
 Cu892 Cu 0.74047 0.75947 0.49972
 C893 C 0.76176 0.76215 0.48272
 C894 C 0.73756 0.73830 0.51681
 C895 C 0.73754 0.73813 0.48284
 C896 C 0.76179 0.76230 0.51666
 O897 O 0.98774 0.24832 0.26630
 O898 O 1.01330 0.26619 0.24818
 O899 O 0.98770 0.26620 0.24824
 O900 O 1.01333 0.24832 0.26627
 O901 O 1.01332 0.23284 0.25120
 O902 O 0.98769 0.25072 0.23317
 O903 O 1.01328 0.25071 0.23311
 O904 O 0.98773 0.23284 0.25123
 Cu905 Cu 1.00053 0.25882 0.25877
 Cu906 Cu 1.00051 0.24022 0.24065
 C907 C 0.98340 0.23758 0.26180
 C908 C 1.01763 0.26145 0.23759
 C909 C 0.98334 0.26146 0.23768
 C910 C 1.01767 0.23757 0.26177
 O911 O 0.48741 0.25072 0.73350
 O912 O 0.51315 0.23291 0.75143
 O913 O 0.48756 0.23285 0.75157
 O914 O 0.51300 0.25080 0.73336
 O915 O 0.51303 0.26627 0.74844
 O916 O 0.48759 0.24833 0.76665
 O917 O 0.51318 0.24839 0.76651
 O918 O 0.48743 0.26620 0.74858
 Cu919 Cu 0.50028 0.24026 0.74094
 Cu920 Cu 0.50031 0.25886 0.75906
 C921 C 0.48305 0.26145 0.73803
 C922 C 0.51752 0.23765 0.76199
 C923 C 0.48326 0.23758 0.76217
 C924 C 0.51733 0.26155 0.73784
 O925 O 0.01226 0.25137 0.76709
 O926 O -0.01328 0.23337 0.74911
 O927 O 0.01230 0.23329 0.74921
 O928 O -0.01334 0.25146 0.76697
 O929 O -0.01323 0.26676 0.75171
 O930 O 0.01241 0.24859 0.73396
 O931 O -0.01318 0.24867 0.73386
 O932 O 0.01238 0.26668 0.75184
 Cu933 Cu -0.00052 0.24083 0.75964
 Cu934 Cu -0.00039 0.25922 0.74130
 C935 C 0.01666 0.26204 0.76248
 C936 C -0.01756 0.23799 0.73847
 C937 C 0.01670 0.23789 0.73860
 C938 C -0.01764 0.26215 0.76231
 O939 O 0.48719 0.26642 0.25228
 O940 O 0.51287 0.24873 0.23413
 O941 O 0.48728 0.24868 0.23408
 O942 O 0.51279 0.26645 0.25236
 O943 O 0.51278 0.25084 0.26730
 O944 O 0.48728 0.23308 0.24904
 O945 O 0.51287 0.23312 0.24907
 O946 O 0.48719 0.25082 0.26724
 Cu947 Cu 0.50004 0.25915 0.24171
 Cu948 Cu 0.50003 0.24039 0.25967
 C949 C 0.48283 0.26158 0.26280
 C950 C 0.51723 0.23796 0.23855
 C951 C 0.48294 0.23790 0.23850
 C952 C 0.51711 0.26163 0.26290
 O953 O 1.01303 0.76637 0.74799
 O954 O 0.98741 0.74865 0.76617
 O955 O 1.01300 0.74864 0.76622
 O956 O 0.98743 0.76638 0.74797
 O957 O 0.98747 0.75078 0.73301
 O958 O 1.01304 0.73304 0.75127
 O959 O 0.98745 0.73305 0.75122
 O960 O 1.01306 0.75077 0.73304
 Cu961 Cu 1.00022 0.75909 0.75859
 Cu962 Cu 1.00026 0.74033 0.74063
 C963 C 1.01739 0.76155 0.73746
 C964 C 0.98308 0.73788 0.76174
 C965 C 1.01735 0.73786 0.76181
 C966 C 0.98311 0.76155 0.73743
 O967 O 0.51275 0.73372 0.25079
 O968 O 0.48705 0.75144 0.23268
 O969 O 0.51265 0.75150 0.23262
 O970 O 0.48716 0.73363 0.25081
 O971 O 0.48711 0.74917 0.26582
 O972 O 0.51261 0.76705 0.24762
 O973 O 0.48702 0.76698 0.24769
 O974 O 0.51270 0.74927 0.26579
 Cu975 Cu 0.49991 0.74100 0.24021
 Cu976 Cu 0.49986 0.75969 0.25825
 C977 C 0.51708 0.73852 0.26133
 C978 C 0.48267 0.76218 0.23715
 C979 C 0.51696 0.76227 0.23707
 C980 C 0.48280 0.73840 0.26136
 O981 O -0.01291 0.76750 0.25184
 O982 O 0.01270 0.74973 0.23367
 O983 O -0.01289 0.74969 0.23372
 O984 O 0.01269 0.76754 0.25183
 O985 O 0.01273 0.75200 0.26684
 O986 O -0.01284 0.73416 0.24873
 O987 O 0.01275 0.73419 0.24869
 O988 O -0.01287 0.75196 0.26686
 Cu989 Cu -0.00010 0.76019 0.24125
 Cu990 Cu -0.00005 0.74151 0.25930
 C991 C -0.01725 0.76271 0.26239
 C992 C 0.01706 0.73897 0.23812
 C993 C -0.01721 0.73893 0.23819
 C994 C 0.01704 0.76276 0.26238
 O995 O 0.48704 0.76637 0.75218
 O996 O 0.51264 0.74852 0.73406
 O997 O 0.48705 0.74860 0.73401
 O998 O 0.51264 0.76627 0.75227
 O999 O 0.51254 0.75069 0.76724
 O1000 O 0.48696 0.73302 0.74898
 O1001 O 0.51255 0.73293 0.74904
 O1002 O 0.48695 0.75079 0.76715
 Cu1003 Cu 0.49986 0.75901 0.74162
 Cu1004 Cu 0.49974 0.74029 0.75962
 C1005 C 0.48264 0.76157 0.76270
 C1006 C 0.51693 0.73772 0.73850
 C1007 C 0.48267 0.73785 0.73843
 C1008 C 0.51693 0.76145 0.76282
 C1009 C 0.38171 0.32531 0.32687
 C1010 C 0.39074 0.31984 0.32156
 C1011 C 0.40141 0.31322 0.31513
 C1012 C 0.39993 0.30020 0.31108
 C1013 C 0.41020 0.29378 0.30470
 C1014 C 0.42213 0.30031 0.30228
 C1015 C 0.42355 0.31338 0.30645
 C1016 C 0.41324 0.31979 0.31282
 C1017 C 0.43299 0.29352 0.29535
 C1018 C 0.44610 0.29518 0.29936
 C1019 C 0.45629 0.28875 0.29283
 C1020 C 0.45353 0.28062 0.28221
 C1021 C 0.44054 0.27893 0.27814
 C1022 C 0.43033 0.28533 0.28465
 C1023 C 0.46399 0.27398 0.27547
 C1024 C 0.47265 0.26835 0.26974
 H1025 H 0.39082 0.29501 0.31285
 H1026 H 0.40887 0.28367 0.30177
 H1027 H 0.43254 0.31871 0.30459
 H1028 H 0.41448 0.32988 0.31589
 H1029 H 0.44844 0.30129 0.30766
 H1030 H 0.46632 0.29010 0.29609
 H1031 H 0.43829 0.27269 0.26990
 H1032 H 0.42037 0.28400 0.28122
 C1033 C 0.38189 0.82586 0.82677
 C1034 C 0.39088 0.82034 0.82144
 C1035 C 0.40152 0.81367 0.81501
 C1036 C 0.39995 0.80067 0.81094
 C1037 C 0.41019 0.79420 0.80454
 C1038 C 0.42216 0.80066 0.80214
 C1039 C 0.42366 0.81371 0.80633
 C1040 C 0.41339 0.82017 0.81272
 C1041 C 0.43298 0.79382 0.79521
 C1042 C 0.44609 0.79538 0.79924
 C1043 C 0.45625 0.78890 0.79271
 C1044 C 0.45345 0.78080 0.78207
 C1045 C 0.44045 0.77920 0.77799
 C1046 C 0.43028 0.78566 0.78450
 C1047 C 0.46387 0.77409 0.77534
 C1048 C 0.47250 0.76841 0.76962
 H1049 H 0.39081 0.79554 0.81270
 H1050 H 0.40880 0.78410 0.80160
 H1051 H 0.43268 0.81900 0.80448
 H1052 H 0.41469 0.83025 0.81579
 H1053 H 0.44847 0.80147 0.80754
 H1054 H 0.46629 0.79018 0.79597
 H1055 H 0.43817 0.77298 0.76974
 H1056 H 0.42031 0.78440 0.78105
 C1057 C -0.11868 0.32615 0.82624
 C1058 C -0.10968 0.32073 0.82083
 C1059 C -0.09903 0.31417 0.81430
 C1060 C -0.10083 0.30150 0.80938
 C1061 C -0.09056 0.29512 0.80295
 C1062 C -0.07833 0.30133 0.80134
 C1063 C -0.07661 0.31406 0.80637
 C1064 C -0.08691 0.32043 0.81280
 C1065 C -0.06746 0.29457 0.79442
 C1066 C -0.05447 0.29547 0.79902
 C1067 C -0.04427 0.28900 0.79253
 C1068 C -0.04690 0.28159 0.78137
 C1069 C -0.05977 0.28069 0.77670
 C1070 C -0.06998 0.28712 0.78317
 C1071 C -0.03645 0.27484 0.77473
 C1072 C -0.02780 0.26910 0.76910
 H1073 H -0.11017 0.29655 0.81053
 H1074 H -0.09213 0.28526 0.79935
 H1075 H -0.06737 0.31916 0.80515
 H1076 H -0.08543 0.33025 0.81654
 H1077 H -0.05223 0.30099 0.80774
 H1078 H -0.03435 0.28974 0.79625
 H1079 H -0.06192 0.27500 0.76805
 H1080 H -0.07984 0.28640 0.77929
 C1081 C -0.11841 0.82623 0.32660
 C1082 C -0.10937 0.82079 0.32127
 C1083 C -0.09868 0.81420 0.31483
 C1084 C -0.10011 0.80117 0.31082
 C1085 C -0.08983 0.79478 0.30442
 C1086 C -0.07795 0.80136 0.30193
 C1087 C -0.07658 0.81445 0.30606
 C1088 C -0.08689 0.82082 0.31245
 C1089 C -0.06708 0.79461 0.29498
 C1090 C -0.05397 0.79634 0.29894
 C1091 C -0.04377 0.78994 0.29239
 C1092 C -0.04653 0.78176 0.28181
 C1093 C -0.05953 0.78000 0.27779
 C1094 C -0.06974 0.78637 0.28432
 C1095 C -0.03607 0.77513 0.27506
 C1096 C -0.02741 0.76950 0.26933
 H1097 H -0.10919 0.79594 0.31264
 H1098 H -0.09112 0.78465 0.30153
 H1099 H -0.06762 0.81983 0.30414
 H1100 H -0.08570 0.83093 0.31548
 H1101 H -0.05162 0.80249 0.30720
 H1102 H -0.03374 0.79134 0.29560
 H1103 H -0.06178 0.77372 0.26958
 H1104 H -0.07971 0.78499 0.28092
 C1105 C 0.61768 0.67473 0.32603
 C1106 C 0.60865 0.68018 0.32071
 C1107 C 0.59796 0.68675 0.31428
 C1108 C 0.59729 0.70046 0.31433
 C1109 C 0.58705 0.70689 0.30790
 C1110 C 0.57732 0.69968 0.30133
 C1111 C 0.57803 0.68589 0.30141
 C1112 C 0.58830 0.67948 0.30784
 C1113 C 0.56655 0.70652 0.29434
 C1114 C 0.55361 0.70169 0.29483
 C1115 C 0.54351 0.70814 0.28819
 C1116 C 0.54619 0.71946 0.28097
 C1117 C 0.55901 0.72433 0.28042
 C1118 C 0.56913 0.71792 0.28705
 C1119 C 0.53581 0.72609 0.27410
 C1120 C 0.52721 0.73172 0.26830
 H1121 H 0.60471 0.70618 0.31931
 H1122 H 0.58668 0.71750 0.30817
 H1123 H 0.57079 0.68008 0.29631
 H1124 H 0.58874 0.66887 0.30770
 H1125 H 0.55129 0.69304 0.30048
 H1126 H 0.53360 0.70430 0.28871
 H1127 H 0.56121 0.73307 0.27482
 H1128 H 0.57901 0.72177 0.28633
 C1129 C 0.61864 0.17406 0.82606
 C1130 C 0.60950 0.17937 0.82079
 C1131 C 0.59866 0.18575 0.81440
 C1132 C 0.59516 0.19856 0.81784
 C1133 C 0.58479 0.20485 0.81148
 C1134 C 0.57778 0.19840 0.80157
 C1135 C 0.58133 0.18549 0.79824
 C1136 C 0.59170 0.17921 0.80462
 C1137 C 0.56691 0.20516 0.79465
 C1138 C 0.56543 0.20378 0.78110
 C1139 C 0.55531 0.21028 0.77455
 C1140 C 0.54651 0.21822 0.78144
 C1141 C 0.54786 0.21962 0.79492
 C1142 C 0.55799 0.21314 0.80149
 C1143 C 0.53621 0.22503 0.77465
 C1144 C 0.52764 0.23077 0.76890
 H1145 H 0.60051 0.20373 0.82537
 H1146 H 0.58240 0.21485 0.81415
 H1147 H 0.57602 0.18020 0.79077
 H1148 H 0.59432 0.16928 0.80190
 H1149 H 0.57224 0.19786 0.77553
 H1150 H 0.55438 0.20916 0.76411
 H1151 H 0.54109 0.22573 0.80036
 H1152 H 0.55876 0.21427 0.81194
 C1153 C 1.11808 0.67386 0.82608
 C1154 C 1.10896 0.67922 0.82082
 C1155 C 1.09816 0.68569 0.81446
 C1156 C 1.09250 0.68016 0.80334
 C1157 C 1.08216 0.68656 0.79702
 C1158 C 1.07736 0.69860 0.80175
 C1159 C 1.08307 0.70403 0.81299
 C1160 C 1.09340 0.69761 0.81930
 C1161 C 1.06654 0.70552 0.79490
 C1162 C 1.06690 0.71923 0.79331
 C1163 C 1.05681 0.72573 0.78672
 C1164 C 1.04623 0.71864 0.78164
 C1165 C 1.04575 0.70502 0.78320
 C1166 C 1.05584 0.69849 0.78979
 C1167 C 1.03595 0.72535 0.77470
 C1168 C 1.02742 0.73103 0.76884
 H1169 H 1.09614 0.67096 0.79949
 H1170 H 1.07809 0.68221 0.78829
 H1171 H 1.07948 0.71319 0.81696
 H1172 H 1.09769 0.70196 0.82792
 H1173 H 1.07509 0.72490 0.79698
 H1174 H 1.05730 0.73628 0.78552
 H1175 H 1.03759 0.69944 0.77933
 H1176 H 1.05520 0.68796 0.79099
 C1177 C 1.11867 0.17421 0.32623
 C1178 C 1.10952 0.17949 0.32093
 C1179 C 1.09869 0.18584 0.31451
 C1180 C 1.09555 0.19887 0.31748
 C1181 C 1.08518 0.20512 0.31109
 C1182 C 1.07780 0.19842 0.30161
 C1183 C 1.08100 0.18530 0.29874
 C1184 C 1.09137 0.17906 0.30515
 C1185 C 1.06693 0.20513 0.29465
 C1186 C 1.06512 0.20323 0.28120
 C1187 C 1.05500 0.20970 0.27461
 C1188 C 1.04656 0.21813 0.28135
 C1189 C 1.04824 0.22005 0.29473
 C1190 C 1.05835 0.21360 0.30135
 C1191 C 1.03628 0.22494 0.27450
 C1192 C 1.02774 0.23068 0.26871
 H1193 H 1.10119 0.20422 0.32467
 H1194 H 1.08308 0.21527 0.31339
 H1195 H 1.07541 0.17983 0.29162
 H1196 H 1.09371 0.16897 0.30279
 H1197 H 1.07166 0.19692 0.27574
 H1198 H 1.05383 0.20818 0.26424
 H1199 H 1.04174 0.22654 0.30005
 H1200 H 1.05939 0.21514 0.31172
 C1201 C 0.61771 0.32572 0.67330
 C1202 C 0.60861 0.32037 0.67859
 C1203 C 0.59782 0.31396 0.68501
 C1204 C 0.59367 0.30157 0.68086
 C1205 C 0.58336 0.29522 0.68727
 C1206 C 0.57708 0.30118 0.69794
 C1207 C 0.58129 0.31368 0.70199
 C1208 C 0.59159 0.32001 0.69556
 C1209 C 0.56631 0.29434 0.70492
 C1210 C 0.56555 0.29479 0.71859
 C1211 C 0.55550 0.28822 0.72517
 C1212 C 0.54608 0.28113 0.71821
 C1213 C 0.54671 0.28066 0.70461
 C1214 C 0.55676 0.28721 0.69800
 C1215 C 0.53584 0.27426 0.72504
 C1216 C 0.52734 0.26847 0.73084
 H1217 H 0.59846 0.29677 0.67274
 H1218 H 0.58047 0.28554 0.68403
 H1219 H 0.57655 0.31860 0.71006
 H1220 H 0.59472 0.32961 0.69884
 H1221 H 0.57284 0.30003 0.72420
 H1222 H 0.55513 0.28861 0.73570
 H1223 H 0.53945 0.27522 0.69912
 H1224 H 0.55699 0.28682 0.68747
 C1225 C 0.61768 0.82608 0.17268
 C1226 C 0.60858 0.82067 0.17791
 C1227 C 0.59780 0.81415 0.18424
 C1228 C 0.58953 0.82114 0.19263
 C1229 C 0.57922 0.81474 0.19899
 C1230 C 0.57707 0.80125 0.19705
 C1231 C 0.58540 0.79433 0.18854
 C1232 C 0.59569 0.80075 0.18219
 C1233 C 0.56629 0.79438 0.20399
 C1234 C 0.56828 0.78176 0.20920
 C1235 C 0.55818 0.77533 0.21583
 C1236 C 0.54595 0.78140 0.21734
 C1237 C 0.54384 0.79393 0.21219
 C1238 C 0.55394 0.80039 0.20556
 C1239 C 0.53561 0.77476 0.22425
 C1240 C 0.52704 0.76911 0.23008
 H1241 H 0.59110 0.83150 0.19433
 H1242 H 0.57308 0.82029 0.20560
 H1243 H 0.58390 0.78398 0.18671
 H1244 H 0.60203 0.79526 0.17570
 H1245 H 0.57772 0.77695 0.20832
 H1246 H 0.55993 0.76565 0.21982
 H1247 H 0.53440 0.79870 0.21328
 H1248 H 0.55205 0.81002 0.20153
 C1249 C 1.11801 0.32566 0.17307
 C1250 C 1.10895 0.32022 0.17835
 C1251 C 1.09824 0.31364 0.18473
 C1252 C 1.09617 0.30024 0.18266
 C1253 C 1.08592 0.29377 0.18904
 C1254 C 1.07760 0.30065 0.19759
 C1255 C 1.07971 0.31414 0.19954
 C1256 C 1.08997 0.32059 0.19315
 C1257 C 1.06685 0.29373 0.20454
 C1258 C 1.05449 0.29971 0.20614
 C1259 C 1.04443 0.29320 0.21277
 C1260 C 1.04658 0.28067 0.21790
 C1261 C 1.05882 0.27464 0.21635
 C1262 C 1.06890 0.28112 0.20971
 C1263 C 1.03626 0.27398 0.22480
 C1264 C 1.02770 0.26831 0.23062
 H1265 H 1.10250 0.29477 0.17613
 H1266 H 1.08445 0.28342 0.18720
 H1267 H 1.07358 0.31967 0.20618
 H1268 H 1.09152 0.33096 0.19486
 H1269 H 1.05257 0.30934 0.20214
 H1270 H 1.03497 0.29795 0.21389
 H1271 H 1.06061 0.26495 0.22031
 H1272 H 1.07835 0.27633 0.20881
 C1273 C 1.11802 0.82564 0.67321
 C1274 C 1.10892 0.82022 0.67844
 C1275 C 1.09816 0.81367 0.68477
 C1276 C 1.09057 0.82033 0.69401
 C1277 C 1.08027 0.81390 0.70034
 C1278 C 1.07744 0.80069 0.69752
 C1279 C 1.08509 0.79410 0.68817
 C1280 C 1.09538 0.80056 0.68184
 C1281 C 1.06666 0.79376 0.70442
 C1282 C 1.06831 0.78072 0.70860
 C1283 C 1.05822 0.77424 0.71521
 C1284 C 1.04635 0.78069 0.71771
 C1285 C 1.04460 0.79365 0.71357
 C1286 C 1.05468 0.80015 0.70697
 C1287 C 1.03604 0.77402 0.72462
 C1288 C 1.02748 0.76836 0.73046
 H1289 H 1.09267 0.83047 0.69638
 H1290 H 1.07467 0.81918 0.70761
 H1291 H 1.08306 0.78399 0.68566
 H1292 H 1.10118 0.79532 0.67469
 H1293 H 1.07748 0.77560 0.70695
 H1294 H 1.05970 0.76423 0.71841
 H1295 H 1.03544 0.79872 0.71543
 H1296 H 1.05305 0.81013 0.70373
 C1297 C 0.38212 0.67413 0.67374
 C1298 C 0.39115 0.67953 0.67910
 C1299 C 0.40183 0.68609 0.68554
 C1300 C 0.41123 0.67884 0.69239
 C1301 C 0.42149 0.68525 0.69881
 C1302 C 0.42247 0.69901 0.69846
 C1303 C 0.41299 0.70620 0.69149
 C1304 C 0.40275 0.69977 0.68508
 C1305 C 0.43324 0.70586 0.70543
 C1306 C 0.43074 0.71754 0.71230
 C1307 C 0.44086 0.72397 0.71891
 C1308 C 0.45360 0.71883 0.71874
 C1309 C 0.45620 0.70722 0.71193
 C1310 C 0.44609 0.70077 0.70532
 C1311 C 0.46396 0.72545 0.72561
 C1312 C 0.47256 0.73108 0.73143
 H1313 H 0.41058 0.66824 0.69285
 H1314 H 0.42854 0.67945 0.70422
 H1315 H 0.41357 0.71679 0.69090
 H1316 H 0.39554 0.70548 0.67978
 H1317 H 0.42093 0.72161 0.71272
 H1318 H 0.43873 0.73292 0.72418
 H1319 H 0.46603 0.70317 0.71172
 H1320 H 0.44835 0.69188 0.70000
 C1321 C 0.38247 0.17386 0.17399
 C1322 C 0.39145 0.17922 0.17948
 C1323 C 0.40207 0.18569 0.18612
 C1324 C 0.40083 0.18889 0.19930
 C1325 C 0.41105 0.19532 0.20575
 C1326 C 0.42265 0.19864 0.19909
 C1327 C 0.42382 0.19533 0.18584
 C1328 C 0.41358 0.18890 0.17941
 C1329 C 0.43344 0.20560 0.20592
 C1330 C 0.44663 0.20218 0.20365
 C1331 C 0.45676 0.20871 0.21015
 C1332 C 0.45385 0.21875 0.21898
 C1333 C 0.44077 0.22224 0.22128
 C1334 C 0.43063 0.21572 0.21481
 C1335 C 0.46424 0.22544 0.22575
 C1336 C 0.47284 0.23110 0.23152
 H1337 H 0.39197 0.18642 0.20460
 H1338 H 0.40992 0.19757 0.21599
 H1339 H 0.43256 0.19789 0.18041
 H1340 H 0.41462 0.18651 0.16918
 H1341 H 0.44911 0.19433 0.19699
 H1342 H 0.46686 0.20590 0.20832
 H1343 H 0.43840 0.23002 0.22808
 H1344 H 0.42059 0.21871 0.21663
 C1345 C -0.11778 0.67441 0.17431
 C1346 C -0.10882 0.67983 0.17975
 C1347 C -0.09822 0.68640 0.18633
 C1348 C -0.08579 0.68708 0.18057
 C1349 C -0.07554 0.69357 0.18693
 C1350 C -0.07762 0.69950 0.19913
 C1351 C -0.09015 0.69872 0.20484
 C1352 C -0.10038 0.69222 0.19847
 C1353 C -0.06679 0.70649 0.20586
 C1354 C -0.06920 0.71837 0.21242
 C1355 C -0.05904 0.72492 0.21883
 C1356 C -0.04633 0.71970 0.21879
 C1357 C -0.04381 0.70791 0.21227
 C1358 C -0.05396 0.70135 0.20583
 C1359 C -0.03594 0.72641 0.22553
 C1360 C -0.02733 0.73210 0.23126
 H1361 H -0.08403 0.68264 0.17115
 H1362 H -0.06605 0.69413 0.18221
 H1363 H -0.09202 0.70302 0.21430
 H1364 H -0.10996 0.69173 0.20303
 H1365 H -0.07893 0.72268 0.21247
 H1366 H -0.06110 0.73405 0.22382
 H1367 H -0.03401 0.70377 0.21221
 H1368 H -0.05182 0.69215 0.20101
 C1369 C -0.11786 0.17354 0.67412
 C1370 C -0.10883 0.17885 0.67956
 C1371 C -0.09815 0.18525 0.68615
 C1372 C -0.09657 0.18370 0.69959
 C1373 C -0.08635 0.19009 0.70607
 C1374 C -0.07755 0.19815 0.69917
 C1375 C -0.07917 0.19959 0.68564
 C1376 C -0.08941 0.19319 0.67919
 C1377 C -0.06681 0.20511 0.70608
 C1378 C -0.05422 0.20607 0.70051
 C1379 C -0.04416 0.21268 0.70702
 C1380 C -0.04653 0.21843 0.71917
 C1381 C -0.05902 0.21753 0.72479
 C1382 C -0.06909 0.21092 0.71830
 C1383 C -0.03621 0.22528 0.72587
 C1384 C -0.02764 0.23107 0.73157
 H1385 H -0.10326 0.17756 0.70507
 H1386 H -0.08526 0.18865 0.71645
 H1387 H -0.07266 0.20585 0.68009
 H1388 H -0.09057 0.19450 0.66879
 H1389 H -0.05212 0.20157 0.69119
 H1390 H -0.03452 0.21329 0.70260
 H1391 H -0.06098 0.22198 0.73416
 H1392 H -0.07872 0.21051 0.72276
 C1393 C 0.32517 0.38193 0.32650
 C1394 C 0.31975 0.39093 0.32110
 C1395 C 0.31317 0.40156 0.31459
 C1396 C 0.30016 0.40007 0.31050
 C1397 C 0.29376 0.41031 0.30405
 C1398 C 0.30031 0.42221 0.30160
 C1399 C 0.31338 0.42363 0.30581
 C1400 C 0.31976 0.41336 0.31225
 C1401 C 0.29356 0.43304 0.29463
 C1402 C 0.29520 0.44615 0.29861
 C1403 C 0.28878 0.45632 0.29205
 C1404 C 0.28066 0.45353 0.28143
 C1405 C 0.27898 0.44054 0.27738
 C1406 C 0.28538 0.43036 0.28392
 C1407 C 0.27400 0.46396 0.27468
 C1408 C 0.26836 0.47260 0.26894
 H1409 H 0.29495 0.39098 0.31229
 H1410 H 0.28365 0.40898 0.30109
 H1411 H 0.31874 0.43261 0.30393
 H1412 H 0.32985 0.41461 0.31535
 H1413 H 0.30130 0.44851 0.30691
 H1414 H 0.29012 0.46634 0.29529
 H1415 H 0.27275 0.43827 0.26914
 H1416 H 0.28406 0.42040 0.28050
 C1417 C 0.32667 -0.11803 0.82655
 C1418 C 0.32138 -0.10896 0.82116
 C1419 C 0.31500 -0.09822 0.81462
 C1420 C 0.30507 -0.09114 0.82091
 C1421 C 0.29871 -0.08087 0.81446
 C1422 C 0.30218 -0.07756 0.80161
 C1423 C 0.31222 -0.08470 0.79541
 C1424 C 0.31858 -0.09495 0.80188
 C1425 C 0.29526 -0.06682 0.79466
 C1426 C 0.29184 -0.06821 0.78146
 C1427 C 0.28523 -0.05816 0.77494
 C1428 C 0.28196 -0.04657 0.78149
 C1429 C 0.28533 -0.04507 0.79460
 C1430 C 0.29193 -0.05513 0.80116
 C1431 C 0.27507 -0.03629 0.77474
 C1432 C 0.26927 -0.02776 0.76900
 H1433 H 0.30219 -0.09362 0.83075
 H1434 H 0.29091 -0.07567 0.81944
 H1435 H 0.31524 -0.08228 0.78560
 H1436 H 0.32627 -0.10036 0.79693
 H1437 H 0.29409 -0.07716 0.77624
 H1438 H 0.28262 -0.05944 0.76479
 H1439 H 0.28287 -0.03613 0.79976
 H1440 H 0.29457 -0.05370 0.81126
 C1441 C 0.82563 0.38181 0.82677
 C1442 C 0.82018 0.39088 0.82152
 C1443 C 0.81360 0.40162 0.81519
 C1444 C 0.80028 0.40394 0.81759
 C1445 C 0.79380 0.41422 0.81128
 C1446 C 0.80058 0.42233 0.80246
 C1447 C 0.81399 0.41996 0.80017
 C1448 C 0.82045 0.40966 0.80649
 C1449 C 0.79365 0.43312 0.79559
 C1450 C 0.79979 0.44534 0.79371
 C1451 C 0.79329 0.45545 0.78715
 C1452 C 0.78057 0.45348 0.78237
 C1453 C 0.77437 0.44138 0.78421
 C1454 C 0.78085 0.43127 0.79078
 C1455 C 0.77391 0.46383 0.77549
 C1456 C 0.76829 0.47242 0.76967
 H1457 H 0.79489 0.39779 0.82433
 H1458 H 0.78352 0.41591 0.81338
 H1459 H 0.81944 0.42591 0.79332
 H1460 H 0.83076 0.40791 0.80452
 H1461 H 0.80957 0.44712 0.79744
 H1462 H 0.79817 0.46479 0.78580
 H1463 H 0.76455 0.43974 0.78051
 H1464 H 0.77593 0.42193 0.79191
 C1465 C 0.82612 -0.11792 0.32651
 C1466 C 0.82080 -0.10884 0.32115
 C1467 C 0.81441 -0.09809 0.31465
 C1468 C 0.80453 -0.09099 0.32099
 C1469 C 0.79815 -0.08070 0.31458
 C1470 C 0.80158 -0.07739 0.30172
 C1471 C 0.81158 -0.08455 0.29547
 C1472 C 0.81794 -0.09482 0.30190
 C1473 C 0.79465 -0.06662 0.29480
 C1474 C 0.79118 -0.06799 0.28162
 C1475 C 0.78459 -0.05790 0.27512
 C1476 C 0.78139 -0.04631 0.28169
 C1477 C 0.78481 -0.04483 0.29480
 C1478 C 0.79140 -0.05492 0.30132
 C1479 C 0.77454 -0.03598 0.27497
 C1480 C 0.76878 -0.02742 0.26924
 H1481 H 0.80169 -0.09347 0.33085
 H1482 H 0.79039 -0.07549 0.31959
 H1483 H 0.81455 -0.08212 0.28564
 H1484 H 0.82559 -0.10024 0.29691
 H1485 H 0.79338 -0.07694 0.27638
 H1486 H 0.78194 -0.05916 0.26499
 H1487 H 0.78241 -0.03589 0.29997
 H1488 H 0.79408 -0.05351 0.31142
 C1489 C 0.32550 0.61766 0.67329
 C1490 C 0.32007 0.60859 0.67855
 C1491 C 0.31350 0.59786 0.68490
 C1492 C 0.32043 0.58966 0.69339
 C1493 C 0.31399 0.57938 0.69974
 C1494 C 0.30051 0.57718 0.69769
 C1495 C 0.29365 0.58545 0.68907
 C1496 C 0.30011 0.59571 0.68273
 C1497 C 0.29360 0.56642 0.70460
 C1498 C 0.28091 0.56840 0.70968
 C1499 C 0.27444 0.55831 0.71629
 C1500 C 0.28054 0.54612 0.71791
 C1501 C 0.29314 0.54403 0.71288
 C1502 C 0.29964 0.55411 0.70627
 C1503 C 0.27388 0.53580 0.72483
 C1504 C 0.26824 0.52724 0.73067
 H1505 H 0.33079 0.59126 0.69517
 H1506 H 0.31950 0.57330 0.70643
 H1507 H 0.28331 0.58391 0.68716
 H1508 H 0.29466 0.60199 0.67616
 H1509 H 0.27607 0.57781 0.70872
 H1510 H 0.26471 0.56005 0.72019
 H1511 H 0.29794 0.53462 0.71406
 H1512 H 0.30932 0.55224 0.70234
 C1513 C 0.32626 1.11795 0.17281
 C1514 C 0.32084 1.10887 0.17806
 C1515 C 0.31430 1.09813 0.18441
 C1516 C 0.32019 1.09192 0.19507
 C1517 C 0.31373 1.08165 0.20141
 C1518 C 0.30128 1.07746 0.19718
 C1519 C 0.29549 1.08372 0.18641
 C1520 C 0.30196 1.09398 0.18008
 C1521 C 0.29431 1.06672 0.20407
 C1522 C 0.28071 1.06755 0.20639
 C1523 C 0.27417 1.05752 0.21302
 C1524 C 0.28111 1.04653 0.21742
 C1525 C 0.29462 1.04558 0.21513
 C1526 C 0.30119 1.05560 0.20850
 C1527 C 0.27437 1.03631 0.22440
 C1528 C 0.26867 1.02782 0.23029
 H1529 H 0.32972 1.09508 0.19853
 H1530 H 0.31838 1.07714 0.20977
 H1531 H 0.28599 1.08061 0.18282
 H1532 H 0.29733 1.09871 0.17183
 H1533 H 0.27517 1.07605 0.20327
 H1534 H 0.26372 1.05838 0.21479
 H1535 H 0.30008 1.03710 0.21847
 H1536 H 0.31162 1.05460 0.20673
 C1537 C 0.82593 0.61763 0.17359
 C1538 C 0.82052 0.60854 0.17884
 C1539 C 0.81397 0.59779 0.18517
 C1540 C 0.80056 0.59571 0.18310
 C1541 C 0.79411 0.58543 0.18944
 C1542 C 0.80102 0.57708 0.19794
 C1543 C 0.81452 0.57921 0.19989
 C1544 C 0.82095 0.58950 0.19355
 C1545 C 0.79412 0.56630 0.20485
 C1546 C 0.80012 0.55396 0.20639
 C1547 C 0.79363 0.54386 0.21297
 C1548 C 0.78108 0.54596 0.21812
 C1549 C 0.77503 0.55820 0.21663
 C1550 C 0.78149 0.56830 0.21004
 C1551 C 0.77441 0.53562 0.22498
 C1552 C 0.76874 0.52705 0.23078
 H1553 H 0.79507 0.60205 0.17662
 H1554 H 0.78376 0.58394 0.18760
 H1555 H 0.82007 0.57306 0.20649
 H1556 H 0.83133 0.59106 0.19525
 H1557 H 0.80976 0.55207 0.20236
 H1558 H 0.79839 0.53441 0.21404
 H1559 H 0.76533 0.55995 0.22062
 H1560 H 0.77669 0.57774 0.20919
 C1561 C 0.82608 1.11745 0.67360
 C1562 C 0.82066 1.10836 0.67882
 C1563 C 0.81411 1.09760 0.68513
 C1564 C 0.80133 1.09418 0.68148
 C1565 C 0.79485 1.08390 0.68778
 C1566 C 0.80108 1.07689 0.69784
 C1567 C 0.81397 1.08035 0.70138
 C1568 C 0.82042 1.09064 0.69507
 C1569 C 0.79411 1.06613 0.70471
 C1570 C 0.80077 1.05453 0.70815
 C1571 C 0.79421 1.04448 0.71473
 C1572 C 0.78094 1.04587 0.71796
 C1573 C 0.77423 1.05735 0.71456
 C1574 C 0.78076 1.06742 0.70798
 C1575 C 0.77420 1.03559 0.72485
 C1576 C 0.76848 1.02707 0.73067
 H1577 H 0.79636 1.09948 0.67378
 H1578 H 0.78501 1.08136 0.68472
 H1579 H 0.81896 1.07526 0.70919
 H1580 H 0.83030 1.09324 0.69801
 H1581 H 0.81100 1.05319 0.70563
 H1582 H 0.79949 1.03562 0.71729
 H1583 H 0.76396 1.05856 0.71706
 H1584 H 0.77541 1.07629 0.70563
 C1585 C 0.67391 0.61782 0.32597
 C1586 C 0.67919 0.60872 0.32060
 C1587 C 0.68554 0.59795 0.31408
 C1588 C 0.68221 0.59491 0.30122
 C1589 C 0.68853 0.58461 0.29478
 C1590 C 0.69828 0.57721 0.30112
 C1591 C 0.70150 0.58029 0.31408
 C1592 C 0.69517 0.59061 0.32050
 C1593 C 0.70515 0.56641 0.29420
 C1594 C 0.70808 0.55458 0.30063
 C1595 C 0.71463 0.54446 0.29411
 C1596 C 0.71835 0.54605 0.28109
 C1597 C 0.71547 0.55777 0.27461
 C1598 C 0.70891 0.56788 0.28110
 C1599 C 0.72519 0.53570 0.27439
 C1600 C 0.73097 0.52712 0.26869
 H1601 H 0.67475 0.60052 0.29616
 H1602 H 0.68570 0.58237 0.28487
 H1603 H 0.70907 0.57489 0.31917
 H1604 H 0.69786 0.59291 0.33045
 H1605 H 0.70517 0.55308 0.31066
 H1606 H 0.71679 0.53542 0.29921
 H1607 H 0.71835 0.55911 0.26454
 H1608 H 0.70697 0.57693 0.27594
 C1609 C 0.67417 1.11825 0.82597
 C1610 C 0.67947 1.10909 0.82070
 C1611 C 0.68586 1.09826 0.81434
 C1612 C 0.69770 1.09334 0.81924
 C1613 C 0.70406 1.08298 0.81293
 C1614 C 0.69865 1.07739 0.80161
 C1615 C 0.68670 1.08236 0.79681
 C1616 C 0.68036 1.09273 0.80313
 C1617 C 0.70552 1.06655 0.79477
 C1618 C 0.69841 1.05595 0.78954
 C1619 C 0.70489 1.04583 0.78297
 C1620 C 0.71855 1.04616 0.78153
 C1621 C 0.72571 1.05663 0.78672
 C1622 C 0.71926 1.06675 0.79330
 C1623 C 0.72522 1.03583 0.77463
 C1624 C 0.73088 1.02726 0.76881
 H1625 H 0.70203 1.09753 0.82792
 H1626 H 0.71315 1.07926 0.81696
 H1627 H 0.68238 1.07839 0.78803
 H1628 H 0.67123 1.09650 0.79923
 H1629 H 0.68785 1.05543 0.79065
 H1630 H 0.69925 1.03776 0.77901
 H1631 H 0.73629 1.05700 0.78562
 H1632 H 0.72499 1.07485 0.79705
 C1633 C 0.17360 0.61802 0.82597
 C1634 C 0.17891 0.60888 0.82069
 C1635 C 0.18535 0.59806 0.81434
 C1636 C 0.19710 0.59305 0.81937
 C1637 C 0.20350 0.58272 0.81307
 C1638 C 0.19823 0.57724 0.80163
 C1639 C 0.18637 0.58229 0.79671
 C1640 C 0.17999 0.59264 0.80302
 C1641 C 0.20516 0.56642 0.79480
 C1642 C 0.19808 0.55590 0.78939
 C1643 C 0.20462 0.54580 0.78284
 C1644 C 0.21830 0.54609 0.78159
 C1645 C 0.22543 0.55649 0.78696
 C1646 C 0.21891 0.56659 0.79353
 C1647 C 0.22503 0.53579 0.77471
 C1648 C 0.23075 0.52724 0.76891
 H1649 H 0.20132 0.59716 0.82814
 H1650 H 0.21252 0.57893 0.81720
 H1651 H 0.18216 0.57841 0.78784
 H1652 H 0.17092 0.59648 0.79902
 H1653 H 0.18751 0.55541 0.79034
 H1654 H 0.19901 0.53778 0.77874
 H1655 H 0.23602 0.55683 0.78601
 H1656 H 0.22462 0.57464 0.79742
 C1657 C 0.17457 1.11878 0.32630
 C1658 C 0.17993 1.10967 0.32102
 C1659 C 0.18637 1.09888 0.31462
 C1660 C 0.19836 1.09416 0.31935
 C1661 C 0.20474 1.08384 0.31300
 C1662 C 0.19920 1.07809 0.30183
 C1663 C 0.18710 1.08286 0.29720
 C1664 C 0.18074 1.09320 0.30356
 C1665 C 0.20607 1.06727 0.29494
 C1666 C 0.19899 1.05655 0.28993
 C1667 C 0.20547 1.04645 0.28332
 C1668 C 0.21910 1.04693 0.28162
 C1669 C 0.22623 1.05752 0.28660
 C1670 C 0.21978 1.06762 0.29322
 C1671 C 0.22576 1.03663 0.27467
 C1672 C 0.23139 1.02807 0.26881
 H1673 H 0.20279 1.09848 0.32792
 H1674 H 0.21395 1.08027 0.31689
 H1675 H 0.18267 1.07877 0.28853
 H1676 H 0.17149 1.09681 0.29979
 H1677 H 0.18846 1.05591 0.29123
 H1678 H 0.19986 1.03828 0.27952
 H1679 H 0.23678 1.05802 0.28530
 H1680 H 0.22548 1.07582 0.29680
 C1681 C 0.67396 0.38252 0.67358
 C1682 C 0.67922 0.39163 0.67892
 C1683 C 0.68557 0.40242 0.68538
 C1684 C 0.69778 0.40691 0.68101
 C1685 C 0.70408 0.41722 0.68744
 C1686 C 0.69824 0.42317 0.69836
 C1687 C 0.68593 0.41863 0.70264
 C1688 C 0.67964 0.40833 0.69618
 C1689 C 0.70504 0.43395 0.70537
 C1690 C 0.70493 0.43445 0.71905
 C1691 C 0.71148 0.44448 0.72565
 C1692 C 0.71822 0.45416 0.71868
 C1693 C 0.71836 0.45378 0.70507
 C1694 C 0.71182 0.44375 0.69844
 C1695 C 0.72509 0.46437 0.72552
 C1696 C 0.73089 0.47285 0.73134
 H1697 H 0.70248 0.40237 0.67268
 H1698 H 0.71362 0.42037 0.68402
 H1699 H 0.68110 0.42312 0.71091
 H1700 H 0.67018 0.40495 0.69964
 H1701 H 0.69996 0.42695 0.72466
 H1702 H 0.71135 0.44465 0.73620
 H1703 H 0.72353 0.46124 0.69958
 H1704 H 0.71196 0.44372 0.68791
 C1705 C 0.67356 -0.11767 0.17385
 C1706 C 0.67886 -0.10864 0.17929
 C1707 C 0.68526 -0.09795 0.18587
 C1708 C 0.69371 -0.08962 0.17903
 C1709 C 0.70010 -0.07938 0.18548
 C1710 C 0.69813 -0.07735 0.19889
 C1711 C 0.68956 -0.08575 0.20566
 C1712 C 0.68317 -0.09597 0.19919
 C1713 C 0.70509 -0.06662 0.20581
 C1714 C 0.71032 -0.06871 0.21831
 C1715 C 0.71692 -0.05864 0.22481
 C1716 C 0.71839 -0.04635 0.21891
 C1717 C 0.71321 -0.04417 0.20649
 C1718 C 0.70661 -0.05423 0.19996
 C1719 C 0.72524 -0.03603 0.22562
 C1720 C 0.73101 -0.02747 0.23133
 H1721 H 0.69543 -0.09109 0.16873
 H1722 H 0.70677 -0.07319 0.18003
 H1723 H 0.68770 -0.08434 0.21594
 H1724 H 0.67663 -0.10235 0.20458
 H1725 H 0.70947 -0.07818 0.22300
 H1726 H 0.72093 -0.06045 0.23441
 H1727 H 0.71427 -0.03468 0.20185
 H1728 H 0.70256 -0.05227 0.19042
 C1729 C 0.17356 0.38224 0.17379
 C1730 C 0.17883 0.39132 0.17918
 C1731 C 0.18519 0.40206 0.18572
 C1732 C 0.18305 0.40412 0.19901
 C1733 C 0.18940 0.41439 0.20545
 C1734 C 0.19799 0.42275 0.19866
 C1735 C 0.20001 0.42065 0.18527
 C1736 C 0.19365 0.41036 0.17885
 C1737 C 0.20492 0.43352 0.20554
 C1738 C 0.20646 0.44588 0.19964
 C1739 C 0.21304 0.45598 0.20614
 C1740 C 0.21817 0.45386 0.21859
 C1741 C 0.21669 0.44160 0.22454
 C1742 C 0.21011 0.43150 0.21808
 C1743 C 0.22501 0.46420 0.22528
 C1744 C 0.23077 0.47278 0.23098
 H1745 H 0.17649 0.39776 0.20441
 H1746 H 0.18751 0.41585 0.21571
 H1747 H 0.20669 0.42681 0.17981
 H1748 H 0.19542 0.40883 0.16857
 H1749 H 0.20244 0.44779 0.19007
 H1750 H 0.21411 0.46544 0.20145
 H1751 H 0.22066 0.43984 0.23417
 H1752 H 0.20924 0.42205 0.22280
 C1753 C 0.17410 -0.11830 0.67366
 C1754 C 0.17942 -0.10927 0.67910
 C1755 C 0.18582 -0.09859 0.68568
 C1756 C 0.18374 -0.09661 0.69899
 C1757 C 0.19012 -0.08638 0.70547
 C1758 C 0.19868 -0.07798 0.69869
 C1759 C 0.20065 -0.08000 0.68528
 C1760 C 0.19427 -0.09025 0.67883
 C1761 C 0.20562 -0.06723 0.70560
 C1762 C 0.20712 -0.05484 0.69975
 C1763 C 0.21371 -0.04476 0.70627
 C1764 C 0.21888 -0.04694 0.71870
 C1765 C 0.21744 -0.05922 0.72460
 C1766 C 0.21085 -0.06930 0.71811
 C1767 C 0.22571 -0.03660 0.72541
 C1768 C 0.23145 -0.02801 0.73111
 H1769 H 0.17720 -0.10299 0.70438
 H1770 H 0.18826 -0.08497 0.71575
 H1771 H 0.20731 -0.07381 0.67983
 H1772 H 0.19598 -0.09172 0.66853
 H1773 H 0.20307 -0.05290 0.69021
 H1774 H 0.21474 -0.03528 0.70163
 H1775 H 0.22144 -0.06102 0.73421
 H1776 H 0.21002 -0.07878 0.72280
 C1777 C 0.32537 0.32607 0.38320
 C1778 C 0.32002 0.32083 0.39228
 C1779 C 0.31354 0.31451 0.40303
 C1780 C 0.30197 0.31984 0.40815
 C1781 C 0.29552 0.31357 0.41842
 C1782 C 0.30057 0.30187 0.42371
 C1783 C 0.31225 0.29665 0.41855
 C1784 C 0.31868 0.30293 0.40827
 C1785 C 0.29359 0.29507 0.43447
 C1786 C 0.30065 0.28937 0.44479
 C1787 C 0.29406 0.28284 0.45482
 C1788 C 0.28036 0.28192 0.45467
 C1789 C 0.27325 0.28759 0.44446
 C1790 C 0.27981 0.29413 0.43443
 C1791 C 0.27358 0.27506 0.46490
 C1792 C 0.26784 0.26927 0.47340
 H1793 H 0.29792 0.32881 0.40418
 H1794 H 0.28664 0.31792 0.42229
 H1795 H 0.31629 0.28757 0.42230
 H1796 H 0.32761 0.29870 0.40435
 H1797 H 0.31125 0.29007 0.44518
 H1798 H 0.29966 0.27851 0.46269
 H1799 H 0.26264 0.28690 0.44422
 H1800 H 0.27411 0.29826 0.42653
 C1801 C 0.32611 0.82644 -0.11726
 C1802 C 0.32077 0.82116 -0.10820
 C1803 C 0.31434 0.81476 -0.09746
 C1804 C 0.30179 0.81877 -0.09358
 C1805 C 0.29543 0.81238 -0.08333
 C1806 C 0.30154 0.80187 -0.07683
 C1807 C 0.31419 0.79797 -0.08076
 C1808 C 0.32054 0.80438 -0.09101
 C1809 C 0.29468 0.79490 -0.06611
 C1810 C 0.29540 0.78115 -0.06510
 C1811 C 0.28879 0.77458 -0.05512
 C1812 C 0.28140 0.78163 -0.04602
 C1813 C 0.28066 0.79531 -0.04690
 C1814 C 0.28725 0.80191 -0.05688
 C1815 C 0.27446 0.77481 -0.03586
 C1816 C 0.26862 0.76903 -0.02743
 H1817 H 0.29689 0.82677 -0.09854
 H1818 H 0.28563 0.81550 -0.08065
 H1819 H 0.31922 0.79003 -0.07585
 H1820 H 0.33026 0.80121 -0.09393
 H1821 H 0.30088 0.77547 -0.07215
 H1822 H 0.28939 0.76398 -0.05455
 H1823 H 0.27498 0.80087 -0.03989
 H1824 H 0.28664 0.81251 -0.05731
 C1825 C 0.82614 0.32615 -0.11719
 C1826 C 0.82092 0.32085 -0.10807
 C1827 C 0.81461 0.31445 -0.09727
 C1828 C 0.80222 0.31864 -0.09309
 C1829 C 0.79595 0.31225 -0.08278
 C1830 C 0.80200 0.30156 -0.07652
 C1831 C 0.81450 0.29748 -0.08075
 C1832 C 0.82075 0.30389 -0.09106
 C1833 C 0.79523 0.29460 -0.06574
 C1834 C 0.79571 0.28083 -0.06489
 C1835 C 0.78915 0.27426 -0.05487
 C1836 C 0.78205 0.28135 -0.04557
 C1837 C 0.78157 0.29505 -0.04628
 C1838 C 0.78811 0.30164 -0.05629
 C1839 C 0.77513 0.27454 -0.03540
 C1840 C 0.76927 0.26877 -0.02697
 H1841 H 0.79736 0.32678 -0.09787
 H1842 H 0.78627 0.31552 -0.07986
 H1843 H 0.81948 0.28939 -0.07602
 H1844 H 0.83035 0.30058 -0.09421
 H1845 H 0.80095 0.27513 -0.07210
 H1846 H 0.78955 0.26365 -0.05444
 H1847 H 0.77612 0.30063 -0.03911
 H1848 H 0.78770 0.31225 -0.05659
 C1849 C 0.82580 0.82639 0.38256
 C1850 C 0.82050 0.82109 0.39164
 C1851 C 0.81412 0.81467 0.40239
 C1852 C 0.80165 0.81876 0.40642
 C1853 C 0.79534 0.81237 0.41670
 C1854 C 0.80142 0.80177 0.42308
 C1855 C 0.81399 0.79778 0.41899
 C1856 C 0.82029 0.80419 0.40871
 C1857 C 0.79462 0.79481 0.43384
 C1858 C 0.79523 0.78106 0.43479
 C1859 C 0.78868 0.77449 0.44482
 C1860 C 0.78145 0.78158 0.45403
 C1861 C 0.78083 0.79526 0.45321
 C1862 C 0.78737 0.80185 0.44319
 C1863 C 0.77457 0.77478 0.46423
 C1864 C 0.76875 0.76904 0.47271
 H1865 H 0.79676 0.82683 0.40156
 H1866 H 0.78560 0.81556 0.41950
 H1867 H 0.81900 0.78976 0.42381
 H1868 H 0.82996 0.80096 0.40568
 H1869 H 0.80057 0.77535 0.42766
 H1870 H 0.78918 0.76389 0.44533
 H1871 H 0.77529 0.80084 0.46031
 H1872 H 0.78685 0.81245 0.44281
 C1873 C 0.67443 0.32622 0.61727
 C1874 C 0.67986 0.32098 0.60823
 C1875 C 0.68645 0.31469 0.59753
 C1876 C 0.67961 0.30601 0.58945
 C1877 C 0.68609 0.29971 0.57920
 C1878 C 0.69951 0.30202 0.57691
 C1879 C 0.70628 0.31082 0.58504
 C1880 C 0.69978 0.31711 0.59528
 C1881 C 0.70648 0.29516 0.56617
 C1882 C 0.71926 0.29028 0.56804
 C1883 C 0.72579 0.28374 0.55798
 C1884 C 0.71965 0.28200 0.54593
 C1885 C 0.70694 0.28683 0.54396
 C1886 C 0.70039 0.29337 0.55401
 C1887 C 0.72639 0.27517 0.53564
 C1888 C 0.73212 0.26939 0.52712
 H1889 H 0.66930 0.30403 0.59114
 H1890 H 0.68066 0.29287 0.57322
 H1891 H 0.71656 0.31294 0.58342
 H1892 H 0.70516 0.32383 0.60145
 H1893 H 0.72414 0.29133 0.57734
 H1894 H 0.73561 0.27999 0.55963
 H1895 H 0.70211 0.28556 0.53465
 H1896 H 0.69061 0.29715 0.55223
 C1897 C 0.67400 0.82641 1.11718
 C1898 C 0.67945 0.82119 1.10814
 C1899 C 0.68606 0.81490 1.09745
 C1900 C 0.69938 0.81735 1.09520
 C1901 C 0.70590 0.81106 1.08497
 C1902 C 0.69916 0.80223 1.07685
 C1903 C 0.68574 0.79991 1.07914
 C1904 C 0.67924 0.80620 1.08938
 C1905 C 0.70613 0.79537 1.06612
 C1906 C 0.70005 0.79355 1.05396
 C1907 C 0.70662 0.78701 1.04392
 C1908 C 0.71933 0.78220 1.04590
 C1909 C 0.72547 0.78397 1.05795
 C1910 C 0.71893 0.79052 1.06800
 C1911 C 0.72608 0.77536 1.03563
 C1912 C 0.73181 0.76958 1.02711
 H1913 H 0.70475 0.82409 1.10137
 H1914 H 0.71618 0.81319 1.08335
 H1915 H 0.68032 0.79304 1.07316
 H1916 H 0.66894 0.80420 1.09107
 H1917 H 0.69027 0.79731 1.05217
 H1918 H 0.70178 0.78571 1.03462
 H1919 H 0.73530 0.78024 1.05960
 H1920 H 0.72381 0.79160 1.07729
 C1921 C 0.17408 0.32608 1.11734
 C1922 C 0.17950 0.32084 1.10829
 C1923 C 0.18606 0.31451 1.09759
 C1924 C 0.19946 0.31665 1.09551
 C1925 C 0.20593 0.31033 1.08527
 C1926 C 0.19905 0.30177 1.07697
 C1927 C 0.18555 0.29975 1.07910
 C1928 C 0.17911 0.30608 1.08936
 C1929 C 0.20597 0.29487 1.06623
 C1930 C 0.19996 0.29335 1.05399
 C1931 C 0.20647 0.28679 1.04393
 C1932 C 0.21905 0.28164 1.04597
 C1933 C 0.22510 0.28311 1.05810
 C1934 C 0.21862 0.28968 1.06817
 C1935 C 0.22574 0.27480 1.03566
 C1936 C 0.23143 0.26902 1.02712
 H1937 H 0.20493 0.32318 1.10181
 H1938 H 0.21628 0.31222 1.08378
 H1939 H 0.18003 0.29309 1.07299
 H1940 H 0.16874 0.30432 1.09091
 H1941 H 0.19030 0.29738 1.05215
 H1942 H 0.20171 0.28573 1.03456
 H1943 H 0.23482 0.27912 1.05980
 H1944 H 0.22343 0.29052 1.07753
 C1945 C 0.17459 0.82658 0.61709
 C1946 C 0.17997 0.82139 0.60799
 C1947 C 0.18649 0.81511 0.59724
 C1948 C 0.19981 0.81754 0.59490
 C1949 C 0.20624 0.81125 0.58463
 C1950 C 0.19943 0.80244 0.57654
 C1951 C 0.18602 0.80014 0.57891
 C1952 C 0.17961 0.80643 0.58921
 C1953 C 0.20633 0.79556 0.56578
 C1954 C 0.20017 0.79375 0.55366
 C1955 C 0.20666 0.78718 0.54358
 C1956 C 0.21937 0.78233 0.54549
 C1957 C 0.22559 0.78411 0.55750
 C1958 C 0.21913 0.79068 0.56758
 C1959 C 0.22604 0.77547 0.53519
 C1960 C 0.23172 0.76966 0.52665
 H1961 H 0.20522 0.82426 0.60105
 H1962 H 0.21652 0.81337 0.58294
 H1963 H 0.18055 0.79329 0.57297
 H1964 H 0.16931 0.80444 0.59096
 H1965 H 0.19039 0.79753 0.55192
 H1966 H 0.20177 0.78588 0.53431
 H1967 H 0.23541 0.78035 0.55910
 H1968 H 0.22406 0.79175 0.57685
 C1969 C 0.32618 0.67410 0.61710
 C1970 C 0.32095 0.67950 0.60804
 C1971 C 0.31466 0.68606 0.59732
 C1972 C 0.30606 0.67918 0.58919
 C1973 C 0.29978 0.68563 0.57892
 C1974 C 0.30200 0.69906 0.57667
 C1975 C 0.31072 0.70586 0.58487
 C1976 C 0.31700 0.69939 0.59512
 C1977 C 0.29515 0.70599 0.56592
 C1978 C 0.29017 0.71873 0.56779
 C1979 C 0.28365 0.72524 0.55771
 C1980 C 0.28203 0.71912 0.54563
 C1981 C 0.28696 0.70646 0.54365
 C1982 C 0.29348 0.69992 0.55373
 C1983 C 0.27524 0.72583 0.53531
 C1984 C 0.26950 0.73155 0.52676
 H1985 H 0.30414 0.66886 0.59084
 H1986 H 0.29300 0.68017 0.57289
 H1987 H 0.31277 0.71616 0.58328
 H1988 H 0.32366 0.70480 0.60134
 H1989 H 0.29113 0.72359 0.57710
 H1990 H 0.27983 0.73502 0.55935
 H1991 H 0.28578 0.70164 0.53433
 H1992 H 0.29734 0.69019 0.55194
 C1993 C 0.32676 0.17397 1.11710
 C1994 C 0.32154 0.17937 1.10803
 C1995 C 0.31525 0.18592 1.09731
 C1996 C 0.30636 0.17912 1.08942
 C1997 C 0.30005 0.18556 1.07916
 C1998 C 0.30254 0.19891 1.07667
 C1999 C 0.31156 0.20562 1.08462
 C2000 C 0.31786 0.19916 1.09486
 C2001 C 0.29565 0.20583 1.06594
 C2002 C 0.29098 0.21870 1.06772
 C2003 C 0.28438 0.22519 1.05767
 C2004 C 0.28237 0.21892 1.04573
 C2005 C 0.28701 0.20613 1.04384
 C2006 C 0.29360 0.19962 1.05388
 C2007 C 0.27546 0.22560 1.03546
 C2008 C 0.26961 0.23127 1.02696
 H2009 H 0.30423 0.16888 1.09126
 H2010 H 0.29304 0.18017 1.07332
 H2011 H 0.31382 0.21584 1.08285
 H2012 H 0.32474 0.20451 1.10090
 H2013 H 0.29224 0.22368 1.07694
 H2014 H 0.28079 0.23507 1.05925
 H2015 H 0.28553 0.20120 1.03462
 H2016 H 0.29722 0.18978 1.05217
 C2017 C 0.82654 0.67404 1.11739
 C2018 C 0.82131 0.67938 1.10829
 C2019 C 0.81500 0.68584 1.09752
 C2020 C 0.80348 0.68064 1.09220
 C2021 C 0.79721 0.68706 1.08191
 C2022 C 0.80237 0.69879 1.07682
 C2023 C 0.81401 0.70388 1.08219
 C2024 C 0.82027 0.69744 1.09247
 C2025 C 0.79557 0.70576 1.06606
 C2026 C 0.79452 0.71952 1.06616
 C2027 C 0.78798 0.72608 1.05612
 C2028 C 0.78241 0.71899 1.04586
 C2029 C 0.78344 0.70530 1.04564
 C2030 C 0.78997 0.69872 1.05568
 C2031 C 0.77555 0.72577 1.03563
 C2032 C 0.76976 0.73153 1.02714
 H2033 H 0.79930 0.67169 1.09607
 H2034 H 0.78818 0.68298 1.07810
 H2035 H 0.81832 0.71279 1.07838
 H2036 H 0.82920 0.70154 1.09651
 H2037 H 0.79856 0.72520 1.07410
 H2038 H 0.78720 0.73667 1.05641
 H2039 H 0.77918 0.69972 1.03773
 H2040 H 0.79075 0.68813 1.05524
 C2041 C 0.82687 0.17416 0.61768
 C2042 C 0.82165 0.17956 0.60861
 C2043 C 0.81536 0.18611 0.59789
 C2044 C 0.81763 0.19947 0.59572
 C2045 C 0.81134 0.20593 0.58547
 C2046 C 0.80268 0.19909 0.57723
 C2047 C 0.80054 0.18564 0.57944
 C2048 C 0.80683 0.17921 0.58971
 C2049 C 0.79582 0.20600 0.56647
 C2050 C 0.79422 0.19995 0.55427
 C2051 C 0.78768 0.20645 0.54419
 C2052 C 0.78265 0.21908 0.54618
 C2053 C 0.78421 0.22518 0.55827
 C2054 C 0.79075 0.21870 0.56835
 C2055 C 0.77584 0.22576 0.53585
 C2056 C 0.77008 0.23146 0.52730
 H2057 H 0.82423 0.20491 0.60198
 H2058 H 0.81333 0.21624 0.58391
 H2059 H 0.79381 0.18015 0.57338
 H2060 H 0.80497 0.16887 0.59133
 H2061 H 0.79815 0.19024 0.55247
 H2062 H 0.78655 0.20165 0.53485
 H2063 H 0.78031 0.23493 0.55993
 H2064 H 0.79166 0.22355 0.57768
 C2065 C 0.67382 0.67393 0.38252
 C2066 C 0.67908 0.67919 0.39164
 C2067 C 0.68540 0.68556 0.40244
 C2068 C 0.67912 0.69590 0.40890
 C2069 C 0.68537 0.70228 0.41922
 C2070 C 0.69801 0.69841 0.42322
 C2071 C 0.70420 0.68795 0.41671
 C2072 C 0.69794 0.68158 0.40639
 C2073 C 0.70477 0.70536 0.43401
 C2074 C 0.71216 0.69834 0.44325
 C2075 C 0.71866 0.70493 0.45329
 C2076 C 0.71788 0.71860 0.45422
 C2077 C 0.71051 0.72566 0.44511
 C2078 C 0.70399 0.71910 0.43507
 C2079 C 0.72475 0.72541 0.46442
 C2080 C 0.73056 0.73118 0.47287
 H2081 H 0.66941 0.69904 0.40594
 H2082 H 0.68028 0.71018 0.42413
 H2083 H 0.71399 0.68485 0.41944
 H2084 H 0.70291 0.67363 0.40142
 H2085 H 0.71281 0.68775 0.44279
 H2086 H 0.72432 0.69936 0.46030
 H2087 H 0.70988 0.73625 0.44571
 H2088 H 0.69853 0.72480 0.42801
 C2089 C 0.67469 0.17411 -0.11819
 C2090 C 0.68005 0.17937 -0.10913
 C2091 C 0.68656 0.18568 -0.09841
 C2092 C 0.70022 0.18482 -0.09718
 C2093 C 0.70660 0.19112 -0.08690
 C2094 C 0.69940 0.19838 -0.07768
 C2095 C 0.68566 0.19912 -0.07895
 C2096 C 0.67930 0.19282 -0.08926
 C2097 C 0.70621 0.20524 -0.06687
 C2098 C 0.70083 0.20532 -0.05425
 C2099 C 0.70725 0.21183 -0.04410
 C2100 C 0.71911 0.21834 -0.04644
 C2101 C 0.72454 0.21832 -0.05895
 C2102 C 0.71814 0.21181 -0.06910
 C2103 C 0.72572 0.22510 -0.03604
 C2104 C 0.73134 0.23083 -0.02742
 H2105 H 0.70593 0.17930 -0.10419
 H2106 H 0.71716 0.19022 -0.08609
 H2107 H 0.67987 0.20476 -0.07211
 H2108 H 0.66872 0.19358 -0.09014
 H2109 H 0.69175 0.20021 -0.05219
 H2110 H 0.70298 0.21176 -0.03445
 H2111 H 0.73369 0.22337 -0.06087
 H2112 H 0.72244 0.21209 -0.07873
 C2113 C 0.17402 0.67378 -0.11809
 C2114 C 0.17936 0.67903 -0.10902
 C2115 C 0.18584 0.68535 -0.09827
 C2116 C 0.17911 0.69460 -0.09072
 C2117 C 0.18548 0.70091 -0.08043
 C2118 C 0.19869 0.69807 -0.07757
 C2119 C 0.20534 0.68870 -0.08518
 C2120 C 0.19895 0.68239 -0.09545
 C2121 C 0.20555 0.70495 -0.06680
 C2122 C 0.21861 0.70918 -0.06833
 C2123 C 0.22504 0.71576 -0.05825
 C2124 C 0.21852 0.71819 -0.04650
 C2125 C 0.20555 0.71400 -0.04486
 C2126 C 0.19909 0.70743 -0.05494
 C2127 C 0.22515 0.72507 -0.03619
 C2128 C 0.23079 0.73089 -0.02765
 H2129 H 0.16897 0.69700 -0.09285
 H2130 H 0.18015 0.70819 -0.07487
 H2131 H 0.21545 0.68617 -0.08311
 H2132 H 0.20424 0.67523 -0.10122
 H2133 H 0.22378 0.70759 -0.07740
 H2134 H 0.23507 0.71900 -0.05964
 H2135 H 0.20042 0.71581 -0.03580
 H2136 H 0.18910 0.70415 -0.05341
 C2137 C 0.17408 0.17425 0.38258
 C2138 C 0.17925 0.17948 0.39177
 C2139 C 0.18548 0.18579 0.40266
 C2140 C 0.17840 0.19459 0.41042
 C2141 C 0.18453 0.20091 0.42085
 C2142 C 0.19784 0.19850 0.42366
 C2143 C 0.20485 0.18958 0.41584
 C2144 C 0.19870 0.18328 0.40542
 C2145 C 0.20444 0.20539 0.43458
 C2146 C 0.21341 0.19872 0.44263
 C2147 C 0.21980 0.20529 0.45275
 C2148 C 0.21732 0.21860 0.45496
 C2149 C 0.20837 0.22532 0.44707
 C2150 C 0.20196 0.21877 0.43695
 C2151 C 0.22412 0.22544 0.46519
 C2152 C 0.22990 0.23123 0.47366
 H2153 H 0.16816 0.19659 0.40839
 H2154 H 0.17884 0.20760 0.42678
 H2155 H 0.21514 0.18765 0.41764
 H2156 H 0.20428 0.17652 0.39944
 H2157 H 0.21540 0.18839 0.44116
 H2158 H 0.22670 0.19999 0.45882
 H2159 H 0.20642 0.23564 0.44866
 H2160 H 0.19525 0.22422 0.43082
 C2161 C 0.32591 0.38213 0.67395
 C2162 C 0.32058 0.39117 0.67936
 C2163 C 0.31415 0.40186 0.68593
 C2164 C 0.31343 0.40199 0.69953
 C2165 C 0.30701 0.41224 0.70595
 C2166 C 0.30123 0.42253 0.69884
 C2167 C 0.30207 0.42235 0.68517
 C2168 C 0.30848 0.41207 0.67877
 C2169 C 0.29426 0.43333 0.70566
 C2170 C 0.29559 0.44640 0.70144
 C2171 C 0.28902 0.45654 0.70790
 C2172 C 0.28102 0.45376 0.71862
 C2173 C 0.27961 0.44080 0.72287
 C2174 C 0.28618 0.43065 0.71645
 C2175 C 0.27425 0.46417 0.72530
 C2176 C 0.26852 0.47279 0.73099
 H2177 H 0.31781 0.39415 0.70517
 H2178 H 0.30669 0.41219 0.71648
 H2179 H 0.29757 0.43004 0.67942
 H2180 H 0.30894 0.41204 0.66823
 H2181 H 0.30186 0.44879 0.69327
 H2182 H 0.29020 0.46655 0.70455
 H2183 H 0.27341 0.43853 0.73114
 H2184 H 0.28480 0.42068 0.71981
 C2185 C 0.32502 0.88245 0.17310
 C2186 C 0.31959 0.89148 0.17845
 C2187 C 0.31302 0.90215 0.18492
 C2188 C 0.31960 0.91398 0.18712
 C2189 C 0.31324 0.92429 0.19353
 C2190 C 0.30020 0.92286 0.19785
 C2191 C 0.29366 0.91093 0.19554
 C2192 C 0.30004 0.90065 0.18912
 C2193 C 0.29347 0.93372 0.20481
 C2194 C 0.28538 0.93109 0.21560
 C2195 C 0.27902 0.94129 0.22214
 C2196 C 0.28064 0.95426 0.21800
 C2197 C 0.28867 0.95700 0.20729
 C2198 C 0.29506 0.94681 0.20073
 C2199 C 0.27404 0.96473 0.22476
 C2200 C 0.26844 0.97339 0.23051
 H2201 H 0.32967 0.91523 0.18394
 H2202 H 0.31858 0.93328 0.19531
 H2203 H 0.28357 0.90959 0.19858
 H2204 H 0.29484 0.89154 0.18743
 H2205 H 0.28411 0.92115 0.21909
 H2206 H 0.27286 0.93907 0.23045
 H2207 H 0.28997 0.96701 0.20398
 H2208 H 0.30109 0.94913 0.19237
 C2209 C 0.82573 0.38176 0.17370
 C2210 C 0.82031 0.39077 0.17908
 C2211 C 0.81373 0.40141 0.18558
 C2212 C 0.80099 0.39969 0.19037
 C2213 C 0.79462 0.40995 0.19681
 C2214 C 0.80092 0.42210 0.19857
 C2215 C 0.81372 0.42376 0.19367
 C2216 C 0.82008 0.41347 0.18723
 C2217 C 0.79418 0.43296 0.20552
 C2218 C 0.79522 0.44596 0.20105
 C2219 C 0.78880 0.45615 0.20759
 C2220 C 0.78127 0.45348 0.21867
 C2221 C 0.78021 0.44059 0.22321
 C2222 C 0.78661 0.43039 0.21670
 C2223 C 0.77457 0.46392 0.22537
 C2224 C 0.76887 0.47256 0.23105
 H2225 H 0.79598 0.39040 0.18912
 H2226 H 0.78470 0.40842 0.20031
 H2227 H 0.81888 0.43294 0.19500
 H2228 H 0.82996 0.41490 0.18360
 H2229 H 0.80084 0.44823 0.19240
 H2230 H 0.78966 0.46609 0.20397
 H2231 H 0.77444 0.43841 0.23181
 H2232 H 0.78577 0.42052 0.22048
 C2233 C 0.82542 0.88202 0.67340
 C2234 C 0.81993 0.89101 0.67876
 C2235 C 0.81329 0.90163 0.68522
 C2236 C 0.80033 0.90004 0.68947
 C2237 C 0.79389 0.91028 0.69588
 C2238 C 0.80033 0.92227 0.69815
 C2239 C 0.81334 0.92379 0.69379
 C2240 C 0.81977 0.91353 0.68738
 C2241 C 0.79353 0.93309 0.70509
 C2242 C 0.79499 0.94618 0.70097
 C2243 C 0.78853 0.95634 0.70752
 C2244 C 0.78056 0.95356 0.71826
 C2245 C 0.77906 0.94059 0.72244
 C2246 C 0.78549 0.93042 0.71591
 C2247 C 0.77388 0.96399 0.72500
 C2248 C 0.76822 0.97262 0.73074
 H2249 H 0.79521 0.89088 0.68782
 H2250 H 0.78382 0.90886 0.69896
 H2251 H 0.81862 0.93284 0.69552
 H2252 H 0.82982 0.91486 0.68417
 H2253 H 0.80098 0.94853 0.69259
 H2254 H 0.78973 0.96634 0.70418
 H2255 H 0.77294 0.93833 0.73078
 H2256 H 0.78431 0.92048 0.71943
 C2257 C 0.67502 0.61815 0.67387
 C2258 C 0.68046 0.60909 0.67915
 C2259 C 0.68702 0.59838 0.68555
 C2260 C 0.67975 0.58784 0.69048
 C2261 C 0.68611 0.57754 0.69689
 C2262 C 0.69984 0.57766 0.69846
 C2263 C 0.70705 0.58827 0.69341
 C2264 C 0.70067 0.59855 0.68700
 C2265 C 0.70659 0.56683 0.70545
 C2266 C 0.71693 0.56954 0.71412
 C2267 C 0.72327 0.55936 0.72073
 C2268 C 0.71937 0.54635 0.71877
 C2269 C 0.70910 0.54355 0.71017
 C2270 C 0.70274 0.55371 0.70355
 C2271 C 0.72592 0.53592 0.72562
 C2272 C 0.73147 0.52726 0.73142
 H2273 H 0.66917 0.58764 0.68945
 H2274 H 0.68027 0.56960 0.70081
 H2275 H 0.71764 0.58856 0.69431
 H2276 H 0.70639 0.60665 0.68320
 H2277 H 0.72000 0.57954 0.71593
 H2278 H 0.73118 0.56165 0.72740
 H2279 H 0.70603 0.53351 0.70856
 H2280 H 0.69493 0.55130 0.69682
 C2281 C 0.67418 0.11748 0.17351
 C2282 C 0.67952 0.10838 0.17881
 C2283 C 0.68599 0.09760 0.18520
 C2284 C 0.67952 0.09060 0.19500
 C2285 C 0.68589 0.08030 0.20138
 C2286 C 0.69886 0.07688 0.19806
 C2287 C 0.70525 0.08394 0.18814
 C2288 C 0.69885 0.09423 0.18177
 C2289 C 0.70574 0.06610 0.20500
 C2290 C 0.71903 0.06740 0.20851
 C2291 C 0.72548 0.05731 0.21514
 C2292 C 0.71876 0.04580 0.21836
 C2293 C 0.70555 0.04439 0.21490
 C2294 C 0.69907 0.05447 0.20827
 C2295 C 0.72542 0.03548 0.22528
 C2296 C 0.73109 0.02693 0.23112
 H2297 H 0.66958 0.09317 0.19777
 H2298 H 0.68077 0.07516 0.20908
 H2299 H 0.71516 0.08143 0.18524
 H2300 H 0.70395 0.09957 0.17418
 H2301 H 0.72438 0.07629 0.20630
 H2302 H 0.73570 0.05852 0.21782
 H2303 H 0.70026 0.03550 0.21732
 H2304 H 0.68888 0.05311 0.20557
 C2305 C 0.17421 0.61816 0.17380
 C2306 C 0.17951 0.60902 0.17907
 C2307 C 0.18589 0.59818 0.18544
 C2308 C 0.18122 0.59363 0.19742
 C2309 C 0.18755 0.58326 0.20373
 C2310 C 0.19867 0.57730 0.19813
 C2311 C 0.20325 0.58191 0.18604
 C2312 C 0.19689 0.59228 0.17975
 C2313 C 0.20555 0.56644 0.20494
 C2314 C 0.21935 0.56586 0.20510
 C2315 C 0.22583 0.55574 0.21166
 C2316 C 0.21862 0.54605 0.21813
 C2317 C 0.20489 0.54650 0.21799
 C2318 C 0.19838 0.55662 0.21144
 C2319 C 0.22532 0.53575 0.22503
 C2320 C 0.23100 0.52719 0.23085
 H2321 H 0.17274 0.59817 0.20194
 H2322 H 0.18390 0.58006 0.21310
 H2323 H 0.21168 0.57742 0.18141
 H2324 H 0.20058 0.59571 0.17046
 H2325 H 0.22515 0.57336 0.20035
 H2326 H 0.23647 0.55551 0.21176
 H2327 H 0.19921 0.53904 0.22295
 H2328 H 0.18775 0.55670 0.21136
 C2329 C 0.17385 0.11691 0.67377
 C2330 C 0.17922 0.10778 0.67900
 C2331 C 0.18572 0.09698 0.68531
 C2332 C 0.17963 0.09046 0.69566
 C2333 C 0.18606 0.08014 0.70197
 C2334 C 0.19870 0.07623 0.69802
 C2335 C 0.20471 0.08280 0.68755
 C2336 C 0.19825 0.09310 0.68125
 C2337 C 0.20565 0.06545 0.70489
 C2338 C 0.21915 0.06644 0.70760
 C2339 C 0.22568 0.05637 0.71420
 C2340 C 0.21882 0.04518 0.71815
 C2341 C 0.20539 0.04407 0.71547
 C2342 C 0.19884 0.05414 0.70888
 C2343 C 0.22555 0.03490 0.72505
 C2344 C 0.23128 0.02638 0.73088
 H2345 H 0.16995 0.09341 0.69891
 H2346 H 0.18124 0.07539 0.71009
 H2347 H 0.21435 0.07991 0.68417
 H2348 H 0.20305 0.09807 0.67323
 H2349 H 0.22463 0.07510 0.70482
 H2350 H 0.23606 0.05735 0.71627
 H2351 H 0.19999 0.03543 0.71847
 H2352 H 0.18849 0.05301 0.70680
 C2353 C 0.32587 0.61754 0.32616
 C2354 C 0.32052 0.60843 0.32090
 C2355 C 0.31405 0.59765 0.31455
 C2356 C 0.31978 0.59171 0.30367
 C2357 C 0.31338 0.58140 0.29734
 C2358 C 0.30112 0.57690 0.30182
 C2359 C 0.29548 0.58289 0.31281
 C2360 C 0.30190 0.59320 0.31913
 C2361 C 0.29419 0.56612 0.29495
 C2362 C 0.28053 0.56671 0.29299
 C2363 C 0.27402 0.55664 0.28640
 C2364 C 0.28105 0.54585 0.28169
 C2365 C 0.29463 0.54513 0.28362
 C2366 C 0.30117 0.55520 0.29020
 C2367 C 0.27433 0.53557 0.27479
 C2368 C 0.26861 0.52705 0.26898
 H2369 H 0.32916 0.59511 0.30001
 H2370 H 0.31790 0.57710 0.28880
 H2371 H 0.28614 0.57954 0.31660
 H2372 H 0.29738 0.59771 0.32756
 H2373 H 0.27491 0.57506 0.29637
 H2374 H 0.26351 0.55731 0.28492
 H2375 H 0.30017 0.53681 0.28003
 H2376 H 0.31166 0.55438 0.29169
 C2377 C 0.32561 0.11747 0.82619
 C2378 C 0.32021 0.10843 0.82087
 C2379 C 0.31367 0.09773 0.81444
 C2380 C 0.32098 0.08751 0.80896
 C2381 C 0.31463 0.07722 0.80255
 C2382 C 0.30085 0.07704 0.80152
 C2383 C 0.29359 0.08735 0.80712
 C2384 C 0.29996 0.09761 0.81354
 C2385 C 0.29408 0.06622 0.79455
 C2386 C 0.28331 0.06889 0.78639
 C2387 C 0.27694 0.05872 0.77982
 C2388 C 0.28122 0.04576 0.78131
 C2389 C 0.29192 0.04300 0.78940
 C2390 C 0.29832 0.05316 0.79598
 C2391 C 0.27460 0.03534 0.77453
 C2392 C 0.26897 0.02669 0.76880
 H2393 H 0.33160 0.08753 0.80956
 H2394 H 0.32049 0.06952 0.79820
 H2395 H 0.28297 0.08740 0.80666
 H2396 H 0.29420 0.10547 0.81777
 H2397 H 0.27993 0.07885 0.78494
 H2398 H 0.26869 0.06097 0.77354
 H2399 H 0.29529 0.03300 0.79065
 H2400 H 0.30647 0.05078 0.80231
 C2401 C 0.82610 0.61722 0.82696
 C2402 C 0.82073 0.60810 0.82173
 C2403 C 0.81426 0.59730 0.81540
 C2404 C 0.81996 0.59138 0.80449
 C2405 C 0.81355 0.58106 0.79818
 C2406 C 0.80132 0.57655 0.80270
 C2407 C 0.79570 0.58252 0.81373
 C2408 C 0.80214 0.59282 0.82003
 C2409 C 0.79437 0.56577 0.79584
 C2410 C 0.78070 0.56635 0.79393
 C2411 C 0.77418 0.55630 0.78733
 C2412 C 0.78120 0.54553 0.78256
 C2413 C 0.79479 0.54482 0.78444
 C2414 C 0.80134 0.55487 0.79104
 C2415 C 0.77447 0.53529 0.77562
 C2416 C 0.76875 0.52679 0.76976
 H2417 H 0.82932 0.59480 0.80080
 H2418 H 0.81804 0.57679 0.78962
 H2419 H 0.78639 0.57915 0.81754
 H2420 H 0.79765 0.59732 0.82848
 H2421 H 0.77508 0.57469 0.79735
 H2422 H 0.76366 0.55697 0.78588
 H2423 H 0.80033 0.53651 0.78081
 H2424 H 0.81184 0.55406 0.79249
 C2425 C 0.82586 0.11748 0.32653
 C2426 C 0.82040 0.10846 0.32123
 C2427 C 0.81380 0.09779 0.31481
 C2428 C 0.82106 0.08753 0.30932
 C2429 C 0.81464 0.07727 0.30291
 C2430 C 0.80086 0.07717 0.30190
 C2431 C 0.79366 0.08751 0.30751
 C2432 C 0.80009 0.09775 0.31392
 C2433 C 0.79403 0.06640 0.29492
 C2434 C 0.78328 0.06913 0.28675
 C2435 C 0.77686 0.05901 0.28016
 C2436 C 0.78107 0.04603 0.28164
 C2437 C 0.79175 0.04320 0.28974
 C2438 C 0.79820 0.05331 0.29633
 C2439 C 0.77441 0.03564 0.27484
 C2440 C 0.76874 0.02704 0.26910
 H2441 H 0.83168 0.08749 0.30992
 H2442 H 0.82047 0.06954 0.29856
 H2443 H 0.78304 0.08763 0.30704
 H2444 H 0.79438 0.10563 0.31816
 H2445 H 0.77995 0.07911 0.28532
 H2446 H 0.76862 0.06131 0.27389
 H2447 H 0.79507 0.03318 0.29098
 H2448 H 0.80634 0.05088 0.30267
 C2449 C 0.67403 0.38224 0.32640
 C2450 C 0.67933 0.39126 0.32093
 C2451 C 0.68571 0.40193 0.31430
 C2452 C 0.68616 0.40214 0.30070
 C2453 C 0.69253 0.41238 0.29422
 C2454 C 0.69855 0.42255 0.30128
 C2455 C 0.69798 0.42229 0.31496
 C2456 C 0.69161 0.41203 0.32142
 C2457 C 0.70549 0.43332 0.29439
 C2458 C 0.70436 0.44637 0.29872
 C2459 C 0.71091 0.45649 0.29221
 C2460 C 0.71867 0.45369 0.28132
 C2461 C 0.71986 0.44075 0.27695
 C2462 C 0.71332 0.43063 0.28343
 C2463 C 0.72542 0.46407 0.27460
 C2464 C 0.73113 0.47267 0.26887
 H2465 H 0.68159 0.39439 0.29509
 H2466 H 0.69264 0.41239 0.28368
 H2467 H 0.70266 0.42989 0.32067
 H2468 H 0.69136 0.41194 0.33196
 H2469 H 0.69828 0.44878 0.30703
 H2470 H 0.70989 0.46648 0.29566
 H2471 H 0.72588 0.43847 0.26855
 H2472 H 0.71454 0.42067 0.27997
 C2473 C 0.67355 0.88248 0.82638
 C2474 C 0.67880 0.89155 0.82095
 C2475 C 0.68513 0.90228 0.81436
 C2476 C 0.68269 0.90451 0.80115
 C2477 C 0.68902 0.91476 0.79466
 C2478 C 0.69789 0.92294 0.80132
 C2479 C 0.70021 0.92066 0.81463
 C2480 C 0.69388 0.91039 0.82109
 C2481 C 0.70479 0.93369 0.79437
 C2482 C 0.70665 0.94596 0.80036
 C2483 C 0.71322 0.95603 0.79381
 C2484 C 0.71802 0.95398 0.78121
 C2485 C 0.71621 0.94182 0.77517
 C2486 C 0.70964 0.93174 0.78169
 C2487 C 0.72486 0.96430 0.77448
 C2488 C 0.73063 0.97285 0.76875
 H2489 H 0.67592 0.89830 0.79585
 H2490 H 0.68689 0.91637 0.78446
 H2491 H 0.70711 0.92668 0.81998
 H2492 H 0.69588 0.90872 0.83132
 H2493 H 0.70290 0.94781 0.81005
 H2494 H 0.71455 0.96542 0.79857
 H2495 H 0.71992 0.94010 0.76543
 H2496 H 0.70853 0.92235 0.77688
 C2497 C 0.17417 0.38228 0.82667
 C2498 C 0.17960 0.39131 0.82136
 C2499 C 0.18618 0.40200 0.81495
 C2500 C 0.17889 0.41191 0.80888
 C2501 C 0.18530 0.42218 0.80249
 C2502 C 0.19910 0.42266 0.80207
 C2503 C 0.20634 0.41269 0.80826
 C2504 C 0.19991 0.40244 0.81465
 C2505 C 0.20594 0.43345 0.79510
 C2506 C 0.21712 0.43082 0.78748
 C2507 C 0.22352 0.44095 0.78088
 C2508 C 0.21886 0.45383 0.78180
 C2509 C 0.20776 0.45655 0.78936
 C2510 C 0.20132 0.44643 0.79596
 C2511 C 0.22547 0.46421 0.77494
 C2512 C 0.23108 0.47281 0.76912
 H2513 H 0.16826 0.41164 0.80902
 H2514 H 0.17946 0.42961 0.79768
 H2515 H 0.21696 0.41288 0.80826
 H2516 H 0.20564 0.39484 0.81935
 H2517 H 0.22080 0.42091 0.78647
 H2518 H 0.23209 0.43872 0.77502
 H2519 H 0.20409 0.46650 0.79016
 H2520 H 0.19284 0.44879 0.80188
 C2521 C 0.17420 0.88327 0.32649
 C2522 C 0.17962 0.89228 0.32114
 C2523 C 0.18622 0.90294 0.31470
 C2524 C 0.19992 0.90291 0.31367
 C2525 C 0.20636 0.91314 0.30725
 C2526 C 0.19917 0.92355 0.30177
 C2527 C 0.18540 0.92353 0.30292
 C2528 C 0.17897 0.91328 0.30933
 C2529 C 0.20600 0.93432 0.29479
 C2530 C 0.20192 0.94743 0.29631
 C2531 C 0.20838 0.95754 0.28970
 C2532 C 0.21897 0.95469 0.28149
 C2533 C 0.22309 0.94169 0.27991
 C2534 C 0.21666 0.93157 0.28651
 C2535 C 0.22561 0.96506 0.27465
 C2536 C 0.23125 0.97364 0.26884
 H2537 H 0.20562 0.89497 0.31782
 H2538 H 0.21697 0.91296 0.30669
 H2539 H 0.17958 0.93132 0.29866
 H2540 H 0.16836 0.91337 0.31004
 H2541 H 0.19386 0.94988 0.30273
 H2542 H 0.20513 0.96757 0.29102
 H2543 H 0.23125 0.93937 0.27354
 H2544 H 0.21992 0.92157 0.28499
 C2545 C 0.38211 0.32520 0.67379
 C2546 C 0.39111 0.31973 0.67914
 C2547 C 0.40174 0.31312 0.68562
 C2548 C 0.39988 0.30051 0.69066
 C2549 C 0.41014 0.29411 0.69710
 C2550 C 0.42241 0.30025 0.69859
 C2551 C 0.42420 0.31291 0.69343
 C2552 C 0.41393 0.31930 0.68700
 C2553 C 0.43326 0.29350 0.70555
 C2554 C 0.44624 0.29427 0.70091
 C2555 C 0.45643 0.28785 0.70746
 C2556 C 0.45378 0.28061 0.71873
 C2557 C 0.44091 0.27981 0.72343
 C2558 C 0.43072 0.28621 0.71690
 C2559 C 0.46422 0.27394 0.72546
 C2560 C 0.47287 0.26827 0.73116
 H2561 H 0.39050 0.29562 0.68962
 H2562 H 0.40850 0.28430 0.70080
 H2563 H 0.43348 0.31796 0.69456
 H2564 H 0.41546 0.32908 0.68317
 H2565 H 0.44849 0.29967 0.69212
 H2566 H 0.46635 0.28850 0.70372
 H2567 H 0.43875 0.27426 0.73217
 H2568 H 0.42087 0.28558 0.72082
 C2569 C 0.38156 0.82583 0.17308
 C2570 C 0.39058 0.82038 0.17842
 C2571 C 0.40124 0.81378 0.18487
 C2572 C 0.41324 0.82019 0.18674
 C2573 C 0.42354 0.81380 0.19313
 C2574 C 0.42195 0.80091 0.19776
 C2575 C 0.40986 0.79454 0.19579
 C2576 C 0.39959 0.80094 0.18939
 C2577 C 0.43282 0.79414 0.20468
 C2578 C 0.43022 0.78635 0.21569
 C2579 C 0.44043 0.77995 0.22219
 C2580 C 0.45337 0.78124 0.21780
 C2581 C 0.45607 0.78898 0.20687
 C2582 C 0.44587 0.79540 0.20035
 C2583 C 0.46383 0.77460 0.22452
 C2584 C 0.47249 0.76896 0.23023
 H2585 H 0.41461 0.83015 0.18332
 H2586 H 0.43266 0.81902 0.19464
 H2587 H 0.40840 0.78456 0.19907
 H2588 H 0.39035 0.79588 0.18796
 H2589 H 0.42031 0.78534 0.21937
 H2590 H 0.43823 0.77402 0.23067
 H2591 H 0.46605 0.79002 0.20337
 H2592 H 0.44817 0.80120 0.19182
 C2593 C 0.88229 0.32517 0.17358
 C2594 C 0.89131 0.31972 0.17893
 C2595 C 0.90197 0.31313 0.18539
 C2596 C 0.90020 0.30043 0.19023
 C2597 C 0.91047 0.29404 0.19665
 C2598 C 0.92267 0.30028 0.19832
 C2599 C 0.92437 0.31304 0.19336
 C2600 C 0.91407 0.31942 0.18696
 C2601 C 0.93354 0.29353 0.20525
 C2602 C 0.94654 0.29450 0.20073
 C2603 C 0.95674 0.28808 0.20725
 C2604 C 0.95408 0.28063 0.21839
 C2605 C 0.94118 0.27964 0.22298
 C2606 C 0.93098 0.28604 0.21647
 C2607 C 0.96453 0.27396 0.22509
 C2608 C 0.97318 0.26829 0.23080
 H2609 H 0.89088 0.29546 0.18904
 H2610 H 0.90891 0.28415 0.20018
 H2611 H 0.93359 0.31816 0.19463
 H2612 H 0.91553 0.32927 0.18328
 H2613 H 0.94880 0.30006 0.19203
 H2614 H 0.96668 0.28888 0.20359
 H2615 H 0.93902 0.27393 0.23161
 H2616 H 0.92111 0.28525 0.22030
 C2617 C 0.88211 0.82556 0.67354
 C2618 C 0.89111 0.82013 0.67893
 C2619 C 0.90174 0.81355 0.68545
 C2620 C 0.91463 0.81496 0.68094
 C2621 C 0.92494 0.80851 0.68726
 C2622 C 0.92247 0.80055 0.69818
 C2623 C 0.90948 0.79922 0.70265
 C2624 C 0.89919 0.80569 0.69632
 C2625 C 0.93338 0.79364 0.70489
 C2626 C 0.93173 0.78070 0.70939
 C2627 C 0.94195 0.77424 0.71583
 C2628 C 0.95394 0.78060 0.71787
 C2629 C 0.95571 0.79344 0.71339
 C2630 C 0.94550 0.79992 0.70694
 C2631 C 0.96435 0.77397 0.72467
 C2632 C 0.97298 0.76834 0.73045
 H2633 H 0.91671 0.82100 0.67251
 H2634 H 0.93481 0.80960 0.68350
 H2635 H 0.90728 0.79332 0.71113
 H2636 H 0.88926 0.80456 0.69992
 H2637 H 0.92259 0.77553 0.70781
 H2638 H 0.94048 0.76429 0.71922
 H2639 H 0.96494 0.79847 0.71496
 H2640 H 0.94702 0.80993 0.70374
 C2641 C 0.61767 0.32557 0.32732
 C2642 C 0.60858 0.32015 0.32210
 C2643 C 0.59782 0.31360 0.31577
 C2644 C 0.58953 0.32056 0.30739
 C2645 C 0.57923 0.31414 0.30104
 C2646 C 0.57712 0.30064 0.30298
 C2647 C 0.58547 0.29374 0.31149
 C2648 C 0.59575 0.30019 0.31783
 C2649 C 0.56635 0.29374 0.29605
 C2650 C 0.56838 0.28114 0.29084
 C2651 C 0.55830 0.27469 0.28421
 C2652 C 0.54605 0.28073 0.28270
 C2653 C 0.54392 0.29325 0.28786
 C2654 C 0.55400 0.29973 0.29449
 C2655 C 0.53574 0.27408 0.27578
 C2656 C 0.52718 0.26844 0.26992
 H2657 H 0.59108 0.33093 0.30569
 H2658 H 0.57309 0.31968 0.29443
 H2659 H 0.58399 0.28339 0.31332
 H2660 H 0.60209 0.29471 0.32432
 H2661 H 0.57783 0.27634 0.29172
 H2662 H 0.56007 0.26501 0.28021
 H2663 H 0.53446 0.29800 0.28677
 H2664 H 0.55208 0.30935 0.29852
 C2665 C 0.61744 0.82555 0.82717
 C2666 C 0.60837 0.82010 0.82194
 C2667 C 0.59762 0.81352 0.81562
 C2668 C 0.58935 0.82045 0.80719
 C2669 C 0.57906 0.81400 0.80086
 C2670 C 0.57694 0.80051 0.80285
 C2671 C 0.58528 0.79365 0.81140
 C2672 C 0.59555 0.80012 0.81773
 C2673 C 0.56618 0.79359 0.79594
 C2674 C 0.56820 0.78096 0.79079
 C2675 C 0.55812 0.77449 0.78417
 C2676 C 0.54588 0.78053 0.78262
 C2677 C 0.54375 0.79308 0.78773
 C2678 C 0.55383 0.79957 0.79434
 C2679 C 0.53557 0.77387 0.77570
 C2680 C 0.52701 0.76823 0.76985
 H2681 H 0.59090 0.83081 0.80545
 H2682 H 0.57293 0.81951 0.79421
 H2683 H 0.58379 0.78331 0.81327
 H2684 H 0.60188 0.79467 0.82425
 H2685 H 0.57765 0.77616 0.79169
 H2686 H 0.55989 0.76479 0.78021
 H2687 H 0.53430 0.79783 0.78660
 H2688 H 0.55191 0.80922 0.79833
 C2689 C 0.11740 0.32596 0.82668
 C2690 C 0.10832 0.32059 0.82137
 C2691 C 0.09757 0.31407 0.81499
 C2692 C 0.08927 0.32107 0.80665
 C2693 C 0.07898 0.31468 0.80028
 C2694 C 0.07687 0.30117 0.80215
 C2695 C 0.08523 0.29424 0.81061
 C2696 C 0.09551 0.30065 0.81698
 C2697 C 0.06608 0.29430 0.79522
 C2698 C 0.06809 0.28171 0.78997
 C2699 C 0.05798 0.27526 0.78339
 C2700 C 0.04571 0.28129 0.78197
 C2701 C 0.04360 0.29380 0.78716
 C2702 C 0.05371 0.30028 0.79374
 C2703 C 0.03535 0.27462 0.77514
 C2704 C 0.02676 0.26893 0.76938
 H2705 H 0.09081 0.33146 0.80500
 H2706 H 0.07281 0.32025 0.79371
 H2707 H 0.08376 0.28388 0.81240
 H2708 H 0.10186 0.29514 0.82344
 H2709 H 0.07755 0.27692 0.79079
 H2710 H 0.05973 0.26559 0.77937
 H2711 H 0.03413 0.29855 0.78614
 H2712 H 0.05181 0.30990 0.79781
 C2713 C 0.11759 0.82678 0.32676
 C2714 C 0.10852 0.82138 0.32147
 C2715 C 0.09779 0.81484 0.31510
 C2716 C 0.08960 0.82178 0.30660
 C2717 C 0.07932 0.81535 0.30023
 C2718 C 0.07711 0.80188 0.30226
 C2719 C 0.08537 0.79502 0.31088
 C2720 C 0.09563 0.80146 0.31725
 C2721 C 0.06635 0.79499 0.29533
 C2722 C 0.06833 0.78232 0.29025
 C2723 C 0.05824 0.77586 0.28365
 C2724 C 0.04603 0.78195 0.28202
 C2725 C 0.04395 0.79453 0.28705
 C2726 C 0.05403 0.80103 0.29365
 C2727 C 0.03570 0.77528 0.27515
 C2728 C 0.02713 0.76961 0.26934
 H2729 H 0.09122 0.83213 0.30482
 H2730 H 0.07325 0.82087 0.29353
 H2731 H 0.08381 0.78469 0.31279
 H2732 H 0.10190 0.79600 0.32383
 H2733 H 0.07775 0.77749 0.29122
 H2734 H 0.05998 0.76613 0.27975
 H2735 H 0.03452 0.79933 0.28587
 H2736 H 0.05215 0.81070 0.29758
 C2737 C 0.61790 0.67417 0.67411
 C2738 C 0.60875 0.67941 0.67944
 C2739 C 0.59791 0.68573 0.68588
 C2740 C 0.59473 0.68237 0.69870
 C2741 C 0.58435 0.68866 0.70506
 C2742 C 0.57702 0.69844 0.69868
 C2743 C 0.58026 0.70170 0.68576
 C2744 C 0.59064 0.69539 0.67942
 C2745 C 0.56615 0.70530 0.70551
 C2746 C 0.56438 0.71891 0.70402
 C2747 C 0.55428 0.72540 0.71060
 C2748 C 0.54580 0.71839 0.71875
 C2749 C 0.54743 0.70485 0.72026
 C2750 C 0.55754 0.69833 0.71369
 C2751 C 0.53553 0.72514 0.72568
 C2752 C 0.52700 0.73085 0.73151
 H2753 H 0.60033 0.67494 0.70382
 H2754 H 0.58222 0.68605 0.71506
 H2755 H 0.57470 0.70906 0.68053
 H2756 H 0.59300 0.69805 0.66948
 H2757 H 0.57096 0.72457 0.69794
 H2758 H 0.55313 0.73590 0.70941
 H2759 H 0.54090 0.69932 0.72652
 H2760 H 0.55854 0.68783 0.71491
 C2761 C 0.61787 0.17433 0.17367
 C2762 C 0.60883 0.17976 0.17901
 C2763 C 0.59814 0.18632 0.18546
 C2764 C 0.59750 0.20003 0.18549
 C2765 C 0.58725 0.20644 0.19194
 C2766 C 0.57749 0.19921 0.19845
 C2767 C 0.57818 0.18542 0.19831
 C2768 C 0.58845 0.17903 0.19186
 C2769 C 0.56672 0.20603 0.20547
 C2770 C 0.55378 0.20123 0.20493
 C2771 C 0.54366 0.20765 0.21158
 C2772 C 0.54635 0.21894 0.21886
 C2773 C 0.55918 0.22379 0.21946
 C2774 C 0.56930 0.21739 0.21281
 C2775 C 0.53597 0.22555 0.22575
 C2776 C 0.52736 0.23117 0.23157
 H2777 H 0.60493 0.20576 0.18055
 H2778 H 0.58690 0.21705 0.19172
 H2779 H 0.57092 0.17959 0.20337
 H2780 H 0.58888 0.16841 0.19194
 H2781 H 0.55145 0.19260 0.19924
 H2782 H 0.53375 0.20384 0.21103
 H2783 H 0.56137 0.23249 0.22510
 H2784 H 0.57918 0.22122 0.21357
 C2785 C 0.11780 0.67493 0.17383
 C2786 C 0.10869 0.68030 0.17911
 C2787 C 0.09790 0.68677 0.18549
 C2788 C 0.09310 0.69866 0.18063
 C2789 C 0.08278 0.70508 0.18695
 C2790 C 0.07712 0.69968 0.19824
 C2791 C 0.08197 0.68767 0.20300
 C2792 C 0.09230 0.68128 0.19666
 C2793 C 0.06630 0.70661 0.20510
 C2794 C 0.05563 0.69957 0.21027
 C2795 C 0.04554 0.70610 0.21685
 C2796 C 0.04598 0.71973 0.21836
 C2797 C 0.05653 0.72682 0.21322
 C2798 C 0.06663 0.72032 0.20662
 C2799 C 0.03569 0.72645 0.22528
 C2800 C 0.02714 0.73213 0.23112
 H2801 H 0.09736 0.70299 0.17197
 H2802 H 0.07915 0.71422 0.18296
 H2803 H 0.07793 0.68335 0.21175
 H2804 H 0.09597 0.67210 0.20053
 H2805 H 0.05502 0.68903 0.20911
 H2806 H 0.03740 0.70051 0.22077
 H2807 H 0.05700 0.73738 0.21437
 H2808 H 0.07479 0.72599 0.20291
 C2809 C 0.11727 0.17347 0.67442
 C2810 C 0.10819 0.17876 0.67982
 C2811 C 0.09744 0.18513 0.68636
 C2812 C 0.09005 0.19470 0.67991
 C2813 C 0.07976 0.20106 0.68635
 C2814 C 0.07675 0.19794 0.69936
 C2815 C 0.08420 0.18825 0.70573
 C2816 C 0.09448 0.18190 0.69927
 C2817 C 0.06597 0.20485 0.70629
 C2818 C 0.06752 0.20872 0.71934
 C2819 C 0.05744 0.21533 0.72584
 C2820 C 0.04567 0.21815 0.71940
 C2821 C 0.04401 0.21433 0.70643
 C2822 C 0.05409 0.20772 0.69990
 C2823 C 0.03536 0.22506 0.72610
 C2824 C 0.02679 0.23089 0.73177
 H2825 H 0.09229 0.19731 0.66994
 H2826 H 0.07431 0.20859 0.68124
 H2827 H 0.08202 0.18550 0.71567
 H2828 H 0.10013 0.17448 0.70434
 H2829 H 0.07661 0.20682 0.72447
 H2830 H 0.05884 0.21829 0.73587
 H2831 H 0.03493 0.21644 0.70136
 H2832 H 0.05254 0.20473 0.68991
 C2833 C 0.38232 0.67414 0.32571
 C2834 C 0.39137 0.67948 0.32031
 C2835 C 0.40207 0.68589 0.31375
 C2836 C 0.41049 0.69421 0.32064
 C2837 C 0.42076 0.70060 0.31421
 C2838 C 0.42272 0.69877 0.30077
 C2839 C 0.41423 0.69033 0.29395
 C2840 C 0.40399 0.68394 0.30040
 C2841 C 0.43347 0.70572 0.29387
 C2842 C 0.43136 0.71109 0.28143
 C2843 C 0.44146 0.71767 0.27494
 C2844 C 0.45379 0.71898 0.28078
 C2845 C 0.45601 0.71368 0.29315
 C2846 C 0.44591 0.70710 0.29967
 C2847 C 0.46414 0.72579 0.27406
 C2848 C 0.47272 0.73153 0.26832
 H2849 H 0.40907 0.69582 0.33097
 H2850 H 0.42702 0.70716 0.31970
 H2851 H 0.41559 0.68858 0.28364
 H2852 H 0.39754 0.67750 0.29498
 H2853 H 0.42185 0.71036 0.27679
 H2854 H 0.43963 0.72178 0.26539
 H2855 H 0.46553 0.71461 0.29775
 H2856 H 0.44789 0.70294 0.30916
 C2857 C 0.38253 0.17364 0.82638
 C2858 C 0.39167 0.17895 0.82112
 C2859 C 0.40249 0.18538 0.81477
 C2860 C 0.40818 0.17982 0.80366
 C2861 C 0.41852 0.18620 0.79734
 C2862 C 0.42330 0.19825 0.80205
 C2863 C 0.41756 0.20371 0.81327
 C2864 C 0.40723 0.19731 0.81958
 C2865 C 0.43411 0.20516 0.79519
 C2866 C 0.43372 0.21886 0.79357
 C2867 C 0.44381 0.22536 0.78698
 C2868 C 0.45442 0.21827 0.78193
 C2869 C 0.45493 0.20465 0.78352
 C2870 C 0.44484 0.19813 0.79011
 C2871 C 0.46470 0.22499 0.77501
 C2872 C 0.47322 0.23069 0.76917
 H2873 H 0.40456 0.17061 0.79983
 H2874 H 0.42262 0.18182 0.78864
 H2875 H 0.42113 0.21288 0.81723
 H2876 H 0.40291 0.20169 0.82818
 H2877 H 0.42551 0.22453 0.79721
 H2878 H 0.44329 0.23590 0.78576
 H2879 H 0.46311 0.19907 0.77967
 H2880 H 0.44550 0.18760 0.79133
 C2881 C 0.88239 0.67396 0.82611
 C2882 C 0.89138 0.67933 0.82065
 C2883 C 0.90201 0.68580 0.81403
 C2884 C 0.91336 0.68934 0.82084
 C2885 C 0.92362 0.69575 0.81441
 C2886 C 0.92263 0.69872 0.80107
 C2887 C 0.91119 0.69507 0.79431
 C2888 C 0.90096 0.68866 0.80075
 C2889 C 0.93344 0.70566 0.79424
 C2890 C 0.93065 0.71552 0.78506
 C2891 C 0.94081 0.72202 0.77859
 C2892 C 0.95389 0.71876 0.78119
 C2893 C 0.95679 0.70899 0.79031
 C2894 C 0.94664 0.70248 0.79681
 C2895 C 0.96431 0.72544 0.77444
 C2896 C 0.97294 0.73109 0.76869
 H2897 H 0.91426 0.68721 0.83113
 H2898 H 0.93222 0.69857 0.81991
 H2899 H 0.91021 0.69706 0.78400
 H2900 H 0.89223 0.68593 0.79538
 H2901 H 0.92060 0.71832 0.78300
 H2902 H 0.93845 0.72960 0.77158
 H2903 H 0.96689 0.70637 0.79237
 H2904 H 0.94910 0.69483 0.80370
 C2905 C 0.88276 0.17362 0.32619
 C2906 C 0.89183 0.17892 0.32077
 C2907 C 0.90255 0.18528 0.31420
 C2908 C 0.90447 0.18329 0.30087
 C2909 C 0.91473 0.18964 0.29440
 C2910 C 0.92322 0.19809 0.30121
 C2911 C 0.92126 0.19997 0.31464
 C2912 C 0.91098 0.19361 0.32108
 C2913 C 0.93400 0.20500 0.29429
 C2914 C 0.94644 0.20638 0.30010
 C2915 C 0.95654 0.21293 0.29357
 C2916 C 0.95435 0.21820 0.28119
 C2917 C 0.94202 0.21689 0.27534
 C2918 C 0.93191 0.21033 0.28183
 C2919 C 0.96471 0.22499 0.27447
 C2920 C 0.97330 0.23072 0.26874
 H2921 H 0.89802 0.17684 0.29546
 H2922 H 0.91610 0.18785 0.28410
 H2923 H 0.92752 0.20653 0.32011
 H2924 H 0.90955 0.19526 0.33140
 H2925 H 0.94840 0.20224 0.30961
 H2926 H 0.96606 0.21387 0.29818
 H2927 H 0.94020 0.22097 0.26577
 H2928 H 0.92240 0.20960 0.27718
 C2929 C 0.32594 0.32613 0.61733
 C2930 C 0.32061 0.32088 0.60825
 C2931 C 0.31418 0.31454 0.59749
 C2932 C 0.31705 0.30145 0.59453
 C2933 C 0.31064 0.29519 0.58424
 C2934 C 0.30123 0.30195 0.57677
 C2935 C 0.29846 0.31513 0.57978
 C2936 C 0.30490 0.32138 0.59007
 C2937 C 0.29423 0.29522 0.56599
 C2938 C 0.28071 0.29727 0.56405
 C2939 C 0.27407 0.29076 0.55405
 C2940 C 0.28085 0.28214 0.54585
 C2941 C 0.29432 0.28009 0.54765
 C2942 C 0.30097 0.28658 0.55765
 C2943 C 0.27395 0.27527 0.53571
 C2944 C 0.26812 0.26945 0.52730
 H2945 H 0.32418 0.29606 0.60024
 H2946 H 0.31286 0.28499 0.58227
 H2947 H 0.29140 0.32064 0.57411
 H2948 H 0.30262 0.33152 0.59227
 H2949 H 0.27521 0.30372 0.57041
 H2950 H 0.26364 0.29238 0.55277
 H2951 H 0.29966 0.27345 0.54134
 H2952 H 0.31141 0.28493 0.55879
 C2953 C 0.32540 0.82633 0.11662
 C2954 C 0.32011 0.82104 0.10754
 C2955 C 0.31372 0.81464 0.09679
 C2956 C 0.31692 0.80167 0.09365
 C2957 C 0.31056 0.79536 0.08335
 C2958 C 0.30089 0.80193 0.07607
 C2959 C 0.29779 0.81500 0.07927
 C2960 C 0.30417 0.82130 0.08957
 C2961 C 0.29397 0.79515 0.06528
 C2962 C 0.28037 0.79684 0.06350
 C2963 C 0.27382 0.79028 0.05347
 C2964 C 0.28076 0.78197 0.04509
 C2965 C 0.29429 0.78027 0.04673
 C2966 C 0.30086 0.78681 0.05676
 C2967 C 0.27396 0.77506 0.03491
 C2968 C 0.26822 0.76922 0.02645
 H2969 H 0.32427 0.79641 0.09921
 H2970 H 0.31305 0.78525 0.08124
 H2971 H 0.29051 0.82038 0.07375
 H2972 H 0.30163 0.83135 0.09190
 H2973 H 0.27476 0.80304 0.07000
 H2974 H 0.26334 0.79163 0.05232
 H2975 H 0.29976 0.77388 0.04028
 H2976 H 0.31135 0.78544 0.05777
 C2977 C 0.82607 0.32568 0.11718
 C2978 C 0.82076 0.32039 0.10811
 C2979 C 0.81436 0.31400 0.09736
 C2980 C 0.81745 0.30098 0.09430
 C2981 C 0.81108 0.29467 0.08400
 C2982 C 0.80151 0.30131 0.07664
 C2983 C 0.79852 0.31442 0.07976
 C2984 C 0.80491 0.32071 0.09005
 C2985 C 0.79458 0.29454 0.06584
 C2986 C 0.78101 0.29637 0.06397
 C2987 C 0.77445 0.28984 0.05393
 C2988 C 0.78135 0.28142 0.04562
 C2989 C 0.79486 0.27959 0.04736
 C2990 C 0.80144 0.28610 0.05740
 C2991 C 0.77454 0.27456 0.03542
 C2992 C 0.76880 0.26876 0.02694
 H2993 H 0.82471 0.29567 0.09993
 H2994 H 0.81347 0.28453 0.08196
 H2995 H 0.79133 0.31985 0.07417
 H2996 H 0.80247 0.33080 0.09233
 H2997 H 0.77543 0.30266 0.07041
 H2998 H 0.76399 0.29129 0.05271
 H2999 H 0.80030 0.27311 0.04096
 H3000 H 0.81191 0.28462 0.05848
 C3001 C 0.82625 0.82607 0.61678
 C3002 C 0.82099 0.82079 0.60767
 C3003 C 0.81462 0.81442 0.59689
 C3004 C 0.81740 0.80129 0.59406
 C3005 C 0.81102 0.79500 0.58376
 C3006 C 0.80176 0.80179 0.57615
 C3007 C 0.79909 0.81502 0.57903
 C3008 C 0.80548 0.82129 0.58934
 C3009 C 0.79479 0.79504 0.56536
 C3010 C 0.78131 0.79721 0.56328
 C3011 C 0.77470 0.79069 0.55327
 C3012 C 0.78147 0.78194 0.54519
 C3013 C 0.79490 0.77977 0.54713
 C3014 C 0.80153 0.78627 0.55715
 C3015 C 0.77460 0.77507 0.53504
 C3016 C 0.76878 0.76926 0.52661
 H3017 H 0.82442 0.79587 0.59989
 H3018 H 0.81316 0.78477 0.58190
 H3019 H 0.79213 0.82056 0.57325
 H3020 H 0.80327 0.83147 0.59143
 H3021 H 0.77582 0.80376 0.56954
 H3022 H 0.76430 0.79240 0.55188
 H3023 H 0.80024 0.77303 0.54092
 H3024 H 0.81194 0.78452 0.55840
 C3025 C 0.32630 0.67394 0.38239
 C3026 C 0.32104 0.67923 0.39150
 C3027 C 0.31470 0.68562 0.40230
 C3028 C 0.32127 0.69545 0.40922
 C3029 C 0.31502 0.70184 0.41955
 C3030 C 0.30210 0.69849 0.42308
 C3031 C 0.29561 0.68854 0.41610
 C3032 C 0.30188 0.68216 0.40577
 C3033 C 0.29535 0.70544 0.43388
 C3034 C 0.28735 0.69853 0.44270
 C3035 C 0.28085 0.70514 0.45274
 C3036 C 0.28225 0.71872 0.45410
 C3037 C 0.29021 0.72568 0.44542
 C3038 C 0.29673 0.71909 0.43538
 C3039 C 0.27538 0.72556 0.46430
 C3040 C 0.26959 0.73136 0.47276
 H3041 H 0.33121 0.69818 0.40663
 H3042 H 0.32032 0.70934 0.42483
 H3043 H 0.28561 0.68585 0.41846
 H3044 H 0.29669 0.67461 0.40044
 H3045 H 0.28622 0.68800 0.44190
 H3046 H 0.27472 0.69965 0.45942
 H3047 H 0.29132 0.73620 0.44636
 H3048 H 0.30266 0.72472 0.42865
 C3049 C 0.32608 0.17368 0.88262
 C3050 C 0.32082 0.17900 0.89171
 C3051 C 0.31449 0.18545 0.90248
 C3052 C 0.31991 0.19688 0.90775
 C3053 C 0.31364 0.20330 0.91804
 C3054 C 0.30183 0.19837 0.92320
 C3055 C 0.29650 0.18682 0.91788
 C3056 C 0.30279 0.18042 0.90758
 C3057 C 0.29503 0.20532 0.93397
 C3058 C 0.28915 0.19824 0.94419
 C3059 C 0.28262 0.20481 0.95424
 C3060 C 0.28188 0.21852 0.95421
 C3061 C 0.28772 0.22564 0.94411
 C3062 C 0.29426 0.21910 0.93406
 C3063 C 0.27502 0.22529 0.96445
 C3064 C 0.26924 0.23104 0.97296
 H3065 H 0.32898 0.20085 0.90388
 H3066 H 0.31808 0.21207 0.92203
 H3067 H 0.28735 0.18287 0.92153
 H3068 H 0.29848 0.17160 0.90354
 H3069 H 0.28971 0.18764 0.94448
 H3070 H 0.27815 0.19920 0.96202
 H3071 H 0.28715 0.23625 0.94397
 H3072 H 0.29852 0.22481 0.92625
 C3073 C 0.82657 0.67382 0.88298
 C3074 C 0.82133 0.67915 0.89208
 C3075 C 0.81500 0.68559 0.90285
 C3076 C 0.82127 0.69595 0.90925
 C3077 C 0.81502 0.70239 0.91955
 C3078 C 0.80239 0.69853 0.92358
 C3079 C 0.79621 0.68804 0.91713
 C3080 C 0.80248 0.68163 0.90683
 C3081 C 0.79563 0.70552 0.93436
 C3082 C 0.78826 0.69853 0.94364
 C3083 C 0.78175 0.70515 0.95366
 C3084 C 0.78251 0.71882 0.95455
 C3085 C 0.78985 0.72586 0.94540
 C3086 C 0.79638 0.71926 0.93538
 C3087 C 0.77564 0.72566 0.96474
 C3088 C 0.76983 0.73145 0.97320
 H3089 H 0.83098 0.69908 0.90626
 H3090 H 0.82010 0.71031 0.92442
 H3091 H 0.78642 0.68496 0.91989
 H3092 H 0.79751 0.67365 0.90191
 H3093 H 0.78763 0.68793 0.94321
 H3094 H 0.77611 0.69960 0.96071
 H3095 H 0.79046 0.73645 0.94597
 H3096 H 0.80182 0.72493 0.92829
 C3097 C 0.82681 0.17368 0.38294
 C3098 C 0.82160 0.17900 0.39206
 C3099 C 0.81529 0.18541 0.40285
 C3100 C 0.82180 0.19538 0.40963
 C3101 C 0.81557 0.20179 0.41995
 C3102 C 0.80273 0.19832 0.42364
 C3103 C 0.79630 0.18823 0.41681
 C3104 C 0.80254 0.18183 0.40649
 C3105 C 0.79600 0.20529 0.43445
 C3106 C 0.78818 0.19836 0.44340
 C3107 C 0.78169 0.20497 0.45344
 C3108 C 0.78292 0.21859 0.45467
 C3109 C 0.79073 0.22556 0.44585
 C3110 C 0.79723 0.21897 0.43581
 C3111 C 0.77605 0.22543 0.46485
 C3112 C 0.77024 0.23123 0.47330
 H3113 H 0.83168 0.19821 0.40691
 H3114 H 0.82084 0.20940 0.42512
 H3115 H 0.78636 0.18545 0.41930
 H3116 H 0.79739 0.17417 0.40127
 H3117 H 0.78717 0.18781 0.44271
 H3118 H 0.77569 0.19948 0.46023
 H3119 H 0.79171 0.23611 0.44668
 H3120 H 0.80303 0.22460 0.42898
 C3121 C 0.67462 0.32627 0.38303
 C3122 C 0.68007 0.32102 0.39204
 C3123 C 0.68668 0.31469 0.40271
 C3124 C 0.70022 0.31631 0.40435
 C3125 C 0.70672 0.30998 0.41456
 C3126 C 0.69974 0.30194 0.42328
 C3127 C 0.68611 0.30044 0.42159
 C3128 C 0.67964 0.30677 0.41136
 C3129 C 0.70668 0.29504 0.43399
 C3130 C 0.70098 0.29410 0.44644
 C3131 C 0.70751 0.28754 0.45649
 C3132 C 0.71980 0.28183 0.45423
 C3133 C 0.72555 0.28271 0.44189
 C3134 C 0.71904 0.28927 0.43184
 C3135 C 0.72652 0.27501 0.46453
 C3136 C 0.73223 0.26925 0.47307
 H3137 H 0.70577 0.32244 0.39772
 H3138 H 0.71718 0.31147 0.41570
 H3139 H 0.68050 0.29418 0.42804
 H3140 H 0.66916 0.30541 0.41015
 H3141 H 0.69155 0.29857 0.44844
 H3142 H 0.70299 0.28694 0.46601
 H3143 H 0.73504 0.27828 0.44003
 H3144 H 0.72360 0.28966 0.42233
 C3145 C 0.67429 0.82647 0.88297
 C3146 C 0.67974 0.82124 0.89200
 C3147 C 0.68635 0.81494 0.90268
 C3148 C 0.69987 0.81664 0.90438
 C3149 C 0.70637 0.81033 0.91460
 C3150 C 0.69941 0.80222 0.92327
 C3151 C 0.68580 0.80064 0.92153
 C3152 C 0.67932 0.80695 0.91129
 C3153 C 0.70635 0.79534 0.93400
 C3154 C 0.70061 0.79432 0.94642
 C3155 C 0.70714 0.78777 0.95647
 C3156 C 0.71947 0.78213 0.95424
 C3157 C 0.72526 0.78309 0.94193
 C3158 C 0.71876 0.78965 0.93187
 C3159 C 0.72618 0.77530 0.96454
 C3160 C 0.73189 0.76953 0.97307
 H3161 H 0.70540 0.82282 0.89779
 H3162 H 0.71681 0.81189 0.91579
 H3163 H 0.68020 0.79433 0.92794
 H3164 H 0.66886 0.80553 0.91004
 H3165 H 0.69114 0.79873 0.94840
 H3166 H 0.70258 0.78710 0.96597
 H3167 H 0.73478 0.77872 0.94008
 H3168 H 0.72335 0.79010 0.92238
 C3169 C 0.17364 0.32607 0.88307
 C3170 C 0.17891 0.32076 0.89215
 C3171 C 0.18529 0.31435 0.90291
 C3172 C 0.19754 0.31874 0.90724
 C3173 C 0.20386 0.31236 0.91752
 C3174 C 0.19800 0.30148 0.92361
 C3175 C 0.18564 0.29718 0.91924
 C3176 C 0.17933 0.30359 0.90895
 C3177 C 0.20483 0.29454 0.93437
 C3178 C 0.20466 0.28076 0.93508
 C3179 C 0.21125 0.27421 0.94508
 C3180 C 0.21810 0.28134 0.95453
 C3181 C 0.21829 0.29506 0.95396
 C3182 C 0.21170 0.30162 0.94395
 C3183 C 0.22506 0.27457 0.96470
 C3184 C 0.23095 0.26885 0.97314
 H3185 H 0.20226 0.32704 0.90259
 H3186 H 0.21344 0.31580 0.92055
 H3187 H 0.18080 0.28894 0.92383
 H3188 H 0.16984 0.30012 0.90569
 H3189 H 0.19961 0.27502 0.92776
 H3190 H 0.21109 0.26359 0.94540
 H3191 H 0.22354 0.30067 0.96124
 H3192 H 0.21188 0.31224 0.94377
 C3193 C 0.17423 0.82699 0.38277
 C3194 C 0.17965 0.82167 0.39177
 C3195 C 0.18624 0.81528 0.40240
 C3196 C 0.19979 0.81684 0.40404
 C3197 C 0.20627 0.81045 0.41422
 C3198 C 0.19927 0.80241 0.42292
 C3199 C 0.18563 0.80097 0.42124
 C3200 C 0.17917 0.80735 0.41104
 C3201 C 0.20619 0.79546 0.43361
 C3202 C 0.20050 0.79451 0.44606
 C3203 C 0.20703 0.78791 0.45609
 C3204 C 0.21930 0.78217 0.45381
 C3205 C 0.22503 0.78305 0.44146
 C3206 C 0.21853 0.78965 0.43143
 C3207 C 0.22601 0.77532 0.46409
 C3208 C 0.23172 0.76953 0.47261
 H3209 H 0.20535 0.82297 0.39742
 H3210 H 0.21673 0.81190 0.41536
 H3211 H 0.18000 0.79472 0.42767
 H3212 H 0.16869 0.80604 0.40983
 H3213 H 0.19109 0.79901 0.44809
 H3214 H 0.20252 0.78731 0.46562
 H3215 H 0.23451 0.77860 0.43958
 H3216 H 0.22308 0.79004 0.42191
 C3217 C 0.67403 0.67446 0.61754
 C3218 C 0.67922 0.67979 0.60842
 C3219 C 0.68548 0.68624 0.59762
 C3220 C 0.68102 0.69853 0.59347
 C3221 C 0.68725 0.70493 0.58314
 C3222 C 0.69804 0.69911 0.57683
 C3223 C 0.70240 0.68671 0.58102
 C3224 C 0.69616 0.68033 0.59136
 C3225 C 0.70483 0.70602 0.56602
 C3226 C 0.70916 0.69908 0.55498
 C3227 C 0.71568 0.70558 0.54489
 C3228 C 0.71795 0.71909 0.54570
 C3229 C 0.71365 0.72609 0.55662
 C3230 C 0.70713 0.71961 0.56671
 C3231 C 0.72481 0.72578 0.53541
 C3232 C 0.73060 0.73145 0.52687
 H3233 H 0.67274 0.70318 0.59823
 H3234 H 0.68355 0.71439 0.58003
 H3235 H 0.71078 0.68205 0.57648
 H3236 H 0.69972 0.67084 0.59453
 H3237 H 0.70740 0.68864 0.55410
 H3238 H 0.71895 0.70008 0.53647
 H3239 H 0.71541 0.73654 0.55736
 H3240 H 0.70408 0.72519 0.57515
 C3241 C 0.67391 0.17362 0.11703
 C3242 C 0.67918 0.17886 0.10790
 C3243 C 0.68554 0.18519 0.09709
 C3244 C 0.67866 0.19429 0.08951
 C3245 C 0.68492 0.20064 0.07916
 C3246 C 0.69816 0.19796 0.07627
 C3247 C 0.70497 0.18873 0.08391
 C3248 C 0.69869 0.18241 0.09426
 C3249 C 0.70490 0.20487 0.06544
 C3250 C 0.71369 0.19812 0.05725
 C3251 C 0.72019 0.20470 0.04721
 C3252 C 0.71802 0.21810 0.04522
 C3253 C 0.70926 0.22490 0.05326
 C3254 C 0.70273 0.21833 0.06330
 C3255 C 0.72492 0.22494 0.03505
 C3256 C 0.73077 0.23072 0.02662
 H3257 H 0.66847 0.19650 0.09161
 H3258 H 0.67937 0.20756 0.07336
 H3259 H 0.71521 0.18659 0.08205
 H3260 H 0.70412 0.17542 0.10010
 H3261 H 0.71544 0.18772 0.05855
 H3262 H 0.72694 0.19934 0.04102
 H3263 H 0.70755 0.23529 0.05184
 H3264 H 0.69618 0.22385 0.06954
 C3265 C 0.17395 0.67429 0.11727
 C3266 C 0.17919 0.67949 0.10811
 C3267 C 0.18551 0.68579 0.09725
 C3268 C 0.17854 0.69471 0.08954
 C3269 C 0.18475 0.70101 0.07914
 C3270 C 0.19803 0.69847 0.07632
 C3271 C 0.20493 0.68943 0.08409
 C3272 C 0.19870 0.68314 0.09449
 C3273 C 0.20471 0.70534 0.06543
 C3274 C 0.21360 0.69860 0.05735
 C3275 C 0.22006 0.70514 0.04724
 C3276 C 0.21772 0.71849 0.04508
 C3277 C 0.20885 0.72527 0.05303
 C3278 C 0.20238 0.71875 0.06313
 C3279 C 0.22456 0.72530 0.03486
 C3280 C 0.23036 0.73105 0.02638
 H3281 H 0.16831 0.69681 0.09158
 H3282 H 0.17913 0.70779 0.07324
 H3283 H 0.21520 0.68739 0.08228
 H3284 H 0.20420 0.67629 0.10043
 H3285 H 0.21548 0.68824 0.05877
 H3286 H 0.22689 0.69980 0.04114
 H3287 H 0.20701 0.73562 0.05147
 H3288 H 0.19573 0.72425 0.06929
 C3289 C 0.17377 0.17395 0.61821
 C3290 C 0.17914 0.17939 0.60926
 C3291 C 0.18564 0.18596 0.59867
 C3292 C 0.19767 0.19222 0.60077
 C3293 C 0.20398 0.19869 0.59055
 C3294 C 0.19833 0.19899 0.57806
 C3295 C 0.18625 0.19263 0.57603
 C3296 C 0.17995 0.18616 0.58628
 C3297 C 0.20501 0.20595 0.56722
 C3298 C 0.20529 0.20051 0.55463
 C3299 C 0.21168 0.20704 0.54448
 C3300 C 0.21785 0.21908 0.54676
 C3301 C 0.21758 0.22459 0.55922
 C3302 C 0.21121 0.21808 0.56939
 C3303 C 0.22453 0.22578 0.53635
 C3304 C 0.23020 0.23146 0.52774
 H3305 H 0.20218 0.19209 0.61032
 H3306 H 0.21336 0.20334 0.59238
 H3307 H 0.18158 0.19282 0.56657
 H3308 H 0.17062 0.18137 0.58455
 H3309 H 0.20075 0.19111 0.55269
 H3310 H 0.21186 0.20267 0.53487
 H3311 H 0.22229 0.23393 0.56109
 H3312 H 0.21101 0.22261 0.57892
   
