data_POSCAR
  _audit_creation_date              2014-09-24
  _audit_creation_method            'ToBaCCo'
  _symmetry_space_group_name_H-M    'P1'
  _symmetry_Int_Tables_number       1
  _symmetry_cell_setting            triclinic
  loop_
  _symmetry_equiv_pos_as_xyz
 x,y,z
_cell_length_a 67.4184
_cell_length_b 66.3830
_cell_length_c 66.0300
_cell_angle_alpha 89.513400
_cell_angle_beta 89.810400
_cell_angle_gamma 89.555700
loop_
  _atom_site_label
  _atom_site_type_symbol
  _atom_site_fract_x
  _atom_site_fract_y
  _atom_site_fract_z
C1 C 0.36760 0.33169 0.33937
 C2 C 0.35192 0.33005 0.35321
 C3 C 0.33638 0.34373 0.35267
 C4 C 0.33643 0.35941 0.33826
 C5 C 0.35206 0.36112 0.32476
 C6 C 0.36773 0.34714 0.32530
 C7 C 0.38335 0.31920 0.33505
 N8 N 0.39316 0.32664 0.31860
 C9 C 0.38369 0.34389 0.31268
 C10 C 0.34762 0.37667 0.31168
 N11 N 0.32960 0.38449 0.31674
 C12 C 0.32269 0.37402 0.33308
 C13 C 0.32285 0.33767 0.36712
 N14 N 0.32990 0.32072 0.37649
 C15 C 0.34771 0.31603 0.36795
 H16 H 0.38653 0.30505 0.34264
 H17 H 0.38758 0.35316 0.29975
 H18 H 0.35682 0.38165 0.29917
 H19 H 0.30834 0.37618 0.34015
 H20 H 0.30872 0.34488 0.37018
 H21 H 0.35712 0.30342 0.37215
 C22 C 0.36840 0.84017 -0.16353
 C23 C 0.35358 0.83867 -0.14863
 C24 C 0.33802 0.85239 -0.14830
 C25 C 0.33721 0.86797 -0.16290
 C26 C 0.35198 0.86944 -0.17730
 C27 C 0.36758 0.85547 -0.17766
 C28 C 0.38422 0.82800 -0.16869
 N29 N 0.39309 0.83549 -0.18580
 C30 C 0.38283 0.85251 -0.19114
 C31 C 0.34713 0.88498 -0.19014
 N32 N 0.32956 0.89335 -0.18417
 C33 C 0.32345 0.88284 -0.16736
 C34 C 0.32531 0.84637 -0.13300
 N35 N 0.33281 0.82938 -0.12406
 C36 C 0.35014 0.82469 -0.13361
 H37 H 0.38846 0.81450 -0.16049
 H38 H 0.38529 0.86171 -0.20447
 H39 H 0.35566 0.88900 -0.20343
 H40 H 0.31000 0.88548 -0.15883
 H41 H 0.31133 0.85351 -0.12918
 H42 H 0.35965 0.81196 -0.13003
 C43 C 0.85931 0.34095 -0.16530
 C44 C 0.84394 0.34081 -0.15091
 C45 C 0.82920 0.35534 -0.15176
 C46 C 0.82950 0.37009 -0.16705
 C47 C 0.84451 0.37017 -0.18126
 C48 C 0.85962 0.35549 -0.18032
 C49 C 0.87528 0.32837 -0.16851
 N50 N 0.88553 0.33477 -0.18524
 C51 C 0.87578 0.35149 -0.19244
 C52 C 0.84036 0.38552 -0.19478
 N53 N 0.82304 0.39488 -0.18924
 C54 C 0.81649 0.38531 -0.17211
 C55 C 0.81590 0.35117 -0.13650
 N56 N 0.82208 0.33434 -0.12638
 C57 C 0.83929 0.32795 -0.13516
 H58 H 0.87869 0.31538 -0.15917
 H59 H 0.87969 0.36028 -0.20568
 H60 H 0.84948 0.38921 -0.20774
 H61 H 0.80289 0.38840 -0.16399
 H62 H 0.80266 0.35984 -0.13316
 H63 H 0.84758 0.31455 -0.13093
 C64 C 0.87232 0.83862 0.33573
 C65 C 0.85945 0.83974 0.35240
 C66 C 0.84560 0.85513 0.35356
 C67 C 0.84438 0.86959 0.33800
 C68 C 0.85708 0.86851 0.32165
 C69 C 0.87117 0.85288 0.32051
 C70 C 0.88646 0.82472 0.33013
 N71 N 0.89416 0.83005 0.31169
 C72 C 0.88466 0.84743 0.30587
 C73 C 0.85174 0.88368 0.30840
 N74 N 0.83589 0.89404 0.31614
 C75 C 0.83146 0.88533 0.33441
 C76 C 0.83425 0.85162 0.37055
 N77 N 0.84080 0.83439 0.37971
 C78 C 0.85628 0.82710 0.36866
 H79 H 0.89044 0.81162 0.33908
 H80 H 0.88675 0.85559 0.29182
 H81 H 0.85855 0.88609 0.29375
 H82 H 0.81970 0.88978 0.34462
 H83 H 0.82187 0.86080 0.37557
 H84 H 0.86408 0.81306 0.37157
 C85 C 0.64819 0.67226 0.33297
 C86 C 0.66235 0.67509 0.34820
 C87 C 0.67755 0.66126 0.35069
 C88 C 0.67900 0.64457 0.33795
 C89 C 0.66522 0.64180 0.32281
 C90 C 0.64955 0.65574 0.32037
 C91 C 0.63184 0.68330 0.32705
 N92 N 0.62300 0.67392 0.31124
 C93 C 0.63386 0.65705 0.30704
 C94 C 0.67109 0.62486 0.31230
 N95 N 0.68809 0.61737 0.32072
 C96 C 0.69284 0.62938 0.33653
 C97 C 0.68929 0.66788 0.36619
 N98 N 0.68172 0.68553 0.37325
 C99 C 0.66515 0.69000 0.36229
 H100 H 0.62700 0.69735 0.33370
 H101 H 0.63053 0.64627 0.29536
 H102 H 0.66383 0.61893 0.29905
 H103 H 0.70553 0.62742 0.34635
 H104 H 0.70236 0.66020 0.37192
 H105 H 0.65601 0.70335 0.36403
 C106 C 0.64333 0.17073 -0.15990
 C107 C 0.65897 0.17309 -0.14605
 C108 C 0.67433 0.15912 -0.14546
 C109 C 0.67425 0.14255 -0.15856
 C110 C 0.65885 0.14029 -0.17190
 C111 C 0.64341 0.15443 -0.17263
 C112 C 0.62698 0.18235 -0.16502
 N113 N 0.61718 0.17350 -0.18072
 C114 C 0.62736 0.15625 -0.18517
 C115 C 0.66280 0.12364 -0.18332
 N116 N 0.68047 0.11531 -0.17744
 C117 C 0.68748 0.12701 -0.16211
 C118 C 0.68772 0.16555 -0.13130
 N119 N 0.68093 0.18302 -0.12302
 C120 C 0.66330 0.18768 -0.13206
 H121 H 0.62324 0.19659 -0.15814
 H122 H 0.62378 0.14552 -0.19677
 H123 H 0.65335 0.11861 -0.19540
 H124 H 0.70129 0.12488 -0.15410
 H125 H 0.70163 0.15813 -0.12774
 H126 H 0.65409 0.20066 -0.12874
 C127 C 0.14367 0.67902 -0.15518
 C128 C 0.16070 0.67898 -0.14294
 C129 C 0.17456 0.66364 -0.14476
 C130 C 0.17172 0.64824 -0.15886
 C131 C 0.15510 0.64836 -0.17089
 C132 C 0.14090 0.66375 -0.16890
 C133 C 0.12780 0.69210 -0.15717
 N134 N 0.11532 0.68510 -0.17175
 C135 C 0.12350 0.66767 -0.17890
 C136 C 0.15661 0.63218 -0.18369
 N137 N 0.17390 0.62202 -0.17983
 C138 C 0.18311 0.63195 -0.16447
 C139 C 0.18960 0.66751 -0.13137
 N140 N 0.18537 0.68492 -0.12143
 C141 C 0.16765 0.69200 -0.12851
 H142 H 0.12563 0.70556 -0.14831
 H143 H 0.11787 0.65862 -0.19109
 H144 H 0.14565 0.62829 -0.19486
 H145 H 0.19747 0.62836 -0.15813
 H146 H 0.20258 0.65812 -0.12900
 H147 H 0.16042 0.70583 -0.12386
 C148 C 0.13543 0.16454 0.36425
 C149 C 0.14768 0.16242 0.38110
 C150 C 0.16181 0.14739 0.38173
 C151 C 0.16365 0.13409 0.36550
 C152 C 0.15155 0.13602 0.34869
 C153 C 0.13717 0.15167 0.34801
 C154 C 0.12207 0.17928 0.35934
 N155 N 0.11522 0.17622 0.34026
 C156 C 0.12436 0.15909 0.33327
 C157 C 0.15814 0.12177 0.33494
 N158 N 0.17396 0.11141 0.34301
 C159 C 0.17717 0.11914 0.36177
 C160 C 0.17368 0.15101 0.39822
 N161 N 0.16708 0.16803 0.40745
 C162 C 0.15101 0.17493 0.39713
 H163 H 0.11783 0.19131 0.36941
 H164 H 0.12275 0.15290 0.31828
 H165 H 0.15219 0.11987 0.31991
 H166 H 0.18840 0.11440 0.37245
 H167 H 0.18694 0.14264 0.40230
 H168 H 0.14348 0.18913 0.39985
 C169 C 0.64086 0.32939 0.65956
 C170 C 0.65507 0.32891 0.64382
 C171 C 0.66770 0.34504 0.64122
 C172 C 0.66668 0.36152 0.65417
 C173 C 0.65311 0.36191 0.66978
 C174 C 0.63997 0.34580 0.67240
 C175 C 0.62673 0.31594 0.66627
 N176 N 0.61728 0.32382 0.68272
 C177 C 0.62544 0.34206 0.68654
 C178 C 0.65709 0.37878 0.68109
 N179 N 0.67283 0.38854 0.67265
 C180 C 0.67854 0.37806 0.65599
 C181 C 0.68086 0.34033 0.62615
 N182 N 0.67687 0.32157 0.61936
 C183 C 0.66094 0.31447 0.62995
 H184 H 0.62379 0.30136 0.65977
 H185 H 0.62097 0.35212 0.69855
 H186 H 0.64977 0.38286 0.69509
 H187 H 0.69082 0.38174 0.64610
 H188 H 0.69280 0.34983 0.62081
 H189 H 0.65471 0.29960 0.62840
 C190 C 0.63570 0.83326 1.16400
 C191 C 0.65216 0.83279 1.15086
 C192 C 0.66651 0.84751 1.15218
 C193 C 0.66472 0.86281 1.16658
 C194 C 0.64851 0.86329 1.17935
 C195 C 0.63391 0.84847 1.17799
 C196 C 0.61988 0.82052 1.16705
 N197 N 0.60845 0.82759 1.18265
 C198 C 0.61719 0.84482 1.18925
 C199 C 0.65109 0.87906 1.19241
 N200 N 0.66863 0.88816 1.18804
 C201 C 0.67701 0.87827 1.17214
 C202 C 0.68092 0.84314 1.13813
 N203 N 0.67586 0.82605 1.12823
 C204 C 0.65824 0.81962 1.13600
 H205 H 0.61724 0.80708 1.15839
 H206 H 0.61251 0.85388 1.20193
 H207 H 0.64095 0.88336 1.20437
 H208 H 0.69138 0.88144 1.16558
 H209 H 0.69405 0.85200 1.13526
 H210 H 0.65052 0.80615 1.13152
 C211 C 0.13897 0.32729 1.15447
 C212 C 0.15487 0.32446 1.14120
 C213 C 0.17082 0.33732 1.14150
 C214 C 0.17093 0.35342 1.15517
 C215 C 0.15519 0.35619 1.16843
 C216 C 0.13909 0.34280 1.16820
 C217 C 0.12244 0.31600 1.15804
 N218 N 0.11225 0.32390 1.17398
 C219 C 0.12244 0.34048 1.18021
 C220 C 0.15960 0.37268 1.18011
 N221 N 0.17756 0.38004 1.17424
 C222 C 0.18456 0.36817 1.15905
 C223 C 0.18437 0.33018 1.12755
 N224 N 0.17692 0.31325 1.11897
 C225 C 0.15882 0.30978 1.12726
 H226 H 0.11911 0.30215 1.15031
 H227 H 0.11839 0.35014 1.19268
 H228 H 0.15019 0.37895 1.19180
 H229 H 0.19873 0.36983 1.15150
 H230 H 0.19880 0.33651 1.12437
 H231 H 0.14914 0.29745 1.12348
 C232 C 0.13352 0.82534 0.65877
 C233 C 0.14977 0.82454 0.64543
 C234 C 0.16471 0.83869 0.64665
 C235 C 0.16350 0.85399 0.66125
 C236 C 0.14751 0.85467 0.67429
 C237 C 0.13249 0.84034 0.67305
 C238 C 0.11732 0.81308 0.66185
 N239 N 0.10653 0.82039 0.67768
 C240 C 0.11583 0.83708 0.68455
 C241 C 0.15024 0.87046 0.68716
 N242 N 0.16765 0.87979 0.68250
 C243 C 0.17579 0.86964 0.66649
 C244 C 0.17885 0.83361 0.63238
 N245 N 0.17287 0.81675 0.62256
 C246 C 0.15503 0.81125 0.63048
 H247 H 0.11379 0.79977 0.65328
 H248 H 0.11129 0.84586 0.69752
 H249 H 0.13982 0.87476 0.69884
 H250 H 0.18986 0.87280 0.65930
 H251 H 0.19271 0.84134 0.62983
 H252 H 0.14634 0.79849 0.62579
 C253 C 0.36060 0.66785 0.66099
 C254 C 0.34464 0.66817 0.64732
 C255 C 0.33069 0.65300 0.64802
 C256 C 0.33239 0.63738 0.66236
 C257 C 0.34818 0.63698 0.67557
 C258 C 0.36233 0.65223 0.67485
 C259 C 0.37560 0.68122 0.66514
 N260 N 0.38623 0.67403 0.68121
 C261 C 0.37818 0.65621 0.68705
 C262 C 0.34531 0.62128 0.68887
 N263 N 0.32795 0.61214 0.68428
 C264 C 0.32003 0.62188 0.66794
 C265 C 0.31655 0.65744 0.63371
 N266 N 0.32146 0.67497 0.62418
 C267 C 0.33863 0.68165 0.63252
 H268 H 0.37797 0.69554 0.65759
 H269 H 0.38323 0.64683 0.69952
 H270 H 0.35498 0.61726 0.70133
 H271 H 0.30575 0.61877 0.66127
 H272 H 0.30372 0.64836 0.63040
 H273 H 0.34606 0.69551 0.62848
 C274 C 0.35912 0.16200 1.16867
 C275 C 0.34500 0.16433 1.15331
 C276 C 0.32931 0.15112 1.15215
 C277 C 0.32751 0.13541 1.16637
 C278 C 0.34144 0.13313 1.18145
 C279 C 0.35741 0.14649 1.18261
 C280 C 0.37539 0.17308 1.17394
 N281 N 0.38377 0.16468 1.19077
 C282 C 0.37279 0.14833 1.19611
 C283 C 0.33559 0.11722 1.19343
 N284 N 0.31827 0.10959 1.18614
 C285 C 0.31341 0.12081 1.16940
 C286 C 0.31781 0.15722 1.13604
 N287 N 0.32618 0.17377 1.12732
 C288 C 0.34282 0.17822 1.13789
 H289 H 0.38027 0.18669 1.16638
 H290 H 0.37564 0.13845 1.20890
 H291 H 0.34371 0.11191 1.20652
 H292 H 0.30032 0.11919 1.16020
 H293 H 0.30414 0.15028 1.13129
 H294 H 0.35279 0.19051 1.13452
 C295 C 0.86041 0.66269 1.14780
 C296 C 0.84571 0.66339 1.13302
 C297 C 0.82979 0.65053 1.13405
 C298 C 0.82874 0.63625 1.14985
 C299 C 0.84331 0.63557 1.16463
 C300 C 0.85925 0.64916 1.16375
 C301 C 0.87574 0.67546 1.15149
 N302 N 0.88404 0.67043 1.16952
 C303 C 0.87422 0.65413 1.17709
 C304 C 0.83775 0.62107 1.17854
 N305 N 0.82034 0.61273 1.17249
 C306 C 0.81474 0.62214 1.15500
 C307 C 0.81641 0.65700 1.11952
 N308 N 0.82393 0.67357 1.11000
 C309 C 0.84202 0.67724 1.11804
 H310 H 0.88001 0.68808 1.14200
 H311 H 0.87686 0.64727 1.19178
 H312 H 0.84573 0.61719 1.19223
 H313 H 0.80157 0.61887 1.14636
 H314 H 0.80167 0.65110 1.11724
 H315 H 0.85149 0.68976 1.11408
 C316 C 0.86226 0.17087 0.66648
 C317 C 0.84734 0.17258 0.65164
 C318 C 0.83195 0.15893 0.65149
 C319 C 0.83122 0.14336 0.66592
 C320 C 0.84593 0.14158 0.68028
 C321 C 0.86150 0.15544 0.68057
 C322 C 0.87853 0.18240 0.67123
 N323 N 0.88772 0.17440 0.68797
 C324 C 0.87715 0.15776 0.69353
 C325 C 0.84127 0.12540 0.69249
 N326 N 0.82397 0.11729 0.68595
 C327 C 0.81777 0.12829 0.66964
 C328 C 0.81941 0.16435 0.63600
 N329 N 0.82674 0.18094 0.62644
 C330 C 0.84386 0.18608 0.63602
 H331 H 0.88296 0.19575 0.66297
 H332 H 0.87987 0.14812 0.70649
 H333 H 0.84999 0.11996 0.70515
 H334 H 0.80420 0.12593 0.66131
 H335 H 0.80570 0.15686 0.63236
 H336 H 0.85327 0.19859 0.63192
 C337 C 0.32700 0.35841 0.65885
 C338 C 0.32997 0.34430 0.64346
 C339 C 0.34600 0.33130 0.64427
 C340 C 0.35925 0.33210 0.66050
 C341 C 0.35644 0.34598 0.67570
 C342 C 0.34013 0.35930 0.67486
 C343 C 0.31232 0.37248 0.66220
 N344 N 0.31610 0.38197 0.67991
 C345 C 0.33310 0.37392 0.68776
 C346 C 0.37113 0.34254 0.68981
 N347 N 0.38268 0.32676 0.68363
 C348 C 0.37534 0.32037 0.66564
 C349 C 0.34472 0.31871 0.62796
 N350 N 0.32812 0.32358 0.61726
 C351 C 0.31905 0.33930 0.62672
 H352 H 0.29990 0.37562 0.65230
 H353 H 0.33971 0.37803 0.70204
 H354 H 0.37296 0.35090 0.70365
 H355 H 0.38068 0.30762 0.65707
 H356 H 0.35512 0.30677 0.62438
 H357 H 0.30509 0.34616 0.62234
 C358 C 0.32545 0.85899 0.16364
 C359 C 0.32666 0.84552 0.14751
 C360 C 0.34135 0.83091 0.14700
 C361 C 0.35539 0.82989 0.16274
 C362 C 0.35411 0.84326 0.17873
 C363 C 0.33891 0.85785 0.17927
 C364 C 0.31186 0.87372 0.16832
 N365 N 0.31649 0.88163 0.18662
 C366 C 0.33318 0.87203 0.19338
 C367 C 0.36927 0.83862 0.19186
 N368 N 0.37999 0.82292 0.18430
 C369 C 0.37146 0.81742 0.16652
 C370 C 0.33763 0.81911 0.13025
 N371 N 0.32100 0.82625 0.12082
 C372 C 0.31447 0.84257 0.13128
 H373 H 0.29940 0.87816 0.15898
 H374 H 0.34024 0.87455 0.20782
 H375 H 0.37206 0.84612 0.20604
 H376 H 0.37669 0.80549 0.15675
 H377 H 0.34588 0.80578 0.12590
 H378 H 0.30151 0.85159 0.12767
 C379 C 0.83391 0.35052 0.15687
 C380 C 0.83590 0.33625 0.14136
 C381 C 0.85128 0.32242 0.14201
 C382 C 0.86469 0.32242 0.15817
 C383 C 0.86261 0.33619 0.17358
 C384 C 0.84713 0.35044 0.17287
 C385 C 0.82026 0.36560 0.16049
 N386 N 0.82479 0.37472 0.17829
 C387 C 0.84121 0.36538 0.18594
 C388 C 0.87694 0.33166 0.18782
 N389 N 0.88758 0.31539 0.18140
 C390 C 0.88017 0.30982 0.16316
 C391 C 0.84906 0.30971 0.12590
 N392 N 0.83251 0.31518 0.11541
 C393 C 0.82444 0.33156 0.12478
 H394 H 0.80804 0.36967 0.15066
 H395 H 0.84822 0.36882 0.20020
 H396 H 0.87888 0.33917 0.20215
 H397 H 0.88544 0.29733 0.15414
 H398 H 0.85876 0.29716 0.12240
 H399 H 0.81074 0.33903 0.12051
 C400 C 0.82962 0.85783 0.65332
 C401 C 0.83038 0.84229 0.63900
 C402 C 0.84584 0.82844 0.63943
 C403 C 0.86069 0.82983 0.65421
 C404 C 0.86005 0.84530 0.66798
 C405 C 0.84451 0.85933 0.66752
 C406 C 0.81565 0.87243 0.65788
 N407 N 0.82176 0.88257 0.67457
 C408 C 0.83951 0.87465 0.68036
 C409 C 0.87513 0.84217 0.68154
 N410 N 0.88492 0.82488 0.67670
 C411 C 0.87620 0.81733 0.65981
 C412 C 0.84250 0.81481 0.62430
 N413 N 0.82538 0.81993 0.61457
 C414 C 0.81785 0.83670 0.62364
 H415 H 0.80166 0.87478 0.65021
 H416 H 0.84812 0.87936 0.69326
 H417 H 0.87820 0.85165 0.69437
 H418 H 0.87995 0.80317 0.65272
 H419 H 0.85211 0.80225 0.62057
 H420 H 0.80409 0.84421 0.61968
 C421 C 0.66821 0.64770 0.63591
 C422 C 0.66697 0.66110 0.61941
 C423 C 0.65288 0.67631 0.61943
 C424 C 0.63991 0.67841 0.63586
 C425 C 0.64116 0.66532 0.65217
 C426 C 0.65545 0.64982 0.65221
 C427 C 0.68104 0.63212 0.64045
 N428 N 0.67648 0.62466 0.65915
 C429 C 0.66080 0.63550 0.66641
 C430 C 0.62732 0.67161 0.66620
 N431 N 0.61771 0.68818 0.65872
 C432 C 0.62542 0.69240 0.64014
 C433 C 0.65609 0.68807 0.60258
 N434 N 0.67190 0.68050 0.59225
 C435 C 0.67857 0.66388 0.60243
 H436 H 0.69285 0.62670 0.63074
 H437 H 0.65410 0.63364 0.68120
 H438 H 0.62483 0.66487 0.68095
 H439 H 0.62079 0.70467 0.63031
 H440 H 0.64824 0.70190 0.59887
 H441 H 0.69133 0.65483 0.59825
 C442 C 0.67503 0.14607 0.14747
 C443 C 0.67378 0.16044 0.13177
 C444 C 0.65788 0.17367 0.13104
 C445 C 0.64314 0.17292 0.14602
 C446 C 0.64450 0.15901 0.16160
 C447 C 0.66051 0.14543 0.16228
 C448 C 0.68900 0.13164 0.15245
 N449 N 0.68333 0.12224 0.16993
 C450 C 0.66592 0.13078 0.17604
 C451 C 0.62912 0.16286 0.17478
 N452 N 0.61843 0.17884 0.16759
 C453 C 0.62694 0.18496 0.14989
 C454 C 0.66114 0.18684 0.11526
 N455 N 0.67880 0.18218 0.10637
 C456 C 0.68656 0.16592 0.11639
 H457 H 0.70224 0.12823 0.14380
 H458 H 0.65788 0.12703 0.18975
 H459 H 0.62658 0.15516 0.18905
 H460 H 0.62203 0.19752 0.14059
 H461 H 0.65144 0.19918 0.11094
 H462 H 0.70092 0.15914 0.11349
 C463 C 0.17773 0.64311 0.14678
 C464 C 0.17705 0.65982 0.13355
 C465 C 0.16180 0.67383 0.13518
 C466 C 0.14706 0.67140 0.15008
 C467 C 0.14785 0.65498 0.16302
 C468 C 0.16319 0.64083 0.16134
 C469 C 0.19109 0.62746 0.14951
 N470 N 0.18495 0.61586 0.16546
 C471 C 0.16788 0.62414 0.17272
 C472 C 0.13243 0.65673 0.17650
 N473 N 0.12220 0.67395 0.17227
 C474 C 0.13104 0.68301 0.15603
 C475 C 0.16531 0.68871 0.12103
 N476 N 0.18237 0.68426 0.11084
 C477 C 0.18960 0.66655 0.11850
 H478 H 0.20436 0.62491 0.14061
 H479 H 0.15972 0.61900 0.18588
 H480 H 0.12903 0.64619 0.18858
 H481 H 0.12660 0.69732 0.14944
 H482 H 0.15601 0.70182 0.11845
 H483 H 0.20332 0.65931 0.11396
 C484 C 0.16761 0.14686 0.64937
 C485 C 0.16675 0.16197 0.63449
 C486 C 0.15291 0.17729 0.63599
 C487 C 0.13971 0.17771 0.65239
 C488 C 0.14055 0.16289 0.66722
 C489 C 0.15470 0.14728 0.66570
 C490 C 0.18037 0.13091 0.65222
 N491 N 0.17570 0.12150 0.66994
 C492 C 0.15994 0.13142 0.67827
 C493 C 0.12662 0.16793 0.68173
 N494 N 0.11742 0.18541 0.67599
 C495 C 0.12541 0.19137 0.65801
 C496 C 0.15654 0.19070 0.62047
 N497 N 0.17234 0.18392 0.60958
 C498 C 0.17859 0.16624 0.61804
 H499 H 0.19230 0.12661 0.64210
 H500 H 0.15321 0.12788 0.69275
 H501 H 0.12384 0.15975 0.69569
 H502 H 0.12117 0.20470 0.64948
 H503 H 0.14887 0.20489 0.61802
 H504 H 0.19112 0.15733 0.61297
 C505 C 0.32102 0.64422 0.34299
 C506 C 0.32334 0.65999 0.35688
 C507 C 0.33933 0.67281 0.35507
 C508 C 0.35323 0.67010 0.33946
 C509 C 0.35096 0.65463 0.32587
 C510 C 0.33474 0.64164 0.32762
 C511 C 0.30675 0.62966 0.34058
 N512 N 0.31141 0.61836 0.32405
 C513 C 0.32855 0.62576 0.31609
 C514 C 0.36633 0.65586 0.31216
 N515 N 0.37790 0.67183 0.31699
 C516 C 0.36988 0.68060 0.33373
 C517 C 0.33767 0.68687 0.37018
 N518 N 0.32100 0.68304 0.38119
 C519 C 0.31217 0.66657 0.37309
 H520 H 0.29396 0.62753 0.35028
 H521 H 0.33587 0.62044 0.30253
 H522 H 0.36883 0.64575 0.29964
 H523 H 0.37532 0.69400 0.34099
 H524 H 0.34800 0.69891 0.37296
 H525 H 0.29836 0.66006 0.37825
 C526 C 0.32333 0.14150 0.83381
 C527 C 0.32207 0.15464 0.85016
 C528 C 0.33594 0.16960 0.85243
 C529 C 0.35133 0.17163 0.83821
 C530 C 0.35264 0.15857 0.82199
 C531 C 0.33845 0.14328 0.81978
 C532 C 0.31144 0.12600 0.82797
 N533 N 0.31888 0.11790 0.81068
 C534 C 0.33546 0.12847 0.80553
 C535 C 0.36881 0.16446 0.81058
 N536 N 0.37729 0.18072 0.81946
 C537 C 0.36663 0.18510 0.83640
 C538 C 0.33078 0.18014 0.86955
 N539 N 0.31412 0.17184 0.87769
 C540 C 0.30875 0.15620 0.86584
 H541 H 0.29799 0.12142 0.83564
 H542 H 0.34479 0.12566 0.79248
 H543 H 0.37370 0.15765 0.79657
 H544 H 0.36978 0.19717 0.84680
 H545 H 0.33842 0.19312 0.87540
 H546 H 0.29619 0.14646 0.86850
 C547 C 0.81632 0.64683 0.84630
 C548 C 0.81670 0.66296 0.85971
 C549 C 0.83101 0.67772 0.85793
 C550 C 0.84549 0.67616 0.84252
 C551 C 0.84499 0.66006 0.82930
 C552 C 0.83023 0.64542 0.83110
 C553 C 0.80277 0.63181 0.84347
 N554 N 0.80787 0.62134 0.82660
 C555 C 0.82482 0.62957 0.81903
 C556 C 0.85993 0.66264 0.81543
 N557 N 0.86970 0.67993 0.81965
 C558 C 0.86092 0.68833 0.83623
 C559 C 0.82625 0.69235 0.87202
 N560 N 0.80937 0.68672 0.88192
 C561 C 0.80367 0.66869 0.87451
 H562 H 0.78981 0.62925 0.85280
 H563 H 0.83211 0.62529 0.80508
 H564 H 0.86346 0.65245 0.80321
 H565 H 0.86510 0.70247 0.84298
 H566 H 0.83391 0.70643 0.87421
 H567 H 0.79064 0.66043 0.87923
 C568 C 0.83264 0.14323 0.34574
 C569 C 0.83349 0.15824 0.36063
 C570 C 0.84955 0.17111 0.36123
 C571 C 0.86497 0.16919 0.34702
 C572 C 0.86419 0.15429 0.33264
 C573 C 0.84801 0.14129 0.33200
 C574 C 0.81833 0.12952 0.34028
 N575 N 0.82474 0.11951 0.32351
 C576 C 0.84297 0.12662 0.31856
 C577 C 0.88011 0.15677 0.31990
 N578 N 0.89057 0.17303 0.32598
 C579 C 0.88143 0.18064 0.34271
 C580 C 0.84615 0.18453 0.37663
 N581 N 0.82846 0.18016 0.38553
 C582 C 0.82060 0.16412 0.37572
 H583 H 0.80401 0.12764 0.34746
 H584 H 0.85194 0.12172 0.30588
 H585 H 0.88344 0.14762 0.30682
 H586 H 0.88570 0.19418 0.35053
 H587 H 0.85600 0.19647 0.38112
 H588 H 0.80636 0.15741 0.37900
 C589 C 0.67586 0.34845 0.34074
 C590 C 0.67555 0.33255 0.35507
 C591 C 0.66019 0.31882 0.35480
 C592 C 0.64504 0.32062 0.34044
 C593 C 0.64524 0.33624 0.32662
 C594 C 0.66067 0.35019 0.32676
 C595 C 0.68935 0.36341 0.33607
 N596 N 0.68266 0.37392 0.31958
 C597 C 0.66506 0.36591 0.31401
 C598 C 0.62958 0.33353 0.31369
 N599 N 0.61989 0.31641 0.31917
 C600 C 0.62931 0.30849 0.33566
 C601 C 0.66376 0.30474 0.36967
 N602 N 0.68094 0.30937 0.37919
 C603 C 0.68828 0.32640 0.37033
 H604 H 0.70335 0.36588 0.34360
 H605 H 0.65608 0.37096 0.30136
 H606 H 0.62588 0.34321 0.30098
 H607 H 0.62572 0.29440 0.34310
 H608 H 0.65430 0.29214 0.37340
 H609 H 0.70203 0.33361 0.37440
 C610 C 0.66170 0.86425 0.84891
 C611 C 0.65926 0.85165 0.86592
 C612 C 0.64341 0.83863 0.86676
 C613 C 0.63015 0.83755 0.85060
 C614 C 0.63273 0.84958 0.83368
 C615 C 0.64854 0.86320 0.83291
 C616 C 0.67609 0.87787 0.84349
 N617 N 0.67200 0.88522 0.82463
 C618 C 0.65521 0.87613 0.81804
 C619 C 0.61921 0.84338 0.81946
 N620 N 0.60864 0.82777 0.82737
 C621 C 0.61522 0.82429 0.84651
 C622 C 0.64582 0.82657 0.88350
 N623 N 0.66305 0.83147 0.89281
 C624 C 0.67126 0.84704 0.88224
 H625 H 0.68852 0.88218 0.85278
 H626 H 0.64849 0.87833 0.80333
 H627 H 0.61811 0.84898 0.80406
 H628 H 0.61004 0.81251 0.85660
 H629 H 0.63608 0.81441 0.88787
 H630 H 0.68566 0.85347 0.88515
 C631 C 0.17199 0.35734 0.85418
 C632 C 0.17297 0.34071 0.86716
 C633 C 0.15995 0.32489 0.86509
 C634 C 0.14534 0.32585 0.84988
 C635 C 0.14446 0.34243 0.83697
 C636 C 0.15804 0.35822 0.83901
 C637 C 0.18441 0.37339 0.85170
 N638 N 0.17870 0.38404 0.83506
 C639 C 0.16238 0.37494 0.82729
 C640 C 0.12965 0.33900 0.82322
 N641 N 0.12135 0.32079 0.82730
 C642 C 0.13095 0.31262 0.84358
 C643 C 0.16600 0.31011 0.87869
 N644 N 0.18240 0.31674 0.88859
 C645 C 0.18653 0.33551 0.88165
 H646 H 0.19716 0.37653 0.86103
 H647 H 0.15497 0.37928 0.81339
 H648 H 0.12520 0.34924 0.81121
 H649 H 0.12805 0.29794 0.85014
 H650 H 0.15953 0.29533 0.88052
 H651 H 0.19882 0.34468 0.88649
 C652 C 0.16434 0.84793 0.34501
 C653 C 0.16440 0.83337 0.36059
 C654 C 0.15001 0.81869 0.36102
 C655 C 0.13558 0.81810 0.34585
 C656 C 0.13562 0.83222 0.33040
 C657 C 0.15003 0.84734 0.33005
 C658 C 0.17664 0.86380 0.34040
 N659 N 0.17010 0.87293 0.32308
 C660 C 0.15383 0.86283 0.31668
 C661 C 0.12099 0.82692 0.31699
 N662 N 0.11209 0.80985 0.32393
 C663 C 0.12091 0.80453 0.34172
 C664 C 0.15413 0.80601 0.37702
 N665 N 0.17084 0.81242 0.38640
 C666 C 0.17716 0.82926 0.37641
 H667 H 0.18962 0.86810 0.34888
 H668 H 0.14518 0.86654 0.30338
 H669 H 0.11782 0.83443 0.30275
 H670 H 0.11730 0.79151 0.35092
 H671 H 0.14556 0.79293 0.38128
 H672 H 0.19050 0.83753 0.37978
 O673 O 0.24088 1.01699 0.29069
 O674 O 0.27237 0.97745 0.26763
 O675 O 0.27181 1.01656 0.26718
 O676 O 0.24275 0.97773 0.29315
 O677 O 0.22244 0.97617 0.26709
 O678 O 0.25153 1.01584 0.24107
 O679 O 0.25181 0.97650 0.24174
 O680 O 0.22041 1.01567 0.26478
 Cu681 Cu 0.25892 0.99730 0.28229
 Cu682 Cu 0.23448 0.99597 0.25109
 C683 C 0.22534 1.02320 0.28161
 C684 C 0.26734 0.97018 0.25066
 C685 C 0.26675 1.02292 0.24977
 C686 C 0.22783 0.97007 0.28457
 O687 O 0.24698 0.51881 0.72755
 O688 O 0.21804 0.48279 0.75679
 O689 O 0.22320 0.52133 0.75819
 O690 O 0.24938 0.47922 0.73209
 O691 O 0.27294 0.48072 0.75510
 O692 O 0.24653 0.52036 0.78152
 O693 O 0.24173 0.48079 0.77969
 O694 O 0.27021 0.51897 0.75104
 Cu695 Cu 0.23246 0.50020 0.74139
 Cu696 Cu 0.25972 0.49985 0.76929
 C697 C 0.26336 0.52525 0.73412
 C698 C 0.22482 0.47544 0.77312
 C699 C 0.23070 0.52802 0.77453
 C700 C 0.26605 0.47319 0.73910
 O701 O 0.71905 0.02393 0.25275
 O702 O 0.74742 -0.01516 0.28049
 O703 O 0.74485 0.02393 0.28221
 O704 O 0.72087 -0.01533 0.25203
 O705 O 0.74456 -0.01305 0.22901
 O706 O 0.76871 0.02597 0.25935
 O707 O 0.77119 -0.01318 0.25755
 O708 O 0.74319 0.02611 0.23021
 Cu709 Cu 0.73062 0.00415 0.26914
 Cu710 Cu 0.75932 0.00663 0.24177
 C711 C 0.72637 0.03179 0.23678
 C712 C 0.76418 -0.02090 0.27369
 C713 C 0.76089 0.03169 0.27590
 C714 C 0.72857 -0.02093 0.23540
 O715 O 0.76341 0.52656 0.74696
 O716 O 0.73289 0.48843 0.72223
 O717 O 0.73476 0.52777 0.72054
 O718 O 0.76154 0.48768 0.74830
 O719 O 0.73962 0.48971 0.77309
 O720 O 0.71247 0.52931 0.74502
 O721 O 0.71082 0.49025 0.74692
 O722 O 0.74113 0.52885 0.77141
 Cu723 Cu 0.75029 0.50746 0.73195
 Cu724 Cu 0.72380 0.50976 0.76160
 C725 C 0.75750 0.53418 0.76351
 C726 C 0.71680 0.48262 0.73040
 C727 C 0.71902 0.53538 0.72800
 C728 C 0.75520 0.48189 0.76551
 O729 O 0.24047 0.47704 0.22696
 O730 O 0.26992 0.51678 0.25110
 O731 O 0.26879 0.47771 0.25348
 O732 O 0.24221 0.51630 0.22377
 O733 O 0.21914 0.51780 0.24751
 O734 O 0.24711 0.48087 0.27836
 O735 O 0.24698 0.52007 0.27477
 O736 O 0.21874 0.47869 0.25194
 Cu737 Cu 0.25756 0.49674 0.23637
 Cu738 Cu 0.23073 0.49965 0.26556
 C739 C 0.22474 0.47079 0.23555
 C740 C 0.26342 0.52533 0.26699
 C741 C 0.26263 0.47274 0.27100
 C742 C 0.22604 0.52356 0.23050
 O743 O 0.73634 1.01661 0.76465
 O744 O 0.76275 0.97768 0.73553
 O745 O 0.76403 1.01695 0.73745
 O746 O 0.73548 0.97742 0.76334
 O747 O 0.71264 0.97928 0.73953
 O748 O 0.74148 1.01872 0.71334
 O749 O 0.74010 0.97960 0.71153
 O750 O 0.71364 1.01837 0.74069
 Cu751 Cu 0.75196 0.99693 0.75261
 Cu752 Cu 0.72468 0.99916 0.72387
 C753 C 0.72045 1.02422 0.75755
 C754 C 0.75595 0.97194 0.71862
 C755 C 0.75760 1.02472 0.72108
 C756 C 0.71915 0.97161 0.75594
 O757 O 0.73609 0.47302 0.25835
 O758 O 0.76203 0.51310 0.22963
 O759 O 0.76332 0.47361 0.23065
 O760 O 0.73232 0.51208 0.25497
 O761 O 0.75461 0.51550 0.27906
 O762 O 0.78506 0.47527 0.25546
 O763 O 0.78442 0.51448 0.25386
 O764 O 0.75747 0.47623 0.28330
 Cu765 Cu 0.74627 0.49275 0.24096
 Cu766 Cu 0.77253 0.49562 0.27039
 C767 C 0.74243 0.46776 0.27576
 C768 C 0.77782 0.52052 0.23688
 C769 C 0.77925 0.46755 0.23894
 C770 C 0.73818 0.52059 0.27097
 O771 O 0.24107 -0.01945 0.77318
 O772 O 0.21278 0.01870 0.74503
 O773 O 0.21657 -0.02053 0.74308
 O774 O 0.24101 0.01963 0.77209
 O775 O 0.26450 0.02127 0.74879
 O776 O 0.24035 -0.01866 0.72016
 O777 O 0.23651 0.02070 0.72203
 O778 O 0.26510 -0.01790 0.75048
 Cu779 Cu 0.22544 -0.00050 0.76054
 Cu780 Cu 0.25391 0.00145 0.73302
 C781 C 0.25788 -0.02525 0.76678
 C782 C 0.21975 0.02643 0.72892
 C783 C 0.22453 -0.02664 0.72671
 C784 C 0.25703 0.02727 0.76533
 O785 O 0.24875 0.26131 0.98363
 O786 O 0.27693 0.23551 1.02459
 O787 O 0.27947 0.23762 0.98474
 O788 O 0.25282 0.26706 1.02205
 O789 O 0.23053 0.24313 1.02555
 O790 O 0.25613 0.21447 0.98500
 O791 O 0.25473 0.21129 1.02418
 O792 O 0.22563 0.23809 0.98634
 Cu793 Cu 0.26671 0.25235 1.00383
 Cu794 Cu 0.23957 0.22471 1.00576
 C795 C 0.23213 0.25403 0.97818
 C796 C 0.27057 0.21860 1.03111
 C797 C 0.27243 0.22139 0.97805
 C798 C 0.23726 0.26037 1.03034
 O799 O 0.25207 0.77883 0.48462
 O800 O 0.28176 0.75145 0.52259
 O801 O 0.27781 0.74938 0.48312
 O802 O 0.25398 0.77918 0.52399
 O803 O 0.23045 0.75635 0.52616
 O804 O 0.25482 0.72618 0.48695
 O805 O 0.25802 0.72901 0.52619
 O806 O 0.22899 0.75551 0.48661
 Cu807 Cu 0.26878 0.76695 0.50332
 Cu808 Cu 0.24075 0.73950 0.50673
 C809 C 0.23559 0.77179 0.47893
 C810 C 0.27490 0.73577 0.53114
 C811 C 0.27029 0.73261 0.47811
 C812 C 0.23802 0.77272 0.53203
 O813 O 0.28208 0.76268 -0.02655
 O814 O 0.25764 0.73070 0.01186
 O815 O 0.25465 0.73545 -0.02722
 O816 O 0.28541 0.75792 0.01285
 O817 O 0.26237 0.78124 0.01741
 O818 O 0.23177 0.75886 -0.02238
 O819 O 0.23495 0.75433 0.01660
 O820 O 0.25939 0.78631 -0.02192
 Cu821 Cu 0.27228 0.74439 -0.00772
 Cu822 Cu 0.24491 0.77261 -0.00218
 C823 C 0.27481 0.77987 -0.03100
 C824 C 0.24212 0.73705 0.02083
 C825 C 0.23791 0.74326 -0.03156
 C826 C 0.27890 0.77327 0.02224
 O827 O 0.27944 0.25966 0.47744
 O828 O 0.25670 0.23131 0.51956
 O829 O 0.25628 0.22870 0.48054
 O830 O 0.28087 0.26134 0.51701
 O831 O 0.25534 0.28235 0.51647
 O832 O 0.23041 0.24931 0.48025
 O833 O 0.23108 0.25222 0.51896
 O834 O 0.25382 0.28056 0.47708
 Cu835 Cu 0.27100 0.24327 0.49864
 Cu836 Cu 0.24014 0.26831 0.49803
 C837 C 0.27048 0.27493 0.47004
 C838 C 0.23985 0.23683 0.52630
 C839 C 0.23894 0.23318 0.47453
 C840 C 0.27227 0.27721 0.52322
 O841 O 0.74159 0.78548 0.98954
 O842 O 0.76672 0.75045 1.02493
 O843 O 0.76980 0.75850 0.98641
 O844 O 0.73995 0.77855 1.02855
 O845 O 0.71700 0.75569 1.02326
 O846 O 0.74669 0.73587 0.98081
 O847 O 0.74395 0.72750 1.01930
 O848 O 0.71879 0.76241 0.98453
 Cu849 Cu 0.75680 0.77056 1.00794
 Cu850 Cu 0.72932 0.74307 1.00147
 C851 C 0.72584 0.77973 0.98084
 C852 C 0.75966 0.73299 1.02811
 C853 C 0.76326 0.74379 0.97631
 C854 C 0.72345 0.77060 1.03317
 O855 O 0.75090 0.21604 0.48513
 O856 O 0.72039 0.24321 0.52193
 O857 O 0.72562 0.24569 0.48259
 O858 O 0.74944 0.21690 0.52446
 O859 O 0.77267 0.24004 0.52596
 O860 O 0.74820 0.26931 0.48585
 O861 O 0.74369 0.26610 0.52510
 O862 O 0.77373 0.23964 0.48623
 Cu863 Cu 0.73429 0.22822 0.50335
 Cu864 Cu 0.76183 0.25606 0.50601
 C865 C 0.76731 0.22314 0.47911
 C866 C 0.72681 0.25908 0.53010
 C867 C 0.73299 0.26250 0.47708
 C868 C 0.76528 0.22366 0.53230
 O869 O 0.78788 0.25406 -0.02615
 O870 O 0.76033 0.22444 0.01160
 O871 O 0.76141 0.22548 -0.02757
 O872 O 0.78501 0.25425 0.01339
 O873 O 0.76100 0.27694 0.01150
 O874 O 0.73687 0.24765 -0.02847
 O875 O 0.73613 0.24700 0.01106
 O876 O 0.76319 0.27599 -0.02802
 Cu877 Cu 0.77615 0.23741 -0.00711
 Cu878 Cu 0.74688 0.26415 -0.00858
 C879 C 0.78022 0.26992 -0.03375
 C880 C 0.74357 0.23063 0.01786
 C881 C 0.74496 0.23158 -0.03488
 C882 C 0.77698 0.27052 0.01948
 O883 O 0.78325 0.76565 0.47042
 O884 O 0.75771 0.73174 0.50601
 O885 O 0.75970 0.73502 0.46673
 O886 O 0.78053 0.76259 0.50977
 O887 O 0.75488 0.78343 0.50914
 O888 O 0.73341 0.75503 0.46687
 O889 O 0.73176 0.75222 0.50597
 O890 O 0.75698 0.78567 0.46963
 Cu891 Cu 0.77293 0.74675 0.48821
 Cu892 Cu 0.74168 0.77119 0.48792
 C893 C 0.77444 0.78130 0.46373
 C894 C 0.74037 0.73622 0.51213
 C895 C 0.74292 0.74019 0.45954
 C896 C 0.77124 0.77770 0.51686
 O897 O 0.98493 0.25740 0.23725
 O898 O 1.02526 0.22747 0.25919
 O899 O 0.98689 0.22904 0.26424
 O900 O 1.02343 0.25942 0.23582
 O901 O 1.02488 0.28055 0.26135
 O902 O 0.98883 0.25043 0.28955
 O903 O 1.02710 0.24864 0.28466
 O904 O 0.98618 0.27908 0.26235
 Cu905 Cu 1.00503 0.24124 0.24661
 Cu906 Cu 1.00696 0.26678 0.27698
 C907 C 0.97844 0.27311 0.24590
 C908 C 1.03304 0.23272 0.27574
 C909 C 0.98157 0.23472 0.28183
 C910 C 1.03037 0.27527 0.24381
 O911 O 0.51829 0.27171 0.74572
 O912 O 0.47869 0.24366 0.77321
 O913 O 0.51737 0.24699 0.77662
 O914 O 0.47935 0.27201 0.74584
 O915 O 0.48100 0.24765 0.72335
 O916 O 0.52017 0.22283 0.75406
 O917 O 0.48171 0.21923 0.75096
 O918 O 0.51951 0.24739 0.72317
 Cu919 Cu 0.49823 0.26097 0.76257
 Cu920 Cu 0.50078 0.23185 0.73574
 C921 C 0.52555 0.26419 0.72957
 C922 C 0.47345 0.22654 0.76655
 C923 C 0.52554 0.23085 0.77061
 C924 C 0.47349 0.26419 0.72949
 O925 O 0.02281 0.24660 0.73495
 O926 O -0.01567 0.27561 0.76198
 O927 O 0.02314 0.27277 0.76376
 O928 O -0.01575 0.24999 0.73247
 O929 O -0.01859 0.22520 0.75471
 O930 O 0.02030 0.24814 0.78618
 O931 O -0.01844 0.25087 0.78428
 O932 O 0.01987 0.22177 0.75714
 Cu933 Cu 0.00392 0.26374 0.74610
 Cu934 Cu 0.00049 0.23405 0.77284
 C935 C 0.02799 0.22928 0.74146
 C936 C -0.02382 0.26808 0.77766
 C937 C 0.02858 0.26428 0.78016
 C938 C -0.02389 0.23372 0.73824
 O939 O 0.48536 0.26397 0.25728
 O940 O 0.52333 0.23593 0.22912
 O941 O 0.48486 0.23723 0.22871
 O942 O 0.52386 0.26225 0.25771
 O943 O 0.52305 0.23780 0.28055
 O944 O 0.48327 0.21327 0.25202
 O945 O 0.52203 0.21124 0.25165
 O946 O 0.48472 0.23999 0.28062
 Cu947 Cu 0.50441 0.25227 0.24089
 Cu948 Cu 0.50315 0.22306 0.26848
 C949 C 0.47868 0.25692 0.27386
 C950 C 0.52924 0.21885 0.23553
 C951 C 0.47729 0.22104 0.23546
 C952 C 0.53017 0.25430 0.27405
 O953 O 0.97561 0.74424 0.77723
 O954 O 1.01475 0.76582 0.74508
 O955 O 0.97636 0.76756 0.74530
 O956 O 1.01440 0.74116 0.77586
 O957 O 1.01152 0.71469 0.75616
 O958 O 0.97587 0.74203 0.72412
 O959 O 1.01418 0.73915 0.72536
 O960 O 0.97275 0.71897 0.75597
 Cu961 Cu 0.99543 0.75725 0.76299
 Cu962 Cu 0.99339 0.72600 0.73848
 C963 C 0.96709 0.72819 0.77182
 C964 C 1.02127 0.75623 0.72986
 C965 C 0.96992 0.75943 0.72926
 C966 C 1.01953 0.72335 0.77109
 O967 O 0.51826 0.71750 0.25187
 O968 O 0.47750 0.74178 0.22305
 O969 O 0.51638 0.74292 0.22175
 O970 O 0.47918 0.71658 0.25328
 O971 O 0.47924 0.74182 0.27481
 O972 O 0.51592 0.76815 0.24327
 O973 O 0.47733 0.76704 0.24453
 O974 O 0.51775 0.74275 0.27338
 Cu975 Cu 0.49786 0.72714 0.23536
 Cu976 Cu 0.49755 0.75746 0.26112
 C977 C 0.52507 0.72610 0.26749
 C978 C 0.47035 0.75852 0.22897
 C979 C 0.52260 0.76005 0.22725
 C980 C 0.47273 0.72483 0.26934
 O981 O 0.02141 0.74463 0.26623
 O982 O -0.01623 0.71325 0.24246
 O983 O 0.02206 0.71804 0.23782
 O984 O -0.01701 0.74269 0.26860
 O985 O -0.02040 0.76585 0.24469
 O986 O 0.01747 0.74091 0.21383
 O987 O -0.02077 0.73662 0.21894
 O988 O 0.01785 0.76786 0.24238
 Cu989 Cu 0.00291 0.72729 0.25611
 Cu990 Cu -0.00185 0.75503 0.22751
 C991 C 0.02617 0.76148 0.25851
 C992 C -0.02515 0.71963 0.22678
 C993 C 0.02652 0.72547 0.22058
 C994 C -0.02520 0.75874 0.26188
 O995 O 0.48298 0.77786 0.74511
 O996 O 0.52283 0.75135 0.71684
 O997 O 0.48350 0.75395 0.71448
 O998 O 0.52056 0.78272 0.74166
 O999 O 0.52283 0.75869 0.76483
 O1000 O 0.48428 0.73014 0.73802
 O1001 O 0.52235 0.72719 0.73995
 O1002 O 0.48413 0.75371 0.76827
 Cu1003 Cu 0.50273 0.76840 0.72711
 Cu1004 Cu 0.50394 0.74044 0.75510
 C1005 C 0.47678 0.77010 0.76170
 C1006 C 0.52920 0.73446 0.72362
 C1007 C 0.47720 0.73740 0.72160
 C1008 C 0.52797 0.77589 0.75794
 C1009 C 0.41362 0.32152 0.28773
 C1010 C 0.40932 0.31674 0.30810
 C1011 C 0.42049 0.30144 0.31777
 C1012 C 0.43508 0.29067 0.30715
 C1013 C 0.43910 0.29558 0.28670
 C1014 C 0.42844 0.31115 0.27721
 C1015 C 0.45351 0.28465 0.27600
 C1016 C 0.46375 0.26858 0.28535
 C1017 C 0.45962 0.26378 0.30569
 C1018 C 0.44551 0.27482 0.31654
 H1019 H 0.41777 0.29771 0.33351
 H1020 H 0.43129 0.31506 0.26150
 H1021 H 0.45650 0.28844 0.26028
 H1022 H 0.44260 0.27083 0.33221
 H1023 H 0.40526 0.33294 0.27963
 H1024 H 0.46740 0.25154 0.31325
 C1025 C 0.41752 0.83723 0.78705
 C1026 C 0.40858 0.82697 0.80357
 C1027 C 0.41580 0.80749 0.80846
 C1028 C 0.43090 0.79842 0.79699
 C1029 C 0.43929 0.80880 0.78034
 C1030 C 0.43259 0.82825 0.77562
 C1031 C 0.45421 0.79954 0.76870
 C1032 C 0.46092 0.78002 0.77361
 C1033 C 0.45249 0.76989 0.79031
 C1034 C 0.43762 0.77897 0.80185
 H1035 H 0.40950 0.79889 0.82082
 H1036 H 0.43899 0.83655 0.76303
 H1037 H 0.46065 0.80756 0.75593
 H1038 H 0.43136 0.77075 0.81457
 H1039 H 0.41319 0.85236 0.78278
 H1040 H 0.45733 0.75482 0.79446
 C1041 C -0.08868 0.33380 0.78883
 C1042 C -0.09779 0.32584 0.80649
 C1043 C -0.08925 0.30824 0.81522
 C1044 C -0.07267 0.29878 0.80643
 C1045 C -0.06410 0.30688 0.78867
 C1046 C -0.07213 0.32446 0.78011
 C1047 C -0.04783 0.29712 0.77960
 C1048 C -0.04008 0.27916 0.78798
 C1049 C -0.04857 0.27139 0.80586
 C1050 C -0.06466 0.28113 0.81503
 H1051 H -0.09536 0.30150 0.82877
 H1052 H -0.06570 0.33094 0.76650
 H1053 H -0.04148 0.30329 0.76580
 H1054 H -0.07100 0.27469 0.82870
 H1055 H -0.09416 0.34723 0.78138
 H1056 H -0.04292 0.25762 0.81269
 C1057 C -0.08448 0.82723 0.28209
 C1058 C -0.09158 0.81971 0.30086
 C1059 C -0.08356 0.80117 0.30802
 C1060 C -0.06919 0.79058 0.29681
 C1061 C -0.06255 0.79843 0.27811
 C1062 C -0.07024 0.81674 0.27093
 C1063 C -0.04829 0.78790 0.26685
 C1064 C -0.04040 0.76950 0.27400
 C1065 C -0.04704 0.76177 0.29268
 C1066 C -0.06134 0.77221 0.30398
 H1067 H -0.08836 0.79462 0.32220
 H1068 H -0.06522 0.82300 0.25662
 H1069 H -0.04329 0.79413 0.25250
 H1070 H -0.06624 0.76591 0.31832
 H1071 H -0.08967 0.84131 0.27572
 H1072 H -0.04121 0.74765 0.29855
 C1073 C 0.60121 0.67451 0.28094
 C1074 C 0.60529 0.68080 0.30080
 C1075 C 0.59190 0.69420 0.31024
 C1076 C 0.57509 0.70151 0.29995
 C1077 C 0.57123 0.69511 0.28001
 C1078 C 0.58432 0.68151 0.27070
 C1079 C 0.55453 0.70270 0.26963
 C1080 C 0.54188 0.71695 0.27880
 C1081 C 0.54589 0.72311 0.29868
 C1082 C 0.56223 0.71536 0.30921
 H1083 H 0.59446 0.69899 0.32563
 H1084 H 0.58167 0.67649 0.25538
 H1085 H 0.55170 0.69794 0.25425
 H1086 H 0.56496 0.72043 0.32449
 H1087 H 0.61123 0.66444 0.27309
 H1088 H 0.53637 0.73401 0.30612
 C1089 C 0.59384 0.17140 0.79135
 C1090 C 0.60073 0.18078 0.80918
 C1091 C 0.59028 0.19802 0.81600
 C1092 C 0.57390 0.20573 0.80523
 C1093 C 0.56760 0.19622 0.78736
 C1094 C 0.57759 0.17902 0.78067
 C1095 C 0.55157 0.20419 0.77629
 C1096 C 0.54171 0.22170 0.78284
 C1097 C 0.54789 0.23088 0.80087
 C1098 C 0.56380 0.22297 0.81196
 H1099 H 0.59462 0.20557 0.82970
 H1100 H 0.57296 0.17151 0.76697
 H1101 H 0.54699 0.19693 0.76245
 H1102 H 0.56834 0.23048 0.82567
 H1103 H 0.60106 0.15833 0.78504
 H1104 H 0.54058 0.24437 0.80632
 C1105 C 1.09317 0.71418 0.82649
 C1106 C 1.09809 0.69408 0.82146
 C1107 C 1.08492 0.68358 0.80877
 C1108 C 1.06807 0.69304 0.80061
 C1109 C 1.06381 0.71332 0.80526
 C1110 C 1.07629 0.72364 0.81846
 C1111 C 1.04743 0.72303 0.79625
 C1112 C 1.03542 0.71271 0.78242
 C1113 C 1.03952 0.69233 0.77842
 C1114 C 1.05562 0.68257 0.78749
 H1115 H 1.08751 0.66795 0.80512
 H1116 H 1.07324 0.73921 0.82226
 H1117 H 1.04445 0.73875 0.79947
 H1118 H 1.05860 0.66694 0.78385
 H1119 H 1.10261 0.72306 0.83604
 H1120 H 1.03047 0.68396 0.76795
 C1121 C 1.09696 0.20782 0.33810
 C1122 C 1.10194 0.18861 0.33027
 C1123 C 1.09263 0.18264 0.31214
 C1124 C 1.07835 0.19514 0.30271
 C1125 C 1.07336 0.21396 0.31126
 C1126 C 1.08291 0.22020 0.32878
 C1127 C 1.05879 0.22625 0.30228
 C1128 C 1.04896 0.22004 0.28474
 C1129 C 1.05419 0.20140 0.27611
 C1130 C 1.06872 0.18907 0.28501
 H1131 H 1.09588 0.16810 0.30560
 H1132 H 1.07947 0.23472 0.33538
 H1133 H 1.05500 0.24060 0.30907
 H1134 H 1.07230 0.17472 0.27815
 H1135 H 1.10403 0.21383 0.35133
 H1136 H 1.04686 0.19620 0.26258
 C1137 C 0.59780 0.31990 0.71445
 C1138 C 0.60122 0.31474 0.69407
 C1139 C 0.58850 0.30085 0.68488
 C1140 C 0.57269 0.29230 0.69579
 C1141 C 0.56934 0.29772 0.71620
 C1142 C 0.58202 0.31154 0.72536
 C1143 C 0.55355 0.28903 0.72712
 C1144 C 0.54132 0.27467 0.71798
 C1145 C 0.54480 0.26951 0.69764
 C1146 C 0.56022 0.27831 0.68663
 H1147 H 0.59070 0.29687 0.66916
 H1148 H 0.57981 0.31580 0.74102
 H1149 H 0.55113 0.29301 0.74283
 H1150 H 0.56253 0.27399 0.67100
 H1151 H 0.60747 0.33028 0.72210
 H1152 H 0.53557 0.25857 0.69018
 C1153 C 0.58034 0.82885 0.20573
 C1154 C 0.59181 0.81876 0.19089
 C1155 C 0.58582 0.79918 0.18524
 C1156 C 0.56958 0.78979 0.19473
 C1157 C 0.55891 0.80002 0.20997
 C1158 C 0.56422 0.81960 0.21511
 C1159 C 0.54327 0.79041 0.22010
 C1160 C 0.53809 0.77055 0.21531
 C1161 C 0.54844 0.76062 0.19974
 C1162 C 0.56406 0.77015 0.18955
 H1163 H 0.59399 0.79077 0.17399
 H1164 H 0.55600 0.82776 0.22659
 H1165 H 0.53535 0.79832 0.23197
 H1166 H 0.57201 0.76204 0.17785
 H1167 H 0.58351 0.84405 0.21029
 H1168 H 0.54477 0.74532 0.19573
 C1169 C 1.08505 0.30029 0.17282
 C1170 C 1.09582 0.31541 0.18288
 C1171 C 1.08978 0.32070 0.20265
 C1172 C 1.07446 0.31022 0.21250
 C1173 C 1.06458 0.29454 0.20243
 C1174 C 1.06970 0.29002 0.18247
 C1175 C 1.04997 0.28338 0.21257
 C1176 C 1.04510 0.28761 0.23278
 C1177 C 1.05469 0.30357 0.24255
 C1178 C 1.06922 0.31476 0.23251
 H1179 H 1.09756 0.33215 0.21096
 H1180 H 1.06203 0.27828 0.17437
 H1181 H 1.04261 0.27123 0.20480
 H1182 H 1.07658 0.32676 0.24051
 H1183 H 1.08827 0.29625 0.15734
 H1184 H 1.05118 0.30723 0.25812
 C1185 C 1.07568 0.82380 0.69768
 C1186 C 1.08897 0.81166 0.68662
 C1187 C 1.08529 0.79084 0.68527
 C1188 C 1.06901 0.78225 0.69544
 C1189 C 1.05630 0.79461 0.70711
 C1190 C 1.05958 0.81537 0.70787
 C1191 C 1.04064 0.78599 0.71808
 C1192 C 1.03730 0.76515 0.71745
 C1193 C 1.04961 0.75302 0.70531
 C1194 C 1.06542 0.76148 0.69449
 H1195 H 1.09538 0.78123 0.67691
 H1196 H 1.04981 0.82508 0.71654
 H1197 H 1.03109 0.79554 0.72719
 H1198 H 1.07494 0.75177 0.68555
 H1199 H 1.07777 0.83990 0.69858
 H1200 H 1.04729 0.73692 0.70458
 C1201 C 0.40665 0.67953 0.71169
 C1202 C 0.40243 0.68390 0.69124
 C1203 C 0.41424 0.69800 0.68083
 C1204 C 0.42999 0.70752 0.69069
 C1205 C 0.43417 0.70274 0.71115
 C1206 C 0.42241 0.68874 0.72150
 C1207 C 0.44988 0.71221 0.72103
 C1208 C 0.46130 0.72673 0.71086
 C1209 C 0.45701 0.73144 0.69053
 C1210 C 0.44158 0.72182 0.68048
 H1211 H 0.41132 0.70145 0.66506
 H1212 H 0.42528 0.68505 0.73724
 H1213 H 0.45294 0.70859 0.73677
 H1214 H 0.43861 0.72570 0.66480
 H1215 H 0.39762 0.66915 0.72033
 H1216 H 0.46563 0.74257 0.68235
 C1217 C 0.40392 0.16738 0.22198
 C1218 C 0.40073 0.17237 0.20147
 C1219 C 0.41411 0.18546 0.19170
 C1220 C 0.42998 0.19384 0.20230
 C1221 C 0.43295 0.18873 0.22289
 C1222 C 0.41993 0.17537 0.23253
 C1223 C 0.44870 0.19732 0.23355
 C1224 C 0.46127 0.21130 0.22400
 C1225 C 0.45818 0.21626 0.20352
 C1226 C 0.44277 0.20749 0.19271
 H1227 H 0.41222 0.18925 0.17585
 H1228 H 0.42192 0.17136 0.24834
 H1229 H 0.45086 0.19348 0.24939
 H1230 H 0.44070 0.21158 0.17694
 H1231 H 0.39384 0.15761 0.23010
 H1232 H 0.46772 0.22693 0.19581
 C1233 C -0.09940 0.70283 0.17543
 C1234 C -0.10083 0.68201 0.17937
 C1235 C -0.08706 0.67281 0.19254
 C1236 C -0.07177 0.68420 0.20115
 C1237 C -0.07028 0.70498 0.19651
 C1238 C -0.08426 0.71416 0.18381
 C1239 C -0.05487 0.71634 0.20470
 C1240 C -0.04099 0.70735 0.21778
 C1241 C -0.04267 0.68673 0.22255
 C1242 C -0.05785 0.67522 0.21420
 H1243 H -0.08799 0.65680 0.19571
 H1244 H -0.08349 0.73012 0.18032
 H1245 H -0.05387 0.73227 0.20110
 H1246 H -0.05873 0.65934 0.21799
 H1247 H -0.11010 0.71049 0.16587
 H1248 H -0.03214 0.67946 0.23264
 C1249 C -0.08740 0.17130 0.71448
 C1250 C -0.09599 0.18190 0.69794
 C1251 C -0.08744 0.20058 0.69233
 C1252 C -0.07140 0.20854 0.70320
 C1253 C -0.06353 0.19781 0.71990
 C1254 C -0.07151 0.17916 0.72526
 C1255 C -0.04788 0.20595 0.73112
 C1256 C -0.03988 0.22479 0.72587
 C1257 C -0.04762 0.23524 0.70899
 C1258 C -0.06322 0.22721 0.69779
 H1259 H -0.09330 0.20935 0.67984
 H1260 H -0.06552 0.17061 0.73792
 H1261 H -0.04205 0.19765 0.74403
 H1262 H -0.06900 0.23570 0.68499
 H1263 H -0.09267 0.15676 0.71937
 H1264 H -0.04177 0.24978 0.70457
 C1265 C 0.32338 0.40392 0.28525
 C1266 C 0.31918 0.40024 0.30584
 C1267 C 0.30452 0.41200 0.31548
 C1268 C 0.29422 0.42711 0.30472
 C1269 C 0.29875 0.43066 0.28410
 C1270 C 0.31335 0.41902 0.27453
 C1271 C 0.28852 0.44571 0.27330
 C1272 C 0.27359 0.45720 0.28273
 C1273 C 0.26912 0.45353 0.30324
 C1274 C 0.27941 0.43867 0.31417
 H1275 H 0.30121 0.40953 0.33136
 H1276 H 0.31690 0.42147 0.25868
 H1277 H 0.29205 0.44828 0.25746
 H1278 H 0.27572 0.43616 0.32997
 H1279 H 0.33423 0.39492 0.27723
 H1280 H 0.25770 0.46219 0.31087
 C1281 C 0.32886 -0.08028 0.79007
 C1282 C 0.31970 -0.09116 0.80606
 C1283 C 0.30001 -0.08581 0.81133
 C1284 C 0.28973 -0.07065 0.80061
 C1285 C 0.29909 -0.06042 0.78441
 C1286 C 0.31868 -0.06523 0.77942
 C1287 C 0.28869 -0.04559 0.77341
 C1288 C 0.26899 -0.04074 0.77845
 C1289 C 0.25986 -0.05085 0.79477
 C1290 C 0.27011 -0.06569 0.80571
 H1291 H 0.29227 -0.09362 0.82335
 H1292 H 0.32619 -0.05736 0.76719
 H1293 H 0.29596 -0.03784 0.76095
 H1294 H 0.26265 -0.07333 0.81810
 H1295 H 0.34404 -0.08300 0.78563
 H1296 H 0.24468 -0.04743 0.79900
 C1297 C 0.82059 0.41760 0.78171
 C1298 C 0.81360 0.41048 0.80068
 C1299 C 0.79639 0.41978 0.80882
 C1300 C 0.78637 0.43520 0.79829
 C1301 C 0.79352 0.44182 0.77930
 C1302 C 0.81068 0.43301 0.77122
 C1303 C 0.78335 0.45711 0.76867
 C1304 C 0.76604 0.46590 0.77681
 C1305 C 0.75913 0.45924 0.79581
 C1306 C 0.76920 0.44406 0.80645
 H1307 H 0.79057 0.41534 0.82342
 H1308 H 0.81640 0.43793 0.75665
 H1309 H 0.78890 0.46209 0.75405
 H1310 H 0.76350 0.43920 0.82104
 H1311 H 0.83354 0.41123 0.77451
 H1312 H 0.74588 0.46574 0.80247
 C1313 C 0.83338 -0.08093 0.28916
 C1314 C 0.82585 -0.09026 0.30690
 C1315 C 0.80751 -0.08309 0.31464
 C1316 C 0.79697 -0.06755 0.30482
 C1317 C 0.80473 -0.05870 0.28702
 C1318 C 0.82297 -0.06541 0.27941
 C1319 C 0.79406 -0.04337 0.27703
 C1320 C 0.77559 -0.03677 0.28455
 C1321 C 0.76805 -0.04562 0.30237
 C1322 C 0.77864 -0.06084 0.31241
 H1323 H 0.80091 -0.08978 0.32799
 H1324 H 0.82921 -0.05868 0.26583
 H1325 H 0.80009 -0.03670 0.26331
 H1326 H 0.77243 -0.06745 0.32607
 H1327 H 0.84749 -0.08526 0.28270
 H1328 H 0.75389 -0.04083 0.30852
 C1329 C 0.32368 0.59292 0.71633
 C1330 C 0.31873 0.59618 0.69584
 C1331 C 0.30421 0.58401 0.68699
 C1332 C 0.29448 0.56921 0.69846
 C1333 C 0.29956 0.56614 0.71902
 C1334 C 0.31428 0.57798 0.72775
 C1335 C 0.28963 0.55151 0.73057
 C1336 C 0.27440 0.54015 0.72191
 C1337 C 0.26951 0.54331 0.70143
 C1338 C 0.27954 0.55761 0.68978
 H1339 H 0.30038 0.58606 0.67119
 H1340 H 0.31830 0.57592 0.74351
 H1341 H 0.29346 0.54926 0.74636
 H1342 H 0.27545 0.55976 0.67404
 H1343 H 0.33451 0.60219 0.72378
 H1344 H 0.25791 0.53466 0.69436
 C1345 C 0.29054 1.08633 0.18457
 C1346 C 0.30749 1.09397 0.19441
 C1347 C 0.31287 1.08514 0.21321
 C1348 C 0.30166 1.06961 0.22194
 C1349 C 0.28471 1.06239 0.21193
 C1350 C 0.27936 1.07080 0.19322
 C1351 C 0.27336 1.04699 0.22089
 C1352 C 0.27877 1.03880 0.23983
 C1353 C 0.29578 1.04608 0.24954
 C1354 C 0.30710 1.06130 0.24069
 H1355 H 0.32552 1.09040 0.22156
 H1356 H 0.26645 1.06539 0.18524
 H1357 H 0.26029 1.04155 0.21322
 H1358 H 0.32008 1.06664 0.24860
 H1359 H 0.28573 1.09205 0.17004
 H1360 H 0.30036 1.04008 0.26410
 C1361 C 0.78944 0.59352 0.17889
 C1362 C 0.80976 0.59662 0.18263
 C1363 C 0.81959 0.58355 0.19628
 C1364 C 0.80937 0.56782 0.20600
 C1365 C 0.78907 0.56477 0.20188
 C1366 C 0.77926 0.57772 0.18830
 C1367 C 0.77888 0.54897 0.21158
 C1368 C 0.78865 0.53648 0.22573
 C1369 C 0.80883 0.53975 0.22977
 C1370 C 0.81913 0.55515 0.21988
 H1371 H 0.83524 0.58541 0.19924
 H1372 H 0.76365 0.57573 0.18507
 H1373 H 0.76327 0.54672 0.20850
 H1374 H 0.83469 0.55727 0.22326
 H1375 H 0.78125 0.60341 0.16881
 H1376 H 0.81670 0.53031 0.24057
 C1377 C 0.81745 1.09471 0.71527
 C1378 C 0.81378 1.10036 0.69501
 C1379 C 0.79984 1.08934 0.68384
 C1380 C 0.78961 1.07320 0.69280
 C1381 C 0.79357 1.06769 0.71310
 C1382 C 0.80755 1.07849 0.72417
 C1383 C 0.78333 1.05161 0.72209
 C1384 C 0.76887 1.04113 0.71119
 C1385 C 0.76498 1.04677 0.69101
 C1386 C 0.77536 1.06257 0.68185
 H1387 H 0.79695 1.09319 0.66817
 H1388 H 0.81066 1.07455 0.73980
 H1389 H 0.78636 1.04753 0.73772
 H1390 H 0.77211 1.06660 0.66627
 H1391 H 0.82776 1.10300 0.72445
 H1392 H 0.75393 1.03891 0.68229
 C1393 C 0.71997 0.59857 0.31860
 C1394 C 0.69969 0.60034 0.31370
 C1395 C 0.69106 0.58532 0.30173
 C1396 C 0.70248 0.56900 0.29467
 C1397 C 0.72276 0.56741 0.29985
 C1398 C 0.73132 0.58225 0.31187
 C1399 C 0.73425 0.55123 0.29263
 C1400 C 0.72582 0.53681 0.27986
 C1401 C 0.70562 0.53851 0.27484
 C1402 C 0.69402 0.55435 0.28230
 H1403 H 0.67547 0.58622 0.29793
 H1404 H 0.74688 0.58139 0.31587
 H1405 H 0.74985 0.55019 0.29645
 H1406 H 0.67850 0.55529 0.27815
 H1407 H 0.72729 0.60997 0.32739
 H1408 H 0.69875 0.52757 0.26507
 C1409 C 0.70857 1.09210 0.82049
 C1410 C 0.68962 1.09878 0.81403
 C1411 C 0.68047 1.08807 0.79818
 C1412 C 0.69007 1.07191 0.78869
 C1413 C 0.70910 1.06576 0.79515
 C1414 C 0.71812 1.07582 0.81118
 C1415 C 0.71885 1.04984 0.78526
 C1416 C 0.70986 1.04022 0.76878
 C1417 C 0.69080 1.04639 0.76266
 C1418 C 0.68097 1.06201 0.77258
 H1419 H 0.66589 1.09211 0.79277
 H1420 H 0.73272 1.07126 0.81640
 H1421 H 0.73357 1.04527 0.79010
 H1422 H 0.66633 1.06653 0.76745
 H1423 H 0.71639 1.09940 0.83258
 H1424 H 0.68349 1.03918 0.75010
 C1425 C 0.17207 0.59855 0.79208
 C1426 C 0.18097 0.60531 0.81016
 C1427 C 0.19759 0.59445 0.81752
 C1428 C 0.20528 0.57784 0.80707
 C1429 C 0.19640 0.57156 0.78888
 C1430 C 0.17972 0.58196 0.78160
 C1431 C 0.20447 0.55510 0.77824
 C1432 C 0.22137 0.54493 0.78567
 C1433 C 0.22984 0.55126 0.80398
 C1434 C 0.22189 0.56750 0.81456
 H1435 H 0.20460 0.59854 0.83157
 H1436 H 0.17266 0.57739 0.76767
 H1437 H 0.19776 0.55039 0.76418
 H1438 H 0.22886 0.57206 0.82854
 H1439 H 0.15947 0.60624 0.78547
 H1440 H 0.24280 0.54373 0.81018
 C1441 C 0.20300 1.08950 0.34303
 C1442 C 0.18502 1.09629 0.33415
 C1443 C 0.17888 1.08689 0.31606
 C1444 C 0.19015 1.07113 0.30748
 C1445 C 0.20788 1.06462 0.31689
 C1446 C 0.21416 1.07396 0.33456
 C1447 C 0.21915 1.04892 0.30848
 C1448 C 0.21305 1.03949 0.29062
 C1449 C 0.19535 1.04602 0.28131
 C1450 C 0.18400 1.06166 0.28967
 H1451 H 0.16519 1.09137 0.30876
 H1452 H 0.22784 1.06928 0.34187
 H1453 H 0.23278 1.04414 0.31583
 H1454 H 0.17044 1.06637 0.28217
 H1455 H 0.20904 1.09628 0.35642
 H1456 H 0.19026 1.03906 0.26752
 C1457 C 0.70288 0.40954 0.67535
 C1458 C 0.68304 0.40569 0.68086
 C1459 C 0.67362 0.41855 0.69484
 C1460 C 0.68393 0.43472 0.70333
 C1461 C 0.70377 0.43835 0.69749
 C1462 C 0.71305 0.42576 0.68344
 C1463 C 0.71419 0.45431 0.70605
 C1464 C 0.70523 0.46655 0.72075
 C1465 C 0.68549 0.46288 0.72652
 C1466 C 0.67486 0.44719 0.71777
 H1467 H 0.65835 0.41601 0.69918
 H1468 H 0.72832 0.42824 0.67894
 H1469 H 0.72947 0.45687 0.70160
 H1470 H 0.65967 0.44464 0.72247
 H1471 H 0.71085 0.39982 0.66506
 H1472 H 0.67825 0.47215 0.73781
 C1473 C 0.67155 -0.09155 0.21921
 C1474 C 0.67734 -0.09543 0.19909
 C1475 C 0.69202 -0.08325 0.19011
 C1476 C 0.70091 -0.06772 0.20108
 C1477 C 0.69486 -0.06402 0.22122
 C1478 C 0.68013 -0.07597 0.23010
 C1479 C 0.70377 -0.04857 0.23223
 C1480 C 0.71890 -0.03687 0.22350
 C1481 C 0.72486 -0.04070 0.20347
 C1482 C 0.71586 -0.05591 0.19231
 H1483 H 0.69654 -0.08577 0.17458
 H1484 H 0.67541 -0.07342 0.24558
 H1485 H 0.69911 -0.04587 0.24771
 H1486 H 0.72071 -0.05853 0.17689
 H1487 H 0.66061 -0.10078 0.22677
 H1488 H 0.73644 -0.03188 0.19637
 C1489 C 0.20214 0.40752 0.17117
 C1490 C 0.18753 0.39735 0.18253
 C1491 C 0.18296 0.40433 0.20212
 C1492 C 0.19289 0.42097 0.21022
 C1493 C 0.20774 0.43074 0.19873
 C1494 C 0.21217 0.42394 0.17919
 C1495 C 0.21799 0.44708 0.20697
 C1496 C 0.21349 0.45396 0.22657
 C1497 C 0.19845 0.44431 0.23774
 C1498 C 0.18831 0.42794 0.22968
 H1499 H 0.17194 0.39668 0.21124
 H1500 H 0.22340 0.43135 0.17009
 H1501 H 0.22947 0.45441 0.19813
 H1502 H 0.17693 0.42068 0.23871
 H1503 H 0.20577 0.40292 0.15593
 H1504 H 0.19469 0.44924 0.25287
 C1505 C 0.16694 -0.09684 0.71064
 C1506 C 0.17539 -0.10382 0.69230
 C1507 C 0.19199 -0.09338 0.68447
 C1508 C 0.19978 -0.07666 0.69458
 C1509 C 0.19104 -0.07009 0.71285
 C1510 C 0.17464 -0.08027 0.72070
 C1511 C 0.19893 -0.05356 0.72310
 C1512 C 0.21559 -0.04345 0.71538
 C1513 C 0.22408 -0.04998 0.69705
 C1514 C 0.21624 -0.06639 0.68674
 H1515 H 0.19883 -0.09785 0.67037
 H1516 H 0.16781 -0.07550 0.73476
 H1517 H 0.19223 -0.04875 0.73722
 H1518 H 0.22315 -0.07114 0.67271
 H1519 H 0.15455 -0.10425 0.71779
 H1520 H 0.23693 -0.04249 0.69071
 C1521 C 0.32546 0.28923 0.39632
 C1522 C 0.32030 0.30952 0.39257
 C1523 C 0.30587 0.31874 0.40495
 C1524 C 0.29693 0.30796 0.42087
 C1525 C 0.30263 0.28775 0.42470
 C1526 C 0.31681 0.27851 0.41227
 C1527 C 0.29404 0.27710 0.44086
 C1528 C 0.27952 0.28625 0.45309
 C1529 C 0.27369 0.30623 0.44896
 C1530 C 0.28243 0.31705 0.43308
 H1531 H 0.30180 0.33436 0.40249
 H1532 H 0.32120 0.26297 0.41486
 H1533 H 0.29850 0.26162 0.44378
 H1534 H 0.27782 0.33251 0.43035
 H1535 H 0.33611 0.28147 0.38686
 H1536 H 0.26254 0.31360 0.45821
 C1537 C 0.32848 0.79723 -0.10530
 C1538 C 0.32376 0.81780 -0.10787
 C1539 C 0.31013 0.82676 -0.09436
 C1540 C 0.30148 0.81540 -0.07860
 C1541 C 0.30663 0.79485 -0.07615
 C1542 C 0.32010 0.78593 -0.08959
 C1543 C 0.29810 0.78348 -0.06041
 C1544 C 0.28421 0.79224 -0.04713
 C1545 C 0.27910 0.81267 -0.04975
 C1546 C 0.28773 0.82418 -0.06526
 H1547 H 0.30639 0.84259 -0.09594
 H1548 H 0.32408 0.77015 -0.08804
 H1549 H 0.30208 0.76770 -0.05871
 H1550 H 0.28357 0.83990 -0.06689
 H1551 H 0.33852 0.78968 -0.11559
 H1552 H 0.26844 0.81980 -0.03975
 C1553 C 0.79130 0.32783 -0.10681
 C1554 C 0.81177 0.32458 -0.10980
 C1555 C 0.82192 0.31143 -0.09649
 C1556 C 0.81180 0.30153 -0.08074
 C1557 C 0.79128 0.30502 -0.07792
 C1558 C 0.78120 0.31825 -0.09099
 C1559 C 0.78112 0.29500 -0.06227
 C1560 C 0.79113 0.28120 -0.04959
 C1561 C 0.81155 0.27784 -0.05253
 C1562 C 0.82182 0.28801 -0.06786
 H1563 H 0.83771 0.30890 -0.09829
 H1564 H 0.76544 0.32100 -0.08915
 H1565 H 0.76534 0.29761 -0.06026
 H1566 H 0.83756 0.28514 -0.06980
 H1567 H 0.78289 0.33752 -0.11690
 H1568 H 0.81961 0.26733 -0.04293
 C1569 C 0.84303 0.81090 0.40893
 C1570 C 0.83191 0.82453 0.39702
 C1571 C 0.81177 0.82775 0.40179
 C1572 C 0.80277 0.81712 0.41775
 C1573 C 0.81398 0.80302 0.42915
 C1574 C 0.83415 0.80022 0.42479
 C1575 C 0.80475 0.79168 0.44446
 C1576 C 0.78442 0.79427 0.44858
 C1577 C 0.77354 0.80877 0.43755
 C1578 C 0.78262 0.82005 0.42222
 H1579 H 0.80287 0.83799 0.39271
 H1580 H 0.84302 0.78960 0.43351
 H1581 H 0.81335 0.78065 0.45296
 H1582 H 0.77381 0.83086 0.41368
 H1583 H 0.85864 0.80840 0.40593
 H1584 H 0.75787 0.81106 0.44043
 C1585 C 0.70892 0.31534 0.60224
 C1586 C 0.68861 0.31101 0.60445
 C1587 C 0.68000 0.29680 0.59155
 C1588 C 0.69143 0.28747 0.57636
 C1589 C 0.71170 0.29237 0.57407
 C1590 C 0.72032 0.30619 0.58720
 C1591 C 0.72310 0.28333 0.55876
 C1592 C 0.71460 0.26918 0.54576
 C1593 C 0.69445 0.26429 0.54823
 C1594 C 0.68295 0.27341 0.56331
 H1595 H 0.66437 0.29336 0.59304
 H1596 H 0.73588 0.30997 0.58582
 H1597 H 0.73864 0.28710 0.55716
 H1598 H 0.66746 0.26943 0.56480
 H1599 H 0.71612 0.32582 0.61224
 H1600 H 0.68753 0.25342 0.53843
 C1601 C 0.70780 0.82021 1.11055
 C1602 C 0.68731 0.81659 1.11234
 C1603 C 0.67821 0.80390 1.09817
 C1604 C 0.68932 0.79529 1.08235
 C1605 C 0.70976 0.79951 1.08054
 C1606 C 0.71887 0.81185 1.09479
 C1607 C 0.72078 0.79138 1.06448
 C1608 C 0.71174 0.77882 1.05024
 C1609 C 0.69148 0.77438 1.05237
 C1610 C 0.68034 0.78263 1.06822
 H1611 H 0.66246 0.80102 1.09914
 H1612 H 0.73458 0.81507 1.09374
 H1613 H 0.73644 0.79477 1.06312
 H1614 H 0.66470 0.77916 1.06938
 H1615 H 0.71542 0.82945 1.12141
 H1616 H 0.68416 0.76475 1.04159
 C1617 C 0.18189 0.28022 1.10258
 C1618 C 0.18647 0.30083 1.10397
 C1619 C 0.20023 0.30914 1.09032
 C1620 C 0.20917 0.29714 1.07544
 C1621 C 0.20428 0.27651 1.07405
 C1622 C 0.19066 0.26820 1.08774
 C1623 C 0.21319 0.26453 1.05908
 C1624 C 0.22716 0.27288 1.04568
 C1625 C 0.23189 0.29342 1.04724
 C1626 C 0.22292 0.30545 1.06191
 H1627 H 0.20375 0.32501 1.09105
 H1628 H 0.18683 0.25240 1.08703
 H1629 H 0.20952 0.24870 1.05810
 H1630 H 0.22684 0.32122 1.06273
 H1631 H 0.17164 0.27328 1.11312
 H1632 H 0.24255 0.30026 1.03704
 C1633 C 0.17984 0.78557 0.60342
 C1634 C 0.18368 0.80606 0.60695
 C1635 C 0.19812 0.81583 0.59495
 C1636 C 0.20830 0.80534 0.57959
 C1637 C 0.20389 0.78491 0.57607
 C1638 C 0.18974 0.77516 0.58812
 C1639 C 0.21368 0.77448 0.56056
 C1640 C 0.22807 0.78406 0.54849
 C1641 C 0.23265 0.80430 0.55228
 C1642 C 0.22277 0.81489 0.56762
 H1643 H 0.20125 0.83160 0.59728
 H1644 H 0.18634 0.75943 0.58574
 H1645 H 0.21012 0.75881 0.55797
 H1646 H 0.22642 0.83054 0.57011
 H1647 H 0.16927 0.77739 0.61261
 H1648 H 0.24368 0.81202 0.54320
 C1649 C 0.28986 0.68088 0.60595
 C1650 C 0.31026 0.68466 0.60815
 C1651 C 0.31954 0.69787 0.59433
 C1652 C 0.30867 0.70706 0.57861
 C1653 C 0.28826 0.70290 0.57648
 C1654 C 0.27901 0.68982 0.59025
 C1655 C 0.27739 0.71201 0.56073
 C1656 C 0.28657 0.72553 0.54722
 C1657 C 0.30687 0.72964 0.54953
 C1658 C 0.31784 0.72039 0.56500
 H1659 H 0.33526 0.70082 0.59560
 H1660 H 0.26333 0.68659 0.58896
 H1661 H 0.26171 0.70884 0.55923
 H1662 H 0.33347 0.72379 0.56639
 H1663 H 0.28213 0.67115 0.61650
 H1664 H 0.31430 0.73998 0.53932
 C1665 C 0.32263 0.20531 1.10727
 C1666 C 0.31862 0.18468 1.10998
 C1667 C 0.30687 0.17486 1.09563
 C1668 C 0.29880 0.18550 1.07918
 C1669 C 0.30271 0.20628 1.07669
 C1670 C 0.31480 0.21599 1.09075
 C1671 C 0.29410 0.21701 1.06048
 C1672 C 0.28128 0.20727 1.04705
 C1673 C 0.27778 0.18654 1.04954
 C1674 C 0.28656 0.17573 1.06536
 H1675 H 0.30395 0.15891 1.09726
 H1676 H 0.31793 0.23192 1.08916
 H1677 H 0.29680 0.23302 1.05875
 H1678 H 0.28346 0.15980 1.06701
 H1679 H 0.33147 0.21333 1.11816
 H1680 H 0.26808 0.17866 1.03930
 C1681 C 0.81840 0.70740 1.09516
 C1682 C 0.81371 0.68677 1.09598
 C1683 C 0.79889 0.67942 1.08312
 C1684 C 0.78910 0.69247 1.06951
 C1685 C 0.79427 0.71307 1.06870
 C1686 C 0.80887 0.72037 1.08161
 C1687 C 0.78470 0.72612 1.05507
 C1688 C 0.76979 0.71900 1.04228
 C1689 C 0.76458 0.69853 1.04325
 C1690 C 0.77422 0.68535 1.05669
 H1691 H 0.79514 0.66358 1.08355
 H1692 H 0.81286 0.73615 1.08133
 H1693 H 0.78875 0.74189 1.05459
 H1694 H 0.77001 0.66963 1.05708
 H1695 H 0.82928 0.71372 1.10523
 H1696 H 0.75314 0.69266 1.03351
 C1697 C 0.82243 0.21144 0.60482
 C1698 C 0.81764 0.19131 0.60941
 C1699 C 0.80350 0.18155 0.59727
 C1700 C 0.79411 0.19177 0.58120
 C1701 C 0.79915 0.21194 0.57680
 C1702 C 0.81336 0.22160 0.58864
 C1703 C 0.78979 0.22215 0.56072
 C1704 C 0.77520 0.21260 0.54908
 C1705 C 0.77020 0.19256 0.55369
 C1706 C 0.77966 0.18220 0.56952
 H1707 H 0.79977 0.16598 0.60019
 H1708 H 0.81733 0.23711 0.58554
 H1709 H 0.79372 0.23765 0.55745
 H1710 H 0.77558 0.16673 0.57270
 H1711 H 0.83296 0.21956 0.61390
 H1712 H 0.75906 0.18484 0.54496
 C1713 C 0.67816 0.71106 0.40028
 C1714 C 0.69006 0.69744 0.38931
 C1715 C 0.71026 0.69548 0.39441
 C1716 C 0.71835 0.70660 0.41031
 C1717 C 0.70624 0.72022 0.42117
 C1718 C 0.68618 0.72238 0.41599
 C1719 C 0.71436 0.73132 0.43710
 C1720 C 0.73441 0.72878 0.44251
 C1721 C 0.74628 0.71512 0.43161
 C1722 C 0.73835 0.70422 0.41559
 H1723 H 0.71982 0.68540 0.38596
 H1724 H 0.67663 0.73269 0.42421
 H1725 H 0.70501 0.74173 0.44544
 H1726 H 0.74785 0.69382 0.40742
 H1727 H 0.66254 0.71278 0.39696
 H1728 H 0.76176 0.71291 0.43540
 C1729 C 0.68564 0.21493 -0.10426
 C1730 C 0.69083 0.19462 -0.10758
 C1731 C 0.70596 0.18586 -0.09560
 C1732 C 0.71573 0.19713 -0.08080
 C1733 C 0.71016 0.21739 -0.07753
 C1734 C 0.69511 0.22613 -0.08934
 C1735 C 0.71974 0.22857 -0.06252
 C1736 C 0.73507 0.21984 -0.05089
 C1737 C 0.74068 0.19975 -0.05449
 C1738 C 0.73103 0.18846 -0.06922
 H1739 H 0.71010 0.17023 -0.09756
 H1740 H 0.69073 0.24170 -0.08714
 H1741 H 0.71534 0.24409 -0.06000
 H1742 H 0.73554 0.17295 -0.07155
 H1743 H 0.67440 0.22237 -0.11330
 H1744 H 0.75238 0.19265 -0.04572
 C1745 C 0.21802 0.68953 -0.10497
 C1746 C 0.19763 0.69418 -0.10621
 C1747 C 0.18946 0.70791 -0.09227
 C1748 C 0.20137 0.71674 -0.07740
 C1749 C 0.22172 0.71165 -0.07618
 C1750 C 0.22989 0.69808 -0.09008
 C1751 C 0.23357 0.72025 -0.06114
 C1752 C 0.22541 0.73414 -0.04741
 C1753 C 0.20519 0.73928 -0.04891
 C1754 C 0.19326 0.73058 -0.06368
 H1755 H 0.17380 0.71158 -0.09274
 H1756 H 0.24551 0.69413 -0.08950
 H1757 H 0.24917 0.71626 -0.06025
 H1758 H 0.17769 0.73471 -0.06439
 H1759 H 0.22497 0.67940 -0.11564
 H1760 H 0.19852 0.74990 -0.03850
 C1761 C 0.16675 0.19238 0.43542
 C1762 C 0.17735 0.17930 0.42263
 C1763 C 0.19818 0.17888 0.42352
 C1764 C 0.20830 0.19193 0.43638
 C1765 C 0.19748 0.20554 0.44861
 C1766 C 0.17672 0.20539 0.44829
 C1767 C 0.20761 0.21919 0.46080
 C1768 C 0.22842 0.21923 0.46117
 C1769 C 0.23906 0.20538 0.44929
 C1770 C 0.22909 0.19193 0.43688
 H1771 H 0.20657 0.16909 0.41358
 H1772 H 0.16820 0.21557 0.45773
 H1773 H 0.19929 0.22962 0.47018
 H1774 H 0.23761 0.18157 0.42763
 H1775 H 0.15070 0.19278 0.43516
 H1776 H 0.25513 0.20511 0.44945
 C1777 C 0.28382 0.39969 0.68418
 C1778 C 0.30415 0.39779 0.68876
 C1779 C 0.31267 0.41164 0.70208
 C1780 C 0.30115 0.42697 0.71080
 C1781 C 0.28077 0.42879 0.70605
 C1782 C 0.27227 0.41507 0.69268
 C1783 C 0.26926 0.44416 0.71493
 C1784 C 0.27789 0.45745 0.72877
 C1785 C 0.29820 0.45544 0.73327
 C1786 C 0.30973 0.44045 0.72430
 H1787 H 0.32833 0.41065 0.70555
 H1788 H 0.25667 0.41611 0.68891
 H1789 H 0.25361 0.44551 0.71142
 H1790 H 0.32533 0.43930 0.72809
 H1791 H 0.27671 0.38912 0.67422
 H1792 H 0.30527 0.46556 0.74376
 C1793 C 0.28487 0.89996 0.19228
 C1794 C 0.30498 0.89679 0.19716
 C1795 C 0.31354 0.90873 0.21235
 C1796 C 0.30226 0.92371 0.22217
 C1797 C 0.28225 0.92693 0.21662
 C1798 C 0.27369 0.91490 0.20178
 C1799 C 0.27106 0.94211 0.22599
 C1800 C 0.27942 0.95409 0.24113
 C1801 C 0.29921 0.95058 0.24688
 C1802 C 0.31058 0.93561 0.23738
 H1803 H 0.32899 0.90664 0.21632
 H1804 H 0.25830 0.91702 0.19753
 H1805 H 0.25573 0.94449 0.22156
 H1806 H 0.32587 0.93335 0.24192
 H1807 H 0.27756 0.89077 0.18117
 H1808 H 0.30599 0.95962 0.25851
 C1809 C 0.79412 0.39521 0.18216
 C1810 C 0.81397 0.39120 0.18752
 C1811 C 0.82301 0.40351 0.20210
 C1812 C 0.81241 0.41938 0.21119
 C1813 C 0.79258 0.42326 0.20545
 C1814 C 0.78359 0.41111 0.19094
 C1815 C 0.78200 0.43915 0.21441
 C1816 C 0.79082 0.45112 0.22933
 C1817 C 0.81051 0.44704 0.23508
 C1818 C 0.82125 0.43139 0.22599
 H1819 H 0.83832 0.40095 0.20631
 H1820 H 0.76834 0.41380 0.18648
 H1821 H 0.76676 0.44200 0.20995
 H1822 H 0.83644 0.42862 0.23062
 H1823 H 0.78652 0.38591 0.17134
 H1824 H 0.81764 0.45603 0.24652
 C1825 C 0.81440 0.90108 0.70605
 C1826 C 0.81094 0.89803 0.68528
 C1827 C 0.79689 0.91030 0.67527
 C1828 C 0.78666 0.92550 0.68581
 C1829 C 0.79064 0.92857 0.70655
 C1830 C 0.80445 0.91624 0.71653
 C1831 C 0.78069 0.94386 0.71707
 C1832 C 0.76653 0.95606 0.70725
 C1833 C 0.76246 0.95279 0.68667
 C1834 C 0.77253 0.93771 0.67600
 H1835 H 0.79410 0.90824 0.65929
 H1836 H 0.80751 0.91826 0.73249
 H1837 H 0.78382 0.94610 0.73298
 H1838 H 0.76923 0.93558 0.66012
 H1839 H 0.82468 0.89161 0.71439
 H1840 H 0.75160 0.96201 0.67876
 C1841 C 0.70645 0.60336 0.66435
 C1842 C 0.68682 0.60854 0.66965
 C1843 C 0.67752 0.59779 0.68549
 C1844 C 0.68765 0.58235 0.69590
 C1845 C 0.70728 0.57725 0.69028
 C1846 C 0.71652 0.58783 0.67448
 C1847 C 0.71739 0.56176 0.70065
 C1848 C 0.70824 0.55146 0.71682
 C1849 C 0.68874 0.55675 0.72236
 C1850 C 0.67850 0.57196 0.71193
 H1851 H 0.66235 0.60129 0.68967
 H1852 H 0.73162 0.58422 0.67005
 H1853 H 0.73247 0.55792 0.69631
 H1854 H 0.66346 0.57568 0.71647
 H1855 H 0.71423 0.61147 0.65254
 H1856 H 0.68132 0.54902 0.73472
 C1857 C 0.71435 0.10313 0.17695
 C1858 C 0.69393 0.10625 0.18037
 C1859 C 0.68406 0.09359 0.19430
 C1860 C 0.69438 0.07832 0.20477
 C1861 C 0.71482 0.07532 0.20105
 C1862 C 0.72464 0.08777 0.18710
 C1863 C 0.72512 0.05999 0.21143
 C1864 C 0.71533 0.04777 0.22575
 C1865 C 0.69502 0.05100 0.22947
 C1866 C 0.68461 0.06606 0.21897
 H1867 H 0.66831 0.09544 0.19697
 H1868 H 0.74035 0.08575 0.18416
 H1869 H 0.74081 0.05775 0.20853
 H1870 H 0.66893 0.06818 0.22204
 H1871 H 0.72252 0.11272 0.16663
 H1872 H 0.68714 0.04177 0.24039
 C1873 C 0.21544 0.59522 0.17075
 C1874 C 0.19506 0.59856 0.17416
 C1875 C 0.18479 0.58518 0.18707
 C1876 C 0.19479 0.56951 0.19717
 C1877 C 0.21528 0.56650 0.19382
 C1878 C 0.22541 0.57926 0.18036
 C1879 C 0.22534 0.55106 0.20433
 C1880 C 0.21525 0.53900 0.21857
 C1881 C 0.19486 0.54214 0.22174
 C1882 C 0.18466 0.55712 0.21098
 H1883 H 0.16902 0.58703 0.18957
 H1884 H 0.24115 0.57720 0.17763
 H1885 H 0.24112 0.54885 0.20189
 H1886 H 0.16894 0.55926 0.21374
 H1887 H 0.22388 0.60522 0.16107
 H1888 H 0.18677 0.53296 0.23255
 C1889 C 0.20636 0.10109 0.67378
 C1890 C 0.18627 0.10454 0.67864
 C1891 C 0.17673 0.09123 0.69212
 C1892 C 0.18710 0.07485 0.70069
 C1893 C 0.20725 0.07156 0.69562
 C1894 C 0.21671 0.08474 0.68211
 C1895 C 0.21771 0.05535 0.70439
 C1896 C 0.20838 0.04256 0.71848
 C1897 C 0.18829 0.04589 0.72332
 C1898 C 0.17772 0.06181 0.71442
 H1899 H 0.16123 0.09351 0.69586
 H1900 H 0.23218 0.08254 0.67815
 H1901 H 0.23323 0.05304 0.70065
 H1902 H 0.16228 0.06407 0.71848
 H1903 H 0.21425 0.11122 0.66377
 H1904 H 0.18075 0.03623 0.73411
 C1905 C 0.27988 0.59943 0.32103
 C1906 C 0.30004 0.60184 0.31595
 C1907 C 0.30885 0.58802 0.30246
 C1908 C 0.29773 0.57248 0.29391
 C1909 C 0.27754 0.57025 0.29918
 C1910 C 0.26880 0.58375 0.31283
 C1911 C 0.26642 0.55469 0.29056
 C1912 C 0.27516 0.54152 0.27643
 C1913 C 0.29524 0.54399 0.27126
 C1914 C 0.30645 0.55922 0.28001
 H1915 H 0.32439 0.58924 0.29856
 H1916 H 0.25331 0.58235 0.31699
 H1917 H 0.25092 0.55303 0.29461
 H1918 H 0.32191 0.56072 0.27577
 H1919 H 0.27247 0.60983 0.33110
 H1920 H 0.30236 0.53403 0.26050
 C1921 C 0.31451 0.09828 0.77914
 C1922 C 0.31010 0.10143 0.79973
 C1923 C 0.29638 0.08856 0.80938
 C1924 C 0.28676 0.07340 0.79862
 C1925 C 0.29128 0.07048 0.77797
 C1926 C 0.30529 0.08288 0.76841
 C1927 C 0.28160 0.05530 0.76721
 C1928 C 0.26717 0.04323 0.77675
 C1929 C 0.26268 0.04642 0.79726
 C1930 C 0.27250 0.06127 0.80814
 H1931 H 0.29304 0.09026 0.82531
 H1932 H 0.30889 0.08089 0.75255
 H1933 H 0.28512 0.05307 0.75135
 H1934 H 0.26883 0.06336 0.82398
 H1935 H 0.32479 0.10792 0.77114
 H1936 H 0.25172 0.03728 0.80497
 C1937 C 0.77610 0.60329 0.82240
 C1938 C 0.79628 0.60567 0.81735
 C1939 C 0.80476 0.59287 0.80272
 C1940 C 0.79324 0.57828 0.79310
 C1941 C 0.77307 0.57607 0.79845
 C1942 C 0.76468 0.58857 0.81316
 C1943 C 0.76153 0.56153 0.78886
 C1944 C 0.76979 0.54934 0.77369
 C1945 C 0.78984 0.55173 0.76834
 C1946 C 0.80151 0.56599 0.77806
 H1947 H 0.82027 0.59420 0.79874
 H1948 H 0.74919 0.58716 0.81735
 H1949 H 0.74605 0.55991 0.79302
 H1950 H 0.81695 0.56749 0.77372
 H1951 H 0.76885 0.61300 0.83322
 H1952 H 0.79656 0.54245 0.75674
 C1953 C 0.81807 0.10208 0.29137
 C1954 C 0.81395 0.10475 0.31211
 C1955 C 0.79946 0.09260 0.32143
 C1956 C 0.78960 0.07777 0.31029
 C1957 C 0.79434 0.07500 0.28963
 C1958 C 0.80845 0.08732 0.28030
 C1959 C 0.78493 0.05993 0.27857
 C1960 C 0.77059 0.04762 0.28776
 C1961 C 0.76566 0.05067 0.30822
 C1962 C 0.77517 0.06555 0.31943
 H1963 H 0.79615 0.09440 0.33737
 H1964 H 0.81209 0.08555 0.26441
 H1965 H 0.78871 0.05787 0.26274
 H1966 H 0.77127 0.06746 0.33524
 H1967 H 0.82869 0.11150 0.28356
 H1968 H 0.75464 0.04137 0.31564
 C1969 C 0.68920 0.39313 0.28807
 C1970 C 0.69265 0.39002 0.30890
 C1971 C 0.70559 0.40306 0.31901
 C1972 C 0.71463 0.41913 0.30853
 C1973 C 0.71066 0.42222 0.28771
 C1974 C 0.69803 0.40907 0.27763
 C1975 C 0.71947 0.43832 0.27723
 C1976 C 0.73251 0.45133 0.28716
 C1977 C 0.73648 0.44810 0.30785
 C1978 C 0.72754 0.43222 0.31846
 H1979 H 0.70835 0.40094 0.33504
 H1980 H 0.69498 0.41107 0.26163
 H1981 H 0.71643 0.44050 0.26125
 H1982 H 0.73080 0.43013 0.33440
 H1983 H 0.67975 0.38311 0.27970
 H1984 H 0.74649 0.45789 0.31586
 C1985 C 0.70348 0.90327 0.81823
 C1986 C 0.68339 0.90006 0.81358
 C1987 C 0.67456 0.91171 0.79806
 C1988 C 0.68554 0.92627 0.78745
 C1989 C 0.70560 0.92949 0.79251
 C1990 C 0.71444 0.91787 0.80787
 C1991 C 0.71649 0.94429 0.78215
 C1992 C 0.70766 0.95584 0.76661
 C1993 C 0.68777 0.95232 0.76151
 C1994 C 0.67678 0.93774 0.77190
 H1995 H 0.65907 0.90973 0.79439
 H1996 H 0.72985 0.92004 0.81184
 H1997 H 0.73186 0.94675 0.78616
 H1998 H 0.66142 0.93545 0.76778
 H1999 H 0.71086 0.89437 0.82979
 H2000 H 0.68061 0.96103 0.74963
 C2001 C 0.20983 0.40305 0.83025
 C2002 C 0.18949 0.40061 0.82614
 C2003 C 0.18008 0.41429 0.81285
 C2004 C 0.19086 0.42989 0.80361
 C2005 C 0.21125 0.43211 0.80794
 C2006 C 0.22054 0.41869 0.82137
 C2007 C 0.22214 0.44743 0.79844
 C2008 C 0.21303 0.46032 0.78427
 C2009 C 0.19271 0.45810 0.78014
 C2010 C 0.18169 0.44312 0.78984
 H2011 H 0.16443 0.41279 0.80963
 H2012 H 0.23619 0.42007 0.82474
 H2013 H 0.23783 0.44891 0.80162
 H2014 H 0.16608 0.44167 0.78632
 H2015 H 0.21774 0.39261 0.84000
 H2016 H 0.18533 0.46793 0.76932
 C2017 C 0.17622 0.89356 0.29227
 C2018 C 0.17885 0.89021 0.31318
 C2019 C 0.19014 0.90401 0.32426
 C2020 C 0.19884 0.92069 0.31463
 C2021 C 0.19607 0.92387 0.29363
 C2022 C 0.18468 0.91024 0.28262
 C2023 C 0.20502 0.94041 0.28395
 C2024 C 0.21704 0.95361 0.29494
 C2025 C 0.21957 0.95035 0.31585
 C2026 C 0.21045 0.93414 0.32563
 H2027 H 0.19209 0.90189 0.34041
 H2028 H 0.18248 0.91236 0.26649
 H2029 H 0.20309 0.94266 0.26779
 H2030 H 0.21272 0.93196 0.34174
 H2031 H 0.16788 0.88311 0.28323
 H2032 H 0.22872 0.96032 0.32467
 C2033 C 0.40230 0.32192 0.71515
 C2034 C 0.39911 0.31761 0.69456
 C2035 C 0.41198 0.30375 0.68496
 C2036 C 0.42725 0.29406 0.69577
 C2037 C 0.43021 0.29863 0.71636
 C2038 C 0.41774 0.31265 0.72586
 C2039 C 0.44547 0.28895 0.72717
 C2040 C 0.45764 0.27444 0.71779
 C2041 C 0.45446 0.26985 0.69733
 C2042 C 0.43950 0.27970 0.68636
 H2043 H 0.41023 0.30034 0.66910
 H2044 H 0.41976 0.31625 0.74170
 H2045 H 0.44765 0.29251 0.74300
 H2046 H 0.43741 0.27596 0.67058
 H2047 H 0.39272 0.33223 0.72323
 H2048 H 0.46367 0.25877 0.68977
 C2049 C 0.40875 0.82504 0.20746
 C2050 C 0.39747 0.81401 0.19353
 C2051 C 0.40352 0.79418 0.18893
 C2052 C 0.42031 0.78550 0.19828
 C2053 C 0.43116 0.79669 0.21252
 C2054 C 0.42532 0.81646 0.21690
 C2055 C 0.44761 0.78790 0.22227
 C2056 C 0.45352 0.76802 0.21793
 C2057 C 0.44285 0.75715 0.20344
 C2058 C 0.42636 0.76577 0.19377
 H2059 H 0.39504 0.78533 0.17840
 H2060 H 0.43357 0.82533 0.22764
 H2061 H 0.45573 0.79653 0.23332
 H2062 H 0.41828 0.75695 0.18285
 H2063 H 0.40490 0.84045 0.21103
 H2064 H 0.44703 0.74181 0.19982
 C2065 C 0.90735 0.28462 0.18830
 C2066 C 0.90322 0.30503 0.19229
 C2067 C 0.91463 0.31500 0.20696
 C2068 C 0.93010 0.30480 0.21713
 C2069 C 0.93425 0.28448 0.21247
 C2070 C 0.92273 0.27451 0.19818
 C2071 C 0.94993 0.27437 0.22209
 C2072 C 0.96161 0.28414 0.23653
 C2073 C 0.95718 0.30423 0.24148
 C2074 C 0.94160 0.31453 0.23177
 H2075 H 0.91175 0.33071 0.21021
 H2076 H 0.92562 0.25885 0.19463
 H2077 H 0.95301 0.25879 0.21829
 H2078 H 0.93862 0.33009 0.23563
 H2079 H 0.89859 0.27629 0.17760
 H2080 H 0.96596 0.31207 0.25258
 C2081 C 0.90360 0.82103 0.70885
 C2082 C 0.90045 0.81537 0.68857
 C2083 C 0.91237 0.79993 0.68035
 C2084 C 0.92682 0.79014 0.69221
 C2085 C 0.92980 0.79610 0.71246
 C2086 C 0.91819 0.81162 0.72057
 C2087 C 0.94413 0.78627 0.72438
 C2088 C 0.95529 0.77020 0.71647
 C2089 C 0.95218 0.76431 0.69633
 C2090 C 0.93818 0.77429 0.68426
 H2091 H 0.91045 0.79543 0.66478
 H2092 H 0.92018 0.81629 0.73612
 H2093 H 0.94630 0.79085 0.73994
 H2094 H 0.93611 0.76947 0.66878
 H2095 H 0.89459 0.83248 0.71598
 H2096 H 0.96067 0.75201 0.68986
 C2097 C 0.59964 0.31270 0.28817
 C2098 C 0.60355 0.30742 0.30849
 C2099 C 0.59158 0.29281 0.31799
 C2100 C 0.57630 0.28340 0.30733
 C2101 C 0.57256 0.28895 0.28699
 C2102 C 0.58424 0.30367 0.27760
 C2103 C 0.55735 0.27954 0.27629
 C2104 C 0.54597 0.26436 0.28554
 C2105 C 0.54986 0.25885 0.30575
 C2106 C 0.56481 0.26839 0.31660
 H2107 H 0.59407 0.28868 0.33367
 H2108 H 0.58165 0.30801 0.26197
 H2109 H 0.55458 0.28383 0.26067
 H2110 H 0.56748 0.26392 0.33218
 H2111 H 0.60867 0.32356 0.28018
 H2112 H 0.54125 0.24725 0.31323
 C2113 C 0.59101 0.79559 0.82261
 C2114 C 0.59431 0.81576 0.81680
 C2115 C 0.58364 0.82388 0.80036
 C2116 C 0.56996 0.81208 0.78988
 C2117 C 0.56670 0.79191 0.79597
 C2118 C 0.57730 0.78382 0.81236
 C2119 C 0.55297 0.78012 0.78555
 C2120 C 0.54252 0.78819 0.76895
 C2121 C 0.54596 0.80826 0.76296
 C2122 C 0.55949 0.82011 0.77336
 H2123 H 0.58584 0.83942 0.79580
 H2124 H 0.57510 0.76835 0.81716
 H2125 H 0.55051 0.76466 0.79029
 H2126 H 0.56180 0.83554 0.76846
 H2127 H 0.59925 0.78870 0.83489
 H2128 H 0.53807 0.81490 0.75026
 C2129 C 0.10183 0.31762 0.79579
 C2130 C 0.10531 0.31185 0.81605
 C2131 C 0.09270 0.29750 0.82514
 C2132 C 0.07682 0.28928 0.81423
 C2133 C 0.07340 0.29555 0.79403
 C2134 C 0.08603 0.30964 0.78495
 C2135 C 0.05747 0.28755 0.78316
 C2136 C 0.04496 0.27308 0.79206
 C2137 C 0.04857 0.26681 0.81212
 C2138 C 0.06428 0.27492 0.82314
 H2139 H 0.09500 0.29296 0.84074
 H2140 H 0.08374 0.31447 0.76941
 H2141 H 0.05500 0.29240 0.76764
 H2142 H 0.06666 0.26989 0.83860
 H2143 H 0.11143 0.32823 0.78816
 H2144 H 0.03919 0.25568 0.81933
 C2145 C 0.09454 0.77786 0.31796
 C2146 C 0.09705 0.79849 0.31360
 C2147 C 0.08487 0.80767 0.29880
 C2148 C 0.07050 0.79643 0.28858
 C2149 C 0.06807 0.77583 0.29339
 C2150 C 0.08015 0.76670 0.30805
 C2151 C 0.05361 0.76461 0.28345
 C2152 C 0.04155 0.77358 0.26853
 C2153 C 0.04421 0.79402 0.26359
 C2154 C 0.05851 0.80539 0.27362
 H2155 H 0.08641 0.82354 0.29531
 H2156 H 0.07857 0.75086 0.31178
 H2157 H 0.05184 0.74881 0.28730
 H2158 H 0.06018 0.82116 0.26967
 H2159 H 0.10388 0.77012 0.32883
 H2160 H 0.03508 0.80128 0.25217
 C2161 C 0.59886 0.71991 0.66392
 C2162 C 0.60218 0.69945 0.66871
 C2163 C 0.59002 0.69012 0.68329
 C2164 C 0.57487 0.70100 0.69297
 C2165 C 0.57160 0.72150 0.68795
 C2166 C 0.58369 0.73080 0.67339
 C2167 C 0.55643 0.73237 0.69769
 C2168 C 0.54469 0.72305 0.71263
 C2169 C 0.54812 0.70264 0.71747
 C2170 C 0.56298 0.69170 0.70767
 H2171 H 0.59216 0.67433 0.68697
 H2172 H 0.58150 0.74653 0.66942
 H2173 H 0.55400 0.74812 0.69391
 H2174 H 0.56527 0.67599 0.71170
 H2175 H 0.60815 0.72763 0.65302
 H2176 H 0.53923 0.69506 0.72887
 C2177 C 0.59727 0.20886 0.17349
 C2178 C 0.60199 0.18856 0.17772
 C2179 C 0.59073 0.17812 0.19238
 C2180 C 0.57531 0.18788 0.20285
 C2181 C 0.57081 0.20824 0.19838
 C2182 C 0.58178 0.21855 0.18362
 C2183 C 0.55557 0.21809 0.20891
 C2184 C 0.54485 0.20799 0.22415
 C2185 C 0.54941 0.18772 0.22853
 C2186 C 0.56444 0.17771 0.21788
 H2187 H 0.59392 0.16243 0.19570
 H2188 H 0.57858 0.23421 0.18010
 H2189 H 0.55230 0.23376 0.20545
 H2190 H 0.56769 0.16209 0.22154
 H2191 H 0.60578 0.21750 0.16263
 H2192 H 0.54134 0.17960 0.24017
 C2193 C 0.10302 0.67613 0.20419
 C2194 C 0.10543 0.68146 0.18364
 C2195 C 0.09122 0.69415 0.17444
 C2196 C 0.07492 0.70140 0.18558
 C2197 C 0.07267 0.69582 0.20617
 C2198 C 0.08679 0.68317 0.21530
 C2199 C 0.05651 0.70323 0.21739
 C2200 C 0.04270 0.71646 0.20839
 C2201 C 0.04501 0.72183 0.18787
 C2202 C 0.06090 0.71428 0.17654
 H2203 H 0.09273 0.69824 0.15860
 H2204 H 0.08539 0.67885 0.23110
 H2205 H 0.05499 0.69910 0.23323
 H2206 H 0.06236 0.71872 0.16077
 H2207 H 0.11386 0.66672 0.21183
 H2208 H 0.03456 0.73198 0.18056
 C2209 C 0.09962 0.21706 0.68404
 C2210 C 0.10220 0.19618 0.68701
 C2211 C 0.08950 0.18604 0.70060
 C2212 C 0.07435 0.19656 0.71079
 C2213 C 0.07175 0.21745 0.70728
 C2214 C 0.08453 0.22755 0.69398
 C2215 C 0.05647 0.22795 0.71717
 C2216 C 0.04382 0.21795 0.73082
 C2217 C 0.04663 0.19721 0.73441
 C2218 C 0.06168 0.18658 0.72439
 H2219 H 0.09116 0.16996 0.70299
 H2220 H 0.08287 0.24360 0.69128
 H2221 H 0.05460 0.24397 0.71442
 H2222 H 0.06345 0.17059 0.72732
 H2223 H 0.10938 0.22544 0.67410
 H2224 H 0.03707 0.18916 0.74486
 C2225 C 0.39817 0.67328 0.28556
 C2226 C 0.39518 0.67869 0.30594
 C2227 C 0.40915 0.69129 0.31520
 C2228 C 0.42539 0.69879 0.30421
 C2229 C 0.42812 0.69329 0.28376
 C2230 C 0.41451 0.68039 0.27465
 C2231 C 0.44411 0.70118 0.27264
 C2232 C 0.45711 0.71496 0.28156
 C2233 C 0.45434 0.72020 0.30196
 C2234 C 0.43875 0.71204 0.31324
 H2235 H 0.40741 0.69541 0.33093
 H2236 H 0.41629 0.67609 0.25895
 H2237 H 0.44599 0.69719 0.25686
 H2238 H 0.43690 0.71643 0.32891
 H2239 H 0.38767 0.66387 0.27780
 H2240 H 0.46420 0.73075 0.30917
 C2241 C 0.39674 0.21220 0.81678
 C2242 C 0.39432 0.19171 0.81207
 C2243 C 0.40875 0.18219 0.79996
 C2244 C 0.42513 0.19294 0.79249
 C2245 C 0.42733 0.21353 0.79727
 C2246 C 0.41308 0.22297 0.80951
 C2247 C 0.44353 0.22438 0.78941
 C2248 C 0.45736 0.21496 0.77652
 C2249 C 0.45509 0.19440 0.77213
 C2250 C 0.43922 0.18348 0.78011
 H2251 H 0.40730 0.16637 0.79639
 H2252 H 0.41443 0.23875 0.81328
 H2253 H 0.44502 0.24025 0.79280
 H2254 H 0.43782 0.16771 0.77633
 H2255 H 0.38581 0.22008 0.82582
 H2256 H 0.46554 0.18672 0.76232
 C2257 C 0.88901 0.68231 0.78780
 C2258 C 0.88633 0.68771 0.80822
 C2259 C 0.90039 0.70032 0.81731
 C2260 C 0.91696 0.70711 0.80626
 C2261 C 0.91962 0.70113 0.78593
 C2262 C 0.90550 0.68884 0.77683
 C2263 C 0.93625 0.70767 0.77493
 C2264 C 0.95015 0.72049 0.78383
 C2265 C 0.94731 0.72652 0.80401
 C2266 C 0.93096 0.71976 0.81518
 H2267 H 0.89867 0.70455 0.83302
 H2268 H 0.90717 0.68430 0.76119
 H2269 H 0.93814 0.70312 0.75931
 H2270 H 0.92919 0.72456 0.83073
 H2271 H 0.87828 0.67306 0.78016
 H2272 H 0.95781 0.73642 0.81119
 C2273 C 0.91010 0.17826 0.29456
 C2274 C 0.90725 0.18172 0.31540
 C2275 C 0.92061 0.19426 0.32556
 C2276 C 0.93620 0.20356 0.31502
 C2277 C 0.93878 0.20002 0.29409
 C2278 C 0.92575 0.18722 0.28406
 C2279 C 0.95404 0.20972 0.28342
 C2280 C 0.96654 0.22326 0.29333
 C2281 C 0.96399 0.22651 0.31420
 C2282 C 0.94904 0.21664 0.32498
 H2283 H 0.91884 0.19690 0.34162
 H2284 H 0.92743 0.18442 0.26800
 H2285 H 0.95579 0.20719 0.26731
 H2286 H 0.94732 0.21951 0.34102
 H2287 H 0.89995 0.16901 0.28615
 H2288 H 0.97349 0.23682 0.32220
 C2289 C 0.32710 0.29323 0.59575
 C2290 C 0.32077 0.31306 0.59979
 C2291 C 0.30672 0.32221 0.58685
 C2292 C 0.29872 0.31156 0.57059
 C2293 C 0.30521 0.29166 0.56683
 C2294 C 0.31952 0.28271 0.57936
 C2295 C 0.29695 0.28083 0.55089
 C2296 C 0.28188 0.28941 0.53890
 C2297 C 0.27556 0.30925 0.54265
 C2298 C 0.28405 0.32032 0.55826
 H2299 H 0.30185 0.33755 0.58944
 H2300 H 0.32456 0.26741 0.57674
 H2301 H 0.30182 0.26546 0.54826
 H2302 H 0.27888 0.33556 0.56093
 H2303 H 0.33761 0.28553 0.60549
 H2304 H 0.26399 0.31618 0.53356
 C2305 C 0.29042 0.82113 0.10101
 C2306 C 0.31087 0.81752 0.10376
 C2307 C 0.32102 0.80542 0.08957
 C2308 C 0.31092 0.79741 0.07283
 C2309 C 0.29052 0.80169 0.07019
 C2310 C 0.28043 0.81345 0.08439
 C2311 C 0.28040 0.79402 0.05348
 C2312 C 0.29020 0.78172 0.03936
 C2313 C 0.31044 0.77727 0.04216
 C2314 C 0.32076 0.78518 0.05867
 H2315 H 0.33674 0.80246 0.09138
 H2316 H 0.26473 0.81664 0.08272
 H2317 H 0.26473 0.79737 0.05168
 H2318 H 0.33637 0.78164 0.06042
 H2319 H 0.28193 0.82977 0.11185
 H2320 H 0.31831 0.76777 0.03152
 C2321 C 0.82987 0.28441 0.09453
 C2322 C 0.82440 0.30459 0.09825
 C2323 C 0.81072 0.31405 0.08508
 C2324 C 0.80261 0.30353 0.06869
 C2325 C 0.80844 0.28337 0.06514
 C2326 C 0.82209 0.27399 0.07813
 C2327 C 0.80033 0.27280 0.04883
 C2328 C 0.78613 0.28199 0.03615
 C2329 C 0.78038 0.30204 0.03984
 C2330 C 0.78864 0.31275 0.05586
 H2331 H 0.80640 0.32958 0.08747
 H2332 H 0.82661 0.25849 0.07575
 H2333 H 0.80479 0.25730 0.04627
 H2334 H 0.78396 0.32819 0.05833
 H2335 H 0.83996 0.27640 0.10447
 H2336 H 0.76951 0.30949 0.03029
 C2337 C 0.82242 0.78937 0.59345
 C2338 C 0.81689 0.80944 0.59756
 C2339 C 0.80312 0.81912 0.58464
 C2340 C 0.79514 0.80899 0.56797
 C2341 C 0.80117 0.78901 0.56389
 C2342 C 0.81475 0.77933 0.57676
 C2343 C 0.79348 0.77898 0.54706
 C2344 C 0.77949 0.78852 0.53439
 C2345 C 0.77335 0.80830 0.53873
 C2346 C 0.78122 0.81851 0.55528
 H2347 H 0.79876 0.83459 0.58730
 H2348 H 0.81939 0.76393 0.57397
 H2349 H 0.79817 0.76365 0.54400
 H2350 H 0.77636 0.83381 0.55819
 H2351 H 0.83259 0.78125 0.60321
 H2352 H 0.76260 0.81596 0.52919
 C2353 C 0.31927 0.71498 0.40039
 C2354 C 0.31386 0.69466 0.39820
 C2355 C 0.30132 0.68592 0.41287
 C2356 C 0.29418 0.69727 0.42925
 C2357 C 0.29976 0.71764 0.43126
 C2358 C 0.31236 0.72631 0.41676
 C2359 C 0.29240 0.72905 0.44754
 C2360 C 0.27923 0.72043 0.46167
 C2361 C 0.27390 0.70010 0.45953
 C2362 C 0.28138 0.68862 0.44357
 H2363 H 0.29718 0.67025 0.41166
 H2364 H 0.31672 0.74193 0.41795
 H2365 H 0.29652 0.74473 0.44892
 H2366 H 0.27695 0.67302 0.44231
 H2367 H 0.32862 0.72231 0.38927
 H2368 H 0.26384 0.69305 0.47021
 C2369 C 0.28333 0.17506 0.89798
 C2370 C 0.30380 0.17846 0.89563
 C2371 C 0.31403 0.18849 0.91100
 C2372 C 0.30395 0.19543 0.92820
 C2373 C 0.28335 0.19208 0.93033
 C2374 C 0.27322 0.18173 0.91520
 C2375 C 0.27316 0.19966 0.94726
 C2376 C 0.28328 0.21102 0.96173
 C2377 C 0.30381 0.21392 0.95963
 C2378 C 0.31410 0.20605 0.94311
 H2379 H 0.32984 0.19094 0.90959
 H2380 H 0.25742 0.17910 0.91650
 H2381 H 0.25729 0.19753 0.94869
 H2382 H 0.32989 0.20870 0.94176
 H2383 H 0.27499 0.16759 0.88631
 H2384 H 0.31191 0.22257 0.97067
 C2385 C 0.77755 0.69602 0.89781
 C2386 C 0.79831 0.69796 0.89680
 C2387 C 0.80793 0.71000 0.91112
 C2388 C 0.79700 0.71916 0.92681
 C2389 C 0.77626 0.71630 0.92804
 C2390 C 0.76666 0.70502 0.91327
 C2391 C 0.76541 0.72451 0.94414
 C2392 C 0.77489 0.73579 0.95909
 C2393 C 0.79541 0.73912 0.95752
 C2394 C 0.80641 0.73077 0.94157
 H2395 H 0.82390 0.71162 0.91049
 H2396 H 0.75074 0.70292 0.91383
 H2397 H 0.74954 0.72207 0.94505
 H2398 H 0.82226 0.73324 0.94089
 H2399 H 0.76968 0.68733 0.88667
 H2400 H 0.80304 0.74782 0.96885
 C2401 C 0.82410 0.21103 0.40602
 C2402 C 0.81960 0.19070 0.40238
 C2403 C 0.80627 0.18081 0.41546
 C2404 C 0.79737 0.19106 0.43165
 C2405 C 0.80193 0.21150 0.43510
 C2406 C 0.81541 0.22130 0.42224
 C2407 C 0.79266 0.22184 0.45110
 C2408 C 0.77858 0.21207 0.46341
 C2409 C 0.77438 0.19167 0.45992
 C2410 C 0.78376 0.18124 0.44430
 H2411 H 0.80287 0.16509 0.41312
 H2412 H 0.81904 0.23698 0.42456
 H2413 H 0.79591 0.23760 0.45355
 H2414 H 0.78012 0.16557 0.44191
 H2415 H 0.83410 0.21915 0.39612
 H2416 H 0.76367 0.18375 0.46924
 C2417 C 0.68540 0.27735 0.39816
 C2418 C 0.68950 0.29801 0.39581
 C2419 C 0.70152 0.30743 0.41025
 C2420 C 0.70907 0.29646 0.42687
 C2421 C 0.70452 0.27580 0.42919
 C2422 C 0.69276 0.26639 0.41468
 C2423 C 0.71193 0.26486 0.44588
 C2424 C 0.72416 0.27420 0.46013
 C2425 C 0.72865 0.29474 0.45763
 C2426 C 0.72108 0.30579 0.44124
 H2427 H 0.70470 0.32334 0.40879
 H2428 H 0.68927 0.25053 0.41609
 H2429 H 0.70852 0.24899 0.44751
 H2430 H 0.72475 0.32160 0.43974
 H2431 H 0.67656 0.26953 0.38713
 H2432 H 0.73804 0.30232 0.46839
 C2433 C 0.66689 0.79982 0.91242
 C2434 C 0.67223 0.82005 0.90902
 C2435 C 0.68708 0.82855 0.92119
 C2436 C 0.69650 0.81693 0.93632
 C2437 C 0.69081 0.79671 0.93946
 C2438 C 0.67596 0.78836 0.92754
 C2439 C 0.70024 0.78495 0.95424
 C2440 C 0.71563 0.79289 0.96594
 C2441 C 0.72126 0.81304 0.96284
 C2442 C 0.71169 0.82501 0.94820
 H2443 H 0.69133 0.84410 0.91891
 H2444 H 0.67156 0.77281 0.92967
 H2445 H 0.69579 0.76941 0.95635
 H2446 H 0.71630 0.84048 0.94604
 H2447 H 0.65600 0.79251 0.90312
 H2448 H 0.73307 0.81952 0.97168
 C2449 C 0.21469 0.30977 0.90479
 C2450 C 0.19426 0.30583 0.90318
 C2451 C 0.18561 0.29178 0.91648
 C2452 C 0.19708 0.28231 0.93157
 C2453 C 0.21747 0.28688 0.93337
 C2454 C 0.22615 0.30046 0.91975
 C2455 C 0.22885 0.27781 0.94874
 C2456 C 0.22018 0.26398 0.96221
 C2457 C 0.19996 0.25934 0.96016
 C2458 C 0.18849 0.26849 0.94505
 H2459 H 0.16989 0.28867 0.91544
 H2460 H 0.24179 0.30397 0.92073
 H2461 H 0.24446 0.28135 0.95006
 H2462 H 0.17291 0.26477 0.94393
 H2463 H 0.22189 0.32011 0.89443
 H2464 H 0.19292 0.24872 0.97039
 C2465 C 0.17689 0.78197 0.40762
 C2466 C 0.18061 0.80242 0.40324
 C2467 C 0.19420 0.81279 0.41542
 C2468 C 0.20403 0.80289 0.43143
 C2469 C 0.20001 0.78241 0.43566
 C2470 C 0.18636 0.77214 0.42371
 C2471 C 0.20994 0.77245 0.45155
 C2472 C 0.22422 0.78258 0.46301
 C2473 C 0.22811 0.80295 0.45868
 C2474 C 0.21800 0.81306 0.44315
 H2475 H 0.19716 0.82856 0.41254
 H2476 H 0.18321 0.75639 0.42662
 H2477 H 0.20694 0.75670 0.45463
 H2478 H 0.22130 0.82875 0.44014
 H2479 H 0.16688 0.77332 0.39843
 H2480 H 0.23901 0.81110 0.46733
 C2481 C 0.67018 0.70290 0.56223
 C2482 C 0.68124 0.69009 0.57506
 C2483 C 0.70176 0.68789 0.57166
 C2484 C 0.71118 0.69894 0.55626
 C2485 C 0.69999 0.71238 0.54404
 C2486 C 0.67946 0.71397 0.54690
 C2487 C 0.70957 0.72430 0.52943
 C2488 C 0.73021 0.72288 0.52675
 C2489 C 0.74113 0.70900 0.53852
 C2490 C 0.73171 0.69719 0.55322
 H2491 H 0.71056 0.67825 0.58147
 H2492 H 0.67062 0.72403 0.53751
 H2493 H 0.70098 0.73480 0.52028
 H2494 H 0.74051 0.68690 0.56239
 H2495 H 0.65431 0.70457 0.56420
 H2496 H 0.75705 0.70762 0.53670
 C2497 C 0.68283 0.21365 0.08631
 C2498 C 0.68826 0.19345 0.09023
 C2499 C 0.70335 0.18461 0.07840
 C2500 C 0.71302 0.19580 0.06323
 C2501 C 0.70735 0.21602 0.05947
 C2502 C 0.69219 0.22476 0.07103
 C2503 C 0.71712 0.22726 0.04439
 C2504 C 0.73277 0.21864 0.03325
 C2505 C 0.73830 0.19851 0.03714
 C2506 C 0.72844 0.18715 0.05189
 H2507 H 0.70761 0.16905 0.08094
 H2508 H 0.68773 0.24029 0.06846
 H2509 H 0.71279 0.24280 0.04163
 H2510 H 0.73301 0.17167 0.05456
 H2511 H 0.67159 0.22114 0.09528
 H2512 H 0.75025 0.19148 0.02870
 C2513 C 0.18690 0.71718 0.09343
 C2514 C 0.19148 0.69649 0.09517
 C2515 C 0.20522 0.68804 0.08145
 C2516 C 0.21426 0.70001 0.06643
 C2517 C 0.20935 0.72068 0.06482
 C2518 C 0.19565 0.72910 0.07837
 C2519 C 0.21832 0.73264 0.04978
 C2520 C 0.23241 0.72429 0.03644
 C2521 C 0.23727 0.70372 0.03827
 C2522 C 0.22820 0.69167 0.05304
 H2523 H 0.20881 0.67214 0.08229
 H2524 H 0.19181 0.74496 0.07746
 H2525 H 0.21452 0.74851 0.04864
 H2526 H 0.23218 0.67585 0.05405
 H2527 H 0.17675 0.72434 0.10387
 H2528 H 0.24804 0.69689 0.02817
 C2529 C 0.17087 0.20827 0.58109
 C2530 C 0.18178 0.19454 0.59307
 C2531 C 0.20214 0.19180 0.58909
 C2532 C 0.21150 0.20272 0.57356
 C2533 C 0.20041 0.21669 0.56187
 C2534 C 0.18010 0.21927 0.56567
 C2535 C 0.20982 0.22788 0.54659
 C2536 C 0.23016 0.22516 0.54264
 C2537 C 0.24102 0.21106 0.55419
 C2538 C 0.23179 0.20001 0.56960
 H2539 H 0.21085 0.18152 0.59833
 H2540 H 0.17136 0.22982 0.55674
 H2541 H 0.20124 0.23857 0.53765
 H2542 H 0.24050 0.18933 0.57840
 H2543 H 0.15514 0.21047 0.58358
 H2544 H 0.25670 0.20870 0.55142
   
