data_POSCAR
  _audit_creation_date              2014-09-24
  _audit_creation_method            'ToBaCCo'
  _symmetry_space_group_name_H-M    'P1'
  _symmetry_Int_Tables_number       1
  _symmetry_cell_setting            triclinic
  loop_
  _symmetry_equiv_pos_as_xyz
 x,y,z
_cell_length_a 66.8938
_cell_length_b 65.1069
_cell_length_c 65.0330
_cell_angle_alpha 91.494500
_cell_angle_beta 90.444200
_cell_angle_gamma 89.860900
loop_
  _atom_site_label
  _atom_site_type_symbol
  _atom_site_fract_x
  _atom_site_fract_y
  _atom_site_fract_z
C1 C 0.73286 0.66792 0.98386
 H2 H 0.74713 0.66837 0.97618
 C3 C 0.71669 0.67916 0.97632
 H4 H 0.71876 0.68855 0.96301
 C5 C 0.71273 0.65459 1.01018
 H6 H 0.71102 0.64451 1.02296
 C7 C 0.69619 0.66556 1.00316
 H8 H 0.68196 0.66375 1.01070
 N9 N 0.73060 0.65587 1.00045
 C10 C 0.79049 0.64307 1.02400
 H11 H 0.78937 0.62654 1.02481
 C12 C 0.80816 0.65292 1.02998
 H13 H 0.82051 0.64385 1.03565
 C14 C 0.77552 0.67489 1.01585
 H15 H 0.76273 0.68337 1.01036
 C16 C 0.79294 0.68541 1.02176
 H17 H 0.79348 0.70195 1.02051
 Zn18 Zn 0.75213 0.63864 1.00802
 N19 N 0.77476 0.65405 1.01674
 C20 C 0.77714 0.62386 0.97602
 N21 N 0.75865 0.62237 0.98439
 C22 C 0.74412 0.61079 0.97506
 C23 C 0.74797 0.60010 0.95657
 C24 C 0.78160 0.61351 0.95759
 C25 C 0.74121 0.63224 1.04843
 C26 C 0.73490 0.62159 1.06552
 C27 C 0.73607 0.59018 1.04501
 C28 C 0.74245 0.60154 1.02834
 N29 N 0.74450 0.62223 1.03023
 H30 H 0.78838 0.63350 0.98330
 H31 H 0.72939 0.61023 0.98178
 H32 H 0.73611 0.59132 0.94912
 H33 H 0.79643 0.61493 0.95122
 H34 H 0.74304 0.64875 1.04951
 H35 H 0.73138 0.63080 1.07905
 H36 H 0.73540 0.57372 1.04269
 H37 H 0.74576 0.59375 1.01390
 C38 C 0.80965 0.67435 1.02867
 C39 C 0.69796 0.67784 0.98583
 C40 C 0.73182 0.60003 1.06423
 C41 C 0.76687 0.60162 0.94748
 C42 C 0.73209 0.33995 0.51779
 H43 H 0.74645 0.34056 0.52555
 C44 C 0.71658 0.32835 0.52581
 H45 H 0.71924 0.31975 0.53959
 C46 C 0.71108 0.35092 0.49069
 H47 H 0.70875 0.36022 0.47737
 C48 C 0.69518 0.33953 0.49816
 H49 H 0.68082 0.34022 0.49043
 N50 N 0.72908 0.35099 0.50056
 C51 C 0.78789 0.36459 0.47584
 H52 H 0.78619 0.38100 0.47423
 C53 C 0.80562 0.35495 0.46984
 H54 H 0.81743 0.36405 0.46338
 C55 C 0.77425 0.33283 0.48580
 H56 H 0.76194 0.32428 0.49194
 C57 C 0.79175 0.32252 0.47992
 H58 H 0.79284 0.30609 0.48185
 Zn59 Zn 0.74976 0.36857 0.49202
 N60 N 0.77279 0.35355 0.48395
 C61 C 0.77493 0.38699 0.52248
 N62 N 0.75602 0.38640 0.51465
 C63 C 0.74099 0.39744 0.52363
 C64 C 0.74477 0.40983 0.54110
 C65 C 0.77937 0.39923 0.53983
 C66 C 0.73784 0.37257 0.45124
 C67 C 0.73095 0.38232 0.43370
 C68 C 0.73156 0.41464 0.45280
 C69 C 0.73846 0.40425 0.47002
 N70 N 0.74111 0.38353 0.46902
 H71 H 0.78656 0.37766 0.51560
 H72 H 0.72600 0.39641 0.51732
 H73 H 0.73265 0.41856 0.54802
 H74 H 0.79444 0.39917 0.54602
 H75 H 0.74039 0.35615 0.45080
 H76 H 0.72840 0.37328 0.41971
 H77 H 0.72902 0.43105 0.45403
 H78 H 0.74149 0.41274 0.48418
 C79 C 0.80780 0.33366 0.47200
 C80 C 0.69774 0.32822 0.51609
 C81 C 0.72749 0.40361 0.43439
 C82 C 0.76419 0.41082 0.54942
 C83 C 0.23228 -0.15097 0.01527
 H84 H 0.24646 -0.15089 0.02338
 C85 C 0.21604 -0.16163 0.02316
 H86 H 0.21786 -0.16970 0.03740
 C87 C 0.21240 -0.13950 -0.01248
 H88 H 0.21084 -0.13051 -0.02611
 C89 C 0.19583 -0.14993 -0.00518
 H90 H 0.18184 -0.14920 -0.01361
 N91 N 0.23018 -0.14013 -0.00222
 C92 C 0.28914 -0.13001 -0.02815
 H93 H 0.28809 -0.11358 -0.03006
 C94 C 0.30607 -0.14064 -0.03491
 H95 H 0.31812 -0.13220 -0.04179
 C96 C 0.27468 -0.16078 -0.01658
 H97 H 0.26230 -0.16857 -0.00963
 C98 C 0.29143 -0.17205 -0.02306
 H99 H 0.29177 -0.18851 -0.02110
 Zn100 Zn 0.25178 -0.12380 -0.01095
 N101 N 0.27396 -0.14011 -0.01906
 C102 C 0.27818 -0.10620 0.01879
 N103 N 0.25911 -0.10604 0.01137
 C104 C 0.24473 -0.09425 0.02053
 C105 C 0.24934 -0.08188 0.03781
 C106 C 0.28344 -0.09402 0.03593
 C107 C 0.24056 -0.11970 -0.05183
 C108 C 0.23406 -0.11002 -0.06954
 C109 C 0.23514 -0.07759 -0.05075
 C110 C 0.24165 -0.08800 -0.03339
 N111 N 0.24383 -0.10873 -0.03413
 H112 H 0.28929 -0.11606 0.01171
 H113 H 0.22960 -0.09467 0.01453
 H114 H 0.23772 -0.07258 0.04490
 H115 H 0.29861 -0.09471 0.04182
 H116 H 0.24295 -0.13615 -0.05213
 H117 H 0.23255 -0.11964 -0.08323
 H118 H 0.23259 -0.06129 -0.04870
 H119 H 0.24458 -0.07949 -0.01921
 C120 C 0.30739 -0.16195 -0.03241
 C121 C 0.19743 -0.16097 0.01302
 C122 C 0.23075 -0.08848 -0.06944
 C123 C 0.26893 -0.08171 0.04574
 C124 C 0.23323 0.17076 0.47890
 H125 H 0.24780 0.17107 0.47181
 C126 C 0.21753 0.18232 0.47082
 H127 H 0.22022 0.19178 0.45769
 C128 C 0.21192 0.15755 0.50428
 H129 H 0.20956 0.14742 0.51690
 C130 C 0.19584 0.16886 0.49674
 H131 H 0.18131 0.16724 0.50373
 N132 N 0.23017 0.15865 0.49530
 C133 C 0.28811 0.14521 0.52301
 H134 H 0.28660 0.12871 0.52376
 C135 C 0.30520 0.15481 0.53092
 H136 H 0.31692 0.14552 0.53756
 C137 C 0.27469 0.17721 0.51304
 H138 H 0.26265 0.18586 0.50624
 C139 C 0.29165 0.18747 0.52071
 H140 H 0.29250 0.20402 0.51979
 Zn141 Zn 0.25115 0.14124 0.50399
 N142 N 0.27337 0.15641 0.51413
 C143 C 0.27797 0.12576 0.47395
 N144 N 0.25889 0.12482 0.48090
 C145 C 0.24480 0.11336 0.47073
 C146 C 0.24975 0.10214 0.45285
 C147 C 0.28355 0.11485 0.45616
 C148 C 0.23823 0.13498 0.54380
 C149 C 0.23141 0.12427 0.56065
 C150 C 0.23354 0.09279 0.54026
 C151 C 0.24037 0.10414 0.52377
 N152 N 0.24228 0.12489 0.52575
 H153 H 0.28888 0.13527 0.48194
 H154 H 0.22962 0.11321 0.47634
 H155 H 0.23827 0.09338 0.44474
 H156 H 0.29885 0.11575 0.45097
 H157 H 0.24007 0.15148 0.54499
 H158 H 0.22778 0.13270 0.57470
 H159 H 0.23208 0.07628 0.53845
 H160 H 0.24410 0.09634 0.50944
 C161 C 0.30718 0.17621 0.52980
 C162 C 0.19846 0.18129 0.47965
 C163 C 0.22887 0.10289 0.55898
 C164 C 0.26933 0.10297 0.44526
 C165 C 0.15943 0.47405 0.23386
 H166 H 0.15898 0.46705 0.24875
 C167 C 0.17003 0.46457 0.21778
 H168 H 0.17802 0.45041 0.22052
 C169 C 0.14905 0.50073 0.21207
 H170 H 0.14035 0.51446 0.20966
 C171 C 0.15945 0.49180 0.19561
 H172 H 0.15862 0.49885 0.18073
 N173 N 0.14917 0.49177 0.23074
 C174 C 0.13801 0.52082 0.29077
 H175 H 0.12212 0.52349 0.28908
 C176 C 0.14787 0.52721 0.30876
 H177 H 0.13948 0.53504 0.32080
 C178 C 0.16822 0.50770 0.27680
 H179 H 0.17607 0.50016 0.26426
 C180 C 0.17872 0.51391 0.29457
 H181 H 0.19460 0.51082 0.29565
 Zn182 Zn 0.13284 0.50246 0.25215
 N183 N 0.14817 0.51097 0.27539
 C184 C 0.11468 0.47481 0.27912
 N185 N 0.11506 0.48132 0.25943
 C186 C 0.10385 0.47195 0.24439
 C187 C 0.09154 0.45538 0.24896
 C188 C 0.10254 0.45843 0.28437
 C189 C 0.12988 0.54269 0.23927
 C190 C 0.12079 0.56042 0.23205
 C191 C 0.08883 0.54330 0.23338
 C192 C 0.09856 0.52584 0.24058
 N193 N 0.11877 0.52576 0.24304
 H194 H 0.12411 0.48197 0.29076
 H195 H 0.10469 0.47720 0.22877
 H196 H 0.08272 0.44807 0.23682
 H197 H 0.10277 0.45323 0.30006
 H198 H 0.14589 0.54228 0.24168
 H199 H 0.12993 0.57371 0.22912
 H200 H 0.07280 0.54295 0.23100
 H201 H 0.08996 0.51235 0.24400
 C202 C 0.16847 0.52361 0.31093
 C203 C 0.16994 0.47335 0.19827
 C204 C 0.10003 0.56082 0.22880
 C205 C 0.09082 0.44842 0.26919
 C206 C -0.15596 0.02105 0.24337
 H207 H -0.15656 0.02833 0.25849
 C208 C -0.16694 0.02919 0.22712
 H209 H -0.17648 0.04225 0.23050
 C210 C -0.14285 -0.00504 0.22135
 H211 H -0.13288 -0.01792 0.21892
 C212 C -0.15360 0.00249 0.20470
 H213 H -0.15118 -0.00489 0.18984
 N214 N -0.14411 0.00432 0.24020
 C215 C -0.13105 -0.02123 0.30019
 H216 H -0.11492 -0.02175 0.29921
 C217 C -0.14056 -0.02874 0.31743
 H218 H -0.13161 -0.03521 0.32961
 C219 C -0.16224 -0.01276 0.28503
 H220 H -0.17059 -0.00669 0.27226
 C221 C -0.17239 -0.02018 0.30202
 H222 H -0.18856 -0.01948 0.30230
 Zn223 Zn -0.12717 -0.00407 0.26189
 N224 N -0.14192 -0.01326 0.28454
 C225 C -0.11255 0.02685 0.28944
 N226 N -0.11149 0.01897 0.26990
 C227 C -0.10056 0.02836 0.25532
 C228 C -0.09011 0.04642 0.26018
 C229 C -0.10237 0.04485 0.29494
 C230 C -0.12086 -0.04424 0.24843
 C231 C -0.11043 -0.06140 0.24101
 C232 C -0.07987 -0.04172 0.24335
 C233 C -0.09093 -0.02488 0.25075
 N234 N -0.11110 -0.02635 0.25277
 H235 H -0.12166 0.01949 0.30071
 H236 H -0.10034 0.02203 0.23978
 H237 H -0.08185 0.05393 0.24827
 H238 H -0.10340 0.05085 0.31059
 H239 H -0.13686 -0.04505 0.25051
 H240 H -0.11852 -0.07548 0.23759
 H241 H -0.06391 -0.04015 0.24129
 H242 H -0.08341 -0.01063 0.25465
 C243 C -0.16150 -0.02824 0.31854
 C244 C -0.16572 0.02018 0.20715
 C245 C -0.08969 -0.06022 0.23812
 C246 C -0.09113 0.05501 0.28018
 C247 C 0.34829 0.51610 0.73977
 H248 H 0.34694 0.52393 0.75457
 C249 C 0.33810 0.52358 0.72267
 H250 H 0.32894 0.53723 0.72446
 C251 C 0.36298 0.48960 0.71925
 H252 H 0.37307 0.47670 0.71780
 C253 C 0.35306 0.49653 0.70179
 H254 H 0.35531 0.48851 0.68720
 N255 N 0.36054 0.49948 0.73775
 C256 C 0.37048 0.47562 0.79904
 H257 H 0.38665 0.47530 0.79898
 C258 C 0.36015 0.46845 0.81593
 H259 H 0.36852 0.46244 0.82877
 C260 C 0.34006 0.48326 0.78192
 H261 H 0.33233 0.48889 0.76855
 C262 C 0.32908 0.47616 0.79852
 H263 H 0.31291 0.47665 0.79789
 Zn264 Zn 0.37630 0.49195 0.76068
 N265 N 0.36038 0.48303 0.78259
 C266 C 0.38877 0.52369 0.78841
 N267 N 0.39114 0.51545 0.76915
 C268 C 0.40292 0.52467 0.75516
 C269 C 0.41300 0.54287 0.76040
 C270 C 0.39853 0.54184 0.79427
 C271 C 0.38412 0.45156 0.74877
 C272 C 0.39533 0.43436 0.74286
 C273 C 0.42534 0.45473 0.74675
 C274 C 0.41352 0.47159 0.75265
 N275 N 0.39328 0.46977 0.75322
 H276 H 0.37900 0.51647 0.79918
 H277 H 0.40419 0.51804 0.73979
 H278 H 0.42203 0.55019 0.74896
 H279 H 0.39650 0.54808 0.80972
 H280 H 0.36801 0.45053 0.74954
 H281 H 0.38767 0.42017 0.73883
 H282 H 0.44143 0.45641 0.74631
 H283 H 0.42054 0.48607 0.75670
 C284 C 0.33917 0.46872 0.81586
 C285 C 0.34067 0.51394 0.70328
 C286 C 0.41622 0.43583 0.74165
 C287 C 0.41072 0.55177 0.78015
 C288 C 0.66499 0.97141 0.73759
 H289 H 0.66523 0.96466 0.75262
 C290 C 0.67585 0.96232 0.72148
 H291 H 0.68471 0.94874 0.72432
 C292 C 0.65260 0.99695 0.71551
 H293 H 0.64301 1.01002 0.71300
 C294 C 0.66322 0.98839 0.69900
 H295 H 0.66166 0.99508 0.68401
 N296 N 0.65360 0.98836 0.73433
 C297 C 0.64119 1.01669 0.79433
 H298 H 0.62515 1.01823 0.79269
 C299 C 0.65066 1.02378 0.81229
 H300 H 0.64149 1.03133 0.82383
 C301 C 0.67209 1.00605 0.78016
 H302 H 0.68035 0.99908 0.76757
 C303 C 0.68227 1.01301 0.79787
 H304 H 0.69824 1.01054 0.79856
 Zn305 Zn 0.63690 0.99821 0.75580
 N306 N 0.65188 1.00773 0.77888
 C307 C 0.62189 0.96882 0.78280
 N308 N 0.62053 0.97600 0.76338
 C309 C 0.60894 0.96639 0.74880
 C310 C 0.59810 0.94882 0.75355
 C311 C 0.61138 0.95133 0.78817
 C312 C 0.63198 1.03799 0.74257
 C313 C 0.62216 1.05524 0.73522
 C314 C 0.59089 1.03690 0.73713
 C315 C 0.60136 1.01993 0.74446
 N316 N 0.62158 1.02068 0.74667
 H317 H 0.63152 0.97628 0.79407
 H318 H 0.60849 0.97214 0.73334
 H319 H 0.58927 0.94111 0.74167
 H320 H 0.61270 0.94587 0.80371
 H321 H 0.64803 1.03825 0.74481
 H322 H 0.63076 1.06884 0.73200
 H323 H 0.57486 1.03590 0.73495
 H324 H 0.59333 1.00616 0.74817
 C325 C 0.67160 1.02188 0.81458
 C326 C 0.67484 0.97069 0.70180
 C327 C 0.60137 1.05477 0.73216
 C328 C 0.59947 0.94095 0.77341
 C329 C 0.01071 0.23571 -0.16351
 H330 H 0.01861 0.25016 -0.16393
 C331 C 0.01752 0.21877 -0.17514
 H332 H 0.03074 0.22035 -0.18446
 C333 C -0.01528 0.21577 -0.14966
 H334 H -0.02772 0.21444 -0.13932
 C335 C -0.00903 0.19851 -0.16106
 H336 H -0.01710 0.18423 -0.15967
 N337 N -0.00530 0.23387 -0.15093
 C338 C -0.02763 0.29534 -0.13566
 H339 H -0.02733 0.29442 -0.11908
 C340 C -0.03518 0.31287 -0.14484
 H341 H -0.04042 0.32552 -0.13516
 C342 C -0.02100 0.27987 -0.16830
 H343 H -0.01572 0.26683 -0.17734
 C344 C -0.02843 0.29719 -0.17816
 H345 H -0.02885 0.29730 -0.19480
 Zn346 Zn -0.01177 0.25620 -0.13291
 N347 N -0.02067 0.27934 -0.14740
 C348 C 0.01975 0.28188 -0.11849
 N349 N 0.01164 0.26279 -0.11760
 C350 C 0.02077 0.24768 -0.10690
 C351 C 0.03870 0.25158 -0.09635
 C352 C 0.03765 0.28641 -0.10823
 C353 C -0.05097 0.24564 -0.12443
 C354 C -0.06735 0.23983 -0.11284
 C355 C -0.04634 0.24120 -0.08251
 C356 C -0.03037 0.24702 -0.09479
 N357 N -0.03286 0.24874 -0.11540
 H358 H 0.01255 0.29356 -0.12743
 H359 H 0.01422 0.23251 -0.10681
 H360 H 0.04591 0.23929 -0.08817
 H361 H 0.04377 0.30175 -0.10903
 H362 H -0.05267 0.24772 -0.14081
 H363 H -0.08144 0.23848 -0.12096
 H364 H -0.04300 0.23899 -0.06646
 H365 H -0.01591 0.24988 -0.08781
 C366 C -0.03575 0.31394 -0.16637
 C367 C 0.00782 0.19975 -0.17371
 C368 C -0.06544 0.23707 -0.09134
 C369 C 0.04743 0.27114 -0.09706
 C370 C 0.47232 0.22586 0.14541
 H371 H 0.46510 0.24075 0.14591
 C372 C 0.46420 0.20959 0.15618
 H373 H 0.45068 0.21209 0.16494
 C374 C 0.49804 0.20424 0.13232
 H375 H 0.51092 0.20200 0.12262
 C376 C 0.49045 0.18760 0.14283
 H377 H 0.49795 0.17287 0.14146
 N378 N 0.48892 0.22292 0.13373
 C379 C 0.51502 0.28294 0.12296
 H380 H 0.51626 0.28156 0.10640
 C381 C 0.52229 0.30040 0.13333
 H382 H 0.52889 0.31253 0.12457
 C383 C 0.50468 0.26874 0.15432
 H384 H 0.49805 0.25621 0.16242
 C385 C 0.51173 0.28603 0.16535
 H386 H 0.51051 0.28664 0.18195
 Zn387 Zn 0.49786 0.24464 0.11730
 N388 N 0.50633 0.26761 0.13348
 C389 C 0.46864 0.27158 0.10175
 N390 N 0.47619 0.25220 0.10017
 C391 C 0.46730 0.23758 0.08790
 C392 C 0.44994 0.24219 0.07679
 C393 C 0.45137 0.27683 0.09095
 C394 C 0.53704 0.23201 0.11303
 C395 C 0.55445 0.22532 0.10333
 C396 C 0.53736 0.22741 0.07057
 C397 C 0.52016 0.23403 0.08096
 N398 N 0.52027 0.23589 0.10185
 H399 H 0.47561 0.28289 0.11187
 H400 H 0.47338 0.22217 0.08724
 H401 H 0.44272 0.23022 0.06758
 H402 H 0.44556 0.29232 0.09255
 H403 H 0.53678 0.23399 0.12959
 H404 H 0.56763 0.22233 0.11256
 H405 H 0.53699 0.22561 0.05397
 H406 H 0.50677 0.23756 0.07234
 C407 C 0.52076 0.30210 0.15482
 C408 C 0.47317 0.19006 0.15475
 C409 C 0.55473 0.22274 0.08184
 C410 C 0.44158 0.26197 0.07854
 C411 C 0.97616 0.72583 0.64963
 H412 H 0.96901 0.74075 0.64969
 C413 C 0.96774 0.70984 0.66058
 H414 H 0.95407 0.71260 0.66901
 C415 C 1.00195 0.70380 0.63744
 H416 H 1.01498 0.70128 0.62801
 C417 C 0.99408 0.68743 0.64816
 H418 H 1.00149 0.67264 0.64720
 N419 N 0.99291 0.72253 0.63828
 C420 C 1.01953 0.78208 0.62641
 H421 H 1.02099 0.78031 0.60990
 C422 C 1.02665 0.79977 0.63647
 H423 H 1.03338 0.81169 0.62752
 C424 C 1.00870 0.76865 0.65796
 H425 H 1.00191 0.75635 0.66625
 C426 C 1.01559 0.78620 0.66868
 H427 H 1.01408 0.78724 0.68523
 Zn428 Zn 1.00206 0.74382 0.62141
 N429 N 1.01065 0.76704 0.63717
 C430 C 0.97310 0.77070 0.60527
 N431 N 0.98045 0.75122 0.60412
 C432 C 0.97141 0.73643 0.59219
 C433 C 0.95411 0.74098 0.58096
 C434 C 0.95589 0.77589 0.59434
 C435 C 1.04120 0.73076 0.61720
 C436 C 1.05851 0.72382 0.60747
 C437 C 1.04122 0.72554 0.57479
 C438 C 1.02413 0.73242 0.58520
 N439 N 1.02439 0.73460 0.60607
 H440 H 0.98018 0.78216 0.61513
 H441 H 0.97734 0.72095 0.59187
 H442 H 0.94677 0.72889 0.57201
 H443 H 0.95024 0.79147 0.59558
 H444 H 1.04107 0.73300 0.63374
 H445 H 1.07174 0.72090 0.61665
 H446 H 1.04071 0.72350 0.55822
 H447 H 1.01071 0.73593 0.57662
 C448 C 1.02476 0.80202 0.65789
 C449 C 0.97657 0.69023 0.65968
 C450 C 1.05864 0.72095 0.58600
 C451 C 0.94596 0.76087 0.58225
 C452 C 0.51457 0.73224 0.34016
 H453 H 0.52245 0.74670 0.33954
 C454 C 0.52112 0.71532 0.32834
 H455 H 0.53411 0.71691 0.31869
 C456 C 0.48893 0.71230 0.35463
 H457 H 0.47674 0.71097 0.36528
 C458 C 0.49491 0.69505 0.34306
 H459 H 0.48688 0.68077 0.34463
 N460 N 0.49886 0.73040 0.35311
 C461 C 0.47703 0.79201 0.36844
 H462 H 0.47778 0.79124 0.38503
 C463 C 0.46950 0.80958 0.35933
 H464 H 0.46528 0.82227 0.36944
 C465 C 0.48287 0.77631 0.33584
 H466 H 0.48777 0.76311 0.32678
 C467 C 0.47545 0.79363 0.32600
 H468 H 0.47449 0.79297 0.30940
 Zn469 Zn 0.49274 0.75281 0.37116
 N470 N 0.48361 0.77589 0.35670
 C471 C 0.52457 0.77851 0.38473
 N472 N 0.51643 0.75946 0.38597
 C473 C 0.52569 0.74446 0.39671
 C474 C 0.54376 0.74844 0.40698
 C475 C 0.54260 0.78313 0.39470
 C476 C 0.45366 0.74220 0.38042
 C477 C 0.43751 0.73662 0.39247
 C478 C 0.45909 0.73846 0.42242
 C479 C 0.47487 0.74406 0.40977
 N480 N 0.47195 0.74550 0.38913
 H481 H 0.51727 0.79010 0.37577
 H482 H 0.51912 0.72931 0.39709
 H483 H 0.55105 0.73624 0.41523
 H484 H 0.54872 0.79844 0.39366
 H485 H 0.45173 0.74368 0.36399
 H486 H 0.42321 0.73353 0.38511
 H487 H 0.46165 0.73735 0.43881
 H488 H 0.48939 0.74723 0.41648
 C489 C 0.46842 0.81077 0.33768
 C490 C 0.51145 0.69630 0.32997
 C491 C 0.44012 0.73455 0.41375
 C492 C 0.55249 0.76798 0.40594
 Si493 Si 0.36319 0.00319 0.24884
 Si494 Si 0.12047 1.00492 0.74413
 Si495 Si 0.62126 0.50071 0.24549
 Si496 Si 0.85688 0.50686 0.74786
 Si497 Si 0.24410 0.35641 0.00010
 Si498 Si 0.75760 0.12973 1.01134
 Si499 Si 0.25886 0.62531 0.50974
 Si500 Si 0.74872 0.85498 0.50289
 Si501 Si 0.00415 0.25571 0.37025
 Si502 Si 1.00987 0.75343 0.12353
 Si503 Si 0.50936 0.24661 0.62741
 Si504 Si 0.50462 0.75170 0.87437
 C505 C 0.45780 -0.14891 0.29866
 C506 C 0.44457 -0.13607 0.30948
 C507 C 0.43915 -0.14083 0.32947
 C508 C 0.44692 -0.15827 0.33871
 C509 C 0.46043 -0.17151 0.32814
 C510 C 0.46563 -0.16645 0.30782
 C511 C 0.43625 -0.11810 0.30018
 C512 C 0.42877 -0.10302 0.29294
 C513 C 0.41941 -0.08541 0.28503
 C514 C 0.41086 -0.07052 0.27867
 C515 C 0.39995 -0.05299 0.27148
 C516 C 0.37907 -0.05274 0.27267
 C517 C 0.36828 -0.03580 0.26588
 C518 C 0.37824 -0.01898 0.25771
 C519 C 0.39919 -0.01911 0.25674
 C520 C 0.41001 -0.03611 0.26356
 H521 H 0.46217 -0.14531 0.28315
 H522 H 0.42870 -0.13113 0.33791
 H523 H 0.44151 -0.16161 0.35387
 H524 H 0.47635 -0.17544 0.29906
 H525 H 0.37112 -0.06565 0.27887
 H526 H 0.35213 -0.03586 0.26692
 H527 H 0.40721 -0.00618 0.25081
 H528 H 0.42618 -0.03607 0.26270
 C529 C 0.93087 0.35965 0.82294
 C530 C 0.94018 0.36801 0.80589
 C531 C 0.95716 0.35845 0.79756
 C532 C 0.96492 0.34069 0.80638
 C533 C 0.95578 0.33235 0.82370
 C534 C 0.93858 0.34197 0.83178
 C535 C 0.93220 0.38646 0.79722
 C536 C 0.92499 0.40192 0.79051
 C537 C 0.91591 0.41995 0.78322
 C538 C 0.90757 0.43520 0.77740
 C539 C 0.89687 0.45313 0.77086
 C540 C 0.89838 0.45969 0.75060
 C541 C 0.88682 0.47624 0.74400
 C542 C 0.87345 0.48615 0.75753
 C543 C 0.87259 0.48005 0.77803
 C544 C 0.88417 0.46355 0.78462
 H545 H 0.91766 0.36686 0.82946
 H546 H 0.96450 0.36479 0.78436
 H547 H 0.97827 0.33374 0.79993
 H548 H 0.93101 0.33574 0.84488
 H549 H 0.90820 0.45180 0.73982
 H550 H 0.88789 0.48093 0.72820
 H551 H 0.86286 0.48776 0.78895
 H552 H 0.88297 0.45870 0.80037
 C553 C 0.03237 1.16429 0.78645
 C554 C 0.03278 1.14570 0.79681
 C555 C 0.02460 1.14469 0.81648
 C556 C 0.01624 1.16218 0.82588
 C557 C 0.01591 1.18102 0.81574
 C558 C 0.02398 1.18185 0.79585
 C559 C 0.04232 1.12781 0.78781
 C560 C 0.05060 1.11265 0.78103
 C561 C 0.06069 1.09479 0.77393
 C562 C 0.06968 1.07953 0.76855
 C563 C 0.08094 1.06139 0.76291
 C564 C 0.09393 1.05278 0.77730
 C565 C 0.10546 1.03559 0.77189
 C566 C 0.10401 1.02674 0.75204
 C567 C 0.09094 1.03537 0.73764
 C568 C 0.07939 1.05261 0.74307
 H569 H 0.03871 1.16526 0.77123
 H570 H 0.02499 1.13043 0.82471
 H571 H 0.01052 1.16107 0.84134
 H572 H 0.02380 1.19607 0.78757
 H573 H 0.09535 1.05952 0.79265
 H574 H 0.11572 1.02956 0.78316
 H575 H 0.08986 1.02892 0.72215
 H576 H 0.06946 1.05920 0.73176
 C577 C 0.52792 0.64124 0.31951
 C578 C 0.53564 0.64232 0.29965
 C579 C 0.53501 0.66096 0.28938
 C580 C 0.52687 0.67850 0.29906
 C581 C 0.51927 0.67759 0.31914
 C582 C 0.51981 0.65871 0.32920
 C583 C 0.54494 0.62444 0.29035
 C584 C 0.55303 0.60928 0.28333
 C585 C 0.56289 0.59138 0.27598
 C586 C 0.57170 0.57607 0.27041
 C587 C 0.58272 0.55782 0.26460
 C588 C 0.58138 0.54948 0.24456
 C589 C 0.59265 0.53209 0.23901
 C590 C 0.60523 0.52285 0.25348
 C591 C 0.60649 0.53128 0.27351
 C592 C 0.59524 0.54863 0.27905
 H593 H 0.52848 0.62695 0.32767
 H594 H 0.54098 0.66198 0.27401
 H595 H 0.52651 0.69275 0.29084
 H596 H 0.51445 0.65754 0.34479
 H597 H 0.57181 0.55653 0.23321
 H598 H 0.59172 0.52596 0.22339
 H599 H 0.61639 0.52479 0.28485
 H600 H 0.59651 0.55503 0.29455
 C601 C 0.55424 0.34702 0.16984
 C602 C 0.54339 0.35649 0.18578
 C603 C 0.52537 0.34785 0.19209
 C604 C 0.51810 0.32993 0.18229
 C605 C 0.52877 0.32052 0.16601
 C606 C 0.54701 0.32918 0.16004
 C607 C 0.55082 0.37522 0.19525
 C608 C 0.55768 0.39091 0.20256
 C609 C 0.56648 0.40918 0.21047
 C610 C 0.57466 0.42460 0.21678
 C611 C 0.58527 0.44269 0.22385
 C612 C 0.57494 0.46064 0.22968
 C613 C 0.58552 0.47822 0.23614
 C614 C 0.60650 0.47796 0.23665
 C615 C 0.61673 0.45989 0.23100
 C616 C 0.60618 0.44237 0.22457
 H617 H 0.56825 0.35351 0.16489
 H618 H 0.51684 0.35507 0.20440
 H619 H 0.50394 0.32371 0.18711
 H620 H 0.55573 0.32212 0.14779
 H621 H 0.55875 0.46104 0.22922
 H622 H 0.57731 0.49188 0.24076
 H623 H 0.63291 0.45936 0.23152
 H624 H 0.61434 0.42859 0.22012
 C625 C 0.05749 0.84768 0.67233
 C626 C 0.04622 0.85748 0.68774
 C627 C 0.02817 0.84881 0.69393
 C628 C 0.02130 0.83054 0.68451
 C629 C 0.03239 0.82080 0.66873
 C630 C 0.05066 0.82949 0.66290
 C631 C 0.05321 0.87659 0.69679
 C632 C 0.05968 0.89260 0.70376
 C633 C 0.06799 0.91126 0.71130
 C634 C 0.07576 0.92701 0.71729
 C635 C 0.08591 0.94551 0.72396
 C636 C 0.07513 0.96324 0.72961
 C637 C 0.08528 0.98123 0.73567
 C638 C 0.10625 0.98159 0.73594
 C639 C 0.11693 0.96374 0.73050
 C640 C 0.10683 0.94582 0.72448
 H641 H 0.07153 0.85420 0.66747
 H642 H 0.01931 0.85629 0.70584
 H643 H 0.00710 0.82432 0.68920
 H644 H 0.05969 0.82219 0.65103
 H645 H 0.05894 0.96316 0.72931
 H646 H 0.07673 0.99471 0.74013
 H647 H 0.13313 0.96369 0.73083
 H648 H 0.11533 0.93221 0.72016
 C649 C 0.95712 0.63657 0.66887
 C650 C 0.94826 0.63909 0.68818
 C651 C 0.94888 0.65828 0.69840
 C652 C 0.95823 0.67493 0.68927
 C653 C 0.96709 0.67255 0.66979
 C654 C 0.96646 0.65315 0.65973
 C655 C 0.93806 0.62207 0.69710
 C656 C 0.92932 0.60767 0.70404
 C657 C 0.91879 0.59072 0.71163
 C658 C 0.90948 0.57628 0.71771
 C659 C 0.89790 0.55917 0.72454
 C660 C 0.89943 0.55279 0.74489
 C661 C 0.88744 0.53676 0.75162
 C662 C 0.87365 0.52718 0.73815
 C663 C 0.87266 0.53318 0.71760
 C664 C 0.88467 0.54916 0.71086
 H665 H 0.95661 0.62184 0.66075
 H666 H 0.94205 0.66041 0.71336
 H667 H 0.95862 0.68961 0.69748
 H668 H 0.97281 0.65088 0.64457
 H669 H 0.90969 0.56034 0.75558
 H670 H 0.88861 0.53213 0.76746
 H671 H 0.86260 0.52571 0.70672
 H672 H 0.88347 0.55386 0.69504
 C673 C 0.45481 0.13599 0.16398
 C674 C 0.44663 0.13816 0.18364
 C675 C 0.44721 0.15728 0.19400
 C676 C 0.45590 0.17419 0.18469
 C677 C 0.46414 0.17215 0.16490
 C678 C 0.46349 0.15284 0.15466
 C679 C 0.43734 0.12080 0.19294
 C680 C 0.42941 0.10618 0.20040
 C681 C 0.41988 0.08905 0.20887
 C682 C 0.41146 0.07453 0.21598
 C683 C 0.40097 0.05743 0.22439
 C684 C 0.38880 0.06052 0.24160
 C685 C 0.37783 0.04422 0.24928
 C686 C 0.37901 0.02461 0.23988
 C687 C 0.39127 0.02154 0.22267
 C688 C 0.40226 0.03787 0.21498
 H689 H 0.45434 0.12130 0.15577
 H690 H 0.44092 0.15913 0.20924
 H691 H 0.45633 0.18879 0.19304
 H692 H 0.46938 0.15083 0.13928
 H693 H 0.38755 0.07562 0.24890
 H694 H 0.36817 0.04717 0.26228
 H695 H 0.39214 0.00658 0.21504
 H696 H 0.41151 0.03533 0.20155
 C697 C 0.30128 0.44020 -0.15247
 C698 C 0.30843 0.44419 -0.13248
 C699 C 0.32511 0.45683 -0.12933
 C700 C 0.33484 0.46515 -0.14611
 C701 C 0.32803 0.46091 -0.16630
 C702 C 0.31099 0.44854 -0.16930
 C703 C 0.29921 0.43465 -0.11524
 C704 C 0.29185 0.42634 -0.10078
 C705 C 0.28355 0.41624 -0.08393
 C706 C 0.27662 0.40725 -0.06968
 C707 C 0.26842 0.39607 -0.05293
 C708 C 0.27797 0.39641 -0.03368
 C709 C 0.27041 0.38478 -0.01772
 C710 C 0.25317 0.37284 -0.02085
 C711 C 0.24367 0.37255 -0.04017
 C712 C 0.25122 0.38417 -0.05610
 H713 H 0.28842 0.43036 -0.15508
 H714 H 0.33076 0.46003 -0.11392
 H715 H 0.34775 0.47485 -0.14329
 H716 H 0.30552 0.44482 -0.18466
 H717 H 0.29139 0.40543 -0.03109
 H718 H 0.27811 0.38494 -0.00301
 H719 H 0.23062 0.36316 -0.04317
 H720 H 0.24382 0.38364 -0.07098
 C721 C 0.82710 0.95820 0.37360
 C722 C 0.81012 0.94589 0.37095
 C723 C 0.80193 0.94266 0.35126
 C724 C 0.81088 0.95143 0.33422
 C725 C 0.82821 0.96349 0.33669
 C726 C 0.83608 0.96696 0.35661
 C727 C 0.80162 0.93591 0.38831
 C728 C 0.79477 0.92722 0.40279
 C729 C 0.78697 0.91663 0.41960
 C730 C 0.78038 0.90724 0.43375
 C731 C 0.77250 0.89557 0.45032
 C732 C 0.75541 0.88354 0.44706
 C733 C 0.74806 0.87158 0.46283
 C734 C 0.75768 0.87164 0.48209
 C735 C 0.77484 0.88368 0.48529
 C736 C 0.78219 0.89566 0.46949
 H737 H 0.83355 0.96083 0.38878
 H738 H 0.78884 0.93307 0.34902
 H739 H 0.80461 0.94828 0.31908
 H740 H 0.84923 0.97641 0.35904
 H741 H 0.74790 0.88321 0.43223
 H742 H 0.73507 0.86213 0.45975
 H743 H 0.78261 0.88369 0.49996
 H744 H 0.79553 0.90479 0.47215
 C745 C 0.81176 0.02621 1.15457
 C746 C 0.80770 0.04725 1.15469
 C747 C 0.81144 0.05917 1.17246
 C748 C 0.81964 0.05022 1.18993
 C749 C 0.82449 0.02903 1.18997
 C750 C 0.81999 0.01716 1.17196
 C751 C 0.80052 0.05679 1.13632
 C752 C 0.79491 0.06495 1.12088
 C753 C 0.78872 0.07476 1.10280
 C754 C 0.78364 0.08341 1.08744
 C755 C 0.77773 0.09409 1.06927
 C756 C 0.77812 0.11558 1.06934
 C757 C 0.77224 0.12607 1.05183
 C758 C 0.76578 0.11517 1.03413
 C759 C 0.76573 0.09362 1.03396
 C760 C 0.77163 0.08312 1.05151
 H761 H 0.80873 0.01678 1.14093
 H762 H 0.80847 0.07554 1.17267
 H763 H 0.82318 0.06038 1.20284
 H764 H 0.82237 0.00074 1.17121
 H765 H 0.78292 0.12423 1.08295
 H766 H 0.77256 0.14271 1.05215
 H767 H 0.76113 0.08488 1.02038
 H768 H 0.77140 0.06648 1.05124
 C769 C 0.33393 0.53195 0.64865
 C770 C 0.31459 0.54013 0.64925
 C771 C 0.30354 0.53943 0.66742
 C772 C 0.31189 0.53072 0.68498
 C773 C 0.33140 0.52258 0.68455
 C774 C 0.34229 0.52325 0.66615
 C775 C 0.30643 0.54977 0.63136
 C776 C 0.30003 0.55808 0.61632
 C777 C 0.29296 0.56814 0.59872
 C778 C 0.28718 0.57706 0.58378
 C779 C 0.28052 0.58817 0.56613
 C780 C 0.27371 0.57764 0.54837
 C781 C 0.26726 0.58858 0.53130
 C782 C 0.26746 0.61013 0.53195
 C783 C 0.27455 0.62059 0.54965
 C784 C 0.28099 0.60967 0.56669
 H785 H 0.34267 0.53253 0.63472
 H786 H 0.28855 0.54574 0.66806
 H787 H 0.30307 0.53027 0.69885
 H788 H 0.35746 0.51746 0.66539
 H789 H 0.27341 0.56100 0.54773
 H790 H 0.26215 0.58018 0.51770
 H791 H 0.27498 0.63722 0.55034
 H792 H 0.28631 0.61799 0.58029
 C793 C 0.17944 0.53423 0.36752
 C794 C 0.19818 0.54365 0.36674
 C795 C 0.20754 0.54598 0.34776
 C796 C 0.19807 0.53915 0.32959
 C797 C 0.17905 0.53000 0.33020
 C798 C 0.16994 0.52743 0.34940
 C799 C 0.20733 0.55170 0.38535
 C800 C 0.21461 0.55884 0.40096
 C801 C 0.22278 0.56774 0.41917
 C802 C 0.22954 0.57585 0.43457
 C803 C 0.23741 0.58622 0.45267
 C804 C 0.25392 0.59921 0.45105
 C805 C 0.26080 0.61048 0.46825
 C806 C 0.25128 0.60878 0.48728
 C807 C 0.23485 0.59558 0.48890
 C808 C 0.22796 0.58431 0.47167
 H809 H 0.17206 0.53235 0.38212
 H810 H 0.22200 0.55336 0.34698
 H811 H 0.20536 0.54153 0.31504
 H812 H 0.15546 0.52016 0.35039
 H813 H 0.26122 0.60097 0.43639
 H814 H 0.27321 0.62085 0.46641
 H815 H 0.22713 0.59431 0.50339
 H816 H 0.21505 0.57445 0.47307
 C817 C 0.68041 0.03760 0.86981
 C818 C 0.70040 0.04361 0.86949
 C819 C 0.71113 0.04194 0.85118
 C820 C 0.70183 0.03452 0.83314
 C821 C 0.68143 0.02875 0.83299
 C822 C 0.67102 0.03023 0.85186
 C823 C 0.70954 0.05223 0.88786
 C824 C 0.71668 0.05987 0.90331
 C825 C 0.72452 0.06934 0.92138
 C826 C 0.73089 0.07793 0.93669
 C827 C 0.73819 0.08887 0.95473
 C828 C 0.75458 0.10203 0.95322
 C829 C 0.76085 0.11385 0.97030
 C830 C 0.75083 0.11252 0.98910
 C831 C 0.73452 0.09916 0.99061
 C832 C 0.72824 0.08734 0.97350
 H833 H 0.67199 0.03867 0.88397
 H834 H 0.72662 0.04673 0.85074
 H835 H 0.71056 0.03436 0.81922
 H836 H 0.65572 0.02516 0.85316
 H837 H 0.76225 0.10350 0.93872
 H838 H 0.77318 0.12433 0.96853
 H839 H 0.72642 0.09818 1.00491
 H840 H 0.71541 0.07735 0.97480
 C841 C 0.70159 0.96231 0.65098
 C842 C 0.70065 0.94092 0.64853
 C843 C 0.69218 0.92920 0.66395
 C844 C 0.68430 0.93884 0.68155
 C845 C 0.68475 0.96038 0.68395
 C846 C 0.69371 0.97199 0.66858
 C847 C 0.70757 0.93101 0.62986
 C848 C 0.71294 0.92253 0.61416
 C849 C 0.71885 0.91233 0.59578
 C850 C 0.72368 0.90334 0.58016
 C851 C 0.72930 0.89223 0.56167
 C852 C 0.72699 0.87087 0.56042
 C853 C 0.73265 0.85993 0.54264
 C854 C 0.74082 0.87022 0.52600
 C855 C 0.74275 0.89167 0.52712
 C856 C 0.73708 0.90263 0.54494
 H857 H 0.70814 0.97152 0.63915
 H858 H 0.69130 0.91263 0.66216
 H859 H 0.67725 0.92949 0.69294
 H860 H 0.69448 0.98858 0.67009
 H861 H 0.72090 0.86267 0.57323
 H862 H 0.73088 0.84340 0.54196
 H863 H 0.74867 0.90000 0.51437
 H864 H 0.73880 0.91917 0.54569
 C865 C 0.18603 0.43164 0.16003
 C866 C 0.19559 0.44314 0.14513
 C867 C 0.19761 0.46441 0.14805
 C868 C 0.18974 0.47420 0.16560
 C869 C 0.17971 0.46283 0.18046
 C870 C 0.17816 0.44139 0.17758
 C871 C 0.20261 0.43318 0.12653
 C872 C 0.20808 0.42466 0.11088
 C873 C 0.21411 0.41440 0.09257
 C874 C 0.21903 0.40534 0.07702
 C875 C 0.22472 0.39410 0.05863
 C876 C 0.23256 0.40437 0.04184
 C877 C 0.23826 0.39328 0.02410
 C878 C 0.23628 0.37183 0.02313
 C879 C 0.22808 0.36167 0.03983
 C880 C 0.22240 0.37274 0.05753
 H881 H 0.18432 0.41518 0.15788
 H882 H 0.20501 0.47346 0.13663
 H883 H 0.19138 0.49069 0.16748
 H884 H 0.17028 0.43224 0.18857
 H885 H 0.23429 0.42092 0.04248
 H886 H 0.24420 0.40150 0.01129
 H887 H 0.22627 0.34514 0.03926
 H888 H 0.21627 0.36464 0.07037
 C889 C -0.15566 0.29514 0.44846
 C890 C -0.13736 0.30490 0.45251
 C891 C -0.13696 0.32360 0.46360
 C892 C -0.15476 0.33272 0.47027
 C893 C -0.17327 0.32328 0.46591
 C894 C -0.17352 0.30424 0.45516
 C895 C -0.11907 0.29646 0.44434
 C896 C -0.10365 0.29011 0.43706
 C897 C -0.08557 0.28348 0.42799
 C898 C -0.07017 0.27851 0.41971
 C899 C -0.05195 0.27339 0.40910
 C900 C -0.04347 0.28772 0.39611
 C901 C -0.02635 0.28269 0.38489
 C902 C -0.01743 0.26330 0.38667
 C903 C -0.02586 0.24899 0.39983
 C904 C -0.04305 0.25403 0.41105
 H905 H -0.15615 0.28072 0.43978
 H906 H -0.12289 0.33130 0.46681
 H907 H -0.15406 0.34722 0.47879
 H908 H -0.18753 0.29670 0.45141
 H909 H -0.05031 0.30269 0.39436
 H910 H -0.02047 0.29387 0.37455
 H911 H -0.01934 0.23384 0.40115
 H912 H -0.04955 0.24276 0.42096
 C913 C 0.35183 0.82149 0.93533
 C914 C 0.36064 0.80657 0.94759
 C915 C 0.35166 0.80136 0.96611
 C916 C 0.33408 0.81127 0.97248
 C917 C 0.32536 0.82660 0.96043
 C918 C 0.33433 0.83143 0.94167
 C919 C 0.37921 0.79724 0.94124
 C920 C 0.39488 0.79020 0.93529
 C921 C 0.41329 0.78283 0.92756
 C922 C 0.42897 0.77728 0.92026
 C923 C 0.44755 0.77153 0.91065
 C924 C 0.45596 0.75207 0.91343
 C925 C 0.47345 0.74639 0.90302
 C926 C 0.48267 0.76015 0.88983
 C927 C 0.47425 0.77967 0.88725
 C928 C 0.45683 0.78534 0.89765
 H929 H 0.35862 0.82562 0.92094
 H930 H 0.35839 0.78986 0.97575
 H931 H 0.32761 0.80736 0.98708
 H932 H 0.32782 0.84292 0.93190
 H933 H 0.44883 0.74119 0.92333
 H934 H 0.47958 0.73114 0.90495
 H935 H 0.48073 0.79044 0.87685
 H936 H 0.45038 0.80038 0.89525
 C937 C 1.16413 0.80065 0.03940
 C938 C 1.14561 0.81071 0.03882
 C939 C 1.14402 0.82985 0.02969
 C940 C 1.16084 0.83897 0.02122
 C941 C 1.17955 0.82904 0.02175
 C942 C 1.18101 0.80975 0.03093
 C943 C 1.12831 0.80179 0.04809
 C944 C 1.11370 0.79481 0.05609
 C945 C 1.09658 0.78716 0.06584
 C946 C 1.08205 0.78101 0.07462
 C947 C 1.06493 0.77408 0.08577
 C948 C 1.04726 0.76843 0.07540
 C949 C 1.03058 0.76217 0.08651
 C950 C 1.03149 0.76167 0.10804
 C951 C 1.04930 0.76709 0.11830
 C952 C 1.06591 0.77334 0.10723
 H953 H 1.16554 0.78583 0.04648
 H954 H 1.12981 0.83785 0.02929
 H955 H 1.15927 0.85399 0.01462
 H956 H 1.19515 0.80165 0.03142
 H957 H 1.04635 0.76891 0.05878
 H958 H 1.01709 0.75776 0.07827
 H959 H 1.05031 0.76662 0.13492
 H960 H 1.07948 0.77766 0.11543
 C961 C 0.64957 0.29800 0.52101
 C962 C 0.64659 0.29914 0.54228
 C963 C 0.66070 0.30904 0.55503
 C964 C 0.67756 0.31808 0.54656
 C965 C 0.68054 0.31737 0.52516
 C966 C 0.66644 0.30705 0.51248
 C967 C 0.62875 0.29083 0.55108
 C968 C 0.61383 0.28435 0.55888
 C969 C 0.59647 0.27725 0.56861
 C970 C 0.58181 0.27156 0.57749
 C971 C 0.56463 0.26518 0.58886
 C972 C 0.56599 0.26388 0.61026
 C973 C 0.54932 0.25825 0.62157
 C974 C 0.53108 0.25398 0.61162
 C975 C 0.52978 0.25499 0.59013
 C976 C 0.54651 0.26065 0.57878
 H977 H 0.63875 0.29035 0.51099
 H978 H 0.65850 0.31009 0.57152
 H979 H 0.68794 0.32618 0.55671
 H980 H 0.66841 0.30604 0.49598
 H981 H 0.57992 0.26733 0.61823
 H982 H 0.55063 0.25736 0.63814
 H983 H 0.51595 0.25145 0.58210
 H984 H 0.54531 0.26157 0.56221
 C985 C 0.35207 0.18890 0.56364
 C986 C 0.36159 0.20395 0.55232
 C987 C 0.35287 0.21065 0.53402
 C988 C 0.33487 0.20202 0.52689
 C989 C 0.32547 0.18650 0.53795
 C990 C 0.33415 0.18024 0.55654
 C991 C 0.38065 0.21179 0.55927
 C992 C 0.39673 0.21752 0.56560
 C993 C 0.41561 0.22332 0.57364
 C994 C 0.43169 0.22755 0.58110
 C995 C 0.45072 0.23176 0.59077
 C996 C 0.45965 0.25111 0.58941
 C997 C 0.47761 0.25530 0.59989
 C998 C 0.48678 0.24014 0.61170
 C999 C 0.47785 0.22074 0.61284
 C1000 C 0.45995 0.21657 0.60238
 H1001 H 0.35865 0.18363 0.57785
 H1002 H 0.36015 0.22225 0.52510
 H1003 H 0.32863 0.20701 0.51244
 H1004 H 0.32711 0.16855 0.56555
 H1005 H 0.45258 0.26304 0.58059
 H1006 H 0.48413 0.27046 0.59910
 H1007 H 0.48432 0.20892 0.62219
 H1008 H 0.45310 0.20160 0.60367
 C1009 C 0.86503 0.68539 0.03502
 C1010 C 0.86480 0.70369 0.04677
 C1011 C 0.84652 0.71286 0.05204
 C1012 C 0.82852 0.70357 0.04584
 C1013 C 0.82862 0.68492 0.03441
 C1014 C 0.84709 0.67607 0.02886
 C1015 C 0.88335 0.71231 0.05428
 C1016 C 0.89907 0.71877 0.06092
 C1017 C 0.91759 0.72548 0.06916
 C1018 C 0.93342 0.73050 0.07672
 C1019 C 0.95221 0.73565 0.08647
 C1020 C 0.96032 0.75537 0.08502
 C1021 C 0.97803 0.76044 0.09557
 C1022 C 0.98777 0.74581 0.10758
 C1023 C 0.97968 0.72602 0.10879
 C1024 C 0.96204 0.72097 0.09823
 H1025 H 0.87908 0.67815 0.03087
 H1026 H 0.84616 0.72697 0.06123
 H1027 H 0.81455 0.71065 0.05048
 H1028 H 0.84768 0.66191 0.01979
 H1029 H 0.95278 0.76691 0.07607
 H1030 H 0.98391 0.77588 0.09471
 H1031 H 0.98658 0.71457 0.11827
 H1032 H 0.95583 0.70571 0.09959
 C1033 C 0.65958 0.69662 0.94736
 C1034 C 0.64492 0.70499 0.96034
 C1035 C 0.64795 0.70531 0.98167
 C1036 C 0.66542 0.69694 0.98999
 C1037 C 0.68008 0.68812 0.97706
 C1038 C 0.67703 0.68825 0.95563
 C1039 C 0.62650 0.71249 0.95169
 C1040 C 0.61114 0.71828 0.94392
 C1041 C 0.59331 0.72455 0.93415
 C1042 C 0.57830 0.72953 0.92515
 C1043 C 0.56075 0.73505 0.91357
 C1044 C 0.54304 0.74087 0.92354
 C1045 C 0.52603 0.74588 0.91200
 C1046 C 0.52663 0.74494 0.89044
 C1047 C 0.54446 0.73932 0.88057
 C1048 C 0.56140 0.73433 0.89206
 H1049 H 0.65734 0.69620 0.93083
 H1050 H 0.63671 0.71176 0.99186
 H1051 H 0.66742 0.69727 1.00653
 H1052 H 0.68784 0.68130 0.94527
 H1053 H 0.54239 0.74153 0.94019
 H1054 H 0.51253 0.75049 0.91993
 H1055 H 0.54524 0.73871 0.86393
 H1056 H 0.57501 0.72989 0.88417
 C1057 C 0.16139 0.20108 0.44037
 C1058 C 0.14657 0.20959 0.45307
 C1059 C 0.14917 0.20981 0.47444
 C1060 C 0.16632 0.20113 0.48311
 C1061 C 0.18109 0.19208 0.47048
 C1062 C 0.17855 0.19241 0.44900
 C1063 C 0.12831 0.21717 0.44414
 C1064 C 0.11297 0.22299 0.43636
 C1065 C 0.09502 0.22925 0.42681
 C1066 C 0.07980 0.23420 0.41819
 C1067 C 0.06186 0.23967 0.40723
 C1068 C 0.04435 0.24488 0.41787
 C1069 C 0.02689 0.24973 0.40699
 C1070 C 0.02685 0.24926 0.38542
 C1071 C 0.04448 0.24429 0.37487
 C1072 C 0.06188 0.23945 0.38571
 H1073 H 0.15949 0.20075 0.42380
 H1074 H 0.13780 0.21638 0.48442
 H1075 H 0.16795 0.20134 0.49969
 H1076 H 0.18948 0.18531 0.43886
 H1077 H 0.04419 0.24513 0.43453
 H1078 H 0.01355 0.25384 0.41545
 H1079 H 0.04475 0.24404 0.35821
 H1080 H 0.07533 0.23547 0.37731
 C1081 C 0.58994 0.10068 0.69937
 C1082 C 0.57149 0.10716 0.70718
 C1083 C 0.56260 0.09639 0.72306
 C1084 C 0.57221 0.07924 0.73116
 C1085 C 0.59086 0.07272 0.72349
 C1086 C 0.59956 0.08360 0.70744
 C1087 C 0.56185 0.12489 0.69878
 C1088 C 0.55431 0.13979 0.69128
 C1089 C 0.54603 0.15722 0.68196
 C1090 C 0.53935 0.17204 0.67354
 C1091 C 0.53180 0.18959 0.66294
 C1092 C 0.53155 0.18940 0.64142
 C1093 C 0.52469 0.20653 0.63097
 C1094 C 0.51789 0.22398 0.64193
 C1095 C 0.51827 0.22421 0.66351
 C1096 C 0.52516 0.20704 0.67398
 H1097 H 0.59691 0.10885 0.68702
 H1098 H 0.54832 0.10129 0.72923
 H1099 H 0.56524 0.07129 0.74363
 H1100 H 0.61374 0.07878 0.70097
 H1101 H 0.53677 0.17604 0.63271
 H1102 H 0.52470 0.20619 0.61431
 H1103 H 0.51346 0.23762 0.67231
 H1104 H 0.52546 0.20741 0.69065
 C1105 C 1.06267 0.60378 0.21980
 C1106 C 1.07207 0.61446 0.20418
 C1107 C 1.09047 0.60757 0.19658
 C1108 C 1.09950 0.59012 0.20457
 C1109 C 1.09025 0.57929 0.22033
 C1110 C 1.07169 0.58627 0.22783
 C1111 C 1.06292 0.63243 0.19573
 C1112 C 1.05570 0.64746 0.18819
 C1113 C 1.04768 0.66498 0.17881
 C1114 C 1.04114 0.67981 0.17031
 C1115 C 1.03363 0.69729 0.15957
 C1116 C 1.03394 0.69716 0.13805
 C1117 C 1.02680 0.71409 0.12747
 C1118 C 1.01916 0.73125 0.13828
 C1119 C 1.01910 0.73147 0.15986
 C1120 C 1.02626 0.71450 0.17047
 H1121 H 1.04841 0.60899 0.22579
 H1122 H 1.09781 0.61566 0.18441
 H1123 H 1.11362 0.58495 0.19824
 H1124 H 1.06430 0.57837 0.24008
 H1125 H 1.03971 0.68399 0.12946
 H1126 H 1.02716 0.71375 0.11081
 H1127 H 1.01365 0.74468 0.16855
 H1128 H 1.02610 0.71482 0.18713
 C1129 C 0.92328 0.89321 0.20462
 C1130 C 0.94217 0.88797 0.21224
 C1131 C 0.95078 0.89970 0.22832
 C1132 C 0.94048 0.91662 0.23678
 C1133 C 0.92143 0.92194 0.22924
 C1134 C 0.91298 0.91006 0.21303
 C1135 C 0.95260 0.87063 0.20330
 C1136 C 0.96085 0.85607 0.19527
 C1137 C 0.96999 0.83906 0.18526
 C1138 C 0.97743 0.82462 0.17621
 C1139 C 0.98595 0.80756 0.16480
 C1140 C 1.00214 0.81074 0.15176
 C1141 C 1.00969 0.79447 0.13970
 C1142 C 1.00116 0.77485 0.14066
 C1143 C 0.98497 0.77172 0.15379
 C1144 C 0.97744 0.78799 0.16587
 H1145 H 0.91653 0.88430 0.19210
 H1146 H 0.96541 0.89577 0.23433
 H1147 H 0.94729 0.92536 0.24936
 H1148 H 0.89850 0.91395 0.20665
 H1149 H 1.00868 0.82587 0.15063
 H1150 H 1.02187 0.79744 0.12937
 H1151 H 0.97801 0.75675 0.15449
 H1152 H 0.96478 0.78540 0.17576
 C1153 C 0.43367 0.38086 0.73276
 C1154 C 0.44901 0.38343 0.71856
 C1155 C 0.45432 0.40321 0.71270
 C1156 C 0.44404 0.42033 0.72066
 C1157 C 0.42823 0.41785 0.73452
 C1158 C 0.42336 0.39794 0.74072
 C1159 C 0.45844 0.36574 0.70910
 C1160 C 0.46586 0.35090 0.70070
 C1161 C 0.47407 0.33358 0.69035
 C1162 C 0.48073 0.31889 0.68105
 C1163 C 0.48833 0.30152 0.66939
 C1164 C 0.50470 0.30394 0.65640
 C1165 C 0.51138 0.28742 0.64412
 C1166 C 0.50180 0.26830 0.64482
 C1167 C 0.48548 0.26592 0.65794
 C1168 C 0.47879 0.28245 0.67022
 H1169 H 0.42944 0.36562 0.73740
 H1170 H 0.46609 0.40536 0.70162
 H1171 H 0.44798 0.43543 0.71541
 H1172 H 0.41145 0.39557 0.75158
 H1173 H 0.51206 0.31869 0.65549
 H1174 H 0.52373 0.28982 0.63384
 H1175 H 0.47774 0.25134 0.65846
 H1176 H 0.46601 0.28045 0.68008
 C1177 C 0.41948 0.60495 0.80358
 C1178 C 0.43924 0.60869 0.79788
 C1179 C 0.44962 0.59399 0.78601
 C1180 C 0.44032 0.57553 0.78002
 C1181 C 0.42054 0.57154 0.78593
 C1182 C 0.41019 0.58654 0.79765
 C1183 C 0.44891 0.62735 0.80486
 C1184 C 0.45667 0.64293 0.81132
 C1185 C 0.46542 0.66106 0.81959
 C1186 C 0.47267 0.67639 0.82726
 C1187 C 0.48110 0.69443 0.83715
 C1188 C 0.49780 0.69258 0.85007
 C1189 C 0.50525 0.70978 0.86086
 C1190 C 0.49612 0.72904 0.85873
 C1191 C 0.47949 0.73088 0.84562
 C1192 C 0.47203 0.71365 0.83484
 H1193 H 0.41130 0.61623 0.81275
 H1194 H 0.46495 0.59669 0.78159
 H1195 H 0.44872 0.56421 0.77115
 H1196 H 0.39484 0.58407 0.80214
 H1197 H 0.50482 0.67775 0.85214
 H1198 H 0.51782 0.70783 0.87117
 H1199 H 0.47209 0.74558 0.84401
 H1200 H 0.45898 0.71523 0.82503
 C1201 C -0.08132 0.10803 0.30347
 C1202 C -0.06204 0.11200 0.29644
 C1203 C -0.05230 0.09747 0.28380
 C1204 C -0.06178 0.07896 0.27833
 C1205 C -0.08108 0.07475 0.28554
 C1206 C -0.09079 0.08957 0.29806
 C1207 C -0.05219 0.13075 0.30281
 C1208 C -0.04428 0.14643 0.30879
 C1209 C -0.03538 0.16469 0.31656
 C1210 C -0.02802 0.18013 0.32386
 C1211 C -0.01948 0.19829 0.33339
 C1212 C -0.00224 0.19670 0.34559
 C1213 C 0.00526 0.21399 0.35619
 C1214 C -0.00435 0.23306 0.35460
 C1215 C -0.02150 0.23465 0.34218
 C1216 C -0.02902 0.21734 0.33158
 H1217 H -0.08900 0.11918 0.31325
 H1218 H -0.03733 0.10036 0.27834
 H1219 H -0.05388 0.06778 0.26880
 H1220 H -0.10578 0.08694 0.30356
 H1221 H 0.00513 0.18200 0.34728
 H1222 H 0.01825 0.21222 0.36598
 H1223 H -0.02927 0.24920 0.34102
 H1224 H -0.04248 0.21872 0.32234
 C1225 C 0.06853 0.39487 0.26769
 C1226 C 0.05855 0.39476 0.28653
 C1227 C 0.05810 0.41255 0.29905
 C1228 C 0.06805 0.43023 0.29307
 C1229 C 0.07864 0.43033 0.27448
 C1230 C 0.07847 0.41259 0.26165
 C1231 C 0.05000 0.37609 0.29387
 C1232 C 0.04334 0.36065 0.30095
 C1233 C 0.03608 0.34288 0.31031
 C1234 C 0.03030 0.32803 0.31920
 C1235 C 0.02385 0.31081 0.33084
 C1236 C 0.02525 0.31188 0.35232
 C1237 C 0.01927 0.29526 0.36389
 C1238 C 0.01170 0.27745 0.35412
 C1239 C 0.01048 0.27629 0.33257
 C1240 C 0.01649 0.29297 0.32096
 H1241 H 0.06910 0.38113 0.25796
 H1242 H 0.05045 0.41262 0.31368
 H1243 H 0.06771 0.44374 0.30314
 H1244 H 0.08667 0.41215 0.24736
 H1245 H 0.03101 0.32555 0.36013
 H1246 H 0.02050 0.29633 0.38050
 H1247 H 0.00500 0.26258 0.32469
 H1248 H 0.01548 0.29193 0.30433
 C1249 C 0.55944 0.90007 0.77814
 C1250 C 0.56930 0.88583 0.79044
 C1251 C 0.58912 0.88930 0.79654
 C1252 C 0.59897 0.90707 0.79072
 C1253 C 0.58912 0.92169 0.77871
 C1254 C 0.56932 0.91789 0.77223
 C1255 C 0.55902 0.86810 0.79777
 C1256 C 0.55101 0.85335 0.80487
 C1257 C 0.54229 0.83629 0.81425
 C1258 C 0.53533 0.82200 0.82315
 C1259 C 0.52758 0.80536 0.83482
 C1260 C 0.52790 0.80692 0.85632
 C1261 C 0.52089 0.79076 0.86793
 C1262 C 0.51335 0.77293 0.85817
 C1263 C 0.51315 0.77130 0.83662
 C1264 C 0.52022 0.78751 0.82496
 H1265 H 0.54405 0.89758 0.77342
 H1266 H 0.59689 0.87838 0.80605
 H1267 H 0.61432 0.90939 0.79564
 H1268 H 0.56134 0.92894 0.76308
 H1269 H 0.53367 0.82059 0.86411
 H1270 H 0.52133 0.79219 0.88456
 H1271 H 0.50773 0.75754 0.82877
 H1272 H 0.52007 0.78607 0.80833
 C1273 C 0.71737 0.58741 0.11753
 C1274 C 0.70815 0.56840 0.11433
 C1275 C 0.70755 0.55949 0.09460
 C1276 C 0.71576 0.56971 0.07800
 C1277 C 0.72473 0.58939 0.08065
 C1278 C 0.72558 0.59774 0.10105
 C1279 C 0.69865 0.55849 0.13119
 C1280 C 0.69034 0.55057 0.14533
 C1281 C 0.68022 0.54167 0.16185
 C1282 C 0.67126 0.53432 0.17588
 C1283 C 0.66017 0.52578 0.19249
 C1284 C 0.64783 0.50872 0.18879
 C1285 C 0.63639 0.50091 0.20468
 C1286 C 0.63729 0.51002 0.22446
 C1287 C 0.64966 0.52711 0.22811
 C1288 C 0.66111 0.53492 0.21221
 H1289 H 0.71816 0.59435 0.13285
 H1290 H 0.70028 0.54480 0.09191
 H1291 H 0.71371 0.56239 0.06305
 H1292 H 0.73318 0.61196 0.10488
 H1293 H 0.64685 0.50164 0.17355
 H1294 H 0.62667 0.48800 0.20133
 H1295 H 0.65033 0.53450 0.24321
 H1296 H 0.67048 0.54822 0.21522
 C1297 C 0.21882 1.08643 0.61349
 C1298 C 0.20436 1.07119 0.61015
 C1299 C 0.19845 1.06575 0.59004
 C1300 C 0.20673 1.07574 0.57335
 C1301 C 0.22099 1.09138 0.57658
 C1302 C 0.22709 1.09645 0.59684
 C1303 C 0.19504 1.06172 0.62737
 C1304 C 0.18695 1.05412 0.64181
 C1305 C 0.17715 1.04551 0.65867
 C1306 C 0.16849 1.03835 0.67300
 C1307 C 0.15780 1.02995 0.68994
 C1308 C 0.14582 1.01253 0.68678
 C1309 C 0.13483 1.00476 0.70302
 C1310 C 0.13583 1.01428 0.72261
 C1311 C 0.14782 1.03175 0.72571
 C1312 C 0.15881 1.03952 0.70946
 H1313 H 0.22352 1.09074 0.62899
 H1314 H 0.18721 1.05403 0.58729
 H1315 H 0.20154 1.07166 0.55797
 H1316 H 0.23824 1.10822 0.59980
 H1317 H 0.14478 1.00511 0.67171
 H1318 H 0.12539 0.99155 0.70009
 H1319 H 0.14855 1.03945 0.74066
 H1320 H 0.16792 1.05309 0.71205
 C1321 C 0.21692 0.95260 0.89425
 C1322 C 0.20710 0.94121 0.87879
 C1323 C 0.20553 0.91997 0.88034
 C1324 C 0.21352 0.91008 0.89734
 C1325 C 0.22341 0.92121 0.91352
 C1326 C 0.22498 0.94283 0.91135
 C1327 C 0.19800 0.95122 0.86160
 C1328 C 0.18986 0.95911 0.84721
 C1329 C 0.17973 0.96778 0.83040
 C1330 C 0.17057 0.97474 0.81614
 C1331 C 0.15902 0.98254 0.79928
 C1332 C 0.13814 0.98160 0.79984
 C1333 C 0.12678 0.98856 0.78331
 C1334 C 0.13618 0.99666 0.76612
 C1335 C 0.15712 0.99753 0.76555
 C1336 C 0.16851 0.99053 0.78211
 H1337 H 0.21837 0.96910 0.89311
 H1338 H 0.19772 0.91100 0.86854
 H1339 H 0.21065 0.89381 0.89794
 H1340 H 0.23307 0.95250 0.92226
 H1341 H 0.13064 0.97533 0.81297
 H1342 H 0.11063 0.98756 0.78390
 H1343 H 0.16472 1.00334 0.75230
 H1344 H 0.18467 0.99117 0.78146
 C1345 C 0.71818 0.44346 0.39367
 C1346 C 0.70326 0.43386 0.38169
 C1347 C 0.69636 0.41441 0.38687
 C1348 C 0.70429 0.40459 0.40394
 C1349 C 0.71928 0.41408 0.41613
 C1350 C 0.72615 0.43365 0.41080
 C1351 C 0.69471 0.44393 0.36425
 C1352 C 0.68706 0.45196 0.34965
 C1353 C 0.67753 0.46090 0.33262
 C1354 C 0.66889 0.46817 0.31818
 C1355 C 0.65795 0.47642 0.30112
 C1356 C 0.63704 0.47597 0.30113
 C1357 C 0.62625 0.48346 0.28446
 C1358 C 0.63625 0.49162 0.26766
 C1359 C 0.65722 0.49197 0.26762
 C1360 C 0.66804 0.48444 0.28433
 H1361 H 0.72364 0.45852 0.38980
 H1362 H 0.68474 0.40689 0.37777
 H1363 H 0.69844 0.38970 0.40781
 H1364 H 0.73781 0.44126 0.41975
 H1365 H 0.62907 0.46968 0.31397
 H1366 H 0.61007 0.48286 0.28464
 H1367 H 0.66527 0.49784 0.25468
 H1368 H 0.68423 0.48472 0.28410
 C1369 C 0.79152 0.44483 0.58853
 C1370 C 0.77867 0.44423 0.60538
 C1371 C 0.76055 0.43359 0.60361
 C1372 C 0.75551 0.42320 0.58518
 C1373 C 0.76863 0.42324 0.56836
 C1374 C 0.78655 0.43442 0.57015
 C1375 C 0.78480 0.45347 0.62476
 C1376 C 0.79080 0.46076 0.64088
 C1377 C 0.79881 0.46877 0.65955
 C1378 C 0.80652 0.47517 0.67525
 C1379 C 0.81678 0.48227 0.69362
 C1380 C 0.82936 0.46878 0.70405
 C1381 C 0.84088 0.47590 0.72075
 C1382 C 0.84011 0.49666 0.72703
 C1383 C 0.82677 0.50992 0.71717
 C1384 C 0.81527 0.50280 0.70040
 H1385 H 0.80559 0.45300 0.58973
 H1386 H 0.75055 0.43292 0.61659
 H1387 H 0.74172 0.41454 0.58434
 H1388 H 0.79681 0.43496 0.55738
 H1389 H 0.83057 0.45283 0.69902
 H1390 H 0.85055 0.46516 0.72843
 H1391 H 0.82575 0.52593 0.72203
 H1392 H 0.80556 0.51338 0.69247
 C1393 C 0.26708 -0.05880 0.09997
 C1394 C 0.28570 -0.04910 0.10150
 C1395 C 0.29833 -0.04909 0.08445
 C1396 C 0.29262 -0.05919 0.06612
 C1397 C 0.27418 -0.06948 0.06459
 C1398 C 0.26131 -0.06889 0.08162
 C1399 C 0.29255 -0.04041 0.12087
 C1400 C 0.29899 -0.03376 0.13707
 C1401 C 0.30734 -0.02671 0.15595
 C1402 C 0.31518 -0.02134 0.17195
 C1403 C 0.32538 -0.01574 0.19084
 C1404 C 0.32403 0.00427 0.19919
 C1405 C 0.33498 0.00974 0.21693
 C1406 C 0.34726 -0.00476 0.22647
 C1407 C 0.34844 -0.02479 0.21808
 C1408 C 0.33750 -0.03025 0.20041
 H1409 H 0.25724 -0.05904 0.11313
 H1410 H 0.31280 -0.04167 0.08546
 H1411 H 0.30273 -0.05915 0.05319
 H1412 H 0.24712 -0.07686 0.08099
 H1413 H 0.31482 0.01568 0.19182
 H1414 H 0.33412 0.02536 0.22301
 H1415 H 0.35809 -0.03617 0.22480
 H1416 H 0.33880 -0.04572 0.19398
 C1417 C 0.29326 0.09095 0.39367
 C1418 C 0.28659 0.07092 0.38951
 C1419 C 0.27385 0.06143 0.40336
 C1420 C 0.26799 0.07190 0.42141
 C1421 C 0.27490 0.09195 0.42585
 C1422 C 0.28746 0.10140 0.41167
 C1423 C 0.29347 0.06005 0.37134
 C1424 C 0.30000 0.05148 0.35616
 C1425 C 0.30852 0.04204 0.33851
 C1426 C 0.31656 0.03449 0.32360
 C1427 C 0.32710 0.02610 0.30608
 C1428 C 0.34794 0.02433 0.30698
 C1429 C 0.35850 0.01719 0.28980
 C1430 C 0.34835 0.01186 0.27149
 C1431 C 0.32742 0.01318 0.27073
 C1432 C 0.31682 0.02037 0.28797
 H1433 H 0.30310 0.09845 0.38305
 H1434 H 0.26867 0.04589 0.40033
 H1435 H 0.25843 0.06417 0.43211
 H1436 H 0.29275 0.11694 0.41446
 H1437 H 0.35605 0.02871 0.32089
 H1438 H 0.37464 0.01609 0.29070
 H1439 H 0.31926 0.00885 0.25688
 H1440 H 0.30069 0.02164 0.28712
 C1441 C 0.78685 0.59234 0.89366
 C1442 C 0.78056 0.57221 0.88930
 C1443 C 0.76928 0.56178 0.90376
 C1444 C 0.76453 0.57139 0.92263
 C1445 C 0.77113 0.59150 0.92726
 C1446 C 0.78217 0.60193 0.91246
 C1447 C 0.78651 0.56223 0.87030
 C1448 C 0.79236 0.55449 0.85441
 C1449 C 0.80021 0.54609 0.83593
 C1450 C 0.80777 0.53946 0.82034
 C1451 C 0.81782 0.53216 0.80207
 C1452 C 0.81588 0.51169 0.79520
 C1453 C 0.82711 0.50437 0.77846
 C1454 C 0.84057 0.51737 0.76871
 C1455 C 0.84180 0.53807 0.77510
 C1456 C 0.83056 0.54539 0.79176
 H1457 H 0.79556 0.60057 0.88258
 H1458 H 0.76441 0.54615 0.90059
 H1459 H 0.75612 0.56295 0.93377
 H1460 H 0.78717 0.61754 0.91541
 H1461 H 0.80605 0.50131 0.80302
 H1462 H 0.82574 0.48841 0.77353
 H1463 H 0.85159 0.54860 0.76752
 H1464 H 0.83210 0.56129 0.79687
 C1465 C 0.10123 0.71464 0.54798
 C1466 C 0.11253 0.69917 0.55714
 C1467 C 0.10589 0.69046 0.57528
 C1468 C 0.08822 0.69734 0.58444
 C1469 C 0.07690 0.71310 0.57559
 C1470 C 0.08347 0.72155 0.55712
 C1471 C 0.13118 0.69234 0.54841
 C1472 C 0.14699 0.68610 0.54201
 C1473 C 0.16561 0.67814 0.53551
 C1474 C 0.18150 0.67074 0.53076
 C1475 C 0.20038 0.66114 0.52602
 C1476 C 0.20984 0.64924 0.54085
 C1477 C 0.22765 0.63895 0.53623
 C1478 C 0.23626 0.64058 0.51675
 C1479 C 0.22682 0.65264 0.50195
 C1480 C 0.20895 0.66294 0.50658
 H1481 H 0.10626 0.72151 0.53394
 H1482 H 0.11447 0.67842 0.58247
 H1483 H 0.08339 0.69031 0.59846
 H1484 H 0.07514 0.73381 0.55004
 H1485 H 0.20326 0.64760 0.55589
 H1486 H 0.23432 0.62942 0.54779
 H1487 H 0.23310 0.65381 0.48672
 H1488 H 0.20169 0.67200 0.49494
 C1489 C 0.59783 0.21722 1.04435
 C1490 C 0.60905 0.20164 1.05343
 C1491 C 0.60214 0.19254 1.07126
 C1492 C 0.58430 0.19917 1.08023
 C1493 C 0.57308 0.21508 1.07150
 C1494 C 0.57989 0.22388 1.05330
 C1495 C 0.62796 0.19516 1.04504
 C1496 C 0.64399 0.18916 1.03903
 C1497 C 0.66288 0.18146 1.03311
 C1498 C 0.67901 0.17427 1.02895
 C1499 C 0.69816 0.16492 1.02499
 C1500 C 0.70748 0.15371 1.04045
 C1501 C 0.72556 0.14363 1.03661
 C1502 C 0.73460 0.14477 1.01729
 C1503 C 0.72530 0.15615 1.00185
 C1504 C 0.70715 0.16623 1.00569
 H1505 H 0.60308 0.22440 1.03056
 H1506 H 0.61067 0.18043 1.07838
 H1507 H 0.57929 0.19187 1.09403
 H1508 H 0.57163 0.23625 1.04634
 H1509 H 0.70058 0.15245 1.05538
 H1510 H 0.73212 0.13462 1.04865
 H1511 H 0.73190 0.15692 0.98674
 H1512 H 0.70000 0.17474 0.99357
 C1513 C 0.88613 0.21354 0.92265
 C1514 C 0.88650 0.21593 0.94400
 C1515 C 0.90270 0.22571 0.95366
 C1516 C 0.91860 0.23292 0.94202
 C1517 C 0.91877 0.23052 0.92022
 C1518 C 0.90191 0.22068 0.91091
 C1519 C 0.87049 0.20763 0.95585
 C1520 C 0.85697 0.20002 0.96511
 C1521 C 0.84106 0.19034 0.97514
 C1522 C 0.82749 0.18139 0.98301
 C1523 C 0.81136 0.16985 0.99152
 C1524 C 0.79300 0.17931 0.99594
 C1525 C 0.77687 0.16755 1.00252
 C1526 C 0.77900 0.14625 1.00449
 C1527 C 0.79760 0.13699 1.00071
 C1528 C 0.81368 0.14871 0.99419
 H1529 H 0.87374 0.20572 0.91501
 H1530 H 0.90306 0.22778 0.97024
 H1531 H 0.93020 0.24107 0.95045
 H1532 H 0.90101 0.21715 0.89462
 H1533 H 0.79104 0.19565 0.99392
 H1534 H 0.76275 0.17507 1.00564
 H1535 H 0.79953 0.12058 1.00230
 H1536 H 0.82780 0.14122 0.99078
 C1537 C 0.38765 0.72764 0.43419
 C1538 C 0.39084 0.71294 0.44919
 C1539 C 0.41025 0.70600 0.45327
 C1540 C 0.42637 0.71341 0.44212
 C1541 C 0.42325 0.72782 0.42665
 C1542 C 0.40374 0.73507 0.42301
 C1543 C 0.37408 0.70404 0.45943
 C1544 C 0.36001 0.69605 0.46746
 C1545 C 0.34356 0.68604 0.47621
 C1546 C 0.32960 0.67689 0.48312
 C1547 C 0.31311 0.66520 0.49069
 C1548 C 0.31496 0.64387 0.49213
 C1549 C 0.29869 0.63218 0.49824
 C1550 C 0.28037 0.64167 0.50282
 C1551 C 0.27867 0.66311 0.50191
 C1552 C 0.29498 0.67484 0.49576
 H1553 H 0.37268 0.73310 0.43087
 H1554 H 0.41287 0.69450 0.46474
 H1555 H 0.44117 0.70736 0.44511
 H1556 H 0.40090 0.74636 0.41141
 H1557 H 0.32889 0.63625 0.48823
 H1558 H 0.30030 0.61566 0.49902
 H1559 H 0.26477 0.67079 0.50567
 H1560 H 0.29340 0.69134 0.49471
 C1561 C 0.59426 0.77043 0.44586
 C1562 C 0.60837 0.78247 0.43596
 C1563 C 0.60443 0.78931 0.41612
 C1564 C 0.58637 0.78438 0.40629
 C1565 C 0.57195 0.77254 0.41619
 C1566 C 0.57616 0.76544 0.43603
 C1567 C 0.62658 0.78862 0.44630
 C1568 C 0.64177 0.79455 0.45456
 C1569 C 0.65942 0.80243 0.46378
 C1570 C 0.67430 0.81000 0.47125
 C1571 C 0.69177 0.82007 0.47968
 C1572 C 0.69154 0.84141 0.48281
 C1573 C 0.70863 0.85159 0.49004
 C1574 C 0.72618 0.84056 0.49410
 C1575 C 0.72629 0.81911 0.49140
 C1576 C 0.70914 0.80889 0.48412
 H1577 H 0.59712 0.76515 0.46127
 H1578 H 0.61525 0.79863 0.40831
 H1579 H 0.58371 0.78979 0.39090
 H1580 H 0.56527 0.75645 0.44410
 H1581 H 0.67820 0.85023 0.47943
 H1582 H 0.70824 0.86814 0.49219
 H1583 H 0.73959 0.81027 0.49471
 H1584 H 0.70947 0.79236 0.48178
 C1585 C 0.08898 0.27297 -0.05687
 C1586 C 0.10320 0.28506 -0.06657
 C1587 C 0.09937 0.29218 -0.08632
 C1588 C 0.08133 0.28747 -0.09628
 C1589 C 0.06681 0.27557 -0.08661
 C1590 C 0.07090 0.26820 -0.06685
 C1591 C 0.12144 0.29093 -0.05613
 C1592 C 0.13668 0.29665 -0.04782
 C1593 C 0.15440 0.30434 -0.03860
 C1594 C 0.16935 0.31178 -0.03116
 C1595 C 0.18690 0.32176 -0.02281
 C1596 C 0.18684 0.34313 -0.01988
 C1597 C 0.20400 0.35323 -0.01275
 C1598 C 0.22147 0.34209 -0.00859
 C1599 C 0.22142 0.32062 -0.01108
 C1600 C 0.20418 0.31048 -0.01827
 H1601 H 0.09175 0.26747 -0.04153
 H1602 H 0.11027 0.30154 -0.09397
 H1603 H 0.07877 0.29309 -0.11161
 H1604 H 0.05994 0.25915 -0.05895
 H1605 H 0.17357 0.35202 -0.02334
 H1606 H 0.20374 0.36980 -0.01075
 H1607 H 0.23465 0.31171 -0.00770
 H1608 H 0.20439 0.29393 -0.02046
 C1609 C 0.39986 0.26519 0.03866
 C1610 C 0.38580 0.27724 0.04936
 C1611 C 0.38986 0.28392 0.06957
 C1612 C 0.40792 0.27882 0.07902
 C1613 C 0.42228 0.26694 0.06838
 C1614 C 0.41800 0.26000 0.04814
 C1615 C 0.36735 0.28339 0.03977
 C1616 C 0.35177 0.28949 0.03274
 C1617 C 0.33349 0.29770 0.02568
 C1618 C 0.31796 0.30563 0.02068
 C1619 C 0.29964 0.31619 0.01593
 C1620 C 0.29061 0.32844 0.03123
 C1621 C 0.27361 0.33999 0.02669
 C1622 C 0.26535 0.33930 0.00680
 C1623 C 0.27429 0.32681 -0.00848
 C1624 C 0.29138 0.31526 -0.00393
 H1625 H 0.39689 0.25998 0.02298
 H1626 H 0.37907 0.29320 0.07801
 H1627 H 0.41059 0.28406 0.09473
 H1628 H 0.42882 0.25093 0.03954
 H1629 H 0.29697 0.32944 0.04660
 H1630 H 0.26736 0.34979 0.03867
 H1631 H 0.26829 0.32634 -0.02400
 H1632 H 0.29834 0.30597 -0.01594
 C1633 C 0.90433 0.76363 0.54221
 C1634 C 0.89038 0.77606 0.55262
 C1635 C 0.89448 0.78317 0.57268
 C1636 C 0.91248 0.77810 0.58228
 C1637 C 0.92673 0.76582 0.57194
 C1638 C 0.92241 0.75847 0.55184
 C1639 C 0.87199 0.78216 0.54287
 C1640 C 0.85645 0.78822 0.53572
 C1641 C 0.83821 0.79640 0.52854
 C1642 C 0.82269 0.80432 0.52346
 C1643 C 0.80438 0.81489 0.51868
 C1644 C 0.79527 0.82705 0.53400
 C1645 C 0.77827 0.83857 0.52945
 C1646 C 0.77007 0.83796 0.50953
 C1647 C 0.77910 0.82558 0.49422
 C1648 C 0.79620 0.81405 0.49878
 H1649 H 0.90133 0.75809 0.52665
 H1650 H 0.88378 0.79276 0.58090
 H1651 H 0.91518 0.78367 0.59788
 H1652 H 0.93315 0.74909 0.54347
 H1653 H 0.80158 0.82797 0.54939
 H1654 H 0.77196 0.84829 0.54146
 H1655 H 0.77315 0.82517 0.47868
 H1656 H 0.80323 0.80483 0.48675
   
