data_POSCAR
  _audit_creation_date              2014-09-24
  _audit_creation_method            'ToBaCCo'
  _symmetry_space_group_name_H-M    'P1'
  _symmetry_Int_Tables_number       1
  _symmetry_cell_setting            triclinic
  loop_
  _symmetry_equiv_pos_as_xyz
 x,y,z
_cell_length_a 68.4978
_cell_length_b 68.0290
_cell_length_c 67.8830
_cell_angle_alpha 89.858500
_cell_angle_beta 89.655600
_cell_angle_gamma 89.541600
loop_
  _atom_site_label
  _atom_site_type_symbol
  _atom_site_fract_x
  _atom_site_fract_y
  _atom_site_fract_z
C1 C 0.18495 0.21127 0.21748
 N2 N 0.19696 0.19563 0.22069
 C3 C 0.21268 0.19225 0.20881
 N4 N 0.21632 0.20474 0.19357
 C5 C 0.20442 0.22047 0.19019
 N6 N 0.18880 0.22358 0.20222
 C7 C 0.70143 0.71819 0.71804
 N8 N 0.70448 0.73044 0.70249
 C9 C 0.72011 0.72779 0.69032
 N10 N 0.73271 0.71270 0.69385
 C11 C 0.72989 0.70032 0.70931
 N12 N 0.71420 0.70316 0.72133
 C13 C 0.31608 0.78969 0.73068
 N14 N 0.31258 0.77776 0.71510
 C15 C 0.29722 0.78124 0.70298
 N16 N 0.28530 0.79691 0.70658
 C17 C 0.28853 0.80903 0.72211
 N18 N 0.30398 0.80525 0.73407
 C19 C 0.80392 0.28593 0.21137
 N20 N 0.80185 0.27367 0.19574
 C21 C 0.78647 0.27566 0.18328
 N22 N 0.77305 0.29013 0.18660
 C23 C 0.77486 0.30247 0.20217
 N24 N 0.79031 0.30026 0.21442
 C25 C 0.80984 0.70735 0.28658
 N26 N 0.79678 0.69268 0.28378
 C27 C 0.78118 0.69058 0.29605
 N28 N 0.77873 0.70336 0.31121
 C29 C 0.79160 0.71811 0.31423
 N30 N 0.80714 0.72001 0.30185
 C31 C 0.30258 0.21874 -0.22951
 N32 N 0.29192 0.20224 -0.23254
 C33 C 0.27659 0.19768 -0.22057
 N34 N 0.27199 0.20994 -0.20542
 C35 C 0.28240 0.22651 -0.20217
 N36 N 0.29766 0.23077 -0.21427
 C37 C 0.69834 0.28547 -0.22900
 N38 N 0.70167 0.27210 -0.21446
 C39 C 0.71768 0.27351 -0.20281
 N40 N 0.73035 0.28848 -0.20585
 C41 C 0.72731 0.30198 -0.22032
 N42 N 0.71123 0.30032 -0.23183
 C43 C 0.19725 0.78855 0.28167
 N44 N 0.20108 0.77742 0.29784
 C45 C 0.21593 0.78203 0.31011
 N46 N 0.22701 0.79805 0.30608
 C47 C 0.22342 0.80940 0.28994
 N48 N 0.20849 0.80449 0.27782
 C49 C 0.45528 0.45133 0.47277
 N50 N 0.46797 0.45453 0.45764
 C51 C 0.46544 0.47008 0.44526
 N52 N 0.45002 0.48244 0.44814
 C53 C 0.43718 0.47944 0.46316
 N54 N 0.43993 0.46385 0.47540
 C55 C -0.04252 -0.06539 0.97051
 N56 N -0.02913 -0.06300 0.95587
 C57 C -0.03078 -0.04796 0.94278
 N58 N -0.04608 -0.03524 0.94444
 C59 C -0.05966 -0.03734 0.95898
 N60 N -0.05772 -0.05248 0.97197
 C61 C 1.02858 0.55194 0.97645
 N62 N 1.01586 0.54889 0.96148
 C63 C 1.01814 0.53341 0.94906
 N64 N 1.03338 0.52084 0.95173
 C65 C 1.04627 0.52357 0.96659
 N66 N 1.04378 0.53916 0.97888
 C67 C 0.54425 0.06956 0.45958
 N68 N 0.55897 0.05687 0.46407
 C69 C 0.56285 0.04099 0.45255
 N70 N 0.55152 0.03778 0.43650
 C71 C 0.53661 0.05025 0.43189
 N72 N 0.53316 0.06621 0.44344
 C73 C -0.03746 0.06313 0.53697
 N74 N -0.02459 0.05978 0.55176
 C75 C -0.02645 0.04390 0.56376
 N76 N -0.04143 0.03127 0.56085
 C77 C -0.05447 0.03434 0.54609
 N78 N -0.05232 0.05033 0.53424
 C79 C 0.46321 0.54582 0.03259
 N80 N 0.44793 0.53355 0.02982
 C81 C 0.44403 0.51895 0.04291
 N82 N 0.45562 0.51670 0.05893
 C83 C 0.47095 0.52885 0.06197
 N84 N 0.47466 0.54338 0.04872
 C85 C 0.54021 -0.06389 0.02952
 N86 N 0.55451 -0.05038 0.02677
 C87 C 0.55575 -0.03435 0.03856
 N88 N 0.54245 -0.03183 0.05328
 C89 C 0.52803 -0.04513 0.05626
 N90 N 0.52703 -0.06111 0.04434
 C91 C 1.03453 0.44461 0.52006
 N92 N 1.02169 0.44771 0.53511
 C93 C 1.02422 0.46268 0.54804
 N94 N 1.03986 0.47465 0.54583
 C95 C 1.05287 0.47182 0.53090
 N96 N 1.05009 0.45679 0.51809
 C97 C 0.40455 0.01182 0.22331
 H98 H 0.40504 0.02528 0.23174
 C99 C 0.41799 0.00860 0.20812
 H100 H 0.42866 0.01979 0.20476
 C101 C 0.38994 -0.01908 0.21751
 H102 H 0.37920 -0.02996 0.22143
 C103 C 0.40307 -0.02287 0.20213
 H104 H 0.40229 -0.03671 0.19434
 N105 N 0.39080 -0.00186 0.22762
 C106 C 0.34240 0.02954 0.25567
 H107 H 0.34099 0.02134 0.26927
 C108 C 0.32955 0.04508 0.25166
 H109 H 0.31839 0.04891 0.26237
 C110 C 0.35880 0.03457 0.22526
 H111 H 0.37001 0.03027 0.21485
 C112 C 0.34635 0.05025 0.22071
 H113 H 0.34813 0.05786 0.20679
 Zn114 Zn 0.37378 0.00358 0.24900
 N115 N 0.35681 0.02475 0.24263
 C116 C 0.38721 0.02747 0.28046
 N117 N 0.38965 0.01017 0.27071
 C118 C 0.40434 -0.00253 0.27545
 C119 C 0.41720 0.00190 0.29065
 C120 C 0.39969 0.03244 0.29583
 C121 C 0.34463 -0.02411 0.24164
 C122 C 0.33273 -0.04029 0.24535
 C123 C 0.34893 -0.04476 0.27658
 C124 C 0.36044 -0.02842 0.27232
 N125 N 0.35828 -0.01862 0.25497
 H126 H 0.37577 0.03759 0.27618
 H127 H 0.40611 -0.01606 0.26728
 H128 H 0.42871 -0.00847 0.29430
 H129 H 0.39769 0.04638 0.30326
 H130 H 0.34306 -0.01591 0.22805
 H131 H 0.32215 -0.04463 0.23444
 H132 H 0.35080 -0.05232 0.29050
 H133 H 0.37104 -0.02359 0.28293
 C134 C 0.33155 0.05575 0.23403
 C135 C 0.41735 -0.00894 0.19729
 C136 C 0.33489 -0.05091 0.26298
 C137 C 0.41498 0.01960 0.30104
 C138 C 0.09783 -0.01089 0.73041
 H139 H 0.09727 -0.02361 0.73999
 C140 C 0.08430 -0.00878 0.71525
 H141 H 0.07351 -0.02010 0.71307
 C142 C 0.11262 0.01932 0.72172
 H143 H 0.12343 0.03041 0.72452
 C144 C 0.09941 0.02198 0.70633
 H145 H 0.10022 0.03517 0.69740
 N146 N 0.11170 0.00298 0.73328
 C147 C 0.15953 -0.02671 0.76370
 H148 H 0.16095 -0.01748 0.77656
 C149 C 0.17218 -0.04269 0.76094
 H150 H 0.18322 -0.04583 0.77188
 C151 C 0.14331 -0.03382 0.73385
 H152 H 0.13227 -0.03016 0.72314
 C153 C 0.15556 -0.04999 0.73057
 H154 H 0.15379 -0.05860 0.71731
 Zn155 Zn 0.12873 -0.00076 0.75483
 N156 N 0.14532 -0.02271 0.75033
 C157 C 0.11453 -0.02144 0.78851
 N158 N 0.11277 -0.00494 0.77727
 C159 C 0.09866 0.00873 0.78105
 C160 C 0.08579 0.00625 0.79685
 C161 C 0.10193 -0.02452 0.80446
 C162 C 0.15806 0.02595 0.74424
 C163 C 0.16995 0.04244 0.74612
 C164 C 0.15422 0.04950 0.77728
 C165 C 0.14273 0.03284 0.77486
 N166 N 0.14460 0.02164 0.75838
 H167 H 0.12557 -0.03233 0.78504
 H168 H 0.09733 0.02151 0.77162
 H169 H 0.07449 0.01719 0.79942
 H170 H 0.10365 -0.03765 0.81335
 H171 H 0.15943 0.01664 0.73140
 H172 H 0.18032 0.04587 0.73454
 H173 H 0.15251 0.05824 0.79050
 H174 H 0.13234 0.02893 0.78620
 C175 C 0.17018 -0.05464 0.74425
 C176 C 0.08499 0.00784 0.70297
 C177 C 0.16795 0.05456 0.76273
 C178 C 0.08730 -0.01057 0.80879
 C179 C 0.59618 0.49147 0.22926
 H180 H 0.59448 0.47847 0.23832
 C181 C 0.58368 0.49477 0.21339
 H182 H 0.57249 0.48411 0.21016
 C183 C 0.61300 0.52103 0.22240
 H184 H 0.62426 0.53138 0.22610
 C185 C 0.60090 0.52486 0.20635
 H186 H 0.60298 0.53818 0.19786
 N187 N 0.61064 0.50440 0.23330
 C188 C 0.65704 0.47201 0.26289
 H189 H 0.65862 0.48088 0.27598
 C190 C 0.66970 0.45618 0.25953
 H191 H 0.68086 0.45278 0.27027
 C192 C 0.64058 0.46582 0.23296
 H193 H 0.62948 0.46985 0.22244
 C194 C 0.65289 0.44981 0.22904
 H195 H 0.65110 0.44167 0.21549
 Zn196 Zn 0.62715 0.49893 0.25492
 N197 N 0.64278 0.47646 0.24973
 C198 C 0.61269 0.47781 0.28801
 N199 N 0.61117 0.49474 0.27739
 C200 C 0.59765 0.50874 0.28209
 C201 C 0.58516 0.50612 0.29820
 C202 C 0.60056 0.47464 0.30429
 C203 C 0.65845 0.52304 0.24512
 C204 C 0.67200 0.53807 0.24730
 C205 C 0.65654 0.54673 0.27821
 C206 C 0.64333 0.53144 0.27548
 N207 N 0.64440 0.52010 0.25903
 H208 H 0.62317 0.46664 0.28379
 H209 H 0.59658 0.52195 0.27324
 H210 H 0.57463 0.51752 0.30184
 H211 H 0.60187 0.46099 0.31244
 H212 H 0.65909 0.51366 0.23229
 H213 H 0.68291 0.54034 0.23593
 H214 H 0.65558 0.55554 0.29144
 H215 H 0.63234 0.52861 0.28657
 C216 C 0.66774 0.44488 0.24238
 C217 C 0.58607 0.51158 0.20160
 C218 C 0.67112 0.55018 0.26400
 C219 C 0.58656 0.48889 0.30957
 C220 C 0.90615 0.51018 0.72263
 H221 H 0.90732 0.52217 0.73298
 C222 C 0.91921 0.50876 0.70682
 H223 H 0.93028 0.51989 0.70493
 C224 C 0.89021 0.48112 0.71256
 H225 H 0.87912 0.47018 0.71502
 C226 C 0.90291 0.47918 0.69651
 H227 H 0.90144 0.46670 0.68676
 N228 N 0.89192 0.49655 0.72512
 C229 C 0.84458 0.52428 0.75832
 H230 H 0.84306 0.51388 0.77030
 C231 C 0.83183 0.54033 0.75696
 H232 H 0.82064 0.54233 0.76813
 C233 C 0.86110 0.53424 0.72923
 H234 H 0.87229 0.53164 0.71826
 C235 C 0.84871 0.55053 0.72735
 H236 H 0.85052 0.56032 0.71489
 Zn237 Zn 0.87516 0.49913 0.74725
 N238 N 0.85895 0.52162 0.74465
 C239 C 0.88910 0.51687 0.78225
 N240 N 0.89107 0.50130 0.76985
 C241 C 0.90501 0.48727 0.77280
 C242 C 0.91747 0.48840 0.78896
 C243 C 0.90120 0.51854 0.79863
 C244 C 0.84461 0.47498 0.73544
 C245 C 0.83157 0.45934 0.73644
 C246 C 0.84747 0.44833 0.76621
 C247 C 0.86013 0.46426 0.76471
 N248 N 0.85861 0.47708 0.74938
 H249 H 0.87828 0.52813 0.77941
 H250 H 0.90643 0.47518 0.76255
 H251 H 0.92831 0.47696 0.79121
 H252 H 0.89954 0.53114 0.80824
 H253 H 0.84358 0.48553 0.72353
 H254 H 0.82064 0.45779 0.72510
 H255 H 0.84879 0.43835 0.77859
 H256 H 0.87105 0.46641 0.77589
 C257 C 0.83384 0.55373 0.74133
 C258 C 0.91765 0.49312 0.69347
 C259 C 0.83294 0.44574 0.75197
 C260 C 0.91561 0.50419 0.80216
 C261 C 0.22049 0.40464 0.00952
 H262 H 0.23022 0.40504 0.02201
 C263 C 0.20458 0.41754 0.00864
 H264 H 0.20199 0.42769 0.02065
 C265 C 0.21213 0.39086 -0.02130
 H266 H 0.21532 0.38069 -0.03310
 C267 C 0.19597 0.40344 -0.02273
 H268 H 0.18685 0.40281 -0.03568
 N269 N 0.22390 0.39157 -0.00525
 C270 C 0.25742 0.34308 0.02013
 H271 H 0.26987 0.34278 0.01024
 C272 C 0.25595 0.32920 0.03525
 H273 H 0.26746 0.31835 0.03707
 C274 C 0.22737 0.35773 0.02979
 H275 H 0.21612 0.36868 0.02746
 C276 C 0.22536 0.34421 0.04516
 H277 H 0.21252 0.34490 0.05451
 Zn278 Zn 0.24637 0.37534 -0.00305
 N279 N 0.24335 0.35710 0.01782
 C280 C 0.27937 0.38932 0.01781
 N281 N 0.26774 0.39205 0.00185
 C282 C 0.27069 0.40723 -0.01086
 C283 C 0.28614 0.42015 -0.00803
 C284 C 0.29503 0.40186 0.02117
 C285 C 0.23771 0.34680 -0.03148
 C286 C 0.24095 0.33504 -0.04804
 C287 C 0.27119 0.35219 -0.05385
 C288 C 0.26738 0.36360 -0.03719
 N289 N 0.25081 0.36081 -0.02644
 H290 H 0.27652 0.37747 0.02801
 H291 H 0.26107 0.40919 -0.02330
 H292 H 0.28848 0.43192 -0.01854
 H293 H 0.30408 0.39953 0.03400
 H294 H 0.22484 0.34462 -0.02244
 H295 H 0.23051 0.32375 -0.05162
 H296 H 0.28438 0.35480 -0.06230
 H297 H 0.27784 0.37449 -0.03277
 C298 C 0.23981 0.32975 0.04809
 C299 C 0.19206 0.41703 -0.00764
 C300 C 0.25795 0.33760 -0.05942
 C301 C 0.29862 0.41748 0.00811
 C302 C 0.72354 0.08634 -0.01534
 H303 H 0.73303 0.08488 -0.02806
 C304 C 0.70850 0.07294 -0.01231
 H305 H 0.70634 0.06131 -0.02291
 C306 C 0.71487 0.10339 0.01387
 H307 H 0.71761 0.11506 0.02422
 C308 C 0.69958 0.09037 0.01743
 H309 H 0.69066 0.09217 0.03053
 N310 N 0.72634 0.10128 -0.00243
 C311 C 0.75608 0.14666 -0.03641
 H312 H 0.76917 0.14855 -0.02780
 C313 C 0.75285 0.15840 -0.05301
 H314 H 0.76352 0.16939 -0.05703
 C315 C 0.72593 0.13056 -0.04110
 H316 H 0.71531 0.11992 -0.03626
 C317 C 0.72209 0.14201 -0.05774
 H318 H 0.70869 0.13973 -0.06577
 Zn319 Zn 0.74751 0.11825 -0.00765
 N320 N 0.74276 0.13297 -0.03088
 C321 C 0.78120 0.10242 -0.02707
 N322 N 0.77001 0.10213 -0.01045
 C323 C 0.77394 0.08945 0.00454
 C324 C 0.78984 0.07656 0.00332
 C325 C 0.79728 0.08977 -0.02890
 C326 C 0.73624 0.14970 0.01655
 C327 C 0.73788 0.16343 0.03170
 C328 C 0.76957 0.14973 0.03945
 C329 C 0.76731 0.13625 0.02417
 N330 N 0.75073 0.13631 0.01325
 H331 H 0.77762 0.11232 -0.03899
 H332 H 0.76456 0.08927 0.01742
 H333 H 0.79252 0.06639 0.01531
 H334 H 0.80616 0.09037 -0.04213
 H335 H 0.72337 0.14966 0.00740
 H336 H 0.72623 0.17403 0.03403
 H337 H 0.78272 0.14920 0.04821
 H338 H 0.77885 0.12578 0.02108
 C339 C 0.73563 0.15619 -0.06388
 C340 C 0.69626 0.07489 0.00424
 C341 C 0.75470 0.16352 0.04344
 C342 C 0.80178 0.07660 -0.01357
 C343 C 0.21732 0.60114 0.50090
 H344 H 0.22659 0.59984 0.48800
 C345 C 0.20155 0.58850 0.50340
 H346 H 0.19861 0.57762 0.49221
 C347 C 0.20990 0.61706 0.53107
 H348 H 0.21338 0.62799 0.54198
 C349 C 0.19392 0.60477 0.53412
 H350 H 0.18524 0.60639 0.54741
 N351 N 0.22107 0.61521 0.51453
 C352 C 0.25228 0.66141 0.48308
 H353 H 0.26532 0.66246 0.49193
 C354 C 0.24958 0.67409 0.46709
 H355 H 0.26058 0.68497 0.46379
 C356 C 0.22182 0.64635 0.47714
 H357 H 0.21091 0.63570 0.48122
 C358 C 0.21852 0.65872 0.46105
 H359 H 0.20523 0.65711 0.45267
 Zn360 Zn 0.24294 0.63148 0.50991
 N361 N 0.23858 0.64776 0.48767
 C362 C 0.27563 0.61583 0.48887
 N363 N 0.26475 0.61471 0.50566
 C364 C 0.26871 0.60102 0.51973
 C365 C 0.28441 0.58802 0.51743
 C366 C 0.29149 0.60311 0.48596
 C367 C 0.23364 0.66208 0.53598
 C368 C 0.23640 0.67510 0.55158
 C369 C 0.26756 0.65949 0.55787
 C370 C 0.26420 0.64678 0.54217
 N371 N 0.24736 0.64815 0.53170
 H372 H 0.27204 0.62654 0.47767
 H373 H 0.25959 0.60022 0.53277
 H374 H 0.28721 0.57712 0.52874
 H375 H 0.30017 0.60444 0.47265
 H376 H 0.22056 0.66311 0.52717
 H377 H 0.22539 0.68620 0.55463
 H378 H 0.28093 0.65797 0.56618
 H379 H 0.27513 0.63592 0.53831
 C380 C 0.23250 0.67283 0.45582
 C381 C 0.18955 0.59029 0.52015
 C382 C 0.25356 0.67390 0.56277
 C383 C 0.29609 0.58899 0.50038
 C384 C 0.72587 0.91573 0.50311
 H385 H 0.73412 0.91801 0.51644
 C386 C 0.70983 0.92777 0.49891
 H387 H 0.70565 0.93920 0.50921
 C388 C 0.72130 0.89793 0.47354
 H389 H 0.72598 0.88649 0.46355
 C390 C 0.70510 0.90957 0.46882
 H391 H 0.69748 0.90695 0.45515
 N392 N 0.73117 0.90104 0.49057
 C393 C 0.76112 0.85589 0.52485
 H394 H 0.77456 0.85447 0.51651
 C395 C 0.75766 0.84358 0.54096
 H396 H 0.76864 0.83284 0.54512
 C397 C 0.73048 0.87169 0.52951
 H398 H 0.71978 0.88242 0.52483
 C399 C 0.72647 0.85975 0.54578
 H400 H 0.71265 0.86144 0.55345
 Zn401 Zn 0.75323 0.88551 0.49724
 N402 N 0.74768 0.86971 0.51955
 C403 C 0.78422 0.90143 0.51971
 N404 N 0.77406 0.90278 0.50260
 C405 C 0.77814 0.91690 0.48901
 C406 C 0.79320 0.93021 0.49223
 C407 C 0.79949 0.91435 0.52346
 C408 C 0.74758 0.85354 0.47211
 C409 C 0.75193 0.84031 0.45700
 C410 C 0.78187 0.85785 0.45075
 C411 C 0.77700 0.87070 0.46605
 N412 N 0.75999 0.86847 0.47623
 H413 H 0.78051 0.89040 0.53053
 H414 H 0.76969 0.91777 0.47562
 H415 H 0.79642 0.94119 0.48113
 H416 H 0.80739 0.91311 0.53718
 H417 H 0.73426 0.85197 0.48060
 H418 H 0.74173 0.82869 0.45375
 H419 H 0.79553 0.85977 0.44289
 H420 H 0.78688 0.88237 0.46981
 C421 C 0.74016 0.84549 0.55170
 C422 C 0.69916 0.92469 0.48160
 C423 C 0.76925 0.84241 0.44605
 C424 C 0.80415 0.92895 0.50961
 C425 C -0.00252 0.22551 0.40395
 H426 H 0.01021 0.23468 0.40548
 C427 C -0.00588 0.21029 0.41735
 H428 H 0.00449 0.20767 0.42906
 C429 C -0.03137 0.21772 0.38663
 H430 H -0.04144 0.22082 0.37483
 C431 C -0.03526 0.20231 0.39965
 H432 H -0.04833 0.19370 0.39772
 N433 N -0.01506 0.22875 0.38881
 C434 C 0.01856 0.25650 0.34193
 H435 H 0.00971 0.26948 0.33932
 C436 C 0.03492 0.25275 0.33014
 H437 H 0.03875 0.26307 0.31860
 C438 C 0.02420 0.22724 0.36012
 H439 H 0.01977 0.21712 0.37153
 C440 C 0.04074 0.22296 0.34873
 H441 H 0.04888 0.20955 0.35155
 Zn442 Zn -0.00940 0.24956 0.37119
 N443 N 0.01359 0.24387 0.35664
 C444 C 0.01066 0.28299 0.38544
 N445 N -0.00621 0.27261 0.38636
 C446 C -0.02086 0.27783 0.39896
 C447 C -0.01894 0.29421 0.41114
 C448 C 0.01319 0.29947 0.39734
 C449 C -0.03241 0.23800 0.33958
 C450 C -0.04705 0.23937 0.32544
 C451 C -0.05594 0.27126 0.33845
 C452 C -0.04109 0.26928 0.35234
 N453 N -0.02984 0.25272 0.35280
 H454 H 0.02229 0.27841 0.37563
 H455 H -0.03397 0.26909 0.39968
 H456 H -0.03064 0.29792 0.42129
 H457 H 0.02665 0.30764 0.39623
 H458 H -0.02301 0.22515 0.34006
 H459 H -0.04873 0.22755 0.31496
 H460 H -0.06498 0.28438 0.33855
 H461 H -0.03860 0.28098 0.36273
 C462 C 0.04624 0.23578 0.33348
 C463 C -0.02236 0.19836 0.41519
 C464 C -0.05912 0.25615 0.32478
 C465 C -0.00170 0.30525 0.41046
 C466 C -0.00616 0.71844 0.10321
 H467 H -0.01924 0.72733 0.10172
 C468 C -0.00340 0.70196 0.09127
 H469 H -0.01456 0.69809 0.08076
 C470 C 0.02430 0.71279 0.11868
 H471 H 0.03525 0.71727 0.12908
 C472 C 0.02760 0.69612 0.10712
 H473 H 0.04110 0.68791 0.10879
 N474 N 0.00754 0.72347 0.11666
 C475 C -0.02276 0.75807 0.16163
 H476 H -0.01393 0.77119 0.16152
 C477 C -0.03828 0.75640 0.17493
 H478 H -0.04122 0.76828 0.18514
 C479 C -0.02913 0.72640 0.14884
 H480 H -0.02541 0.71466 0.13879
 C481 C -0.04480 0.72412 0.16189
 H482 H -0.05320 0.71072 0.16145
 Zn483 Zn 0.00293 0.74661 0.13152
 N484 N -0.01861 0.74328 0.14880
 C485 C -0.01874 0.77821 0.11438
 N486 N -0.00209 0.76722 0.11338
 C487 C 0.01147 0.77034 0.09902
 C488 C 0.00886 0.78542 0.08529
 C489 C -0.02195 0.79346 0.10092
 C490 C 0.03005 0.74008 0.16176
 C491 C 0.04595 0.74413 0.17383
 C492 C 0.05072 0.77444 0.15589
 C493 C 0.03476 0.76979 0.14415
 N494 N 0.02492 0.75274 0.14710
 H495 H -0.02954 0.77527 0.12564
 H496 H 0.02441 0.76114 0.09835
 H497 H 0.01982 0.78763 0.07397
 H498 H -0.03509 0.80233 0.10222
 H499 H 0.02172 0.72681 0.16406
 H500 H 0.04973 0.73393 0.18550
 H501 H 0.05855 0.78793 0.15308
 H502 H 0.03024 0.77991 0.13276
 C503 C -0.04959 0.73926 0.17515
 C504 C 0.01366 0.69055 0.09315
 C505 C 0.05654 0.76152 0.17095
 C506 C -0.00797 0.79733 0.08622
 C507 C 0.49094 0.22829 0.59223
 H508 H 0.47713 0.23612 0.59275
 C509 C 0.49358 0.21274 0.57909
 H510 H 0.48176 0.20853 0.56950
 C511 C 0.52324 0.22428 0.60404
 H512 H 0.53480 0.22894 0.61367
 C513 C 0.52666 0.20895 0.59079
 H514 H 0.54077 0.20166 0.59049
 N515 N 0.50549 0.23340 0.60473
 C516 C 0.47277 0.26244 0.65204
 H517 H 0.48066 0.27610 0.65318
 C518 C 0.45670 0.25898 0.66431
 H519 H 0.45235 0.27004 0.67494
 C520 C 0.46932 0.23117 0.63725
 H521 H 0.47448 0.22015 0.62703
 C522 C 0.45323 0.22709 0.64924
 H523 H 0.44590 0.21315 0.64764
 Zn524 Zn 0.50065 0.25427 0.62255
 N525 N 0.47855 0.24875 0.63860
 C526 C 0.47956 0.28760 0.60797
 N527 N 0.49658 0.27719 0.60716
 C528 C 0.51109 0.28222 0.59440
 C529 C 0.50895 0.29850 0.58202
 C530 C 0.47679 0.30400 0.59583
 C531 C 0.52651 0.24198 0.65170
 C532 C 0.54226 0.24301 0.66459
 C533 C 0.54868 0.27582 0.65263
 C534 C 0.53277 0.27416 0.63996
 N535 N 0.52222 0.25731 0.63955
 H536 H 0.46799 0.28312 0.61783
 H537 H 0.52432 0.27344 0.59376
 H538 H 0.52059 0.30207 0.57180
 H539 H 0.46323 0.31223 0.59684
 H540 H 0.51768 0.22887 0.65127
 H541 H 0.54534 0.23066 0.67420
 H542 H 0.55714 0.28919 0.65246
 H543 H 0.52892 0.28633 0.63047
 C544 C 0.44666 0.24111 0.66295
 C545 C 0.51161 0.20288 0.57835
 C546 C 0.55368 0.26006 0.66510
 C547 C 0.49161 0.30964 0.58262
 C548 C 0.52005 0.71394 0.91012
 H549 H 0.53243 0.72364 0.91125
 C550 C 0.51794 0.69840 0.92340
 H551 H 0.52893 0.69605 0.93458
 C552 C 0.49064 0.70538 0.89419
 H553 H 0.47981 0.70839 0.88307
 C554 C 0.48800 0.68961 0.90712
 H555 H 0.47511 0.68060 0.90577
 N556 N 0.50656 0.71708 0.89582
 C557 C 0.53613 0.75005 0.84940
 H558 H 0.52643 0.76262 0.84816
 C559 C 0.55223 0.74829 0.83679
 H560 H 0.55499 0.75970 0.82601
 C561 C 0.54426 0.71992 0.86502
 H562 H 0.54092 0.70871 0.87578
 C563 C 0.56057 0.71760 0.85278
 H564 H 0.56963 0.70458 0.85427
 Zn565 Zn 0.51008 0.73926 0.87933
 N566 N 0.53254 0.73605 0.86326
 C567 C 0.52862 0.77310 0.89505
 N568 N 0.51271 0.76128 0.89604
 C569 C 0.49835 0.76441 0.90961
 C570 C 0.49940 0.78021 0.92261
 C571 C 0.53027 0.78908 0.90780
 C572 C 0.48490 0.72887 0.84863
 C573 C 0.46937 0.73112 0.83555
 C574 C 0.46162 0.76228 0.85081
 C575 C 0.47726 0.75943 0.86360
 N576 N 0.48842 0.74284 0.86244
 H577 H 0.54006 0.77016 0.88443
 H578 H 0.48604 0.75456 0.91030
 H579 H 0.48787 0.78235 0.93339
 H580 H 0.54288 0.79852 0.90658
 H581 H 0.49424 0.71600 0.84777
 H582 H 0.46690 0.71993 0.82455
 H583 H 0.45276 0.77546 0.85218
 H584 H 0.48051 0.77058 0.87435
 C585 C 0.56473 0.73191 0.83843
 C586 C 0.50172 0.68600 0.92201
 C587 C 0.45749 0.74802 0.83654
 C588 C 0.51550 0.79285 0.92176
 C589 C 0.15605 0.23174 0.22770
 C590 C 0.13982 0.23520 0.23978
 C591 C 0.13495 0.22203 0.25493
 C592 C 0.14658 0.20507 0.25758
 C593 C 0.16286 0.20163 0.24551
 C594 C 0.16780 0.21493 0.23043
 C595 C 0.11734 0.22629 0.26707
 C596 C 0.11395 0.21833 0.28486
 C597 C 0.09638 0.22297 0.29691
 C598 C 0.09705 0.21979 0.31733
 C599 C 0.08081 0.22395 0.32923
 C600 C 0.06350 0.23132 0.32091
 C601 C 0.06270 0.23423 0.30044
 C602 C 0.07889 0.23000 0.28854
 H603 H 0.15936 0.24230 0.21622
 H604 H 0.13106 0.24829 0.23729
 H605 H 0.14302 0.19420 0.26865
 H606 H 0.17147 0.18843 0.24790
 H607 H 0.10728 0.23720 0.26136
 H608 H 0.12482 0.20879 0.29144
 H609 H 0.11026 0.21424 0.32415
 H610 H 0.08189 0.22165 0.34497
 H611 H 0.04939 0.23944 0.29357
 H612 H 0.07745 0.23192 0.27280
 C613 C 0.67188 0.73749 0.72895
 C614 C 0.65577 0.74017 0.74142
 C615 C 0.65173 0.72664 0.75652
 C616 C 0.66401 0.71008 0.75865
 C617 C 0.68016 0.70743 0.74623
 C618 C 0.68432 0.72111 0.73125
 C619 C 0.63428 0.72999 0.76921
 C620 C 0.63196 0.72179 0.78707
 C621 C 0.61453 0.72499 0.79982
 C622 C 0.61593 0.72047 0.81996
 C623 C 0.59983 0.72279 0.83250
 C624 C 0.58189 0.72965 0.82516
 C625 C 0.58041 0.73409 0.80499
 C626 C 0.59649 0.73169 0.79242
 H627 H 0.67460 0.74829 0.71754
 H628 H 0.64646 0.75295 0.73931
 H629 H 0.66108 0.69890 0.76958
 H630 H 0.68927 0.69452 0.74828
 H631 H 0.62345 0.74029 0.76382
 H632 H 0.64362 0.71290 0.79317
 H633 H 0.62958 0.71517 0.82605
 H634 H 0.60147 0.71939 0.84799
 H635 H 0.56665 0.73901 0.79885
 H636 H 0.59450 0.73469 0.77692
 C637 C 0.33678 0.79840 0.75969
 C638 C 0.35287 0.79502 0.77183
 C639 C 0.36547 0.77901 0.76842
 C640 C 0.36180 0.76654 0.75237
 C641 C 0.34570 0.76994 0.74021
 C642 C 0.33300 0.78591 0.74372
 C643 C 0.38259 0.77633 0.78147
 C644 C 0.39205 0.75914 0.78386
 C645 C 0.40899 0.75668 0.79716
 C646 C 0.41317 0.73797 0.80488
 C647 C 0.42894 0.73510 0.81759
 C648 C 0.44097 0.75090 0.82273
 C649 C 0.43706 0.76954 0.81464
 C650 C 0.42131 0.77241 0.80194
 H651 H 0.32737 0.81089 0.76282
 H652 H 0.35545 0.80494 0.78398
 H653 H 0.37148 0.75441 0.74884
 H654 H 0.34334 0.76011 0.72794
 H655 H 0.38689 0.78890 0.79012
 H656 H 0.38665 0.74608 0.77672
 H657 H 0.40403 0.72558 0.80129
 H658 H 0.43150 0.72058 0.82367
 H659 H 0.44636 0.78190 0.81791
 H660 H 0.41907 0.78689 0.79569
 C661 C -0.17781 0.29696 0.24015
 C662 C -0.16194 0.29513 0.25284
 C663 C -0.14802 0.28015 0.25016
 C664 C -0.15007 0.26720 0.23420
 C665 C -0.16592 0.26905 0.22140
 C666 C -0.18009 0.28394 0.22421
 C667 C -0.13137 0.27896 0.26397
 C668 C -0.12134 0.26235 0.26759
 C669 C -0.10524 0.26119 0.28206
 C670 C -0.10107 0.24308 0.29107
 C671 C -0.08614 0.24143 0.30494
 C672 C -0.07490 0.25786 0.30994
 C673 C -0.07882 0.27592 0.30062
 C674 C -0.09378 0.27758 0.28679
 H675 H -0.18825 0.30870 0.24289
 H676 H -0.16061 0.30540 0.26492
 H677 H -0.13931 0.25583 0.23129
 H678 H -0.16695 0.25880 0.20927
 H679 H -0.12812 0.29207 0.27231
 H680 H -0.12579 0.24876 0.26073
 H681 H -0.10959 0.23021 0.28759
 H682 H -0.08361 0.22734 0.31197
 H683 H -0.07012 0.28873 0.30380
 H684 H -0.09606 0.29162 0.27962
 C685 C -0.16982 0.69589 0.25787
 C686 C -0.15378 0.69786 0.24522
 C687 C -0.14080 0.71355 0.24734
 C688 C -0.14397 0.72707 0.26272
 C689 C -0.15999 0.72507 0.27542
 C690 C -0.17315 0.70949 0.27312
 C691 C -0.12388 0.71491 0.23368
 C692 C -0.11468 0.73179 0.22960
 C693 C -0.09800 0.73317 0.21564
 C694 C -0.09416 0.75130 0.20656
 C695 C -0.07853 0.75327 0.19339
 C696 C -0.06623 0.73717 0.18915
 C697 C -0.06989 0.71908 0.19846
 C698 C -0.08555 0.71709 0.21160
 H699 H -0.17958 0.68364 0.25571
 H700 H -0.15158 0.68713 0.23363
 H701 H -0.13396 0.73899 0.26526
 H702 H -0.16199 0.73572 0.28710
 H703 H -0.11962 0.70164 0.22595
 H704 H -0.12014 0.74540 0.23585
 H705 H -0.10343 0.76394 0.20950
 H706 H -0.07623 0.76736 0.18633
 H707 H -0.06042 0.70652 0.19587
 H708 H -0.08757 0.70307 0.21884
 C709 C 0.32961 0.24036 0.76125
 C710 C 0.34560 0.24471 0.74918
 C711 C 0.35115 0.23206 0.73383
 C712 C 0.34001 0.21513 0.73044
 C713 C 0.32397 0.21076 0.74247
 C714 C 0.31857 0.22324 0.75816
 C715 C 0.36825 0.23729 0.72144
 C716 C 0.37898 0.22398 0.71152
 C717 C 0.39636 0.22904 0.69944
 C718 C 0.41025 0.21429 0.69546
 C719 C 0.42665 0.21824 0.68382
 C720 C 0.42946 0.23706 0.67573
 C721 C 0.41553 0.25183 0.67963
 C722 C 0.39911 0.24788 0.69128
 H723 H 0.32599 0.25048 0.77303
 H724 H 0.35380 0.25796 0.75198
 H725 H 0.34340 0.20535 0.71834
 H726 H 0.31583 0.19755 0.73938
 H727 H 0.37270 0.25252 0.72148
 H728 H 0.37561 0.20853 0.71304
 H729 H 0.40846 0.19964 0.70146
 H730 H 0.43722 0.20659 0.68128
 H731 H 0.41708 0.26636 0.67328
 H732 H 0.38843 0.25949 0.69342
 C733 C 0.67687 0.29843 0.74401
 C734 C 0.66031 0.29718 0.73219
 C735 C 0.64735 0.28144 0.73426
 C736 C 0.65111 0.26710 0.74876
 C737 C 0.66767 0.26836 0.76065
 C738 C 0.68078 0.28402 0.75838
 C739 C 0.62987 0.28089 0.72147
 C740 C 0.62036 0.26431 0.71711
 C741 C 0.60324 0.26376 0.70384
 C742 C 0.59896 0.24614 0.69414
 C743 C 0.58295 0.24496 0.68154
 C744 C 0.57070 0.26135 0.67851
 C745 C 0.57481 0.27893 0.68844
 C746 C 0.59085 0.28013 0.70102
 H747 H 0.68657 0.31075 0.74190
 H748 H 0.65768 0.30852 0.72126
 H749 H 0.64116 0.25507 0.75126
 H750 H 0.67012 0.25710 0.77167
 H751 H 0.62546 0.29456 0.71456
 H752 H 0.62590 0.25036 0.72248
 H753 H 0.60819 0.23329 0.69613
 H754 H 0.58033 0.23125 0.67396
 H755 H 0.56540 0.29169 0.68677
 H756 H 0.59322 0.29377 0.70877
 C757 C 0.16939 0.76678 0.27236
 C758 C 0.15386 0.76199 0.26006
 C759 C 0.14931 0.77377 0.24370
 C760 C 0.16098 0.79024 0.23959
 C761 C 0.17654 0.79502 0.25188
 C762 C 0.18088 0.78340 0.26848
 C763 C 0.13268 0.76808 0.23108
 C764 C 0.12285 0.78085 0.21968
 C765 C 0.10590 0.77530 0.20744
 C766 C 0.09261 0.79003 0.20178
 C767 C 0.07655 0.78556 0.19007
 C768 C 0.07349 0.76622 0.18361
 C769 C 0.08687 0.75147 0.18913
 C770 C 0.10295 0.75595 0.20084
 H771 H 0.17235 0.75742 0.28494
 H772 H 0.14525 0.74912 0.26345
 H773 H 0.15839 0.79932 0.22675
 H774 H 0.18519 0.80782 0.24833
 H775 H 0.12778 0.75303 0.23219
 H776 H 0.12660 0.79626 0.22003
 H777 H 0.09458 0.80507 0.20656
 H778 H 0.06640 0.79722 0.18624
 H779 H 0.08513 0.73652 0.18403
 H780 H 0.11320 0.74428 0.20428
 C781 C 0.22293 0.16325 0.22928
 C782 C 0.23515 0.14711 0.23283
 C783 C 0.25046 0.14242 0.21979
 C784 C 0.25308 0.15411 0.20284
 C785 C 0.24088 0.17032 0.19932
 C786 C 0.22568 0.17510 0.21251
 C787 C 0.26290 0.12499 0.22424
 C788 C 0.28066 0.12189 0.21633
 C789 C 0.29322 0.10466 0.22116
 C790 C 0.31329 0.10573 0.21703
 C791 C 0.32571 0.08989 0.22121
 C792 C 0.31832 0.07254 0.22957
 C793 C 0.29821 0.07133 0.23352
 C794 C 0.28576 0.08714 0.22925
 H795 H 0.21135 0.16644 0.23975
 H796 H 0.23268 0.13829 0.24591
 H797 H 0.26424 0.15070 0.19203
 H798 H 0.24328 0.17900 0.18615
 H799 H 0.25742 0.11490 0.23526
 H800 H 0.28687 0.13282 0.20660
 H801 H 0.31944 0.11895 0.21069
 H802 H 0.34117 0.09131 0.21814
 H803 H 0.29205 0.05800 0.23958
 H804 H 0.27032 0.08535 0.23201
 C805 C 0.75929 0.68022 0.69977
 C806 C 0.77226 0.66462 0.70302
 C807 C 0.76996 0.65217 0.71936
 C808 C 0.75456 0.65594 0.73270
 C809 C 0.74155 0.67154 0.72943
 C810 C 0.74372 0.68383 0.71289
 C811 C 0.78418 0.63583 0.72210
 C812 C 0.78067 0.61989 0.73322
 C813 C 0.79473 0.60331 0.73533
 C814 C 0.78765 0.58487 0.74118
 C815 C 0.80032 0.56880 0.74320
 C816 C 0.82040 0.57084 0.73950
 C817 C 0.82757 0.58936 0.73398
 C818 C 0.81492 0.60545 0.73203
 H819 H 0.76148 0.68941 0.68691
 H820 H 0.78407 0.66217 0.69260
 H821 H 0.75262 0.64715 0.74584
 H822 H 0.72985 0.67402 0.73995
 H823 H 0.79761 0.63662 0.71368
 H824 H 0.76656 0.61821 0.74022
 H825 H 0.77221 0.58283 0.74396
 H826 H 0.79435 0.55468 0.74734
 H827 H 0.84304 0.59147 0.73147
 H828 H 0.82112 0.61954 0.72825
 C829 C 0.75699 0.31942 0.78899
 C830 C 0.77010 0.33480 0.78617
 C831 C 0.76726 0.34867 0.77112
 C832 C 0.75108 0.34659 0.75862
 C833 C 0.73787 0.33125 0.76147
 C834 C 0.74059 0.31743 0.77674
 C835 C 0.78175 0.36464 0.76881
 C836 C 0.77850 0.38126 0.75860
 C837 C 0.79291 0.39739 0.75688
 C838 C 0.78624 0.41619 0.75145
 C839 C 0.79921 0.43186 0.74976
 C840 C 0.81920 0.42906 0.75343
 C841 C 0.82598 0.41020 0.75855
 C842 C 0.81303 0.39449 0.76013
 H843 H 0.75978 0.30915 0.80088
 H844 H 0.78251 0.33591 0.79592
 H845 H 0.74861 0.35651 0.74642
 H846 H 0.72560 0.33022 0.75155
 H847 H 0.79528 0.36288 0.77677
 H848 H 0.76438 0.38383 0.75201
 H849 H 0.77087 0.41883 0.74871
 H850 H 0.79355 0.44627 0.74590
 H851 H 0.84137 0.40754 0.76105
 H852 H 0.81898 0.38014 0.76358
 C853 C 0.23158 -0.16239 0.26898
 C854 C 0.24304 -0.14594 0.26497
 C855 C 0.25823 -0.14060 0.27761
 C856 C 0.26149 -0.15196 0.29465
 C857 C 0.25011 -0.16848 0.29865
 C858 C 0.23496 -0.17399 0.28588
 C859 C 0.26980 -0.12283 0.27275
 C860 C 0.28746 -0.11912 0.28031
 C861 C 0.29914 -0.10144 0.27538
 C862 C 0.31916 -0.10165 0.27972
 C863 C 0.33075 -0.08530 0.27567
 C864 C 0.32257 -0.06830 0.26721
 C865 C 0.30252 -0.06797 0.26296
 C866 C 0.29089 -0.08429 0.26711
 H867 H 0.22008 -0.16596 0.25874
 H868 H 0.24006 -0.13737 0.25184
 H869 H 0.27256 -0.14806 0.30519
 H870 H 0.25314 -0.17680 0.31192
 H871 H 0.26373 -0.11298 0.26183
 H872 H 0.29424 -0.12982 0.28994
 H873 H 0.32591 -0.11457 0.28620
 H874 H 0.34619 -0.08605 0.27896
 H875 H 0.29574 -0.05492 0.25680
 H876 H 0.27544 -0.08314 0.26415
 C877 C 0.27925 -0.16229 0.74196
 C878 C 0.26699 -0.14615 0.74549
 C879 C 0.25126 -0.14197 0.73299
 C880 C 0.24824 -0.15416 0.71658
 C881 C 0.26044 -0.17037 0.71307
 C882 C 0.27615 -0.17471 0.72571
 C883 C 0.23884 -0.12447 0.73726
 C884 C 0.22076 -0.12192 0.73013
 C885 C 0.20825 -0.10448 0.73435
 C886 C 0.18814 -0.10575 0.73075
 C887 C 0.17579 -0.08964 0.73406
 C888 C 0.18329 -0.07182 0.74102
 C889 C 0.20341 -0.07046 0.74460
 C890 C 0.21580 -0.08655 0.74119
 H891 H 0.29116 -0.16496 0.75207
 H892 H 0.26978 -0.13692 0.75813
 H893 H 0.23674 -0.15114 0.70615
 H894 H 0.25758 -0.17935 0.70027
 H895 H 0.24468 -0.11381 0.74738
 H896 H 0.21431 -0.13343 0.72140
 H897 H 0.18193 -0.11930 0.72538
 H898 H 0.16032 -0.09118 0.73132
 H899 H 0.20964 -0.05679 0.74961
 H900 H 0.23125 -0.08463 0.74354
 C901 C 0.74533 0.32221 0.19218
 C902 C 0.73181 0.33735 0.19562
 C903 C 0.73293 0.34893 0.21266
 C904 C 0.74757 0.34467 0.22651
 C905 C 0.76112 0.32961 0.22306
 C906 C 0.76025 0.31827 0.20581
 C907 C 0.71836 0.36492 0.21570
 C908 C 0.72161 0.38050 0.22730
 C909 C 0.70737 0.39673 0.23056
 C910 C 0.71420 0.41448 0.23835
 C911 C 0.70136 0.43009 0.24213
 C912 C 0.68134 0.42828 0.23828
 C913 C 0.67442 0.41052 0.23057
 C914 C 0.68726 0.39485 0.22684
 H915 H 0.74417 0.31370 0.17879
 H916 H 0.72054 0.34016 0.18481
 H917 H 0.74851 0.35267 0.24021
 H918 H 0.77222 0.32681 0.23402
 H919 H 0.70502 0.36416 0.20732
 H920 H 0.73572 0.38204 0.23419
 H921 H 0.72957 0.41632 0.24145
 H922 H 0.70717 0.44367 0.24786
 H923 H 0.65901 0.40859 0.22780
 H924 H 0.68124 0.38126 0.22147
 C925 C 0.75169 0.67155 0.30656
 C926 C 0.73824 0.65652 0.30373
 C927 C 0.73972 0.64406 0.28733
 C928 C 0.75486 0.64721 0.27357
 C929 C 0.76837 0.66223 0.27644
 C930 C 0.76696 0.67457 0.29298
 C931 C 0.72486 0.62848 0.28496
 C932 C 0.72733 0.61264 0.27344
 C933 C 0.71254 0.59694 0.27139
 C934 C 0.71860 0.57850 0.26430
 C935 C 0.70520 0.56331 0.26196
 C936 C 0.68538 0.56627 0.26660
 C937 C 0.67923 0.58476 0.27352
 C938 C 0.69262 0.59998 0.27578
 H939 H 0.75010 0.68078 0.31945
 H940 H 0.72665 0.65456 0.31447
 H941 H 0.75620 0.63842 0.26039
 H942 H 0.77982 0.66427 0.26558
 H943 H 0.71179 0.62981 0.29389
 H944 H 0.74109 0.61040 0.26584
 H945 H 0.73381 0.57577 0.26069
 H946 H 0.71039 0.54917 0.25674
 H947 H 0.66398 0.58758 0.27681
 H948 H 0.68714 0.61414 0.28057
 C949 C 0.26996 0.16791 0.76033
 C950 C 0.25901 0.15095 0.75723
 C951 C 0.24345 0.14612 0.76983
 C952 C 0.23933 0.15848 0.78595
 C953 C 0.25018 0.17549 0.78902
 C954 C 0.26566 0.18052 0.77625
 C955 C 0.23235 0.12785 0.76604
 C956 C 0.21428 0.12470 0.77308
 C957 C 0.20291 0.10651 0.76966
 C958 C 0.18289 0.10679 0.77422
 C959 C 0.17156 0.09000 0.77187
 C960 C 0.18000 0.07245 0.76490
 C961 C 0.20001 0.07209 0.76027
 C962 C 0.21140 0.08888 0.76273
 H963 H 0.28176 0.17109 0.75016
 H964 H 0.26266 0.14159 0.74482
 H965 H 0.22800 0.15498 0.79650
 H966 H 0.24645 0.18456 0.80160
 H967 H 0.23916 0.11713 0.75643
 H968 H 0.20696 0.13622 0.78130
 H969 H 0.17594 0.12009 0.77965
 H970 H 0.15613 0.09078 0.77537
 H971 H 0.20696 0.05867 0.75517
 H972 H 0.22684 0.08772 0.75956
 C973 C 0.19526 0.24972 0.16967
 C974 C 0.19890 0.26287 0.15431
 C975 C 0.21563 0.26088 0.14245
 C976 C 0.22885 0.24542 0.14646
 C977 C 0.22517 0.23219 0.16185
 C978 C 0.20834 0.23421 0.17365
 C979 C 0.21885 0.27561 0.12662
 C980 C 0.23123 0.27316 0.11141
 C981 C 0.23366 0.28803 0.09557
 C982 C 0.24056 0.28194 0.07703
 C983 C 0.24269 0.29546 0.06163
 C984 C 0.23802 0.31540 0.06448
 C985 C 0.23156 0.32160 0.08315
 C986 C 0.22952 0.30812 0.09856
 H987 H 0.18215 0.25178 0.17844
 H988 H 0.18853 0.27469 0.15167
 H989 H 0.24220 0.24362 0.13807
 H990 H 0.23564 0.22051 0.16461
 H991 H 0.20978 0.28870 0.12717
 H992 H 0.23910 0.25941 0.10974
 H993 H 0.24403 0.26661 0.07437
 H994 H 0.24763 0.29024 0.04737
 H995 H 0.22833 0.33696 0.08591
 H996 H 0.22497 0.31361 0.11282
 C997 C 0.74033 0.73919 0.66165
 C998 C 0.74338 0.75150 0.64546
 C999 C 0.72963 0.76605 0.64048
 C1000 C 0.71253 0.76786 0.65200
 C1001 C 0.70951 0.75557 0.66826
 C1002 C 0.72337 0.74107 0.67327
 C1003 C 0.73349 0.77845 0.62287
 C1004 C 0.72451 0.79568 0.61926
 C1005 C 0.72874 0.80802 0.60170
 C1006 C 0.72391 0.82810 0.60231
 C1007 C 0.72760 0.84026 0.58611
 C1008 C 0.73615 0.83258 0.56888
 C1009 C 0.74075 0.81244 0.56814
 C1010 C 0.73698 0.80025 0.58430
 H1011 H 0.75132 0.72817 0.66503
 H1012 H 0.75660 0.74966 0.63680
 H1013 H 0.70124 0.77843 0.64838
 H1014 H 0.69619 0.75729 0.67677
 H1015 H 0.74492 0.77342 0.61299
 H1016 H 0.71432 0.80163 0.62996
 H1017 H 0.71741 0.83445 0.61544
 H1018 H 0.72400 0.85576 0.58716
 H1019 H 0.74694 0.80602 0.55489
 H1020 H 0.74023 0.78474 0.58286
 C1021 C 0.77195 0.73045 0.34298
 C1022 C 0.76904 0.74339 0.35867
 C1023 C 0.78260 0.75818 0.36265
 C1024 C 0.79942 0.75956 0.35070
 C1025 C 0.80232 0.74661 0.33494
 C1026 C 0.78860 0.73192 0.33088
 C1027 C 0.77878 0.77138 0.37965
 C1028 C 0.78722 0.78895 0.38201
 C1029 C 0.78270 0.80221 0.39879
 C1030 C 0.78633 0.82239 0.39669
 C1031 C 0.78206 0.83544 0.41203
 C1032 C 0.77412 0.82855 0.42987
 C1033 C 0.77084 0.80831 0.43214
 C1034 C 0.77518 0.79526 0.41684
 H1035 H 0.76109 0.71930 0.34035
 H1036 H 0.75604 0.74187 0.36771
 H1037 H 0.81056 0.77032 0.35358
 H1038 H 0.81541 0.74805 0.32604
 H1039 H 0.76772 0.76672 0.39005
 H1040 H 0.79698 0.79449 0.37075
 H1041 H 0.79226 0.82813 0.38303
 H1042 H 0.78465 0.85097 0.40981
 H1043 H 0.76518 0.80253 0.44589
 H1044 H 0.77290 0.77975 0.41940
 C1045 C 0.26127 0.23555 -0.17317
 C1046 C 0.25656 0.24791 -0.15739
 C1047 C 0.26780 0.26459 -0.15349
 C1048 C 0.28358 0.26899 -0.16607
 C1049 C 0.28828 0.25665 -0.18187
 C1050 C 0.27726 0.23972 -0.18554
 C1051 C 0.26238 0.27722 -0.13651
 C1052 C 0.27524 0.28858 -0.12712
 C1053 C 0.27017 0.30087 -0.10979
 C1054 C 0.28515 0.30637 -0.09698
 C1055 C 0.28117 0.31816 -0.08061
 C1056 C 0.26208 0.32491 -0.07676
 C1057 C 0.24706 0.31954 -0.08966
 C1058 C 0.25105 0.30771 -0.10604
 H1059 H 0.25238 0.22271 -0.17561
 H1060 H 0.24421 0.24430 -0.14806
 H1061 H 0.29219 0.28207 -0.16399
 H1062 H 0.30056 0.26044 -0.19121
 H1063 H 0.24758 0.27615 -0.13096
 H1064 H 0.29045 0.28813 -0.13153
 H1065 H 0.30001 0.30138 -0.09956
 H1066 H 0.29303 0.32180 -0.07084
 H1067 H 0.23228 0.32483 -0.08730
 H1068 H 0.23920 0.30435 -0.11590
 C1069 C 0.73806 0.26051 -0.17506
 C1070 C 0.74161 0.24696 -0.16000
 C1071 C 0.72854 0.23161 -0.15626
 C1072 C 0.71194 0.22985 -0.16826
 C1073 C 0.70838 0.24343 -0.18337
 C1074 C 0.72137 0.25897 -0.18690
 C1075 C 0.73305 0.21765 -0.14006
 C1076 C 0.71959 0.20662 -0.13092
 C1077 C 0.72415 0.19346 -0.11406
 C1078 C 0.70911 0.18852 -0.10088
 C1079 C 0.71280 0.17641 -0.08465
 C1080 C 0.73164 0.16882 -0.08130
 C1081 C 0.74664 0.17344 -0.09470
 C1082 C 0.74295 0.18554 -0.11096
 H1083 H 0.74845 0.27222 -0.17737
 H1084 H 0.75458 0.24857 -0.15112
 H1085 H 0.70181 0.21789 -0.16629
 H1086 H 0.69548 0.24169 -0.19232
 H1087 H 0.74792 0.21747 -0.13474
 H1088 H 0.70440 0.20812 -0.13498
 H1089 H 0.69448 0.19430 -0.10299
 H1090 H 0.70096 0.17326 -0.07451
 H1091 H 0.76121 0.16746 -0.09276
 H1092 H 0.75479 0.18836 -0.12116
 C1093 C 0.23567 0.77391 0.34020
 C1094 C 0.23940 0.76219 0.35673
 C1095 C 0.22742 0.74615 0.36127
 C1096 C 0.21184 0.74176 0.34864
 C1097 C 0.20813 0.75343 0.33210
 C1098 C 0.21995 0.76969 0.32770
 C1099 C 0.23196 0.73395 0.37883
 C1100 C 0.21845 0.72340 0.38847
 C1101 C 0.22274 0.71099 0.40593
 C1102 C 0.20735 0.70613 0.41872
 C1103 C 0.21055 0.69395 0.43500
 C1104 C 0.22923 0.68616 0.43876
 C1105 C 0.24466 0.69098 0.42593
 C1106 C 0.24147 0.70320 0.40965
 H1107 H 0.24514 0.78624 0.33721
 H1108 H 0.25161 0.76575 0.36610
 H1109 H 0.20269 0.72912 0.35122
 H1110 H 0.19602 0.74961 0.32272
 H1111 H 0.24671 0.73449 0.38440
 H1112 H 0.20334 0.72444 0.38398
 H1113 H 0.19277 0.71185 0.41615
 H1114 H 0.19839 0.69074 0.44472
 H1115 H 0.25913 0.68490 0.42820
 H1116 H 0.25359 0.70604 0.39980
 C1117 C 0.30605 0.75213 0.68200
 C1118 C 0.30261 0.73982 0.66597
 C1119 C 0.28653 0.74306 0.65364
 C1120 C 0.27410 0.75919 0.65748
 C1121 C 0.27754 0.77154 0.67350
 C1122 C 0.29353 0.76813 0.68599
 C1123 C 0.28365 0.72974 0.63666
 C1124 C 0.26635 0.72707 0.62793
 C1125 C 0.26354 0.71349 0.61115
 C1126 C 0.24487 0.70589 0.60779
 C1127 C 0.24160 0.69305 0.59212
 C1128 C 0.25694 0.68766 0.57934
 C1129 C 0.27557 0.69555 0.58248
 C1130 C 0.27884 0.70837 0.59815
 H1131 H 0.31855 0.74910 0.69123
 H1132 H 0.31252 0.72762 0.66324
 H1133 H 0.26191 0.76261 0.64797
 H1134 H 0.26770 0.78382 0.67602
 H1135 H 0.29615 0.72110 0.63192
 H1136 H 0.25345 0.73425 0.63387
 H1137 H 0.23281 0.70971 0.61747
 H1138 H 0.22712 0.68712 0.59018
 H1139 H 0.28757 0.69206 0.57261
 H1140 H 0.29326 0.71449 0.59976
 C1141 C 0.79819 0.24719 0.16280
 C1142 C 0.79620 0.23453 0.14677
 C1143 C 0.78033 0.23644 0.13392
 C1144 C 0.76663 0.25163 0.13720
 C1145 C 0.76862 0.26432 0.15323
 C1146 C 0.78439 0.26222 0.16626
 C1147 C 0.77894 0.22273 0.11703
 C1148 C 0.76215 0.21872 0.10782
 C1149 C 0.76074 0.20468 0.09121
 C1150 C 0.74267 0.19595 0.08737
 C1151 C 0.74069 0.18263 0.07187
 C1152 C 0.75673 0.17786 0.05976
 C1153 C 0.77476 0.18686 0.06338
 C1154 C 0.77675 0.20018 0.07887
 H1155 H 0.81057 0.24518 0.17246
 H1156 H 0.80706 0.22308 0.14448
 H1157 H 0.75455 0.25406 0.12728
 H1158 H 0.75781 0.27584 0.15532
 H1159 H 0.79214 0.21493 0.11280
 H1160 H 0.74863 0.22508 0.11325
 H1161 H 0.73008 0.19926 0.09654
 H1162 H 0.72665 0.17584 0.06958
 H1163 H 0.78728 0.18384 0.05402
 H1164 H 0.79074 0.20713 0.08085
 C1165 C 0.44442 0.43053 0.50134
 C1166 C 0.44692 0.41448 0.51398
 C1167 C 0.46317 0.40194 0.51200
 C1168 C 0.47674 0.40559 0.49680
 C1169 C 0.47422 0.42163 0.48410
 C1170 C 0.45804 0.43433 0.48624
 C1171 C 0.46502 0.38493 0.52560
 C1172 C 0.48209 0.37608 0.52976
 C1173 C 0.48392 0.35919 0.54353
 C1174 C 0.50200 0.35554 0.55250
 C1175 C 0.50445 0.33960 0.56530
 C1176 C 0.48889 0.32682 0.56931
 C1177 C 0.47082 0.33037 0.56021
 C1178 C 0.46836 0.34632 0.54741
 H1179 H 0.43173 0.43992 0.50339
 H1180 H 0.43616 0.41191 0.52543
 H1181 H 0.48913 0.39592 0.49437
 H1182 H 0.48491 0.42399 0.47255
 H1183 H 0.45190 0.38027 0.53317
 H1184 H 0.49548 0.38194 0.52367
 H1185 H 0.51425 0.36514 0.54968
 H1186 H 0.51851 0.33739 0.57221
 H1187 H 0.45868 0.32054 0.56262
 H1188 H 0.45439 0.34819 0.54026
 C1189 C -0.05401 0.91570 0.00018
 C1190 C -0.05200 0.90015 0.01355
 C1191 C -0.03639 0.88676 0.01187
 C1192 C -0.02305 0.88896 -0.00382
 C1193 C -0.02505 0.90450 -0.01717
 C1194 C -0.04051 0.91811 -0.01530
 C1195 C -0.03481 0.87043 0.02633
 C1196 C -0.01791 0.86125 0.03047
 C1197 C -0.01604 0.84501 0.04498
 C1198 C 0.00242 0.84093 0.05293
 C1199 C 0.00501 0.82555 0.06635
 C1200 C -0.01081 0.81375 0.07203
 C1201 C -0.02929 0.81771 0.06398
 C1202 C -0.03189 0.83312 0.05054
 H1203 H -0.06615 0.92583 0.00203
 H1204 H -0.06259 0.89867 0.02536
 H1205 H -0.01122 0.87857 -0.00609
 H1206 H -0.01450 0.90574 -0.02904
 H1207 H -0.04789 0.86665 0.03446
 H1208 H -0.00454 0.86636 0.02367
 H1209 H 0.01489 0.84978 0.04883
 H1210 H 0.01939 0.82303 0.07245
 H1211 H -0.04168 0.80863 0.06776
 H1212 H -0.04622 0.83531 0.04426
 C1213 C 0.01016 0.58120 -0.01326
 C1214 C 0.00772 0.59740 -0.00087
 C1215 C 0.02102 0.60111 0.01428
 C1216 C 0.03705 0.58824 0.01666
 C1217 C 0.03947 0.57194 0.00431
 C1218 C 0.02608 0.56818 -0.01089
 C1219 C 0.01783 0.61885 0.02666
 C1220 C 0.02669 0.62206 0.04395
 C1221 C 0.02314 0.63987 0.05614
 C1222 C 0.02787 0.63922 0.07624
 C1223 C 0.02483 0.65564 0.08826
 C1224 C 0.01702 0.67312 0.08042
 C1225 C 0.01254 0.67390 0.06027
 C1226 C 0.01568 0.65754 0.04822
 H1227 H -0.00053 0.57899 -0.02472
 H1228 H -0.00468 0.60710 -0.00316
 H1229 H 0.04800 0.59077 0.02773
 H1230 H 0.05202 0.56244 0.00662
 H1231 H 0.00703 0.62930 0.02150
 H1232 H 0.03627 0.61094 0.05003
 H1233 H 0.03379 0.62589 0.08271
 H1234 H 0.02833 0.65457 0.10376
 H1235 H 0.00693 0.68732 0.05373
 H1236 H 0.01256 0.65902 0.03270
 C1237 C 0.53161 0.10387 0.46441
 C1238 C 0.52841 0.12035 0.47631
 C1239 C 0.53339 0.11987 0.49631
 C1240 C 0.54209 0.10282 0.50415
 C1241 C 0.54570 0.08651 0.49216
 C1242 C 0.54039 0.08683 0.47221
 C1243 C 0.53003 0.13749 0.50858
 C1244 C 0.52399 0.13623 0.52733
 C1245 C 0.52067 0.15374 0.53975
 C1246 C 0.50517 0.15381 0.55335
 C1247 C 0.50199 0.17000 0.56561
 C1248 C 0.51462 0.18612 0.56487
 C1249 C 0.53030 0.18598 0.55147
 C1250 C 0.53321 0.16999 0.53887
 H1251 H 0.52753 0.10457 0.44903
 H1252 H 0.52185 0.13342 0.46995
 H1253 H 0.54645 0.10222 0.51945
 H1254 H 0.55251 0.07359 0.49856
 H1255 H 0.53159 0.15179 0.50171
 H1256 H 0.52042 0.12200 0.53352
 H1257 H 0.49545 0.14136 0.55437
 H1258 H 0.48991 0.16978 0.57598
 H1259 H 0.54022 0.19828 0.55073
 H1260 H 0.54553 0.17012 0.52879
 C1261 C -0.01916 0.09301 0.52589
 C1262 C -0.01699 0.10927 0.51349
 C1263 C -0.03074 0.11337 0.49878
 C1264 C -0.04706 0.10104 0.49702
 C1265 C -0.04921 0.08474 0.50940
 C1266 C -0.03525 0.08048 0.52392
 C1267 C -0.02774 0.13079 0.48596
 C1268 C -0.03591 0.13292 0.46816
 C1269 C -0.03237 0.15004 0.45507
 C1270 C -0.03581 0.14800 0.43482
 C1271 C -0.03263 0.16368 0.42190
 C1272 C -0.02600 0.18181 0.42897
 C1273 C -0.02284 0.18400 0.44928
 C1274 C -0.02609 0.16833 0.46222
 H1275 H -0.00815 0.09024 0.53696
 H1276 H -0.00439 0.11861 0.51529
 H1277 H -0.05838 0.10403 0.48637
 H1278 H -0.06191 0.07555 0.50763
 H1279 H -0.01751 0.14167 0.49107
 H1280 H -0.04470 0.12120 0.46228
 H1281 H -0.04078 0.13414 0.42893
 H1282 H -0.03504 0.16150 0.40631
 H1283 H -0.01815 0.19794 0.45520
 H1284 H -0.02396 0.17079 0.47778
 C1285 C 0.45462 0.56513 1.00229
 C1286 C 0.45846 0.58003 0.98865
 C1287 C 0.47501 0.59189 0.99051
 C1288 C 0.48791 0.58827 1.00622
 C1289 C 0.48403 0.57339 1.01992
 C1290 C 0.46732 0.56167 1.01814
 C1291 C 0.47844 0.60742 0.97550
 C1292 C 0.49013 0.62290 0.97828
 C1293 C 0.49304 0.63867 0.96342
 C1294 C 0.49991 0.65697 0.96976
 C1295 C 0.50279 0.67230 0.95634
 C1296 C 0.49895 0.66963 0.93622
 C1297 C 0.49237 0.65124 0.92979
 C1298 C 0.48955 0.63588 0.94320
 H1299 H 0.44165 0.55637 1.00040
 H1300 H 0.44837 0.58237 0.97662
 H1301 H 0.50117 0.59658 1.00788
 H1302 H 0.49424 0.57099 1.03181
 H1303 H 0.47011 0.60645 0.96206
 H1304 H 0.49712 0.62484 0.99238
 H1305 H 0.50285 0.65950 0.98520
 H1306 H 0.50773 0.68635 0.96176
 H1307 H 0.48968 0.64864 0.91431
 H1308 H 0.48496 0.62182 0.93754
 C1309 C 0.55278 0.91661 1.00185
 C1310 C 0.55166 0.90021 0.98959
 C1311 C 0.53678 0.88638 0.99213
 C1312 C 0.52322 0.88906 1.00756
 C1313 C 0.52433 0.90545 1.01988
 C1314 C 0.53910 0.91954 1.01718
 C1315 C 0.53627 0.86918 0.97878
 C1316 C 0.52002 0.85896 0.97515
 C1317 C 0.51942 0.84205 0.96142
 C1318 C 0.50149 0.83699 0.95301
 C1319 C 0.50023 0.82110 0.94009
 C1320 C 0.51687 0.80979 0.93542
 C1321 C 0.53479 0.81469 0.94402
 C1322 C 0.53606 0.83059 0.95694
 H1323 H 0.56446 0.92696 0.99923
 H1324 H 0.56240 0.89840 0.97794
 H1325 H 0.51193 0.87840 1.01044
 H1326 H 0.51360 0.90695 1.03157
 H1327 H 0.54959 0.86560 0.97088
 H1328 H 0.50628 0.86372 0.98158
 H1329 H 0.48844 0.84548 0.95630
 H1330 H 0.48624 0.81781 0.93358
 H1331 H 0.54778 0.80599 0.94106
 H1332 H 0.55001 0.83354 0.96366
 C1333 C 0.04522 0.42546 0.49134
 C1334 C 0.04263 0.40978 0.47838
 C1335 C 0.02653 0.39730 0.48034
 C1336 C 0.01317 0.40064 0.49580
 C1337 C 0.01575 0.41628 0.50882
 C1338 C 0.03183 0.42896 0.50681
 C1339 C 0.02466 0.38056 0.46654
 C1340 C 0.00761 0.37186 0.46257
 C1341 C 0.00581 0.35496 0.44895
 C1342 C -0.01230 0.35142 0.44014
 C1343 C -0.01473 0.33540 0.42755
 C1344 C 0.00089 0.32245 0.42362
 C1345 C 0.01898 0.32588 0.43261
 C1346 C 0.02142 0.34190 0.44517
 H1347 H 0.05784 0.43474 0.48922
 H1348 H 0.05324 0.40742 0.46670
 H1349 H 0.00092 0.39098 0.49823
 H1350 H 0.00514 0.41826 0.52056
 H1351 H 0.03774 0.37588 0.45880
 H1352 H -0.00576 0.37777 0.46882
 H1353 H -0.02460 0.36115 0.44291
 H1354 H -0.02881 0.33327 0.42074
 H1355 H 0.03118 0.31591 0.43027
 H1356 H 0.03540 0.34368 0.45224
 C1357 C 0.41713 0.50877 0.45304
 C1358 C 0.40114 0.52140 0.45564
 C1359 C 0.38806 0.51868 0.47138
 C1360 C 0.39110 0.50275 0.48430
 C1361 C 0.40707 0.49008 0.48168
 C1362 C 0.42030 0.49296 0.46604
 C1363 C 0.37114 0.53229 0.47336
 C1364 C 0.36171 0.53553 0.49044
 C1365 C 0.34494 0.54933 0.49243
 C1366 C 0.34073 0.55736 0.51101
 C1367 C 0.32496 0.57028 0.51358
 C1368 C 0.31291 0.57532 0.49763
 C1369 C 0.31696 0.56708 0.47907
 C1370 C 0.33275 0.55418 0.47649
 H1371 H 0.42695 0.51140 0.44077
 H1372 H 0.39904 0.53343 0.44537
 H1373 H 0.38101 0.49974 0.49623
 H1374 H 0.40896 0.47796 0.49187
 H1375 H 0.36704 0.54063 0.46041
 H1376 H 0.36699 0.52864 0.50379
 H1377 H 0.34980 0.55378 0.52356
 H1378 H 0.32234 0.57651 0.52803
 H1379 H 0.30769 0.57031 0.46660
 H1380 H 0.33505 0.54775 0.46210
 C1381 C 0.92233 -0.00854 -0.05317
 C1382 C 0.90663 0.00462 -0.05173
 C1383 C 0.89284 0.00288 -0.03650
 C1384 C 0.89483 -0.01263 -0.02290
 C1385 C 0.91048 -0.02588 -0.02436
 C1386 C 0.92454 -0.02402 -0.03950
 C1387 C 0.87630 0.01706 -0.03573
 C1388 C 0.86657 0.02150 -0.01910
 C1389 C 0.85018 0.03587 -0.01830
 C1390 C 0.84583 0.04511 -0.00033
 C1391 C 0.83029 0.05847 0.00116
 C1392 C 0.81860 0.06275 -0.01528
 C1393 C 0.82286 0.05339 -0.03325
 C1394 C 0.83843 0.04005 -0.03476
 H1395 H 0.93268 -0.00652 -0.06512
 H1396 H 0.90534 0.01633 -0.06250
 H1397 H 0.88414 -0.01486 -0.01133
 H1398 H 0.91145 -0.03763 -0.01360
 H1399 H 0.87280 0.02482 -0.04921
 H1400 H 0.87132 0.01518 -0.00527
 H1401 H 0.85457 0.04207 0.01259
 H1402 H 0.82752 0.06556 0.01517
 H1403 H 0.81387 0.05602 -0.04607
 H1404 H 0.84087 0.03273 -0.04869
 C1405 C 0.57394 -0.00411 0.04859
 C1406 C 0.58889 0.00947 0.04568
 C1407 C 0.60179 0.00766 0.02964
 C1408 C 0.59912 -0.00785 0.01625
 C1409 C 0.58422 -0.02147 0.01919
 C1410 C 0.57149 -0.01981 0.03543
 C1411 C 0.61739 0.02249 0.02712
 C1412 C 0.63371 0.01928 0.01652
 C1413 C 0.64945 0.03395 0.01396
 C1414 C 0.66788 0.02737 0.00753
 C1415 C 0.68308 0.04061 0.00448
 C1416 C 0.68018 0.06081 0.00774
 C1417 C 0.66173 0.06747 0.01410
 C1418 C 0.64648 0.05423 0.01708
 H1419 H 0.56436 -0.00233 0.06122
 H1420 H 0.59047 0.02138 0.05611
 H1421 H 0.60824 -0.00940 0.00328
 H1422 H 0.58261 -0.03323 0.00861
 H1423 H 0.61562 0.03612 0.03512
 H1424 H 0.63622 0.00498 0.01002
 H1425 H 0.67057 0.01187 0.00491
 H1426 H 0.69719 0.03502 -0.00026
 H1427 H 0.65898 0.08300 0.01636
 H1428 H 0.63238 0.06007 0.02137
 C1429 C 0.08263 0.48304 0.51241
 C1430 C 0.09878 0.49532 0.51040
 C1431 C 0.10267 0.50979 0.52452
 C1432 C 0.09014 0.51150 0.54096
 C1433 C 0.07394 0.49927 0.54294
 C1434 C 0.06997 0.48490 0.52869
 C1435 C 0.12018 0.52226 0.52181
 C1436 C 0.12265 0.53961 0.53081
 C1437 C 0.14008 0.55214 0.52788
 C1438 C 0.13868 0.57219 0.53259
 C1439 C 0.15472 0.58456 0.53015
 C1440 C 0.17258 0.57712 0.52300
 C1441 C 0.17411 0.55700 0.51856
 C1442 C 0.15810 0.54461 0.52107
 H1443 H 0.08007 0.47211 0.50117
 H1444 H 0.10826 0.49354 0.49768
 H1445 H 0.09290 0.52196 0.55255
 H1446 H 0.06463 0.50097 0.55579
 H1447 H 0.13097 0.51722 0.51123
 H1448 H 0.11109 0.54552 0.54002
 H1449 H 0.12505 0.57837 0.53801
 H1450 H 0.15304 0.60002 0.53357
 H1451 H 0.18782 0.55076 0.51344
 H1452 H 0.16009 0.52914 0.51798
 C1453 C 0.06631 0.49462 -0.04455
 C1454 C 0.08192 0.48153 -0.04220
 C1455 C 0.09457 0.48315 -0.02612
 C1456 C 0.09102 0.49808 -0.01216
 C1457 C 0.07541 0.51125 -0.01456
 C1458 C 0.06288 0.50969 -0.03080
 C1459 C 0.11083 0.46869 -0.02434
 C1460 C 0.12658 0.47128 -0.01298
 C1461 C 0.14300 0.45694 -0.01178
 C1462 C 0.16110 0.46345 -0.00486
 C1463 C 0.17700 0.45053 -0.00349
 C1464 C 0.17514 0.43073 -0.00897
 C1465 C 0.15698 0.42410 -0.01565
 C1466 C 0.14104 0.43700 -0.01692
 H1467 H 0.05695 0.49293 -0.05723
 H1468 H 0.08418 0.47011 -0.05310
 H1469 H 0.09997 0.49954 0.00080
 H1470 H 0.07307 0.52255 -0.00357
 H1471 H 0.11009 0.45584 -0.03365
 H1472 H 0.12818 0.48487 -0.00495
 H1473 H 0.16302 0.47867 -0.00067
 H1474 H 0.19085 0.45610 0.00157
 H1475 H 0.15501 0.40883 -0.01957
 H1476 H 0.12722 0.43113 -0.02160
 C1477 C 0.59013 1.03145 0.47379
 C1478 C 0.60595 1.01910 0.47801
 C1479 C 0.61065 1.00318 0.46574
 C1480 C 0.59915 0.99991 0.44896
 C1481 C 0.58324 1.01220 0.44475
 C1482 C 0.57853 1.02824 0.45704
 C1483 C 0.62804 0.99097 0.47065
 C1484 C 0.63168 0.97309 0.46308
 C1485 C 0.64919 0.96112 0.46811
 C1486 C 0.64876 0.94077 0.46481
 C1487 C 0.66495 0.92894 0.46917
 C1488 C 0.68199 0.93724 0.47688
 C1489 C 0.68255 0.95763 0.47995
 C1490 C 0.66640 0.96948 0.47551
 H1491 H 0.58713 1.04357 0.48369
 H1492 H 0.61461 1.02206 0.49096
 H1493 H 0.60251 0.98820 0.43874
 H1494 H 0.57484 1.00922 0.43164
 H1495 H 0.63781 0.99684 0.48158
 H1496 H 0.62113 0.96639 0.45347
 H1497 H 0.63578 0.93395 0.45898
 H1498 H 0.66405 0.91324 0.46676
 H1499 H 0.69564 0.96449 0.48546
 H1500 H 0.66769 0.98517 0.47756
 C1501 C 0.92737 1.00483 0.55557
 C1502 C 0.91202 0.99180 0.55249
 C1503 C 0.89893 0.99466 0.53690
 C1504 C 0.90175 1.01078 0.52419
 C1505 C 0.91700 1.02391 0.52732
 C1506 C 0.93008 1.02116 0.54306
 C1507 C 0.88306 0.98018 0.53412
 C1508 C 0.86713 0.98361 0.52314
 C1509 C 0.85126 0.96916 0.52018
 C1510 C 0.83345 0.97590 0.51242
 C1511 C 0.81817 0.96289 0.50900
 C1512 C 0.82034 0.94279 0.51328
 C1513 C 0.83815 0.93596 0.52094
 C1514 C 0.85351 0.94894 0.52424
 H1515 H 0.93706 1.00205 0.56784
 H1516 H 0.91034 0.97942 0.56241
 H1517 H 0.89252 1.01325 0.51156
 H1518 H 0.91860 1.03611 0.51717
 H1519 H 0.88440 0.96649 0.54212
 H1520 H 0.86505 0.99791 0.51647
 H1521 H 0.83132 0.99134 0.50904
 H1522 H 0.80455 0.96859 0.50322
 H1523 H 0.84035 0.92048 0.52401
 H1524 H 0.86712 0.94290 0.52957
 C1525 C 0.42296 0.49077 0.05350
 C1526 C 0.40725 0.47818 0.05049
 C1527 C 0.39545 0.48018 0.03377
 C1528 C 0.39995 0.49486 0.01985
 C1529 C 0.41566 0.50746 0.02286
 C1530 C 0.42733 0.50560 0.03974
 C1531 C 0.37910 0.46630 0.03111
 C1532 C 0.36356 0.47015 0.01975
 C1533 C 0.34716 0.45629 0.01718
 C1534 C 0.32904 0.46374 0.01097
 C1535 C 0.31327 0.45119 0.00810
 C1536 C 0.31531 0.43086 0.01128
 C1537 C 0.33349 0.42336 0.01730
 C1538 C 0.34928 0.43590 0.02013
 H1539 H 0.43167 0.48884 0.06663
 H1540 H 0.40423 0.46689 0.06135
 H1541 H 0.39166 0.49648 0.00643
 H1542 H 0.41872 0.51858 0.01185
 H1543 H 0.37957 0.45285 0.03964
 H1544 H 0.36218 0.48437 0.01271
 H1545 H 0.32704 0.47935 0.00845
 H1546 H 0.29939 0.45743 0.00361
 H1547 H 0.33562 0.40771 0.01944
 H1548 H 0.36316 0.42944 0.02420
 C1549 C 0.47743 0.49039 0.41684
 C1550 C 0.49020 0.49355 0.40106
 C1551 C 0.50512 0.47996 0.39668
 C1552 C 0.50685 0.46293 0.40841
 C1553 C 0.49410 0.45980 0.42427
 C1554 C 0.47921 0.47348 0.42866
 C1555 C 0.51796 0.48387 0.37942
 C1556 C 0.53536 0.47510 0.37644
 C1557 C 0.54809 0.47915 0.35913
 C1558 C 0.56799 0.47417 0.36024
 C1559 C 0.58049 0.47741 0.34423
 C1560 C 0.57335 0.48566 0.32667
 C1561 C 0.55342 0.49052 0.32546
 C1562 C 0.54089 0.48720 0.34144
 H1563 H 0.46613 0.50125 0.41975
 H1564 H 0.48841 0.50671 0.39221
 H1565 H 0.51770 0.45174 0.40525
 H1566 H 0.49577 0.44652 0.43294
 H1567 H 0.51306 0.49510 0.36924
 H1568 H 0.54107 0.46514 0.38746
 H1569 H 0.57392 0.46783 0.37360
 H1570 H 0.59580 0.47363 0.34565
 H1571 H 0.54742 0.49650 0.31197
 H1572 H 0.52556 0.49059 0.33961
 C1573 C -0.00027 -0.05866 0.92498
 C1574 C 0.01362 -0.05621 0.91003
 C1575 C 0.01221 -0.04041 0.89678
 C1576 C -0.00370 -0.02730 0.89851
 C1577 C -0.01761 -0.02975 0.91344
 C1578 C -0.01604 -0.04542 0.92690
 C1579 C 0.02717 -0.03850 0.88102
 C1580 C 0.03136 -0.02137 0.87217
 C1581 C 0.04618 -0.01931 0.85630
 C1582 C 0.05402 -0.00066 0.85258
 C1583 C 0.06753 0.00214 0.83736
 C1584 C 0.07344 -0.01367 0.82539
 C1585 C 0.06560 -0.03236 0.82907
 C1586 C 0.05206 -0.03516 0.84429
 H1587 H 0.00136 -0.07095 0.93501
 H1588 H 0.02561 -0.06664 0.90890
 H1589 H -0.00571 -0.01534 0.88819
 H1590 H -0.02966 -0.01939 0.91434
 H1591 H 0.03555 -0.05154 0.87734
 H1592 H 0.02426 -0.00802 0.87723
 H1593 H 0.04967 0.01182 0.86152
 H1594 H 0.07344 0.01668 0.83502
 H1595 H 0.06954 -0.04474 0.81983
 H1596 H 0.04590 -0.04963 0.84619
 C1597 C 0.00265 0.05404 0.58342
 C1598 C 0.01624 0.05068 0.59833
 C1599 C 0.01535 0.03365 0.60999
 C1600 C 0.00066 0.01983 0.60620
 C1601 C -0.01299 0.02321 0.59130
 C1602 C -0.01216 0.04036 0.57974
 C1603 C 0.03035 0.03070 0.62543
 C1604 C 0.02823 0.01847 0.64082
 C1605 C 0.04316 0.01594 0.65639
 C1606 C 0.03732 0.00855 0.67481
 C1607 C 0.05086 0.00591 0.68992
 C1608 C 0.07062 0.01051 0.68689
 C1609 C 0.07655 0.01763 0.66838
 C1610 C 0.06302 0.02022 0.65325
 H1611 H 0.00379 0.06739 0.57479
 H1612 H 0.02749 0.06150 0.60080
 H1613 H -0.00021 0.00620 0.61437
 H1614 H -0.02407 0.01226 0.58873
 H1615 H 0.04321 0.03979 0.62445
 H1616 H 0.01464 0.01070 0.64283
 H1617 H 0.02216 0.00500 0.67760
 H1618 H 0.04582 0.00054 0.70407
 H1619 H 0.09175 0.02089 0.66549
 H1620 H 0.06831 0.02522 0.63907
 C1621 C 0.48061 0.51019 0.09234
 C1622 C 0.49237 0.50766 0.10891
 C1623 C 0.50729 0.52100 0.11310
 C1624 C 0.50998 0.53723 0.10047
 C1625 C 0.49826 0.53972 0.08383
 C1626 C 0.48345 0.52621 0.07956
 C1627 C 0.51925 0.51766 0.13098
 C1628 C 0.53685 0.52568 0.13380
 C1629 C 0.54898 0.52188 0.15149
 C1630 C 0.56909 0.52556 0.15034
 C1631 C 0.58111 0.52224 0.16659
 C1632 C 0.57326 0.51523 0.18441
 C1633 C 0.55310 0.51177 0.18568
 C1634 C 0.54105 0.51517 0.16946
 H1635 H 0.46932 0.49951 0.08956
 H1636 H 0.48984 0.49513 0.11845
 H1637 H 0.52084 0.54825 0.10345
 H1638 H 0.50070 0.55235 0.07443
 H1639 H 0.51361 0.50734 0.14170
 H1640 H 0.54328 0.53461 0.12231
 H1641 H 0.57558 0.53085 0.13676
 H1642 H 0.59662 0.52489 0.16511
 H1643 H 0.54659 0.50677 0.19936
 H1644 H 0.52555 0.51285 0.17127
 C1645 C 0.49945 -0.05654 0.07649
 C1646 C 0.48584 -0.05372 0.09168
 C1647 C 0.48606 -0.03657 0.10313
 C1648 C 0.49998 -0.02205 0.09877
 C1649 C 0.51361 -0.02490 0.08364
 C1650 C 0.51355 -0.04219 0.07234
 C1651 C 0.47122 -0.03414 0.11898
 C1652 C 0.47344 -0.02199 0.13435
 C1653 C 0.45872 -0.01936 0.15028
 C1654 C 0.46468 -0.01093 0.16808
 C1655 C 0.45131 -0.00766 0.18336
 C1656 C 0.43160 -0.01270 0.18115
 C1657 C 0.42556 -0.02110 0.16334
 C1658 C 0.43893 -0.02431 0.14801
 H1659 H 0.49891 -0.07001 0.06805
 H1660 H 0.47517 -0.06505 0.09457
 H1661 H 0.50023 -0.00830 0.10671
 H1662 H 0.52410 -0.01342 0.08070
 H1663 H 0.45849 -0.04341 0.11826
 H1664 H 0.48699 -0.01411 0.13593
 H1665 H 0.47978 -0.00688 0.17022
 H1666 H 0.45644 -0.00134 0.19699
 H1667 H 0.41039 -0.02478 0.16109
 H1668 H 0.43353 -0.03022 0.13433
 C1669 C 0.99474 0.45263 0.56762
 C1670 C 0.98153 0.45553 0.58313
 C1671 C 0.98340 0.47161 0.59588
 C1672 C 0.99862 0.48502 0.59251
 C1673 C 1.01187 0.48209 0.57703
 C1674 C 1.01013 0.46583 0.56443
 C1675 C 0.96891 0.47406 0.61206
 C1676 C 0.97201 0.48495 0.62819
 C1677 C 0.95766 0.48696 0.64455
 C1678 C 0.96434 0.49287 0.66312
 C1679 C 0.95138 0.49494 0.67897
 C1680 C 0.93139 0.49121 0.67658
 C1681 C 0.92462 0.48561 0.65794
 C1682 C 0.93756 0.48361 0.64206
 H1683 H 0.99289 0.43998 0.55819
 H1684 H 0.96985 0.44507 0.58525
 H1685 H 1.00024 0.49798 0.60151
 H1686 H 1.02341 0.49268 0.57487
 H1687 H 0.95562 0.46566 0.61095
 H1688 H 0.98600 0.49191 0.63017
 H1689 H 0.97970 0.49570 0.66542
 H1690 H 0.95706 0.49914 0.69319
 H1691 H 0.90923 0.48307 0.65556
 H1692 H 0.93164 0.47978 0.62787
 C1693 C 0.98930 0.54412 0.92893
 C1694 C 0.97642 0.54136 0.91331
 C1695 C 0.97822 0.52490 0.90100
 C1696 C 0.99296 0.51093 0.90496
 C1697 C 1.00588 0.51370 0.92055
 C1698 C 1.00427 0.53038 0.93267
 C1699 C 0.96420 0.52267 0.88458
 C1700 C 0.96769 0.51147 0.86866
 C1701 C 0.95390 0.50968 0.85199
 C1702 C 0.96116 0.50334 0.83367
 C1703 C 0.94876 0.50147 0.81753
 C1704 C 0.92875 0.50583 0.81937
 C1705 C 0.92139 0.51186 0.83777
 C1706 C 0.93378 0.51367 0.85394
 H1707 H 0.98757 0.55709 0.93800
 H1708 H 0.96509 0.55226 0.91073
 H1709 H 0.99446 0.49767 0.89631
 H1710 H 1.01708 0.50269 0.92314
 H1711 H 0.95101 0.53149 0.88529
 H1712 H 0.98165 0.50408 0.86710
 H1713 H 0.97656 0.50002 0.83178
 H1714 H 0.95489 0.49694 0.80351
 H1715 H 0.90596 0.51491 0.83974
 H1716 H 0.92742 0.51787 0.86794
 C1717 C 0.52646 0.02893 0.40367
 C1718 C 0.51412 0.02484 0.38790
 C1719 C 0.49895 0.03786 0.38285
 C1720 C 0.49676 0.05544 0.39356
 C1721 C 0.50907 0.05951 0.40936
 C1722 C 0.52397 0.04624 0.41471
 C1723 C 0.48608 0.03271 0.36615
 C1724 C 0.46804 0.04019 0.36377
 C1725 C 0.45489 0.03462 0.34743
 C1726 C 0.43478 0.03831 0.34953
 C1727 C 0.42182 0.03342 0.33452
 C1728 C 0.42871 0.02478 0.31702
 C1729 C 0.44884 0.02129 0.31478
 C1730 C 0.46182 0.02624 0.32975
 H1731 H 0.53782 0.01840 0.40730
 H1732 H 0.51629 0.01131 0.37978
 H1733 H 0.48574 0.06623 0.38973
 H1734 H 0.50688 0.07310 0.41738
 H1735 H 0.49139 0.02148 0.35617
 H1736 H 0.46209 0.05007 0.37477
 H1737 H 0.42905 0.04486 0.36291
 H1738 H 0.40637 0.03619 0.33672
 H1739 H 0.45461 0.01505 0.30126
 H1740 H 0.47723 0.02381 0.32715
   
