data_POSCAR
  _audit_creation_date              2014-09-24
  _audit_creation_method            'ToBaCCo'
  _symmetry_space_group_name_H-M    'P1'
  _symmetry_Int_Tables_number       1
  _symmetry_cell_setting            triclinic
  loop_
  _symmetry_equiv_pos_as_xyz
 x,y,z
_cell_length_a 73.8186
_cell_length_b 74.5665
_cell_length_c 74.5927
_cell_angle_alpha 89.859200
_cell_angle_beta 89.894100
_cell_angle_gamma 90.080000
loop_
  _atom_site_label
  _atom_site_type_symbol
  _atom_site_fract_x
  _atom_site_fract_y
  _atom_site_fract_z
O1 O 0.33870 0.36405 0.01857
 O2 O 0.36280 0.33907 -0.01673
 O3 O 0.33824 0.36413 -0.01632
 O4 O 0.36338 0.33899 0.01812
 O5 O 0.34156 0.31877 0.01904
 O6 O 0.31720 0.34314 -0.01649
 O7 O 0.34176 0.31804 -0.01576
 O8 O 0.31689 0.34379 0.01832
 Cu9 Cu 0.35292 0.35363 0.00089
 Cu10 Cu 0.32720 0.32887 0.00132
 C11 C 0.32354 0.35831 0.02431
 C12 C 0.35650 0.32416 -0.02212
 C13 C 0.32342 0.35793 -0.02240
 C14 C 0.35677 0.32457 0.02448
 O15 O 0.66117 0.63584 0.01629
 O16 O 0.63583 0.66014 -0.01862
 O17 O 0.66081 0.63519 -0.01854
 O18 O 0.63629 0.66050 0.01616
 O19 O 0.65770 0.68117 0.01575
 O20 O 0.68173 0.65628 -0.01958
 O21 O 0.65699 0.68106 -0.01916
 O22 O 0.68264 0.65643 0.01520
 Cu23 Cu 0.64640 0.64582 -0.00115
 Cu24 Cu 0.67187 0.67083 -0.00201
 C25 C 0.67631 0.64192 0.02162
 C26 C 0.64200 0.67485 -0.02475
 C27 C 0.67554 0.64133 -0.02499
 C28 C 0.64282 0.67516 0.02193
 O29 O 0.65373 0.36917 0.98182
 O30 O 0.62998 0.34500 1.01802
 O31 O 0.65492 0.36988 1.01668
 O32 O 0.62905 0.34409 0.98314
 O33 O 0.65041 0.32344 0.98305
 O34 O 0.67609 0.34908 1.01654
 O35 O 0.65130 0.32431 1.01792
 O36 O 0.67497 0.34840 0.98164
 Cu37 Cu 0.63979 0.35911 0.99994
 Cu38 Cu 0.66532 0.33424 0.99978
 C39 C 0.66841 0.36292 0.97552
 C40 C 0.63655 0.33049 1.02414
 C41 C 0.67000 0.36390 1.02236
 C42 C 0.63533 0.32932 0.97736
 O43 O 0.34173 0.63348 0.98329
 O44 O 0.36672 0.65888 1.01761
 O45 O 0.34189 0.63397 1.01816
 O46 O 0.36669 0.65818 0.98271
 O47 O 0.34516 0.67865 0.98194
 O48 O 0.32107 0.65511 1.01833
 O49 O 0.34585 0.68001 1.01673
 O50 O 0.32022 0.65399 0.98356
 Cu51 Cu 0.35639 0.64404 1.00049
 Cu52 Cu 0.33096 0.66903 1.00013
 C53 C 0.32660 0.63933 0.97767
 C54 C 0.36064 0.67390 1.02290
 C55 C 0.32722 0.64037 1.02437
 C56 C 0.36012 0.67251 0.97618
 O57 O 0.01683 0.34172 0.36624
 O58 O -0.01873 0.36563 0.34118
 O59 O -0.01838 0.34087 0.36592
 O60 O 0.01655 0.36658 0.34155
 O61 O 0.01759 0.34552 0.32087
 O62 O -0.01793 0.32029 0.34478
 O63 O -0.01754 0.34505 0.32002
 O64 O 0.01735 0.32077 0.34543
 Cu65 Cu -0.00102 0.35579 0.35582
 Cu66 Cu -0.00008 0.33081 0.33070
 C67 C 0.02312 0.32710 0.36014
 C68 C -0.02410 0.35951 0.32621
 C69 C -0.02418 0.32615 0.35955
 C70 C 0.02308 0.36042 0.32704
 O71 O 0.01805 0.65690 0.63356
 O72 O -0.01696 0.63236 0.65892
 O73 O -0.01703 0.65779 0.63467
 O74 O 0.01831 0.63169 0.65785
 O75 O 0.01951 0.65226 0.67901
 O76 O -0.01613 0.67802 0.65612
 O77 O -0.01576 0.65274 0.68026
 O78 O 0.01910 0.67738 0.65483
 Cu79 Cu 0.00045 0.64261 0.64414
 Cu80 Cu 0.00176 0.66713 0.66970
 C81 C 0.02452 0.67138 0.63982
 C82 C -0.02231 0.63830 0.67397
 C83 C -0.02258 0.67247 0.64135
 C84 C 0.02502 0.63758 0.67237
 O85 O 1.01547 0.63177 0.34354
 O86 O 0.98044 0.65438 0.37038
 O87 O 0.98042 0.63028 0.34501
 O88 O 1.01569 0.65595 0.36878
 O89 O 1.01338 0.67761 0.34878
 O90 O 0.97887 0.65158 0.32450
 O91 O 0.97825 0.67548 0.34973
 O92 O 1.01410 0.65346 0.32343
 Cu93 Cu 0.99819 0.64097 0.35899
 Cu94 Cu 0.99601 0.66667 0.33457
 C95 C 1.02074 0.63871 0.32886
 C96 C 0.97328 0.66876 0.36461
 C97 C 0.97370 0.63649 0.33060
 C98 C 1.02047 0.67130 0.36297
 O99 O 1.01849 0.36423 0.66019
 O100 O 0.98416 0.33913 0.63478
 O101 O 0.98330 0.36359 0.65969
 O102 O 1.01938 0.33983 0.63525
 O103 O 1.01866 0.31819 0.65540
 O104 O 0.98405 0.34292 0.68088
 O105 O 0.98350 0.31849 0.65602
 O106 O 1.01922 0.34260 0.68041
 Cu107 Cu 1.00133 0.35382 0.64539
 Cu108 Cu 1.00138 0.32843 0.67025
 C109 C 1.02477 0.35768 0.67464
 C110 C 0.97789 0.32455 0.64110
 C111 C 0.97769 0.35745 0.67460
 C112 C 1.02504 0.32478 0.64097
 O113 O 0.36629 0.01645 0.34058
 O114 O 0.34160 -0.01915 0.36478
 O115 O 0.36674 -0.01843 0.34015
 O116 O 0.34106 0.01567 0.36522
 O117 O 0.32019 0.01580 0.34410
 O118 O 0.34568 -0.01847 0.31922
 O119 O 0.32062 -0.01909 0.34376
 O120 O 0.34529 0.01642 0.31959
 Cu121 Cu 0.35604 -0.00135 0.35478
 Cu122 Cu 0.33085 -0.00133 0.32956
 C123 C 0.36004 0.02249 0.32590
 C124 C 0.32683 -0.02516 0.35843
 C125 C 0.36060 -0.02429 0.32537
 C126 C 0.32619 0.02153 0.35897
 O127 O 0.63268 0.01771 0.65944
 O128 O 0.65801 -0.01644 0.63398
 O129 O 0.63311 -0.01723 0.65892
 O130 O 0.65723 0.01841 0.63430
 O131 O 0.67838 0.01877 0.65516
 O132 O 0.65463 -0.01741 0.67938
 O133 O 0.67940 -0.01614 0.65458
 O134 O 0.65383 0.01736 0.68030
 Cu135 Cu 0.64311 0.00059 0.64459
 Cu136 Cu 0.66871 0.00066 0.66941
 C137 C 0.63889 0.02328 0.67431
 C138 C 0.67312 -0.02205 0.63990
 C139 C 0.63973 -0.02342 0.67337
 C140 C 0.67193 0.02471 0.64051
 O141 O 0.34116 1.01813 0.63285
 O142 O 0.36496 0.98294 0.65822
 O143 O 0.34037 0.98317 0.63306
 O144 O 0.36562 1.01774 0.65806
 O145 O 0.34421 1.01790 0.67873
 O146 O 0.31858 0.98411 0.65331
 O147 O 0.34313 0.98301 0.67846
 O148 O 0.31989 1.01891 0.65364
 Cu149 Cu 0.35517 1.00043 0.64347
 Cu150 Cu 0.32930 1.00099 0.66809
 C151 C 0.32648 1.02461 0.63895
 C152 C 0.35814 0.97699 0.67271
 C153 C 0.32505 0.97786 0.63883
 C154 C 0.35927 1.02365 0.67276
 O155 O 0.66337 1.01600 0.36279
 O156 O 0.63942 0.98118 0.33718
 O157 O 0.66399 0.98120 0.36204
 O158 O 0.63851 1.01602 0.33775
 O159 O 0.65994 1.01710 0.31711
 O160 O 0.68547 0.98236 0.34146
 O161 O 0.66068 0.98230 0.31638
 O162 O 0.68451 1.01719 0.34193
 Cu163 Cu 0.64917 0.99854 0.35201
 Cu164 Cu 0.67479 0.99980 0.32715
 C165 C 0.67812 1.02253 0.35682
 C166 C 0.64591 0.97585 0.32234
 C167 C 0.67915 0.97590 0.35597
 C168 C 0.64481 1.02245 0.32322
 C169 C 0.81623 0.81556 0.51155
 C170 C 0.81562 0.81454 0.49331
 C171 C 0.82642 0.80119 0.48321
 C172 C 0.80467 0.82724 0.48251
 C173 C 0.80423 0.82799 0.52155
 C174 C 0.82899 0.80450 0.52234
 C175 C 0.83901 0.80708 0.47037
 C176 C 0.85000 0.79478 0.46144
 C177 C 0.84840 0.77633 0.46497
 C178 C 0.83537 0.77039 0.47741
 C179 C 0.82449 0.78274 0.48650
 C180 C 0.80781 0.84578 0.48345
 C181 C 0.79762 0.85763 0.47303
 C182 C 0.78406 0.85118 0.46146
 C183 C 0.78104 0.83256 0.46053
 C184 C 0.79134 0.82072 0.47086
 C185 C 0.78533 0.82711 0.51967
 C186 C 0.77418 0.83909 0.52892
 C187 C 0.78175 0.85213 0.54026
 C188 C 0.80067 0.85277 0.54232
 C189 C 0.81179 0.84075 0.53313
 C190 C 0.82253 0.79456 0.53701
 C191 C 0.83432 0.78401 0.54718
 C192 C 0.85287 0.78312 0.54286
 C193 C 0.85935 0.79336 0.52832
 C194 C 0.84759 0.80410 0.51833
 H195 H 0.84062 0.82126 0.46761
 H196 H 0.85976 0.79968 0.45173
 H197 H 0.83391 0.75624 0.48039
 H198 H 0.81470 0.77795 0.49624
 H199 H 0.81829 0.85102 0.49213
 H200 H 0.80057 0.87183 0.47382
 H201 H 0.78877 0.80644 0.46994
 H202 H 0.77923 0.81719 0.51098
 H203 H 0.75967 0.83834 0.52700
 H204 H 0.80686 0.86249 0.55118
 H205 H 0.82634 0.84153 0.53485
 H206 H 0.80829 0.79487 0.54052
 H207 H 0.82891 0.77667 0.55852
 H208 H 0.87348 0.79292 0.52447
 H209 H 0.85300 0.81205 0.50739
 H210 H 0.77055 0.82713 0.45199
 C211 C 0.18769 0.18754 0.50729
 C212 C 0.18728 0.18670 0.48906
 C213 C 0.17553 0.19886 0.47844
 C214 C 0.19815 0.17339 0.47885
 C215 C 0.19997 0.17614 0.51812
 C216 C 0.17509 0.19926 0.51737
 C217 C 0.16266 0.19165 0.46669
 C218 C 0.15125 0.20292 0.45691
 C219 C 0.15259 0.22166 0.45860
 C220 C 0.16573 0.22886 0.47018
 C221 C 0.17714 0.21756 0.47996
 C222 C 0.19718 0.15500 0.48286
 C223 C 0.20765 0.14269 0.47329
 C224 C 0.21903 0.14846 0.45926
 C225 C 0.21958 0.16684 0.45498
 C226 C 0.20925 0.17916 0.46468
 C227 C 0.21879 0.17640 0.51535
 C228 C 0.23004 0.16487 0.52509
 C229 C 0.22262 0.15292 0.53774
 C230 C 0.20383 0.15307 0.54080
 C231 C 0.19264 0.16463 0.53115
 C232 C 0.18192 0.21305 0.52813
 C233 C 0.17014 0.22404 0.53782
 C234 C 0.15129 0.22119 0.53721
 C235 C 0.14455 0.20717 0.52649
 C236 C 0.15634 0.19636 0.51662
 H237 H 0.16124 0.17725 0.46533
 H238 H 0.14113 0.19696 0.44828
 H239 H 0.16732 0.24322 0.47154
 H240 H 0.18724 0.22337 0.48872
 H241 H 0.18836 0.15018 0.49344
 H242 H 0.20697 0.12867 0.47704
 H243 H 0.21000 0.19325 0.46120
 H244 H 0.22471 0.18535 0.50549
 H245 H 0.24447 0.16499 0.52245
 H246 H 0.19779 0.14421 0.55067
 H247 H 0.17817 0.16431 0.53355
 H248 H 0.19638 0.21544 0.52884
 H249 H 0.17582 0.23487 0.54564
 H250 H 0.13019 0.20431 0.52597
 H251 H 0.15088 0.18557 0.50857
 H252 H 0.22786 0.17171 0.44401
 C253 C 0.18500 0.81322 0.48990
 C254 C 0.18527 0.81366 0.50813
 C255 C 0.17367 0.80154 0.51897
 C256 C 0.19670 0.82661 0.51810
 C257 C 0.19705 0.82482 0.47895
 C258 C 0.17212 0.80158 0.48005
 C259 C 0.16064 0.80880 0.53055
 C260 C 0.14913 0.79754 0.54031
 C261 C 0.15063 0.77882 0.53883
 C262 C 0.16400 0.77157 0.52755
 C263 C 0.17542 0.78285 0.51767
 C264 C 0.19432 0.84515 0.51595
 C265 C 0.20504 0.85723 0.52556
 C266 C 0.21840 0.85100 0.53750
 C267 C 0.22068 0.83237 0.53959
 C268 C 0.20983 0.82032 0.53010
 C269 C 0.21595 0.82415 0.48095
 C270 C 0.22709 0.83565 0.47099
 C271 C 0.21950 0.84797 0.45886
 C272 C 0.20060 0.84831 0.45663
 C273 C 0.18950 0.83678 0.46652
 C274 C 0.17867 0.78794 0.46892
 C275 C 0.16665 0.77685 0.45965
 C276 C 0.14779 0.77940 0.46107
 C277 C 0.14133 0.79329 0.47212
 C278 C 0.15338 0.80422 0.48156
 H279 H 0.15918 0.82320 0.53176
 H280 H 0.13910 0.80347 0.54908
 H281 H 0.16538 0.75718 0.52612
 H282 H 0.18554 0.77703 0.50891
 H283 H 0.18403 0.85024 0.50694
 H284 H 0.20264 0.87145 0.52386
 H285 H 0.21184 0.80604 0.53192
 H286 H 0.22204 0.81484 0.49032
 H287 H 0.24160 0.83515 0.47303
 H288 H 0.19441 0.85747 0.44717
 H289 H 0.17495 0.83741 0.46472
 H290 H 0.19312 0.78573 0.46763
 H291 H 0.17215 0.76613 0.45154
 H292 H 0.12697 0.79592 0.47328
 H293 H 0.14811 0.81487 0.48992
 H294 H 0.23100 0.82706 0.54842
 C295 C 0.81421 0.18504 0.49102
 C296 C 0.81408 0.18573 0.50929
 C297 C 0.82708 0.19709 0.51939
 C298 C 0.80132 0.17477 0.52018
 C299 C 0.80293 0.17199 0.48092
 C300 C 0.82605 0.19702 0.48018
 C301 C 0.84580 0.19585 0.51633
 C302 C 0.85787 0.20654 0.52597
 C303 C 0.85148 0.21842 0.53918
 C304 C 0.83274 0.21932 0.54247
 C305 C 0.82067 0.20877 0.53267
 C306 C 0.80812 0.16318 0.53337
 C307 C 0.79639 0.15247 0.54347
 C308 C 0.77756 0.15327 0.54073
 C309 C 0.77075 0.16515 0.52771
 C310 C 0.78252 0.17584 0.51756
 C311 C 0.79225 0.17795 0.46657
 C312 C 0.78179 0.16584 0.45676
 C313 C 0.78174 0.14747 0.46115
 C314 C 0.79261 0.14152 0.47545
 C315 C 0.80327 0.15362 0.48506
 C316 C 0.82498 0.21575 0.48177
 C317 C 0.83655 0.22680 0.47179
 C318 C 0.84939 0.21930 0.46006
 C319 C 0.85018 0.20056 0.45827
 C320 C 0.83854 0.18954 0.46815
 H321 H 0.85109 0.18658 0.50648
 H322 H 0.87218 0.20560 0.52297
 H323 H 0.82738 0.22801 0.55280
 H324 H 0.80629 0.20975 0.53542
 H325 H 0.82258 0.16216 0.53559
 H326 H 0.80212 0.14329 0.55318
 H327 H 0.77700 0.18494 0.50764
 H328 H 0.79198 0.19203 0.46296
 H329 H 0.77395 0.17085 0.44558
 H330 H 0.79280 0.12753 0.47933
 H331 H 0.81180 0.14862 0.49576
 H332 H 0.81526 0.22177 0.49083
 H333 H 0.83570 0.24120 0.47348
 H334 H 0.85975 0.19443 0.44914
 H335 H 0.83948 0.17513 0.46665
 H336 H 0.75631 0.16630 0.52547
 C337 C 0.50773 0.81430 0.81396
 C338 C 0.48926 0.81423 0.81344
 C339 C 0.47890 0.82708 0.80215
 C340 C 0.47842 0.80153 0.82448
 C341 C 0.51801 0.80300 0.82686
 C342 C 0.51863 0.82602 0.80194
 C343 C 0.48205 0.84562 0.80319
 C344 C 0.47219 0.85752 0.79250
 C345 C 0.45869 0.85116 0.78083
 C346 C 0.45529 0.83260 0.78016
 C347 C 0.46530 0.82071 0.79069
 C348 C 0.46530 0.80819 0.83633
 C349 C 0.45534 0.79651 0.84719
 C350 C 0.45816 0.77788 0.84628
 C351 C 0.47107 0.77122 0.83411
 C352 C 0.48107 0.78294 0.82326
 C353 C 0.53206 0.79198 0.82066
 C354 C 0.54191 0.78137 0.83262
 C355 C 0.53793 0.78156 0.85107
 C356 C 0.52398 0.79281 0.85727
 C357 C 0.51425 0.80355 0.84532
 C358 C 0.51666 0.82524 0.78323
 C359 C 0.52665 0.83676 0.77216
 C360 C 0.53880 0.84921 0.77961
 C361 C 0.54101 0.84965 0.79831
 C362 C 0.53110 0.83811 0.80935
 H363 H 0.49215 0.85090 0.81228
 H364 H 0.47529 0.87169 0.79327
 H365 H 0.44474 0.82726 0.77164
 H366 H 0.46247 0.80648 0.78987
 H367 H 0.46306 0.82250 0.83745
 H368 H 0.44570 0.80211 0.85658
 H369 H 0.49091 0.77753 0.81396
 H370 H 0.53534 0.79153 0.80651
 H371 H 0.55281 0.77318 0.82742
 H372 H 0.52044 0.79320 0.87135
 H373 H 0.50377 0.81228 0.85047
 H374 H 0.50728 0.81583 0.77725
 H375 H 0.52461 0.83618 0.75780
 H376 H 0.55049 0.85889 0.80440
 H377 H 0.53290 0.83881 0.82374
 H378 H 0.47335 0.75693 0.83288
 C379 C 0.51008 0.18553 0.18603
 C380 C 0.49161 0.18540 0.18566
 C381 C 0.48088 0.17355 0.19771
 C382 C 0.48116 0.19673 0.17291
 C383 C 0.52078 0.19846 0.17513
 C384 C 0.52056 0.17252 0.19705
 C385 C 0.46844 0.16141 0.19034
 C386 C 0.45873 0.14973 0.20141
 C387 C 0.46111 0.15009 0.22010
 C388 C 0.47323 0.16260 0.22751
 C389 C 0.48302 0.17425 0.21640
 C390 C 0.48481 0.19635 0.15443
 C391 C 0.47483 0.20700 0.14259
 C392 C 0.46074 0.21798 0.14894
 C393 C 0.45689 0.21803 0.16742
 C394 C 0.46698 0.20751 0.17926
 C395 C 0.51798 0.21701 0.17662
 C396 C 0.52780 0.22897 0.16588
 C397 C 0.54069 0.22259 0.15353
 C398 C 0.54368 0.20401 0.15236
 C399 C 0.53389 0.19208 0.16311
 C400 C 0.53420 0.17872 0.20857
 C401 C 0.54422 0.16666 0.21892
 C402 C 0.54081 0.14811 0.21798
 C403 C 0.52729 0.14193 0.20624
 C404 C 0.51742 0.15399 0.19575
 H405 H 0.46651 0.16077 0.17597
 H406 H 0.44927 0.14043 0.19536
 H407 H 0.47538 0.16313 0.24185
 H408 H 0.49239 0.18370 0.22235
 H409 H 0.49538 0.18780 0.14915
 H410 H 0.47828 0.20674 0.12848
 H411 H 0.46377 0.20782 0.19343
 H412 H 0.50814 0.22220 0.18606
 H413 H 0.52540 0.24321 0.16734
 H414 H 0.55331 0.19863 0.14283
 H415 H 0.53625 0.17781 0.16178
 H416 H 0.53703 0.19293 0.20960
 H417 H 0.55479 0.17187 0.22750
 H418 H 0.52418 0.12778 0.20527
 H419 H 0.50728 0.14885 0.18662
 H420 H 0.44589 0.22602 0.17273
 C421 C 0.48922 0.18508 0.81532
 C422 C 0.50766 0.18533 0.81541
 C423 C 0.51833 0.17277 0.80425
 C424 C 0.51799 0.19761 0.82727
 C425 C 0.47854 0.19615 0.82797
 C426 C 0.47886 0.17316 0.80314
 C427 C 0.51682 0.15418 0.80676
 C428 C 0.52669 0.14241 0.79597
 C429 C 0.53823 0.14900 0.78242
 C430 C 0.53982 0.16769 0.78013
 C431 C 0.53007 0.17944 0.79104
 C432 C 0.53025 0.19050 0.83973
 C433 C 0.53944 0.20177 0.85156
 C434 C 0.53670 0.22042 0.85103
 C435 C 0.52478 0.22757 0.83819
 C436 C 0.51551 0.21626 0.82641
 C437 C 0.46660 0.20917 0.82137
 C438 C 0.45667 0.21985 0.83319
 C439 C 0.45827 0.21750 0.85185
 C440 C 0.47006 0.20417 0.85837
 C441 C 0.48011 0.19362 0.84653
 C442 C 0.48121 0.17404 0.78448
 C443 C 0.47177 0.16231 0.77325
 C444 C 0.45980 0.14951 0.78050
 C445 C 0.45724 0.14892 0.79917
 C446 C 0.46661 0.16069 0.81036
 H447 H 0.50801 0.14882 0.81710
 H448 H 0.52542 0.12814 0.79840
 H449 H 0.54835 0.17325 0.76969
 H450 H 0.53138 0.19377 0.78896
 H451 H 0.53242 0.17615 0.84054
 H452 H 0.54876 0.19591 0.86110
 H453 H 0.50627 0.22202 0.81672
 H454 H 0.46524 0.21126 0.80706
 H455 H 0.44796 0.23014 0.82769
 H456 H 0.47135 0.20172 0.87262
 H457 H 0.48906 0.18341 0.85183
 H458 H 0.49044 0.18374 0.77863
 H459 H 0.47407 0.16302 0.75892
 H460 H 0.44789 0.13940 0.80512
 H461 H 0.46454 0.15986 0.82472
 H462 H 0.52234 0.24187 0.83752
 C463 C 0.49249 0.81507 0.18393
 C464 C 0.51092 0.81515 0.18376
 C465 C 0.52145 0.82779 0.19492
 C466 C 0.52145 0.80320 0.17178
 C467 C 0.48198 0.80375 0.17141
 C468 C 0.48198 0.82688 0.19607
 C469 C 0.51991 0.84636 0.19240
 C470 C 0.53012 0.85816 0.20282
 C471 C 0.54204 0.85159 0.21599
 C472 C 0.54352 0.83293 0.21842
 C473 C 0.53343 0.82115 0.20787
 C474 C 0.53359 0.81070 0.15937
 C475 C 0.54330 0.79972 0.14768
 C476 C 0.54120 0.78099 0.14831
 C477 C 0.52931 0.77346 0.16102
 C478 C 0.51951 0.78448 0.17267
 C479 C 0.47036 0.79048 0.17814
 C480 C 0.46061 0.77953 0.16644
 C481 C 0.46208 0.78187 0.14776
 C482 C 0.47355 0.79545 0.14111
 C483 C 0.48343 0.80627 0.15283
 C484 C 0.48423 0.82603 0.21474
 C485 C 0.47462 0.83766 0.22594
 C486 C 0.46259 0.85032 0.21864
 C487 C 0.46014 0.85087 0.19996
 C488 C 0.46967 0.83920 0.18881
 H489 H 0.51092 0.85168 0.18223
 H490 H 0.52891 0.87242 0.20034
 H491 H 0.55232 0.82740 0.22861
 H492 H 0.53478 0.80683 0.20994
 H493 H 0.53534 0.82510 0.15855
 H494 H 0.55258 0.80587 0.13822
 H495 H 0.51037 0.77845 0.18233
 H496 H 0.46911 0.78840 0.19247
 H497 H 0.45214 0.76906 0.17204
 H498 H 0.47473 0.79788 0.12684
 H499 H 0.49214 0.81667 0.14743
 H500 H 0.49352 0.81644 0.22061
 H501 H 0.47682 0.83698 0.24027
 H502 H 0.45075 0.86029 0.19399
 H503 H 0.46768 0.83999 0.17444
 H504 H 0.52737 0.75908 0.16175
 C505 C 0.81332 0.50697 0.81371
 C506 C 0.81245 0.48875 0.81258
 C507 C 0.79918 0.47806 0.82311
 C508 C 0.82529 0.47853 0.80122
 C509 C 0.82580 0.51749 0.80210
 C510 C 0.80212 0.51729 0.82668
 C511 C 0.80538 0.46440 0.83449
 C512 C 0.79320 0.45468 0.84505
 C513 C 0.77452 0.45827 0.84431
 C514 C 0.76830 0.47170 0.83255
 C515 C 0.78052 0.48147 0.82201
 C516 C 0.84400 0.47944 0.80432
 C517 C 0.85600 0.46963 0.79368
 C518 C 0.84951 0.45872 0.77971
 C519 C 0.83070 0.45781 0.77674
 C520 C 0.81871 0.46751 0.78749
 C521 C 0.82477 0.51636 0.78334
 C522 C 0.83674 0.52617 0.77257
 C523 C 0.84993 0.53728 0.78037
 C524 C 0.85075 0.53856 0.79916
 C525 C 0.83872 0.52882 0.80991
 C526 C 0.79208 0.53209 0.82071
 C527 C 0.78159 0.54201 0.83272
 C528 C 0.78088 0.53731 0.85099
 C529 C 0.79117 0.52259 0.85697
 C530 C 0.80184 0.51283 0.84498
 H531 H 0.81973 0.46158 0.83554
 H532 H 0.79849 0.44464 0.85414
 H533 H 0.75397 0.47459 0.83144
 H534 H 0.77545 0.49176 0.81307
 H535 H 0.84928 0.48764 0.81508
 H536 H 0.87034 0.47037 0.79659
 H537 H 0.80430 0.46664 0.78496
 H538 H 0.81471 0.50787 0.77707
 H539 H 0.83586 0.52485 0.75814
 H540 H 0.86059 0.54722 0.80553
 H541 H 0.83963 0.52995 0.82435
 H542 H 0.79230 0.53594 0.80670
 H543 H 0.77421 0.55350 0.82770
 H544 H 0.79085 0.51848 0.87089
 H545 H 0.80985 0.50176 0.85000
 H546 H 0.82524 0.44976 0.76597
 C547 C 0.18438 0.51111 0.18542
 C548 C 0.18493 0.49285 0.18585
 C549 C 0.19659 0.48258 0.17335
 C550 C 0.17338 0.48218 0.19823
 C551 C 0.17137 0.52156 0.19647
 C552 C 0.19673 0.52157 0.17363
 C553 C 0.19410 0.48388 0.15476
 C554 C 0.20498 0.47396 0.14309
 C555 C 0.21860 0.46259 0.14979
 C556 C 0.22099 0.46135 0.16847
 C557 C 0.20999 0.47115 0.18013
 C558 C 0.16153 0.46928 0.19120
 C559 C 0.14995 0.45968 0.20250
 C560 C 0.15012 0.46265 0.22110
 C561 C 0.16239 0.47520 0.22820
 C562 C 0.17394 0.48488 0.21685
 C563 C 0.17771 0.53566 0.20718
 C564 C 0.16571 0.54562 0.21766
 C565 C 0.14707 0.54167 0.21769
 C566 C 0.14071 0.52772 0.20669
 C567 C 0.15271 0.51790 0.19604
 C568 C 0.21560 0.51996 0.17517
 C569 C 0.22705 0.52985 0.16393
 C570 C 0.21984 0.54160 0.15100
 C571 C 0.20091 0.54327 0.14965
 C572 C 0.18949 0.53343 0.16092
 H573 H 0.18360 0.49243 0.14933
 H574 H 0.20250 0.47497 0.12882
 H575 H 0.23151 0.45296 0.17411
 H576 H 0.21206 0.46999 0.19446
 H577 H 0.16099 0.46692 0.17689
 H578 H 0.14086 0.44989 0.19669
 H579 H 0.18316 0.49462 0.22254
 H580 H 0.19202 0.53889 0.20751
 H581 H 0.17104 0.55652 0.22563
 H582 H 0.12648 0.52421 0.20646
 H583 H 0.14743 0.50739 0.18753
 H584 H 0.22143 0.51111 0.18513
 H585 H 0.24156 0.52848 0.16553
 H586 H 0.19490 0.55199 0.13968
 H587 H 0.17495 0.53484 0.15956
 H588 H 0.16277 0.47778 0.24247
 C589 C 0.81351 0.49028 0.18465
 C590 C 0.81388 0.50851 0.18502
 C591 C 0.80310 0.51936 0.17227
 C592 C 0.82558 0.51846 0.19774
 C593 C 0.82591 0.47950 0.19592
 C594 C 0.80125 0.48031 0.17246
 C595 C 0.80602 0.51798 0.15374
 C596 C 0.79570 0.52815 0.14179
 C597 C 0.78222 0.53987 0.14815
 C598 C 0.77949 0.54130 0.16678
 C599 C 0.78994 0.53124 0.17871
 C600 C 0.83888 0.53020 0.19115
 C601 C 0.85039 0.53921 0.20294
 C602 C 0.84864 0.53684 0.22156
 C603 C 0.83504 0.52536 0.22816
 C604 C 0.82362 0.51621 0.21634
 C605 C 0.81885 0.46780 0.20890
 C606 C 0.83048 0.45797 0.21994
 C607 C 0.84939 0.45945 0.21798
 C608 C 0.85637 0.47094 0.20465
 C609 C 0.84473 0.48089 0.19375
 C610 C 0.78240 0.48269 0.17326
 C611 C 0.77106 0.47362 0.16131
 C612 C 0.77839 0.46204 0.14834
 C613 C 0.79725 0.45948 0.14779
 C614 C 0.80855 0.46844 0.15982
 H615 H 0.81635 0.50907 0.14857
 H616 H 0.79844 0.52698 0.12758
 H617 H 0.76907 0.54997 0.17214
 H618 H 0.78755 0.53246 0.19299
 H619 H 0.84054 0.53215 0.17685
 H620 H 0.86060 0.54816 0.19751
 H621 H 0.81330 0.50733 0.22166
 H622 H 0.80434 0.46659 0.21072
 H623 H 0.82463 0.44946 0.23021
 H624 H 0.87082 0.47213 0.20249
 H625 H 0.85038 0.48968 0.18359
 H626 H 0.77651 0.49166 0.18306
 H627 H 0.75659 0.47589 0.16198
 H628 H 0.80324 0.45045 0.13811
 H629 H 0.82305 0.46637 0.15906
 H630 H 0.83344 0.52323 0.24244
 C631 C 0.18659 0.49055 0.81453
 C632 C 0.18766 0.50877 0.81369
 C633 C 0.19907 0.51899 0.82640
 C634 C 0.17699 0.51943 0.80061
 C635 C 0.17367 0.48019 0.80336
 C636 C 0.19811 0.48007 0.82703
 C637 C 0.19573 0.51813 0.84490
 C638 C 0.20654 0.52779 0.85681
 C639 C 0.22092 0.53847 0.85045
 C640 C 0.22410 0.53936 0.83185
 C641 C 0.21318 0.52982 0.81995
 C642 C 0.16548 0.53302 0.80681
 C643 C 0.15482 0.54276 0.79482
 C644 C 0.15558 0.53924 0.77631
 C645 C 0.16742 0.52585 0.77009
 C646 C 0.17808 0.51608 0.78212
 C647 C 0.17996 0.46577 0.79308
 C648 C 0.16800 0.45584 0.78254
 C649 C 0.14946 0.46014 0.78210
 C650 C 0.14314 0.47446 0.79263
 C651 C 0.15510 0.48427 0.80330
 C652 C 0.21708 0.48111 0.82613
 C653 C 0.22776 0.47125 0.83807
 C654 C 0.21963 0.46017 0.85108
 C655 C 0.20064 0.45902 0.85178
 C656 C 0.18999 0.46880 0.83980
 H657 H 0.18468 0.51006 0.85007
 H658 H 0.20347 0.52708 0.87099
 H659 H 0.23520 0.54725 0.82651
 H660 H 0.21590 0.53063 0.80569
 H661 H 0.16442 0.53580 0.82102
 H662 H 0.14566 0.55278 0.80010
 H663 H 0.18711 0.50584 0.77705
 H664 H 0.19420 0.46225 0.79313
 H665 H 0.17325 0.44467 0.77490
 H666 H 0.12898 0.47821 0.79251
 H667 H 0.14988 0.49508 0.81147
 H668 H 0.22359 0.48957 0.81620
 H669 H 0.24236 0.47247 0.83728
 H670 H 0.19402 0.45039 0.86149
 H671 H 0.17537 0.46773 0.84060
 H672 H 0.16854 0.52301 0.75590
 C673 C 0.29371 0.38897 0.06332
 C674 C 0.28539 0.37484 0.05396
 C675 C 0.29515 0.36476 0.04148
 C676 C 0.31342 0.36868 0.03791
 C677 C 0.32179 0.38278 0.04724
 C678 C 0.31208 0.39275 0.05987
 C679 C 0.28322 0.39980 0.07646
 C680 C 0.28619 0.41836 0.07807
 C681 C 0.27610 0.42856 0.09020
 C682 C 0.26266 0.42050 0.10092
 C683 C 0.25974 0.40193 0.09935
 C684 C 0.26994 0.39171 0.08735
 C685 C 0.25163 0.43141 0.11357
 C686 C 0.24625 0.42435 0.13025
 C687 C 0.23556 0.43443 0.14195
 C688 C 0.23011 0.45192 0.13737
 C689 C 0.23566 0.45905 0.12078
 C690 C 0.24621 0.44891 0.10899
 H691 H 0.27120 0.37175 0.05600
 H692 H 0.28827 0.35408 0.03441
 H693 H 0.33589 0.38605 0.04486
 H694 H 0.31902 0.40331 0.06704
 H695 H 0.29613 0.42509 0.06976
 H696 H 0.27891 0.44277 0.09122
 H697 H 0.24935 0.39529 0.10721
 H698 H 0.26745 0.37741 0.08668
 H699 H 0.25037 0.41103 0.13434
 H700 H 0.23135 0.42840 0.15450
 H701 H 0.23194 0.47256 0.11690
 H702 H 0.24989 0.45471 0.09618
 C703 C 0.70701 0.61226 0.06073
 C704 C 0.71510 0.62624 0.05086
 C705 C 0.70507 0.63602 0.03835
 C706 C 0.68676 0.63192 0.03527
 C707 C 0.67863 0.61799 0.04513
 C708 C 0.68861 0.60834 0.05779
 C709 C 0.71778 0.60169 0.07387
 C710 C 0.71488 0.58315 0.07592
 C711 C 0.72512 0.57319 0.08811
 C712 C 0.73866 0.58146 0.09845
 C713 C 0.74156 0.59999 0.09641
 C714 C 0.73120 0.60999 0.08435
 C715 C 0.74977 0.57078 0.11122
 C716 C 0.75519 0.57810 0.12773
 C717 C 0.76576 0.56813 0.13964
 C718 C 0.77105 0.55052 0.13543
 C719 C 0.76555 0.54317 0.11897
 C720 C 0.75513 0.55320 0.10699
 H721 H 0.72931 0.62944 0.05254
 H722 H 0.71175 0.64659 0.03086
 H723 H 0.66450 0.61461 0.04314
 H724 H 0.68185 0.59789 0.06537
 H725 H 0.70484 0.57626 0.06792
 H726 H 0.72233 0.55900 0.08951
 H727 H 0.75201 0.60678 0.10398
 H728 H 0.73364 0.62427 0.08331
 H729 H 0.75112 0.59150 0.13155
 H730 H 0.76993 0.57431 0.15208
 H731 H 0.76916 0.52958 0.11539
 H732 H 0.75143 0.54722 0.09430
 C733 C 0.69664 0.39140 0.93365
 C734 C 0.68171 0.39923 0.94232
 C735 C 0.67243 0.38992 0.95580
 C736 C 0.67800 0.37265 0.96100
 C737 C 0.69291 0.36482 0.95229
 C738 C 0.70208 0.37407 0.93871
 C739 C 0.70672 0.40139 0.91959
 C740 C 0.71227 0.39276 0.90379
 C741 C 0.72230 0.40202 0.89082
 C742 C 0.72714 0.42008 0.89343
 C743 C 0.72137 0.42874 0.90916
 C744 C 0.71123 0.41952 0.92207
 C745 C 0.73864 0.42968 0.88010
 C746 C 0.73575 0.44792 0.87626
 C747 C 0.74718 0.45713 0.86442
 C748 C 0.76172 0.44828 0.85608
 C749 C 0.76434 0.42994 0.85960
 C750 C 0.75298 0.42077 0.87149
 H751 H 0.67713 0.41250 0.93856
 H752 H 0.66099 0.39631 0.96224
 H753 H 0.69753 0.35154 0.95597
 H754 H 0.71366 0.36780 0.93239
 H755 H 0.70875 0.37887 0.90143
 H756 H 0.72623 0.39503 0.87872
 H757 H 0.72512 0.44254 0.91176
 H758 H 0.70733 0.42643 0.93422
 H759 H 0.72468 0.45513 0.88247
 H760 H 0.74488 0.47129 0.86214
 H761 H 0.77526 0.42266 0.85321
 H762 H 0.75574 0.40678 0.87427
 C763 C 0.29633 0.60919 0.93872
 C764 C 0.31454 0.60497 0.94229
 C765 C 0.32437 0.61471 0.95497
 C766 C 0.31627 0.62899 0.96424
 C767 C 0.29812 0.63328 0.96062
 C768 C 0.28824 0.62344 0.94808
 C769 C 0.28576 0.59875 0.92536
 C770 C 0.27304 0.60732 0.91426
 C771 C 0.26281 0.59748 0.90199
 C772 C 0.26515 0.57885 0.90038
 C773 C 0.27802 0.57030 0.91133
 C774 C 0.28815 0.58012 0.92372
 C775 C 0.25408 0.56837 0.88746
 C776 C 0.24778 0.55112 0.89192
 C777 C 0.23717 0.54138 0.87988
 C778 C 0.23247 0.54871 0.86314
 C779 C 0.23881 0.56594 0.85867
 C780 C 0.24954 0.57561 0.87064
 H781 H 0.32128 0.59427 0.93513
 H782 H 0.33838 0.61116 0.95740
 H783 H 0.29145 0.64412 0.96764
 H784 H 0.27416 0.62684 0.94592
 H785 H 0.27103 0.62167 0.91498
 H786 H 0.25287 0.60447 0.89395
 H787 H 0.28035 0.55602 0.91028
 H788 H 0.29766 0.57305 0.93219
 H789 H 0.25082 0.54522 0.90484
 H790 H 0.23275 0.52805 0.88366
 H791 H 0.23527 0.57209 0.84599
 H792 H 0.25436 0.58875 0.86666
 C793 C 0.06382 0.29821 0.38967
 C794 C 0.05840 0.29240 0.37260
 C795 C 0.04523 0.30181 0.36301
 C796 C 0.03724 0.31729 0.37026
 C797 C 0.04276 0.32318 0.38729
 C798 C 0.05588 0.31370 0.39691
 C799 C 0.07754 0.28794 0.39995
 C800 C 0.07510 0.28462 0.41835
 C801 C 0.08768 0.27438 0.42788
 C802 C 0.10301 0.26728 0.41924
 C803 C 0.10558 0.27086 0.40089
 C804 C 0.09297 0.28105 0.39135
 C805 C 0.11606 0.25587 0.42922
 C806 C 0.12359 0.24058 0.42113
 C807 C 0.13555 0.22960 0.43060
 C808 C 0.14024 0.23361 0.44840
 C809 C 0.13283 0.24897 0.45645
 C810 C 0.12088 0.25998 0.44697
 H811 H 0.06412 0.28038 0.36677
 H812 H 0.04127 0.29691 0.34994
 H813 H 0.03688 0.33507 0.39323
 H814 H 0.05993 0.31858 0.40997
 H815 H 0.06322 0.28957 0.42527
 H816 H 0.08516 0.27165 0.44193
 H817 H 0.11741 0.26587 0.39392
 H818 H 0.09534 0.28363 0.37725
 H819 H 0.12000 0.23692 0.40756
 H820 H 0.14119 0.21798 0.42395
 H821 H 0.13602 0.25233 0.47020
 H822 H 0.11547 0.27177 0.45351
 C823 C 0.06406 0.70115 0.60943
 C824 C 0.05487 0.68661 0.60168
 C825 C 0.04221 0.67679 0.61162
 C826 C 0.03835 0.68142 0.62948
 C827 C 0.04762 0.69591 0.63726
 C828 C 0.06041 0.70562 0.62736
 C829 C 0.07715 0.71185 0.59876
 C830 C 0.09386 0.71703 0.60611
 C831 C 0.10602 0.72743 0.59614
 C832 C 0.10161 0.73303 0.57869
 C833 C 0.08494 0.72778 0.57130
 C834 C 0.07286 0.71723 0.58121
 C835 C 0.11420 0.74459 0.56833
 C836 C 0.10763 0.75957 0.55894
 C837 C 0.11948 0.77068 0.54939
 C838 C 0.13812 0.76694 0.54891
 C839 C 0.14468 0.75186 0.55816
 C840 C 0.13285 0.74085 0.56787
 H841 H 0.05755 0.68278 0.58793
 H842 H 0.03529 0.66570 0.60525
 H843 H 0.04496 0.69980 0.65099
 H844 H 0.06717 0.71688 0.63361
 H845 H 0.09755 0.71295 0.61956
 H846 H 0.11872 0.73141 0.60219
 H847 H 0.08127 0.73179 0.55783
 H848 H 0.06001 0.71355 0.57527
 H849 H 0.09335 0.76285 0.55920
 H850 H 0.11405 0.78212 0.54224
 H851 H 0.15901 0.74875 0.55808
 H852 H 0.13824 0.72931 0.57489
 C853 C 0.93305 0.69611 0.39610
 C854 C 0.93596 0.70085 0.37808
 C855 C 0.94895 0.69189 0.36784
 C856 C 0.95917 0.67787 0.37534
 C857 C 0.95602 0.67291 0.39327
 C858 C 0.94315 0.68201 0.40357
 C859 C 0.91993 0.70627 0.40716
 C860 C 0.92471 0.71209 0.42441
 C861 C 0.91282 0.72265 0.43443
 C862 C 0.89583 0.72744 0.42746
 C863 C 0.89084 0.72122 0.41041
 C864 C 0.90282 0.71082 0.40031
 C865 C 0.88368 0.73954 0.43762
 C866 C 0.86503 0.73594 0.43895
 C867 C 0.85357 0.74772 0.44810
 C868 C 0.86052 0.76344 0.45585
 C869 C 0.87918 0.76695 0.45461
 C870 C 0.89065 0.75509 0.44567
 H871 H 0.92850 0.71179 0.37205
 H872 H 0.95104 0.69600 0.35405
 H873 H 0.96368 0.66217 0.39942
 H874 H 0.94107 0.67801 0.41739
 H875 H 0.93787 0.70889 0.42995
 H876 H 0.91693 0.72716 0.44760
 H877 H 0.87788 0.72484 0.40467
 H878 H 0.89876 0.70639 0.38709
 H879 H 0.85934 0.72398 0.43295
 H880 H 0.83921 0.74476 0.44881
 H881 H 0.88489 0.77889 0.46063
 H882 H 0.90494 0.75827 0.44470
 C883 C 0.93867 0.29420 0.61119
 C884 C 0.94835 0.30828 0.60301
 C885 C 0.96085 0.31834 0.61280
 C886 C 0.96411 0.31442 0.63094
 C887 C 0.95437 0.30046 0.63917
 C888 C 0.94171 0.29053 0.62944
 C889 C 0.92568 0.28319 0.60068
 C890 C 0.92414 0.26465 0.60379
 C891 C 0.91206 0.25426 0.59385
 C892 C 0.90133 0.26210 0.58041
 C893 C 0.90287 0.28065 0.57728
 C894 C 0.91485 0.29107 0.58734
 C895 C 0.88861 0.25098 0.56972
 C896 C 0.87164 0.25776 0.56454
 C897 C 0.85968 0.24727 0.55454
 C898 C 0.86432 0.22967 0.54960
 C899 C 0.88128 0.22289 0.55479
 C900 C 0.89330 0.23344 0.56464
 H901 H 0.94656 0.31130 0.58893
 H902 H 0.96825 0.32895 0.60606
 H903 H 0.95648 0.29722 0.65318
 H904 H 0.93425 0.28003 0.63627
 H905 H 0.93246 0.25808 0.61377
 H906 H 0.91104 0.24007 0.59681
 H907 H 0.89499 0.28710 0.56689
 H908 H 0.91551 0.30535 0.58473
 H909 H 0.86747 0.27112 0.56839
 H910 H 0.84683 0.25301 0.55056
 H911 H 0.88521 0.20933 0.55143
 H912 H 0.90636 0.22787 0.56817
 C913 C 0.38969 0.06246 0.29608
 C914 C 0.37217 0.05732 0.29081
 C915 C 0.36250 0.04448 0.30059
 C916 C 0.37008 0.03654 0.31593
 C917 C 0.38747 0.04189 0.32141
 C918 C 0.39718 0.05469 0.31157
 C919 C 0.40024 0.07558 0.28521
 C920 C 0.41127 0.08851 0.29350
 C921 C 0.42133 0.10067 0.28319
 C922 C 0.42057 0.10017 0.26436
 C923 C 0.40946 0.08730 0.25611
 C924 C 0.39946 0.07514 0.26639
 C925 C 0.43134 0.11295 0.25332
 C926 C 0.43965 0.10721 0.23736
 C927 C 0.44937 0.11925 0.22667
 C928 C 0.45110 0.13730 0.23172
 C929 C 0.44306 0.14302 0.24781
 C930 C 0.43325 0.13098 0.25848
 H931 H 0.36587 0.06328 0.27913
 H932 H 0.34908 0.04075 0.29608
 H933 H 0.39371 0.03598 0.33314
 H934 H 0.41073 0.05818 0.31587
 H935 H 0.41203 0.08933 0.30797
 H936 H 0.42988 0.11031 0.28997
 H937 H 0.40837 0.08671 0.24165
 H938 H 0.39129 0.06521 0.25957
 H939 H 0.43877 0.09333 0.23319
 H940 H 0.45571 0.11439 0.21452
 H941 H 0.44403 0.15690 0.25193
 H942 H 0.42683 0.13588 0.27057
 C943 C 0.60894 0.06195 0.70527
 C944 C 0.60454 0.05878 0.68720
 C945 C 0.61421 0.04620 0.67714
 C946 C 0.62863 0.03664 0.68486
 C947 C 0.63310 0.03987 0.70286
 C948 C 0.62332 0.05228 0.71297
 C949 C 0.59854 0.07517 0.71611
 C950 C 0.60729 0.08572 0.72909
 C951 C 0.59749 0.09779 0.73961
 C952 C 0.57870 0.09978 0.73731
 C953 C 0.56998 0.08940 0.72417
 C954 C 0.57976 0.07720 0.71376
 C955 C 0.56824 0.11250 0.74868
 C956 C 0.55060 0.10824 0.75446
 C957 C 0.54085 0.12010 0.76527
 C958 C 0.54855 0.13646 0.77075
 C959 C 0.56619 0.14071 0.76498
 C960 C 0.57587 0.12893 0.75402
 H961 H 0.59376 0.06618 0.68074
 H962 H 0.61052 0.04408 0.66326
 H963 H 0.64404 0.03260 0.70924
 H964 H 0.62686 0.05408 0.72692
 H965 H 0.62177 0.08474 0.73110
 H966 H 0.60464 0.10536 0.74974
 H967 H 0.55558 0.09076 0.72182
 H968 H 0.57252 0.06916 0.70406
 H969 H 0.54437 0.09562 0.75084
 H970 H 0.52721 0.11649 0.76922
 H971 H 0.57265 0.15306 0.76911
 H972 H 0.58931 0.13279 0.74963
 C973 C 0.38706 0.93768 0.70386
 C974 C 0.39563 0.94676 0.68962
 C975 C 0.38614 0.95927 0.67932
 C976 C 0.36792 0.96316 0.68313
 C977 C 0.35930 0.95403 0.69727
 C978 C 0.36873 0.94137 0.70745
 C979 C 0.39730 0.92466 0.71508
 C980 C 0.39414 0.92349 0.73365
 C981 C 0.40394 0.91146 0.74424
 C982 C 0.41726 0.90039 0.73658
 C983 C 0.42041 0.90155 0.71802
 C984 C 0.41050 0.91347 0.70739
 C985 C 0.42789 0.88778 0.74792
 C986 C 0.43288 0.87081 0.74139
 C987 C 0.44294 0.85901 0.75200
 C988 C 0.44812 0.86380 0.76948
 C989 C 0.44308 0.88074 0.77603
 C990 C 0.43316 0.89261 0.76536
 H991 H 0.40980 0.94450 0.68665
 H992 H 0.39320 0.96619 0.66860
 H993 H 0.34523 0.95665 0.70045
 H994 H 0.36160 0.93440 0.71809
 H995 H 0.38427 0.93206 0.74008
 H996 H 0.40096 0.91075 0.75844
 H997 H 0.43072 0.89341 0.71168
 H998 H 0.41314 0.91383 0.69312
 H999 H 0.42887 0.86654 0.72812
 H1000 H 0.44679 0.84618 0.74642
 H1001 H 0.44662 0.88480 0.78950
 H1002 H 0.42979 0.90565 0.77075
 C1003 C 0.61616 0.93719 0.29133
 C1004 C 0.61224 0.93975 0.30960
 C1005 C 0.62198 0.95220 0.31970
 C1006 C 0.63602 0.96223 0.31182
 C1007 C 0.64021 0.95946 0.29366
 C1008 C 0.63032 0.94715 0.28351
 C1009 C 0.60535 0.92440 0.28042
 C1010 C 0.61359 0.91417 0.26686
 C1011 C 0.60335 0.90242 0.25641
 C1012 C 0.58463 0.90045 0.25936
 C1013 C 0.57641 0.91057 0.27301
 C1014 C 0.58662 0.92246 0.28334
 C1015 C 0.57371 0.88794 0.24825
 C1016 C 0.55592 0.89234 0.24318
 C1017 C 0.54564 0.88055 0.23281
 C1018 C 0.55294 0.86412 0.22710
 C1019 C 0.57077 0.85976 0.23207
 C1020 C 0.58098 0.87148 0.24259
 H1021 H 0.60168 0.93206 0.31616
 H1022 H 0.61855 0.95395 0.33371
 H1023 H 0.65087 0.96709 0.28719
 H1024 H 0.63353 0.94576 0.26941
 H1025 H 0.62801 0.91515 0.26438
 H1026 H 0.61009 0.89502 0.24587
 H1027 H 0.56209 0.90923 0.27584
 H1028 H 0.57976 0.93030 0.29348
 H1029 H 0.54996 0.90501 0.24708
 H1030 H 0.53188 0.88424 0.22943
 H1031 H 0.57693 0.84735 0.22770
 H1032 H 0.59454 0.86753 0.24643
 C1033 C 0.38615 0.29345 0.93880
 C1034 C 0.37196 0.28559 0.94869
 C1035 C 0.36219 0.29564 0.96118
 C1036 C 0.36651 0.31372 0.96424
 C1037 C 0.38066 0.32162 0.95437
 C1038 C 0.39030 0.31163 0.94172
 C1039 C 0.39670 0.28265 0.92567
 C1040 C 0.41544 0.28535 0.92354
 C1041 C 0.42538 0.27505 0.91139
 C1042 C 0.41689 0.26164 0.90117
 C1043 C 0.39814 0.25896 0.90328
 C1044 C 0.38817 0.26938 0.91529
 C1045 C 0.42754 0.25044 0.88847
 C1046 C 0.42002 0.24493 0.87207
 C1047 C 0.42993 0.23422 0.86026
 C1048 C 0.44769 0.22887 0.86445
 C1049 C 0.45526 0.23449 0.88079
 C1050 C 0.44528 0.24505 0.89269
 H1051 H 0.36859 0.27156 0.94705
 H1052 H 0.35145 0.28913 0.96869
 H1053 H 0.38422 0.33557 0.95635
 H1054 H 0.40091 0.31821 0.93413
 H1055 H 0.42252 0.29528 0.93146
 H1056 H 0.43974 0.27768 0.90995
 H1057 H 0.39117 0.24861 0.89582
 H1058 H 0.37372 0.26709 0.91637
 H1059 H 0.40650 0.24901 0.86825
 H1060 H 0.42357 0.22996 0.84791
 H1061 H 0.46898 0.23085 0.88436
 H1062 H 0.45143 0.24882 0.90529
 C1063 C 0.61120 0.70535 0.93686
 C1064 C 0.60332 0.69070 0.94590
 C1065 C 0.61341 0.68060 0.95813
 C1066 C 0.63155 0.68500 0.96171
 C1067 C 0.63949 0.69952 0.95257
 C1068 C 0.62947 0.70951 0.94022
 C1069 C 0.60036 0.71641 0.92419
 C1070 C 0.60286 0.73509 0.92329
 C1071 C 0.59267 0.74553 0.91146
 C1072 C 0.57959 0.73759 0.90033
 C1073 C 0.57704 0.71892 0.90125
 C1074 C 0.58734 0.70845 0.91299
 C1075 C 0.56870 0.74876 0.88779
 C1076 C 0.56416 0.74235 0.87066
 C1077 C 0.55407 0.75291 0.85884
 C1078 C 0.54839 0.77020 0.86378
 C1079 C 0.55290 0.77659 0.88092
 C1080 C 0.56286 0.76598 0.89279
 H1081 H 0.58922 0.68727 0.94385
 H1082 H 0.60687 0.66956 0.96505
 H1083 H 0.65349 0.70316 0.95493
 H1084 H 0.63608 0.72046 0.93324
 H1085 H 0.61257 0.74172 0.93189
 H1086 H 0.59518 0.75983 0.91093
 H1087 H 0.56694 0.71237 0.89304
 H1088 H 0.58519 0.69409 0.91318
 H1089 H 0.56860 0.72925 0.86627
 H1090 H 0.55063 0.74746 0.84584
 H1091 H 0.54895 0.78992 0.88510
 H1092 H 0.56589 0.77125 0.90596
 C1093 C 0.39067 0.70491 0.06137
 C1094 C 0.37643 0.71268 0.05156
 C1095 C 0.36660 0.70255 0.03923
 C1096 C 0.37088 0.68446 0.03623
 C1097 C 0.38513 0.67666 0.04596
 C1098 C 0.39485 0.68674 0.05846
 C1099 C 0.40117 0.71577 0.07445
 C1100 C 0.41993 0.71325 0.07646
 C1101 C 0.42981 0.72365 0.08857
 C1102 C 0.42122 0.73695 0.09885
 C1103 C 0.40245 0.73943 0.09686
 C1104 C 0.39254 0.72892 0.08490
 C1105 C 0.43177 0.74828 0.11148
 C1106 C 0.42424 0.75367 0.12793
 C1107 C 0.43402 0.76459 0.13964
 C1108 C 0.45167 0.77024 0.13529
 C1109 C 0.45928 0.76472 0.11892
 C1110 C 0.44942 0.75395 0.10713
 H1111 H 0.37306 0.72671 0.05319
 H1112 H 0.35579 0.70899 0.03183
 H1113 H 0.38867 0.66271 0.04402
 H1114 H 0.40552 0.68024 0.06598
 H1115 H 0.42707 0.70341 0.06849
 H1116 H 0.44419 0.72119 0.08993
 H1117 H 0.39541 0.74969 0.10437
 H1118 H 0.37808 0.73106 0.08390
 H1119 H 0.41079 0.74937 0.13184
 H1120 H 0.42764 0.76876 0.15202
 H1121 H 0.47293 0.76860 0.11525
 H1122 H 0.45558 0.75026 0.09448
 C1123 C 0.60816 0.30135 0.06547
 C1124 C 0.60025 0.31646 0.05738
 C1125 C 0.60954 0.32605 0.04411
 C1126 C 0.62690 0.32065 0.03855
 C1127 C 0.63485 0.30559 0.04671
 C1128 C 0.62560 0.29608 0.06007
 C1129 C 0.59815 0.29089 0.07923
 C1130 C 0.60700 0.28461 0.09467
 C1131 C 0.59769 0.27428 0.10735
 C1132 C 0.57933 0.26990 0.10483
 C1133 C 0.57044 0.27637 0.08946
 C1134 C 0.57973 0.28678 0.07683
 C1135 C 0.56961 0.25825 0.11791
 C1136 C 0.55136 0.26146 0.12224
 C1137 C 0.54204 0.25005 0.13397
 C1138 C 0.55078 0.23519 0.14168
 C1139 C 0.56912 0.23217 0.13760
 C1140 C 0.57841 0.24353 0.12583
 H1141 H 0.58690 0.32093 0.06141
 H1142 H 0.60305 0.33760 0.03810
 H1143 H 0.64820 0.30108 0.04273
 H1144 H 0.63195 0.28438 0.06592
 H1145 H 0.62112 0.28780 0.09699
 H1146 H 0.60485 0.26979 0.11919
 H1147 H 0.55641 0.27299 0.08694
 H1148 H 0.57263 0.29123 0.06494
 H1149 H 0.54424 0.27281 0.11655
 H1150 H 0.52788 0.25266 0.13668
 H1151 H 0.57632 0.22098 0.14350
 H1152 H 0.59240 0.24055 0.12265
 C1153 C 0.29763 0.06496 0.60912
 C1154 C 0.29230 0.06038 0.62665
 C1155 C 0.30176 0.04740 0.63636
 C1156 C 0.31685 0.03876 0.62882
 C1157 C 0.32242 0.04356 0.61143
 C1158 C 0.31289 0.05649 0.60167
 C1159 C 0.28702 0.07816 0.59853
 C1160 C 0.29571 0.09056 0.58716
 C1161 C 0.28561 0.10277 0.57704
 C1162 C 0.26659 0.10286 0.57806
 C1163 C 0.25793 0.09054 0.58953
 C1164 C 0.26801 0.07832 0.59959
 C1165 C 0.25572 0.11563 0.56720
 C1166 C 0.23932 0.11010 0.55942
 C1167 C 0.22871 0.12218 0.54975
 C1168 C 0.23428 0.14007 0.54755
 C1169 C 0.25085 0.14556 0.55497
 C1170 C 0.26145 0.13347 0.56475
 H1171 H 0.28081 0.06687 0.63290
 H1172 H 0.29721 0.04411 0.64978
 H1173 H 0.33397 0.03711 0.60523
 H1174 H 0.31722 0.05955 0.58813
 H1175 H 0.31035 0.09091 0.58618
 H1176 H 0.29268 0.11198 0.56822
 H1177 H 0.24332 0.09042 0.59084
 H1178 H 0.26087 0.06881 0.60802
 H1179 H 0.23472 0.09636 0.56070
 H1180 H 0.21617 0.11750 0.54387
 H1181 H 0.25538 0.15931 0.55359
 H1182 H 0.27391 0.13821 0.57075
 C1183 C 0.70735 0.06066 0.38736
 C1184 C 0.69145 0.05280 0.39421
 C1185 C 0.68159 0.04048 0.38402
 C1186 C 0.68754 0.03549 0.36679
 C1187 C 0.70338 0.04351 0.35990
 C1188 C 0.71305 0.05601 0.36999
 C1189 C 0.71811 0.07343 0.39835
 C1190 C 0.73714 0.07357 0.39732
 C1191 C 0.74729 0.08555 0.40758
 C1192 C 0.73871 0.09755 0.41936
 C1193 C 0.71969 0.09734 0.42049
 C1194 C 0.70952 0.08551 0.41004
 C1195 C 0.74958 0.11025 0.43034
 C1196 C 0.74322 0.12765 0.43386
 C1197 C 0.75352 0.13962 0.44401
 C1198 C 0.77057 0.13458 0.45070
 C1199 C 0.77693 0.11717 0.44720
 C1200 C 0.76652 0.10513 0.43726
 H1201 H 0.68678 0.05584 0.40762
 H1202 H 0.66951 0.03460 0.38986
 H1203 H 0.70835 0.04020 0.34664
 H1204 H 0.72499 0.06209 0.36411
 H1205 H 0.74426 0.06428 0.38869
 H1206 H 0.76188 0.08550 0.40612
 H1207 H 0.71262 0.10621 0.42958
 H1208 H 0.69490 0.08596 0.41104
 H1209 H 0.73036 0.13216 0.42857
 H1210 H 0.74805 0.15281 0.44667
 H1211 H 0.79008 0.11288 0.45192
 H1212 H 0.77175 0.09175 0.43508
 C1213 C 0.70426 0.93961 0.60967
 C1214 C 0.70976 0.94489 0.62690
 C1215 C 0.69959 0.95723 0.63672
 C1216 C 0.68360 0.96454 0.62959
 C1217 C 0.67794 0.95910 0.61246
 C1218 C 0.68817 0.94679 0.60260
 C1219 C 0.71540 0.92684 0.59909
 C1220 C 0.70717 0.91353 0.58854
 C1221 C 0.71772 0.90149 0.57868
 C1222 C 0.73674 0.90246 0.57916
 C1223 C 0.74494 0.91579 0.58970
 C1224 C 0.73441 0.92785 0.59950
 C1225 C 0.74802 0.88961 0.56883
 C1226 C 0.76402 0.89536 0.56030
 C1227 C 0.77490 0.88321 0.55099
 C1228 C 0.77000 0.86504 0.54991
 C1229 C 0.75391 0.85929 0.55822
 C1230 C 0.74306 0.87143 0.56761
 H1231 H 0.72190 0.93938 0.63288
 H1232 H 0.70427 0.96104 0.64993
 H1233 H 0.66571 0.96452 0.60657
 H1234 H 0.68366 0.94317 0.58929
 H1235 H 0.69257 0.91228 0.58806
 H1236 H 0.71097 0.89151 0.57055
 H1237 H 0.75955 0.91679 0.59055
 H1238 H 0.74118 0.93808 0.60729
 H1239 H 0.76805 0.90932 0.56068
 H1240 H 0.78707 0.88808 0.54445
 H1241 H 0.74991 0.84532 0.55778
 H1242 H 0.73097 0.86651 0.57424
 C1243 C 0.29644 0.93491 0.38756
 C1244 C 0.31202 0.94267 0.39509
 C1245 C 0.32205 0.95545 0.38555
 C1246 C 0.31666 0.96080 0.36828
 C1247 C 0.30122 0.95288 0.36066
 C1248 C 0.29125 0.94005 0.37016
 C1249 C 0.28538 0.92181 0.39793
 C1250 C 0.26637 0.92229 0.39704
 C1251 C 0.25591 0.91019 0.40695
 C1252 C 0.26419 0.89736 0.41806
 C1253 C 0.28320 0.89681 0.41890
 C1254 C 0.29368 0.90890 0.40894
 C1255 C 0.25297 0.88470 0.42880
 C1256 C 0.25816 0.86668 0.43087
 C1257 C 0.24739 0.85476 0.44075
 C1258 C 0.23117 0.86061 0.44868
 C1259 C 0.22606 0.87864 0.44674
 C1260 C 0.23685 0.89056 0.43695
 H1261 H 0.31625 0.93918 0.40854
 H1262 H 0.33385 0.96135 0.39182
 H1263 H 0.29678 0.95661 0.34733
 H1264 H 0.27951 0.93411 0.36384
 H1265 H 0.25954 0.93220 0.38887
 H1266 H 0.24131 0.91082 0.40580
 H1267 H 0.28999 0.88721 0.42747
 H1268 H 0.30830 0.90805 0.40978
 H1269 H 0.27037 0.86168 0.42456
 H1270 H 0.25156 0.84089 0.44187
 H1271 H 0.21380 0.88359 0.45298
 H1272 H 0.23265 0.90443 0.43594
 C1273 C 0.06352 0.38762 0.70556
 C1274 C 0.05462 0.39560 0.69093
 C1275 C 0.04227 0.38579 0.68071
 C1276 C 0.03843 0.36782 0.68497
 C1277 C 0.04743 0.35978 0.69948
 C1278 C 0.05989 0.36954 0.70961
 C1279 C 0.07631 0.39819 0.71671
 C1280 C 0.07683 0.39580 0.73540
 C1281 C 0.08871 0.40584 0.74593
 C1282 C 0.10027 0.41862 0.73804
 C1283 C 0.09975 0.42102 0.71935
 C1284 C 0.08795 0.41089 0.70881
 C1285 C 0.11282 0.42939 0.74927
 C1286 C 0.13036 0.43351 0.74315
 C1287 C 0.14217 0.44357 0.75373
 C1288 C 0.13678 0.44966 0.77075
 C1289 C 0.11924 0.44555 0.77687
 C1290 C 0.10738 0.43559 0.76623
 H1291 H 0.05689 0.40957 0.68760
 H1292 H 0.03547 0.39240 0.66967
 H1293 H 0.04485 0.34591 0.70302
 H1294 H 0.06675 0.36289 0.72058
 H1295 H 0.06788 0.38631 0.74196
 H1296 H 0.08893 0.40348 0.76025
 H1297 H 0.10832 0.43089 0.71286
 H1298 H 0.08805 0.41293 0.69443
 H1299 H 0.13506 0.42878 0.73025
 H1300 H 0.15551 0.44670 0.74851
 H1301 H 0.11472 0.44984 0.78998
 H1302 H 0.09388 0.43286 0.77126
 C1303 C 0.05999 0.61103 0.29632
 C1304 C 0.05548 0.62900 0.29268
 C1305 C 0.04283 0.63804 0.30329
 C1306 C 0.03452 0.62937 0.31790
 C1307 C 0.03918 0.61150 0.32170
 C1308 C 0.05169 0.60242 0.31100
 C1309 C 0.07309 0.60121 0.28477
 C1310 C 0.08517 0.58871 0.29225
 C1311 C 0.09716 0.57917 0.28136
 C1312 C 0.09752 0.58200 0.26271
 C1313 C 0.08556 0.59464 0.25525
 C1314 C 0.07346 0.60407 0.26613
 C1315 C 0.11023 0.57175 0.25112
 C1316 C 0.10492 0.56596 0.23398
 C1317 C 0.11686 0.55630 0.22312
 C1318 C 0.13437 0.55205 0.22918
 C1319 C 0.13965 0.55779 0.24633
 C1320 C 0.12778 0.56759 0.25712
 H1321 H 0.06183 0.63615 0.28169
 H1322 H 0.03959 0.65183 0.30008
 H1323 H 0.03291 0.60441 0.33278
 H1324 H 0.05458 0.58851 0.31402
 H1325 H 0.08544 0.58634 0.30657
 H1326 H 0.10600 0.56939 0.28755
 H1327 H 0.08563 0.59735 0.24099
 H1328 H 0.06420 0.61342 0.25987
 H1329 H 0.09144 0.56871 0.22901
 H1330 H 0.11240 0.55230 0.20990
 H1331 H 0.15293 0.55456 0.25154
 H1332 H 0.13243 0.57203 0.27013
 C1333 C 0.93620 0.38861 0.29555
 C1334 C 0.94631 0.37472 0.28768
 C1335 C 0.95902 0.36514 0.29771
 C1336 C 0.96207 0.36935 0.31580
 C1337 C 0.95198 0.38320 0.32372
 C1338 C 0.93912 0.39266 0.31373
 C1339 C 0.92286 0.39895 0.28475
 C1340 C 0.92063 0.41748 0.28740
 C1341 C 0.90840 0.42726 0.27698
 C1342 C 0.89820 0.41880 0.26351
 C1343 C 0.90036 0.40025 0.26093
 C1344 C 0.91246 0.39044 0.27147
 C1345 C 0.88556 0.42929 0.25206
 C1346 C 0.86906 0.42182 0.24634
 C1347 C 0.85737 0.43156 0.23528
 C1348 C 0.86180 0.44908 0.22979
 C1349 C 0.87822 0.45661 0.23566
 C1350 C 0.88998 0.44682 0.24657
 H1351 H 0.94469 0.37144 0.27365
 H1352 H 0.96668 0.35464 0.29119
 H1353 H 0.95395 0.38667 0.33767
 H1354 H 0.93136 0.40305 0.32032
 H1355 H 0.92855 0.42453 0.29735
 H1356 H 0.90689 0.44146 0.27954
 H1357 H 0.89292 0.39331 0.25055
 H1358 H 0.91362 0.37615 0.26922
 H1359 H 0.86508 0.40846 0.25049
 H1360 H 0.84495 0.42524 0.23085
 H1361 H 0.88195 0.47016 0.23193
 H1362 H 0.90267 0.45292 0.25050
 C1363 C 0.93821 0.60869 0.70473
 C1364 C 0.94518 0.60167 0.68866
 C1365 C 0.95785 0.61135 0.67857
 C1366 C 0.96388 0.62826 0.68436
 C1367 C 0.95679 0.63536 0.70033
 C1368 C 0.94408 0.62570 0.71037
 C1369 C 0.92507 0.59821 0.71569
 C1370 C 0.92622 0.59822 0.73450
 C1371 C 0.91399 0.58829 0.74484
 C1372 C 0.90034 0.57804 0.73663
 C1373 C 0.89917 0.57804 0.71782
 C1374 C 0.91138 0.58802 0.70747
 C1375 C 0.88743 0.56739 0.74768
 C1376 C 0.86902 0.56629 0.74296
 C1377 C 0.85687 0.55643 0.75349
 C1378 C 0.86284 0.54752 0.76901
 C1379 C 0.88124 0.54853 0.77367
 C1380 C 0.89340 0.55832 0.76311
 H1381 H 0.94113 0.58850 0.68405
 H1382 H 0.96309 0.60548 0.66636
 H1383 H 0.96107 0.64839 0.70510
 H1384 H 0.93876 0.63163 0.72252
 H1385 H 0.93674 0.60574 0.74125
 H1386 H 0.91514 0.58877 0.75930
 H1387 H 0.88894 0.57015 0.71107
 H1388 H 0.91001 0.58787 0.69302
 H1389 H 0.86393 0.57334 0.73131
 H1390 H 0.84272 0.55607 0.74969
 H1391 H 0.88628 0.54155 0.78539
 H1392 H 0.90754 0.55860 0.76693
 C1393 C 0.70536 0.61106 0.93704
 C1394 C 0.71098 0.62841 0.94189
 C1395 C 0.70109 0.63843 0.95430
 C1396 C 0.68515 0.63147 0.96207
 C1397 C 0.67930 0.61426 0.95688
 C1398 C 0.68934 0.60416 0.94463
 C1399 C 0.71632 0.60014 0.92435
 C1400 C 0.70790 0.58863 0.91198
 C1401 C 0.71825 0.57823 0.90023
 C1402 C 0.73728 0.57921 0.90042
 C1403 C 0.74568 0.59080 0.91271
 C1404 C 0.73535 0.60104 0.92458
 C1405 C 0.74833 0.56825 0.88783
 C1406 C 0.76501 0.56097 0.89327
 C1407 C 0.77555 0.55098 0.88135
 C1408 C 0.76960 0.54783 0.86374
 C1409 C 0.75281 0.55493 0.85838
 C1410 C 0.74236 0.56508 0.87023
 H1411 H 0.72302 0.63432 0.93604
 H1412 H 0.70600 0.65167 0.95778
 H1413 H 0.66715 0.60836 0.96256
 H1414 H 0.68473 0.59077 0.94141
 H1415 H 0.69329 0.58774 0.91126
 H1416 H 0.71130 0.56929 0.89112
 H1417 H 0.76028 0.59211 0.91308
 H1418 H 0.74233 0.60954 0.93408
 H1419 H 0.76992 0.56290 0.90679
 H1420 H 0.78849 0.54593 0.88590
 H1421 H 0.74765 0.55255 0.84501
 H1422 H 0.72971 0.57065 0.86549
 C1423 C 0.29387 0.38737 0.93874
 C1424 C 0.31025 0.39407 0.94560
 C1425 C 0.32011 0.38429 0.95825
 C1426 C 0.31379 0.36755 0.96447
 C1427 C 0.29747 0.36078 0.95743
 C1428 C 0.28768 0.37055 0.94472
 C1429 C 0.28314 0.39801 0.92565
 C1430 C 0.26413 0.39840 0.92673
 C1431 C 0.25401 0.40854 0.91458
 C1432 C 0.26265 0.41861 0.90108
 C1433 C 0.28166 0.41818 0.89995
 C1434 C 0.29178 0.40799 0.91208
 C1435 C 0.25183 0.42952 0.88828
 C1436 C 0.25676 0.43061 0.87008
 C1437 C 0.24642 0.44068 0.85804
 C1438 C 0.23088 0.44982 0.86390
 C1439 C 0.22601 0.44884 0.88209
 C1440 C 0.23639 0.43886 0.89414
 H1441 H 0.31529 0.40709 0.94147
 H1442 H 0.33258 0.39002 0.96332
 H1443 H 0.29216 0.34792 0.96173
 H1444 H 0.27527 0.36486 0.93948
 H1445 H 0.25705 0.39106 0.93714
 H1446 H 0.23939 0.40837 0.91568
 H1447 H 0.28874 0.42592 0.88984
 H1448 H 0.30638 0.40782 0.91074
 H1449 H 0.26842 0.42337 0.86507
 H1450 H 0.25037 0.44102 0.84405
 H1451 H 0.21427 0.45599 0.88704
 H1452 H 0.23241 0.43860 0.90812
 C1453 C 0.29792 0.61176 0.06413
 C1454 C 0.29181 0.62853 0.05806
 C1455 C 0.30151 0.63803 0.04502
 C1456 C 0.31768 0.63103 0.03781
 C1457 C 0.32390 0.61433 0.04416
 C1458 C 0.31410 0.60480 0.05710
 C1459 C 0.28727 0.60143 0.07752
 C1460 C 0.28444 0.58293 0.07528
 C1461 C 0.27395 0.57327 0.08758
 C1462 C 0.26612 0.58187 0.10245
 C1463 C 0.26917 0.60034 0.10479
 C1464 C 0.27957 0.61002 0.09243
 C1465 C 0.25454 0.57168 0.11526
 C1466 C 0.23883 0.57948 0.12249
 C1467 C 0.22770 0.56980 0.13420
 C1468 C 0.23196 0.55203 0.13892
 C1469 C 0.24774 0.54426 0.13180
 C1470 C 0.25892 0.55398 0.12014
 H1471 H 0.27928 0.63413 0.06312
 H1472 H 0.29622 0.65082 0.04054
 H1473 H 0.33629 0.60847 0.03904
 H1474 H 0.31923 0.59199 0.06170
 H1475 H 0.29000 0.57601 0.06378
 H1476 H 0.27162 0.55914 0.08520
 H1477 H 0.26361 0.60731 0.11627
 H1478 H 0.28174 0.62421 0.09462
 H1479 H 0.23493 0.59300 0.11886
 H1480 H 0.21578 0.57627 0.13963
 H1481 H 0.25132 0.53055 0.13500
 H1482 H 0.27103 0.54763 0.11499
 C1483 C 0.70071 0.39360 0.06011
 C1484 C 0.70662 0.37672 0.05418
 C1485 C 0.69649 0.36693 0.04178
 C1486 C 0.68003 0.37370 0.03504
 C1487 C 0.67400 0.39052 0.04119
 C1488 C 0.68424 0.40035 0.05352
 C1489 C 0.71182 0.40415 0.07299
 C1490 C 0.70357 0.41430 0.08662
 C1491 C 0.71409 0.42409 0.09875
 C1492 C 0.73311 0.42392 0.09759
 C1493 C 0.74133 0.41378 0.08396
 C1494 C 0.73083 0.40408 0.07179
 C1495 C 0.74439 0.43416 0.11056
 C1496 C 0.76041 0.44272 0.10490
 C1497 C 0.77136 0.45181 0.11715
 C1498 C 0.76649 0.45271 0.13533
 C1499 C 0.75033 0.44447 0.14099
 C1500 C 0.73944 0.43524 0.12875
 H1501 H 0.71906 0.37094 0.05923
 H1502 H 0.70160 0.35401 0.03755
 H1503 H 0.66145 0.39625 0.03635
 H1504 H 0.67939 0.41341 0.05763
 H1505 H 0.68898 0.41451 0.08806
 H1506 H 0.70730 0.43191 0.10894
 H1507 H 0.75593 0.41313 0.08279
 H1508 H 0.73764 0.39663 0.06133
 H1509 H 0.76446 0.44250 0.09094
 H1510 H 0.78358 0.45831 0.11236
 H1511 H 0.74635 0.44480 0.15496
 H1512 H 0.72734 0.42860 0.13364
 C1513 C 0.93886 0.70413 0.61350
 C1514 C 0.94561 0.68822 0.60592
 C1515 C 0.95805 0.67759 0.61522
 C1516 C 0.96430 0.68271 0.63230
 C1517 C 0.95740 0.69856 0.63993
 C1518 C 0.94479 0.70904 0.63071
 C1519 C 0.92595 0.71569 0.60340
 C1520 C 0.92682 0.73448 0.60481
 C1521 C 0.91483 0.74537 0.59524
 C1522 C 0.90178 0.73779 0.58382
 C1523 C 0.90092 0.71900 0.58239
 C1524 C 0.91278 0.70810 0.59212
 C1525 C 0.88921 0.74943 0.57338
 C1526 C 0.87122 0.74409 0.57024
 C1527 C 0.85950 0.75495 0.56032
 C1528 C 0.86537 0.77155 0.55344
 C1529 C 0.88333 0.77695 0.55669
 C1530 C 0.89511 0.76599 0.56643
 H1531 H 0.94159 0.68414 0.59259
 H1532 H 0.96304 0.66554 0.60881
 H1533 H 0.96171 0.70294 0.65309
 H1534 H 0.93961 0.72097 0.63715
 H1535 H 0.93694 0.74085 0.61314
 H1536 H 0.91574 0.75976 0.59692
 H1537 H 0.89123 0.71266 0.57356
 H1538 H 0.91152 0.69369 0.59087
 H1539 H 0.86610 0.73155 0.57558
 H1540 H 0.84586 0.75020 0.55788
 H1541 H 0.88829 0.78974 0.55184
 H1542 H 0.90893 0.77046 0.56833
 C1543 C 0.93668 0.29577 0.38823
 C1544 C 0.94294 0.29003 0.37139
 C1545 C 0.95576 0.30008 0.36188
 C1546 C 0.96260 0.31624 0.36891
 C1547 C 0.95607 0.32212 0.38566
 C1548 C 0.94334 0.31198 0.39520
 C1549 C 0.92352 0.28472 0.39863
 C1550 C 0.90974 0.29286 0.40878
 C1551 C 0.89762 0.28244 0.41881
 C1552 C 0.89896 0.26363 0.41889
 C1553 C 0.91265 0.25551 0.40861
 C1554 C 0.92480 0.26592 0.39866
 C1555 C 0.88624 0.25249 0.42971
 C1556 C 0.89242 0.23701 0.43858
 C1557 C 0.88046 0.22631 0.44846
 C1558 C 0.86207 0.23090 0.44981
 C1559 C 0.85589 0.24649 0.44118
 C1560 C 0.86783 0.25714 0.43118
 H1561 H 0.93786 0.27777 0.36548
 H1562 H 0.96029 0.29511 0.34900
 H1563 H 0.96097 0.33444 0.39159
 H1564 H 0.93900 0.31668 0.40824
 H1565 H 0.90822 0.30729 0.40890
 H1566 H 0.88736 0.28914 0.42672
 H1567 H 0.91392 0.24105 0.40815
 H1568 H 0.93539 0.25921 0.39119
 H1569 H 0.90657 0.23323 0.43806
 H1570 H 0.88565 0.21453 0.45523
 H1571 H 0.84173 0.25023 0.44185
 H1572 H 0.86257 0.26882 0.42432
 C1573 C 0.06403 0.29573 0.61097
 C1574 C 0.05902 0.31320 0.60587
 C1575 C 0.04620 0.32280 0.61576
 C1576 C 0.03822 0.31529 0.63122
 C1577 C 0.04351 0.29794 0.63651
 C1578 C 0.05612 0.28825 0.62645
 C1579 C 0.07725 0.28527 0.60010
 C1580 C 0.08940 0.27334 0.60837
 C1581 C 0.10146 0.26318 0.59813
 C1582 C 0.10190 0.26485 0.57934
 C1583 C 0.08992 0.27696 0.57109
 C1584 C 0.07768 0.28694 0.58131
 C1585 C 0.11466 0.25390 0.56842
 C1586 C 0.10957 0.24748 0.55144
 C1587 C 0.12149 0.23709 0.54125
 C1588 C 0.13874 0.23262 0.54787
 C1589 C 0.14382 0.23903 0.56486
 C1590 C 0.13200 0.24963 0.57493
 H1591 H 0.06509 0.31956 0.59426
 H1592 H 0.04264 0.33617 0.61127
 H1593 H 0.03766 0.29160 0.64826
 H1594 H 0.05937 0.27473 0.63064
 H1595 H 0.08969 0.27188 0.62280
 H1596 H 0.11027 0.25382 0.60497
 H1597 H 0.09002 0.27884 0.55670
 H1598 H 0.06837 0.29577 0.57442
 H1599 H 0.09626 0.25025 0.54606
 H1600 H 0.11719 0.23265 0.52813
 H1601 H 0.15687 0.23567 0.57054
 H1602 H 0.13654 0.25454 0.58780
 C1603 C 0.05924 0.70207 0.39158
 C1604 C 0.05501 0.68446 0.39695
 C1605 C 0.04225 0.67430 0.38755
 C1606 C 0.03351 0.68139 0.37233
 C1607 C 0.03795 0.69894 0.36682
 C1608 C 0.05052 0.70916 0.37638
 C1609 C 0.07255 0.71307 0.40183
 C1610 C 0.08401 0.72532 0.39297
 C1611 C 0.09620 0.73591 0.40260
 C1612 C 0.09747 0.73440 0.42136
 C1613 C 0.08616 0.72201 0.43021
 C1614 C 0.07380 0.71157 0.42059
 C1615 C 0.11045 0.74577 0.43163
 C1616 C 0.10597 0.75218 0.44880
 C1617 C 0.11810 0.76291 0.45838
 C1618 C 0.13496 0.76773 0.45098
 C1619 C 0.13942 0.76135 0.43379
 C1620 C 0.12739 0.75044 0.42431
 H1621 H 0.06168 0.67840 0.40836
 H1622 H 0.03934 0.66082 0.39220
 H1623 H 0.03150 0.70498 0.35526
 H1624 H 0.05314 0.72277 0.37201
 H1625 H 0.08367 0.72668 0.37852
 H1626 H 0.10447 0.74547 0.39532
 H1627 H 0.08692 0.72024 0.44459
 H1628 H 0.06505 0.70249 0.42794
 H1629 H 0.09297 0.74911 0.45481
 H1630 H 0.11427 0.76731 0.47168
 H1631 H 0.15215 0.76496 0.42751
 H1632 H 0.13147 0.74556 0.41127
 C1633 C 0.61064 0.93634 0.70341
 C1634 C 0.60294 0.94413 0.68803
 C1635 C 0.61247 0.95701 0.67813
 C1636 C 0.62990 0.96243 0.68342
 C1637 C 0.63771 0.95446 0.69864
 C1638 C 0.62821 0.94154 0.70849
 C1639 C 0.60025 0.92316 0.71434
 C1640 C 0.60116 0.92359 0.73316
 C1641 C 0.59118 0.91146 0.74350
 C1642 C 0.57997 0.89863 0.73531
 C1643 C 0.57913 0.89811 0.71649
 C1644 C 0.58916 0.91024 0.70613
 C1645 C 0.56912 0.88597 0.74642
 C1646 C 0.56705 0.86794 0.74130
 C1647 C 0.55708 0.85602 0.75197
 C1648 C 0.54903 0.86186 0.76800
 C1649 C 0.55095 0.87991 0.77302
 C1650 C 0.56084 0.89182 0.76234
 H1651 H 0.58935 0.94060 0.68388
 H1652 H 0.60605 0.96293 0.66650
 H1653 H 0.65116 0.95825 0.70301
 H1654 H 0.63466 0.93558 0.72008
 H1655 H 0.60939 0.93351 0.73993
 H1656 H 0.59233 0.91207 0.75796
 H1657 H 0.57050 0.88850 0.70977
 H1658 H 0.58831 0.90942 0.69166
 H1659 H 0.57345 0.86294 0.72924
 H1660 H 0.55598 0.84214 0.74787
 H1661 H 0.54461 0.88487 0.78513
 H1662 H 0.56184 0.90570 0.76647
 C1663 C 0.39098 0.93689 0.29502
 C1664 C 0.37341 0.94185 0.28975
 C1665 C 0.36352 0.95435 0.29966
 C1666 C 0.37093 0.96213 0.31515
 C1667 C 0.38839 0.95699 0.32059
 C1668 C 0.39832 0.94453 0.31062
 C1669 C 0.40169 0.92403 0.28410
 C1670 C 0.41277 0.91110 0.29234
 C1671 C 0.42291 0.89912 0.28199
 C1672 C 0.42220 0.89981 0.26317
 C1673 C 0.41107 0.91270 0.25495
 C1674 C 0.40098 0.92468 0.26528
 C1675 C 0.43299 0.88717 0.25208
 C1676 C 0.44132 0.89306 0.23615
 C1677 C 0.45101 0.88113 0.22541
 C1678 C 0.45268 0.86302 0.23036
 C1679 C 0.44464 0.85715 0.24643
 C1680 C 0.43486 0.86909 0.25716
 H1681 H 0.36723 0.93599 0.27798
 H1682 H 0.35006 0.95793 0.29517
 H1683 H 0.39451 0.96278 0.33243
 H1684 H 0.41190 0.94117 0.31493
 H1685 H 0.41347 0.91012 0.30681
 H1686 H 0.43147 0.88946 0.28874
 H1687 H 0.41002 0.91345 0.24049
 H1688 H 0.39278 0.93462 0.25850
 H1689 H 0.44047 0.90697 0.23204
 H1690 H 0.45734 0.88610 0.21327
 H1691 H 0.44556 0.84322 0.25048
 H1692 H 0.42842 0.86406 0.26922
 C1693 C 0.61408 0.06121 0.29306
 C1694 C 0.60604 0.05169 0.30732
 C1695 C 0.61609 0.03933 0.31731
 C1696 C 0.63437 0.03608 0.31317
 C1697 C 0.64246 0.04568 0.29904
 C1698 C 0.63247 0.05816 0.28917
 C1699 C 0.60330 0.07406 0.28214
 C1700 C 0.60619 0.07557 0.26356
 C1701 C 0.59606 0.08757 0.25326
 C1702 C 0.58263 0.09829 0.26124
 C1703 C 0.57969 0.09676 0.27982
 C1704 C 0.58994 0.08485 0.29014
 C1705 C 0.57178 0.11100 0.25022
 C1706 C 0.56673 0.12783 0.25706
 C1707 C 0.55661 0.13979 0.24667
 C1708 C 0.55140 0.13529 0.22912
 C1709 C 0.55645 0.11846 0.22228
 C1710 C 0.56644 0.10645 0.23272
 H1711 H 0.59185 0.05348 0.31053
 H1712 H 0.60944 0.03206 0.32805
 H1713 H 0.65656 0.04357 0.29561
 H1714 H 0.63921 0.06550 0.27853
 H1715 H 0.61617 0.06730 0.25688
 H1716 H 0.59888 0.08856 0.23905
 H1717 H 0.56932 0.10463 0.28638
 H1718 H 0.58748 0.08421 0.30444
 H1719 H 0.57079 0.13189 0.27038
 H1720 H 0.55276 0.15252 0.25247
 H1721 H 0.55288 0.11463 0.20875
 H1722 H 0.56985 0.09352 0.22710
 C1723 C 0.38941 0.06241 0.70348
 C1724 C 0.39686 0.05491 0.68784
 C1725 C 0.38703 0.04247 0.67775
 C1726 C 0.36953 0.03721 0.68310
 C1727 C 0.36202 0.04484 0.69863
 C1728 C 0.37182 0.05731 0.70867
 C1729 C 0.40001 0.07527 0.71452
 C1730 C 0.39915 0.07455 0.73333
 C1731 C 0.40907 0.08659 0.74376
 C1732 C 0.42019 0.09962 0.73566
 C1733 C 0.42108 0.10035 0.71683
 C1734 C 0.41110 0.08832 0.70639
 C1735 C 0.43077 0.11236 0.74685
 C1736 C 0.43260 0.13046 0.74178
 C1737 C 0.44218 0.14249 0.75258
 C1738 C 0.45006 0.13671 0.76872
 C1739 C 0.44841 0.11859 0.77368
 C1740 C 0.43892 0.10656 0.76286
 H1741 H 0.41046 0.05837 0.68359
 H1742 H 0.39323 0.03680 0.66589
 H1743 H 0.34853 0.04117 0.70307
 H1744 H 0.36555 0.06305 0.72046
 H1745 H 0.39093 0.06453 0.74004
 H1746 H 0.40788 0.08579 0.75821
 H1747 H 0.42964 0.11011 0.71016
 H1748 H 0.41194 0.08936 0.69193
 H1749 H 0.42629 0.13543 0.72966
 H1750 H 0.44308 0.15642 0.74852
 H1751 H 0.45462 0.11367 0.78588
 H1752 H 0.43809 0.09265 0.76698
 C1753 C 0.61349 0.70547 0.06156
 C1754 C 0.60597 0.68985 0.05413
 C1755 C 0.61557 0.67991 0.04142
 C1756 C 0.63290 0.68540 0.03580
 C1757 C 0.64051 0.70092 0.04335
 C1758 C 0.63093 0.71082 0.05611
 C1759 C 0.60305 0.71634 0.07467
 C1760 C 0.60361 0.73517 0.07396
 C1761 C 0.59353 0.74542 0.08602
 C1762 C 0.58258 0.73711 0.09906
 C1763 C 0.58210 0.71827 0.09986
 C1764 C 0.59223 0.70801 0.08781
 C1765 C 0.57164 0.74808 0.11167
 C1766 C 0.56982 0.74306 0.12977
 C1767 C 0.55977 0.75361 0.14164
 C1768 C 0.55140 0.76944 0.13568
 C1769 C 0.55304 0.77435 0.11756
 C1770 C 0.56301 0.76378 0.10568
 H1771 H 0.59247 0.68550 0.05784
 H1772 H 0.60929 0.66805 0.03582
 H1773 H 0.65388 0.70545 0.03938
 H1774 H 0.63724 0.72263 0.06178
 H1775 H 0.61163 0.74201 0.06388
 H1776 H 0.59440 0.75989 0.08520
 H1777 H 0.57368 0.71145 0.10964
 H1778 H 0.59165 0.69353 0.08885
 H1779 H 0.57649 0.73117 0.13486
 H1780 H 0.55889 0.74961 0.15558
 H1781 H 0.54647 0.78632 0.11252
 H1782 H 0.56381 0.76783 0.09175
 C1783 C 0.38698 0.29388 0.06322
 C1784 C 0.39506 0.30842 0.05418
 C1785 C 0.38516 0.31856 0.04183
 C1786 C 0.36700 0.31431 0.03812
 C1787 C 0.35886 0.29989 0.04725
 C1788 C 0.36871 0.28984 0.05971
 C1789 C 0.39765 0.28283 0.07605
 C1790 C 0.39512 0.26415 0.07698
 C1791 C 0.40528 0.25372 0.08885
 C1792 C 0.41833 0.26167 0.10002
 C1793 C 0.42086 0.28034 0.09910
 C1794 C 0.41061 0.29079 0.08731
 C1795 C 0.42928 0.25052 0.11252
 C1796 C 0.43383 0.25691 0.12965
 C1797 C 0.44410 0.24642 0.14139
 C1798 C 0.44999 0.22923 0.13635
 C1799 C 0.44544 0.22284 0.11922
 C1800 C 0.43527 0.23337 0.10744
 H1801 H 0.40916 0.31175 0.05633
 H1802 H 0.39185 0.32952 0.03494
 H1803 H 0.34486 0.29635 0.04478
 H1804 H 0.36197 0.27895 0.06666
 H1805 H 0.38544 0.25752 0.06834
 H1806 H 0.40279 0.23942 0.08937
 H1807 H 0.43093 0.28689 0.10734
 H1808 H 0.41277 0.30516 0.08711
 H1809 H 0.42927 0.26995 0.13410
 H1810 H 0.44756 0.25188 0.15438
 H1811 H 0.44954 0.20958 0.11497
 H1812 H 0.43224 0.22811 0.09426
 C1813 C 0.60527 0.29816 0.93889
 C1814 C 0.59773 0.31376 0.94638
 C1815 C 0.60752 0.32398 0.95875
 C1816 C 0.62504 0.31880 0.96396
 C1817 C 0.63263 0.30329 0.95636
 C1818 C 0.62289 0.29313 0.94396
 C1819 C 0.59479 0.28702 0.92602
 C1820 C 0.59582 0.26821 0.92671
 C1821 C 0.58612 0.25768 0.91459
 C1822 C 0.57508 0.26568 0.90149
 C1823 C 0.57399 0.28450 0.90082
 C1824 C 0.58373 0.29505 0.91294
 C1825 C 0.56481 0.25437 0.88859
 C1826 C 0.56316 0.25949 0.87050
 C1827 C 0.55390 0.24858 0.85833
 C1828 C 0.54616 0.23228 0.86396
 C1829 C 0.54763 0.22727 0.88207
 C1830 C 0.55680 0.23819 0.89424
 H1831 H 0.58412 0.31790 0.94293
 H1832 H 0.60126 0.33583 0.96439
 H1833 H 0.64614 0.29899 0.95998
 H1834 H 0.62923 0.28138 0.93822
 H1835 H 0.60401 0.26158 0.93676
 H1836 H 0.58746 0.24324 0.91535
 H1837 H 0.56547 0.29108 0.89102
 H1838 H 0.58278 0.30950 0.91192
 H1839 H 0.56938 0.27174 0.86566
 H1840 H 0.55314 0.25270 0.84442
 H1841 H 0.54151 0.21495 0.88686
 H1842 H 0.55749 0.23403 0.90814
 C1843 C 0.38921 0.70108 0.93493
 C1844 C 0.37170 0.70644 0.93999
 C1845 C 0.36223 0.69714 0.95333
 C1846 C 0.37003 0.68220 0.96184
 C1847 C 0.38748 0.67672 0.95664
 C1848 C 0.39699 0.68610 0.94337
 C1849 C 0.39944 0.71129 0.92113
 C1850 C 0.41784 0.71537 0.92368
 C1851 C 0.42734 0.72550 0.91098
 C1852 C 0.41868 0.73171 0.89538
 C1853 C 0.40033 0.72738 0.89272
 C1854 C 0.39081 0.71733 0.90547
 C1855 C 0.42862 0.74305 0.88221
 C1856 C 0.42001 0.75770 0.87395
 C1857 C 0.42950 0.76879 0.86208
 C1858 C 0.44786 0.76556 0.85823
 C1859 C 0.45640 0.75076 0.86628
 C1860 C 0.44689 0.73962 0.87811
 H1861 H 0.36545 0.71806 0.93386
 H1862 H 0.34882 0.70171 0.95703
 H1863 H 0.39387 0.66525 0.96292
 H1864 H 0.41039 0.68155 0.93962
 H1865 H 0.42477 0.71110 0.93574
 H1866 H 0.44136 0.72884 0.91360
 H1867 H 0.39334 0.73168 0.88071
 H1868 H 0.37671 0.71415 0.90303
 H1869 H 0.40602 0.76084 0.87695
 H1870 H 0.42245 0.77993 0.85593
 H1871 H 0.47057 0.74800 0.86373
 H1872 H 0.45385 0.72832 0.88407
 C1873 C 0.70993 0.93726 0.38623
 C1874 C 0.71796 0.94675 0.37195
 C1875 C 0.70789 0.95906 0.36192
 C1876 C 0.68961 0.96229 0.36604
 C1877 C 0.68152 0.95272 0.38019
 C1878 C 0.69153 0.94028 0.39011
 C1879 C 0.72075 0.92447 0.39720
 C1880 C 0.71784 0.92301 0.41579
 C1881 C 0.72802 0.91108 0.42613
 C1882 C 0.74150 0.90040 0.41820
 C1883 C 0.74445 0.90189 0.39962
 C1884 C 0.73416 0.91371 0.38925
 C1885 C 0.75244 0.88780 0.42927
 C1886 C 0.75766 0.87100 0.42246
 C1887 C 0.76795 0.85919 0.43285
 C1888 C 0.77317 0.86380 0.45037
 C1889 C 0.76791 0.88056 0.45719
 C1890 C 0.75775 0.89244 0.44676
 H1891 H 0.73215 0.94498 0.36875
 H1892 H 0.71453 0.96632 0.35116
 H1893 H 0.66742 0.95480 0.38362
 H1894 H 0.68480 0.93297 0.40076
 H1895 H 0.70782 0.93125 0.42243
 H1896 H 0.72519 0.91012 0.44035
 H1897 H 0.75487 0.89406 0.39309
 H1898 H 0.73663 0.91431 0.37495
 H1899 H 0.75363 0.86687 0.40915
 H1900 H 0.77196 0.84650 0.42705
 H1901 H 0.77149 0.88447 0.47070
 H1902 H 0.75420 0.90534 0.45236
 C1903 C 0.29417 0.93919 0.60867
 C1904 C 0.28612 0.94896 0.62268
 C1905 C 0.29620 0.96135 0.63256
 C1906 C 0.31454 0.96444 0.62855
 C1907 C 0.32262 0.95477 0.61452
 C1908 C 0.31259 0.94222 0.60475
 C1909 C 0.28336 0.92599 0.59817
 C1910 C 0.28628 0.92381 0.57966
 C1911 C 0.27600 0.91154 0.56980
 C1912 C 0.26241 0.90123 0.57816
 C1913 C 0.25950 0.90342 0.59667
 C1914 C 0.26989 0.91555 0.60654
 C1915 C 0.25128 0.88830 0.56765
 C1916 C 0.24567 0.87193 0.57528
 C1917 C 0.23499 0.85992 0.56556
 C1918 C 0.22978 0.86384 0.54785
 C1919 C 0.23550 0.88013 0.54015
 C1920 C 0.24604 0.89223 0.54995
 H1921 H 0.27191 0.94727 0.62587
 H1922 H 0.28953 0.96870 0.64318
 H1923 H 0.33676 0.95679 0.61117
 H1924 H 0.31933 0.93475 0.59427
 H1925 H 0.29636 0.93176 0.57269
 H1926 H 0.27881 0.91006 0.55564
 H1927 H 0.24901 0.89591 0.60354
 H1928 H 0.26742 0.91664 0.62081
 H1929 H 0.24964 0.86830 0.58877
 H1930 H 0.23065 0.84764 0.57203
 H1931 H 0.23197 0.88351 0.52648
 H1932 H 0.24989 0.90479 0.54370
 C1933 C 0.29498 0.06007 0.38885
 C1934 C 0.30975 0.05122 0.39681
 C1935 C 0.32002 0.03889 0.38705
 C1936 C 0.31568 0.03499 0.36915
 C1937 C 0.30098 0.04386 0.36115
 C1938 C 0.29081 0.05631 0.37085
 C1939 C 0.28387 0.07303 0.39929
 C1940 C 0.26502 0.07399 0.39681
 C1941 C 0.25458 0.08618 0.40656
 C1942 C 0.26269 0.09763 0.41917
 C1943 C 0.28153 0.09662 0.42172
 C1944 C 0.29200 0.08452 0.41186
 C1945 C 0.25155 0.11060 0.42956
 C1946 C 0.25827 0.12778 0.43358
 C1947 C 0.24778 0.13998 0.44327
 C1948 C 0.23024 0.13538 0.44908
 C1949 C 0.22352 0.11821 0.44506
 C1950 C 0.23406 0.10596 0.43548
 H1951 H 0.31318 0.05356 0.41072
 H1952 H 0.33120 0.03218 0.39363
 H1953 H 0.29736 0.04125 0.34734
 H1954 H 0.27976 0.06312 0.36418
 H1955 H 0.25826 0.06518 0.38744
 H1956 H 0.24015 0.08675 0.40407
 H1957 H 0.28822 0.10506 0.43148
 H1958 H 0.30650 0.08431 0.41398
 H1959 H 0.27158 0.13191 0.42905
 H1960 H 0.25351 0.15299 0.44634
 H1961 H 0.20999 0.11428 0.44912
 H1962 H 0.22853 0.09277 0.43285
 C1963 C 0.70068 0.06560 0.61111
 C1964 C 0.68538 0.05725 0.60368
 C1965 C 0.67593 0.04412 0.61331
 C1966 C 0.68167 0.03896 0.63053
 C1967 C 0.69693 0.04739 0.63799
 C1968 C 0.70630 0.06061 0.62840
 C1969 C 0.71096 0.07924 0.60072
 C1970 C 0.71721 0.09497 0.60901
 C1971 C 0.72724 0.10761 0.59930
 C1972 C 0.73136 0.10475 0.58111
 C1973 C 0.72496 0.08906 0.57281
 C1974 C 0.71484 0.07649 0.58249
 C1975 C 0.74268 0.11782 0.57095
 C1976 C 0.73904 0.12162 0.55283
 C1977 C 0.75018 0.13331 0.54310
 C1978 C 0.76519 0.14151 0.55127
 C1979 C 0.76861 0.13799 0.56947
 C1980 C 0.75752 0.12625 0.57917
 H1981 H 0.68063 0.06097 0.59046
 H1982 H 0.66422 0.03791 0.60719
 H1983 H 0.70170 0.04372 0.65122
 H1984 H 0.71817 0.06669 0.63438
 H1985 H 0.71420 0.09756 0.62298
 H1986 H 0.73169 0.11969 0.60602
 H1987 H 0.72815 0.08627 0.55892
 H1988 H 0.71041 0.06437 0.57582
 H1989 H 0.72757 0.11554 0.54614
 H1990 H 0.74726 0.13560 0.52906
 H1991 H 0.77991 0.14428 0.57624
 H1992 H 0.76085 0.12349 0.59304
 C1993 C 0.93429 0.60580 0.30117
 C1994 C 0.93760 0.62385 0.29681
 C1995 C 0.95033 0.63382 0.30642
 C1996 C 0.95990 0.62602 0.32072
 C1997 C 0.95637 0.60804 0.32526
 C1998 C 0.94377 0.59800 0.31552
 C1999 C 0.92126 0.59507 0.29050
 C2000 C 0.92577 0.57768 0.28483
 C2001 C 0.91383 0.56784 0.27414
 C2002 C 0.89705 0.57512 0.26905
 C2003 C 0.89239 0.59237 0.27501
 C2004 C 0.90442 0.60228 0.28554
 C2005 C 0.88465 0.56493 0.25719
 C2006 C 0.86597 0.56422 0.26079
 C2007 C 0.85429 0.55489 0.24936
 C2008 C 0.86103 0.54629 0.23400
 C2009 C 0.87972 0.54696 0.23045
 C2010 C 0.89142 0.55611 0.24197
 H2011 H 0.93062 0.63014 0.28570
 H2012 H 0.95272 0.64765 0.30260
 H2013 H 0.96352 0.60164 0.33620
 H2014 H 0.94136 0.58416 0.31925
 H2015 H 0.93872 0.57184 0.28834
 H2016 H 0.91770 0.55452 0.26985
 H2017 H 0.87961 0.59836 0.27117
 H2018 H 0.90054 0.61560 0.28984
 H2019 H 0.86042 0.57080 0.27250
 H2020 H 0.83993 0.55468 0.25235
 H2021 H 0.88530 0.54031 0.21880
 H2022 H 0.90573 0.55657 0.23879
 C2023 C 0.93788 0.38697 0.70476
 C2024 C 0.94740 0.37267 0.71267
 C2025 C 0.96013 0.36295 0.70280
 C2026 C 0.96378 0.36740 0.68484
 C2027 C 0.95425 0.38163 0.67689
 C2028 C 0.94139 0.39125 0.68670
 C2029 C 0.92453 0.39749 0.71537
 C2030 C 0.92293 0.41612 0.71293
 C2031 C 0.91057 0.42604 0.72307
 C2032 C 0.89961 0.41761 0.73602
 C2033 C 0.90118 0.39897 0.73844
 C2034 C 0.91343 0.38903 0.72819
 C2035 C 0.88669 0.42822 0.74706
 C2036 C 0.86971 0.42110 0.75186
 C2037 C 0.85769 0.43095 0.76244
 C2038 C 0.86228 0.44825 0.76838
 C2039 C 0.87920 0.45543 0.76347
 C2040 C 0.89128 0.44552 0.75301
 H2041 H 0.94528 0.36919 0.72661
 H2042 H 0.96734 0.35213 0.70935
 H2043 H 0.95668 0.38530 0.66303
 H2044 H 0.93409 0.40195 0.68009
 H2045 H 0.93141 0.42313 0.70335
 H2046 H 0.90955 0.44033 0.72067
 H2047 H 0.89312 0.39205 0.74844
 H2048 H 0.91411 0.37467 0.73027
 H2049 H 0.86561 0.40793 0.74732
 H2050 H 0.84488 0.42490 0.76615
 H2051 H 0.88309 0.46880 0.76760
 H2052 H 0.90433 0.45135 0.74978
 C2053 C 0.06656 0.60766 0.69968
 C2054 C 0.06200 0.62506 0.70525
 C2055 C 0.04852 0.63474 0.69639
 C2056 C 0.03937 0.62729 0.68166
 C2057 C 0.04402 0.60992 0.67600
 C2058 C 0.05743 0.60017 0.68497
 C2059 C 0.08062 0.59730 0.70941
 C2060 C 0.07775 0.57918 0.71379
 C2061 C 0.09060 0.56968 0.72374
 C2062 C 0.10667 0.57806 0.72945
 C2063 C 0.10970 0.59608 0.72468
 C2064 C 0.09679 0.60560 0.71483
 C2065 C 0.11988 0.56825 0.74086
 C2066 C 0.12864 0.57703 0.75509
 C2067 C 0.14047 0.56771 0.76633
 C2068 C 0.14379 0.54934 0.76370
 C2069 C 0.13529 0.54061 0.74930
 C2070 C 0.12349 0.54996 0.73800
 H2071 H 0.06866 0.63108 0.71668
 H2072 H 0.04526 0.64809 0.70109
 H2073 H 0.03723 0.60380 0.66470
 H2074 H 0.06078 0.58684 0.68031
 H2075 H 0.06531 0.57250 0.70997
 H2076 H 0.08769 0.55592 0.72742
 H2077 H 0.12207 0.60284 0.72854
 H2078 H 0.09949 0.61947 0.71139
 H2079 H 0.12603 0.59104 0.75783
 H2080 H 0.14699 0.57490 0.77714
 H2081 H 0.13742 0.52644 0.74700
 H2082 H 0.11715 0.54285 0.72703
 C2083 C 0.06285 0.39075 0.29738
 C2084 C 0.05835 0.37316 0.29230
 C2085 C 0.04557 0.36329 0.30203
 C2086 C 0.03704 0.37073 0.31713
 C2087 C 0.04176 0.38820 0.32242
 C2088 C 0.05450 0.39812 0.31263
 C2089 C 0.07590 0.40148 0.28655
 C2090 C 0.08846 0.41296 0.29484
 C2091 C 0.10056 0.42316 0.28455
 C2092 C 0.10035 0.42211 0.26573
 C2093 C 0.08785 0.41056 0.25747
 C2094 C 0.07575 0.40042 0.26774
 C2095 C 0.11305 0.43302 0.25468
 C2096 C 0.10719 0.44076 0.23850
 C2097 C 0.11919 0.45049 0.22773
 C2098 C 0.13733 0.45279 0.23291
 C2099 C 0.14315 0.44539 0.24926
 C2100 C 0.13114 0.43556 0.26001
 H2101 H 0.06477 0.36697 0.28082
 H2102 H 0.04235 0.34982 0.29767
 H2103 H 0.03539 0.39434 0.33396
 H2104 H 0.05749 0.41170 0.31678
 H2105 H 0.08905 0.41395 0.30931
 H2106 H 0.10991 0.43204 0.29132
 H2107 H 0.08749 0.40924 0.24303
 H2108 H 0.06611 0.39190 0.26091
 H2109 H 0.09326 0.43940 0.23418
 H2110 H 0.11425 0.45634 0.21538
 H2111 H 0.15709 0.44682 0.25350
 H2112 H 0.13613 0.42960 0.27229
   
