data_POSCAR
  _audit_creation_date              2014-09-24
  _audit_creation_method            'ToBaCCo'
  _symmetry_space_group_name_H-M    'P1'
  _symmetry_Int_Tables_number       1
  _symmetry_cell_setting            triclinic
  loop_
  _symmetry_equiv_pos_as_xyz
 x,y,z
_cell_length_a 57.7768
_cell_length_b 57.3974
_cell_length_c 52.1475
_cell_angle_alpha 91.559500
_cell_angle_beta 89.020300
_cell_angle_gamma 92.617400
loop_
  _atom_site_label
  _atom_site_type_symbol
  _atom_site_fract_x
  _atom_site_fract_y
  _atom_site_fract_z
C1 C 0.36477 -0.00338 0.25380
 C2 C 0.12931 0.00084 0.74996
 C3 C 0.63400 0.49426 0.24117
 C4 C 0.87199 0.50663 0.75653
 C5 C 0.25002 0.39516 1.00567
 C6 C 0.75291 0.10933 0.99326
 C7 C 0.26915 0.61501 0.50023
 C8 C 0.74011 0.89552 0.51444
 C9 C -0.00444 0.25279 0.36896
 C10 C -0.00451 0.75022 0.13608
 C11 C 0.50137 0.25021 0.63222
 C12 C 0.50172 0.74983 0.87306
 C13 C -0.24211 0.60713 1.00697
 C14 C -0.24044 0.39131 0.49148
 C15 C 0.23986 -0.11097 0.00846
 C16 C 0.24561 1.11674 0.49688
 C17 C 0.14348 0.48813 0.24420
 C18 C -0.14877 1.00469 0.25005
 C19 C 0.36098 0.51099 -0.25851
 C20 C 0.65551 -0.00474 -0.25638
 C21 C -0.00987 0.24410 0.86854
 C22 C 0.49889 0.24818 0.10955
 C23 C 0.00447 0.75637 0.62472
 C24 C 0.48942 0.74973 0.38176
 B25 B -0.01675 0.01262 1.02324
 B26 B -0.02916 0.00389 0.99523
 B27 B -0.00602 0.02293 0.99525
 B28 B 0.01223 0.01552 1.01831
 B29 B 0.00011 -0.00865 1.03248
 B30 B -0.02574 -0.01563 1.01842
 B31 B 0.00857 -0.01983 0.98194
 B32 B 0.02092 -0.01142 1.00989
 B33 B -0.00226 -0.03024 1.00988
 B34 B -0.02046 -0.02281 0.98687
 B35 B -0.00827 0.00125 0.97266
 B36 B 0.01764 0.00825 0.98702
 B37 B 0.49887 0.51224 0.52181
 B38 B 0.48465 0.50356 0.49493
 B39 B 0.50767 0.52267 0.49323
 B40 B 0.52750 0.51528 0.51467
 B41 B 0.51651 0.49099 0.52956
 B42 B 0.48972 0.48401 0.51759
 B43 B 0.52160 0.48005 0.47847
 B44 B 0.53582 0.48841 0.50529
 B45 B 0.51269 0.46952 0.50703
 B46 B 0.49292 0.47697 0.48571
 B47 B 0.50408 0.50104 0.47073
 B48 B 0.53083 0.50819 0.48292
 B49 B 0.49516 0.98655 0.54387
 B50 B 0.51206 0.98915 0.51727
 B51 B 0.48973 0.96909 0.51773
 B52 B 0.46751 0.98042 0.53499
 B53 B 0.47637 1.00799 0.54453
 B54 B 0.50418 1.01323 0.53353
 B55 B 0.47627 1.00620 0.49218
 B56 B 0.45956 1.00380 0.51874
 B57 B 0.48195 1.02361 0.51803
 B58 B 0.50398 1.01228 0.50090
 B59 B 0.49510 0.98486 0.49119
 B60 B 0.46734 0.97954 0.50228
 B61 B 0.01397 0.48045 1.02712
 B62 B 0.02645 0.48780 0.99893
 B63 B 0.00266 0.46968 0.99941
 B64 B -0.01514 0.47837 1.02353
 B65 B -0.00208 0.50242 1.03791
 B66 B 0.02386 0.50823 1.02266
 B67 B -0.01052 0.51251 0.98795
 B68 B -0.02299 0.50530 1.01616
 B69 B 0.00081 0.52333 1.01566
 B70 B 0.01853 0.51466 0.99162
 B71 B 0.00552 0.49060 0.97724
 B72 B -0.02044 0.48480 0.99250
 B73 B 0.02889 0.51718 0.48016
 B74 B 0.04077 0.51385 0.50899
 B75 B 0.01855 0.53149 0.50630
 B76 B 0.00005 0.51964 0.48437
 B77 B 0.01102 0.49393 0.47360
 B78 B 0.03646 0.49063 0.48895
 B79 B 0.00178 0.49058 0.52513
 B80 B -0.01023 0.49429 0.49616
 B81 B 0.01194 0.47632 0.49908
 B82 B 0.03062 0.48821 0.52082
 B83 B 0.01971 0.51386 0.53159
 B84 B -0.00573 0.51741 0.51654
 B85 B 0.50594 0.00800 -0.03942
 B86 B 0.52163 0.00693 -0.01259
 B87 B 0.50134 0.02695 -0.01457
 B88 B 0.47867 0.01481 -0.03113
 B89 B 0.48508 -0.01325 -0.03871
 B90 B 0.51199 -0.01800 -0.02716
 B91 B 0.48343 -0.00847 0.01348
 B92 B 0.46790 -0.00741 -0.01331
 B93 B 0.48822 -0.02731 -0.01113
 B94 B 0.51081 -0.01514 0.00535
 B95 B 0.50430 0.01279 0.01313
 B96 B 0.47747 0.01760 0.00153
 B97 B 0.49334 0.48085 -0.04114
 B98 B 0.47980 0.48608 -0.01261
 B99 B 0.50111 0.46671 -0.01516
 B100 B 0.52168 0.47711 -0.03586
 B101 B 0.51286 0.50300 -0.04623
 B102 B 0.48680 0.50837 -0.03213
 B103 B 0.51896 0.50719 0.00561
 B104 B 0.53240 0.50251 -0.02275
 B105 B 0.51105 0.52141 -0.02058
 B106 B 0.49070 0.51117 0.00028
 B107 B 0.49957 0.48505 0.01075
 B108 B 0.52561 0.47991 -0.00360
 B109 B -0.01996 0.98947 0.47653
 B110 B -0.03043 0.99556 0.50619
 B111 B -0.00912 0.97661 0.50227
 B112 B 0.00896 0.98596 0.47848
 B113 B -0.00137 1.01119 0.46790
 B114 B -0.02594 1.01720 0.48507
 B115 B 0.01006 1.01805 0.51844
 B116 B 0.02064 1.01195 0.48887
 B117 B -0.00066 1.03087 0.49262
 B118 B -0.01876 1.02158 0.51644
 B119 B -0.00845 0.99623 0.52707
 B120 B 0.01614 0.99033 0.50991
 B121 B 0.76066 0.23932 0.22162
 B122 B 0.75322 0.22891 0.25056
 B123 B 0.77172 0.25237 0.24843
 B124 B 0.76352 0.26880 0.22408
 B125 B 0.73927 0.25532 0.21135
 B126 B 0.73287 0.23044 0.22780
 B127 B 0.72956 0.26756 0.26144
 B128 B 0.73702 0.27797 0.23243
 B129 B 0.71848 0.25456 0.23462
 B130 B 0.72671 0.23805 0.25891
 B131 B 0.75091 0.25154 0.27162
 B132 B 0.75731 0.27646 0.25520
 B133 B 0.74793 0.75860 0.73869
 B134 B 0.75568 0.77427 0.76522
 B135 B 0.73411 0.75348 0.76669
 B136 B 0.74101 0.73091 0.74685
 B137 B 0.76744 0.73803 0.73345
 B138 B 0.77628 0.76504 0.74460
 B139 B 0.77277 0.73589 0.78526
 B140 B 0.76546 0.72043 0.75853
 B141 B 0.78679 0.74133 0.75727
 B142 B 0.77985 0.76377 0.77704
 B143 B 0.75362 0.75652 0.79059
 B144 B 0.74453 0.72946 0.77907
 B145 B 0.26389 0.26716 0.77568
 B146 B 0.25865 0.27948 0.74760
 B147 B 0.27578 0.25654 0.74832
 B148 B 0.26522 0.23798 0.77064
 B149 B 0.24110 0.24973 0.78368
 B150 B 0.23699 0.27563 0.76943
 B151 B 0.23355 0.24081 0.73259
 B152 B 0.23872 0.22860 0.76074
 B153 B 0.22163 0.25154 0.76003
 B154 B 0.23214 0.27000 0.73762
 B155 B 0.25645 0.25832 0.72457
 B156 B 0.26046 0.23240 0.73888
 B157 B 0.23310 0.73288 0.27229
 B158 B 0.23751 0.72179 0.24248
 B159 B 0.21920 0.74359 0.24725
 B160 B 0.22990 0.76198 0.27043
 B161 B 0.25537 0.75139 0.27981
 B162 B 0.26009 0.72631 0.26250
 B163 B 0.25973 0.76208 0.22908
 B164 B 0.25527 0.77322 0.25879
 B165 B 0.27358 0.75147 0.25420
 B166 B 0.26296 0.73306 0.23094
 B167 B 0.23743 0.74364 0.22149
 B168 B 0.23271 0.76871 0.23884
 B169 B 0.26590 0.74747 0.73102
 B170 B 0.25939 0.73330 0.75852
 B171 B 0.27779 0.75714 0.75874
 B172 B 0.26827 0.77645 0.73794
 B173 B 0.24377 0.76427 0.72456
 B174 B 0.23843 0.73742 0.73702
 B175 B 0.23574 0.76987 0.77615
 B176 B 0.24187 0.78396 0.74887
 B177 B 0.22388 0.76016 0.74823
 B178 B 0.23324 0.74099 0.76928
 B179 B 0.25794 0.75322 0.78276
 B180 B 0.26302 0.78007 0.76996
 B181 B 0.23240 0.24617 0.21549
 B182 B 0.23917 0.26150 0.24263
 B183 B 0.22052 0.23801 0.24380
 B184 B 0.22955 0.21754 0.22234
 B185 B 0.25438 0.22866 0.20820
 B186 B 0.26005 0.25603 0.22050
 B187 B 0.26232 0.22533 0.25944
 B188 B 0.25593 0.21007 0.23227
 B189 B 0.27430 0.23365 0.23125
 B190 B 0.26522 0.25401 0.25251
 B191 B 0.24068 0.24280 0.26677
 B192 B 0.23486 0.21530 0.25416
 B193 B 0.75728 0.76137 0.28158
 B194 B 0.75280 0.77173 0.25228
 B195 B 0.77134 0.75025 0.25565
 B196 B 0.76085 0.73223 0.27861
 B197 B 0.73526 0.74276 0.28923
 B198 B 0.73023 0.76740 0.27291
 B199 B 0.73100 0.73090 0.23825
 B200 B 0.73555 0.72045 0.26747
 B201 B 0.71701 0.74194 0.26423
 B202 B 0.72746 0.75996 0.24122
 B203 B 0.75312 0.74943 0.23053
 B204 B 0.75810 0.72478 0.24686
 B205 B 0.73782 0.24518 0.77367
 B206 B 0.74088 0.23003 0.74567
 B207 B 0.72094 0.25078 0.74896
 B208 B 0.73238 0.27302 0.76741
 B209 B 0.75950 0.26582 0.77538
 B210 B 0.76454 0.23908 0.76219
 B211 B 0.75820 0.26888 0.72319
 B212 B 0.75574 0.28390 0.75114
 B213 B 0.77523 0.26315 0.74804
 B214 B 0.76392 0.24108 0.72952
 B215 B 0.73664 0.24831 0.72141
 B216 B 0.73172 0.27511 0.73492
 C217 C 0.40456 1.01723 0.32215
 C218 C 0.41436 1.00300 0.30297
 C219 C 0.40175 0.99608 0.28125
 C220 C 0.37937 1.00417 0.27743
 C221 C 0.36932 1.01752 0.29745
 C222 C 0.38182 1.02423 0.31926
 C223 C 0.41701 1.02279 0.34622
 N224 N 0.40504 1.02929 0.36764
 N225 N 0.41544 1.03138 0.39018
 C226 C 0.43829 1.02742 0.39217
 N227 N 0.45054 1.02173 0.37064
 N228 N 0.44007 1.01945 0.34807
 C229 C 0.44797 1.02431 0.41761
 C230 C 0.47032 1.03275 0.42424
 C231 C 0.47925 1.02792 0.44832
 C232 C 0.46616 1.01400 0.46560
 C233 C 0.44404 1.00521 0.45822
 C234 C 0.43488 1.01079 0.43493
 H235 H 0.43151 0.99650 0.30514
 H236 H 0.40957 0.98415 0.26762
 H237 H 0.35165 1.02285 0.29618
 H238 H 0.37351 1.03468 0.33404
 H239 H 0.48079 1.04297 0.41086
 H240 H 0.49652 1.03457 0.45309
 H241 H 0.43355 0.99382 0.47040
 H242 H 0.41782 1.00361 0.42996
 C243 C -0.08909 0.52723 0.82557
 C244 C -0.07889 0.51331 0.80635
 C245 C -0.09122 0.50630 0.78442
 C246 C -0.11370 0.51403 0.78045
 C247 C -0.12417 0.52697 0.80055
 C248 C -0.11198 0.53372 0.82256
 C249 C -0.07668 0.53342 0.84956
 N250 N -0.08866 0.53994 0.87099
 N251 N -0.07803 0.54315 0.89332
 C252 C -0.05493 0.54030 0.89510
 N253 N -0.04277 0.53451 0.87352
 N254 N -0.05345 0.53113 0.85118
 C255 C -0.04432 0.53902 0.92050
 C256 C -0.05764 0.52950 0.94062
 C257 C -0.04712 0.52261 0.96274
 C258 C -0.02307 0.52625 0.96617
 C259 C -0.01002 0.53769 0.94678
 C260 C -0.02049 0.54368 0.92397
 H261 H -0.06159 0.50722 0.80859
 H262 H -0.08308 0.49465 0.77073
 H263 H -0.14193 0.53200 0.79916
 H264 H -0.12059 0.54394 0.83732
 H265 H -0.07597 0.52525 0.93831
 H266 H -0.05782 0.51267 0.97605
 H267 H 0.00858 0.54039 0.94828
 H268 H -0.00983 0.55094 0.90860
 C269 C 0.08978 -0.02629 0.81626
 C270 C 0.07894 -0.02544 0.79240
 C271 C 0.09118 -0.01679 0.77088
 C272 C 0.11427 -0.00776 0.77300
 C273 C 0.12508 -0.00959 0.79688
 C274 C 0.11309 -0.01852 0.81805
 C275 C 0.07718 -0.03436 0.83970
 N276 N 0.08926 -0.03872 0.86099
 N277 N 0.07843 -0.04304 0.88316
 C278 C 0.05498 -0.04331 0.88510
 N279 N 0.04273 -0.03981 0.86359
 N280 N 0.05362 -0.03547 0.84129
 C281 C 0.04371 -0.04314 0.91088
 C282 C 0.01992 -0.04856 0.91453
 C283 C 0.00908 -0.04396 0.93838
 C284 C 0.02167 -0.03310 0.95873
 C285 C 0.04568 -0.02886 0.95502
 C286 C 0.05657 -0.03437 0.93183
 H287 H 0.06111 -0.03177 0.79027
 H288 H 0.08256 -0.01761 0.75262
 H289 H 0.14308 -0.00397 0.79920
 H290 H 0.12216 -0.01901 0.83601
 H291 H 0.00955 -0.05536 0.89869
 H292 H -0.00948 -0.04714 0.94012
 H293 H 0.05608 -0.01926 0.96905
 H294 H 0.07485 -0.02964 0.92970
 C295 C 0.59415 0.47078 0.30890
 C296 C 0.58638 0.48894 0.29422
 C297 C 0.59914 0.49661 0.27274
 C298 C 0.61935 0.48548 0.26444
 C299 C 0.62748 0.46799 0.28016
 C300 C 0.61496 0.46059 0.30176
 C301 C 0.58185 0.46382 0.33281
 N302 N 0.59349 0.45374 0.35166
 N303 N 0.58336 0.44963 0.37429
 C304 C 0.56102 0.45503 0.37887
 N305 N 0.54910 0.46447 0.35978
 N306 N 0.55932 0.46879 0.33718
 C307 C 0.55174 0.45540 0.40535
 C308 C 0.52822 0.45037 0.41093
 C309 C 0.51907 0.45544 0.43545
 C310 C 0.53309 0.46660 0.45442
 C311 C 0.55683 0.47067 0.44866
 C312 C 0.56611 0.46449 0.42482
 H313 H 0.57084 0.49776 0.29982
 H314 H 0.59310 0.51128 0.26257
 H315 H 0.64383 0.46009 0.27609
 H316 H 0.62179 0.44702 0.31308
 H317 H 0.51678 0.44347 0.39605
 H318 H 0.50064 0.45241 0.43877
 H319 H 0.56817 0.48059 0.46149
 H320 H 0.58420 0.46906 0.42086
 C321 C 0.59586 0.51346 0.17337
 C322 C 0.58450 0.49996 0.19226
 C323 C 0.59638 0.49327 0.21387
 C324 C 0.61975 0.50072 0.21767
 C325 C 0.63117 0.51335 0.19796
 C326 C 0.61939 0.51985 0.17640
 C327 C 0.58392 0.51951 0.14969
 N328 N 0.59650 0.52686 0.12898
 N329 N 0.58630 0.53035 0.10684
 C330 C 0.56303 0.52695 0.10450
 N331 N 0.55027 0.52024 0.12538
 N332 N 0.56053 0.51659 0.14756
 C333 C 0.55271 0.52642 0.07881
 C334 C 0.56543 0.51709 0.05824
 C335 C 0.55503 0.51222 0.03479
 C336 C 0.53193 0.51777 0.03055
 C337 C 0.51958 0.52853 0.05082
 C338 C 0.52977 0.53245 0.07492
 H339 H 0.56658 0.49401 0.19002
 H340 H 0.58724 0.48191 0.22718
 H341 H 0.64939 0.51845 0.19945
 H342 H 0.62886 0.52984 0.16200
 H343 H 0.58297 0.51177 0.06082
 H344 H 0.56493 0.50266 0.02064
 H345 H 0.50162 0.53259 0.04863
 H346 H 0.51958 0.53955 0.09064
 C347 C 0.09389 1.02342 0.68167
 C348 C 0.11458 1.01160 0.67957
 C349 C 0.12536 1.00394 0.70125
 C350 C 0.11569 1.00736 0.72605
 C351 C 0.09562 1.02054 0.72818
 C352 C 0.08450 1.02790 0.70625
 C353 C 0.08250 1.03051 0.65798
 N354 N 0.05961 1.03513 0.65768
 N355 N 0.04918 1.03887 0.63558
 C356 C 0.06127 1.03825 0.61295
 N357 N 0.08425 1.03440 0.61350
 N358 N 0.09461 1.03065 0.63547
 C359 C 0.04944 1.03823 0.58788
 C360 C 0.06052 1.02861 0.56620
 C361 C 0.04849 1.02391 0.54367
 C362 C 0.02518 1.02964 0.54144
 C363 C 0.01458 1.04108 0.56253
 C364 C 0.02650 1.04508 0.58563
 H365 H 0.12257 1.00810 0.66101
 H366 H 0.14168 0.99566 0.69839
 H367 H 0.08856 1.02525 0.74686
 H368 H 0.06885 1.03747 0.70856
 H369 H 0.07809 1.02292 0.56714
 H370 H 0.05724 1.01414 0.52872
 H371 H -0.00341 1.04548 0.56185
 H372 H 0.01749 1.05261 0.60200
 C373 C -0.08726 0.49010 0.68731
 C374 C -0.07908 0.50735 0.70494
 C375 C -0.09221 0.51308 0.72674
 C376 C -0.11333 0.50079 0.73232
 C377 C -0.12216 0.48478 0.71344
 C378 C -0.10918 0.47929 0.69148
 C379 C -0.07326 0.48397 0.66433
 N380 N -0.08316 0.47265 0.64379
 N381 N -0.07072 0.46813 0.62265
 C382 C -0.04780 0.47449 0.62132
 N383 N -0.03785 0.48542 0.64205
 N384 N -0.05031 0.49006 0.66311
 C385 C -0.03454 0.47223 0.59694
 C386 C -0.01048 0.47665 0.59648
 C387 C 0.00139 0.47977 0.57324
 C388 C -0.01056 0.47900 0.54985
 C389 C -0.03412 0.47168 0.55033
 C390 C -0.04601 0.46838 0.57360
 H391 H -0.06262 0.51670 0.70172
 H392 H -0.08562 0.52699 0.73938
 H393 H -0.13915 0.47628 0.71573
 H394 H -0.11630 0.46642 0.67787
 H395 H -0.00097 0.47907 0.61414
 H396 H 0.01971 0.48458 0.57395
 H397 H -0.04391 0.46941 0.53310
 H398 H -0.06449 0.46433 0.57327
 C399 C 0.40503 -0.01967 0.18424
 C400 C 0.41330 -0.00249 0.20182
 C401 C 0.40036 0.00297 0.22383
 C402 C 0.37946 -0.00962 0.22974
 C403 C 0.37083 -0.02608 0.21125
 C404 C 0.38352 -0.03118 0.18897
 C405 C 0.41772 -0.02398 0.15996
 N406 N 0.40595 -0.03069 0.13851
 N407 N 0.41686 -0.03206 0.11589
 C408 C 0.44001 -0.02718 0.11391
 N409 N 0.45195 -0.02113 0.13544
 N410 N 0.44098 -0.01950 0.15806
 C411 C 0.45085 -0.02429 0.08850
 C412 C 0.47260 -0.03297 0.08222
 C413 C 0.48282 -0.02874 0.05809
 C414 C 0.47168 -0.01516 0.04035
 C415 C 0.45018 -0.00605 0.04735
 C416 C 0.43968 -0.01106 0.07078
 H417 H 0.42939 0.00736 0.19809
 H418 H 0.40682 0.01711 0.23626
 H419 H 0.35406 -0.03497 0.21387
 H420 H 0.37641 -0.04402 0.17533
 H421 H 0.48159 -0.04301 0.09590
 H422 H 0.49957 -0.03565 0.05361
 H423 H 0.44126 0.00508 0.03474
 H424 H 0.42312 -0.00375 0.07550
 C425 C 0.31116 0.44163 0.01755
 C426 C 0.30404 0.42620 0.03689
 C427 C 0.28341 0.41260 0.03468
 C428 C 0.26969 0.41355 0.01258
 C429 C 0.27558 0.43126 -0.00503
 C430 C 0.29603 0.44496 -0.00266
 C431 C 0.33507 0.45218 0.01680
 N432 N 0.34194 0.46655 -0.00242
 N433 N 0.36406 0.47365 -0.00522
 C434 C 0.38035 0.46664 0.01101
 N435 N 0.37344 0.45268 0.03059
 N436 N 0.35127 0.44557 0.03341
 C437 C 0.40525 0.47271 0.00619
 C438 C 0.42236 0.46513 0.02248
 C439 C 0.44588 0.46941 0.01668
 C440 C 0.45290 0.48079 -0.00595
 C441 C 0.43566 0.48943 -0.02142
 C442 C 0.41222 0.48525 -0.01558
 H443 H 0.31493 0.42382 0.05323
 H444 H 0.27910 0.40079 0.04994
 H445 H 0.26532 0.43313 -0.02198
 H446 H 0.30067 0.45705 -0.01768
 H447 H 0.41762 0.45563 0.03958
 H448 H 0.45855 0.46324 0.02964
 H449 H 0.44018 0.49903 -0.03851
 H450 H 0.39956 0.49158 -0.02846
 C451 C -0.19374 0.93412 0.52823
 C452 C -0.19519 0.91491 0.51121
 C453 C -0.21628 0.90342 0.50614
 C454 C -0.23719 0.91086 0.51752
 C455 C -0.23549 0.92985 0.53542
 C456 C -0.21409 0.94180 0.54015
 C457 C -0.17050 0.94471 0.53354
 N458 N -0.16613 0.96821 0.53395
 N459 N -0.14431 0.97707 0.53376
 C460 C -0.12617 0.96272 0.53313
 N461 N -0.13072 0.93937 0.53387
 N462 N -0.15236 0.93058 0.53403
 C463 C -0.10210 0.97148 0.52792
 C464 C -0.08720 0.95682 0.51434
 C465 C -0.06488 0.96454 0.50761
 C466 C -0.05622 0.98701 0.51488
 C467 C -0.07112 1.00179 0.52869
 C468 C -0.09397 0.99417 0.53492
 H469 H -0.17976 0.90842 0.50191
 H470 H -0.21567 0.88792 0.49397
 H471 H -0.25066 0.93513 0.54614
 H472 H -0.21329 0.95632 0.55385
 H473 H -0.09305 0.93944 0.50799
 H474 H -0.05472 0.95288 0.49591
 H475 H -0.06531 1.01934 0.53435
 H476 H -0.10520 1.00591 0.54521
 C477 C -0.18551 0.06882 0.97972
 C478 C -0.20223 0.06234 0.99832
 C479 C -0.22199 0.07511 1.00209
 C480 C -0.22623 0.09426 0.98672
 C481 C -0.20906 0.10099 0.96843
 C482 C -0.18915 0.08828 0.96479
 C483 C -0.16375 0.05625 0.97725
 N484 N -0.14581 0.06455 0.96245
 N485 N -0.12563 0.05418 0.96188
 C486 C -0.12260 0.03506 0.97603
 N487 N -0.14069 0.02653 0.99043
 N488 N -0.16083 0.03690 0.99102
 C489 C -0.09955 0.02499 0.97765
 C490 C -0.09636 0.00611 0.99360
 C491 C -0.07418 -0.00133 0.99807
 C492 C -0.05458 0.01018 0.98699
 C493 C -0.05801 0.02766 0.96925
 C494 C -0.08021 0.03514 0.96481
 H495 H -0.19979 0.04777 1.01059
 H496 H -0.23400 0.07009 1.01733
 H497 H -0.21051 0.11652 0.95740
 H498 H -0.17635 0.09406 0.95066
 H499 H -0.11091 -0.00242 1.00346
 H500 H -0.07245 -0.01537 1.01123
 H501 H -0.04360 0.03601 0.95911
 H502 H -0.08210 0.04938 0.95192
 C503 C 0.32900 0.57237 0.48396
 C504 C 0.30703 0.56128 0.48739
 C505 C 0.28737 0.57445 0.49155
 C506 C 0.28948 0.59903 0.49390
 C507 C 0.31146 0.60985 0.48876
 C508 C 0.33084 0.59679 0.48394
 C509 C 0.35020 0.55895 0.48128
 N510 N 0.35158 0.53793 0.49241
 N511 N 0.37152 0.52708 0.49216
 C512 C 0.39080 0.53673 0.48060
 N513 N 0.38922 0.55750 0.46906
 N514 N 0.36939 0.56841 0.46949
 C515 C 0.41354 0.52594 0.48212
 C516 C 0.43194 0.53317 0.46584
 C517 C 0.45412 0.52516 0.46907
 C518 C 0.45866 0.51017 0.48907
 C519 C 0.43989 0.50179 0.50435
 C520 C 0.41759 0.50962 0.50093
 H521 H 0.30504 0.54242 0.48662
 H522 H 0.27075 0.56516 0.49275
 H523 H 0.31372 0.62870 0.48923
 H524 H 0.34748 0.60590 0.48107
 H525 H 0.42930 0.54538 0.45081
 H526 H 0.46773 0.53115 0.45610
 H527 H 0.44249 0.48993 0.51971
 H528 H 0.40376 0.50363 0.51374
 C529 C 0.20224 0.58237 0.52418
 C530 C 0.20347 0.60154 0.50817
 C531 C 0.22467 0.61149 0.50050
 C532 C 0.24580 0.60248 0.50812
 C533 C 0.24440 0.58450 0.52621
 C534 C 0.22288 0.57392 0.53337
 C535 C 0.17911 0.57169 0.53025
 N536 N 0.17545 0.54820 0.53186
 N537 N 0.15390 0.53866 0.53227
 C538 C 0.13532 0.55231 0.53102
 N539 N 0.13910 0.57577 0.53057
 N540 N 0.16049 0.58523 0.53017
 C541 C 0.11164 0.54227 0.52669
 C542 C 0.09623 0.55513 0.51291
 C543 C 0.07421 0.54600 0.50719
 C544 C 0.06644 0.52391 0.51568
 C545 C 0.08190 0.51093 0.52959
 C546 C 0.10440 0.51994 0.53482
 H547 H 0.18790 0.60880 0.50108
 H548 H 0.22419 0.62666 0.48873
 H549 H 0.25996 0.57848 0.53465
 H550 H 0.22233 0.55954 0.54641
 H551 H 0.10142 0.57216 0.50576
 H552 H 0.06350 0.55629 0.49554
 H553 H 0.07677 0.49373 0.53624
 H554 H 0.11603 0.50956 0.54530
 C555 C 0.68604 0.07095 0.00047
 C556 C 0.70495 0.05991 -0.01082
 C557 C 0.72656 0.07176 -0.01284
 C558 C 0.73012 0.09465 -0.00248
 C559 C 0.71088 0.10548 0.00883
 C560 C 0.68924 0.09380 0.01037
 C561 C 0.66258 0.05970 -0.00019
 N562 N 0.64389 0.07305 -0.00134
 N563 N 0.62271 0.06326 -0.00357
 C564 C 0.61930 0.03971 -0.00451
 N565 N 0.63793 0.02624 -0.00294
 N566 N 0.65922 0.03608 -0.00099
 C567 C 0.59578 0.02944 -0.00836
 C568 C 0.58767 0.00930 0.00424
 C569 C 0.56433 0.00162 0.00239
 C570 C 0.54888 0.01376 -0.01243
 C571 C 0.55778 0.03294 -0.02624
 C572 C 0.58074 0.04085 -0.02398
 H573 H 0.70276 0.04253 -0.01930
 H574 H 0.74012 0.06315 -0.02341
 H575 H 0.71250 0.12334 0.01602
 H576 H 0.67486 0.10285 0.01893
 H577 H 0.59908 0.00015 0.01635
 H578 H 0.55836 -0.01344 0.01312
 H579 H 0.54684 0.04300 -0.03762
 H580 H 0.58664 0.05630 -0.03414
 C581 C 0.67461 0.93031 0.50692
 C582 C 0.67554 0.90602 0.50846
 C583 C 0.69661 0.89552 0.51012
 C584 C 0.71773 0.90884 0.51087
 C585 C 0.71694 0.93309 0.50710
 C586 C 0.69557 0.94374 0.50550
 C587 C 0.65163 0.94094 0.50790
 N588 N 0.64888 0.96379 0.50283
 N589 N 0.62792 0.97278 0.50453
 C590 C 0.60901 0.95928 0.51157
 N591 N 0.61190 0.93655 0.51652
 N592 N 0.63266 0.92761 0.51471
 C593 C 0.58548 0.96854 0.51421
 C594 C 0.56840 0.95564 0.52782
 C595 C 0.54570 0.96255 0.52912
 C596 C 0.53893 0.98255 0.51686
 C597 C 0.55625 0.99606 0.50387
 C598 C 0.57932 0.98914 0.50260
 H599 H 0.65987 0.89493 0.50887
 H600 H 0.69643 0.87674 0.51177
 H601 H 0.73261 0.94396 0.50539
 H602 H 0.69544 0.96247 0.50361
 H603 H 0.57241 0.93973 0.53717
 H604 H 0.53333 0.95118 0.53861
 H605 H 0.55199 1.01174 0.49427
 H606 H 0.59212 0.99952 0.49198
 C607 C 0.18849 0.43334 0.98706
 C608 C 0.19669 0.41649 0.96967
 C609 C 0.21684 0.40494 0.97462
 C610 C 0.22889 0.40914 0.99781
 C611 C 0.22125 0.42735 1.01429
 C612 C 0.20139 0.43926 1.00899
 C613 C 0.16564 0.44321 0.98339
 N614 N 0.16071 0.46456 0.99339
 N615 N 0.13939 0.47238 0.99200
 C616 C 0.12216 0.45902 0.98080
 N617 N 0.12716 0.43780 0.97060
 N618 N 0.14850 0.43012 0.97171
 C619 C 0.09797 0.46612 0.98237
 C620 C 0.08035 0.44949 0.98829
 C621 C 0.05776 0.45619 0.99292
 C622 C 0.05183 0.47957 0.99063
 C623 C 0.06953 0.49610 0.98377
 C624 C 0.09242 0.48949 0.98006
 H625 H 0.18735 0.41206 0.95225
 H626 H 0.22240 0.39261 0.96012
 H627 H 0.23022 0.43165 1.03198
 H628 H 0.19552 0.45230 1.02271
 H629 H 0.08432 0.43145 0.99088
 H630 H 0.04547 0.44309 0.99993
 H631 H 0.06598 0.51436 0.98228
 H632 H 0.10583 0.50265 0.97567
 C633 C -0.00398 0.31797 0.41518
 C634 C 0.01118 0.31557 0.39407
 C635 C 0.01057 0.29528 0.37882
 C636 C -0.00457 0.27610 0.38476
 C637 C -0.02131 0.27954 0.40446
 C638 C -0.02080 0.30007 0.41974
 C639 C -0.00155 0.33907 0.43212
 N640 N -0.01893 0.34586 0.44820
 N641 N -0.01642 0.36541 0.46259
 C642 C 0.00365 0.37876 0.46166
 N643 N 0.02101 0.37165 0.44588
 N644 N 0.01849 0.35230 0.43148
 C645 C 0.00638 0.40157 0.47568
 C646 C 0.02750 0.41450 0.47368
 C647 C 0.02951 0.43749 0.48273
 C648 C 0.01045 0.44847 0.49418
 C649 C -0.00988 0.43467 0.49885
 C650 C -0.01207 0.41155 0.48932
 H651 H 0.02365 0.32947 0.38922
 H652 H 0.02220 0.29491 0.36239
 H653 H -0.03428 0.26589 0.40862
 H654 H -0.03317 0.30167 0.43545
 H655 H 0.04238 0.40726 0.46402
 H656 H 0.04597 0.44679 0.47959
 H657 H -0.02463 0.44200 0.50846
 H658 H -0.02846 0.40189 0.49172
 C659 C 0.49170 -0.18996 -0.07457
 C660 C 0.51184 -0.19095 -0.08978
 C661 C 0.51504 -0.20963 -0.10691
 C662 C 0.49873 -0.22877 -0.10839
 C663 C 0.47816 -0.22719 -0.09343
 C664 C 0.47466 -0.20803 -0.07685
 C665 C 0.48818 -0.16925 -0.05782
 N666 N 0.46693 -0.16021 -0.05520
 N667 N 0.46437 -0.13985 -0.04282
 C668 C 0.48286 -0.12793 -0.03223
 N669 N 0.50396 -0.13735 -0.03418
 N670 N 0.50658 -0.15756 -0.04681
 C671 C 0.48092 -0.10366 -0.02259
 C672 C 0.49610 -0.09397 -0.00401
 C673 C 0.49698 -0.06991 0.00149
 C674 C 0.48313 -0.05501 -0.01203
 C675 C 0.46738 -0.06510 -0.02995
 C676 C 0.46593 -0.08911 -0.03471
 H677 H 0.52485 -0.17674 -0.08913
 H678 H 0.53024 -0.20842 -0.11915
 H679 H 0.46479 -0.24102 -0.09454
 H680 H 0.45873 -0.20744 -0.06564
 H681 H 0.50790 -0.10488 0.00554
 H682 H 0.50953 -0.06293 0.01516
 H683 H 0.45683 -0.05438 -0.04135
 H684 H 0.45429 -0.09603 -0.04940
 C685 C 0.00190 -0.18990 1.08526
 C686 C -0.01838 -0.20424 1.08615
 C687 C -0.01995 -0.22343 1.10213
 C688 C -0.00145 -0.22869 1.11810
 C689 C 0.01954 -0.21534 1.11531
 C690 C 0.02101 -0.19599 1.09955
 C691 C 0.00280 -0.16799 1.07076
 N692 N 0.01909 -0.15091 1.07631
 N693 N 0.01892 -0.13039 1.06507
 C694 C 0.00256 -0.12608 1.04763
 N695 N -0.01349 -0.14331 1.04160
 N696 N -0.01342 -0.16384 1.05303
 C697 C 0.00133 -0.10242 1.03730
 C698 C -0.00842 -0.09854 1.01333
 C699 C -0.00940 -0.07577 1.00426
 C700 C -0.00112 -0.05651 1.01929
 C701 C 0.00815 -0.06066 1.04347
 C702 C 0.00966 -0.08322 1.05212
 H703 H -0.03334 -0.20026 1.07512
 H704 H -0.03602 -0.23390 1.10269
 H705 H 0.03504 -0.21963 1.12507
 H706 H 0.03718 -0.18572 1.09862
 H707 H -0.01501 -0.11309 1.00153
 H708 H -0.01671 -0.07326 0.98561
 H709 H 0.01476 -0.04649 1.05578
 H710 H 0.01703 -0.08558 1.07078
 C711 C 0.51128 0.30897 0.58033
 C712 C 0.49023 0.29583 0.58136
 C713 C 0.48754 0.27682 0.59750
 C714 C 0.50564 0.27062 0.61354
 C715 C 0.52740 0.28253 0.61035
 C716 C 0.53001 0.30169 0.59442
 C717 C 0.51338 0.33092 0.56598
 N718 N 0.53074 0.34695 0.57133
 N719 N 0.53166 0.36761 0.56030
 C720 C 0.51535 0.37310 0.54330
 N721 N 0.49821 0.35691 0.53750
 N722 N 0.49720 0.33626 0.54870
 C723 C 0.51536 0.39690 0.53310
 C724 C 0.50441 0.40148 0.51001
 C725 C 0.50400 0.42435 0.50125
 C726 C 0.51409 0.44310 0.51572
 C727 C 0.52488 0.43831 0.53889
 C728 C 0.52579 0.41555 0.54723
 H729 H 0.47554 0.30071 0.57040
 H730 H 0.47088 0.26739 0.59827
 H731 H 0.54259 0.27733 0.62010
 H732 H 0.54674 0.31094 0.59333
 H733 H 0.49624 0.38738 0.49873
 H734 H 0.49551 0.42733 0.48337
 H735 H 0.53290 0.45214 0.55067
 H736 H 0.53420 0.41266 0.56519
 C737 C 0.49012 1.18936 0.58025
 C738 C 0.47150 1.19837 0.59437
 C739 C 0.47480 1.21783 0.61072
 C740 C 0.49705 1.22860 0.61414
 C741 C 0.51524 1.22064 0.59820
 C742 C 0.51194 1.20108 0.58183
 C743 C 0.48682 1.16719 0.56519
 N744 N 0.50438 1.15823 0.55091
 N745 N 0.50186 1.13719 0.53950
 C746 C 0.48168 1.12427 0.54199
 N747 N 0.46401 1.13347 0.55579
 N748 N 0.46650 1.15447 0.56706
 C749 C 0.47976 1.09965 0.53276
 C750 C 0.46400 1.08413 0.54496
 C751 C 0.46410 1.06031 0.53938
 C752 C 0.47935 1.05125 0.52068
 C753 C 0.49434 1.06697 0.50744
 C754 C 0.49471 1.09093 0.51361
 H755 H 0.45426 1.19027 0.59301
 H756 H 0.45964 1.22436 0.62037
 H757 H 0.53228 1.22928 0.59899
 H758 H 0.52659 1.19491 0.57081
 H759 H 0.45238 1.09019 0.55997
 H760 H 0.45260 1.04894 0.55051
 H761 H 0.50655 1.06073 0.49316
 H762 H 0.50705 1.10254 0.50387
 C763 C -0.00949 0.68828 1.08501
 C764 C 0.01020 0.70347 1.08470
 C765 C 0.01110 0.72360 1.10038
 C766 C -0.00750 0.72897 1.11718
 C767 C -0.02814 0.71495 1.11513
 C768 C -0.02892 0.69463 1.09970
 C769 C -0.00916 0.66514 1.07179
 N770 N -0.02387 0.64753 1.07957
 N771 N -0.02226 0.62605 1.06967
 C772 C -0.00596 0.62125 1.05146
 N773 N 0.00848 0.63894 1.04321
 N774 N 0.00698 0.66044 1.05330
 C775 C -0.00326 0.59694 1.04220
 C776 C 0.00591 0.59169 1.01769
 C777 C 0.00762 0.56841 1.00921
 C778 C 0.00056 0.55002 1.02529
 C779 C -0.00770 0.55553 1.05020
 C780 C -0.00989 0.57861 1.05835
 H781 H 0.02535 0.69930 1.07328
 H782 H 0.02691 0.73449 1.10042
 H783 H -0.04375 0.71924 1.12555
 H784 H -0.04468 0.68367 1.09959
 H785 H 0.01126 0.60556 1.00491
 H786 H 0.01420 0.56486 0.99002
 H787 H -0.01332 0.54204 1.06330
 H788 H -0.01671 0.58209 1.07747
 C789 C 0.50724 0.68363 -0.08747
 C790 C 0.50848 0.68475 -0.11431
 C791 C 0.50635 0.70587 -0.12641
 C792 C 0.50272 0.72672 -0.11221
 C793 C 0.50220 0.72551 -0.08511
 C794 C 0.50404 0.70421 -0.07300
 C795 C 0.50983 0.66104 -0.07499
 N796 N 0.50321 0.65771 -0.05013
 N797 N 0.50517 0.63701 -0.03947
 C798 C 0.51402 0.61892 -0.05323
 N799 N 0.52076 0.62243 -0.07794
 N800 N 0.51870 0.64298 -0.08858
 C801 C 0.51553 0.59541 -0.04242
 C802 C 0.52728 0.57837 -0.05655
 C803 C 0.52669 0.55543 -0.04878
 C804 C 0.51462 0.54864 -0.02630
 C805 C 0.50385 0.56591 -0.01127
 C806 C 0.50429 0.58913 -0.01928
 H807 H 0.51103 0.66924 -0.12612
 H808 H 0.50746 0.70599 -0.14717
 H809 H 0.50091 0.74087 -0.07288
 H810 H 0.50351 0.70396 -0.05224
 H811 H 0.53645 0.58254 -0.07424
 H812 H 0.53541 0.54290 -0.06095
 H813 H 0.49435 0.56137 0.00610
 H814 H 0.49513 0.60191 -0.00790
 C815 C -0.00106 1.18942 0.41411
 C816 C -0.00403 1.18842 0.38744
 C817 C -0.00508 1.20875 0.37362
 C818 C -0.00357 1.23097 0.38589
 C819 C 0.00048 1.23188 0.41262
 C820 C 0.00124 1.21136 0.42657
 C821 C 0.00038 1.16743 0.42818
 N822 N -0.00290 1.16651 0.45408
 N823 N -0.00189 1.14631 0.46612
 C824 C 0.00262 1.12632 0.45270
 N825 N 0.00593 1.12741 0.42693
 N826 N 0.00480 1.14744 0.41496
 C827 C 0.00376 1.10342 0.46511
 C828 C 0.01360 1.08508 0.45114
 C829 C 0.01286 1.06271 0.46052
 C830 C 0.00255 1.05768 0.48455
 C831 C -0.00643 1.07622 0.49928
 C832 C -0.00580 1.09897 0.48964
 H833 H -0.00564 1.17183 0.37708
 H834 H -0.00735 1.20716 0.35306
 H835 H 0.00361 1.24824 0.42293
 H836 H 0.00422 1.21269 0.44702
 H837 H 0.02151 1.08781 0.43242
 H838 H 0.02021 1.04924 0.44842
 H839 H -0.01455 1.07304 0.51779
 H840 H -0.01348 1.11281 0.50091
 C841 C 0.78761 0.65120 0.94606
 C842 C 0.78328 0.62710 0.94223
 C843 C 0.77404 0.61347 0.96191
 C844 C 0.76848 0.62338 0.98616
 C845 C 0.77497 0.64717 0.99066
 C846 C 0.78385 0.66103 0.97067
 C847 C 0.79423 0.66579 0.92378
 N848 N 0.79208 0.68932 0.92464
 N849 N 0.79417 0.70163 0.90327
 C850 C 0.79860 0.69086 0.88029
 N851 N 0.80166 0.66756 0.87968
 N852 N 0.79963 0.65534 0.90094
 C853 C 0.79451 0.70245 0.85599
 C854 C 0.77984 0.69071 0.83845
 C855 C 0.77348 0.70133 0.81627
 C856 C 0.78251 0.72371 0.81000
 C857 C 0.79761 0.73551 0.82747
 C858 C 0.80331 0.72506 0.85055
 H859 H 0.78627 0.61873 0.92369
 H860 H 0.77061 0.59503 0.95795
 H861 H 0.77323 0.65527 1.00950
 H862 H 0.78765 0.67943 0.97445
 H863 H 0.77231 0.67353 0.84247
 H864 H 0.76097 0.69187 0.80429
 H865 H 0.80439 0.75300 0.82372
 H866 H 0.81446 0.73455 0.86408
 C867 C 0.26779 0.15511 0.42829
 C868 C 0.27580 0.13292 0.43284
 C869 C 0.26857 0.12089 0.45463
 C870 C 0.25365 0.13091 0.47318
 C871 C 0.24446 0.15255 0.46756
 C872 C 0.25189 0.16474 0.44579
 C873 C 0.27467 0.16713 0.40435
 N874 N 0.27038 0.18996 0.40114
 N875 N 0.27473 0.19997 0.37866
 C876 C 0.28356 0.18752 0.35854
 N877 N 0.28834 0.16489 0.36196
 N878 N 0.28415 0.15497 0.38442
 C879 C 0.28352 0.19667 0.33239
 C880 C 0.27525 0.18184 0.31256
 C881 C 0.27005 0.19072 0.28895
 C882 C 0.27430 0.21451 0.28371
 C883 C 0.28436 0.22908 0.30310
 C884 C 0.28849 0.22032 0.32743
 H885 H 0.28755 0.12464 0.41940
 H886 H 0.27474 0.10355 0.45692
 H887 H 0.23145 0.16015 0.47992
 H888 H 0.24466 0.18142 0.44231
 H889 H 0.27073 0.16365 0.31600
 H890 H 0.26091 0.17898 0.27571
 H891 H 0.28739 0.24757 0.30019
 H892 H 0.29476 0.23212 0.34258
 C893 C 0.73050 0.35435 0.42384
 C894 C 0.72594 0.34575 0.44842
 C895 C 0.73541 0.35735 0.47009
 C896 C 0.75082 0.37707 0.46766
 C897 C 0.75443 0.38597 0.44287
 C898 C 0.74463 0.37473 0.42140
 C899 C 0.72112 0.34232 0.40049
 N900 N 0.72002 0.35416 0.37844
 N901 N 0.71439 0.34315 0.35653
 C902 C 0.70957 0.31978 0.35560
 N903 N 0.70986 0.30797 0.37786
 N904 N 0.71543 0.31905 0.39991
 C905 C 0.70819 0.30730 0.33031
 C906 C 0.70207 0.28334 0.32801
 C907 C 0.70601 0.27100 0.30481
 C908 C 0.71676 0.28225 0.28373
 C909 C 0.72130 0.30654 0.28589
 C910 C 0.71652 0.31890 0.30847
 H911 H 0.71465 0.33037 0.45095
 H912 H 0.73051 0.35096 0.48884
 H913 H 0.76451 0.40205 0.43992
 H914 H 0.74827 0.38206 0.40277
 H915 H 0.69548 0.27390 0.34449
 H916 H 0.70250 0.25230 0.30419
 H917 H 0.73066 0.31603 0.27114
 H918 H 0.72155 0.33731 0.30939
 C919 C 0.21149 0.84898 0.94255
 C920 C 0.21777 0.87281 0.94106
 C921 C 0.22670 0.88518 0.96223
 C922 C 0.22992 0.87420 0.98568
 C923 C 0.22150 0.85081 0.98778
 C924 C 0.21300 0.83817 0.96626
 C925 C 0.20531 0.83557 0.91879
 N926 N 0.20724 0.81205 0.91701
 N927 N 0.20589 0.80078 0.89431
 C928 C 0.20250 0.81264 0.87258
 N929 N 0.19949 0.83592 0.87461
 N930 N 0.20081 0.84711 0.89720
 C931 C 0.20705 0.80194 0.84705
 C932 C 0.21922 0.81547 0.82893
 C933 C 0.22750 0.80536 0.80634
 C934 C 0.22277 0.78160 0.80028
 C935 C 0.20961 0.76815 0.81799
 C936 C 0.20211 0.77818 0.84140
 H937 H 0.21658 0.88188 0.92323
 H938 H 0.23164 0.90345 0.96008
 H939 H 0.22150 0.84212 1.00591
 H940 H 0.20769 0.81995 0.96816
 H941 H 0.22384 0.83369 0.83297
 H942 H 0.23853 0.81624 0.79419
 H943 H 0.20609 0.74968 0.81440
 H944 H 0.19297 0.76732 0.85528
 C945 C 0.26880 0.85159 0.07170
 C946 C 0.25781 0.87264 0.07613
 C947 C 0.24821 0.88415 0.05603
 C948 C 0.24891 0.87488 0.03070
 C949 C 0.26169 0.85471 0.02611
 C950 C 0.27086 0.84279 0.04645
 C951 C 0.27691 0.83879 0.09383
 N952 N 0.27843 0.81520 0.09279
 N953 N 0.28188 0.80349 0.11407
 C954 C 0.28405 0.81497 0.13711
 N955 N 0.28361 0.83859 0.13781
 N956 N 0.28014 0.85023 0.11666
 C957 C 0.28218 0.80230 0.16141
 C958 C 0.27107 0.81300 0.18238
 C959 C 0.26495 0.80044 0.20399
 C960 C 0.27083 0.77706 0.20611
 C961 C 0.28320 0.76663 0.18564
 C962 C 0.28853 0.77906 0.16328
 H963 H 0.25619 0.88015 0.09532
 H964 H 0.24037 0.90057 0.06047
 H965 H 0.26455 0.84806 0.00676
 H966 H 0.27979 0.82689 0.04241
 H967 H 0.26549 0.83071 0.18146
 H968 H 0.25454 0.80902 0.21851
 H969 H 0.28767 0.74855 0.18628
 H970 H 0.29699 0.77036 0.14725
 C971 C 0.77947 0.35149 0.55761
 C972 C 0.77588 0.37549 0.55962
 C973 C 0.76982 0.38776 0.53832
 C974 C 0.76677 0.37653 0.51416
 C975 C 0.77254 0.35290 0.51167
 C976 C 0.77829 0.34040 0.53327
 C977 C 0.78278 0.33835 0.58130
 N978 N 0.78235 0.31461 0.58110
 N979 N 0.78217 0.30312 0.60306
 C980 C 0.78239 0.31498 0.62599
 N981 N 0.78359 0.33862 0.62607
 N982 N 0.78385 0.35003 0.60425
 C983 C 0.77775 0.30304 0.65037
 C984 C 0.76355 0.31379 0.66874
 C985 C 0.75759 0.30287 0.69146
 C986 C 0.76640 0.28117 0.69717
 C987 C 0.78085 0.27035 0.67882
 C988 C 0.78625 0.28110 0.65540
 H989 H 0.77705 0.38485 0.57789
 H990 H 0.76684 0.40616 0.54092
 H991 H 0.77256 0.34392 0.49318
 H992 H 0.78161 0.32204 0.53094
 H993 H 0.75637 0.33050 0.66521
 H994 H 0.74599 0.31168 0.70461
 H995 H 0.78763 0.25348 0.68232
 H996 H 0.79712 0.27240 0.64136
 C997 C 0.22706 0.15730 0.56620
 C998 C 0.21880 0.13414 0.56232
 C999 C 0.22510 0.12144 0.54034
 C1000 C 0.23937 0.13163 0.52104
 C1001 C 0.24896 0.15436 0.52598
 C1002 C 0.24243 0.16720 0.54793
 C1003 C 0.22076 0.17035 0.59003
 N1004 N 0.22487 0.19382 0.59241
 N1005 N 0.22068 0.20509 0.61460
 C1006 C 0.21223 0.19333 0.63525
 N1007 N 0.20769 0.16998 0.63267
 N1008 N 0.21171 0.15877 0.61050
 C1009 C 0.21190 0.20469 0.66099
 C1010 C 0.21837 0.19191 0.68196
 C1011 C 0.22349 0.20310 0.70527
 C1012 C 0.22105 0.22729 0.70892
 C1013 C 0.21253 0.23976 0.68841
 C1014 C 0.20840 0.22863 0.66451
 H1015 H 0.20742 0.12571 0.57632
 H1016 H 0.21854 0.10353 0.53826
 H1017 H 0.26162 0.16230 0.51303
 H1018 H 0.24986 0.18472 0.55088
 H1019 H 0.22165 0.17353 0.67972
 H1020 H 0.23135 0.19283 0.71945
 H1021 H 0.21082 0.25844 0.69012
 H1022 H 0.20343 0.23888 0.64854
 C1023 C 0.72707 0.64158 0.07472
 C1024 C 0.72437 0.65062 0.05026
 C1025 C 0.73384 0.63945 0.02849
 C1026 C 0.74760 0.61989 0.03082
 C1027 C 0.74869 0.61014 0.05531
 C1028 C 0.73881 0.62087 0.07682
 C1029 C 0.71885 0.65380 0.09834
 N1030 N 0.71712 0.64221 0.12066
 N1031 N 0.71314 0.65350 0.14277
 C1032 C 0.71066 0.67691 0.14362
 N1033 N 0.71148 0.68846 0.12116
 N1034 N 0.71545 0.67711 0.09893
 C1035 C 0.71112 0.68964 0.16874
 C1036 C 0.70454 0.71287 0.17164
 C1037 C 0.70878 0.72553 0.19467
 C1038 C 0.72023 0.71536 0.21494
 C1039 C 0.72603 0.69188 0.21196
 C1040 C 0.72104 0.67911 0.18959
 H1041 H 0.71483 0.66622 0.04793
 H1042 H 0.73070 0.64636 0.00983
 H1043 H 0.75717 0.59400 0.05807
 H1044 H 0.74084 0.61308 0.09528
 H1045 H 0.69689 0.72147 0.15584
 H1046 H 0.70437 0.74366 0.19595
 H1047 H 0.73581 0.68345 0.22624
 H1048 H 0.72665 0.66138 0.18803
 C1049 C 0.17987 0.55436 0.22612
 C1050 C 0.15851 0.54791 0.21503
 C1051 C 0.14756 0.52629 0.21983
 C1052 C 0.15778 0.51006 0.23553
 C1053 C 0.17923 0.51677 0.24676
 C1054 C 0.19034 0.53841 0.24169
 C1055 C 0.18972 0.57848 0.22348
 N1056 N 0.21240 0.58407 0.22829
 N1057 N 0.22051 0.60622 0.22779
 C1058 C 0.20620 0.62359 0.22268
 N1059 N 0.18366 0.61794 0.21760
 N1060 N 0.17563 0.59586 0.21784
 C1061 C 0.21402 0.64836 0.22550
 C1062 C 0.19885 0.66419 0.23662
 C1063 C 0.20617 0.68726 0.24158
 C1064 C 0.22863 0.69563 0.23454
 C1065 C 0.24372 0.67975 0.22280
 C1066 C 0.23658 0.65625 0.21866
 H1067 H 0.14982 0.55991 0.20319
 H1068 H 0.13053 0.52270 0.21194
 H1069 H 0.18710 0.50562 0.26021
 H1070 H 0.20655 0.54312 0.25104
 H1071 H 0.18156 0.65844 0.24275
 H1072 H 0.19444 0.69802 0.25235
 H1073 H 0.26130 0.68523 0.21756
 H1074 H 0.24866 0.64426 0.21019
 C1075 C 0.70016 0.05786 0.73299
 C1076 C 0.68792 0.04801 0.71202
 C1077 C 0.67476 0.02711 0.71446
 C1078 C 0.67278 0.01603 0.73830
 C1079 C 0.68746 0.02449 0.75813
 C1080 C 0.70073 0.04525 0.75564
 C1081 C 0.71041 0.08198 0.73217
 N1082 N 0.72186 0.09150 0.75271
 N1083 N 0.72866 0.11397 0.75341
 C1084 C 0.72425 0.12794 0.73364
 N1085 N 0.71322 0.11834 0.71284
 N1086 N 0.70642 0.09583 0.71214
 C1087 C 0.72983 0.15338 0.73567
 C1088 C 0.72439 0.16824 0.71587
 C1089 C 0.72802 0.19242 0.71887
 C1090 C 0.73648 0.20238 0.74205
 C1091 C 0.74326 0.18729 0.76110
 C1092 C 0.73973 0.16320 0.75810
 H1093 H 0.68784 0.05683 0.69393
 H1094 H 0.66567 0.02026 0.69776
 H1095 H 0.68738 0.01583 0.77633
 H1096 H 0.71047 0.05197 0.77201
 H1097 H 0.71705 0.16125 0.69816
 H1098 H 0.72354 0.20333 0.70325
 H1099 H 0.75117 0.19403 0.77861
 H1100 H 0.74453 0.15230 0.77360
 C1101 C 0.81372 0.06857 0.26518
 C1102 C 0.83553 0.06556 0.27574
 C1103 C 0.84697 0.04493 0.27135
 C1104 C 0.83681 0.02617 0.25680
 C1105 C 0.81515 0.02956 0.24561
 C1106 C 0.80357 0.05026 0.25017
 C1107 C 0.80284 0.09146 0.26816
 N1108 N 0.78042 0.09422 0.26168
 N1109 N 0.77151 0.11530 0.26268
 C1110 C 0.78471 0.13443 0.27011
 N1111 N 0.80694 0.13156 0.27696
 N1112 N 0.81575 0.11055 0.27614
 C1113 C 0.77645 0.15827 0.26767
 C1114 C 0.79222 0.17581 0.25942
 C1115 C 0.78493 0.19797 0.25462
 C1116 C 0.76175 0.20388 0.25899
 C1117 C 0.74596 0.18633 0.26793
 C1118 C 0.75318 0.16364 0.27189
 H1119 H 0.84411 0.07940 0.28704
 H1120 H 0.86416 0.04383 0.27904
 H1121 H 0.80733 0.01650 0.23274
 H1122 H 0.78708 0.05227 0.24112
 H1123 H 0.81013 0.17205 0.25525
 H1124 H 0.79747 0.20983 0.24581
 H1125 H 0.72786 0.18986 0.27098
 H1126 H 0.74062 0.15030 0.27810
 C1127 C 0.32293 0.57385 0.75940
 C1128 C 0.34321 0.56951 0.77257
 C1129 C 0.35502 0.54914 0.76743
 C1130 C 0.34656 0.53208 0.74948
 C1131 C 0.32660 0.53699 0.73578
 C1132 C 0.31474 0.55730 0.74098
 C1133 C 0.31111 0.59608 0.76367
 N1134 N 0.29129 0.59999 0.75119
 N1135 N 0.28137 0.62042 0.75372
 C1136 C 0.29080 0.63787 0.76887
 N1137 N 0.31046 0.63387 0.78167
 N1138 N 0.32038 0.61340 0.77915
 C1139 C 0.28085 0.66127 0.76959
 C1140 C 0.29104 0.67992 0.78409
 C1141 C 0.28339 0.70257 0.78187
 C1142 C 0.26597 0.70718 0.76444
 C1143 C 0.25429 0.68808 0.75198
 C1144 C 0.26178 0.66551 0.75434
 H1145 H 0.35032 0.58211 0.78648
 H1146 H 0.37118 0.54711 0.77714
 H1147 H 0.32028 0.52523 0.72063
 H1148 H 0.29948 0.56028 0.73000
 H1149 H 0.30537 0.67717 0.79660
 H1150 H 0.29173 0.71657 0.79312
 H1151 H 0.24011 0.69056 0.73920
 H1152 H 0.25312 0.65152 0.74334
 C1153 C 0.32313 0.44416 0.72810
 C1154 C 0.31265 0.46201 0.74237
 C1155 C 0.32419 0.48380 0.74599
 C1156 C 0.34615 0.48868 0.73451
 C1157 C 0.35634 0.47055 0.72007
 C1158 C 0.34496 0.44878 0.71676
 C1159 C 0.31258 0.42018 0.72705
 N1160 N 0.32619 0.40177 0.72278
 N1161 N 0.31735 0.38001 0.72376
 C1162 C 0.29447 0.37571 0.72881
 N1163 N 0.28068 0.39409 0.73262
 N1164 N 0.28959 0.41592 0.73187
 C1165 C 0.28540 0.35151 0.73219
 C1166 C 0.26235 0.34469 0.72667
 C1167 C 0.25404 0.32174 0.73077
 C1168 C 0.26849 0.30530 0.74103
 C1169 C 0.29146 0.31257 0.74687
 C1170 C 0.29988 0.33516 0.74209
 H1171 H 0.29606 0.45876 0.75190
 H1172 H 0.31624 0.49643 0.75869
 H1173 H 0.37363 0.47296 0.71198
 H1174 H 0.35363 0.43531 0.70587
 H1175 H 0.25080 0.35707 0.71912
 H1176 H 0.23616 0.31710 0.72636
 H1177 H 0.30288 0.30124 0.75621
 H1178 H 0.31757 0.34009 0.74713
 C1179 C 0.81365 0.93764 0.23583
 C1180 C 0.80379 0.95475 0.25179
 C1181 C 0.81539 0.97647 0.25596
 C1182 C 0.83667 0.98212 0.24333
 C1183 C 0.84644 0.96459 0.22761
 C1184 C 0.83503 0.94290 0.22371
 C1185 C 0.80308 0.91367 0.23362
 N1186 N 0.81654 0.89562 0.22705
 N1187 N 0.80787 0.87376 0.22696
 C1188 C 0.78528 0.86899 0.23311
 N1189 N 0.77157 0.88703 0.23916
 N1190 N 0.78033 0.90897 0.23949
 C1191 C 0.77690 0.84455 0.23623
 C1192 C 0.75446 0.83654 0.22939
 C1193 C 0.74704 0.81323 0.23341
 C1194 C 0.76173 0.79775 0.24498
 C1195 C 0.78398 0.80635 0.25220
 C1196 C 0.79159 0.82913 0.24738
 H1197 H 0.78765 0.95096 0.26202
 H1198 H 0.80795 0.98860 0.26967
 H1199 H 0.86339 0.96736 0.21877
 H1200 H 0.84332 0.92998 0.21162
 H1201 H 0.74275 0.84824 0.22090
 H1202 H 0.72962 0.80758 0.22805
 H1203 H 0.79538 0.79596 0.26282
 H1204 H 0.80875 0.83503 0.25351
 C1205 C 0.69861 0.93604 0.75733
 C1206 C 0.69868 0.94656 0.73332
 C1207 C 0.68526 0.96575 0.72939
 C1208 C 0.67088 0.97465 0.74912
 C1209 C 0.67251 0.96520 0.77374
 C1210 C 0.68585 0.94598 0.77764
 C1211 C 0.71090 0.91429 0.76094
 N1212 N 0.70786 0.90219 0.78288
 N1213 N 0.71748 0.88175 0.78543
 C1214 C 0.73064 0.87257 0.76618
 N1215 N 0.73396 0.88484 0.74441
 N1216 N 0.72429 0.90525 0.74183
 C1217 C 0.73964 0.84891 0.76800
 C1218 C 0.75386 0.83993 0.74838
 C1219 C 0.76002 0.81672 0.74838
 C1220 C 0.75168 0.80167 0.76770
 C1221 C 0.73906 0.81121 0.78839
 C1222 C 0.73297 0.83451 0.78848
 H1223 H 0.70867 0.93965 0.71733
 H1224 H 0.68543 0.97327 0.71055
 H1225 H 0.66356 0.97246 0.79024
 H1226 H 0.68599 0.93879 0.79661
 H1227 H 0.75967 0.85061 0.73251
 H1228 H 0.77031 0.81035 0.73236
 H1229 H 0.73347 0.80068 0.80434
 H1230 H 0.72240 0.84101 0.80422
 C1231 C 0.18032 0.42419 0.25472
 C1232 C 0.19006 0.44183 0.23917
 C1233 C 0.17897 0.46278 0.23654
 C1234 C 0.15806 0.46700 0.24992
 C1235 C 0.14836 0.44903 0.26525
 C1236 C 0.15946 0.42818 0.26794
 C1237 C 0.19096 0.40119 0.25586
 N1238 N 0.18127 0.38403 0.27056
 N1239 N 0.18998 0.36294 0.27043
 C1240 C 0.20877 0.35807 0.25557
 N1241 N 0.21862 0.37531 0.24110
 N1242 N 0.20992 0.39641 0.24124
 C1243 C 0.21761 0.33419 0.25409
 C1244 C 0.23569 0.32889 0.23689
 C1245 C 0.24293 0.30611 0.23395
 C1246 C 0.23217 0.28787 0.24800
 C1247 C 0.21486 0.29341 0.26615
 C1248 C 0.20755 0.31626 0.26903
 H1249 H 0.20592 0.43920 0.22835
 H1250 H 0.18642 0.47526 0.22324
 H1251 H 0.13168 0.45083 0.27469
 H1252 H 0.15122 0.41487 0.27975
 H1253 H 0.24397 0.34226 0.22518
 H1254 H 0.25654 0.30283 0.21999
 H1255 H 0.20668 0.28012 0.27794
 H1256 H 0.19377 0.31977 0.28273
 C1257 C 0.05670 0.23733 0.82756
 C1258 C 0.03649 0.23947 0.81343
 C1259 C 0.01487 0.24067 0.82592
 C1260 C 0.01303 0.24069 0.85303
 C1261 C 0.03335 0.23710 0.86676
 C1262 C 0.05473 0.23554 0.85431
 C1263 C 0.07998 0.23760 0.81510
 N1264 N 0.09846 0.23170 0.82876
 N1265 N 0.11974 0.23345 0.81880
 C1266 C 0.12365 0.24126 0.79471
 N1267 N 0.10513 0.24683 0.78071
 N1268 N 0.08369 0.24504 0.79073
 C1269 C 0.14788 0.24434 0.78498
 C1270 C 0.15346 0.25053 0.75957
 C1271 C 0.17677 0.25323 0.75140
 C1272 C 0.19482 0.24984 0.76854
 C1273 C 0.18890 0.24402 0.79397
 C1274 C 0.16598 0.24125 0.80193
 H1275 H 0.03739 0.24027 0.79271
 H1276 H -0.00013 0.24175 0.81404
 H1277 H 0.03277 0.23644 0.88750
 H1278 H 0.06987 0.23363 0.86589
 H1279 H 0.13988 0.25312 0.74603
 H1280 H 0.18065 0.25771 0.73172
 H1281 H 0.20190 0.24108 0.80804
 H1282 H 0.16255 0.23665 0.82168
 C1283 C 0.55528 0.74595 0.33863
 C1284 C 0.53449 0.74649 0.32521
 C1285 C 0.51325 0.74774 0.33847
 C1286 C 0.51230 0.74928 0.36562
 C1287 C 0.53339 0.74827 0.37874
 C1288 C 0.55442 0.74679 0.36555
 C1289 C 0.57788 0.74376 0.32513
 N1290 N 0.59640 0.73727 0.33836
 N1291 N 0.61695 0.73547 0.32689
 C1292 C 0.62004 0.74010 0.30165
 N1293 N 0.60152 0.74660 0.28824
 N1294 N 0.58079 0.74832 0.29976
 C1295 C 0.64350 0.73855 0.28987
 C1296 C 0.64947 0.74795 0.26585
 C1297 C 0.67258 0.74818 0.25677
 C1298 C 0.68998 0.73901 0.27158
 C1299 C 0.68350 0.72890 0.29510
 C1300 C 0.66074 0.72849 0.30391
 H1301 H 0.53457 0.74534 0.30444
 H1302 H 0.49776 0.74688 0.32715
 H1303 H 0.53352 0.74874 0.39952
 H1304 H 0.57009 0.74630 0.37659
 H1305 H 0.63651 0.75579 0.25453
 H1306 H 0.67690 0.75618 0.23864
 H1307 H 0.69610 0.72145 0.30722
 H1308 H 0.65686 0.72073 0.32228
 C1309 C 0.55777 0.25480 0.16193
 C1310 C 0.54428 0.23391 0.15970
 C1311 C 0.52520 0.23223 0.14345
 C1312 C 0.51931 0.25123 0.12852
 C1313 C 0.53159 0.27276 0.13299
 C1314 C 0.55078 0.27436 0.14898
 C1315 C 0.57983 0.25598 0.17619
 N1316 N 0.59624 0.27294 0.17101
 N1317 N 0.61690 0.27312 0.18191
 C1318 C 0.62204 0.25647 0.19864
 N1319 N 0.60549 0.23973 0.20432
 N1320 N 0.58482 0.23943 0.19321
 C1321 C 0.64587 0.25572 0.20846
 C1322 C 0.65052 0.24706 0.23273
 C1323 C 0.67343 0.24685 0.24141
 C1324 C 0.69206 0.25478 0.22568
 C1325 C 0.68713 0.26280 0.20114
 C1326 C 0.66444 0.26361 0.19289
 H1327 H 0.54894 0.21859 0.16976
 H1328 H 0.51548 0.21570 0.14170
 H1329 H 0.52667 0.28856 0.12413
 H1330 H 0.56032 0.29098 0.15102
 H1331 H 0.63645 0.24082 0.24509
 H1332 H 0.67653 0.24045 0.26032
 H1333 H 0.70080 0.26903 0.18827
 H1334 H 0.66145 0.27012 0.17398
 C1335 C 0.06304 0.76369 0.67746
 C1336 C 0.05624 0.78315 0.66413
 C1337 C 0.03724 0.78142 0.64780
 C1338 C 0.02493 0.75988 0.64357
 C1339 C 0.03086 0.74095 0.65860
 C1340 C 0.04968 0.74276 0.67509
 C1341 C 0.08478 0.76482 0.69229
 N1342 N 0.09008 0.74731 0.70796
 N1343 N 0.11066 0.74735 0.71921
 C1344 C 0.12681 0.76484 0.71507
 N1345 N 0.12131 0.78253 0.69983
 N1346 N 0.10074 0.78256 0.68875
 C1347 C 0.15073 0.76373 0.72455
 C1348 C 0.16891 0.77428 0.71034
 C1349 C 0.19172 0.77275 0.71782
 C1350 C 0.19722 0.76128 0.74034
 C1351 C 0.17899 0.75074 0.75478
 C1352 C 0.15592 0.75175 0.74679
 H1353 H 0.06577 0.79977 0.66613
 H1354 H 0.03244 0.79709 0.63861
 H1355 H 0.02127 0.72434 0.65683
 H1356 H 0.05420 0.72748 0.68531
 H1357 H 0.16558 0.78336 0.69294
 H1358 H 0.20503 0.78109 0.70592
 H1359 H 0.18253 0.74160 0.77207
 H1360 H 0.14218 0.74335 0.75804
 C1361 C 0.94513 0.74360 0.67719
 C1362 C 0.95278 0.72548 0.66100
 C1363 C 0.97179 0.72910 0.64442
 C1364 C 0.98328 0.75129 0.64277
 C1365 C 0.97635 0.76892 0.66035
 C1366 C 0.95747 0.76523 0.67708
 C1367 C 0.92388 0.74020 0.69326
 N1368 N 0.91803 0.75632 0.71154
 N1369 N 0.89802 0.75405 0.72456
 C1370 C 0.88300 0.73560 0.71977
 N1371 N 0.88903 0.71932 0.70178
 N1372 N 0.90906 0.72152 0.68888
 C1373 C 0.85958 0.73445 0.73184
 C1374 C 0.84163 0.72117 0.71992
 C1375 C 0.81884 0.72252 0.72879
 C1376 C 0.81334 0.73664 0.75036
 C1377 C 0.83156 0.74884 0.76326
 C1378 C 0.85441 0.74793 0.75394
 H1379 H 0.94410 0.70836 0.66117
 H1380 H 0.97745 0.71422 0.63330
 H1381 H 0.98540 0.78587 0.66070
 H1382 H 0.95229 0.77951 0.68957
 H1383 H 0.84495 0.71064 0.70282
 H1384 H 0.80543 0.71296 0.71809
 H1385 H 0.82810 0.75995 0.77986
 H1386 H 0.86794 0.75825 0.76364
 C1387 C 0.43729 0.23882 0.15934
 C1388 C 0.44542 0.21988 0.14476
 C1389 C 0.46531 0.22244 0.12935
 C1390 C 0.47727 0.24434 0.12721
 C1391 C 0.47011 0.26272 0.14366
 C1392 C 0.45025 0.26010 0.15924
 C1393 C 0.41480 0.23651 0.17339
 N1394 N 0.40809 0.25313 0.19071
 N1395 N 0.38710 0.25164 0.20180
 C1396 C 0.37196 0.23356 0.19586
 N1397 N 0.37881 0.21686 0.17882
 N1398 N 0.39978 0.21827 0.16789
 C1399 C 0.34786 0.23281 0.20601
 C1400 C 0.33044 0.22073 0.19194
 C1401 C 0.30740 0.22092 0.20013
 C1402 C 0.30108 0.23265 0.22309
 C1403 C 0.31862 0.24433 0.23756
 C1404 C 0.34177 0.24461 0.22895
 H1405 H 0.43631 0.20297 0.14512
 H1406 H 0.47113 0.20705 0.11926
 H1407 H 0.47957 0.27945 0.14376
 H1408 H 0.44473 0.27495 0.17063
 H1409 H 0.33449 0.21161 0.17409
 H1410 H 0.29455 0.21173 0.18832
 H1411 H 0.31445 0.25359 0.25528
 H1412 H 0.35490 0.25404 0.24020
 C1413 C 0.43007 0.75385 0.33086
 C1414 C 0.43127 0.73503 0.34723
 C1415 C 0.44944 0.73399 0.36437
 C1416 C 0.46784 0.75112 0.36462
 C1417 C 0.46572 0.77066 0.34903
 C1418 C 0.44710 0.77200 0.33239
 C1419 C 0.41031 0.75494 0.31342
 N1420 N 0.40078 0.77561 0.30907
 N1421 N 0.38140 0.77629 0.29569
 C1422 C 0.37108 0.75641 0.28569
 N1423 N 0.38096 0.73580 0.28942
 N1424 N 0.40018 0.73508 0.30309
 C1425 C 0.34750 0.75673 0.27551
 C1426 C 0.34083 0.74405 0.25321
 C1427 C 0.31761 0.74324 0.24544
 C1428 C 0.30067 0.75443 0.26040
 C1429 C 0.30771 0.76666 0.28299
 C1430 C 0.33081 0.76833 0.28999
 H1431 H 0.41775 0.72131 0.34725
 H1432 H 0.44868 0.71965 0.37735
 H1433 H 0.47893 0.78467 0.34929
 H1434 H 0.44626 0.78702 0.32036
 H1435 H 0.35351 0.73470 0.24196
 H1436 H 0.31285 0.73329 0.22825
 H1437 H 0.29533 0.77498 0.29561
 H1438 H 0.33545 0.77777 0.30757
 C1439 C 0.93185 0.25485 0.81772
 C1440 C 0.95066 0.27107 0.81925
 C1441 C 0.96913 0.26734 0.83543
 C1442 C 0.96927 0.24737 0.85076
 C1443 C 0.94945 0.23196 0.85007
 C1444 C 0.93139 0.23535 0.83332
 C1445 C 0.91210 0.25865 0.80099
 N1446 N 0.90012 0.24023 0.78990
 N1447 N 0.88108 0.24341 0.77662
 C1448 C 0.87316 0.26512 0.77409
 N1449 N 0.88530 0.28358 0.78491
 N1450 N 0.90453 0.28043 0.79791
 C1451 C 0.85006 0.26805 0.76330
 C1452 C 0.83525 0.28380 0.77526
 C1453 C 0.81184 0.28326 0.76923
 C1454 C 0.80274 0.26771 0.75015
 C1455 C 0.81811 0.25321 0.73674
 C1456 C 0.84146 0.25312 0.74355
 H1457 H 0.95124 0.28648 0.80768
 H1458 H 0.98358 0.28002 0.83581
 H1459 H 0.94733 0.21732 0.86254
 H1460 H 0.91662 0.22302 0.83315
 H1461 H 0.84135 0.29526 0.79081
 H1462 H 0.80068 0.29418 0.78070
 H1463 H 0.81188 0.24080 0.72217
 H1464 H 0.85260 0.24077 0.73408
 C1465 C 0.60093 0.97966 0.68779
 C1466 C 0.61559 0.96201 0.69419
 C1467 C 0.63397 0.96681 0.71102
 C1468 C 0.63867 0.98968 0.72115
 C1469 C 0.62406 1.00729 0.71377
 C1470 C 0.60560 1.00239 0.69745
 C1471 C 0.58040 0.97487 0.67164
 N1472 N 0.56241 0.98917 0.67377
 N1473 N 0.54494 0.98702 0.65756
 C1474 C 0.54459 0.97044 0.63851
 N1475 N 0.56212 0.95541 0.63695
 N1476 N 0.57967 0.95751 0.65334
 C1477 C 0.52826 0.97234 0.61725
 C1478 C 0.52166 0.95342 0.60084
 C1479 C 0.50899 0.95713 0.57859
 C1480 C 0.50451 0.97998 0.57150
 C1481 C 0.50951 0.99834 0.58934
 C1482 C 0.52092 0.99454 0.61184
 H1483 H 0.61219 0.94427 0.68717
 H1484 H 0.64347 0.95217 0.71694
 H1485 H 0.62640 1.02488 0.72164
 H1486 H 0.59471 1.01647 0.69270
 H1487 H 0.52665 0.93597 0.60494
 H1488 H 0.50398 0.94234 0.56632
 H1489 H 0.50552 1.01617 0.58565
 H1490 H 0.52539 1.00952 0.62414
 C1491 C 0.10055 0.45848 1.18187
 C1492 C 0.09145 0.45928 1.20700
 C1493 C 0.10501 0.46844 1.22726
 C1494 C 0.12752 0.47831 1.22260
 C1495 C 0.13678 0.47612 1.19750
 C1496 C 0.12354 0.46648 1.17753
 C1497 C 0.08612 0.45103 1.15968
 N1498 N 0.09650 0.44561 1.13691
 N1499 N 0.08427 0.44325 1.11558
 C1500 C 0.06109 0.44612 1.11606
 N1501 N 0.05043 0.45037 1.13904
 N1502 N 0.06271 0.45274 1.16048
 C1503 C 0.04925 0.45000 1.09178
 C1504 C 0.02527 0.44582 1.08893
 C1505 C 0.01417 0.45355 1.06715
 C1506 C 0.02676 0.46628 1.04837
 C1507 C 0.05081 0.46995 1.05144
 C1508 C 0.06193 0.46134 1.07230
 H1509 H 0.07392 0.45272 1.21099
 H1510 H 0.09779 0.46774 1.24650
 H1511 H 0.15441 0.48214 1.19320
 H1512 H 0.13124 0.46597 1.15846
 H1513 H 0.01507 0.43730 1.10388
 H1514 H -0.00444 0.45080 1.06589
 H1515 H 0.06118 0.48087 1.03876
 H1516 H 0.08033 0.46542 1.07419
 C1517 C -0.10821 0.02848 1.18292
 C1518 C -0.09876 0.03095 1.20756
 C1519 C -0.11166 0.02383 1.22920
 C1520 C -0.13394 0.01291 1.22668
 C1521 C -0.14384 0.01223 1.20208
 C1522 C -0.13113 0.01962 1.18057
 C1523 C -0.09409 0.03403 1.15961
 N1524 N -0.10420 0.03465 1.13632
 N1525 N -0.09142 0.03730 1.11501
 C1526 C -0.06794 0.03944 1.11601
 N1527 N -0.05784 0.03931 1.13937
 N1528 N -0.07064 0.03674 1.16072
 C1529 C -0.05371 0.03882 1.09202
 C1530 C -0.02994 0.03487 1.09285
 C1531 C -0.01765 0.02911 1.07043
 C1532 C -0.02880 0.02694 1.04654
 C1533 C -0.05176 0.03400 1.04548
 C1534 C -0.06414 0.03960 1.06793
 H1535 H -0.08137 0.03840 1.21014
 H1536 H -0.10404 0.02679 1.24787
 H1537 H -0.16147 0.00554 1.19937
 H1538 H -0.13920 0.01789 1.16199
 H1539 H -0.02113 0.03467 1.11099
 H1540 H 0.00026 0.02472 1.07224
 H1541 H -0.06062 0.03459 1.02760
 H1542 H -0.08223 0.04347 1.06647
 C1543 C 0.40217 0.53615 0.67562
 C1544 C 0.40974 0.54090 0.70074
 C1545 C 0.39626 0.53352 0.72178
 C1546 C 0.37548 0.51998 0.71827
 C1547 C 0.36706 0.51724 0.69305
 C1548 C 0.38031 0.52499 0.67205
 C1549 C 0.41758 0.54118 0.65327
 N1550 N 0.40896 0.54127 0.62920
 N1551 N 0.42309 0.54286 0.60880
 C1552 C 0.44644 0.54431 0.61161
 N1553 N 0.45505 0.54477 0.63571
 N1554 N 0.44091 0.54335 0.65612
 C1555 C 0.46202 0.54185 0.58894
 C1556 C 0.48395 0.53277 0.59164
 C1557 C 0.49654 0.52532 0.57011
 C1558 C 0.48758 0.52685 0.54526
 C1559 C 0.46711 0.53889 0.54257
 C1560 C 0.45420 0.54585 0.56416
 H1561 H 0.42622 0.55012 0.70413
 H1562 H 0.40248 0.53781 0.74087
 H1563 H 0.35032 0.50867 0.68941
 H1564 H 0.37371 0.52149 0.65296
 H1565 H 0.49071 0.52984 0.61047
 H1566 H 0.51272 0.51714 0.57325
 H1567 H 0.46052 0.54237 0.52392
 H1568 H 0.43769 0.55358 0.56146
 C1569 C 0.40099 0.48372 -0.19609
 C1570 C 0.41025 0.48430 -0.22114
 C1571 C 0.39772 0.49319 -0.24105
 C1572 C 0.37591 0.50278 -0.23638
 C1573 C 0.36624 0.50089 -0.21142
 C1574 C 0.37868 0.49178 -0.19155
 C1575 C 0.41483 0.47546 -0.17473
 N1576 N 0.40499 0.47165 -0.15127
 N1577 N 0.41785 0.46612 -0.13155
 C1578 C 0.44111 0.46417 -0.13445
 N1579 N 0.45085 0.46753 -0.15803
 N1580 N 0.43798 0.47294 -0.17776
 C1581 C 0.45585 0.46192 -0.11176
 C1582 C 0.44617 0.45533 -0.08800
 C1583 C 0.45905 0.45839 -0.06556
 C1584 C 0.48141 0.46911 -0.06627
 C1585 C 0.49197 0.47270 -0.09051
 C1586 C 0.47935 0.46914 -0.11295
 H1587 H 0.42715 0.47763 -0.22546
 H1588 H 0.40514 0.49221 -0.26021
 H1589 H 0.34890 0.50646 -0.20725
 H1590 H 0.37083 0.49124 -0.17256
 H1591 H 0.42831 0.44885 -0.08657
 H1592 H 0.45083 0.45355 -0.04772
 H1593 H 0.50957 0.47984 -0.09226
 H1594 H 0.48759 0.47382 -0.13101
 C1595 C -0.11081 0.98200 0.31671
 C1596 C -0.10135 0.97923 0.29188
 C1597 C -0.11337 0.98630 0.27045
 C1598 C -0.13460 0.99750 0.27335
 C1599 C -0.14451 0.99875 0.29825
 C1600 C -0.13275 0.99141 0.31950
 C1601 C -0.09802 0.97579 0.33990
 N1602 N -0.10906 0.97549 0.36307
 N1603 N -0.09751 0.97233 0.38443
 C1604 C -0.07435 0.96926 0.38373
 N1605 N -0.06329 0.96886 0.36048
 N1606 N -0.07492 0.97202 0.33898
 C1607 C -0.06136 0.96968 0.40813
 C1608 C -0.03822 0.96311 0.40936
 C1609 C -0.02554 0.96708 0.43203
 C1610 C -0.03558 0.97819 0.45368
 C1611 C -0.05898 0.98390 0.45229
 C1612 C -0.07173 0.97922 0.43027
 H1613 H -0.08477 0.97142 0.28897
 H1614 H -0.10596 0.98298 0.25159
 H1615 H -0.16154 1.00549 0.30142
 H1616 H -0.14088 0.99342 0.33824
 H1617 H -0.02971 0.95571 0.39259
 H1618 H -0.00747 0.96284 0.43199
 H1619 H -0.06735 0.99364 0.46753
 H1620 H -0.08937 0.98482 0.43010
 C1621 C 0.10987 0.51711 0.31320
 C1622 C 0.09932 0.51841 0.28927
 C1623 C 0.10991 0.50914 0.26711
 C1624 C 0.13064 0.49710 0.26852
 C1625 C 0.14161 0.49710 0.29248
 C1626 C 0.13133 0.50672 0.31441
 C1627 C 0.09860 0.52569 0.33715
 N1628 N 0.11113 0.52860 0.35884
 N1629 N 0.10086 0.53335 0.38124
 C1630 C 0.07759 0.53545 0.38303
 N1631 N 0.06506 0.53338 0.36117
 N1632 N 0.07538 0.52865 0.33864
 C1633 C 0.06611 0.53594 0.40865
 C1634 C 0.04282 0.54160 0.41214
 C1635 C 0.03139 0.53788 0.43578
 C1636 C 0.04291 0.52791 0.45611
 C1637 C 0.06646 0.52321 0.45257
 C1638 C 0.07798 0.52770 0.42954
 H1639 H 0.08305 0.52686 0.28762
 H1640 H 0.10183 0.51145 0.24885
 H1641 H 0.15840 0.48976 0.29436
 H1642 H 0.14019 0.50570 0.33245
 H1643 H 0.03321 0.54798 0.39633
 H1644 H 0.01317 0.54140 0.43751
 H1645 H 0.07591 0.51450 0.46691
 H1646 H 0.09583 0.52285 0.42758
 C1647 C 0.60310 0.01063 -0.19730
 C1648 C 0.61886 0.02841 -0.20508
 C1649 C 0.63617 0.02376 -0.22335
 C1650 C 0.63878 0.00090 -0.23365
 C1651 C 0.62271 -0.01675 -0.22553
 C1652 C 0.60526 -0.01199 -0.20768
 C1653 C 0.58450 0.01518 -0.17829
 N1654 N 0.56609 -0.00019 -0.17638
 N1655 N 0.55056 0.00198 -0.15752
 C1656 C 0.55267 0.01964 -0.13976
 N1657 N 0.57058 0.03565 -0.14219
 N1658 N 0.58617 0.03351 -0.16121
 C1659 C 0.53856 0.01829 -0.11598
 C1660 C 0.53318 0.03800 -0.10079
 C1661 C 0.52157 0.03529 -0.07703
 C1662 C 0.51661 0.01284 -0.06750
 C1663 C 0.52123 -0.00658 -0.08362
 C1664 C 0.53177 -0.00388 -0.10740
 H1665 H 0.61736 0.04609 -0.19766
 H1666 H 0.64671 0.03849 -0.22993
 H1667 H 0.62342 -0.03432 -0.23353
 H1668 H 0.59341 -0.02617 -0.20203
 H1669 H 0.53803 0.05535 -0.10722
 H1670 H 0.51736 0.05067 -0.06582
 H1671 H 0.51709 -0.02428 -0.07790
 H1672 H 0.53559 -0.01946 -0.11857
 C1673 C 0.69594 0.56683 -0.01890
 C1674 C 0.70310 0.58761 -0.03083
 C1675 C 0.72313 0.60015 -0.02308
 C1676 C 0.73702 0.59209 -0.00344
 C1677 C 0.72917 0.57160 0.00905
 C1678 C 0.70927 0.55885 0.00102
 C1679 C 0.67344 0.55501 -0.02545
 N1680 N 0.66830 0.53254 -0.01895
 N1681 N 0.64712 0.52290 -0.02256
 C1682 C 0.63029 0.53543 -0.03269
 N1683 N 0.63556 0.55769 -0.03959
 N1684 N 0.65673 0.56722 -0.03623
 C1685 C 0.60592 0.52684 -0.03202
 C1686 C 0.58947 0.54162 -0.02157
 C1687 C 0.56652 0.53384 -0.01869
 C1688 C 0.55891 0.51134 -0.02731
 C1689 C 0.57550 0.49651 -0.03807
 C1690 C 0.59893 0.50410 -0.04005
 H1691 H 0.69289 0.59452 -0.04586
 H1692 H 0.72724 0.61660 -0.03211
 H1693 H 0.73834 0.56551 0.02532
 H1694 H 0.70380 0.54328 0.01116
 H1695 H 0.59459 0.55898 -0.01447
 H1696 H 0.55508 0.54538 -0.00859
 H1697 H 0.57054 0.47890 -0.04440
 H1698 H 0.61151 0.49232 -0.04789
 C1699 C 0.18211 1.07942 0.47017
 C1700 C 0.20332 1.06845 0.46790
 C1701 C 0.22403 1.08036 0.47545
 C1702 C 0.22368 1.10282 0.48725
 C1703 C 0.20249 1.11412 0.48740
 C1704 C 0.18216 1.10264 0.47923
 C1705 C 0.15957 1.06710 0.46460
 N1706 N 0.14084 1.07980 0.46041
 N1707 N 0.11967 1.06980 0.45995
 C1708 C 0.11620 1.04660 0.46359
 N1709 N 0.13498 1.03355 0.46666
 N1710 N 0.15630 1.04363 0.46715
 C1711 C 0.09236 1.03716 0.46856
 C1712 C 0.08476 1.01431 0.46149
 C1713 C 0.06190 1.00629 0.46723
 C1714 C 0.04652 1.02081 0.48070
 C1715 C 0.05479 1.04337 0.48824
 C1716 C 0.07705 1.05151 0.48189
 H1717 H 0.20391 1.05080 0.46012
 H1718 H 0.24016 1.07185 0.47218
 H1719 H 0.20144 1.13197 0.49440
 H1720 H 0.16625 1.11188 0.48086
 H1721 H 0.09638 1.00281 0.45140
 H1722 H 0.05642 0.98866 0.46147
 H1723 H 0.04437 1.05485 0.49984
 H1724 H 0.08257 1.06896 0.48832
 C1725 C 0.17829 -0.07258 1.02921
 C1726 C 0.18109 -0.09514 1.03804
 C1727 C 0.20103 -0.10697 1.03179
 C1728 C 0.21915 -0.09641 1.01711
 C1729 C 0.21591 -0.07392 1.00782
 C1730 C 0.19600 -0.06200 1.01424
 C1731 C 0.15593 -0.06138 1.03312
 N1732 N 0.15355 -0.03864 1.02744
 N1733 N 0.13272 -0.02954 1.02789
 C1734 C 0.11352 -0.04291 1.03393
 N1735 N 0.11600 -0.06542 1.04027
 N1736 N 0.13678 -0.07443 1.03999
 C1737 C 0.09023 -0.03464 1.02970
 C1738 C 0.07362 -0.05025 1.01890
 C1739 C 0.05206 -0.04276 1.01247
 C1740 C 0.04595 -0.01962 1.01760
 C1741 C 0.06263 -0.00394 1.02873
 C1742 C 0.08473 -0.01133 1.03440
 H1743 H 0.16757 -0.10399 1.04922
 H1744 H 0.20215 -0.12469 1.03811
 H1745 H 0.22835 -0.06565 0.99486
 H1746 H 0.19403 -0.04492 1.00644
 H1747 H 0.07766 -0.06815 1.01430
 H1748 H 0.04059 -0.05517 1.00251
 H1749 H 0.05881 0.01411 1.03266
 H1750 H 0.09748 0.00108 1.04248
 C1751 C 0.69697 0.42962 0.50882
 C1752 C 0.70150 0.40935 0.52191
 C1753 C 0.72174 0.39762 0.51695
 C1754 C 0.73859 0.40603 0.49911
 C1755 C 0.73359 0.42612 0.48551
 C1756 C 0.71333 0.43804 0.49071
 C1757 C 0.67431 0.44043 0.51254
 N1758 N 0.67087 0.46250 0.50499
 N1759 N 0.64989 0.47129 0.50686
 C1760 C 0.63156 0.45826 0.51619
 N1761 N 0.63511 0.43638 0.52400
 N1762 N 0.65604 0.42771 0.52235
 C1763 C 0.60771 0.46629 0.51509
 C1764 C 0.58993 0.45011 0.50817
 C1765 C 0.56746 0.45712 0.50528
 C1766 C 0.56167 0.48041 0.51027
 C1767 C 0.57957 0.49665 0.51760
 C1768 C 0.60246 0.48970 0.51965
 H1769 H 0.68907 0.40212 0.53566
 H1770 H 0.72375 0.38144 0.52667
 H1771 H 0.74520 0.43240 0.47047
 H1772 H 0.71003 0.45327 0.47977
 H1773 H 0.59360 0.43208 0.50379
 H1774 H 0.55503 0.44427 0.49771
 H1775 H 0.57606 0.51483 0.52112
 H1776 H 0.61600 0.50254 0.52486
 C1777 C -0.17383 0.42940 0.47923
 C1778 C -0.19191 0.44019 0.49267
 C1779 C -0.21350 0.42855 0.49601
 C1780 C -0.21794 0.40593 0.48541
 C1781 C -0.19952 0.39514 0.47231
 C1782 C -0.17798 0.40678 0.46894
 C1783 C -0.15040 0.44104 0.47743
 N1784 N -0.13268 0.43038 0.46511
 N1785 N -0.11132 0.44018 0.46495
 C1786 C -0.10676 0.46108 0.47710
 N1787 N -0.12454 0.47187 0.48909
 N1788 N -0.14589 0.46209 0.48923
 C1789 C -0.08268 0.47106 0.47904
 C1790 C -0.07787 0.49072 0.49500
 C1791 C -0.05506 0.49854 0.49951
 C1792 C -0.03633 0.48666 0.48856
 C1793 C -0.04123 0.46846 0.47058
 C1794 C -0.06413 0.46045 0.46624
 H1795 H -0.18921 0.45744 0.50133
 H1796 H -0.22634 0.43710 0.50776
 H1797 H -0.20171 0.37734 0.46504
 H1798 H -0.16438 0.39773 0.45886
 H1799 H -0.09170 0.49965 0.50482
 H1800 H -0.05226 0.51326 0.51266
 H1801 H -0.02737 0.45989 0.46044
 H1802 H -0.06724 0.44564 0.45326
 C1803 C 0.30372 -0.07120 -0.01113
 C1804 C 0.29755 -0.09194 -0.02462
 C1805 C 0.27684 -0.10425 -0.01891
 C1806 C 0.26146 -0.09600 0.00023
 C1807 C 0.26836 -0.07558 0.01436
 C1808 C 0.28887 -0.06300 0.00827
 C1809 C 0.32669 -0.05965 -0.01537
 N1810 N 0.33063 -0.03654 -0.00980
 N1811 N 0.35198 -0.02679 -0.01143
 C1812 C 0.37010 -0.03989 -0.01848
 N1813 N 0.36612 -0.06287 -0.02432
 N1814 N 0.34480 -0.07253 -0.02298
 C1815 C 0.39400 -0.03048 -0.01651
 C1816 C 0.40949 -0.04258 -0.00221
 C1817 C 0.43247 -0.03470 -0.00043
 C1818 C 0.44087 -0.01496 -0.01374
 C1819 C 0.42503 -0.00244 -0.02760
 C1820 C 0.40165 -0.01002 -0.02873
 H1821 H 0.30900 -0.09893 -0.03928
 H1822 H 0.27326 -0.12065 -0.02910
 H1823 H 0.25801 -0.06944 0.03044
 H1824 H 0.29364 -0.04748 0.01959
 H1825 H 0.40375 -0.05816 0.00779
 H1826 H 0.44366 -0.04449 0.01120
 H1827 H 0.43066 0.01305 -0.03778
 H1828 H 0.38975 -0.00038 -0.03972
 C1829 C 0.30486 1.07801 0.52133
 C1830 C 0.28259 1.06705 0.52182
 C1831 C 0.26314 1.07931 0.51508
 C1832 C 0.26576 1.10236 0.50622
 C1833 C 0.28787 1.11366 0.50827
 C1834 C 0.30701 1.10173 0.51540
 C1835 C 0.32619 1.06519 0.52551
 N1836 N 0.34699 1.07713 0.52563
 N1837 N 0.36663 1.06605 0.52619
 C1838 C 0.36647 1.04246 0.52676
 N1839 N 0.34569 1.03032 0.52749
 N1840 N 0.32590 1.04149 0.52682
 C1841 C 0.38872 1.03085 0.52380
 C1842 C 0.39334 1.01010 0.53608
 C1843 C 0.41558 1.00101 0.53418
 C1844 C 0.43334 1.01234 0.51962
 C1845 C 0.42791 1.03245 0.50650
 C1846 C 0.40615 1.04159 0.50870
 H1847 H 0.28020 1.04902 0.52726
 H1848 H 0.24623 1.07060 0.51672
 H1849 H 0.29055 1.13184 0.50351
 H1850 H 0.32369 1.11111 0.51548
 H1851 H 0.38009 1.00143 0.54779
 H1852 H 0.41894 0.98543 0.54448
 H1853 H 0.44063 1.04181 0.49484
 H1854 H 0.40303 1.05736 0.49860
 C1855 C -0.18081 0.56915 1.02605
 C1856 C -0.18396 0.59195 1.03545
 C1857 C -0.20365 0.60365 1.02936
 C1858 C -0.22130 0.59277 1.01431
 C1859 C -0.21767 0.57009 1.00423
 C1860 C -0.19791 0.55832 1.01041
 C1861 C -0.15885 0.55776 1.03082
 N1862 N -0.15599 0.53499 1.02410
 N1863 N -0.13541 0.52563 1.02624
 C1864 C -0.11693 0.53872 1.03513
 N1865 N -0.11995 0.56127 1.04236
 N1866 N -0.14048 0.57055 1.04038
 C1867 C -0.09330 0.53011 1.03323
 C1868 C -0.08863 0.50663 1.03676
 C1869 C -0.06610 0.49890 1.03272
 C1870 C -0.04805 0.51439 1.02435
 C1871 C -0.05324 0.53781 1.02074
 C1872 C -0.07528 0.54562 1.02566
 H1873 H -0.17097 0.60103 1.04719
 H1874 H -0.20511 0.62145 1.03641
 H1875 H -0.22968 0.56154 0.99097
 H1876 H -0.19566 0.54103 1.00219
 H1877 H -0.10239 0.49429 1.04241
 H1878 H -0.06306 0.48064 1.03526
 H1879 H -0.04088 0.55011 1.01240
 H1880 H -0.07852 0.56366 1.02197
 C1881 C 0.01486 0.69766 0.57057
 C1882 C -0.00638 0.70862 0.57196
 C1883 C -0.00929 0.72787 0.58862
 C1884 C 0.00866 0.73615 0.60505
 C1885 C 0.03060 0.72656 0.60131
 C1886 C 0.03351 0.70744 0.58471
 C1887 C 0.01740 0.67524 0.55616
 N1888 N 0.03611 0.66242 0.56012
 N1889 N 0.03760 0.64118 0.54958
 C1890 C 0.02052 0.63184 0.53443
 N1891 N 0.00201 0.64483 0.52985
 N1892 N 0.00045 0.66610 0.54058
 C1893 C 0.02113 0.60715 0.52568
 C1894 C 0.00989 0.59875 0.50336
 C1895 C 0.00987 0.57494 0.49638
 C1896 C 0.02061 0.55907 0.51196
 C1897 C 0.03169 0.56774 0.53432
 C1898 C 0.03232 0.59141 0.54079
 H1899 H -0.02099 0.70188 0.56087
 H1900 H -0.02600 0.73570 0.58962
 H1901 H 0.04574 0.73354 0.61126
 H1902 H 0.05041 0.70004 0.58335
 H1903 H 0.00109 0.61056 0.49140
 H1904 H 0.00096 0.56894 0.47918
 H1905 H 0.03991 0.55622 0.54712
 H1906 H 0.04089 0.59727 0.55827
 C1907 C 0.50650 0.19012 0.05370
 C1908 C 0.48574 0.20185 0.05601
 C1909 C 0.48368 0.22050 0.07360
 C1910 C 0.50202 0.22756 0.09009
 C1911 C 0.52336 0.21683 0.08613
 C1912 C 0.52543 0.19825 0.06851
 C1913 C 0.50820 0.16882 0.03708
 N1914 N 0.52774 0.15656 0.03692
 N1915 N 0.52867 0.13619 0.02425
 C1916 C 0.51014 0.12717 0.01103
 N1917 N 0.49076 0.13969 0.01055
 N1918 N 0.48981 0.16011 0.02332
 C1919 C 0.51021 0.10292 0.00047
 C1920 C 0.49355 0.09420 -0.01711
 C1921 C 0.49193 0.07032 -0.02383
 C1922 C 0.50670 0.05465 -0.01277
 C1923 C 0.52372 0.06379 0.00424
 C1924 C 0.52577 0.08752 0.01026
 H1925 H 0.47092 0.19639 0.04454
 H1926 H 0.46740 0.22913 0.07489
 H1927 H 0.53872 0.22273 0.09637
 H1928 H 0.54194 0.19011 0.06673
 H1929 H 0.48128 0.10568 -0.02499
 H1930 H 0.47832 0.06401 -0.03660
 H1931 H 0.53482 0.05251 0.01421
 H1932 H 0.53865 0.09350 0.02409
 C1933 C -0.01479 0.17925 0.91187
 C1934 C -0.01519 0.17901 0.88495
 C1935 C -0.01414 0.19978 0.87164
 C1936 C -0.01309 0.22170 0.88464
 C1937 C -0.01224 0.22173 0.91178
 C1938 C -0.01344 0.20085 0.92513
 C1939 C -0.01449 0.15698 0.92566
 N1940 N -0.01701 0.15624 0.95164
 N1941 N -0.01586 0.13612 0.96375
 C1942 C -0.01201 0.11599 0.95033
 N1943 N -0.00970 0.11680 0.92442
 N1944 N -0.01094 0.13679 0.91236
 C1945 C -0.00962 0.09352 0.96320
 C1946 C 0.00125 0.07546 0.94983
 C1947 C 0.00294 0.05379 0.96064
 C1948 C -0.00645 0.04913 0.98521
 C1949 C -0.01668 0.06748 0.99909
 C1950 C -0.01821 0.08952 0.98820
 H1951 H -0.01601 0.16270 0.87400
 H1952 H -0.01398 0.19879 0.85086
 H1953 H -0.00978 0.23764 0.92307
 H1954 H -0.01254 0.20165 0.94586
 H1955 H 0.00844 0.07797 0.93074
 H1956 H 0.01125 0.04047 0.94916
 H1957 H -0.02378 0.06491 1.01810
 H1958 H -0.02655 0.10321 0.99906
 C1959 C 0.49280 0.68303 0.42081
 C1960 C 0.49101 0.68405 0.39406
 C1961 C 0.48954 0.70534 0.38219
 C1962 C 0.48922 0.72655 0.39654
 C1963 C 0.49164 0.72543 0.42345
 C1964 C 0.49310 0.70397 0.43539
 C1965 C 0.49510 0.66017 0.43293
 N1966 N 0.49590 0.65817 0.45885
 N1967 N 0.49828 0.63742 0.46926
 C1968 C 0.50002 0.61788 0.45412
 N1969 N 0.49914 0.61999 0.42831
 N1970 N 0.49673 0.64061 0.41796
 C1971 C 0.50284 0.59456 0.46498
 C1972 C 0.50719 0.57566 0.44827
 C1973 C 0.50913 0.55341 0.45754
 C1974 C 0.50637 0.54900 0.48389
 C1975 C 0.50319 0.56812 0.50087
 C1976 C 0.50123 0.59067 0.49150
 H1977 H 0.49100 0.66835 0.38207
 H1978 H 0.48870 0.70533 0.36145
 H1979 H 0.49326 0.74096 0.43553
 H1980 H 0.49499 0.70384 0.45600
 H1981 H 0.50905 0.57794 0.42779
 H1982 H 0.51248 0.53958 0.44364
 H1983 H 0.50231 0.56584 0.52134
 H1984 H 0.49834 0.60498 0.50496
 C1985 C 0.48860 0.81098 0.43440
 C1986 C 0.50595 0.80913 0.41541
 C1987 C 0.50598 0.79015 0.39823
 C1988 C 0.48912 0.77162 0.39998
 C1989 C 0.47072 0.77443 0.41790
 C1990 C 0.47058 0.79371 0.43508
 C1991 C 0.48963 0.83128 0.45268
 N1992 N 0.47074 0.83804 0.46645
 N1993 N 0.47179 0.85754 0.48110
 C1994 C 0.49181 0.87092 0.48264
 N1995 N 0.51074 0.86367 0.46948
 N1996 N 0.50968 0.84434 0.45490
 C1997 C 0.49271 0.89438 0.49542
 C1998 C 0.51021 0.91062 0.48792
 C1999 C 0.50985 0.93376 0.49628
 C2000 C 0.49264 0.94151 0.51352
 C2001 C 0.47571 0.92495 0.52223
 C2002 C 0.47562 0.90163 0.51307
 H2003 H 0.51957 0.82260 0.41351
 H2004 H 0.51934 0.79045 0.38351
 H2005 H 0.45674 0.76125 0.41902
 H2006 H 0.45661 0.79492 0.44908
 H2007 H 0.52351 0.90590 0.47410
 H2008 H 0.52254 0.94578 0.48782
 H2009 H 0.46182 0.93024 0.53499
 H2010 H 0.46185 0.88950 0.51918
 C2011 C -0.00582 0.30905 0.91554
 C2012 C 0.01207 0.30366 0.89819
 C2013 C 0.01094 0.28320 0.88329
 C2014 C -0.00792 0.26676 0.88559
 C2015 C -0.02638 0.27280 0.90229
 C2016 C -0.02518 0.29344 0.91739
 C2017 C -0.00427 0.33148 0.93040
 N2018 N -0.01959 0.33660 0.94963
 N2019 N -0.01808 0.35723 0.96216
 C2020 C -0.00124 0.37351 0.95584
 N2021 N 0.01410 0.36821 0.93683
 N2022 N 0.01266 0.34768 0.92447
 C2023 C -0.00009 0.39718 0.96790
 C2024 C 0.01092 0.41546 0.95442
 C2025 C 0.01191 0.43806 0.96465
 C2026 C 0.00244 0.44315 0.98911
 C2027 C -0.00840 0.42480 1.00289
 C2028 C -0.00983 0.40201 0.99227
 H2029 H 0.02706 0.31547 0.89574
 H2030 H 0.02488 0.28095 0.86953
 H2031 H -0.04171 0.26130 0.90379
 H2032 H -0.03955 0.29732 0.93016
 H2033 H 0.01846 0.41245 0.93553
 H2034 H 0.02035 0.45152 0.95323
 H2035 H -0.01608 0.42807 1.02165
 H2036 H -0.01841 0.38820 1.00311
 C2037 C 0.49498 0.30746 0.05835
 C2038 C 0.47513 0.29940 0.07191
 C2039 C 0.47601 0.28052 0.08823
 C2040 C 0.49702 0.26947 0.09209
 C2041 C 0.51642 0.27676 0.07701
 C2042 C 0.51553 0.29560 0.06075
 C2043 C 0.49457 0.32845 0.04235
 N2044 N 0.51433 0.33713 0.03100
 N2045 N 0.51447 0.35682 0.01808
 C2046 C 0.49484 0.36870 0.01584
 N2047 N 0.47495 0.35985 0.02683
 N2048 N 0.47482 0.34013 0.03981
 C2049 C 0.49574 0.39187 0.00379
 C2050 C 0.47549 0.40385 -0.00023
 C2051 C 0.47683 0.42699 -0.00827
 C2052 C 0.49841 0.43892 -0.01176
 C2053 C 0.51853 0.42609 -0.00982
 C2054 C 0.51721 0.40298 -0.00217
 H2055 H 0.45882 0.30773 0.07000
 H2056 H 0.46000 0.27455 0.09739
 H2057 H 0.53255 0.26799 0.07822
 H2058 H 0.53108 0.30096 0.05019
 H2059 H 0.45859 0.39558 0.00350
 H2060 H 0.46089 0.43541 -0.01102
 H2061 H 0.53560 0.43412 -0.01314
 H2062 H 0.53321 0.39421 0.00021
 C2063 C -0.00421 0.81669 0.57595
 C2064 C -0.02307 0.80720 0.59012
 C2065 C -0.02061 0.78789 0.60539
 C2066 C 0.00110 0.77784 0.60787
 C2067 C 0.01955 0.78652 0.59216
 C2068 C 0.01702 0.80579 0.57666
 C2069 C -0.00673 0.83833 0.56143
 N2070 N 0.00955 0.84574 0.54395
 N2071 N 0.00767 0.86594 0.53220
 C2072 C -0.01051 0.87958 0.53758
 N2073 N -0.02686 0.87201 0.55481
 N2074 N -0.02506 0.85182 0.56639
 C2075 C -0.01163 0.90319 0.52691
 C2076 C -0.02299 0.92045 0.54111
 C2077 C -0.02268 0.94330 0.53282
 C2078 C -0.01175 0.94958 0.50948
 C2079 C -0.00098 0.93208 0.49475
 C2080 C -0.00070 0.90915 0.50353
 H2081 H -0.03991 0.81467 0.58938
 H2082 H -0.03603 0.78089 0.61494
 H2083 H 0.03619 0.77858 0.59232
 H2084 H 0.03184 0.81240 0.56566
 H2085 H -0.03138 0.91655 0.55933
 H2086 H -0.03080 0.95615 0.54511
 H2087 H 0.00788 0.93622 0.47688
 H2088 H 0.00819 0.89614 0.49217
 C2089 C 0.23170 0.34655 0.06749
 C2090 C 0.21603 0.36314 0.06073
 C2091 C 0.22157 0.37883 0.04129
 C2092 C 0.24346 0.37907 0.02854
 C2093 C 0.25907 0.36221 0.03575
 C2094 C 0.25326 0.34620 0.05475
 C2095 C 0.22561 0.32950 0.08754
 N2096 N 0.23599 0.30878 0.08761
 N2097 N 0.23123 0.29368 0.10609
 C2098 C 0.21595 0.29864 0.12534
 N2099 N 0.20541 0.31932 0.12519
 N2100 N 0.21002 0.33438 0.10654
 C2101 C 0.21310 0.28284 0.14726
 C2102 C 0.20533 0.29098 0.17142
 C2103 C 0.20836 0.27785 0.19327
 C2104 C 0.21968 0.25664 0.19141
 C2105 C 0.22389 0.24706 0.16668
 C2106 C 0.22091 0.26010 0.14494
 H2107 H 0.19913 0.36356 0.07000
 H2108 H 0.20816 0.39023 0.03628
 H2109 H 0.27589 0.36133 0.02637
 H2110 H 0.26577 0.33360 0.05958
 H2111 H 0.19845 0.30816 0.17374
 H2112 H 0.20296 0.28504 0.21160
 H2113 H 0.23139 0.23021 0.16400
 H2114 H 0.22618 0.25291 0.12645
 C2115 C 0.73556 0.85416 0.58414
 C2116 C 0.72077 0.87256 0.58126
 C2117 C 0.72238 0.88614 0.55941
 C2118 C 0.73846 0.88131 0.53936
 C2119 C 0.75471 0.86431 0.54379
 C2120 C 0.75293 0.85057 0.56547
 C2121 C 0.73293 0.83859 0.60627
 N2122 N 0.74353 0.81800 0.60582
 N2123 N 0.74147 0.80388 0.62559
 C2124 C 0.72869 0.80966 0.64672
 N2125 N 0.71793 0.83024 0.64719
 N2126 N 0.71990 0.84436 0.62729
 C2127 C 0.72840 0.79453 0.66932
 C2128 C 0.71943 0.80186 0.69332
 C2129 C 0.72335 0.78915 0.71533
 C2130 C 0.73695 0.76941 0.71380
 C2131 C 0.74333 0.76076 0.68928
 C2132 C 0.73916 0.77314 0.66743
 H2133 H 0.70768 0.87629 0.59572
 H2134 H 0.71087 0.90040 0.55844
 H2135 H 0.76840 0.86104 0.52992
 H2136 H 0.76519 0.83706 0.56753
 H2137 H 0.71046 0.81797 0.69533
 H2138 H 0.71695 0.79565 0.73364
 H2139 H 0.75280 0.74501 0.68673
 H2140 H 0.74556 0.76646 0.64916
 C2141 C 0.28361 0.66114 0.56707
 C2142 C 0.29646 0.64126 0.56260
 C2143 C 0.29204 0.62655 0.54133
 C2144 C 0.27492 0.63154 0.52345
 C2145 C 0.26113 0.65076 0.52918
 C2146 C 0.26579 0.66566 0.55023
 C2147 C 0.28778 0.67630 0.59002
 N2148 N 0.27940 0.69802 0.59166
 N2149 N 0.28161 0.71098 0.61312
 C2150 C 0.29226 0.70274 0.63381
 N2151 N 0.30102 0.68119 0.63199
 N2152 N 0.29895 0.66829 0.61049
 C2153 C 0.29135 0.71554 0.65874
 C2154 C 0.29267 0.70342 0.68159
 C2155 C 0.28655 0.71397 0.70496
 C2156 C 0.27933 0.73705 0.70628
 C2157 C 0.28065 0.74991 0.68356
 C2158 C 0.28628 0.73920 0.66004
 H2159 H 0.30988 0.63693 0.57568
 H2160 H 0.30192 0.61104 0.53937
 H2161 H 0.24680 0.65450 0.51710
 H2162 H 0.25503 0.68042 0.55364
 H2163 H 0.29684 0.68521 0.68130
 H2164 H 0.28675 0.70338 0.72152
 H2165 H 0.27576 0.76789 0.68352
 H2166 H 0.28554 0.74914 0.64275
 C2167 C 0.77734 0.14674 0.06277
 C2168 C 0.76254 0.12674 0.06448
 C2169 C 0.75446 0.11501 0.04243
 C2170 C 0.76070 0.12303 0.01782
 C2171 C 0.77703 0.14209 0.01633
 C2172 C 0.78468 0.15423 0.03848
 C2173 C 0.78412 0.15987 0.08646
 N2174 N 0.78887 0.18331 0.08644
 N2175 N 0.79150 0.19547 0.10848
 C2176 C 0.78962 0.18462 0.13132
 N2177 N 0.78588 0.16109 0.13112
 N2178 N 0.78316 0.14900 0.10922
 C2179 C 0.78739 0.19806 0.15585
 C2180 C 0.77599 0.18717 0.17653
 C2181 C 0.76882 0.20012 0.19778
 C2182 C 0.77391 0.22431 0.20002
 C2183 C 0.78693 0.23503 0.18013
 C2184 C 0.79337 0.22207 0.15807
 H2185 H 0.75681 0.12030 0.08296
 H2186 H 0.74346 0.09944 0.04485
 H2187 H 0.78361 0.14784 -0.00212
 H2188 H 0.79651 0.16930 0.03662
 H2189 H 0.77076 0.16881 0.17551
 H2190 H 0.75777 0.19107 0.21151
 H2191 H 0.79082 0.25367 0.18078
 H2192 H 0.80212 0.23098 0.14237
 C2193 C 0.73188 0.15259 0.93052
 C2194 C 0.73312 0.16195 0.95562
 C2195 C 0.73997 0.14839 0.97572
 C2196 C 0.74679 0.12530 0.97118
 C2197 C 0.74426 0.11571 0.94611
 C2198 C 0.73714 0.12919 0.92605
 C2199 C 0.72603 0.16747 0.90904
 N2200 N 0.72044 0.15796 0.88568
 N2201 N 0.71717 0.17151 0.86582
 C2202 C 0.71942 0.19510 0.86853
 N2203 N 0.72455 0.20459 0.89200
 N2204 N 0.72766 0.19107 0.91186
 C2205 C 0.71965 0.20994 0.84580
 C2206 C 0.73281 0.23106 0.84612
 C2207 C 0.73726 0.24295 0.82352
 C2208 C 0.72843 0.23417 0.79998
 C2209 C 0.71289 0.21457 0.80033
 C2210 C 0.70901 0.20220 0.82290
 H2211 H 0.72854 0.17975 0.95983
 H2212 H 0.73946 0.15607 0.99487
 H2213 H 0.74788 0.09763 0.94203
 H2214 H 0.73606 0.12134 0.90697
 H2215 H 0.74102 0.23768 0.86353
 H2216 H 0.74856 0.25848 0.82456
 H2217 H 0.70490 0.20782 0.78294
 H2218 H 0.69836 0.18618 0.82225
 C2219 C 0.25175 0.65029 0.43047
 C2220 C 0.24949 0.62592 0.43202
 C2221 C 0.25683 0.61483 0.45367
 C2222 C 0.26601 0.62781 0.47481
 C2223 C 0.27101 0.65189 0.47168
 C2224 C 0.26346 0.66306 0.45003
 C2225 C 0.24194 0.66206 0.40847
 N2226 N 0.24146 0.68570 0.40788
 N2227 N 0.23327 0.69609 0.38757
 C2228 C 0.22510 0.68322 0.36714
 N2229 N 0.22513 0.65961 0.36803
 N2230 N 0.23322 0.64926 0.38832
 C2231 C 0.22035 0.69439 0.34273
 C2232 C 0.22548 0.68241 0.31978
 C2233 C 0.22736 0.69416 0.29690
 C2234 C 0.22283 0.71803 0.29582
 C2235 C 0.21507 0.72939 0.31848
 C2236 C 0.21428 0.71778 0.34185
 H2237 H 0.24128 0.61537 0.41692
 H2238 H 0.25382 0.59612 0.45474
 H2239 H 0.28016 0.66237 0.48610
 H2240 H 0.26652 0.68175 0.44880
 H2241 H 0.23054 0.66447 0.31980
 H2242 H 0.23482 0.68478 0.28086
 H2243 H 0.21171 0.74779 0.31869
 H2244 H 0.21015 0.72740 0.35936
 C2245 C 0.75100 0.85369 0.44404
 C2246 C 0.74355 0.84249 0.46653
 C2247 C 0.73846 0.85549 0.48887
 C2248 C 0.74162 0.88007 0.48958
 C2249 C 0.74669 0.89112 0.46617
 C2250 C 0.75165 0.87818 0.44391
 C2251 C 0.75786 0.84020 0.42065
 N2252 N 0.76336 0.85145 0.39868
 N2253 N 0.76874 0.83960 0.37731
 C2254 C 0.76912 0.81596 0.37696
 N2255 N 0.76415 0.80464 0.39907
 N2256 N 0.75869 0.81654 0.42052
 C2257 C 0.77142 0.80305 0.35214
 C2258 C 0.77771 0.77966 0.35048
 C2259 C 0.77596 0.76694 0.32709
 C2260 C 0.76719 0.77718 0.30520
 C2261 C 0.76186 0.80090 0.30711
 C2262 C 0.76455 0.81372 0.32987
 H2263 H 0.74184 0.82364 0.46697
 H2264 H 0.73237 0.84608 0.50551
 H2265 H 0.74816 0.90998 0.46554
 H2266 H 0.75658 0.88749 0.42674
 H2267 H 0.78308 0.77099 0.36742
 H2268 H 0.77980 0.74865 0.32673
 H2269 H 0.75357 0.80943 0.29181
 H2270 H 0.75921 0.83157 0.33048
 C2271 C 0.27227 0.34824 0.94255
 C2272 C 0.28698 0.36680 0.95093
 C2273 C 0.28044 0.38143 0.97126
 C2274 C 0.25835 0.37867 0.98336
 C2275 C 0.24430 0.35893 0.97570
 C2276 C 0.25112 0.34398 0.95556
 C2277 C 0.27840 0.33464 0.91917
 N2278 N 0.26993 0.31240 0.91517
 N2279 N 0.27389 0.30113 0.89294
 C2280 C 0.28635 0.31173 0.87387
 N2281 N 0.29503 0.33384 0.87800
 N2282 N 0.29133 0.34498 0.90030
 C2283 C 0.28646 0.30133 0.84780
 C2284 C 0.27942 0.31475 0.82761
 C2285 C 0.27395 0.30423 0.80402
 C2286 C 0.27664 0.28019 0.79944
 C2287 C 0.28575 0.26719 0.81919
 C2288 C 0.29014 0.27758 0.84335
 H2289 H 0.30370 0.37007 0.94167
 H2290 H 0.29316 0.39472 0.97711
 H2291 H 0.22763 0.35545 0.98497
 H2292 H 0.23945 0.32963 0.94958
 H2293 H 0.27600 0.33301 0.83079
 H2294 H 0.26575 0.31479 0.79031
 H2295 H 0.28771 0.24860 0.81675
 H2296 H 0.29546 0.26692 0.85882
 C2297 C 0.83323 0.44254 0.77731
 C2298 C 0.82241 0.46392 0.77993
 C2299 C 0.83486 0.48489 0.77482
 C2300 C 0.85794 0.48469 0.76545
 C2301 C 0.86925 0.46348 0.76621
 C2302 C 0.85709 0.44277 0.77178
 C2303 C 0.81991 0.41988 0.77784
 N2304 N 0.83110 0.39995 0.77290
 N2305 N 0.81941 0.37969 0.76965
 C2306 C 0.79596 0.37838 0.77126
 N2307 N 0.78460 0.39811 0.77704
 N2308 N 0.79638 0.41854 0.78015
 C2309 C 0.78362 0.35607 0.76462
 C2310 C 0.76299 0.34859 0.77707
 C2311 C 0.75339 0.32602 0.77211
 C2312 C 0.76413 0.31082 0.75435
 C2313 C 0.78396 0.31926 0.74091
 C2314 C 0.79360 0.34140 0.74607
 H2315 H 0.80424 0.46442 0.78525
 H2316 H 0.82614 0.50105 0.77757
 H2317 H 0.88746 0.46271 0.76122
 H2318 H 0.86634 0.42678 0.77055
 H2319 H 0.75493 0.35972 0.79140
 H2320 H 0.73805 0.32029 0.78280
 H2321 H 0.79301 0.30839 0.72720
 H2322 H 0.80932 0.34687 0.73585
 C2323 C 0.32644 0.93388 0.28016
 C2324 C 0.31540 0.95519 0.28048
 C2325 C 0.32754 0.97568 0.27290
 C2326 C 0.35053 0.97499 0.26328
 C2327 C 0.36180 0.95383 0.26505
 C2328 C 0.34998 0.93368 0.27318
 C2329 C 0.31369 0.91145 0.28518
 N2330 N 0.32578 0.89216 0.28892
 N2331 N 0.31524 0.87112 0.28890
 C2332 C 0.29209 0.86841 0.28527
 N2333 N 0.27967 0.88773 0.28265
 N2334 N 0.29030 0.90890 0.28262
 C2335 C 0.28202 0.84484 0.27952
 C2336 C 0.25977 0.83729 0.28791
 C2337 C 0.25121 0.81452 0.28176
 C2338 C 0.26457 0.79925 0.26661
 C2339 C 0.28644 0.80757 0.25764
 C2340 C 0.29514 0.82974 0.26434
 H2341 H 0.29743 0.95600 0.28654
 H2342 H 0.31878 0.99191 0.27449
 H2343 H 0.37985 0.95270 0.25948
 H2344 H 0.35925 0.91770 0.27306
 H2345 H 0.24924 0.84882 0.29944
 H2346 H 0.23413 0.80899 0.28872
 H2347 H 0.29705 0.79710 0.24507
 H2348 H 0.31210 0.83532 0.25700
 C2349 C 0.17016 0.93917 0.73561
 C2350 C 0.14732 0.93998 0.72703
 C2351 C 0.13469 0.95984 0.73144
 C2352 C 0.14462 0.97986 0.74398
 C2353 C 0.16734 0.97859 0.75334
 C2354 C 0.18007 0.95872 0.74873
 C2355 C 0.18261 0.91726 0.73287
 N2356 N 0.20571 0.91670 0.73737
 N2357 N 0.21624 0.89648 0.73709
 C2358 C 0.20399 0.87609 0.73241
 N2359 N 0.18107 0.87675 0.72742
 N2360 N 0.17063 0.89690 0.72751
 C2361 C 0.21425 0.85342 0.73597
 C2362 C 0.20064 0.83586 0.74768
 C2363 C 0.20962 0.81439 0.75210
 C2364 C 0.23230 0.80931 0.74414
 C2365 C 0.24609 0.82708 0.73248
 C2366 C 0.23721 0.84910 0.72871
 H2367 H 0.13898 0.92506 0.71725
 H2368 H 0.11691 0.95954 0.72515
 H2369 H 0.17523 0.99260 0.76491
 H2370 H 0.19736 0.95835 0.75635
 H2371 H 0.18308 0.83892 0.75410
 H2372 H 0.19857 0.80194 0.76222
 H2373 H 0.26373 0.82406 0.72638
 H2374 H 0.24808 0.86256 0.71981
 C2375 C 0.67314 0.43488 0.21268
 C2376 C 0.64893 0.43361 0.21535
 C2377 C 0.63703 0.45291 0.22381
 C2378 C 0.64876 0.47434 0.23010
 C2379 C 0.67282 0.47630 0.22467
 C2380 C 0.68497 0.45659 0.21678
 C2381 C 0.68543 0.41303 0.20759
 N2382 N 0.70821 0.41137 0.21317
 N2383 N 0.71788 0.39064 0.21269
 C2384 C 0.70508 0.37084 0.20662
 N2385 N 0.68264 0.37270 0.20009
 N2386 N 0.67307 0.39331 0.20050
 C2387 C 0.71364 0.34748 0.21123
 C2388 C 0.69821 0.33077 0.22190
 C2389 C 0.70566 0.30910 0.22841
 C2390 C 0.72862 0.30283 0.22350
 C2391 C 0.74414 0.31957 0.21246
 C2392 C 0.73678 0.34185 0.20671
 H2393 H 0.63906 0.41735 0.21200
 H2394 H 0.61842 0.45083 0.22643
 H2395 H 0.68243 0.49282 0.22655
 H2396 H 0.70358 0.45829 0.21405
 H2397 H 0.68045 0.33484 0.22640
 H2398 H 0.69341 0.29781 0.23852
 H2399 H 0.76208 0.31572 0.20883
 H2400 H 0.74908 0.35459 0.19872
 C2401 C 0.66945 0.55768 0.27301
 C2402 C 0.67913 0.53595 0.27611
 C2403 C 0.66770 0.51540 0.26659
 C2404 C 0.64738 0.51635 0.25195
 C2405 C 0.63726 0.53823 0.25067
 C2406 C 0.64813 0.55841 0.26078
 C2407 C 0.68112 0.58001 0.28144
 N2408 N 0.66803 0.59848 0.28733
 N2409 N 0.67765 0.61985 0.28994
 C2410 C 0.70083 0.62376 0.28680
 N2411 N 0.71422 0.60517 0.28208
 N2412 N 0.70452 0.58365 0.27945
 C2413 C 0.71006 0.64801 0.28380
 C2414 C 0.73249 0.65567 0.29112
 C2415 C 0.74050 0.67881 0.28682
 C2416 C 0.72641 0.69442 0.27452
 C2417 C 0.70425 0.68612 0.26677
 C2418 C 0.69609 0.66359 0.27177
 H2419 H 0.69523 0.53483 0.28623
 H2420 H 0.67487 0.49882 0.27057
 H2421 H 0.62067 0.53997 0.24178
 H2422 H 0.63993 0.57480 0.25844
 H2423 H 0.74372 0.64385 0.30018
 H2424 H 0.75784 0.68429 0.29265
 H2425 H 0.69319 0.69664 0.25585
 H2426 H 0.67899 0.65805 0.26513
 C2427 C 0.16805 0.06663 0.76742
 C2428 C 0.14746 0.06075 0.78084
 C2429 C 0.13521 0.03971 0.77551
 C2430 C 0.14343 0.02361 0.75692
 C2431 C 0.16342 0.03039 0.74250
 C2432 C 0.17589 0.05126 0.74815
 C2433 C 0.18018 0.08954 0.77209
 N2434 N 0.20272 0.09341 0.76486
 N2435 N 0.21292 0.11466 0.76718
 C2436 C 0.20090 0.13283 0.77672
 N2437 N 0.17852 0.12885 0.78433
 N2438 N 0.16842 0.10761 0.78224
 C2439 C 0.21053 0.15695 0.77520
 C2440 C 0.19615 0.17410 0.76703
 C2441 C 0.20505 0.19653 0.76264
 C2442 C 0.22842 0.20296 0.76747
 C2443 C 0.24278 0.18575 0.77629
 C2444 C 0.23398 0.16282 0.77973
 H2445 H 0.14063 0.07255 0.79535
 H2446 H 0.11904 0.03631 0.78579
 H2447 H 0.16952 0.01941 0.72684
 H2448 H 0.19128 0.05571 0.73683
 H2449 H 0.17818 0.16984 0.76256
 H2450 H 0.19365 0.20816 0.75387
 H2451 H 0.26097 0.18973 0.77975
 H2452 H 0.24545 0.14970 0.78580
 C2453 C 0.32690 0.05510 0.22601
 C2454 C 0.34891 0.05851 0.23673
 C2455 C 0.36054 0.03983 0.24575
 C2456 C 0.35052 0.01695 0.24478
 C2457 C 0.32929 0.01336 0.23181
 C2458 C 0.31720 0.03232 0.22338
 C2459 C 0.31444 0.07576 0.21867
 N2460 N 0.29099 0.07645 0.22102
 N2461 N 0.28050 0.09658 0.21895
 C2462 C 0.29314 0.11666 0.21442
 N2463 N 0.31638 0.11562 0.21091
 N2464 N 0.32679 0.09564 0.21299
 C2465 C 0.28305 0.13974 0.21765
 C2466 C 0.29683 0.15791 0.22865
 C2467 C 0.28803 0.17966 0.23345
 C2468 C 0.26530 0.18445 0.22669
 C2469 C 0.25132 0.16619 0.21561
 C2470 C 0.26005 0.14388 0.21143
 H2471 H 0.35707 0.07581 0.23872
 H2472 H 0.37759 0.04345 0.25359
 H2473 H 0.32195 -0.00407 0.22822
 H2474 H 0.30052 0.02917 0.21446
 H2475 H 0.31439 0.15513 0.23445
 H2476 H 0.29915 0.19247 0.24328
 H2477 H 0.23363 0.16901 0.21043
 H2478 H 0.24899 0.13000 0.20318
 C2479 C 0.83287 0.56552 0.73237
 C2480 C 0.85550 0.56872 0.74149
 C2481 C 0.86768 0.54983 0.74894
 C2482 C 0.85762 0.52698 0.74788
 C2483 C 0.83598 0.52361 0.73573
 C2484 C 0.82331 0.54276 0.72904
 C2485 C 0.81938 0.58630 0.72839
 N2486 N 0.79616 0.58608 0.73329
 N2487 N 0.78511 0.60601 0.73517
 C2488 C 0.79696 0.62678 0.73218
 N2489 N 0.81986 0.62682 0.72608
 N2490 N 0.83082 0.60702 0.72419
 C2491 C 0.78699 0.64894 0.74027
 C2492 C 0.80027 0.66408 0.75616
 C2493 C 0.79267 0.68593 0.76306
 C2494 C 0.77166 0.69366 0.75391
 C2495 C 0.75775 0.67801 0.73879
 C2496 C 0.76528 0.65564 0.73222
 H2497 H 0.86360 0.58601 0.74388
 H2498 H 0.88501 0.55327 0.75608
 H2499 H 0.82860 0.50627 0.73176
 H2500 H 0.80615 0.53980 0.72122
 H2501 H 0.81689 0.65910 0.76305
 H2502 H 0.80400 0.69705 0.77483
 H2503 H 0.74144 0.68323 0.73140
 H2504 H 0.75469 0.64404 0.72007
 C2505 C 0.93561 0.75612 0.18865
 C2506 C 0.94805 0.73567 0.18717
 C2507 C 0.96745 0.73418 0.17083
 C2508 C 0.97457 0.75280 0.15487
 C2509 C 0.96326 0.77399 0.15852
 C2510 C 0.94392 0.77546 0.17476
 C2511 C 0.91330 0.75709 0.20309
 N2512 N 0.89891 0.77457 0.19888
 N2513 N 0.87789 0.77459 0.20965
 C2514 C 0.87034 0.75723 0.22529
 N2515 N 0.88488 0.73996 0.23009
 N2516 N 0.90594 0.73986 0.21913
 C2517 C 0.84592 0.75610 0.23431
 C2518 C 0.83894 0.74566 0.25745
 C2519 C 0.81543 0.74443 0.26493
 C2520 C 0.79851 0.75312 0.24906
 C2521 C 0.80578 0.76320 0.22577
 C2522 C 0.82908 0.76504 0.21879
 H2523 H 0.94242 0.72057 0.19802
 H2524 H 0.97649 0.71805 0.16988
 H2525 H 0.96912 0.78967 0.14893
 H2526 H 0.93528 0.79180 0.17616
 H2527 H 0.85165 0.73857 0.26974
 H2528 H 0.81050 0.73635 0.28284
 H2529 H 0.79347 0.76993 0.21276
 H2530 H 0.83385 0.77292 0.20069
 C2531 C 0.44082 0.25899 0.68298
 C2532 C 0.45281 0.23826 0.68254
 C2533 C 0.47252 0.23598 0.66688
 C2534 C 0.48051 0.25414 0.65073
 C2535 C 0.46974 0.27569 0.65347
 C2536 C 0.44996 0.27790 0.66894
 C2537 C 0.41810 0.26050 0.69639
 N2538 N 0.40359 0.27736 0.69027
 N2539 N 0.38227 0.27767 0.70027
 C2540 C 0.37455 0.26122 0.71697
 N2541 N 0.38918 0.24459 0.72360
 N2542 N 0.41052 0.24419 0.71342
 C2543 C 0.35009 0.26049 0.72585
 C2544 C 0.34304 0.25015 0.74901
 C2545 C 0.31960 0.24925 0.75659
 C2546 C 0.30276 0.25824 0.74087
 C2547 C 0.31001 0.26826 0.71755
 C2548 C 0.33332 0.26968 0.71038
 H2549 H 0.44649 0.22348 0.69351
 H2550 H 0.48103 0.21955 0.66646
 H2551 H 0.47627 0.29100 0.64363
 H2552 H 0.44162 0.29443 0.66961
 H2553 H 0.35566 0.24289 0.76128
 H2554 H 0.31469 0.24131 0.77459
 H2555 H 0.29771 0.27535 0.70478
 H2556 H 0.33814 0.27754 0.69230
 C2557 C 0.43995 0.75196 0.82520
 C2558 C 0.44378 0.73210 0.83928
 C2559 C 0.46340 0.73104 0.85437
 C2560 C 0.48051 0.74950 0.85507
 C2561 C 0.47645 0.76940 0.84069
 C2562 C 0.45646 0.77065 0.82606
 C2563 C 0.41810 0.75350 0.81106
 N2564 N 0.40901 0.77449 0.80710
 N2565 N 0.38837 0.77572 0.79630
 C2566 C 0.37607 0.75602 0.78880
 N2567 N 0.38538 0.73506 0.79230
 N2568 N 0.40591 0.73383 0.80330
 C2569 C 0.35230 0.75721 0.77888
 C2570 C 0.34215 0.73859 0.76440
 C2571 C 0.31899 0.73893 0.75703
 C2572 C 0.30511 0.75746 0.76466
 C2573 C 0.31575 0.77651 0.77835
 C2574 C 0.33901 0.77643 0.78520
 H2575 H 0.43106 0.71765 0.83953
 H2576 H 0.46436 0.71587 0.86599
 H2577 H 0.48872 0.78424 0.84117
 H2578 H 0.45388 0.78630 0.81554
 H2579 H 0.35204 0.72360 0.75900
 H2580 H 0.31192 0.72416 0.74626
 H2581 H 0.30615 0.79149 0.78437
 H2582 H 0.34631 0.79109 0.79633
 C2583 C 0.93095 0.25279 0.32560
 C2584 C 0.94960 0.26840 0.31973
 C2585 C 0.97015 0.26844 0.33372
 C2586 C 0.97295 0.25229 0.35331
 C2587 C 0.95355 0.23768 0.35987
 C2588 C 0.93318 0.23767 0.34603
 C2589 C 0.90876 0.25245 0.31159
 N2590 N 0.89078 0.23828 0.31950
 N2591 N 0.87045 0.23815 0.30803
 C2592 C 0.86707 0.25211 0.28800
 N2593 N 0.88513 0.26611 0.27963
 N2594 N 0.90560 0.26628 0.29124
 C2595 C 0.84360 0.25266 0.27705
 C2596 C 0.83961 0.26058 0.25227
 C2597 C 0.81695 0.26032 0.24271
 C2598 C 0.79796 0.25244 0.25796
 C2599 C 0.80227 0.24496 0.28286
 C2600 C 0.82461 0.24488 0.29209
 H2601 H 0.94826 0.28073 0.30454
 H2602 H 0.98406 0.28096 0.32906
 H2603 H 0.95361 0.22636 0.37607
 H2604 H 0.91900 0.22584 0.35172
 H2605 H 0.85397 0.26668 0.24024
 H2606 H 0.81430 0.26633 0.22353
 H2607 H 0.78840 0.23866 0.29542
 H2608 H 0.82692 0.23885 0.31134
 C2609 C 0.06039 0.24830 0.32397
 C2610 C 0.03909 0.24512 0.31145
 C2611 C 0.01810 0.24627 0.32534
 C2612 C 0.01789 0.25137 0.35205
 C2613 C 0.03944 0.25346 0.36440
 C2614 C 0.06020 0.25225 0.35066
 C2615 C 0.08295 0.24693 0.30999
 N2616 N 0.10278 0.24746 0.32352
 N2617 N 0.12322 0.24598 0.31174
 C2618 C 0.12492 0.24394 0.28580
 N2619 N 0.10512 0.24364 0.27202
 N2620 N 0.08450 0.24507 0.28391
 C2621 C 0.14816 0.24153 0.27365
 C2622 C 0.15272 0.24500 0.24737
 C2623 C 0.17545 0.24361 0.23727
 C2624 C 0.19393 0.23888 0.25334
 C2625 C 0.18876 0.23443 0.27932
 C2626 C 0.16648 0.23588 0.28924
 H2627 H 0.03863 0.24139 0.29100
 H2628 H 0.00226 0.24267 0.31499
 H2629 H 0.04016 0.25644 0.38498
 H2630 H 0.07619 0.25446 0.36117
 H2631 H 0.13887 0.24910 0.23476
 H2632 H 0.17841 0.24623 0.21704
 H2633 H 0.20201 0.23000 0.29253
 H2634 H 0.16370 0.23255 0.30942
 C2635 C 0.56941 0.75463 0.83308
 C2636 C 0.54907 0.75339 0.81867
 C2637 C 0.52724 0.75182 0.83091
 C2638 C 0.52519 0.75173 0.85802
 C2639 C 0.54587 0.75160 0.87203
 C2640 C 0.56748 0.75339 0.85988
 C2641 C 0.59275 0.75724 0.82086
 N2642 N 0.61121 0.76359 0.83557
 N2643 N 0.63243 0.76531 0.82544
 C2644 C 0.63632 0.76076 0.80010
 N2645 N 0.61782 0.75464 0.78514
 N2646 N 0.59643 0.75299 0.79533
 C2647 C 0.66057 0.76123 0.79001
 C2648 C 0.66622 0.75590 0.76418
 C2649 C 0.68955 0.75454 0.75616
 C2650 C 0.70760 0.75844 0.77383
 C2651 C 0.70159 0.76408 0.79946
 C2652 C 0.67867 0.76580 0.80725
 H2653 H 0.55001 0.75383 0.79793
 H2654 H 0.51221 0.75042 0.81887
 H2655 H 0.54522 0.75068 0.89275
 H2656 H 0.58275 0.75373 0.87166
 H2657 H 0.65267 0.75220 0.75038
 H2658 H 0.69338 0.74961 0.73641
 H2659 H 0.71447 0.76635 0.81420
 H2660 H 0.67522 0.76986 0.82731
 C2661 C 0.55968 0.24447 0.68439
 C2662 C 0.55124 0.22473 0.67037
 C2663 C 0.53247 0.22613 0.65399
 C2664 C 0.52197 0.24756 0.65047
 C2665 C 0.52941 0.26676 0.66624
 C2666 C 0.54816 0.26536 0.68260
 C2667 C 0.58091 0.24356 0.69994
 N2668 N 0.58960 0.26294 0.71259
 N2669 N 0.60966 0.26269 0.72479
 C2670 C 0.62190 0.24304 0.72493
 N2671 N 0.61300 0.22354 0.71267
 N2672 N 0.59294 0.22378 0.70046
 C2673 C 0.64549 0.24359 0.73585
 C2674 C 0.65892 0.22380 0.73421
 C2675 C 0.68241 0.22540 0.74040
 C2676 C 0.69319 0.24680 0.74826
 C2677 C 0.67909 0.26607 0.75209
 C2678 C 0.65563 0.26450 0.74593
 H2679 H 0.55925 0.20814 0.67187
 H2680 H 0.52628 0.21021 0.64437
 H2681 H 0.52102 0.28319 0.66528
 H2682 H 0.55382 0.28082 0.69353
 H2683 H 0.65158 0.20724 0.72706
 H2684 H 0.69198 0.20992 0.73813
 H2685 H 0.68640 0.28290 0.75845
 H2686 H 0.64576 0.28005 0.74787
 C2687 C 0.05529 0.74350 0.18596
 C2688 C 0.04358 0.76440 0.18571
 C2689 C 0.02418 0.76625 0.17022
 C2690 C 0.01644 0.74754 0.15387
 C2691 C 0.02701 0.72600 0.15638
 C2692 C 0.04627 0.72416 0.17176
 C2693 C 0.07754 0.74187 0.19945
 N2694 N 0.09106 0.72358 0.19410
 N2695 N 0.11199 0.72272 0.20411
 C2696 C 0.12032 0.74004 0.22010
 N2697 N 0.10667 0.75816 0.22601
 N2698 N 0.08569 0.75909 0.21581
 C2699 C 0.14466 0.74006 0.22841
 C2700 C 0.15200 0.75075 0.25163
 C2701 C 0.17546 0.75105 0.25839
 C2702 C 0.19200 0.74117 0.24172
 C2703 C 0.18438 0.73072 0.21843
 C2704 C 0.16107 0.72980 0.21214
 H2705 H 0.04976 0.77953 0.19689
 H2706 H 0.01563 0.78265 0.17025
 H2707 H 0.02058 0.71026 0.14656
 H2708 H 0.05428 0.70749 0.17227
 H2709 H 0.13964 0.75882 0.26450
 H2710 H 0.18066 0.75947 0.27633
 H2711 H 0.19643 0.72314 0.20482
 H2712 H 0.15602 0.72167 0.19397
   
