data_POSCAR
  _audit_creation_date              2014-09-24
  _audit_creation_method            'ToBaCCo'
  _symmetry_space_group_name_H-M    'P1'
  _symmetry_Int_Tables_number       1
  _symmetry_cell_setting            triclinic
  loop_
  _symmetry_equiv_pos_as_xyz
 x,y,z
_cell_length_a 46.5566
_cell_length_b 46.2232
_cell_length_c 48.5022
_cell_angle_alpha 90.110800
_cell_angle_beta 90.266800
_cell_angle_gamma 89.447200
loop_
  _atom_site_label
  _atom_site_type_symbol
  _atom_site_fract_x
  _atom_site_fract_y
  _atom_site_fract_z
C1 C 0.36870 0.32645 0.33193
 C2 C 0.35514 0.31303 0.35431
 C3 C 0.33009 0.32480 0.36602
 C4 C 0.31929 0.35114 0.35574
 C5 C 0.33194 0.36472 0.33297
 C6 C 0.35642 0.35190 0.32097
 H7 H 0.36401 0.29314 0.36255
 H8 H 0.30105 0.36131 0.36567
 H9 H 0.36555 0.36134 0.30267
 C10 C 0.36645 0.83183 -0.16446
 C11 C 0.35387 0.85742 -0.17506
 C12 C 0.32921 0.87024 -0.16315
 C13 C 0.31670 0.85627 -0.14043
 C14 C 0.32774 0.82999 -0.13022
 C15 C 0.35276 0.81829 -0.14211
 H16 H 0.36206 0.86621 -0.19397
 H17 H 0.29868 0.86626 -0.13003
 H18 H 0.36165 0.79858 -0.13358
 C19 C 0.86701 0.33046 -0.16590
 C20 C 0.85460 0.35567 -0.17709
 C21 C 0.83015 0.36888 -0.16515
 C22 C 0.81783 0.35536 -0.14202
 C23 C 0.82874 0.32912 -0.13161
 C24 C 0.85368 0.31726 -0.14337
 H25 H 0.86348 0.36404 -0.19591
 H26 H 0.80007 0.36561 -0.13146
 H27 H 0.86267 0.29744 -0.13509
 C28 C 0.86861 0.83210 0.33818
 C29 C 0.85506 0.81866 0.36051
 C30 C 0.83033 0.83072 0.37255
 C31 C 0.81988 0.85739 0.36272
 C32 C 0.83250 0.87129 0.33996
 C33 C 0.85678 0.85799 0.32776
 H34 H 0.86360 0.79844 0.36833
 H35 H 0.80220 0.86766 0.37338
 H36 H 0.86578 0.86681 0.30916
 C37 C 0.63284 0.66860 0.33160
 C38 C 0.64428 0.64289 0.32042
 C39 C 0.66742 0.62810 0.33295
 C40 C 0.67877 0.63931 0.35763
 C41 C 0.66739 0.66465 0.36973
 C42 C 0.64449 0.67916 0.35642
 H43 H 0.63524 0.63449 0.30153
 H44 H 0.69664 0.62844 0.36755
 H45 H 0.63585 0.69880 0.36532
 C46 C 0.62881 0.16990 -0.16358
 C47 C 0.64314 0.14703 -0.17690
 C48 C 0.66843 0.13435 -0.16583
 C49 C 0.67945 0.14612 -0.14103
 C50 C 0.66505 0.16865 -0.12700
 C51 C 0.63968 0.18016 -0.13848
 H52 H 0.63407 0.13889 -0.19585
 H53 H 0.69984 0.13870 -0.13298
 H54 H 0.62798 0.19699 -0.12764
 C55 C 0.13458 0.66899 -0.16927
 C56 C 0.14689 0.64405 -0.18117
 C57 C 0.16899 0.62824 -0.16789
 C58 C 0.17913 0.63867 -0.14233
 C59 C 0.16773 0.66396 -0.13026
 C60 C 0.14524 0.67878 -0.14379
 H61 H 0.13994 0.63793 -0.20161
 H62 H 0.19537 0.62658 -0.13112
 H63 H 0.13620 0.69808 -0.13457
 C64 C 0.12442 0.16313 0.33850
 C65 C 0.14023 0.14173 0.32436
 C66 C 0.16656 0.13116 0.33482
 C67 C 0.17693 0.14231 0.35992
 C68 C 0.16125 0.16327 0.37473
 C69 C 0.13490 0.17323 0.36393
 H70 H 0.13224 0.13363 0.30492
 H71 H 0.19780 0.13537 0.36739
 H72 H 0.12244 0.18901 0.37541
 C73 C 0.63604 0.32876 0.66561
 C74 C 0.64714 0.35403 0.67761
 C75 C 0.67349 0.36558 0.66905
 C76 C 0.68914 0.35089 0.64850
 C77 C 0.67832 0.32582 0.63579
 C78 C 0.65154 0.31529 0.64427
 H79 H 0.63534 0.36473 0.69387
 H80 H 0.71015 0.35853 0.64275
 H81 H 0.64243 0.29669 0.63402
 C82 C 0.62795 0.82971 1.16802
 C83 C 0.63860 0.82005 1.14246
 C84 C 0.66490 0.82975 1.13213
 C85 C 0.68073 0.84995 1.14747
 C86 C 0.67082 0.86046 1.17311
 C87 C 0.64455 0.84966 1.18311
 H88 H 0.62594 0.80558 1.12988
 H89 H 0.70060 0.85758 1.13895
 H90 H 0.63801 0.85539 1.20372
 C91 C 0.13951 0.32674 1.16882
 C92 C 0.15125 0.31637 1.14376
 C93 C 0.17378 0.33089 1.13050
 C94 C 0.18526 0.35571 1.14294
 C95 C 0.17536 0.36561 1.16852
 C96 C 0.15227 0.35134 1.18092
 H97 H 0.14383 0.29638 1.13489
 H98 H 0.20191 0.36754 1.13249
 H99 H 0.14415 0.35991 1.20007
 C100 C 0.13046 0.83049 0.66897
 C101 C 0.14262 0.81945 0.64448
 C102 C 0.16597 0.83296 0.63181
 C103 C 0.17653 0.85869 0.64310
 C104 C 0.16556 0.87028 0.66781
 C105 C 0.14245 0.85588 0.68038
 H106 H 0.13415 0.80025 0.63490
 H107 H 0.19314 0.87002 0.63214
 H108 H 0.13513 0.86311 0.70030
 C109 C 0.36461 0.67355 0.66417
 C110 C 0.35197 0.64892 0.67575
 C111 C 0.32732 0.63651 0.66405
 C112 C 0.31614 0.64828 0.63952
 C113 C 0.32830 0.67294 0.62747
 C114 C 0.35286 0.68505 0.63974
 H115 H 0.36087 0.63995 0.69453
 H116 H 0.29727 0.63871 0.63033
 H117 H 0.36229 0.70406 0.63067
 C118 C 0.37181 0.17212 1.16618
 C119 C 0.36020 0.18245 1.14125
 C120 C 0.33524 0.17027 1.12991
 C121 C 0.32201 0.14747 1.14402
 C122 C 0.33217 0.13769 1.16982
 C123 C 0.35737 0.15026 1.18047
 H124 H 0.37076 0.19998 1.13078
 H125 H 0.30416 0.13682 1.13417
 H126 H 0.36526 0.14405 1.20062
 C127 C 0.86147 0.67245 1.16867
 C128 C 0.85018 0.68304 1.14368
 C129 C 0.82641 0.66988 1.13091
 C130 C 0.81493 0.64478 1.14287
 C131 C 0.82543 0.63413 1.16816
 C132 C 0.84871 0.64818 1.18074
 H133 H 0.85946 0.70203 1.13446
 H134 H 0.79766 0.63359 1.13255
 H135 H 0.85622 0.64091 1.20072
 C136 C 0.87238 0.16867 0.66730
 C137 C 0.85896 0.14466 0.67964
 C138 C 0.83634 0.12977 0.66659
 C139 C 0.82850 0.13832 0.63974
 C140 C 0.84071 0.16255 0.62702
 C141 C 0.86263 0.17746 0.64095
 H142 H 0.86454 0.13909 0.70061
 H143 H 0.81299 0.12591 0.62824
 H144 H 0.87214 0.19580 0.63099
 C145 C 0.33284 0.37048 0.65726
 C146 C 0.35609 0.35679 0.67064
 C147 C 0.37010 0.33284 0.65878
 C148 C 0.36029 0.32240 0.63329
 C149 C 0.33600 0.33448 0.62022
 C150 C 0.32257 0.35877 0.63232
 H151 H 0.36271 0.36429 0.69075
 H152 H 0.37171 0.30473 0.62346
 H153 H 0.30400 0.36856 0.62251
 C154 C 0.33238 0.87288 0.16083
 C155 C 0.32082 0.86053 0.13676
 C156 C 0.32878 0.83254 0.12821
 C157 C 0.34961 0.81730 0.14358
 C158 C 0.36247 0.82961 0.16709
 C159 C 0.35359 0.85741 0.17553
 H160 H 0.30542 0.87283 0.12468
 H161 H 0.35509 0.79534 0.13790
 H162 H 0.36287 0.86684 0.19386
 C163 C 0.83689 0.36984 0.15996
 C164 C 0.82570 0.35809 0.13537
 C165 C 0.83951 0.33484 0.12193
 C166 C 0.86514 0.32373 0.13329
 C167 C 0.87637 0.33450 0.15815
 C168 C 0.86186 0.35733 0.17147
 H169 H 0.80611 0.36708 0.12679
 H170 H 0.87663 0.30670 0.12253
 H171 H 0.86966 0.36493 0.19119
 C172 C 0.82565 0.86554 0.66665
 C173 C 0.81511 0.85425 0.64164
 C174 C 0.82997 0.83206 0.62753
 C175 C 0.85556 0.82097 0.63926
 C176 C 0.86569 0.83089 0.66489
 C177 C 0.85108 0.85384 0.67783
 H178 H 0.79476 0.86219 0.63378
 H179 H 0.86765 0.80444 0.62846
 H180 H 0.85927 0.86215 0.69713
 C181 C 0.66711 0.63389 0.66781
 C182 C 0.64392 0.64870 0.67988
 C183 C 0.63015 0.67192 0.66640
 C184 C 0.64059 0.68085 0.64061
 C185 C 0.66398 0.66642 0.62809
 C186 C 0.67627 0.64233 0.64156
 H187 H 0.63722 0.64279 0.70043
 H188 H 0.63073 0.69925 0.63054
 H189 H 0.69327 0.63018 0.63160
 C190 C 0.67078 0.12535 0.16295
 C191 C 0.68273 0.13900 0.13987
 C192 C 0.67205 0.16575 0.13033
 C193 C 0.64811 0.17815 0.14356
 C194 C 0.63652 0.16563 0.16739
 C195 C 0.64808 0.13921 0.17686
 H196 H 0.70083 0.12895 0.12962
 H197 H 0.63852 0.19769 0.13534
 H198 H 0.64004 0.12998 0.19575
 C199 C 0.17064 0.63483 0.16855
 C200 C 0.14618 0.64794 0.18029
 C201 C 0.13086 0.66994 0.16651
 C202 C 0.14022 0.67862 0.14037
 C203 C 0.16530 0.66681 0.12855
 C204 C 0.18013 0.64463 0.14272
 H205 H 0.13960 0.64167 0.20078
 H206 H 0.12796 0.69476 0.12915
 H207 H 0.19927 0.63522 0.13383
 C208 C 0.17117 0.13361 0.66573
 C209 C 0.14902 0.14804 0.67988
 C210 C 0.13600 0.17313 0.66907
 C211 C 0.14571 0.18389 0.64374
 C212 C 0.16878 0.17066 0.62979
 C213 C 0.18131 0.14545 0.64099
 H214 H 0.14230 0.14006 0.69976
 H215 H 0.13508 0.20246 0.63461
 H216 H 0.19901 0.13492 0.63056
 C217 C 0.33208 0.63185 0.33786
 C218 C 0.31993 0.64527 0.36110
 C219 C 0.33125 0.67099 0.37195
 C220 C 0.35609 0.68247 0.35994
 C221 C 0.36805 0.67010 0.33603
 C222 C 0.35580 0.64478 0.32522
 H223 H 0.30111 0.63595 0.37042
 H224 H 0.36600 0.70122 0.36911
 H225 H 0.36408 0.63577 0.30623
 C226 C 0.33141 0.13513 0.82966
 C227 C 0.32199 0.14515 0.85543
 C228 C 0.33365 0.17014 0.86746
 C229 C 0.35697 0.18359 0.85446
 C230 C 0.36749 0.17335 0.82907
 C231 C 0.35428 0.14927 0.81681
 H232 H 0.30518 0.13365 0.86595
 H233 H 0.36641 0.20251 0.86383
 H234 H 0.36100 0.14225 0.79653
 C235 C 0.83124 0.63321 0.83601
 C236 C 0.85530 0.64615 0.82386
 C237 C 0.86779 0.67104 0.83542
 C238 C 0.85476 0.68385 0.85862
 C239 C 0.83004 0.67201 0.87048
 C240 C 0.81919 0.64612 0.85960
 H241 H 0.86389 0.63728 0.80496
 H242 H 0.86371 0.70336 0.86732
 H243 H 0.80129 0.63583 0.86961
 C244 C 0.82511 0.13958 0.32330
 C245 C 0.84806 0.15346 0.31031
 C246 C 0.86138 0.17762 0.32224
 C247 C 0.85081 0.18835 0.34744
 C248 C 0.82739 0.17525 0.36063
 C249 C 0.81539 0.15028 0.34876
 H250 H 0.85498 0.14598 0.29024
 H251 H 0.86051 0.20721 0.35664
 H252 H 0.79845 0.13909 0.35939
 C253 C 0.67443 0.36311 0.33581
 C254 C 0.68442 0.35345 0.36171
 C255 C 0.67078 0.33056 0.37556
 C256 C 0.64682 0.31751 0.36291
 C257 C 0.63712 0.32612 0.33673
 C258 C 0.65060 0.34943 0.32384
 H259 H 0.70301 0.36352 0.37083
 H260 H 0.63607 0.29994 0.37314
 H261 H 0.64289 0.35660 0.30392
 C262 C 0.66720 0.87056 0.83267
 C263 C 0.64332 0.85752 0.82010
 C264 C 0.63013 0.83331 0.83183
 C265 C 0.64032 0.82308 0.85732
 C266 C 0.66404 0.83574 0.87058
 C267 C 0.67730 0.85956 0.85803
 H268 H 0.63544 0.86590 0.80069
 H269 H 0.63009 0.80465 0.86662
 H270 H 0.69577 0.86929 0.86772
 C271 C 0.17318 0.36930 0.83187
 C272 C 0.14766 0.35790 0.82109
 C273 C 0.13507 0.33312 0.83246
 C274 C 0.14847 0.31984 0.85530
 C275 C 0.17415 0.33082 0.86648
 C276 C 0.18617 0.35559 0.85457
 H277 H 0.13764 0.36819 0.80349
 H278 H 0.13907 0.30080 0.86423
 H279 H 0.20596 0.36416 0.86286
 C280 C 0.17175 0.86773 0.32694
 C281 C 0.14779 0.85433 0.31485
 C282 C 0.13201 0.83356 0.32917
 C283 C 0.14050 0.82617 0.35602
 C284 C 0.16530 0.83789 0.36815
 C285 C 0.18054 0.85909 0.35355
 H286 H 0.14203 0.85940 0.29379
 H287 H 0.12774 0.81099 0.36754
 H288 H 0.19939 0.86863 0.36271
 O289 O 0.25314 1.03386 0.21504
 O290 O 0.21703 0.97414 0.25051
 O291 O 0.21553 1.03091 0.25309
 O292 O 0.25407 0.97775 0.21059
 O293 O 0.28994 0.97694 0.24052
 O294 O 0.24977 1.02836 0.28469
 O295 O 0.25282 0.97141 0.28041
 O296 O 0.28779 1.03263 0.24629
 Cu297 Cu 0.23133 1.00409 0.22931
 Cu298 Cu 0.27347 1.00196 0.26623
 C299 C 0.27634 1.04383 0.22497
 C300 C 0.22904 0.96219 0.27119
 C301 C 0.22643 1.03941 0.27568
 C302 C 0.27873 0.96863 0.21794
 O303 O 0.24960 0.52928 0.71029
 O304 O 0.21526 0.47159 0.75038
 O305 O 0.21322 0.52711 0.75073
 O306 O 0.25091 0.47254 0.70874
 O307 O 0.28819 0.47446 0.73693
 O308 O 0.24876 0.52615 0.78104
 O309 O 0.25274 0.47031 0.77845
 O310 O 0.28465 0.53090 0.74108
 Cu311 Cu 0.22875 0.49995 0.72687
 Cu312 Cu 0.27239 0.50030 0.76219
 C313 C 0.27248 0.54062 0.71952
 C314 C 0.22804 0.46141 0.77148
 C315 C 0.22429 0.53559 0.77329
 C316 C 0.27609 0.46440 0.71547
 O317 O 0.71251 0.02124 0.24134
 O318 O 0.75262 -0.02626 0.28910
 O319 O 0.74855 0.02975 0.28142
 O320 O 0.71608 -0.03425 0.24926
 O321 O 0.75195 -0.03699 0.21974
 O322 O 0.78480 0.02675 0.25233
 O323 O 0.78857 -0.02867 0.25964
 O324 O 0.74882 0.01918 0.21225
 Cu325 Cu 0.72887 -0.00217 0.26829
 Cu326 Cu 0.77209 -0.00527 0.23297
 C327 C 0.72408 0.02866 0.21880
 C328 C 0.77737 -0.03569 0.28244
 C329 C 0.77211 0.03932 0.27222
 C330 C 0.72844 -0.04660 0.22908
 O331 O 0.78679 0.52834 0.75761
 O332 O 0.74816 0.47389 0.71632
 O333 O 0.74902 0.53073 0.71818
 O334 O 0.78560 0.47270 0.75700
 O335 O 0.75063 0.47337 0.78760
 O336 O 0.71313 0.52978 0.74774
 O337 O 0.71365 0.47325 0.74734
 O338 O 0.75088 0.52947 0.78721
 Cu339 Cu 0.77079 0.50124 0.73403
 Cu340 Cu 0.72845 0.50144 0.77041
 C341 C 0.77534 0.53821 0.77945
 C342 C 0.72449 0.46400 0.72498
 C343 C 0.72497 0.54041 0.72658
 C344 C 0.77466 0.46363 0.77929
 O345 O 0.21656 0.52938 0.24685
 O346 O 0.25320 0.47202 0.28628
 O347 O 0.25288 0.52819 0.28757
 O348 O 0.21664 0.47291 0.24595
 O349 O 0.25283 0.47272 0.21670
 O350 O 0.28924 0.52813 0.25847
 O351 O 0.28953 0.47270 0.25716
 O352 O 0.25270 0.53028 0.21759
 Cu353 Cu 0.23113 0.50063 0.26948
 Cu354 Cu 0.27447 0.50106 0.23416
 C355 C 0.22862 0.54006 0.22583
 C356 C 0.27768 0.46273 0.27863
 C357 C 0.27737 0.53730 0.28037
 C358 C 0.22890 0.46278 0.22465
 O359 O 0.78412 0.97222 0.74512
 O360 O 0.74825 1.02991 0.78530
 O361 O 0.74844 0.97367 0.78495
 O362 O 0.78681 1.02927 0.74594
 O363 O 0.75182 1.03092 0.71515
 O364 O 0.71321 0.97529 0.75431
 O365 O 0.71370 1.03166 0.75401
 O366 O 0.74947 0.97443 0.71391
 Cu367 Cu 0.77062 1.00142 0.76827
 Cu368 Cu 0.72859 1.00333 0.73124
 C369 C 0.77238 0.96289 0.72316
 C370 C 0.72463 1.04047 0.77648
 C371 C 0.72451 0.96459 0.77599
 C372 C 0.77586 1.03980 0.72409
 O373 O 0.74977 0.52583 0.21519
 O374 O 0.71673 0.46627 0.25385
 O375 O 0.71283 0.52247 0.25425
 O376 O 0.75266 0.46922 0.21294
 O377 O 0.78894 0.47093 0.24234
 O378 O 0.74745 0.52241 0.28554
 O379 O 0.75308 0.46604 0.28323
 O380 O 0.78489 0.52697 0.24591
 Cu381 Cu 0.72947 0.49570 0.23102
 Cu382 Cu 0.77215 0.49665 0.26731
 C383 C 0.77280 0.53691 0.22434
 C384 C 0.72934 0.45584 0.27498
 C385 C 0.72324 0.53164 0.27680
 C386 C 0.77765 0.46115 0.22033
 O387 O 0.28558 0.02811 0.75393
 O388 O 0.24782 -0.02976 0.71692
 O389 O 0.24876 0.02635 0.71407
 O390 O 0.28545 -0.02785 0.75741
 O391 O 0.24988 -0.02564 0.78730
 O392 O 0.21282 0.02818 0.74362
 O393 O 0.21234 -0.02739 0.74689
 O394 O 0.24978 0.03104 0.78354
 Cu395 Cu 0.27050 -0.00128 0.73261
 Cu396 Cu 0.22776 0.00162 0.76853
 C397 C 0.27379 0.03989 0.77472
 C398 C 0.22338 -0.03803 0.72520
 C399 C 0.22454 0.03651 0.72144
 C400 C 0.27410 -0.03579 0.77988
 O401 O 0.25117 0.28709 0.97205
 O402 O 0.29088 0.24664 1.02569
 O403 O 0.29038 0.24727 0.97233
 O404 O 0.25148 0.28726 1.02630
 O405 O 0.21657 0.25530 1.02499
 O406 O 0.25667 0.21394 0.97254
 O407 O 0.25596 0.21466 1.02657
 O408 O 0.21798 0.25327 0.97111
 Cu409 Cu 0.27427 0.27054 0.99932
 Cu410 Cu 0.23339 0.23094 0.99909
 C411 C 0.22853 0.27638 0.96160
 C412 C 0.28002 0.22370 1.03529
 C413 C 0.27981 0.22405 0.96284
 C414 C 0.22741 0.27824 1.03481
 O415 O 0.24161 0.79484 0.47328
 O416 O 0.28384 0.75225 0.52377
 O417 O 0.28132 0.75480 0.46977
 O418 O 0.24421 0.79134 0.52706
 O419 O 0.20969 0.75893 0.52506
 O420 O 0.24955 0.71969 0.47126
 O421 O 0.24922 0.71995 0.52513
 O422 O 0.20979 0.75979 0.47148
 Cu423 Cu 0.26614 0.77671 0.49834
 Cu424 Cu 0.22627 0.73614 0.49796
 C425 C 0.21862 0.78427 0.46349
 C426 C 0.27300 0.72955 0.53397
 C427 C 0.27187 0.73083 0.46093
 C428 C 0.22077 0.78119 0.53600
 O429 O 0.28319 0.75066 -0.02740
 O430 O 0.24388 0.71117 0.02645
 O431 O 0.24513 0.71030 -0.02700
 O432 O 0.28282 0.75178 0.02661
 O433 O 0.24865 0.78518 0.02508
 O434 O 0.20971 0.74245 -0.02709
 O435 O 0.21021 0.74514 0.02607
 O436 O 0.24791 0.78285 -0.02947
 Cu437 Cu 0.26734 0.72778 -0.00010
 Cu438 Cu 0.22585 0.76746 -0.00145
 C439 C 0.27169 0.77293 -0.03829
 C440 C 0.22025 0.72145 0.03536
 C441 C 0.22093 0.71911 -0.03603
 C442 C 0.27203 0.77543 0.03521
 O443 O 0.21069 0.24425 0.47373
 O444 O 0.25557 0.28671 0.52110
 O445 O 0.25080 0.28150 0.46764
 O446 O 0.21459 0.24889 0.52697
 O447 O 0.24545 0.21229 0.52623
 O448 O 0.28390 0.24699 0.46923
 O449 O 0.28654 0.25030 0.52313
 O450 O 0.24320 0.20913 0.47335
 Cu451 Cu 0.22976 0.26899 0.49747
 Cu452 Cu 0.26822 0.22626 0.49816
 C453 C 0.21935 0.21967 0.46523
 C454 C 0.27862 0.27554 0.53046
 C455 C 0.27339 0.26964 0.45815
 C456 C 0.22328 0.22459 0.53613
 O457 O 0.74944 0.71698 0.97189
 O458 O 0.70918 0.75463 1.02638
 O459 O 0.70938 0.75573 0.97292
 O460 O 0.74890 0.71542 1.02631
 O461 O 0.78192 0.74937 1.02734
 O462 O 0.74178 0.79031 0.97412
 O463 O 0.74174 0.78905 1.02748
 O464 O 0.78241 0.75099 0.97316
 Cu465 Cu 0.72611 0.73211 0.99926
 Cu466 Cu 0.76545 0.77321 1.00063
 C467 C 0.77240 0.72794 0.96274
 C468 C 0.71847 0.77828 1.03616
 C469 C 0.71865 0.77987 0.96447
 C470 C 0.77174 0.72586 1.03647
 O471 O 0.75086 0.28672 0.47794
 O472 O 0.79564 0.24185 0.52505
 O473 O 0.79049 0.24718 0.47153
 O474 O 0.75661 0.28220 0.53156
 O475 O 0.72364 0.24820 0.53228
 O476 O 0.75651 0.21418 0.47115
 O477 O 0.76202 0.20850 0.52465
 O478 O 0.71754 0.25306 0.47873
 Cu479 Cu 0.77677 0.26786 0.50155
 Cu480 Cu 0.73660 0.22765 0.50176
 C481 C 0.72671 0.27709 0.46992
 C482 C 0.78611 0.21762 0.53313
 C483 C 0.77889 0.22513 0.46069
 C484 C 0.73468 0.27089 0.54248
 O485 O 0.71133 0.24566 -0.02320
 O486 O 0.75667 0.28785 0.02404
 O487 O 0.75081 0.28363 -0.02925
 O488 O 0.71736 0.24859 0.03060
 O489 O 0.74917 0.21295 0.02803
 O490 O 0.78456 0.24971 -0.02931
 O491 O 0.78859 0.25222 0.02421
 O492 O 0.74451 0.21125 -0.02522
 Cu493 Cu 0.73065 0.26988 0.00080
 Cu494 Cu 0.77005 0.22809 -0.00063
 C495 C 0.72040 0.22168 -0.03279
 C496 C 0.78032 0.27707 0.03239
 C497 C 0.77344 0.27252 -0.03947
 C498 C 0.72747 0.22466 0.03935
 O499 O 0.78371 0.74985 0.47305
 O500 O 0.74485 0.71086 0.52714
 O501 O 0.74533 0.70989 0.47345
 O502 O 0.78407 0.75067 0.52675
 O503 O 0.75060 0.78477 0.52559
 O504 O 0.71038 0.74256 0.47354
 O505 O 0.71077 0.74440 0.52679
 O506 O 0.74878 0.78247 0.47141
 Cu507 Cu 0.76792 0.72702 0.50031
 Cu508 Cu 0.72682 0.76709 0.49951
 C509 C 0.77245 0.77240 0.46246
 C510 C 0.72104 0.72075 0.53597
 C511 C 0.72131 0.71916 0.46437
 C512 C 0.77420 0.77481 0.53510
 O513 O 1.03392 0.28375 0.24458
 O514 O 0.97045 0.25277 0.27806
 O515 O 1.02606 0.24677 0.28434
 O516 O 0.97869 0.28926 0.23857
 O517 O 0.97806 0.25265 0.20926
 O518 O 1.02719 0.21111 0.25402
 O519 O 0.97183 0.21610 0.24883
 O520 O 1.03363 0.24861 0.21370
 Cu521 Cu 1.00242 0.27167 0.26450
 Cu522 Cu 1.00292 0.22847 0.22845
 C523 C 1.04417 0.27192 0.22306
 C524 C 0.96018 0.22922 0.26899
 C525 C 1.03470 0.22176 0.27706
 C526 C 0.96988 0.27790 0.21627
 O527 O 0.52813 0.21453 0.75414
 O528 O 0.47412 0.25159 0.71092
 O529 O 0.53047 0.25028 0.71229
 O530 O 0.47279 0.21593 0.75155
 O531 O 0.47176 0.25307 0.78025
 O532 O 0.52938 0.28776 0.74057
 O533 O 0.47396 0.28882 0.73955
 O534 O 0.52813 0.25187 0.78259
 Cu535 Cu 0.50169 0.22944 0.72923
 Cu536 Cu 0.50103 0.27403 0.76377
 C537 C 0.53703 0.22675 0.77598
 C538 C 0.46447 0.27627 0.71812
 C539 C 0.53945 0.27506 0.71942
 C540 C 0.46210 0.22879 0.77231
 O541 O 0.02961 0.25181 0.71663
 O542 O -0.02676 0.28883 0.75685
 O543 O 0.02868 0.28942 0.75556
 O544 O -0.02717 0.25150 0.71639
 O545 O -0.02556 0.21565 0.74636
 O546 O 0.02899 0.25477 0.78688
 O547 O -0.02664 0.25253 0.78642
 O548 O 0.03066 0.21659 0.74733
 Cu549 Cu 0.00083 0.27380 0.73309
 Cu550 Cu 0.00200 0.23119 0.76967
 C551 C 0.04035 0.22830 0.72568
 C552 C -0.03625 0.27693 0.77854
 C553 C 0.03826 0.27874 0.77791
 C554 C -0.03622 0.22728 0.72486
 O555 O 0.53158 0.24703 0.28794
 O556 O 0.47711 0.21147 0.24452
 O557 O 0.53262 0.21071 0.24716
 O558 O 0.47534 0.24776 0.28565
 O559 O 0.47787 0.28518 0.25758
 O560 O 0.53351 0.24687 0.21745
 O561 O 0.47730 0.24875 0.21613
 O562 O 0.53404 0.28256 0.25763
 Cu563 Cu 0.50386 0.22566 0.26935
 Cu564 Cu 0.50552 0.26957 0.23426
 C565 C 0.54290 0.27029 0.27950
 C566 C 0.46792 0.22407 0.22293
 C567 C 0.54307 0.22261 0.22593
 C568 C 0.46695 0.27281 0.27835
 O569 O 1.02750 0.71394 0.75473
 O570 O 0.96958 0.74988 0.71568
 O571 O 1.02617 0.75108 0.71527
 O572 O 0.97192 0.71338 0.75680
 O573 O 0.97171 0.74988 0.78622
 O574 O 1.02581 0.78729 0.74502
 O575 O 0.97002 0.78627 0.74520
 O576 O 1.02817 0.75020 0.78443
 Cu577 Cu 0.99859 0.72854 0.73250
 Cu578 Cu 0.99873 0.77200 0.76826
 C579 C 1.03814 0.72613 0.77585
 C580 C 0.95981 0.77415 0.72381
 C581 C 1.03581 0.77526 0.72353
 C582 C 0.96265 0.72527 0.77870
 O583 O 0.52727 0.71494 0.25384
 O584 O 0.46809 0.75022 0.21595
 O585 O 0.52388 0.75276 0.21408
 O586 O 0.47141 0.71355 0.25612
 O587 O 0.47156 0.74919 0.28652
 O588 O 0.52308 0.78877 0.24401
 O589 O 0.46716 0.78547 0.24676
 O590 O 0.52803 0.75104 0.28370
 Cu591 Cu 0.49783 0.72927 0.23200
 Cu592 Cu 0.49764 0.77217 0.26835
 C593 C 0.53800 0.72702 0.27499
 C594 C 0.45704 0.77348 0.22524
 C595 C 0.53234 0.77755 0.22181
 C596 C 0.46199 0.72509 0.27812
 O597 O -0.02965 0.78831 0.25652
 O598 O 0.02407 0.75021 0.21355
 O599 O -0.03290 0.75190 0.21543
 O600 O 0.02555 0.78777 0.25311
 O601 O 0.02701 0.75163 0.28282
 O602 O -0.03106 0.71545 0.24474
 O603 O 0.02491 0.71410 0.24328
 O604 O -0.02895 0.75160 0.28561
 Cu605 Cu -0.00350 0.77299 0.23141
 Cu606 Cu -0.00196 0.72954 0.26702
 C607 C -0.03831 0.77638 0.27852
 C608 C 0.03426 0.72600 0.22159
 C609 C -0.04228 0.72781 0.22390
 C610 C 0.03626 0.77583 0.27438
 O611 O 0.46887 0.71722 0.74391
 O612 O 0.52555 0.75343 0.78377
 O613 O 0.46970 0.75342 0.78501
 O614 O 0.52472 0.71676 0.74335
 O615 O 0.52368 0.75255 0.71326
 O616 O 0.47021 0.79056 0.75648
 O617 O 0.52607 0.78878 0.75317
 O618 O 0.46709 0.75419 0.71519
 Cu619 Cu 0.49718 0.73154 0.76693
 Cu620 Cu 0.49643 0.77514 0.73145
 C621 C 0.45798 0.72975 0.72301
 C622 C 0.53601 0.77686 0.77480
 C623 C 0.46079 0.77841 0.77808
 C624 C 0.53402 0.72854 0.72155
 C625 C 0.40200 0.28415 0.32326
 C626 C 0.39559 0.31369 0.32023
 C627 C 0.41622 0.33069 0.30653
 C628 C 0.44005 0.31766 0.29343
 C629 C 0.44415 0.28743 0.29425
 C630 C 0.42569 0.27143 0.31079
 C631 C 0.40975 0.24440 0.30422
 C632 C 0.38374 0.25833 0.31785
 H633 H 0.41368 0.35393 0.30515
 H634 H 0.45470 0.33111 0.28199
 H635 H 0.41837 0.22545 0.31577
 H636 H 0.40695 0.24094 0.28166
 H637 H 0.37739 0.24726 0.33718
 H638 H 0.36583 0.26301 0.30323
 C639 C 0.40038 0.79088 0.82862
 C640 C 0.39197 0.81982 0.82385
 C641 C 0.41073 0.83630 0.80712
 C642 C 0.43381 0.82318 0.79297
 C643 C 0.43926 0.79332 0.79540
 C644 C 0.42333 0.77811 0.81482
 C645 C 0.40851 0.74983 0.81193
 C646 C 0.38328 0.76363 0.82686
 H647 H 0.40776 0.85933 0.80439
 H648 H 0.44671 0.83627 0.77938
 H649 H 0.41934 0.73246 0.82404
 H650 H 0.40368 0.74423 0.79009
 H651 H 0.37953 0.75383 0.84743
 H652 H 0.36378 0.76607 0.81371
 C653 C -0.09985 0.28812 0.82508
 C654 C -0.10627 0.31767 0.82219
 C655 C -0.08592 0.33470 0.80814
 C656 C -0.06257 0.32166 0.79436
 C657 C -0.05862 0.29144 0.79494
 C658 C -0.07654 0.27540 0.81200
 C659 C -0.09265 0.24837 0.80587
 C660 C -0.11826 0.26231 0.82016
 H661 H -0.08841 0.35795 0.80692
 H662 H -0.04818 0.33511 0.78261
 H663 H -0.08370 0.22943 0.81721
 H664 H -0.09608 0.24489 0.78340
 H665 H -0.12407 0.25126 0.83966
 H666 H -0.13658 0.26699 0.80601
 C667 C -0.09975 0.78886 0.32760
 C668 C -0.10529 0.81867 0.32547
 C669 C -0.08481 0.83523 0.31106
 C670 C -0.06240 0.82166 0.29627
 C671 C -0.05947 0.79130 0.29614
 C672 C -0.07734 0.77559 0.31353
 C673 C -0.09457 0.74925 0.30752
 C674 C -0.11918 0.76376 0.32288
 H675 H -0.08651 0.85856 0.31029
 H676 H -0.04800 0.83484 0.28426
 H677 H -0.08586 0.72981 0.31825
 H678 H -0.09891 0.74631 0.28512
 H679 H -0.12465 0.75253 0.34238
 H680 H -0.13782 0.76931 0.30942
 C681 C 0.59139 0.66995 0.29798
 C682 C 0.60933 0.68446 0.31665
 C683 C 0.60517 0.71476 0.31904
 C684 C 0.58201 0.72883 0.30555
 C685 C 0.56275 0.71310 0.28892
 C686 C 0.56897 0.68387 0.28436
 C687 C 0.54984 0.65828 0.28667
 C688 C 0.57438 0.64300 0.30164
 H689 H 0.61945 0.72771 0.33152
 H690 H 0.57900 0.75190 0.30842
 H691 H 0.54491 0.64860 0.26622
 H692 H 0.53085 0.66252 0.29996
 H693 H 0.58343 0.62447 0.28978
 H694 H 0.56969 0.63839 0.32365
 C695 C 0.59630 0.21277 0.82775
 C696 C 0.60247 0.18325 0.82418
 C697 C 0.58300 0.16713 0.80798
 C698 C 0.56097 0.18110 0.79291
 C699 C 0.55761 0.21143 0.79407
 C700 C 0.57436 0.22647 0.81319
 C701 C 0.59148 0.25331 0.80950
 C702 C 0.61551 0.23833 0.82548
 H703 H 0.58542 0.14392 0.80592
 H704 H 0.54737 0.16832 0.77954
 H705 H 0.58196 0.27206 0.82070
 H706 H 0.59691 0.25745 0.78756
 H707 H 0.61973 0.24854 0.84582
 H708 H 0.63492 0.23379 0.81286
 C709 C 1.09344 0.67023 0.79697
 C710 C 1.11098 0.68475 0.81595
 C711 C 1.10577 0.71477 0.81938
 C712 C 1.08198 0.72841 0.80654
 C713 C 1.06310 0.71250 0.78964
 C714 C 1.07039 0.68372 0.78402
 C715 C 1.05237 0.65726 0.78557
 C716 C 1.07765 0.64243 0.79979
 H717 H 1.11965 0.72777 0.83223
 H718 H 1.07821 0.75127 0.81011
 H719 H 1.04763 0.64819 0.76481
 H720 H 1.03336 0.66018 0.79914
 H721 H 1.08739 0.62480 0.78721
 H722 H 1.07338 0.63675 0.82165
 C723 C 1.08968 0.20473 0.33204
 C724 C 1.09774 0.17602 0.32630
 C725 C 1.08018 0.16069 0.30749
 C726 C 1.05859 0.17515 0.29215
 C727 C 1.05375 0.20509 0.29564
 C728 C 1.06824 0.21881 0.31718
 C729 C 1.08393 0.24678 0.31731
 C730 C 1.10739 0.23148 0.33369
 H731 H 1.08392 0.13794 0.30350
 H732 H 1.04674 0.16320 0.27667
 H733 H 1.07244 0.26377 0.32932
 H734 H 1.09086 0.25343 0.29637
 H735 H 1.10906 0.23979 0.35509
 H736 H 1.12806 0.22941 0.32243
 C737 C 0.60363 0.28618 0.67351
 C738 C 0.60866 0.31600 0.67563
 C739 C 0.58703 0.33293 0.68850
 C740 C 0.56394 0.31973 0.70216
 C741 C 0.56150 0.28937 0.70270
 C742 C 0.58055 0.27325 0.68647
 C743 C 0.59776 0.24690 0.69364
 C744 C 0.62306 0.26104 0.67947
 H745 H 0.58841 0.35626 0.68914
 H746 H 0.54863 0.33322 0.71311
 H747 H 0.58993 0.22736 0.68265
 H748 H 0.60083 0.24426 0.71625
 H749 H 0.62980 0.24955 0.66038
 H750 H 0.64083 0.26665 0.69385
 C751 C 0.58947 0.79322 0.16891
 C752 C 0.60144 0.81932 0.17837
 C753 C 0.58558 0.83439 0.19891
 C754 C 0.56198 0.82156 0.21203
 C755 C 0.55337 0.79337 0.20499
 C756 C 0.56628 0.78058 0.18200
 C757 C 0.57793 0.75070 0.17823
 C758 C 0.60331 0.76432 0.16385
 H759 H 0.59147 0.85588 0.20554
 H760 H 0.55154 0.83317 0.22868
 H761 H 0.56431 0.73758 0.16419
 H762 H 0.58377 0.74013 0.19809
 H763 H 0.60412 0.75884 0.14155
 H764 H 0.62395 0.76152 0.17521
 C765 C 1.10725 0.32036 0.20872
 C766 C 1.11537 0.31341 0.18150
 C767 C 1.09710 0.29387 0.16724
 C768 C 1.07396 0.28036 0.18060
 C769 C 1.06800 0.28608 0.20851
 C770 C 1.08423 0.30725 0.22167
 C771 C 1.09940 0.30560 0.24874
 C772 C 1.12468 0.31980 0.23479
 H773 H 1.10006 0.28885 0.14569
 H774 H 1.06089 0.26526 0.16909
 H775 H 1.10394 0.28297 0.25527
 H776 H 1.08904 0.31955 0.26459
 H777 H 1.14392 0.30545 0.23326
 H778 H 1.12893 0.34182 0.24301
 C779 C 1.09148 0.83003 0.70329
 C780 C 1.10769 0.81604 0.68266
 C781 C 1.10071 0.78662 0.67744
 C782 C 1.07721 0.77341 0.69039
 C783 C 1.05995 0.78894 0.70911
 C784 C 1.06851 0.81685 0.71617
 C785 C 1.05115 0.84410 0.71682
 C786 C 1.07615 0.85864 0.70265
 H787 H 1.11330 0.77320 0.66375
 H788 H 1.07254 0.75104 0.68563
 H789 H 1.04760 0.85198 0.73822
 H790 H 1.03149 0.84294 0.70377
 H791 H 1.08674 0.87508 0.71591
 H792 H 1.07106 0.86593 0.68133
 C793 C 0.40615 0.67327 0.69759
 C794 C 0.38831 0.68845 0.67915
 C795 C 0.39198 0.71877 0.67772
 C796 C 0.41466 0.73234 0.69192
 C797 C 0.43390 0.71606 0.70832
 C798 C 0.42818 0.68669 0.71191
 C799 C 0.44777 0.66115 0.70888
 C800 C 0.42365 0.64643 0.69316
 H801 H 0.37758 0.73217 0.66559
 H802 H 0.41725 0.75549 0.68983
 H803 H 0.45267 0.65077 0.72904
 H804 H 0.46683 0.66581 0.69593
 H805 H 0.41474 0.62755 0.70428
 H806 H 0.42864 0.64257 0.67105
 C807 C 0.40633 0.21321 0.17317
 C808 C 0.39892 0.18425 0.17748
 C809 C 0.41825 0.16713 0.19318
 C810 C 0.44150 0.17983 0.20721
 C811 C 0.44623 0.20983 0.20548
 C812 C 0.42945 0.22566 0.18675
 C813 C 0.41380 0.25370 0.19056
 C814 C 0.38847 0.24007 0.17569
 H815 H 0.41477 0.14417 0.19569
 H816 H 0.45495 0.16637 0.22031
 H817 H 0.42375 0.27153 0.17872
 H818 H 0.40945 0.25867 0.21261
 H819 H 0.38388 0.25009 0.15531
 H820 H 0.36941 0.23711 0.18909
 C821 C -0.09683 0.67240 0.20188
 C822 C -0.11464 0.68745 0.18331
 C823 C -0.10996 0.71752 0.18066
 C824 C -0.08638 0.73078 0.19375
 C825 C -0.06718 0.71444 0.21019
 C826 C -0.07392 0.68553 0.21509
 C827 C -0.05543 0.65910 0.21267
 C828 C -0.08054 0.64469 0.19819
 H829 H -0.12415 0.73090 0.16828
 H830 H -0.08303 0.75370 0.19074
 H831 H -0.05037 0.64947 0.23313
 H832 H -0.03657 0.66239 0.19907
 H833 H -0.08986 0.62675 0.21034
 H834 H -0.07633 0.63958 0.17615
 C835 C -0.09136 0.17158 0.70450
 C836 C -0.10595 0.18410 0.68191
 C837 C -0.09861 0.21312 0.67561
 C838 C -0.07612 0.22726 0.68958
 C839 C -0.06017 0.21301 0.71032
 C840 C -0.06927 0.18560 0.71825
 C841 C -0.05209 0.15848 0.72171
 C842 C -0.07611 0.14300 0.70665
 H843 H -0.11014 0.22547 0.66019
 H844 H -0.07100 0.24922 0.68380
 H845 H -0.05004 0.15207 0.74372
 H846 H -0.03158 0.15877 0.71005
 H847 H -0.08759 0.12756 0.72009
 H848 H -0.06961 0.13422 0.68622
 C849 C 0.29002 0.39874 0.32542
 C850 C 0.31922 0.39205 0.32176
 C851 C 0.33574 0.41243 0.30715
 C852 C 0.32245 0.43607 0.29369
 C853 C 0.29246 0.44024 0.29501
 C854 C 0.27705 0.42228 0.31259
 C855 C 0.24992 0.40618 0.30738
 C856 C 0.26411 0.38034 0.32141
 H857 H 0.35874 0.40972 0.30520
 H858 H 0.33551 0.45044 0.28150
 H859 H 0.24564 0.40268 0.28505
 H860 H 0.23158 0.41534 0.31923
 H861 H 0.26813 0.36182 0.30723
 H862 H 0.25383 0.37462 0.34128
 C863 C 0.28835 -0.09551 0.83144
 C864 C 0.31700 -0.10378 0.82599
 C865 C 0.33274 -0.08479 0.80885
 C866 C 0.31908 -0.06188 0.79473
 C867 C 0.28940 -0.05681 0.79761
 C868 C 0.27501 -0.07266 0.81767
 C869 C 0.24701 -0.08790 0.81577
 C870 C 0.26143 -0.11299 0.83070
 H871 H 0.35556 -0.08762 0.80565
 H872 H 0.33158 -0.04890 0.78071
 H873 H 0.24079 -0.09310 0.79416
 H874 H 0.23005 -0.07699 0.82818
 H875 H 0.26360 -0.13280 0.81779
 H876 H 0.25248 -0.11659 0.85161
 C877 C 0.78989 0.40386 0.83040
 C878 C 0.81803 0.39480 0.82384
 C879 C 0.83337 0.41304 0.80563
 C880 C 0.81958 0.43604 0.79176
 C881 C 0.79023 0.44193 0.79597
 C882 C 0.77648 0.42680 0.81691
 C883 C 0.74803 0.41233 0.81657
 C884 C 0.76250 0.38712 0.83123
 H885 H 0.85591 0.40966 0.80143
 H886 H 0.83170 0.44853 0.77704
 H887 H 0.74069 0.40690 0.79539
 H888 H 0.73199 0.42391 0.82955
 H889 H 0.76347 0.36705 0.81856
 H890 H 0.75448 0.38414 0.85257
 C891 C 0.79217 -0.09379 0.33525
 C892 C 0.82062 -0.10247 0.32939
 C893 C 0.83636 -0.08373 0.31201
 C894 C 0.82273 -0.06074 0.29795
 C895 C 0.79312 -0.05541 0.30112
 C896 C 0.77887 -0.07093 0.32150
 C897 C 0.75064 -0.08582 0.32015
 C898 C 0.76501 -0.11094 0.33507
 H899 H 0.85905 -0.08696 0.30841
 H900 H 0.83510 -0.04815 0.28351
 H901 H 0.74400 -0.09115 0.29869
 H902 H 0.73403 -0.07460 0.33273
 H903 H 0.76671 -0.13088 0.32229
 H904 H 0.75633 -0.11424 0.35613
 C905 C 0.29396 0.59370 0.66432
 C906 C 0.31177 0.61300 0.67860
 C907 C 0.31266 0.61042 0.70766
 C908 C 0.29955 0.58704 0.72098
 C909 C 0.28454 0.56606 0.70574
 C910 C 0.28048 0.57095 0.67756
 C911 C 0.28517 0.55095 0.65379
 C912 C 0.29995 0.57582 0.63930
 H913 H 0.32391 0.62601 0.72025
 H914 H 0.30164 0.58511 0.74315
 H915 H 0.26464 0.54464 0.64378
 H916 H 0.29993 0.53265 0.65892
 H917 H 0.28790 0.58375 0.62092
 H918 H 0.32331 0.57201 0.63602
 C919 C 0.33063 1.10081 0.20656
 C920 C 0.31730 1.11620 0.18490
 C921 C 0.28801 1.10963 0.17969
 C922 C 0.27451 1.08647 0.19302
 C923 C 0.28963 1.06928 0.21220
 C924 C 0.31716 1.07809 0.21981
 C925 C 0.34420 1.06071 0.22199
 C926 C 0.35907 1.08541 0.20743
 H927 H 0.27512 1.12210 0.16534
 H928 H 0.25243 1.08166 0.18778
 H929 H 0.34352 1.04046 0.20959
 H930 H 0.35130 1.05794 0.24374
 H931 H 0.36704 1.07954 0.18655
 H932 H 0.37491 1.09659 0.22084
 C933 C 0.82622 0.59315 0.20230
 C934 C 0.81120 0.60967 0.18264
 C935 C 0.78164 0.60365 0.17918
 C936 C 0.76896 0.58002 0.19272
 C937 C 0.78536 0.56211 0.21040
 C938 C 0.81365 0.57020 0.21589
 C939 C 0.84058 0.55247 0.21497
 C940 C 0.85438 0.57762 0.20006
 H941 H 0.76824 0.61688 0.16589
 H942 H 0.74645 0.57560 0.18909
 H943 H 0.83841 0.53277 0.20196
 H944 H 0.84972 0.54867 0.23588
 H945 H 0.86025 0.57259 0.17836
 H946 H 0.87148 0.58820 0.21243
 C947 C 0.83209 1.09469 0.70475
 C948 C 0.82087 1.10802 0.68088
 C949 C 0.79245 1.10013 0.67331
 C950 C 0.77772 1.07822 0.68740
 C951 C 0.79074 1.06335 0.70954
 C952 C 0.81750 1.07305 0.71856
 C953 C 0.84429 1.05614 0.72422
 C954 C 0.86037 1.07969 0.70915
 H955 H 0.78101 1.11093 0.65680
 H956 H 0.75627 1.07265 0.68061
 H957 H 0.84477 1.03493 0.71335
 H958 H 0.84942 1.05522 0.74661
 H959 H 0.87029 1.07221 0.68955
 H960 H 0.87481 1.09206 0.72301
 C961 C 0.67496 0.59547 0.29177
 C962 C 0.67957 0.60125 0.31986
 C963 C 0.69575 0.58031 0.33481
 C964 C 0.70961 0.55705 0.32115
 C965 C 0.70692 0.55367 0.29239
 C966 C 0.68798 0.57225 0.27853
 C967 C 0.69249 0.58903 0.25270
 C968 C 0.67835 0.61457 0.26716
 H969 H 0.69858 0.58210 0.35687
 H970 H 0.72299 0.54226 0.33294
 H971 H 0.67955 0.58051 0.23522
 H972 H 0.71561 0.59243 0.24811
 H973 H 0.65737 0.62081 0.25776
 H974 H 0.69324 0.63281 0.27107
 C975 C 0.67422 1.10227 0.79369
 C976 C 0.68173 1.11017 0.82085
 C977 C 0.70189 1.09164 0.83438
 C978 C 0.71557 1.06863 0.82028
 C979 C 0.70938 1.06310 0.79236
 C980 C 0.68752 1.07943 0.78001
 C981 C 0.68775 1.09498 0.75314
 C982 C 0.67339 1.12014 0.76792
 H983 H 0.70736 1.09440 0.85587
 H984 H 0.73136 1.05555 0.83114
 H985 H 0.67362 1.08454 0.73758
 H986 H 0.70983 1.09983 0.74595
 H987 H 0.65115 1.12428 0.76040
 H988 H 0.68713 1.13964 0.76938
 C989 C 0.20796 0.59173 0.82799
 C990 C 0.18080 0.60269 0.82010
 C991 C 0.16601 0.58667 0.79951
 C992 C 0.17966 0.56401 0.78505
 C993 C 0.20842 0.55640 0.79077
 C994 C 0.22136 0.56937 0.81363
 C995 C 0.25033 0.58249 0.81639
 C996 C 0.23589 0.60698 0.83214
 H997 H 0.14399 0.59161 0.79398
 H998 H 0.16803 0.55332 0.76861
 H999 H 0.25933 0.58934 0.79625
 H1000 H 0.26500 0.56913 0.82940
 H1001 H 0.23664 0.62813 0.82130
 H1002 H 0.24248 0.60753 0.85418
 C1003 C 0.20304 1.09039 0.33264
 C1004 C 0.18386 1.10935 0.31919
 C1005 C 0.18225 1.10718 0.29015
 C1006 C 0.19619 1.08445 0.27608
 C1007 C 0.21266 1.06364 0.29053
 C1008 C 0.21732 1.06831 0.31866
 C1009 C 0.21439 1.04788 0.34224
 C1010 C 0.19879 1.07204 0.35755
 H1011 H 0.16971 1.12249 0.27818
 H1012 H 0.19364 1.08289 0.25392
 H1013 H 0.23553 1.04214 0.35158
 H1014 H 0.20045 1.02916 0.33724
 H1015 H 0.21097 1.08017 0.37569
 H1016 H 0.17577 1.06740 0.36143
 C1017 C 0.67566 0.40162 0.70813
 C1018 C 0.68447 0.39284 0.68177
 C1019 C 0.70353 0.41142 0.66779
 C1020 C 0.71599 0.43527 0.68140
 C1021 C 0.70929 0.44148 0.70912
 C1022 C 0.68759 0.42530 0.72135
 C1023 C 0.68711 0.41076 0.74877
 C1024 C 0.67401 0.38481 0.73434
 H1025 H 0.70963 0.40718 0.64666
 H1026 H 0.73161 0.44814 0.67055
 H1027 H 0.67214 0.42166 0.76334
 H1028 H 0.70901 0.40638 0.75700
 H1029 H 0.65148 0.38082 0.74068
 H1030 H 0.68828 0.36537 0.73432
 C1031 C 0.67359 -0.10303 0.21027
 C1032 C 0.68663 -0.11892 0.18880
 C1033 C 0.71615 -0.11311 0.18411
 C1034 C 0.73017 -0.09021 0.19775
 C1035 C 0.71531 -0.07254 0.21669
 C1036 C 0.68752 -0.08067 0.22378
 C1037 C 0.66090 -0.06263 0.22574
 C1038 C 0.64551 -0.08692 0.21087
 H1039 H 0.72881 -0.12577 0.16982
 H1040 H 0.75234 -0.08580 0.19275
 H1041 H 0.66210 -0.04239 0.21345
 H1042 H 0.65380 -0.05973 0.24742
 H1043 H 0.63776 -0.08082 0.18992
 H1044 H 0.62933 -0.09768 0.22404
 C1045 C 0.17470 0.40713 0.20226
 C1046 C 0.18958 0.39023 0.18289
 C1047 C 0.21910 0.39617 0.17935
 C1048 C 0.23193 0.42000 0.19257
 C1049 C 0.21571 0.43825 0.20999
 C1050 C 0.18743 0.43033 0.21556
 C1051 C 0.16054 0.44812 0.21425
 C1052 C 0.14658 0.42270 0.19967
 H1053 H 0.23238 0.38264 0.16627
 H1054 H 0.25446 0.42418 0.18903
 H1055 H 0.16271 0.46754 0.20095
 H1056 H 0.15152 0.45238 0.23506
 H1057 H 0.14064 0.42731 0.17787
 H1058 H 0.12949 0.41241 0.21210
 C1059 C 0.20603 -0.09591 0.67274
 C1060 C 0.17818 -0.10480 0.67994
 C1061 C 0.16383 -0.08756 0.69998
 C1062 C 0.17823 -0.06541 0.71429
 C1063 C 0.20731 -0.05958 0.70896
 C1064 C 0.22008 -0.07398 0.68680
 C1065 C 0.24847 -0.08907 0.68535
 C1066 C 0.23327 -0.11320 0.67005
 H1067 H 0.14156 -0.09103 0.70509
 H1068 H 0.16678 -0.05349 0.73011
 H1069 H 0.25674 -0.09567 0.70597
 H1070 H 0.26398 -0.07721 0.67231
 H1071 H 0.23271 -0.13385 0.68175
 H1072 H 0.24036 -0.11530 0.64828
 C1073 C 0.32946 0.28953 0.40567
 C1074 C 0.31486 0.30906 0.38834
 C1075 C 0.28485 0.31189 0.39207
 C1076 C 0.27120 0.29870 0.41455
 C1077 C 0.28707 0.28185 0.43353
 C1078 C 0.31589 0.27611 0.42755
 C1079 C 0.34175 0.27845 0.44567
 C1080 C 0.35663 0.29317 0.42173
 H1081 H 0.27187 0.32479 0.37811
 H1082 H 0.24837 0.30225 0.41742
 H1083 H 0.35114 0.25690 0.45073
 H1084 H 0.33815 0.29298 0.46366
 H1085 H 0.37462 0.28008 0.41311
 H1086 H 0.36166 0.31627 0.42577
 C1087 C 0.32766 0.79490 -0.09031
 C1088 C 0.31282 0.81429 -0.10759
 C1089 C 0.28282 0.81695 -0.10356
 C1090 C 0.26941 0.80352 -0.08103
 C1091 C 0.28546 0.78660 -0.06224
 C1092 C 0.31433 0.78126 -0.06839
 C1093 C 0.34025 0.78384 -0.05038
 C1094 C 0.35486 0.79880 -0.07435
 H1095 H 0.26963 0.82976 -0.11741
 H1096 H 0.24655 0.80675 -0.07814
 H1097 H 0.34990 0.76239 -0.04540
 H1098 H 0.33657 0.79828 -0.03233
 H1099 H 0.37295 0.78593 -0.08307
 H1100 H 0.35965 0.82194 -0.07027
 C1101 C 0.82863 0.29385 -0.09207
 C1102 C 0.81380 0.31357 -0.10900
 C1103 C 0.78385 0.31646 -0.10477
 C1104 C 0.77050 0.30293 -0.08228
 C1105 C 0.78664 0.28568 -0.06385
 C1106 C 0.81538 0.28011 -0.07025
 C1107 C 0.84144 0.28224 -0.05236
 C1108 C 0.85599 0.29735 -0.07626
 H1109 H 0.77068 0.32956 -0.11840
 H1110 H 0.74772 0.30639 -0.07905
 H1111 H 0.85094 0.26064 -0.04768
 H1112 H 0.83801 0.29649 -0.03414
 H1113 H 0.87392 0.28443 -0.08522
 H1114 H 0.86100 0.32041 -0.07197
 C1115 C 0.82918 0.79458 0.41146
 C1116 C 0.81490 0.81484 0.39468
 C1117 C 0.78492 0.81802 0.39851
 C1118 C 0.77100 0.80417 0.42050
 C1119 C 0.78655 0.78633 0.43888
 C1120 C 0.81536 0.78056 0.43283
 C1121 C 0.84116 0.78202 0.45113
 C1122 C 0.85631 0.79740 0.42774
 H1123 H 0.77214 0.83155 0.38492
 H1124 H 0.74819 0.80782 0.42333
 H1125 H 0.85032 0.76021 0.45556
 H1126 H 0.83762 0.79595 0.46955
 H1127 H 0.87422 0.78442 0.41879
 H1128 H 0.86156 0.82029 0.43252
 C1129 C 0.71475 0.32551 0.59742
 C1130 C 0.69517 0.31060 0.61393
 C1131 C 0.69244 0.28057 0.60895
 C1132 C 0.70570 0.26741 0.58599
 C1133 C 0.72246 0.28380 0.56774
 C1134 C 0.72818 0.31243 0.57508
 C1135 C 0.72624 0.33931 0.55815
 C1136 C 0.71150 0.35365 0.58261
 H1137 H 0.67939 0.26728 0.62217
 H1138 H 0.70214 0.24464 0.58212
 H1139 H 0.71197 0.33688 0.53986
 H1140 H 0.74775 0.34840 0.55376
 H1141 H 0.68865 0.35952 0.57855
 H1142 H 0.72455 0.37101 0.59222
 C1143 C 0.66916 0.79035 1.09654
 C1144 C 0.67565 0.81849 1.10524
 C1145 C 0.69290 0.83522 1.08752
 C1146 C 0.70615 0.82259 1.06427
 C1147 C 0.70202 0.79313 1.05797
 C1148 C 0.68188 0.77806 1.07349
 C1149 C 0.68441 0.74906 1.08683
 C1150 C 0.67047 0.76251 1.11211
 H1151 H 0.69715 0.85770 1.09210
 H1152 H 0.72049 0.83553 1.05197
 H1153 H 0.70711 0.74222 1.09032
 H1154 H 0.67069 0.73271 1.07649
 H1155 H 0.68503 0.76349 1.13032
 H1156 H 0.64879 0.75377 1.11626
 C1157 C 0.21431 0.32615 1.09651
 C1158 C 0.18588 0.32012 1.10387
 C1159 C 0.16957 0.30374 1.08485
 C1160 C 0.18267 0.29085 1.06162
 C1161 C 0.21221 0.29453 1.05657
 C1162 C 0.22705 0.31387 1.07347
 C1163 C 0.25530 0.31024 1.08779
 C1164 C 0.24136 0.32369 1.11307
 H1165 H 0.14699 0.29990 1.08830
 H1166 H 0.16995 0.27714 1.04829
 H1167 H 0.27217 0.32404 1.07862
 H1168 H 0.26149 0.28713 1.09065
 H1169 H 0.25030 0.34519 1.11846
 H1170 H 0.23943 0.30840 1.13064
 C1171 C 0.16548 0.80072 0.58980
 C1172 C 0.18035 0.81928 0.60762
 C1173 C 0.21010 0.82259 0.60291
 C1174 C 0.22321 0.81051 0.57943
 C1175 C 0.20708 0.79432 0.56034
 C1176 C 0.17854 0.78837 0.56690
 C1177 C 0.15210 0.79186 0.54967
 C1178 C 0.13780 0.80539 0.57475
 H1179 H 0.22335 0.83473 0.61711
 H1180 H 0.24591 0.81401 0.57618
 H1181 H 0.14278 0.77068 0.54376
 H1182 H 0.15499 0.80730 0.53236
 H1183 H 0.12023 0.79198 0.58321
 H1184 H 0.13240 0.82871 0.57206
 C1185 C 0.32929 0.70566 0.58584
 C1186 C 0.31396 0.68770 0.60372
 C1187 C 0.28390 0.68636 0.59968
 C1188 C 0.27073 0.69964 0.57678
 C1189 C 0.28708 0.71522 0.55759
 C1190 C 0.31617 0.71929 0.56351
 C1191 C 0.34169 0.71443 0.54553
 C1192 C 0.35604 0.69952 0.56995
 H1193 H 0.27034 0.67496 0.61398
 H1194 H 0.24773 0.69763 0.57408
 H1195 H 0.35214 0.73507 0.53978
 H1196 H 0.33716 0.69957 0.52801
 H1197 H 0.37475 0.71160 0.57820
 H1198 H 0.35984 0.67598 0.56666
 C1199 C 0.29321 0.17723 1.09771
 C1200 C 0.32249 0.18111 1.10353
 C1201 C 0.33880 0.19563 1.08335
 C1202 C 0.32525 0.20890 1.06049
 C1203 C 0.29524 0.20735 1.05696
 C1204 C 0.28003 0.18973 1.07496
 C1205 C 0.25305 0.19608 1.09043
 C1206 C 0.26748 0.18241 1.11543
 H1207 H 0.36181 0.19773 1.08551
 H1208 H 0.33810 0.22116 1.04617
 H1209 H 0.23462 0.18338 1.08248
 H1210 H 0.24883 0.21968 1.09286
 H1211 H 0.25722 0.16191 1.12188
 H1212 H 0.27169 0.19805 1.13239
 C1213 C 0.82722 0.70314 1.08961
 C1214 C 0.81228 0.68385 1.10653
 C1215 C 0.78254 0.68088 1.10127
 C1216 C 0.76948 0.69421 1.07828
 C1217 C 0.78559 0.71140 1.06018
 C1218 C 0.81420 0.71674 1.06721
 C1219 C 0.84051 0.71378 1.04996
 C1220 C 0.85477 0.69887 1.07442
 H1221 H 0.76914 0.66827 1.11476
 H1222 H 0.74675 0.69103 1.07469
 H1223 H 0.85006 0.73511 1.04510
 H1224 H 0.83736 0.69925 1.03191
 H1225 H 0.87256 0.71163 1.08356
 H1226 H 0.85987 0.67565 1.07064
 C1227 C 0.80100 0.16639 0.59171
 C1228 C 0.82920 0.17285 0.59982
 C1229 C 0.84519 0.19037 0.58159
 C1230 C 0.83177 0.20410 0.55883
 C1231 C 0.80232 0.20002 0.55337
 C1232 C 0.78806 0.17939 0.56909
 C1233 C 0.75956 0.18133 0.58300
 C1234 C 0.77371 0.16713 0.60785
 H1235 H 0.86763 0.19470 0.58544
 H1236 H 0.84407 0.21892 0.54639
 H1237 H 0.74328 0.16742 0.57284
 H1238 H 0.75252 0.20404 0.58688
 H1239 H 0.76540 0.14511 0.61200
 H1240 H 0.77495 0.18158 0.62617
 C1241 C 0.70837 0.66997 0.40352
 C1242 C 0.67975 0.67589 0.39611
 C1243 C 0.66339 0.69269 0.41490
 C1244 C 0.67655 0.70610 0.43781
 C1245 C 0.70622 0.70252 0.44283
 C1246 C 0.72118 0.68275 0.42630
 C1247 C 0.74921 0.68597 0.41187
 C1248 C 0.73520 0.67200 0.38688
 H1249 H 0.64068 0.69642 0.41153
 H1250 H 0.66374 0.72008 0.45092
 H1251 H 0.76640 0.67233 0.42130
 H1252 H 0.75500 0.70899 0.40854
 H1253 H 0.74446 0.65037 0.38191
 H1254 H 0.73281 0.68690 0.36902
 C1255 C 0.66964 0.20878 -0.09203
 C1256 C 0.67631 0.18044 -0.10040
 C1257 C 0.69380 0.16381 -0.08235
 C1258 C 0.70725 0.17671 -0.05932
 C1259 C 0.70297 0.20632 -0.05348
 C1260 C 0.68250 0.22131 -0.06918
 C1261 C 0.68442 0.25014 -0.08281
 C1262 C 0.67027 0.23647 -0.10786
 H1263 H 0.69816 0.14119 -0.08647
 H1264 H 0.72195 0.16387 -0.04692
 H1265 H 0.70697 0.25681 -0.08651
 H1266 H 0.67064 0.26669 -0.07257
 H1267 H 0.68452 0.23524 -0.12618
 H1268 H 0.64837 0.24526 -0.11190
 C1269 C 0.20852 0.66947 -0.09650
 C1270 C 0.17973 0.67481 -0.10366
 C1271 C 0.16314 0.69123 -0.08479
 C1272 C 0.17619 0.70493 -0.06200
 C1273 C 0.20597 0.70203 -0.05726
 C1274 C 0.22123 0.68257 -0.07384
 C1275 C 0.24901 0.68653 -0.08853
 C1276 C 0.23511 0.67220 -0.11338
 H1277 H 0.14036 0.69457 -0.08812
 H1278 H 0.16322 0.71869 -0.04881
 H1279 H 0.26664 0.67334 -0.07927
 H1280 H 0.25417 0.70969 -0.09193
 H1281 H 0.24491 0.65084 -0.11834
 H1282 H 0.23219 0.68700 -0.13125
 C1283 C 0.16590 0.20413 0.40881
 C1284 C 0.17274 0.17570 0.40088
 C1285 C 0.19153 0.15992 0.41840
 C1286 C 0.20593 0.17374 0.44035
 C1287 C 0.20148 0.20347 0.44550
 C1288 C 0.17987 0.21759 0.43054
 C1289 C 0.18056 0.24600 0.41603
 C1290 C 0.16514 0.23135 0.39224
 H1291 H 0.19622 0.13732 0.41448
 H1292 H 0.22151 0.16153 0.45235
 H1293 H 0.20274 0.25283 0.41087
 H1294 H 0.16719 0.26269 0.42656
 H1295 H 0.17818 0.22981 0.37313
 H1296 H 0.14294 0.23974 0.38940
 C1297 C 0.29017 0.40351 0.66508
 C1298 C 0.31929 0.39690 0.66939
 C1299 C 0.33524 0.41657 0.68562
 C1300 C 0.32143 0.43927 0.69995
 C1301 C 0.29143 0.44317 0.69803
 C1302 C 0.27663 0.42608 0.67894
 C1303 C 0.24962 0.40935 0.68231
 C1304 C 0.26444 0.38462 0.66713
 H1305 H 0.35821 0.41385 0.68819
 H1306 H 0.33408 0.45298 0.71335
 H1307 H 0.23142 0.41904 0.67051
 H1308 H 0.24492 0.40436 0.70425
 H1309 H 0.25471 0.38009 0.64662
 H1310 H 0.26837 0.36526 0.68024
 C1311 C 0.29246 0.90957 0.16587
 C1312 C 0.32093 0.90108 0.17132
 C1313 C 0.33722 0.91951 0.18856
 C1314 C 0.32392 0.94253 0.20298
 C1315 C 0.29421 0.94797 0.20002
 C1316 C 0.27953 0.93247 0.17969
 C1317 C 0.25133 0.91746 0.18108
 C1318 C 0.26547 0.89232 0.16596
 H1319 H 0.35983 0.91538 0.19217
 H1320 H 0.33656 0.95506 0.21741
 H1321 H 0.23450 0.92867 0.16864
 H1322 H 0.24500 0.91211 0.20255
 H1323 H 0.25669 0.88906 0.14484
 H1324 H 0.26740 0.87237 0.17863
 C1325 C 0.79323 0.40101 0.16956
 C1326 C 0.82261 0.39526 0.17339
 C1327 C 0.83806 0.41513 0.18990
 C1328 C 0.82368 0.43715 0.20473
 C1329 C 0.79359 0.44026 0.20298
 C1330 C 0.77916 0.42296 0.18382
 C1331 C 0.75271 0.40538 0.18725
 C1332 C 0.76811 0.38130 0.17167
 H1333 H 0.86113 0.41327 0.19213
 H1334 H 0.83600 0.45111 0.21818
 H1335 H 0.73412 0.41466 0.17571
 H1336 H 0.74838 0.39998 0.20917
 H1337 H 0.75827 0.37671 0.15122
 H1338 H 0.77277 0.36191 0.18453
 C1339 C 0.79197 0.90870 0.66768
 C1340 C 0.80952 0.88868 0.68168
 C1341 C 0.81109 0.89145 0.71072
 C1342 C 0.79908 0.91565 0.72418
 C1343 C 0.78451 0.93732 0.70912
 C1344 C 0.77951 0.93223 0.68109
 C1345 C 0.78408 0.95166 0.65700
 C1346 C 0.79771 0.92590 0.64233
 H1347 H 0.82224 0.87547 0.72314
 H1348 H 0.80160 0.91763 0.74632
 H1349 H 0.79949 0.96930 0.66155
 H1350 H 0.76345 0.95883 0.64748
 H1351 H 0.82105 0.92854 0.63838
 H1352 H 0.78491 0.91828 0.62437
 C1353 C 0.66875 0.59487 0.70392
 C1354 C 0.68264 0.61082 0.68346
 C1355 C 0.71234 0.60542 0.67984
 C1356 C 0.72629 0.58260 0.69392
 C1357 C 0.71100 0.56490 0.71226
 C1358 C 0.68255 0.57264 0.71801
 C1359 C 0.65624 0.55445 0.71815
 C1360 C 0.64109 0.57884 0.70272
 H1361 H 0.72485 0.61842 0.66589
 H1362 H 0.74886 0.57854 0.69006
 H1363 H 0.64786 0.55124 0.73933
 H1364 H 0.65875 0.53435 0.70571
 H1365 H 0.62400 0.58959 0.71507
 H1366 H 0.63477 0.57294 0.68131
 C1367 C 0.71174 0.08971 0.16876
 C1368 C 0.68288 0.09732 0.17316
 C1369 C 0.66615 0.07754 0.18829
 C1370 C 0.67917 0.05391 0.20201
 C1371 C 0.70906 0.04916 0.20036
 C1372 C 0.72445 0.06619 0.18189
 C1373 C 0.75216 0.08165 0.18591
 C1374 C 0.73827 0.10744 0.17156
 H1375 H 0.64330 0.08103 0.19084
 H1376 H 0.66613 0.04040 0.21507
 H1377 H 0.76989 0.07162 0.17382
 H1378 H 0.75721 0.08571 0.20801
 H1379 H 0.74811 0.11226 0.15126
 H1380 H 0.73520 0.12648 0.18532
 C1381 C 0.17239 0.59464 0.20348
 C1382 C 0.18652 0.61173 0.18402
 C1383 C 0.21637 0.60672 0.18082
 C1384 C 0.23025 0.58340 0.19432
 C1385 C 0.21476 0.56479 0.21166
 C1386 C 0.18611 0.57201 0.21703
 C1387 C 0.16003 0.55352 0.21591
 C1388 C 0.14496 0.57833 0.20106
 H1389 H 0.22907 0.62039 0.16764
 H1390 H 0.25296 0.57974 0.19086
 H1391 H 0.15119 0.54935 0.23677
 H1392 H 0.16307 0.53395 0.20282
 H1393 H 0.12744 0.58836 0.21341
 H1394 H 0.13922 0.57323 0.17932
 C1395 C 0.21234 0.09835 0.67197
 C1396 C 0.18362 0.10619 0.67676
 C1397 C 0.16704 0.08687 0.69253
 C1398 C 0.18006 0.06332 0.70624
 C1399 C 0.20985 0.05820 0.70406
 C1400 C 0.22509 0.07489 0.68519
 C1401 C 0.25294 0.09025 0.68865
 C1402 C 0.23897 0.11596 0.67419
 H1403 H 0.14425 0.09057 0.69534
 H1404 H 0.16706 0.04995 0.71948
 H1405 H 0.27043 0.07997 0.67645
 H1406 H 0.25831 0.09453 0.71065
 H1407 H 0.24848 0.12047 0.65369
 H1408 H 0.23620 0.13518 0.68778
 C1409 C 0.28999 0.59895 0.32978
 C1410 C 0.31921 0.60504 0.32624
 C1411 C 0.33565 0.58475 0.31099
 C1412 C 0.32224 0.56198 0.29668
 C1413 C 0.29222 0.55861 0.29778
 C1414 C 0.27690 0.57622 0.31608
 C1415 C 0.24983 0.59314 0.31154
 C1416 C 0.26416 0.61808 0.32651
 H1417 H 0.35866 0.58703 0.30909
 H1418 H 0.33522 0.54776 0.28394
 H1419 H 0.23147 0.58397 0.32307
 H1420 H 0.24554 0.59758 0.28936
 H1421 H 0.25393 0.62329 0.34660
 H1422 H 0.26824 0.63703 0.31304
 C1423 C 0.33000 0.09430 0.79527
 C1424 C 0.31605 0.11146 0.81505
 C1425 C 0.28634 0.10678 0.81881
 C1426 C 0.27245 0.08357 0.80566
 C1427 C 0.28778 0.06473 0.78809
 C1428 C 0.31624 0.07166 0.78207
 C1429 C 0.34258 0.05300 0.78273
 C1430 C 0.35767 0.07784 0.79719
 H1431 H 0.27377 0.12070 0.83216
 H1432 H 0.24987 0.08014 0.80962
 H1433 H 0.35101 0.04860 0.76172
 H1434 H 0.34007 0.03357 0.79596
 H1435 H 0.37478 0.08768 0.78447
 H1436 H 0.36395 0.07288 0.81884
 C1437 C 0.78912 0.60024 0.82826
 C1438 C 0.81819 0.60657 0.82404
 C1439 C 0.83424 0.58651 0.80813
 C1440 C 0.82055 0.56363 0.79415
 C1441 C 0.79061 0.55991 0.79618
 C1442 C 0.77577 0.57745 0.81489
 C1443 C 0.74848 0.59422 0.81113
 C1444 C 0.76309 0.61923 0.82575
 H1445 H 0.85717 0.58891 0.80560
 H1446 H 0.83324 0.54953 0.78103
 H1447 H 0.73053 0.58491 0.82314
 H1448 H 0.74350 0.59869 0.78908
 H1449 H 0.75344 0.62432 0.84613
 H1450 H 0.76664 0.63824 0.81221
 C1451 C 0.82545 0.09737 0.29043
 C1452 C 0.81063 0.11488 0.30936
 C1453 C 0.78111 0.10914 0.31310
 C1454 C 0.76832 0.08475 0.30081
 C1455 C 0.78461 0.06574 0.28417
 C1456 C 0.81278 0.07359 0.27810
 C1457 C 0.83983 0.05607 0.27972
 C1458 C 0.85374 0.08216 0.29323
 H1459 H 0.76790 0.12308 0.32586
 H1460 H 0.74590 0.08047 0.30483
 H1461 H 0.84864 0.05108 0.25897
 H1462 H 0.83799 0.03717 0.29374
 H1463 H 0.87054 0.09207 0.28020
 H1464 H 0.86002 0.07845 0.31510
 C1465 C 0.67462 0.40235 0.29992
 C1466 C 0.68939 0.38625 0.32009
 C1467 C 0.71919 0.39131 0.32280
 C1468 C 0.73246 0.41372 0.30794
 C1469 C 0.71638 0.43132 0.28967
 C1470 C 0.68773 0.42405 0.28504
 C1471 C 0.66146 0.44280 0.28552
 C1472 C 0.64707 0.41902 0.30189
 H1473 H 0.73233 0.37831 0.33654
 H1474 H 0.75514 0.41758 0.31114
 H1475 H 0.65206 0.44581 0.26461
 H1476 H 0.66459 0.46307 0.29752
 H1477 H 0.62933 0.40845 0.29037
 H1478 H 0.64185 0.42543 0.32341
 C1479 C 0.66796 0.91182 0.79880
 C1480 C 0.68239 0.89433 0.81812
 C1481 C 0.71228 0.89861 0.82113
 C1482 C 0.72601 0.92153 0.80753
 C1483 C 0.71036 0.94047 0.79020
 C1484 C 0.68157 0.93409 0.78506
 C1485 C 0.65572 0.95334 0.78661
 C1486 C 0.64079 0.92896 0.80168
 H1487 H 0.72519 0.88452 0.83406
 H1488 H 0.74881 0.92454 0.81080
 H1489 H 0.64636 0.95781 0.76591
 H1490 H 0.65931 0.97279 0.79968
 H1491 H 0.62282 0.91947 0.78964
 H1492 H 0.63572 0.93420 0.82352
 C1493 C 0.21636 0.39937 0.82044
 C1494 C 0.18658 0.39519 0.81919
 C1495 C 0.17010 0.41643 0.80513
 C1496 C 0.18353 0.43826 0.78980
 C1497 C 0.21370 0.43979 0.78870
 C1498 C 0.22955 0.42126 0.80580
 C1499 C 0.25495 0.40263 0.79915
 C1500 C 0.24051 0.37862 0.81518
 H1501 H 0.14688 0.41575 0.80507
 H1502 H 0.17033 0.45344 0.77827
 H1503 H 0.27490 0.41054 0.80921
 H1504 H 0.25684 0.39800 0.77672
 H1505 H 0.25222 0.37271 0.83441
 H1506 H 0.23397 0.36003 0.80206
 C1507 C 0.17367 0.90691 0.29107
 C1508 C 0.18768 0.89011 0.31119
 C1509 C 0.21736 0.89504 0.31514
 C1510 C 0.23107 0.91823 0.30187
 C1511 C 0.21557 0.93682 0.28405
 C1512 C 0.18724 0.92947 0.27777
 C1513 C 0.16070 0.94784 0.27781
 C1514 C 0.14581 0.92311 0.29239
 H1515 H 0.22995 0.88156 0.32892
 H1516 H 0.25357 0.92203 0.30614
 H1517 H 0.15234 0.95175 0.25663
 H1518 H 0.16291 0.96755 0.29082
 H1519 H 0.12886 0.91288 0.27956
 H1520 H 0.13936 0.92841 0.31387
 C1521 C 0.41345 0.33293 0.69043
 C1522 C 0.39440 0.31815 0.67324
 C1523 C 0.39956 0.28788 0.67071
 C1524 C 0.42280 0.27417 0.68472
 C1525 C 0.44140 0.29019 0.70196
 C1526 C 0.43559 0.31967 0.70392
 C1527 C 0.44630 0.34690 0.71645
 C1528 C 0.42133 0.36210 0.70121
 H1529 H 0.38541 0.27454 0.65845
 H1530 H 0.42572 0.25101 0.68253
 H1531 H 0.46783 0.35284 0.70857
 H1532 H 0.44404 0.34710 0.73926
 H1533 H 0.42847 0.37685 0.68457
 H1534 H 0.40502 0.37131 0.71548
 C1535 C 0.40194 0.79199 0.17041
 C1536 C 0.38453 0.81300 0.18313
 C1537 C 0.38890 0.81746 0.21172
 C1538 C 0.41230 0.80438 0.22559
 C1539 C 0.43156 0.78604 0.21140
 C1540 C 0.42466 0.77870 0.18421
 C1541 C 0.44308 0.77859 0.15910
 C1542 C 0.41818 0.79314 0.14398
 H1543 H 0.37489 0.83167 0.22337
 H1544 H 0.41568 0.80921 0.24722
 H1545 H 0.44768 0.75629 0.15162
 H1546 H 0.46221 0.79264 0.16134
 H1547 H 0.40854 0.77918 0.12779
 H1548 H 0.42283 0.81566 0.13743
 C1549 C 0.91053 0.29257 0.16508
 C1550 C 0.90311 0.32158 0.17010
 C1551 C 0.92206 0.33767 0.18695
 C1552 C 0.94487 0.32388 0.20115
 C1553 C 0.94953 0.29383 0.19842
 C1554 C 0.93314 0.27911 0.17881
 C1555 C 0.91730 0.25135 0.18141
 C1556 C 0.89253 0.26603 0.16631
 H1557 H 0.91865 0.36061 0.19017
 H1558 H 0.95792 0.33646 0.21519
 H1559 H 0.91227 0.24588 0.20318
 H1560 H 0.92753 0.23362 0.16932
 H1561 H 0.87302 0.26900 0.17919
 H1562 H 0.88872 0.25659 0.14559
 C1563 C 0.90611 0.83051 0.69961
 C1564 C 0.89004 0.81607 0.67939
 C1565 C 0.89561 0.78613 0.67601
 C1566 C 0.91830 0.77238 0.69039
 C1567 C 0.93574 0.78806 0.70884
 C1568 C 0.92821 0.81689 0.71401
 C1569 C 0.94647 0.84324 0.71355
 C1570 C 0.92229 0.85817 0.69774
 H1571 H 0.88259 0.77321 0.66227
 H1572 H 0.92230 0.74956 0.68684
 H1573 H 0.96635 0.84016 0.70121
 H1574 H 0.94984 0.85235 0.73453
 H1575 H 0.92808 0.86374 0.67619
 H1576 H 0.91183 0.87591 0.70964
 C1577 C 0.59340 0.29392 0.33640
 C1578 C 0.61424 0.30963 0.32208
 C1579 C 0.61342 0.30795 0.29296
 C1580 C 0.59027 0.29490 0.27923
 C1581 C 0.56776 0.28236 0.29416
 C1582 C 0.57087 0.28034 0.32277
 C1583 C 0.55002 0.28803 0.34494
 C1584 C 0.57464 0.30288 0.35984
 H1585 H 0.63018 0.31730 0.28055
 H1586 H 0.58971 0.29512 0.25690
 H1587 H 0.54216 0.26859 0.35593
 H1588 H 0.53294 0.30327 0.33777
 H1589 H 0.58088 0.29198 0.37941
 H1590 H 0.57191 0.32676 0.36130
 C1591 C 0.58753 0.79987 0.83082
 C1592 C 0.60700 0.81753 0.81680
 C1593 C 0.60483 0.81805 0.78769
 C1594 C 0.58178 0.80469 0.77401
 C1595 C 0.56077 0.78974 0.78895
 C1596 C 0.56519 0.78607 0.81722
 C1597 C 0.54492 0.79119 0.84050
 C1598 C 0.56935 0.80633 0.85539
 H1599 H 0.62050 0.82913 0.77529
 H1600 H 0.58018 0.80642 0.75179
 H1601 H 0.53850 0.77067 0.85055
 H1602 H 0.52683 0.80595 0.83484
 H1603 H 0.57687 0.79452 0.87405
 H1604 H 0.56550 0.82991 0.85836
 C1605 C 0.10115 0.32702 0.79234
 C1606 C 0.10825 0.32123 0.81995
 C1607 C 0.08866 0.30418 0.83499
 C1608 C 0.06529 0.29070 0.82167
 C1609 C 0.06059 0.29454 0.79318
 C1610 C 0.07789 0.31429 0.77944
 C1611 C 0.09355 0.31092 0.75283
 C1612 C 0.11914 0.32481 0.76696
 H1613 H 0.09167 0.30043 0.85682
 H1614 H 0.05148 0.27668 0.83344
 H1615 H 0.08401 0.32457 0.73624
 H1616 H 0.09732 0.28788 0.74713
 H1617 H 0.12437 0.34637 0.75831
 H1618 H 0.13780 0.30983 0.76955
 C1619 C 0.08947 0.83223 0.29663
 C1620 C 0.10747 0.81861 0.31580
 C1621 C 0.10111 0.78918 0.32138
 C1622 C 0.07768 0.77516 0.30831
 C1623 C 0.06003 0.79003 0.28907
 C1624 C 0.06708 0.81872 0.28414
 C1625 C 0.05773 0.84491 0.26864
 C1626 C 0.08303 0.86035 0.28271
 H1627 H 0.11443 0.77670 0.33541
 H1628 H 0.07376 0.75264 0.31297
 H1629 H 0.03634 0.85303 0.27541
 H1630 H 0.06036 0.84225 0.24601
 H1631 H 0.07624 0.87744 0.29753
 H1632 H 0.09997 0.86673 0.26793
 C1633 C 0.58901 0.67282 0.69970
 C1634 C 0.60582 0.68724 0.68025
 C1635 C 0.59976 0.71698 0.67608
 C1636 C 0.57607 0.73048 0.68906
 C1637 C 0.55810 0.71469 0.70676
 C1638 C 0.56603 0.68617 0.71272
 C1639 C 0.54839 0.65939 0.71165
 C1640 C 0.57362 0.64473 0.69738
 H1641 H 0.61307 0.72990 0.66279
 H1642 H 0.57183 0.75318 0.68518
 H1643 H 0.52909 0.66179 0.69822
 H1644 H 0.54419 0.65060 0.73255
 H1645 H 0.56903 0.63858 0.67564
 H1646 H 0.58388 0.62749 0.71010
 C1647 C 0.59522 0.16546 0.20082
 C1648 C 0.61352 0.18076 0.18332
 C1649 C 0.61023 0.21123 0.18287
 C1650 C 0.58727 0.22492 0.19666
 C1651 C 0.56740 0.20861 0.21175
 C1652 C 0.57294 0.17903 0.21485
 C1653 C 0.55335 0.15401 0.21068
 C1654 C 0.57775 0.13915 0.19528
 H1655 H 0.62500 0.22464 0.17158
 H1656 H 0.58490 0.24820 0.19522
 H1657 H 0.53459 0.15945 0.19732
 H1658 H 0.54801 0.14323 0.23043
 H1659 H 0.57321 0.13596 0.17295
 H1660 H 0.58638 0.11978 0.20619
 C1661 C 0.09018 0.67065 0.20048
 C1662 C 0.10618 0.68479 0.18026
 C1663 C 0.09932 0.71423 0.17529
 C1664 C 0.07559 0.72764 0.18824
 C1665 C 0.05831 0.71208 0.20671
 C1666 C 0.06704 0.68393 0.21342
 C1667 C 0.05009 0.65669 0.21349
 C1668 C 0.07546 0.64212 0.19933
 H1669 H 0.11211 0.72701 0.16140
 H1670 H 0.07078 0.75011 0.18373
 H1671 H 0.03054 0.65811 0.20027
 H1672 H 0.04642 0.64856 0.23472
 H1673 H 0.07070 0.63506 0.17788
 H1674 H 0.08634 0.62563 0.21246
 C1675 C 0.09554 0.17299 0.70327
 C1676 C 0.11266 0.18813 0.68459
 C1677 C 0.10746 0.21823 0.68215
 C1678 C 0.08385 0.23143 0.69540
 C1679 C 0.06520 0.21497 0.71178
 C1680 C 0.07262 0.18608 0.71667
 C1681 C 0.05462 0.15963 0.71440
 C1682 C 0.07975 0.14526 0.69968
 H1683 H 0.12118 0.23162 0.66966
 H1684 H 0.08002 0.25437 0.69253
 H1685 H 0.03544 0.16290 0.70097
 H1686 H 0.05016 0.14997 0.73489
 H1687 H 0.07521 0.14020 0.67767
 H1688 H 0.08968 0.12729 0.71171
 C1689 C 0.40990 0.66893 0.30321
 C1690 C 0.39192 0.68453 0.32114
 C1691 C 0.39595 0.71479 0.32255
 C1692 C 0.41906 0.72790 0.30895
 C1693 C 0.43840 0.71126 0.29310
 C1694 C 0.43235 0.68197 0.28934
 C1695 C 0.45156 0.65622 0.29302
 C1696 C 0.42699 0.64194 0.30820
 H1697 H 0.38150 0.72851 0.33421
 H1698 H 0.42176 0.75106 0.31089
 H1699 H 0.47043 0.66079 0.30643
 H1700 H 0.45671 0.64558 0.27305
 H1701 H 0.43154 0.63823 0.33044
 H1702 H 0.41805 0.62306 0.29695
 C1703 C 0.40791 0.17364 0.79490
 C1704 C 0.39096 0.18850 0.81421
 C1705 C 0.39605 0.21848 0.81736
 C1706 C 0.41922 0.23179 0.80385
 C1707 C 0.43759 0.21557 0.78656
 C1708 C 0.43039 0.18680 0.78136
 C1709 C 0.44871 0.16016 0.78271
 C1710 C 0.42403 0.14570 0.79757
 H1711 H 0.38249 0.23173 0.83040
 H1712 H 0.42293 0.25462 0.80722
 H1713 H 0.46812 0.16299 0.79586
 H1714 H 0.45285 0.15087 0.76193
 H1715 H 0.42906 0.14014 0.81937
 H1716 H 0.41404 0.12809 0.78531
 C1717 C 0.90056 0.71327 0.82693
 C1718 C 0.89419 0.68390 0.82328
 C1719 C 0.91428 0.66712 0.80815
 C1720 C 0.93723 0.68031 0.79424
 C1721 C 0.94105 0.71049 0.79563
 C1722 C 0.92344 0.72615 0.81364
 C1723 C 0.90699 0.75356 0.80886
 C1724 C 0.88188 0.73948 0.82337
 H1725 H 0.91189 0.64395 0.80619
 H1726 H 0.95133 0.66705 0.78167
 H1727 H 0.90288 0.75782 0.78662
 H1728 H 0.91615 0.77201 0.82058
 H1729 H 0.86319 0.73550 0.80957
 H1730 H 0.87659 0.74996 0.84338
 C1731 C 0.90262 0.17640 0.28889
 C1732 C 0.88544 0.19198 0.30752
 C1733 C 0.89128 0.22182 0.31049
 C1734 C 0.91542 0.23420 0.29777
 C1735 C 0.93404 0.21719 0.28143
 C1736 C 0.92608 0.18867 0.27609
 C1737 C 0.94343 0.16144 0.27822
 C1738 C 0.91771 0.14796 0.29225
 H1739 H 0.87767 0.23562 0.32298
 H1740 H 0.91981 0.25689 0.30122
 H1741 H 0.96241 0.16370 0.29204
 H1742 H 0.94806 0.15188 0.25765
 H1743 H 0.92169 0.14235 0.31423
 H1744 H 0.90765 0.13063 0.27970
 C1745 C 0.32960 0.29155 0.58888
 C1746 C 0.32461 0.32098 0.59447
 C1747 C 0.30795 0.33657 0.57494
 C1748 C 0.29377 0.32209 0.55323
 C1749 C 0.29638 0.29182 0.55024
 C1750 C 0.31606 0.27743 0.56728
 C1751 C 0.31256 0.25037 0.58361
 C1752 C 0.32738 0.26581 0.60732
 H1753 H 0.30478 0.35968 0.57693
 H1754 H 0.27982 0.33438 0.53959
 H1755 H 0.32547 0.23210 0.57508
 H1756 H 0.28967 0.24537 0.58778
 H1757 H 0.34876 0.25631 0.61247
 H1758 H 0.31311 0.26981 0.62528
 C1759 C 0.32800 0.79873 0.08698
 C1760 C 0.31429 0.81889 0.10406
 C1761 C 0.28515 0.82514 0.09717
 C1762 C 0.27146 0.81164 0.07434
 C1763 C 0.28632 0.79123 0.05779
 C1764 C 0.31478 0.78580 0.06516
 C1765 C 0.34070 0.76887 0.05703
 C1766 C 0.35582 0.78342 0.08164
 H1767 H 0.27255 0.83987 0.10968
 H1768 H 0.24910 0.81669 0.07016
 H1769 H 0.34915 0.77565 0.03667
 H1770 H 0.33772 0.74520 0.05968
 H1771 H 0.37307 0.79852 0.07548
 H1772 H 0.36175 0.76782 0.09815
 C1773 C 0.83319 0.29278 0.08936
 C1774 C 0.82735 0.32175 0.09626
 C1775 C 0.80932 0.33745 0.07794
 C1776 C 0.79476 0.32331 0.05624
 C1777 C 0.79833 0.29330 0.05202
 C1778 C 0.81918 0.27902 0.06782
 C1779 C 0.81729 0.25121 0.08322
 C1780 C 0.83271 0.26620 0.10683
 H1781 H 0.80543 0.36035 0.08087
 H1782 H 0.77983 0.33561 0.04359
 H1783 H 0.83033 0.23374 0.07349
 H1784 H 0.79480 0.24529 0.08817
 H1785 H 0.85458 0.25720 0.11044
 H1786 H 0.81930 0.26889 0.12559
 C1787 C 0.82626 0.79146 0.59282
 C1788 C 0.81841 0.81948 0.60129
 C1789 C 0.79882 0.83467 0.58399
 C1790 C 0.78490 0.82060 0.56182
 C1791 C 0.79064 0.79120 0.55602
 C1792 C 0.81295 0.77785 0.57077
 C1793 C 0.81396 0.74907 0.58461
 C1794 C 0.82848 0.76393 0.60883
 H1795 H 0.79329 0.85704 0.58803
 H1796 H 0.76892 0.83241 0.54995
 H1797 H 0.82825 0.73346 0.57372
 H1798 H 0.79225 0.74088 0.58956
 H1799 H 0.85111 0.75671 0.61186
 H1800 H 0.81519 0.76432 0.62782
 C1801 C 0.29686 0.67235 0.41195
 C1802 C 0.31583 0.68676 0.39441
 C1803 C 0.31733 0.71719 0.39724
 C1804 C 0.30303 0.73163 0.41884
 C1805 C 0.28632 0.71616 0.43780
 C1806 C 0.28234 0.68667 0.43293
 C1807 C 0.28573 0.66176 0.45222
 C1808 C 0.30168 0.64607 0.42928
 H1809 H 0.32970 0.73002 0.38303
 H1810 H 0.30531 0.75484 0.42085
 H1811 H 0.26478 0.65178 0.45727
 H1812 H 0.29955 0.66691 0.47032
 H1813 H 0.28989 0.62700 0.42124
 H1814 H 0.32478 0.64212 0.43400
 C1815 C 0.33488 0.20262 0.90936
 C1816 C 0.31982 0.18367 0.89205
 C1817 C 0.29013 0.18041 0.89726
 C1818 C 0.27730 0.19301 0.92062
 C1819 C 0.29356 0.20977 0.93911
 C1820 C 0.32205 0.21553 0.93214
 C1821 C 0.34863 0.21230 0.94921
 C1822 C 0.36266 0.19816 0.92430
 H1823 H 0.27660 0.16814 0.88345
 H1824 H 0.25461 0.18967 0.92412
 H1825 H 0.34583 0.19726 0.96686
 H1826 H 0.35808 0.23356 0.95463
 H1827 H 0.36799 0.17489 0.92742
 H1828 H 0.38022 0.21130 0.91544
 C1829 C 0.82933 0.70644 0.91102
 C1830 C 0.81486 0.68736 0.89334
 C1831 C 0.78486 0.68486 0.89703
 C1832 C 0.77107 0.69803 0.91962
 C1833 C 0.78673 0.71456 0.93882
 C1834 C 0.81559 0.71987 0.93304
 C1835 C 0.84134 0.71679 0.95126
 C1836 C 0.85638 0.70207 0.92719
 H1837 H 0.77194 0.67239 0.88282
 H1838 H 0.74821 0.69496 0.92223
 H1839 H 0.83762 0.70212 0.96902
 H1840 H 0.85071 0.73808 0.95671
 H1841 H 0.86139 0.67883 0.93091
 H1842 H 0.87443 0.71492 0.91886
 C1843 C 0.83048 0.20683 0.40309
 C1844 C 0.81447 0.18868 0.38578
 C1845 C 0.78500 0.18558 0.39209
 C1846 C 0.77341 0.19732 0.41649
 C1847 C 0.79077 0.21299 0.43498
 C1848 C 0.81891 0.21883 0.42690
 C1849 C 0.84633 0.21494 0.44257
 C1850 C 0.85900 0.20177 0.41653
 H1851 H 0.77079 0.17384 0.37848
 H1852 H 0.75094 0.19387 0.42098
 H1853 H 0.84442 0.19923 0.45979
 H1854 H 0.85610 0.23599 0.44826
 H1855 H 0.86443 0.17839 0.41858
 H1856 H 0.87611 0.21525 0.40731
 C1857 C 0.67595 0.29071 0.41072
 C1858 C 0.68202 0.31908 0.40244
 C1859 C 0.69947 0.33556 0.42053
 C1860 C 0.71324 0.32253 0.44349
 C1861 C 0.70929 0.29297 0.44930
 C1862 C 0.68900 0.27816 0.43352
 C1863 C 0.69139 0.24929 0.41983
 C1864 C 0.67717 0.26299 0.39477
 H1865 H 0.70358 0.35813 0.41650
 H1866 H 0.72788 0.33523 0.45588
 H1867 H 0.67780 0.23283 0.42997
 H1868 H 0.71405 0.24249 0.41619
 H1869 H 0.65548 0.25416 0.39049
 H1870 H 0.69156 0.26420 0.37658
 C1871 C 0.67035 0.79397 0.90342
 C1872 C 0.67536 0.82304 0.89685
 C1873 C 0.69155 0.83923 0.91616
 C1874 C 0.70512 0.82556 0.93882
 C1875 C 0.70228 0.79556 0.94304
 C1876 C 0.68321 0.78071 0.92596
 C1877 C 0.68739 0.75282 0.91088
 C1878 C 0.67336 0.76732 0.88611
 H1879 H 0.69468 0.86219 0.91342
 H1880 H 0.71858 0.83824 0.95242
 H1881 H 0.67427 0.73518 0.91970
 H1882 H 0.71045 0.74729 0.90767
 H1883 H 0.65224 0.75782 0.88065
 H1884 H 0.68826 0.77027 0.86850
 C1885 C 0.20771 0.33147 0.90746
 C1886 C 0.18909 0.31619 0.88999
 C1887 C 0.18642 0.28620 0.89491
 C1888 C 0.19911 0.27330 0.91830
 C1889 C 0.21529 0.28987 0.93711
 C1890 C 0.22071 0.31861 0.93022
 C1891 C 0.21740 0.34530 0.94731
 C1892 C 0.20316 0.35940 0.92240
 H1893 H 0.17424 0.27260 0.88107
 H1894 H 0.19599 0.25041 0.92180
 H1895 H 0.23847 0.35496 0.95269
 H1896 H 0.20257 0.34233 0.96496
 H1897 H 0.21605 0.37720 0.91353
 H1898 H 0.18003 0.36460 0.92555
 C1899 C 0.16848 0.79866 0.40390
 C1900 C 0.17560 0.82667 0.39535
 C1901 C 0.19354 0.84276 0.41323
 C1902 C 0.20679 0.82954 0.43632
 C1903 C 0.20199 0.80012 0.44230
 C1904 C 0.18114 0.78586 0.42675
 C1905 C 0.18229 0.75679 0.41332
 C1906 C 0.16845 0.77078 0.38820
 H1907 H 0.19846 0.86510 0.40888
 H1908 H 0.22176 0.84192 0.44864
 H1909 H 0.16811 0.74100 0.42370
 H1910 H 0.20465 0.74905 0.40962
 H1911 H 0.14635 0.76289 0.38412
 H1912 H 0.18275 0.77122 0.36991
 C1913 C 0.70553 0.67079 0.59529
 C1914 C 0.67674 0.67699 0.60177
 C1915 C 0.66122 0.69438 0.58275
 C1916 C 0.67535 0.70811 0.56073
 C1917 C 0.70514 0.70429 0.55686
 C1918 C 0.71924 0.68386 0.57335
 C1919 C 0.74683 0.68633 0.58889
 C1920 C 0.73190 0.67196 0.61295
 H1921 H 0.63849 0.69846 0.58532
 H1922 H 0.66316 0.72251 0.54741
 H1923 H 0.75265 0.70916 0.59312
 H1924 H 0.76418 0.67275 0.57976
 H1925 H 0.72923 0.68641 0.63113
 H1926 H 0.74072 0.65007 0.61761
 C1927 C 0.70480 0.16662 0.08905
 C1928 C 0.68701 0.18140 0.10772
 C1929 C 0.68591 0.21195 0.10548
 C1930 C 0.69915 0.22621 0.08333
 C1931 C 0.71444 0.21040 0.06327
 C1932 C 0.71831 0.18074 0.06758
 C1933 C 0.71367 0.15614 0.04814
 C1934 C 0.69880 0.14066 0.07163
 H1935 H 0.67456 0.22502 0.12047
 H1936 H 0.69708 0.24950 0.08171
 H1937 H 0.73422 0.14561 0.04196
 H1938 H 0.69898 0.16189 0.03080
 H1939 H 0.71079 0.12117 0.07883
 H1940 H 0.67544 0.13745 0.06800
 C1941 C 0.16982 0.70729 0.09424
 C1942 C 0.17638 0.67877 0.10210
 C1943 C 0.19450 0.66269 0.08424
 C1944 C 0.20837 0.67620 0.06193
 C1945 C 0.20399 0.70590 0.05663
 C1946 C 0.18304 0.72037 0.07205
 C1947 C 0.18443 0.74894 0.08637
 C1948 C 0.16998 0.73462 0.11076
 H1949 H 0.19896 0.64003 0.08795
 H1950 H 0.22325 0.66368 0.04950
 H1951 H 0.17066 0.76555 0.07615
 H1952 H 0.20683 0.75576 0.09078
 H1953 H 0.14795 0.74315 0.11459
 H1954 H 0.18399 0.73308 0.12934
 C1955 C 0.17658 0.21318 0.59839
 C1956 C 0.17970 0.18348 0.60372
 C1957 C 0.19382 0.16663 0.58342
 C1958 C 0.20759 0.17991 0.56102
 C1959 C 0.20701 0.21022 0.55804
 C1960 C 0.18965 0.22617 0.57602
 C1961 C 0.19641 0.25283 0.59209
 C1962 C 0.18211 0.23862 0.61663
 H1963 H 0.19521 0.14335 0.58518
 H1964 H 0.21939 0.16653 0.54654
 H1965 H 0.18440 0.27205 0.58429
 H1966 H 0.21989 0.25598 0.59494
 H1967 H 0.16192 0.24974 0.62296
 H1968 H 0.19728 0.23347 0.63375
   
