data_POSCAR
  _audit_creation_date              2014-09-24
  _audit_creation_method            'ToBaCCo'
  _symmetry_space_group_name_H-M    'P1'
  _symmetry_Int_Tables_number       1
  _symmetry_cell_setting            triclinic
  loop_
  _symmetry_equiv_pos_as_xyz
 x,y,z
_cell_length_a 45.9013
_cell_length_b 44.9762
_cell_length_c 48.0834
_cell_angle_alpha 90.452800
_cell_angle_beta 89.253200
_cell_angle_gamma 90.342000
loop_
  _atom_site_label
  _atom_site_type_symbol
  _atom_site_fract_x
  _atom_site_fract_y
  _atom_site_fract_z
C1 C 0.15121 -0.02716 0.24930
 C2 C 0.13039 -0.00457 0.24879
 C3 C 0.10953 -0.00231 0.27008
 C4 C 0.10996 -0.02193 0.29244
 C5 C 0.13015 -0.04531 0.29246
 C6 C 0.15056 -0.04861 0.27040
 C7 C 0.13000 0.01621 0.22547
 C8 C 0.10893 0.01313 0.20494
 C9 C 0.10964 0.03124 0.18127
 C10 C 0.13105 0.05401 0.17949
 C11 C 0.15099 0.05849 0.20113
 C12 C 0.15095 0.03872 0.22357
 H13 H 0.16692 -0.02884 0.23232
 H14 H 0.09354 0.01533 0.26963
 H15 H 0.09274 -0.00443 0.20690
 H16 H 0.16705 0.04091 0.23976
 H17 H 0.12986 -0.06046 0.30982
 H18 H 0.13138 0.06942 0.16233
 C19 C 0.34636 -0.02805 0.73604
 C20 C 0.37010 -0.00840 0.73400
 C21 C 0.39060 -0.01181 0.71243
 C22 C 0.38779 -0.03522 0.69317
 C23 C 0.36487 -0.05570 0.69621
 C24 C 0.34401 -0.05219 0.71764
 C25 C 0.37524 0.01315 0.75651
 C26 C 0.39713 0.00760 0.77576
 C27 C 0.39911 0.02452 0.80033
 C28 C 0.37983 0.04865 0.80433
 C29 C 0.35935 0.05562 0.78402
 C30 C 0.35666 0.03735 0.76043
 H31 H 0.33085 -0.02571 0.75311
 H32 H 0.40909 0.00324 0.71114
 H33 H 0.41130 -0.01137 0.77246
 H34 H 0.33985 0.04167 0.74538
 H35 H 0.36307 -0.07413 0.68165
 H36 H 0.38147 0.06308 0.82236
 C37 C 0.86193 0.45312 0.24525
 C38 C 0.87403 0.48165 0.24307
 C39 C 0.89328 0.48831 0.22126
 C40 C 0.89996 0.46675 0.20118
 C41 C 0.88757 0.43821 0.20312
 C42 C 0.86853 0.43117 0.22517
 C43 C 0.86943 0.50341 0.26543
 C44 C 0.88659 0.50173 0.28904
 C45 C 0.88295 0.52191 0.31110
 C46 C 0.86247 0.54503 0.30852
 C47 C 0.84588 0.54744 0.28419
 C48 C 0.84896 0.52608 0.26301
 H49 H 0.84835 0.44796 0.26318
 H50 H 0.90330 0.51018 0.22013
 H51 H 0.90249 0.48403 0.29034
 H52 H 0.83613 0.52761 0.24430
 H53 H 0.89319 0.42136 0.18776
 H54 H 0.85987 0.56166 0.32473
 C55 C 0.63125 0.46377 0.75433
 C56 C 0.61819 0.49184 0.75432
 C57 C 0.59987 0.50039 0.77652
 C58 C 0.59474 0.48098 0.79883
 C59 C 0.60779 0.45273 0.79845
 C60 C 0.62626 0.44408 0.77641
 C61 C 0.62352 0.51164 0.73051
 C62 C 0.61124 0.50467 0.70471
 C63 C 0.61873 0.52122 0.68099
 C64 C 0.63919 0.54437 0.68328
 C65 C 0.65119 0.55204 0.70908
 C66 C 0.64316 0.53553 0.73276
 H67 H 0.64480 0.45715 0.73675
 H68 H 0.58965 0.52205 0.77641
 H69 H 0.59666 0.48572 0.70308
 H70 H 0.65314 0.54016 0.75263
 H71 H 0.60337 0.43729 0.81520
 H72 H 0.64545 0.55685 0.66492
 C73 C 0.24475 0.15910 1.02925
 C74 C 0.23737 0.13906 1.00799
 C75 C 0.21072 0.12378 1.00920
 C76 C 0.19170 0.12729 1.03234
 C77 C 0.20047 0.14598 1.05444
 C78 C 0.22653 0.16255 1.05262
 C79 C 0.25876 0.13222 0.98579
 C80 C 0.28004 0.11064 0.99038
 C81 C 0.30286 0.10587 0.97108
 C82 C 0.30335 0.12286 0.94639
 C83 C 0.28119 0.14342 0.94098
 C84 C 0.25901 0.14813 0.96089
 H85 H 0.26522 0.17120 1.02806
 H86 H 0.20589 0.10805 0.99273
 H87 H 0.27936 0.09839 1.00973
 H88 H 0.24253 0.16482 0.95745
 H89 H 0.18640 0.14879 1.07255
 H90 H 0.32008 0.11961 0.93064
 C91 C 0.75681 0.35483 1.03499
 C92 C 0.76693 0.37273 1.01320
 C93 C 0.79422 0.38651 1.01493
 C94 C 0.81092 0.38367 1.03907
 C95 C 0.79946 0.36760 1.06185
 C96 C 0.77246 0.35242 1.05974
 C97 C 0.74696 0.37956 0.99047
 C98 C 0.72452 0.39997 0.99551
 C99 C 0.70123 0.40252 0.97706
 C100 C 0.70159 0.38501 0.95253
 C101 C 0.72500 0.36593 0.94645
 C102 C 0.74758 0.36307 0.96567
 H103 H 0.73567 0.34410 1.03315
 H104 H 0.80181 0.40048 0.99803
 H105 H 0.72432 0.41248 1.01491
 H106 H 0.76474 0.34700 0.96204
 H107 H 0.81236 0.36584 1.08044
 H108 H 0.68441 0.38679 0.93744
 C109 C 0.25771 0.84925 0.52762
 C110 C 0.26562 0.87000 0.50732
 C111 C 0.29093 0.88723 0.51047
 C112 C 0.30794 0.88465 0.53463
 C113 C 0.29844 0.86515 0.55568
 C114 C 0.27378 0.84694 0.55197
 C115 C 0.24566 0.87523 0.48422
 C116 C 0.22317 0.89590 0.48773
 C117 C 0.20084 0.89765 0.46826
 C118 C 0.20158 0.87896 0.44466
 C119 C 0.22494 0.85935 0.44018
 C120 C 0.24683 0.85736 0.46024
 H121 H 0.23826 0.83577 0.52496
 H122 H 0.29630 0.90342 0.49464
 H123 H 0.22234 0.90967 0.50634
 H124 H 0.26407 0.84115 0.45779
 H125 H 0.31106 0.86298 0.57446
 H126 H 0.18444 0.88025 0.42943
 C127 C 0.72186 0.66280 0.53580
 C128 C 0.71925 0.64869 0.50977
 C129 C 0.69241 0.63635 0.50204
 C130 C 0.66858 0.63703 0.52057
 C131 C 0.67118 0.65181 0.54629
 C132 C 0.69773 0.66486 0.55405
 C133 C 0.74497 0.64593 0.49118
 C134 C 0.76901 0.62948 0.49976
 C135 C 0.79464 0.62800 0.48348
 C136 C 0.79575 0.64378 0.45812
 C137 C 0.77119 0.65919 0.44866
 C138 C 0.74582 0.66010 0.46533
 H139 H 0.74252 0.67280 0.54140
 H140 H 0.69047 0.62505 0.48215
 H141 H 0.76773 0.61801 0.51951
 H142 H 0.72716 0.67278 0.45876
 H143 H 0.65255 0.65299 0.56035
 H144 H 0.81491 0.64304 0.44481
 C145 C -0.03407 0.25782 0.15933
 C146 C -0.01065 0.25935 0.14059
 C147 C -0.00969 0.28149 0.12030
 C148 C -0.03258 0.30207 0.11819
 C149 C -0.05688 0.29905 0.13604
 C150 C -0.05751 0.27725 0.15683
 C151 C 0.01274 0.23741 0.14174
 C152 C 0.01465 0.21501 0.12144
 C153 C 0.03833 0.19514 0.12093
 C154 C 0.06066 0.19937 0.14036
 C155 C 0.05816 0.22127 0.16127
 C156 C 0.03390 0.23981 0.16221
 H157 H -0.03452 0.24078 0.17516
 H158 H 0.00865 0.28187 0.10593
 H159 H -0.00194 0.21407 0.10566
 H160 H 0.03226 0.25715 0.17794
 H161 H -0.07474 0.31461 0.13466
 H162 H 0.07950 0.18492 0.14000
 C163 C -0.03514 0.75536 0.37152
 C164 C -0.01249 0.74244 0.38619
 C165 C -0.01695 0.71549 0.39975
 C166 C -0.04426 0.70147 0.39918
 C167 C -0.06727 0.71492 0.38526
 C168 C -0.06251 0.74167 0.37084
 C169 C 0.01609 0.75683 0.38692
 C170 C 0.01890 0.78532 0.39821
 C171 C 0.04613 0.79952 0.39863
 C172 C 0.07068 0.78475 0.38796
 C173 C 0.06770 0.75628 0.37584
 C174 C 0.04040 0.74240 0.37567
 H175 H -0.03126 0.77582 0.36023
 H176 H 0.00083 0.70564 0.41104
 H177 H -0.00016 0.79627 0.40693
 H178 H 0.03784 0.72067 0.36602
 H179 H -0.08817 0.70365 0.38427
 H180 H 0.09149 0.79624 0.38750
 C181 C 0.45505 0.24759 0.85556
 C182 C 0.48255 0.24922 0.86755
 C183 C 0.49196 0.22644 0.88487
 C184 C 0.47481 0.20087 0.88892
 C185 C 0.44752 0.19891 0.87572
 C186 C 0.43740 0.22245 0.85964
 C187 C 0.50251 0.27350 0.86009
 C188 C 0.49775 0.30231 0.87024
 C189 C 0.51756 0.32548 0.86376
 C190 C 0.54138 0.31924 0.84609
 C191 C 0.54610 0.29034 0.83606
 C192 C 0.52658 0.26759 0.84288
 H193 H 0.44805 0.26522 0.84198
 H194 H 0.51330 0.22819 0.89421
 H195 H 0.47846 0.30618 0.88288
 H196 H 0.53037 0.24518 0.83523
 H197 H 0.43330 0.17991 0.87875
 H198 H 0.55699 0.33660 0.84085
 C199 C 0.47180 0.73899 0.65281
 C200 C 0.49596 0.74655 0.63613
 C201 C 0.49508 0.77183 0.61939
 C202 C 0.46982 0.78913 0.61855
 C203 C 0.44558 0.78118 0.63477
 C204 C 0.44649 0.75626 0.65220
 C205 C 0.52091 0.72642 0.63342
 C206 C 0.51720 0.69909 0.61982
 C207 C 0.54136 0.68132 0.61314
 C208 C 0.56929 0.69109 0.62056
 C209 C 0.57313 0.71789 0.63520
 C210 C 0.54882 0.73579 0.64119
 H211 H 0.47247 0.71933 0.66568
 H212 H 0.51356 0.77715 0.60603
 H213 H 0.49565 0.69280 0.61291
 H214 H 0.55156 0.75729 0.65117
 H215 H 0.42635 0.79501 0.63437
 H216 H 0.58808 0.67757 0.61527
 C217 C 0.87774 1.04172 0.74907
 C218 C 0.89115 1.01376 0.74931
 C219 C 0.90510 1.00421 0.77342
 C220 C 0.90552 1.02210 0.79751
 C221 C 0.89230 1.05036 0.79668
 C222 C 0.87826 1.06014 0.77276
 C223 C 0.89073 0.99456 0.72422
 C224 C 0.90095 1.00551 0.69876
 C225 C 0.90047 0.98787 0.67454
 C226 C 0.88899 0.95858 0.67629
 C227 C 0.87893 0.94705 0.70195
 C228 C 0.88038 0.96529 0.72586
 H229 H 0.86735 1.04922 0.73030
 H230 H 0.91556 0.98264 0.77336
 H231 H 0.90957 1.02801 0.69799
 H232 H 0.87377 0.95705 0.74603
 H233 H 0.89342 1.06553 0.81419
 H234 H 0.88877 0.94417 0.65817
 C235 C 0.38661 0.54789 0.26034
 C236 C 0.39468 0.51887 0.26758
 C237 C 0.39844 0.51193 0.29571
 C238 C 0.39475 0.53385 0.31646
 C239 C 0.38635 0.56254 0.30888
 C240 C 0.38212 0.56980 0.28094
 C241 C 0.39983 0.49614 0.24558
 C242 C 0.41649 0.50354 0.22198
 C243 C 0.42043 0.48307 0.20031
 C244 C 0.40807 0.45448 0.20245
 C245 C 0.39190 0.44618 0.22628
 C246 C 0.38801 0.46731 0.24788
 H247 H 0.38401 0.55328 0.23862
 H248 H 0.40456 0.48957 0.30129
 H249 H 0.42622 0.52549 0.22032
 H250 H 0.37587 0.46171 0.26653
 H251 H 0.38328 0.57942 0.32487
 H252 H 0.41140 0.43858 0.18566
 C253 C 0.61166 1.03182 0.24032
 C254 C 0.59965 1.00313 0.23826
 C255 C 0.58546 0.99439 0.21387
 C256 C 0.58333 1.01403 0.19158
 C257 C 0.59513 1.04286 0.19397
 C258 C 0.60972 1.05174 0.21808
 C259 C 0.60210 0.98235 0.26167
 C260 C 0.59313 0.99117 0.28837
 C261 C 0.59615 0.97224 0.31120
 C262 C 0.60844 0.94381 0.30670
 C263 C 0.61734 0.93457 0.27988
 C264 C 0.61373 0.95395 0.25741
 H265 H 0.62232 1.03853 0.25934
 H266 H 0.57608 0.97227 0.21226
 H267 H 0.58372 1.01307 0.29127
 H268 H 0.61982 0.94719 0.23649
 H269 H 0.59299 1.05848 0.17708
 H270 H 0.61053 0.92831 0.32362
 C271 C 0.10735 0.53597 0.74168
 C272 C 0.09862 0.50609 0.74095
 C273 C 0.08551 0.49448 0.71705
 C274 C 0.08137 0.51259 0.69385
 C275 C 0.09071 0.54248 0.69463
 C276 C 0.10413 0.55425 0.71835
 C277 C 0.10337 0.48741 0.76551
 C278 C 0.09145 0.49600 0.79122
 C279 C 0.09830 0.48078 0.81551
 C280 C 0.11749 0.45646 0.81391
 C281 C 0.12879 0.44685 0.78797
 C282 C 0.12157 0.46255 0.76382
 H283 H 0.11664 0.54475 0.76065
 H284 H 0.07830 0.47148 0.71662
 H285 H 0.07701 0.51499 0.79234
 H286 H 0.13116 0.45641 0.74390
 H287 H 0.08730 0.55670 0.67690
 H288 H 0.12277 0.44435 0.83255
 C289 C 0.75434 0.86156 -0.04578
 C290 C 0.74500 0.86606 -0.01797
 C291 C 0.71530 0.87231 -0.01251
 C292 C 0.69526 0.87372 -0.03442
 C293 C 0.70508 0.86897 -0.06171
 C294 C 0.73438 0.86302 -0.06773
 C295 C 0.76613 0.86363 0.00531
 C296 C 0.79406 0.87681 0.00336
 C297 C 0.81442 0.87413 0.02513
 C298 C 0.80590 0.85797 0.04899
 C299 C 0.77808 0.84477 0.05132
 C300 C 0.75856 0.84752 0.02930
 H301 H 0.77703 0.85686 -0.05023
 H302 H 0.70779 0.87590 0.00869
 H303 H 0.79938 0.88899 -0.01528
 H304 H 0.73738 0.83683 0.03078
 H305 H 0.68964 0.87004 -0.07857
 H306 H 0.82124 0.85516 0.06570
 C307 C 0.23413 0.36136 0.45860
 C308 C 0.23041 0.37061 0.48638
 C309 C 0.20541 0.38652 0.49417
 C310 C 0.18375 0.39264 0.47483
 C311 C 0.18736 0.38279 0.44712
 C312 C 0.21275 0.36741 0.43853
 C313 C 0.25246 0.36353 0.50759
 C314 C 0.28176 0.37211 0.50391
 C315 C 0.30241 0.36679 0.52484
 C316 C 0.29306 0.35228 0.54931
 C317 C 0.26393 0.34299 0.55286
 C318 C 0.24388 0.34865 0.53190
 H319 H 0.25355 0.34905 0.45330
 H320 H 0.20285 0.39430 0.51546
 H321 H 0.28790 0.38312 0.48483
 H322 H 0.22141 0.34152 0.53454
 H323 H 0.17084 0.38797 0.43204
 H324 H 0.30864 0.34761 0.56543
 C325 C 0.25934 0.66357 -0.03607
 C326 C 0.26864 0.64863 -0.01249
 C327 C 0.29735 0.63863 -0.01098
 C328 C 0.31674 0.64224 -0.03371
 C329 C 0.30701 0.65700 -0.05752
 C330 C 0.27834 0.66776 -0.05863
 C331 C 0.24775 0.64235 0.01006
 C332 C 0.22737 0.61943 0.00686
 C333 C 0.20554 0.61441 0.02706
 C334 C 0.20559 0.63219 0.05160
 C335 C 0.22667 0.65487 0.05511
 C336 C 0.24730 0.66003 0.03399
 H337 H 0.23709 0.67142 -0.03706
 H338 H 0.30419 0.62805 0.00795
 H339 H 0.22794 0.60622 -0.01213
 H340 H 0.26318 0.67782 0.03619
 H341 H 0.32166 0.66016 -0.07512
 H342 H 0.18962 0.62866 0.06797
 C343 C 0.75315 0.15631 0.46624
 C344 C 0.75598 0.13889 0.48989
 C345 C 0.77845 0.11824 0.49144
 C346 C 0.79920 0.11540 0.46986
 C347 C 0.79588 0.13280 0.44562
 C348 C 0.77253 0.15300 0.44374
 C349 C 0.73561 0.14236 0.51339
 C350 C 0.70891 0.12731 0.51331
 C351 C 0.68994 0.12898 0.53647
 C352 C 0.69803 0.14656 0.55951
 C353 C 0.72491 0.16193 0.55954
 C354 C 0.74342 0.15984 0.53629
 H355 H 0.73548 0.17214 0.46520
 H356 H 0.78026 0.10507 0.51015
 H357 H 0.70306 0.11460 0.49498
 H358 H 0.76423 0.17140 0.53615
 H359 H 0.81089 0.13066 0.42820
 H360 H 0.68335 0.14841 0.57726
 C361 C 1.04015 0.75162 0.87369
 C362 C 1.01141 0.75301 0.88351
 C363 C 1.00157 0.77864 0.89722
 C364 C 1.01981 0.80358 0.90038
 C365 C 1.04861 0.80228 0.88943
 C366 C 1.05892 0.77637 0.87596
 C367 C 0.99129 0.72788 0.87865
 C368 C 0.99788 0.69949 0.88852
 C369 C 0.97849 0.67542 0.88433
 C370 C 0.95311 0.68033 0.86897
 C371 C 0.94646 0.70861 0.85880
 C372 C 0.96554 0.73241 0.86401
 H373 H 1.04751 0.73108 0.86419
 H374 H 0.97932 0.77918 0.90512
 H375 H 1.01815 0.69676 0.89935
 H376 H 0.96039 0.75457 0.85701
 H377 H 1.06345 0.82085 0.89186
 H378 H 0.93792 0.66216 0.86543
 C379 C 0.53800 0.23442 0.37512
 C380 C 0.50964 0.23598 0.38614
 C381 C 0.50226 0.25890 0.40466
 C382 C 0.52276 0.28060 0.41180
 C383 C 0.55111 0.27930 0.40027
 C384 C 0.55898 0.25626 0.38173
 C385 C 0.48808 0.21261 0.37963
 C386 C 0.49533 0.18285 0.38342
 C387 C 0.47418 0.16032 0.38098
 C388 C 0.44623 0.16785 0.37179
 C389 C 0.43910 0.19761 0.36627
 C390 C 0.45998 0.21999 0.37121
 H391 H 0.54337 0.21580 0.36174
 H392 H 0.48050 0.25974 0.41368
 H393 H 0.51739 0.17770 0.38924
 H394 H 0.45456 0.24320 0.36879
 H395 H 0.56710 0.29602 0.40593
 H396 H 0.42988 0.15058 0.36929
 C397 C 1.02769 0.23786 0.64796
 C398 C 1.00533 0.23150 0.62945
 C399 C 1.00408 0.20387 0.61608
 C400 C 1.02589 0.18235 0.62022
 C401 C 1.04845 0.18920 0.63896
 C402 C 1.04926 0.21686 0.65283
 C403 C 0.98316 0.25393 0.62381
 C404 C 0.99067 0.27925 0.60868
 C405 C 0.96996 0.30124 0.60346
 C406 C 0.94121 0.29723 0.61383
 C407 C 0.93330 0.27151 0.62872
 C408 C 0.95455 0.24970 0.63319
 H409 H 1.02838 0.25928 0.65848
 H410 H 0.98565 0.19979 0.60286
 H411 H 1.01292 0.28180 0.60112
 H412 H 0.94936 0.22922 0.64379
 H413 H 1.06539 0.17311 0.64285
 H414 H 0.92451 0.31342 0.60973
 C415 C 0.53925 0.75686 0.13806
 C416 C 0.51394 0.74709 0.12497
 C417 C 0.51235 0.71799 0.11445
 C418 C 0.53628 0.69865 0.11633
 C419 C 0.56158 0.70882 0.12975
 C420 C 0.56301 0.73789 0.14083
 C421 C 0.48818 0.76645 0.12473
 C422 C 0.48992 0.79530 0.11405
 C423 C 0.46546 0.81421 0.11485
 C424 C 0.43950 0.80385 0.12760
 C425 C 0.43812 0.77516 0.13911
 C426 C 0.46234 0.75663 0.13722
 H427 H 0.54000 0.77901 0.14712
 H428 H 0.49201 0.71052 0.10563
 H429 H 0.51068 0.80278 0.10579
 H430 H 0.46146 0.73475 0.14654
 H431 H 0.57967 0.69378 0.13240
 H432 H 0.42087 0.81844 0.12950
 O433 O -0.02968 1.00656 0.91696
 O434 O 0.01332 1.03201 0.91165
 O435 O -0.00620 0.92987 0.96560
 O436 O 0.00725 0.91927 1.00795
 O437 O -0.08336 0.98490 0.98518
 O438 O -0.08855 1.02989 1.01153
 O439 O 0.06718 1.00866 1.04133
 O440 O 0.07208 0.96597 1.01361
 O441 O 0.05165 1.08000 0.99129
 O442 O 0.01671 1.09235 0.95580
 O443 O -0.00788 1.06267 1.06039
 O444 O -0.04370 1.02704 1.07062
 O445 O 0.02854 1.02084 1.06924
 O446 O -0.01946 0.98972 1.07515
 O447 O 0.00920 1.09172 1.02516
 O448 O -0.01783 1.10075 0.98045
 O449 O 0.07868 1.03969 1.00250
 O450 O 0.08081 0.99422 0.97158
 O451 O -0.06774 1.02159 0.94439
 O452 O -0.07702 1.05858 0.97952
 O453 O -0.05737 0.94389 0.99639
 O454 O -0.02231 0.93645 1.03632
 O455 O 0.00465 0.95975 0.92887
 O456 O 0.04447 0.99550 0.92364
 Zr457 Zr 0.00458 1.00313 0.94540
 O458 O 0.03225 1.02989 0.96973
 Zr459 Zr -0.01362 0.95974 0.99901
 O460 O 0.01476 0.98400 1.02526
 Zr461 Zr -0.05255 1.01951 0.98540
 O462 O -0.02719 1.04607 1.01211
 Zr463 Zr 0.04851 1.00419 1.00216
 O464 O 0.02273 0.97651 0.97656
 Zr465 Zr 0.00852 1.06374 0.98977
 O466 O -0.01857 1.03941 0.96245
 Zr467 Zr -0.00825 1.01975 1.04296
 O468 O -0.03745 0.99392 1.01864
 O469 O -0.03066 0.98415 0.96659
 O470 O 0.02650 1.03916 1.02152
 C471 C -0.05598 1.01569 0.92062
 C472 C 0.00158 0.93413 0.94010
 C473 C -0.08143 0.95715 0.99075
 C474 C 0.05596 1.01642 1.06480
 C475 C 0.07585 1.06745 0.99712
 C476 C 0.00076 1.08762 1.05045
 H477 H 0.04815 1.03785 0.95782
 H478 H -0.03975 1.06174 1.02026
 H479 H -0.04276 0.97179 0.95405
 H480 H 0.02288 0.97088 1.03960
 H481 H 0.06784 0.95052 0.99942
 H482 H 0.02763 0.92448 1.01239
 H483 H -0.03269 1.10283 0.99542
 H484 H -0.06507 1.07162 0.96737
 H485 H 0.10011 0.99632 0.98043
 H486 H 0.04028 0.98753 0.90479
 H487 H -0.05813 1.03885 1.06041
 H488 H -0.08765 1.01636 1.02764
 H489 H 0.00320 1.05093 0.91581
 H490 H 0.03120 1.08249 0.94348
 H491 H -0.03977 0.94561 1.04503
 H492 H -0.00207 0.97775 1.07934
 O493 O 0.48755 0.48213 0.42407
 O494 O 0.53210 0.50646 0.42973
 O495 O 0.49099 0.40732 0.47716
 O496 O 0.49541 0.39738 0.52195
 O497 O 0.41501 0.46635 0.47997
 O498 O 0.40656 0.51366 0.49978
 O499 O 0.54582 0.48411 0.56899
 O500 O 0.55721 0.44133 0.54355
 O501 O 0.54865 0.55548 0.51444
 O502 O 0.52593 0.56722 0.47050
 O503 O 0.47623 0.54271 0.56852
 O504 O 0.43247 0.51091 0.56692
 O505 O 0.50098 0.49657 0.58607
 O506 O 0.45128 0.47326 0.58012
 O507 O 0.50078 0.56971 0.53592
 O508 O 0.48606 0.57818 0.48570
 O509 O 0.56928 0.51473 0.53360
 O510 O 0.57850 0.46846 0.50510
 O511 O 0.44340 0.49798 0.44034
 O512 O 0.42838 0.53903 0.47010
 O513 O 0.43547 0.42491 0.49802
 O514 O 0.45995 0.41528 0.54272
 O515 O 0.51299 0.43567 0.44389
 O516 O 0.55589 0.46727 0.44944
 Zr517 Zr 0.51234 0.47880 0.46016
 O518 O 0.53380 0.50507 0.48992
 Zr519 Zr 0.47839 0.43824 0.50843
 O520 O 0.49933 0.46233 0.54039
 Zr521 Zr 0.44735 0.49923 0.48410
 O522 O 0.46591 0.52583 0.51566
 Zr523 Zr 0.53919 0.48008 0.52611
 O524 O 0.52021 0.45250 0.49535
 Zr525 Zr 0.50719 0.54061 0.50221
 O526 O 0.48724 0.51658 0.46965
 Zr527 Zr 0.47419 0.49979 0.55085
 O528 O 0.45183 0.47416 0.52063
 O529 O 0.47163 0.46222 0.47245
 O530 O 0.51447 0.51662 0.53820
 C531 C 0.46129 0.49081 0.42054
 C532 C 0.50472 0.41067 0.45381
 C533 C 0.41387 0.43917 0.48782
 C534 C 0.52823 0.49103 0.58899
 C535 C 0.56942 0.54236 0.52702
 C536 C 0.48861 0.56664 0.55992
 H537 H 0.55276 0.51187 0.48220
 H538 H 0.45286 0.54260 0.52024
 H539 H 0.46209 0.44987 0.45802
 H540 H 0.50241 0.44926 0.55652
 H541 H 0.55687 0.42583 0.52882
 H542 H 0.51352 0.40228 0.53193
 H543 H 0.46841 0.58213 0.49713
 H544 H 0.44396 0.55013 0.46014
 H545 H 0.59456 0.47024 0.51863
 H546 H 0.55653 0.45981 0.42996
 H547 H 0.42532 0.52811 0.55635
 H548 H 0.40365 0.50371 0.51791
 H549 H 0.52106 0.52530 0.42963
 H550 H 0.54307 0.55650 0.46293
 H551 H 0.44238 0.42643 0.54866
 H552 H 0.46411 0.45667 0.58536
 O553 O 0.45220 -0.07692 0.50624
 O554 O 0.48334 -0.09099 0.47197
 O555 O 0.51439 -0.06595 0.57589
 O556 O 0.54860 -0.03465 0.58890
 O557 O 0.44493 0.00130 0.56133
 O558 O 0.43967 0.03876 0.52810
 O559 O 0.59519 0.00472 0.50201
 O560 O 0.59635 -0.03759 0.52809
 O561 O 0.54127 -0.01125 0.43465
 O562 O 0.49168 -0.03032 0.42862
 O563 O 0.52959 0.06528 0.48292
 O564 O 0.50766 0.07750 0.52648
 O565 O 0.57200 0.04759 0.51422
 O566 O 0.53666 0.06159 0.55294
 O567 O 0.51301 0.03798 0.44635
 O568 O 0.47010 0.00634 0.43833
 O569 O 0.57862 -0.02749 0.46104
 O570 O 0.57740 -0.07019 0.49293
 O571 O 0.42852 -0.03429 0.51853
 O572 O 0.42833 0.01279 0.49413
 O573 O 0.48117 -0.01688 0.58802
 O574 O 0.53099 0.00724 0.59114
 O575 O 0.49510 -0.09346 0.54069
 O576 O 0.52330 -0.10162 0.49631
 Zr577 Zr 0.49645 -0.06466 0.50634
 O578 O 0.52562 -0.04282 0.47918
 Zr579 Zr 0.51645 -0.02275 0.56005
 O580 O 0.54746 -0.00023 0.53537
 Zr581 Zr 0.46174 -0.00168 0.52061
 O582 O 0.49014 0.02293 0.49480
 Zr583 Zr 0.56134 -0.02691 0.50178
 O584 O 0.53344 -0.05112 0.52884
 Zr585 Zr 0.50640 -0.00468 0.46285
 O586 O 0.47577 -0.02864 0.48720
 Zr587 Zr 0.52739 0.03623 0.51682
 O588 O 0.49678 0.01533 0.54378
 O589 O 0.48027 -0.03860 0.53890
 O590 O 0.54322 0.01063 0.48364
 C591 C 0.42898 -0.06193 0.51137
 C592 C 0.50463 -0.09034 0.56557
 C593 C 0.45556 -0.00615 0.58477
 C594 C 0.59504 0.03256 0.50820
 C595 C 0.56727 -0.02111 0.43760
 C596 C 0.52195 0.06234 0.45749
 H597 H 0.53182 -0.05698 0.46445
 H598 H 0.47942 0.04012 0.48749
 H599 H 0.46643 -0.04974 0.55094
 H600 H 0.56407 0.00573 0.54711
 H601 H 0.58943 -0.05405 0.54007
 H602 H 0.56723 -0.03546 0.57839
 H603 H 0.46082 0.02409 0.44679
 H604 H 0.42842 -0.00079 0.47782
 H605 H 0.59795 -0.06832 0.48651
 H606 H 0.51306 -0.12019 0.50186
 H607 H 0.48882 0.07806 0.51675
 H608 H 0.45275 0.05115 0.53967
 H609 H 0.47452 -0.07726 0.45852
 H610 H 0.50292 -0.04902 0.42803
 H611 H 0.51718 0.02407 0.59165
 H612 H 0.55346 0.05236 0.56216
 O613 O -0.04128 0.42456 0.99971
 O614 O -0.00696 0.42189 0.96255
 O615 O 0.01522 0.43637 1.07083
 O616 O 0.04389 0.47033 1.08929
 O617 O -0.06290 0.49242 1.05799
 O618 O -0.06983 0.53562 1.02956
 O619 O 0.08936 0.52698 1.01228
 O620 O 0.09490 0.48168 1.03238
 O621 O 0.04191 0.50842 0.93776
 O622 O -0.00608 0.48486 0.92832
 O623 O 0.01799 0.57898 0.99275
 O624 O -0.00921 0.58356 1.03383
 O625 O 0.05861 0.56388 1.02634
 O626 O 0.01788 0.56749 1.06269
 O627 O 0.00892 0.55405 0.95245
 O628 O -0.02900 0.52104 0.93767
 O629 O 0.08014 0.49783 0.96552
 O630 O 0.08328 0.45183 0.99270
 O631 O -0.07106 0.46263 1.01303
 O632 O -0.07653 0.51123 0.99180
 O633 O -0.02528 0.47912 1.08552
 O634 O 0.02057 0.50874 1.09475
 O635 O 0.00232 0.41083 1.03178
 O636 O 0.03259 0.41167 0.98897
 Zr637 Zr 0.00097 0.44374 1.00095
 O638 O 0.02870 0.47262 0.97854
 Zr639 Zr 0.01212 0.48132 1.05974
 O640 O 0.04068 0.51103 1.03972
 Zr641 Zr -0.04291 0.49913 1.01907
 O642 O -0.01692 0.53032 0.99757
 Zr643 Zr 0.06053 0.49092 1.00485
 O644 O 0.03457 0.45965 1.02699
 Zr645 Zr 0.00520 0.50926 0.96447
 O646 O -0.02350 0.47862 0.98413
 Zr647 Zr 0.01642 0.54606 1.02339
 O648 O -0.01214 0.51791 1.04620
 O649 O -0.02002 0.46340 1.03475
 O650 O 0.03810 0.52722 0.98916
 C651 C -0.06654 0.43550 1.00558
 C652 C 0.00953 0.41225 1.05748
 C653 C -0.05237 0.48441 1.08131
 C654 C 0.08415 0.55345 1.02158
 C655 C 0.06900 0.50283 0.94166
 C656 C 0.01406 0.57795 0.96641
 H657 H 0.03766 0.46109 0.96310
 H658 H -0.02924 0.54673 0.99104
 H659 H -0.03236 0.44890 1.04494
 H660 H 0.05527 0.51782 1.05336
 H661 H 0.08956 0.46301 1.04200
 H662 H 0.06303 0.47401 1.08029
 H663 H -0.04307 0.53306 0.94860
 H664 H -0.07333 0.49975 0.97438
 H665 H 0.10369 0.45743 0.98803
 H666 H 0.02373 0.39155 0.99042
 H667 H -0.02848 0.58060 1.02528
 H668 H -0.06039 0.54607 1.04527
 H669 H -0.02143 0.43390 0.95257
 H670 H 0.00748 0.46791 0.92661
 H671 H 0.00439 0.52315 1.09633
 H672 H 0.03546 0.56044 1.07226
 O673 O -0.01683 0.42248 0.52971
 O674 O -0.04292 0.41632 0.49092
 O675 O 0.06257 0.46630 0.49972
 O676 O 0.07516 0.50913 0.48113
 O677 O 0.01654 0.49730 0.57517
 O678 O -0.02479 0.52746 0.58248
 O679 O -0.00758 0.55105 0.43165
 O680 O 0.02692 0.51465 0.42421
 O681 O -0.08556 0.50916 0.45534
 O682 O -0.09783 0.46902 0.48913
 O683 O -0.05676 0.57944 0.50009
 O684 O -0.02068 0.58664 0.53789
 O685 O -0.01521 0.58284 0.46813
 O686 O 0.01473 0.58952 0.51192
 O687 O -0.09082 0.54295 0.49514
 O688 O -0.10113 0.49621 0.52316
 O689 O -0.04680 0.51449 0.42583
 O690 O -0.00819 0.47513 0.42017
 O691 O -0.02494 0.45464 0.56581
 O692 O -0.05622 0.49529 0.57596
 O693 O 0.05536 0.50297 0.54579
 O694 O 0.06501 0.54184 0.51037
 O695 O 0.02935 0.42923 0.49342
 O696 O -0.00943 0.42580 0.45759
 Zr697 Zr -0.01159 0.45071 0.49528
 O698 O -0.03731 0.47804 0.46997
 Zr699 Zr 0.03708 0.50453 0.50591
 O700 O 0.01424 0.53362 0.48009
 Zr701 Zr -0.01963 0.49731 0.54887
 O702 O -0.04487 0.52709 0.52571
 Zr703 Zr -0.00990 0.50941 0.45073
 O704 O 0.01620 0.48048 0.47402
 Zr705 Zr -0.06651 0.50329 0.49439
 O706 O -0.04352 0.47315 0.51931
 Zr707 Zr -0.01720 0.55647 0.50400
 O708 O 0.00772 0.52945 0.53046
 O709 O 0.01131 0.47311 0.52623
 O710 O -0.04026 0.53385 0.47365
 C711 C -0.02344 0.42837 0.55526
 C712 C 0.05570 0.43911 0.49438
 C713 C 0.04391 0.50079 0.57019
 C714 C -0.01149 0.57706 0.44209
 C715 C -0.07430 0.51404 0.43125
 C716 C -0.08303 0.57044 0.49634
 H717 H -0.04763 0.46588 0.45594
 H718 H -0.05866 0.53775 0.53813
 H719 H 0.02279 0.45936 0.53770
 H720 H 0.02818 0.54724 0.47077
 H721 H 0.03985 0.49757 0.42769
 H722 H 0.06867 0.51490 0.46243
 H723 H -0.10124 0.51302 0.53656
 H724 H -0.07112 0.48313 0.56636
 H725 H -0.01088 0.48442 0.40176
 H726 H -0.00182 0.40567 0.46150
 H727 H -0.03811 0.58101 0.54900
 H728 H -0.01300 0.54525 0.57775
 H729 H -0.06161 0.42450 0.49792
 H730 H -0.09238 0.45748 0.47227
 H731 H 0.05726 0.55384 0.52612
 H732 H 0.02911 0.58904 0.49642
 O733 O 0.51848 0.91787 0.01433
 O734 O 0.49875 0.90933 -0.02811
 O735 O 0.58763 0.98044 -0.00014
 O736 O 0.59283 1.02439 -0.02055
 O737 O 0.52890 0.99496 0.06724
 O738 O 0.48173 1.01280 0.07227
 O739 O 0.50509 1.05107 -0.07635
 O740 O 0.54959 1.02586 -0.08144
 O741 O 0.43933 0.99223 -0.06155
 O742 O 0.43230 0.94871 -0.03110
 O743 O 0.44860 1.06438 -0.01184
 O744 O 0.47739 1.07692 0.02946
 O745 O 0.49153 1.07934 -0.03887
 O746 O 0.51489 1.08805 0.00871
 O747 O 0.42329 1.02206 -0.02178
 O748 O 0.42083 0.97200 0.00416
 O749 O 0.47837 1.00735 -0.08755
 O750 O 0.52551 0.97867 -0.09055
 O751 O 0.49972 0.94375 0.05134
 O752 O 0.45806 0.97625 0.05919
 O753 O 0.56768 1.01265 0.04234
 O754 O 0.57282 1.05412 0.00862
 O755 O 0.56525 0.93727 -0.01295
 O756 O 0.53412 0.92939 -0.05566
 Zr757 Zr 0.52068 0.94925 -0.01747
 O758 O 0.49158 0.97163 -0.04374
 Zr759 Zr 0.55420 1.01175 0.00072
 O760 O 0.52854 1.03654 -0.02651
 Zr761 Zr 0.49654 0.98826 0.03727
 O762 O 0.46830 1.01399 0.01302
 Zr763 Zr 0.51296 1.00948 -0.05904
 O764 O 0.54293 0.98596 -0.03442
 Zr765 Zr 0.45538 0.98821 -0.02121
 O766 O 0.48206 0.96173 0.00410
 Zr767 Zr 0.49110 1.05018 -0.00463
 O768 O 0.51787 1.02725 0.02336
 O769 O 0.53409 0.97398 0.01682
 O770 O 0.47629 1.02504 -0.03791
 C771 C 0.50857 0.91960 0.03936
 C772 C 0.58795 0.95262 -0.00605
 C773 C 0.55490 1.00559 0.06526
 C774 C 0.49639 1.07543 -0.06509
 C775 C 0.45115 1.00107 -0.08433
 C776 C 0.42534 1.05051 -0.01882
 H777 H 0.48557 0.95839 -0.05918
 H778 H 0.45140 1.02059 0.02436
 H779 H 0.54674 0.96256 0.02933
 H780 H 0.53992 1.05352 -0.03393
 H781 H 0.56579 1.01200 -0.07791
 H782 H 0.58688 1.03127 -0.03909
 H783 H 0.41504 0.98807 0.01724
 H784 H 0.44868 0.96015 0.04831
 H785 H 0.52283 0.98842 -0.10875
 H786 H 0.54556 0.91134 -0.05157
 H787 H 0.46134 1.06631 0.03915
 H788 H 0.48770 1.03367 0.06894
 H789 H 0.47822 0.91196 -0.02211
 H790 H 0.44247 0.93905 -0.04699
 H791 H 0.56191 1.06294 0.02451
 H792 H 0.52959 1.09275 -0.00585
 O793 O 0.41683 0.52955 0.00809
 O794 O 0.41208 0.48341 -0.01212
 O795 O 0.47540 0.51551 0.07582
 O796 O 0.52128 0.50556 0.08287
 O797 O 0.48781 0.59026 0.01659
 O798 O 0.50843 0.59297 -0.02838
 O799 O 0.55234 0.43842 -0.00084
 O800 O 0.52975 0.43536 0.04251
 O801 O 0.49480 0.44578 -0.06179
 O802 O 0.45323 0.47681 -0.07236
 O803 O 0.56400 0.50647 -0.05575
 O804 O 0.57301 0.55144 -0.02833
 O805 O 0.57886 0.47915 -0.01360
 O806 O 0.58379 0.53134 0.00775
 O807 O 0.52427 0.49080 -0.07966
 O808 O 0.47456 0.51371 -0.08462
 O809 O 0.50648 0.42165 -0.02205
 O810 O 0.48219 0.42311 0.02435
 O811 O 0.44088 0.56926 -0.01059
 O812 O 0.47314 0.57630 -0.05048
 O813 O 0.50389 0.56763 0.05563
 O814 O 0.54770 0.53452 0.06188
 O815 O 0.43500 0.50099 0.05229
 O816 O 0.42992 0.45613 0.02337
 Zr817 Zr 0.44904 0.49708 0.01074
 O818 O 0.47390 0.46836 -0.01448
 Zr819 Zr 0.50730 0.52214 0.04434
 O820 O 0.53452 0.49291 0.02149
 Zr821 Zr 0.48506 0.55588 -0.01288
 O822 O 0.51271 0.52945 -0.03818
 Zr823 Zr 0.51088 0.45573 0.00757
 O824 O 0.48486 0.48262 0.03394
 Zr825 Zr 0.49022 0.49060 -0.04970
 O826 O 0.46177 0.51836 -0.02641
 Zr827 Zr 0.54829 0.51414 -0.01515
 O828 O 0.52297 0.54447 0.00887
 O829 O 0.47036 0.53573 0.02355
 O830 O 0.52648 0.47606 -0.02847
 C831 C 0.41761 0.55595 -0.00178
 C832 C 0.44866 0.50673 0.07479
 C833 C 0.49648 0.59076 0.04182
 C834 C 0.57606 0.45109 -0.00894
 C835 C 0.50037 0.42218 -0.04796
 C836 C 0.55153 0.49722 -0.07794
 H837 H 0.46159 0.45104 -0.01943
 H838 H 0.51919 0.54097 -0.05456
 H839 H 0.45781 0.54860 0.03539
 H840 H 0.55112 0.48662 0.03292
 H841 H 0.51725 0.44055 0.05874
 H842 H 0.52575 0.48433 0.07966
 H843 H 0.48835 0.53011 -0.08878
 H844 H 0.45869 0.56298 -0.05936
 H845 H 0.49198 0.40355 0.02301
 H846 H 0.41065 0.46006 0.03221
 H847 H 0.56212 0.56117 -0.04332
 H848 H 0.52801 0.59217 -0.02002
 H849 H 0.41413 0.49210 -0.03090
 H850 H 0.44248 0.46213 -0.06089
 H851 H 0.55516 0.55173 0.05118
 H852 H 0.58853 0.51685 0.02237
 O853 O -0.03509 0.01380 0.55572
 O854 O 0.00735 -0.00808 0.56526
 O855 O -0.00834 0.08922 0.50468
 O856 O 0.01771 0.09580 0.46577
 O857 O -0.08108 0.03670 0.47953
 O858 O -0.08614 -0.01102 0.45849
 O859 O 0.07244 0.00527 0.43702
 O860 O 0.07740 0.04823 0.46471
 O861 O 0.04856 -0.06444 0.48720
 O862 O 0.01121 -0.07140 0.52503
 O863 O 0.00023 -0.04884 0.41685
 O864 O -0.03722 -0.01349 0.40401
 O865 O 0.03538 -0.00651 0.40780
 O866 O -0.01063 0.02156 0.39691
 O867 O 0.00904 -0.07600 0.45549
 O868 O -0.02225 -0.08079 0.49913
 O869 O 0.07890 -0.02564 0.47754
 O870 O 0.08145 0.02022 0.50726
 O871 O -0.07178 0.00119 0.52633
 O872 O -0.08023 -0.03628 0.49293
 O873 O -0.05068 0.07495 0.46824
 O874 O -0.01134 0.08064 0.43421
 O875 O -0.00089 0.06216 0.54371
 O876 O 0.03986 0.02705 0.55211
 Zr877 Zr 0.00156 0.01780 0.52919
 O878 O 0.03027 -0.01153 0.50819
 Zr879 Zr -0.00858 0.05769 0.47236
 O880 O 0.02039 0.03080 0.44916
 Zr881 Zr -0.05255 0.00076 0.48623
 O882 O -0.02600 -0.02874 0.46306
 Zr883 Zr 0.05094 0.01123 0.47544
 O884 O 0.02442 0.04153 0.49814
 Zr885 Zr 0.00667 -0.04563 0.48869
 O886 O -0.02173 -0.01853 0.51246
 Zr887 Zr -0.00302 -0.00510 0.43216
 O888 O -0.03253 0.02357 0.45300
 O889 O -0.03072 0.03624 0.50461
 O890 O 0.02870 -0.02389 0.45680
 C891 C -0.06142 0.00546 0.55079
 C892 C -0.00435 0.08686 0.53092
 C893 C -0.07614 0.06346 0.47130
 C894 C 0.06249 -0.00216 0.41309
 C895 C 0.07386 -0.05338 0.48188
 C896 C 0.00605 -0.07323 0.42915
 H897 H 0.04470 -0.01945 0.52127
 H898 H -0.03819 -0.04475 0.45504
 H899 H -0.04422 0.04926 0.51527
 H900 H 0.03032 0.04278 0.43468
 H901 H 0.07323 0.06395 0.47871
 H902 H 0.03654 0.08873 0.45812
 H903 H -0.03553 -0.08396 0.48332
 H904 H -0.06956 -0.04988 0.50521
 H905 H 0.10125 0.01727 0.49926
 H906 H 0.03441 0.03731 0.56976
 H907 H -0.05010 -0.02878 0.41239
 H908 H -0.08173 -0.00068 0.44081
 H909 H 0.00059 -0.02841 0.56056
 H910 H 0.02857 -0.06405 0.53500
 H911 H -0.02580 0.06984 0.42277
 H912 H 0.00541 0.03627 0.39539
 O913 O 0.72534 0.15526 0.25226
 O914 O 0.76959 0.15798 0.22833
 O915 O 0.73772 0.21179 0.32337
 O916 O 0.74490 0.25940 0.33299
 O917 O 0.65914 0.22019 0.27085
 O918 O 0.65084 0.24200 0.22771
 O919 O 0.79637 0.30602 0.25139
 O920 O 0.80746 0.27750 0.29008
 O921 O 0.79171 0.24926 0.18290
 O922 O 0.76562 0.20268 0.17251
 O923 O 0.73144 0.31183 0.19982
 O924 O 0.68289 0.31014 0.22779
 O925 O 0.75213 0.32735 0.24464
 O926 O 0.70233 0.32406 0.26354
 O927 O 0.74648 0.27416 0.17143
 O928 O 0.72620 0.22160 0.16406
 O929 O 0.81602 0.26597 0.22096
 O930 O 0.82417 0.23532 0.26331
 O931 O 0.68243 0.17620 0.23964
 O932 O 0.66924 0.20919 0.20222
 O933 O 0.68302 0.23568 0.30958
 O934 O 0.71021 0.28272 0.31807
 O935 O 0.75462 0.17429 0.29567
 O936 O 0.79672 0.17732 0.26367
 Zr937 Zr 0.75378 0.19186 0.25533
 O938 O 0.77687 0.22247 0.23039
 Zr939 Zr 0.72576 0.24543 0.29534
 O940 O 0.74852 0.27821 0.27267
 Zr941 Zr 0.69064 0.22241 0.23901
 O942 O 0.71098 0.25499 0.21386
 Zr943 Zr 0.78647 0.26042 0.25436
 O944 O 0.76577 0.22865 0.28022
 Zr945 Zr 0.75033 0.23774 0.19833
 O946 O 0.72848 0.20420 0.22109
 Zr947 Zr 0.72341 0.29145 0.23868
 O948 O 0.69929 0.26070 0.26308
 O949 O 0.71491 0.20778 0.27250
 O950 O 0.76180 0.27515 0.22142
 C951 C 0.69846 0.15365 0.24524
 C952 C 0.74890 0.18584 0.31958
 C953 C 0.65999 0.22704 0.29677
 C954 C 0.77978 0.32867 0.24807
 C955 C 0.81417 0.26029 0.19478
 C956 C 0.74072 0.30165 0.17627
 H957 H 0.79487 0.21307 0.22311
 H958 H 0.69797 0.26104 0.19874
 H959 H 0.70465 0.19290 0.28419
 H960 H 0.75324 0.29495 0.28533
 H961 H 0.80606 0.26184 0.30441
 H962 H 0.76382 0.26857 0.32789
 H963 H 0.71006 0.23556 0.16072
 H964 H 0.68329 0.19706 0.19131
 H965 H 0.84137 0.24861 0.26125
 H966 H 0.79582 0.15670 0.27086
 H967 H 0.67925 0.30544 0.20800
 H968 H 0.65128 0.26251 0.23530
 H969 H 0.75870 0.15951 0.21077
 H970 H 0.78303 0.19425 0.18135
 H971 H 0.69225 0.28938 0.30885
 H972 H 0.71372 0.32644 0.28074
 O973 O 0.75839 0.69127 0.68887
 O974 O 0.80246 0.68221 0.70802
 O975 O 0.70043 0.69191 0.76189
 O976 O 0.69447 0.71833 0.80051
 O977 O 0.69372 0.75947 0.69847
 O978 O 0.72081 0.80372 0.68898
 O979 O 0.78700 0.76872 0.82439
 O980 O 0.76573 0.72314 0.82888
 O981 O 0.84492 0.76598 0.75711
 O982 O 0.84264 0.74895 0.70921
 O983 O 0.78488 0.83480 0.76160
 O984 O 0.73561 0.84148 0.75364
 O985 O 0.76582 0.81078 0.80833
 O986 O 0.71635 0.82037 0.78565
 O987 O 0.82085 0.81374 0.73532
 O988 O 0.82224 0.78295 0.69202
 O989 O 0.82773 0.74516 0.79704
 O990 O 0.80135 0.69740 0.80075
 O991 O 0.73729 0.73290 0.67169
 O992 O 0.75617 0.78360 0.66819
 O993 O 0.67654 0.74148 0.73965
 O994 O 0.68267 0.76094 0.78794
 O995 O 0.73564 0.66941 0.73558
 O996 O 0.78787 0.66698 0.75081
 Zr997 Zr 0.76782 0.70286 0.73014
 O998 O 0.79964 0.72782 0.75136
 Zr999 Zr 0.71371 0.73658 0.76426
 O1000 O 0.74331 0.76155 0.78798
 Zr1001 Zr 0.73878 0.76422 0.70478
 O1002 O 0.76859 0.79173 0.72608
 Zr1003 Zr 0.78309 0.73921 0.79080
 O1004 O 0.75199 0.71205 0.77061
 Zr1005 Zr 0.80775 0.76870 0.73173
 O1006 O 0.77870 0.74193 0.70819
 Zr1007 Zr 0.75365 0.80090 0.76684
 O1008 O 0.72165 0.77712 0.74394
 O1009 O 0.72857 0.72475 0.72475
 O1010 O 0.79340 0.77967 0.77183
 C1011 C 0.74656 0.70599 0.66928
 C1012 C 0.71134 0.66923 0.74929
 C1013 C 0.67304 0.75055 0.71469
 C1014 C 0.77815 0.79554 0.82748
 C1015 C 0.84840 0.75542 0.78161
 C1016 C 0.80897 0.83606 0.74782
 H1017 H 0.81752 0.71581 0.75284
 H1018 H 0.77149 0.81013 0.71525
 H1019 H 0.71438 0.71249 0.71432
 H1020 H 0.73467 0.76533 0.80661
 H1021 H 0.75459 0.70483 0.82439
 H1022 H 0.70904 0.72032 0.81536
 H1023 H 0.81029 0.80023 0.68681
 H1024 H 0.77395 0.77229 0.66320
 H1025 H 0.81207 0.69965 0.81843
 H1026 H 0.78215 0.64810 0.74151
 H1027 H 0.73746 0.84185 0.73314
 H1028 H 0.70896 0.81255 0.70425
 H1029 H 0.81218 0.69800 0.69701
 H1030 H 0.84660 0.72944 0.71766
 H1031 H 0.67782 0.77881 0.77708
 H1032 H 0.71281 0.81041 0.80366
 O1033 O 0.23954 0.18472 0.80410
 O1034 O 0.20353 0.17421 0.77145
 O1035 O 0.31465 0.20307 0.75000
 O1036 O 0.32946 0.23741 0.72022
 O1037 O 0.29221 0.26346 0.82095
 O1038 O 0.25504 0.30015 0.82706
 O1039 O 0.24388 0.27899 0.67513
 O1040 O 0.27144 0.23701 0.67247
 O1041 O 0.16759 0.25346 0.72096
 O1042 O 0.15957 0.23143 0.76825
 O1043 O 0.21407 0.33350 0.74484
 O1044 O 0.25727 0.34478 0.76637
 O1045 O 0.25066 0.32016 0.70223
 O1046 O 0.28819 0.33175 0.73983
 O1047 O 0.17523 0.30237 0.75036
 O1048 O 0.16334 0.27040 0.78809
 O1049 O 0.19954 0.24574 0.68516
 O1050 O 0.23282 0.20309 0.68448
 O1051 O 0.24874 0.22567 0.83092
 O1052 O 0.22009 0.27081 0.83437
 O1053 O 0.32312 0.24938 0.78598
 O1054 O 0.32998 0.27776 0.74167
 O1055 O 0.27705 0.17306 0.76348
 O1056 O 0.23357 0.16600 0.73424
 Zr1057 Zr 0.24057 0.20120 0.76312
 O1058 O 0.21418 0.22471 0.73546
 Zr1059 Zr 0.29691 0.24611 0.75064
 O1060 O 0.27290 0.27108 0.72230
 Zr1061 Zr 0.25086 0.26120 0.80250
 O1062 O 0.22494 0.28720 0.77637
 Zr1063 Zr 0.24020 0.24469 0.70449
 O1064 O 0.26658 0.21851 0.73038
 Zr1065 Zr 0.19395 0.26033 0.75615
 O1066 O 0.21777 0.23481 0.78489
 Zr1067 Zr 0.25034 0.30490 0.74374
 O1068 O 0.27712 0.28191 0.77204
 O1069 O 0.27251 0.22671 0.78229
 O1070 O 0.21815 0.27981 0.72400
 C1071 C 0.24360 0.19767 0.82771
 C1072 C 0.30381 0.17762 0.75649
 C1073 C 0.31764 0.25721 0.81124
 C1074 C 0.24865 0.30703 0.67844
 C1075 C 0.17367 0.24784 0.69526
 C1076 C 0.18660 0.32832 0.74747
 H1077 H 0.19994 0.21061 0.72735
 H1078 H 0.21567 0.30306 0.78768
 H1079 H 0.28463 0.21472 0.79481
 H1080 H 0.28642 0.27896 0.70796
 H1081 H 0.28315 0.21978 0.67829
 H1082 H 0.32041 0.24046 0.70194
 H1083 H 0.17304 0.28387 0.80146
 H1084 H 0.20349 0.25697 0.83165
 H1085 H 0.22838 0.20686 0.66468
 H1086 H 0.23771 0.14682 0.74342
 H1087 H 0.24814 0.34212 0.78493
 H1088 H 0.26964 0.31291 0.81752
 H1089 H 0.19049 0.18577 0.78396
 H1090 H 0.15982 0.21414 0.75541
 H1091 H 0.32842 0.29365 0.75596
 H1092 H 0.29919 0.32485 0.72319
 O1093 O 0.21710 0.73777 0.33025
 O1094 O 0.24950 0.69755 0.32691
 O1095 O 0.26640 0.81326 0.30574
 O1096 O 0.29699 0.82436 0.26601
 O1097 O 0.18339 0.79747 0.26999
 O1098 O 0.16605 0.76579 0.23378
 O1099 O 0.32206 0.74240 0.20979
 O1100 O 0.34131 0.76091 0.24911
 O1101 O 0.27655 0.66543 0.23594
 O1102 O 0.23739 0.65569 0.26864
 O1103 O 0.24022 0.72052 0.17715
 O1104 O 0.21427 0.76857 0.17948
 O1105 O 0.28603 0.75580 0.18053
 O1106 O 0.24941 0.79440 0.18176
 O1107 O 0.23499 0.67938 0.20392
 O1108 O 0.20363 0.66874 0.24607
 O1109 O 0.31735 0.69371 0.24123
 O1110 O 0.33318 0.73146 0.27980
 O1111 O 0.18031 0.74808 0.30049
 O1112 O 0.16286 0.72708 0.25711
 O1113 O 0.22372 0.82716 0.27130
 O1114 O 0.26358 0.83532 0.23890
 O1115 O 0.26080 0.77201 0.33252
 O1116 O 0.29134 0.72673 0.32660
 Zr1117 Zr 0.25362 0.73723 0.30372
 O1118 O 0.27344 0.71048 0.27284
 Zr1119 Zr 0.25883 0.79783 0.26488
 O1120 O 0.27953 0.77391 0.23265
 Zr1121 Zr 0.19992 0.75484 0.26117
 O1122 O 0.21778 0.72953 0.22824
 Zr1123 Zr 0.30149 0.73706 0.24869
 O1124 O 0.28399 0.76346 0.28152
 Zr1125 Zr 0.24224 0.69472 0.24465
 O1126 O 0.22175 0.71821 0.27770
 Zr1127 Zr 0.24829 0.75525 0.20589
 O1128 O 0.22746 0.78198 0.23668
 O1129 O 0.22998 0.77266 0.28845
 O1130 O 0.27186 0.71907 0.22046
 C1131 C 0.19022 0.74212 0.32476
 C1132 C 0.26539 0.80001 0.32934
 C1133 C 0.19600 0.82288 0.27274
 C1134 C 0.31285 0.75096 0.18603
 C1135 C 0.30425 0.66880 0.23681
 C1136 C 0.23514 0.69258 0.18038
 H1137 H 0.28388 0.69416 0.28199
 H1138 H 0.20185 0.72214 0.21637
 H1139 H 0.22037 0.78445 0.30336
 H1140 H 0.29302 0.78764 0.22289
 H1141 H 0.33646 0.78208 0.24641
 H1142 H 0.31149 0.81310 0.27668
 H1143 H 0.19003 0.67681 0.23228
 H1144 H 0.16729 0.70836 0.26683
 H1145 H 0.33041 0.71140 0.28774
 H1146 H 0.28670 0.72903 0.34671
 H1147 H 0.19765 0.75478 0.18233
 H1148 H 0.17437 0.78039 0.22054
 H1149 H 0.23331 0.68599 0.31864
 H1150 H 0.25296 0.65576 0.28266
 H1151 H 0.24749 0.83431 0.22540
 H1152 H 0.26621 0.80649 0.18798
 O1153 O 0.21598 0.65823 0.75300
 O1154 O 0.25863 0.65336 0.72826
 O1155 O 0.23602 0.71642 0.82071
 O1156 O 0.24789 0.76285 0.82871
 O1157 O 0.15855 0.73048 0.76863
 O1158 O 0.15200 0.75207 0.72502
 O1159 O 0.30653 0.79621 0.74391
 O1160 O 0.31339 0.76962 0.78394
 O1161 O 0.29231 0.73968 0.67838
 O1162 O 0.26066 0.69750 0.66908
 O1163 O 0.23563 0.81020 0.69342
 O1164 O 0.19491 0.81933 0.72397
 O1165 O 0.26651 0.82361 0.73381
 O1166 O 0.21682 0.82784 0.75987
 O1167 O 0.24907 0.77053 0.66673
 O1168 O 0.22332 0.72005 0.66144
 O1169 O 0.31966 0.75204 0.71593
 O1170 O 0.32299 0.72335 0.76032
 O1171 O 0.17596 0.68312 0.73833
 O1172 O 0.16654 0.71719 0.69987
 O1173 O 0.18422 0.74602 0.80627
 O1174 O 0.21796 0.79038 0.81153
 O1175 O 0.24882 0.67588 0.79485
 O1176 O 0.28941 0.67084 0.76131
 Zr1177 Zr 0.24851 0.69080 0.75353
 O1178 O 0.27473 0.71662 0.72684
 Zr1179 Zr 0.22778 0.74960 0.79132
 O1180 O 0.25510 0.77757 0.76744
 Zr1181 Zr 0.18953 0.72828 0.73638
 O1182 O 0.21355 0.75733 0.71032
 Zr1183 Zr 0.28971 0.75350 0.74941
 O1184 O 0.26513 0.72670 0.77686
 Zr1185 Zr 0.24996 0.73451 0.69460
 O1186 O 0.22461 0.70480 0.71889
 Zr1187 Zr 0.23132 0.79284 0.73354
 O1188 O 0.20310 0.76648 0.75859
 O1189 O 0.21220 0.71240 0.77032
 O1190 O 0.26685 0.77074 0.71618
 C1191 C 0.18932 0.65926 0.74550
 C1192 C 0.24483 0.68943 0.81815
 C1193 C 0.16033 0.73874 0.79413
 C1194 C 0.29410 0.82061 0.73757
 C1195 C 0.31653 0.74644 0.68987
 C1196 C 0.24355 0.79833 0.67026
 H1197 H 0.29106 0.70438 0.71970
 H1198 H 0.20102 0.76455 0.69527
 H1199 H 0.20048 0.69944 0.78277
 H1200 H 0.26256 0.79406 0.77913
 H1201 H 0.30919 0.75584 0.79945
 H1202 H 0.26840 0.76743 0.82379
 H1203 H 0.20861 0.73557 0.65816
 H1204 H 0.17827 0.70205 0.68981
 H1205 H 0.34204 0.73341 0.75729
 H1206 H 0.28610 0.65111 0.76996
 H1207 H 0.18267 0.80772 0.71100
 H1208 H 0.15383 0.77200 0.73373
 H1209 H 0.24870 0.65614 0.71033
 H1210 H 0.27552 0.68589 0.67890
 H1211 H 0.20003 0.79809 0.80301
 H1212 H 0.23282 0.83302 0.77266
 O1213 O 0.20557 0.26206 0.19014
 O1214 O 0.23283 0.30579 0.18555
 O1215 O 0.26757 0.19291 0.19426
 O1216 O 0.30730 0.18272 0.21936
 O1217 O 0.19887 0.19580 0.25567
 O1218 O 0.18797 0.22536 0.29456
 O1219 O 0.34261 0.26954 0.27301
 O1220 O 0.34828 0.24940 0.22992
 O1221 O 0.28248 0.33863 0.26800
 O1222 O 0.23613 0.34551 0.25038
 O1223 O 0.27317 0.27608 0.32995
 O1224 O 0.25469 0.22706 0.33398
 O1225 O 0.31890 0.24826 0.30975
 O1226 O 0.28605 0.20319 0.31586
 O1227 O 0.25242 0.31648 0.31038
 O1228 O 0.20964 0.32445 0.27755
 O1229 O 0.32306 0.31675 0.24973
 O1230 O 0.32701 0.28947 0.20497
 O1231 O 0.18069 0.24338 0.22754
 O1232 O 0.17529 0.26418 0.27502
 O1233 O 0.23864 0.17254 0.23718
 O1234 O 0.28796 0.17013 0.25903
 O1235 O 0.25053 0.23392 0.17246
 O1236 O 0.27609 0.28379 0.17289
 Zr1237 Zr 0.24820 0.26664 0.20450
 O1238 O 0.27289 0.29490 0.23035
 Zr1239 Zr 0.27116 0.20601 0.23608
 O1240 O 0.29840 0.23167 0.26181
 Zr1241 Zr 0.21179 0.24050 0.25949
 O1242 O 0.23625 0.26623 0.28760
 Zr1243 Zr 0.31010 0.27210 0.24286
 O1244 O 0.28655 0.24420 0.21510
 Zr1245 Zr 0.25040 0.30507 0.26759
 O1246 O 0.22379 0.28041 0.23987
 Zr1247 Zr 0.27499 0.24428 0.29772
 O1248 O 0.24813 0.21638 0.27304
 O1249 O 0.23406 0.22782 0.22366
 O1250 O 0.28856 0.28417 0.27980
 C1251 C 0.18238 0.25214 0.20208
 C1252 C 0.25831 0.20641 0.17270
 C1253 C 0.21208 0.17278 0.24607
 C1254 C 0.34197 0.25827 0.29746
 C1255 C 0.30910 0.33936 0.25948
 C1256 C 0.26244 0.30233 0.33133
 H1257 H 0.27824 0.31302 0.21990
 H1258 H 0.22400 0.27051 0.30419
 H1259 H 0.22190 0.21511 0.21153
 H1260 H 0.31581 0.21980 0.26611
 H1261 H 0.34331 0.23842 0.21267
 H1262 H 0.32494 0.19359 0.22533
 H1263 H 0.20188 0.31449 0.29438
 H1264 H 0.17338 0.28212 0.26339
 H1265 H 0.34662 0.29794 0.20855
 H1266 H 0.26668 0.28051 0.15465
 H1267 H 0.23476 0.23523 0.33504
 H1268 H 0.20157 0.21309 0.30535
 H1269 H 0.21911 0.31516 0.19899
 H1270 H 0.24266 0.34570 0.23070
 H1271 H 0.27410 0.16637 0.27458
 H1272 H 0.30410 0.19605 0.30660
 O1273 O 0.81991 0.70389 0.26596
 O1274 O 0.83525 0.73162 0.22776
 O1275 O 0.79023 0.76750 0.32623
 O1276 O 0.75823 0.80472 0.32836
 O1277 O 0.73748 0.69135 0.30694
 O1278 O 0.70534 0.67953 0.26920
 O1279 O 0.72920 0.83776 0.23565
 O1280 O 0.76563 0.84616 0.26658
 O1281 O 0.76067 0.77863 0.17481
 O1282 O 0.78540 0.73041 0.17627
 O1283 O 0.68009 0.76127 0.21274
 O1284 O 0.66223 0.74339 0.25427
 O1285 O 0.68790 0.81058 0.24356
 O1286 O 0.67085 0.77549 0.28209
 O1287 O 0.71457 0.74529 0.18184
 O1288 O 0.75029 0.70472 0.18238
 O1289 O 0.76734 0.82073 0.20050
 O1290 O 0.80413 0.82728 0.23771
 O1291 O 0.77885 0.67543 0.27041
 O1292 O 0.73748 0.66691 0.24030
 O1293 O 0.74511 0.73340 0.33251
 O1294 O 0.71673 0.78083 0.32805
 O1295 O 0.82532 0.75319 0.29512
 O1296 O 0.83901 0.77629 0.25009
 Zr1297 Zr 0.80375 0.74644 0.25722
 O1298 O 0.78503 0.77078 0.22490
 Zr1299 Zr 0.75220 0.76686 0.30267
 O1300 O 0.73213 0.79301 0.27243
 Zr1301 Zr 0.74391 0.70518 0.26535
 O1302 O 0.72248 0.72852 0.23387
 Zr1303 Zr 0.76245 0.80699 0.24207
 O1304 O 0.78348 0.78432 0.27457
 Zr1305 Zr 0.75309 0.74525 0.20490
 O1306 O 0.77439 0.71930 0.23503
 Zr1307 Zr 0.70223 0.76666 0.25049
 O1308 O 0.72022 0.74084 0.28280
 O1309 O 0.77431 0.73036 0.28669
 O1310 O 0.73121 0.78259 0.22027
 C1311 C 0.80674 0.67898 0.27016
 C1312 C 0.81660 0.76120 0.31958
 C1313 C 0.73961 0.70543 0.33023
 C1314 C 0.70146 0.83514 0.23841
 C1315 C 0.76621 0.80664 0.17720
 C1316 C 0.68826 0.75180 0.18858
 H1317 H 0.80055 0.77750 0.21190
 H1318 H 0.70823 0.71493 0.22512
 H1319 H 0.78413 0.71893 0.30131
 H1320 H 0.72274 0.81014 0.28182
 H1321 H 0.77983 0.84197 0.28136
 H1322 H 0.75355 0.82230 0.31710
 H1323 H 0.73260 0.69410 0.18894
 H1324 H 0.75313 0.66705 0.22594
 H1325 H 0.80156 0.84702 0.22905
 H1326 H 0.85686 0.76783 0.25825
 H1327 H 0.66637 0.72221 0.25036
 H1328 H 0.69138 0.69168 0.28022
 H1329 H 0.82527 0.71732 0.21531
 H1330 H 0.80270 0.74342 0.17832
 H1331 H 0.70174 0.76493 0.32723
 H1332 H 0.67619 0.79459 0.29108
 O1333 O 0.77167 0.31938 0.80997
 O1334 O 0.81294 0.31803 0.78114
 O1335 O 0.69996 0.32043 0.75422
 O1336 O 0.68480 0.29337 0.71769
 O1337 O 0.69914 0.25991 0.82207
 O1338 O 0.72222 0.21334 0.83013
 O1339 O 0.75765 0.22454 0.68084
 O1340 O 0.74360 0.27258 0.67556
 O1341 O 0.83122 0.22746 0.73350
 O1342 O 0.84108 0.24877 0.77935
 O1343 O 0.76343 0.16697 0.74868
 O1344 O 0.71562 0.17010 0.77122
 O1345 O 0.73660 0.18807 0.70703
 O1346 O 0.69383 0.18788 0.73976
 O1347 O 0.80732 0.18559 0.76177
 O1348 O 0.82193 0.21714 0.80222
 O1349 O 0.80843 0.24526 0.69538
 O1350 O 0.78753 0.29533 0.69163
 O1351 O 0.75009 0.28266 0.83556
 O1352 O 0.76352 0.23095 0.84087
 O1353 O 0.67610 0.27689 0.78378
 O1354 O 0.66779 0.25389 0.73823
 O1355 O 0.74427 0.33960 0.76565
 O1356 O 0.79161 0.33259 0.74117
 Zr1357 Zr 0.77142 0.30214 0.76902
 O1358 O 0.79352 0.27083 0.74388
 Zr1359 Zr 0.70698 0.27435 0.75141
 O1360 O 0.72648 0.24252 0.72511
 Zr1361 Zr 0.74079 0.24845 0.80679
 O1362 O 0.76139 0.21492 0.78297
 Zr1363 Zr 0.76706 0.25796 0.71049
 O1364 O 0.74580 0.29165 0.73409
 Zr1365 Zr 0.80050 0.23160 0.76606
 O1366 O 0.78144 0.26419 0.79243
 Zr1367 Zr 0.73614 0.20438 0.74810
 O1368 O 0.71359 0.23511 0.77400
 O1369 O 0.73189 0.28702 0.78518
 O1370 O 0.77600 0.21882 0.73173
 C1371 C 0.76221 0.30842 0.83305
 C1372 C 0.71717 0.34227 0.75982
 C1373 C 0.67681 0.27025 0.80968
 C1374 C 0.74512 0.19900 0.68371
 C1375 C 0.83068 0.23459 0.70773
 C1376 C 0.79044 0.16405 0.75461
 H1377 H 0.81197 0.27989 0.73719
 H1378 H 0.76467 0.19735 0.79470
 H1379 H 0.72202 0.30211 0.79698
 H1380 H 0.71319 0.23816 0.70957
 H1381 H 0.73589 0.29249 0.68043
 H1382 H 0.69201 0.28342 0.70056
 H1383 H 0.80942 0.20200 0.81133
 H1384 H 0.78363 0.23895 0.83961
 H1385 H 0.79363 0.28963 0.67246
 H1386 H 0.79162 0.35268 0.74988
 H1387 H 0.72688 0.16724 0.78838
 H1388 H 0.70681 0.20442 0.81844
 H1389 H 0.82099 0.30315 0.79397
 H1390 H 0.84576 0.26637 0.76788
 H1391 H 0.66402 0.23687 0.75074
 H1392 H 0.68657 0.19830 0.72321
 C1393 C 0.08871 1.02584 1.16065
 C1394 C 0.09117 1.03495 1.13431
 C1395 C 0.06897 1.02674 1.11374
 C1396 C 0.07677 1.02232 1.08722
 H1397 H 0.11056 1.04645 1.12701
 H1398 H 0.04648 1.02382 1.12038
 H1399 H 0.07035 1.01149 1.16582
 H1400 H 0.09965 1.02381 1.08141
 C1401 C 0.60659 0.51411 0.65334
 C1402 C 0.57971 0.50316 0.64979
 C1403 C 0.56844 0.49797 0.62163
 C1404 C 0.54001 0.49355 0.61727
 H1405 H 0.56548 0.49927 0.66757
 H1406 H 0.58348 0.49919 0.60409
 H1407 H 0.61966 0.51975 0.63515
 H1408 H 0.52482 0.49390 0.63472
 C1409 C 0.40911 -0.03908 0.67030
 C1410 C 0.41780 -0.01614 0.65480
 C1411 C 0.43774 -0.02039 0.63102
 C1412 C 0.43676 -0.00212 0.60935
 H1413 H 0.40885 0.00579 0.65874
 H1414 H 0.45228 -0.03931 0.63065
 H1415 H 0.41599 -0.06140 0.66475
 H1416 H 0.42050 0.01526 0.60894
 C1417 C -0.07922 0.47404 1.17887
 C1418 C -0.08550 0.46878 1.15235
 C1419 C -0.06452 0.47632 1.13031
 C1420 C -0.07317 0.47939 1.10417
 H1421 H -0.10650 0.45938 1.14686
 H1422 H -0.04178 0.47936 1.13558
 H1423 H -0.05924 0.48560 1.18422
 H1424 H -0.09614 0.47771 1.09932
 C1425 C -0.09946 0.51822 0.33442
 C1426 C -0.10506 0.52947 0.35969
 C1427 C -0.08508 0.52278 0.38233
 C1428 C -0.09442 0.52056 0.40860
 H1429 H -0.12485 0.54162 0.36429
 H1430 H -0.06245 0.51836 0.37707
 H1431 H -0.08090 0.50344 0.33226
 H1432 H -0.11731 0.52365 0.41359
 C1433 C 0.42000 1.01644 -0.17998
 C1434 C 0.41800 1.02354 -0.15297
 C1435 C 0.43968 1.01330 -0.13301
 C1436 C 0.43107 1.00639 -0.10726
 H1437 H 0.39908 1.03502 -0.14470
 H1438 H 0.46242 1.01201 -0.13919
 H1439 H 0.43739 1.00159 -0.18650
 H1440 H 0.40796 1.00646 -0.10217
 C1441 C 0.57498 0.48993 -0.17805
 C1442 C 0.58103 0.48380 -0.15158
 C1443 C 0.56084 0.49129 -0.12852
 C1444 C 0.57057 0.49261 -0.10246
 H1445 H 0.60148 0.47320 -0.14671
 H1446 H 0.53809 0.49537 -0.13280
 H1447 H 0.55569 0.50260 -0.18281
 H1448 H 0.59369 0.49008 -0.09880
 C1449 C 0.08885 -0.01773 0.31541
 C1450 C 0.09687 -0.01827 0.34198
 C1451 C 0.07548 -0.01236 0.36429
 C1452 C 0.08380 -0.00671 0.39034
 H1453 H 0.11943 -0.02218 0.34721
 H1454 H 0.05254 -0.01249 0.35917
 H1455 H 0.06676 -0.01159 0.31028
 H1456 H 0.10680 -0.00583 0.39518
 C1457 C 0.16480 1.11205 1.03437
 C1458 C 0.15041 1.10117 1.01233
 C1459 C 0.12296 1.08431 1.01556
 C1460 C 0.10228 1.08605 0.99633
 H1461 H 0.15795 1.10570 0.99136
 H1462 H 0.11973 1.07033 1.03363
 H1463 H 0.15431 1.11042 1.05466
 H1464 H 0.10460 1.10193 0.97959
 C1465 C 0.64134 0.62155 0.51305
 C1466 C 0.62830 0.60250 0.53048
 C1467 C 0.60229 0.58551 0.52218
 C1468 C 0.59517 0.56005 0.53482
 H1469 H 0.63772 0.59837 0.55065
 H1470 H 0.58941 0.59342 0.50503
 H1471 H 0.63341 0.62374 0.49203
 H1472 H 0.60919 0.55140 0.55080
 C1473 C 0.67840 0.42213 -0.01587
 C1474 C 0.65146 0.42015 -0.02614
 C1475 C 0.62841 0.44088 -0.01711
 C1476 C 0.60087 0.43136 -0.01488
 H1477 H 0.64536 0.40194 -0.03976
 H1478 H 0.63401 0.46375 -0.01217
 H1479 H 0.68217 0.43853 0.00039
 H1480 H 0.59611 0.40795 -0.01816
 C1481 C 0.17719 -0.08065 0.47292
 C1482 C 0.14909 -0.08801 0.47037
 C1483 C 0.12595 -0.06596 0.47562
 C1484 C 0.09823 -0.07455 0.47941
 H1485 H 0.14310 -0.11064 0.46487
 H1486 H 0.13164 -0.04254 0.47605
 H1487 H 0.18300 -0.05866 0.48047
 H1488 H 0.09300 -0.09809 0.47973
 C1489 C 0.33383 -0.09898 0.53866
 C1490 C 0.34993 -0.08743 0.51792
 C1491 C 0.37758 -0.07195 0.52354
 C1492 C 0.40110 -0.07761 0.50780
 H1493 H 0.34441 -0.09155 0.49641
 H1494 H 0.37891 -0.05667 0.54103
 H1495 H 0.34255 -0.09763 0.55952
 H1496 H 0.40007 -0.09490 0.49199
 C1497 C -0.16061 0.39914 1.04137
 C1498 C -0.14139 0.40057 1.02015
 C1499 C -0.11470 0.41888 1.02215
 C1500 C -0.09212 0.41551 1.00443
 H1501 H -0.14563 0.38861 1.00095
 H1502 H -0.11364 0.43573 1.03838
 H1503 H -0.15524 0.40939 1.06115
 H1504 H -0.09212 0.39743 0.98941
 C1505 C -0.18259 0.60972 0.49276
 C1506 C -0.15504 0.61024 0.48310
 C1507 C -0.13378 0.58799 0.49244
 C1508 C -0.10512 0.59349 0.49139
 H1509 H -0.14770 0.62703 0.46857
 H1510 H -0.14175 0.56661 0.49963
 H1511 H -0.18758 0.59434 0.50947
 H1512 H -0.09746 0.61544 0.48553
 C1513 C 0.32423 1.08453 -0.02250
 C1514 C 0.35050 1.08276 -0.03490
 C1515 C 0.37266 1.06135 -0.02570
 C1516 C 0.40061 1.06971 -0.02576
 H1517 H 0.35726 1.09888 -0.05029
 H1518 H 0.36618 1.03954 -0.01839
 H1519 H 0.31996 1.06981 -0.00511
 H1520 H 0.40599 1.09246 -0.03128
 C1521 C 0.04045 1.17149 1.10167
 C1522 C 0.01743 1.15986 1.08849
 C1523 C 0.02043 1.13415 1.06969
 C1524 C -0.00041 1.11336 1.06925
 H1525 H -0.00445 1.16738 1.09322
 H1526 H 0.03991 1.13176 1.05689
 H1527 H 0.06130 1.16052 1.09897
 H1528 H -0.01848 1.11464 1.08395
 C1529 C 0.53832 0.65388 0.59638
 C1530 C 0.51412 0.63718 0.59638
 C1531 C 0.51178 0.61171 0.57731
 C1532 C 0.48990 0.59207 0.57918
 H1533 H 0.49601 0.64225 0.61024
 H1534 H 0.52863 0.60881 0.56149
 H1535 H 0.55679 0.64716 0.58355
 H1536 H 0.47391 0.59378 0.59589
 C1537 C -0.04851 0.67272 0.41298
 C1538 C -0.02837 0.65153 0.41066
 C1539 C -0.02989 0.62490 0.42782
 C1540 C -0.01201 0.60212 0.42299
 H1541 H -0.00976 0.65452 0.39680
 H1542 H -0.04512 0.62432 0.44526
 H1543 H -0.06811 0.66909 0.42533
 H1544 H 0.00195 0.60168 0.40463
 C1545 C 0.48541 1.17839 -0.09385
 C1546 C 0.47614 1.15018 -0.09484
 C1547 C 0.48745 1.12790 -0.07575
 C1548 C 0.48980 1.09970 -0.08410
 H1549 H 0.46120 1.14266 -0.11067
 H1550 H 0.49330 1.13448 -0.05480
 H1551 H 0.50325 1.18377 -0.08005
 H1552 H 0.48559 1.09392 -0.10563
 C1553 C 0.51510 0.35431 -0.12508
 C1554 C 0.49941 0.36081 -0.10225
 C1555 C 0.50081 0.39051 -0.08968
 C1556 C 0.49881 0.39336 -0.06214
 H1557 H 0.48793 0.34373 -0.09071
 H1558 H 0.50497 0.40970 -0.10269
 H1559 H 0.52875 0.37176 -0.13385
 H1560 H 0.49671 0.37367 -0.04936
 C1561 C 0.04868 -0.17015 0.40998
 C1562 C 0.02868 -0.14970 0.40437
 C1563 C 0.02788 -0.12132 0.41938
 C1564 C 0.00958 -0.09994 0.41196
 H1565 H 0.01166 -0.15461 0.38955
 H1566 H 0.04148 -0.11836 0.43750
 H1567 H 0.06680 -0.16479 0.42339
 H1568 H -0.00283 -0.10205 0.39301
 C1569 C 0.46806 -0.18500 0.60015
 C1570 C 0.49010 -0.16579 0.59767
 C1571 C 0.48805 -0.13997 0.57945
 C1572 C 0.50510 -0.11634 0.58367
 H1573 H 0.50957 -0.16861 0.60990
 H1574 H 0.47225 -0.14009 0.56288
 H1575 H 0.44772 -0.18079 0.58970
 H1576 H 0.51954 -0.11579 0.60135
 C1577 C -0.03201 0.32561 1.09913
 C1578 C -0.00754 0.33651 1.08755
 C1579 C -0.00856 0.36300 1.07004
 C1580 C 0.01134 0.38447 1.07296
 H1581 H 0.01367 0.32829 1.09320
 H1582 H -0.02687 0.36603 1.05633
 H1583 H -0.05218 0.33736 1.09545
 H1584 H 0.02787 0.38264 1.08875
 C1585 C 0.76056 0.33440 0.08097
 C1586 C 0.76696 0.33667 0.10801
 C1587 C 0.75434 0.31538 0.12814
 C1588 C 0.74763 0.32349 0.15428
 H1589 H 0.78075 0.35447 0.11566
 H1590 H 0.75125 0.29250 0.12148
 H1591 H 0.74371 0.31853 0.07525
 H1592 H 0.74937 0.34671 0.16028
 C1593 C 0.26478 0.82501 0.57311
 C1594 C 0.26351 0.83207 0.60009
 C1595 C 0.25520 0.80997 0.62120
 C1596 C 0.24791 0.81886 0.64689
 H1597 H 0.26854 0.85461 0.60672
 H1598 H 0.25591 0.78650 0.61594
 H1599 H 0.25767 0.80317 0.56620
 H1600 H 0.24657 0.84248 0.65144
 C1601 C 0.69941 0.68123 0.58086
 C1602 C 0.72316 0.68102 0.59668
 C1603 C 0.72422 0.69746 0.62333
 C1604 C 0.74401 0.69049 0.64231
 H1605 H 0.74182 0.66781 0.59037
 H1606 H 0.70846 0.71482 0.62765
 H1607 H 0.68007 0.69261 0.58840
 H1608 H 0.75844 0.67188 0.63835
 C1609 C 0.23471 0.18408 0.07464
 C1610 C 0.23662 0.17607 0.10124
 C1611 C 0.24466 0.19753 0.12335
 C1612 C 0.25439 0.18764 0.14767
 H1613 H 0.23253 0.15308 0.10680
 H1614 H 0.24174 0.22112 0.12003
 H1615 H 0.24095 0.20641 0.06858
 H1616 H 0.25790 0.16397 0.15003
 C1617 C 0.28240 0.16111 0.91516
 C1618 C 0.25910 0.16476 0.89909
 C1619 C 0.26068 0.18339 0.87397
 C1620 C 0.24257 0.17893 0.85272
 H1621 H 0.23879 0.15356 0.90428
 H1622 H 0.27728 0.20059 0.87261
 H1623 H 0.30326 0.17031 0.90865
 H1624 H 0.22759 0.16022 0.85310
 C1625 C 0.77295 0.67549 0.42198
 C1626 C 0.75095 0.67624 0.40391
 C1627 C 0.75334 0.69378 0.37812
 C1628 C 0.73662 0.68805 0.35604
 H1629 H 0.73121 0.66356 0.40796
 H1630 H 0.76967 0.71128 0.37693
 H1631 H 0.79339 0.68635 0.41663
 H1632 H 0.72191 0.66912 0.35629
 C1633 C 0.22530 0.83990 0.41528
 C1634 C 0.24954 0.83508 0.40018
 C1635 C 0.24895 0.81536 0.37562
 C1636 C 0.26793 0.81855 0.35450
 H1637 H 0.26966 0.84640 0.40547
 H1638 H 0.23171 0.79882 0.37415
 H1639 H 0.20478 0.83048 0.40844
 H1640 H 0.28351 0.83675 0.35462
 C1641 C 0.72426 0.34753 0.92089
 C1642 C 0.74772 0.34324 0.90459
 C1643 C 0.74572 0.32445 0.87946
 C1644 C 0.76475 0.32701 0.85828
 H1645 H 0.76819 0.35412 0.90945
 H1646 H 0.72772 0.30881 0.87792
 H1647 H 0.70340 0.33845 0.91459
 H1648 H 0.78153 0.34406 0.85890
 C1649 C 0.85709 0.40048 0.22744
 C1650 C 0.83160 0.39420 0.23980
 C1651 C 0.82053 0.36355 0.24128
 C1652 C 0.79273 0.35851 0.24820
 H1653 H 0.81802 0.41193 0.24797
 H1654 H 0.83473 0.34521 0.23564
 H1655 H 0.86943 0.38267 0.21766
 H1656 H 0.77838 0.37717 0.25227
 C1657 C 0.32080 0.92547 0.72219
 C1658 C 0.32687 0.89651 0.72135
 C1659 C 0.30489 0.87356 0.72771
 C1660 C 0.31375 0.84609 0.73335
 H1661 H 0.34906 0.88952 0.71696
 H1662 H 0.28192 0.87896 0.72758
 H1663 H 0.29933 0.93281 0.72880
 H1664 H 0.33694 0.84166 0.73411
 C1665 C 0.16992 0.92732 0.26817
 C1666 C 0.16631 0.90143 0.28141
 C1667 C 0.18619 0.87653 0.27571
 C1668 C 0.17713 0.84847 0.27888
 H1669 H 0.14746 0.89735 0.29461
 H1670 H 0.20790 0.88117 0.26765
 H1671 H 0.18755 0.92881 0.25296
 H1672 H 0.15482 0.84407 0.28540
 C1673 C 0.63893 0.41391 0.77620
 C1674 C 0.66533 0.40808 0.76546
 C1675 C 0.67684 0.37761 0.76496
 C1676 C 0.70514 0.37251 0.76019
 H1677 H 0.67885 0.42596 0.75740
 H1678 H 0.66207 0.35919 0.76904
 H1679 H 0.62654 0.39617 0.78603
 H1680 H 0.72009 0.39108 0.75774
 C1681 C 0.67283 0.57660 0.71019
 C1682 C 0.67622 0.59418 0.73249
 C1683 C 0.69634 0.61986 0.73167
 C1684 C 0.69402 0.64162 0.75062
 H1685 H 0.66282 0.59079 0.75092
 H1686 H 0.71194 0.62181 0.71464
 H1687 H 0.68498 0.58169 0.69131
 H1688 H 0.67721 0.64014 0.76663
 C1689 C 0.17124 0.08427 0.20060
 C1690 C 0.17754 0.09936 0.22391
 C1691 C 0.19655 0.12585 0.22395
 C1692 C 0.19509 0.14507 0.24527
 H1693 H 0.16733 0.09291 0.24343
 H1694 H 0.21078 0.13025 0.20627
 H1695 H 0.17942 0.09217 0.18073
 H1696 H 0.17910 0.14156 0.26174
 C1697 C 0.34057 0.08185 0.78771
 C1698 C 0.33806 0.10182 0.76749
 C1699 C 0.31902 0.12780 0.77071
 C1700 C 0.32349 0.15200 0.75527
 H1701 H 0.35062 0.09919 0.74837
 H1702 H 0.30130 0.12714 0.78585
 H1703 H 0.32999 0.08559 0.80771
 H1704 H 0.34239 0.15323 0.74156
 C1705 C 0.82577 0.57245 0.28009
 C1706 C 0.83394 0.60058 0.28481
 C1707 C 0.81466 0.62550 0.27813
 C1708 C 0.82520 0.65319 0.27619
 H1709 H 0.85563 0.60532 0.29243
 H1710 H 0.79181 0.62103 0.27431
 H1711 H 0.80502 0.56790 0.27037
 H1712 H 0.84829 0.65716 0.27914
 C1713 C 0.91758 0.27434 0.17620
 C1714 C 0.89028 0.27759 0.16774
 C1715 C 0.86570 0.27220 0.18678
 C1716 C 0.83925 0.26695 0.17673
 H1717 H 0.88593 0.28257 0.14617
 H1718 H 0.86950 0.27134 0.20898
 H1719 H 0.92164 0.26698 0.19722
 H1720 H 0.83605 0.26652 0.15442
 C1721 C 0.42143 0.74855 0.67028
 C1722 C 0.39407 0.75244 0.66206
 C1723 C 0.36928 0.74781 0.68108
 C1724 C 0.34216 0.74838 0.67148
 H1725 H 0.38983 0.75966 0.64105
 H1726 H 0.37318 0.74463 0.70306
 H1727 H 0.42558 0.73937 0.69062
 H1728 H 0.33858 0.75038 0.64932
 C1729 C 0.40927 0.21966 0.84554
 C1730 C 0.39063 0.24226 0.84431
 C1731 C 0.36455 0.23983 0.82718
 C1732 C 0.34224 0.25850 0.83037
 H1733 H 0.39504 0.26287 0.85538
 H1734 H 0.36379 0.22259 0.81128
 H1735 H 0.40373 0.19843 0.83607
 H1736 H 0.34185 0.27446 0.84737
 C1737 C 0.91551 0.75381 0.35227
 C1738 C 0.88713 0.75278 0.35810
 C1739 C 0.86629 0.76004 0.33647
 C1740 C 0.83785 0.76116 0.34202
 H1741 H 0.87931 0.74486 0.37810
 H1742 H 0.87422 0.76232 0.31523
 H1743 H 0.92303 0.76336 0.33279
 H1744 H 0.82994 0.75992 0.36333
 C1745 C 0.09138 0.74245 0.35961
 C1746 C 0.11945 0.74674 0.36500
 C1747 C 0.14117 0.73860 0.34382
 C1748 C 0.16952 0.74225 0.34817
 H1749 H 0.12617 0.75842 0.38366
 H1750 H 0.13368 0.73211 0.32331
 H1751 H 0.08533 0.72938 0.34148
 H1752 H 0.17739 0.74762 0.36878
 C1753 C 0.57225 0.28342 0.81962
 C1754 C 0.59857 0.28676 0.83061
 C1755 C 0.62470 0.27955 0.81428
 C1756 C 0.65041 0.27575 0.82639
 H1757 H 0.60073 0.29450 0.85192
 H1758 H 0.62277 0.27721 0.79190
 H1759 H 0.56977 0.27369 0.79908
 H1760 H 0.65204 0.27662 0.84885
 C1761 C 0.60277 0.72680 0.64353
 C1762 C 0.60788 0.74063 0.66767
 C1763 C 0.63782 0.74578 0.67704
 C1764 C 0.64325 0.74945 0.70405
 H1765 H 0.58994 0.74604 0.68167
 H1766 H 0.65567 0.74425 0.66210
 H1767 H 0.62103 0.71932 0.63081
 H1768 H 0.62539 0.74886 0.71903
 C1769 C 0.08127 0.22583 0.18168
 C1770 C 0.10855 0.23093 0.17327
 C1771 C 0.13168 0.23729 0.19322
 C1772 C 0.15686 0.24887 0.18429
 H1773 H 0.11371 0.23123 0.15118
 H1774 H 0.12832 0.23191 0.21498
 H1775 H 0.07538 0.22781 0.20353
 H1776 H 0.15949 0.25459 0.16252
 C1777 C -0.08005 1.01162 0.82117
 C1778 C -0.08363 1.02315 0.84676
 C1779 C -0.06631 1.01303 0.87037
 C1780 C -0.07413 1.02090 0.89623
 H1781 H -0.09979 1.04006 0.85094
 H1782 H -0.04669 1.00026 0.86653
 H1783 H -0.06588 0.99251 0.81875
 H1784 H -0.09432 1.03288 0.89963
 C1785 C 0.39985 0.52774 0.34617
 C1786 C 0.42024 0.50884 0.35452
 C1787 C 0.42722 0.50596 0.38414
 C1788 C 0.45153 0.49216 0.39160
 H1789 H 0.43337 0.49685 0.33932
 H1790 H 0.41331 0.51642 0.39971
 H1791 H 0.38836 0.54112 0.36159
 H1792 H 0.46575 0.48277 0.37566
 C1793 C 0.58557 -0.01771 0.33722
 C1794 C 0.59106 -0.03028 0.36174
 C1795 C 0.57610 -0.01946 0.38711
 C1796 C 0.58490 -0.02720 0.41240
 H1797 H 0.60622 -0.04847 0.36349
 H1798 H 0.55679 -0.00594 0.38492
 H1799 H 0.57219 0.00214 0.33752
 H1800 H 0.60470 -0.03997 0.41453
 C1801 C 0.08325 0.48993 0.84155
 C1802 C 0.09518 0.48947 0.86677
 C1803 C 0.07749 0.49845 0.89125
 C1804 C 0.08830 0.49972 0.91696
 H1805 H 0.11748 0.48231 0.86933
 H1806 H 0.05449 0.50254 0.88823
 H1807 H 0.06141 0.49868 0.83956
 H1808 H 0.11121 0.49529 0.92010
 C1809 C 0.06571 0.50055 0.66961
 C1810 C 0.07321 0.50762 0.64356
 C1811 C 0.05480 0.49884 0.62007
 C1812 C 0.06368 0.50357 0.59391
 H1813 H 0.09248 0.52107 0.63961
 H1814 H 0.03313 0.49014 0.62432
 H1815 H 0.04750 0.48556 0.67336
 H1816 H 0.08566 0.51155 0.58988
 C1817 C 0.56815 1.00426 0.16622
 C1818 C 0.57710 1.01263 0.14094
 C1819 C 0.56100 1.00386 0.11598
 C1820 C 0.57146 1.01071 0.09079
 H1821 H 0.59651 1.02628 0.13858
 H1822 H 0.54012 0.99269 0.11828
 H1823 H 0.54986 0.98904 0.16835
 H1824 H 0.59254 1.02158 0.08885
 C1825 C 0.43788 0.49211 0.17577
 C1826 C 0.42755 0.48963 0.15005
 C1827 C 0.44455 0.50011 0.12574
 C1828 C 0.43217 0.50139 0.10079
 H1829 H 0.40602 0.48019 0.14695
 H1830 H 0.46741 0.50563 0.12808
 H1831 H 0.45846 0.50345 0.17915
 H1832 H 0.40930 0.49560 0.09895
 C1833 C -0.08701 0.00002 0.65014
 C1834 C -0.09006 -0.01079 0.62428
 C1835 C -0.07307 0.00228 0.60102
 C1836 C -0.08091 -0.00170 0.57456
 H1837 H -0.10474 -0.02911 0.61995
 H1838 H -0.05311 0.01421 0.60571
 H1839 H -0.07413 0.02021 0.65239
 H1840 H -0.10136 -0.01286 0.57015
 C1841 C -0.15704 0.88663 1.02425
 C1842 C -0.14611 0.90411 1.00399
 C1843 C -0.11638 0.91731 1.00551
 C1844 C -0.10903 0.94012 0.98905
 H1845 H -0.15917 0.91020 0.98644
 H1846 H -0.10124 0.90958 1.02095
 H1847 H -0.14295 0.88232 1.04170
 H1848 H -0.12528 0.94873 0.97510
 C1849 C 0.33374 0.37586 0.52233
 C1850 C 0.34504 0.39299 0.50207
 C1851 C 0.37585 0.40302 0.50247
 C1852 C 0.38535 0.42415 0.48502
 H1853 H 0.33146 0.40121 0.48568
 H1854 H 0.39017 0.39478 0.51839
 H1855 H 0.34815 0.36888 0.53871
 H1856 H 0.37027 0.43340 0.47027
 C1857 C 0.34704 0.63081 -0.03308
 C1858 C 0.35454 0.60780 -0.01727
 C1859 C 0.38435 0.59582 -0.01696
 C1860 C 0.38947 0.57130 -0.00234
 H1861 H 0.33811 0.59653 -0.00484
 H1862 H 0.40160 0.60633 -0.02903
 H1863 H 0.36324 0.64072 -0.04682
 H1864 H 0.37155 0.56085 0.00891
 C1865 C -0.17772 0.09543 0.47400
 C1866 C -0.15224 0.09569 0.46014
 C1867 C -0.12871 0.07537 0.46835
 C1868 C -0.10079 0.08275 0.46408
 H1869 H -0.14759 0.11225 0.44446
 H1870 H -0.13428 0.05482 0.47884
 H1871 H -0.17972 0.08015 0.49132
 H1872 H -0.09565 0.10400 0.45463
 C1873 C 0.66133 0.11339 0.53663
 C1874 C 0.65630 0.08854 0.52182
 C1875 C 0.62735 0.07423 0.52146
 C1876 C 0.62344 0.04798 0.50864
 H1877 H 0.67378 0.07821 0.50998
 H1878 H 0.60922 0.08508 0.53195
 H1879 H 0.64405 0.12233 0.54976
 H1880 H 0.64195 0.03683 0.49908
 C1881 C 0.18444 0.59234 1.02121
 C1882 C 0.15848 0.58998 1.03403
 C1883 C 0.13646 0.56823 1.02436
 C1884 C 0.10827 0.57368 1.02898
 H1885 H 0.15207 0.60564 1.05013
 H1886 H 0.14319 0.54846 1.01302
 H1887 H 0.18842 0.57766 1.00354
 H1888 H 0.10227 0.59430 1.03939
 C1889 C 0.15901 0.41164 0.48377
 C1890 C 0.13108 0.40543 0.47829
 C1891 C 0.10770 0.42570 0.48809
 C1892 C 0.07945 0.41784 0.48782
 H1893 H 0.12550 0.38538 0.46684
 H1894 H 0.11384 0.44778 0.49519
 H1895 H 0.16401 0.43068 0.49688
 H1896 H 0.07347 0.39556 0.48122
 C1897 C 0.66383 0.88000 -0.03006
 C1898 C 0.65417 0.90138 -0.01293
 C1899 C 0.62357 0.91160 -0.01389
 C1900 C 0.61671 0.93838 -0.00366
 H1901 H 0.66958 0.91352 -0.00018
 H1902 H 0.60734 0.89836 -0.02461
 H1903 H 0.64858 0.86962 -0.04424
 H1904 H 0.63376 0.95165 0.00586
 C1905 C 0.00847 0.82838 0.91490
 C1906 C 0.01955 0.85594 0.91379
 C1907 C 0.00653 0.88022 0.93050
 C1908 C 0.00946 0.90842 0.92241
 H1909 H 0.03755 0.86125 0.89989
 H1910 H -0.00482 0.87498 0.94978
 H1911 H -0.01154 0.82531 0.92685
 H1912 H 0.01990 0.91302 0.90253
 C1913 C 0.51377 0.30434 0.43135
 C1914 C 0.52066 0.33267 0.42679
 C1915 C 0.50939 0.35667 0.44481
 C1916 C 0.51249 0.38474 0.43664
 H1917 H 0.53385 0.33840 0.40870
 H1918 H 0.49905 0.35149 0.46460
 H1919 H 0.49884 0.29878 0.44822
 H1920 H 0.52285 0.38917 0.41666
 C1921 C -0.02120 0.32579 0.58740
 C1922 C -0.03566 0.35145 0.58601
 C1923 C -0.02495 0.37543 0.56788
 C1924 C -0.03099 0.40372 0.57394
 H1925 H -0.05467 0.35566 0.59896
 H1926 H -0.01206 0.36985 0.54954
 H1927 H -0.00054 0.32435 0.57623
 H1928 H -0.04251 0.40904 0.59316
 C1929 C 0.46687 0.84515 0.10394
 C1930 C 0.48743 0.85437 0.08584
 C1931 C 0.48853 0.88491 0.07476
 C1932 C 0.50790 0.89142 0.05466
 H1933 H 0.50344 0.83888 0.07784
 H1934 H 0.47290 0.90135 0.08189
 H1935 H 0.45004 0.86061 0.11046
 H1936 H 0.52236 0.87410 0.04703
 C1937 C 0.53479 0.66738 0.10600
 C1938 C 0.51595 0.65829 0.08660
 C1939 C 0.51457 0.62721 0.07658
 C1940 C 0.49739 0.62027 0.05520
 H1941 H 0.50168 0.67414 0.07698
 H1942 H 0.52817 0.61045 0.08585
 H1943 H 0.55011 0.65151 0.11416
 H1944 H 0.48493 0.63771 0.04552
 C1945 C 0.02577 0.15442 0.60651
 C1946 C 0.00816 0.14741 0.58531
 C1947 C 0.00879 0.11817 0.57135
 C1948 C -0.00458 0.11471 0.54698
 H1949 H -0.00638 0.16358 0.57669
 H1950 H 0.02060 0.09993 0.58045
 H1951 H 0.04148 0.13794 0.61283
 H1952 H -0.01493 0.13369 0.53754
 C1953 C 0.48035 0.12930 0.38935
 C1954 C 0.50122 0.12289 0.40757
 C1955 C 0.50469 0.09306 0.41919
 C1956 C 0.52236 0.08939 0.44076
 H1957 H 0.51462 0.14037 0.41630
 H1958 H 0.49100 0.07495 0.41192
 H1959 H 0.46588 0.11173 0.38233
 H1960 H 0.53482 0.10817 0.44860
 C1961 C -0.01712 0.64684 0.89532
 C1962 C 0.00260 0.64026 0.91463
 C1963 C 0.00333 0.61044 0.92697
 C1964 C 0.01551 0.60644 0.95172
 H1965 H 0.01679 0.65708 0.92332
 H1966 H -0.00779 0.59215 0.91670
 H1967 H -0.03201 0.62924 0.88907
 H1968 H 0.02511 0.62529 0.96251
 C1969 C 0.26760 0.68350 0.91694
 C1970 C 0.26762 0.67085 0.89179
 C1971 C 0.25531 0.68653 0.86798
 C1972 C 0.25241 0.67299 0.84335
 H1973 H 0.27642 0.64869 0.88889
 H1974 H 0.24967 0.70980 0.87041
 H1975 H 0.25705 0.70477 0.92022
 H1976 H 0.25841 0.64981 0.84107
 C1977 C 0.76767 0.17154 0.41899
 C1978 C 0.76797 0.16058 0.39308
 C1979 C 0.75868 0.17913 0.36958
 C1980 C 0.75635 0.16773 0.34394
 H1981 H 0.77366 0.13751 0.38941
 H1982 H 0.75388 0.20241 0.37331
 H1983 H 0.76013 0.19409 0.42250
 H1984 H 0.76180 0.14458 0.34032
 C1985 C 0.21582 0.35810 0.40864
 C1986 C 0.23945 0.34482 0.39743
 C1987 C 0.24058 0.33479 0.36799
 C1988 C 0.26170 0.31637 0.35920
 H1989 H 0.25826 0.34033 0.40992
 H1990 H 0.22336 0.34102 0.35400
 H1991 H 0.19751 0.36216 0.39520
 H1992 H 0.27765 0.30885 0.37399
 C1993 C 0.74273 0.85860 0.90265
 C1994 C 0.76377 0.84025 0.89383
 C1995 C 0.76609 0.83234 0.86401
 C1996 C 0.78128 0.80864 0.85552
 H1997 H 0.77708 0.82869 0.90866
 H1998 H 0.75272 0.84408 0.84931
 H1999 H 0.72867 0.86836 0.88727
 H2000 H 0.79366 0.79630 0.87058
 C2001 C 0.76937 0.82667 0.07590
 C2002 C 0.77771 0.83315 0.10189
 C2003 C 0.76887 0.81448 0.12589
 C2004 C 0.77269 0.82432 0.15198
 H2005 H 0.79087 0.85281 0.10570
 H2006 H 0.75939 0.79270 0.12218
 H2007 H 0.75456 0.80815 0.07261
 H2008 H 0.78132 0.84657 0.15517
 C2009 C 0.25421 0.32585 0.57753
 C2010 C 0.26146 0.33339 0.60353
 C2011 C 0.25191 0.31518 0.62749
 C2012 C 0.25386 0.32560 0.65358
 H2013 H 0.27447 0.35320 0.60718
 H2014 H 0.24399 0.29277 0.62373
 H2015 H 0.23948 0.30726 0.57423
 H2016 H 0.26111 0.34832 0.65695
 C2017 C 0.73424 0.18058 0.58331
 C2018 C 0.73005 0.17234 0.60967
 C2019 C 0.74065 0.19079 0.63297
 C2020 C 0.73864 0.18073 0.65898
 H2021 H 0.71914 0.15143 0.61413
 H2022 H 0.74918 0.21289 0.62894
 H2023 H 0.74682 0.20052 0.57895
 H2024 H 0.72979 0.15865 0.66252
 C2025 C 0.22755 0.67441 0.08000
 C2026 C 0.22302 0.66463 0.10586
 C2027 C 0.22828 0.68450 0.12992
 C2028 C 0.22889 0.67386 0.15578
 H2029 H 0.21723 0.64155 0.10936
 H2030 H 0.23259 0.70789 0.12630
 H2031 H 0.23519 0.69706 0.07711
 H2032 H 0.22487 0.65036 0.15910
 C2033 C 0.11458 0.58556 0.71830
 C2034 C 0.13713 0.59444 0.73367
 C2035 C 0.14896 0.62494 0.73290
 C2036 C 0.17379 0.63067 0.74611
 H2037 H 0.14835 0.57844 0.74632
 H2038 H 0.13826 0.64202 0.72106
 H2039 H 0.10471 0.60112 0.70419
 H2040 H 0.18445 0.61277 0.75695
 C2041 C 0.62223 0.08207 0.21963
 C2042 C 0.64663 0.08828 0.23345
 C2043 C 0.65887 0.11857 0.23393
 C2044 C 0.68530 0.12377 0.24429
 H2045 H 0.65823 0.07074 0.24386
 H2046 H 0.64630 0.13663 0.22545
 H2047 H 0.61197 0.09944 0.20777
 H2048 H 0.69796 0.10538 0.25201
 C2049 C 0.86565 0.09033 0.77291
 C2050 C 0.84130 0.09726 0.75952
 C2051 C 0.82945 0.12759 0.76152
 C2052 C 0.80267 0.13384 0.75273
 H2053 H 0.82958 0.08040 0.74786
 H2054 H 0.84274 0.14494 0.77080
 H2055 H 0.87591 0.10707 0.78593
 H2056 H 0.78918 0.11623 0.74419
 C2057 C 0.37332 0.60052 0.27419
 C2058 C 0.35732 0.60727 0.25209
 C2059 C 0.34521 0.63731 0.24918
 C2060 C 0.32157 0.64160 0.23388
 H2061 H 0.35056 0.59004 0.23765
 H2062 H 0.35344 0.65520 0.26221
 H2063 H 0.37792 0.61784 0.28937
 H2064 H 0.31208 0.62300 0.22264
 C2065 C 0.38007 0.41524 0.22792
 C2066 C 0.35889 0.40656 0.24563
 C2067 C 0.34735 0.37574 0.24548
 C2068 C 0.32383 0.36862 0.26087
 H2069 H 0.34886 0.42239 0.25976
 H2070 H 0.35729 0.35925 0.23187
 H2071 H 0.38860 0.39902 0.21317
 H2072 H 0.31348 0.38572 0.27351
 C2073 C 0.86819 0.91564 0.70342
 C2074 C 0.85160 0.90521 0.72447
 C2075 C 0.84130 0.87399 0.72577
 C2076 C 0.82300 0.86561 0.74627
 H2077 H 0.84442 0.92001 0.74096
 H2078 H 0.84771 0.85831 0.70962
 H2079 H 0.87372 0.90074 0.68636
 H2080 H 0.81600 0.88203 0.76155
 C2081 C 0.62967 0.90435 0.27593
 C2082 C 0.64804 0.89720 0.25507
 C2083 C 0.66123 0.86746 0.25312
 C2084 C 0.68456 0.86269 0.23678
 H2085 H 0.65500 0.91382 0.24020
 H2086 H 0.65326 0.85000 0.26672
 H2087 H 0.62467 0.88781 0.29161
 H2088 H 0.69368 0.88087 0.22473
 C2089 C 0.14915 0.42135 0.78656
 C2090 C 0.14995 0.40220 0.76504
 C2091 C 0.17111 0.37763 0.76377
 C2092 C 0.16654 0.35371 0.74764
 H2093 H 0.13439 0.40419 0.74840
 H2094 H 0.19014 0.37861 0.77690
 H2095 H 0.16325 0.41774 0.80411
 H2096 H 0.14635 0.35156 0.73634
 C2097 C 0.08933 0.77548 0.86470
 C2098 C 0.09740 0.75704 0.84397
 C2099 C 0.12727 0.75622 0.83218
 C2100 C 0.13258 0.73915 0.80978
 H2101 H 0.08134 0.74275 0.83434
 H2102 H 0.14427 0.77015 0.84087
 H2103 H 0.10516 0.79108 0.87294
 H2104 H 0.11480 0.72640 0.80089
 C2105 C 0.58923 0.25533 0.37015
 C2106 C 0.59679 0.23921 0.34765
 C2107 C 0.62662 0.23947 0.33591
 C2108 C 0.63219 0.22480 0.31214
 H2109 H 0.58060 0.22642 0.33658
 H2110 H 0.64345 0.25268 0.34577
 H2111 H 0.60565 0.26915 0.37995
 H2112 H 0.61472 0.21259 0.30213
 C2113 C 0.58745 0.74827 0.15803
 C2114 C 0.61514 0.74082 0.15326
 C2115 C 0.63771 0.75088 0.17268
 C2116 C 0.66595 0.74638 0.16739
 H2117 H 0.62105 0.72712 0.13545
 H2118 H 0.63090 0.76099 0.19224
 H2119 H 0.58237 0.76340 0.17509
 H2120 H 0.67267 0.73649 0.14771
 C2121 C 0.07223 0.22436 0.67277
 C2122 C 0.10009 0.22644 0.66483
 C2123 C 0.12248 0.23642 0.68453
 C2124 C 0.14974 0.24184 0.67587
 H2125 H 0.10625 0.22140 0.64346
 H2126 H 0.11676 0.23848 0.70642
 H2127 H 0.06571 0.23129 0.69356
 H2128 H 0.15523 0.23933 0.65397
 C2129 C 0.90276 0.26819 0.63906
 C2130 C 0.89444 0.24844 0.65836
 C2131 C 0.86455 0.24795 0.66980
 C2132 C 0.85813 0.23134 0.69203
 H2133 H 0.90999 0.23357 0.66745
 H2134 H 0.84846 0.26290 0.66148
 H2135 H 0.88671 0.28364 0.63144
 H2136 H 0.87487 0.21756 0.70095
 C2137 C 0.41345 0.76487 0.15641
 C2138 C 0.38549 0.76860 0.15018
 C2139 C 0.36312 0.75730 0.16965
 C2140 C 0.33468 0.75764 0.16414
 H2141 H 0.37935 0.77978 0.13127
 H2142 H 0.37028 0.74955 0.18973
 H2143 H 0.41880 0.75212 0.17471
 H2144 H 0.32732 0.76543 0.14416
 C2145 C 0.40951 0.20478 0.35636
 C2146 C 0.40377 0.22907 0.34145
 C2147 C 0.37443 0.23447 0.33065
 C2148 C 0.37001 0.25549 0.31165
 H2149 H 0.42105 0.24442 0.33578
 H2150 H 0.35668 0.21992 0.33702
 H2151 H 0.39220 0.18877 0.36019
 H2152 H 0.38820 0.26889 0.30427
 C2153 C 0.91834 0.71279 0.84476
 C2154 C 0.91330 0.73403 0.82609
 C2155 C 0.88402 0.73671 0.81436
 C2156 C 0.87814 0.75430 0.79281
 H2157 H 0.93047 0.74904 0.81932
 H2158 H 0.86675 0.72329 0.82352
 H2159 H 0.90101 0.69712 0.84974
 H2160 H 0.89544 0.76687 0.78272
   
