data_POSCAR
  _audit_creation_date              2014-09-24
  _audit_creation_method            'ToBaCCo'
  _symmetry_space_group_name_H-M    'P1'
  _symmetry_Int_Tables_number       1
  _symmetry_cell_setting            triclinic
  loop_
  _symmetry_equiv_pos_as_xyz
 x,y,z
_cell_length_a 57.0063
_cell_length_b 57.0103
_cell_length_c 56.9869
_cell_angle_alpha 89.980800
_cell_angle_beta 90.021100
_cell_angle_gamma 89.986900
loop_
  _atom_site_label
  _atom_site_type_symbol
  _atom_site_fract_x
  _atom_site_fract_y
  _atom_site_fract_z
C1 C 0.35872 1.35975 0.32838
 C2 C 0.36868 1.33968 0.33881
 C3 C 0.35874 1.32947 0.35892
 C4 C 0.33860 1.33965 0.36881
 C5 C 0.32818 1.35972 0.35882
 C6 C 0.33851 1.36964 0.33865
 H7 H 0.38416 1.33176 0.33116
 H8 H 0.33091 1.33171 0.38426
 H9 H 0.33065 1.38504 0.33077
 C10 C 0.35881 0.85963 0.82933
 C11 C 0.36876 0.83954 0.83958
 C12 C 0.35881 0.82926 0.85965
 C13 C 0.33867 0.83945 0.86958
 C14 C 0.32829 0.85959 0.85966
 C15 C 0.33867 0.86955 0.83954
 H16 H 0.38421 0.83174 0.83177
 H17 H 0.33095 0.83147 0.88500
 H18 H 0.33095 0.88498 0.83158
 C19 C 0.85895 1.35979 0.82943
 C20 C 0.83878 1.36969 0.83961
 C21 C 0.82843 1.35975 0.85976
 C22 C 0.83885 1.33965 0.86972
 C23 C 0.85900 1.32948 0.85980
 C24 C 0.86893 1.33974 0.83972
 H25 H 0.83103 1.38509 0.83162
 H26 H 0.83115 1.33168 0.88515
 H27 H 0.88439 1.33195 0.83192
 C28 C 0.86011 0.86022 0.32986
 C29 C 0.83999 0.87015 0.34008
 C30 C 0.82972 0.86018 0.36017
 C31 C 0.83996 0.84007 0.37012
 C32 C 0.86008 0.82984 0.36020
 C33 C 0.87005 0.84012 0.34012
 H34 H 0.83215 0.88557 0.33223
 H35 H 0.83210 0.83220 0.38552
 H36 H 0.88548 0.83229 0.33229
 C37 C 0.63994 0.64016 0.32886
 C38 C 0.66007 0.63022 0.33925
 C39 C 0.67030 0.64017 0.35937
 C40 C 0.66006 0.66026 0.36930
 C41 C 0.63998 0.67052 0.35934
 C42 C 0.63002 0.66030 0.33922
 H43 H 0.66802 0.61479 0.33154
 H44 H 0.66790 0.66808 0.38473
 H45 H 0.61460 0.66826 0.33149
 C46 C 0.64099 0.14027 0.82944
 C47 C 0.66115 0.13034 0.83961
 C48 C 0.67154 0.14024 0.85975
 C49 C 0.66115 0.16033 0.86974
 C50 C 0.64099 0.17053 0.85984
 C51 C 0.63103 0.16031 0.83975
 H52 H 0.66888 0.11494 0.83160
 H53 H 0.66888 0.16827 0.88517
 H54 H 0.61556 0.16813 0.83197
 C55 C 1.13980 0.63964 0.82987
 C56 C 1.12986 0.65975 0.84010
 C57 C 1.13980 0.67000 0.86021
 C58 C 1.15990 0.65973 0.87018
 C59 C 1.17014 0.63962 0.86025
 C60 C 1.15989 0.62968 0.84014
 H61 H 1.11445 0.66760 0.83224
 H62 H 1.16775 0.66758 0.88559
 H63 H 1.16773 0.61426 0.83231
 C64 C 1.14122 0.14051 0.32815
 C65 C 1.13126 0.16060 0.33854
 C66 C 1.14118 0.17081 0.35866
 C67 C 1.16131 0.16063 0.36859
 C68 C 1.17173 0.14054 0.35866
 C69 C 1.16141 0.13061 0.33849
 H70 H 1.11580 0.16851 0.33085
 H71 H 1.16899 0.16857 0.38405
 H72 H 1.16927 0.11520 0.33065
 C73 C 0.64112 1.35973 0.67074
 C74 C 0.63113 1.33970 0.66045
 C75 C 0.64105 1.32945 0.64036
 C76 C 0.66121 1.33962 0.63044
 C77 C 0.67163 1.35971 0.64041
 C78 C 0.66128 1.36963 0.66056
 H79 H 0.61567 1.33191 0.66825
 H80 H 0.66890 1.33166 0.61500
 H81 H 0.66904 1.38502 0.66855
 C82 C 0.63969 0.86033 1.17009
 C83 C 0.62975 0.84023 1.15986
 C84 C 0.63972 0.82995 1.13978
 C85 C 0.65983 0.84018 1.12984
 C86 C 0.67007 0.86029 1.13977
 C87 C 0.65981 0.87026 1.15985
 H88 H 0.61433 0.83239 1.16770
 H89 H 0.66769 0.83231 1.11445
 H90 H 0.66765 0.88568 1.16769
 C91 C 1.14006 1.35994 1.17117
 C92 C 1.13012 1.33982 1.16079
 C93 C 1.14005 1.32963 1.14065
 C94 C 1.16013 1.33988 1.13071
 C95 C 1.17039 1.35994 1.14067
 C96 C 1.16019 1.36987 1.16081
 H97 H 1.11470 1.33186 1.16850
 H98 H 1.16795 1.33207 1.11526
 H99 H 1.16815 1.38528 1.16854
 C100 C 1.14116 0.85950 0.67067
 C101 C 1.13124 0.83940 0.66042
 C102 C 1.14120 0.82914 0.64035
 C103 C 1.16133 0.83935 0.63042
 C104 C 1.17168 0.85950 0.64034
 C105 C 1.16129 0.86943 0.66046
 H106 H 1.11580 0.83159 0.66824
 H107 H 1.16906 0.83138 0.61500
 H108 H 1.16899 0.88487 0.66841
 C109 C 0.36015 0.63980 0.67013
 C110 C 0.34007 0.62983 0.65987
 C111 C 0.32980 0.63978 0.63976
 C112 C 0.34002 0.65991 0.62982
 C113 C 0.36010 0.67017 0.63979
 C114 C 0.37007 0.65992 0.65989
 H115 H 0.33225 0.61440 0.66770
 H116 H 0.33216 0.66775 0.61441
 H117 H 0.38547 0.66778 0.66775
 C118 C 0.36005 0.13992 1.17112
 C119 C 0.33991 0.13000 1.16074
 C120 C 0.32972 0.13993 1.14058
 C121 C 0.34000 0.15998 1.13061
 C122 C 0.36008 0.17022 1.14056
 C123 C 0.37000 0.16003 1.16072
 H124 H 0.33193 0.11460 1.16848
 H125 H 0.33220 0.16780 1.11515
 H126 H 0.38543 0.16798 1.16844
 C127 C 0.86004 0.63998 1.17118
 C128 C 0.83990 0.63006 1.16080
 C129 C 0.82968 0.64001 1.14068
 C130 C 0.83991 0.66009 1.13073
 C131 C 0.86000 0.67034 1.14067
 C132 C 0.86996 0.66012 1.16080
 H133 H 0.83195 0.61463 1.16852
 H134 H 0.83208 0.66792 1.11529
 H135 H 0.88538 0.66807 1.16853
 C136 C 0.85823 0.14089 0.67205
 C137 C 0.83803 0.13101 0.66174
 C138 C 0.82771 0.14093 0.64156
 C139 C 0.83812 0.16101 0.63160
 C140 C 0.85826 0.17119 0.64151
 C141 C 0.86818 0.16097 0.66164
 H142 H 0.83018 0.11560 0.66960
 H143 H 0.83044 0.16895 0.61613
 H144 H 0.88366 0.16888 0.66931
 C145 C 1.35990 0.35910 0.67054
 C146 C 1.33984 0.36907 0.66026
 C147 C 1.32959 0.35915 0.64017
 C148 C 1.33978 0.33901 0.63024
 C149 C 1.35989 0.32861 0.64019
 C150 C 1.36982 0.33896 0.66034
 H151 H 1.33203 0.38452 0.66808
 H152 H 1.33182 0.33132 0.61480
 H153 H 1.38523 0.33121 0.66832
 C154 C 1.36000 0.85993 1.17132
 C155 C 1.36994 0.83978 1.16099
 C156 C 1.36003 0.82958 1.14084
 C157 C 1.33998 0.83985 1.13084
 C158 C 1.32973 0.85995 1.14074
 C159 C 1.33990 0.86988 1.16089
 H160 H 1.38534 0.83181 1.16876
 H161 H 1.33217 0.83204 1.11538
 H162 H 1.33194 0.88532 1.16858
 C163 C 0.86024 0.35993 1.17108
 C164 C 0.84012 0.36988 1.16070
 C165 C 0.82990 0.35996 1.14057
 C166 C 0.84014 0.33988 1.13062
 C167 C 0.86021 0.32961 1.14057
 C168 C 0.87016 0.33980 1.16071
 H169 H 0.83216 0.38531 1.16843
 H170 H 0.83230 0.33207 1.11518
 H171 H 0.88558 0.33183 1.16844
 C172 C 0.86011 0.86008 0.67006
 C173 C 0.84000 0.87004 0.65981
 C174 C 0.82973 0.86008 0.63972
 C175 C 0.83996 0.83997 0.62978
 C176 C 0.86006 0.82971 0.63973
 C177 C 0.87004 0.83997 0.65982
 H178 H 0.83217 0.88546 0.66765
 H179 H 0.83209 0.83212 0.61438
 H180 H 0.88546 0.83212 0.66767
 C181 C 0.63991 0.63996 0.67039
 C182 C 0.62995 0.66007 0.66016
 C183 C 0.63988 0.67033 0.64005
 C184 C 0.65997 0.66008 0.63007
 C185 C 0.67023 0.63997 0.64001
 C186 C 0.66000 0.63001 0.66012
 H187 H 0.61455 0.66790 0.66802
 H188 H 0.66780 0.66794 0.61465
 H189 H 0.66786 0.61459 0.66796
 C190 C 0.64011 1.14080 1.17042
 C191 C 0.66019 1.13086 1.16018
 C192 C 0.67048 1.14084 1.14013
 C193 C 0.66030 1.16101 1.13021
 C194 C 0.64016 1.17137 1.14014
 C195 C 0.63020 1.16096 1.16024
 H196 H 0.66799 1.11540 1.16799
 H197 H 0.66829 1.16876 1.11481
 H198 H 0.61478 1.16868 1.16820
 C199 C 0.14083 0.64151 1.17194
 C200 C 0.13095 0.66171 1.16162
 C201 C 0.14089 0.67205 1.14146
 C202 C 0.16099 0.66165 1.13154
 C203 C 0.17116 0.64150 1.14146
 C204 C 0.16093 0.63156 1.16155
 H205 H 0.11552 0.66956 1.16946
 H206 H 0.16894 0.66934 1.11609
 H207 H 0.16883 0.61609 1.16923
 C208 C 0.13985 1.14079 0.67022
 C209 C 0.12992 1.16094 0.66003
 C210 C 0.13984 1.17131 0.63989
 C211 C 0.15995 1.16092 0.62993
 C212 C 0.17014 1.14076 0.63985
 C213 C 0.15990 1.13082 0.65994
 H214 H 0.11452 1.16868 0.66802
 H215 H 0.16790 1.16863 0.61450
 H216 H 0.16771 1.11536 0.66774
 C217 C 1.35979 0.64103 0.32963
 C218 C 1.33974 0.63106 0.33990
 C219 C 1.32942 0.64103 0.35993
 C220 C 1.33954 0.66122 0.36982
 C221 C 1.35966 0.67163 0.35988
 C222 C 1.36965 0.66122 0.33979
 H223 H 1.33198 0.61557 0.33212
 H224 H 1.33153 0.66896 0.38521
 H225 H 1.38506 0.66896 0.33182
 C226 C 1.35971 1.14117 0.82938
 C227 C 1.33965 1.13121 0.83965
 C228 C 1.32940 1.14114 0.85974
 C229 C 1.33960 1.16128 0.86967
 C230 C 1.35971 1.17167 0.85973
 C231 C 1.36964 1.16131 0.83958
 H232 H 1.33184 1.11577 0.83184
 H233 H 1.33164 1.16898 0.88510
 H234 H 1.38505 1.16904 0.83161
 C235 C 0.86015 0.63982 0.82970
 C236 C 0.84006 0.62988 0.83998
 C237 C 0.82984 0.63983 0.86009
 C238 C 0.84009 0.65994 0.87001
 C239 C 0.86018 0.67018 0.86004
 C240 C 0.87010 0.65993 0.83993
 H241 H 0.83222 0.61446 0.83215
 H242 H 0.83226 0.66779 0.88543
 H243 H 0.88550 0.66777 0.83206
 C244 C 0.86053 1.13939 0.33023
 C245 C 0.84041 1.12947 0.34046
 C246 C 0.83015 1.13944 0.36054
 C247 C 0.84041 1.15954 0.37049
 C248 C 0.86053 1.16976 0.36055
 C249 C 0.87049 1.15948 0.34047
 H250 H 0.83256 1.11406 0.33261
 H251 H 0.83255 1.16740 0.38588
 H252 H 0.88591 1.16731 0.33263
 C253 C 0.64044 0.35874 0.32853
 C254 C 0.63053 0.33857 0.33886
 C255 C 0.64048 0.32822 0.35901
 C256 C 0.66060 0.33858 0.36893
 C257 C 0.67080 0.35870 0.35900
 C258 C 0.66056 0.36866 0.33891
 H259 H 0.61509 0.33075 0.33102
 H260 H 0.66856 0.33087 0.38437
 H261 H 0.66848 0.38412 0.33122
 C262 C 0.63981 0.86014 0.82985
 C263 C 0.62988 0.84003 0.84010
 C264 C 0.63986 0.82978 0.86020
 C265 C 0.65996 0.84003 0.87014
 C266 C 0.67019 0.86014 0.86019
 C267 C 0.65991 0.87009 0.84009
 H268 H 0.61447 0.83219 0.83226
 H269 H 0.66782 0.83218 0.88556
 H270 H 0.66774 0.88551 0.83225
 C271 C 0.14035 0.35964 0.82841
 C272 C 0.13039 0.33953 0.83880
 C273 C 0.14029 0.32934 0.85898
 C274 C 0.16037 0.33959 0.86894
 C275 C 0.17065 0.35965 0.85897
 C276 C 0.16048 0.36956 0.83880
 H277 H 0.11497 0.33157 0.83108
 H278 H 0.16816 0.33179 0.88441
 H279 H 0.16846 0.38497 0.83106
 C280 C 0.13991 0.85996 0.32876
 C281 C 0.13001 0.83980 0.33911
 C282 C 0.13994 0.82960 0.35926
 C283 C 0.15999 0.83988 0.36924
 C284 C 0.17022 0.85998 0.35931
 C285 C 0.16001 0.86991 0.33917
 H286 H 0.11461 0.83183 0.33136
 H287 H 0.16782 0.83206 0.38469
 H288 H 0.16795 0.88536 0.33146
 O289 O 0.97728 0.91548 0.88316
 O290 O 0.97726 0.88822 0.85571
 C291 C 0.96927 0.90730 0.86404
 C292 C 0.95010 0.91983 0.85172
 C293 C 0.94216 0.91212 0.82970
 H294 H 0.95066 0.89730 0.82139
 O295 O 1.02275 1.08463 0.88306
 O296 O 1.02279 1.11193 0.85563
 C297 C 1.03078 1.09284 0.86396
 C298 C 1.04998 1.08035 0.85167
 C299 C 1.05795 1.08811 0.82968
 H300 H 1.04942 1.10292 0.82137
 O301 O 0.88328 0.97724 0.91528
 O302 O 0.85582 0.97715 0.88801
 C303 C 0.86418 0.96920 0.90710
 C304 C 0.85191 0.95003 0.91965
 C305 C 0.82988 0.94208 0.91197
 H306 H 0.82154 0.95059 0.89716
 O307 O 1.11694 1.02297 0.91531
 O308 O 1.14437 1.02302 0.88804
 C309 C 1.13604 1.03100 0.90712
 C310 C 1.14832 1.05018 0.91964
 C311 C 1.17029 1.05823 0.91189
 H312 H 1.17860 1.04978 0.89704
 O313 O 0.91554 0.88319 0.97713
 O314 O 0.88827 0.85576 0.97708
 C315 C 0.90734 0.86409 0.96910
 C316 C 0.91986 0.85180 0.94992
 C317 C 0.91216 0.82979 0.94196
 H318 H 0.89735 0.82147 0.95047
 O319 O 1.08461 1.11684 0.97709
 O320 O 1.11187 1.14429 0.97706
 C321 C 1.09280 1.13594 0.96906
 C322 C 1.08028 1.14822 0.94985
 C323 C 1.08803 1.17020 0.94181
 H324 H 1.10287 1.17850 0.95028
 O325 O 0.91524 1.02305 0.88303
 O326 O 0.88791 1.02300 0.85563
 C327 C 0.90698 1.03104 0.86392
 C328 C 0.91940 1.05026 0.85159
 C329 C 0.91146 1.05839 0.82971
 H330 H 0.89655 1.04996 0.82150
 O331 O 1.08484 0.97721 0.88316
 O332 O 1.11212 0.97722 0.85574
 C333 C 1.09305 0.96921 0.86405
 C334 C 1.08056 0.95003 0.85173
 C335 C 1.08836 0.94201 0.82978
 H336 H 1.10322 0.95047 0.82151
 O337 O 1.02304 0.88331 0.91530
 O338 O 1.02305 0.85589 0.88801
 C339 C 1.03103 0.86419 0.90710
 C340 C 1.05016 0.85184 0.91966
 C341 C 1.05808 0.82981 0.91196
 H342 H 1.04958 0.82153 0.89712
 O343 O 0.97702 1.11680 0.91516
 O344 O 0.97701 1.14426 0.88790
 C345 C 0.96903 1.13593 0.90698
 C346 C 0.94989 1.14824 0.91954
 C347 C 0.94188 1.17024 0.91180
 H348 H 0.95031 1.17854 0.89694
 O349 O 0.88317 1.08473 0.97707
 O350 O 0.85576 1.11204 0.97706
 C351 C 0.86407 1.09296 0.96906
 C352 C 0.85175 1.08048 0.94986
 C353 C 0.82979 1.08827 0.94182
 H354 H 0.82151 1.10313 0.95027
 O355 O 1.11693 0.91526 0.97715
 O356 O 1.14438 0.88800 0.97711
 C357 C 1.13604 0.90707 0.96912
 C358 C 1.14832 0.91959 0.94992
 C359 C 1.17026 0.91178 0.94186
 H360 H 1.17853 0.89690 0.95029
 O361 O 0.97697 1.08479 0.88291
 O362 O 0.97696 1.11210 0.85551
 C363 C 0.96894 1.09304 0.86381
 C364 C 0.94970 1.08058 0.85153
 C365 C 0.94151 1.08848 0.82964
 H366 H 0.94990 1.10339 0.82138
 O367 O 1.02306 0.91541 0.88312
 O368 O 1.02308 0.88814 0.85568
 C369 C 1.03107 0.90721 0.86401
 C370 C 1.05026 0.91971 0.85171
 C371 C 1.05830 0.91193 0.82975
 H372 H 1.04986 0.89707 0.82147
 O373 O 1.11694 0.97719 0.91533
 O374 O 1.14437 0.97719 0.88805
 C375 C 1.13604 0.96918 0.90712
 C376 C 1.14834 0.94995 0.91962
 C377 C 1.17028 0.94189 0.91180
 H378 H 1.17855 0.95035 0.89694
 O379 O 0.88319 1.02301 0.91523
 O380 O 0.85573 1.02296 0.88797
 C381 C 0.86406 1.03098 0.90703
 C382 C 0.85175 1.05017 0.91954
 C383 C 0.82979 1.05820 0.91174
 H384 H 0.82151 1.04975 0.89687
 O385 O 0.91534 1.11680 0.97710
 O386 O 0.88808 1.14425 0.97710
 C387 C 0.90715 1.13592 0.96910
 C388 C 0.91965 1.14823 0.94992
 C389 C 0.91188 1.17022 0.94196
 H390 H 0.89706 1.17851 0.95047
 O391 O 1.08478 0.88316 0.97721
 O392 O 1.11208 0.85575 0.97717
 C393 C 1.09299 0.86407 0.96920
 C394 C 1.08045 0.85177 0.95003
 C395 C 1.08813 0.82974 0.94209
 H396 H 1.10293 0.82141 0.95061
 O397 O 1.08479 1.02297 0.88317
 O398 O 1.11207 1.02302 0.85575
 C399 C 1.09297 1.03099 0.86406
 C400 C 1.08041 1.05013 0.85172
 C401 C 1.08814 1.05814 0.82972
 H402 H 1.10301 1.04972 0.82144
 O403 O 0.91539 0.97729 0.88313
 O404 O 0.88808 0.97719 0.85571
 C405 C 0.90719 0.96925 0.86402
 C406 C 0.91975 0.95011 0.85171
 C407 C 0.91204 0.94216 0.82969
 H408 H 0.89720 0.95063 0.82138
 O409 O 1.02278 1.11678 0.91515
 O410 O 1.02282 1.14423 0.88788
 C411 C 1.03080 1.13588 0.90696
 C412 C 1.04997 1.14819 0.91949
 C413 C 1.05797 1.17016 0.91171
 H414 H 1.04950 1.17843 0.89684
 O415 O 0.97729 0.88329 0.91524
 O416 O 0.97726 0.85588 0.88794
 C417 C 0.96928 0.86418 0.90703
 C418 C 0.95014 0.85185 0.91957
 C419 C 0.94219 0.82984 0.91185
 H420 H 0.95067 0.82155 0.89700
 O421 O 1.11681 1.08478 0.97713
 O422 O 1.14421 1.11208 0.97711
 C423 C 1.13591 1.09299 0.96913
 C424 C 1.14825 1.08049 0.94997
 C425 C 1.17021 1.08829 0.94198
 H426 H 1.17847 1.10315 0.95046
 O427 O 0.88342 0.91532 0.97713
 O428 O 0.85599 0.88804 0.97707
 C429 C 0.86431 0.90713 0.96910
 C430 C 0.85197 0.91968 0.94996
 C431 C 0.82994 0.91198 0.94203
 H432 H 0.82165 0.89715 0.95053
 Cu433 Cu 1.00017 0.90211 0.90194
 Cu434 Cu 1.00016 0.86929 0.86908
 Cu435 Cu 0.99987 1.09801 0.90180
 Cu436 Cu 0.99990 1.13088 0.86898
 Cu437 Cu 0.90201 1.00016 0.90190
 Cu438 Cu 0.86913 1.00006 0.86908
 Cu439 Cu 1.09815 1.00009 0.90198
 Cu440 Cu 1.13098 1.00012 0.86915
 C441 C 0.93893 0.93897 0.86246
 H442 H 0.94476 0.94481 0.87959
 C443 C 0.92313 0.92316 0.81850
 C444 C 1.06118 1.06121 0.86243
 H445 H 1.05533 1.05534 0.87953
 C446 C 1.07702 1.07714 0.81853
 C447 C 0.86269 0.93885 0.93879
 H448 H 0.87982 0.94468 0.94460
 C449 C 0.81872 0.92306 0.92304
 C450 C 1.13757 1.06129 0.93883
 H451 H 1.12049 1.05539 0.94469
 C452 C 1.18141 1.07729 0.92294
 C453 C 0.93900 0.86257 0.93875
 H454 H 0.94483 0.87968 0.94460
 C455 C 0.92320 0.81863 0.92292
 C456 C 1.06110 1.13748 0.93871
 H457 H 1.05523 1.12040 0.94460
 C458 C 1.07700 1.18134 0.92274
 C459 C 0.93866 1.06133 0.86223
 H460 H 0.94467 1.05536 0.87925
 C461 C 0.92238 1.07750 0.81856
 C462 C 1.06136 0.93891 0.86243
 H463 H 1.05546 0.94480 0.87951
 C464 C 1.07736 0.92295 0.81861
 C465 C 1.06132 0.86255 0.93884
 H466 H 1.05551 0.87968 0.94466
 C467 C 1.07706 0.81858 0.92306
 C468 C 0.93880 1.13751 0.93874
 H469 H 0.94467 1.12041 0.94459
 C470 C 0.92287 1.18140 0.92289
 C471 C 0.86246 1.06128 0.93874
 H472 H 0.87954 1.05538 0.94464
 C473 C 0.81863 1.07726 0.92275
 C474 C 1.13762 0.93882 0.93882
 H475 H 1.12056 0.94473 0.94473
 C476 C 1.18142 0.92280 0.92279
 O477 O 1.02309 0.91523 1.11683
 O478 O 1.02307 0.88799 1.14431
 C479 C 1.03107 0.90706 1.13598
 C480 C 1.05021 0.91959 1.14831
 C481 C 1.05819 0.91184 1.17031
 H482 H 1.04972 0.89699 1.17859
 O483 O 0.97732 1.08453 1.11690
 O484 O 0.97725 1.11180 1.14434
 C485 C 0.96930 1.09271 1.13602
 C486 C 0.95015 1.08016 1.14832
 C487 C 0.94226 1.08779 1.17038
 H488 H 0.95079 1.10257 1.17873
 O489 O 0.88319 1.02291 1.08465
 O490 O 0.85580 1.02290 1.11196
 C491 C 0.86409 1.03091 1.09288
 C492 C 0.85177 1.05009 1.08038
 C493 C 0.82980 1.05812 1.08815
 H494 H 0.82151 1.04966 1.10301
 O495 O 1.11688 0.97714 1.08477
 O496 O 1.14434 0.97711 1.11203
 C497 C 1.13601 0.96914 1.09295
 C498 C 1.14833 0.94999 1.08041
 C499 C 1.17034 0.94204 1.08815
 H500 H 1.17863 0.95053 1.10299
 O501 O 1.08495 0.88306 1.02300
 O502 O 1.11227 0.85567 1.02301
 C503 C 1.09320 0.86397 1.03103
 C504 C 1.08074 0.85167 1.05027
 C505 C 1.08864 0.82979 1.05843
 H506 H 1.10354 0.82153 1.05004
 O507 O 0.91535 1.11676 1.02289
 O508 O 0.88810 1.14422 1.02292
 C509 C 0.90717 1.13587 1.03091
 C510 C 0.91971 1.14814 1.05010
 C511 C 0.91199 1.17014 1.05810
 H512 H 0.89716 1.17846 1.04962
 O513 O 0.91542 0.97711 1.11666
 O514 O 0.88817 0.97704 1.14412
 C515 C 0.90725 0.96908 1.13578
 C516 C 0.91980 0.94993 1.14809
 C517 C 0.91211 0.94201 1.17013
 H518 H 0.89729 0.95051 1.17843
 O519 O 1.08482 1.02289 1.11699
 O520 O 1.11215 1.02289 1.14439
 C521 C 1.09307 1.03090 1.13609
 C522 C 1.08061 1.05010 1.14840
 C523 C 1.08848 1.05819 1.17031
 H524 H 1.10337 1.04974 1.17857
 O525 O 0.97738 0.88306 1.08467
 O526 O 0.97733 0.85567 1.11200
 C527 C 0.96936 0.86397 1.09290
 C528 C 0.95018 0.85166 1.08038
 C529 C 0.94219 0.82969 1.08816
 H530 H 0.95068 0.82139 1.10300
 O531 O 1.02299 1.11675 1.08478
 O532 O 1.02296 1.14418 1.11206
 C533 C 1.03096 1.13587 1.09297
 C534 C 1.05008 1.14823 1.08043
 C535 C 1.05803 1.17022 1.08818
 H536 H 1.04956 1.17848 1.10304
 O537 O 0.88337 0.91526 1.02289
 O538 O 0.85594 0.88798 1.02288
 C539 C 0.86425 0.90706 1.03087
 C540 C 0.85190 0.91960 1.05000
 C541 C 0.82988 0.91191 1.05792
 H542 H 0.82158 0.89707 1.04944
 O543 O 1.11678 1.08476 1.02290
 O544 O 1.14418 1.11205 1.02293
 C545 C 1.13588 1.09297 1.03092
 C546 C 1.14820 1.08044 1.05010
 C547 C 1.17021 1.08817 1.05809
 H548 H 1.17850 1.10301 1.04962
 O549 O 1.02308 1.08468 1.11699
 O550 O 1.02306 1.11197 1.14441
 C551 C 1.03109 1.09291 1.13610
 C552 C 1.05031 1.08044 1.14841
 C553 C 1.05843 1.08828 1.17033
 H554 H 1.05001 1.10318 1.17859
 O555 O 0.97732 0.91525 1.11673
 O556 O 0.97728 0.88801 1.14422
 C557 C 0.96930 0.90708 1.13585
 C558 C 0.95013 0.91962 1.14814
 C559 C 0.94219 0.91194 1.17017
 H560 H 0.95070 0.89713 1.17851
 O561 O 1.11682 1.02290 1.08474
 O562 O 1.14429 1.02290 1.11200
 C563 C 1.13594 1.03091 1.09293
 C564 C 1.14823 1.05008 1.08040
 C565 C 1.17022 1.05805 1.08814
 H566 H 1.17853 1.04954 1.10297
 O567 O 0.88324 0.97715 1.08457
 O568 O 0.85584 0.97709 1.11188
 C569 C 0.86415 0.96913 1.09278
 C570 C 0.85185 0.94996 1.08026
 C571 C 0.82983 0.94203 1.08795
 H572 H 0.82150 0.95055 1.10274
 O573 O 1.08467 1.11691 1.02288
 O574 O 1.11192 1.14435 1.02289
 C575 C 1.09285 1.13602 1.03089
 C576 C 1.08034 1.14831 1.05007
 C577 C 1.08806 1.17030 1.05806
 H578 H 1.10287 1.17863 1.04957
 O579 O 0.91551 0.88312 1.02291
 O580 O 0.88823 0.85570 1.02290
 C581 C 0.90731 0.86401 1.03091
 C582 C 0.91983 0.85168 1.05008
 C583 C 0.91207 0.82970 1.05810
 H584 H 0.89721 0.82142 1.04964
 O585 O 1.08477 0.97713 1.11693
 O586 O 1.11209 0.97708 1.14434
 C587 C 1.09300 0.96910 1.13603
 C588 C 1.08050 0.94992 1.14834
 C589 C 1.08825 0.94193 1.17034
 H590 H 1.10308 0.95041 1.17865
 O591 O 0.91539 1.02285 1.11673
 O592 O 0.88815 1.02283 1.14420
 C593 C 0.90723 1.03081 1.13588
 C594 C 0.91980 1.04990 1.14824
 C595 C 0.91214 1.05777 1.17030
 H596 H 0.89732 1.04927 1.17860
 O597 O 0.97724 1.11668 1.08478
 O598 O 0.97717 1.14410 1.11207
 C599 C 0.96920 1.13577 1.09298
 C600 C 0.95003 1.14808 1.08044
 C601 C 0.94207 1.17008 1.08818
 H602 H 0.95057 1.17836 1.10302
 O603 O 1.02315 0.88307 1.08475
 O604 O 1.02315 0.85568 1.11208
 C605 C 1.03117 0.86398 1.09301
 C606 C 1.05041 0.85169 1.08057
 C607 C 1.05853 0.82980 1.08848
 H608 H 1.05010 0.82157 1.10339
 O609 O 1.11693 0.91532 1.02293
 O610 O 1.14440 0.88807 1.02294
 C611 C 1.13606 0.90714 1.03093
 C612 C 1.14837 0.91968 1.05009
 C613 C 1.17038 0.91197 1.05808
 H614 H 1.17869 0.89714 1.04960
 O615 O 0.88318 1.08468 1.02285
 O616 O 0.85578 1.11200 1.02288
 C617 C 0.86409 1.09290 1.03087
 C618 C 0.85177 1.08040 1.05004
 C619 C 0.82981 1.08818 1.05804
 H620 H 0.82153 1.10303 1.04955
 Cu621 Cu 1.00024 0.90188 1.09800
 Cu622 Cu 1.00020 0.86909 1.13090
 Cu623 Cu 1.00017 1.09792 1.09813
 Cu624 Cu 1.00010 1.13076 1.13097
 Cu625 Cu 0.90219 0.90195 1.00002
 Cu626 Cu 0.86936 0.86912 0.99998
 Cu627 Cu 1.09816 0.90193 1.00008
 Cu628 Cu 1.13104 0.86913 1.00005
 Cu629 Cu 0.90199 1.09800 0.99998
 Cu630 Cu 0.86919 1.13088 0.99999
 Cu631 Cu 1.09798 1.09809 1.00000
 Cu632 Cu 1.13079 1.13094 1.00000
 Cu633 Cu 0.90204 1.00002 1.09791
 Cu634 Cu 0.86924 0.99996 1.13079
 Cu635 Cu 1.09808 1.00002 1.09813
 Cu636 Cu 1.13097 0.99999 1.13093
 C637 C 1.06134 0.93878 1.13759
 H638 H 1.05548 0.94464 1.12048
 C639 C 1.07721 0.92288 1.18150
 C640 C 0.93895 1.06107 1.13751
 H641 H 0.94474 1.05530 1.12036
 C642 C 0.92325 1.07672 1.18155
 C643 C 0.86249 1.06121 1.06118
 H644 H 0.87957 1.05533 1.05531
 C645 C 0.81864 1.07717 1.07709
 C646 C 1.13761 0.93884 1.06124
 H647 H 1.12049 0.94467 1.05538
 C648 C 1.18154 0.92303 1.07711
 C649 C 1.06149 0.86235 1.06132
 H650 H 1.05552 0.87937 1.05533
 C651 C 1.07765 0.81867 1.07755
 C652 C 0.93887 1.13737 1.06126
 H653 H 0.94471 1.12027 1.05540
 C654 C 0.92305 1.18129 1.07714
 C655 C 0.93896 0.93876 1.13736
 H656 H 0.94478 0.94457 1.12022
 C657 C 0.92318 0.92301 1.18135
 C658 C 1.06137 1.06120 1.13772
 H659 H 1.05542 1.05527 1.12068
 C660 C 1.07752 1.07728 1.18146
 C661 C 0.93903 0.86239 1.06120
 H662 H 0.94490 0.87948 1.05532
 C663 C 0.92313 0.81853 1.07714
 C664 C 1.06120 1.13754 1.06123
 H665 H 1.05537 1.12043 1.05537
 C666 C 1.07702 1.18144 1.07712
 C667 C 0.86262 0.93878 1.06114
 H668 H 0.87975 0.94460 1.05532
 C669 C 0.81866 0.92300 1.07690
 C670 C 1.13748 1.06125 1.06123
 H671 H 1.12038 1.05540 1.05538
 C672 C 1.18139 1.07709 1.07711
 O673 O 0.97719 0.41521 0.38291
 O674 O 0.97713 0.38791 0.35551
 C675 C 0.96915 0.40699 0.36381
 C676 C 0.94997 0.41950 0.35150
 C677 C 0.94199 0.41175 0.32950
 H678 H 0.95049 0.39692 0.32121
 O679 O 1.02293 0.58456 0.38280
 O680 O 1.02288 0.61188 0.35540
 C681 C 1.03092 0.59281 0.36370
 C682 C 1.05016 0.58038 0.35139
 C683 C 1.05827 0.58832 0.32951
 H684 H 1.04982 0.60322 0.32128
 O685 O 0.88315 0.47691 0.41505
 O686 O 0.85572 0.47688 0.38776
 C687 C 0.86405 0.46889 0.40684
 C688 C 0.85176 0.44970 0.41936
 C689 C 0.82982 0.44163 0.41155
 H690 H 0.82154 0.45005 0.39666
 O691 O 1.11683 0.52279 0.41498
 O692 O 1.14428 0.52283 0.38773
 C693 C 1.13594 0.53080 0.40681
 C694 C 1.14822 0.54997 0.41936
 C695 C 1.17021 0.55800 0.41165
 H696 H 1.17854 0.54957 0.39680
 O697 O 0.91538 0.38315 0.47709
 O698 O 0.88815 0.35568 0.47702
 C699 C 0.90723 0.36404 0.46907
 C700 C 0.91980 0.35173 0.44993
 C701 C 0.91217 0.32968 0.44204
 H702 H 0.89738 0.32134 0.45058
 O703 O 1.08460 0.61672 0.47689
 O704 O 1.11189 0.64412 0.47687
 C705 C 1.09281 0.63582 0.46887
 C706 C 1.08029 0.64813 0.44968
 C707 C 1.08803 0.67012 0.44168
 H708 H 1.10286 0.67842 0.45017
 O709 O 0.91526 0.52269 0.38292
 O710 O 0.88797 0.52272 0.35548
 C711 C 0.90705 0.53071 0.36380
 C712 C 0.91957 0.54987 0.35148
 C713 C 0.91181 0.55788 0.32949
 H714 H 0.89695 0.54943 0.32120
 O715 O 1.08470 0.47708 0.38280
 O716 O 1.11198 0.47706 0.35538
 C717 C 1.09290 0.46907 0.36370
 C718 C 1.08039 0.44988 0.35140
 C719 C 1.08815 0.44186 0.32943
 H720 H 1.10299 0.45033 0.32113
 O721 O 1.02300 0.38307 0.41501
 O722 O 1.02298 0.35564 0.38774
 C723 C 1.03100 0.36396 0.40681
 C724 C 1.05018 0.35164 0.41931
 C725 C 1.05824 0.32970 0.41149
 H726 H 1.04979 0.32144 0.39661
 O727 O 0.97713 0.61656 0.41501
 O728 O 0.97704 0.64402 0.38774
 C729 C 0.96909 0.63567 0.40683
 C730 C 0.94995 0.64797 0.41940
 C731 C 0.94202 0.67001 0.41173
 H732 H 0.95051 0.67835 0.39692
 O733 O 0.88314 0.58444 0.47691
 O734 O 0.85573 0.61174 0.47685
 C735 C 0.86404 0.59265 0.46888
 C736 C 0.85172 0.58014 0.44970
 C737 C 0.82973 0.58790 0.44172
 H738 H 0.82144 0.60273 0.45020
 O739 O 1.11689 0.41516 0.47680
 O740 O 1.14432 0.38787 0.47680
 C741 C 1.13599 0.40694 0.46878
 C742 C 1.14827 0.41944 0.44955
 C743 C 1.17020 0.41161 0.44145
 H744 H 1.17848 0.39673 0.44988
 O745 O 0.97715 0.58445 0.38287
 O746 O 0.97705 0.61176 0.35545
 C747 C 0.96910 0.59266 0.36377
 C748 C 0.94992 0.58015 0.35147
 C749 C 0.94192 0.58792 0.32948
 H750 H 0.95040 0.60275 0.32118
 O751 O 1.02296 0.41524 0.38290
 O752 O 1.02294 0.38795 0.35549
 C753 C 1.03094 0.40703 0.36379
 C754 C 1.05010 0.41954 0.35145
 C755 C 1.05811 0.41176 0.32947
 H756 H 1.04965 0.39690 0.32120
 O757 O 1.11684 0.47702 0.41494
 O758 O 1.14427 0.47700 0.38767
 C759 C 1.13594 0.46899 0.40674
 C760 C 1.14824 0.44978 0.41923
 C761 C 1.17016 0.44171 0.41139
 H762 H 1.17841 0.45017 0.39651
 O763 O 0.88314 0.52267 0.41506
 O764 O 0.85570 0.52270 0.38777
 C765 C 0.86402 0.53068 0.40685
 C766 C 0.85171 0.54984 0.41938
 C767 C 0.82972 0.55783 0.41163
 H768 H 0.82142 0.54937 0.39678
 O769 O 0.91531 0.61651 0.47691
 O770 O 0.88805 0.64396 0.47686
 C771 C 0.90713 0.63562 0.46889
 C772 C 0.91966 0.64794 0.44974
 C773 C 0.91197 0.66998 0.44183
 H774 H 0.89717 0.67829 0.45036
 O775 O 1.08478 0.38302 0.47685
 O776 O 1.11207 0.35559 0.47685
 C777 C 1.09299 0.36391 0.46885
 C778 C 1.08049 0.35161 0.44965
 C779 C 1.08831 0.32967 0.44159
 H780 H 1.10318 0.32140 0.45005
 O781 O 1.08478 0.52285 0.38275
 O782 O 1.11208 0.52289 0.35535
 C783 C 1.09301 0.53088 0.36365
 C784 C 1.08052 0.55011 0.35136
 C785 C 1.08840 0.55829 0.32948
 H786 H 1.10332 0.54991 0.32122
 O787 O 0.91527 0.47693 0.38292
 O788 O 0.88799 0.47691 0.35547
 C789 C 0.90708 0.46893 0.36380
 C790 C 0.91962 0.44978 0.35149
 C791 C 0.91188 0.44179 0.32949
 H792 H 0.89702 0.45025 0.32119
 O793 O 1.02289 0.61662 0.41499
 O794 O 1.02283 0.64408 0.38772
 C795 C 1.03085 0.63576 0.40680
 C796 C 1.05000 0.64809 0.41933
 C797 C 1.05796 0.67008 0.41157
 H798 H 1.04948 0.67836 0.39671
 O799 O 0.97724 0.38318 0.41516
 O800 O 0.97717 0.35573 0.38790
 C801 C 0.96922 0.36406 0.40700
 C802 C 0.95010 0.35175 0.41958
 C803 C 0.94221 0.32969 0.41194
 H804 H 0.95072 0.32136 0.39714
 O805 O 1.11669 0.58455 0.47688
 O806 O 1.14413 0.61181 0.47688
 C807 C 1.13581 0.59275 0.46888
 C808 C 1.14814 0.58024 0.44972
 C809 C 1.17012 0.58802 0.44177
 H810 H 1.17838 0.60286 0.45029
 O811 O 0.88314 0.41518 0.47702
 O812 O 0.85577 0.38786 0.47695
 C813 C 0.86407 0.40695 0.46897
 C814 C 0.85177 0.41942 0.44974
 C815 C 0.82983 0.41160 0.44169
 H816 H 0.82157 0.39674 0.45016
 Cu817 Cu 1.00011 0.40191 0.40173
 Cu818 Cu 1.00004 0.36906 0.36891
 Cu819 Cu 1.00003 0.59780 0.40164
 Cu820 Cu 0.99994 0.63068 0.36883
 Cu821 Cu 0.90194 0.49980 0.40172
 Cu822 Cu 0.86910 0.49980 0.36887
 Cu823 Cu 1.09805 0.49994 0.40160
 Cu824 Cu 1.13091 0.49994 0.36879
 C825 C 0.93881 0.43866 0.36222
 H826 H 0.94467 0.44452 0.37933
 C827 C 0.92294 0.42277 0.31832
 C828 C 1.06126 0.56114 0.36205
 H829 H 1.05530 0.55514 0.37907
 C830 C 1.07740 0.57740 0.31837
 C831 C 0.86247 0.43862 0.43860
 H832 H 0.87953 0.44454 0.44451
 C833 C 0.81868 0.42257 0.42259
 C834 C 1.13745 0.56107 0.43854
 H835 H 1.12036 0.55518 0.44438
 C836 C 1.18133 0.57704 0.42274
 C837 C 0.93892 0.36251 0.43872
 H838 H 0.94470 0.37966 0.44450
 C839 C 0.92325 0.31847 0.42306
 C840 C 1.06113 0.63738 0.43853
 H841 H 1.05529 0.62028 0.44440
 C842 C 1.07698 0.68127 0.42262
 C843 C 0.93877 0.56098 0.36220
 H844 H 0.94465 0.55511 0.37930
 C845 C 0.92286 0.57691 0.31831
 C846 C 1.06122 0.43875 0.36214
 H847 H 1.05535 0.44463 0.37923
 C848 C 1.07713 0.42280 0.31828
 C849 C 1.06129 0.36232 0.43854
 H850 H 1.05538 0.37939 0.44445
 C851 C 1.07731 0.31854 0.42251
 C852 C 0.93880 0.63720 0.43855
 H853 H 0.94461 0.62006 0.44434
 C854 C 0.92303 0.68120 0.42283
 C855 C 0.86245 0.56097 0.43856
 H856 H 0.87955 0.55511 0.44442
 C857 C 0.81855 0.57686 0.42268
 C858 C 1.13756 0.43866 0.43846
 H859 H 1.12051 0.44459 0.44439
 C860 C 1.18132 0.42263 0.42236
 O861 O 1.02292 0.41507 0.61678
 O862 O 1.02298 0.38777 0.64420
 C863 C 1.03096 0.40685 0.63588
 C864 C 1.05016 0.41934 0.64817
 C865 C 1.05822 0.41155 0.67014
 H866 H 1.04977 0.39670 0.67843
 O867 O 0.97716 0.58453 0.61656
 O868 O 0.97712 0.61178 0.64402
 C869 C 0.96915 0.59270 0.63568
 C870 C 0.94999 0.58017 0.64799
 C871 C 0.94205 0.58787 0.67001
 H872 H 0.95055 0.60269 0.67832
 O873 O 0.88313 0.52265 0.58449
 O874 O 0.85574 0.52271 0.61181
 C875 C 0.86404 0.53067 0.59271
 C876 C 0.85172 0.54984 0.58017
 C877 C 0.82972 0.55782 0.58791
 H878 H 0.82143 0.54934 0.60275
 O879 O 1.11683 0.47687 0.58452
 O880 O 1.14428 0.47687 0.61179
 C881 C 1.13596 0.46889 0.59271
 C882 C 1.14829 0.44974 0.58017
 C883 C 1.17028 0.44175 0.58793
 H884 H 1.17856 0.45020 0.60280
 O885 O 1.08475 0.38308 0.52263
 O886 O 1.11203 0.35565 0.52269
 C887 C 1.09295 0.36398 0.53067
 C888 C 1.08044 0.35168 0.54987
 C889 C 1.08820 0.32969 0.55788
 H890 H 1.10304 0.32140 0.54942
 O891 O 0.91527 0.61657 0.52268
 O892 O 0.88800 0.64401 0.52267
 C893 C 0.90708 0.63569 0.53067
 C894 C 0.91962 0.64802 0.54981
 C895 C 0.91190 0.67004 0.55776
 H896 H 0.89705 0.67833 0.54928
 O897 O 0.91532 0.47690 0.61663
 O898 O 0.88807 0.47692 0.64409
 C899 C 0.90714 0.46892 0.63576
 C900 C 0.91965 0.44975 0.64810
 C901 C 0.91186 0.44177 0.67007
 H902 H 0.89701 0.45026 0.67833
 O903 O 1.08467 0.52259 0.61666
 O904 O 1.11197 0.52264 0.64408
 C905 C 1.09287 0.53061 0.63576
 C906 C 1.08034 0.54977 0.64807
 C907 C 1.08803 0.55770 0.67011
 H908 H 1.10284 0.54919 0.67844
 O909 O 0.97711 0.38297 0.58466
 O910 O 0.97712 0.35553 0.61195
 C911 C 0.96910 0.36386 0.59288
 C912 C 0.94987 0.35159 0.58041
 C913 C 0.94174 0.32970 0.58828
 H914 H 0.95016 0.32143 0.60318
 O915 O 1.02294 0.61673 0.58452
 O916 O 1.02295 0.64412 0.61183
 C917 C 1.03094 0.63582 0.59275
 C918 C 1.05013 0.64813 0.58025
 C919 C 1.05821 0.67006 0.58807
 H920 H 1.04979 0.67834 0.60295
 O921 O 0.88307 0.41515 0.52282
 O922 O 0.85568 0.38785 0.52279
 C923 C 0.86397 0.40692 0.53080
 C924 C 0.85166 0.41940 0.55000
 C925 C 0.82972 0.41158 0.55807
 H926 H 0.82145 0.39671 0.54963
 O927 O 1.11669 0.58452 0.52266
 O928 O 1.14414 0.61177 0.52268
 C929 C 1.13581 0.59269 0.53067
 C930 C 1.14814 0.58014 0.54982
 C931 C 1.17016 0.58784 0.55777
 H932 H 1.17846 0.60267 0.54927
 O933 O 1.02292 0.58449 0.61657
 O934 O 1.02292 0.61174 0.64403
 C935 C 1.03091 0.59266 0.63570
 C936 C 1.05005 0.58011 0.64804
 C937 C 1.05798 0.58780 0.67007
 H938 H 1.04948 0.60262 0.67837
 O939 O 0.97715 0.41512 0.61676
 O940 O 0.97715 0.38783 0.64420
 C941 C 0.96915 0.40691 0.63588
 C942 C 0.94996 0.41942 0.64817
 C943 C 0.94192 0.41167 0.67015
 H944 H 0.95036 0.39682 0.67847
 O945 O 1.11676 0.52263 0.58450
 O946 O 1.14421 0.52267 0.61178
 C947 C 1.13587 0.53065 0.59269
 C948 C 1.14816 0.54981 0.58015
 C949 C 1.17019 0.55776 0.58785
 H950 H 1.17851 0.54925 0.60267
 O951 O 0.88310 0.47689 0.58457
 O952 O 0.85571 0.47690 0.61188
 C953 C 0.86400 0.46889 0.59280
 C954 C 0.85168 0.44971 0.58032
 C955 C 0.82975 0.44166 0.58815
 H956 H 0.82150 0.45011 0.60303
 O957 O 1.08463 0.61672 0.52268
 O958 O 1.11194 0.64411 0.52269
 C959 C 1.09287 0.63581 0.53069
 C960 C 1.08040 0.64812 0.54990
 C961 C 1.08823 0.67005 0.55794
 H962 H 1.10309 0.67831 0.54947
 O963 O 0.91524 0.38306 0.52287
 O964 O 0.88799 0.35561 0.52284
 C965 C 0.90705 0.36394 0.53087
 C966 C 0.91953 0.35164 0.55009
 C967 C 0.91165 0.32974 0.55821
 H968 H 0.89674 0.32151 0.54979
 O969 O 1.08474 0.47683 0.61669
 O970 O 1.11204 0.47683 0.64411
 C971 C 1.09297 0.46883 0.63580
 C972 C 1.08048 0.44964 0.64813
 C973 C 1.08830 0.44161 0.67009
 H974 H 1.10317 0.45007 0.67836
 O975 O 0.91531 0.52267 0.61659
 O976 O 0.88807 0.52272 0.64406
 C977 C 0.90714 0.53069 0.63571
 C978 C 0.91968 0.54985 0.64801
 C979 C 0.91199 0.55780 0.67003
 H980 H 0.89717 0.54931 0.67834
 O981 O 0.97717 0.61665 0.58442
 O982 O 0.97713 0.64406 0.61173
 C983 C 0.96915 0.63575 0.59263
 C984 C 0.94997 0.64806 0.58011
 C985 C 0.94201 0.67006 0.58781
 H986 H 0.95052 0.67838 0.60263
 O987 O 1.02289 0.38306 0.58453
 O988 O 1.02295 0.35561 0.61181
 C989 C 1.03093 0.36396 0.59272
 C990 C 1.05011 0.35167 0.58019
 C991 C 1.05811 0.32969 0.58795
 H992 H 1.04964 0.32139 0.60279
 O993 O 1.11690 0.41518 0.52259
 O994 O 1.14433 0.38790 0.52264
 C995 C 1.13601 0.40698 0.53062
 C996 C 1.14831 0.41949 0.54980
 C997 C 1.17030 0.41173 0.55780
 H998 H 1.17860 0.39691 0.54930
 O999 O 0.88314 0.58445 0.52268
 O1000 O 0.85572 0.61174 0.52267
 C1001 C 0.86404 0.59266 0.53068
 C1002 C 0.85172 0.58015 0.54984
 C1003 C 0.82972 0.58789 0.55782
 H1004 H 0.82143 0.60273 0.54932
 Cu1005 Cu 1.00001 0.40179 0.59795
 Cu1006 Cu 1.00006 0.36893 0.63078
 Cu1007 Cu 1.00005 0.59787 0.59778
 Cu1008 Cu 1.00003 0.63067 0.63065
 Cu1009 Cu 0.90193 0.40188 0.49996
 Cu1010 Cu 0.86915 0.36900 0.49989
 Cu1011 Cu 1.09810 0.40184 0.49971
 Cu1012 Cu 1.13094 0.36901 0.49975
 Cu1013 Cu 0.90195 0.59776 0.49980
 Cu1014 Cu 0.86912 0.63061 0.49976
 Cu1015 Cu 1.09791 0.59790 0.49978
 Cu1016 Cu 1.13078 0.63070 0.49978
 Cu1017 Cu 0.90194 0.49978 0.59783
 Cu1018 Cu 0.86916 0.49982 0.63071
 Cu1019 Cu 1.09801 0.49973 0.59786
 Cu1020 Cu 1.13088 0.49976 0.63069
 C1021 C 1.06127 0.43853 0.63744
 H1022 H 1.05536 0.44443 0.62036
 C1023 C 1.07729 0.42256 0.68128
 C1024 C 0.93883 0.56101 0.63725
 H1025 H 0.94466 0.55518 0.62013
 C1026 C 0.92305 0.57681 0.68121
 C1027 C 0.86245 0.56098 0.56100
 H1028 H 0.87955 0.55512 0.55515
 C1029 C 0.81855 0.57685 0.57685
 C1030 C 1.13757 0.43864 0.56096
 H1031 H 1.12047 0.44450 0.55510
 C1032 C 1.18146 0.42274 0.57686
 C1033 C 1.06125 0.36240 0.56100
 H1034 H 1.05537 0.37949 0.55513
 C1035 C 1.07716 0.31852 0.57692
 C1036 C 0.93880 0.63730 0.56096
 H1037 H 0.94464 0.62019 0.55513
 C1038 C 0.92298 0.68123 0.57676
 C1039 C 0.93885 0.43861 0.63741
 H1040 H 0.94474 0.44448 0.62032
 C1041 C 0.92286 0.42273 0.68128
 C1042 C 1.06120 0.56095 0.63730
 H1043 H 1.05538 0.55513 0.62017
 C1044 C 1.07697 0.57671 0.68129
 C1045 C 0.93878 0.36229 0.56117
 H1046 H 0.94475 0.37932 0.55521
 C1047 C 0.92262 0.31860 0.57731
 C1048 C 1.06120 0.63743 0.56103
 H1049 H 1.05528 0.62037 0.55512
 C1050 C 1.07727 0.68120 0.57703
 C1051 C 0.86236 0.43860 0.56110
 H1052 H 0.87942 0.44452 0.55518
 C1053 C 0.81859 0.42259 0.57716
 C1054 C 1.13740 0.56098 0.56099
 H1055 H 1.12028 0.55516 0.55516
 C1056 C 1.18136 0.57677 0.57678
 O1057 O 0.47679 0.91544 0.38315
 O1058 O 0.47678 0.88819 0.35569
 C1059 C 0.46879 0.90726 0.36402
 C1060 C 0.44964 0.91979 0.35168
 C1061 C 0.44164 0.91202 0.32970
 H1062 H 0.45011 0.89716 0.32144
 O1063 O 0.52270 1.08498 0.38319
 O1064 O 0.52273 1.11224 0.35572
 C1065 C 0.53070 1.09316 0.36406
 C1066 C 0.54985 1.08061 0.35175
 C1067 C 0.55783 1.08835 0.32975
 H1068 H 0.54936 1.10320 0.32145
 O1069 O 0.38297 0.97741 0.41519
 O1070 O 0.35556 0.97741 0.38788
 C1071 C 0.36386 0.96942 0.40698
 C1072 C 0.35152 0.95027 0.41950
 C1073 C 0.32953 0.94230 0.41174
 H1074 H 0.32125 0.95078 0.39688
 O1075 O 0.61658 1.02301 0.41533
 O1076 O 0.64400 1.02301 0.38804
 C1077 C 0.63570 1.03099 0.40713
 C1078 C 0.64807 1.05010 0.41968
 C1079 C 0.67013 1.05797 0.41201
 H1080 H 0.67843 1.04945 0.39720
 O1081 O 0.41494 0.88335 0.47700
 O1082 O 0.38764 0.85596 0.47699
 C1083 C 0.40671 0.86425 0.46899
 C1084 C 0.41920 0.85193 0.44981
 C1085 C 0.41140 0.82998 0.44177
 H1086 H 0.39653 0.82172 0.45022
 O1087 O 0.58471 1.11707 0.47705
 O1088 O 0.61201 1.14447 0.47699
 C1089 C 0.59292 1.13616 0.46900
 C1090 C 0.58042 1.14845 0.44978
 C1091 C 0.58827 1.17037 0.44167
 H1092 H 0.60317 1.17862 0.45008
 O1093 O 0.41518 1.02312 0.38308
 O1094 O 0.38792 1.02317 0.35561
 C1095 C 0.40700 1.03114 0.36396
 C1096 C 0.41952 1.05032 0.35167
 C1097 C 0.41179 1.05830 0.32966
 H1098 H 0.39698 1.04980 0.32134
 O1099 O 0.58436 0.97732 0.38321
 O1100 O 0.61162 0.97728 0.35576
 C1101 C 0.59254 0.96931 0.36410
 C1102 C 0.58000 0.95016 0.35178
 C1103 C 0.58769 0.94223 0.32975
 H1104 H 0.60250 0.95074 0.32144
 O1105 O 0.52253 0.88325 0.41529
 O1106 O 0.52257 0.85586 0.38797
 C1107 C 0.53055 0.86415 0.40707
 C1108 C 0.54973 0.85183 0.41958
 C1109 C 0.55773 0.82986 0.41181
 H1110 H 0.54925 0.82158 0.39696
 O1111 O 0.47698 1.11720 0.41527
 O1112 O 0.47696 1.14460 0.38795
 C1113 C 0.46897 1.13630 0.40704
 C1114 C 0.44979 1.14861 0.41953
 C1115 C 0.44174 1.17056 0.41173
 H1116 H 0.45020 1.17885 0.39687
 O1117 O 0.38295 1.08504 0.47689
 O1118 O 0.35553 1.11233 0.47686
 C1119 C 0.36385 1.09326 0.46885
 C1120 C 0.35156 1.08078 0.44963
 C1121 C 0.32964 1.08861 0.44151
 H1122 H 0.32136 1.10349 0.44992
 O1123 O 0.61649 0.91538 0.47704
 O1124 O 0.64392 0.88810 0.47705
 C1125 C 0.63560 0.90718 0.46905
 C1126 C 0.64793 0.91971 0.44989
 C1127 C 0.66994 0.91199 0.44195
 H1128 H 0.67824 0.89715 0.45045
 O1129 O 0.47694 1.08503 0.38318
 O1130 O 0.47693 1.11229 0.35571
 C1131 C 0.46894 1.09322 0.36404
 C1132 C 0.44979 1.08068 0.35171
 C1133 C 0.44181 1.08842 0.32970
 H1134 H 0.45028 1.10327 0.32141
 O1135 O 0.52254 0.91545 0.38321
 O1136 O 0.52258 0.88821 0.35574
 C1137 C 0.53055 0.90728 0.36408
 C1138 C 0.54970 0.91983 0.35178
 C1139 C 0.55764 0.91214 0.32975
 H1140 H 0.54916 0.89733 0.32143
 O1141 O 0.61656 0.97726 0.41529
 O1142 O 0.64396 0.97722 0.38799
 C1143 C 0.63565 0.96923 0.40707
 C1144 C 0.64795 0.95005 0.41959
 C1145 C 0.66997 0.94209 0.41189
 H1146 H 0.67828 0.95060 0.39707
 O1147 O 0.38298 1.02317 0.41513
 O1148 O 0.35558 1.02322 0.38780
 C1149 C 0.36389 1.03121 0.40688
 C1150 C 0.35159 1.05043 0.41935
 C1151 C 0.32967 1.05849 0.41148
 H1152 H 0.32142 1.05004 0.39660
 O1153 O 0.41511 1.11713 0.47697
 O1154 O 0.38783 1.14456 0.47695
 C1155 C 0.40691 1.13625 0.46897
 C1156 C 0.41944 1.14857 0.44982
 C1157 C 0.41164 1.17053 0.44178
 H1158 H 0.39676 1.17879 0.45022
 O1159 O 0.58438 0.88324 0.47705
 O1160 O 0.61166 0.85581 0.47707
 C1161 C 0.59259 0.86413 0.46906
 C1162 C 0.58007 0.85182 0.44989
 C1163 C 0.58783 0.82984 0.44188
 H1164 H 0.60269 0.82155 0.45034
 O1165 O 0.58445 1.02308 0.38318
 O1166 O 0.61171 1.02308 0.35574
 C1167 C 0.59265 1.03109 0.36407
 C1168 C 0.58014 1.05027 0.35175
 C1169 C 0.58788 1.05825 0.32975
 H1170 H 0.60271 1.04976 0.32145
 O1171 O 0.41506 0.97735 0.38302
 O1172 O 0.38779 0.97736 0.35556
 C1173 C 0.40686 0.96934 0.36390
 C1174 C 0.41935 0.95014 0.35161
 C1175 C 0.41159 0.94212 0.32963
 H1176 H 0.39675 0.95060 0.32131
 O1177 O 0.52277 1.11714 0.41528
 O1178 O 0.52279 1.14454 0.38795
 C1179 C 0.53080 1.13622 0.40704
 C1180 C 0.55004 1.14849 0.41950
 C1181 C 0.55813 1.17040 0.41164
 H1182 H 0.54967 1.17867 0.39676
 O1183 O 0.47676 0.88328 0.41526
 O1184 O 0.47675 0.85588 0.38795
 C1185 C 0.46874 0.86419 0.40703
 C1186 C 0.44954 0.85190 0.41951
 C1187 C 0.44149 0.82995 0.41172
 H1188 H 0.44996 0.82166 0.39686
 O1189 O 0.61671 1.08482 0.47715
 O1190 O 0.64417 1.11206 0.47710
 C1191 C 0.63583 1.09298 0.46914
 C1192 C 0.64813 1.08040 0.45001
 C1193 C 0.67019 1.08803 0.44210
 H1194 H 0.67853 1.10281 0.45062
 O1195 O 0.38291 0.91559 0.47703
 O1196 O 0.35546 0.88834 0.47702
 C1197 C 0.36379 0.90741 0.46902
 C1198 C 0.35149 0.91995 0.44984
 C1199 C 0.32950 0.91222 0.44184
 H1200 H 0.32120 0.89739 0.45032
 Cu1201 Cu 0.49966 0.90208 0.40197
 Cu1202 Cu 0.49967 0.86929 0.36909
 Cu1203 Cu 0.49984 1.09836 0.40197
 Cu1204 Cu 0.49985 1.13117 0.36909
 Cu1205 Cu 0.40178 1.00025 0.40184
 Cu1206 Cu 0.36897 1.00029 0.36896
 Cu1207 Cu 0.59776 1.00017 0.40199
 Cu1208 Cu 0.63057 1.00014 0.36913
 C1209 C 0.43852 0.93900 0.36237
 H1210 H 0.44439 0.94488 0.37947
 C1211 C 0.42262 0.92306 0.31849
 C1212 C 0.56098 1.06143 0.36249
 H1213 H 0.55512 1.05557 0.37959
 C1214 C 0.57684 1.07730 0.31858
 C1215 C 0.36224 0.93912 0.43870
 H1216 H 0.37934 0.94496 0.44457
 C1217 C 0.31835 0.92327 0.42279
 C1218 C 0.63734 1.06129 0.43882
 H1219 H 0.62019 1.05553 0.44462
 C1220 C 0.68136 1.07693 0.42311
 C1221 C 0.43842 0.86262 0.43870
 H1222 H 0.44432 0.87969 0.44459
 C1223 C 0.42242 0.81881 0.42272
 C1224 C 0.56117 1.13778 0.43872
 H1225 H 0.55523 1.12074 0.44467
 C1226 C 0.57725 1.18152 0.42259
 C1227 C 0.43866 1.06149 0.36243
 H1228 H 0.44451 1.05563 0.37955
 C1229 C 0.42281 1.07735 0.31849
 C1230 C 0.56085 0.93898 0.36253
 H1231 H 0.55503 0.94480 0.37966
 C1232 C 0.57664 0.92323 0.31855
 C1233 C 0.56087 0.86254 0.43876
 H1234 H 0.55500 0.87963 0.44464
 C1235 C 0.57678 0.81869 0.42283
 C1236 C 0.43866 1.13788 0.43872
 H1237 H 0.44455 1.12080 0.44462
 C1238 C 0.42266 1.18170 0.42273
 C1239 C 0.36227 1.06154 0.43857
 H1240 H 0.37932 1.05562 0.44452
 C1241 C 0.31852 1.07759 0.42243
 C1242 C 0.63720 0.93888 0.43874
 H1243 H 0.62008 0.94472 0.44457
 C1244 C 0.68114 0.92306 0.42295
 O1245 O 0.52261 0.91561 0.61674
 O1246 O 0.52264 0.88835 0.64420
 C1247 C 0.53062 0.90742 0.63586
 C1248 C 0.54980 0.91994 0.64816
 C1249 C 0.55775 0.91222 0.67018
 H1250 H 0.54924 0.89742 0.67850
 O1251 O 0.47700 1.08491 0.61667
 O1252 O 0.47698 1.11217 0.64411
 C1253 C 0.46898 1.09310 0.63578
 C1254 C 0.44979 1.08061 0.64808
 C1255 C 0.44180 1.08840 0.67005
 H1256 H 0.45031 1.10323 0.67833
 O1257 O 0.38293 1.02311 0.58454
 O1258 O 0.35550 1.02317 0.61183
 C1259 C 0.36382 1.03113 0.59273
 C1260 C 0.35151 1.05028 0.58017
 C1261 C 0.32950 1.05826 0.58787
 H1262 H 0.32119 1.04979 0.60271
 O1263 O 0.61666 0.97737 0.58453
 O1264 O 0.64407 0.97727 0.61184
 C1265 C 0.63575 0.96932 0.59274
 C1266 C 0.64803 0.95015 0.58021
 C1267 C 0.67006 0.94219 0.58791
 H1268 H 0.67839 0.95069 0.60271
 O1269 O 0.58436 0.88332 0.52283
 O1270 O 0.61163 0.85588 0.52289
 C1271 C 0.59256 0.86422 0.53087
 C1272 C 0.58004 0.85193 0.55005
 C1273 C 0.58776 0.82992 0.55803
 H1274 H 0.60257 0.82161 0.54953
 O1275 O 0.41507 1.11707 0.52275
 O1276 O 0.38779 1.14451 0.52278
 C1277 C 0.40687 1.13617 0.53078
 C1278 C 0.41939 1.14846 0.54997
 C1279 C 0.41162 1.17042 0.55801
 H1280 H 0.39675 1.17871 0.54957
 O1281 O 0.41505 0.97738 0.61676
 O1282 O 0.38778 0.97740 0.64420
 C1283 C 0.40685 0.96939 0.63589
 C1284 C 0.41935 0.95021 0.64821
 C1285 C 0.41156 0.94219 0.67018
 H1286 H 0.39670 0.95066 0.67845
 O1287 O 0.58456 1.02313 0.61668
 O1288 O 0.61183 1.02307 0.64415
 C1289 C 0.59276 1.03110 0.63581
 C1290 C 0.58027 1.05027 0.64813
 C1291 C 0.58807 1.05826 0.67011
 H1292 H 0.60292 1.04977 0.67838
 O1293 O 0.47684 0.88347 0.58465
 O1294 O 0.47683 0.85605 0.61195
 C1295 C 0.46884 0.86436 0.59285
 C1296 C 0.44970 0.85203 0.58031
 C1297 C 0.44178 0.83000 0.58802
 H1298 H 0.45028 0.82170 0.60285
 O1299 O 0.52277 1.11709 0.58459
 O1300 O 0.52278 1.14450 0.61188
 C1301 C 0.53078 1.13619 0.59280
 C1302 C 0.54996 1.14849 0.58029
 C1303 C 0.55800 1.17045 0.58806
 H1304 H 0.54955 1.17875 0.60292
 O1305 O 0.38289 0.91552 0.52282
 O1306 O 0.35546 0.88826 0.52285
 C1307 C 0.36379 0.90732 0.53085
 C1308 C 0.35151 0.91981 0.55005
 C1309 C 0.32959 0.91198 0.55813
 H1310 H 0.32132 0.89710 0.54968
 O1311 O 0.61684 1.08501 0.52293
 O1312 O 0.64426 1.11228 0.52293
 C1313 C 0.63594 1.09323 0.53096
 C1314 C 0.64822 1.08075 0.55020
 C1315 C 0.67010 1.08863 0.55839
 H1316 H 0.67835 1.10355 0.55001
 O1317 O 0.52278 1.08495 0.61674
 O1318 O 0.52280 1.11222 0.64418
 C1319 C 0.53079 1.09314 0.63585
 C1320 C 0.54998 1.08062 0.64816
 C1321 C 0.55802 1.08837 0.67014
 H1322 H 0.54959 1.10323 0.67844
 O1323 O 0.47683 0.91555 0.61682
 O1324 O 0.47682 0.88828 0.64427
 C1325 C 0.46883 0.90736 0.63594
 C1326 C 0.44965 0.91987 0.64824
 C1327 C 0.44161 0.91209 0.67021
 H1328 H 0.45006 0.89722 0.67850
 O1329 O 0.61678 1.02315 0.58465
 O1330 O 0.64418 1.02309 0.61198
 C1331 C 0.63588 1.03114 0.59291
 C1332 C 0.64819 1.05038 0.58048
 C1333 C 0.67006 1.05849 0.58842
 H1334 H 0.67829 1.05005 0.60333
 O1335 O 0.38290 0.97734 0.58464
 O1336 O 0.35549 0.97736 0.61193
 C1337 C 0.36380 0.96933 0.59286
 C1338 C 0.35151 0.95012 0.58038
 C1339 C 0.32958 0.94204 0.58822
 H1340 H 0.32131 0.95047 0.60310
 O1341 O 0.58459 1.11702 0.52283
 O1342 O 0.61187 1.14444 0.52282
 C1343 C 0.59279 1.13613 0.53081
 C1344 C 0.58027 1.14846 0.54997
 C1345 C 0.58806 1.17042 0.55798
 H1346 H 0.60292 1.17868 0.54951
 O1347 O 0.41505 0.88342 0.52278
 O1348 O 0.38776 0.85601 0.52282
 C1349 C 0.40685 0.86432 0.53080
 C1350 C 0.41939 0.85200 0.54996
 C1351 C 0.41171 0.82998 0.55791
 H1352 H 0.39690 0.82166 0.54940
 O1353 O 0.58455 0.97737 0.61669
 O1354 O 0.61182 0.97728 0.64415
 C1355 C 0.59273 0.96933 0.63581
 C1356 C 0.58017 0.95020 0.64813
 C1357 C 0.58788 0.94224 0.67016
 H1358 H 0.60272 0.95070 0.67846
 O1359 O 0.41506 1.02314 0.61670
 O1360 O 0.38779 1.02322 0.64413
 C1361 C 0.40687 1.03118 0.63580
 C1362 C 0.41941 1.05036 0.64809
 C1363 C 0.41166 1.05840 0.67007
 H1364 H 0.39680 1.04997 0.67837
 O1365 O 0.47699 1.11706 0.58455
 O1366 O 0.47696 1.14447 0.61185
 C1367 C 0.46897 1.13615 0.59276
 C1368 C 0.44976 1.14845 0.58026
 C1369 C 0.44174 1.17041 0.58806
 H1370 H 0.45023 1.17869 0.60290
 O1371 O 0.52259 0.88341 0.58470
 O1372 O 0.52263 0.85599 0.61201
 C1373 C 0.53060 0.86430 0.59292
 C1374 C 0.54975 0.85197 0.58039
 C1375 C 0.55771 0.82996 0.58814
 H1376 H 0.54924 0.82167 0.60298
 O1377 O 0.61650 0.91543 0.52280
 O1378 O 0.64392 0.88814 0.52286
 C1379 C 0.63561 0.90723 0.53082
 C1380 C 0.64796 0.91978 0.54994
 C1381 C 0.66998 0.91207 0.55788
 H1382 H 0.67826 0.89723 0.54940
 O1383 O 0.38297 1.08493 0.52267
 O1384 O 0.35554 1.11221 0.52269
 C1385 C 0.36385 1.09312 0.53067
 C1386 C 0.35153 1.08058 0.54982
 C1387 C 0.32952 1.08832 0.55776
 H1388 H 0.32123 1.10315 0.54926
 Cu1389 Cu 0.49971 0.90224 0.59799
 Cu1390 Cu 0.49973 0.86943 0.63086
 Cu1391 Cu 0.49989 1.09827 0.59790
 Cu1392 Cu 0.49988 1.13109 0.63075
 Cu1393 Cu 0.40168 0.90220 0.49990
 Cu1394 Cu 0.36883 0.86940 0.49992
 Cu1395 Cu 0.59769 0.90208 0.49992
 Cu1396 Cu 0.63053 0.86923 0.49997
 Cu1397 Cu 0.40176 1.09831 0.49982
 Cu1398 Cu 0.36892 1.13115 0.49983
 Cu1399 Cu 0.59798 1.09825 0.49999
 Cu1400 Cu 0.63083 1.13106 0.49995
 Cu1401 Cu 0.40172 1.00024 0.59793
 Cu1402 Cu 0.36889 1.00030 0.63077
 Cu1403 Cu 0.59791 1.00026 0.59789
 Cu1404 Cu 0.63072 1.00016 0.63078
 C1405 C 0.56098 0.93907 0.63739
 H1406 H 0.55515 0.94491 0.62027
 C1407 C 0.57679 0.92325 0.68136
 C1408 C 0.43862 1.06144 0.63736
 H1409 H 0.44449 1.05555 0.62027
 C1410 C 0.42274 1.07742 0.68122
 C1411 C 0.36225 1.06142 0.56099
 H1412 H 0.37937 1.05557 0.55517
 C1413 C 0.31833 1.07728 0.57679
 C1414 C 0.63725 0.93897 0.56108
 H1415 H 0.62012 0.94481 0.55526
 C1416 C 0.68121 0.92315 0.57686
 C1417 C 0.56089 0.86268 0.56121
 H1418 H 0.55505 0.87980 0.55535
 C1419 C 0.57672 0.81876 0.57707
 C1420 C 0.43861 1.13774 0.56108
 H1421 H 0.44449 1.12067 0.55518
 C1422 C 0.42267 1.18157 0.57706
 C1423 C 0.43855 0.93908 0.63751
 H1424 H 0.44444 0.94497 0.62043
 C1425 C 0.42256 0.92313 0.68135
 C1426 C 0.56108 1.06143 0.63743
 H1427 H 0.55518 1.05556 0.62034
 C1428 C 0.57708 1.07731 0.68129
 C1429 C 0.43853 0.86276 0.56114
 H1430 H 0.44434 0.87989 0.55531
 C1431 C 0.42279 0.81880 0.57693
 C1432 C 0.56108 1.13776 0.56110
 H1433 H 0.55518 1.12068 0.55522
 C1434 C 0.57705 1.18159 0.57702
 C1435 C 0.36220 0.93903 0.56116
 H1436 H 0.37925 0.94495 0.55523
 C1437 C 0.31844 0.92296 0.57721
 C1438 C 0.63754 1.06148 0.56123
 H1439 H 0.62053 1.05552 0.55522
 C1440 C 0.68120 1.07763 0.57751
 O1441 O 0.47723 0.41512 0.88339
 O1442 O 0.47724 0.38784 0.85596
 C1443 C 0.46924 0.40691 0.86427
 C1444 C 0.45007 0.41943 0.85194
 C1445 C 0.44207 0.41165 0.82996
 H1446 H 0.45055 0.39680 0.82169
 O1447 O 0.52289 0.58460 0.88352
 O1448 O 0.52293 0.61186 0.85606
 C1449 C 0.53091 0.59278 0.86440
 C1450 C 0.55006 0.58024 0.85210
 C1451 C 0.55801 0.58795 0.83008
 H1452 H 0.54952 0.60279 0.82177
 O1453 O 0.38329 0.47693 0.91542
 O1454 O 0.35587 0.47696 0.88811
 C1455 C 0.36418 0.46895 0.90719
 C1456 C 0.35184 0.44979 0.91970
 C1457 C 0.32988 0.44179 0.91188
 H1458 H 0.32163 0.45027 0.89701
 O1459 O 0.61689 0.52267 0.91562
 O1460 O 0.64430 0.52272 0.88832
 C1461 C 0.63599 0.53068 0.90741
 C1462 C 0.64832 0.54983 0.91995
 C1463 C 0.67032 0.55779 0.91222
 H1464 H 0.67861 0.54930 0.89739
 O1465 O 0.41532 0.38306 0.97726
 O1466 O 0.38804 0.35564 0.97727
 C1467 C 0.40711 0.36395 0.96926
 C1468 C 0.41961 0.35163 0.95007
 C1469 C 0.41179 0.32970 0.94201
 H1470 H 0.39691 0.32144 0.95044
 O1471 O 0.58476 0.61661 0.97737
 O1472 O 0.61204 0.64402 0.97737
 C1473 C 0.59296 0.63572 0.96937
 C1474 C 0.58042 0.64806 0.95022
 C1475 C 0.58814 0.67007 0.94226
 H1476 H 0.60298 0.67836 0.95074
 O1477 O 0.41545 0.52269 0.88332
 O1478 O 0.38818 0.52275 0.85587
 C1479 C 0.40726 0.53072 0.86420
 C1480 C 0.41978 0.54988 0.85190
 C1481 C 0.41209 0.55783 0.82987
 H1482 H 0.39729 0.54931 0.82153
 O1483 O 0.58475 0.47693 0.88347
 O1484 O 0.61201 0.47695 0.85603
 C1485 C 0.59295 0.46894 0.86435
 C1486 C 0.58046 0.44976 0.85204
 C1487 C 0.58826 0.44178 0.83007
 H1488 H 0.60310 0.45028 0.82180
 O1489 O 0.52297 0.38299 0.91559
 O1490 O 0.52302 0.35556 0.88832
 C1491 C 0.53100 0.36389 0.90741
 C1492 C 0.55018 0.35160 0.91996
 C1493 C 0.55821 0.32962 0.91221
 H1494 H 0.54976 0.32132 0.89736
 O1495 O 0.47709 0.61678 0.91553
 O1496 O 0.47708 0.64419 0.88822
 C1497 C 0.46907 0.63588 0.90730
 C1498 C 0.44987 0.64818 0.91978
 C1499 C 0.44180 0.67013 0.91197
 H1500 H 0.45024 0.67841 0.89710
 O1501 O 0.38330 0.58453 0.97738
 O1502 O 0.35584 0.61178 0.97731
 C1503 C 0.36419 0.59270 0.96934
 C1504 C 0.35190 0.58015 0.95018
 C1505 C 0.32986 0.58782 0.94223
 H1506 H 0.32153 0.60263 0.95074
 O1507 O 0.61698 0.41516 0.97740
 O1508 O 0.64440 0.38787 0.97744
 C1509 C 0.63608 0.40693 0.96940
 C1510 C 0.64838 0.41941 0.95019
 C1511 C 0.67032 0.41159 0.94211
 H1512 H 0.67860 0.39672 0.95056
 O1513 O 0.47714 0.58461 0.88345
 O1514 O 0.47714 0.61187 0.85599
 C1515 C 0.46916 0.59279 0.86431
 C1516 C 0.45004 0.58024 0.85196
 C1517 C 0.44211 0.58795 0.82992
 H1518 H 0.45058 0.60279 0.82163
 O1519 O 0.52300 0.41507 0.88340
 O1520 O 0.52305 0.38779 0.85598
 C1521 C 0.53103 0.40687 0.86430
 C1522 C 0.55020 0.41940 0.85200
 C1523 C 0.55825 0.41165 0.83002
 H1524 H 0.54982 0.39678 0.82172
 O1525 O 0.61692 0.47691 0.91558
 O1526 O 0.64432 0.47692 0.88827
 C1527 C 0.63602 0.46891 0.90736
 C1528 C 0.64834 0.44972 0.91985
 C1529 C 0.67028 0.44167 0.91202
 H1530 H 0.67853 0.45012 0.89714
 O1531 O 0.38337 0.52269 0.91549
 O1532 O 0.35594 0.52275 0.88819
 C1533 C 0.36426 0.53071 0.90729
 C1534 C 0.35194 0.54985 0.91984
 C1535 C 0.32990 0.55777 0.91214
 H1536 H 0.32160 0.54928 0.89731
 O1537 O 0.41532 0.61676 0.97735
 O1538 O 0.38800 0.64416 0.97728
 C1539 C 0.40709 0.63585 0.96931
 C1540 C 0.41957 0.64816 0.95011
 C1541 C 0.41175 0.67010 0.94207
 H1542 H 0.39689 0.67836 0.95053
 O1543 O 0.58479 0.38309 0.97744
 O1544 O 0.61207 0.35566 0.97749
 C1545 C 0.59300 0.36397 0.96947
 C1546 C 0.58049 0.35164 0.95030
 C1547 C 0.58828 0.32967 0.94231
 H1548 H 0.60314 0.32141 0.95079
 O1549 O 0.58472 0.52270 0.88351
 O1550 O 0.61198 0.52276 0.85606
 C1551 C 0.59290 0.53073 0.86440
 C1552 C 0.58036 0.54990 0.85209
 C1553 C 0.58807 0.55786 0.83007
 H1554 H 0.60289 0.54936 0.82176
 O1555 O 0.41544 0.47692 0.88331
 O1556 O 0.38817 0.47694 0.85586
 C1557 C 0.40724 0.46893 0.86419
 C1558 C 0.41975 0.44974 0.85189
 C1559 C 0.41199 0.44172 0.82991
 H1560 H 0.39714 0.45018 0.82160
 O1561 O 0.52286 0.61673 0.91563
 O1562 O 0.52290 0.64415 0.88832
 C1563 C 0.53088 0.63583 0.90742
 C1564 C 0.55005 0.64812 0.91994
 C1565 C 0.55800 0.67013 0.91223
 H1566 H 0.54949 0.67845 0.89741
 O1567 O 0.47720 0.38298 0.91552
 O1568 O 0.47720 0.35555 0.88824
 C1569 C 0.46918 0.36388 0.90731
 C1570 C 0.44997 0.35160 0.91979
 C1571 C 0.44190 0.32966 0.91197
 H1572 H 0.45036 0.32138 0.89711
 O1573 O 0.61689 0.58447 0.97741
 O1574 O 0.64432 0.61174 0.97741
 C1575 C 0.63601 0.59266 0.96942
 C1576 C 0.64832 0.58014 0.95026
 C1577 C 0.67033 0.58786 0.94230
 H1578 H 0.67863 0.60269 0.95079
 O1579 O 0.38318 0.41517 0.97725
 O1580 O 0.35575 0.38791 0.97725
 C1581 C 0.36407 0.40697 0.96924
 C1582 C 0.35178 0.41948 0.95003
 C1583 C 0.32981 0.41172 0.94197
 H1584 H 0.32151 0.39687 0.95043
 Cu1585 Cu 0.50010 0.40177 0.90221
 Cu1586 Cu 0.50013 0.36893 0.86938
 Cu1587 Cu 0.49998 0.59795 0.90227
 Cu1588 Cu 0.50002 0.63077 0.86940
 Cu1589 Cu 0.40212 0.49980 0.90212
 Cu1590 Cu 0.36929 0.49986 0.86925
 Cu1591 Cu 0.59809 0.49980 0.90228
 Cu1592 Cu 0.63090 0.49985 0.86942
 C1593 C 0.43893 0.43862 0.86263
 H1594 H 0.44480 0.44450 0.87973
 C1595 C 0.42303 0.42267 0.81876
 C1596 C 0.56122 0.56107 0.86284
 H1597 H 0.55539 0.55523 0.87997
 C1598 C 0.57701 0.57689 0.81889
 C1599 C 0.36252 0.43866 0.93891
 H1600 H 0.37960 0.44453 0.94482
 C1601 C 0.31869 0.42276 0.92289
 C1602 C 0.63759 0.56098 0.93911
 H1603 H 0.62047 0.55514 0.94495
 C1604 C 0.68150 0.57680 0.92328
 C1605 C 0.43884 0.36231 0.93898
 H1606 H 0.44476 0.37937 0.94490
 C1607 C 0.42281 0.31854 0.92296
 C1608 C 0.56123 0.63735 0.93908
 H1609 H 0.55540 0.62023 0.94492
 C1610 C 0.57704 0.68129 0.92327
 C1611 C 0.43890 0.56106 0.86268
 H1612 H 0.44472 0.55523 0.87982
 C1613 C 0.42313 0.57686 0.81870
 C1614 C 0.56129 0.43860 0.86273
 H1615 H 0.55539 0.44447 0.87982
 C1616 C 0.57729 0.42272 0.81888
 C1617 C 0.56129 0.36234 0.93915
 H1618 H 0.55540 0.37942 0.94500
 C1619 C 0.57727 0.31849 0.92326
 C1620 C 0.43878 0.63747 0.93900
 H1621 H 0.44470 0.62040 0.94491
 C1622 C 0.42274 0.68126 0.92299
 C1623 C 0.36267 0.56102 0.93900
 H1624 H 0.37981 0.55521 0.94483
 C1625 C 0.31869 0.57676 0.92321
 C1626 C 0.63766 0.43861 0.93907
 H1627 H 0.62061 0.44453 0.94499
 C1628 C 0.68145 0.42260 0.92302
 O1629 O 0.52288 0.41522 1.11730
 O1630 O 0.52287 0.38789 1.14469
 C1631 C 0.53088 0.40698 1.13640
 C1632 C 0.55007 0.41944 1.14874
 C1633 C 0.55813 0.41157 1.17067
 H1634 H 0.54968 0.39670 1.17891
 O1635 O 0.47716 0.58454 1.11708
 O1636 O 0.47714 0.61184 1.14449
 C1637 C 0.46915 0.59276 1.13618
 C1638 C 0.44999 0.58026 1.14850
 C1639 C 0.44200 0.58805 1.17047
 H1640 H 0.45049 0.60290 1.17874
 O1641 O 0.38318 0.52285 1.08500
 O1642 O 0.35575 0.52286 1.11228
 C1643 C 0.36408 0.53087 1.09320
 C1644 C 0.35179 0.55008 1.08071
 C1645 C 0.32987 0.55819 1.08855
 H1646 H 0.32161 0.54977 1.10345
 O1647 O 0.61675 0.47697 1.08517
 O1648 O 0.64421 0.47695 1.11245
 C1649 C 0.63588 0.46898 1.09336
 C1650 C 0.64822 0.44986 1.08080
 C1651 C 0.67025 0.44192 1.08851
 H1652 H 0.67853 0.45040 1.10336
 O1653 O 0.58477 0.38316 1.02322
 O1654 O 0.61206 0.35573 1.02331
 C1655 C 0.59297 0.36406 1.03128
 C1656 C 0.58046 0.35176 1.05046
 C1657 C 0.58822 0.32978 1.05846
 H1658 H 0.60307 0.32150 1.04999
 O1659 O 0.41535 0.61675 1.02313
 O1660 O 0.38805 0.64417 1.02311
 C1661 C 0.40714 0.63586 1.03112
 C1662 C 0.41965 0.64817 1.05030
 C1663 C 0.41191 0.67016 1.05830
 H1664 H 0.39706 0.67846 1.04984
 O1665 O 0.41531 0.47703 1.11712
 O1666 O 0.38800 0.47700 1.14452
 C1667 C 0.40708 0.46900 1.13622
 C1668 C 0.41955 0.44979 1.14854
 C1669 C 0.41167 0.44173 1.17046
 H1670 H 0.39679 0.45020 1.17869
 O1671 O 0.58465 0.52271 1.11733
 O1672 O 0.61194 0.52274 1.14476
 C1673 C 0.59286 0.53073 1.13643
 C1674 C 0.58036 0.54992 1.14871
 C1675 C 0.58812 0.55795 1.17069
 H1676 H 0.60296 0.54948 1.17901
 O1677 O 0.47716 0.38316 1.08502
 O1678 O 0.47713 0.35569 1.11226
 C1679 C 0.46916 0.36404 1.09318
 C1680 C 0.45003 0.35172 1.08060
 C1681 C 0.44209 0.32970 1.08831
 H1682 H 0.45058 0.32140 1.10315
 O1683 O 0.52291 0.61665 1.08494
 O1684 O 0.52294 0.64409 1.11220
 C1685 C 0.53092 0.63576 1.09312
 C1686 C 0.55006 0.64807 1.08057
 C1687 C 0.55797 0.67011 1.08823
 H1688 H 0.54946 0.67844 1.10304
 O1689 O 0.38323 0.41523 1.02303
 O1690 O 0.35580 0.38796 1.02309
 C1691 C 0.36413 0.40704 1.03106
 C1692 C 0.35183 0.41958 1.05023
 C1693 C 0.32983 0.41186 1.05822
 H1694 H 0.32152 0.39702 1.04975
 O1695 O 0.61682 0.58445 1.02320
 O1696 O 0.64426 0.61171 1.02324
 C1697 C 0.63592 0.59264 1.03123
 C1698 C 0.64821 0.58013 1.05044
 C1699 C 0.67021 0.58786 1.05842
 H1700 H 0.67852 0.60268 1.04991
 O1701 O 0.52292 0.58458 1.11715
 O1702 O 0.52294 0.61188 1.14456
 C1703 C 0.53092 0.59279 1.13626
 C1704 C 0.55008 0.58027 1.14862
 C1705 C 0.55807 0.58806 1.17060
 H1706 H 0.54961 0.60293 1.17885
 O1707 O 0.47710 0.41519 1.11725
 O1708 O 0.47704 0.38786 1.14465
 C1709 C 0.46905 0.40695 1.13634
 C1710 C 0.44983 0.41944 1.14861
 C1711 C 0.44171 0.41161 1.17054
 H1712 H 0.45011 0.39672 1.17883
 O1713 O 0.61675 0.52271 1.08519
 O1714 O 0.64420 0.52274 1.11247
 C1715 C 0.63587 0.53072 1.09338
 C1716 C 0.64818 0.54987 1.08083
 C1717 C 0.67018 0.55784 1.08856
 H1718 H 0.67847 0.54938 1.10342
 O1719 O 0.38325 0.47708 1.08490
 O1720 O 0.35580 0.47705 1.11215
 C1721 C 0.36414 0.46908 1.09307
 C1722 C 0.35183 0.44991 1.08054
 C1723 C 0.32984 0.44195 1.08827
 H1724 H 0.32155 0.45044 1.10310
 O1725 O 0.58473 0.61660 1.02313
 O1726 O 0.61201 0.64402 1.02317
 C1727 C 0.59292 0.63571 1.03114
 C1728 C 0.58038 0.64804 1.05027
 C1729 C 0.58805 0.67008 1.05817
 H1730 H 0.60286 0.67839 1.04965
 O1731 O 0.41537 0.38311 1.02304
 O1732 O 0.38810 0.35568 1.02310
 C1733 C 0.40718 0.36401 1.03107
 C1734 C 0.41973 0.35170 1.05025
 C1735 C 0.41203 0.32969 1.05821
 H1736 H 0.39721 0.32137 1.04970
 O1737 O 0.58469 0.47694 1.11737
 O1738 O 0.61199 0.47691 1.14479
 C1739 C 0.59291 0.46892 1.13648
 C1740 C 0.58042 0.44972 1.14878
 C1741 C 0.58824 0.44161 1.17071
 H1742 H 0.60313 0.45002 1.17899
 O1743 O 0.41534 0.52280 1.11713
 O1744 O 0.38805 0.52282 1.14455
 C1745 C 0.40713 0.53080 1.13624
 C1746 C 0.41965 0.54997 1.14855
 C1747 C 0.41190 0.55801 1.17052
 H1748 H 0.39704 0.54957 1.17882
 O1749 O 0.47715 0.61669 1.08496
 O1750 O 0.47714 0.64413 1.11223
 C1751 C 0.46915 0.63581 1.09315
 C1752 C 0.44998 0.64813 1.08062
 C1753 C 0.44201 0.67012 1.08838
 H1754 H 0.45050 0.67839 1.10323
 O1755 O 0.52293 0.38315 1.08511
 O1756 O 0.52294 0.35568 1.11236
 C1757 C 0.53095 0.36403 1.09330
 C1758 C 0.55014 0.35174 1.08079
 C1759 C 0.55816 0.32976 1.08855
 H1760 H 0.54970 0.32146 1.10339
 O1761 O 0.61689 0.41528 1.02319
 O1762 O 0.64432 0.38800 1.02327
 C1763 C 0.63600 0.40708 1.03123
 C1764 C 0.64828 0.41961 1.05041
 C1765 C 0.67031 0.41191 1.05837
 H1766 H 0.67864 0.39712 1.04986
 O1767 O 0.38321 0.58466 1.02316
 O1768 O 0.35576 0.61193 1.02313
 C1769 C 0.36409 0.59286 1.03116
 C1770 C 0.35180 0.58039 1.05037
 C1771 C 0.32988 0.58825 1.05845
 H1772 H 0.32163 0.60314 1.05001
 Cu1773 Cu 0.50002 0.40192 1.09844
 Cu1774 Cu 0.49999 0.36903 1.13124
 Cu1775 Cu 0.50004 0.59788 1.09830
 Cu1776 Cu 0.50004 0.63074 1.13111
 Cu1777 Cu 0.40201 0.40188 1.00014
 Cu1778 Cu 0.36918 0.36905 1.00019
 Cu1779 Cu 0.59813 0.40191 1.00030
 Cu1780 Cu 0.63096 0.36906 1.00039
 Cu1781 Cu 0.40203 0.59794 1.00026
 Cu1782 Cu 0.36916 0.63075 1.00020
 Cu1783 Cu 0.59807 0.59780 1.00027
 Cu1784 Cu 0.63091 0.63062 1.00030
 Cu1785 Cu 0.40200 0.49995 1.09830
 Cu1786 Cu 0.36915 0.49993 1.13112
 Cu1787 Cu 0.59797 0.49983 1.09854
 Cu1788 Cu 0.63083 0.49983 1.13137
 C1789 C 0.56119 0.43866 1.13806
 H1790 H 0.55527 0.44461 1.12100
 C1791 C 0.57722 0.42253 1.18183
 C1792 C 0.43884 0.56108 1.13780
 H1793 H 0.44471 0.55518 1.12072
 C1794 C 0.42296 0.57706 1.18166
 C1795 C 0.36248 0.56116 1.06147
 H1796 H 0.37952 0.55521 1.05554
 C1797 C 0.31875 0.57728 1.07755
 C1798 C 0.63750 0.43873 1.06160
 H1799 H 0.62038 0.44455 1.05576
 C1800 C 0.68147 0.42295 1.07742
 C1801 C 0.56127 0.36248 1.06160
 H1802 H 0.55539 0.37957 1.05573
 C1803 C 0.57720 0.31860 1.07751
 C1804 C 0.43884 0.63743 1.06144
 H1805 H 0.44469 0.62033 1.05557
 C1806 C 0.42297 0.68131 1.07735
 C1807 C 0.43877 0.43867 1.13788
 H1808 H 0.44472 0.44460 1.12083
 C1809 C 0.42262 0.42264 1.18163
 C1810 C 0.56119 0.56106 1.13795
 H1811 H 0.55532 0.55517 1.12085
 C1812 C 0.57709 0.57703 1.18181
 C1813 C 0.43887 0.36246 1.06142
 H1814 H 0.44470 0.37958 1.05559
 C1815 C 0.42309 0.31851 1.07724
 C1816 C 0.56123 0.63730 1.06144
 H1817 H 0.55543 0.62016 1.05565
 C1818 C 0.57696 0.68130 1.07715
 C1819 C 0.36256 0.43876 1.06137
 H1820 H 0.37967 0.44460 1.05551
 C1821 C 0.31866 0.42292 1.07724
 C1822 C 0.63746 0.56099 1.06162
 H1823 H 0.62035 0.55514 1.05576
 C1824 C 0.68137 0.57684 1.07748
 C1825 C 1.11303 1.11250 1.26750
 N1826 N 1.10316 1.13156 1.27776
 N1827 N 1.11216 1.14048 1.29740
 C1828 C 1.13142 1.13075 1.30762
 N1829 N 1.14116 1.11157 1.29729
 N1830 N 1.13217 1.10263 1.27765
 C1831 C 1.10347 1.10301 1.24552
 N1832 N 1.11361 1.08421 1.23503
 N1833 N 1.10526 1.07595 1.21482
 C1834 C 1.08645 1.08614 1.20428
 N1835 N 1.07628 1.10491 1.21490
 N1836 N 1.08462 1.11318 1.23511
 C1837 C 1.11156 0.61136 0.76790
 N1838 N 1.13059 0.60141 0.77819
 N1839 N 1.13941 0.61026 0.79794
 C1840 C 1.12958 0.62941 0.80820
 N1841 N 1.11045 0.63925 0.79789
 N1842 N 1.10162 0.63041 0.77813
 C1843 C 1.10221 0.60200 0.74579
 N1844 N 1.08349 0.61225 0.73524
 N1845 N 1.07537 0.60411 0.71489
 C1846 C 1.08565 0.58540 0.70426
 N1847 N 1.10434 0.57513 0.71494
 N1848 N 1.11246 0.58326 0.73529
 C1849 C 0.61234 1.11205 0.76761
 N1850 N 0.63145 1.10209 0.77776
 N1851 N 0.64041 1.11093 0.79746
 C1852 C 0.63065 1.13006 0.80780
 N1853 N 0.61146 1.13991 0.79762
 N1854 N 0.60248 1.13109 0.77792
 C1855 C 0.60282 1.10268 0.74556
 N1856 N 0.58403 1.11294 0.73514
 N1857 N 0.57575 1.10478 0.71486
 C1858 C 0.58592 1.08605 0.70418
 N1859 N 0.60467 1.07576 0.71474
 N1860 N 0.61297 1.08391 0.73502
 C1861 C 0.61201 0.61214 1.26811
 N1862 N 0.60211 0.63123 1.27830
 N1863 N 0.61101 0.64015 1.29798
 C1864 C 0.63020 0.63040 1.30831
 N1865 N 0.63996 0.61119 1.29805
 N1866 N 0.63107 0.60225 1.27838
 C1867 C 0.60258 0.60267 1.24608
 N1868 N 0.61279 0.58387 1.23564
 N1869 N 0.60459 0.57562 1.21537
 C1870 C 0.58586 0.58584 1.20470
 N1871 N 0.57562 0.60460 1.21527
 N1872 N 0.58381 0.61286 1.23555
 C1873 C 0.88847 0.88848 1.26794
 N1874 N 0.89840 0.86944 1.27824
 N1875 N 0.88952 0.86062 1.29797
 C1876 C 0.87037 0.87045 1.30821
 N1877 N 0.86054 0.88958 1.29789
 N1878 N 0.86941 0.89842 1.27816
 C1879 C 0.89785 0.89781 1.24584
 N1880 N 0.88762 0.91654 1.23528
 N1881 N 0.89578 0.92464 1.21493
 C1882 C 0.91448 0.91435 1.20432
 N1883 N 0.92475 0.89566 1.21501
 N1884 N 0.91660 0.88755 1.23536
 C1885 C 0.88757 0.38803 0.76760
 N1886 N 0.86844 0.39796 0.77771
 N1887 N 0.85948 0.38913 0.79741
 C1888 C 0.86927 0.37001 0.80779
 N1889 N 0.88848 0.36019 0.79764
 N1890 N 0.89745 0.36901 0.77795
 C1891 C 0.89709 0.39739 0.74556
 N1892 N 0.91590 0.38713 0.73517
 N1893 N 0.92419 0.39528 0.71489
 C1894 C 0.91401 0.41400 0.70418
 N1895 N 0.89525 0.42428 0.71469
 N1896 N 0.88695 0.41614 0.73497
 C1897 C 0.38738 0.88809 0.76758
 N1898 N 0.39726 0.86902 0.77784
 N1899 N 0.38831 0.86012 0.79751
 C1900 C 0.36912 0.86991 0.80772
 N1901 N 0.35934 0.88908 0.79743
 N1902 N 0.36828 0.89800 0.77776
 C1903 C 0.39687 0.89754 0.74556
 N1904 N 0.38670 0.91634 0.73506
 N1905 N 0.39497 0.92456 0.71480
 C1906 C 0.41373 0.91433 0.70423
 N1907 N 0.42393 0.89557 0.71486
 N1908 N 0.41567 0.88734 0.73512
 C1909 C 0.38700 0.38764 1.26771
 N1910 N 0.39686 0.36860 1.27804
 N1911 N 0.38782 0.35972 1.29769
 C1912 C 0.36855 0.36947 1.30784
 N1913 N 0.35883 0.38864 1.29744
 N1914 N 0.36785 0.39753 1.27779
 C1915 C 0.39660 0.39707 1.24573
 N1916 N 0.38649 0.41586 1.23517
 N1917 N 0.39487 0.42407 1.21495
 C1918 C 0.41368 0.41383 1.20447
 N1919 N 0.42382 0.39508 1.21516
 N1920 N 0.41545 0.38685 1.23538
 C1921 C 0.88656 1.11285 0.73266
 N1922 N 0.89640 1.13192 0.72237
 N1923 N 0.88735 1.14085 0.70276
 C1924 C 0.86807 1.13113 0.69258
 N1925 N 0.85836 1.11195 0.70294
 N1926 N 0.86740 1.10300 0.72256
 C1927 C 0.89620 1.10334 0.75460
 N1928 N 0.88611 1.08452 0.76512
 N1929 N 0.89453 1.07623 0.78529
 C1930 C 0.91337 1.08640 0.79577
 N1931 N 0.92349 1.10519 0.78513
 N1932 N 0.91508 1.11350 0.76496
 C1933 C 0.88796 0.61197 0.23196
 N1934 N 0.86889 0.60209 0.22171
 N1935 N 0.86001 0.61103 0.20202
 C1936 C 0.86977 0.63023 0.19174
 N1937 N 0.88897 0.63997 0.20205
 N1938 N 0.89787 0.63104 0.22174
 C1939 C 0.89738 0.60251 0.25400
 N1940 N 0.91616 0.61268 0.26451
 N1941 N 0.92435 0.60444 0.28480
 C1942 C 0.91410 0.58571 0.29541
 N1943 N 0.89535 0.57551 0.28477
 N1944 N 0.88715 0.58374 0.26448
 C1945 C 0.38794 1.11211 0.23200
 N1946 N 0.36888 1.10219 0.22177
 N1947 N 0.35999 1.11105 0.20205
 C1948 C 0.36977 1.13022 0.19171
 N1949 N 0.38896 1.14000 0.20201
 N1950 N 0.39785 1.13114 0.22173
 C1951 C 0.39736 1.10272 0.25409
 N1952 N 0.41611 1.11296 0.26458
 N1953 N 0.42430 1.10480 0.28490
 C1954 C 0.41406 1.08608 0.29555
 N1955 N 0.39535 1.07581 0.28492
 N1956 N 0.38715 1.08397 0.26460
 C1957 C 0.38847 0.61152 0.73209
 N1958 N 0.39837 0.63059 0.72185
 N1959 N 0.38951 0.63943 0.70210
 C1960 C 0.37040 0.62957 0.69180
 N1961 N 0.36060 0.61041 0.70206
 N1962 N 0.36945 0.60156 0.72181
 C1963 C 0.39783 0.60216 0.75420
 N1964 N 0.38762 0.58339 0.76470
 N1965 N 0.39577 0.57526 0.78505
 C1966 C 0.41444 0.58556 0.79573
 N1967 N 0.42468 0.60428 0.78510
 N1968 N 0.41654 0.61243 0.76475
 C1969 C 1.11257 0.88793 0.73241
 N1970 N 1.13166 0.89784 0.72222
 N1971 N 1.14060 0.88894 0.70255
 C1972 C 1.13084 0.86977 0.69228
 N1973 N 1.11166 0.85995 0.70249
 N1974 N 1.10270 0.86885 0.72216
 C1975 C 1.10307 0.89737 0.75442
 N1976 N 1.08428 0.88717 0.76487
 N1977 N 1.07601 0.89540 0.78512
 C1978 C 1.08620 0.91415 0.79574
 N1979 N 1.10495 0.92439 0.78516
 N1980 N 1.11323 0.91617 0.76491
 C1981 C 1.11212 0.38784 0.23196
 N1982 N 1.10222 0.36878 0.22172
 N1983 N 1.11113 0.35989 0.20203
 C1984 C 1.13032 0.36966 0.19174
 N1985 N 1.14008 0.38885 0.20205
 N1986 N 1.13118 0.39774 0.22174
 C1987 C 1.10267 0.39727 0.25400
 N1988 N 1.11287 0.41605 0.26449
 N1989 N 1.10465 0.42425 0.28477
 C1990 C 1.08592 0.41402 0.29539
 N1991 N 1.07570 0.39527 0.28477
 N1992 N 1.08391 0.38706 0.26449
 C1993 C 0.61135 0.88862 0.23200
 N1994 N 0.60143 0.86959 0.22173
 N1995 N 0.61030 0.86075 0.20200
 C1996 C 0.62944 0.87057 0.19174
 N1997 N 0.63927 0.88971 0.20203
 N1998 N 0.63041 0.89856 0.22176
 C1999 C 0.60197 0.89798 0.25409
 N2000 N 0.61220 0.91671 0.26462
 N2001 N 0.60404 0.92483 0.28496
 C2002 C 0.58534 0.91455 0.29560
 N2003 N 0.57509 0.89586 0.28493
 N2004 N 0.58323 0.88773 0.26459
 C2005 C 0.61254 0.38799 0.73258
 N2006 N 0.60265 0.36896 0.72225
 N2007 N 0.61161 0.36013 0.70256
 C2008 C 0.63081 0.36995 0.69239
 N2009 N 0.64060 0.38907 0.70274
 N2010 N 0.63166 0.39791 0.72244
 C2011 C 0.60303 0.39735 0.75462
 N2012 N 0.61318 0.41611 0.76518
 N2013 N 0.60489 0.42426 0.78545
 C2014 C 0.58613 0.41399 0.79599
 N2015 N 0.57596 0.39526 0.78530
 N2016 N 0.58423 0.38711 0.76503
 C2017 C 1.26784 1.11172 1.11208
 N2018 N 1.27803 1.10176 1.13116
 N2019 N 1.29775 1.11058 1.14007
 C2020 C 1.30807 1.12972 1.13028
 N2021 N 1.29785 1.13957 1.11111
 N2022 N 1.27814 1.13076 1.10218
 C2023 C 1.24577 1.10237 1.10263
 N2024 N 1.23529 1.11265 1.08387
 N2025 N 1.21498 1.10451 1.07566
 C2026 C 1.20432 1.08579 1.08588
 N2027 N 1.21493 1.07549 1.10460
 N2028 N 1.23524 1.08362 1.11282
 C2029 C 1.26790 0.61146 0.61145
 N2030 N 1.27817 0.60152 0.63050
 N2031 N 1.29790 0.61038 0.63935
 C2032 C 1.30815 0.62954 0.62952
 N2033 N 1.29786 0.63937 0.61038
 N2034 N 1.27813 0.63052 0.60152
 C2035 C 1.24581 0.60209 0.60209
 N2036 N 1.23528 0.61233 0.58334
 N2037 N 1.21494 0.60418 0.57521
 C2038 C 1.20431 0.58547 0.58548
 N2039 N 1.21498 0.57520 0.60418
 N2040 N 1.23531 0.58334 0.61233
 C2041 C 0.76708 1.11295 0.61328
 N2042 N 0.77721 1.10307 0.63243
 N2043 N 0.79683 1.11200 0.64146
 C2044 C 0.80717 1.13120 0.63174
 N2045 N 0.79697 1.14094 0.61246
 N2046 N 0.77735 1.13202 0.60343
 C2047 C 0.74514 1.10345 0.60366
 N2048 N 0.73476 1.11362 0.58479
 N2049 N 0.71459 1.10532 0.57639
 C2050 C 0.70397 1.08652 0.58651
 N2051 N 0.71448 1.07633 0.60535
 N2052 N 0.73465 1.08462 0.61376
 C2053 C 0.76780 0.61166 1.11229
 N2054 N 0.77805 0.60174 1.13136
 N2055 N 0.79776 0.61061 1.14024
 C2056 C 0.80803 0.62976 1.13041
 N2057 N 0.79776 0.63958 1.11124
 N2058 N 0.77805 0.63071 1.10236
 C2059 C 0.74574 0.60226 1.10289
 N2060 N 0.73523 0.61247 1.08411
 N2061 N 0.71493 0.60429 1.07595
 C2062 C 0.70430 0.58558 1.08622
 N2063 N 0.71493 0.57534 1.10496
 N2064 N 0.73524 0.58351 1.11314
 C2065 C 1.26757 0.88759 0.88764
 N2066 N 1.27780 0.89749 0.86857
 N2067 N 1.29746 0.88856 0.85966
 C2068 C 1.30774 0.86934 0.86940
 N2069 N 1.29744 0.85957 0.88860
 N2070 N 1.27778 0.86850 0.89753
 C2071 C 1.24557 0.89708 0.89712
 N2072 N 1.23509 0.88690 0.91591
 N2073 N 1.21485 0.89517 0.92416
 C2074 C 1.20427 0.91395 0.91396
 N2075 N 1.21488 0.92417 0.89520
 N2076 N 1.23511 0.91590 0.88694
 C2077 C 1.26744 0.38759 0.38694
 N2078 N 1.27758 0.39748 0.36781
 N2079 N 1.29724 0.38860 0.35885
 C2080 C 1.30761 0.36943 0.36860
 N2081 N 1.29740 0.35967 0.38785
 N2082 N 1.27774 0.36854 0.39682
 C2083 C 1.24544 0.39702 0.39648
 N2084 N 1.23504 0.38681 0.41532
 N2085 N 1.21481 0.39505 0.42363
 C2086 C 1.20416 0.41380 0.41346
 N2087 N 1.21468 0.42403 0.39467
 N2088 N 1.23491 0.41581 0.38634
 C2089 C 0.76772 0.88841 0.38836
 N2090 N 0.77800 0.89837 0.36934
 N2091 N 0.79776 0.88953 0.36052
 C2092 C 0.80803 0.87039 0.37036
 N2093 N 0.79773 0.86053 0.38948
 N2094 N 0.77797 0.86936 0.39830
 C2095 C 0.74561 0.89776 0.39770
 N2096 N 0.73507 0.88750 0.41642
 N2097 N 0.71473 0.89565 0.42454
 C2098 C 0.70410 0.91436 0.41426
 N2099 N 0.71476 0.92464 0.39558
 N2100 N 0.73510 0.91651 0.38745
 C2101 C 0.76765 0.38760 0.88777
 N2102 N 0.77793 0.36855 0.89766
 N2103 N 0.79761 0.35968 0.88872
 C2104 C 0.80785 0.36945 0.86950
 N2105 N 0.79751 0.38863 0.85974
 N2106 N 0.77782 0.39751 0.86867
 C2107 C 0.74563 0.39703 0.89727
 N2108 N 0.73511 0.41581 0.88710
 N2109 N 0.71486 0.42402 0.89539
 C2110 C 0.70430 0.41379 0.91416
 N2111 N 0.71495 0.39504 0.92436
 N2112 N 0.73520 0.38682 0.91608
 C2113 C 0.73206 0.88846 1.11152
 N2114 N 0.72178 0.89844 1.13053
 N2115 N 0.70203 0.88963 1.13936
 C2116 C 0.69175 0.87048 1.12955
 N2117 N 0.70204 0.86061 1.11045
 N2118 N 0.72180 0.86941 1.10160
 C2119 C 0.75417 0.89779 1.10216
 N2120 N 0.76470 0.88750 1.08346
 N2121 N 0.78505 0.89562 1.07534
 C2122 C 0.79569 0.91433 1.08558
 N2123 N 0.78503 0.92464 1.10425
 N2124 N 0.76468 0.91654 1.11238
 C2125 C 0.73240 0.38757 0.61240
 N2126 N 0.72213 0.36853 0.60250
 N2127 N 0.70245 0.35965 0.61144
 C2128 C 0.69220 0.36941 0.63066
 N2129 N 0.70254 0.38857 0.64043
 N2130 N 0.72222 0.39746 0.63150
 C2131 C 0.75442 0.39700 0.60290
 N2132 N 0.76493 0.41578 0.61308
 N2133 N 0.78517 0.42399 0.60479
 C2134 C 0.79573 0.41378 0.58602
 N2135 N 0.78510 0.39504 0.57582
 N2136 N 0.76485 0.38681 0.58409
 C2137 C 0.23236 0.88760 0.61237
 N2138 N 0.22219 0.86850 0.60248
 N2139 N 0.20254 0.85954 0.61140
 C2140 C 0.19222 0.86927 0.63060
 N2141 N 0.20246 0.88850 0.64036
 N2142 N 0.22211 0.89747 0.63145
 C2143 C 0.25434 0.89713 0.60290
 N2144 N 0.26477 0.91595 0.61309
 N2145 N 0.28499 0.92425 0.60483
 C2146 C 0.29561 0.91408 0.58606
 N2147 N 0.28505 0.89530 0.57584
 N2148 N 0.26483 0.88699 0.58409
 C2149 C 0.23225 0.38822 1.11220
 N2150 N 0.22196 0.36917 1.10230
 N2151 N 0.20226 0.36034 1.11121
 C2152 C 0.19204 0.37017 1.13038
 N2153 N 0.20234 0.38931 1.14018
 N2154 N 0.22205 0.39815 1.13127
 C2155 C 0.25431 0.39758 1.10275
 N2156 N 0.26484 0.41634 1.11295
 N2157 N 0.28514 0.42448 1.10473
 C2158 C 0.29574 0.41420 1.08601
 N2159 N 0.28508 0.39549 1.07578
 N2160 N 0.26478 0.38733 1.08399
 C2161 C 0.73235 1.11230 0.88766
 N2162 N 0.72211 1.13134 0.89759
 N2163 N 0.70241 1.14024 0.88868
 C2164 C 0.69212 1.13051 0.86947
 N2165 N 0.70243 1.11134 0.85968
 N2166 N 0.72213 1.10243 0.86857
 C2167 C 0.75439 1.10285 0.89712
 N2168 N 0.76488 1.08408 0.88691
 N2169 N 0.78515 1.07586 0.89516
 C2170 C 0.79575 1.08607 0.91393
 N2171 N 0.78512 1.10480 0.92416
 N2172 N 0.76486 1.11303 0.91593
 C2173 C 0.73215 0.61177 0.38780
 N2174 N 0.72191 0.60185 0.36874
 N2175 N 0.70220 0.61074 0.35985
 C2176 C 0.69194 0.62991 0.36965
 N2177 N 0.70221 0.63973 0.38880
 N2178 N 0.72192 0.63085 0.39770
 C2179 C 0.75421 0.60235 0.39722
 N2180 N 0.76472 0.61257 0.41598
 N2181 N 0.78502 0.60436 0.42416
 C2182 C 0.79563 0.58563 0.41392
 N2183 N 0.78499 0.57539 0.39520
 N2184 N 0.76469 0.58358 0.38700
 C2185 C 0.23242 1.11265 0.38690
 N2186 N 0.22213 1.13171 0.39674
 N2187 N 0.20248 1.14059 0.38773
 C2188 C 0.19228 1.13083 0.36848
 N2189 N 0.20264 1.11164 0.35877
 N2190 N 0.22229 1.10275 0.36777
 C2191 C 0.25441 1.10321 0.39647
 N2192 N 0.26493 1.08441 0.38636
 N2193 N 0.28515 1.07618 0.39471
 C2194 C 0.29568 1.08641 0.41350
 N2195 N 0.28504 1.10518 0.42364
 N2196 N 0.26481 1.11342 0.41530
 C2197 C 0.23209 0.61135 0.88855
 N2198 N 0.22182 0.63039 0.89849
 N2199 N 0.20208 0.63922 0.88964
 C2200 C 0.19180 0.62939 0.87049
 N2201 N 0.20209 0.61026 0.86066
 N2202 N 0.22183 0.60142 0.86950
 C2203 C 0.25419 0.60200 0.89792
 N2204 N 0.26473 0.58328 0.88767
 N2205 N 0.28508 0.57516 0.89581
 C2206 C 0.29572 0.58543 0.91452
 N2207 N 0.28505 0.60411 0.92480
 N2208 N 0.26470 0.61224 0.91666
 C2209 C 1.11175 1.26781 1.11213
 N2210 N 1.13079 1.27810 1.10223
 N2211 N 1.13963 1.29780 1.11116
 C2212 C 1.12981 1.30800 1.13034
 N2213 N 1.11068 1.29768 1.14014
 N2214 N 1.10182 1.27799 1.13122
 C2215 C 1.10237 1.24576 1.10267
 N2216 N 1.08363 1.23522 1.11287
 N2217 N 1.07548 1.21493 1.10465
 C2218 C 1.08574 1.20435 1.08590
 N2219 N 1.10444 1.21502 1.07567
 N2220 N 1.11260 1.23532 1.08388
 C2221 C 1.11261 0.76736 0.61201
 N2222 N 1.10274 0.77764 0.63107
 N2223 N 1.11170 0.79732 0.63994
 C2224 C 1.13089 0.80751 0.63011
 N2225 N 1.14066 0.79720 0.61096
 N2226 N 1.13170 0.77753 0.60208
 C2227 C 1.10308 0.74535 0.60259
 N2228 N 1.11322 0.73484 0.58379
 N2229 N 1.10491 0.71460 0.57558
 C2230 C 1.08615 0.70405 0.58583
 N2231 N 1.07599 0.71469 0.60459
 N2232 N 1.08428 0.73493 0.61281
 C2233 C 0.61234 1.26778 0.61194
 N2234 N 0.60249 1.27805 0.63102
 N2235 N 0.61148 1.29770 0.63990
 C2236 C 0.63068 1.30787 0.63008
 N2237 N 0.64043 1.29757 0.61091
 N2238 N 0.63145 1.27792 0.60202
 C2239 C 0.60280 1.24578 0.60252
 N2240 N 0.61295 1.23526 0.58373
 N2241 N 0.60465 1.21502 0.57554
 C2242 C 0.58590 1.20446 0.58580
 N2243 N 0.57573 1.21511 0.60455
 N2244 N 0.58401 1.23536 0.61275
 C2245 C 0.61150 0.76795 1.11161
 N2246 N 0.63054 0.77820 1.10166
 N2247 N 0.63936 0.79796 1.11048
 C2248 C 0.62951 0.80827 1.12959
 N2249 N 0.61037 0.79800 1.13943
 N2250 N 0.60155 0.77824 1.13063
 C2251 C 0.60217 0.74583 1.10230
 N2252 N 0.58344 0.73532 1.11256
 N2253 N 0.57534 0.71496 1.10446
 C2254 C 0.58563 0.70428 1.08579
 N2255 N 0.60432 0.71492 1.07550
 N2256 N 0.61243 0.73528 1.08359
 C2257 C 0.88768 1.26773 0.88815
 N2258 N 0.86858 1.27788 0.89809
 N2259 N 0.85961 1.29756 0.88922
 C2260 C 0.86936 1.30788 0.87006
 N2261 N 0.88854 1.29770 0.86022
 N2262 N 0.89752 1.27802 0.86908
 C2263 C 0.89719 1.24569 0.89753
 N2264 N 0.91596 1.23526 0.88726
 N2265 N 0.92422 1.21498 0.89542
 C2266 C 0.91405 1.20431 0.91417
 N2267 N 0.89532 1.21488 0.92447
 N2268 N 0.88705 1.23516 0.91631
 C2269 C 0.88837 0.76785 0.38838
 N2270 N 0.86931 0.77807 0.39833
 N2271 N 0.86047 0.79783 0.38951
 C2272 C 0.87031 0.80816 0.37040
 N2273 N 0.88946 0.79792 0.36057
 N2274 N 0.89832 0.77816 0.36937
 C2275 C 0.89774 0.74573 0.39770
 N2276 N 0.91647 0.73524 0.38743
 N2277 N 0.92461 0.71488 0.39552
 C2278 C 0.91434 0.70418 0.41419
 N2279 N 0.89564 0.71480 0.42449
 N2280 N 0.88750 0.73516 0.41641
 C2281 C 0.38741 1.26783 0.38756
 N2282 N 0.39729 1.27806 0.36847
 N2283 N 0.38831 1.29770 0.35952
 C2284 C 0.36909 1.30790 0.36927
 N2285 N 0.35931 1.29764 0.38845
 N2286 N 0.36828 1.27800 0.39741
 C2287 C 0.39693 1.24585 0.39705
 N2288 N 0.38675 1.23536 0.41584
 N2289 N 0.39504 1.21512 0.42410
 C2290 C 0.41382 1.20456 0.41390
 N2291 N 0.42403 1.21518 0.39515
 N2292 N 0.41575 1.23541 0.38689
 C2293 C 0.38743 0.76747 0.88801
 N2294 N 0.39729 0.77775 0.86893
 N2295 N 0.38832 0.79743 0.86007
 C2296 C 0.36914 0.80763 0.86989
 N2297 N 0.35937 0.79731 0.88906
 N2298 N 0.36833 0.77763 0.89793
 C2299 C 0.39695 0.74545 0.89743
 N2300 N 0.38681 0.73494 0.91623
 N2301 N 0.39511 0.71469 0.92444
 C2302 C 0.41387 0.70413 0.91419
 N2303 N 0.42404 0.71477 0.89543
 N2304 N 0.41575 0.73502 0.88720
 C2305 C 1.11160 0.73198 0.88844
 N2306 N 1.10166 0.72174 0.86938
 N2307 N 1.11049 0.70199 0.86055
 C2308 C 1.12960 0.69167 0.87042
 N2309 N 1.13943 0.70193 0.88957
 N2310 N 1.13061 0.72169 0.89840
 C2311 C 1.10227 0.75409 0.89779
 N2312 N 1.11251 0.76458 0.91654
 N2313 N 1.10440 0.78493 0.92466
 C2314 C 1.08573 0.79562 0.91437
 N2315 N 1.07545 0.78500 0.89565
 N2316 N 1.08356 0.76465 0.88751
 C2317 C 1.11255 0.23246 0.38726
 N2318 N 1.13165 0.22225 0.39715
 N2319 N 1.14060 0.20262 0.38819
 C2320 C 1.13084 0.19240 0.36898
 N2321 N 1.11165 0.20263 0.35919
 N2322 N 1.10268 0.22227 0.36814
 C2323 C 1.10304 0.25444 0.39676
 N2324 N 1.08423 0.26491 0.38658
 N2325 N 1.07596 0.28513 0.39486
 C2326 C 1.08615 0.29570 0.41365
 N2327 N 1.10492 0.28510 0.42387
 N2328 N 1.11320 0.26488 0.41559
 C2329 C 0.61165 0.73236 0.38781
 N2330 N 0.60171 0.72215 0.36873
 N2331 N 0.61058 0.70245 0.35983
 C2332 C 0.62974 0.69216 0.36962
 N2333 N 0.63958 0.70239 0.38879
 N2334 N 0.63072 0.72209 0.39770
 C2335 C 0.60225 0.75441 0.39726
 N2336 N 0.61248 0.76487 0.41603
 N2337 N 0.60429 0.78515 0.42425
 C2338 C 0.58555 0.79579 0.41404
 N2339 N 0.57529 0.78519 0.39530
 N2340 N 0.58347 0.76491 0.38707
 C2341 C 0.61242 0.23225 0.88832
 N2342 N 0.60251 0.22199 0.86926
 N2343 N 0.61146 0.20233 0.86036
 C2344 C 0.63068 0.19213 0.87014
 N2345 N 0.64049 0.20241 0.88929
 N2346 N 0.63155 0.22208 0.89821
 C2347 C 0.60294 0.25426 0.89776
 N2348 N 0.61313 0.26478 0.91653
 N2349 N 0.60487 0.28504 0.92473
 C2350 C 0.58609 0.29561 0.91450
 N2351 N 0.57587 0.28496 0.89577
 N2352 N 0.58412 0.26470 0.88756
 C2353 C 0.88830 0.73218 1.11217
 N2354 N 0.86923 0.72193 1.10229
 N2355 N 0.86039 0.70222 1.11121
 C2356 C 0.87023 0.69198 1.13038
 N2357 N 0.88939 0.70226 1.14016
 N2358 N 0.89825 0.72197 1.13125
 C2359 C 0.89770 0.75423 1.10272
 N2360 N 0.91648 0.76473 1.11290
 N2361 N 0.92465 0.78501 1.10466
 C2362 C 0.91438 0.79563 1.08593
 N2363 N 0.89563 0.78500 1.07572
 N2364 N 0.88745 0.76471 1.08395
 C2365 C 0.88703 0.23273 0.61280
 N2366 N 0.86789 0.22258 0.60294
 N2367 N 0.85888 0.20299 0.61194
 C2368 C 0.86863 0.19275 0.63115
 N2369 N 0.88786 0.20292 0.64091
 N2370 N 0.89688 0.22252 0.63192
 C2371 C 0.89662 0.25466 0.60324
 N2372 N 0.91548 0.26506 0.61338
 N2373 N 0.92384 0.28522 0.60504
 C2374 C 0.91368 0.29581 0.58623
 N2375 N 0.89486 0.28528 0.57606
 N2376 N 0.88649 0.26512 0.58439
 C2377 C 0.38826 0.73218 0.61155
 N2378 N 0.36924 0.72190 0.60160
 N2379 N 0.36044 0.70214 0.61043
 C2380 C 0.37029 0.69186 0.62957
 N2381 N 0.38940 0.70216 0.63943
 N2382 N 0.39822 0.72192 0.63060
 C2383 C 0.39759 0.75430 0.60221
 N2384 N 0.41630 0.76483 0.61247
 N2385 N 0.42440 0.78519 0.60433
 C2386 C 0.41412 0.79583 0.58562
 N2387 N 0.39544 0.78517 0.57534
 N2388 N 0.38733 0.76481 0.58346
 C2389 C 0.38841 0.23205 1.11208
 N2390 N 0.36936 0.22178 1.10217
 N2391 N 0.36051 0.20208 1.11108
 C2392 C 0.37033 0.19185 1.13026
 N2393 N 0.38948 0.20214 1.14007
 N2394 N 0.39834 0.22184 1.13117
 C2395 C 0.39778 0.25412 1.10266
 N2396 N 0.41652 0.26464 1.11289
 N2397 N 0.42466 0.28495 1.10470
 C2398 C 0.41439 0.29557 1.08597
 N2399 N 0.39569 0.28492 1.07571
 N2400 N 0.38754 0.26460 1.08389
 C2401 C 1.11165 1.11224 0.73211
 N2402 N 1.13070 1.10237 0.72180
 N2403 N 1.13950 1.11131 0.70208
 C2404 C 1.12964 1.13048 0.69188
 N2405 N 1.11050 1.14025 0.70221
 N2406 N 1.10168 1.13132 0.72192
 C2407 C 1.10231 1.10276 0.75417
 N2408 N 1.08354 1.11291 0.76471
 N2409 N 1.07541 1.10465 0.78501
 C2410 C 1.08573 1.08594 0.79561
 N2411 N 1.10447 1.07577 0.78494
 N2412 N 1.11260 1.08401 0.76463
 C2413 C 1.11274 0.61318 0.23249
 N2414 N 1.13182 0.60334 0.22224
 N2415 N 1.14077 0.61239 0.20263
 C2416 C 1.13105 0.63167 0.19245
 N2417 N 1.11185 0.64138 0.20277
 N2418 N 1.10289 0.63234 0.22238
 C2419 C 1.10322 0.60355 0.25443
 N2420 N 1.08440 0.61365 0.26492
 N2421 N 1.07610 0.60523 0.28509
 C2422 C 1.08629 0.58640 0.29559
 N2423 N 1.10508 0.57627 0.28497
 N2424 N 1.11339 0.58467 0.26480
 C2425 C 0.61170 1.11226 0.23220
 N2426 N 0.63077 1.10237 0.22195
 N2427 N 0.63965 1.11130 0.20227
 C2428 C 0.62984 1.13048 0.19204
 N2429 N 0.61068 1.14027 0.20231
 N2430 N 0.60179 1.13135 0.22200
 C2431 C 0.60229 1.10281 0.25425
 N2432 N 0.58353 1.11301 0.26475
 N2433 N 0.57535 1.10480 0.28504
 C2434 C 0.58559 1.08606 0.29566
 N2435 N 0.60432 1.07582 0.28503
 N2436 N 0.61251 1.08403 0.26473
 C2437 C 0.61167 0.61162 0.73234
 N2438 N 0.63072 0.60170 0.72208
 N2439 N 0.63955 0.61057 0.70234
 C2440 C 0.62970 0.62971 0.69206
 N2441 N 0.61057 0.63953 0.70235
 N2442 N 0.60173 0.63067 0.72209
 C2443 C 0.60232 0.60224 0.75444
 N2444 N 0.58358 0.61247 0.76495
 N2445 N 0.57544 0.60431 0.78529
 C2446 C 0.58572 0.58560 0.79593
 N2447 N 0.60442 0.57534 0.78529
 N2448 N 0.61256 0.58350 0.76495
 C2449 C 0.88843 0.88841 0.73198
 N2450 N 0.86939 0.89834 0.72171
 N2451 N 0.86054 0.88947 0.70197
 C2452 C 0.87036 0.87032 0.69172
 N2453 N 0.88950 0.86049 0.70201
 N2454 N 0.89836 0.86935 0.72174
 C2455 C 0.89781 0.89779 0.75407
 N2456 N 0.91655 0.88757 0.76460
 N2457 N 0.92469 0.89573 0.78493
 C2458 C 0.91442 0.91444 0.79555
 N2459 N 0.89571 0.92469 0.78489
 N2460 N 0.88756 0.91654 0.76456
 C2461 C 0.88813 0.38784 0.23190
 N2462 N 0.89804 0.36878 0.22168
 N2463 N 0.88915 0.35989 0.20198
 C2464 C 0.86997 0.36966 0.19166
 N2465 N 0.86020 0.38885 0.20194
 N2466 N 0.86908 0.39775 0.22164
 C2467 C 0.89753 0.39727 0.25396
 N2468 N 0.88730 0.41604 0.26444
 N2469 N 0.89548 0.42423 0.28474
 C2470 C 0.91420 0.41401 0.29539
 N2471 N 0.92447 0.39528 0.28479
 N2472 N 0.91630 0.38707 0.26448
 C2473 C 0.38781 0.88795 0.23214
 N2474 N 0.39773 0.86886 0.22197
 N2475 N 0.38886 0.85993 0.20227
 C2476 C 0.36970 0.86969 0.19190
 N2477 N 0.35992 0.88890 0.20214
 N2478 N 0.36877 0.89784 0.22183
 C2479 C 0.39719 0.89742 0.25419
 N2480 N 0.38697 0.91622 0.26462
 N2481 N 0.39514 0.92446 0.28491
 C2482 C 0.41387 0.91425 0.29559
 N2483 N 0.42412 0.89549 0.28503
 N2484 N 0.41595 0.88724 0.26474
 C2485 C 0.38821 0.38759 0.73240
 N2486 N 0.39813 0.36849 0.72223
 N2487 N 0.38927 0.35958 0.70252
 C2488 C 0.37014 0.36938 0.69219
 N2489 N 0.36032 0.38857 0.70239
 N2490 N 0.36917 0.39749 0.72210
 C2491 C 0.39760 0.39706 0.75446
 N2492 N 0.38737 0.41584 0.76489
 N2493 N 0.39555 0.42408 0.78518
 C2494 C 0.41428 0.41387 0.79586
 N2495 N 0.42453 0.39512 0.78529
 N2496 N 0.41636 0.38687 0.76500
 C2497 C 1.11204 0.88791 1.26793
 N2498 N 1.10215 0.86882 1.27813
 N2499 N 1.11103 0.85992 1.29783
 C2500 C 1.13019 0.86970 1.30818
 N2501 N 1.13995 0.88891 1.29791
 N2502 N 1.13107 0.89783 1.27821
 C2503 C 1.10264 0.89735 1.24586
 N2504 N 1.11285 0.91614 1.23540
 N2505 N 1.10467 0.92435 1.21509
 C2506 C 1.08596 0.91411 1.20443
 N2507 N 1.07572 0.89536 1.21503
 N2508 N 1.08389 0.88714 1.23533
 C2509 C 1.11242 0.38755 0.76758
 N2510 N 1.10251 0.36849 0.77783
 N2511 N 1.11142 0.35960 0.79753
 C2512 C 1.13063 0.36936 0.80782
 N2513 N 1.14040 0.38853 0.79750
 N2514 N 1.13150 0.39744 0.77780
 C2515 C 1.10295 0.39699 0.74553
 N2516 N 1.11315 0.41576 0.73502
 N2517 N 1.10489 0.42398 0.71475
 C2518 C 1.08613 0.41376 0.70416
 N2519 N 1.07591 0.39503 0.71480
 N2520 N 1.08415 0.38680 0.73507
 C2521 C 0.61149 0.88848 0.76791
 N2522 N 0.63054 0.89840 0.77817
 N2523 N 0.63939 0.88953 0.79791
 C2524 C 0.62956 0.87039 0.80818
 N2525 N 0.61042 0.86057 0.79790
 N2526 N 0.60156 0.86943 0.77816
 C2527 C 0.60212 0.89787 0.74582
 N2528 N 0.58337 0.88766 0.73530
 N2529 N 0.57522 0.89583 0.71496
 C2530 C 0.58550 0.91453 0.70432
 N2531 N 0.60421 0.92477 0.71497
 N2532 N 0.61236 0.91661 0.73530
 C2533 C 0.61240 0.38701 1.26790
 N2534 N 0.60251 0.36788 1.27805
 N2535 N 0.61146 0.35887 1.29768
 C2536 C 0.63067 0.36858 1.30801
 N2537 N 0.64041 0.38782 1.29780
 N2538 N 0.63148 0.39685 1.27816
 C2539 C 0.60291 0.39659 1.24593
 N2540 N 0.61310 0.41542 1.23552
 N2541 N 0.60484 0.42376 1.21530
 C2542 C 0.58606 0.41361 1.20467
 N2543 N 0.57585 0.39482 1.21521
 N2544 N 0.58410 0.38647 1.23543
 C2545 C 0.88876 1.11115 1.26826
 N2546 N 0.86970 1.10123 1.27850
 N2547 N 0.86089 1.11006 1.29825
 C2548 C 0.87075 1.12916 1.30856
 N2549 N 0.88990 1.13897 1.29830
 N2550 N 0.89873 1.13015 1.27854
 C2551 C 0.89809 1.10183 1.24613
 N2552 N 0.91683 1.11207 1.23562
 N2553 N 0.92492 1.10398 1.21525
 C2554 C 0.91460 1.08534 1.20455
 N2555 N 0.89590 1.07507 1.21519
 N2556 N 0.88780 1.08315 1.23556
 C2557 C 0.88839 0.61151 0.76776
 N2558 N 0.86935 0.60159 0.77802
 N2559 N 0.86052 0.61045 0.79776
 C2560 C 0.87036 0.62958 0.80803
 N2561 N 0.88950 0.63941 0.79774
 N2562 N 0.89834 0.63056 0.77800
 C2563 C 0.89775 0.60214 0.74566
 N2564 N 0.91649 0.61237 0.73514
 N2565 N 0.92462 0.60422 0.71480
 C2566 C 0.91435 0.58552 0.70416
 N2567 N 0.89565 0.57526 0.71482
 N2568 N 0.88751 0.58340 0.73515
 C2569 C 0.38798 1.11261 0.76754
 N2570 N 0.36893 1.10274 0.77785
 N2571 N 0.36010 1.11169 0.79754
 C2572 C 0.36993 1.13087 0.80774
 N2573 N 0.38907 1.14064 0.79741
 N2574 N 0.39792 1.13170 0.77771
 C2575 C 0.39735 1.10312 0.74550
 N2576 N 0.41613 1.11327 0.73496
 N2577 N 0.42428 1.10499 0.71469
 C2578 C 0.41400 1.08625 0.70412
 N2579 N 0.39527 1.07608 0.71479
 N2580 N 0.38710 1.08434 0.73507
 C2581 C 0.38817 0.61234 1.26792
 N2582 N 0.39807 0.63148 1.27803
 N2583 N 0.38919 0.64046 1.29770
 C2584 C 0.37006 0.63068 1.30804
 N2585 N 0.36027 0.61145 1.29790
 N2586 N 0.36914 0.60246 1.27823
 C2587 C 0.39756 0.60281 1.24590
 N2588 N 0.38733 0.58400 1.23550
 N2589 N 0.39550 0.57572 1.21524
 C2590 C 0.41422 0.58590 1.20454
 N2591 N 0.42448 0.60467 1.21508
 N2592 N 0.41632 0.61297 1.23534
 C2593 C 1.11189 1.26760 0.88757
 N2594 N 1.10199 1.27777 0.86845
 N2595 N 1.11088 1.29744 0.85950
 C2596 C 1.13002 1.30774 0.86930
 N2597 N 1.13982 1.29754 0.88852
 N2598 N 1.13094 1.27787 0.89747
 C2599 C 1.10247 1.24558 0.89707
 N2600 N 1.11269 1.23514 0.91588
 N2601 N 1.10449 1.21487 0.92414
 C2602 C 1.08576 1.20422 0.91392
 N2603 N 1.07552 1.21479 0.89514
 N2604 N 1.08371 1.23506 0.88688
 C2605 C 1.11170 0.76769 0.38768
 N2606 N 1.13073 0.77798 0.39761
 N2607 N 1.13956 0.79771 0.38871
 C2608 C 1.12973 0.80794 0.36953
 N2609 N 1.11061 0.79762 0.35970
 N2610 N 1.10177 0.77790 0.36859
 C2611 C 1.10234 0.74562 0.39711
 N2612 N 1.08359 0.73509 0.38689
 N2613 N 1.07545 0.71479 0.39510
 C2614 C 1.08570 0.70419 0.41385
 N2615 N 1.10441 0.71485 0.42410
 N2616 N 1.11257 0.73516 0.41590
 C2617 C 0.61249 1.26756 0.38717
 N2618 N 0.60259 1.27774 0.36807
 N2619 N 0.61152 1.29738 0.35909
 C2620 C 0.63074 1.30768 0.36881
 N2621 N 0.64050 1.29742 0.38804
 N2622 N 0.63159 1.27778 0.39702
 C2623 C 0.60300 1.24558 0.39672
 N2624 N 0.61319 1.23513 0.41553
 N2625 N 0.60491 1.21492 0.42385
 C2626 C 0.58612 1.20434 0.41369
 N2627 N 0.57590 1.21492 0.39491
 N2628 N 0.58417 1.23512 0.38658
 C2629 C 0.61166 0.76782 0.88852
 N2630 N 0.60168 0.77809 0.86949
 N2631 N 0.61050 0.79783 0.86063
 C2632 C 0.62965 0.80811 0.87044
 N2633 N 0.63953 0.79782 0.88957
 N2634 N 0.63071 0.77808 0.89844
 C2635 C 0.60231 0.74573 0.89791
 N2636 N 0.61260 0.73520 0.91663
 N2637 N 0.60447 0.71487 0.92479
 C2638 C 0.58574 0.70423 0.91455
 N2639 N 0.57543 0.71489 0.89586
 N2640 N 0.58355 0.73522 0.88770
 C2641 C 0.88843 1.26773 1.11209
 N2642 N 0.86938 1.27804 1.10219
 N2643 N 0.86057 1.29775 1.11111
 C2644 C 0.87042 1.30796 1.13028
 N2645 N 0.88956 1.29763 1.14008
 N2646 N 0.89839 1.27791 1.13117
 C2647 C 0.89777 1.24566 1.10265
 N2648 N 0.91652 1.23511 1.11285
 N2649 N 0.92464 1.21480 1.10463
 C2650 C 0.91435 1.20421 1.08591
 N2651 N 0.89564 1.21489 1.07568
 N2652 N 0.88751 1.23521 1.08388
 C2653 C 0.88830 0.76776 0.61145
 N2654 N 0.89827 0.77802 0.63049
 N2655 N 0.88943 0.79776 0.63933
 C2656 C 0.87027 0.80804 0.62951
 N2657 N 0.86041 0.79776 0.61038
 N2658 N 0.86924 0.77801 0.60153
 C2659 C 0.89766 0.74567 0.60209
 N2660 N 0.88739 0.73514 0.58336
 N2661 N 0.89554 0.71481 0.57522
 C2662 C 0.91427 0.70418 0.58547
 N2663 N 0.92456 0.71483 0.60416
 N2664 N 0.91642 0.73516 0.61231
 C2665 C 0.38776 1.26784 0.61219
 N2666 N 0.39767 1.27803 0.63128
 N2667 N 0.38878 1.29771 0.64020
 C2668 C 0.36960 1.30804 0.63044
 N2669 N 0.35983 1.29779 0.61123
 N2670 N 0.36870 1.27811 0.60229
 C2671 C 0.39717 1.24581 0.60272
 N2672 N 0.38695 1.23536 0.58392
 N2673 N 0.39515 1.21510 0.57568
 C2674 C 0.41390 1.20445 0.58588
 N2675 N 0.42415 1.21503 0.60464
 N2676 N 0.41595 1.23530 0.61290
 C2677 C 0.38827 0.76770 1.11238
 N2678 N 0.36925 0.77801 1.10246
 N2679 N 0.36043 0.79773 1.11137
 C2680 C 0.37025 0.80792 1.13057
 N2681 N 0.38936 0.79758 1.14039
 N2682 N 0.39820 0.77786 1.13149
 C2683 C 0.39763 0.74563 1.10293
 N2684 N 0.41638 0.73508 1.11313
 N2685 N 0.42452 0.71478 1.10489
 C2686 C 0.41425 0.70422 1.08614
 N2687 N 0.39554 0.71490 1.07591
 N2688 N 0.38739 0.73520 1.08414
 C2689 C 0.88849 0.73212 0.88826
 N2690 N 0.89839 0.72187 0.86919
 N2691 N 0.88953 0.70213 0.86037
 C2692 C 0.87041 0.69185 0.87024
 N2693 N 0.86062 0.70212 0.88940
 N2694 N 0.86947 0.72186 0.89823
 C2695 C 0.89787 0.75421 0.89761
 N2696 N 0.88766 0.76471 0.91638
 N2697 N 0.89582 0.78503 0.92452
 C2698 C 0.91449 0.79569 0.91422
 N2699 N 0.92472 0.78507 0.89548
 N2700 N 0.91658 0.76474 0.88734
 C2701 C 0.88876 0.23176 0.38869
 N2702 N 0.89870 0.22147 0.36967
 N2703 N 0.88987 0.20170 0.36088
 C2704 C 0.87075 0.19143 0.37074
 N2705 N 0.86091 0.20175 0.38986
 N2706 N 0.86973 0.22151 0.39866
 C2707 C 0.89809 0.25389 0.39798
 N2708 N 0.88784 0.26444 0.41669
 N2709 N 0.89594 0.28482 0.42476
 C2710 C 0.91461 0.29548 0.41444
 N2711 N 0.92489 0.28479 0.39576
 N2712 N 0.91680 0.26442 0.38769
 C2713 C 0.38745 0.73250 0.38773
 N2714 N 0.39739 0.72225 0.36869
 N2715 N 0.38852 0.70254 0.35982
 C2716 C 0.36933 0.69223 0.36958
 N2717 N 0.35953 0.70255 0.38874
 N2718 N 0.36838 0.72226 0.39762
 C2719 C 0.39686 0.75456 0.39716
 N2720 N 0.38664 0.76505 0.41592
 N2721 N 0.39486 0.78533 0.42413
 C2722 C 0.41362 0.79593 0.41392
 N2723 N 0.42386 0.78530 0.39520
 N2724 N 0.41565 0.76503 0.38697
 C2725 C 0.38768 0.23239 0.88775
 N2726 N 0.39756 0.22218 0.86866
 N2727 N 0.38864 0.20252 0.85973
 C2728 C 0.36945 0.19222 0.86948
 N2729 N 0.35970 0.20249 0.88869
 N2730 N 0.36861 0.22215 0.89764
 C2731 C 0.39714 0.25439 0.89724
 N2732 N 0.38696 0.26485 0.91604
 N2733 N 0.39521 0.28508 0.92430
 C2734 C 0.41398 0.29569 0.91411
 N2735 N 0.42419 0.28510 0.89534
 N2736 N 0.41594 0.26486 0.88707
 C2737 C 1.11294 0.73272 1.11321
 N2738 N 1.10304 0.72258 1.13234
 N2739 N 1.11196 0.70294 1.14135
 C2740 C 1.13117 0.69260 1.13165
 N2741 N 1.14093 0.70282 1.11241
 N2742 N 1.13203 0.72246 1.10338
 C2743 C 1.10345 0.75468 1.10361
 N2744 N 1.11364 0.76508 1.08477
 N2745 N 1.10535 0.78527 1.07640
 C2746 C 1.08655 0.79588 1.08652
 N2747 N 1.07634 0.78535 1.10532
 N2748 N 1.08462 0.76517 1.11371
 C2749 C 1.11201 0.23215 0.61195
 N2750 N 1.10210 0.22194 0.63103
 N2751 N 1.11097 0.20223 0.63993
 C2752 C 1.13014 0.19190 0.63016
 N2753 N 1.13991 0.20218 0.61095
 N2754 N 1.13104 0.22188 0.60204
 C2755 C 1.10260 0.25421 0.60250
 N2756 N 1.11283 0.26468 0.58372
 N2757 N 1.10464 0.28497 0.57549
 C2758 C 1.08592 0.29562 0.58572
 N2759 N 1.07567 0.28501 0.60446
 N2760 N 1.08384 0.26472 0.61269
 C2761 C 0.61151 0.73226 0.61179
 N2762 N 0.60162 0.72200 0.63086
 N2763 N 0.61050 0.70227 0.63969
 C2764 C 0.62962 0.69199 0.62983
 N2765 N 0.63941 0.70228 0.61067
 N2766 N 0.63054 0.72201 0.60182
 C2767 C 0.60212 0.75435 0.60242
 N2768 N 0.61231 0.76485 0.58365
 N2769 N 0.60413 0.78517 0.57550
 C2770 C 0.58545 0.79582 0.58580
 N2771 N 0.57523 0.78519 0.60453
 N2772 N 0.58339 0.76486 0.61269
 C2773 C 0.61223 0.23222 1.11232
 N2774 N 0.60233 0.22194 1.13136
 N2775 N 0.61124 0.20223 1.14022
 C2776 C 0.63044 0.19197 1.13044
 N2777 N 0.64021 0.20231 1.11128
 N2778 N 0.63131 0.22203 1.10241
 C2779 C 0.60278 0.25428 1.10293
 N2780 N 0.61297 0.26482 1.08417
 N2781 N 0.60474 0.28511 1.07600
 C2782 C 0.58600 0.29570 1.08626
 N2783 N 0.57578 0.28503 1.10498
 N2784 N 0.58400 0.26474 1.11316
 C2785 C 1.26765 1.11252 0.88810
 N2786 N 1.27794 1.10265 0.86904
 N2787 N 1.29761 1.11162 0.86018
 C2788 C 1.30779 1.13081 0.86999
 N2789 N 1.29748 1.14058 0.88915
 N2790 N 1.27781 1.13162 0.89802
 C2791 C 1.24564 1.10301 0.89750
 N2792 N 1.23510 1.11317 0.91627
 N2793 N 1.21484 1.10489 0.92445
 C2794 C 1.20429 1.08613 0.91419
 N2795 N 1.21496 1.07594 0.89546
 N2796 N 1.23522 1.08421 0.88727
 C2797 C 1.26765 0.61233 0.38815
 N2798 N 1.27800 0.60246 0.36913
 N2799 N 1.29768 0.61145 0.36032
 C2800 C 1.30781 0.63068 0.37014
 N2801 N 1.29743 0.64045 0.38926
 N2802 N 1.27774 0.63146 0.39808
 C2803 C 1.24561 0.60280 0.39749
 N2804 N 1.23502 0.61294 0.41623
 N2805 N 1.21474 0.60464 0.42435
 C2806 C 1.20423 0.58588 0.41405
 N2807 N 1.21496 0.57571 0.39534
 N2808 N 1.23524 0.58400 0.38722
 C2809 C 0.76810 1.11130 0.38868
 N2810 N 0.77838 1.13031 0.39865
 N2811 N 0.79816 1.13910 0.38985
 C2812 C 0.80846 1.12925 0.37073
 N2813 N 0.79815 1.11015 0.36087
 N2814 N 0.77837 1.10135 0.36966
 C2815 C 0.74596 1.10201 0.39799
 N2816 N 0.73540 1.08332 0.38770
 N2817 N 0.71502 1.07525 0.39579
 C2818 C 0.70436 1.08554 0.41447
 N2819 N 0.71505 1.10420 0.42478
 N2820 N 0.73543 1.11227 0.41670
 C2821 C 0.76796 0.61154 0.88847
 N2822 N 0.77821 0.63059 0.89838
 N2823 N 0.79793 0.63944 0.88949
 C2824 C 0.80819 0.62960 0.87035
 N2825 N 0.79792 0.61045 0.86055
 N2826 N 0.77820 0.60159 0.86942
 C2827 C 0.74589 0.60216 0.89787
 N2828 N 0.73538 0.58341 0.88765
 N2829 N 0.71507 0.57526 0.89583
 C2830 C 0.70443 0.58552 0.91454
 N2831 N 0.71507 0.60424 0.92479
 N2832 N 0.73539 0.61240 0.91662
 C2833 C 1.26794 0.88829 1.11214
 N2834 N 1.27813 0.89823 1.13122
 N2835 N 1.29782 0.88936 1.14016
 C2836 C 1.30811 0.87020 1.13040
 N2837 N 1.29790 0.86037 1.11122
 N2838 N 1.27821 0.86922 1.10227
 C2839 C 1.24589 0.89767 1.10266
 N2840 N 1.23542 0.88743 1.08390
 N2841 N 1.21512 0.89559 1.07568
 C2842 C 1.20446 0.91431 1.08589
 N2843 N 1.21506 0.92459 1.10461
 N2844 N 1.23536 0.91644 1.11284
 C2845 C 1.26780 0.38771 0.61176
 N2846 N 1.27805 0.39757 0.63085
 N2847 N 1.29774 0.38863 0.63973
 C2848 C 1.30797 0.36947 0.62990
 N2849 N 1.29769 0.35971 0.61072
 N2850 N 1.27801 0.36864 0.60182
 C2851 C 1.24576 0.39718 0.60234
 N2852 N 1.23527 0.38701 0.58355
 N2853 N 1.21499 0.39524 0.57536
 C2854 C 1.20437 0.41396 0.58562
 N2855 N 1.21499 0.42415 0.60438
 N2856 N 1.23528 0.41593 0.61259
 C2857 C 0.76778 0.88841 0.61147
 N2858 N 0.77800 0.86934 0.60154
 N2859 N 0.79774 0.86049 0.61038
 C2860 C 0.80806 0.87033 0.62950
 N2861 N 0.79781 0.88948 0.63933
 N2862 N 0.77807 0.89835 0.63050
 C2863 C 0.74567 0.89779 0.60212
 N2864 N 0.73519 0.91655 0.61236
 N2865 N 0.71485 0.92470 0.60423
 C2866 C 0.70417 0.91443 0.58555
 N2867 N 0.71478 0.89571 0.57528
 N2868 N 0.73512 0.88755 0.58341
 C2869 C 0.76800 0.38828 1.11218
 N2870 N 0.77822 0.39819 1.13126
 N2871 N 0.79795 0.38933 1.14013
 C2872 C 0.80825 0.37021 1.13030
 N2873 N 0.79800 0.36040 1.11113
 N2874 N 0.77827 0.36925 1.10224
 C2875 C 0.74591 0.39765 1.10279
 N2876 N 0.73542 0.38743 1.08401
 N2877 N 0.71509 0.39558 1.07586
 C2878 C 0.70442 0.41426 1.08614
 N2879 N 0.71504 0.42450 1.10487
 N2880 N 0.73537 0.41637 1.11304
 C2881 C 0.73231 1.11230 1.11186
 N2882 N 0.72215 1.13140 1.10192
 N2883 N 0.70245 1.14033 1.11077
 C2884 C 0.69212 1.13054 1.12991
 N2885 N 0.70231 1.11135 1.13974
 N2886 N 0.72201 1.10241 1.13091
 C2887 C 0.75436 1.10282 1.10249
 N2888 N 0.76480 1.08403 1.11274
 N2889 N 0.78508 1.07578 1.10457
 C2890 C 0.79574 1.08598 1.08584
 N2891 N 0.78517 1.10473 1.07556
 N2892 N 0.76489 1.11299 1.08372
 C2893 C 0.73211 0.61165 0.61165
 N2894 N 0.72187 0.60171 0.63070
 N2895 N 0.70215 0.61058 0.63956
 C2896 C 0.69188 0.62974 0.62975
 N2897 N 0.70214 0.63958 0.61061
 N2898 N 0.72186 0.63072 0.60173
 C2899 C 0.75418 0.60226 0.60225
 N2900 N 0.76468 0.61250 0.58350
 N2901 N 0.78499 0.60432 0.57533
 C2902 C 0.79562 0.58559 0.58558
 N2903 N 0.78499 0.57533 0.60429
 N2904 N 0.76468 0.58349 0.61247
 C2905 C 0.23193 1.11224 0.61150
 N2906 N 0.22166 1.10234 0.63056
 N2907 N 0.20197 1.11127 0.63941
 C2908 C 0.19175 1.13045 0.62959
 N2909 N 0.20205 1.14025 0.61044
 N2910 N 0.22174 1.13133 0.60157
 C2911 C 0.25398 1.10279 0.60212
 N2912 N 0.26451 1.11299 0.58336
 N2913 N 0.28481 1.10477 0.57522
 C2914 C 0.29541 1.08604 0.58549
 N2915 N 0.28475 1.07581 0.60421
 N2916 N 0.26445 1.08402 0.61237
 C2917 C 0.23278 0.61277 1.11286
 N2918 N 0.22255 0.60292 1.13197
 N2919 N 0.20293 0.61192 1.14091
 C2920 C 0.19274 0.63114 1.13114
 N2921 N 0.20299 0.64090 1.11194
 N2922 N 0.22261 0.63191 1.10298
 C2923 C 0.25473 0.60321 1.10334
 N2924 N 0.26519 0.61334 1.08451
 N2925 N 0.28538 0.60500 1.07623
 C2926 C 0.29594 0.58620 1.08642
 N2927 N 0.28534 0.57603 1.10522
 N2928 N 0.26515 0.58437 1.11351
 C2929 C 0.73214 0.88841 0.88844
 N2930 N 0.72191 0.86936 0.89838
 N2931 N 0.70216 0.86052 0.88954
 C2932 C 0.69185 0.87036 0.87041
 N2933 N 0.70211 0.88951 0.86058
 N2934 N 0.72185 0.89836 0.86941
 C2935 C 0.75424 0.89777 0.89779
 N2936 N 0.76473 0.91652 0.88754
 N2937 N 0.78508 0.92465 0.89567
 C2938 C 0.79576 0.91437 0.91436
 N2939 N 0.78514 0.89566 0.92464
 N2940 N 0.76479 0.88752 0.91652
 C2941 C 0.73253 0.38729 0.38749
 N2942 N 0.72228 0.39717 0.36840
 N2943 N 0.70262 0.38821 0.35950
 C2944 C 0.69241 0.36902 0.36930
 N2945 N 0.70269 0.35924 0.38847
 N2946 N 0.72236 0.36818 0.39739
 C2947 C 0.75453 0.39680 0.39695
 N2948 N 0.76503 0.38665 0.41576
 N2949 N 0.78527 0.39494 0.42400
 C2950 C 0.79583 0.41371 0.41377
 N2951 N 0.78520 0.42389 0.39499
 N2952 N 0.76497 0.41560 0.38674
 C2953 C 0.23200 0.88840 0.38782
 N2954 N 0.22176 0.86933 0.39773
 N2955 N 0.20207 0.86045 0.38880
 C2956 C 0.19183 0.87026 0.36962
 N2957 N 0.20209 0.88942 0.35982
 N2958 N 0.22178 0.89832 0.36873
 C2959 C 0.25404 0.89782 0.39727
 N2960 N 0.26453 0.91659 0.38705
 N2961 N 0.28482 0.92477 0.39527
 C2962 C 0.29544 0.91453 0.41401
 N2963 N 0.28481 0.89580 0.42426
 N2964 N 0.26452 0.88761 0.41605
 C2965 C 0.23243 0.38795 0.88761
 N2966 N 0.22229 0.39787 0.86849
 N2967 N 0.20260 0.38901 0.85952
 C2968 C 0.19227 0.36988 0.86931
 N2969 N 0.20244 0.36006 0.88853
 N2970 N 0.22212 0.36891 0.89750
 C2971 C 0.25446 0.39733 0.89713
 N2972 N 0.26487 0.38710 0.91595
 N2973 N 0.28513 0.39528 0.92424
 C2974 C 0.29581 0.41401 0.91404
 N2975 N 0.28526 0.42426 0.89526
 N2976 N 0.26500 0.41609 0.88696
   
