data_POSCAR
  _audit_creation_date              2014-09-24
  _audit_creation_method            'ToBaCCo'
  _symmetry_space_group_name_H-M    'P1'
  _symmetry_Int_Tables_number       1
  _symmetry_cell_setting            triclinic
  loop_
  _symmetry_equiv_pos_as_xyz
 x,y,z
_cell_length_a 80.7629
_cell_length_b 80.5723
_cell_length_c 80.5871
_cell_angle_alpha 90.007700
_cell_angle_beta 90.040000
_cell_angle_gamma 90.062700
loop_
  _atom_site_label
  _atom_site_type_symbol
  _atom_site_fract_x
  _atom_site_fract_y
  _atom_site_fract_z
C1 C 0.30852 0.44244 0.92067
 C2 C 0.30120 0.42856 0.92815
 C3 C 0.30827 0.42160 0.94242
 C4 C 0.32265 0.42856 0.94924
 C5 C 0.33001 0.44244 0.94177
 C6 C 0.32291 0.44939 0.92749
 H7 H 0.29020 0.42303 0.92274
 H8 H 0.32823 0.42299 0.96016
 H9 H 0.32868 0.46000 0.92153
 C10 C 0.44217 0.83026 0.44205
 C11 C 0.44917 0.82337 0.42770
 C12 C 0.44226 0.80907 0.42061
 C13 C 0.42837 0.80162 0.42790
 C14 C 0.42136 0.80848 0.44223
 C15 C 0.42827 0.82278 0.44932
 H16 H 0.45980 0.82924 0.42190
 H17 H 0.42289 0.79068 0.42228
 H18 H 0.42267 0.82819 0.46029
 C19 C 0.94343 0.92303 0.80723
 C20 C 0.92944 0.93039 0.80006
 C21 C 0.92223 0.94437 0.80744
 C22 C 0.92905 0.95102 0.82199
 C23 C 0.94305 0.94367 0.82919
 C24 C 0.95024 0.92968 0.82178
 H25 H 0.92401 0.92508 0.78895
 H26 H 0.92329 0.96169 0.82781
 H27 H 0.96093 0.92381 0.82745
 C28 C 0.44161 -0.07973 0.30842
 C29 C 0.44878 -0.07263 0.32257
 C30 C 0.44172 -0.05849 0.32978
 C31 C 0.42748 -0.05142 0.32279
 C32 C 0.42029 -0.05851 0.30864
 C33 C 0.42738 -0.07265 0.30144
 H34 H 0.45967 -0.07824 0.32811
 H35 H 0.42188 -0.04061 0.32850
 H36 H 0.42169 -0.07828 0.29062
 C37 C 0.80746 0.30762 0.32910
 C38 C 0.80053 0.32191 0.32205
 C39 C 0.80750 0.32885 0.30772
 C40 C 0.82140 0.32146 0.30042
 C41 C 0.82835 0.30717 0.30745
 C42 C 0.82136 0.30025 0.32178
 H43 H 0.78991 0.32776 0.32784
 H44 H 0.82694 0.32697 0.28947
 H45 H 0.82688 0.28932 0.32736
 C46 C -0.19443 0.82748 0.80519
 C47 C -0.18027 0.82027 0.79818
 C48 C -0.17328 0.80608 0.80536
 C49 C -0.18047 0.79906 0.81954
 C50 C -0.19461 0.80624 0.82657
 C51 C -0.20161 0.82043 0.81938
 H52 H -0.17452 0.82584 0.78736
 H53 H -0.17489 0.78824 0.82527
 H54 H -0.21240 0.82612 0.82501
 C55 C 0.94295 0.32819 0.44346
 C56 C 0.92853 0.32123 0.45021
 C57 C 0.92140 0.30714 0.44291
 C58 C 0.92872 0.29998 0.42888
 C59 C 0.94313 0.30691 0.42211
 C60 C 0.95026 0.32099 0.42941
 H61 H 0.92270 0.32690 0.46093
 H62 H 0.92307 0.28922 0.42308
 H63 H 0.96127 0.32648 0.42399
 C64 C 0.44110 0.44094 0.82963
 C65 C 0.42689 0.44803 0.82264
 C66 C 0.41968 0.44094 0.80849
 C67 C 0.42673 0.42678 0.80131
 C68 C 0.44095 0.41968 0.80830
 C69 C 0.44814 0.42678 0.82245
 H70 H 0.42131 0.45887 0.82833
 H71 H 0.42103 0.42115 0.79050
 H72 H 0.45901 0.42115 0.82799
 C73 C 0.80658 0.92236 0.94430
 C74 C 0.79928 0.92951 0.93023
 C75 C 0.80641 0.94357 0.92288
 C76 C 0.82083 0.95050 0.92964
 C77 C 0.82815 0.94338 0.94370
 C78 C 0.82102 0.92933 0.95104
 H79 H 0.78826 0.92401 0.92481
 H80 H 0.82650 0.96123 0.92380
 H81 H 0.82686 0.92369 0.96178
 C82 C 0.30866 0.82984 0.30699
 C83 C 0.32296 0.82270 0.30020
 C84 C 0.32976 0.80838 0.30733
 C85 C 0.32222 0.80116 0.32122
 C86 C 0.30793 0.80827 0.32802
 C87 C 0.30114 0.82259 0.32089
 H88 H 0.32895 0.82840 0.28957
 H89 H 0.32761 0.79022 0.32688
 H90 H 0.29021 0.82820 0.32633
 C91 C 0.80842 0.42043 0.44218
 C92 C 0.80138 0.42725 0.42782
 C93 C 0.80824 0.44154 0.42068
 C94 C 0.82213 0.44905 0.42793
 C95 C 0.82920 0.44225 0.44230
 C96 C 0.82231 0.42794 0.44942
 H97 H 0.79077 0.42130 0.42208
 H98 H 0.82755 0.45998 0.42224
 H99 H 0.82788 0.42250 0.46040
 C100 C 0.94350 0.82878 -0.05600
 C101 C 0.92945 0.82145 -0.04888
 C102 C 0.92266 0.80703 -0.05585
 C103 C 0.92995 0.79991 -0.06991
 C104 C 0.94399 0.80721 -0.07705
 C105 C 0.95078 0.82163 -0.07008
 H106 H 0.92362 0.82709 -0.03814
 H107 H 0.92453 0.78891 -0.07547
 H108 H 0.96150 0.82740 -0.07579
 C109 C 0.30849 0.32933 0.80751
 C110 C 0.32285 0.32232 0.80074
 C111 C 0.32974 0.30804 0.80787
 C112 C 0.32223 0.30075 0.82174
 C113 C 0.30788 0.30775 0.82853
 C114 C 0.30100 0.32203 0.82139
 H115 H 0.32878 0.32809 0.79014
 H116 H 0.32769 0.28984 0.82740
 H117 H 0.29003 0.32759 0.82678
 C118 C 0.17051 0.55830 0.55711
 C119 C 0.17762 0.57261 0.55028
 C120 C 0.19193 0.57945 0.55737
 C121 C 0.19915 0.57193 0.57128
 C122 C 0.19205 0.55762 0.57812
 C123 C 0.17774 0.55079 0.57102
 H124 H 0.17190 0.57856 0.53965
 H125 H 0.21009 0.57736 0.57692
 H126 H 0.17210 0.53985 0.57646
 C127 C 0.57853 0.69325 0.05642
 C128 C 0.57136 0.70057 0.07046
 C129 C 0.55692 0.69382 0.07734
 C130 C 0.54962 0.67977 0.07015
 C131 C 0.55677 0.67244 0.05611
 C132 C 0.57121 0.67921 0.04924
 H133 H 0.57717 0.71128 0.07618
 H134 H 0.53860 0.67438 0.07563
 H135 H 0.57690 0.67338 0.03853
 C136 C 0.69367 0.19272 0.67273
 C137 C 0.67964 0.19982 0.68007
 C138 C 0.67250 0.19246 0.69409
 C139 C 0.67942 0.17800 0.70081
 C140 C 0.69346 0.17087 0.69349
 C141 C 0.70059 0.17827 0.67945
 H142 H 0.67414 0.21086 0.67471
 H143 H 0.67371 0.17219 0.71153
 H144 H 0.71131 0.17266 0.67360
 C145 C 1.07796 0.05659 0.19333
 C146 C 1.07111 0.07108 0.20005
 C147 C 1.05713 0.07828 0.19271
 C148 C 1.04996 0.07096 0.17866
 C149 C 1.05679 0.05646 0.17191
 C150 C 1.07079 0.04928 0.17928
 H151 H 1.07681 0.07688 0.21078
 H152 H 1.03928 0.07671 0.17285
 H153 H 1.07627 0.03820 0.17395
 C154 C 0.05731 0.17186 1.05801
 C155 C 0.05046 0.17893 1.07232
 C156 C 0.05792 0.19285 1.07963
 C157 C 0.07223 0.19972 1.07255
 C158 C 0.07909 0.19265 1.05823
 C159 C 0.07161 0.17873 1.05097
 H160 H 0.03952 0.17343 1.07789
 H161 H 0.07818 0.21036 1.07829
 H162 H 0.07705 0.17311 1.04002
 C163 C 0.17018 0.69242 0.69176
 C164 C 0.17707 0.69942 0.67742
 C165 C 0.19136 0.69252 0.67041
 C166 C 0.19880 0.67865 0.67776
 C167 C 0.19192 0.67164 0.69210
 C168 C 0.17763 0.67854 0.69911
 H169 H 0.17119 0.71002 0.67160
 H170 H 0.20972 0.67316 0.67220
 H171 H 0.17216 0.67297 0.71007
 C172 C 1.19244 0.17174 0.19274
 C173 C 1.19933 0.17885 0.17846
 C174 C 1.19193 0.19280 0.17122
 C175 C 1.17765 0.19967 0.17828
 C176 C 1.17074 0.19256 0.19256
 C177 C 1.17815 0.17861 0.19979
 H178 H 1.21024 0.17339 0.17286
 H179 H 1.17178 0.21032 0.17254
 H180 H 1.17266 0.17295 0.21070
 C181 C 0.67180 1.05685 0.55677
 C182 C 0.67859 1.04997 0.57123
 C183 C 0.69262 1.05715 0.57853
 C184 C 0.69992 1.07120 0.57134
 C185 C 0.69317 1.07811 0.55687
 C186 C 0.67912 1.07091 0.54958
 H187 H 0.67282 1.03924 0.57697
 H188 H 0.71065 1.07687 0.57716
 H189 H 0.67374 1.07640 0.53852
 C190 C 0.55536 0.55496 0.17348
 C191 C 0.54817 0.56912 0.18053
 C192 C 0.55519 0.57635 0.19470
 C193 C 0.56939 0.56936 0.20185
 C194 C 0.57659 0.55521 0.19482
 C195 C 0.56955 0.54799 0.18064
 H196 H 0.53735 0.57469 0.17482
 H197 H 0.57499 0.57512 0.21266
 H198 H 0.57528 0.53720 0.17503
 C199 C 0.67271 0.69386 0.19361
 C200 C 0.67941 0.70083 0.17917
 C201 C 0.69345 0.69376 0.17182
 C202 C 0.70081 0.67972 0.17895
 C203 C 0.69412 0.67274 0.19338
 C204 C 0.68008 0.67982 0.20072
 H205 H 0.67355 0.71154 0.17351
 H206 H 0.71152 0.67409 0.17312
 H207 H 0.67473 0.67426 0.21174
 C208 C 0.17139 0.05660 1.05623
 C209 C 0.17828 0.07112 1.04954
 C210 C 0.19234 0.07825 1.05685
 C211 C 0.19955 0.07084 1.07081
 C212 C 0.19269 0.05634 1.07751
 C213 C 0.17864 0.04921 1.07021
 H214 H 0.17257 0.07702 1.03887
 H215 H 0.21028 0.07650 1.07662
 H216 H 0.17320 0.03812 1.07558
 C217 C 0.57658 0.19520 0.55506
 C218 C 0.56956 0.20238 0.56924
 C219 C 0.55539 0.19534 0.57641
 C220 C 0.54822 0.18116 0.56935
 C221 C 0.55523 0.17398 0.55517
 C222 C 0.56940 0.18102 0.54802
 H223 H 0.57529 0.21318 0.57488
 H224 H 0.53743 0.17554 0.57507
 H225 H 0.57500 0.17529 0.53722
 C226 C 0.07823 0.55800 0.69267
 C227 C 0.07119 0.57232 0.69954
 C228 C 0.05728 0.57958 0.69210
 C229 C 0.05039 0.57247 0.67780
 C230 C 0.05743 0.55815 0.67091
 C231 C 0.07133 0.55091 0.67837
 H232 H 0.07667 0.57795 0.71047
 H233 H 0.03977 0.57821 0.67190
 H234 H 0.07692 0.53996 0.67291
 C235 C 0.67246 0.55673 0.05578
 C236 C 0.67961 0.54945 0.06985
 C237 C 0.69365 0.55661 0.07716
 C238 C 0.70057 0.57104 0.07036
 C239 C 0.69342 0.57834 0.05629
 C240 C 0.67938 0.57117 0.04900
 H241 H 0.67410 0.53843 0.07526
 H242 H 0.71128 0.57673 0.07617
 H243 H 0.67369 0.57696 0.03827
 C244 C 0.05920 0.69158 0.58026
 C245 C 0.07331 0.69861 0.57299
 C246 C 0.08031 0.69136 0.55884
 C247 C 0.07315 0.67710 0.55193
 C248 C 0.05904 0.67005 0.55918
 C249 C 0.05206 0.67731 0.57334
 H250 H 0.07897 0.70953 0.57847
 H251 H 0.07869 0.67136 0.54109
 H252 H 0.04126 0.67174 0.57908
 C253 C 0.55672 1.05549 0.67228
 C254 C 0.57112 1.04869 0.67922
 C255 C 0.57826 1.05595 0.69331
 C256 C 0.57098 1.06999 0.70051
 C257 C 0.55660 1.07680 0.69359
 C258 C 0.54945 1.06954 0.67950
 H259 H 0.57693 1.03797 0.67353
 H260 H 0.57666 1.07576 0.71126
 H261 H 0.53846 1.07501 0.67402
 C262 C 0.44204 0.32958 0.94220
 C263 C 0.44914 0.32261 0.92793
 C264 C 0.44231 0.30825 0.92089
 C265 C 0.42839 0.30082 0.92813
 C266 C 0.42127 0.30775 0.94238
 C267 C 0.42811 0.32211 0.94943
 H268 H 0.45979 0.32846 0.92217
 H269 H 0.42295 0.28984 0.92255
 H270 H 0.42243 0.32758 0.96033
 C271 C 0.94348 0.44395 0.32697
 C272 C 0.92906 0.45089 0.32026
 C273 C 0.92169 0.44375 0.30622
 C274 C 0.92878 0.42970 0.29886
 C275 C 0.94321 0.42276 0.30557
 C276 C 0.95057 0.42991 0.31961
 H277 H 0.92342 0.46160 0.32611
 H278 H 0.92294 0.42402 0.28815
 H279 H 0.96157 0.42437 0.32497
 C280 C 0.30840 0.94284 0.41993
 C281 C 0.30103 0.92898 0.42743
 C282 C 0.30804 0.92205 0.44174
 C283 C 0.32239 0.92900 0.44860
 C284 C 0.32979 0.94285 0.44113
 C285 C 0.32278 0.94978 0.42681
 H286 H 0.29004 0.92341 0.42201
 H287 H 0.32795 0.92349 0.45954
 H288 H 0.32865 0.96037 0.42093
 O289 O 0.24862 0.54427 0.72827
 O290 O 0.27689 0.53897 0.73036
 O291 O 0.22850 0.50077 0.70561
 O292 O 0.22790 0.47343 0.71054
 O293 O 0.20554 0.52140 0.74913
 O294 O 0.21175 0.52019 0.77802
 O295 O 0.27143 0.45680 0.75050
 O296 O 0.26804 0.46142 0.72227
 O297 O 0.29299 0.49876 0.77106
 O298 O 0.28738 0.52871 0.76992
 O299 O 0.25116 0.47867 0.79312
 O300 O 0.22155 0.47943 0.78764
 O301 O 0.25168 0.45674 0.77061
 O302 O 0.22088 0.46273 0.76902
 O303 O 0.27095 0.49871 0.79317
 O304 O 0.26911 0.52928 0.78695
 O305 O 0.29280 0.47855 0.75142
 O306 O 0.28742 0.48412 0.72137
 O307 O 0.22909 0.54443 0.74864
 O308 O 0.23054 0.53823 0.77811
 O309 O 0.20531 0.50144 0.72920
 O310 O 0.21202 0.47141 0.73184
 O311 O 0.24806 0.52108 0.70558
 O312 O 0.27794 0.51740 0.71198
 Zr313 Zr 0.25854 0.52019 0.72952
 O314 O 0.27450 0.50577 0.74430
 Zr315 Zr 0.22926 0.49113 0.72985
 O316 O 0.24425 0.47524 0.74415
 Zr317 Zr 0.22967 0.52035 0.75892
 O318 O 0.24421 0.50557 0.77480
 Zr319 Zr 0.26938 0.48059 0.74019
 O320 O 0.25443 0.49493 0.72406
 Zr321 Zr 0.26936 0.50961 0.76952
 O322 O 0.25480 0.52570 0.75481
 Zr323 Zr 0.24038 0.48031 0.76941
 O324 O 0.22403 0.49511 0.75512
 O325 O 0.23348 0.51619 0.73383
 O326 O 0.26548 0.48442 0.76544
 C327 C 0.23723 0.55145 0.73682
 C328 C 0.23662 0.51252 0.69849
 C329 C 0.19832 0.51308 0.73758
 C330 C 0.26354 0.44984 0.76248
 C331 C 0.29979 0.48666 0.76323
 C332 C 0.26301 0.48674 0.80008
 H333 H 0.28615 0.50840 0.74154
 H334 H 0.24151 0.50820 0.78646
 H335 H 0.22638 0.52326 0.72675
 H336 H 0.24178 0.46355 0.74134
 H337 H 0.26447 0.46669 0.71176
 H338 H 0.23641 0.46495 0.71291
 H339 H 0.25980 0.52733 0.79468
 H340 H 0.24138 0.54389 0.77715
 H341 H 0.29526 0.47467 0.72186
 H342 H 0.27687 0.52619 0.70343
 H343 H 0.22199 0.48996 0.79393
 H344 H 0.20657 0.50905 0.77782
 H345 H 0.27674 0.54359 0.74174
 H346 H 0.29409 0.52771 0.75970
 H347 H 0.20551 0.47341 0.74204
 H348 H 0.22305 0.45485 0.75986
 O349 O 0.24887 0.04398 0.22812
 O350 O 0.27716 0.03880 0.23021
 O351 O 0.22894 0.00037 0.20547
 O352 O 0.22845 -0.02697 0.21043
 O353 O 0.20586 0.02093 0.24898
 O354 O 0.21207 0.01979 0.27787
 O355 O 0.27203 -0.04339 0.25042
 O356 O 0.26865 -0.03879 0.22219
 O357 O 0.29340 -0.00130 0.27097
 O358 O 0.28766 0.02861 0.26981
 O359 O 0.25165 -0.02156 0.29301
 O360 O 0.22203 -0.02094 0.28751
 O361 O 0.25227 -0.04351 0.27051
 O362 O 0.22145 -0.03765 0.26891
 O363 O 0.27134 -0.00144 0.29307
 O364 O 0.26937 0.02913 0.28681
 O365 O 0.29331 -0.02154 0.25135
 O366 O 0.28793 -0.01601 0.22129
 O367 O 0.22933 0.04407 0.24849
 O368 O 0.23078 0.03789 0.27796
 O369 O 0.20573 0.00096 0.22907
 O370 O 0.21258 -0.02904 0.23171
 O371 O 0.24841 0.02077 0.20544
 O372 O 0.27831 0.01721 0.21186
 Zr373 Zr 0.25888 0.01994 0.22938
 O374 O 0.27490 0.00561 0.24419
 Zr375 Zr 0.22973 -0.00925 0.22973
 O376 O 0.24479 -0.02506 0.24405
 Zr377 Zr 0.23000 0.02000 0.25878
 O378 O 0.24460 0.00528 0.27467
 Zr379 Zr 0.26989 -0.01960 0.24010
 O380 O 0.25489 -0.00534 0.22395
 Zr381 Zr 0.26972 0.00944 0.26941
 O382 O 0.25511 0.02546 0.25467
 Zr383 Zr 0.24088 -0.01999 0.26930
 O384 O 0.22447 -0.00527 0.25499
 O385 O 0.23384 0.01584 0.23368
 O386 O 0.26596 -0.01577 0.26535
 C387 C 0.23746 0.05113 0.23668
 C388 C 0.23702 0.01215 0.19834
 C389 C 0.19868 0.01255 0.23745
 C390 C 0.26416 -0.05037 0.26240
 C391 C 0.30026 -0.01338 0.26317
 C392 C 0.26346 -0.01344 0.29998
 H393 H 0.28653 0.00828 0.24144
 H394 H 0.24187 0.00792 0.28633
 H395 H 0.22671 0.02287 0.22660
 H396 H 0.24236 -0.03676 0.24124
 H397 H 0.26507 -0.03354 0.21167
 H398 H 0.23702 -0.03539 0.21278
 H399 H 0.26008 0.02713 0.29455
 H400 H 0.24160 0.04360 0.27700
 H401 H 0.29582 -0.02542 0.22180
 H402 H 0.27719 0.02599 0.20330
 H403 H 0.22244 -0.01041 0.29381
 H404 H 0.20696 0.00861 0.27769
 H405 H 0.27700 0.04341 0.24159
 H406 H 0.29438 0.02765 0.25960
 H407 H 0.20605 -0.02707 0.24191
 H408 H 0.22365 -0.04552 0.25975
 O409 O 0.54441 0.72824 0.24916
 O410 O 0.53907 0.73051 0.27747
 O411 O 0.50095 0.70549 0.22912
 O412 O 0.47372 0.71047 0.22840
 O413 O 0.52166 0.74890 0.20580
 O414 O 0.52059 0.77781 0.21184
 O415 O 0.45713 0.75079 0.27174
 O416 O 0.46168 0.72251 0.26857
 O417 O 0.49906 0.77139 0.29327
 O418 O 0.52889 0.77022 0.28768
 O419 O 0.47908 0.79318 0.25114
 O420 O 0.47994 0.78749 0.22147
 O421 O 0.45717 0.77072 0.25175
 O422 O 0.46320 0.76893 0.22094
 O423 O 0.49901 0.79336 0.27102
 O424 O 0.52955 0.78708 0.26920
 O425 O 0.47881 0.75180 0.29320
 O426 O 0.48429 0.72170 0.28803
 O427 O 0.54464 0.74851 0.22946
 O428 O 0.53852 0.77798 0.23069
 O429 O 0.50172 0.72898 0.20568
 O430 O 0.47177 0.73165 0.21239
 O431 O 0.52120 0.70556 0.24873
 O432 O 0.51749 0.71218 0.27863
 Zr433 Zr 0.52036 0.72958 0.25905
 O434 O 0.50599 0.74451 0.27493
 Zr435 Zr 0.49142 0.72977 0.22968
 O436 O 0.47558 0.74419 0.24458
 Zr437 Zr 0.52064 0.75881 0.22992
 O438 O 0.50590 0.77481 0.24436
 Zr439 Zr 0.48085 0.74040 0.26980
 O440 O 0.49515 0.72415 0.25495
 Zr441 Zr 0.50988 0.76969 0.26960
 O442 O 0.52592 0.75484 0.25515
 Zr443 Zr 0.48071 0.76941 0.24051
 O444 O 0.49547 0.75499 0.22426
 O445 O 0.51643 0.73373 0.23390
 O446 O 0.48475 0.76562 0.26570
 C447 C 0.55162 0.73675 0.23772
 C448 C 0.51263 0.69839 0.23733
 C449 C 0.51332 0.73735 0.19862
 C450 C 0.45023 0.76271 0.26369
 C451 C 0.48695 0.76364 0.30014
 C452 C 0.48709 0.80021 0.26300
 H453 H 0.50858 0.74182 0.28662
 H454 H 0.50856 0.78645 0.24157
 H455 H 0.52347 0.72660 0.22684
 H456 H 0.46392 0.74138 0.24210
 H457 H 0.46691 0.71196 0.26509
 H458 H 0.46530 0.71284 0.23697
 H459 H 0.52757 0.79483 0.25989
 H460 H 0.54413 0.77710 0.24158
 H461 H 0.47485 0.72227 0.29587
 H462 H 0.52624 0.70360 0.27762
 H463 H 0.49039 0.79387 0.22198
 H464 H 0.50946 0.77765 0.20669
 H465 H 0.54370 0.74188 0.27725
 H466 H 0.52793 0.76000 0.29442
 H467 H 0.47378 0.74181 0.20578
 H468 H 0.45535 0.75976 0.22314
 O469 O -0.00111 0.77224 0.79439
 O470 O 0.02713 0.77004 0.78907
 O471 O -0.02110 0.79504 0.75092
 O472 O -0.02167 0.79016 0.72358
 O473 O -0.04437 0.75158 0.77144
 O474 O -0.03832 0.72268 0.77029
 O475 O 0.02160 0.74990 0.70692
 O476 O 0.01835 0.77817 0.71152
 O477 O 0.04298 0.72927 0.74886
 O478 O 0.03733 0.73039 0.77880
 O479 O 0.00097 0.70742 0.72874
 O480 O -0.02863 0.71310 0.72953
 O481 O 0.00169 0.72991 0.70685
 O482 O -0.02910 0.73168 0.71280
 O483 O 0.02078 0.70724 0.74874
 O484 O 0.01895 0.71345 0.77933
 O485 O 0.04293 0.74895 0.72868
 O486 O 0.03772 0.77901 0.73424
 O487 O -0.02080 0.75198 0.79453
 O488 O -0.01955 0.72252 0.78832
 O489 O -0.04445 0.77151 0.75149
 O490 O -0.03769 0.76895 0.72150
 O491 O -0.00155 0.79496 0.77123
 O492 O 0.02830 0.78842 0.76751
 Zr493 Zr 0.00878 0.77097 0.77030
 O494 O 0.02465 0.75610 0.75588
 Zr495 Zr -0.02047 0.77080 0.74124
 O496 O -0.00558 0.75643 0.72535
 Zr497 Zr -0.02029 0.74171 0.77044
 O498 O -0.00585 0.72576 0.75564
 Zr499 Zr 0.01957 0.76026 0.73070
 O500 O 0.00473 0.77646 0.74505
 Zr501 Zr 0.01933 0.73090 0.75969
 O502 O 0.00488 0.74569 0.77579
 Zr503 Zr -0.00963 0.73119 0.73040
 O504 O -0.02588 0.74556 0.74521
 O505 O -0.01631 0.76679 0.76630
 O506 O 0.01549 0.73502 0.73452
 C507 C -0.01254 0.76373 0.80157
 C508 C -0.01294 0.80212 0.76268
 C509 C -0.05153 0.76312 0.76307
 C510 C 0.01363 0.73795 0.69997
 C511 C 0.04985 0.73710 0.73679
 C512 C 0.01278 0.70039 0.73677
 H513 H 0.03631 0.75880 0.75851
 H514 H -0.00863 0.71410 0.75827
 H515 H -0.02338 0.77389 0.77337
 H516 H -0.00802 0.75925 0.71366
 H517 H 0.01486 0.78870 0.71678
 H518 H -0.01319 0.78774 0.71509
 H519 H 0.00960 0.70575 0.77736
 H520 H -0.00869 0.72340 0.79395
 H521 H 0.04556 0.77849 0.72479
 H522 H 0.02728 0.79698 0.77630
 H523 H -0.02816 0.70671 0.74000
 H524 H -0.04345 0.72286 0.75914
 H525 H 0.02693 0.75865 0.79366
 H526 H 0.04411 0.74057 0.77782
 H527 H -0.04424 0.75874 0.72343
 H528 H -0.02685 0.74083 0.70492
 O529 O 0.04399 0.02165 0.00123
 O530 O 0.03856 0.01947 -0.02708
 O531 O 0.00067 0.04432 0.02143
 O532 O -0.02660 0.03936 0.02210
 O533 O 0.02134 0.00090 0.04457
 O534 O 0.02015 -0.02802 0.03846
 O535 O -0.04339 -0.00079 -0.02129
 O536 O -0.03878 0.02744 -0.01805
 O537 O -0.00155 -0.02134 -0.04297
 O538 O 0.02830 -0.02020 -0.03738
 O539 O -0.02144 -0.04332 -0.00083
 O540 O -0.02059 -0.03773 0.02877
 O541 O -0.04336 -0.02081 -0.00139
 O542 O -0.03721 -0.01912 0.02944
 O543 O -0.00155 -0.04343 -0.02073
 O544 O 0.02895 -0.03714 -0.01900
 O545 O -0.02173 -0.00173 -0.04281
 O546 O -0.01620 0.02833 -0.03751
 O547 O 0.04424 0.00134 0.02089
 O548 O 0.03805 -0.02814 0.01958
 O549 O 0.00141 0.02079 0.04476
 O550 O -0.02856 0.01811 0.03810
 O551 O 0.02086 0.04431 0.00179
 O552 O 0.01703 0.03781 -0.02813
 Zr553 Zr 0.01992 0.02034 -0.00863
 O554 O 0.00547 0.00546 -0.02453
 Zr555 Zr -0.00896 0.02006 0.02078
 O556 O -0.02486 0.00568 0.00585
 Zr557 Zr 0.02021 -0.00897 0.02042
 O558 O 0.00540 -0.02493 0.00595
 Zr559 Zr -0.01964 0.00955 -0.01936
 O560 O -0.00527 0.02576 -0.00448
 Zr561 Zr 0.00932 -0.01975 -0.01928
 O562 O 0.02543 -0.00494 -0.00480
 Zr563 Zr -0.01978 -0.01956 0.00983
 O564 O -0.00494 -0.00519 0.02612
 O565 O 0.01603 0.01611 0.01651
 O566 O -0.01580 -0.01570 -0.01536
 C567 C 0.05121 0.01313 0.01265
 C568 C 0.01236 0.05143 0.01325
 C569 C 0.01303 0.01244 0.05178
 C570 C -0.05031 -0.01272 -0.01328
 C571 C -0.01362 -0.01352 -0.04981
 C572 C -0.01344 -0.05034 -0.01269
 H573 H 0.00805 0.00819 -0.03621
 H574 H 0.00805 -0.03658 0.00871
 H575 H 0.02312 0.02321 0.02359
 H576 H -0.03651 0.00848 0.00835
 H577 H -0.03352 0.03797 -0.01452
 H578 H -0.03510 0.03695 0.01360
 H579 H 0.02705 -0.04484 -0.00963
 H580 H 0.04365 -0.02721 0.00870
 H581 H -0.02566 0.02780 -0.04535
 H582 H 0.02580 0.04638 -0.02710
 H583 H -0.01006 -0.04397 0.02838
 H584 H 0.00906 -0.02781 0.04368
 H585 H 0.04318 0.00810 -0.02688
 H586 H 0.02734 -0.00997 -0.04409
 H587 H -0.02655 0.00794 0.04467
 H588 H -0.04508 -0.00998 0.02725
 O589 O -0.04445 0.49886 0.47825
 O590 O -0.03916 0.52719 0.48051
 O591 O -0.00104 0.47893 0.45551
 O592 O 0.02621 0.47827 0.46047
 O593 O -0.02164 0.45559 0.49893
 O594 O -0.02045 0.46167 0.52784
 O595 O 0.04285 0.52172 0.50061
 O596 O 0.03819 0.51851 0.47238
 O597 O 0.00101 0.54317 0.52132
 O598 O -0.02887 0.53750 0.52014
 O599 O 0.02105 0.50115 0.54314
 O600 O 0.02027 0.47151 0.53753
 O601 O 0.04291 0.50181 0.52062
 O602 O 0.03688 0.47094 0.51888
 O603 O 0.00106 0.52094 0.54331
 O604 O -0.02945 0.51907 0.53706
 O605 O 0.02117 0.54311 0.50169
 O606 O 0.01556 0.53790 0.47160
 O607 O -0.04461 0.47917 0.49852
 O608 O -0.03842 0.48049 0.52801
 O609 O -0.00176 0.45551 0.47900
 O610 O 0.02822 0.46228 0.48168
 O611 O -0.02130 0.49850 0.45558
 O612 O -0.01764 0.52842 0.46216
 Zr613 Zr -0.02042 0.50884 0.47958
 O614 O -0.00602 0.52478 0.49446
 Zr615 Zr 0.00855 0.47954 0.47977
 O616 O 0.02442 0.49451 0.49415
 Zr617 Zr -0.02059 0.47973 0.50883
 O618 O -0.00581 0.49424 0.52479
 Zr619 Zr 0.01909 0.51971 0.49032
 O620 O 0.00477 0.50479 0.47411
 Zr621 Zr -0.00983 0.51947 0.51965
 O622 O -0.02591 0.50494 0.50485
 Zr623 Zr 0.01938 0.49048 0.51939
 O624 O 0.00459 0.47414 0.50501
 O625 O -0.01645 0.48370 0.48375
 O626 O 0.01529 0.51564 0.51555
 C627 C -0.05162 0.48738 0.48674
 C628 C -0.01275 0.48711 0.44842
 C629 C -0.01334 0.44843 0.48736
 C630 C 0.04980 0.51375 0.51254
 C631 C 0.01309 0.55004 0.51354
 C632 C 0.01302 0.51298 0.55017
 H633 H -0.00864 0.53647 0.49176
 H634 H -0.00843 0.49146 0.53644
 H635 H -0.02350 0.47661 0.47663
 H636 H 0.03607 0.49206 0.49132
 H637 H 0.03292 0.51499 0.46185
 H638 H 0.03463 0.48687 0.46283
 H639 H -0.02750 0.50971 0.54475
 H640 H -0.04407 0.49135 0.52709
 H641 H 0.02499 0.54578 0.47215
 H642 H -0.02641 0.52737 0.45360
 H643 H 0.00976 0.47189 0.54381
 H644 H -0.00933 0.45652 0.52765
 H645 H -0.04375 0.52697 0.49190
 H646 H -0.02789 0.54428 0.50995
 H647 H 0.02621 0.45567 0.49184
 H648 H 0.04475 0.47318 0.50975
 O649 O 0.50152 0.04429 0.52182
 O650 O 0.47328 0.03895 0.51966
 O651 O 0.52144 0.00069 0.54458
 O652 O 0.52203 -0.02662 0.53958
 O653 O 0.54473 0.02143 0.50125
 O654 O 0.53873 0.02027 0.47233
 O655 O 0.47866 -0.04315 0.49927
 O656 O 0.48188 -0.03861 0.52754
 O657 O 0.45736 -0.00107 0.47872
 O658 O 0.46309 0.02883 0.47992
 O659 O 0.49928 -0.02122 0.45689
 O660 O 0.52887 -0.02047 0.46255
 O661 O 0.49858 -0.04318 0.47933
 O662 O 0.52938 -0.03720 0.48115
 O663 O 0.47953 -0.00120 0.45675
 O664 O 0.48148 0.02940 0.46302
 O665 O 0.45735 -0.02136 0.49829
 O666 O 0.46257 -0.01588 0.52839
 O667 O 0.52116 0.04448 0.50156
 O668 O 0.51999 0.03828 0.47211
 O669 O 0.54479 0.00142 0.52112
 O670 O 0.53799 -0.02861 0.51838
 O671 O 0.50197 0.02106 0.54452
 O672 O 0.47211 0.01733 0.53795
 Zr673 Zr 0.49161 0.02019 0.52053
 O674 O 0.47570 0.00582 0.50559
 Zr675 Zr 0.52081 -0.00888 0.52030
 O676 O 0.50586 -0.02473 0.50587
 Zr677 Zr 0.52067 0.02040 0.49129
 O678 O 0.50619 0.00565 0.47529
 Zr679 Zr 0.48072 -0.01938 0.50967
 O680 O 0.49561 -0.00509 0.52593
 Zr681 Zr 0.48103 0.00970 0.48041
 O682 O 0.49552 0.02575 0.49527
 Zr683 Zr 0.50992 -0.01961 0.48066
 O684 O 0.52622 -0.00485 0.49508
 O685 O 0.51669 0.01620 0.51636
 O686 O 0.48481 -0.01549 0.48446
 C687 C 0.51291 0.05151 0.51329
 C688 C 0.51333 0.01245 0.55168
 C689 C 0.55186 0.01306 0.51280
 C690 C 0.48663 -0.05009 0.48734
 C691 C 0.45045 -0.01318 0.48647
 C692 C 0.48748 -0.01317 0.44987
 H693 H 0.46405 0.00846 0.50828
 H694 H 0.50897 0.00830 0.46365
 H695 H 0.52376 0.02327 0.52349
 H696 H 0.50828 -0.03642 0.50868
 H697 H 0.48540 -0.03338 0.53809
 H698 H 0.51345 -0.03504 0.53719
 H699 H 0.49076 0.02739 0.45528
 H700 H 0.50914 0.04391 0.47295
 H701 H 0.45470 -0.02532 0.52782
 H702 H 0.47316 0.02609 0.54655
 H703 H 0.52848 -0.00994 0.45626
 H704 H 0.54385 0.00911 0.47252
 H705 H 0.47345 0.04356 0.50828
 H706 H 0.45630 0.02783 0.49008
 H707 H 0.54460 -0.02659 0.50824
 H708 H 0.52712 -0.04509 0.49027
 O709 O 0.50107 0.54394 0.02155
 O710 O 0.47280 0.53863 0.01935
 O711 O 0.52097 0.50038 0.04430
 O712 O 0.52161 0.47307 0.03934
 O713 O 0.54420 0.52103 0.00083
 O714 O 0.53810 0.51988 -0.02805
 O715 O 0.47816 0.45645 -0.00086
 O716 O 0.48143 0.46104 0.02740
 O717 O 0.45678 0.49847 -0.02143
 O718 O 0.46247 0.52837 -0.02031
 O719 O 0.49868 0.47832 -0.04331
 O720 O 0.52830 0.47912 -0.03769
 O721 O 0.49804 0.45640 -0.02084
 O722 O 0.52882 0.46239 -0.01911
 O723 O 0.47892 0.49834 -0.04346
 O724 O 0.48085 0.52895 -0.03722
 O725 O 0.45683 0.47823 -0.00183
 O726 O 0.46211 0.48376 0.02825
 O727 O 0.52067 0.54409 0.00124
 O728 O 0.51935 0.53788 -0.02822
 O729 O 0.54431 0.50110 0.02078
 O730 O 0.53752 0.47106 0.01812
 O731 O 0.50147 0.52071 0.04425
 O732 O 0.47161 0.51705 0.03770
 Zr733 Zr 0.49111 0.51985 0.02026
 O734 O 0.47518 0.50543 0.00539
 Zr735 Zr 0.52032 0.49078 0.02004
 O736 O 0.50536 0.47490 0.00567
 Zr737 Zr 0.52010 0.52001 -0.00903
 O738 O 0.50560 0.50522 -0.02498
 Zr739 Zr 0.48022 0.48024 0.00950
 O740 O 0.49513 0.49458 0.02570
 Zr741 Zr 0.48045 0.50927 -0.01981
 O742 O 0.49496 0.52536 -0.00501
 Zr743 Zr 0.50936 0.47997 -0.01957
 O744 O 0.52568 0.49478 -0.00520
 O745 O 0.51618 0.51585 0.01606
 O746 O 0.48425 0.48408 -0.01573
 C747 C 0.51248 0.55112 0.01301
 C748 C 0.51283 0.51212 0.05141
 C749 C 0.55136 0.51270 0.01239
 C750 C 0.48612 0.44949 -0.01280
 C751 C 0.44990 0.48638 -0.01365
 C752 C 0.48686 0.48636 -0.05032
 H753 H 0.46353 0.50806 0.00810
 H754 H 0.50836 0.50786 -0.03663
 H755 H 0.52327 0.52292 0.02317
 H756 H 0.50779 0.46321 0.00848
 H757 H 0.48496 0.46630 0.03793
 H758 H 0.51302 0.46465 0.03699
 H759 H 0.49013 0.52694 -0.04497
 H760 H 0.50851 0.54354 -0.02731
 H761 H 0.45425 0.47431 0.02771
 H762 H 0.47267 0.52583 0.04627
 H763 H 0.52783 0.48960 -0.04406
 H764 H 0.54321 0.50872 -0.02788
 H765 H 0.47301 0.54325 0.00798
 H766 H 0.45577 0.52744 -0.01008
 H767 H 0.54409 0.47306 0.00795
 H768 H 0.52661 0.45453 -0.00994
 O769 O 0.74908 0.20533 0.52187
 O770 O 0.77738 0.21057 0.51964
 O771 O 0.72928 0.24883 0.54465
 O772 O 0.72885 0.27617 0.53979
 O773 O 0.70596 0.22841 0.50115
 O774 O 0.71208 0.22950 0.47226
 O775 O 0.77215 0.29279 0.49955
 O776 O 0.76891 0.28817 0.52780
 O777 O 0.79344 0.25077 0.47892
 O778 O 0.78768 0.22086 0.48002
 O779 O 0.75151 0.27098 0.45706
 O780 O 0.72188 0.27021 0.46273
 O781 O 0.75223 0.29288 0.47957
 O782 O 0.72148 0.28698 0.48127
 O783 O 0.77124 0.25093 0.45688
 O784 O 0.76930 0.22034 0.46309
 O785 O 0.79344 0.27096 0.49858
 O786 O 0.78819 0.26542 0.52863
 O787 O 0.72942 0.20524 0.50161
 O788 O 0.73076 0.21141 0.47215
 O789 O 0.70595 0.24835 0.52109
 O790 O 0.71284 0.27831 0.51858
 O791 O 0.74877 0.22849 0.54457
 O792 O 0.77863 0.23213 0.53804
 Zr793 Zr 0.75911 0.22939 0.52059
 O794 O 0.77504 0.24379 0.50573
 Zr795 Zr 0.72998 0.25853 0.52042
 O796 O 0.74494 0.27439 0.50605
 Zr797 Zr 0.73007 0.22932 0.49132
 O798 O 0.74459 0.24408 0.47538
 Zr799 Zr 0.77006 0.26899 0.50988
 O800 O 0.75516 0.25466 0.52608
 Zr801 Zr 0.76975 0.23999 0.48053
 O802 O 0.75521 0.22391 0.49531
 Zr803 Zr 0.74088 0.26933 0.48081
 O804 O 0.72457 0.25456 0.49518
 O805 O 0.73404 0.23345 0.51640
 O806 O 0.76599 0.26518 0.48464
 C807 C 0.73761 0.19818 0.51337
 C808 C 0.73739 0.23706 0.55173
 C809 C 0.69883 0.23681 0.51267
 C810 C 0.76418 0.29977 0.48763
 C811 C 0.80035 0.26283 0.48675
 C812 C 0.76329 0.26292 0.45002
 H813 H 0.78669 0.24113 0.50844
 H814 H 0.74180 0.24146 0.46373
 H815 H 0.72692 0.22640 0.52349
 H816 H 0.74252 0.28608 0.50888
 H817 H 0.76539 0.28291 0.53833
 H818 H 0.73735 0.28467 0.53736
 H819 H 0.75996 0.22233 0.45539
 H820 H 0.74160 0.20576 0.47304
 H821 H 0.79606 0.27486 0.52812
 H822 H 0.77757 0.22333 0.54658
 H823 H 0.72238 0.25978 0.45629
 H824 H 0.70699 0.24067 0.47243
 H825 H 0.77712 0.20595 0.50826
 H826 H 0.79441 0.22178 0.49024
 H827 H 0.70630 0.27641 0.50836
 H828 H 0.72369 0.29480 0.49047
 O829 O 0.75113 0.77214 -0.04425
 O830 O 0.72288 0.76996 -0.03896
 O831 O 0.77111 0.79482 -0.00065
 O832 O 0.77168 0.78984 0.02666
 O833 O 0.79432 0.75145 -0.02134
 O834 O 0.78823 0.72253 -0.02026
 O835 O 0.72834 0.74960 0.04316
 O836 O 0.73156 0.77784 0.03861
 O837 O 0.70689 0.72907 0.00105
 O838 O 0.71259 0.73024 -0.02883
 O839 O 0.74884 0.70713 0.02118
 O840 O 0.77840 0.71276 0.02048
 O841 O 0.74821 0.72962 0.04319
 O842 O 0.77898 0.73134 0.03719
 O843 O 0.72907 0.70701 0.00114
 O844 O 0.73094 0.71333 -0.02942
 O845 O 0.70695 0.74865 0.02132
 O846 O 0.71224 0.77873 0.01588
 O847 O 0.77075 0.75187 -0.04444
 O848 O 0.76947 0.72240 -0.03830
 O849 O 0.79441 0.77131 -0.00132
 O850 O 0.78763 0.76862 0.02867
 O851 O 0.75161 0.79481 -0.02100
 O852 O 0.72174 0.78826 -0.01734
 Zr853 Zr 0.74122 0.77082 -0.02017
 O854 O 0.72530 0.75590 -0.00582
 Zr855 Zr 0.77043 0.77055 0.00892
 O856 O 0.75549 0.75613 0.02474
 Zr857 Zr 0.77022 0.74155 -0.02038
 O858 O 0.75572 0.72556 -0.00565
 Zr859 Zr 0.73035 0.75997 0.01938
 O860 O 0.74525 0.77622 0.00511
 Zr861 Zr 0.73056 0.73071 -0.00971
 O862 O 0.74507 0.74555 -0.02574
 Zr863 Zr 0.75949 0.73090 0.01962
 O864 O 0.77579 0.74531 0.00487
 O865 O 0.76629 0.76663 -0.01616
 O866 O 0.73437 0.73474 0.01550
 C867 C 0.76253 0.76363 -0.05146
 C868 C 0.76299 0.80194 -0.01240
 C869 C 0.80148 0.76297 -0.01293
 C870 C 0.73632 0.73769 0.05011
 C871 C 0.70000 0.73686 0.01313
 C872 C 0.73705 0.70010 0.01308
 H873 H 0.71365 0.75861 -0.00846
 H874 H 0.75849 0.71391 -0.00831
 H875 H 0.77338 0.77374 -0.02321
 H876 H 0.75794 0.75893 0.03643
 H877 H 0.73510 0.78839 0.03338
 H878 H 0.76315 0.78742 0.03511
 H879 H 0.74026 0.70563 -0.02746
 H880 H 0.75862 0.72329 -0.04395
 H881 H 0.70438 0.77818 0.02532
 H882 H 0.72280 0.79685 -0.02609
 H883 H 0.77802 0.70651 0.00993
 H884 H 0.79337 0.72271 -0.00911
 H885 H 0.72306 0.75859 -0.04359
 H886 H 0.70587 0.74045 -0.02787
 H887 H 0.79420 0.75845 0.02667
 H888 H 0.77678 0.74049 0.04508
 O889 O 0.95564 0.25082 0.27129
 O890 O 0.96101 0.22250 0.26909
 O891 O 0.99894 0.27102 0.29409
 O892 O 1.02620 0.27173 0.28925
 O893 O 0.97841 0.29416 0.25055
 O894 O 0.97959 0.28801 0.22167
 O895 O 1.04302 0.22831 0.24914
 O896 O 1.03836 0.23155 0.27736
 O897 O 1.00121 0.20662 0.22845
 O898 O 0.97138 0.21218 0.22944
 O899 O 1.02123 0.24877 0.20658
 O900 O 1.02035 0.27841 0.21217
 O901 O 1.04305 0.24823 0.22915
 O902 O 1.03695 0.27906 0.23084
 O903 O 1.00135 0.22884 0.20637
 O904 O 0.97078 0.23061 0.21253
 O905 O 1.02135 0.20679 0.24813
 O906 O 1.01576 0.21207 0.27817
 O907 O 0.95546 0.27049 0.25099
 O908 O 0.96167 0.26911 0.22152
 O909 O 0.99827 0.29437 0.27054
 O910 O 1.02825 0.28769 0.26802
 O911 O 0.97873 0.25136 0.29402
 O912 O 0.98252 0.22143 0.28751
 Zr913 Zr 0.97969 0.24095 0.27004
 O914 O 0.99415 0.22506 0.25522
 Zr915 Zr 1.00860 0.27037 0.26988
 O916 O 1.02452 0.25546 0.25557
 Zr917 Zr 0.97949 0.26999 0.24073
 O918 O 0.99433 0.25554 0.22484
 Zr919 Zr 1.01926 0.23023 0.25941
 O920 O 1.00488 0.24511 0.27556
 Zr921 Zr 0.99037 0.23030 0.23000
 O922 O 0.97423 0.24476 0.24475
 Zr923 Zr 1.01950 0.25944 0.23032
 O924 O 1.00464 0.27572 0.24462
 O925 O 0.98362 0.26609 0.26583
 O926 O 1.01548 0.23425 0.23416
 C927 C 0.94846 0.26226 0.26277
 C928 C 0.98723 0.26282 0.30117
 C929 C 0.98670 0.30139 0.26211
 C930 C 1.04997 0.23633 0.23723
 C931 C 1.01327 0.19978 0.23630
 C932 C 1.01327 0.23689 0.19954
 H933 H 0.99155 0.21337 0.25793
 H934 H 0.99172 0.25829 0.21318
 H935 H 0.97654 0.27318 0.27291
 H936 H 1.03617 0.25796 0.25842
 H937 H 1.03309 0.23507 0.28788
 H938 H 1.03466 0.26319 0.28691
 H939 H 0.97276 0.23993 0.20479
 H940 H 0.95606 0.25822 0.22245
 H941 H 1.02521 0.20424 0.27767
 H942 H 0.97373 0.22245 0.29605
 H943 H 1.00988 0.27794 0.20582
 H944 H 0.99070 0.29320 0.22186
 H945 H 0.95641 0.22271 0.25771
 H946 H 0.97226 0.20551 0.23970
 H947 H 1.02627 0.29428 0.25784
 H948 H 1.04481 0.27687 0.24000
 O949 O 0.77174 0.95584 0.75112
 O950 O 0.76961 0.96120 0.72281
 O951 O 0.79422 0.99948 0.77126
 O952 O 0.78918 1.02677 0.77190
 O953 O 0.75096 0.97856 0.79440
 O954 O 0.72212 0.97958 0.78826
 O955 O 0.74910 1.04325 0.72841
 O956 O 0.77728 1.03878 0.73168
 O957 O 0.72874 1.00115 0.70680
 O958 O 0.72999 0.97124 0.71243
 O959 O 0.70673 1.02107 0.74886
 O960 O 0.71229 1.02034 0.77847
 O961 O 0.72911 1.04316 0.74828
 O962 O 0.73081 1.03710 0.77912
 O963 O 0.70670 1.00108 0.72900
 O964 O 0.71309 0.97054 0.73081
 O965 O 0.74824 1.02148 0.70694
 O966 O 0.77825 1.01610 0.71227
 O967 O 0.75147 0.95554 0.77074
 O968 O 0.72205 0.96159 0.76942
 O969 O 0.77073 0.99865 0.79458
 O970 O 0.76796 1.02866 0.78784
 O971 O 0.79430 0.97917 0.75168
 O972 O 0.78782 0.98289 0.72174
 Zr973 Zr 0.77039 0.97995 0.74123
 O974 O 0.75550 0.99430 0.72528
 Zr975 Zr 0.76998 1.00897 0.77057
 O976 O 0.75560 1.02479 0.75559
 Zr977 Zr 0.74112 0.97957 0.77024
 O978 O 0.72517 0.99429 0.75572
 Zr979 Zr 0.75950 1.01950 0.73040
 O980 O 0.77570 1.00524 0.74533
 Zr981 Zr 0.73037 0.99032 0.73050
 O982 O 0.74518 0.97429 0.74503
 Zr983 Zr 0.73043 1.01957 0.75955
 O984 O 0.74481 1.00482 0.77589
 O985 O 0.76614 0.98388 0.76635
 O986 O 0.73432 1.01553 0.73438
 C987 C 0.76324 0.94858 0.76252
 C988 C 0.80137 0.98778 0.76312
 C989 C 0.76242 0.98698 0.80161
 C990 C 0.73717 1.05015 0.73639
 C991 C 0.73649 1.01328 0.69995
 C992 C 0.69976 1.01298 0.73701
 H993 H 0.75824 0.99170 0.71360
 H994 H 0.71355 0.99158 0.75846
 H995 H 0.77324 0.97684 0.77346
 H996 H 0.75836 1.03649 0.75808
 H997 H 0.78781 1.03357 0.73523
 H998 H 0.78678 1.03522 0.76335
 H999 H 0.70538 0.97244 0.74015
 H1000 H 0.72299 0.95596 0.75854
 H1001 H 0.77769 1.02556 0.70441
 H1002 H 0.79641 0.97415 0.72280
 H1003 H 0.70611 1.00975 0.77809
 H1004 H 0.72227 0.99072 0.79344
 H1005 H 0.75827 0.95654 0.72296
 H1006 H 0.74018 0.97226 0.70571
 H1007 H 0.75782 1.02660 0.79442
 H1008 H 0.73989 1.04504 0.77693
 O1009 O 0.70577 0.52157 0.24895
 O1010 O 0.71113 0.51939 0.27725
 O1011 O 0.74922 0.54432 0.22890
 O1012 O 0.77647 0.53935 0.22825
 O1013 O 0.72851 0.50092 0.20561
 O1014 O 0.72963 0.47200 0.21167
 O1015 O 0.79309 0.49919 0.27160
 O1016 O 0.78848 0.52743 0.26844
 O1017 O 0.75117 0.47853 0.29315
 O1018 O 0.72130 0.47971 0.28751
 O1019 O 0.77113 0.45667 0.25110
 O1020 O 0.77031 0.46226 0.22147
 O1021 O 0.79306 0.47920 0.25166
 O1022 O 0.78695 0.48089 0.22083
 O1023 O 0.75118 0.45652 0.27092
 O1024 O 0.72067 0.46278 0.26910
 O1025 O 0.77140 0.49813 0.29306
 O1026 O 0.76588 0.52821 0.28787
 O1027 O 0.70554 0.50129 0.22927
 O1028 O 0.71169 0.47183 0.23049
 O1029 O 0.74847 0.52081 0.20551
 O1030 O 0.77842 0.51815 0.21225
 O1031 O 0.72896 0.54428 0.24847
 O1032 O 0.73270 0.53772 0.27839
 Zr1033 Zr 0.72983 0.52028 0.25885
 O1034 O 0.74421 0.50539 0.27476
 Zr1035 Zr 0.75877 0.52005 0.22952
 O1036 O 0.77461 0.50566 0.24445
 Zr1037 Zr 0.72955 0.49101 0.22975
 O1038 O 0.74430 0.47504 0.24423
 Zr1039 Zr 0.76934 0.50950 0.26966
 O1040 O 0.75504 0.52572 0.25477
 Zr1041 Zr 0.74033 0.48019 0.26946
 O1042 O 0.72428 0.49501 0.25496
 Zr1043 Zr 0.76950 0.48042 0.24042
 O1044 O 0.75473 0.49481 0.22412
 O1045 O 0.73376 0.51609 0.23371
 O1046 O 0.76546 0.48426 0.26560
 C1047 C 0.69855 0.51304 0.23753
 C1048 C 0.73753 0.55142 0.23707
 C1049 C 0.73686 0.51246 0.19844
 C1050 C 0.80001 0.48729 0.26356
 C1051 C 0.76327 0.48631 0.30002
 C1052 C 0.76310 0.44965 0.26293
 H1053 H 0.74161 0.50809 0.28645
 H1054 H 0.74164 0.46339 0.24146
 H1055 H 0.72670 0.52321 0.22663
 H1056 H 0.78627 0.50848 0.24198
 H1057 H 0.78323 0.53796 0.26493
 H1058 H 0.78489 0.53698 0.23682
 H1059 H 0.72261 0.45507 0.25975
 H1060 H 0.70609 0.47270 0.24138
 H1061 H 0.77533 0.52767 0.29572
 H1062 H 0.72396 0.54630 0.27736
 H1063 H 0.75979 0.45599 0.22187
 H1064 H 0.74075 0.47219 0.20651
 H1065 H 0.70654 0.50800 0.27707
 H1066 H 0.72232 0.48989 0.29429
 H1067 H 0.77640 0.50799 0.20564
 H1068 H 0.79482 0.49005 0.22303
 O1069 O 0.50129 0.20518 0.72868
 O1070 O 0.47306 0.21047 0.73082
 O1071 O 0.52128 0.24876 0.70597
 O1072 O 0.52215 0.27603 0.71097
 O1073 O 0.54445 0.22802 0.74949
 O1074 O 0.53832 0.22922 0.77838
 O1075 O 0.47860 0.29267 0.75093
 O1076 O 0.48190 0.28804 0.72270
 O1077 O 0.45707 0.25075 0.77155
 O1078 O 0.46267 0.22082 0.77047
 O1079 O 0.49904 0.27086 0.79351
 O1080 O 0.52856 0.27010 0.78802
 O1081 O 0.49843 0.29274 0.77099
 O1082 O 0.52927 0.28668 0.76928
 O1083 O 0.47919 0.25088 0.79364
 O1084 O 0.48103 0.22026 0.78744
 O1085 O 0.45722 0.27094 0.75188
 O1086 O 0.46252 0.26533 0.72183
 O1087 O 0.52086 0.20500 0.74904
 O1088 O 0.51949 0.21123 0.77851
 O1089 O 0.54463 0.24795 0.72955
 O1090 O 0.53794 0.27803 0.73223
 O1091 O 0.50176 0.22842 0.70597
 O1092 O 0.47190 0.23205 0.71249
 Zr1093 Zr 0.49139 0.22927 0.72995
 O1094 O 0.47549 0.24370 0.74478
 Zr1095 Zr 0.52070 0.25831 0.73025
 O1096 O 0.50575 0.27422 0.74454
 Zr1097 Zr 0.52035 0.22909 0.75931
 O1098 O 0.50587 0.24392 0.77521
 Zr1099 Zr 0.48061 0.26887 0.74063
 O1100 O 0.49551 0.25452 0.72449
 Zr1101 Zr 0.48070 0.23990 0.77000
 O1102 O 0.49519 0.22378 0.75525
 Zr1103 Zr 0.50971 0.26917 0.76979
 O1104 O 0.52601 0.25432 0.75550
 O1105 O 0.51647 0.23324 0.73421
 O1106 O 0.48460 0.26507 0.76588
 C1107 C 0.51268 0.19798 0.73724
 C1108 C 0.51312 0.23704 0.69884
 C1109 C 0.55165 0.23634 0.73795
 C1110 C 0.48653 0.29964 0.76289
 C1111 C 0.45024 0.26284 0.76371
 C1112 C 0.48718 0.26285 0.80051
 H1113 H 0.46383 0.24108 0.74204
 H1114 H 0.50861 0.24130 0.78687
 H1115 H 0.52354 0.22617 0.72711
 H1116 H 0.50823 0.28590 0.74171
 H1117 H 0.48543 0.28276 0.71218
 H1118 H 0.51348 0.28438 0.71319
 H1119 H 0.49032 0.22226 0.79520
 H1120 H 0.50864 0.20559 0.77757
 H1121 H 0.45468 0.27478 0.72233
 H1122 H 0.47295 0.22328 0.70391
 H1123 H 0.52823 0.25952 0.79423
 H1124 H 0.54350 0.24036 0.77819
 H1125 H 0.47320 0.20590 0.74222
 H1126 H 0.45598 0.22175 0.76023
 H1127 H 0.54455 0.27597 0.74237
 H1128 H 0.52699 0.29464 0.76022
 O1129 O 0.27158 0.79474 0.49866
 O1130 O 0.26932 0.78941 0.52701
 O1131 O 0.29427 0.75129 0.47867
 O1132 O 0.28937 0.72394 0.47811
 O1133 O 0.25099 0.77187 0.45535
 O1134 O 0.22213 0.77066 0.46137
 O1135 O 0.24916 0.70724 0.52140
 O1136 O 0.27736 0.71186 0.51822
 O1137 O 0.22861 0.74924 0.54286
 O1138 O 0.22976 0.77916 0.53719
 O1139 O 0.20684 0.72907 0.50079
 O1140 O 0.21247 0.72993 0.47111
 O1141 O 0.22927 0.70718 0.50141
 O1142 O 0.23101 0.71321 0.47059
 O1143 O 0.20667 0.74909 0.52062
 O1144 O 0.21288 0.77970 0.51874
 O1145 O 0.24816 0.72900 0.54282
 O1146 O 0.27818 0.73456 0.53763
 O1147 O 0.25136 0.79490 0.47895
 O1148 O 0.22195 0.78869 0.48019
 O1149 O 0.27086 0.75192 0.45528
 O1150 O 0.26822 0.72190 0.46201
 O1151 O 0.29420 0.77159 0.49827
 O1152 O 0.28765 0.76785 0.52818
 Zr1153 Zr 0.27026 0.77066 0.50861
 O1154 O 0.25539 0.75622 0.52451
 Zr1155 Zr 0.27008 0.74161 0.47929
 O1156 O 0.25571 0.72571 0.49421
 Zr1157 Zr 0.24109 0.77081 0.47946
 O1158 O 0.22514 0.75602 0.49393
 Zr1159 Zr 0.25951 0.73104 0.51942
 O1160 O 0.27570 0.74540 0.50456
 Zr1161 Zr 0.23026 0.76005 0.51916
 O1162 O 0.24505 0.77616 0.50468
 Zr1163 Zr 0.23053 0.73077 0.49013
 O1164 O 0.24491 0.74559 0.47385
 O1165 O 0.26610 0.76666 0.48347
 O1166 O 0.23434 0.73487 0.51531
 C1167 C 0.26311 0.80193 0.48719
 C1168 C 0.30133 0.76306 0.48684
 C1169 C 0.26254 0.76354 0.44820
 C1170 C 0.23727 0.70027 0.51337
 C1171 C 0.23637 0.73714 0.54975
 C1172 C 0.19983 0.73709 0.51264
 H1173 H 0.25808 0.75885 0.53619
 H1174 H 0.21352 0.75864 0.49114
 H1175 H 0.27320 0.77374 0.47640
 H1176 H 0.25852 0.71402 0.49175
 H1177 H 0.28788 0.71713 0.51472
 H1178 H 0.28693 0.71543 0.48660
 H1179 H 0.20517 0.77770 0.50941
 H1180 H 0.22284 0.79433 0.49107
 H1181 H 0.27763 0.72510 0.54549
 H1182 H 0.29619 0.77666 0.52716
 H1183 H 0.20611 0.74040 0.47159
 H1184 H 0.22233 0.75950 0.45622
 H1185 H 0.25798 0.79406 0.52674
 H1186 H 0.23993 0.77821 0.54395
 H1187 H 0.25806 0.72387 0.45541
 H1188 H 0.24017 0.70537 0.47280
 O1189 O 0.29396 0.25089 0.97842
 O1190 O 0.28850 0.22255 0.98068
 O1191 O 0.25069 0.27107 0.95568
 O1192 O 0.22341 0.27171 0.96056
 O1193 O 0.27136 0.29425 0.99909
 O1194 O 0.27017 0.28817 1.02802
 O1195 O 0.20657 0.22840 1.00084
 O1196 O 0.21114 0.23164 0.97258
 O1197 O 0.24837 0.20675 1.02140
 O1198 O 0.27822 0.21230 1.02032
 O1199 O 0.22853 0.24896 1.04328
 O1200 O 0.22948 0.27861 1.03761
 O1201 O 0.20664 0.24838 1.02079
 O1202 O 0.21278 0.27918 1.01904
 O1203 O 0.24837 0.22902 1.04345
 O1204 O 0.27890 0.23074 1.03722
 O1205 O 0.22820 0.20689 1.00176
 O1206 O 0.23370 0.21216 0.97170
 O1207 O 0.29422 0.27057 0.99870
 O1208 O 0.28807 0.26928 1.02817
 O1209 O 0.25143 0.29442 0.97917
 O1210 O 0.22146 0.28779 0.98178
 O1211 O 0.27084 0.25139 0.95575
 O1212 O 0.26697 0.22148 0.96228
 Zr1213 Zr 0.26988 0.24101 0.97973
 O1214 O 0.25541 0.22515 0.99460
 Zr1215 Zr 0.24104 0.27044 0.97991
 O1216 O 0.22512 0.25556 0.99429
 Zr1217 Zr 0.27021 0.27011 1.00899
 O1218 O 0.25539 0.25568 1.02494
 Zr1219 Zr 0.23030 0.23033 0.99047
 O1220 O 0.24469 0.24517 0.97426
 Zr1221 Zr 0.25927 0.23043 1.01980
 O1222 O 0.27541 0.24487 1.00500
 Zr1223 Zr 0.23022 0.25958 1.01952
 O1224 O 0.24507 0.27583 1.00515
 O1225 O 0.26602 0.26616 0.98391
 O1226 O 0.23416 0.23438 1.01570
 C1227 C 0.30118 0.26234 0.98691
 C1228 C 0.26237 0.26286 0.94860
 C1229 C 0.26307 0.30144 0.98753
 C1230 C 0.19968 0.23645 1.01276
 C1231 C 0.23629 0.19990 1.01357
 C1232 C 0.23649 0.23709 1.05032
 H1233 H 0.25797 0.21346 0.99189
 H1234 H 0.25804 0.25845 1.03659
 H1235 H 0.27311 0.27323 0.97681
 H1236 H 0.21347 0.25807 0.99147
 H1237 H 0.21639 0.23515 0.96204
 H1238 H 0.21486 0.26328 0.96301
 H1239 H 0.27699 0.24010 1.04493
 H1240 H 0.29364 0.25838 1.02726
 H1241 H 0.22422 0.20434 0.97223
 H1242 H 0.27576 0.22248 0.95373
 H1243 H 0.23995 0.27812 1.04396
 H1244 H 0.25908 0.29340 1.02779
 H1245 H 0.29317 0.22280 0.99204
 H1246 H 0.27729 0.20562 1.01007
 H1247 H 0.22347 0.29436 0.99197
 H1248 H 0.20492 0.27700 1.00987
 C1249 C 0.26592 0.40900 0.78585
 C1250 C 0.27931 0.40130 0.77799
 C1251 C 0.28727 0.40925 0.76478
 C1252 C 0.28199 0.42492 0.75954
 C1253 C 0.30186 0.34443 0.80067
 C1254 C 0.26061 0.42467 0.78064
 C1255 C 0.28521 0.38550 0.78384
 C1256 C 0.29031 0.37240 0.78894
 C1257 C 0.29646 0.35723 0.79516
 C1258 C 0.26864 0.43288 0.76748
 H1259 H 0.25970 0.40298 0.79612
 H1260 H 0.29769 0.40342 0.75864
 H1261 H 0.28850 0.43087 0.74941
 H1262 H 0.25033 0.43041 0.78707
 C1263 C 0.28800 -0.09090 0.26469
 C1264 C 0.28002 -0.09889 0.27787
 C1265 C 0.26659 -0.09124 0.28570
 C1266 C 0.26126 -0.07557 0.28052
 C1267 C 0.30246 -0.15583 0.30051
 C1268 C 0.28269 -0.07523 0.25947
 C1269 C 0.28592 -0.11471 0.28369
 C1270 C 0.29100 -0.12782 0.28878
 C1271 C 0.29711 -0.14300 0.29499
 C1272 C 0.26931 -0.06732 0.26739
 H1273 H 0.29844 -0.09669 0.25857
 H1274 H 0.26036 -0.09730 0.29595
 H1275 H 0.25095 -0.06987 0.28693
 H1276 H 0.28922 -0.06925 0.24937
 C1277 C 0.76411 0.90690 0.78445
 C1278 C 0.77744 0.89912 0.77657
 C1279 C 0.78575 0.90725 0.76368
 C1280 C 0.78092 0.92320 0.75886
 C1281 C 0.79930 0.84179 0.79874
 C1282 C 0.75926 0.92285 0.77966
 C1283 C 0.78303 0.88312 0.78217
 C1284 C 0.78794 0.86990 0.78714
 C1285 C 0.79395 0.85464 0.79326
 C1286 C 0.76771 0.93127 0.76691
 H1287 H 0.75762 0.90074 0.79448
 H1288 H 0.79612 0.90136 0.75752
 H1289 H 0.78773 0.92929 0.74901
 H1290 H 0.74906 0.92866 0.78615
 C1291 C 0.46345 0.84085 0.26521
 C1292 C 0.47136 0.84874 0.27850
 C1293 C 0.48471 0.84102 0.28640
 C1294 C 0.49003 0.82536 0.28118
 C1295 C 0.44842 0.90530 0.30149
 C1296 C 0.46874 0.82519 0.25996
 C1297 C 0.46540 0.86449 0.28442
 C1298 C 0.46022 0.87752 0.28959
 C1299 C 0.45395 0.89259 0.29590
 C1300 C 0.48203 0.81719 0.26796
 H1301 H 0.45307 0.84670 0.25904
 H1302 H 0.49088 0.84700 0.29675
 H1303 H 0.50026 0.81958 0.28766
 H1304 H 0.46227 0.81927 0.24978
 C1305 C -0.01412 0.84351 0.78512
 C1306 C -0.02727 0.85143 0.77706
 C1307 C -0.03529 0.84353 0.76384
 C1308 C -0.03039 0.82764 0.75888
 C1309 C -0.04973 0.90814 0.80014
 C1310 C -0.00919 0.82763 0.78019
 C1311 C -0.03302 0.86729 0.78287
 C1312 C -0.03807 0.88038 0.78805
 C1313 C -0.04424 0.89546 0.79444
 C1314 C -0.01738 0.81942 0.76712
 H1315 H -0.00785 0.84949 0.79540
 H1316 H -0.04553 0.84952 0.75755
 H1317 H -0.03699 0.82171 0.74879
 H1318 H 0.00085 0.82170 0.78683
 C1319 C -0.03668 -0.09128 -0.01458
 C1320 C -0.02865 -0.09923 -0.02775
 C1321 C -0.01541 -0.09138 -0.03573
 C1322 C -0.01030 -0.07559 -0.03070
 C1323 C -0.05038 -0.15675 -0.04972
 C1324 C -0.03160 -0.07548 -0.00951
 C1325 C -0.03432 -0.11520 -0.03340
 C1326 C -0.03922 -0.12845 -0.03834
 C1327 C -0.04515 -0.14380 -0.04437
 C1328 C -0.01839 -0.06739 -0.01757
 H1329 H -0.04698 -0.09722 -0.00834
 H1330 H -0.00914 -0.09741 -0.04598
 H1331 H -0.00013 -0.06974 -0.03722
 H1332 H -0.03814 -0.06954 0.00060
 C1333 C -0.01466 0.40700 0.46497
 C1334 C -0.02792 0.39917 0.47293
 C1335 C -0.03598 0.40714 0.48606
 C1336 C -0.03100 0.42300 0.49103
 C1337 C -0.05058 0.34236 0.45006
 C1338 C -0.00965 0.42287 0.46990
 C1339 C -0.03373 0.38329 0.46713
 C1340 C -0.03883 0.37019 0.46200
 C1341 C -0.04505 0.35508 0.45569
 C1342 C -0.01788 0.43115 0.48289
 H1343 H -0.00836 0.40096 0.45475
 H1344 H -0.04630 0.40120 0.49228
 H1345 H -0.03764 0.42899 0.50105
 H1346 H 0.00048 0.42874 0.46334
 C1347 C 0.48438 -0.09087 0.46384
 C1348 C 0.47090 -0.09859 0.47154
 C1349 C 0.46283 -0.09067 0.48470
 C1350 C 0.46810 -0.07501 0.49003
 C1351 C 0.44845 -0.15543 0.44853
 C1352 C 0.48968 -0.07522 0.46914
 C1353 C 0.46503 -0.11438 0.46559
 C1354 C 0.45996 -0.12747 0.46040
 C1355 C 0.45384 -0.14263 0.45410
 C1356 C 0.48153 -0.06704 0.48224
 H1357 H 0.49069 -0.09686 0.45360
 H1358 H 0.45234 -0.09651 0.49071
 H1359 H 0.46150 -0.06909 0.50011
 H1360 H 0.50003 -0.06946 0.46282
 C1361 C 0.48394 0.40865 -0.03619
 C1362 C 0.47046 0.40093 -0.02849
 C1363 C 0.46235 0.40888 -0.01536
 C1364 C 0.46759 0.42456 -0.01006
 C1365 C 0.44825 0.34393 -0.05136
 C1366 C 0.48921 0.42432 -0.03092
 C1367 C 0.46464 0.38510 -0.03439
 C1368 C 0.45962 0.37198 -0.03955
 C1369 C 0.45358 0.35678 -0.04583
 C1370 C 0.48103 0.43253 -0.01785
 H1371 H 0.49028 0.40263 -0.04639
 H1372 H 0.45186 0.40304 -0.00935
 H1373 H 0.46097 0.43051 -0.00002
 H1374 H 0.49956 0.43008 -0.03723
 C1375 C 0.78795 0.34036 0.48508
 C1376 C 0.77977 0.34835 0.47202
 C1377 C 0.76624 0.34066 0.46436
 C1378 C 0.76100 0.32498 0.46960
 C1379 C 0.80186 0.40531 0.44905
 C1380 C 0.78274 0.32467 0.49036
 C1381 C 0.78556 0.36418 0.46612
 C1382 C 0.79055 0.37730 0.46094
 C1383 C 0.79656 0.39249 0.45463
 C1384 C 0.76925 0.31674 0.48261
 H1385 H 0.79848 0.34618 0.49106
 H1386 H 0.75984 0.34671 0.45420
 H1387 H 0.75060 0.31925 0.46332
 H1388 H 0.78942 0.31869 0.50036
 C1389 C 0.76439 0.84343 -0.03465
 C1390 C 0.77749 0.85132 -0.02646
 C1391 C 0.78541 0.84337 -0.01322
 C1392 C 0.78045 0.82746 -0.00837
 C1393 C 0.80013 0.90820 -0.04909
 C1394 C 0.75940 0.82752 -0.02983
 C1395 C 0.78329 0.86723 -0.03215
 C1396 C 0.78839 0.88035 -0.03721
 C1397 C 0.79461 0.89548 -0.04347
 C1398 C 0.76750 0.81926 -0.01674
 H1399 H 0.75820 0.84945 -0.04495
 H1400 H 0.79560 0.84935 -0.00683
 H1401 H 0.78698 0.82149 0.00174
 H1402 H 0.74941 0.82160 -0.03657
 C1403 C 0.78646 0.26515 0.40911
 C1404 C 0.77856 0.27851 0.40135
 C1405 C 0.76539 0.28649 0.40929
 C1406 C 0.76023 0.28127 0.42501
 C1407 C 0.80078 0.30096 0.34426
 C1408 C 0.78134 0.25990 0.42483
 C1409 C 0.78430 0.28435 0.38549
 C1410 C 0.78931 0.28942 0.37234
 C1411 C 0.79539 0.29555 0.35711
 C1412 C 0.76822 0.26797 0.43303
 H1413 H 0.79671 0.25892 0.40310
 H1414 H 0.75921 0.29688 0.40342
 H1415 H 0.75013 0.28780 0.43095
 H1416 H 0.78780 0.24965 0.43063
 C1417 C 0.76365 0.78605 -0.09287
 C1418 C 0.77655 0.77774 -0.10094
 C1419 C 0.78446 0.76445 -0.09310
 C1420 C 0.77969 0.75962 -0.07714
 C1421 C 0.79859 0.79958 -0.15833
 C1422 C 0.75885 0.78125 -0.07691
 C1423 C 0.78213 0.78331 -0.11696
 C1424 C 0.78707 0.78822 -0.13019
 C1425 C 0.79315 0.79422 -0.14547
 C1426 C 0.76692 0.76807 -0.06877
 H1427 H 0.75748 0.79639 -0.09882
 H1428 H 0.79450 0.75796 -0.09921
 H1429 H 0.78619 0.74944 -0.07127
 H1430 H 0.74899 0.78806 -0.07087
 C1431 C 0.26553 0.46317 0.84080
 C1432 C 0.27872 0.47127 0.84866
 C1433 C 0.28648 0.48469 0.84085
 C1434 C 0.28121 0.48990 0.82517
 C1435 C 0.30168 0.44907 0.90557
 C1436 C 0.26023 0.46835 0.82512
 C1437 C 0.28465 0.46548 0.86448
 C1438 C 0.28983 0.46048 0.87758
 C1439 C 0.29613 0.45443 0.89276
 C1440 C 0.26807 0.48172 0.81705
 H1441 H 0.25947 0.45273 0.84671
 H1442 H 0.29673 0.49101 0.84680
 H1443 H 0.28757 0.50020 0.81934
 H1444 H 0.25012 0.46174 0.81924
 C1445 C 0.28689 -0.01537 0.34078
 C1446 C 0.27915 -0.02879 0.34860
 C1447 C 0.26599 -0.03693 0.34074
 C1448 C 0.26069 -0.03179 0.32504
 C1449 C 0.30200 -0.05090 0.40559
 C1450 C 0.28163 -0.01020 0.32508
 C1451 C 0.28507 -0.03454 0.36444
 C1452 C 0.29022 -0.03952 0.37756
 C1453 C 0.29648 -0.04555 0.39276
 C1454 C 0.26852 -0.01842 0.31696
 H1455 H 0.29713 -0.00902 0.34673
 H1456 H 0.25995 -0.04737 0.34667
 H1457 H 0.25061 -0.03843 0.31916
 H1458 H 0.28797 0.00010 0.31924
 C1459 C -0.03715 -0.01582 -0.09054
 C1460 C -0.02903 -0.02889 -0.09854
 C1461 C -0.01567 -0.03675 -0.09076
 C1462 C -0.01052 -0.03164 -0.07499
 C1463 C -0.05079 -0.05033 -0.15624
 C1464 C -0.03204 -0.01068 -0.07478
 C1465 C -0.03467 -0.03451 -0.11453
 C1466 C -0.03957 -0.03935 -0.12781
 C1467 C -0.04552 -0.04518 -0.14322
 C1468 C -0.01869 -0.01858 -0.06677
 H1469 H -0.04754 -0.00968 -0.09643
 H1470 H -0.00933 -0.04692 -0.09682
 H1471 H -0.00024 -0.03804 -0.06921
 H1472 H -0.03864 -0.00063 -0.06883
 C1473 C -0.03492 0.48604 0.40690
 C1474 C -0.02682 0.47292 0.39896
 C1475 C -0.01368 0.46487 0.40690
 C1476 C -0.00883 0.46972 0.42284
 C1477 C -0.04950 0.45072 0.34194
 C1478 C -0.03011 0.49092 0.42284
 C1479 C -0.03251 0.46724 0.38301
 C1480 C -0.03759 0.46225 0.36986
 C1481 C -0.04387 0.45615 0.35469
 C1482 C -0.01711 0.48269 0.43108
 H1483 H -0.04515 0.49233 0.40089
 H1484 H -0.00736 0.45465 0.40088
 H1485 H 0.00120 0.46309 0.42880
 H1486 H -0.03677 0.50094 0.42879
 C1487 C 0.46407 -0.01540 0.40908
 C1488 C 0.47182 -0.02885 0.40135
 C1489 C 0.48502 -0.03687 0.40924
 C1490 C 0.49032 -0.03160 0.42489
 C1491 C 0.44865 -0.05167 0.34476
 C1492 C 0.46934 -0.01010 0.42474
 C1493 C 0.46585 -0.03479 0.38560
 C1494 C 0.46063 -0.03993 0.37256
 C1495 C 0.45427 -0.04616 0.35748
 C1496 C 0.48247 -0.01821 0.43290
 H1497 H 0.45381 -0.00914 0.40311
 H1498 H 0.49107 -0.04734 0.40338
 H1499 H 0.50042 -0.03817 0.43081
 H1500 H 0.46298 0.00021 0.43052
 C1501 C 0.46344 0.48407 -0.09110
 C1502 C 0.47120 0.47063 -0.09883
 C1503 C 0.48441 0.46263 -0.09094
 C1504 C 0.48972 0.46792 -0.07529
 C1505 C 0.44804 0.44776 -0.15539
 C1506 C 0.46871 0.48939 -0.07545
 C1507 C 0.46524 0.46469 -0.11457
 C1508 C 0.46002 0.45953 -0.12761
 C1509 C 0.45367 0.45328 -0.14268
 C1510 C 0.48184 0.48130 -0.06729
 H1511 H 0.45316 0.49032 -0.09707
 H1512 H 0.49048 0.45217 -0.09680
 H1513 H 0.49983 0.46137 -0.06938
 H1514 H 0.46233 0.49969 -0.06966
 C1515 C 0.48480 0.78740 0.34076
 C1516 C 0.47131 0.77974 0.34851
 C1517 C 0.46317 0.76657 0.34065
 C1518 C 0.46839 0.76116 0.32502
 C1519 C 0.44898 0.80243 0.40546
 C1520 C 0.49005 0.78202 0.32513
 C1521 C 0.46552 0.78569 0.36432
 C1522 C 0.46050 0.79083 0.37742
 C1523 C 0.45439 0.79701 0.39262
 C1524 C 0.48185 0.76888 0.31702
 H1525 H 0.49116 0.79764 0.34672
 H1526 H 0.45268 0.76058 0.34652
 H1527 H 0.46175 0.75106 0.31914
 H1528 H 0.50041 0.78829 0.31935
 C1529 C -0.03466 0.76473 0.84310
 C1530 C -0.02670 0.77802 0.85095
 C1531 C -0.01370 0.78623 0.84294
 C1532 C -0.00883 0.78135 0.82702
 C1533 C -0.04910 0.80040 0.90796
 C1534 C -0.02982 0.75982 0.82719
 C1535 C -0.03238 0.78372 0.86689
 C1536 C -0.03740 0.78875 0.88004
 C1537 C -0.04357 0.79492 0.89521
 C1538 C -0.01695 0.76819 0.81887
 H1539 H -0.04478 0.75832 0.84918
 H1540 H -0.00749 0.79657 0.84888
 H1541 H 0.00110 0.78810 0.82101
 H1542 H -0.03637 0.74966 0.82131
 C1543 C 0.40950 0.78608 0.26552
 C1544 C 0.40175 0.77845 0.27904
 C1545 C 0.40964 0.76538 0.28729
 C1546 C 0.42530 0.76006 0.28215
 C1547 C 0.34487 0.80151 0.30084
 C1548 C 0.42515 0.78080 0.26036
 C1549 C 0.38595 0.78439 0.28475
 C1550 C 0.37285 0.78959 0.28967
 C1551 C 0.35768 0.79592 0.29560
 C1552 C 0.43330 0.76778 0.26868
 H1553 H 0.40352 0.79625 0.25908
 H1554 H 0.40378 0.75942 0.29781
 H1555 H 0.43121 0.75005 0.28888
 H1556 H 0.43092 0.78706 0.24997
 C1557 C -0.09305 0.78511 0.76385
 C1558 C -0.10094 0.77709 0.77707
 C1559 C -0.09293 0.76410 0.78533
 C1560 C -0.07699 0.75930 0.78056
 C1561 C -0.15820 0.79925 0.79873
 C1562 C -0.07712 0.78034 0.75906
 C1563 C -0.11692 0.78268 0.78261
 C1564 C -0.13013 0.78765 0.78747
 C1565 C -0.14538 0.79378 0.79342
 C1566 C -0.06882 0.76748 0.76747
 H1567 H -0.09912 0.79522 0.75740
 H1568 H -0.09890 0.75785 0.79561
 H1569 H -0.07099 0.74938 0.78733
 H1570 H -0.07123 0.78692 0.74894
 C1571 C 0.84106 0.26495 0.46329
 C1572 C 0.84888 0.27831 0.47116
 C1573 C 0.84101 0.28638 0.48434
 C1574 C 0.82533 0.28122 0.48956
 C1575 C 0.90616 0.30049 0.44936
 C1576 C 0.82537 0.25975 0.46848
 C1577 C 0.86476 0.28404 0.46543
 C1578 C 0.87795 0.28904 0.46051
 C1579 C 0.89324 0.29511 0.45458
 C1580 C 0.81726 0.26788 0.48164
 H1581 H 0.84702 0.25864 0.45303
 H1582 H 0.84693 0.29677 0.49049
 H1583 H 0.81947 0.28780 0.49969
 H1584 H 0.81953 0.24948 0.46207
 C1585 C 0.84279 0.76425 -0.03533
 C1586 C 0.85079 0.77726 -0.02706
 C1587 C 0.84294 0.78516 -0.01376
 C1588 C 0.82705 0.78027 -0.00891
 C1589 C 0.90770 0.80005 -0.04910
 C1590 C 0.82690 0.75933 -0.03051
 C1591 C 0.86670 0.78301 -0.03268
 C1592 C 0.87983 0.78812 -0.03763
 C1593 C 0.89497 0.79442 -0.04369
 C1594 C 0.81875 0.76741 -0.01735
 H1595 H 0.84874 0.75808 -0.04568
 H1596 H 0.84900 0.79528 -0.00730
 H1597 H 0.82118 0.78678 0.00126
 H1598 H 0.82090 0.74940 -0.03730
 C1599 C -0.09127 -0.03583 -0.01506
 C1600 C -0.09909 -0.02795 -0.02840
 C1601 C -0.09115 -0.01486 -0.03656
 C1602 C -0.07538 -0.00973 -0.03152
 C1603 C -0.15657 -0.04999 -0.04989
 C1604 C -0.07550 -0.03074 -0.00998
 C1605 C -0.11504 -0.03364 -0.03400
 C1606 C -0.12828 -0.03860 -0.03885
 C1607 C -0.14362 -0.04464 -0.04471
 C1608 C -0.06732 -0.01768 -0.01821
 H1609 H -0.09728 -0.04602 -0.00867
 H1610 H -0.09707 -0.00871 -0.04694
 H1611 H -0.06945 0.00032 -0.03818
 H1612 H -0.06968 -0.03716 0.00028
 C1613 C -0.09269 0.48575 0.46388
 C1614 C -0.10063 0.47264 0.47202
 C1615 C -0.09287 0.46482 0.48543
 C1616 C -0.07710 0.46988 0.49050
 C1617 C -0.15683 0.44907 0.44888
 C1618 C -0.07691 0.49084 0.46892
 C1619 C -0.11636 0.46667 0.46611
 C1620 C -0.12933 0.46138 0.46090
 C1621 C -0.14427 0.45488 0.45453
 C1622 C -0.06883 0.48283 0.48218
 H1623 H -0.09856 0.49184 0.45344
 H1624 H -0.09889 0.45462 0.49179
 H1625 H -0.07127 0.46342 0.50074
 H1626 H -0.07094 0.50083 0.46221
 C1627 C 0.40984 -0.01508 0.46280
 C1628 C 0.40203 -0.02858 0.47043
 C1629 C 0.40987 -0.03682 0.48354
 C1630 C 0.42552 -0.03169 0.48892
 C1631 C 0.34497 -0.05052 0.44776
 C1632 C 0.42549 -0.00992 0.46815
 C1633 C 0.38620 -0.03427 0.46449
 C1634 C 0.37306 -0.03920 0.45936
 C1635 C 0.35784 -0.04519 0.45318
 C1636 C 0.43356 -0.01821 0.48124
 H1637 H 0.40390 -0.00865 0.45260
 H1638 H 0.40395 -0.04732 0.48949
 H1639 H 0.43137 -0.03839 0.49898
 H1640 H 0.43131 0.00046 0.46192
 C1641 C 0.40934 0.46268 -0.01642
 C1642 C 0.40147 0.47086 -0.02955
 C1643 C 0.40924 0.48435 -0.03723
 C1644 C 0.42490 0.48955 -0.03193
 C1645 C 0.34440 0.44873 -0.05201
 C1646 C 0.42499 0.46786 -0.01108
 C1647 C 0.38563 0.46513 -0.03543
 C1648 C 0.37250 0.46015 -0.04051
 C1649 C 0.35727 0.45410 -0.04664
 C1650 C 0.43301 0.48131 -0.01883
 H1651 H 0.40345 0.45220 -0.01041
 H1652 H 0.40328 0.49074 -0.04744
 H1653 H 0.43069 0.49991 -0.03821
 H1654 H 0.43087 0.46119 -0.00101
 C1655 C 0.34015 0.46271 0.76588
 C1656 C 0.34806 0.47074 0.77909
 C1657 C 0.34041 0.48424 0.78684
 C1658 C 0.32482 0.48960 0.78154
 C1659 C 0.40466 0.44779 0.80176
 C1660 C 0.32457 0.46804 0.76054
 C1661 C 0.36379 0.46479 0.78501
 C1662 C 0.37682 0.45962 0.79013
 C1663 C 0.39191 0.45333 0.79631
 C1664 C 0.31665 0.48150 0.76838
 H1665 H 0.34595 0.45222 0.75982
 H1666 H 0.34640 0.49051 0.79712
 H1667 H 0.31910 0.49996 0.78788
 H1668 H 0.31865 0.46148 0.75042
 C1669 C 0.34086 -0.01556 0.28682
 C1670 C 0.34858 -0.02905 0.27911
 C1671 C 0.34072 -0.03715 0.26592
 C1672 C 0.32512 -0.03190 0.26055
 C1673 C 0.40525 -0.05171 0.30191
 C1674 C 0.32526 -0.01028 0.28148
 C1675 C 0.36433 -0.03490 0.28507
 C1676 C 0.37738 -0.04001 0.29023
 C1677 C 0.39249 -0.04621 0.29644
 C1678 C 0.31714 -0.01846 0.26834
 H1679 H 0.34682 -0.00923 0.29708
 H1680 H 0.34657 -0.04764 0.25990
 H1681 H 0.31924 -0.03852 0.25044
 H1682 H 0.31949 0.00007 0.28779
 C1683 C 0.15728 0.53596 0.73624
 C1684 C 0.14928 0.52789 0.72312
 C1685 C 0.15698 0.51451 0.71521
 C1686 C 0.17276 0.50941 0.72018
 C1687 C 0.09301 0.55104 0.69982
 C1688 C 0.17307 0.53089 0.74125
 C1689 C 0.13353 0.53383 0.71724
 C1690 C 0.12055 0.53905 0.71201
 C1691 C 0.10559 0.54540 0.70557
 C1692 C 0.18109 0.51766 0.73314
 H1693 H 0.15145 0.54637 0.74242
 H1694 H 0.15091 0.50820 0.70500
 H1695 H 0.17854 0.49920 0.71365
 H1696 H 0.17910 0.53755 0.75124
 C1697 C 0.15727 0.01372 0.21519
 C1698 C 0.14947 0.02699 0.22319
 C1699 C 0.15745 0.03509 0.23631
 C1700 C 0.17330 0.03014 0.24124
 C1701 C 0.09284 0.04970 0.20035
 C1702 C 0.17312 0.00875 0.22008
 C1703 C 0.13363 0.03279 0.21741
 C1704 C 0.12056 0.03790 0.21229
 C1705 C 0.10550 0.04415 0.20599
 C1706 C 0.18141 0.01702 0.23305
 H1707 H 0.15123 0.00740 0.20497
 H1708 H 0.15154 0.04541 0.24255
 H1709 H 0.17929 0.03681 0.25124
 H1710 H 0.17897 -0.00138 0.21348
 C1711 C 0.59281 0.71414 0.23632
 C1712 C 0.60088 0.72254 0.22345
 C1713 C 0.59313 0.73598 0.21569
 C1714 C 0.57725 0.74085 0.22057
 C1715 C 0.65776 0.70056 0.20062
 C1716 C 0.57693 0.71898 0.24123
 C1717 C 0.61678 0.71691 0.21770
 C1718 C 0.62990 0.71197 0.21258
 C1719 C 0.64503 0.70594 0.20626
 C1720 C 0.56888 0.73229 0.23330
 H1721 H 0.59868 0.70368 0.24237
 H1722 H 0.59924 0.74254 0.20568
 H1723 H 0.57145 0.75113 0.21418
 H1724 H 0.57087 0.71209 0.25104
 C1725 C 0.09044 0.71349 0.73451
 C1726 C 0.09819 0.72130 0.72109
 C1727 C 0.09033 0.73451 0.71304
 C1728 C 0.07471 0.73981 0.71829
 C1729 C 0.15507 0.69902 0.69851
 C1730 C 0.07482 0.71876 0.73978
 C1731 C 0.11398 0.71546 0.71525
 C1732 C 0.12708 0.71043 0.71016
 C1733 C 0.14225 0.70436 0.70398
 C1734 C 0.06672 0.73194 0.73168
 H1735 H 0.09640 0.70321 0.74079
 H1736 H 0.09620 0.74061 0.70261
 H1737 H 0.06885 0.74995 0.71172
 H1738 H 0.06903 0.71238 0.75009
 C1739 C 0.65720 0.23630 0.53448
 C1740 C 0.64924 0.22313 0.52643
 C1741 C 0.65725 0.21481 0.51348
 C1742 C 0.67325 0.21946 0.50876
 C1743 C 0.59171 0.20181 0.54831
 C1744 C 0.67320 0.24097 0.52979
 C1745 C 0.63318 0.21771 0.53193
 C1746 C 0.61991 0.21294 0.53684
 C1747 C 0.60459 0.20707 0.54289
 C1748 C 0.68149 0.23250 0.51697
 H1749 H 0.65113 0.24279 0.54455
 H1750 H 0.65122 0.20456 0.50720
 H1751 H 0.67925 0.21265 0.49886
 H1752 H 0.67914 0.25106 0.53640
 C1753 C 0.65928 0.73445 0.03649
 C1754 C 0.65135 0.72137 0.02827
 C1755 C 0.65917 0.71355 0.01491
 C1756 C 0.67491 0.71870 0.00984
 C1757 C 0.59383 0.69968 0.04988
 C1758 C 0.67501 0.73963 0.03145
 C1759 C 0.63540 0.71568 0.03385
 C1760 C 0.62216 0.71079 0.03871
 C1761 C 0.60680 0.70488 0.04463
 C1762 C 0.68307 0.73177 0.01810
 H1763 H 0.65335 0.74056 0.04688
 H1764 H 0.65316 0.70337 0.00849
 H1765 H 0.68073 0.71233 -0.00045
 H1766 H 0.68092 0.74970 0.03813
 C1767 C 0.09269 0.01420 0.03479
 C1768 C 0.10045 0.02759 0.02693
 C1769 C 0.09240 0.03583 0.01395
 C1770 C 0.07654 0.03090 0.00903
 C1771 C 0.15724 0.05014 0.04964
 C1772 C 0.07683 0.00924 0.02991
 C1773 C 0.11632 0.03335 0.03268
 C1774 C 0.12942 0.03842 0.03777
 C1775 C 0.14453 0.04463 0.04404
 C1776 C 0.06847 0.01765 0.01707
 H1777 H 0.09880 0.00777 0.04489
 H1778 H 0.09827 0.04625 0.00782
 H1779 H 0.07049 0.03768 -0.00087
 H1780 H 0.07102 -0.00100 0.03639
 C1781 C 0.09065 0.51597 0.53578
 C1782 C 0.09836 0.52940 0.52792
 C1783 C 0.09040 0.53744 0.51476
 C1784 C 0.07472 0.53220 0.50958
 C1785 C 0.15537 0.55173 0.55032
 C1786 C 0.07497 0.51071 0.53063
 C1787 C 0.11419 0.53524 0.53369
 C1788 C 0.12732 0.54029 0.53873
 C1789 C 0.14253 0.54638 0.54487
 C1790 C 0.06676 0.51882 0.51751
 H1791 H 0.09668 0.50969 0.54601
 H1792 H 0.09624 0.54788 0.50862
 H1793 H 0.06877 0.53878 0.49949
 H1794 H 0.06922 0.50040 0.53705
 C1795 C 0.59311 0.03567 0.51410
 C1796 C 0.60102 0.02761 0.52727
 C1797 C 0.59317 0.01435 0.53527
 C1798 C 0.57734 0.00935 0.53032
 C1799 C 0.65768 0.05035 0.55015
 C1800 C 0.57727 0.03070 0.50912
 C1801 C 0.61686 0.03342 0.53308
 C1802 C 0.62993 0.03853 0.53821
 C1803 C 0.64500 0.04479 0.54452
 C1804 C 0.56911 0.01759 0.51729
 H1805 H 0.59906 0.04598 0.50786
 H1806 H 0.59917 0.00805 0.54551
 H1807 H 0.57144 -0.00077 0.53690
 H1808 H 0.57133 0.03734 0.49907
 C1809 C 0.59279 0.51402 0.03462
 C1810 C 0.60064 0.52719 0.02649
 C1811 C 0.59267 0.53519 0.01332
 C1812 C 0.57679 0.53025 0.00847
 C1813 C 0.65751 0.54988 0.04886
 C1814 C 0.57691 0.50904 0.02980
 C1815 C 0.61654 0.53298 0.03214
 C1816 C 0.62965 0.53809 0.03715
 C1817 C 0.64478 0.54434 0.04332
 C1818 C 0.56863 0.51721 0.01677
 H1819 H 0.59883 0.50777 0.04487
 H1820 H 0.59861 0.54544 0.00697
 H1821 H 0.57081 0.53683 -0.00160
 H1822 H 0.57102 0.49898 0.03649
 C1823 C 0.03579 0.01378 0.09300
 C1824 C 0.02767 0.02684 0.10103
 C1825 C 0.01433 0.03474 0.09325
 C1826 C 0.00931 0.02980 0.07740
 C1827 C 0.05032 0.04982 0.15777
 C1828 C 0.03079 0.00881 0.07714
 C1829 C 0.03348 0.03265 0.11689
 C1830 C 0.03858 0.03780 0.12998
 C1831 C 0.04479 0.04415 0.14507
 C1832 C 0.01760 0.01689 0.06906
 H1833 H 0.04616 0.00761 0.09889
 H1834 H 0.00799 0.04490 0.09934
 H1835 H -0.00087 0.03632 0.07157
 H1836 H 0.03747 -0.00115 0.07110
 C1837 C 0.01518 0.53630 0.59104
 C1838 C 0.02857 0.52850 0.59880
 C1839 C 0.03661 0.51532 0.59088
 C1840 C 0.03140 0.51007 0.57518
 C1841 C 0.05082 0.55131 0.65578
 C1842 C 0.00994 0.53109 0.57535
 C1843 C 0.03439 0.53437 0.61464
 C1844 C 0.03942 0.53951 0.62776
 C1845 C 0.04548 0.54577 0.64295
 C1846 C 0.01805 0.51797 0.56716
 H1847 H 0.00890 0.54655 0.59704
 H1848 H 0.04703 0.50922 0.59675
 H1849 H 0.03796 0.49997 0.56925
 H1850 H -0.00034 0.53749 0.56956
 C1851 C 0.53562 0.01325 0.59315
 C1852 C 0.52771 0.02649 0.60109
 C1853 C 0.51466 0.03470 0.59317
 C1854 C 0.50971 0.02990 0.57725
 C1855 C 0.55026 0.04896 0.65808
 C1856 C 0.53070 0.00841 0.57723
 C1857 C 0.53348 0.03216 0.61702
 C1858 C 0.53855 0.03719 0.63017
 C1859 C 0.54475 0.04340 0.64533
 C1860 C 0.51779 0.01680 0.56900
 H1861 H 0.54578 0.00684 0.59916
 H1862 H 0.50848 0.04501 0.59918
 H1863 H 0.49975 0.03665 0.57131
 H1864 H 0.53722 -0.00170 0.57127
 C1865 C 0.53493 0.51285 0.09300
 C1866 C 0.52689 0.52600 0.10097
 C1867 C 0.51386 0.53420 0.09300
 C1868 C 0.50904 0.52946 0.07702
 C1869 C 0.54871 0.54812 0.15837
 C1870 C 0.53014 0.50808 0.07702
 C1871 C 0.53248 0.53156 0.11700
 C1872 C 0.53738 0.53652 0.13024
 C1873 C 0.54337 0.54264 0.14552
 C1874 C 0.51723 0.51644 0.06876
 H1875 H 0.54507 0.50645 0.09903
 H1876 H 0.50759 0.54443 0.09904
 H1877 H 0.49908 0.53619 0.07107
 H1878 H 0.53674 0.49803 0.07104
 C1879 C 0.21388 0.51379 0.65727
 C1880 C 0.22189 0.52698 0.64932
 C1881 C 0.23516 0.53497 0.65713
 C1882 C 0.24023 0.53001 0.67295
 C1883 C 0.19896 0.55041 0.59292
 C1884 C 0.21892 0.50879 0.67310
 C1885 C 0.21599 0.53286 0.63353
 C1886 C 0.21083 0.53812 0.62051
 C1887 C 0.20454 0.54460 0.60552
 C1888 C 0.23204 0.51697 0.68122
 H1889 H 0.20355 0.50755 0.65135
 H1890 H 0.24141 0.54524 0.65111
 H1891 H 0.25036 0.53660 0.67881
 H1892 H 0.21232 0.49873 0.67908
 C1893 C 0.23553 0.03447 0.15691
 C1894 C 0.22236 0.02634 0.14907
 C1895 C 0.21442 0.01312 0.15703
 C1896 C 0.21943 0.00821 0.17290
 C1897 C 0.19958 0.04926 0.09239
 C1898 C 0.24057 0.02960 0.17278
 C1899 C 0.21650 0.03209 0.13321
 C1900 C 0.21138 0.03723 0.12013
 C1901 C 0.20513 0.04357 0.10506
 C1902 C 0.23245 0.01652 0.18106
 H1903 H 0.24173 0.04476 0.15088
 H1904 H 0.20417 0.00677 0.15109
 H1905 H 0.21288 -0.00188 0.17889
 H1906 H 0.25062 0.03629 0.17865
 C1907 C 0.73606 0.21462 0.59311
 C1908 C 0.72296 0.22274 0.60102
 C1909 C 0.71501 0.23599 0.59313
 C1910 C 0.71995 0.24093 0.57725
 C1911 C 0.70047 0.19979 0.65780
 C1912 C 0.74103 0.21953 0.57723
 C1913 C 0.71718 0.21696 0.61690
 C1914 C 0.71212 0.21181 0.63000
 C1915 C 0.70595 0.20547 0.64510
 C1916 C 0.73291 0.23263 0.56902
 H1917 H 0.74227 0.20431 0.59909
 H1918 H 0.70482 0.24232 0.59912
 H1919 H 0.71340 0.25104 0.57131
 H1920 H 0.75103 0.21284 0.57129
 C1921 C 0.71301 0.73552 0.09095
 C1922 C 0.72118 0.72246 0.09894
 C1923 C 0.73452 0.71462 0.09114
 C1924 C 0.73960 0.71970 0.07536
 C1925 C 0.69981 0.70041 0.15652
 C1926 C 0.71805 0.74063 0.07517
 C1927 C 0.71559 0.71678 0.11492
 C1928 C 0.71077 0.71182 0.12818
 C1929 C 0.70495 0.70578 0.14354
 C1930 C 0.73137 0.73273 0.06713
 H1931 H 0.70263 0.74164 0.09686
 H1932 H 0.74090 0.70446 0.09719
 H1933 H 0.74986 0.71331 0.06956
 H1934 H 0.71140 0.75066 0.06920
 C1935 C 0.53573 0.73634 0.15725
 C1936 C 0.52765 0.72321 0.14926
 C1937 C 0.51447 0.71513 0.15711
 C1938 C 0.50955 0.71996 0.17302
 C1939 C 0.55010 0.70076 0.09230
 C1940 C 0.53084 0.74120 0.17317
 C1941 C 0.53337 0.71754 0.13333
 C1942 C 0.53842 0.71251 0.12019
 C1943 C 0.54460 0.70632 0.10504
 C1944 C 0.51780 0.73295 0.18133
 H1945 H 0.54598 0.74265 0.15130
 H1946 H 0.50817 0.70492 0.15105
 H1947 H 0.49948 0.71332 0.17891
 H1948 H 0.53748 0.75123 0.17917
 C1949 C 0.01602 0.71436 0.65927
 C1950 C 0.02955 0.72204 0.65163
 C1951 C 0.03758 0.73525 0.65954
 C1952 C 0.03223 0.74064 0.67513
 C1953 C 0.05245 0.69860 0.59522
 C1954 C 0.01064 0.71971 0.67486
 C1955 C 0.03554 0.71600 0.63593
 C1956 C 0.04071 0.71071 0.62294
 C1957 C 0.04696 0.70428 0.60791
 C1958 C 0.01876 0.73286 0.68305
 H1959 H 0.00975 0.70408 0.65328
 H1960 H 0.04811 0.74125 0.65375
 H1961 H 0.03881 0.75075 0.68107
 H1962 H 0.00027 0.71340 0.68058
 C1963 C 0.53463 0.65680 0.23633
 C1964 C 0.52641 0.64882 0.22329
 C1965 C 0.51327 0.65678 0.21524
 C1966 C 0.50853 0.67276 0.22004
 C1967 C 0.54838 0.59144 0.20137
 C1968 C 0.52993 0.67278 0.24115
 C1969 C 0.53194 0.63280 0.21768
 C1970 C 0.53686 0.61956 0.21276
 C1971 C 0.54293 0.60429 0.20673
 C1972 C 0.51692 0.68104 0.23295
 H1973 H 0.54486 0.65078 0.24261
 H1974 H 0.50685 0.65073 0.20509
 H1975 H 0.49849 0.67872 0.21343
 H1976 H 0.53667 0.67875 0.25112
 C1977 C 0.03597 0.65949 0.73451
 C1978 C 0.02809 0.65175 0.72112
 C1979 C 0.01492 0.65969 0.71312
 C1980 C 0.00975 0.67539 0.71836
 C1981 C 0.05053 0.59472 0.69872
 C1982 C 0.03083 0.67519 0.73979
 C1983 C 0.03388 0.63590 0.71526
 C1984 C 0.03893 0.62277 0.71020
 C1985 C 0.04508 0.60756 0.70409
 C1986 C 0.01771 0.68339 0.73171
 H1987 H 0.04622 0.65348 0.74077
 H1988 H 0.00877 0.65382 0.70270
 H1989 H -0.00035 0.68133 0.71182
 H1990 H 0.03728 0.68098 0.75006
 C1991 C 0.01362 0.09272 0.03590
 C1992 C 0.02683 0.10063 0.02793
 C1993 C 0.03484 0.09278 0.01470
 C1994 C 0.02987 0.07695 0.00964
 C1995 C 0.05015 0.15705 0.05103
 C1996 C 0.00861 0.07688 0.03087
 C1997 C 0.03271 0.11643 0.03385
 C1998 C 0.03794 0.12945 0.03905
 C1999 C 0.04439 0.14445 0.04539
 C2000 C 0.01681 0.06871 0.01779
 H2001 H 0.00737 0.09867 0.04620
 H2002 H 0.04512 0.09878 0.00848
 H2003 H 0.03648 0.07105 -0.00045
 H2004 H -0.00146 0.07092 0.03744
 C2005 C 0.01561 0.59059 0.53741
 C2006 C 0.02906 0.59834 0.52968
 C2007 C 0.03702 0.59051 0.51641
 C2008 C 0.03168 0.57492 0.51098
 C2009 C 0.05213 0.65499 0.55250
 C2010 C 0.01023 0.57500 0.53201
 C2011 C 0.03502 0.61407 0.53568
 C2012 C 0.04022 0.62712 0.54084
 C2013 C 0.04654 0.64223 0.54705
 C2014 C 0.01827 0.56692 0.51878
 H2015 H 0.00938 0.59652 0.54773
 H2016 H 0.04749 0.59638 0.51037
 H2017 H 0.03819 0.56907 0.50080
 H2018 H -0.00009 0.56921 0.53834
 C2019 C 0.53465 0.09329 0.51384
 C2020 C 0.52669 0.10117 0.52709
 C2021 C 0.51386 0.09307 0.53547
 C2022 C 0.50914 0.07704 0.53079
 C2023 C 0.54848 0.15883 0.54855
 C2024 C 0.52996 0.07727 0.50913
 C2025 C 0.53219 0.11727 0.53254
 C2026 C 0.53706 0.13057 0.53735
 C2027 C 0.54308 0.14592 0.54326
 C2028 C 0.51724 0.06887 0.51765
 H2029 H 0.54464 0.09944 0.50731
 H2030 H 0.50766 0.09904 0.54578
 H2031 H 0.49932 0.07096 0.53764
 H2032 H 0.53648 0.07138 0.49898
 C2033 C 0.51401 0.59247 0.03555
 C2034 C 0.52690 0.60050 0.02718
 C2035 C 0.53464 0.59268 0.01377
 C2036 C 0.52971 0.57676 0.00892
 C2037 C 0.54979 0.65748 0.04931
 C2038 C 0.50905 0.57655 0.03072
 C2039 C 0.53270 0.61643 0.03281
 C2040 C 0.53784 0.62958 0.03777
 C2041 C 0.54416 0.64473 0.04386
 C2042 C 0.51696 0.56842 0.01745
 H2043 H 0.50797 0.59840 0.04598
 H2044 H 0.54467 0.59876 0.00724
 H2045 H 0.53609 0.57091 -0.00134
 H2046 H 0.49921 0.57052 0.03759
 C2047 C 0.73592 0.15693 0.53606
 C2048 C 0.72291 0.14896 0.52780
 C2049 C 0.71514 0.15679 0.51440
 C2050 C 0.72017 0.17264 0.50944
 C2051 C 0.69979 0.09225 0.55037
 C2052 C 0.74098 0.17278 0.53113
 C2053 C 0.71702 0.13311 0.53355
 C2054 C 0.71182 0.12003 0.53862
 C2055 C 0.70545 0.10494 0.54483
 C2056 C 0.73304 0.18092 0.51787
 H2057 H 0.74199 0.15100 0.54649
 H2058 H 0.70502 0.15075 0.50795
 H2059 H 0.71376 0.17851 0.49920
 H2060 H 0.75091 0.17876 0.53792
 C2061 C 0.73507 0.65915 0.03630
 C2062 C 0.72194 0.65120 0.02820
 C2063 C 0.71401 0.65905 0.01491
 C2064 C 0.71906 0.67485 0.00983
 C2065 C 0.70002 0.59363 0.04983
 C2066 C 0.74016 0.67496 0.03125
 C2067 C 0.71629 0.63522 0.03383
 C2068 C 0.71135 0.62196 0.03871
 C2069 C 0.70535 0.60660 0.04461
 C2070 C 0.73215 0.68305 0.01800
 H2071 H 0.74127 0.65321 0.04664
 H2072 H 0.70380 0.65303 0.00858
 H2073 H 0.71259 0.68070 -0.00038
 H2074 H 0.75023 0.68089 0.03785
 C2075 C 0.23554 0.59262 0.71401
 C2076 C 0.22252 0.60058 0.72224
 C2077 C 0.21480 0.59280 0.73569
 C2078 C 0.21985 0.57699 0.74071
 C2079 C 0.19906 0.65687 0.69915
 C2080 C 0.24062 0.57681 0.71901
 C2081 C 0.21656 0.61634 0.71637
 C2082 C 0.21129 0.62934 0.71118
 C2083 C 0.20482 0.64430 0.70482
 C2084 C 0.23270 0.56871 0.73231
 H2085 H 0.24156 0.59851 0.70355
 H2086 H 0.20467 0.59883 0.74211
 H2087 H 0.21346 0.57114 0.75098
 H2088 H 0.25053 0.57082 0.71223
 C2089 C 0.21504 0.09248 0.23570
 C2090 C 0.22278 0.10032 0.22229
 C2091 C 0.23577 0.09238 0.21402
 C2092 C 0.24083 0.07653 0.21893
 C2093 C 0.19953 0.15689 0.19965
 C2094 C 0.22006 0.07664 0.24064
 C2095 C 0.21687 0.11615 0.21653
 C2096 C 0.21165 0.12920 0.21145
 C2097 C 0.20524 0.14424 0.20521
 C2098 C 0.23291 0.06838 0.23220
 H2099 H 0.20493 0.09850 0.24215
 H2100 H 0.24181 0.09831 0.20358
 H2101 H 0.25073 0.07057 0.21213
 H2102 H 0.21367 0.07076 0.25089
 C2103 C 0.73492 1.09100 0.71301
 C2104 C 0.72182 1.09891 0.72114
 C2105 C 0.71399 1.09107 0.73449
 C2106 C 0.71911 1.07531 0.73961
 C2107 C 0.69972 1.15639 0.69955
 C2108 C 0.74008 1.07523 0.71809
 C2109 C 0.71611 1.11486 0.71550
 C2110 C 0.71113 1.12809 0.71063
 C2111 C 0.70508 1.14343 0.70475
 C2112 C 0.73218 1.06715 0.73141
 H2113 H 0.74104 1.09694 0.70262
 H2114 H 0.70380 1.09706 0.74085
 H2115 H 0.71272 1.06947 0.74987
 H2116 H 0.75013 1.06933 0.71146
 C2117 C 0.71537 0.59291 0.23578
 C2118 C 0.72357 0.60084 0.22270
 C2119 C 0.73676 0.59290 0.21475
 C2120 C 0.74158 0.57697 0.21967
 C2121 C 0.70111 0.65778 0.20018
 C2122 C 0.72015 0.57699 0.24073
 C2123 C 0.71793 0.61676 0.21693
 C2124 C 0.71290 0.62990 0.21186
 C2125 C 0.70669 0.64505 0.20567
 C2126 C 0.73321 0.56874 0.23260
 H2127 H 0.70510 0.59893 0.24198
 H2128 H 0.74316 0.59890 0.20457
 H2129 H 0.75165 0.57101 0.21312
 H2130 H 0.71342 0.57105 0.25071
 C2131 C 0.51403 0.15666 0.71465
 C2132 C 0.52700 0.14865 0.72291
 C2133 C 0.53486 0.15648 0.73627
 C2134 C 0.52996 0.17237 0.74119
 C2135 C 0.54966 0.09176 0.70045
 C2136 C 0.50910 0.17255 0.71954
 C2137 C 0.53276 0.13275 0.71719
 C2138 C 0.53784 0.11962 0.71215
 C2139 C 0.54409 0.10449 0.70596
 C2140 C 0.51713 0.18069 0.73277
 H2141 H 0.50790 0.15073 0.70426
 H2142 H 0.54495 0.15041 0.74271
 H2143 H 0.53643 0.17824 0.75140
 H2144 H 0.49920 0.17856 0.71276
 C2145 C 1.03685 0.15912 0.23394
 C2146 C 1.02875 0.15114 0.22083
 C2147 C 1.01537 0.15889 0.21298
 C2148 C 1.01019 0.17462 0.21813
 C2149 C 1.05060 0.09361 0.19914
 C2150 C 1.03171 0.17485 0.23912
 C2151 C 1.03443 0.13519 0.21515
 C2152 C 1.03935 0.12195 0.21026
 C2153 C 1.04532 0.10659 0.20435
 C2154 C 1.01835 0.18284 0.23122
 H2155 H 1.04726 0.15325 0.24008
 H2156 H 1.00904 0.15284 0.20278
 H2157 H 0.99990 0.18040 0.21173
 H2158 H 1.03831 0.18080 0.24920
 C2159 C 0.21398 0.65938 0.51533
 C2160 C 0.22166 0.65165 0.52884
 C2161 C 0.23472 0.65960 0.53703
 C2162 C 0.24000 0.67531 0.53186
 C2163 C 0.19878 0.59460 0.55084
 C2164 C 0.21922 0.67508 0.51013
 C2165 C 0.21577 0.63580 0.53460
 C2166 C 0.21061 0.62266 0.53957
 C2167 C 0.20434 0.60745 0.54555
 C2168 C 0.23224 0.68329 0.51839
 H2169 H 0.20382 0.65335 0.50893
 H2170 H 0.24072 0.65375 0.54754
 H2171 H 0.25001 0.68126 0.53855
 H2172 H 0.21293 0.68084 0.49975
 C2173 C 0.21269 0.15920 1.01589
 C2174 C 0.22080 0.15122 1.02899
 C2175 C 0.23418 0.15899 1.03685
 C2176 C 0.23936 0.17474 1.03173
 C2177 C 0.19890 0.09359 1.05048
 C2178 C 0.21784 0.17495 1.01074
 C2179 C 0.21513 0.13525 1.03463
 C2180 C 0.21019 0.12198 1.03948
 C2181 C 0.20420 0.10660 1.04532
 C2182 C 0.23120 0.18296 1.01865
 H2183 H 0.20229 0.15332 1.00975
 H2184 H 0.24052 0.15294 1.04704
 H2185 H 0.24965 0.18053 1.03813
 H2186 H 0.21124 0.18090 1.00067
 C2187 C 0.21277 0.73500 0.59041
 C2188 C 0.22046 0.72154 0.59820
 C2189 C 0.23360 0.71342 0.59034
 C2190 C 0.23894 0.71862 0.57469
 C2191 C 0.19799 0.69923 0.65524
 C2192 C 0.21807 0.74024 0.57476
 C2193 C 0.21458 0.71576 0.61404
 C2194 C 0.20950 0.71074 0.62717
 C2195 C 0.20337 0.70464 0.64239
 C2196 C 0.23118 0.73205 0.56665
 H2197 H 0.20255 0.74134 0.59637
 H2198 H 0.23961 0.70295 0.59625
 H2199 H 0.24902 0.71200 0.56882
 H2200 H 0.21178 0.75058 0.56894
 C2201 C 0.23421 0.21392 1.09126
 C2202 C 0.22094 0.22192 1.09902
 C2203 C 0.21303 0.23515 1.09107
 C2204 C 0.21824 0.24028 1.07534
 C2205 C 0.19856 0.19959 1.15609
 C2206 C 0.23945 0.21901 1.07553
 C2207 C 0.21510 0.21618 1.11489
 C2208 C 0.21005 0.21117 1.12803
 C2209 C 0.20394 0.20504 1.14325
 C2210 C 0.23146 0.23219 1.06732
 H2211 H 0.24039 0.20362 1.09729
 H2212 H 0.20270 0.24140 1.09695
 H2213 H 0.21177 0.25043 1.06940
 H2214 H 0.24963 0.21247 1.06974
 C2215 C 0.71435 0.51378 0.15709
 C2216 C 0.72259 0.52679 0.14909
 C2217 C 0.73590 0.53468 0.15693
 C2218 C 0.74080 0.52978 0.17283
 C2219 C 0.70043 0.54963 0.09213
 C2220 C 0.71921 0.50884 0.17300
 C2221 C 0.71692 0.53257 0.13317
 C2222 C 0.71195 0.53769 0.12003
 C2223 C 0.70587 0.54401 0.10488
 C2224 C 0.73239 0.51691 0.18114
 H2225 H 0.70399 0.50762 0.15115
 H2226 H 0.74234 0.54481 0.15087
 H2227 H 0.75098 0.53628 0.17870
 H2228 H 0.71245 0.49891 0.17901
 C2229 C 0.73398 1.03688 0.65926
 C2230 C 0.72093 1.02867 0.65129
 C2231 C 0.71318 1.01522 0.65906
 C2232 C 0.71836 1.01006 0.67480
 C2233 C 0.69908 1.05057 0.59382
 C2234 C 0.73919 1.03176 0.67499
 C2235 C 0.71520 1.03434 0.63535
 C2236 C 0.71027 1.03927 0.62212
 C2237 C 0.70432 1.04526 0.60678
 C2238 C 0.73139 1.01833 0.68300
 H2239 H 0.74003 1.04734 0.65337
 H2240 H 0.70303 1.00881 0.65303
 H2241 H 0.71205 0.99972 0.68059
 H2242 H 0.74921 1.03844 0.68092
 C2243 C 0.53500 0.23675 0.65717
 C2244 C 0.52704 0.22355 0.64917
 C2245 C 0.51414 0.21515 0.65715
 C2246 C 0.50937 0.21974 0.67317
 C2247 C 0.54878 0.20209 0.59155
 C2248 C 0.53027 0.24137 0.67320
 C2249 C 0.53258 0.21817 0.63308
 C2250 C 0.53747 0.21338 0.61979
 C2251 C 0.54345 0.20744 0.60445
 C2252 C 0.51749 0.23282 0.68147
 H2253 H 0.54505 0.24330 0.65113
 H2254 H 0.50793 0.20488 0.65108
 H2255 H 0.49950 0.21287 0.67914
 H2256 H 0.53680 0.25147 0.67919
 C2257 C 1.03690 0.23490 0.15888
 C2258 C 1.02905 0.22160 0.15094
 C2259 C 1.01576 0.21358 0.15867
 C2260 C 1.01044 0.21870 0.17436
 C2261 C 1.05166 0.19926 0.09396
 C2262 C 1.03161 0.24006 0.17457
 C2263 C 1.03496 0.21585 0.13511
 C2264 C 1.04008 0.21083 0.12199
 C2265 C 1.04625 0.20471 0.10679
 C2266 C 1.01838 0.23195 0.18256
 H2267 H 1.04724 0.24117 0.15303
 H2268 H 1.00962 0.20324 0.15266
 H2269 H 1.00025 0.21215 0.18014
 H2270 H 1.03804 0.25026 0.18051
 C2271 C 0.59281 0.21367 0.73681
 C2272 C 0.60084 0.22180 0.72375
 C2273 C 0.59307 0.23511 0.71577
 C2274 C 0.57723 0.24010 0.72063
 C2275 C 0.65757 0.19926 0.70108
 C2276 C 0.57696 0.21863 0.74170
 C2277 C 0.61669 0.21602 0.71803
 C2278 C 0.62978 0.21094 0.71294
 C2279 C 0.64487 0.20475 0.70668
 C2280 C 0.56889 0.23180 0.73355
 H2281 H 0.59869 0.20332 0.74304
 H2282 H 0.59915 0.24146 0.70561
 H2283 H 0.57141 0.25027 0.71406
 H2284 H 0.57094 0.21195 0.75167
 C2285 C 1.09084 0.23446 0.21409
 C2286 C 1.09858 0.22102 0.22188
 C2287 C 1.09064 0.21285 0.23496
 C2288 C 1.07494 0.21797 0.24015
 C2289 C 1.15561 0.19911 0.19933
 C2290 C 1.07514 0.23961 0.21924
 C2291 C 1.11443 0.21531 0.21608
 C2292 C 1.12756 0.21037 0.21100
 C2293 C 1.14277 0.20439 0.20481
 C2294 C 1.06694 0.23136 0.23228
 H2295 H 1.09686 0.24084 0.20391
 H2296 H 1.09650 0.20240 0.24104
 H2297 H 1.06899 0.21130 0.25018
 H2298 H 1.06937 0.24992 0.21287
 C2299 C 0.15939 0.71317 0.51515
 C2300 C 0.15152 0.72116 0.52839
 C2301 C 0.15920 0.73467 0.53614
 C2302 C 0.17477 0.74005 0.53083
 C2303 C 0.09523 0.69816 0.55181
 C2304 C 0.17497 0.71853 0.50981
 C2305 C 0.13585 0.71514 0.53441
 C2306 C 0.12288 0.70995 0.53969
 C2307 C 0.10788 0.70368 0.54612
 C2308 C 0.18292 0.73197 0.51767
 H2309 H 0.15358 0.70266 0.50910
 H2310 H 0.15323 0.74091 0.54643
 H2311 H 0.18052 0.75040 0.53720
 H2312 H 0.18088 0.71198 0.49968
 C2313 C 0.15902 0.21288 1.01537
 C2314 C 0.15115 0.22110 1.02846
 C2315 C 0.15893 0.23460 1.03613
 C2316 C 0.17459 0.23977 1.03085
 C2317 C 0.09421 0.19920 1.05142
 C2318 C 0.17469 0.21801 1.01007
 C2319 C 0.13533 0.21538 1.03439
 C2320 C 0.12222 0.21045 1.03957
 C2321 C 0.10704 0.20448 1.04587
 C2322 C 0.18273 0.23147 1.01782
 H2323 H 0.15313 0.20238 1.00939
 H2324 H 0.15297 0.24103 1.04631
 H2325 H 0.18040 0.25014 1.03714
 H2326 H 0.18059 0.21130 1.00004
 C2327 C 0.65692 0.51373 0.21564
 C2328 C 0.64911 0.52702 0.22358
 C2329 C 0.65720 0.53538 0.23647
 C2330 C 0.67315 0.53063 0.24125
 C2331 C 0.59171 0.54861 0.20160
 C2332 C 0.67287 0.50895 0.22039
 C2333 C 0.63309 0.53254 0.21802
 C2334 C 0.61985 0.53739 0.21309
 C2335 C 0.60457 0.54332 0.20703
 C2336 C 0.68125 0.51744 0.23316
 H2337 H 0.65079 0.50721 0.20561
 H2338 H 0.65128 0.54573 0.24266
 H2339 H 0.67921 0.53746 0.25111
 H2340 H 0.67871 0.49876 0.21388
 C2341 C 0.65884 1.01471 0.71389
 C2342 C 0.65096 1.02794 0.72187
 C2343 C 0.65884 1.03604 0.73506
 C2344 C 0.67462 1.03103 0.74015
 C2345 C 0.59351 1.04948 0.69992
 C2346 C 0.67461 1.00968 0.71895
 C2347 C 0.63500 1.03353 0.71620
 C2348 C 0.62178 1.03839 0.71126
 C2349 C 0.60645 1.04427 0.70525
 C2350 C 0.68275 1.01784 0.73210
 H2351 H 0.65286 1.00839 0.70363
 H2352 H 0.65287 1.04633 0.74129
 H2353 H 0.68050 1.03763 0.75028
 H2354 H 0.68049 0.99952 0.71244
 C2355 C 0.84086 0.48524 0.28681
 C2356 C 0.84882 0.47220 0.27859
 C2357 C 0.84099 0.46433 0.26523
 C2358 C 0.82521 0.46937 0.26020
 C2359 C 0.90639 0.45035 0.29986
 C2360 C 0.82508 0.49031 0.28181
 C2361 C 0.86480 0.46658 0.28414
 C2362 C 0.87805 0.46166 0.28893
 C2363 C 0.89342 0.45567 0.29473
 C2364 C 0.81702 0.48237 0.26848
 H2365 H 0.84679 0.49139 0.29720
 H2366 H 0.84703 0.45419 0.25881
 H2367 H 0.81939 0.46295 0.24993
 H2368 H 0.81914 0.50032 0.28850
 C2369 C 0.84265 0.98705 0.78565
 C2370 C 0.85063 0.97384 0.77772
 C2371 C 0.84280 0.96564 0.76458
 C2372 C 0.82693 0.97042 0.75955
 C2373 C 0.90734 0.95135 0.80056
 C2374 C 0.82678 0.99187 0.78065
 C2375 C 0.86649 0.96819 0.78358
 C2376 C 0.87957 0.96316 0.78872
 C2377 C 0.89465 0.95694 0.79499
 C2378 C 0.81864 0.98348 0.76765
 H2379 H 0.84858 0.99345 0.79588
 H2380 H 0.84884 0.95536 0.75839
 H2381 H 0.82106 0.96367 0.74952
 H2382 H 0.82079 1.00195 0.78719
 C2383 C 0.40979 0.28665 0.76617
 C2384 C 0.40188 0.27864 0.77937
 C2385 C 0.40959 0.26522 0.78722
 C2386 C 0.42522 0.25991 0.78199
 C2387 C 0.34490 0.30128 0.80137
 C2388 C 0.42542 0.28138 0.76091
 C2389 C 0.38607 0.28450 0.78515
 C2390 C 0.37296 0.28961 0.79012
 C2391 C 0.35775 0.29581 0.79611
 C2392 C 0.43337 0.26799 0.76882
 H2393 H 0.40396 0.29709 0.76004
 H2394 H 0.40359 0.25896 0.79748
 H2395 H 0.43097 0.24960 0.78839
 H2396 H 0.43132 0.28792 0.75077
 C2397 C 0.90716 0.28466 0.26396
 C2398 C 0.89941 0.27685 0.27737
 C2399 C 0.90738 0.26378 0.28556
 C2400 C 0.92316 0.25875 0.28056
 C2401 C 0.84312 0.30009 0.30043
 C2402 C 0.92295 0.27965 0.25892
 C2403 C 0.88366 0.28275 0.28324
 C2404 C 0.87067 0.28797 0.28843
 C2405 C 0.85570 0.29438 0.29478
 C2406 C 0.93123 0.26675 0.26729
 H2407 H 0.90112 0.29482 0.25757
 H2408 H 0.90151 0.25768 0.29599
 H2409 H 0.92915 0.24879 0.28730
 H2410 H 0.92877 0.28611 0.24869
 C2411 C 0.34253 0.78570 0.48547
 C2412 C 0.35038 0.77772 0.47223
 C2413 C 0.34253 0.76445 0.46423
 C2414 C 0.32674 0.75938 0.46925
 C2415 C 0.40660 0.80129 0.44921
 C2416 C 0.32675 0.78067 0.49051
 C2417 C 0.36612 0.78367 0.46633
 C2418 C 0.37909 0.78897 0.46116
 C2419 C 0.39404 0.79548 0.45483
 C2420 C 0.31857 0.76756 0.48233
 H2421 H 0.34848 0.79602 0.49171
 H2422 H 0.34848 0.75822 0.45393
 H2423 H 0.32083 0.74927 0.46265
 H2424 H 0.32085 0.78726 0.50061
 C2425 C 0.34253 0.28473 0.98575
 C2426 C 0.35021 0.27703 0.97223
 C2427 C 0.34218 0.26403 0.96397
 C2428 C 0.32640 0.25895 0.96899
 C2429 C 0.40648 0.30058 0.94932
 C2430 C 0.32675 0.27968 0.99080
 C2431 C 0.36596 0.28299 0.96636
 C2432 C 0.37894 0.28828 0.96121
 C2433 C 0.39390 0.29479 0.95491
 C2434 C 0.31840 0.26685 0.98236
 H2435 H 0.34861 0.29483 0.99220
 H2436 H 0.34799 0.25802 0.95345
 H2437 H 0.32036 0.24906 0.96219
 H2438 H 0.32099 0.28605 1.00112
 C2439 C 0.76554 0.46264 0.34069
 C2440 C 0.77896 0.47041 0.34846
 C2441 C 0.78702 0.48362 0.34059
 C2442 C 0.78179 0.48895 0.32494
 C2443 C 0.80147 0.44809 0.40551
 C2444 C 0.76027 0.46794 0.32503
 C2445 C 0.78478 0.46454 0.36429
 C2446 C 0.78984 0.45949 0.37743
 C2447 C 0.79600 0.45342 0.39265
 C2448 C 0.76839 0.48112 0.31692
 H2449 H 0.75924 0.45237 0.34665
 H2450 H 0.79746 0.48969 0.34648
 H2451 H 0.78836 0.49909 0.31906
 H2452 H 0.74995 0.46160 0.31923
 C2453 C 0.78455 0.98599 0.84317
 C2454 C 0.77668 0.97264 0.85097
 C2455 C 0.76370 0.96439 0.84293
 C2456 C 0.75879 0.96928 0.82703
 C2457 C 0.79942 0.95034 0.90791
 C2458 C 0.77968 0.99091 0.82726
 C2459 C 0.78242 0.96693 0.86689
 C2460 C 0.78752 0.96192 0.88002
 C2461 C 0.79381 0.95580 0.89517
 C2462 C 0.76684 0.98250 0.81891
 H2463 H 0.79465 0.99243 0.84926
 H2464 H 0.75755 0.95400 0.84884
 H2465 H 0.74888 0.96251 0.82099
 H2466 H 0.78617 1.00112 0.82142
 C2467 C 0.28504 0.76492 0.40690
 C2468 C 0.27719 0.77828 0.39910
 C2469 C 0.26407 0.78636 0.40703
 C2470 C 0.25901 0.78131 0.42284
 C2471 C 0.30071 0.80133 0.34280
 C2472 C 0.28001 0.75984 0.42270
 C2473 C 0.28312 0.78419 0.38334
 C2474 C 0.28840 0.78938 0.37035
 C2475 C 0.29490 0.79571 0.35538
 C2476 C 0.26705 0.76811 0.43096
 H2477 H 0.29524 0.75861 0.40089
 H2478 H 0.25794 0.79676 0.40112
 H2479 H 0.24901 0.78798 0.42880
 H2480 H 0.28650 0.74965 0.42856
 C2481 C 0.26381 0.28556 0.90735
 C2482 C 0.27704 0.27758 0.89950
 C2483 C 0.28498 0.26431 0.90736
 C2484 C 0.27994 0.25923 0.92315
 C2485 C 0.30065 0.30075 0.84328
 C2486 C 0.25874 0.28051 0.92315
 C2487 C 0.28300 0.28352 0.88375
 C2488 C 0.28830 0.28873 0.87078
 C2489 C 0.29483 0.29510 0.85584
 C2490 C 0.26687 0.26740 0.93134
 H2491 H 0.25762 0.29589 0.90140
 H2492 H 0.29527 0.25808 0.90141
 H2493 H 0.28650 0.24911 0.92906
 H2494 H 0.24867 0.28710 0.92907
 C2495 C 0.46377 0.26535 0.84126
 C2496 C 0.47171 0.27871 0.84902
 C2497 C 0.48500 0.28658 0.84115
 C2498 C 0.49023 0.28126 0.82549
 C2499 C 0.44912 0.30154 0.90582
 C2500 C 0.46896 0.26000 0.82561
 C2501 C 0.46588 0.28467 0.86481
 C2502 C 0.46080 0.28983 0.87789
 C2503 C 0.45461 0.29607 0.89303
 C2504 C 0.48220 0.26797 0.81747
 H2505 H 0.45343 0.25920 0.84723
 H2506 H 0.49121 0.29697 0.84702
 H2507 H 0.50042 0.28771 0.81960
 H2508 H 0.46246 0.24977 0.81980
 C2509 C 0.96478 0.26420 0.34251
 C2510 C 0.97290 0.27734 0.35044
 C2511 C 0.98615 0.28529 0.34256
 C2512 C 0.99109 0.28033 0.32669
 C2513 C 0.95013 0.30005 0.40719
 C2514 C 0.96968 0.25921 0.32664
 C2515 C 0.96714 0.28316 0.36630
 C2516 C 0.96204 0.28827 0.37939
 C2517 C 0.95575 0.29451 0.39449
 C2518 C 0.98279 0.26733 0.31845
 H2519 H 0.95447 0.25800 0.34847
 H2520 H 0.99249 0.29552 0.34857
 H2521 H 1.00120 0.28688 0.32078
 H2522 H 0.96300 0.24918 0.32069
 C2523 C 0.46276 0.34018 0.76522
 C2524 C 0.47069 0.34810 0.77848
 C2525 C 0.48410 0.34042 0.78633
 C2526 C 0.48945 0.32478 0.78109
 C2527 C 0.44773 0.40468 0.80139
 C2528 C 0.46808 0.32454 0.75995
 C2529 C 0.46472 0.36385 0.78439
 C2530 C 0.45953 0.37688 0.78955
 C2531 C 0.45326 0.39196 0.79582
 C2532 C 0.48143 0.31659 0.76790
 H2533 H 0.45233 0.34600 0.75909
 H2534 H 0.49030 0.34643 0.79665
 H2535 H 0.49973 0.31903 0.78753
 H2536 H 0.46158 0.31860 0.74980
 C2537 C 0.98553 0.34299 0.28417
 C2538 C 0.97230 0.35078 0.27612
 C2539 C 0.96419 0.34271 0.26306
 C2540 C 0.96910 0.32679 0.25824
 C2541 C 0.94996 0.40778 0.29859
 C2542 C 0.99047 0.32707 0.27938
 C2543 C 0.96658 0.36671 0.28177
 C2544 C 0.96155 0.37986 0.28679
 C2545 C 0.95541 0.39503 0.29301
 C2546 C 0.98220 0.31869 0.26646
 H2547 H 0.99186 0.34910 0.29433
 H2548 H 0.95390 0.34861 0.25678
 H2549 H 0.96244 0.32073 0.24826
 H2550 H 1.00058 0.32123 0.28600
 C2551 C 0.26436 0.84328 0.46469
 C2552 C 0.27778 0.85105 0.47248
 C2553 C 0.28595 0.84308 0.48555
 C2554 C 0.28092 0.82727 0.49064
 C2555 C 0.30096 0.90730 0.44892
 C2556 C 0.25931 0.82747 0.46975
 C2557 C 0.28368 0.86681 0.46650
 C2558 C 0.28889 0.87979 0.46121
 C2559 C 0.29527 0.89475 0.45471
 C2560 C 0.26766 0.81918 0.48266
 H2561 H 0.25799 0.84932 0.45452
 H2562 H 0.29639 0.84897 0.49163
 H2563 H 0.28765 0.82128 0.50060
 H2564 H 0.24907 0.82164 0.46331
 C2565 C 0.26459 0.34281 0.96507
 C2566 C 0.27794 0.35055 0.97298
 C2567 C 0.28598 0.34257 0.98612
 C2568 C 0.28089 0.32676 0.99115
 C2569 C 0.30122 0.40684 0.94959
 C2570 C 0.25947 0.32700 0.97006
 C2571 C 0.28390 0.36632 0.96707
 C2572 C 0.28914 0.37931 0.96183
 C2573 C 0.29554 0.39427 0.95536
 C2574 C 0.26769 0.31869 0.98305
 H2575 H 0.25831 0.34886 0.95484
 H2576 H 0.29638 0.34844 0.99229
 H2577 H 0.28752 0.32075 1.00116
 H2578 H 0.24928 0.32118 0.96353
 C2579 C 0.76525 0.40877 0.28624
 C2580 C 0.77857 0.40099 0.27835
 C2581 C 0.78655 0.40889 0.26513
 C2582 C 0.78137 0.42460 0.25992
 C2583 C 0.80085 0.34398 0.30095
 C2584 C 0.76003 0.42448 0.28106
 C2585 C 0.78437 0.38514 0.28418
 C2586 C 0.78940 0.37201 0.28928
 C2587 C 0.79548 0.35681 0.29547
 C2588 C 0.76810 0.43265 0.26790
 H2589 H 0.75901 0.40278 0.29653
 H2590 H 0.79692 0.40300 0.25897
 H2591 H 0.78790 0.43052 0.24978
 H2592 H 0.74982 0.43029 0.28752
   
