data_POSCAR
  _audit_creation_date              2014-09-24
  _audit_creation_method            'ToBaCCo'
  _symmetry_space_group_name_H-M    'P1'
  _symmetry_Int_Tables_number       1
  _symmetry_cell_setting            triclinic
  loop_
  _symmetry_equiv_pos_as_xyz
 x,y,z
_cell_length_a 44.6105
_cell_length_b 44.2371
_cell_length_c 44.7863
_cell_angle_alpha 89.908300
_cell_angle_beta 90.298000
_cell_angle_gamma 89.940300
loop_
  _atom_site_label
  _atom_site_type_symbol
  _atom_site_fract_x
  _atom_site_fract_y
  _atom_site_fract_z
C1 C 0.34809 1.33211 0.30115
 C2 C 0.36394 1.32324 0.32696
 C3 C 0.34946 1.32259 0.35485
 C4 C 0.31995 1.33358 0.35707
 C5 C 0.30412 1.34390 0.33174
 C6 C 0.31814 1.34150 0.30380
 H7 H 0.38692 1.31551 0.32516
 H8 H 0.30906 1.33309 0.37853
 H9 H 0.30682 1.34936 0.28395
 C10 C 0.36854 0.86297 0.82614
 C11 C 0.33739 0.86890 0.82488
 C12 C 0.31765 0.85379 0.84437
 C13 C 0.32941 0.83370 0.86589
 C14 C 0.36038 0.83052 0.86957
 C15 C 0.37969 0.84487 0.84957
 H16 H 0.32832 0.88349 0.80762
 H17 H 0.31456 0.82207 0.88117
 H18 H 0.40340 0.84042 0.85176
 C19 C 0.87589 1.35927 0.83177
 C20 C 0.88054 1.33616 0.85263
 C21 C 0.86037 1.33155 0.87606
 C22 C 0.83480 1.35016 0.87825
 C23 C 0.82983 1.37393 0.85771
 C24 C 0.85077 1.37810 0.83460
 H25 H 0.89997 1.32170 0.85069
 H26 H 0.81922 1.34643 0.89629
 H27 H 0.84744 1.39560 0.81811
 C28 C 0.86284 0.84256 0.31833
 C29 C 0.86788 0.82077 0.34061
 C30 C 0.84819 0.81778 0.36472
 C31 C 0.82357 0.83739 0.36679
 C32 C 0.81793 0.85927 0.34477
 C33 C 0.83800 0.86196 0.32073
 H34 H 0.88685 0.80567 0.33887
 H35 H 0.80837 0.83522 0.38534
 H36 H 0.83406 0.87862 0.30349
 C37 C 0.66078 0.65099 0.30880
 C38 C 0.67603 0.63627 0.33221
 C39 C 0.67481 0.64789 0.36152
 C40 C 0.65584 0.67267 0.36750
 C41 C 0.63903 0.68607 0.34450
 C42 C 0.64272 0.67606 0.31521
 H43 H 0.68987 0.61677 0.32733
 H44 H 0.65382 0.68150 0.38991
 H45 H 0.63004 0.68693 0.29746
 C46 C 0.64784 0.12842 0.82972
 C47 C 0.67014 0.12321 0.85155
 C48 C 0.67571 0.14455 0.87428
 C49 C 0.65940 0.17177 0.87404
 C50 C 0.63811 0.17790 0.85178
 C51 C 0.63209 0.15591 0.83007
 H52 H 0.68260 0.10226 0.85127
 H53 H 0.66445 0.18920 0.89014
 H54 H 0.61464 0.15999 0.81374
 C55 C 1.14982 0.62904 0.82281
 C56 C 1.12861 0.65183 0.82802
 C57 C 1.12980 0.66919 0.85417
 C58 C 1.15224 0.66338 0.87548
 C59 C 1.17330 0.64022 0.87098
 C60 C 1.17198 0.62327 0.84451
 H61 H 1.11182 0.65687 0.81121
 H62 H 1.15322 0.67695 0.89553
 H63 H 1.18782 0.60509 0.84117
 C64 C 1.14440 0.12317 0.32973
 C65 C 1.12440 0.14775 0.33239
 C66 C 1.12645 0.16780 0.35658
 C67 C 1.14858 0.16326 0.37839
 C68 C 1.16945 0.13966 0.37598
 C69 C 1.16713 0.11981 0.35153
 H70 H 1.10703 0.15135 0.31588
 H71 H 1.14996 0.17899 0.39675
 H72 H 1.18314 0.10167 0.34964
 C73 C 0.63896 1.36390 0.67582
 C74 C 0.66078 1.38010 0.66044
 C75 C 0.66937 1.37185 0.63144
 C76 C 0.65591 1.34634 0.61804
 C77 C 0.63202 1.33167 0.63270
 C78 C 0.62383 1.34054 0.66156
 H79 H 0.67182 1.39875 0.67168
 H80 H 0.66207 1.33962 0.59564
 H81 H 0.60622 1.32861 0.67329
 C82 C 0.64983 0.85515 1.18961
 C83 C 0.66787 0.87540 1.17367
 C84 C 0.68270 0.86607 1.14767
 C85 C 0.67920 0.83621 1.13773
 C86 C 0.66041 0.81613 1.15303
 C87 C 0.64552 0.82578 1.17866
 H88 H 0.67159 0.89786 1.18246
 H89 H 0.69073 0.82867 1.11786
 H90 H 0.63123 0.81003 1.19044
 C91 C 1.14952 1.35502 1.18560
 C92 C 1.16759 1.37518 1.16962
 C93 C 1.18148 1.36664 1.14292
 C94 C 1.17732 1.33698 1.13262
 C95 C 1.15821 1.31685 1.14774
 C96 C 1.14353 1.32626 1.17384
 H97 H 1.17241 1.39700 1.17949
 H98 H 1.18844 1.32960 1.11245
 H99 H 1.13027 1.31025 1.18649
 C100 C 1.14155 0.85450 0.67945
 C101 C 1.12245 0.83623 0.66248
 C102 C 1.13203 0.82370 0.63555
 C103 C 1.16108 0.82978 0.62552
 C104 C 1.18015 0.84896 0.64191
 C105 C 1.17016 0.86169 0.66880
 H106 H 1.10072 0.83016 0.67140
 H107 H 1.16888 0.81946 0.60504
 H108 H 1.18527 0.87513 0.68236
 C109 C 0.36627 0.64237 0.67392
 C110 C 0.36835 0.67091 0.66031
 C111 C 0.34900 0.67873 0.63676
 C112 C 0.32811 0.65750 0.62630
 C113 C 0.32712 0.62815 0.63832
 C114 C 0.34605 0.62104 0.66261
 H115 H 0.38416 0.68743 0.66878
 H116 H 0.31395 0.66341 0.60747
 H117 H 0.34494 0.59911 0.67329
 C118 C 0.34369 0.17285 1.19450
 C119 C 0.31602 0.16031 1.18665
 C120 C 0.30665 0.15878 1.15672
 C121 C 0.32518 0.17125 1.13448
 C122 C 0.35309 0.18383 1.14225
 C123 C 0.36249 0.18400 1.17221
 H124 H 0.30264 0.15033 1.20413
 H125 H 0.31831 0.17071 1.11126
 H126 H 0.38410 0.19346 1.17822
 C127 C 0.87401 0.63356 1.17070
 C128 C 0.88777 0.65009 1.14750
 C129 C 0.87085 0.66321 1.12445
 C130 C 0.83986 0.65921 1.12384
 C131 C 0.82582 0.64141 1.14553
 C132 C 0.84272 0.62879 1.16901
 H133 H 0.91147 0.65493 1.14807
 H134 H 0.82670 0.66935 1.10602
 H135 H 0.83131 0.61555 1.18582
 C136 C 0.85243 0.15129 0.68823
 C137 C 0.82300 0.13969 0.68544
 C138 C 0.80065 0.15652 0.67046
 C139 C 0.80793 0.18503 0.65880
 C140 C 0.83722 0.19605 0.65996
 C141 C 0.85942 0.17890 0.67415
 H142 H 0.81739 0.11801 0.69523
 H143 H 0.79119 0.19768 0.64645
 H144 H 0.88162 0.18853 0.67611
 C145 C 1.35428 0.36371 0.67199
 C146 C 1.33383 0.37383 0.65015
 C147 C 1.33594 0.36420 0.62041
 C148 C 1.35980 0.34539 0.61233
 C149 C 1.37988 0.33395 0.63385
 C150 C 1.37659 0.34266 0.66392
 H151 H 1.31654 0.38984 0.65610
 H152 H 1.36132 0.33744 0.58957
 H153 H 1.39203 0.33409 0.68067
 C154 C 1.35646 0.87139 1.17167
 C155 C 1.33489 0.87617 1.14910
 C156 C 1.32643 0.85280 1.12976
 C157 C 1.33905 0.82409 1.13343
 C158 C 1.36065 0.81869 1.15562
 C159 C 1.36969 0.84245 1.17447
 H160 H 1.32420 0.89795 1.14657
 H161 H 1.33166 0.80563 1.11928
 H162 H 1.38607 0.83803 1.19186
 C163 C 0.85580 0.36006 1.17187
 C164 C 0.87514 0.33708 1.16184
 C165 C 0.87848 0.33158 1.13109
 C166 C 0.86038 0.34785 1.11082
 C167 C 0.83895 0.36878 1.12075
 C168 C 0.83765 0.37564 1.15134
 H169 H 0.88885 0.32489 1.17788
 H170 H 0.86110 0.34220 1.08738
 H171 H 0.82200 0.39249 1.15934
 C172 C 0.84301 0.86032 0.68172
 C173 C 0.85949 0.83332 0.68024
 C174 C 0.85612 0.81350 0.65583
 C175 C 0.83662 0.82171 0.63237
 C176 C 0.82027 0.84882 0.63355
 C177 C 0.82360 0.86787 0.65825
 H178 H 0.87454 0.82774 0.69841
 H179 H 0.83330 0.80660 0.61370
 H180 H 0.81146 0.88905 0.65889
 C181 C 0.62357 0.64462 0.67231
 C182 C 0.62052 0.66992 0.65358
 C183 C 0.64118 0.67545 0.63073
 C184 C 0.66494 0.65502 0.62637
 C185 C 0.66832 0.62945 0.64471
 C186 C 0.64756 0.62454 0.66776
 H187 H 0.60275 0.68604 0.65751
 H188 H 0.68050 0.65865 0.60829
 H189 H 0.65008 0.60519 0.68232
 C190 C 0.63434 1.14718 1.17328
 C191 C 0.62939 1.16920 1.15119
 C192 C 0.64807 1.17143 1.12605
 C193 C 0.67277 1.15173 1.12396
 C194 C 0.67869 1.13021 1.14624
 C195 C 0.65922 1.12786 1.17070
 H196 H 0.61047 1.18422 1.15333
 H197 H 0.68791 1.15322 1.10528
 H198 H 0.66352 1.11104 1.18775
 C199 C 0.13381 0.64661 1.17795
 C200 C 0.16147 0.63107 1.17766
 C201 C 0.18176 0.63454 1.15391
 C202 C 0.17389 0.65334 1.12987
 C203 C 0.14679 0.66956 1.12962
 C204 C 0.12721 0.66627 1.15392
 H205 H 0.16703 0.61568 1.19554
 H206 H 0.18982 0.65662 1.11211
 H207 H 0.10655 0.67885 1.15364
 C208 C 0.12577 1.14361 0.66989
 C209 C 0.11158 1.15912 0.64654
 C210 C 0.12593 1.16355 0.61906
 C211 C 0.15493 1.15192 0.61485
 C212 C 0.16791 1.13339 0.63696
 C213 C 0.15340 1.12963 0.66459
 H214 H 0.08964 1.16895 0.65024
 H215 H 0.16592 1.15462 0.59348
 H216 H 0.16389 1.11627 0.68206
 C217 C 1.35918 0.64125 0.32163
 C218 C 1.33532 0.62933 0.33781
 C219 C 1.32825 0.64044 0.36611
 C220 C 1.34405 0.66544 0.37765
 C221 C 1.36916 0.67676 0.36205
 C222 C 1.37676 0.66394 0.33430
 H223 H 1.32279 0.61038 0.32883
 H224 H 1.33860 0.67408 0.39959
 H225 H 1.39527 0.67288 0.32145
 C226 C 1.35767 1.14113 0.82234
 C227 C 1.33837 1.12067 0.83615
 C228 C 1.33204 1.12300 0.86649
 C229 C 1.34553 1.14585 0.88339
 C230 C 1.36545 1.16671 0.87004
 C231 C 1.37118 1.16422 0.83912
 H232 H 1.32778 1.10305 0.82300
 H233 H 1.33952 1.14762 0.90668
 H234 H 1.38629 1.17975 0.82811
 C235 C 0.87094 0.62771 0.83244
 C236 C 0.84741 0.61064 0.84415
 C237 C 0.82661 0.62378 0.86363
 C238 C 0.82878 0.65478 0.86990
 C239 C 0.85187 0.67242 0.85769
 C240 C 0.87352 0.65851 0.83967
 H241 H 0.84568 0.58703 0.83812
 H242 H 0.81281 0.66514 0.88485
 H243 H 0.89154 0.67182 0.83027
 C244 C 0.85795 1.14791 0.31634
 C245 C 0.87851 1.16504 0.33321
 C246 C 0.87003 1.17689 0.36094
 C247 C 0.84097 1.17220 0.37143
 C248 C 0.82022 1.15563 0.35475
 C249 C 0.82889 1.14295 0.32755
 H250 H 0.90079 1.16946 0.32476
 H251 H 0.83427 1.18208 0.39253
 H252 H 0.81272 1.12982 0.31499
 C253 C 0.62838 0.36658 0.32982
 C254 C 0.61427 0.35102 0.35348
 C255 C 0.63100 0.33529 0.37527
 C256 C 0.66235 0.33652 0.37414
 C257 C 0.67670 0.35479 0.35298
 C258 C 0.65986 0.36938 0.33068
 H259 H 0.59027 0.34833 0.35348
 H260 H 0.67564 0.32496 0.39099
 H261 H 0.67153 0.38261 0.31404
 C262 C 0.63739 0.84616 0.81682
 C263 C 0.62440 0.82883 0.83961
 C264 C 0.63778 0.82726 0.86798
 C265 C 0.66474 0.84273 0.87321
 C266 C 0.67823 0.85975 0.85051
 C267 C 0.66394 0.86197 0.82256
 H268 H 0.60372 0.81678 0.83531
 H269 H 0.67599 0.84033 0.89452
 H270 H 0.67377 0.87524 0.80484
 C271 C 0.12899 0.36884 0.82994
 C272 C 0.12856 0.33748 0.83562
 C273 C 0.14617 0.32517 0.85877
 C274 C 0.16527 0.34396 0.87541
 C275 C 0.16587 0.37514 0.87024
 C276 C 0.14719 0.38741 0.84805
 H277 H 0.11437 0.32270 0.82246
 H278 H 0.17918 0.33436 0.89293
 H279 H 0.14898 0.41129 0.84325
 C280 C 0.13898 0.84860 0.31876
 C281 C 0.12915 0.82719 0.33997
 C282 C 0.13840 0.82869 0.36997
 C283 C 0.15897 0.85115 0.37843
 C284 C 0.16855 0.87292 0.35788
 C285 C 0.15786 0.87212 0.32838
 H286 H 0.11316 0.81006 0.33354
 H287 H 0.16751 0.85216 0.40104
 H288 H 0.16594 0.88877 0.31260
 O289 O 1.11696 1.01040 1.14474
 O290 O 1.15374 1.00553 1.17749
 C291 C 1.12932 1.01795 1.16922
 C292 C 1.11579 1.04219 1.18771
 C293 C 1.12747 1.04881 1.21610
 H294 H 1.14592 1.03538 1.22447
 O295 O 0.90965 0.95730 1.15541
 O296 O 0.87763 0.95457 1.19262
 C297 C 0.90033 0.94439 1.17899
 C298 C 0.91519 0.91642 1.18967
 C299 C 0.90541 0.90162 1.21572
 H300 H 0.88765 0.91161 1.22876
 O301 O 1.04558 1.14122 1.11656
 O302 O 1.05077 1.17354 1.15362
 C303 C 1.05844 1.16410 1.12794
 C304 C 1.08308 1.17904 1.11127
 C305 C 1.09822 1.20439 1.12307
 H306 H 1.09143 1.21394 1.14424
 O307 O 0.97581 0.83750 1.09074
 O308 O 0.97761 0.79806 1.12091
 C309 C 0.96591 0.81191 1.09888
 C310 C 0.94013 0.79836 1.08305
 C311 C 0.93317 0.76781 1.08709
 H312 H 0.94739 0.75379 1.10112
 O313 O 1.15655 1.09761 1.02762
 O314 O 1.19318 1.13110 1.02798
 C315 C 1.18148 1.10697 1.03791
 C316 C 1.19594 1.09102 1.06322
 C317 C 1.21813 1.10589 1.08009
 H318 H 1.22607 1.12799 1.07332
 O319 O 0.85136 0.89287 1.02917
 O320 O 0.81382 0.86048 1.02975
 C321 C 0.82725 0.88331 1.04069
 C322 C 0.81521 0.89888 1.06727
 C323 C 0.78552 0.89419 1.07663
 H324 H 0.77094 0.87903 1.06434
 O325 O 0.98772 1.10006 1.15811
 O326 O 0.99079 1.13325 1.19470
 C327 C 0.97889 1.10982 1.18322
 C328 C 0.95365 1.09433 1.19831
 C329 C 0.93718 1.10918 1.22072
 H330 H 0.94365 1.13158 1.22805
 O331 O 1.03811 0.87269 1.13174
 O332 O 1.03904 0.83375 1.16258
 C333 C 1.04915 0.85926 1.15431
 C334 C 1.07422 0.87310 1.17103
 C335 C 1.08419 0.85991 1.19765
 H336 H 1.07231 0.84052 1.20633
 O337 O 1.15380 0.95546 1.09526
 O338 O 1.19120 0.95121 1.12735
 C339 C 1.17882 0.94396 1.10272
 C340 C 1.19328 0.92142 1.08286
 C341 C 1.22166 0.90953 1.09000
 H342 H 1.23335 0.91795 1.10948
 O343 O 0.86725 1.02100 1.12347
 O344 O 0.83507 1.01791 1.16064
 C345 C 0.84368 1.03016 1.13653
 C346 C 0.82607 1.05528 1.12356
 C347 C 0.79725 1.06166 1.13413
 H348 H 0.78840 1.04814 1.15216
 O349 O 0.90089 1.14714 1.05180
 O350 O 0.86657 1.18270 1.05674
 C351 C 0.89180 1.17143 1.06387
 C352 C 0.91101 1.18703 1.08600
 C353 C 0.90659 1.21770 1.09222
 H354 H 0.88885 1.23002 1.08086
 O355 O 1.10876 0.84415 1.00608
 O356 O 1.14314 0.80867 1.00100
 C357 C 1.11970 0.81862 1.01349
 C358 C 1.10557 0.80041 1.03723
 C359 C 1.11782 0.77232 1.04525
 H360 H 1.13736 0.76425 1.03354
 O361 O 0.91275 1.01714 1.15928
 O362 O 0.88014 1.01450 1.19602
 C363 C 0.90326 1.02633 1.18434
 C364 C 0.91728 1.05287 1.19893
 C365 C 0.90130 1.06813 1.22111
 H366 H 0.88028 1.05896 1.22909
 O367 O 1.11710 0.95124 1.14004
 O368 O 1.15420 0.94631 1.17238
 C369 C 1.12896 0.93777 1.16229
 C370 C 1.11337 0.91138 1.17558
 C371 C 1.12332 0.89762 1.20239
 H372 H 1.14245 0.90674 1.21431
 O373 O 1.03445 0.83478 1.08804
 O374 O 1.03603 0.79579 1.11876
 C375 C 1.04505 0.80911 1.09537
 C376 C 1.06894 0.79533 1.07708
 C377 C 1.08144 0.76710 1.08479
 H378 H 1.07228 0.75453 1.10336
 O379 O 0.98730 1.14479 1.12115
 O380 O 0.99204 1.17835 1.15723
 C381 C 0.97927 1.16937 1.13341
 C382 C 0.95419 1.18671 1.11985
 C383 C 0.94945 1.21765 1.12593
 H384 H 0.96470 1.22977 1.14049
 O385 O 0.85912 1.10599 1.05185
 O386 O 0.82456 1.14118 1.05740
 C387 C 0.83563 1.11571 1.06460
 C388 C 0.82170 1.09715 1.08835
 C389 C 0.79263 1.10322 1.09905
 H390 H 0.77977 1.12152 1.08928
 O391 O 1.14895 0.88642 1.00634
 O392 O 1.18315 0.85076 1.00154
 C393 C 1.17358 0.87452 1.01439
 C394 C 1.19077 0.88778 1.03960
 C395 C 1.21902 0.87609 1.04730
 H396 H 1.22821 0.85806 1.03395
 O397 O 0.98037 0.87296 1.13677
 O398 O 0.98131 0.83359 1.16704
 C399 C 0.97168 0.85979 1.16043
 C400 C 0.94979 0.87486 1.18017
 C401 C 0.94016 0.86065 1.20643
 H402 H 0.95021 0.83933 1.21266
 O403 O 1.04558 1.09684 1.15454
 O404 O 1.04952 1.12868 1.19217
 C405 C 1.05746 1.10437 1.17924
 C406 C 1.08102 1.08472 1.19256
 C407 C 1.09284 1.09076 1.22109
 H408 H 1.08380 1.10940 1.23378
 O409 O 0.86701 0.96315 1.11615
 O410 O 0.83463 0.96081 1.15317
 C411 C 0.84261 0.95341 1.12697
 C412 C 0.82299 0.93350 1.10906
 C413 C 0.79308 0.92937 1.11742
 H414 H 0.78439 0.94102 1.13681
 O415 O 1.15579 1.01396 1.10244
 O416 O 1.19261 1.00988 1.13528
 C417 C 1.18060 1.02317 1.11305
 C418 C 1.19485 1.05056 1.10047
 C419 C 1.21628 1.06631 1.11739
 H420 H 1.22317 1.05774 1.13906
 O421 O 0.88835 0.84828 1.02214
 O422 O 0.85144 0.81516 1.02305
 C423 C 0.87755 0.82333 1.03112
 C424 C 0.89596 0.80392 1.05100
 C425 C 0.88870 0.77335 1.05611
 H426 H 0.86899 0.76349 1.04578
 O427 O 1.11756 1.14045 1.03135
 O428 O 1.15427 1.17379 1.03072
 C429 C 1.13017 1.16376 1.04210
 C430 C 1.11768 1.17867 1.06894
 C431 C 1.13234 1.20375 1.08111
 H432 H 1.15143 1.21326 1.06959
 Cu433 Cu 1.13214 0.98302 1.11747
 Cu434 Cu 1.17665 0.97766 1.15634
 Cu435 Cu 0.89276 0.98980 1.13510
 Cu436 Cu 0.85406 0.98633 1.17970
 Cu437 Cu 1.01619 1.11764 1.13385
 Cu438 Cu 1.02137 1.15671 1.17817
 Cu439 Cu 1.00695 0.85829 1.10857
 Cu440 Cu 1.00855 0.81130 1.14534
 C441 C 1.09241 1.06013 1.17624
 H442 H 1.08367 1.05549 1.15411
 C443 C 1.11608 1.07288 1.23319
 C444 C 0.93750 0.90290 1.17220
 H445 H 0.94465 0.91379 1.15176
 C446 C 0.91766 0.87353 1.22426
 C447 C 1.09290 1.16657 1.08404
 H448 H 1.08188 1.14675 1.07503
 C449 C 1.12318 1.21647 1.10820
 C450 C 0.92172 0.81613 1.06461
 H451 H 0.92715 0.83977 1.06135
 C452 C 0.90768 0.75516 1.07369
 C453 C 1.18469 1.06314 1.07337
 H454 H 1.16718 1.05185 1.06081
 C455 C 1.22757 1.09410 1.10755
 C456 C 0.83377 0.91864 1.08363
 H457 H 0.85684 0.92198 1.07697
 C458 C 0.77428 0.90996 1.10133
 C459 C 0.94358 1.06604 1.18771
 H460 H 0.95546 1.05490 1.16978
 C461 C 0.91056 1.09642 1.23146
 C462 C 1.08871 0.89892 1.16027
 H463 H 1.08114 0.90893 1.13947
 C464 C 1.10878 0.87162 1.21341
 C465 C 1.17817 0.91064 1.05737
 H466 H 1.15611 0.91933 1.05191
 C467 C 1.23475 0.88672 1.07245
 C468 C 0.83800 1.07294 1.10060
 H469 H 0.86039 1.06816 1.09263
 C470 C 0.78001 1.08519 1.12177
 C471 C 0.93484 1.17178 1.09982
 H472 H 0.93825 1.14803 1.09500
 C473 C 0.92585 1.23324 1.11169
 C474 C 1.08096 0.81159 1.05302
 H475 H 1.07179 0.83352 1.04718
 C476 C 1.10605 0.75541 1.06898
 O477 O 1.09564 0.97758 0.84044
 O478 O 1.12761 0.97965 0.80310
 C479 C 1.10415 0.96862 0.81500
 C480 C 1.08814 0.94333 0.80034
 C481 C 1.10217 0.92757 0.77703
 H482 H 1.12338 0.93541 0.76822
 O483 O 0.88639 1.04436 0.86125
 O484 O 0.84949 1.04895 0.82855
 C485 C 0.87504 1.05688 0.83826
 C486 C 0.89185 1.08101 0.82300
 C487 C 0.88527 1.08923 0.79330
 H488 H 0.86764 1.07766 0.78115
 O489 O 0.97015 1.15887 0.90955
 O490 O 0.96784 1.19711 0.87804
 C491 C 0.95909 1.18423 0.90188
 C492 C 0.93514 1.19812 0.92051
 C493 C 0.92249 1.22644 0.91309
 H494 H 0.93112 1.23899 0.89423
 O495 O 1.01555 0.85484 0.88012
 O496 O 1.01178 0.82207 0.84321
 C497 C 1.02410 0.83075 0.86737
 C498 C 1.04912 0.81315 0.88045
 C499 C 1.05552 0.78393 0.87025
 H500 H 1.04160 0.77432 0.85287
 O501 O 1.14614 0.88911 0.94762
 O502 O 1.17992 0.85303 0.94302
 C503 C 1.16921 0.87831 0.93488
 C504 C 1.18308 0.89438 0.90944
 C505 C 1.20708 0.88116 0.89426
 H506 H 1.21660 0.86018 0.90252
 O507 O 0.85496 1.11053 0.99370
 O508 O 0.82035 1.14567 0.99939
 C509 C 0.83000 1.12223 0.98620
 C510 C 0.81244 1.10919 0.96122
 C511 C 0.78383 1.12051 0.95441
 H512 H 0.77473 1.13799 0.96846
 O513 O 1.02459 1.11960 0.86141
 O514 O 1.02270 1.15786 0.82980
 C515 C 1.03306 1.13209 0.83733
 C516 C 1.05566 1.11698 0.81812
 C517 C 1.06366 1.13000 0.79075
 H518 H 1.05184 1.15001 0.78341
 O519 O 0.95632 0.90118 0.84618
 O520 O 0.95271 0.86908 0.80873
 C521 C 0.94409 0.89299 0.82187
 C522 C 0.91893 0.91098 0.80946
 C523 C 0.90344 0.90122 0.78384
 H524 H 0.91064 0.88082 0.77267
 O525 O 1.14267 1.02958 0.88350
 O526 O 1.17513 1.03185 0.84656
 C527 C 1.16712 1.03917 0.87282
 C528 C 1.18638 1.05891 0.89128
 C529 C 1.21681 1.06234 0.88465
 H530 H 1.22617 1.05049 0.86571
 O531 O 0.84657 0.98354 0.90030
 O532 O 0.80943 0.98875 0.86796
 C533 C 0.82124 0.97531 0.89019
 C534 C 0.80599 0.94870 0.90294
 C535 C 0.78191 0.93610 0.88729
 H536 H 0.77342 0.94715 0.86735
 O537 O 1.11514 1.14443 0.97308
 O538 O 1.15272 1.17675 0.97241
 C539 C 1.12705 1.16850 0.96317
 C540 C 1.11144 1.18663 0.93999
 C541 C 1.12637 1.21052 0.92583
 H542 H 1.14876 1.21653 0.93310
 O543 O 0.88416 0.85425 0.96489
 O544 O 0.84735 0.82099 0.96543
 C545 C 0.87139 0.83112 0.95401
 C546 C 0.88431 0.81635 0.92740
 C547 C 0.87080 0.79061 0.91518
 H548 H 0.85134 0.78089 0.92592
 O549 O 0.88387 0.98559 0.85670
 O550 O 0.84661 0.99038 0.82446
 C551 C 0.87091 0.97774 0.83261
 C552 C 0.88343 0.95270 0.81462
 C553 C 0.86849 0.94283 0.78877
 H554 H 0.84909 0.95526 0.78099
 O555 O 1.10003 1.03667 0.84459
 O556 O 1.13155 1.03969 0.80699
 C557 C 1.10883 1.04967 0.82086
 C558 C 1.09278 1.07705 0.80988
 C559 C 1.10079 1.09089 0.78268
 H560 H 1.11853 1.08117 0.76936
 O561 O 0.95710 0.85539 0.88246
 O562 O 0.95334 0.82317 0.84513
 C563 C 0.94514 0.83211 0.87073
 C564 C 0.92070 0.81622 0.88674
 C565 C 0.90715 0.78991 0.87506
 H566 H 0.91532 0.78000 0.85454
 O567 O 1.02924 1.15835 0.90392
 O568 O 1.02735 1.19673 0.87251
 C569 C 1.03994 1.18305 0.89414
 C570 C 1.06846 1.19463 0.90680
 C571 C 1.08376 1.21874 0.89303
 H572 H 1.07367 1.23047 0.87425
 O573 O 0.84537 0.89682 0.97108
 O574 O 0.80834 0.86384 0.97103
 C575 C 0.81995 0.88820 0.96144
 C576 C 0.80483 0.90595 0.93761
 C577 C 0.78051 0.89367 0.92144
 H578 H 0.77148 0.87177 0.92743
 O579 O 1.15382 1.10052 0.96919
 O580 O 1.19152 1.13274 0.96975
 C581 C 1.17870 1.10963 0.95882
 C582 C 1.19230 1.09340 0.93340
 C583 C 1.22273 1.09713 0.92611
 H584 H 1.23684 1.11180 0.93948
 O585 O 1.01478 0.89912 0.84256
 O586 O 1.01149 0.86647 0.80552
 C587 C 1.02359 0.88958 0.81734
 C588 C 1.04933 0.90422 0.80229
 C589 C 1.06422 0.88862 0.77953
 H590 H 1.05592 0.86685 0.77213
 O591 O 0.96674 1.12187 0.86441
 O592 O 0.96497 1.15992 0.83254
 C593 C 0.95558 1.13435 0.84132
 C594 C 0.93149 1.11882 0.82462
 C595 C 0.92504 1.12655 0.79490
 H596 H 0.93778 1.14435 0.78427
 O597 O 0.84843 1.04198 0.90529
 O598 O 0.81134 1.04717 0.87294
 C599 C 0.82370 1.05403 0.89762
 C600 C 0.80945 1.07642 0.91758
 C601 C 0.78073 1.08795 0.91113
 H602 H 0.76881 1.07968 0.89173
 O603 O 1.14294 0.97182 0.87373
 O604 O 1.17464 0.97437 0.83618
 C605 C 1.16591 0.96179 0.86009
 C606 C 1.18172 0.93478 0.87215
 C607 C 1.20589 0.92094 0.85695
 H608 H 1.21405 0.93041 0.83621
 O609 O 1.10318 0.84949 0.94869
 O610 O 1.13682 0.81326 0.94394
 C611 C 1.11178 0.82502 0.93669
 C612 C 1.09235 0.81040 0.91401
 C613 C 1.09837 0.78103 0.90368
 H614 H 1.11720 0.76867 0.91292
 O615 O 0.89690 1.15061 0.99386
 O616 O 0.86230 1.18584 0.99898
 C617 C 0.88572 1.17587 0.98620
 C618 C 0.89952 1.19365 0.96177
 C619 C 0.88747 1.22186 0.95405
 H620 H 0.86852 1.23039 0.96643
 Cu621 Cu 1.11712 1.00367 0.86414
 Cu622 Cu 1.15504 1.00717 0.81917
 Cu623 Cu 0.87017 1.01369 0.88409
 Cu624 Cu 0.82543 1.01951 0.84527
 Cu625 Cu 1.13210 1.11737 1.00009
 Cu626 Cu 1.17658 1.15696 1.00007
 Cu627 Cu 1.12345 0.87102 0.97761
 Cu628 Cu 1.16436 0.82807 0.97179
 Cu629 Cu 0.88134 1.12489 1.02252
 Cu630 Cu 0.83997 1.16737 1.02877
 Cu631 Cu 0.87087 0.87645 0.99697
 Cu632 Cu 0.82634 0.83692 0.99757
 Cu633 Cu 0.99765 1.13614 0.88828
 Cu634 Cu 0.99538 1.18199 0.85032
 Cu635 Cu 0.98613 0.88084 0.86658
 Cu636 Cu 0.98199 0.84208 0.82178
 C637 C 1.06148 0.93165 0.81267
 H638 H 1.05094 0.94316 0.83119
 C639 C 1.09082 0.89981 0.76738
 C640 C 0.91506 1.09578 0.83832
 H641 H 0.92000 1.08971 0.86128
 C642 C 0.90228 1.11155 0.77890
 C643 C 0.92354 1.18208 0.94511
 H644 H 0.93265 1.16009 0.95080
 C645 C 0.89870 1.23853 0.92995
 C646 C 1.06748 0.82609 0.90248
 H647 H 1.06282 0.84882 0.91014
 C648 C 1.07987 0.76746 0.88192
 C649 C 1.17081 0.92133 0.89847
 H650 H 1.15195 0.93130 0.90998
 C651 C 1.21834 0.89378 0.86787
 C652 C 0.82496 1.08694 0.94286
 H653 H 0.84725 1.07848 0.94774
 C654 C 0.76764 1.11017 0.92939
 C655 C 1.07015 1.09032 0.82739
 H656 H 1.06422 1.08025 0.84861
 C657 C 1.08642 1.11753 0.77296
 C658 C 0.90884 0.93684 0.82458
 H659 H 0.92021 0.94408 0.84476
 C660 C 0.87798 0.91685 0.77345
 C661 C 1.17442 1.07410 0.91595
 H662 H 1.15088 1.07144 0.92117
 C663 C 1.23521 1.08107 0.90213
 C664 C 0.81726 0.93367 0.92824
 H665 H 0.83650 0.94293 0.93989
 C666 C 0.76963 0.90846 0.89583
 C667 C 1.08243 1.17896 0.93045
 H668 H 1.07109 1.16006 0.94084
 C669 C 1.11297 1.22641 0.90212
 C670 C 0.90933 0.82886 0.91316
 H671 H 0.91942 0.84917 0.92218
 C672 C 0.88198 0.77728 0.88914
 O673 O 0.96071 0.40407 0.34079
 O674 O 0.95891 0.37035 0.30465
 C675 C 0.94905 0.39424 0.31674
 C676 C 0.92271 0.40958 0.30341
 C677 C 0.90737 0.39593 0.27966
 H678 H 0.91591 0.37522 0.26996
 O679 O 1.02266 0.61910 0.36222
 O680 O 1.02105 0.65807 0.33146
 C681 C 1.03181 0.63248 0.33887
 C682 C 1.05537 0.61825 0.32037
 C683 C 1.06260 0.63014 0.29227
 H684 H 1.05076 0.64994 0.28428
 O685 O 0.84360 0.47777 0.39085
 O686 O 0.80716 0.48134 0.35756
 C687 C 0.81902 0.46827 0.38004
 C688 C 0.80543 0.44071 0.39305
 C689 C 0.78266 0.42479 0.37782
 H690 H 0.77328 0.43369 0.35725
 O691 O 1.14531 0.53529 0.38819
 O692 O 1.17856 0.53795 0.35203
 C693 C 1.16967 0.54575 0.37776
 C694 C 1.18728 0.56774 0.39560
 C695 C 1.21701 0.57505 0.38825
 H696 H 1.22789 0.56379 0.36976
 O697 O 0.89001 0.35658 0.46597
 O698 O 0.85640 0.32001 0.46549
 C699 C 0.88045 0.33170 0.45562
 C700 C 0.89722 0.31663 0.43143
 C701 C 0.89390 0.28557 0.42623
 H702 H 0.87931 0.27234 0.44043
 O703 O 1.10928 0.64585 0.47868
 O704 O 1.14440 0.68090 0.48045
 C705 C 1.11927 0.67140 0.47063
 C706 C 1.10166 0.69013 0.44945
 C707 C 1.11095 0.71954 0.44267
 H708 H 1.13070 0.72878 0.45348
 O709 O 0.88408 0.53970 0.35516
 O710 O 0.84860 0.54390 0.32093
 C711 C 0.87358 0.55235 0.33194
 C712 C 0.89103 0.57704 0.31801
 C713 C 0.88737 0.58447 0.28763
 H714 H 0.87123 0.57231 0.27406
 O715 O 1.09968 0.48166 0.34435
 O716 O 1.13283 0.48473 0.30809
 C717 C 1.10927 0.47312 0.31905
 C718 C 1.09460 0.44761 0.30331
 C719 C 1.11080 0.43179 0.28167
 H720 H 1.13251 0.44014 0.27476
 O721 O 1.02066 0.35940 0.37699
 O722 O 1.01777 0.32585 0.34066
 C723 C 1.02918 0.33475 0.36507
 C724 C 1.05258 0.31607 0.37947
 C725 C 1.05813 0.28670 0.36910
 H726 H 1.04507 0.27806 0.35059
 O727 O 0.96509 0.65448 0.40928
 O728 O 0.96249 0.69303 0.37814
 C729 C 0.95332 0.67941 0.40140
 C730 C 0.92800 0.69202 0.41889
 C731 C 0.91305 0.71839 0.40920
 H732 H 0.92051 0.72987 0.38922
 O733 O 0.84578 0.60311 0.48791
 O734 O 0.81125 0.63849 0.49233
 C735 C 0.82134 0.61511 0.47924
 C736 C 0.80503 0.60243 0.45302
 C737 C 0.77652 0.61347 0.44507
 H738 H 0.76605 0.63059 0.45878
 O739 O 1.14427 0.38805 0.45311
 O740 O 1.17784 0.35190 0.44752
 C741 C 1.16721 0.37754 0.44006
 C742 C 1.18080 0.39475 0.41514
 C743 C 1.20378 0.38177 0.39801
 H744 H 1.21266 0.35972 0.40386
 O745 O 0.96441 0.61817 0.36373
 O746 O 0.96310 0.65657 0.33225
 C747 C 0.95386 0.63067 0.34035
 C748 C 0.93081 0.61484 0.32230
 C749 C 0.92728 0.62153 0.29190
 H750 H 0.94150 0.63846 0.28171
 O751 O 1.01969 0.40417 0.33951
 O752 O 1.01828 0.37015 0.30358
 C753 C 1.02961 0.39384 0.31508
 C754 C 1.05590 0.40848 0.30116
 C755 C 1.07271 0.39290 0.27953
 H756 H 1.06538 0.37098 0.27156
 O757 O 1.14204 0.47643 0.38314
 O758 O 1.17501 0.47913 0.34669
 C759 C 1.16503 0.46615 0.36999
 C760 C 1.17944 0.43796 0.38086
 C761 C 1.20188 0.42419 0.36378
 H762 H 1.20970 0.43502 0.34356
 O763 O 0.84416 0.53620 0.39700
 O764 O 0.80788 0.54082 0.36371
 C765 C 0.81950 0.54796 0.38874
 C766 C 0.80444 0.57033 0.40839
 C767 C 0.77611 0.58206 0.40073
 H768 H 0.76493 0.57433 0.38062
 O769 O 0.88786 0.64331 0.49067
 O770 O 0.85340 0.67875 0.49518
 C771 C 0.87722 0.66884 0.48316
 C772 C 0.89155 0.68681 0.45923
 C773 C 0.87780 0.71363 0.44977
 H774 H 0.85866 0.72204 0.46192
 O775 O 1.10271 0.34746 0.45273
 O776 O 1.13602 0.31095 0.44775
 C777 C 1.11140 0.32332 0.44015
 C778 C 1.09279 0.31013 0.41605
 C779 C 1.09813 0.28072 0.40538
 H780 H 1.11561 0.26715 0.41558
 O781 O 1.10130 0.54066 0.35003
 O782 O 1.13421 0.54375 0.31362
 C783 C 1.11063 0.55328 0.32635
 C784 C 1.09400 0.57959 0.31405
 C785 C 1.10096 0.59181 0.28587
 H786 H 1.11830 0.58142 0.27252
 O787 O 0.88136 0.48122 0.34793
 O788 O 0.84501 0.48499 0.31457
 C789 C 0.86935 0.47294 0.32344
 C790 C 0.88334 0.44798 0.30623
 C791 C 0.86820 0.43386 0.28219
 H792 H 0.84656 0.44218 0.27476
 O793 O 1.02418 0.65638 0.40647
 O794 O 1.02193 0.69554 0.37605
 C795 C 1.03392 0.68205 0.39816
 C796 C 1.06008 0.69562 0.41388
 C797 C 1.07044 0.72483 0.40666
 H798 H 1.05882 0.73827 0.38999
 O799 O 0.96297 0.36207 0.38118
 O800 O 0.96079 0.32786 0.34541
 C801 C 0.95263 0.33749 0.37087
 C802 C 0.93148 0.31974 0.38912
 C803 C 0.92723 0.28879 0.38370
 H804 H 0.93892 0.27783 0.36553
 O805 O 1.15116 0.60630 0.47295
 O806 O 1.18678 0.64078 0.47528
 C807 C 1.17526 0.61766 0.46303
 C808 C 1.18968 0.60368 0.43691
 C809 C 1.21898 0.61152 0.42867
 H810 H 1.23146 0.62801 0.44158
 O811 O 0.84758 0.39662 0.46670
 O812 O 0.81391 0.36021 0.46509
 C813 C 0.82396 0.38515 0.45543
 C814 C 0.80869 0.39989 0.42983
 C815 C 0.78643 0.38418 0.41405
 H816 H 0.77937 0.36207 0.42171
 Cu817 Cu 0.99123 0.38603 0.36304
 Cu818 Cu 0.98842 0.34554 0.31959
 Cu819 Cu 0.99423 0.63335 0.38869
 Cu820 Cu 0.99183 0.67989 0.35161
 Cu821 Cu 0.86690 0.50845 0.37596
 Cu822 Cu 0.82339 0.51362 0.33595
 Cu823 Cu 1.11876 0.50857 0.37006
 Cu824 Cu 1.15844 0.51190 0.32646
 C825 C 0.91079 0.43580 0.31629
 H826 H 0.92229 0.44595 0.33512
 C827 C 0.88015 0.40759 0.26916
 C828 C 1.07102 0.59286 0.33094
 H829 H 1.06566 0.58374 0.35272
 C830 C 1.08506 0.61691 0.27463
 C831 C 0.81797 0.42819 0.41925
 H832 H 0.83576 0.44000 0.43092
 C833 C 0.77361 0.39619 0.38800
 C834 C 1.17403 0.58192 0.42020
 H835 H 1.15119 0.57629 0.42614
 C836 C 1.23289 0.59688 0.40477
 C837 C 0.91648 0.33345 0.41310
 H838 H 0.91938 0.35741 0.41716
 C839 C 0.90906 0.27153 0.40262
 C840 C 1.07591 0.67852 0.43534
 H841 H 1.06864 0.65577 0.44055
 C842 C 1.09562 0.73695 0.42138
 C843 C 0.91287 0.59230 0.33507
 H844 H 0.91577 0.58679 0.35850
 C845 C 0.90608 0.60612 0.27431
 C846 C 1.06699 0.43593 0.31282
 H847 H 1.05486 0.44746 0.33034
 C848 C 1.10061 0.40404 0.27053
 C849 C 1.06975 0.32749 0.40312
 H850 H 1.06565 0.35027 0.41095
 C851 C 1.08060 0.26870 0.38201
 C852 C 0.91692 0.67628 0.44392
 H853 H 0.92744 0.65535 0.45094
 C854 C 0.88753 0.72897 0.42427
 C855 C 0.81862 0.58056 0.43470
 H856 H 0.84068 0.57209 0.44051
 C857 C 0.76191 0.60344 0.41903
 C858 C 1.16901 0.42307 0.40657
 H859 H 1.15101 0.43307 0.41936
 C860 C 1.21389 0.39612 0.37206
 O861 O 1.03665 0.37364 0.64024
 O862 O 1.03747 0.33518 0.67168
 C863 C 1.04739 0.36063 0.66325
 C864 C 1.07140 0.37601 0.68005
 C865 C 1.07526 0.37207 0.71109
 H866 H 1.06114 0.35642 0.72320
 O867 O 0.98145 0.59028 0.65766
 O868 O 0.98509 0.62305 0.69457
 C869 C 0.97383 0.59921 0.68345
 C870 C 0.95085 0.58257 0.70041
 C871 C 0.94446 0.59101 0.72970
 H872 H 0.95737 0.60898 0.73991
 O873 O 0.85570 0.51844 0.62209
 O874 O 0.82308 0.51490 0.65878
 C875 C 0.83166 0.52705 0.63458
 C876 C 0.81359 0.55130 0.62054
 C877 C 0.78464 0.55804 0.63066
 H878 H 0.77563 0.54543 0.64929
 O879 O 1.15262 0.45256 0.59696
 O880 O 1.18949 0.44900 0.62981
 C881 C 1.17749 0.44123 0.60522
 C882 C 1.19260 0.41898 0.58585
 C883 C 1.22258 0.41080 0.59098
 H884 H 1.23484 0.42096 0.60933
 O885 O 1.10665 0.34261 0.51042
 O886 O 1.14032 0.30641 0.50564
 C887 C 1.11688 0.31687 0.51791
 C888 C 1.10115 0.29926 0.54121
 C889 C 1.10704 0.26825 0.54557
 H890 H 1.12339 0.25670 0.53188
 O891 O 0.88946 0.63865 0.54859
 O892 O 0.85509 0.67417 0.55316
 C893 C 0.87986 0.66243 0.56129
 C894 C 0.89751 0.67604 0.58610
 C895 C 0.88759 0.70246 0.60062
 H896 H 0.86709 0.71343 0.59336
 O897 O 0.90003 0.45666 0.65449
 O898 O 0.86782 0.45298 0.69149
 C899 C 0.89152 0.44417 0.67853
 C900 C 0.90944 0.41911 0.69127
 C901 C 0.90460 0.40897 0.72057
 H902 H 0.88788 0.42001 0.73421
 O903 O 1.11534 0.50948 0.64346
 O904 O 1.15267 0.50666 0.67585
 C905 C 1.12806 0.51838 0.66729
 C906 C 1.11487 0.54345 0.68466
 C907 C 1.12913 0.55354 0.71074
 H908 H 1.14858 0.54146 0.71901
 O909 O 0.97394 0.34071 0.59868
 O910 O 0.97394 0.30224 0.63008
 C911 C 0.96229 0.31639 0.60820
 C912 C 0.93372 0.30580 0.59508
 C913 C 0.91602 0.28482 0.61075
 H914 H 0.92421 0.27482 0.63134
 O915 O 1.03500 0.63570 0.61469
 O916 O 1.03702 0.66927 0.65105
 C917 C 1.04505 0.66026 0.62544
 C918 C 1.06673 0.67821 0.60826
 C919 C 1.07040 0.70913 0.61388
 H920 H 1.05666 0.72006 0.63059
 O921 O 0.84841 0.39448 0.52568
 O922 O 0.81304 0.35971 0.52387
 C923 C 0.82417 0.38336 0.53558
 C924 C 0.80983 0.39764 0.56180
 C925 C 0.77934 0.39294 0.56846
 H926 H 0.76548 0.37930 0.55383
 O927 O 1.15334 0.59946 0.53072
 O928 O 1.18856 0.63428 0.53347
 C929 C 1.17822 0.60865 0.54115
 C930 C 1.19471 0.58913 0.56264
 C931 C 1.22425 0.59583 0.57197
 H932 H 1.23564 0.61550 0.56317
 O933 O 1.03972 0.59175 0.65302
 O934 O 1.04318 0.62517 0.68935
 C935 C 1.05238 0.60122 0.67672
 C936 C 1.07837 0.58438 0.68923
 C937 C 1.09318 0.59434 0.71529
 H938 H 1.08529 0.61436 0.72670
 O939 O 0.97907 0.37771 0.64238
 O940 O 0.98005 0.33925 0.67386
 C941 C 0.97036 0.36522 0.66635
 C942 C 0.94836 0.38083 0.68538
 C943 C 0.94343 0.37110 0.71474
 H944 H 0.95622 0.35225 0.72354
 O945 O 1.15345 0.51119 0.60052
 O946 O 1.19068 0.50737 0.63294
 C947 C 1.17883 0.51982 0.61019
 C948 C 1.19468 0.54502 0.59553
 C949 C 1.22406 0.55172 0.60411
 H950 H 1.23486 0.53778 0.62088
 O951 O 0.85735 0.46060 0.61517
 O952 O 0.82431 0.45691 0.65147
 C953 C 0.83316 0.44980 0.62538
 C954 C 0.81489 0.42951 0.60623
 C955 C 0.78450 0.42491 0.61227
 H956 H 0.77464 0.43569 0.63159
 O957 O 1.11305 0.64159 0.53588
 O958 O 1.14772 0.67709 0.53797
 C959 C 1.12337 0.66572 0.54725
 C960 C 1.10624 0.68072 0.57103
 C961 C 1.11031 0.71155 0.57740
 H962 H 1.12686 0.72457 0.56530
 O963 O 0.88985 0.35379 0.52419
 O964 O 0.85438 0.31906 0.52334
 C965 C 0.87869 0.32931 0.53406
 C966 C 0.89277 0.31314 0.55937
 C967 C 0.87540 0.29264 0.57568
 H968 H 0.85251 0.28802 0.56886
 O969 O 1.11450 0.45048 0.64067
 O970 O 1.15114 0.44799 0.67391
 C971 C 1.12594 0.43907 0.66416
 C972 C 1.10952 0.41533 0.68027
 C973 C 1.11302 0.41161 0.71111
 H974 H 1.12844 0.42609 0.72323
 O975 O 0.89987 0.51520 0.65984
 O976 O 0.86774 0.51213 0.69693
 C977 C 0.89138 0.52335 0.68564
 C978 C 0.90949 0.54638 0.70184
 C979 C 0.90288 0.55573 0.73127
 H980 H 0.88418 0.54583 0.74310
 O981 O 0.97665 0.63385 0.61954
 O982 O 0.97920 0.66656 0.65658
 C983 C 0.96676 0.65721 0.63272
 C984 C 0.94006 0.67327 0.62077
 C985 C 0.92968 0.69947 0.63494
 H986 H 0.94213 0.70855 0.65370
 O987 O 1.03250 0.33903 0.59354
 O988 O 1.03290 0.30003 0.62429
 C989 C 1.04198 0.31294 0.60058
 C990 C 1.06396 0.29757 0.58115
 C991 C 1.06968 0.26671 0.58474
 H992 H 1.05761 0.25403 0.60156
 O993 O 1.14871 0.38273 0.51086
 O994 O 1.18297 0.34715 0.50577
 C995 C 1.17358 0.37100 0.51847
 C996 C 1.19107 0.38511 0.54287
 C997 C 1.22124 0.37748 0.54799
 H998 H 1.23218 0.36129 0.53357
 O999 O 0.84690 0.59870 0.54664
 O1000 O 0.81234 0.63407 0.55089
 C1001 C 0.82316 0.60874 0.55876
 C1002 C 0.80897 0.59108 0.58299
 C1003 C 0.77999 0.59781 0.59350
 H1004 H 0.76709 0.61566 0.58297
 Cu1005 Cu 1.00575 0.36151 0.61546
 Cu1006 Cu 1.00639 0.31488 0.65279
 Cu1007 Cu 1.00810 0.60955 0.63251
 Cu1008 Cu 1.01147 0.64932 0.67659
 Cu1009 Cu 0.87228 0.37911 0.49571
 Cu1010 Cu 0.83089 0.33627 0.49419
 Cu1011 Cu 1.12225 0.36880 0.48235
 Cu1012 Cu 1.16282 0.32554 0.47622
 Cu1013 Cu 0.87077 0.61721 0.51818
 Cu1014 Cu 0.82956 0.65989 0.52326
 Cu1015 Cu 1.12837 0.61962 0.50453
 Cu1016 Cu 1.17053 0.66173 0.50707
 Cu1017 Cu 0.88160 0.48815 0.63441
 Cu1018 Cu 0.84256 0.48366 0.67846
 Cu1019 Cu 1.13014 0.48097 0.61715
 Cu1020 Cu 1.17472 0.47728 0.65645
 C1021 C 1.08877 0.39749 0.66497
 H1022 H 1.08583 0.40065 0.64112
 C1023 C 1.09565 0.39046 0.72677
 C1024 C 0.93369 0.55994 0.68684
 H1025 H 0.93865 0.55362 0.66403
 C1026 C 0.92076 0.57789 0.74541
 C1027 C 0.82534 0.56770 0.59656
 H1028 H 0.84777 0.56266 0.58884
 C1029 C 0.76744 0.58099 0.61711
 C1030 C 1.17711 0.40612 0.56171
 H1031 H 1.15384 0.41208 0.55792
 C1032 C 1.23716 0.39039 0.57196
 C1033 C 1.07951 0.31363 0.55908
 H1034 H 1.07510 0.33754 0.55614
 C1035 C 1.09082 0.25187 0.56691
 C1036 C 0.92392 0.66178 0.59628
 H1037 H 0.93159 0.64128 0.58554
 C1038 C 0.90345 0.71409 0.62528
 C1039 C 0.93155 0.40507 0.67394
 H1040 H 0.93517 0.41250 0.65118
 C1041 C 0.92177 0.38518 0.73257
 C1042 C 1.08937 0.55882 0.67420
 H1043 H 1.07852 0.55130 0.65384
 C1044 C 1.11881 0.57913 0.72600
 C1045 C 0.92193 0.31979 0.56924
 H1046 H 0.93505 0.33649 0.55736
 C1047 C 0.88656 0.27900 0.60155
 C1048 C 1.08436 0.66430 0.58651
 H1049 H 1.08142 0.64041 0.58200
 C1050 C 1.09191 0.72597 0.59834
 C1051 C 0.82727 0.41607 0.58074
 H1052 H 0.85076 0.41963 0.57585
 C1053 C 0.76644 0.40730 0.59325
 C1054 C 1.18029 0.56349 0.57447
 H1055 H 1.15741 0.55838 0.56801
 C1056 C 1.23915 0.57678 0.59249
 O1057 O 0.45967 0.91326 0.34191
 O1058 O 0.45753 0.88109 0.30440
 C1059 C 0.44848 0.90501 0.31708
 C1060 C 0.42433 0.92311 0.30312
 C1061 C 0.41264 0.91508 0.27512
 H1062 H 0.42219 0.89613 0.26320
 O1063 O 0.52596 1.12893 0.36109
 O1064 O 0.52643 1.16820 0.33068
 C1065 C 0.53555 1.14193 0.33770
 C1066 C 0.55775 1.12637 0.31873
 C1067 C 0.56447 1.13720 0.29005
 H1068 H 0.55304 1.15710 0.28167
 O1069 O 0.34700 0.99168 0.39159
 O1070 O 0.31059 0.99733 0.35853
 C1071 C 0.32172 0.98379 0.38102
 C1072 C 0.30513 0.95839 0.39461
 C1073 C 0.27622 0.95137 0.38448
 H1074 H 0.26645 0.96487 0.36680
 O1075 O 0.64549 1.04396 0.38778
 O1076 O 0.67815 1.04754 0.35116
 C1077 C 0.66926 1.05526 0.37697
 C1078 C 0.68599 1.07821 0.39446
 C1079 C 0.71039 1.09392 0.38199
 H1080 H 0.71796 1.08864 0.35964
 O1081 O 0.38290 0.86149 0.45854
 O1082 O 0.34730 0.82699 0.45592
 C1083 C 0.37208 0.83765 0.44698
 C1084 C 0.38883 0.82280 0.42279
 C1085 C 0.38541 0.79179 0.41628
 H1086 H 0.36990 0.77814 0.42903
 O1087 O 0.61331 1.15248 0.48234
 O1088 O 0.64875 1.18714 0.48492
 C1089 C 0.62376 1.17808 0.47458
 C1090 C 0.60653 1.19720 0.45324
 C1091 C 0.61400 1.22786 0.44833
 H1092 H 0.63262 1.23808 0.46019
 O1093 O 0.38783 1.05434 0.35624
 O1094 O 0.35117 1.05989 0.32346
 C1095 C 0.37619 1.06826 0.33421
 C1096 C 0.39126 1.09521 0.32177
 C1097 C 0.37732 1.11239 0.29929
 H1098 H 0.35598 1.10528 0.29001
 O1099 O 0.60118 0.98930 0.34454
 O1100 O 0.63465 0.99100 0.30848
 C1101 C 0.61091 0.97990 0.31961
 C1102 C 0.59542 0.95449 0.30452
 C1103 C 0.61052 0.93739 0.28270
 H1104 H 0.63287 0.94369 0.27568
 O1105 O 0.51807 0.86656 0.37741
 O1106 O 0.51587 0.83457 0.33970
 C1107 C 0.52720 0.84271 0.36445
 C1108 C 0.55170 0.82466 0.37795
 C1109 C 0.55952 0.79638 0.36610
 H1110 H 0.54699 0.78786 0.34721
 O1111 O 0.47057 1.16712 0.40860
 O1112 O 0.47124 1.20643 0.37826
 C1113 C 0.46090 1.19312 0.40114
 C1114 C 0.43659 1.20756 0.41850
 C1115 C 0.42395 1.23496 0.40871
 H1116 H 0.43294 1.24623 0.38923
 O1117 O 0.35540 1.11996 0.48731
 O1118 O 0.32090 1.15534 0.49222
 C1119 C 0.33075 1.13177 0.47923
 C1120 C 0.31341 1.11808 0.45445
 C1121 C 0.28387 1.12737 0.44886
 H1122 H 0.27422 1.14464 0.46288
 O1123 O 0.64527 0.89763 0.45171
 O1124 O 0.67875 0.86133 0.44664
 C1125 C 0.66873 0.88720 0.43935
 C1126 C 0.68383 0.90524 0.41579
 C1127 C 0.70988 0.89470 0.40131
 H1128 H 0.71975 0.87330 0.40784
 O1129 O 0.46786 1.13114 0.36328
 O1130 O 0.46835 1.17055 0.33303
 C1131 C 0.45733 1.14531 0.34087
 C1132 C 0.43118 1.13287 0.32469
 C1133 C 0.41719 1.14948 0.30172
 H1134 H 0.42639 1.17093 0.29450
 O1135 O 0.51828 0.91307 0.34246
 O1136 O 0.51609 0.88082 0.30500
 C1137 C 0.52787 0.90372 0.31753
 C1138 C 0.55452 0.91768 0.30380
 C1139 C 0.56989 0.90126 0.28209
 H1140 H 0.56089 0.87997 0.27411
 O1141 O 0.64385 0.98549 0.38315
 O1142 O 0.67735 0.98875 0.34722
 C1143 C 0.66758 0.97608 0.37071
 C1144 C 0.68320 0.94922 0.38274
 C1145 C 0.70911 0.93856 0.36880
 H1146 H 0.71877 0.95150 0.35072
 O1147 O 0.34953 1.04979 0.39918
 O1148 O 0.31264 1.05527 0.36661
 C1149 C 0.32479 1.06180 0.39156
 C1150 C 0.31033 1.08386 0.41178
 C1151 C 0.28063 1.09320 0.40676
 H1152 H 0.26810 1.08331 0.38851
 O1153 O 0.39525 1.16213 0.49048
 O1154 O 0.36108 1.19785 0.49491
 C1155 C 0.38471 1.18773 0.48274
 C1156 C 0.39949 1.20520 0.45853
 C1157 C 0.38745 1.23291 0.44857
 H1158 H 0.36791 1.24220 0.45947
 O1159 O 0.60215 0.85805 0.45021
 O1160 O 0.63558 0.82159 0.44566
 C1161 C 0.61104 0.83387 0.43781
 C1162 C 0.59282 0.82031 0.41371
 C1163 C 0.60024 0.79191 0.40180
 H1164 H 0.61893 0.77944 0.41117
 O1165 O 0.60216 1.04823 0.34913
 O1166 O 0.63454 1.05036 0.31215
 C1167 C 0.61119 1.06018 0.32501
 C1168 C 0.59471 1.08625 0.31241
 C1169 C 0.60132 1.09741 0.28382
 H1170 H 0.61799 1.08609 0.27034
 O1171 O 0.38582 0.99563 0.34907
 O1172 O 0.34956 1.00092 0.31584
 C1173 C 0.37384 0.98842 0.32430
 C1174 C 0.38795 0.96431 0.30613
 C1175 C 0.37664 0.95615 0.27785
 H1176 H 0.35784 0.96843 0.26841
 O1177 O 0.52925 1.16347 0.40783
 O1178 O 0.52972 1.20293 0.37767
 C1179 C 0.54009 1.18881 0.40022
 C1180 C 0.56513 1.20208 0.41750
 C1181 C 0.57250 1.23249 0.41343
 H1182 H 0.55943 1.24621 0.39807
 O1183 O 0.45975 0.86896 0.38019
 O1184 O 0.45827 0.83659 0.34276
 C1185 C 0.44934 0.84514 0.36825
 C1186 C 0.42696 0.82696 0.38434
 C1187 C 0.42344 0.79624 0.37799
 H1188 H 0.43680 0.78631 0.36043
 O1189 O 0.65245 1.10950 0.47713
 O1190 O 0.68795 1.14401 0.48006
 C1191 C 0.67629 1.12128 0.46715
 C1192 C 0.68952 1.10987 0.43910
 C1193 C 0.71362 1.12524 0.42625
 H1194 H 0.72404 1.14374 0.43823
 O1195 O 0.34336 0.90464 0.46221
 O1196 O 0.30726 0.87081 0.45887
 C1197 C 0.31854 0.89597 0.45115
 C1198 C 0.30322 0.91530 0.42866
 C1199 C 0.27413 0.90852 0.41814
 H1200 H 0.26227 0.88925 0.42716
 Cu1201 Cu 0.48893 0.89372 0.36430
 Cu1202 Cu 0.48654 0.85527 0.31899
 Cu1203 Cu 0.49842 1.14372 0.38826
 Cu1204 Cu 0.49920 1.19108 0.35197
 Cu1205 Cu 0.37135 1.02230 0.37716
 Cu1206 Cu 0.32740 1.02897 0.33770
 Cu1207 Cu 0.61978 1.01669 0.36974
 Cu1208 Cu 0.65945 1.01982 0.32601
 C1209 C 0.41205 0.94783 0.31828
 H1210 H 0.42075 0.95369 0.34014
 C1211 C 0.38894 0.93146 0.26224
 C1212 C 0.57274 1.10072 0.32954
 H1213 H 0.56782 1.09244 0.35176
 C1214 C 0.58604 1.12270 0.27232
 C1215 C 0.31833 0.94048 0.41689
 H1216 H 0.34081 0.94572 0.42453
 C1217 C 0.26035 0.92671 0.39613
 C1218 C 0.67597 1.08620 0.42317
 H1219 H 0.65682 1.07474 0.43271
 C1220 C 0.72382 1.11785 0.39766
 C1221 C 0.40977 0.83999 0.40685
 H1222 H 0.41253 0.86382 0.41176
 C1223 C 0.40340 0.77820 0.39433
 C1224 C 0.58197 1.18464 0.43772
 H1225 H 0.57624 1.16108 0.44097
 C1226 C 0.59654 1.24563 0.42882
 C1227 C 0.41833 1.10550 0.33416
 H1228 H 0.42879 1.09278 0.35209
 C1229 C 0.39018 1.13939 0.28929
 C1230 C 0.56731 0.94443 0.31492
 H1231 H 0.55603 0.95666 0.33254
 C1232 C 0.59806 0.91031 0.27227
 C1233 C 0.56830 0.83629 0.40191
 H1234 H 0.56266 0.85831 0.41082
 C1235 C 0.58363 0.77962 0.37800
 C1236 C 0.42432 1.19295 0.44352
 H1237 H 0.43351 1.17145 0.45070
 C1238 C 0.39940 1.24775 0.42349
 C1239 C 0.32643 1.09614 0.43594
 H1240 H 0.34940 1.08918 0.43990
 C1241 C 0.26710 1.11492 0.42527
 C1242 C 0.67090 0.93266 0.40640
 H1243 H 0.65056 0.94068 0.41687
 C1244 C 0.72241 0.91123 0.37751
 O1245 O 0.52851 0.87929 0.63260
 O1246 O 0.52852 0.84029 0.66337
 C1247 C 0.53920 0.86559 0.65521
 C1248 C 0.56473 0.87851 0.67201
 C1249 C 0.57407 0.86469 0.69856
 H1250 H 0.56121 0.84596 0.70724
 O1251 O 0.47945 1.09789 0.65979
 O1252 O 0.48146 1.13039 0.69703
 C1253 C 0.46952 1.10756 0.68447
 C1254 C 0.44249 1.09345 0.69749
 C1255 C 0.42697 1.10826 0.72047
 H1256 H 0.43597 1.12874 0.73026
 O1257 O 0.35525 1.02620 0.61251
 O1258 O 0.32094 1.02300 0.64769
 C1259 C 0.33119 1.03556 0.62432
 C1260 C 0.31508 1.06155 0.61107
 C1261 C 0.28579 1.06794 0.61987
 H1262 H 0.27557 1.05365 0.63656
 O1263 O 0.65171 0.95958 0.59928
 O1264 O 0.68785 0.95401 0.63259
 C1265 C 0.67631 0.94758 0.60736
 C1266 C 0.69102 0.92539 0.58736
 C1267 C 0.71916 0.91287 0.59456
 H1268 H 0.73083 0.92042 0.61444
 O1269 O 0.60408 0.85334 0.50810
 O1270 O 0.63804 0.81742 0.50349
 C1271 C 0.61447 0.82771 0.51574
 C1272 C 0.60005 0.81000 0.53993
 C1273 C 0.61430 0.78388 0.55056
 H1274 H 0.63426 0.77592 0.53944
 O1275 O 0.39876 1.15388 0.54849
 O1276 O 0.36521 1.19023 0.55292
 C1277 C 0.38967 1.17781 0.56111
 C1278 C 0.40802 1.19138 0.58525
 C1279 C 0.40507 1.22206 0.59234
 H1280 H 0.38912 1.23594 0.58015
 O1281 O 0.39591 0.96313 0.64737
 O1282 O 0.36297 0.96135 0.68389
 C1283 C 0.38643 0.95128 0.67135
 C1284 C 0.40266 0.92524 0.68440
 C1285 C 0.39678 0.91557 0.71365
 H1286 H 0.38050 0.92754 0.72709
 O1287 O 0.61290 1.01310 0.64847
 O1288 O 0.64831 1.00705 0.68251
 C1289 C 0.62423 1.01974 0.67368
 C1290 C 0.60995 1.04335 0.69234
 C1291 C 0.62167 1.05027 0.72064
 H1292 H 0.64052 1.03744 0.72919
 O1293 O 0.46617 0.84420 0.59100
 O1294 O 0.46626 0.80549 0.62203
 C1295 C 0.45488 0.81943 0.59990
 C1296 C 0.42734 0.80764 0.58529
 C1297 C 0.41165 0.78299 0.59765
 H1298 H 0.42046 0.77158 0.61723
 O1299 O 0.53805 1.14032 0.62093
 O1300 O 0.54071 1.17288 0.65813
 C1301 C 0.54896 1.16410 0.63244
 C1302 C 0.57120 1.18174 0.61546
 C1303 C 0.57516 1.21271 0.62085
 H1304 H 0.56194 1.22382 0.63785
 O1305 O 0.34553 0.89975 0.52047
 O1306 O 0.30913 0.86617 0.51745
 C1307 C 0.32132 0.88866 0.53033
 C1308 C 0.30829 0.90045 0.55828
 C1309 C 0.28470 0.88476 0.57165
 H1310 H 0.27456 0.86581 0.56012
 O1311 O 0.65411 1.10392 0.53603
 O1312 O 0.68908 1.13895 0.53942
 C1313 C 0.67798 1.11395 0.54802
 C1314 C 0.69173 1.09763 0.57373
 C1315 C 0.71136 1.11310 0.59294
 H1316 H 0.71782 1.13614 0.58780
 O1317 O 0.53816 1.09608 0.65925
 O1318 O 0.54104 1.12780 0.69703
 C1319 C 0.54979 1.10385 0.68403
 C1320 C 0.57410 1.08500 0.69730
 C1321 C 0.58647 1.09181 0.72549
 H1322 H 0.57758 1.11055 0.73822
 O1323 O 0.47057 0.88090 0.63609
 O1324 O 0.47095 0.84236 0.66739
 C1325 C 0.46161 0.86853 0.66009
 C1326 C 0.43975 0.88485 0.67915
 C1327 C 0.43428 0.87604 0.70885
 H1328 H 0.44660 0.85726 0.71848
 O1329 O 0.65321 1.01794 0.60781
 O1330 O 0.68871 1.01277 0.64192
 C1331 C 0.67754 1.02687 0.61973
 C1332 C 0.69177 1.05506 0.60887
 C1333 C 0.71177 1.07094 0.62755
 H1334 H 0.71818 1.06171 0.64908
 O1335 O 0.35234 0.96739 0.60890
 O1336 O 0.31934 0.96409 0.64524
 C1337 C 0.32847 0.95608 0.61964
 C1338 C 0.31190 0.93268 0.60251
 C1339 C 0.28804 0.91647 0.61557
 H1340 H 0.28082 0.92166 0.63805
 O1341 O 0.61410 1.14583 0.53984
 O1342 O 0.64900 1.18115 0.54199
 C1343 C 0.62473 1.16973 0.55143
 C1344 C 0.60852 1.18440 0.57600
 C1345 C 0.61291 1.21517 0.58216
 H1346 H 0.62853 1.22830 0.56898
 O1347 O 0.38417 0.85704 0.51619
 O1348 O 0.34772 0.82345 0.51365
 C1349 C 0.37253 0.83230 0.52465
 C1350 C 0.38717 0.81426 0.54850
 C1351 C 0.37205 0.78960 0.56102
 H1352 H 0.35074 0.78275 0.55161
 O1353 O 0.61216 0.95450 0.64151
 O1354 O 0.64790 0.94829 0.67513
 C1355 C 0.62286 0.94046 0.66396
 C1356 C 0.60599 0.91451 0.67659
 C1357 C 0.61530 0.89997 0.70319
 H1358 H 0.63500 0.90789 0.71502
 O1359 O 0.39669 1.02235 0.65257
 O1360 O 0.36244 1.02061 0.68787
 C1361 C 0.38642 1.03172 0.67732
 C1362 C 0.40147 1.05692 0.69326
 C1363 C 0.38604 1.07265 0.71563
 H1364 H 0.36381 1.06541 0.72215
 O1365 O 0.48014 1.14388 0.62440
 O1366 O 0.48326 1.17642 0.66160
 C1367 C 0.47175 1.16827 0.63689
 C1368 C 0.44829 1.18700 0.62234
 C1369 C 0.44493 1.21789 0.62927
 H1370 H 0.45973 1.22852 0.64538
 O1371 O 0.52555 0.84269 0.58801
 O1372 O 0.52612 0.80371 0.61871
 C1373 C 0.53633 0.81727 0.59582
 C1374 C 0.56212 0.80439 0.57902
 C1375 C 0.57737 0.77850 0.58964
 H1376 H 0.56948 0.76705 0.60948
 O1377 O 0.64687 0.89277 0.50992
 O1378 O 0.68079 0.85687 0.50479
 C1379 C 0.67134 0.88045 0.51790
 C1380 C 0.68853 0.89297 0.54330
 C1381 C 0.71660 0.88083 0.55078
 H1382 H 0.72581 0.86295 0.53718
 O1383 O 0.35429 1.11575 0.54510
 O1384 O 0.32029 1.15153 0.55030
 C1385 C 0.33021 1.12543 0.55686
 C1386 C 0.31413 1.10586 0.57850
 C1387 C 0.28430 1.11181 0.58736
 H1388 H 0.27231 1.13092 0.57799
 Cu1389 Cu 0.49746 0.86542 0.60858
 Cu1390 Cu 0.49787 0.81877 0.64565
 Cu1391 Cu 0.50883 1.11625 0.63748
 Cu1392 Cu 0.51223 1.15474 0.68255
 Cu1393 Cu 0.36755 0.88424 0.48926
 Cu1394 Cu 0.32400 0.84363 0.48598
 Cu1395 Cu 0.62129 0.87919 0.48025
 Cu1396 Cu 0.66166 0.83567 0.47468
 Cu1397 Cu 0.37937 1.13448 0.51761
 Cu1398 Cu 0.33853 1.17737 0.52315
 Cu1399 Cu 0.63014 1.12431 0.50846
 Cu1400 Cu 0.67272 1.16589 0.51182
 Cu1401 Cu 0.37848 0.99480 0.62681
 Cu1402 Cu 0.33812 0.99199 0.66984
 Cu1403 Cu 0.62896 0.98663 0.62088
 Cu1404 Cu 0.67183 0.97978 0.66135
 C1405 C 0.58059 0.90355 0.66127
 H1406 H 0.57349 0.91410 0.64056
 C1407 C 0.59942 0.87479 0.71414
 C1408 C 0.42972 1.06754 0.68425
 H1409 H 0.44126 1.05630 0.66616
 C1410 C 0.39846 1.09844 0.72895
 C1411 C 0.32902 1.08041 0.59024
 H1412 H 0.35189 1.07563 0.58371
 C1413 C 0.26975 1.09237 0.60770
 C1414 C 0.67608 0.91549 0.56146
 H1415 H 0.65417 0.92455 0.55597
 C1416 C 0.73214 0.89055 0.57629
 C1417 C 0.57379 0.82001 0.55411
 H1418 H 0.56297 0.84050 0.54630
 C1419 C 0.60387 0.76850 0.57581
 C1420 C 0.42977 1.17407 0.60027
 H1421 H 0.43229 1.15036 0.59475
 C1422 C 0.42369 1.23552 0.61389
 C1423 C 0.42409 0.90976 0.66739
 H1424 H 0.42822 0.91683 0.64460
 C1425 C 0.41288 0.89144 0.72621
 C1426 C 0.58593 1.06057 0.68106
 H1427 H 0.57702 1.05551 0.65908
 C1428 C 0.61015 1.07440 0.73739
 C1429 C 0.41491 0.82302 0.56062
 H1430 H 0.42640 0.84243 0.55140
 C1431 C 0.38369 0.77423 0.58592
 C1432 C 0.58766 1.16787 0.59270
 H1433 H 0.58440 1.14404 0.58811
 C1434 C 0.59571 1.22956 0.60399
 C1435 C 0.32165 0.92457 0.57374
 H1436 H 0.34044 0.93629 0.56380
 C1437 C 0.27493 0.89206 0.60035
 C1438 C 0.68207 1.06850 0.58189
 H1439 H 0.66595 1.05684 0.56788
 C1440 C 0.72085 1.10024 0.62005
 O1441 O 0.61902 0.51781 1.14858
 O1442 O 0.65601 0.51441 1.18129
 C1443 C 0.63174 0.52667 1.17245
 C1444 C 0.61928 0.55286 1.18888
 C1445 C 0.63696 0.56797 1.21035
 H1446 H 0.65900 0.55947 1.21627
 O1447 O 0.40820 0.45683 1.15459
 O1448 O 0.37513 0.45388 1.19087
 C1449 C 0.39826 0.44381 1.17789
 C1450 C 0.41262 0.41566 1.18897
 C1451 C 0.39851 0.39804 1.21094
 H1452 H 0.37787 0.40585 1.22103
 O1453 O 0.54101 0.64513 1.11891
 O1454 O 0.54437 0.67776 1.15591
 C1455 C 0.55305 0.66833 1.13058
 C1456 C 0.57835 0.68310 1.11481
 C1457 C 0.59478 0.70704 1.12783
 H1458 H 0.58817 0.71622 1.14922
 O1459 O 0.47986 0.34135 1.09391
 O1460 O 0.48271 0.30194 1.12400
 C1461 C 0.47036 0.31562 1.10212
 C1462 C 0.44387 0.30204 1.08707
 C1463 C 0.43425 0.27297 1.09500
 H1464 H 0.44715 0.25991 1.11103
 O1465 O 0.65397 0.60176 1.03180
 O1466 O 0.68966 0.63621 1.03063
 C1467 C 0.67889 0.61196 1.04128
 C1468 C 0.69462 0.59675 1.06631
 C1469 C 0.71731 0.61208 1.08188
 H1470 H 0.72460 0.63413 1.07426
 O1471 O 0.35219 0.39279 1.02874
 O1472 O 0.31550 0.35939 1.02901
 C1473 C 0.32801 0.38275 1.03979
 C1474 C 0.31494 0.39836 1.06575
 C1475 C 0.28491 0.39376 1.07416
 H1476 H 0.27067 0.37868 1.06139
 O1477 O 0.48476 0.60111 1.15943
 O1478 O 0.48654 0.63388 1.19646
 C1479 C 0.47556 0.61017 1.18465
 C1480 C 0.45083 0.59361 1.19941
 C1481 C 0.43425 0.60732 1.22245
 H1482 H 0.44032 0.62957 1.23053
 O1483 O 0.54028 0.37843 1.13639
 O1484 O 0.54179 0.34013 1.16800
 C1485 C 0.55082 0.36611 1.15982
 C1486 C 0.57346 0.38248 1.17783
 C1487 C 0.57664 0.37670 1.20847
 H1488 H 0.56261 0.35978 1.21894
 O1489 O 0.65596 0.46179 1.10059
 O1490 O 0.69286 0.45782 1.13332
 C1491 C 0.68096 0.45054 1.10847
 C1492 C 0.69641 0.42908 1.08832
 C1493 C 0.72645 0.42106 1.09349
 H1494 H 0.73842 0.43049 1.11241
 O1495 O 0.36621 0.52095 1.12167
 O1496 O 0.33393 0.51801 1.15873
 C1497 C 0.34273 0.53040 1.13474
 C1498 C 0.32551 0.55627 1.12240
 C1499 C 0.29898 0.56558 1.13637
 H1500 H 0.29077 0.55305 1.15542
 O1501 O 0.39740 0.64886 1.04985
 O1502 O 0.36151 0.68274 1.05490
 C1503 C 0.38688 0.67211 1.06272
 C1504 C 0.40381 0.68633 1.08765
 C1505 C 0.39137 0.71057 1.10357
 H1506 H 0.36970 0.71962 1.09710
 O1507 O 0.61348 0.35185 1.00980
 O1508 O 0.64873 0.31728 1.00463
 C1509 C 0.62493 0.32660 1.01707
 C1510 C 0.61083 0.30805 1.04056
 C1511 C 0.62260 0.27953 1.04748
 H1512 H 0.64179 0.27140 1.03522
 O1513 O 0.41104 0.51664 1.15845
 O1514 O 0.37828 0.51330 1.19499
 C1515 C 0.40149 0.52527 1.18367
 C1516 C 0.41542 0.55136 1.19898
 C1517 C 0.39961 0.56526 1.22207
 H1518 H 0.37925 0.55496 1.23040
 O1519 O 0.61776 0.45875 1.14412
 O1520 O 0.65392 0.45493 1.17770
 C1521 C 0.62881 0.44632 1.16725
 C1522 C 0.61197 0.42155 1.18167
 C1523 C 0.61547 0.41500 1.21226
 H1524 H 0.63106 0.42798 1.22571
 O1525 O 0.53877 0.34069 1.09192
 O1526 O 0.54190 0.30197 1.12282
 C1527 C 0.55036 0.31549 1.09931
 C1528 C 0.57446 0.30234 1.08071
 C1529 C 0.58655 0.27366 1.08728
 H1530 H 0.57724 0.26050 1.10538
 O1531 O 0.48228 0.64578 1.12206
 O1532 O 0.48518 0.67865 1.15890
 C1533 C 0.47285 0.66955 1.13491
 C1534 C 0.44624 0.68567 1.12265
 C1535 C 0.43354 0.71034 1.13799
 H1536 H 0.44408 0.71894 1.15810
 O1537 O 0.35658 0.60712 1.04905
 O1538 O 0.32055 0.64083 1.05419
 C1539 C 0.33277 0.61601 1.06184
 C1540 C 0.32003 0.59778 1.08661
 C1541 C 0.29334 0.60662 1.10091
 H1542 H 0.28126 0.62639 1.09312
 O1543 O 0.65376 0.39381 1.01101
 O1544 O 0.68927 0.35952 1.00581
 C1545 C 0.67893 0.38283 1.01883
 C1546 C 0.69583 0.39690 1.04387
 C1547 C 0.72612 0.38970 1.04907
 H1548 H 0.73755 0.37432 1.03416
 O1549 O 0.48241 0.37571 1.14046
 O1550 O 0.48411 0.33616 1.17050
 C1551 C 0.47332 0.36180 1.16358
 C1552 C 0.44915 0.37515 1.18179
 C1553 C 0.43465 0.35782 1.20379
 H1554 H 0.44181 0.33484 1.20830
 O1555 O 0.54303 0.60022 1.15574
 O1556 O 0.54545 0.63275 1.19293
 C1557 C 0.55507 0.60913 1.17992
 C1558 C 0.58173 0.59319 1.19213
 C1559 C 0.59974 0.60772 1.21342
 H1560 H 0.59312 0.62961 1.22204
 O1561 O 0.36549 0.46274 1.11507
 O1562 O 0.33246 0.46070 1.15153
 C1563 C 0.34087 0.45312 1.12556
 C1564 C 0.32162 0.43307 1.10748
 C1565 C 0.29156 0.42887 1.11517
 H1566 H 0.28256 0.44051 1.13442
 O1567 O 0.65799 0.52003 1.10666
 O1568 O 0.69488 0.51642 1.13949
 C1569 C 0.68295 0.52924 1.11695
 C1570 C 0.69706 0.55620 1.10340
 C1571 C 0.72026 0.57167 1.11836
 H1572 H 0.72943 0.56280 1.13905
 O1573 O 0.39206 0.35061 1.02384
 O1574 O 0.35588 0.31669 1.02473
 C1575 C 0.38156 0.32574 1.03341
 C1576 C 0.39957 0.30735 1.05479
 C1577 C 0.38988 0.27848 1.06390
 H1578 H 0.36900 0.26933 1.05541
 O1579 O 0.61392 0.64333 1.03636
 O1580 O 0.64986 0.67754 1.03486
 C1581 C 0.62621 0.66701 1.04666
 C1582 C 0.61391 0.68184 1.07346
 C1583 C 0.62974 0.70557 1.08660
 H1584 H 0.64961 0.71423 1.07574
 Cu1585 Cu 0.63393 0.48974 1.12181
 Cu1586 Cu 0.67804 0.48505 1.16137
 Cu1587 Cu 0.39131 0.48938 1.13394
 Cu1588 Cu 0.35203 0.48597 1.17798
 Cu1589 Cu 0.51244 0.61996 1.13526
 Cu1590 Cu 0.51563 0.65900 1.17980
 Cu1591 Cu 0.51021 0.36284 1.11250
 Cu1592 Cu 0.51315 0.31593 1.14913
 C1593 C 0.59157 0.56559 1.18008
 H1594 H 0.57828 0.55470 1.16288
 C1595 C 0.62749 0.59566 1.22206
 C1596 C 0.43824 0.40419 1.17491
 H1597 H 0.44884 0.41731 1.15747
 C1598 C 0.40924 0.36911 1.21819
 C1599 C 0.58809 0.67091 1.08747
 H1600 H 0.57617 0.65211 1.07750
 C1601 C 0.62086 0.71791 1.11386
 C1602 C 0.42664 0.31887 1.06653
 H1603 H 0.43390 0.34136 1.06032
 C1604 C 0.40736 0.26110 1.08368
 C1605 C 0.68471 0.56875 1.07716
 H1606 H 0.66649 0.55731 1.06580
 C1607 C 0.72990 0.59994 1.10799
 C1608 C 0.33303 0.41815 1.08248
 H1609 H 0.35629 0.42144 1.07644
 C1610 C 0.27299 0.40960 1.09852
 C1611 C 0.44122 0.56554 1.18786
 H1612 H 0.45301 0.55537 1.16932
 C1613 C 0.40810 0.59350 1.23307
 C1614 C 0.59092 0.40518 1.16474
 H1615 H 0.58821 0.41005 1.14115
 C1616 C 0.59719 0.39317 1.22590
 C1617 C 0.68133 0.41697 1.06340
 H1618 H 0.65801 0.42271 1.05954
 C1619 C 0.74157 0.40181 1.07375
 C1620 C 0.33578 0.57237 1.09744
 H1621 H 0.35651 0.56555 1.08690
 C1622 C 0.28282 0.59071 1.12599
 C1623 C 0.43141 0.67424 1.09722
 H1624 H 0.44075 0.65501 1.08555
 C1625 C 0.40604 0.72260 1.12864
 C1626 C 0.58659 0.31920 1.05706
 H1627 H 0.57773 0.34145 1.05204
 C1628 C 0.61068 0.26207 1.07069
 O1629 O 0.59169 0.48075 0.84287
 O1630 O 0.62424 0.48399 0.80612
 C1631 C 0.60109 0.47208 0.81765
 C1632 C 0.58663 0.44631 0.80243
 C1633 C 0.60198 0.43198 0.77933
 H1634 H 0.62280 0.44145 0.77118
 O1635 O 0.38676 0.54164 0.85585
 O1636 O 0.34993 0.54545 0.82305
 C1637 C 0.37531 0.55406 0.83285
 C1638 C 0.39166 0.57949 0.81865
 C1639 C 0.38695 0.58828 0.78861
 H1640 H 0.37117 0.57596 0.77479
 O1641 O 0.46466 0.66085 0.90938
 O1642 O 0.46354 0.69948 0.87823
 C1643 C 0.45428 0.68648 0.90172
 C1644 C 0.43072 0.70094 0.91994
 C1645 C 0.42043 0.73009 0.91306
 H1646 H 0.43052 0.74273 0.89496
 O1647 O 0.51949 0.35833 0.88240
 O1648 O 0.51755 0.32452 0.84630
 C1649 C 0.52968 0.33472 0.87002
 C1650 C 0.55658 0.31946 0.88235
 C1651 C 0.56678 0.29284 0.86896
 H1652 H 0.55383 0.28275 0.85106
 O1653 O 0.65083 0.39753 0.95269
 O1654 O 0.68624 0.36313 0.94751
 C1655 C 0.67455 0.38818 0.94006
 C1656 C 0.68778 0.40639 0.91583
 C1657 C 0.71695 0.40086 0.90528
 H1658 H 0.73051 0.38358 0.91589
 O1659 O 0.35408 0.61085 0.99038
 O1660 O 0.31819 0.64471 0.99549
 C1661 C 0.32897 0.62170 0.98228
 C1662 C 0.31243 0.60823 0.95666
 C1663 C 0.28353 0.61864 0.94951
 H1664 H 0.27334 0.63587 0.96325
 O1665 O 0.51960 0.62284 0.86145
 O1666 O 0.51860 0.66157 0.83034
 C1667 C 0.52821 0.63552 0.83749
 C1668 C 0.54955 0.61972 0.81778
 C1669 C 0.55521 0.63051 0.78885
 H1670 H 0.54380 0.65064 0.78101
 O1671 O 0.45737 0.39931 0.84644
 O1672 O 0.45533 0.36564 0.81025
 C1673 C 0.44566 0.38970 0.82239
 C1674 C 0.42007 0.40637 0.80901
 C1675 C 0.40562 0.39564 0.78318
 H1676 H 0.41379 0.37539 0.77236
 O1677 O 0.63589 0.53578 0.88546
 O1678 O 0.66822 0.53910 0.84844
 C1679 C 0.65998 0.54617 0.87464
 C1680 C 0.67909 0.56604 0.89286
 C1681 C 0.70939 0.56943 0.88577
 H1682 H 0.71869 0.55747 0.86684
 O1683 O 0.34727 0.48198 0.89696
 O1684 O 0.30931 0.48624 0.86547
 C1685 C 0.32141 0.47383 0.88821
 C1686 C 0.30555 0.44932 0.90431
 C1687 C 0.27524 0.44348 0.89835
 H1688 H 0.26317 0.45747 0.88245
 O1689 O 0.60914 0.64724 0.97891
 O1690 O 0.64535 0.68114 0.97763
 C1691 C 0.61948 0.67229 0.96964
 C1692 C 0.60147 0.69134 0.94919
 C1693 C 0.61040 0.72108 0.94314
 H1694 H 0.63020 0.73020 0.95394
 O1695 O 0.38805 0.35420 0.96621
 O1696 O 0.35232 0.31974 0.96685
 C1697 C 0.37650 0.33011 0.95604
 C1698 C 0.39170 0.31386 0.93170
 C1699 C 0.38603 0.28321 0.92689
 H1700 H 0.36992 0.27166 0.94087
 O1701 O 0.38407 0.48231 0.85277
 O1702 O 0.34638 0.48572 0.82093
 C1703 C 0.37074 0.47329 0.82927
 C1704 C 0.38330 0.44733 0.81233
 C1705 C 0.36883 0.43596 0.78671
 H1706 H 0.34897 0.44724 0.77826
 O1707 O 0.59368 0.54013 0.84576
 O1708 O 0.62542 0.54342 0.80830
 C1709 C 0.60224 0.55273 0.82173
 C1710 C 0.58549 0.57899 0.80985
 C1711 C 0.59110 0.59018 0.78102
 H1712 H 0.60708 0.57871 0.76686
 O1713 O 0.46105 0.35461 0.88399
 O1714 O 0.45900 0.32048 0.84820
 C1715 C 0.45059 0.33006 0.87351
 C1716 C 0.42803 0.31327 0.89114
 C1717 C 0.42184 0.28236 0.88622
 H1718 H 0.43375 0.27001 0.86911
 O1719 O 0.52337 0.65893 0.90683
 O1720 O 0.52236 0.69775 0.87588
 C1721 C 0.53378 0.68415 0.89822
 C1722 C 0.55982 0.69730 0.91406
 C1723 C 0.56964 0.72679 0.90762
 H1724 H 0.55773 0.74047 0.89134
 O1725 O 0.34855 0.39683 0.97069
 O1726 O 0.31228 0.36300 0.97065
 C1727 C 0.32314 0.38785 0.96133
 C1728 C 0.30640 0.40667 0.93934
 C1729 C 0.27619 0.40059 0.93225
 H1730 H 0.26469 0.38191 0.94285
 O1731 O 0.64918 0.60478 0.97308
 O1732 O 0.68559 0.63848 0.97216
 C1733 C 0.67308 0.61505 0.96160
 C1734 C 0.68591 0.59975 0.93535
 C1735 C 0.71612 0.60377 0.92737
 H1736 H 0.73061 0.61815 0.94065
 O1737 O 0.51556 0.39927 0.84179
 O1738 O 0.51397 0.36554 0.80558
 C1739 C 0.52478 0.38958 0.81678
 C1740 C 0.54962 0.40558 0.80172
 C1741 C 0.56555 0.39149 0.77846
 H1742 H 0.55860 0.36960 0.77012
 O1743 O 0.46203 0.62279 0.86557
 O1744 O 0.46121 0.66116 0.83400
 C1745 C 0.45158 0.63547 0.84231
 C1746 C 0.42870 0.61972 0.82423
 C1747 C 0.42384 0.62819 0.79456
 H1748 H 0.43617 0.64720 0.78565
 O1749 O 0.34998 0.54045 0.90078
 O1750 O 0.31268 0.54489 0.86859
 C1751 C 0.32524 0.55244 0.89305
 C1752 C 0.31088 0.57528 0.91272
 C1753 C 0.28200 0.58622 0.90600
 H1754 H 0.27015 0.57764 0.88664
 O1755 O 0.63850 0.47816 0.87771
 O1756 O 0.67057 0.48206 0.84053
 C1757 C 0.66251 0.46984 0.86483
 C1758 C 0.68134 0.44597 0.87852
 C1759 C 0.71033 0.44012 0.86798
 H1760 H 0.71839 0.45298 0.84915
 O1761 O 0.60893 0.35689 0.95219
 O1762 O 0.64402 0.32220 0.94685
 C1763 C 0.61865 0.33320 0.93947
 C1764 C 0.60034 0.31866 0.91564
 C1765 C 0.61007 0.29183 0.90179
 H1766 H 0.63091 0.28131 0.90877
 O1767 O 0.39195 0.65497 0.99209
 O1768 O 0.35623 0.68907 0.99697
 C1769 C 0.38008 0.67998 0.98446
 C1770 C 0.39401 0.69793 0.96023
 C1771 C 0.38369 0.72712 0.95276
 H1772 H 0.36565 0.73744 0.96525
 Cu1773 Cu 0.61149 0.50836 0.86649
 Cu1774 Cu 0.64997 0.51280 0.82181
 Cu1775 Cu 0.37095 0.51136 0.87952
 Cu1776 Cu 0.32590 0.51611 0.84122
 Cu1777 Cu 0.62811 0.62057 1.00485
 Cu1778 Cu 0.67135 0.66167 1.00344
 Cu1779 Cu 0.62836 0.37862 0.98184
 Cu1780 Cu 0.67061 0.33707 0.97571
 Cu1781 Cu 0.37853 0.62706 1.01988
 Cu1782 Cu 0.33545 0.66761 1.02592
 Cu1783 Cu 0.37370 0.37709 0.99735
 Cu1784 Cu 0.33028 0.33634 0.99777
 Cu1785 Cu 0.49257 0.63764 0.88916
 Cu1786 Cu 0.49123 0.68410 0.85169
 Cu1787 Cu 0.48829 0.38125 0.86725
 Cu1788 Cu 0.48615 0.34063 0.82396
 C1789 C 0.56026 0.43316 0.81341
 H1790 H 0.54885 0.44367 0.83199
 C1791 C 0.59217 0.40436 0.76795
 C1792 C 0.41280 0.59528 0.83601
 H1793 H 0.41661 0.58881 0.85907
 C1794 C 0.40375 0.61228 0.77622
 C1795 C 0.41758 0.68519 0.94371
 H1796 H 0.42534 0.66258 0.94895
 C1797 C 0.39706 0.74321 0.92929
 C1798 C 0.57338 0.33221 0.90582
 H1799 H 0.56585 0.35309 0.91591
 C1800 C 0.59346 0.27906 0.87822
 C1801 C 0.67041 0.42917 0.90252
 H1802 H 0.64789 0.43341 0.91047
 C1803 C 0.72867 0.41796 0.88148
 C1804 C 0.32587 0.58631 0.93827
 H1805 H 0.34825 0.57832 0.94348
 C1806 C 0.26809 0.60777 0.92435
 C1807 C 0.56451 0.59376 0.82793
 H1808 H 0.56039 0.58548 0.85031
 C1809 C 0.57579 0.61576 0.77022
 C1810 C 0.40896 0.43240 0.82312
 H1811 H 0.41992 0.44061 0.84316
 C1812 C 0.37985 0.41010 0.77200
 C1813 C 0.66759 0.58080 0.91796
 H1814 H 0.64419 0.57792 0.92367
 C1815 C 0.72798 0.58797 0.90299
 C1816 C 0.32081 0.43111 0.92520
 H1817 H 0.34420 0.43561 0.93002
 C1818 C 0.26045 0.41931 0.91220
 C1819 C 0.57584 0.67979 0.93500
 H1820 H 0.56889 0.65680 0.93960
 C1821 C 0.59467 0.73886 0.92243
 C1822 C 0.41285 0.32863 0.91397
 H1823 H 0.41729 0.35240 0.91782
 C1824 C 0.40132 0.26712 0.90471
 N1825 N 1.14783 1.06113 1.27824
 N1826 N 1.15598 1.07534 1.30479
 C1827 C 1.14185 1.10235 1.30588
 C1828 C 1.12455 1.10567 1.28002
 C1829 C 1.12902 1.07961 1.26320
 H1830 H 1.11118 1.12503 1.27366
 H1831 H 1.15499 1.03953 1.27226
 H1832 H 1.16949 1.06519 1.32102
 N1833 N 1.16501 0.58443 0.75758
 N1834 N 1.17309 0.59730 0.78293
 C1835 C 1.14920 0.61166 0.79456
 C1836 C 1.12480 0.60780 0.77551
 C1837 C 1.13574 0.59021 0.75239
 H1838 H 1.10217 0.61606 0.77836
 H1839 H 1.17976 0.57254 0.74390
 H1840 H 1.19488 0.59670 0.79151
 N1841 N 0.63810 1.06165 0.78453
 N1842 N 0.64822 1.07576 0.80853
 C1843 C 0.64062 1.10524 0.80673
 C1844 C 0.62473 1.10986 0.78030
 C1845 C 0.62369 1.08170 0.76684
 H1846 H 0.61586 1.13085 0.77154
 H1847 H 0.64075 1.03852 0.78077
 H1848 H 0.65966 1.06497 0.82591
 N1849 N 0.65368 0.64363 1.23065
 N1850 N 0.66227 0.65992 1.25576
 C1851 C 0.66229 0.64090 1.27929
 C1852 C 0.65415 0.61208 1.26969
 C1853 C 0.64794 0.61509 1.23933
 H1854 H 0.64791 0.59321 1.28377
 H1855 H 0.64800 0.65334 1.21011
 H1856 H 0.66495 0.68338 1.25626
 N1857 N 0.91231 0.82762 1.25697
 N1858 N 0.89813 0.81968 1.28153
 C1859 C 0.88258 0.84359 1.29181
 C1860 C 0.88716 0.86793 1.27276
 C1861 C 0.90631 0.85693 1.25087
 H1862 H 0.87784 0.89041 1.27469
 H1863 H 0.92508 0.81255 1.24444
 H1864 H 0.89844 0.79780 1.29029
 N1865 N 0.93777 0.36074 0.78057
 N1866 N 0.92578 0.35398 0.80664
 C1867 C 0.89705 0.36352 0.80675
 C1868 C 0.89063 0.37708 0.77954
 C1869 C 0.91697 0.37475 0.76354
 H1870 H 0.86947 0.38636 0.77198
 H1871 H 0.95999 0.35609 0.77494
 H1872 H 0.93743 0.34337 0.82401
 N1873 N 0.43090 0.87675 0.77691
 N1874 N 0.41952 0.87066 0.80340
 C1875 C 0.38929 0.87300 0.80199
 C1876 C 0.38137 0.88166 0.77310
 C1877 C 0.40842 0.88341 0.75793
 H1878 H 0.35910 0.88460 0.76385
 H1879 H 0.45378 0.87646 0.77207
 H1880 H 0.43266 0.86479 0.82184
 N1881 N 0.36388 0.33835 1.22367
 N1882 N 0.34606 0.32865 1.24718
 C1883 C 0.36148 0.33294 1.27282
 C1884 C 0.38958 0.34496 1.26617
 C1885 C 0.38974 0.34870 1.23526
 H1886 H 0.40570 0.35409 1.28189
 H1887 H 0.35653 0.34074 1.20161
 H1888 H 0.32402 0.32106 1.24477
 N1889 N 0.91803 1.13085 0.72923
 N1890 N 0.90399 1.14209 0.70373
 C1891 C 0.87423 1.13731 0.70642
 C1892 C 0.86887 1.12213 0.73320
 C1893 C 0.89671 1.11962 0.74726
 H1894 H 0.84727 1.11743 0.74307
 H1895 H 0.94093 1.13278 0.73376
 H1896 H 0.91522 1.15300 0.68640
 N1897 N 0.93029 0.61694 0.22575
 N1898 N 0.92147 0.62441 0.19684
 C1899 C 0.89117 0.62372 0.19556
 C1900 C 0.88032 0.61486 0.22351
 C1901 C 0.90546 0.61157 0.24176
 H1902 H 0.85722 0.61344 0.23058
 H1903 H 0.95247 0.61638 0.23332
 H1904 H 0.93662 0.62934 0.17987
 N1905 N 0.34617 1.16965 0.27392
 N1906 N 0.33370 1.17859 0.24864
 C1907 C 0.35279 1.17292 0.22612
 C1908 C 0.37878 1.16010 0.23762
 C1909 C 0.37346 1.15823 0.26801
 H1910 H 0.39704 1.15000 0.22533
 H1911 H 0.33533 1.16951 0.29454
 H1912 H 0.31175 1.18662 0.24673
 N1913 N 0.42388 0.63526 0.72940
 N1914 N 0.41397 0.64368 0.70286
 C1915 C 0.38528 0.63488 0.69996
 C1916 C 0.37650 0.61993 0.72585
 C1917 C 0.40160 0.62116 0.74427
 H1918 H 0.35447 0.61133 0.73122
 H1919 H 0.44562 0.63947 0.73705
 H1920 H 0.42670 0.65543 0.68717
 N1921 N 1.11212 0.85037 0.75262
 N1922 N 1.12665 0.83870 0.72985
 C1923 C 1.13286 0.86090 0.71026
 C1924 C 1.12193 0.88810 0.72101
 C1925 C 1.10864 0.88022 0.74784
 H1926 H 1.12111 0.90971 0.70968
 H1927 H 1.10393 0.83784 0.77059
 H1928 H 1.13071 0.81562 0.72702
 N1929 N 1.15123 0.38535 0.25815
 N1930 N 1.16491 0.37106 0.23426
 C1931 C 1.14327 0.36190 0.21525
 C1932 C 1.11534 0.37014 0.22642
 C1933 C 1.12149 0.38545 0.25293
 H1934 H 1.09399 0.36899 0.21489
 H1935 H 1.16269 0.39595 0.27562
 H1936 H 1.18804 0.37041 0.23073
 N1937 N 0.61718 0.85894 0.26231
 N1938 N 0.63011 0.84416 0.24035
 C1939 C 0.63675 0.86395 0.21848
 C1940 C 0.62816 0.89282 0.22718
 C1941 C 0.61553 0.88843 0.25498
 H1942 H 0.62895 0.91354 0.21433
 H1943 H 0.60894 0.84877 0.28167
 H1944 H 0.63399 0.82088 0.24052
 N1945 N 0.64227 0.38742 0.75167
 N1946 N 0.65476 0.37725 0.72708
 C1947 C 0.63298 0.37116 0.70713
 C1948 C 0.60524 0.37726 0.71960
 C1949 C 0.61230 0.38806 0.74776
 H1950 H 0.58355 0.37707 0.70866
 H1951 H 0.65424 0.39516 0.77025
 H1952 H 0.67787 0.37570 0.72372
 N1953 N 1.23735 1.11738 1.15685
 N1954 N 1.25725 1.13532 1.16951
 C1955 C 1.27849 1.14249 1.14929
 C1956 C 1.27115 1.12891 1.12222
 C1957 C 1.24514 1.11291 1.12826
 H1958 H 1.28362 1.12926 1.10157
 H1959 H 1.21858 1.10860 1.16768
 H1960 H 1.25595 1.14228 1.19171
 N1961 N 1.28788 0.56172 0.61552
 N1962 N 1.31161 0.57616 0.62981
 C1963 C 1.30791 0.60619 0.62609
 C1964 C 1.28202 0.61140 0.60918
 C1965 C 1.26977 0.58310 0.60374
 H1966 H 1.27181 0.63297 0.60391
 H1967 H 1.28483 0.53833 0.61522
 H1968 H 1.32917 0.56486 0.64054
 N1969 N 0.72480 1.14752 0.64871
 N1970 N 0.74741 1.16356 0.66306
 C1971 C 0.77162 1.14538 0.66542
 C1972 C 0.76467 1.11710 0.65341
 C1973 C 0.73555 1.11991 0.64227
 H1974 H 0.78022 1.09892 0.64879
 H1975 H 0.70454 1.15685 0.64136
 H1976 H 0.74600 1.18645 0.66860
 N1977 N 0.74827 0.64843 1.12905
 N1978 N 0.77365 0.65939 1.13967
 C1979 C 0.79334 0.63655 1.14307
 C1980 C 0.77980 0.60970 1.13440
 C1981 C 0.75131 0.61838 1.12527
 H1982 H 0.79039 0.58792 1.13129
 H1983 H 0.72984 0.66166 1.12286
 H1984 H 0.77806 0.68241 1.14245
 N1985 N 1.23887 0.84556 0.84944
 N1986 N 1.26737 0.83396 0.84442
 C1987 C 1.28648 0.85736 0.84218
 C1988 C 1.27061 0.88441 0.84577
 C1989 C 1.24099 0.87589 0.85135
 H1990 H 1.28019 0.90661 0.84921
 H1991 H 1.22030 0.83240 0.85506
 H1992 H 1.27282 0.81099 0.84490
 N1993 N 1.23368 0.38219 0.32226
 N1994 N 1.25859 0.36724 0.31093
 C1995 C 1.27545 0.35744 0.33427
 C1996 C 1.26098 0.36540 0.36073
 C1997 C 1.23543 0.38109 0.35218
 H1998 H 1.26863 0.36209 0.38345
 H1999 H 1.21696 0.39243 0.30933
 H2000 H 1.26247 0.36495 0.28812
 N2001 N 0.75344 0.90653 0.33140
 N2002 N 0.77854 0.89338 0.32288
 C2003 C 0.79030 0.87803 0.34620
 C2004 C 0.77144 0.88157 0.37067
 C2005 C 0.74843 0.89990 0.36035
 H2006 H 0.77410 0.87256 0.39299
 H2007 H 0.73973 0.91921 0.31715
 H2008 H 0.78674 0.89447 0.30113
 N2009 N 0.77426 0.43241 0.85231
 N2010 N 0.80207 0.42003 0.84552
 C2011 C 0.80461 0.39326 0.85986
 C2012 C 0.77842 0.38829 0.87617
 C2013 C 0.75980 0.41306 0.87049
 H2014 H 0.77299 0.36860 0.88939
 H2015 H 0.76706 0.45352 0.84474
 H2016 H 0.81807 0.43119 0.83267
 N2017 N 0.72606 0.92889 1.12165
 N2018 N 0.70190 0.91735 1.13414
 C2019 C 0.70323 0.88697 1.13214
 C2020 C 0.72915 0.87890 1.11708
 C2021 C 0.74313 0.90615 1.11123
 H2022 H 0.73815 0.85644 1.11371
 H2023 H 0.73123 0.95191 1.12135
 H2024 H 0.68539 0.93023 1.14461
 N2025 N 0.71898 0.43034 0.60970
 N2026 N 0.69194 0.42020 0.62114
 C2027 C 0.69038 0.39009 0.61678
 C2028 C 0.71608 0.38042 0.60188
 C2029 C 0.73388 0.40624 0.59903
 H2030 H 0.72295 0.35728 0.59806
 H2031 H 0.72707 0.45236 0.61202
 H2032 H 0.67669 0.43383 0.63255
 N2033 N 0.25307 0.84162 0.61042
 N2034 N 0.22793 0.83029 0.62090
 C2035 C 0.21130 0.85297 0.63205
 C2036 C 0.22672 0.88006 0.62894
 C2037 C 0.25297 0.87180 0.61456
 H2038 H 0.21874 0.90264 0.63372
 H2039 H 0.26949 0.82889 0.59962
 H2040 H 0.22198 0.80750 0.61956
 N2041 N 0.22553 0.42939 1.11926
 N2042 N 0.20020 0.41719 1.13260
 C2043 C 0.20089 0.38697 1.12852
 C2044 C 0.22610 0.37947 1.11175
 C2045 C 0.24136 0.40649 1.10739
 H2046 H 0.23447 0.35703 1.10697
 H2047 H 0.23188 0.45206 1.12067
 H2048 H 0.18427 0.42991 1.14407
 N2049 N 0.72375 1.14452 0.93854
 N2050 N 0.69862 1.15445 0.92284
 C2051 C 0.69746 1.13940 0.89668
 C2052 C 0.72165 1.11949 0.89539
 C2053 C 0.73797 1.12375 0.92170
 H2054 H 0.72763 1.10524 0.87676
 H2055 H 0.72977 1.15269 0.95955
 H2056 H 0.68329 1.17008 0.93122
 N2057 N 0.71212 0.62713 0.43009
 N2058 N 0.68916 0.63852 0.41508
 C2059 C 0.69404 0.63502 0.38557
 C2060 C 0.72131 0.62036 0.38180
 C2061 C 0.73222 0.61603 0.41058
 H2062 H 0.73257 0.61533 0.36105
 H2063 H 0.71386 0.62717 0.45335
 H2064 H 0.67066 0.64866 0.42515
 N2065 N 0.21973 1.14234 0.43855
 N2066 N 0.19271 1.14957 0.42455
 C2067 C 0.19259 1.13651 0.39732
 C2068 C 0.21936 1.12077 0.39361
 C2069 C 0.23590 1.12529 0.41959
 H2070 H 0.22673 1.10915 0.37376
 H2071 H 0.22546 1.14924 0.46010
 H2072 H 0.17570 1.16202 0.43467
 N2073 N 0.21899 0.63221 0.93703
 N2074 N 0.19427 0.64084 0.92305
 C2075 C 0.19657 0.63374 0.89389
 C2076 C 0.22404 0.61981 0.88923
 C2077 C 0.23769 0.61941 0.91713
 H2078 H 0.23320 0.61198 0.86831
 H2079 H 0.22253 0.63479 0.95994
 H2080 H 0.17606 0.65096 0.93366
 N2081 N 1.17119 1.24354 1.11698
 N2082 N 1.18029 1.27001 1.12692
 C2083 C 1.15651 1.28521 1.13759
 C2084 C 1.13101 1.26739 1.13473
 C2085 C 1.14133 1.24126 1.12096
 H2086 H 1.10807 1.27351 1.13967
 H2087 H 1.18528 1.22762 1.10707
 H2088 H 1.20242 1.27761 1.12590
 N2089 N 1.07172 0.77670 0.61128
 N2090 N 1.08235 0.80283 0.62074
 C2091 C 1.11254 0.80181 0.62007
 C2092 C 1.12152 0.77395 0.60914
 C2093 C 1.09491 0.75854 0.60437
 H2094 H 1.14405 0.76491 0.60829
 H2095 H 1.04898 0.77110 0.61083
 H2096 H 1.06907 0.82040 0.62889
 N2097 N 0.57403 1.28032 0.61348
 N2098 N 0.58375 1.30772 0.61976
 C2099 C 0.61393 1.30794 0.61845
 C2100 C 0.62394 1.27938 0.61061
 C2101 C 0.59783 1.26248 0.60813
 H2102 H 0.64682 1.27123 0.61026
 H2103 H 0.55154 1.27381 0.61404
 H2104 H 0.56998 1.32545 0.62670
 N2105 N 0.67032 0.74190 1.12351
 N2106 N 0.68066 0.76815 1.13284
 C2107 C 0.65756 0.78464 1.14301
 C2108 C 0.63125 0.76804 1.14042
 C2109 C 0.64033 0.74120 1.12736
 H2110 H 0.60860 0.77547 1.14491
 H2111 H 0.68365 0.72516 1.11387
 H2112 H 0.70311 0.77473 1.13173
 N2113 N 0.86813 1.28479 0.94138
 N2114 N 0.85745 1.30867 0.92712
 C2115 C 0.86675 1.30779 0.89859
 C2116 C 0.88426 1.28208 0.89461
 C2117 C 0.88447 1.26797 0.92226
 H2118 H 0.89477 1.27435 0.87428
 H2119 H 0.86452 1.28065 0.96402
 H2120 H 0.84467 1.32557 0.93719
 N2121 N 0.83996 0.75848 0.41886
 N2122 N 0.82970 0.78170 0.40341
 C2123 C 0.85209 0.79302 0.38670
 C2124 C 0.87785 0.77605 0.39187
 C2125 C 0.86922 0.75436 0.41248
 H2126 H 0.89966 0.77880 0.38179
 H2127 H 0.82640 0.74505 0.43238
 H2128 H 0.80729 0.78849 0.40353
 N2129 N 0.36966 1.29561 0.42802
 N2130 N 0.35701 1.31563 0.40998
 C2131 C 0.36400 1.30879 0.38149
 C2132 C 0.38236 1.28345 0.38156
 C2133 C 0.38508 1.27554 0.41151
 H2134 H 0.39027 1.27093 0.36242
 H2135 H 0.36715 1.29551 0.45119
 H2136 H 0.34319 1.33317 0.41725
 N2137 N 0.40594 0.79826 0.92736
 N2138 N 0.39687 0.82122 0.91076
 C2139 C 0.37309 0.81241 0.89430
 C2140 C 0.36659 0.78247 0.90091
 C2141 C 0.38809 0.77434 0.92198
 H2142 H 0.35092 0.76780 0.88946
 H2143 H 0.42536 0.79836 0.94050
 H2144 H 0.40781 0.84205 0.90962
 N2145 N 1.06642 0.71922 0.85551
 N2146 N 1.07958 0.69357 0.84814
 C2147 C 1.10783 0.69369 0.85887
 C2148 C 1.11286 0.72063 0.87381
 C2149 C 1.08608 0.73642 0.87098
 H2150 H 1.13352 0.72806 0.88417
 H2151 H 1.04423 0.72438 0.85009
 H2152 H 1.06912 0.67625 0.83619
 N2153 N 1.06573 0.22132 0.35474
 N2154 N 1.07784 0.19500 0.34779
 C2155 C 1.10581 0.19387 0.35919
 C2156 C 1.11171 0.22075 0.37401
 C2157 C 1.08578 0.23764 0.37065
 H2158 H 1.13229 0.22737 0.38505
 H2159 H 1.04385 0.22746 0.34900
 H2160 H 1.06670 0.17800 0.33600
 N2161 N 0.57450 0.73425 0.34561
 N2162 N 0.58920 0.70998 0.33684
 C2163 C 0.61611 0.70928 0.35053
 C2164 C 0.61871 0.73421 0.36902
 C2165 C 0.59185 0.74985 0.36498
 H2166 H 0.63803 0.74063 0.38223
 H2167 H 0.55293 0.73962 0.33822
 H2168 H 0.58077 0.69417 0.32167
 N2169 N 0.59792 0.24595 0.83336
 N2170 N 0.60928 0.21933 0.82646
 C2171 C 0.62265 0.20754 0.85091
 C2172 C 0.61984 0.22787 0.87437
 C2173 C 0.60387 0.25181 0.86232
 H2174 H 0.62745 0.22533 0.89721
 H2175 H 0.58669 0.25993 0.81817
 H2176 H 0.60820 0.20993 0.80511
 N2177 N 0.92298 0.70146 1.07753
 N2178 N 0.91344 0.67704 1.09150
 C2179 C 0.88574 0.68242 1.10206
 C2180 C 0.87704 0.71146 1.09397
 C2181 C 0.90155 0.72289 1.07880
 H2182 H 0.85762 0.72382 1.10168
 H2183 H 0.94464 0.70406 1.06916
 H2184 H 0.92647 0.65776 1.09522
 N2185 N 0.83709 0.26879 0.62452
 N2186 N 0.82409 0.24720 0.64008
 C2187 C 0.84442 0.22534 0.64580
 C2188 C 0.87183 0.23376 0.63378
 C2189 C 0.86599 0.26124 0.62016
 H2190 H 0.89247 0.22090 0.63323
 H2191 H 0.82617 0.28823 0.61687
 H2192 H 0.80159 0.24763 0.64635
 N2193 N 0.33543 0.74823 0.59781
 N2194 N 0.32638 0.72331 0.61120
 C2195 C 0.35041 0.70886 0.62261
 C2196 C 0.37602 0.72550 0.61641
 C2197 C 0.36555 0.75017 0.60017
 H2198 H 0.39904 0.71957 0.62145
 H2199 H 0.32095 0.76352 0.58735
 H2200 H 0.30403 0.71640 0.61230
 N2201 N 0.41621 0.20816 1.10055
 N2202 N 0.40163 0.18747 1.11598
 C2203 C 0.37308 0.19659 1.11949
 C2204 C 0.36923 0.22435 1.10552
 C2205 C 0.39731 0.23108 1.09408
 H2206 H 0.35008 0.23929 1.10708
 H2207 H 0.43918 0.20736 1.09622
 H2208 H 0.41165 0.16848 1.12570
 N2209 N 1.08713 1.16152 0.73754
 N2210 N 1.09714 1.16801 0.71066
 C2211 C 1.11200 1.14395 0.69986
 C2212 C 1.11158 1.12096 0.72105
 C2213 C 1.09510 1.13292 0.74465
 H2214 H 1.12107 1.09854 0.71906
 H2215 H 1.07544 1.17698 0.75065
 H2216 H 1.09413 1.18890 0.70015
 N2217 N 1.07134 0.64555 0.22840
 N2218 N 1.08486 0.65389 0.20169
 C2219 C 1.11308 0.64265 0.20159
 C2220 C 1.11774 0.62681 0.22831
 C2221 C 1.09127 0.62936 0.24445
 H2222 H 1.13794 0.61550 0.23571
 H2223 H 1.04917 0.65053 0.23388
 H2224 H 1.07362 0.66583 0.18496
 N2225 N 0.57248 1.14915 0.22473
 N2226 N 0.58500 1.15541 0.19881
 C2227 C 0.61322 1.14436 0.19870
 C2228 C 0.61867 1.13017 0.22589
 C2229 C 0.59230 1.13385 0.24180
 H2230 H 0.63909 1.11926 0.23333
 H2231 H 0.55042 1.15475 0.23013
 H2232 H 0.57381 1.16649 0.18144
 N2233 N 0.56167 0.64383 0.72358
 N2234 N 0.57412 0.65129 0.69791
 C2235 C 0.60210 0.63974 0.69703
 C2236 C 0.60752 0.62400 0.72335
 C2237 C 0.58139 0.62734 0.73969
 H2238 H 0.62800 0.61281 0.73020
 H2239 H 0.53988 0.64981 0.72959
 H2240 H 0.56329 0.66387 0.68131
 N2241 N 0.83198 0.91357 0.74111
 N2242 N 0.82289 0.89871 0.71722
 C2243 C 0.84521 0.88053 0.70791
 C2244 C 0.86964 0.88398 0.72684
 C2245 C 0.86043 0.90533 0.74761
 H2246 H 0.89116 0.87282 0.72533
 H2247 H 0.81832 0.92843 0.75296
 H2248 H 0.80140 0.90059 0.70806
 N2249 N 0.85706 0.36001 0.25163
 N2250 N 0.85175 0.34687 0.22569
 C2251 C 0.85459 0.36760 0.20391
 C2252 C 0.86191 0.39532 0.21660
 C2253 C 0.86346 0.38944 0.24703
 H2254 H 0.86899 0.41560 0.20510
 H2255 H 0.85866 0.34842 0.27191
 H2256 H 0.84799 0.32374 0.22292
 N2257 N 0.36422 0.94120 0.21281
 N2258 N 0.35634 0.92564 0.18887
 C2259 C 0.36372 0.89626 0.19294
 C2260 C 0.37721 0.89329 0.22079
 C2261 C 0.37697 0.92227 0.23271
 H2262 H 0.38514 0.87280 0.23142
 H2263 H 0.36124 0.96449 0.21512
 H2264 H 0.34630 0.93543 0.17011
 N2265 N 0.33425 0.40082 0.74052
 N2266 N 0.32744 0.38803 0.71474
 C2267 C 0.35254 0.37628 0.70269
 C2268 C 0.37639 0.38160 0.72205
 C2269 C 0.36386 0.39759 0.74565
 H2270 H 0.39979 0.37625 0.71860
 H2271 H 0.31866 0.41149 0.75427
 H2272 H 0.30584 0.38765 0.70567
 N2273 N 1.11266 0.82647 1.24651
 N2274 N 1.11979 0.82038 1.27617
 C2275 C 1.13025 0.84609 1.28856
 C2276 C 1.13026 0.86893 1.26688
 C2277 C 1.11838 0.85589 1.24117
 H2278 H 1.13588 0.89252 1.26993
 H2279 H 1.10403 0.81050 1.23166
 H2280 H 1.11807 0.79901 1.28590
 N2281 N 1.09588 0.41713 0.77506
 N2282 N 1.10607 0.41137 0.80389
 C2283 C 1.11309 0.38172 0.80578
 C2284 C 1.10658 0.36788 0.77844
 C2285 C 1.09679 0.39106 0.75969
 H2286 H 1.11223 0.34507 0.77180
 H2287 H 1.09134 0.43863 0.76648
 H2288 H 1.10827 0.42791 0.82035
 N2289 N 0.60108 0.82931 0.74735
 N2290 N 0.61028 0.82211 0.77445
 C2291 C 0.62414 0.84616 0.78657
 C2292 C 0.62398 0.86981 0.76607
 C2293 C 0.60867 0.85828 0.74155
 H2294 H 0.63262 0.89245 0.76909
 H2295 H 0.59002 0.81426 0.73316
 H2296 H 0.60741 0.80084 0.78418
 N2297 N 0.57252 0.38450 1.27467
 N2298 N 0.58109 0.37742 1.30377
 C2299 C 0.61141 0.37712 1.30506
 C2300 C 0.62250 0.38504 1.27692
 C2301 C 0.59751 0.38874 1.25860
 H2302 H 0.64561 0.38537 1.26973
 H2303 H 0.55040 0.38532 1.26697
 H2304 H 0.56578 0.37303 1.32073
 N2305 N 0.86004 1.11624 1.24279
 N2306 N 0.84605 1.12950 1.26505
 C2307 C 0.86615 1.13576 1.28675
 C2308 C 0.89447 1.12655 1.27751
 C2309 C 0.88938 1.11394 1.24963
 H2310 H 0.91523 1.12682 1.29010
 H2311 H 0.84945 1.10826 1.22350
 H2312 H 0.82303 1.13373 1.26528
 N2313 N 0.93582 0.60191 0.79357
 N2314 N 0.92270 0.61630 0.81572
 C2315 C 0.89290 0.61311 0.81278
 C2316 C 0.88664 0.59566 0.78775
 C2317 C 0.91459 0.58947 0.77579
 H2318 H 0.86487 0.59060 0.77823
 H2319 H 0.95898 0.60154 0.79033
 H2320 H 0.93403 0.62849 0.83223
 N2321 N 0.35078 1.12156 0.74599
 N2322 N 0.34024 1.13421 0.77043
 C2323 C 0.36286 1.13758 0.79020
 C2324 C 0.38913 1.12681 0.77765
 C2325 C 0.38031 1.11645 0.74975
 H2326 H 0.41054 1.12333 0.78861
 H2327 H 0.33759 1.11522 0.72772
 H2328 H 0.31754 1.13836 0.77430
 N2329 N 0.35700 0.60772 1.24923
 N2330 N 0.34404 0.61993 1.27265
 C2331 C 0.36549 0.62960 1.29157
 C2332 C 0.39350 0.62374 1.27944
 C2333 C 0.38698 0.60933 1.25276
 H2334 H 0.41528 0.62704 1.28970
 H2335 H 0.34535 0.59772 1.23153
 H2336 H 0.32087 0.62095 1.27578
 N2337 N 1.16056 1.25029 0.88485
 N2338 N 1.16926 1.27612 0.87298
 C2339 C 1.14486 1.29279 0.86634
 C2340 C 1.11934 1.27674 0.87418
 C2341 C 1.13036 1.25002 0.88637
 H2342 H 1.09638 1.28465 0.87387
 H2343 H 1.17530 1.23359 0.89246
 H2344 H 1.19162 1.28264 0.87061
 N2345 N 1.11763 0.78655 0.43563
 N2346 N 1.12928 0.81038 0.42228
 C2347 C 1.12649 0.80704 0.39243
 C2348 C 1.11175 0.77988 0.38675
 C2349 C 1.10678 0.76760 0.41474
 H2350 H 1.10693 0.76949 0.36541
 H2351 H 1.11752 0.78325 0.45873
 H2352 H 1.13900 0.82840 0.43379
 N2353 N 0.57911 1.29819 0.42320
 N2354 N 0.58800 1.32284 0.40609
 C2355 C 0.61631 1.31775 0.39699
 C2356 C 0.62624 1.29019 0.40870
 C2357 C 0.60190 1.27819 0.42401
 H2358 H 0.64645 1.27818 0.40262
 H2359 H 0.55712 1.29431 0.43012
 H2360 H 0.57415 1.34111 0.40070
 N2361 N 0.61900 0.78784 0.93541
 N2362 N 0.63046 0.81117 0.92106
 C2363 C 0.62481 0.80799 0.89162
 C2364 C 0.60847 0.78170 0.88717
 C2365 C 0.60565 0.76943 0.91545
 H2366 H 0.60205 0.77145 0.86617
 H2367 H 0.62109 0.78429 0.95839
 H2368 H 0.64252 0.82848 0.93141
 N2369 N 0.92565 1.28332 1.08803
 N2370 N 0.91041 1.31036 1.09256
 C2371 C 0.89879 1.30978 1.12031
 C2372 C 0.90692 1.28262 1.13416
 C2373 C 0.92303 1.26642 1.11289
 H2374 H 0.89843 1.27391 1.15507
 H2375 H 0.93371 1.27605 1.06740
 H2376 H 0.90813 1.32730 1.07644
 N2377 N 0.89751 0.74518 0.67140
 N2378 N 0.88533 0.77110 0.67942
 C2379 C 0.87222 0.78401 0.65535
 C2380 C 0.87612 0.76499 0.63090
 C2381 C 0.89245 0.74072 0.64204
 H2382 H 0.86882 0.76850 0.60809
 H2383 H 0.90859 0.73062 0.68616
 H2384 H 0.88570 0.77918 0.70129
 N2385 N 0.42832 1.28637 0.59253
 N2386 N 0.41471 1.31417 0.59757
 C2387 C 0.40187 1.31326 0.62475
 C2388 C 0.40747 1.28513 0.63779
 C2389 C 0.42325 1.26871 0.61644
 H2390 H 0.39683 1.27605 0.65753
 H2391 H 0.43657 1.27933 0.57189
 H2392 H 0.41296 1.33139 0.58167
 N2393 N 0.36337 0.73932 1.15936
 N2394 N 0.35068 0.76685 1.16748
 C2395 C 0.37017 0.78901 1.16054
 C2396 C 0.39538 0.77609 1.14736
 C2397 C 0.39017 0.74507 1.14701
 H2398 H 0.41298 0.78791 1.13560
 H2399 H 0.35214 0.71861 1.15949
 H2400 H 0.32840 0.76966 1.17400
 N2401 N 0.83546 0.74948 0.87613
 N2402 N 0.82752 0.72191 0.86829
 C2403 C 0.85241 0.70536 0.86349
 C2404 C 0.87748 0.72356 0.86793
 C2405 C 0.86560 0.75130 0.87639
 H2406 H 0.90082 0.71689 0.86767
 H2407 H 0.82037 0.76648 0.88207
 H2408 H 0.80532 0.71455 0.86690
 N2409 N 0.90293 0.21847 0.41992
 N2410 N 0.89353 0.19269 0.40845
 C2411 C 0.89009 0.19609 0.37872
 C2412 C 0.89805 0.22528 0.37086
 C2413 C 0.90555 0.23884 0.39774
 H2414 H 0.89438 0.23633 0.34957
 H2415 H 0.90557 0.22247 0.44277
 H2416 H 0.88709 0.17398 0.42113
 N2417 N 0.42653 0.73033 0.37719
 N2418 N 0.41674 0.70225 0.36742
 C2419 C 0.38725 0.70003 0.37342
 C2420 C 0.37769 0.72639 0.38764
 C2421 C 0.40277 0.74525 0.38836
 H2422 H 0.35485 0.73256 0.39296
 H2423 H 0.44833 0.73841 0.37445
 H2424 H 0.43034 0.68640 0.35675
 N2425 N 0.39115 0.21697 0.92703
 N2426 N 0.38006 0.18925 0.91749
 C2427 C 0.37853 0.18982 0.88738
 C2428 C 0.38934 0.21767 0.87719
 C2429 C 0.39612 0.23419 0.90276
 H2430 H 0.38911 0.22613 0.85451
 H2431 H 0.39325 0.22342 0.94937
 H2432 H 0.37431 0.17166 0.93191
 N2433 N 1.14085 0.71153 1.06133
 N2434 N 1.15281 0.68819 1.07859
 C2435 C 1.13969 0.68913 1.10567
 C2436 C 1.11915 0.71294 1.10602
 C2437 C 1.12089 0.72671 1.07816
 H2438 H 1.10617 0.72072 1.12483
 H2439 H 1.14695 0.71581 1.03927
 H2440 H 1.16837 0.67254 1.07069
 N2441 N 1.07113 0.20073 0.57534
 N2442 N 1.08097 0.17586 0.59166
 C2443 C 1.11064 0.17904 0.59643
 C2444 C 1.12046 0.20561 0.58297
 C2445 C 1.09478 0.21910 0.57112
 H2446 H 1.14186 0.21654 0.58668
 H2447 H 1.04860 0.20619 0.57182
 H2448 H 1.06685 0.15965 0.60107
 N2449 N 0.65198 0.74032 0.58367
 N2450 N 0.66170 0.71600 0.59778
 C2451 C 0.63851 0.70296 0.61197
 C2452 C 0.61277 0.72002 0.60665
 C2453 C 0.62226 0.74344 0.58834
 H2454 H 0.59030 0.71578 0.61458
 H2455 H 0.66599 0.75484 0.57179
 H2456 H 0.68410 0.70916 0.59822
 N2457 N 0.64312 0.21710 1.06008
 N2458 N 0.65419 0.19231 1.07587
 C2459 C 0.64209 0.19285 1.10344
 C2460 C 0.62318 0.21786 1.10558
 C2461 C 0.62470 0.23260 1.07827
 H2462 H 0.61116 0.22555 1.12504
 H2463 H 0.64848 0.22191 1.03793
 H2464 H 0.66832 0.17604 1.06665
 N2465 N 1.28345 1.06125 0.88232
 N2466 N 1.30926 1.07232 0.87316
 C2467 C 1.31023 1.10200 0.87970
 C2468 C 1.28395 1.11018 0.89399
 C2469 C 1.26732 1.08371 0.89472
 H2470 H 1.27653 1.13276 0.89962
 H2471 H 1.27659 1.03896 0.87886
 H2472 H 1.32519 1.06004 0.86120
 N2473 N 1.28519 0.58035 0.39622
 N2474 N 1.31077 0.59228 0.38753
 C2475 C 1.30724 0.62236 0.38405
 C2476 C 1.27794 0.63002 0.39116
 C2477 C 1.26474 0.60253 0.39851
 H2478 H 1.26699 0.65167 0.38828
 H2479 H 1.28159 0.55724 0.39940
 H2480 H 1.32981 0.57968 0.38214
 N2481 N 0.74924 1.16698 0.38925
 N2482 N 0.77466 1.17688 0.37807
 C2483 C 0.78916 1.15354 0.36541
 C2484 C 0.77201 1.12753 0.36824
 C2485 C 0.74706 1.13705 0.38406
 H2486 H 0.77811 1.10466 0.36224
 H2487 H 0.73413 1.18048 0.40098
 H2488 H 0.78227 1.19913 0.37994
 N2489 N 0.77676 0.56544 0.88886
 N2490 N 0.80263 0.57472 0.87808
 C2491 C 0.80255 0.60522 0.87705
 C2492 C 0.77553 0.61573 0.88837
 C2493 C 0.75986 0.58975 0.89532
 H2494 H 0.76735 0.63874 0.88919
 H2495 H 0.77054 0.54278 0.89095
 H2496 H 0.81963 0.56012 0.87122
 N2497 N 1.27965 0.85313 1.06435
 N2498 N 1.30344 0.84402 1.07958
 C2499 C 1.30375 0.85803 1.10622
 C2500 C 1.27908 0.87691 1.10806
 C2501 C 1.26405 0.87303 1.08109
 H2502 H 1.27252 0.89044 1.12702
 H2503 H 1.27460 0.84554 1.04287
 H2504 H 1.31920 0.82857 1.07162
 N2505 N 1.28860 0.37509 0.55576
 N2506 N 1.31475 0.36890 0.56836
 C2507 C 1.31233 0.37224 0.59823
 C2508 C 1.28330 0.38130 0.60471
 C2509 C 1.26897 0.38263 0.57724
 H2510 H 1.27343 0.38488 0.62643
 H2511 H 1.28450 0.37427 0.53280
 H2512 H 1.33371 0.36247 0.55638
 N2513 N 0.77856 0.86017 0.56563
 N2514 N 0.80142 0.84875 0.58076
 C2515 C 0.79905 0.85721 0.60951
 C2516 C 0.77356 0.87480 0.61278
 C2517 C 0.76104 0.87606 0.58448
 H2518 H 0.76476 0.88429 0.63319
 H2519 H 0.77541 0.85712 0.54272
 H2520 H 0.81844 0.83573 0.57131
 N2521 N 0.79349 0.38905 1.05714
 N2522 N 0.81934 0.38122 1.06945
 C2523 C 0.81640 0.38118 1.09946
 C2524 C 0.78735 0.38993 1.10640
 C2525 C 0.77350 0.39434 1.07893
 H2526 H 0.77704 0.39076 1.12820
 H2527 H 0.78971 0.39047 1.03415
 H2528 H 0.83838 0.37559 1.05721
 N2529 N 0.73293 1.07011 1.14862
 N2530 N 0.70664 1.08197 1.15526
 C2531 C 0.70507 1.11003 1.14369
 C2532 C 0.73172 1.11626 1.12896
 C2533 C 0.74898 1.09040 1.13275
 H2534 H 0.73786 1.13697 1.11768
 H2535 H 0.73918 1.04816 1.15453
 H2536 H 0.68991 1.07057 1.16697
 N2537 N 0.71935 0.56632 0.64194
 N2538 N 0.69356 0.57893 0.64922
 C2539 C 0.69346 0.60792 0.63988
 C2540 C 0.72055 0.61385 0.62575
 C2541 C 0.73647 0.58690 0.62776
 H2542 H 0.72805 0.63502 0.61627
 H2543 H 0.72471 0.54377 0.64636
 H2544 H 0.67629 0.56745 0.66003
 N2545 N 0.22120 1.07386 0.62836
 N2546 N 0.19513 1.08483 0.63672
 C2547 C 0.19422 1.11447 0.63028
 C2548 C 0.22106 1.12292 0.61691
 C2549 C 0.23793 1.09638 0.61668
 H2550 H 0.22772 1.14527 0.60970
 H2551 H 0.22698 1.05110 0.63055
 H2552 H 0.17810 1.07198 0.64641
 N2553 N 0.25076 0.59557 1.17151
 N2554 N 0.22436 0.60679 1.17883
 C2555 C 0.21146 0.61908 1.15433
 C2556 C 0.23095 0.61555 1.13037
 C2557 C 0.25553 0.60046 1.14219
 H2558 H 0.22766 0.62240 1.10739
 H2559 H 0.26543 0.58536 1.18673
 H2560 H 0.21593 0.60647 1.20052
 N2561 N 0.75032 0.89534 0.84550
 N2562 N 0.72625 0.88304 0.83346
 C2563 C 0.70782 0.87402 0.85551
 C2564 C 0.72117 0.88050 0.88292
 C2565 C 0.74791 0.89424 0.87544
 H2566 H 0.71224 0.87711 0.90509
 H2567 H 0.76806 0.90438 0.83326
 H2568 H 0.72299 0.88081 0.81048
 N2569 N 0.75456 0.34726 0.36848
 N2570 N 0.72878 0.33617 0.35900
 C2571 C 0.70930 0.35911 0.35519
 C2572 C 0.72339 0.38613 0.36237
 C2573 C 0.75199 0.37750 0.37116
 H2574 H 0.71310 0.40814 0.36487
 H2575 H 0.77295 0.33403 0.37478
 H2576 H 0.72408 0.31312 0.35715
 N2577 N 0.21294 0.93944 0.36836
 N2578 N 0.18914 0.92519 0.35791
 C2579 C 0.19025 0.89624 0.36703
 C2580 C 0.21588 0.89181 0.38415
 C2581 C 0.23002 0.91975 0.38410
 H2582 H 0.22396 0.87075 0.39355
 H2583 H 0.21718 0.96229 0.36438
 H2584 H 0.17257 0.93520 0.34462
 N2585 N 0.20837 0.43643 0.90133
 N2586 N 0.18341 0.42488 0.89031
 C2587 C 0.18714 0.39485 0.88665
 C2588 C 0.21571 0.38691 0.89647
 C2589 C 0.22853 0.41406 0.90519
 H2590 H 0.22664 0.36514 0.89469
 H2591 H 0.21179 0.45946 0.90518
 H2592 H 0.16454 0.43769 0.88464
   
