data_POSCAR
  _audit_creation_date              2014-09-24
  _audit_creation_method            'ToBaCCo'
  _symmetry_space_group_name_H-M    'P1'
  _symmetry_Int_Tables_number       1
  _symmetry_cell_setting            triclinic
  loop_
  _symmetry_equiv_pos_as_xyz
 x,y,z
_cell_length_a 53.0077
_cell_length_b 54.0965
_cell_length_c 55.8420
_cell_angle_alpha 89.913300
_cell_angle_beta 90.232900
_cell_angle_gamma 90.098600
loop_
  _atom_site_label
  _atom_site_type_symbol
  _atom_site_fract_x
  _atom_site_fract_y
  _atom_site_fract_z
O1 O 0.30427 0.35674 0.02336
 O2 O 0.35437 0.33575 -0.01698
 O3 O 0.31470 0.36379 -0.02104
 O4 O 0.34376 0.32905 0.02800
 O5 O 0.32150 0.29596 0.01831
 O6 O 0.29177 0.33136 -0.03124
 O7 O 0.33150 0.30305 -0.02664
 O8 O 0.28094 0.32444 0.01339
 Cu9 Cu 0.33164 0.34952 0.00430
 Cu10 Cu 0.30413 0.31032 -0.00741
 C11 C 0.28384 0.34455 0.02478
 C12 C 0.35157 0.31575 -0.02855
 C13 C 0.29793 0.35388 -0.03422
 C14 C 0.33797 0.30659 0.03136
 O15 O 0.67324 0.63784 0.01891
 O16 O 0.65358 0.68000 -0.02944
 O17 O 0.68360 0.64224 -0.02614
 O18 O 0.64154 0.67383 0.01518
 O19 O 0.67142 0.70069 0.02458
 O20 O 0.71532 0.66634 -0.01538
 O21 O 0.68493 0.70519 -0.02014
 O22 O 0.70337 0.66398 0.02943
 Cu23 Cu 0.65995 0.65600 -0.00645
 Cu24 Cu 0.69687 0.68674 0.00546
 C25 C 0.69168 0.64370 0.03236
 C26 C 0.66578 0.69992 -0.03285
 C27 C 0.70672 0.64804 -0.02723
 C28 C 0.64895 0.69261 0.02676
 O29 O 0.69239 0.35342 0.97324
 O30 O 0.64405 0.32542 1.01128
 O31 O 0.68226 0.35450 1.01803
 O32 O 0.65486 0.32299 0.96589
 O33 O 0.67944 0.29079 0.97253
 O34 O 0.70736 0.32272 1.02478
 O35 O 0.66859 0.29323 1.01825
 O36 O 0.71754 0.32152 0.97934
 Cu37 Cu 0.66581 0.34214 0.99136
 Cu38 Cu 0.69566 0.30373 0.99929
 C39 C 0.71346 0.34278 0.97036
 C40 C 0.64798 0.30479 1.02139
 C41 C 0.69984 0.34433 1.03002
 C42 C 0.66231 0.30143 0.96039
 O43 O 0.33144 0.63717 0.98472
 O44 O 0.34841 0.67947 1.03368
 O45 O 0.31519 0.64433 1.02814
 O46 O 0.36449 0.67187 0.99074
 O47 O 0.33737 0.69959 0.97717
 O48 O 0.28740 0.67087 1.01377
 O49 O 0.32084 0.70670 1.02008
 O50 O 0.30445 0.66462 0.97046
 Cu51 Cu 0.34250 0.65543 1.01081
 Cu52 Cu 0.30959 0.68817 0.99414
 C53 C 0.31535 0.64377 0.96909
 C54 C 0.33799 0.70054 1.03486
 C55 C 0.29278 0.65254 1.02708
 C56 C 0.35945 0.69050 0.97776
 O57 O -0.02386 0.36255 0.34333
 O58 O 0.02952 0.33309 0.37382
 O59 O 0.02490 0.36886 0.34364
 O60 O -0.01821 0.32583 0.37340
 O61 O -0.01600 0.30013 0.34284
 O62 O 0.02972 0.34219 0.31410
 O63 O 0.03229 0.30562 0.34467
 O64 O -0.01959 0.33739 0.31252
 Cu65 Cu 0.00251 0.35033 0.36142
 Cu66 Cu 0.00688 0.31882 0.32532
 C67 C -0.03061 0.35537 0.32268
 C68 C 0.03955 0.31398 0.36484
 C69 C 0.03514 0.36262 0.32409
 C70 C -0.02394 0.30536 0.36364
 O71 O 0.02411 0.68070 0.63984
 O72 O -0.02433 0.64470 0.67088
 O73 O -0.02514 0.68054 0.64026
 O74 O 0.02416 0.64617 0.67248
 O75 O 0.02423 0.67423 0.70115
 O76 O -0.02595 0.70825 0.66920
 O77 O -0.02475 0.67182 0.70042
 O78 O 0.02346 0.70898 0.66827
 Cu79 Cu -0.00015 0.66039 0.65289
 Cu80 Cu -0.00082 0.69370 0.68761
 C81 C 0.03207 0.70093 0.64853
 C82 C -0.03251 0.65175 0.69104
 C83 C -0.03417 0.70017 0.64931
 C84 C 0.03229 0.65407 0.69250
 O85 O 0.97445 0.65227 0.38349
 O86 O 1.02247 0.61893 0.34914
 O87 O 1.02325 0.65339 0.38118
 O88 O 0.97376 0.61651 0.35267
 O89 O 0.97030 0.64405 0.32360
 O90 O 1.02044 0.68156 0.35262
 O91 O 1.01946 0.64656 0.32009
 O92 O 0.97154 0.68021 0.35471
 Cu93 Cu 0.99877 0.63250 0.36948
 Cu94 Cu 0.99514 0.66586 0.33477
 C95 C 0.96499 0.67201 0.37508
 C96 C 1.02911 0.62701 0.32877
 C97 C 1.03022 0.67375 0.37207
 C98 C 0.96359 0.62382 0.33336
 O99 O 0.97585 0.32935 0.63908
 O100 O 1.02687 0.37244 0.65567
 O101 O 1.02282 0.33467 0.62754
 O102 O 0.97920 0.36822 0.66626
 O103 O 0.99029 0.34513 0.69719
 O104 O 1.03310 0.30977 0.65739
 O105 O 1.03786 0.34780 0.68549
 O106 O 0.98603 0.30544 0.66971
 Cu107 Cu 1.00005 0.35362 0.64420
 Cu108 Cu 1.01271 0.32461 0.68059
 C109 C 0.97254 0.30984 0.65138
 C110 C 1.04126 0.36728 0.67321
 C111 C 1.03528 0.31647 0.63562
 C112 C 0.97753 0.36282 0.68827
 O113 O 0.34013 0.02824 0.30805
 O114 O 0.31570 -0.02446 0.34298
 O115 O 0.34606 -0.01907 0.30644
 O116 O 0.31016 0.02313 0.34468
 O117 O 0.27763 0.02060 0.32001
 O118 O 0.31345 -0.02293 0.28199
 O119 O 0.28297 -0.02725 0.31855
 O120 O 0.30809 0.02458 0.28288
 Cu121 Cu 0.33122 0.00223 0.32804
 Cu122 Cu 0.29220 -0.00148 0.29844
 C123 C 0.32861 0.03491 0.28912
 C124 C 0.29500 -0.03461 0.33691
 C125 C 0.33617 -0.02785 0.28752
 C126 C 0.28773 0.02895 0.33904
 O127 O 0.65106 -0.01728 0.62020
 O128 O 0.61385 0.02441 0.65760
 O129 O 0.64698 0.03029 0.62437
 O130 O 0.61693 -0.02309 0.65250
 O131 O 0.64589 -0.02329 0.68109
 O132 O 0.67792 0.02906 0.65100
 O133 O 0.64390 0.02450 0.68515
 O134 O 0.68072 -0.01890 0.64807
 Cu135 Cu 0.62924 0.00369 0.63591
 Cu136 Cu 0.66519 0.00283 0.66914
 C137 C 0.67211 -0.02531 0.62773
 C138 C 0.62237 0.03148 0.67772
 C139 C 0.66769 0.03851 0.63249
 C140 C 0.62591 -0.03207 0.67168
 O141 O 0.32319 1.02962 0.65426
 O142 O 0.36136 0.97930 0.67882
 O143 O 0.33097 0.98398 0.64263
 O144 O 0.35236 1.02489 0.69119
 O145 O 0.32012 1.01296 0.71334
 O146 O 0.29902 0.97147 0.66490
 O147 O 0.32955 0.96710 0.70140
 O148 O 0.29031 1.01704 0.67526
 Cu149 Cu 0.34523 1.00567 0.66461
 Cu150 Cu 0.30654 0.99105 0.69114
 C151 C 0.30017 1.03151 0.65994
 C152 C 0.35212 0.96461 0.69416
 C153 C 0.31127 0.97091 0.64541
 C154 C 0.33989 1.02589 0.71053
 O155 O 0.66124 1.03052 0.36133
 O156 O 0.63431 0.98289 0.32225
 O157 O 0.66081 0.98260 0.36153
 O158 O 0.63445 1.03055 0.32244
 O159 O 0.66879 1.03004 0.30019
 O160 O 0.69596 0.98244 0.34042
 O161 O 0.66922 0.98201 0.30085
 O162 O 0.69601 1.03095 0.33971
 Cu163 Cu 0.64428 1.00661 0.34407
 Cu164 Cu 0.68611 1.00636 0.31820
 C165 C 0.68314 1.03895 0.35724
 C166 C 0.64688 0.97456 0.30472
 C167 C 0.68284 0.97442 0.35781
 C168 C 0.64682 1.03826 0.30449
 C169 C 0.87566 0.78675 0.50309
 C170 C 0.87162 0.79886 0.48127
 C171 C 0.85682 0.82024 0.48067
 C172 C 0.84385 0.82839 0.50129
 C173 C 0.84780 0.81536 0.52301
 C174 C 0.86386 0.79483 0.52403
 C175 C 0.82529 0.84935 0.49981
 C176 C 0.81780 0.86234 0.52056
 C177 C 0.79837 0.87985 0.51955
 C178 C 0.78779 0.88618 0.49737
 C179 C 0.79544 0.87430 0.47639
 C180 C 0.81380 0.85576 0.47774
 H181 H 0.88855 0.77126 0.50379
 H182 H 0.85516 0.82997 0.46383
 H183 H 0.83796 0.82043 0.53918
 H184 H 0.82644 0.85865 0.53775
 H185 H 0.77387 0.90079 0.49645
 H186 H 0.81824 0.84598 0.46145
 C187 C 0.11716 0.20273 0.50375
 C188 C 0.12160 0.19022 0.48222
 C189 C 0.13572 0.16838 0.48248
 C190 C 0.14741 0.15993 0.50372
 C191 C 0.14311 0.17322 0.52510
 C192 C 0.12776 0.19432 0.52532
 C193 C 0.16478 0.13804 0.50332
 C194 C 0.16948 0.12410 0.52425
 C195 C 0.18749 0.10516 0.52445
 C196 C 0.19937 0.09851 0.50300
 C197 C 0.19478 0.11175 0.48182
 C198 C 0.17780 0.13158 0.48219
 H199 H 0.10479 0.21862 0.50367
 H200 H 0.13783 0.15839 0.46585
 H201 H 0.15209 0.16775 0.54169
 H202 H 0.15967 0.12815 0.54071
 H203 H 0.21193 0.08278 0.50279
 H204 H 0.17550 0.14230 0.46598
 C205 C 0.12508 0.78361 0.49647
 C206 C 0.13676 0.79073 0.51794
 C207 C 0.15490 0.80965 0.51752
 C208 C 0.16104 0.82205 0.49595
 C209 C 0.14823 0.81498 0.47478
 C210 C 0.13115 0.79521 0.47481
 C211 C 0.18121 0.84164 0.49539
 C212 C 0.19461 0.84683 0.47409
 C213 C 0.21365 0.86487 0.47352
 C214 C 0.21995 0.87744 0.49465
 C215 C 0.20769 0.87202 0.51623
 C216 C 0.18778 0.85493 0.51626
 H217 H 0.11069 0.76938 0.49659
 H218 H 0.16453 0.81402 0.53408
 H219 H 0.15167 0.82439 0.45802
 H220 H 0.19078 0.83668 0.45782
 H221 H 0.23385 0.89209 0.49418
 H222 H 0.17765 0.85207 0.53280
 C223 C 0.88419 0.21282 0.50842
 C224 C 0.86812 0.20857 0.52779
 C225 C 0.84744 0.19271 0.52502
 C226 C 0.84364 0.17956 0.50345
 C227 C 0.86035 0.18392 0.48426
 C228 C 0.88025 0.20086 0.48644
 C229 C 0.82231 0.16154 0.50097
 C230 C 0.81147 0.15633 0.47837
 C231 C 0.79166 0.13930 0.47607
 C232 C 0.78208 0.12778 0.49662
 C233 C 0.79204 0.13313 0.51934
 C234 C 0.81262 0.14927 0.52127
 H235 H 0.89892 0.22656 0.51029
 H236 H 0.83449 0.19072 0.53983
 H237 H 0.85816 0.17420 0.46747
 H238 H 0.81801 0.16568 0.46242
 H239 H 0.76749 0.11389 0.49483
 H240 H 0.82092 0.15215 0.53878
 C241 C 0.49276 0.86866 0.78279
 C242 C 0.47181 0.85647 0.79251
 C243 C 0.47530 0.84043 0.81196
 C244 C 0.49943 0.83692 0.82226
 C245 C 0.52010 0.84977 0.81233
 C246 C 0.51703 0.86489 0.79216
 C247 C 0.50308 0.81996 0.84322
 C248 C 0.52643 0.80801 0.84714
 C249 C 0.53022 0.79310 0.86735
 C250 C 0.51003 0.78836 0.88277
 C251 C 0.48616 0.79848 0.87826
 C252 C 0.48317 0.81523 0.85931
 H253 H 0.49006 0.88192 0.76849
 H254 H 0.45905 0.83054 0.81869
 H255 H 0.53874 0.84814 0.82012
 H256 H 0.54186 0.81028 0.83471
 H257 H 0.51285 0.77625 0.89801
 H258 H 0.46503 0.82405 0.85701
 C259 C 0.49080 0.12574 0.21156
 C260 C 0.46879 0.13692 0.20305
 C261 C 0.47011 0.15330 0.18366
 C262 C 0.49297 0.15689 0.17106
 C263 C 0.51490 0.14491 0.17983
 C264 C 0.51411 0.13049 0.20073
 C265 C 0.49387 0.17307 0.14909
 C266 C 0.51672 0.18406 0.14139
 C267 C 0.51753 0.19912 0.12090
 C268 C 0.49512 0.20372 0.10822
 C269 C 0.47202 0.19419 0.11612
 C270 C 0.47169 0.17805 0.13574
 H271 H 0.48975 0.11353 0.22693
 H272 H 0.45302 0.16279 0.17845
 H273 H 0.53282 0.14689 0.17087
 H274 H 0.53400 0.18153 0.15141
 H275 H 0.49560 0.21439 0.09184
 H276 H 0.45386 0.16974 0.14053
 C277 C 0.48951 0.11879 0.79863
 C278 C 0.51412 0.12565 0.80519
 C279 C 0.51762 0.14562 0.82088
 C280 C 0.49698 0.16043 0.82794
 C281 C 0.47276 0.15453 0.81884
 C282 C 0.46884 0.13326 0.80512
 C283 C 0.50044 0.18204 0.84445
 C284 C 0.48020 0.19024 0.85871
 C285 C 0.48248 0.21113 0.87332
 C286 C 0.50589 0.22306 0.87510
 C287 C 0.52660 0.21497 0.86166
 C288 C 0.52372 0.19469 0.84623
 H289 H 0.48640 0.10260 0.78763
 H290 H 0.53653 0.14965 0.82707
 H291 H 0.45671 0.16625 0.82242
 H292 H 0.46240 0.18043 0.85865
 H293 H 0.50834 0.23800 0.88775
 H294 H 0.53968 0.18922 0.83548
 C295 C 0.49856 0.88417 0.20658
 C296 C 0.52152 0.87294 0.20075
 C297 C 0.52159 0.85263 0.18520
 C298 C 0.49903 0.84458 0.17403
 C299 C 0.47629 0.85705 0.17953
 C300 C 0.47592 0.87661 0.19590
 C301 C 0.49905 0.82376 0.15630
 C302 C 0.47701 0.80962 0.15246
 C303 C 0.47569 0.79237 0.13390
 C304 C 0.49722 0.78738 0.12035
 C305 C 0.52023 0.79932 0.12528
 C306 C 0.52069 0.81824 0.14252
 H307 H 0.49831 0.89845 0.22013
 H308 H 0.53929 0.84337 0.18185
 H309 H 0.45875 0.85206 0.17083
 H310 H 0.46043 0.81236 0.16336
 H311 H 0.49579 0.77403 0.10602
 H312 H 0.53797 0.82861 0.14493
 C313 C 0.82337 0.49957 0.90742
 C314 C 0.82896 0.47792 0.89470
 C315 C 0.84409 0.47954 0.87418
 C316 C 0.85536 0.50221 0.86731
 C317 C 0.85004 0.52348 0.88113
 C318 C 0.83298 0.52256 0.90022
 C319 C 0.87173 0.50393 0.84537
 C320 C 0.87478 0.52668 0.83319
 C321 C 0.88995 0.52857 0.81280
 C322 C 0.90168 0.50736 0.80384
 C323 C 0.89825 0.48427 0.81488
 C324 C 0.88411 0.48287 0.83607
 H325 H 0.81092 0.49860 0.92266
 H326 H 0.84672 0.46301 0.86365
 H327 H 0.85850 0.54113 0.87691
 H328 H 0.86505 0.54312 0.83901
 H329 H 0.91419 0.50902 0.78865
 H330 H 0.88281 0.46520 0.84503
 C331 C 0.19423 0.49860 0.11038
 C332 C 0.18305 0.47672 0.11876
 C333 C 0.16806 0.47745 0.13931
 C334 C 0.16553 0.49933 0.15277
 C335 C 0.17782 0.52083 0.14457
 C336 C 0.19154 0.52075 0.12317
 C337 C 0.15117 0.49935 0.17580
 C338 C 0.13986 0.52116 0.18450
 C339 C 0.12732 0.52129 0.20653
 C340 C 0.12442 0.49909 0.21922
 C341 C 0.13504 0.47708 0.21076
 C342 C 0.14880 0.47748 0.18944
 H343 H 0.20655 0.49809 0.09498
 H344 H 0.15883 0.46057 0.14489
 H345 H 0.17728 0.53769 0.15496
 H346 H 0.14074 0.53816 0.17431
 H347 H 0.11291 0.49887 0.23517
 H348 H 0.15772 0.46052 0.18377
 C349 C 0.78216 0.49789 0.12755
 C350 C 0.79368 0.51935 0.13623
 C351 C 0.81255 0.51736 0.15371
 C352 C 0.81815 0.49435 0.16461
 C353 C 0.80569 0.47299 0.15583
 C354 C 0.78868 0.47456 0.13656
 C355 C 0.83630 0.49292 0.18536
 C356 C 0.84857 0.47058 0.19151
 C357 C 0.86427 0.46914 0.21176
 C358 C 0.86942 0.49059 0.22497
 C359 C 0.85817 0.51314 0.21886
 C360 C 0.84127 0.51402 0.19956
 H361 H 0.76800 0.49944 0.11362
 H362 H 0.82230 0.53406 0.15893
 H363 H 0.80903 0.45503 0.16371
 H364 H 0.84597 0.45409 0.18087
 H365 H 0.88299 0.48979 0.23948
 H366 H 0.83188 0.53137 0.19609
 C367 C 0.23391 0.50937 0.85812
 C368 C 0.22856 0.53069 0.84474
 C369 C 0.21180 0.52910 0.82533
 C370 C 0.20023 0.50643 0.81917
 C371 C 0.20585 0.48529 0.83309
 C372 C 0.22254 0.48666 0.85256
 C373 C 0.18217 0.50487 0.79853
 C374 C 0.17919 0.48259 0.78566
 C375 C 0.16192 0.48078 0.76668
 C376 C 0.14766 0.50156 0.76027
 C377 C 0.15005 0.52387 0.77282
 C378 C 0.16737 0.52546 0.79179
 H379 H 0.24684 0.51051 0.87310
 H380 H 0.20823 0.54559 0.81486
 H381 H 0.19676 0.46778 0.82940
 H382 H 0.19042 0.46653 0.79010
 H383 H 0.13431 0.50027 0.74564
 H384 H 0.16856 0.54260 0.80169
 C385 C 0.26278 0.35473 0.03858
 C386 C 0.26688 0.37306 0.05562
 C387 C 0.24677 0.38961 0.06410
 C388 C 0.24809 0.39890 0.08747
 C389 C 0.23142 0.41728 0.09491
 C390 C 0.21356 0.42714 0.07886
 C391 C 0.21205 0.41766 0.05555
 C392 C 0.22829 0.39876 0.04830
 C393 C 0.19855 0.44901 0.08551
 C394 C 0.18989 0.45236 0.10878
 H395 H 0.28589 0.37636 0.06211
 H396 H 0.26248 0.39239 0.09976
 H397 H 0.23345 0.42468 0.11282
 H398 H 0.19866 0.42527 0.04283
 H399 H 0.22734 0.39233 0.02996
 H400 H 0.19543 0.46323 0.07216
 H401 H 0.24372 0.34928 0.03390
 H402 H 0.18998 0.43668 0.12090
 C403 C 0.69965 0.62633 0.05114
 C404 C 0.72235 0.62913 0.06365
 C405 C 0.73214 0.60992 0.08010
 C406 C 0.75832 0.60713 0.08289
 C407 C 0.76816 0.58779 0.09672
 C408 C 0.75187 0.57109 0.10830
 C409 C 0.72572 0.57465 0.10637
 C410 C 0.71592 0.59388 0.09252
 C411 C 0.76098 0.54871 0.12089
 C412 C 0.78612 0.54387 0.12690
 H413 H 0.73448 0.64466 0.05943
 H414 H 0.77119 0.61938 0.07360
 H415 H 0.78840 0.58556 0.09750
 H416 H 0.71275 0.56216 0.11523
 H417 H 0.69566 0.59599 0.09146
 H418 H 0.74695 0.53487 0.12536
 H419 H 0.68830 0.60989 0.05367
 H420 H 0.80023 0.55828 0.12574
 C421 C 0.73374 0.35596 0.95754
 C422 C 0.73279 0.38168 0.95554
 C423 C 0.75418 0.39727 0.94793
 C424 C 0.75794 0.41978 0.95978
 C425 C 0.77700 0.43589 0.95262
 C426 C 0.79223 0.43028 0.93291
 C427 C 0.78867 0.40764 0.92095
 C428 C 0.76988 0.39107 0.92861
 C429 C 0.81109 0.44891 0.92551
 C430 C 0.81725 0.45400 0.90168
 H431 H 0.71665 0.39125 0.96292
 H432 H 0.74605 0.42494 0.97470
 H433 H 0.77939 0.45320 0.96213
 H434 H 0.80037 0.40271 0.90587
 H435 H 0.76715 0.37386 0.91907
 H436 H 0.81771 0.46146 0.93926
 H437 H 0.75063 0.34607 0.95244
 H438 H 0.81200 0.44111 0.88771
 C439 C 0.30954 0.62676 0.94932
 C440 C 0.29174 0.63216 0.93158
 C441 C 0.28508 0.61438 0.91242
 C442 C 0.26074 0.61488 0.90244
 C443 C 0.25321 0.59697 0.88581
 C444 C 0.27012 0.57841 0.87857
 C445 C 0.29485 0.57877 0.88762
 C446 C 0.30232 0.59659 0.90427
 C447 C 0.26217 0.55694 0.86391
 C448 C 0.23899 0.55496 0.85206
 H449 H 0.28102 0.64914 0.93279
 H450 H 0.24719 0.62855 0.90828
 H451 H 0.23389 0.59721 0.87955
 H452 H 0.30830 0.56479 0.88228
 H453 H 0.32154 0.59620 0.91086
 H454 H 0.27465 0.54110 0.86378
 H455 H 0.31915 0.60913 0.94929
 H456 H 0.22770 0.57126 0.84878
 C457 C 0.05916 0.30136 0.37880
 C458 C 0.06485 0.27641 0.37565
 C459 C 0.07927 0.26244 0.39393
 C460 C 0.07325 0.23756 0.39824
 C461 C 0.08422 0.22486 0.41749
 C462 C 0.10165 0.23687 0.43259
 C463 C 0.10859 0.26134 0.42748
 C464 C 0.09770 0.27396 0.40826
 C465 C 0.11162 0.22537 0.45472
 C466 C 0.11180 0.19999 0.45928
 H467 H 0.05541 0.26621 0.36153
 H468 H 0.05915 0.22828 0.38739
 H469 H 0.07816 0.20612 0.42104
 H470 H 0.12215 0.27092 0.43870
 H471 H 0.10343 0.29286 0.40495
 H472 H 0.11986 0.23760 0.46798
 H473 H 0.06652 0.31111 0.39423
 H474 H 0.10682 0.18706 0.44526
 C475 C 0.05117 0.71535 0.63532
 C476 C 0.06304 0.70537 0.61521
 C477 C 0.08015 0.71890 0.59877
 C478 C 0.09264 0.70522 0.58109
 C479 C 0.10685 0.71703 0.56347
 C480 C 0.10907 0.74285 0.56307
 C481 C 0.09729 0.75667 0.58120
 C482 C 0.08294 0.74480 0.59891
 C483 C 0.12148 0.75447 0.54213
 C484 C 0.12941 0.77909 0.54097
 H485 H 0.05907 0.68624 0.61079
 H486 H 0.09083 0.68528 0.58048
 H487 H 0.11558 0.70593 0.54967
 H488 H 0.09811 0.77665 0.58119
 H489 H 0.07334 0.75608 0.61196
 H490 H 0.12405 0.74298 0.52645
 H491 H 0.05562 0.73381 0.64143
 H492 H 0.13037 0.79011 0.55710
 C493 C 0.94650 0.68540 0.38955
 C494 C 0.93891 0.70947 0.38418
 C495 C 0.92273 0.72373 0.40061
 C496 C 0.92613 0.74937 0.40264
 C497 C 0.91282 0.76283 0.41984
 C498 C 0.89561 0.75079 0.43504
 C499 C 0.89134 0.72538 0.43208
 C500 C 0.90464 0.71198 0.41499
 C501 C 0.88321 0.76326 0.45536
 C502 C 0.88244 0.78879 0.45899
 H503 H 0.94712 0.71890 0.36895
 H504 H 0.93987 0.75882 0.39159
 H505 H 0.91683 0.78234 0.42171
 H506 H 0.87803 0.71569 0.44341
 H507 H 0.90093 0.69238 0.41330
 H508 H 0.87420 0.75146 0.46851
 H509 H 0.94024 0.67665 0.40593
 H510 H 0.88819 0.80145 0.44503
 C511 C 0.95392 0.29130 0.64364
 C512 C 0.93726 0.29575 0.62474
 C513 C 0.92459 0.27567 0.61132
 C514 C 0.90251 0.28084 0.59831
 C515 C 0.89224 0.26326 0.58268
 C516 C 0.90425 0.24035 0.57951
 C517 C 0.92590 0.23494 0.59301
 C518 C 0.93590 0.25231 0.60891
 C519 C 0.89686 0.22332 0.56008
 C520 C 0.87255 0.22168 0.55058
 H521 H 0.93467 0.31453 0.61844
 H522 H 0.89368 0.29883 0.59963
 H523 H 0.87585 0.26819 0.57210
 H524 H 0.93565 0.21754 0.59060
 H525 H 0.95331 0.24791 0.61814
 H526 H 0.91157 0.21208 0.55220
 H527 H 0.95479 0.27312 0.65173
 H528 H 0.85676 0.22993 0.55984
 C529 C 0.33989 0.05356 0.27323
 C530 C 0.36064 0.06776 0.28017
 C531 C 0.37741 0.07988 0.26260
 C532 C 0.39032 0.10162 0.26887
 C533 C 0.40869 0.11155 0.25363
 C534 C 0.41489 0.09942 0.23222
 C535 C 0.40172 0.07791 0.22581
 C536 C 0.38293 0.06838 0.24068
 C537 C 0.43695 0.10691 0.21790
 C538 C 0.44449 0.13138 0.21467
 H539 H 0.36572 0.06880 0.29895
 H540 H 0.38662 0.11057 0.28583
 H541 H 0.41898 0.12787 0.25924
 H542 H 0.40647 0.06810 0.20955
 H543 H 0.37378 0.05125 0.23564
 H544 H 0.44788 0.09242 0.20948
 H545 H 0.33314 0.05455 0.25492
 H546 H 0.43230 0.14642 0.22004
 C547 C 0.60631 0.04748 0.69231
 C548 C 0.61060 0.05214 0.71656
 C549 C 0.59137 0.06454 0.73151
 C550 C 0.59863 0.07803 0.75189
 C551 C 0.58052 0.09045 0.76563
 C552 C 0.55486 0.08931 0.75917
 C553 C 0.54768 0.07512 0.73930
 C554 C 0.56559 0.06269 0.72580
 C555 C 0.53483 0.10321 0.77154
 C556 C 0.53615 0.11271 0.79479
 H557 H 0.62823 0.04650 0.72476
 H558 H 0.61836 0.07943 0.75684
 H559 H 0.58674 0.10137 0.78076
 H560 H 0.52800 0.07365 0.73414
 H561 H 0.55904 0.05150 0.71097
 H562 H 0.51759 0.10589 0.76141
 H563 H 0.58949 0.05463 0.68372
 H564 H 0.55354 0.11181 0.80494
 C565 C 0.36829 0.94463 0.70318
 C566 C 0.36192 0.92932 0.72235
 C567 C 0.38006 0.91089 0.73173
 C568 C 0.38160 0.90647 0.75645
 C569 C 0.40084 0.89159 0.76588
 C570 C 0.41864 0.88057 0.75059
 C571 C 0.41597 0.88374 0.72577
 C572 C 0.39686 0.89864 0.71641
 C573 C 0.44172 0.86818 0.75958
 C574 C 0.44606 0.86168 0.78346
 H575 H 0.34459 0.93261 0.73204
 H576 H 0.36871 0.91558 0.76858
 H577 H 0.40234 0.88985 0.78512
 H578 H 0.42928 0.87535 0.71357
 H579 H 0.39563 0.90098 0.69719
 H580 H 0.45684 0.86541 0.74687
 H581 H 0.38669 0.94281 0.69500
 H582 H 0.43057 0.86090 0.79598
 C583 C 0.63494 0.95690 0.28812
 C584 C 0.60891 0.95324 0.28868
 C585 C 0.59460 0.94107 0.26933
 C586 C 0.57086 0.95065 0.26343
 C587 C 0.55637 0.93985 0.24545
 C588 C 0.56491 0.91873 0.23348
 C589 C 0.58866 0.90886 0.23938
 C590 C 0.60358 0.92016 0.25710
 C591 C 0.54804 0.90778 0.21532
 C592 C 0.54515 0.88241 0.21161
 H593 H 0.59801 0.96276 0.30221
 H594 H 0.56359 0.96674 0.27264
 H595 H 0.53809 0.94773 0.24124
 H596 H 0.59574 0.89268 0.23024
 H597 H 0.62179 0.91231 0.26154
 H598 H 0.53422 0.92006 0.20732
 H599 H 0.64605 0.94911 0.27377
 H600 H 0.55912 0.86944 0.21812
 C601 C 0.37216 0.30725 0.95603
 C602 C 0.37223 0.28365 0.94598
 C603 C 0.39373 0.27384 0.93216
 C604 C 0.39752 0.24820 0.93139
 C605 C 0.41799 0.23826 0.91901
 C606 C 0.43487 0.25385 0.90675
 C607 C 0.43084 0.27949 0.90730
 C608 C 0.41045 0.28941 0.91977
 C609 C 0.45713 0.24438 0.89373
 C610 C 0.46024 0.21972 0.88693
 H611 H 0.35673 0.27120 0.94990
 H612 H 0.38488 0.23583 0.94082
 H613 H 0.42066 0.21847 0.91956
 H614 H 0.44349 0.29192 0.89797
 H615 H 0.40774 0.30922 0.91938
 H616 H 0.47108 0.25783 0.88816
 H617 H 0.38832 0.31930 0.95397
 H618 H 0.44515 0.20661 0.88986
 C619 C 0.65684 0.71791 0.94932
 C620 C 0.63723 0.71235 0.93350
 C621 C 0.62199 0.73156 0.92142
 C622 C 0.60852 0.72549 0.90054
 C623 C 0.59102 0.74205 0.89078
 C624 C 0.58638 0.76480 0.90206
 C625 C 0.60035 0.77114 0.92252
 C626 C 0.61813 0.75480 0.93204
 C627 C 0.56497 0.78062 0.89494
 C628 C 0.55491 0.78142 0.87186
 H629 H 0.63162 0.69323 0.93115
 H630 H 0.61093 0.70756 0.89226
 H631 H 0.58012 0.73639 0.87529
 H632 H 0.59683 0.78843 0.93168
 H633 H 0.62765 0.75983 0.94850
 H634 H 0.55608 0.79157 0.90879
 H635 H 0.66442 0.73650 0.95004
 H636 H 0.56518 0.77354 0.85699
 C637 C 0.34707 0.71877 0.05239
 C638 C 0.36535 0.71270 0.06943
 C639 C 0.38230 0.73125 0.08045
 C640 C 0.39452 0.72564 0.10212
 C641 C 0.41348 0.74115 0.11110
 C642 C 0.42083 0.76230 0.09823
 C643 C 0.40823 0.76818 0.07686
 C644 C 0.38902 0.75295 0.06811
 C645 C 0.44321 0.77697 0.10514
 C646 C 0.45171 0.77953 0.12866
 H647 H 0.36896 0.69339 0.07333
 H648 H 0.38994 0.70882 0.11173
 H649 H 0.42324 0.73584 0.12737
 H650 H 0.41380 0.78424 0.06651
 H651 H 0.38053 0.75749 0.05101
 H652 H 0.45341 0.78639 0.09102
 H653 H 0.34141 0.73785 0.05004
 H654 H 0.44008 0.77332 0.14340
 C655 C 0.62783 0.29472 0.03661
 C656 C 0.62845 0.27132 0.04719
 C657 C 0.60670 0.26114 0.06079
 C658 C 0.61055 0.24204 0.07750
 C659 C 0.59025 0.23216 0.09047
 C660 C 0.56563 0.24119 0.08681
 C661 C 0.56186 0.26008 0.06995
 C662 C 0.58199 0.26976 0.05695
 C663 C 0.54312 0.23159 0.09954
 C664 C 0.54195 0.20948 0.11254
 H665 H 0.64543 0.26030 0.04578
 H666 H 0.62935 0.23489 0.08067
 H667 H 0.59404 0.21771 0.10337
 H668 H 0.54309 0.26719 0.06649
 H669 H 0.57784 0.28366 0.04358
 H670 H 0.52596 0.24223 0.09754
 H671 H 0.61168 0.30656 0.03931
 H672 H 0.55896 0.19923 0.11648
 C673 C 0.28508 0.05015 0.64739
 C674 C 0.26066 0.04509 0.63940
 C675 C 0.24975 0.05732 0.61794
 C676 C 0.22355 0.05688 0.61409
 C677 C 0.21312 0.06654 0.59294
 C678 C 0.22887 0.07659 0.57516
 C679 C 0.25500 0.07688 0.57902
 C680 C 0.26535 0.06737 0.60006
 C681 C 0.21934 0.08602 0.55194
 C682 C 0.19450 0.09329 0.54745
 H683 H 0.25028 0.02994 0.64742
 H684 H 0.21117 0.04876 0.62735
 H685 H 0.19292 0.06546 0.59035
 H686 H 0.26759 0.08421 0.56551
 H687 H 0.28567 0.06713 0.60168
 H688 H 0.23325 0.08913 0.53809
 H689 H 0.29519 0.06588 0.64022
 H690 H 0.18084 0.09313 0.56179
 C691 C 0.69269 0.05694 0.37264
 C692 C 0.71680 0.06723 0.37059
 C693 C 0.72718 0.08451 0.38877
 C694 C 0.75338 0.08565 0.39241
 C695 C 0.76355 0.09984 0.41106
 C696 C 0.74761 0.11333 0.42630
 C697 C 0.72157 0.11317 0.42187
 C698 C 0.71145 0.09916 0.40317
 C699 C 0.75702 0.12553 0.44830
 C700 C 0.78208 0.13253 0.45201
 H701 H 0.72922 0.06081 0.35655
 H702 H 0.76593 0.07471 0.38145
 H703 H 0.78370 0.09921 0.41416
 H704 H 0.70892 0.12354 0.43325
 H705 H 0.69126 0.09967 0.40033
 H706 H 0.74358 0.12855 0.46257
 H707 H 0.68083 0.06226 0.38749
 H708 H 0.79506 0.13300 0.43710
 C709 C 0.68620 0.95777 0.61228
 C710 C 0.71068 0.94980 0.61728
 C711 C 0.72452 0.93379 0.60039
 C712 C 0.75080 0.93613 0.59821
 C713 C 0.76381 0.92287 0.58062
 C714 C 0.75066 0.90683 0.56516
 C715 C 0.72462 0.90362 0.56822
 C716 C 0.71171 0.91676 0.58574
 C717 C 0.76266 0.89466 0.54448
 C718 C 0.78855 0.89099 0.54178
 H719 H 0.72053 0.95705 0.63279
 H720 H 0.76109 0.94900 0.60945
 H721 H 0.78384 0.92600 0.57860
 H722 H 0.71410 0.89119 0.55669
 H723 H 0.69162 0.91375 0.58755
 H724 H 0.75019 0.88782 0.53053
 H725 H 0.67716 0.95234 0.59568
 H726 H 0.80137 0.89448 0.55652
 C727 C 0.28414 0.94542 0.35159
 C728 C 0.29558 0.93750 0.37283
 C729 C 0.28352 0.92077 0.39054
 C730 C 0.29835 0.91146 0.40936
 C731 C 0.28745 0.89774 0.42785
 C732 C 0.26144 0.89291 0.42798
 C733 C 0.24658 0.90167 0.40885
 C734 C 0.25749 0.91546 0.39033
 C735 C 0.25033 0.88103 0.44945
 C736 C 0.22587 0.87136 0.45050
 H737 H 0.31415 0.94464 0.37720
 H738 H 0.31840 0.91535 0.41010
 H739 H 0.29933 0.89140 0.44245
 H740 H 0.22637 0.89895 0.40858
 H741 H 0.24517 0.92271 0.37657
 H742 H 0.26188 0.88048 0.46548
 H743 H 0.26626 0.93775 0.34592
 H744 H 0.21524 0.86849 0.43415
 C745 C 0.06196 0.38431 0.67925
 C746 C 0.07881 0.37953 0.69798
 C747 C 0.09844 0.39732 0.70576
 C748 C 0.10709 0.39646 0.72953
 C749 C 0.12395 0.41429 0.73815
 C750 C 0.13278 0.43319 0.72297
 C751 C 0.12516 0.43319 0.69887
 C752 C 0.10825 0.41543 0.69029
 C753 C 0.14730 0.45468 0.73202
 C754 C 0.15710 0.45654 0.75521
 H755 H 0.07627 0.36292 0.70859
 H756 H 0.09998 0.38255 0.74175
 H757 H 0.12901 0.41371 0.75690
 H758 H 0.13173 0.44747 0.68676
 H759 H 0.10277 0.41615 0.67162
 H760 H 0.14836 0.47074 0.72046
 H761 H 0.06326 0.40134 0.66915
 H762 H 0.15991 0.44008 0.76591
 C763 C 0.04817 0.61315 0.31539
 C764 C 0.05437 0.61850 0.29168
 C765 C 0.07199 0.60281 0.27800
 C766 C 0.06828 0.59958 0.25331
 C767 C 0.08312 0.58283 0.24051
 C768 C 0.10219 0.56931 0.25224
 C769 C 0.10671 0.57362 0.27664
 C770 C 0.09188 0.59026 0.28939
 C771 C 0.11617 0.54903 0.24056
 C772 C 0.11647 0.54446 0.21596
 H773 H 0.04433 0.63305 0.28231
 H774 H 0.05317 0.60922 0.24414
 H775 H 0.07886 0.57985 0.22179
 H776 H 0.12139 0.56359 0.28607
 H777 H 0.09585 0.59299 0.30823
 H778 H 0.12636 0.53644 0.25220
 H779 H 0.05649 0.59728 0.32420
 H780 H 0.10950 0.55811 0.20342
 C781 C 0.94870 0.36870 0.31077
 C782 C 0.94261 0.36585 0.28658
 C783 C 0.92409 0.38225 0.27454
 C784 C 0.92726 0.38835 0.25028
 C785 C 0.91175 0.40607 0.23934
 C786 C 0.89264 0.41780 0.25251
 C787 C 0.88862 0.41062 0.27634
 C788 C 0.90399 0.39291 0.28720
 C789 C 0.87826 0.43915 0.24312
 C790 C 0.87580 0.44533 0.21893
 H791 H 0.95357 0.35324 0.27575
 H792 H 0.94249 0.38023 0.24010
 H793 H 0.91559 0.41134 0.22102
 H794 H 0.87389 0.41921 0.28682
 H795 H 0.90032 0.38796 0.30564
 H796 H 0.86932 0.45105 0.25618
 H797 H 0.93938 0.38282 0.32118
 H798 H 0.88140 0.43240 0.20519
 C799 C 0.94932 0.63562 0.70333
 C800 C 0.94252 0.63843 0.72730
 C801 C 0.92833 0.61900 0.74043
 C802 C 0.93173 0.61657 0.76527
 C803 C 0.92102 0.59664 0.77768
 C804 C 0.90656 0.57884 0.76541
 C805 C 0.90211 0.58199 0.74084
 C806 C 0.91258 0.60199 0.72851
 C807 C 0.89797 0.55570 0.77700
 C808 C 0.89432 0.55305 0.80161
 H809 H 0.95031 0.65378 0.73736
 H810 H 0.94363 0.62949 0.77492
 H811 H 0.92515 0.59462 0.79657
 H812 H 0.89087 0.56865 0.73102
 H813 H 0.90856 0.60374 0.70958
 H814 H 0.89451 0.53990 0.76554
 H815 H 0.94324 0.61940 0.69357
 H816 H 0.89424 0.56925 0.81297
 C817 C 0.72222 0.63284 0.95917
 C818 C 0.74858 0.63341 0.95943
 C819 C 0.76303 0.61182 0.95052
 C820 C 0.78650 0.61486 0.93929
 C821 C 0.79936 0.59433 0.92993
 C822 C 0.78896 0.57042 0.93200
 C823 C 0.76605 0.56749 0.94415
 C824 C 0.75337 0.58780 0.95342
 C825 C 0.80013 0.54801 0.92112
 C826 C 0.82447 0.54588 0.91173
 H827 H 0.75860 0.64900 0.96707
 H828 H 0.79452 0.63316 0.93718
 H829 H 0.81695 0.59739 0.92065
 H830 H 0.75774 0.54931 0.94634
 H831 H 0.73590 0.58458 0.96291
 H832 H 0.78776 0.53212 0.91999
 H833 H 0.71298 0.61794 0.94955
 H834 H 0.83683 0.56179 0.91121
 C835 C 0.28555 0.36809 0.94845
 C836 C 0.29016 0.39348 0.94642
 C837 C 0.27490 0.41070 0.93180
 C838 C 0.27424 0.43556 0.93879
 C839 C 0.26060 0.45283 0.92556
 C840 C 0.24765 0.44584 0.90470
 C841 C 0.24809 0.42086 0.89762
 C842 C 0.26158 0.40339 0.91114
 C843 C 0.23479 0.46552 0.89088
 C844 C 0.22871 0.46415 0.86655
 H845 H 0.30428 0.40180 0.95799
 H846 H 0.28432 0.44167 0.95463
 H847 H 0.26062 0.47192 0.93143
 H848 H 0.23809 0.41471 0.88180
 H849 H 0.26196 0.38440 0.90510
 H850 H 0.23210 0.48302 0.89993
 H851 H 0.27088 0.35950 0.93777
 H852 H 0.22944 0.44669 0.85719
 C853 C 0.27371 0.64088 0.04000
 C854 C 0.27888 0.62155 0.05588
 C855 C 0.25921 0.60544 0.06616
 C856 C 0.26390 0.59368 0.08811
 C857 C 0.24700 0.57616 0.09707
 C858 C 0.22526 0.56978 0.08396
 C859 C 0.22045 0.58167 0.06208
 C860 C 0.23713 0.59955 0.05333
 C861 C 0.20870 0.54933 0.09169
 C862 C 0.20507 0.54333 0.11571
 H863 H 0.29829 0.61764 0.06077
 H864 H 0.28099 0.59767 0.09811
 H865 H 0.25158 0.56685 0.11369
 H866 H 0.20398 0.57679 0.05154
 H867 H 0.23334 0.60783 0.03603
 H868 H 0.19894 0.53875 0.07803
 H869 H 0.25438 0.64669 0.03715
 H870 H 0.21183 0.55580 0.12948
 C871 C 0.71179 0.35736 0.04843
 C872 C 0.70565 0.38196 0.05320
 C873 C 0.72207 0.39884 0.06699
 C874 C 0.72289 0.42367 0.05993
 C875 C 0.73884 0.44029 0.07150
 C876 C 0.75382 0.43267 0.09086
 C877 C 0.75270 0.40790 0.09847
 C878 C 0.73702 0.39100 0.08646
 C879 C 0.77059 0.45124 0.10190
 C880 C 0.77711 0.45199 0.12617
 H881 H 0.69014 0.39038 0.04346
 H882 H 0.71157 0.43014 0.04499
 H883 H 0.73937 0.45930 0.06534
 H884 H 0.76426 0.40149 0.11324
 H885 H 0.73650 0.37198 0.09247
 H886 H 0.77612 0.46657 0.09057
 H887 H 0.72762 0.34883 0.05754
 H888 H 0.77317 0.43639 0.13773
 C889 C 0.94694 0.71322 0.63729
 C890 C 0.93627 0.70454 0.61596
 C891 C 0.91802 0.71860 0.60113
 C892 C 0.90415 0.70577 0.58368
 C893 C 0.88888 0.71846 0.56741
 C894 C 0.88717 0.74432 0.56812
 C895 C 0.90036 0.75722 0.58612
 C896 C 0.91565 0.74447 0.60248
 C897 C 0.87414 0.75700 0.54808
 C898 C 0.86909 0.78232 0.54712
 H899 H 0.94158 0.68636 0.60958
 H900 H 0.90569 0.68586 0.58218
 H901 H 0.87908 0.70807 0.55365
 H902 H 0.90002 0.77718 0.58696
 H903 H 0.92648 0.75510 0.61530
 H904 H 0.86985 0.74599 0.53237
 H905 H 0.94043 0.73039 0.64501
 H906 H 0.86964 0.79338 0.56324
 C907 C 0.96199 0.28792 0.37629
 C908 C 0.95635 0.29137 0.40048
 C909 C 0.94713 0.27148 0.41631
 C910 C 0.95394 0.27234 0.44057
 C911 C 0.94541 0.25432 0.45645
 C912 C 0.92936 0.23537 0.44856
 C913 C 0.92275 0.23419 0.42415
 C914 C 0.93165 0.25210 0.40810
 C915 C 0.91895 0.21836 0.46674
 C916 C 0.89493 0.20791 0.46498
 H917 H 0.96189 0.30852 0.40905
 H918 H 0.96592 0.28704 0.44729
 H919 H 0.95074 0.25566 0.47516
 H920 H 0.91073 0.21959 0.41740
 H921 H 0.92590 0.25110 0.38952
 H922 H 0.92882 0.21733 0.48373
 H923 H 0.95776 0.27042 0.36777
 H924 H 0.88531 0.20736 0.44787
 C925 C 0.05123 0.30412 0.61991
 C926 C 0.06500 0.28296 0.62589
 C927 C 0.08046 0.26998 0.60779
 C928 C 0.08250 0.24413 0.60852
 C929 C 0.09489 0.23137 0.59019
 C930 C 0.10581 0.24438 0.57096
 C931 C 0.10483 0.27029 0.57098
 C932 C 0.09245 0.28298 0.58921
 C933 C 0.11631 0.23189 0.54959
 C934 C 0.12213 0.20674 0.54835
 H935 H 0.06265 0.27456 0.64337
 H936 H 0.07355 0.23372 0.62274
 H937 H 0.09490 0.21140 0.59072
 H938 H 0.11321 0.28080 0.55650
 H939 H 0.09204 0.30297 0.58854
 H940 H 0.11914 0.24315 0.53377
 H941 H 0.05212 0.31106 0.60173
 H942 H 0.12278 0.19576 0.56454
 C943 C 0.04864 0.68722 0.38415
 C944 C 0.05659 0.71092 0.37760
 C945 C 0.07454 0.72473 0.39296
 C946 C 0.07140 0.75023 0.39648
 C947 C 0.08599 0.76276 0.41361
 C948 C 0.10414 0.74992 0.42722
 C949 C 0.10830 0.72481 0.42251
 C950 C 0.09383 0.71238 0.40546
 C951 C 0.11732 0.76105 0.44795
 C952 C 0.11984 0.78637 0.45214
 H953 H 0.04755 0.72037 0.36276
 H954 H 0.05676 0.76015 0.38691
 H955 H 0.08212 0.78208 0.41692
 H956 H 0.12233 0.71456 0.43257
 H957 H 0.09734 0.69291 0.40252
 H958 H 0.12552 0.74842 0.46091
 H959 H 0.05620 0.67907 0.40040
 H960 H 0.11502 0.79962 0.43834
 C961 C 0.61221 0.94744 0.68285
 C962 C 0.61362 0.94225 0.70730
 C963 C 0.59533 0.92577 0.71955
 C964 C 0.60081 0.91699 0.74268
 C965 C 0.58333 0.90241 0.75512
 C966 C 0.55993 0.89646 0.74459
 C967 C 0.55460 0.90510 0.72146
 C968 C 0.57187 0.91974 0.70918
 C969 C 0.54025 0.88172 0.75675
 C970 C 0.53921 0.87718 0.78136
 H971 H 0.62786 0.95147 0.71803
 H972 H 0.61864 0.92151 0.75118
 H973 H 0.58833 0.89584 0.77280
 H974 H 0.53664 0.90098 0.71300
 H975 H 0.56621 0.92678 0.69187
 H976 H 0.52489 0.87499 0.74566
 H977 H 0.59891 0.93772 0.67156
 H978 H 0.55477 0.88224 0.79293
 C979 C 0.35155 0.95692 0.27131
 C980 C 0.37782 0.95721 0.27318
 C981 C 0.39508 0.94582 0.25564
 C982 C 0.41928 0.95597 0.25329
 C983 C 0.43673 0.94549 0.23775
 C984 C 0.43067 0.92426 0.22453
 C985 C 0.40628 0.91413 0.22658
 C986 C 0.38856 0.92492 0.24197
 C987 C 0.45089 0.91310 0.20987
 C988 C 0.45176 0.88831 0.20288
 H989 H 0.38638 0.96835 0.28715
 H990 H 0.42476 0.97208 0.26359
 H991 H 0.45536 0.95368 0.23656
 H992 H 0.40081 0.89794 0.21647
 H993 H 0.37011 0.91650 0.24361
 H994 H 0.46749 0.92438 0.20683
 H995 H 0.34240 0.94762 0.25649
 H996 H 0.43513 0.87677 0.20393
 C997 C 0.63514 0.05639 0.28818
 C998 C 0.61320 0.06878 0.29485
 C999 C 0.59745 0.08398 0.27863
 C1000 C 0.58001 0.10017 0.28897
 C1001 C 0.56241 0.11258 0.27481
 C1002 C 0.56163 0.10902 0.24994
 C1003 C 0.57962 0.09340 0.23933
 C1004 C 0.59743 0.08100 0.25359
 C1005 C 0.54044 0.12035 0.23651
 C1006 C 0.53762 0.12075 0.21160
 H1007 H 0.60677 0.06684 0.31316
 H1008 H 0.57954 0.10271 0.30821
 H1009 H 0.54879 0.12446 0.28349
 H1010 H 0.57941 0.08988 0.22029
 H1011 H 0.61027 0.06825 0.24507
 H1012 H 0.52571 0.12881 0.24711
 H1013 H 0.64352 0.05953 0.27079
 H1014 H 0.55298 0.11539 0.20004
 C1015 C 0.34897 0.04157 0.73026
 C1016 C 0.36657 0.06030 0.72630
 C1017 C 0.38070 0.07277 0.74572
 C1018 C 0.39134 0.09609 0.74134
 C1019 C 0.40788 0.10682 0.75791
 C1020 C 0.41438 0.09413 0.77904
 C1021 C 0.40312 0.07116 0.78377
 C1022 C 0.38628 0.06062 0.76737
 C1023 C 0.43534 0.10257 0.79453
 C1024 C 0.44345 0.12708 0.79590
 H1025 H 0.37092 0.06552 0.70802
 H1026 H 0.38754 0.10566 0.72465
 H1027 H 0.41669 0.12427 0.75343
 H1028 H 0.40812 0.06091 0.79977
 H1029 H 0.37890 0.04235 0.77107
 H1030 H 0.44598 0.08857 0.80409
 H1031 H 0.34221 0.03784 0.74818
 H1032 H 0.43147 0.14187 0.78944
 C1033 C 0.63049 0.70447 0.04254
 C1034 C 0.63179 0.72891 0.05047
 C1035 C 0.61005 0.74062 0.06279
 C1036 C 0.61389 0.76014 0.07902
 C1037 C 0.59348 0.77033 0.09160
 C1038 C 0.56891 0.76112 0.08798
 C1039 C 0.56507 0.74235 0.07111
 C1040 C 0.58522 0.73248 0.05843
 C1041 C 0.54689 0.76910 0.10217
 C1042 C 0.54376 0.79248 0.11241
 H1043 H 0.64885 0.73955 0.04761
 H1044 H 0.63276 0.76701 0.08245
 H1045 H 0.59708 0.78468 0.10465
 H1046 H 0.54628 0.73519 0.06774
 H1047 H 0.58114 0.71845 0.04519
 H1048 H 0.53200 0.75556 0.10404
 H1049 H 0.61402 0.69348 0.04677
 H1050 H 0.55895 0.80584 0.11150
 C1051 C 0.35161 0.29318 0.05021
 C1052 C 0.35769 0.26817 0.04836
 C1053 C 0.37914 0.25717 0.06183
 C1054 C 0.38045 0.23144 0.06516
 C1055 C 0.40147 0.22067 0.07643
 C1056 C 0.42165 0.23555 0.08436
 C1057 C 0.42030 0.26118 0.08088
 C1058 C 0.39944 0.27186 0.06974
 C1059 C 0.44503 0.22551 0.09523
 C1060 C 0.44801 0.20163 0.10442
 H1061 H 0.34787 0.25682 0.03533
 H1062 H 0.36531 0.21965 0.05881
 H1063 H 0.40205 0.20079 0.07831
 H1064 H 0.43570 0.27306 0.08648
 H1065 H 0.39988 0.29158 0.06663
 H1066 H 0.46060 0.23835 0.09724
 H1067 H 0.36045 0.30433 0.06395
 H1068 H 0.43204 0.18920 0.10530
 C1069 C 0.65034 0.28819 0.94030
 C1070 C 0.63174 0.29941 0.92622
 C1071 C 0.61471 0.28621 0.90936
 C1072 C 0.59715 0.30024 0.89630
 C1073 C 0.57836 0.28873 0.88271
 C1074 C 0.57675 0.26288 0.88170
 C1075 C 0.59503 0.24871 0.89381
 C1076 C 0.61382 0.26025 0.90752
 C1077 C 0.55405 0.25163 0.87065
 C1078 C 0.55165 0.22660 0.86501
 H1079 H 0.62831 0.31897 0.92881
 H1080 H 0.59732 0.32024 0.89734
 H1081 H 0.56445 0.30009 0.87367
 H1082 H 0.59411 0.22874 0.89387
 H1083 H 0.62673 0.24861 0.91740
 H1084 H 0.53771 0.26343 0.86830
 H1085 H 0.65552 0.26910 0.93755
 H1086 H 0.56825 0.21504 0.86382
 C1087 C 0.37980 0.70135 0.96346
 C1088 C 0.37727 0.72375 0.95129
 C1089 C 0.39833 0.73474 0.93762
 C1090 C 0.40000 0.76052 0.93522
 C1091 C 0.42037 0.77134 0.92320
 C1092 C 0.43922 0.75640 0.91306
 C1093 C 0.43714 0.73063 0.91502
 C1094 C 0.41688 0.71988 0.92700
 C1095 C 0.46165 0.76658 0.90083
 C1096 C 0.46393 0.79081 0.89240
 H1097 H 0.36000 0.73425 0.95312
 H1098 H 0.38584 0.77233 0.94317
 H1099 H 0.42146 0.79127 0.92238
 H1100 H 0.45127 0.71868 0.90720
 H1101 H 0.41577 0.69992 0.92774
 H1102 H 0.47662 0.75363 0.89684
 H1103 H 0.39774 0.69184 0.96355
 H1104 H 0.44816 0.80339 0.89360
 C1105 C 0.69289 0.95575 0.37441
 C1106 C 0.71707 0.94580 0.37251
 C1107 C 0.72793 0.92914 0.39098
 C1108 C 0.75425 0.92772 0.39355
 C1109 C 0.76504 0.91403 0.41224
 C1110 C 0.74962 0.90136 0.42864
 C1111 C 0.72340 0.90186 0.42541
 C1112 C 0.71263 0.91533 0.40665
 C1113 C 0.75992 0.88956 0.45047
 C1114 C 0.78483 0.88159 0.45288
 H1115 H 0.72918 0.95206 0.35812
 H1116 H 0.76646 0.93801 0.38163
 H1117 H 0.78533 0.91438 0.41441
 H1118 H 0.71114 0.89211 0.43771
 H1119 H 0.69234 0.91501 0.40474
 H1120 H 0.74729 0.88732 0.46553
 H1121 H 0.68103 0.95085 0.38939
 H1122 H 0.79677 0.88036 0.43725
 C1123 C 0.30263 0.95528 0.62551
 C1124 C 0.27920 0.94346 0.62570
 C1125 C 0.26940 0.92929 0.60500
 C1126 C 0.24322 0.92710 0.60174
 C1127 C 0.23335 0.91464 0.58184
 C1128 C 0.24959 0.90379 0.56500
 C1129 C 0.27575 0.90552 0.56863
 C1130 C 0.28558 0.91801 0.58844
 C1131 C 0.24037 0.89139 0.54301
 C1132 C 0.21538 0.88418 0.53886
 H1133 H 0.26680 0.94621 0.64084
 H1134 H 0.23037 0.93557 0.61432
 H1135 H 0.21310 0.91412 0.57957
 H1136 H 0.28869 0.89723 0.55602
 H1137 H 0.30584 0.91861 0.59074
 H1138 H 0.25437 0.88693 0.52963
 H1139 H 0.31443 0.95445 0.60976
 H1140 H 0.20156 0.88566 0.55297
 C1141 C 0.27293 0.04480 0.35521
 C1142 C 0.28337 0.05360 0.37662
 C1143 C 0.26918 0.06575 0.39622
 C1144 C 0.28242 0.07180 0.41724
 C1145 C 0.26990 0.08151 0.43704
 C1146 C 0.24382 0.08569 0.43630
 C1147 C 0.23048 0.08017 0.41512
 C1148 C 0.24303 0.07032 0.39525
 C1149 C 0.23121 0.09420 0.45844
 C1150 C 0.20733 0.10507 0.45904
 H1151 H 0.30321 0.05011 0.37991
 H1152 H 0.30253 0.06849 0.41859
 H1153 H 0.28063 0.08549 0.45314
 H1154 H 0.21027 0.08262 0.41402
 H1155 H 0.23199 0.06591 0.37954
 H1156 H 0.24168 0.09241 0.47505
 H1157 H 0.25340 0.04817 0.35069
 H1158 H 0.19799 0.10996 0.44244
 C1159 C 0.67971 0.05881 0.61943
 C1160 C 0.70581 0.06183 0.61852
 C1161 C 0.71827 0.07690 0.59974
 C1162 C 0.74344 0.08436 0.60286
 C1163 C 0.75605 0.09737 0.58476
 C1164 C 0.74364 0.10299 0.56308
 C1165 C 0.71848 0.09557 0.56009
 C1166 C 0.70600 0.08255 0.57802
 C1167 C 0.75582 0.11597 0.54281
 C1168 C 0.78147 0.12161 0.54117
 H1169 H 0.71758 0.05162 0.63097
 H1170 H 0.75342 0.08001 0.61929
 H1171 H 0.77539 0.10281 0.58794
 H1172 H 0.70851 0.09940 0.54352
 H1173 H 0.68702 0.07634 0.57426
 H1174 H 0.74371 0.12104 0.52792
 H1175 H 0.66760 0.06964 0.60788
 H1176 H 0.79398 0.11856 0.55620
 C1177 C 0.94408 0.60802 0.32259
 C1178 C 0.93225 0.61316 0.30079
 C1179 C 0.91478 0.59528 0.28930
 C1180 C 0.91263 0.59491 0.26425
 C1181 C 0.89838 0.57656 0.25281
 C1182 C 0.88581 0.55835 0.26631
 C1183 C 0.88697 0.55949 0.29136
 C1184 C 0.90105 0.57789 0.30277
 C1185 C 0.87352 0.53671 0.25502
 C1186 C 0.86518 0.53633 0.23129
 H1187 H 0.93772 0.62955 0.29091
 H1188 H 0.92288 0.60819 0.25348
 H1189 H 0.89829 0.57604 0.23344
 H1190 H 0.87732 0.54579 0.30215
 H1191 H 0.90134 0.57816 0.32214
 H1192 H 0.87137 0.52020 0.26582
 H1193 H 0.94006 0.59086 0.33179
 H1194 H 0.86388 0.55348 0.22136
 C1195 C 0.96068 0.37802 0.70300
 C1196 C 0.96298 0.38049 0.72781
 C1197 C 0.94965 0.40024 0.74125
 C1198 C 0.94598 0.39790 0.76607
 C1199 C 0.93400 0.41670 0.77909
 C1200 C 0.92561 0.43831 0.76744
 C1201 C 0.92957 0.44064 0.74272
 C1202 C 0.94156 0.42206 0.72983
 C1203 C 0.91307 0.45920 0.77981
 C1204 C 0.90962 0.46159 0.80454
 H1205 H 0.97547 0.36817 0.73752
 H1206 H 0.95234 0.38147 0.77538
 H1207 H 0.93143 0.41412 0.79811
 H1208 H 0.92366 0.45718 0.73328
 H1209 H 0.94494 0.42531 0.71102
 H1210 H 0.90614 0.47394 0.76842
 H1211 H 0.94725 0.38931 0.69333
 H1212 H 0.91428 0.44653 0.81649
 C1213 C 0.05055 0.63930 0.70631
 C1214 C 0.05555 0.61485 0.70007
 C1215 C 0.06999 0.59747 0.71526
 C1216 C 0.06486 0.57217 0.71298
 C1217 C 0.07793 0.55490 0.72677
 C1218 C 0.09684 0.56244 0.74282
 C1219 C 0.10210 0.58784 0.74520
 C1220 C 0.08871 0.60524 0.73154
 C1221 C 0.11067 0.54298 0.75604
 C1222 C 0.13485 0.54570 0.76579
 H1223 H 0.04632 0.60728 0.68434
 H1224 H 0.05054 0.56571 0.70057
 H1225 H 0.07352 0.53547 0.72454
 H1226 H 0.11634 0.59437 0.75758
 H1227 H 0.09338 0.62461 0.73346
 H1228 H 0.10217 0.52476 0.75621
 H1229 H 0.05807 0.64695 0.72276
 H1230 H 0.14335 0.56380 0.76749
 C1231 C 0.05341 0.37965 0.31328
 C1232 C 0.06599 0.37450 0.29199
 C1233 C 0.08320 0.39260 0.28074
 C1234 C 0.08551 0.39296 0.25574
 C1235 C 0.09964 0.41142 0.24446
 C1236 C 0.11207 0.42966 0.25810
 C1237 C 0.11080 0.42845 0.28315
 C1238 C 0.09667 0.41004 0.29440
 C1239 C 0.12412 0.45152 0.24702
 C1240 C 0.13016 0.45317 0.22278
 H1241 H 0.06152 0.35767 0.28235
 H1242 H 0.07544 0.37960 0.24487
 H1243 H 0.09974 0.41190 0.22511
 H1244 H 0.12028 0.44219 0.29407
 H1245 H 0.09611 0.40974 0.31376
 H1246 H 0.12728 0.46748 0.25833
 H1247 H 0.05644 0.39714 0.32223
 H1248 H 0.13067 0.43660 0.21197
   
