data_POSCAR
  _audit_creation_date              2014-09-24
  _audit_creation_method            'ToBaCCo'
  _symmetry_space_group_name_H-M    'P1'
  _symmetry_Int_Tables_number       1
  _symmetry_cell_setting            triclinic
  loop_
  _symmetry_equiv_pos_as_xyz
 x,y,z
_cell_length_a 28.4370
_cell_length_b 28.4682
_cell_length_c 35.3573
_cell_angle_alpha 90.406600
_cell_angle_beta 89.763400
_cell_angle_gamma 89.844700
loop_
  _atom_site_label
  _atom_site_type_symbol
  _atom_site_fract_x
  _atom_site_fract_y
  _atom_site_fract_z
Zr1 Zr 0.24130 0.25489 0.31371
 O2 O 0.27735 0.29002 0.35795
 O3 O 0.19258 0.21338 0.34413
 O4 O 0.19760 0.30080 0.34431
 O5 O 0.32446 0.16766 0.30065
 O6 O 0.15834 0.34246 0.29941
 O7 O 0.28510 0.21037 0.34558
 O8 O 0.14879 0.17901 0.29779
 O9 O 0.18031 0.26033 0.28106
 O10 O 0.23825 0.19374 0.28095
 O11 O 0.24913 0.31708 0.28228
 O12 O 0.30500 0.25363 0.28270
 Zr13 Zr 0.24698 0.25806 0.18227
 Zr14 Zr 0.18938 0.32039 0.24793
 Zr15 Zr 0.29943 0.19346 0.24847
 Zr16 Zr 0.17919 0.20051 0.24674
 O17 O 0.37380 0.19468 0.24763
 O18 O 0.10656 0.21746 0.24493
 O19 O 0.23999 0.19554 0.21328
 O20 O 0.18394 0.26057 0.21328
 O21 O 0.25013 0.31997 0.21435
 O22 O 0.30792 0.25304 0.21492
 C23 C 0.15875 0.18670 0.33266
 C24 C 0.31496 0.17867 0.33531
 C25 C 0.16700 0.33133 0.33394
 O26 O 0.11553 0.32061 0.24083
 O27 O 0.17347 0.35421 0.19657
 O28 O 0.20866 0.30839 0.15129
 C29 C 0.18325 0.34374 0.16190
 O30 O 0.34344 0.33528 0.29856
 Zr31 Zr 0.30952 0.31354 0.24796
 O32 O 0.29429 0.29700 0.15023
 O33 O 0.19990 0.39345 0.25526
 O34 O 0.30312 0.38764 0.25193
 O35 O 0.38281 0.30069 0.24324
 O36 O 0.33089 0.34192 0.19495
 C37 C 0.32207 0.33007 0.16033
 O38 O 0.20711 0.22548 0.13903
 O39 O 0.28941 0.11981 0.24965
 O40 O 0.28749 0.20873 0.15172
 O41 O 0.32031 0.16238 0.19702
 O42 O 0.18211 0.12609 0.24833
 O43 O 0.15344 0.17194 0.19516
 C44 C 0.31285 0.17372 0.16242
 H45 H 0.23646 0.16485 0.29629
 H46 H 0.15648 0.26260 0.19624
 H47 H 0.33688 0.25055 0.19938
 H48 H 0.25111 0.34473 0.29934
 H49 H 0.08878 0.18836 0.25030
 H50 H 0.10516 0.35378 0.24292
 H51 H 0.16865 0.40863 0.25292
 H52 H 0.33387 0.40116 0.24455
 H53 H 0.14974 0.11458 0.25298
 H54 H 0.32105 0.10523 0.25094
 H55 H 0.38437 0.16149 0.24682
 H56 H 0.39788 0.33091 0.23667
 H57 H 0.12465 0.15352 0.20024
 H58 H 0.22028 0.23609 0.11451
 H59 H 0.26415 0.27885 0.38232
 H60 H 0.36688 0.35985 0.29266
 Zr61 Zr 0.74449 0.74186 0.32303
 O62 O 0.70908 0.70622 0.36710
 O63 O 0.79164 0.78281 0.35413
 O64 O 0.78934 0.69429 0.35098
 O65 O 0.66531 0.83349 0.31332
 O66 O 0.82394 0.65172 0.30338
 O67 O 0.70291 0.78748 0.35650
 O68 O 0.83718 0.81520 0.30795
 O69 O 0.80423 0.73523 0.28847
 O70 O 0.74812 0.80350 0.29123
 O71 O 0.73437 0.68042 0.29084
 O72 O 0.67983 0.74687 0.29435
 Zr73 Zr 0.73263 0.74003 0.19180
 Zr74 Zr 0.79210 0.67639 0.25374
 Zr75 Zr 0.68621 0.80677 0.26012
 Zr76 Zr 0.80588 0.79566 0.25579
 O77 O 0.61190 0.80971 0.26241
 O78 O 0.87760 0.77557 0.25224
 O79 O 0.74417 0.80225 0.22337
 O80 O 0.79708 0.73675 0.22070
 O81 O 0.72926 0.67805 0.22304
 O82 O 0.67398 0.74720 0.22714
 C83 C 0.82603 0.80833 0.34292
 C84 C 0.67527 0.82143 0.34742
 C85 C 0.81780 0.66237 0.33848
 O86 O 0.86591 0.67428 0.24585
 O87 O 0.80894 0.64614 0.20046
 O88 O 0.77083 0.69217 0.15779
 C89 C 0.79859 0.65815 0.16637
 O90 O 0.64344 0.66537 0.31265
 Zr91 Zr 0.67227 0.68695 0.26003
 O92 O 0.68145 0.70030 0.16278
 O93 O 0.77916 0.60344 0.25764
 O94 O 0.67673 0.61260 0.25980
 O95 O 0.59921 0.70207 0.26207
 O96 O 0.64132 0.66319 0.20978
 C97 C 0.64894 0.67260 0.17485
 O98 O 0.76925 0.77249 0.14668
 O99 O 0.70080 0.87963 0.26098
 O100 O 0.69160 0.78953 0.16325
 O101 O 0.66314 0.83837 0.20938
 O102 O 0.80533 0.87010 0.25856
 O103 O 0.83286 0.82464 0.20491
 C104 C 0.66816 0.82571 0.17452
 H105 H 0.75133 0.83231 0.30682
 H106 H 0.82391 0.73481 0.20281
 H107 H 0.64406 0.75091 0.21326
 H108 H 0.73257 0.65242 0.30724
 H109 H 0.89661 0.80340 0.25923
 H110 H 0.87545 0.64078 0.24654
 H111 H 0.80992 0.58750 0.25423
 H112 H 0.64453 0.60033 0.25594
 H113 H 0.83780 0.88040 0.26434
 H114 H 0.67008 0.89610 0.26201
 H115 H 0.60317 0.84343 0.26242
 H116 H 0.58215 0.67208 0.25834
 H117 H 0.86239 0.84172 0.21036
 H118 H 0.75428 0.76234 0.12266
 H119 H 0.72313 0.71688 0.39132
 H120 H 0.62090 0.63946 0.30833
 Zr121 Zr 0.75956 0.23496 -0.30733
 O122 O 0.72351 0.26753 -0.35248
 O123 O 0.80760 0.19313 -0.33785
 O124 O 0.80287 0.28050 -0.33887
 O125 O 0.67378 0.15100 -0.28993
 O126 O 0.84249 0.32322 -0.29448
 O127 O 0.71326 0.18925 -0.33670
 O128 O 0.85337 0.16108 -0.29193
 O129 O 0.82098 0.24155 -0.27525
 O130 O 0.76336 0.17504 -0.27366
 O131 O 0.75231 0.29840 -0.27690
 O132 O 0.69673 0.23450 -0.27545
 Zr133 Zr 0.75529 0.24400 -0.17543
 Zr134 Zr 0.81221 0.30272 -0.24271
 Zr135 Zr 0.70322 0.17637 -0.23969
 Zr136 Zr 0.82297 0.18305 -0.24027
 O137 O 0.62889 0.17690 -0.23611
 O138 O 0.89556 0.19987 -0.23868
 O139 O 0.76304 0.18004 -0.20537
 O140 O 0.81797 0.24436 -0.20729
 O141 O 0.75167 0.30420 -0.20898
 O142 O 0.69434 0.23750 -0.20774
 C143 C 0.84260 0.16805 -0.32677
 C144 C 0.68158 0.16031 -0.32488
 C145 C 0.83348 0.31151 -0.32892
 O146 O 0.88620 0.30296 -0.23655
 O147 O 0.82891 0.33762 -0.19166
 O148 O 0.79459 0.29397 -0.14531
 C149 C 0.81981 0.32850 -0.15674
 O150 O 0.65890 0.31468 -0.29396
 Zr151 Zr 0.69234 0.29591 -0.24255
 O152 O 0.70930 0.28744 -0.14414
 O153 O 0.80152 0.37562 -0.25040
 O154 O 0.69897 0.36982 -0.24668
 O155 O 0.61889 0.28395 -0.23879
 O156 O 0.66867 0.32442 -0.19075
 C157 C 0.67862 0.31727 -0.15571
 O158 O 0.79507 0.21224 -0.13198
 O159 O 0.71406 0.10279 -0.24150
 O160 O 0.71406 0.19739 -0.14345
 O161 O 0.68428 0.14693 -0.18761
 O162 O 0.81941 0.10865 -0.24157
 O163 O 0.85044 0.15562 -0.18913
 C164 C 0.69024 0.16095 -0.15336
 H165 H 0.76472 0.14570 -0.28884
 H166 H 0.84572 0.24688 -0.19059
 H167 H 0.66543 0.23583 -0.19211
 H168 H 0.75006 0.32544 -0.29426
 H169 H 0.91342 0.17075 -0.24455
 H170 H 0.89637 0.33612 -0.23854
 H171 H 0.83281 0.39069 -0.24865
 H172 H 0.66751 0.38347 -0.24161
 H173 H 0.85134 0.09670 -0.24768
 H174 H 0.68254 0.08802 -0.24127
 H175 H 0.61877 0.14380 -0.23343
 H176 H 0.60355 0.31475 -0.23407
 H177 H 0.87799 0.13542 -0.19488
 H178 H 0.78220 0.22379 -0.10749
 H179 H 0.73659 0.25440 -0.37641
 H180 H 0.63703 0.34123 -0.28930
 Zr181 Zr 0.25356 0.75653 -0.31573
 O182 O 0.28788 0.71722 -0.35876
 O183 O 0.21773 0.80618 -0.34849
 O184 O 0.20412 0.71839 -0.34889
 O185 O 0.35016 0.82549 -0.29351
 O186 O 0.15607 0.68339 -0.30545
 O187 O 0.30656 0.79736 -0.34256
 O188 O 0.17691 0.84643 -0.30323
 O189 O 0.18983 0.76040 -0.28566
 O190 O 0.25784 0.81601 -0.28079
 O191 O 0.24815 0.69326 -0.28552
 O192 O 0.31382 0.74699 -0.28185
 Zr193 Zr 0.24816 0.74871 -0.18367
 Zr194 Zr 0.18654 0.69917 -0.25291
 Zr195 Zr 0.31469 0.80519 -0.24497
 Zr196 Zr 0.19559 0.81863 -0.25018
 O197 O 0.38747 0.79180 -0.23852
 O198 O 0.12154 0.81209 -0.25323
 O199 O 0.25289 0.81240 -0.21323
 O200 O 0.18816 0.75814 -0.21737
 O201 O 0.24401 0.68840 -0.21770
 O202 O 0.31147 0.74401 -0.21351
 C203 C 0.18878 0.83858 -0.33808
 C204 C 0.34114 0.82169 -0.32890
 C205 C 0.16832 0.69282 -0.33962
 O206 O 0.11319 0.71052 -0.24806
 O207 O 0.16344 0.66686 -0.20223
 O208 O 0.19914 0.70743 -0.15480
 C209 C 0.17094 0.67549 -0.16675
 O210 O 0.33903 0.66146 -0.29984
 Zr211 Zr 0.30575 0.68608 -0.24952
 O212 O 0.28465 0.69830 -0.15232
 O213 O 0.18548 0.62553 -0.26153
 O214 O 0.28872 0.61397 -0.25597
 O215 O 0.37970 0.68696 -0.24202
 O216 O 0.31863 0.65240 -0.19807
 C217 C 0.30849 0.66234 -0.16348
 O218 O 0.21197 0.78673 -0.14074
 O219 O 0.31734 0.87952 -0.24670
 O220 O 0.29372 0.78906 -0.14975
 O221 O 0.33349 0.83375 -0.19233
 O222 O 0.20879 0.89192 -0.24943
 O223 O 0.16956 0.85069 -0.19977
 C224 C 0.32256 0.82206 -0.15843
 H225 H 0.26240 0.84550 -0.29498
 H226 H 0.15938 0.76045 -0.20159
 H227 H 0.33905 0.74116 -0.19666
 H228 H 0.24681 0.66603 -0.30306
 H229 H 0.10882 0.84383 -0.25815
 H230 H 0.09810 0.67936 -0.25069
 H231 H 0.15213 0.61569 -0.26013
 H232 H 0.31694 0.59548 -0.24905
 H233 H 0.17902 0.90807 -0.25599
 H234 H 0.35091 0.88864 -0.24536
 H235 H 0.40287 0.82266 -0.23483
 H236 H 0.38966 0.65438 -0.23637
 H237 H 0.14282 0.87160 -0.20585
 H238 H 0.22156 0.77361 -0.11598
 H239 H 0.27895 0.73167 -0.38315
 H240 H 0.35855 0.63358 -0.29409
 Zr241 Zr 1.24922 1.24885 0.82069
 O242 O 1.21140 1.21570 0.86470
 O243 O 1.29653 1.28885 0.85182
 O244 O 1.29313 1.20215 0.85030
 O245 O 1.17071 1.33996 0.80698
 O246 O 1.32932 1.15794 0.80436
 O247 O 1.20894 1.29832 0.85243
 O248 O 1.34414 1.31898 0.80597
 O249 O 1.30972 1.24019 0.78711
 O250 O 1.25462 1.30912 0.78754
 O251 O 1.23988 1.18619 0.78978
 O252 O 1.18541 1.25317 0.79103
 Zr253 Zr 1.24018 1.24216 0.68894
 Zr254 Zr 1.29830 1.18030 0.75334
 Zr255 Zr 1.19355 1.31140 0.75535
 Zr256 Zr 1.31314 1.29935 0.75328
 O257 O 1.11917 1.31448 0.75606
 O258 O 1.38462 1.27817 0.75064
 O259 O 1.25222 1.30514 0.71958
 O260 O 1.30411 1.23955 0.71903
 O261 O 1.23600 1.18138 0.72179
 O262 O 1.18118 1.25096 0.72359
 C263 C 1.33205 1.31282 0.84093
 C264 C 1.18074 1.33126 0.84165
 C265 C 1.32240 1.17022 0.83911
 O266 O 1.37224 1.17739 0.74653
 O267 O 1.31661 1.14861 0.70055
 O268 O 1.27866 1.19272 0.65653
 C269 C 1.30673 1.15927 0.66596
 O270 O 1.14846 1.17289 0.81088
 Zr271 Zr 1.17855 1.19205 0.75808
 O272 O 1.18834 1.20189 0.66052
 O273 O 1.28490 1.10762 0.75866
 O274 O 1.18310 1.11775 0.75976
 O275 O 1.10542 1.20704 0.75875
 O276 O 1.14823 1.16659 0.70844
 C277 C 1.15568 1.17472 0.67332
 O278 O 1.27766 1.27209 0.64315
 O279 O 1.20822 1.38427 0.75512
 O280 O 1.20058 1.29210 0.65885
 O281 O 1.17216 1.34202 0.70420
 O282 O 1.31320 1.37383 0.75505
 O283 O 1.34184 1.32714 0.70257
 C284 C 1.17769 1.32901 0.66956
 H285 H 1.25795 1.33839 0.80256
 H286 H 1.33126 1.23687 0.70153
 H287 H 1.15155 1.25456 0.70930
 H288 H 1.23759 1.15883 0.80681
 H289 H 1.40391 1.30569 0.75793
 H290 H 1.38154 1.14392 0.74848
 H291 H 1.31571 1.09153 0.75616
 H292 H 1.15093 1.10529 0.75623
 H293 H 1.34541 1.38388 0.76195
 H294 H 1.17762 1.40090 0.75699
 H295 H 1.11041 1.34817 0.75515
 H296 H 1.08841 1.17684 0.75609
 H297 H 1.37116 1.34438 0.70842
 H298 H 1.26256 1.26134 0.61935
 H299 H 1.22511 1.22682 0.88890
 H300 H 1.12656 1.14631 0.80711
 Zr301 Zr 0.74027 0.75302 0.81211
 O302 O 0.78105 0.78777 0.85372
 O303 O 0.69285 0.71483 0.84556
 O304 O 0.69955 0.80120 0.84322
 O305 O 0.81906 0.66300 0.79701
 O306 O 0.65978 0.84352 0.79891
 O307 O 0.78269 0.70592 0.84327
 O308 O 0.64192 0.68439 0.80219
 O309 O 0.67781 0.76134 0.78156
 O310 O 0.73169 0.69143 0.78059
 O311 O 0.74910 0.81402 0.77944
 O312 O 0.80187 0.74709 0.77906
 Zr313 Zr 0.73880 0.75344 0.68032
 Zr314 Zr 0.68789 0.81985 0.74675
 Zr315 Zr 0.79060 0.68709 0.74564
 Zr316 Zr 0.67098 0.70089 0.74880
 O317 O 0.86470 0.68289 0.74079
 O318 O 0.59950 0.72232 0.74866
 O319 O 0.72942 0.69217 0.71279
 O320 O 0.67757 0.75953 0.71359
 O321 O 0.74712 0.81547 0.71162
 O322 O 0.80088 0.74541 0.71110
 C323 C 0.65581 0.69159 0.83639
 C324 C 0.81182 0.67388 0.83203
 C325 C 0.66931 0.83239 0.83332
 O326 O 0.61386 0.82435 0.74186
 O327 O 0.67066 0.85273 0.69483
 O328 O 0.70087 0.80382 0.64940
 C329 C 0.67792 0.84075 0.65994
 O330 O 0.84352 0.82842 0.79324
 Zr331 Zr 0.80763 0.80596 0.74373
 O332 O 0.78475 0.79333 0.64677
 O333 O 0.70270 0.89231 0.75268
 O334 O 0.80548 0.88042 0.74459
 O335 O 0.87985 0.78778 0.73942
 O336 O 0.83176 0.82910 0.69046
 C337 C 0.81828 0.82118 0.65627
 O338 O 0.69584 0.72140 0.63876
 O339 O 0.77614 0.61436 0.74941
 O340 O 0.77579 0.70169 0.64918
 O341 O 0.80617 0.65327 0.69418
 O342 O 0.66970 0.62659 0.75254
 O343 O 0.64043 0.67151 0.69927
 C344 C 0.79871 0.66489 0.65965
 H345 H 0.72932 0.66308 0.79654
 H346 H 0.64934 0.76253 0.69747
 H347 H 0.82888 0.74099 0.69471
 H348 H 0.75329 0.84195 0.79593
 H349 H 0.58031 0.69484 0.75605
 H350 H 0.60552 0.85810 0.74380
 H351 H 0.67217 0.90902 0.75110
 H352 H 0.83698 0.89174 0.73686
 H353 H 0.63727 0.61743 0.75967
 H354 H 0.80689 0.59791 0.74981
 H355 H 0.87300 0.64907 0.74073
 H356 H 0.89728 0.81662 0.73258
 H357 H 0.61117 0.65478 0.70614
 H358 H 0.70849 0.73056 0.61368
 H359 H 0.76875 0.77821 0.87882
 H360 H 0.86782 0.85171 0.78632
 Zr361 Zr 1.25159 0.74685 0.19218
 O362 O 1.21769 0.78743 0.15024
 O363 O 1.29339 0.70064 0.15906
 O364 O 1.29905 0.78816 0.16136
 O365 O 1.15507 0.67655 0.20580
 O366 O 1.34584 0.82196 0.20605
 O367 O 1.20228 0.70822 0.16043
 O368 O 1.33168 0.65698 0.20322
 O369 O 1.31418 0.74201 0.22281
 O370 O 1.24684 0.68512 0.22345
 O371 O 1.25379 0.80850 0.22546
 O372 O 1.18972 0.75436 0.22522
 Zr373 Zr 1.25167 0.74702 0.32400
 Zr374 Zr 1.31493 0.80162 0.25771
 Zr375 Zr 1.18769 0.69320 0.25783
 Zr376 Zr 1.30778 0.68192 0.25584
 O377 O 1.11446 0.70521 0.26289
 O378 O 1.38210 0.68791 0.25544
 O379 O 1.24834 0.68523 0.29102
 O380 O 1.31317 0.74105 0.29107
 O381 O 1.25630 0.80912 0.29302
 O382 O 1.18916 0.75217 0.29337
 C383 C 1.32221 0.66789 0.16889
 C384 C 1.16601 0.68471 0.17099
 C385 C 1.33350 0.81446 0.17154
 O386 O 1.38820 0.79034 0.26261
 O387 O 1.33596 0.83185 0.30928
 O388 O 1.29488 0.79336 0.35511
 C389 C 1.32387 0.82516 0.34396
 O390 O 1.16083 0.83966 0.21300
 Zr391 Zr 1.19515 0.81313 0.26170
 O392 O 1.21141 0.79148 0.35831
 O393 O 1.31546 0.87571 0.25279
 O394 O 1.21095 0.88566 0.25742
 O395 O 1.12141 0.81143 0.27074
 O396 O 1.18448 0.84506 0.31593
 C397 C 1.19156 0.83053 0.35004
 O398 O 1.29003 0.70922 0.36502
 O399 O 1.18598 0.61912 0.25234
 O400 O 1.20706 0.70175 0.35458
 O401 O 1.16621 0.66230 0.30888
 O402 O 1.29385 0.60883 0.25297
 O403 O 1.33181 0.64846 0.30575
 C404 C 1.17729 0.67043 0.34357
 H405 H 1.24363 0.65676 0.20732
 H406 H 1.34130 0.73881 0.30739
 H407 H 1.16111 0.75335 0.31004
 H408 H 1.25495 0.83670 0.20927
 H409 H 1.39518 0.65673 0.24842
 H410 H 1.40317 0.82169 0.26143
 H411 H 1.34867 0.88587 0.25488
 H412 H 1.18280 0.90334 0.26611
 H413 H 1.32391 0.59262 0.24706
 H414 H 1.15241 0.60988 0.25198
 H415 H 1.09923 0.67395 0.26257
 H416 H 1.11183 0.84337 0.27905
 H417 H 1.35757 0.62635 0.29923
 H418 H 1.27916 0.72062 0.39016
 H419 H 1.22843 0.77562 0.12516
 H420 H 1.14033 0.86640 0.22037
 Zr421 Zr 0.75427 1.25224 0.18068
 O422 O 0.78831 1.21697 0.13526
 O423 O 0.71073 1.29812 0.15167
 O424 O 0.70535 1.21175 0.14984
 O425 O 0.83933 1.33597 0.19587
 O426 O 0.66861 1.16773 0.19477
 O427 O 0.79717 1.29839 0.14995
 O428 O 0.66643 1.33055 0.19915
 O429 O 0.69390 1.24803 0.21454
 O430 O 0.75451 1.31161 0.21599
 O431 O 0.75963 1.18801 0.20898
 O432 O 0.81885 1.25037 0.20958
 Zr433 Zr 0.76466 1.24002 0.31169
 Zr434 Zr 0.70158 1.18623 0.24567
 Zr435 Zr 0.81609 1.30776 0.24739
 Zr436 Zr 0.69600 1.30590 0.25060
 O437 O 0.89042 1.30461 0.24613
 O438 O 0.62298 1.29136 0.25315
 O439 O 0.75760 1.30508 0.28362
 O440 O 0.70053 1.24414 0.28230
 O441 O 0.76393 1.18051 0.27665
 O442 O 0.82391 1.24530 0.27686
 C443 C 0.67770 1.32483 0.16393
 C444 C 0.82747 1.32886 0.16117
 C445 C 0.67448 1.18148 0.16056
 O446 O 0.62769 1.18997 0.25247
 O447 O 0.68087 1.15468 0.29669
 O448 O 0.72287 1.19216 0.34251
 C449 C 0.69165 1.16235 0.33154
 O450 O 0.84922 1.16736 0.18661
 Zr451 Zr 0.82168 1.18768 0.24027
 O452 O 0.81341 1.19474 0.33779
 O453 O 0.70884 1.11278 0.23820
 O454 O 0.81174 1.11399 0.23652
 O455 O 0.89559 1.19754 0.23890
 O456 O 0.85098 1.15817 0.28865
 C457 C 0.84421 1.16592 0.32398
 O458 O 0.73009 1.27079 0.35901
 O459 O 0.80806 1.38168 0.24996
 O460 O 0.80825 1.28499 0.34334
 O461 O 0.83939 1.33493 0.29983
 O462 O 0.70235 1.38011 0.25176
 O463 O 0.67032 1.33362 0.30273
 C464 C 0.83317 1.32079 0.33403
 H465 H 0.75333 1.34168 0.20216
 H466 H 0.67341 1.24304 0.29991
 H467 H 0.85386 1.24604 0.29101
 H468 H 0.75937 1.16122 0.19097
 H469 H 0.60612 1.32089 0.24722
 H470 H 0.61527 1.15792 0.24801
 H471 H 0.67684 1.09934 0.24030
 H472 H 0.84290 1.09889 0.23968
 H473 H 0.67103 1.39335 0.24566
 H474 H 0.84002 1.39536 0.24832
 H475 H 0.90169 1.33743 0.24803
 H476 H 0.91065 1.16619 0.24072
 H477 H 0.64278 1.35406 0.29789
 H478 H 0.74445 1.25760 0.38220
 H479 H 0.77506 1.22974 0.11153
 H480 H 0.86965 1.13943 0.18953
 O481 O 0.44187 1.08717 0.02841
 O482 O 0.55288 0.90848 0.03212
 O483 O 0.40897 0.94287 0.03292
 O484 O 0.58630 1.05221 0.03081
 O485 O 0.47455 0.91867 0.05363
 O486 O 0.52097 1.07991 0.05023
 O487 O 0.57697 0.97369 0.05353
 O488 O 0.41688 1.02303 0.05125
 C489 C 0.41887 1.06620 0.05315
 C490 C 0.57386 0.93079 0.05734
 C491 C 0.43157 0.92096 0.05738
 C492 C 0.56397 1.07704 0.05386
 O493 O 0.55175 1.08580 -0.02244
 O494 O 0.44397 0.90555 -0.01859
 O495 O 0.40782 1.04864 -0.02263
 O496 O 0.58736 0.94218 -0.01974
 O497 O 0.52273 0.91604 -0.04091
 O498 O 0.47237 1.07528 -0.04408
 O499 O 0.57853 1.01999 -0.04131
 O500 O 0.41864 0.96927 -0.04123
 Co501 Co 0.49683 1.07351 0.00322
 Co502 Co 0.49845 0.92066 0.00637
 Co503 Co 0.42143 0.99594 0.00510
 Co504 Co 0.57398 0.99690 0.00588
 O505 O 0.49766 0.99684 0.00518
 C506 C 0.57612 1.06280 -0.04543
 C507 C 0.42144 0.92627 -0.04357
 C508 C 0.42938 1.07110 -0.04745
 C509 C 0.56554 0.92078 -0.04502
 O510 O 0.93795 0.58512 0.53110
 O511 O 1.05377 0.41049 0.53202
 O512 O 0.90869 0.43922 0.53189
 O513 O 1.08415 0.55569 0.53070
 O514 O 0.97477 0.41865 0.55363
 O515 O 1.01853 0.58165 0.55111
 O516 O 1.07659 0.47637 0.55317
 O517 O 0.91462 0.51906 0.55207
 C518 C 0.91471 0.56228 0.55479
 C519 C 1.07513 0.43334 0.55673
 C520 C 0.93162 0.41862 0.55681
 C521 C 1.06186 0.58073 0.55379
 O522 O 1.04679 0.58826 0.47775
 O523 O 0.94525 0.40509 0.48035
 O524 O 0.90434 0.54695 0.47966
 O525 O 1.08728 0.44534 0.47990
 O526 O 1.02290 0.41848 0.45914
 O527 O 0.96713 0.57605 0.45747
 O528 O 1.07642 0.52350 0.45860
 O529 O 0.91826 0.46841 0.45831
 Co530 Co 0.99283 0.57438 0.50448
 Co531 Co 0.99886 0.42161 0.50631
 Co532 Co 0.91992 0.49363 0.50545
 Co533 Co 1.07267 0.49981 0.50575
 O534 O 0.99612 0.49752 0.50563
 C535 C 1.07148 0.56615 0.45431
 C536 C 0.92346 0.42566 0.45479
 C537 C 0.92472 0.56826 0.45374
 C538 C 1.06542 0.42395 0.45462
 O539 O 1.05759 0.49190 0.06557
 O540 O 1.05604 0.52979 -0.06526
 O541 O 1.05811 0.43215 -0.02233
 O542 O 1.04817 0.59363 0.02622
 O543 O 1.02525 0.45055 -0.07266
 O544 O 1.01554 0.56747 0.07477
 O545 O 1.03462 0.59617 -0.04013
 O546 O 1.04060 0.42506 0.04071
 C547 C 1.06769 0.44976 0.06051
 C548 C 1.06221 0.57273 -0.06130
 C549 C 1.06010 0.43369 -0.05694
 C550 C 1.04681 0.59196 0.06103
 O551 O 0.93527 0.52608 0.06542
 O552 O 0.93829 0.48457 -0.06423
 O553 O 0.94363 0.42760 0.02327
 O554 O 0.93700 0.58773 -0.02604
 O555 O 0.97169 0.56301 -0.07435
 O556 O 0.97499 0.45056 0.07313
 O557 O 0.95000 0.59333 0.03983
 O558 O 0.96196 0.42000 -0.04002
 Co559 Co 0.99622 0.50884 0.06247
 Co560 Co 0.99749 0.50685 -0.06179
 Co561 Co 1.00067 0.43361 0.00040
 Co562 Co 0.99298 0.58511 -0.00001
 O563 O 0.99698 0.50880 0.00028
 C564 C 0.92381 0.56776 0.06019
 C565 C 0.93186 0.44218 -0.05872
 C566 C 0.94155 0.43085 0.05784
 C567 C 0.93694 0.58295 -0.06071
 O568 O 0.55978 0.98836 0.55671
 O569 O 0.52653 1.05929 0.42323
 O570 O 0.52995 0.91610 0.46573
 O571 O 0.55122 1.08297 0.53615
 O572 O 0.55535 0.97647 0.43388
 O573 O 0.51381 1.05527 0.58220
 O574 O 0.55708 1.09002 0.47156
 O575 O 0.54237 0.92216 0.53311
 C576 C 0.56985 0.94645 0.55250
 C577 C 0.55960 1.08088 0.43743
 C578 C 0.56027 0.93481 0.44415
 C579 C 0.54649 1.08021 0.57084
 O580 O 0.43694 1.02328 0.55801
 O581 O 0.46904 0.94941 0.42859
 O582 O 0.44918 0.94000 0.54438
 O583 O 0.45994 1.09815 0.46310
 O584 O 0.44236 1.03415 0.42976
 O585 O 0.48517 0.96663 0.59434
 O586 O 0.45386 1.09234 0.53549
 O587 O 0.43429 0.93663 0.47968
 Co588 Co 0.49816 1.00363 0.55418
 Co589 Co 0.49862 1.00479 0.43536
 Co590 Co 0.49000 0.93545 0.50466
 Co591 Co 0.50436 1.08430 0.50144
 O592 O 0.49949 1.00981 0.49695
 C593 C 0.42722 1.06613 0.55526
 C594 C 0.43341 0.93570 0.44496
 C595 C 0.45736 0.93533 0.57931
 C596 C 0.43489 1.07681 0.43812
 O597 O 1.06495 1.07101 0.47260
 O598 O 0.92908 1.05812 0.52730
 O599 O 0.97748 1.02115 0.41739
 O600 O 1.03720 1.02012 0.58077
 O601 O 0.92550 1.04843 0.45774
 O602 O 1.04943 1.06846 0.53689
 O603 O 0.95334 1.01584 0.57352
 O604 O 1.06264 1.02255 0.42712
 C605 C 1.06854 1.06353 0.43848
 C606 C 0.93616 1.05360 0.56167
 C607 C 0.94479 1.04905 0.42618
 C608 C 1.04824 1.06074 0.57087
 O609 O 1.09751 0.98521 0.54354
 O610 O 0.91287 0.95752 0.46409
 O611 O 1.06059 0.93423 0.45172
 O612 O 0.96329 0.92588 0.54487
 O613 O 0.90463 0.96837 0.53407
 O614 O 1.10910 0.98514 0.47465
 O615 O 1.04542 0.93248 0.54924
 O616 O 0.97530 0.93174 0.43363
 Co617 Co 1.07392 1.02444 0.50639
 Co618 Co 0.92676 1.00688 0.49629
 Co619 Co 1.01784 0.97906 0.43919
 Co620 Co 0.99981 0.97580 0.55669
 O621 O 1.00432 0.99666 0.49903
 C622 C 1.08636 0.94499 0.55448
 C623 C 0.93252 0.92928 0.44118
 C624 C 1.10152 0.94602 0.45878
 C625 C 0.92057 0.93096 0.54670
 O626 O 0.58356 0.54872 -0.03667
 O627 O 0.42865 0.56342 0.02682
 O628 O 0.44121 0.51625 -0.08065
 O629 O 0.52900 0.52426 0.07620
 O630 O 0.43466 0.56130 -0.03670
 O631 O 0.56998 0.56218 0.03333
 O632 O 0.44569 0.51803 0.07210
 O633 O 0.51836 0.55797 -0.06820
 C634 C 0.55920 0.57107 -0.06049
 C635 C 0.42856 0.55592 0.06113
 C636 C 0.42311 0.55210 -0.06886
 C637 C 0.55313 0.55980 0.06602
 O638 O 0.59027 0.47629 0.04757
 O639 O 0.41295 0.46083 -0.03700
 O640 O 0.55863 0.47728 -0.07153
 O641 O 0.45439 0.42913 0.04045
 O642 O 0.39796 0.47415 0.03056
 O643 O 0.59148 0.45480 -0.02075
 O644 O 0.53347 0.43057 0.04963
 O645 O 0.47763 0.43813 -0.06700
 Co646 Co 0.57541 0.50943 0.00470
 Co647 Co 0.42504 0.51316 -0.00460
 Co648 Co 0.49891 0.49765 -0.06428
 Co649 Co 0.49123 0.47768 0.05456
 O650 O 0.49817 0.49953 -0.00171
 C651 C 0.57419 0.43834 0.05827
 C652 C 0.43557 0.43077 -0.05766
 C653 C 0.58410 0.44853 -0.05509
 C654 C 0.41202 0.43605 0.04292
 C655 C 0.34699 1.09762 0.13921
 C656 C 0.33528 1.14477 0.13289
 C657 C 0.34585 1.16372 0.09715
 C658 C 0.37282 1.13788 0.07089
 C659 C 0.38869 1.09228 0.07957
 C660 C 0.37238 1.07170 0.11283
 C661 C 0.39886 1.04598 0.14261
 C662 C 0.37119 1.07457 0.17163
 H663 H 0.33593 1.19944 0.09039
 H664 H 0.38244 1.15411 0.04435
 H665 H 0.43711 1.05406 0.14231
 H666 H 0.39010 1.00795 0.14290
 H667 H 0.39348 1.09929 0.18811
 H668 H 0.34670 1.05292 0.18875
 C669 C 0.83140 0.65308 0.59480
 C670 C 0.81966 0.63468 0.63013
 C671 C 0.83369 0.58814 0.63793
 C672 C 0.86375 0.56368 0.61289
 C673 C 0.88138 0.58597 0.58037
 C674 C 0.86226 0.62961 0.57079
 C675 C 0.88616 0.67405 0.55955
 C676 C 0.85191 0.69971 0.58554
 H677 H 0.82380 0.57172 0.66432
 H678 H 0.87548 0.52867 0.62017
 H679 H 0.88093 0.68239 0.52922
 H680 H 0.92321 0.67583 0.56940
 H681 H 0.82667 0.72255 0.57025
 H682 H 0.86861 0.71593 0.61066
 C683 C 0.63852 0.90232 0.14799
 C684 C 0.64559 0.85371 0.14466
 C685 C 0.63400 0.83225 0.10988
 C686 C 0.61120 0.85769 0.08149
 C687 C 0.60019 0.90559 0.08671
 C688 C 0.61696 0.92786 0.11942
 C689 C 0.59213 0.95913 0.14708
 C690 C 0.61527 0.93083 0.17835
 H691 H 0.64061 0.79517 0.10515
 H692 H 0.60116 0.83943 0.05579
 H693 H 0.55329 0.95532 0.14613
 H694 H 0.60496 0.99593 0.14566
 H695 H 0.58983 0.91006 0.19532
 H696 H 0.64102 0.95152 0.19511
 C697 C 1.14813 0.33990 0.60377
 C698 C 1.15604 0.35823 0.63996
 C699 C 1.14249 0.40538 0.64682
 C700 C 1.11732 0.43088 0.61933
 C701 C 1.10417 0.40921 0.58501
 C702 C 1.12237 0.36446 0.57728
 C703 C 1.09913 0.32102 0.56279
 C704 C 1.12768 0.29397 0.59172
 H705 H 1.14982 0.42197 0.67380
 H706 H 1.10603 0.46643 0.62575
 H707 H 1.10938 0.31286 0.53308
 H708 H 1.06068 0.32057 0.56864
 H709 H 1.15462 0.27061 0.57859
 H710 H 1.10584 0.27753 0.61416
 C711 C 0.65293 1.15500 -0.08970
 C712 C 0.66721 1.13365 -0.12357
 C713 C 0.65617 1.08582 -0.12917
 C714 C 0.62714 1.06214 -0.10331
 C715 C 0.60772 1.08632 -0.07204
 C716 C 0.62355 1.13195 -0.06468
 C717 C 0.59672 1.17573 -0.05548
 C718 C 0.62904 1.20109 -0.08291
 H719 H 0.66818 1.06734 -0.15431
 H720 H 0.61794 1.02584 -0.10886
 H721 H 0.60161 1.18693 -0.02557
 H722 H 0.55956 1.17418 -0.06510
 H723 H 0.65255 1.22689 -0.06880
 H724 H 0.61066 1.21438 -0.10842
 C725 C 1.14979 0.65716 0.41001
 C726 C 1.15440 0.64136 0.37263
 C727 C 1.13657 0.59632 0.36379
 C728 C 1.11045 0.57092 0.39071
 C729 C 1.10042 0.59083 0.42641
 C730 C 1.12296 0.63278 0.43605
 C731 C 1.10442 0.67668 0.45393
 C732 C 1.13397 0.70354 0.42540
 H733 H 1.14147 0.58140 0.33579
 H734 H 1.09604 0.53703 0.38293
 H735 H 1.11674 0.68105 0.48354
 H736 H 1.06593 0.68122 0.44979
 H737 H 1.16340 0.72317 0.43869
 H738 H 1.11265 0.72377 0.40481
 C739 C 0.35063 0.89750 -0.13029
 C740 C 0.34399 0.84897 -0.12749
 C741 C 0.35692 0.82729 -0.09341
 C742 C 0.38202 0.85248 -0.06573
 C743 C 0.39315 0.90023 -0.07120
 C744 C 0.37364 0.92273 -0.10245
 C745 C 0.39511 0.95540 -0.13039
 C746 C 0.37038 0.92719 -0.16113
 H747 H 0.35017 0.79040 -0.08917
 H748 H 0.39381 0.83430 -0.04067
 H749 H 0.43406 0.95273 -0.13158
 H750 H 0.38104 0.99169 -0.12720
 H751 H 0.39516 0.90756 -0.17988
 H752 H 0.34267 0.94752 -0.17595
 C753 C 0.86343 0.39605 0.36232
 C754 C 0.85533 0.34766 0.36512
 C755 C 0.86528 0.32621 0.40007
 C756 C 0.88743 0.35157 0.42932
 C757 C 0.89910 0.39929 0.42467
 C758 C 0.88423 0.42135 0.39154
 C759 C 0.91122 0.45137 0.36474
 C760 C 0.88861 0.42356 0.33275
 H761 H 0.85773 0.28934 0.40431
 H762 H 0.89613 0.33360 0.45527
 H763 H 0.94987 0.44593 0.36678
 H764 H 0.89956 0.48866 0.36596
 H765 H 0.91414 0.40188 0.31626
 H766 H 0.86408 0.44493 0.31549
 C767 C 1.14623 0.35388 0.09868
 C768 C 1.16321 0.37385 0.13212
 C769 C 1.15687 0.42269 0.13741
 C770 C 1.12931 0.44905 0.11194
 C771 C 1.10647 0.42672 0.08135
 C772 C 1.11772 0.37936 0.07439
 C773 C 1.08620 0.33809 0.06779
 C774 C 1.11800 0.31019 0.09369
 H775 H 1.17079 0.43988 0.16237
 H776 H 1.12256 0.48576 0.11816
 H777 H 1.08708 0.32530 0.03810
 H778 H 1.05030 0.34344 0.07969
 H779 H 1.13817 0.28218 0.07867
 H780 H 1.10034 0.29891 0.12024
 C781 C 0.64993 0.85337 0.59332
 C782 C 0.65887 0.87130 0.62962
 C783 C 0.64857 0.91929 0.63587
 C784 C 0.62428 0.94579 0.60838
 C785 C 0.60861 0.92463 0.57436
 C786 C 0.62472 0.87891 0.56677
 C787 C 0.59982 0.83615 0.55267
 C788 C 0.62763 0.80822 0.58153
 H789 H 0.65678 0.93563 0.66279
 H790 H 0.61369 0.98135 0.61555
 H791 H 0.60949 0.82740 0.52296
 H792 H 0.56144 0.83681 0.55880
 H793 H 0.65341 0.78360 0.56837
 H794 H 0.60535 0.79282 0.60417
 C795 C 1.12319 0.60909 -0.15096
 C796 C 1.14891 0.64896 -0.14052
 C797 C 1.15193 0.65874 -0.10105
 C798 C 1.12481 0.63332 -0.07457
 C799 C 1.09596 0.59612 -0.08662
 C800 C 1.09837 0.58286 -0.12481
 C801 C 1.05995 0.57322 -0.15254
 C802 C 1.08718 0.60217 -0.18100
 H803 H 1.17274 0.68785 -0.09059
 H804 H 1.12521 0.64371 -0.04505
 H805 H 1.02583 0.58944 -0.14408
 H806 H 1.05833 0.53552 -0.16075
 H807 H 1.06903 0.63537 -0.18873
 H808 H 1.10089 0.58102 -0.20520
 C809 C 0.63090 1.10308 0.34926
 C810 C 0.66475 1.13585 0.36048
 C811 C 0.66890 1.14457 0.39983
 C812 C 0.63608 1.12532 0.42580
 C813 C 0.59856 1.09711 0.41282
 C814 C 0.59911 1.08418 0.37456
 C815 C 0.56055 1.08348 0.34601
 C816 C 0.59519 1.10489 0.31843
 H817 H 0.69539 1.16856 0.41030
 H818 H 0.63847 1.13472 0.45546
 H819 H 0.53087 1.10732 0.35357
 H820 H 0.55038 1.04722 0.33776
 H821 H 0.58556 1.14141 0.31065
 H822 H 0.60427 1.08116 0.29437
 C823 C 0.83663 0.65528 0.10214
 C824 C 0.82130 0.63210 0.13481
 C825 C 0.83175 0.58387 0.13758
 C826 C 0.86167 0.56175 0.11092
 C827 C 0.88315 0.58764 0.08154
 C828 C 0.86731 0.63382 0.07647
 C829 C 0.89396 0.67821 0.07025
 C830 C 0.86032 0.70173 0.09814
 H831 H 0.81918 0.56395 0.16155
 H832 H 0.87108 0.52542 0.11540
 H833 H 0.89016 0.69133 0.04089
 H834 H 0.93072 0.67629 0.08076
 H835 H 0.83706 0.72823 0.08476
 H836 H 0.87762 0.71357 0.12469
 C837 C 0.34557 1.08601 0.63906
 C838 C 0.32994 1.13231 0.63458
 C839 C 0.33890 1.15314 0.59896
 C840 C 0.36821 1.13070 0.57165
 C841 C 0.38817 1.08616 0.57872
 C842 C 0.37337 1.06352 0.61189
 C843 C 0.40111 1.03858 0.64146
 C844 C 0.37051 1.06300 0.67100
 H845 H 0.32645 1.18836 0.59332
 H846 H 0.37743 1.14939 0.54612
 H847 H 0.43836 1.05018 0.64247
 H848 H 0.39575 0.99997 0.64037
 H849 H 0.39037 1.08830 0.68889
 H850 H 0.34736 1.03845 0.68671
 C851 C 0.84493 0.40788 -0.13385
 C852 C 0.83963 0.35975 -0.12763
 C853 C 0.85524 0.34198 -0.09274
 C854 C 0.88263 0.37013 -0.06842
 C855 C 0.89355 0.41689 -0.07803
 C856 C 0.87061 0.43600 -0.10939
 C857 C 0.88865 0.46521 -0.14122
 C858 C 0.86061 0.43418 -0.16792
 H859 H 0.85023 0.30529 -0.08592
 H860 H 0.89838 0.35417 -0.04384
 H861 H 0.92723 0.46190 -0.14544
 H862 H 0.87476 0.50159 -0.13980
 H863 H 0.88330 0.41288 -0.18719
 H864 H 0.83109 0.45295 -0.18179
 C865 C 0.34249 0.84941 0.41108
 C866 C 0.34313 0.85828 0.37213
 C867 C 0.36291 0.90106 0.36015
 C868 C 0.38852 0.92911 0.38534
 C869 C 0.39462 0.91530 0.42313
 C870 C 0.36796 0.87732 0.43616
 C871 C 0.38221 0.83594 0.45920
 C872 C 0.35417 0.80554 0.43191
 H873 H 0.36166 0.91129 0.33073
 H874 H 0.40706 0.95928 0.37435
 H875 H 0.36686 0.83722 0.48815
 H876 H 0.42067 0.82897 0.45792
 H877 H 0.32255 0.78954 0.44511
 H878 H 0.37636 0.78093 0.41495
 C879 C 1.13592 1.16678 0.39974
 C880 C 1.12920 1.16191 0.36071
 C881 C 1.09402 1.13011 0.34860
 C882 C 1.07220 1.09956 0.37429
 C883 C 1.08425 1.10076 0.41277
 C884 C 1.11366 1.13711 0.42522
 C885 C 1.15590 1.13525 0.45014
 C886 C 1.18017 1.16772 0.42227
 H887 H 1.08568 1.12621 0.31889
 H888 H 1.04801 1.07328 0.36371
 H889 H 1.17199 1.09963 0.45114
 H890 H 1.14925 1.15197 0.47817
 H891 H 1.21029 1.15091 0.40720
 H892 H 1.18739 1.20318 0.43423
 C893 C 0.64877 0.65651 -0.09905
 C894 C 0.62777 0.67063 -0.13288
 C895 C 0.57963 0.66057 -0.13771
 C896 C 0.55578 0.63139 -0.11200
 C897 C 0.57989 0.61088 -0.08138
 C898 C 0.62558 0.62692 -0.07412
 C899 C 0.66965 0.60055 -0.06534
 C900 C 0.69503 0.63308 -0.09252
 H901 H 0.56128 0.67252 -0.16265
 H902 H 0.51978 0.62170 -0.11809
 H903 H 0.66866 0.56344 -0.07535
 H904 H 0.68061 0.60549 -0.03544
 H905 H 0.70885 0.61484 -0.11819
 H906 H 0.72044 0.65680 -0.07822
 C907 C 0.86382 1.15106 0.60541
 C908 C 0.87262 1.14545 0.64409
 C909 C 0.91088 1.11646 0.65422
 C910 C 0.93402 1.08867 0.62682
 C911 C 0.91982 1.08972 0.58870
 C912 C 0.88700 1.12398 0.57834
 C913 C 0.84403 1.12006 0.55440
 C914 C 0.81865 1.14976 0.58404
 H915 H 0.92081 1.11255 0.68356
 H916 H 0.96070 1.06406 0.63593
 H917 H 0.83056 1.08348 0.55248
 H918 H 0.84828 1.13820 0.52687
 H919 H 0.79047 1.13040 0.59923
 H920 H 0.80834 1.18504 0.57358
 C921 C 0.35517 0.65557 0.10310
 C922 C 0.34524 0.63887 0.13944
 C923 C 0.35953 0.59276 0.14809
 C924 C 0.38693 0.56646 0.12266
 C925 C 0.40090 0.58533 0.08766
 C926 C 0.38242 0.62926 0.07763
 C927 C 0.40788 0.67201 0.06446
 C928 C 0.37791 0.70055 0.09194
 H929 H 0.35090 0.57743 0.17519
 H930 H 0.39785 0.53150 0.13083
 H931 H 0.40038 0.68010 0.03444
 H932 H 0.44584 0.67146 0.07193
 H933 H 0.35290 0.72463 0.07766
 H934 H 0.39845 0.71680 0.11530
 C935 C 1.13691 0.90110 0.64638
 C936 C 1.16960 0.86676 0.63540
 C937 C 1.17968 0.86304 0.59607
 C938 C 1.15362 0.88935 0.56932
 C939 C 1.11648 0.91892 0.58123
 C940 C 1.11040 0.92564 0.62025
 C941 C 1.06749 0.92003 0.64457
 C942 C 1.09714 0.89590 0.67345
 H943 H 1.20610 0.83861 0.58574
 H944 H 1.16096 0.88484 0.53943
 H945 H 1.04192 0.89517 0.63218
 H946 H 1.05268 0.95336 0.65566
 H947 H 1.08663 0.85872 0.67785
 H948 H 1.10227 0.91710 0.69964
 C949 C 0.60263 0.35202 0.13592
 C950 C 0.65151 0.35064 0.13514
 C951 C 0.67484 0.37273 0.10483
 C952 C 0.64961 0.40082 0.07922
 C953 C 0.60053 0.40604 0.08285
 C954 C 0.57750 0.37894 0.11036
 C955 C 0.54336 0.39305 0.14087
 C956 C 0.57055 0.36268 0.16810
 H957 H 0.71276 0.37054 0.10226
 H958 H 0.66854 0.41948 0.05736
 H959 H 0.50734 0.37947 0.13571
 H960 H 0.54568 0.43097 0.14838
 H961 H 0.55081 0.33115 0.17745
 H962 H 0.58772 0.38318 0.19107
 C963 C 0.90223 0.83842 0.36759
 C964 C 0.85398 0.83219 0.37223
 C965 C 0.83295 0.85096 0.40542
 C966 C 0.85864 0.88108 0.42974
 C967 C 0.90597 0.89182 0.42157
 C968 C 0.92753 0.86699 0.39173
 C969 C 0.95864 0.88355 0.36035
 C970 C 0.93073 0.85207 0.33391
 H971 H 0.79586 0.84555 0.41092
 H972 H 0.84082 0.89796 0.45332
 H973 H 0.99567 0.87180 0.36392
 H974 H 0.95401 0.92157 0.35432
 H975 H 0.95163 0.82216 0.32236
 H976 H 0.91026 0.87215 0.31270
 C977 C 0.40860 0.33879 -0.13124
 C978 C 0.35982 0.33528 -0.12888
 C979 C 0.33784 0.35362 -0.09594
 C980 C 0.36329 0.38171 -0.07007
 C981 C 0.41135 0.39101 -0.07633
 C982 C 0.43375 0.36566 -0.10562
 C983 C 0.46788 0.38044 -0.13562
 C984 C 0.44015 0.35069 -0.16348
 H985 H 0.30028 0.34974 -0.09187
 H986 H 0.34456 0.39911 -0.04719
 H987 H 0.50384 0.36661 -0.13048
 H988 H 0.46585 0.41853 -0.14196
 H989 H 0.46004 0.31960 -0.17412
 H990 H 0.42233 0.37184 -0.18555
 C991 C 1.15807 0.35330 -0.09107
 C992 C 1.15873 0.36290 -0.12988
 C993 C 1.13562 0.40428 -0.14168
 C994 C 1.10634 0.42957 -0.11678
 C995 C 1.09974 0.41455 -0.07931
 C996 C 1.12939 0.37875 -0.06623
 C997 C 1.11885 0.33625 -0.04330
 C998 C 1.14984 0.30842 -0.07064
 H999 H 1.13719 0.41535 -0.17090
 H1000 H 1.08621 0.45879 -0.12770
 H1001 H 1.08115 0.32607 -0.04432
 H1002 H 1.13424 0.33897 -0.01457
 H1003 H 1.13006 0.28237 -0.08789
 H1004 H 1.18247 0.29481 -0.05737
 C1005 C 0.65682 0.89873 0.37720
 C1006 C 0.65458 0.84977 0.37811
 C1007 C 0.63009 0.82920 0.40852
 C1008 C 0.60179 0.85733 0.43272
 C1009 C 0.59848 0.90637 0.42711
 C1010 C 0.63007 0.92633 0.40134
 C1011 C 0.62406 0.96352 0.37209
 C1012 C 0.65315 0.93284 0.34553
 H1013 H 0.62917 0.79136 0.41134
 H1014 H 0.57960 0.84028 0.45342
 H1015 H 0.64222 0.99656 0.38018
 H1016 H 0.58704 0.96768 0.36272
 H1017 H 0.68771 0.94849 0.33807
 H1018 H 0.63233 0.91924 0.32131
 C1019 C 0.83363 0.65349 -0.10005
 C1020 C 0.83886 0.64681 -0.13932
 C1021 C 0.87194 0.61267 -0.15116
 C1022 C 0.90226 0.59116 -0.12519
 C1023 C 0.90006 0.60188 -0.08618
 C1024 C 0.86324 0.63134 -0.07411
 C1025 C 0.86403 0.67341 -0.04874
 C1026 C 0.83195 0.69759 -0.07701
 H1027 H 0.87658 0.60436 -0.18087
 H1028 H 0.92909 0.56765 -0.13616
 H1029 H 0.89951 0.68956 -0.04677
 H1030 H 0.84657 0.66654 -0.02116
 H1031 H 0.84889 0.72769 -0.09154
 H1032 H 0.79618 0.70481 -0.06556
 C1033 C 0.35633 1.17320 0.39823
 C1034 C 0.33889 1.15177 0.36531
 C1035 C 0.34544 1.10299 0.36141
 C1036 C 0.37356 1.07811 0.38714
 C1037 C 0.39704 1.10148 0.41705
 C1038 C 0.38525 1.14881 0.42321
 C1039 C 0.41575 1.19057 0.42984
 C1040 C 0.38418 1.21724 0.40269
 H1041 H 0.33067 1.08441 0.33741
 H1042 H 0.37960 1.04113 0.38173
 H1043 H 0.45216 1.18539 0.41895
 H1044 H 0.41324 1.20366 0.45947
 H1045 H 0.40231 1.22765 0.37612
 H1046 H 0.36348 1.24563 0.41674
 C1047 C 1.14739 0.66314 0.10301
 C1048 C 1.13403 0.66647 0.14129
 C1049 C 1.08794 0.65266 0.15062
 C1050 C 1.05904 0.63091 0.12361
 C1051 C 1.07522 0.62215 0.08638
 C1052 C 1.11865 0.64145 0.07614
 C1053 C 1.15959 0.61926 0.05640
 C1054 C 1.19095 0.64291 0.08562
 H1055 H 1.07478 0.65672 0.17925
 H1056 H 1.02471 0.61876 0.13258
 H1057 H 1.16456 0.63324 0.02739
 H1058 H 1.15943 0.58028 0.05840
 H1059 H 1.21394 0.67050 0.07340
 H1060 H 1.20909 0.61768 0.10454
 C1061 C 0.61599 1.10495 0.65942
 C1062 C 0.65128 1.13589 0.64729
 C1063 C 0.65524 1.14348 0.60802
 C1064 C 0.62142 1.12491 0.58291
 C1065 C 0.58291 1.09856 0.59656
 C1066 C 0.58298 1.08662 0.63474
 C1067 C 0.54451 1.08907 0.66347
 C1068 C 0.58057 1.10935 0.69063
 H1069 H 0.68292 1.16553 0.59688
 H1070 H 0.62443 1.13280 0.55308
 H1071 H 0.53200 1.05363 0.67174
 H1072 H 0.51634 1.11440 0.65576
 H1073 H 0.58858 1.08561 0.71459
 H1074 H 0.57326 1.14651 0.69866
 C1075 C 0.84835 0.34868 0.09404
 C1076 C 0.84886 0.35957 0.13276
 C1077 C 0.87085 0.40155 0.14410
 C1078 C 0.89810 0.42692 0.11846
 C1079 C 0.90355 0.41123 0.08084
 C1080 C 0.87526 0.37410 0.06844
 C1081 C 0.88791 0.33099 0.04632
 C1082 C 0.85851 0.30325 0.07433
 H1083 H 0.86983 0.41312 0.17334
 H1084 H 0.91787 0.45666 0.12897
 H1085 H 0.92609 0.32260 0.04750
 H1086 H 0.87251 0.33129 0.01753
 H1087 H 0.87961 0.27879 0.09188
 H1088 H 0.82641 0.28773 0.06154
 C1089 C 0.40424 0.87597 0.66339
 C1090 C 0.36881 0.84709 0.64797
 C1091 C 0.36117 0.85025 0.60861
 C1092 C 0.39016 0.87895 0.58609
 C1093 C 0.42731 0.90504 0.60233
 C1094 C 0.43226 0.90431 0.64133
 C1095 C 0.47492 0.89553 0.66461
 C1096 C 0.44427 0.86431 0.68907
 H1097 H 0.33330 0.83054 0.59507
 H1098 H 0.38384 0.88016 0.55593
 H1099 H 0.48696 0.92783 0.67950
 H1100 H 0.50278 0.87600 0.64883
 H1101 H 0.43887 0.87870 0.71807
 H1102 H 0.45435 0.82656 0.68767
 C1103 C 0.39811 1.13629 -0.13685
 C1104 C 0.35035 1.14676 -0.13150
 C1105 C 0.33067 1.13743 -0.09572
 C1106 C 0.35657 1.11286 -0.06836
 C1107 C 0.40323 1.09835 -0.07574
 C1108 C 0.42421 1.11347 -0.10936
 C1109 C 0.45207 1.08669 -0.13819
 C1110 C 0.42313 1.11136 -0.16831
 H1111 H 0.29454 1.14702 -0.08955
 H1112 H 0.33973 1.10440 -0.04174
 H1113 H 0.44592 1.04822 -0.13698
 H1114 H 0.48969 1.09722 -0.13832
 H1115 H 0.39978 1.08717 -0.18434
 H1116 H 0.44421 1.13577 -0.18593
 C1117 C 0.82366 0.61946 0.39948
 C1118 C 0.84477 0.63517 0.36617
 C1119 C 0.89176 0.62148 0.35903
 C1120 C 0.91821 0.59858 0.38715
 C1121 C 0.89746 0.58766 0.42225
 C1122 C 0.84918 0.59570 0.42657
 C1123 C 0.82279 0.61874 0.45828
 C1124 C 0.79491 0.64499 0.42848
 H1125 H 0.90881 0.63093 0.33272
 H1126 H 0.95500 0.59089 0.38197
 H1127 H 0.84542 0.64199 0.47576
 H1128 H 0.80125 0.59324 0.47447
 H1129 H 0.80150 0.68348 0.42874
 H1130 H 0.75726 0.63466 0.42755
 C1131 C 0.65739 1.15580 0.09443
 C1132 C 0.64295 1.16134 0.13198
 C1133 C 0.59747 1.14559 0.14188
 C1134 C 0.57029 1.11977 0.11585
 C1135 C 0.58891 1.10817 0.08007
 C1136 C 0.63128 1.12922 0.06926
 C1137 C 0.67416 1.10906 0.05079
 C1138 C 0.70290 1.13831 0.07843
 H1139 H 0.58385 1.15127 0.17020
 H1140 H 0.53640 1.10623 0.12457
 H1141 H 0.67791 1.12060 0.02096
 H1142 H 0.67779 1.07061 0.05532
 H1143 H 0.72319 1.16672 0.06450
 H1144 H 0.72316 1.11684 0.09890
 C1145 C 1.15806 0.65717 0.59561
 C1146 C 1.13884 0.67209 0.63013
 C1147 C 1.09064 0.66255 0.63651
 C1148 C 1.06478 0.63430 0.61104
 C1149 C 1.08690 0.61379 0.57920
 C1150 C 1.13291 0.62841 0.57105
 C1151 C 1.17561 0.60072 0.56035
 C1152 C 1.20316 0.63219 0.58723
 H1153 H 1.07356 0.67489 0.66217
 H1154 H 1.02847 0.62617 0.61756
 H1155 H 1.18542 0.60559 0.53016
 H1156 H 1.17371 0.56358 0.56977
 H1157 H 1.22884 0.65514 0.57249
 H1158 H 1.21725 0.61330 0.61219
 C1159 C 0.59478 0.86481 -0.13932
 C1160 C 0.64289 0.85531 -0.13592
 C1161 C 0.66376 0.86198 -0.10023
 C1162 C 0.63830 0.88290 -0.07047
 C1163 C 0.59105 0.89636 -0.07547
 C1164 C 0.56925 0.88441 -0.10957
 C1165 C 0.54070 0.91410 -0.13546
 C1166 C 0.56891 0.89292 -0.16803
 H1167 H 0.70025 0.85264 -0.09571
 H1168 H 0.65588 0.88938 -0.04382
 H1169 H 0.54690 0.95234 -0.13122
 H1170 H 0.50318 0.90333 -0.13565
 H1171 H 0.59182 0.91879 -0.18260
 H1172 H 0.54746 0.87041 -0.18708
 C1173 C 1.15920 0.35892 0.40034
 C1174 C 1.13980 0.35420 0.36425
 C1175 C 1.09271 0.36830 0.35914
 C1176 C 1.06774 0.39034 0.38888
 C1177 C 1.09004 0.39979 0.42366
 C1178 C 1.13514 0.38173 0.42916
 C1179 C 1.17853 0.40493 0.44363
 C1180 C 1.20509 0.37975 0.41202
 H1181 H 1.07550 0.36285 0.33220
 H1182 H 1.03185 0.40168 0.38421
 H1183 H 1.18817 0.39241 0.47228
 H1184 H 1.17768 0.44374 0.44033
 H1185 H 1.23000 0.35270 0.42251
 H1186 H 1.21981 0.40393 0.39045
 C1187 C 0.40759 0.84928 0.14484
 C1188 C 0.35995 0.83792 0.14120
 C1189 C 0.33774 0.84925 0.10683
 C1190 C 0.36105 0.87643 0.07954
 C1191 C 0.40747 0.89184 0.08560
 C1192 C 0.43106 0.87478 0.11735
 C1193 C 0.46004 0.90010 0.14602
 C1194 C 0.43395 0.87247 0.17621
 H1195 H 0.30146 0.83954 0.10192
 H1196 H 0.34235 0.88626 0.05415
 H1197 H 0.45266 0.93847 0.14699
 H1198 H 0.49783 0.89038 0.14376
 H1199 H 0.41106 0.89484 0.19451
 H1200 H 0.45690 0.84736 0.19151
 C1201 C 0.90584 0.35216 0.64669
 C1202 C 0.86019 0.33513 0.64077
 C1203 C 0.84089 0.34073 0.60439
 C1204 C 0.86429 0.36778 0.57694
 C1205 C 0.90809 0.38870 0.58490
 C1206 C 0.92956 0.37754 0.61919
 C1207 C 0.95184 0.40899 0.64785
 C1208 C 0.92576 0.38131 0.67799
 H1209 H 0.80653 0.32659 0.59783
 H1210 H 0.84756 0.37327 0.54985
 H1211 H 0.93979 0.44607 0.64559
 H1212 H 0.99063 0.40417 0.64888
 H1213 H 0.89854 0.40239 0.69317
 H1214 H 0.94956 0.36068 0.69644
 C1215 C 1.09080 1.11821 0.66058
 C1216 C 1.12284 1.15152 0.64694
 C1217 C 1.12123 1.16197 0.60814
 C1218 C 1.09294 1.13505 0.58358
 C1219 C 1.06668 1.09646 0.59728
 C1220 C 1.06402 1.09089 0.63635
 C1221 C 1.07037 1.04817 0.65985
 C1222 C 1.09880 1.07819 0.68687
 H1223 H 1.14375 1.18879 0.59644
 H1224 H 1.09504 1.14188 0.55353
 H1225 H 1.09229 1.02127 0.64520
 H1226 H 1.03669 1.03569 0.67220
 H1227 H 1.13639 1.06751 0.68847
 H1228 H 1.08103 1.08380 0.71461
 C1229 C 0.58486 0.61602 0.15857
 C1230 C 0.61708 0.65046 0.14722
 C1231 C 0.61758 0.66285 0.10873
 C1232 C 0.59238 0.63598 0.08214
 C1233 C 0.56647 0.59620 0.09363
 C1234 C 0.56016 0.58946 0.13240
 C1235 C 0.56414 0.54590 0.15548
 C1236 C 0.59114 0.57501 0.18423
 H1237 H 0.63983 0.69104 0.09877
 H1238 H 0.59664 0.64391 0.05241
 H1239 H 0.58597 0.51823 0.14155
 H1240 H 0.52938 0.53389 0.16610
 H1241 H 0.62857 0.56415 0.18695
 H1242 H 0.57189 0.57976 0.21142
 C1243 C 1.18558 0.90861 0.38365
 C1244 C 1.17690 0.86026 0.38241
 C1245 C 1.15659 0.84002 0.41485
 C1246 C 1.13728 0.86856 0.44372
 C1247 C 1.13926 0.91791 0.44128
 C1248 C 1.16746 0.93687 0.41252
 C1249 C 1.15914 0.97656 0.38579
 C1250 C 1.17924 0.94551 0.35447
 H1251 H 1.15163 0.80247 0.41622
 H1252 H 1.11648 0.85224 0.46573
 H1253 H 1.18151 1.00750 0.39234
 H1254 H 1.12135 0.98460 0.38160
 H1255 H 1.21341 0.95831 0.34323
 H1256 H 1.15284 0.93569 0.33271
 C1257 C 0.61758 0.37656 -0.14041
 C1258 C 0.65197 0.34558 -0.12761
 C1259 C 0.65968 0.34383 -0.08809
 C1260 C 0.63687 0.37628 -0.06336
 C1261 C 0.60614 0.41070 -0.07795
 C1262 C 0.59523 0.40786 -0.11646
 C1263 C 0.59444 0.44526 -0.14600
 C1264 C 0.61939 0.41093 -0.17206
 H1265 H 0.68484 0.31923 -0.07656
 H1266 H 0.64484 0.37577 -0.03345
 H1267 H 0.61611 0.47636 -0.13838
 H1268 H 0.55842 0.45317 -0.15605
 H1269 H 0.65586 0.42191 -0.17915
 H1270 H 0.59754 0.39968 -0.19649
 C1271 C 0.90728 1.10677 0.33633
 C1272 C 0.87570 1.14105 0.34991
 C1273 C 0.87687 1.15212 0.38869
 C1274 C 0.90317 1.12428 0.41343
 C1275 C 0.92868 1.08495 0.39978
 C1276 C 0.93335 1.07932 0.36076
 C1277 C 0.92806 1.03642 0.33670
 C1278 C 0.89945 1.06644 0.30981
 H1279 H 0.85543 1.18030 0.40024
 H1280 H 0.90063 1.13146 0.44350
 H1281 H 0.90712 1.00851 0.35071
 H1282 H 0.96220 1.02456 0.32449
 H1283 H 0.86187 1.05593 0.30817
 H1284 H 0.91711 1.07178 0.28207
 C1285 C 0.33771 0.64536 -0.09856
 C1286 C 0.32632 0.63003 -0.13504
 C1287 C 0.33789 0.58355 -0.14540
 C1288 C 0.36748 0.55683 -0.12248
 C1289 C 0.38577 0.57633 -0.08900
 C1290 C 0.36713 0.61890 -0.07592
 C1291 C 0.39158 0.66132 -0.06087
 C1292 C 0.35923 0.69039 -0.08559
 H1293 H 0.32755 0.56934 -0.17262
 H1294 H 0.37880 0.52251 -0.13241
 H1295 H 0.42916 0.66294 -0.06960
 H1296 H 0.38487 0.66652 -0.03020
 H1297 H 0.37800 0.70907 -0.10866
 H1298 H 0.33388 0.71208 -0.06898
 C1299 C 0.89193 0.85029 0.62711
 C1300 C 0.84300 0.84676 0.62627
 C1301 C 0.81842 0.87329 0.59910
 C1302 C 0.84312 0.90039 0.57220
 C1303 C 0.89269 0.89973 0.57116
 C1304 C 0.91597 0.87486 0.59948
 C1305 C 0.95313 0.83802 0.59590
 C1306 C 0.92785 0.81193 0.62712
 H1307 H 0.78033 0.87360 0.59907
 H1308 H 0.82361 0.92128 0.55212
 H1309 H 0.98831 0.85070 0.60429
 H1310 H 0.95209 0.81944 0.56813
 H1311 H 0.94790 0.81099 0.65404
 H1312 H 0.91386 0.77767 0.61765
 C1313 C 0.36992 0.33377 0.10132
 C1314 C 0.34361 0.35670 0.12945
 C1315 C 0.33100 0.40385 0.12333
 C1316 C 0.34984 0.42862 0.09240
 C1317 C 0.38233 0.40686 0.06751
 C1318 C 0.38987 0.35853 0.07164
 C1319 C 0.43388 0.32992 0.07222
 C1320 C 0.41217 0.30286 0.10487
 H1321 H 0.30761 0.42182 0.14293
 H1322 H 0.34201 0.46573 0.08991
 H1323 H 0.46531 0.35055 0.08054
 H1324 H 0.43818 0.30833 0.04611
 H1325 H 0.43089 0.30809 0.13213
 H1326 H 0.40425 0.26568 0.09756
   
