data_POSCAR
  _audit_creation_date              2014-09-24
  _audit_creation_method            'ToBaCCo'
  _symmetry_space_group_name_H-M    'P1'
  _symmetry_Int_Tables_number       1
  _symmetry_cell_setting            triclinic
  loop_
  _symmetry_equiv_pos_as_xyz
 x,y,z
_cell_length_a 80.5101
_cell_length_b 80.0401
_cell_length_c 79.7956
_cell_angle_alpha 90.084600
_cell_angle_beta 90.041100
_cell_angle_gamma 90.058800
loop_
  _atom_site_label
  _atom_site_type_symbol
  _atom_site_fract_x
  _atom_site_fract_y
  _atom_site_fract_z
C1 C 0.30961 0.44061 0.92128
 N2 N 0.30256 0.42679 0.92808
 C3 C 0.30926 0.41975 0.94198
 N4 N 0.32314 0.42642 0.94898
 C5 C 0.33019 0.44025 0.94219
 N6 N 0.32348 0.44729 0.92828
 C7 C 0.44377 0.82705 0.44454
 N8 N 0.45039 0.82086 0.43018
 C9 C 0.44355 0.80720 0.42280
 N10 N 0.42997 0.79985 0.42967
 C11 C 0.42335 0.80605 0.44402
 N12 N 0.43019 0.81971 0.45140
 C13 C 0.94264 0.92298 0.80764
 N14 N 0.94923 0.92958 0.82185
 C15 C 0.94199 0.94302 0.82920
 N16 N 0.92805 0.94975 0.82244
 C17 C 0.92145 0.94315 0.80824
 N18 N 0.92870 0.92971 0.80089
 C19 C 0.44094 -0.07862 0.30566
 N20 N 0.42700 -0.07165 0.29913
 C21 C 0.42042 -0.05774 0.30625
 N22 N 0.42768 -0.05091 0.32001
 C23 C 0.44161 -0.05788 0.32654
 N24 N 0.44819 -0.07178 0.31942
 C25 C 0.80827 0.30846 0.32739
 N26 N 0.82228 0.30163 0.32089
 C27 C 0.82961 0.30865 0.30731
 N28 N 0.82303 0.32260 0.30033
 C29 C 0.80902 0.32944 0.30682
 N30 N 0.80169 0.32242 0.32041
 C31 C -0.19246 0.82799 0.80548
 N32 N -0.19984 0.82103 0.81908
 C33 C -0.19343 0.80696 0.82599
 N34 N -0.17953 0.79996 0.81943
 C35 C -0.17216 0.80692 0.80583
 N36 N -0.17857 0.82099 0.79893
 C37 C 0.94256 0.32915 0.44273
 N38 N 0.92892 0.32222 0.44989
 C39 C 0.92210 0.30818 0.44323
 N40 N 0.92880 0.30119 0.42929
 C41 C 0.94245 0.30812 0.42213
 N42 N 0.94927 0.32215 0.42879
 C43 C 0.44102 0.44023 0.82981
 N44 N 0.42719 0.44735 0.82323
 C45 C 0.42007 0.44076 0.80928
 N46 N 0.42668 0.42694 0.80202
 C47 C 0.44051 0.41982 0.80860
 N48 N 0.44762 0.42641 0.82255
 C49 C 0.80886 0.92187 0.94231
 N50 N 0.82290 0.92842 0.94907
 C51 C 0.83026 0.94187 0.94186
 N52 N 0.82365 0.94867 0.92779
 C53 C 0.80961 0.94212 0.92101
 N54 N 0.80226 0.92867 0.92823
 C55 C 0.30869 0.82953 0.30632
 N56 N 0.30147 0.82219 0.31980
 C57 C 0.30815 0.80813 0.32645
 N58 N 0.32217 0.80151 0.31975
 C59 C 0.32940 0.80885 0.30627
 N60 N 0.32270 0.82291 0.29962
 C61 C 0.80757 0.42358 0.44297
 N62 N 0.82156 0.43047 0.44952
 C63 C 0.82861 0.44394 0.44206
 N64 N 0.82178 0.45042 0.42795
 C65 C 0.80780 0.44354 0.42139
 N66 N 0.80075 0.43006 0.42885
 C67 C 0.94269 0.82802 -0.05632
 N68 N 0.92897 0.82089 -0.04953
 C69 C 0.92256 0.80672 -0.05631
 N70 N 0.92979 0.79978 -0.07001
 C71 C 0.94352 0.80690 -0.07681
 N72 N 0.94992 0.82107 -0.07002
 C73 C 0.30920 0.32959 0.80915
 N74 N 0.30208 0.32288 0.82300
 C75 C 0.30871 0.30902 0.83015
 N76 N 0.32257 0.30199 0.82353
 C77 C 0.32970 0.30869 0.80968
 N78 N 0.32306 0.32254 0.80254
 C79 C 0.17293 0.55653 0.55561
 N80 N 0.17996 0.54953 0.56937
 C81 C 0.19358 0.55663 0.57645
 N82 N 0.20005 0.57084 0.56989
 C83 C 0.19302 0.57785 0.55613
 N84 N 0.17941 0.57075 0.54905
 C85 C 0.57765 0.69339 0.05483
 N86 N 0.57091 0.70032 0.06879
 C87 C 0.55689 0.69374 0.07552
 N88 N 0.54972 0.68011 0.06842
 C89 C 0.55645 0.67317 0.05446
 N90 N 0.57048 0.67976 0.04773
 C91 C 0.69255 0.19449 0.67299
 N92 N 0.67886 0.20120 0.68027
 C93 C 0.67257 0.19434 0.69446
 N94 N 0.67987 0.18066 0.70127
 C95 C 0.69356 0.17395 0.69399
 N96 N 0.69984 0.18081 0.67980
 C97 C 1.07593 0.05348 0.19623
 N98 N 1.06914 0.04648 0.18232
 C99 C 1.05536 0.05328 0.17531
 N100 N 1.04847 0.06720 0.18211
 C101 C 1.05526 0.07420 0.19603
 N102 N 1.06904 0.06740 0.20302
 C103 C 0.05460 0.17333 1.05536
 N104 N 0.04768 0.18029 1.06921
 C105 C 0.05442 0.19428 1.07605
 N106 N 0.06820 0.20119 1.06915
 C107 C 0.07513 0.19424 1.05530
 N108 N 0.06839 0.18025 1.04846
 C109 C 0.17187 0.69317 0.69239
 N110 N 0.17910 0.67970 0.69968
 C111 C 0.19312 0.67307 0.69300
 N112 N 0.19979 0.67978 0.67893
 C113 C 0.19257 0.69325 0.67164
 N114 N 0.17855 0.69988 0.67832
 C115 C 1.19447 0.17364 0.19540
 N116 N 1.18067 0.18046 0.20237
 C117 C 1.17386 0.19443 0.19564
 N118 N 1.18075 0.20148 0.18184
 C119 C 1.19455 0.19468 0.17487
 N120 N 1.20135 0.18070 0.18160
 C121 C 0.67119 1.05907 0.55644
 N122 N 0.67840 1.05178 0.56996
 C123 C 0.69232 1.05853 0.57678
 N124 N 0.69893 1.07268 0.57019
 C125 C 0.69173 1.07997 0.55668
 N126 N 0.67781 1.07321 0.54986
 C127 C 0.55530 0.55540 0.17492
 N128 N 0.56925 0.54859 0.18157
 C129 C 0.57633 0.55551 0.19538
 N130 N 0.56956 0.56936 0.20242
 C131 C 0.55560 0.57617 0.19577
 N132 N 0.54853 0.56924 0.18197
 C133 C 0.67330 0.69495 0.19360
 N134 N 0.67956 0.70160 0.17929
 C135 C 0.69312 0.69468 0.17198
 N136 N 0.70032 0.68099 0.17888
 C137 C 0.69407 0.67434 0.19318
 N138 N 0.68050 0.68126 0.20048
 C139 C 0.17318 0.05362 1.05453
 N140 N 0.18001 0.06770 1.04802
 C141 C 0.19370 0.07453 1.05523
 N142 N 0.20042 0.06741 1.06909
 C143 C 0.19360 0.05334 1.07560
 N144 N 0.17992 0.04651 1.06838
 C145 C 0.57892 0.19257 0.55714
 N146 N 0.57223 0.17864 0.55015
 C147 C 0.55823 0.17184 0.55669
 N148 N 0.55101 0.17887 0.57035
 C149 C 0.55769 0.19280 0.57735
 N150 N 0.57171 0.19960 0.57080
 C151 C 0.07721 0.55618 0.69507
 N152 N 0.07075 0.57047 0.70150
 C153 C 0.05716 0.57751 0.69434
 N154 N 0.05015 0.57036 0.68062
 C155 C 0.05661 0.55607 0.67417
 N156 N 0.07019 0.54904 0.68134
 C157 C 0.67298 0.55632 0.05434
 N158 N 0.68028 0.54936 0.06798
 C159 C 0.69402 0.55649 0.07478
 N160 N 0.70035 0.57070 0.06806
 C161 C 0.69306 0.57766 0.05442
 N162 N 0.67932 0.57052 0.04762
 C163 C 0.05908 0.69362 0.57818
 N164 N 0.07297 0.70015 0.57112
 C165 C 0.07935 0.69323 0.55699
 N166 N 0.07193 0.67967 0.55001
 C167 C 0.05803 0.67313 0.55706
 N168 N 0.05166 0.68006 0.57119
 C169 C 0.55763 1.05588 0.67191
 N170 N 0.57129 1.04888 0.67898
 C171 C 0.57763 1.05528 0.69339
 N172 N 0.57041 1.06879 0.70063
 C173 C 0.55675 1.07579 0.69358
 N174 N 0.55042 1.06939 0.67917
 C175 C 0.43980 0.32891 0.94306
 N176 N 0.44676 0.32223 0.92909
 C177 C 0.43994 0.30847 0.92187
 N178 N 0.42607 0.30150 0.92852
 C179 C 0.41911 0.30816 0.94248
 N180 N 0.42592 0.32192 0.94971
 C181 C 0.94026 0.44008 0.33010
 N182 N 0.92645 0.44706 0.32333
 C183 C 0.91946 0.44028 0.30941
 N184 N 0.92618 0.42641 0.30236
 C185 C 0.93999 0.41942 0.30912
 N186 N 0.94698 0.42621 0.32304
 C187 C 0.30809 0.94404 0.42236
 N188 N 0.30107 0.93030 0.42936
 C189 C 0.30760 0.92369 0.44356
 N190 N 0.32126 0.93071 0.45065
 C191 C 0.32828 0.94445 0.44364
 N192 N 0.32174 0.95105 0.42945
 O193 O 0.24894 0.54506 0.72871
 O194 O 0.27731 0.53980 0.73073
 O195 O 0.22888 0.50115 0.70561
 O196 O 0.22844 0.47362 0.71052
 O197 O 0.20574 0.52167 0.74982
 O198 O 0.21211 0.52050 0.77894
 O199 O 0.27220 0.45698 0.75072
 O200 O 0.26877 0.46177 0.72223
 O201 O 0.29368 0.49938 0.77171
 O202 O 0.28781 0.52953 0.77060
 O203 O 0.25184 0.47877 0.79391
 O204 O 0.22205 0.47954 0.78839
 O205 O 0.25235 0.45677 0.77110
 O206 O 0.22146 0.46272 0.76955
 O207 O 0.27162 0.49911 0.79405
 O208 O 0.26953 0.52990 0.78790
 O209 O 0.29358 0.47900 0.75177
 O210 O 0.28811 0.48473 0.72144
 O211 O 0.22930 0.54508 0.74932
 O212 O 0.23086 0.53873 0.77904
 O213 O 0.20558 0.50160 0.72956
 O214 O 0.21257 0.47144 0.73203
 O215 O 0.24845 0.52174 0.70565
 O216 O 0.27843 0.51811 0.71212
 Zr217 Zr 0.25896 0.52084 0.72983
 O218 O 0.27505 0.50637 0.74471
 Zr219 Zr 0.22971 0.49142 0.73008
 O220 O 0.24486 0.47548 0.74446
 Zr221 Zr 0.23001 0.52079 0.75958
 O222 O 0.24469 0.50592 0.77554
 Zr223 Zr 0.27005 0.48099 0.74044
 O224 O 0.25495 0.49539 0.72425
 Zr225 Zr 0.26990 0.51015 0.77021
 O226 O 0.25520 0.52630 0.75540
 Zr227 Zr 0.24096 0.48048 0.77000
 O228 O 0.22449 0.49535 0.75563
 O229 O 0.23383 0.51667 0.73420
 O230 O 0.26611 0.48479 0.76597
 C231 C 0.23755 0.55212 0.73747
 C232 C 0.23706 0.51298 0.69856
 C233 C 0.19861 0.51316 0.73822
 C234 C 0.26425 0.45001 0.76277
 C235 C 0.30044 0.48725 0.76372
 C236 C 0.26369 0.48698 0.80085
 H237 H 0.28671 0.50908 0.74192
 H238 H 0.24199 0.50853 0.78733
 H239 H 0.22664 0.52377 0.72710
 H240 H 0.24243 0.46371 0.74157
 H241 H 0.26519 0.46711 0.71164
 H242 H 0.23706 0.46515 0.71286
 H243 H 0.26021 0.52785 0.79571
 H244 H 0.24171 0.54448 0.77807
 H245 H 0.29602 0.47524 0.72187
 H246 H 0.27734 0.52698 0.70351
 H247 H 0.22261 0.49003 0.79493
 H248 H 0.20703 0.50922 0.77877
 H249 H 0.27716 0.54441 0.74224
 H250 H 0.29460 0.52853 0.76033
 H251 H 0.20604 0.47336 0.74236
 H252 H 0.22363 0.45486 0.76023
 O253 O 0.20473 0.02147 0.24933
 O254 O 0.21052 0.01955 0.27781
 O255 O 0.24796 0.04461 0.22832
 O256 O 0.27527 0.03975 0.22711
 O257 O 0.22718 0.00033 0.20535
 O258 O 0.22856 -0.02862 0.21175
 O259 O 0.29286 -0.00004 0.27119
 O260 O 0.28794 0.02833 0.26774
 O261 O 0.25126 -0.02100 0.29369
 O262 O 0.22127 -0.02022 0.28837
 O263 O 0.27095 -0.04327 0.25097
 O264 O 0.26969 -0.03781 0.22101
 O265 O 0.29277 -0.02041 0.25119
 O266 O 0.28624 -0.01892 0.22011
 O267 O 0.25121 -0.04345 0.27136
 O268 O 0.22049 -0.03736 0.26984
 O269 O 0.27135 -0.00096 0.29318
 O270 O 0.26546 0.02917 0.28763
 O271 O 0.20441 0.00081 0.22959
 O272 O 0.21095 -0.02881 0.23110
 O273 O 0.24701 0.02064 0.20478
 O274 O 0.27719 0.01826 0.21126
 O275 O 0.22787 0.04458 0.24842
 O276 O 0.23201 0.03817 0.27860
 Zr277 Zr 0.22902 0.02048 0.25897
 O278 O 0.24381 0.00576 0.27494
 Zr279 Zr 0.25767 0.02023 0.22891
 O280 O 0.27390 0.00605 0.24392
 Zr281 Zr 0.22862 -0.00929 0.22983
 O282 O 0.24380 -0.02507 0.24436
 Zr283 Zr 0.26892 0.01012 0.26942
 O284 O 0.25421 0.02614 0.25443
 Zr285 Zr 0.24009 -0.01971 0.26986
 O286 O 0.22366 -0.00506 0.25534
 Zr287 Zr 0.26898 -0.01944 0.24011
 O288 O 0.25376 -0.00527 0.22376
 O289 O 0.23266 0.01605 0.23355
 O290 O 0.26521 -0.01537 0.26557
 C291 C 0.19751 0.01262 0.23802
 C292 C 0.23637 0.05165 0.23680
 C293 C 0.23544 0.01191 0.19798
 C294 C 0.29969 -0.01204 0.26305
 C295 C 0.26333 -0.01285 0.30031
 C296 C 0.26307 -0.05021 0.26306
 H297 H 0.24133 0.00858 0.28675
 H298 H 0.24121 -0.03684 0.24167
 H299 H 0.22543 0.02309 0.22644
 H300 H 0.28553 0.00899 0.24124
 H301 H 0.28252 0.03886 0.26421
 H302 H 0.28374 0.03766 0.23583
 H303 H 0.22242 -0.04523 0.26047
 H304 H 0.20537 -0.02775 0.24210
 H305 H 0.27506 0.02886 0.29542
 H306 H 0.22314 0.04672 0.27765
 H307 H 0.25924 -0.04427 0.22165
 H308 H 0.23967 -0.02847 0.20645
 H309 H 0.20602 0.00803 0.27778
 H310 H 0.22219 -0.00983 0.29502
 H311 H 0.27513 0.00798 0.20467
 H312 H 0.29412 -0.00966 0.22222
 O313 O 0.50200 0.70590 0.22856
 O314 O 0.47368 0.71113 0.23031
 O315 O 0.52204 0.74952 0.20491
 O316 O 0.52233 0.77713 0.20944
 O317 O 0.54515 0.72973 0.24937
 O318 O 0.53879 0.73143 0.27848
 O319 O 0.47847 0.79425 0.24930
 O320 O 0.48200 0.78904 0.22090
 O321 O 0.45710 0.75216 0.27078
 O322 O 0.46306 0.72201 0.27008
 O323 O 0.49901 0.77308 0.29292
 O324 O 0.52878 0.77247 0.28727
 O325 O 0.49822 0.79484 0.26978
 O326 O 0.52909 0.78914 0.26840
 O327 O 0.47927 0.75271 0.29326
 O328 O 0.48128 0.72193 0.28740
 O329 O 0.45716 0.77213 0.25049
 O330 O 0.46277 0.76601 0.22030
 O331 O 0.52162 0.70628 0.24922
 O332 O 0.52011 0.71314 0.27882
 O333 O 0.54528 0.74952 0.22888
 O334 O 0.53823 0.77968 0.23099
 O335 O 0.50254 0.72886 0.20515
 O336 O 0.47250 0.73256 0.21150
 Zr337 Zr 0.49197 0.73013 0.22928
 O338 O 0.47581 0.74478 0.24393
 Zr339 Zr 0.52112 0.75965 0.22924
 O340 O 0.50590 0.77575 0.24336
 Zr341 Zr 0.52088 0.73075 0.25911
 O342 O 0.50612 0.74581 0.27482
 Zr343 Zr 0.48074 0.77010 0.23935
 O344 O 0.49591 0.75549 0.22338
 Zr345 Zr 0.48093 0.74142 0.26950
 O346 O 0.49571 0.72510 0.25494
 Zr347 Zr 0.50977 0.77118 0.26898
 O348 O 0.52632 0.75614 0.25485
 O349 O 0.51708 0.73444 0.23367
 O350 O 0.48463 0.76674 0.26495
 C351 C 0.51337 0.69901 0.23748
 C352 C 0.51392 0.73753 0.19799
 C353 C 0.55226 0.73808 0.23768
 C354 C 0.48634 0.80143 0.26130
 C355 C 0.45029 0.76407 0.26252
 C356 C 0.48725 0.76488 0.29997
 H357 H 0.46417 0.74198 0.24114
 H358 H 0.50885 0.74338 0.28664
 H359 H 0.52428 0.72724 0.22669
 H360 H 0.50829 0.78748 0.24033
 H361 H 0.48568 0.78356 0.21041
 H362 H 0.51380 0.78570 0.21174
 H363 H 0.49072 0.72397 0.29507
 H364 H 0.50929 0.70731 0.27790
 H365 H 0.45483 0.77547 0.22056
 H366 H 0.47366 0.72361 0.20296
 H367 H 0.52830 0.76208 0.29394
 H368 H 0.54389 0.74268 0.27810
 H369 H 0.47372 0.70677 0.24192
 H370 H 0.45626 0.72285 0.25979
 H371 H 0.54467 0.77799 0.24142
 H372 H 0.52695 0.79676 0.25890
 O373 O -0.00033 0.77231 0.79542
 O374 O 0.02805 0.77023 0.79013
 O375 O -0.02028 0.79517 0.75128
 O376 O -0.02087 0.79012 0.72370
 O377 O -0.04351 0.75124 0.77206
 O378 O -0.03726 0.72216 0.77075
 O379 O 0.02289 0.75010 0.70706
 O380 O 0.01950 0.77849 0.71184
 O381 O 0.04438 0.72930 0.74954
 O382 O 0.03860 0.73043 0.77972
 O383 O 0.00240 0.70703 0.72901
 O384 O -0.02726 0.71254 0.72965
 O385 O 0.00305 0.72975 0.70685
 O386 O -0.02789 0.73133 0.71287
 O387 O 0.02219 0.70696 0.74938
 O388 O 0.02019 0.71333 0.78026
 O389 O 0.04429 0.74917 0.72915
 O390 O 0.03881 0.77940 0.73487
 O391 O -0.01995 0.75170 0.79545
 O392 O -0.01850 0.72205 0.78904
 O393 O -0.04362 0.77138 0.75192
 O394 O -0.03675 0.76866 0.72162
 O395 O -0.00076 0.79523 0.77198
 O396 O 0.02921 0.78876 0.76840
 Zr397 Zr 0.00970 0.77111 0.77111
 O398 O 0.02577 0.75623 0.75658
 Zr399 Zr -0.01955 0.77072 0.74160
 O400 O -0.00442 0.75636 0.72562
 Zr401 Zr -0.01929 0.74143 0.77108
 O402 O -0.00462 0.72549 0.75616
 Zr403 Zr 0.02076 0.76040 0.73113
 O404 O 0.00569 0.77658 0.74559
 Zr405 Zr 0.02060 0.73081 0.76038
 O406 O 0.00591 0.74562 0.77658
 Zr407 Zr -0.00835 0.73091 0.73064
 O408 O -0.02481 0.74527 0.74557
 O409 O -0.01542 0.76672 0.76693
 O410 O 0.01681 0.73495 0.73493
 C411 C -0.01172 0.76356 0.80251
 C412 C -0.01211 0.80226 0.76316
 C413 C -0.05058 0.76285 0.76358
 C414 C 0.01493 0.73807 0.70006
 C415 C 0.05116 0.73730 0.73740
 C416 C 0.01419 0.70011 0.73728
 H417 H 0.03743 0.75903 0.75930
 H418 H -0.00736 0.71374 0.75880
 H419 H -0.02256 0.77384 0.77406
 H420 H -0.00686 0.75920 0.71381
 H421 H 0.01588 0.78905 0.71719
 H422 H -0.01224 0.78778 0.71521
 H423 H 0.01089 0.70550 0.77822
 H424 H -0.00766 0.72304 0.79483
 H425 H 0.04671 0.77897 0.72535
 H426 H 0.02813 0.79735 0.77732
 H427 H -0.02688 0.70622 0.74028
 H428 H -0.04240 0.72238 0.75948
 H429 H 0.02785 0.75877 0.79476
 H430 H 0.04528 0.74077 0.77882
 H431 H -0.04334 0.75840 0.72364
 H432 H -0.02568 0.74056 0.70494
 O433 O 0.00141 0.04387 0.02307
 O434 O -0.02693 0.03859 0.02117
 O435 O 0.02150 -0.00025 0.04572
 O436 O 0.02200 -0.02771 0.04052
 O437 O 0.04449 0.02060 0.00153
 O438 O 0.03798 0.01959 -0.02753
 O439 O -0.02202 -0.04415 0.00047
 O440 O -0.01848 -0.03948 0.02898
 O441 O -0.04358 -0.00169 -0.02009
 O442 O -0.03769 0.02850 -0.01869
 O443 O -0.00183 -0.02201 -0.04270
 O444 O 0.02800 -0.02129 -0.03722
 O445 O -0.00231 -0.04421 -0.02004
 O446 O 0.02853 -0.03831 -0.01865
 O447 O -0.02158 -0.00169 -0.04256
 O448 O -0.01954 0.02901 -0.03608
 O449 O -0.04341 -0.02217 -0.00032
 O450 O -0.03780 -0.01657 0.03003
 O451 O 0.02092 0.04399 0.00233
 O452 O 0.01924 0.03778 -0.02740
 O453 O 0.04473 0.00042 0.02163
 O454 O 0.03769 -0.02973 0.01892
 O455 O 0.00198 0.02034 0.04599
 O456 O -0.02803 0.01681 0.03960
 Zr457 Zr -0.00862 0.01962 0.02183
 O458 O -0.02481 0.00521 0.00691
 Zr459 Zr 0.02058 -0.00978 0.02115
 O460 O 0.00534 -0.02564 0.00672
 Zr461 Zr 0.02017 0.01975 -0.00808
 O462 O 0.00538 0.00497 -0.02409
 Zr463 Zr -0.01982 -0.02019 0.01091
 O464 O -0.00462 -0.00586 0.02715
 Zr465 Zr -0.01979 0.00914 -0.01859
 O466 O -0.00499 0.02521 -0.00372
 Zr467 Zr 0.00911 -0.02049 -0.01880
 O468 O 0.02567 -0.00570 -0.00439
 O469 O 0.01649 0.01550 0.01729
 O470 O -0.01602 -0.01625 -0.01460
 C471 C 0.01273 0.05099 0.01425
 C472 C 0.01336 0.01151 0.05295
 C473 C 0.05167 0.01202 0.01301
 C474 C -0.01414 -0.05105 -0.01168
 C475 C -0.05031 -0.01387 -0.01217
 C476 C -0.01366 -0.01373 -0.04953
 H477 H -0.03646 0.00790 0.00978
 H478 H 0.00804 0.00766 -0.03586
 H479 H 0.02371 0.02257 0.02442
 H480 H 0.00778 -0.03742 0.00950
 H481 H -0.01482 -0.03419 0.03959
 H482 H 0.01329 -0.03611 0.03822
 H483 H -0.01022 0.02708 -0.04392
 H484 H 0.00840 0.04352 -0.02633
 H485 H -0.04570 -0.02606 0.02957
 H486 H -0.02688 0.02563 0.04828
 H487 H 0.02738 -0.01080 -0.04372
 H488 H 0.04303 0.00832 -0.02749
 H489 H -0.02689 0.04320 0.00967
 H490 H -0.04450 0.02735 -0.00844
 H491 H 0.04415 -0.02775 0.00856
 H492 H 0.02645 -0.04617 -0.00932
 O493 O 0.04449 0.52201 0.50068
 O494 O 0.03894 0.51991 0.47214
 O495 O 0.00106 0.54511 0.52124
 O496 O -0.02631 0.54022 0.52191
 O497 O 0.02161 0.50118 0.54458
 O498 O 0.02036 0.47215 0.53831
 O499 O -0.04337 0.49999 0.47809
 O500 O -0.03850 0.52837 0.48134
 O501 O -0.00151 0.47888 0.45616
 O502 O 0.02845 0.47998 0.46169
 O503 O -0.02153 0.45693 0.49867
 O504 O -0.02058 0.46266 0.52865
 O505 O -0.04344 0.47973 0.49816
 O506 O -0.03723 0.48142 0.52926
 O507 O -0.00148 0.45671 0.47858
 O508 O 0.02918 0.46305 0.48037
 O509 O -0.02170 0.49878 0.45631
 O510 O -0.01587 0.52905 0.46165
 O511 O 0.04464 0.50156 0.52059
 O512 O 0.03822 0.47191 0.51919
 O513 O 0.00170 0.52136 0.54482
 O514 O -0.02836 0.51885 0.53804
 O515 O 0.02134 0.54503 0.50134
 O516 O 0.01739 0.53843 0.47112
 Zr517 Zr 0.02029 0.52087 0.49082
 O518 O 0.00572 0.50594 0.47476
 Zr519 Zr -0.00867 0.52072 0.52056
 O520 O -0.02469 0.50632 0.50546
 Zr521 Zr 0.02046 0.49133 0.52014
 O522 O 0.00550 0.47535 0.50552
 Zr523 Zr -0.01945 0.51020 0.47998
 O524 O -0.00496 0.52643 0.49505
 Zr525 Zr 0.00947 0.48054 0.48004
 O526 O 0.02569 0.49539 0.49466
 Zr527 Zr -0.01975 0.48087 0.50946
 O528 O -0.00476 0.49527 0.52590
 O529 O 0.01639 0.51662 0.51622
 O530 O -0.01571 0.48476 0.48403
 C531 C 0.05160 0.51332 0.51214
 C532 C 0.01276 0.55213 0.51288
 C533 C 0.01325 0.51277 0.55180
 C534 C -0.05027 0.48802 0.48621
 C535 C -0.01360 0.48682 0.44938
 C536 C -0.01343 0.44993 0.48674
 H537 H 0.00830 0.50865 0.46296
 H538 H 0.00811 0.46362 0.50829
 H539 H 0.02353 0.52373 0.52338
 H540 H -0.03635 0.50921 0.50800
 H541 H -0.03314 0.53893 0.48492
 H542 H -0.03484 0.53783 0.51333
 H543 H 0.02718 0.45522 0.48974
 H544 H 0.04391 0.47289 0.50824
 H545 H -0.02538 0.52859 0.45376
 H546 H 0.02622 0.54703 0.47212
 H547 H -0.01013 0.45620 0.52811
 H548 H 0.00919 0.47229 0.54350
 H549 H 0.04342 0.50840 0.47221
 H550 H 0.02749 0.49026 0.45490
 H551 H -0.02640 0.50858 0.54465
 H552 H -0.04502 0.49072 0.52712
 O553 O 0.49867 -0.02264 0.45510
 O554 O 0.52709 -0.02053 0.46022
 O555 O 0.47888 -0.04473 0.49967
 O556 O 0.47846 -0.03927 0.52716
 O557 O 0.45573 -0.00104 0.47833
 O558 O 0.46214 0.02801 0.47909
 O559 O 0.52252 0.00085 0.54303
 O560 O 0.51905 -0.02760 0.53863
 O561 O 0.54385 0.02096 0.50005
 O562 O 0.53780 0.01938 0.46989
 O563 O 0.50209 0.04364 0.52051
 O564 O 0.47254 0.03832 0.52019
 O565 O 0.50274 0.02121 0.54301
 O566 O 0.47170 0.01957 0.53703
 O567 O 0.52176 0.04336 0.50004
 O568 O 0.51957 0.03661 0.46930
 O569 O 0.54383 0.00147 0.52079
 O570 O 0.53819 -0.02885 0.51553
 O571 O 0.47913 -0.00199 0.45484
 O572 O 0.48084 0.02777 0.46076
 O573 O 0.45562 -0.02085 0.49879
 O574 O 0.46276 -0.01774 0.52903
 O575 O 0.49828 -0.04517 0.47891
 O576 O 0.52831 -0.03872 0.48222
 Zr577 Zr 0.50886 -0.02107 0.47933
 O578 O 0.52508 -0.00601 0.49355
 Zr579 Zr 0.47979 -0.02015 0.50897
 O580 O 0.49509 -0.00560 0.52466
 Zr581 Zr 0.48001 0.00868 0.47903
 O582 O 0.49482 0.02480 0.49365
 Zr583 Zr 0.52024 -0.00977 0.51909
 O584 O 0.50498 -0.02613 0.50496
 Zr585 Zr 0.51998 0.01936 0.48939
 O586 O 0.50515 0.00434 0.47348
 Zr587 Zr 0.49123 0.01977 0.51927
 O588 O 0.47461 0.00526 0.50463
 O589 O 0.48378 -0.01655 0.48355
 O590 O 0.51636 0.01562 0.51493
 C591 C 0.48727 -0.01398 0.44793
 C592 C 0.48694 -0.05203 0.48789
 C593 C 0.44862 -0.01245 0.48705
 C594 C 0.51461 0.01297 0.54990
 C595 C 0.55069 0.01318 0.51228
 C596 C 0.51387 0.05040 0.51209
 H597 H 0.53672 -0.00887 0.49081
 H598 H 0.49211 0.03651 0.49086
 H599 H 0.47654 -0.02376 0.47658
 H600 H 0.49271 -0.00826 0.53651
 H601 H 0.51532 -0.03821 0.53345
 H602 H 0.48722 -0.03690 0.53550
 H603 H 0.51023 0.04441 0.47122
 H604 H 0.49162 0.02661 0.45491
 H605 H 0.54618 -0.02828 0.52497
 H606 H 0.52713 -0.04745 0.47345
 H607 H 0.47259 0.04419 0.50930
 H608 H 0.45701 0.02796 0.49036
 H609 H 0.52689 -0.00916 0.45537
 H610 H 0.54448 0.00908 0.47095
 H611 H 0.45614 -0.00755 0.52686
 H612 H 0.47402 0.01060 0.54521
 O613 O 0.50090 0.54397 0.02160
 O614 O 0.47259 0.53863 0.01956
 O615 O 0.52079 0.50035 0.04539
 O616 O 0.52145 0.47281 0.04076
 O617 O 0.54417 0.52037 0.00103
 O618 O 0.53795 0.51859 -0.02812
 O619 O 0.47771 0.45549 0.00066
 O620 O 0.48115 0.46071 0.02912
 O621 O 0.45632 0.49741 -0.02092
 O622 O 0.46212 0.52758 -0.02022
 O623 O 0.49837 0.47670 -0.04277
 O624 O 0.52803 0.47747 -0.03708
 O625 O 0.49758 0.45500 -0.01968
 O626 O 0.52853 0.46099 -0.01798
 O627 O 0.47855 0.49695 -0.04325
 O628 O 0.48048 0.52780 -0.03739
 O629 O 0.45635 0.47744 -0.00062
 O630 O 0.46177 0.48362 0.02958
 O631 O 0.52057 0.54369 0.00102
 O632 O 0.51924 0.53682 -0.02858
 O633 O 0.54426 0.50062 0.02155
 O634 O 0.53734 0.47038 0.01934
 O635 O 0.50127 0.52094 0.04502
 O636 O 0.47131 0.51723 0.03840
 Zr637 Zr 0.49090 0.51969 0.02078
 O638 O 0.47487 0.50493 0.00604
 Zr639 Zr 0.52016 0.49032 0.02101
 O640 O 0.50506 0.47412 0.00680
 Zr641 Zr 0.51996 0.51922 -0.00886
 O642 O 0.50532 0.50406 -0.02466
 Zr643 Zr 0.47987 0.47964 0.01066
 O644 O 0.49491 0.49435 0.02671
 Zr645 Zr 0.48009 0.50830 -0.01949
 O646 O 0.49474 0.52472 -0.00486
 Zr647 Zr 0.50904 0.47872 -0.01879
 O648 O 0.52547 0.49386 -0.00456
 O649 O 0.51605 0.51551 0.01657
 O650 O 0.48387 0.48302 -0.01490
 C651 C 0.51229 0.55092 0.01273
 C652 C 0.51257 0.51225 0.05228
 C653 C 0.55126 0.51207 0.01278
 C654 C 0.48566 0.44835 -0.01130
 C655 C 0.44951 0.48545 -0.01271
 C656 C 0.48658 0.48480 -0.04989
 H657 H 0.46320 0.50766 0.00876
 H658 H 0.50809 0.50650 -0.03647
 H659 H 0.52318 0.52274 0.02362
 H660 H 0.50749 0.46240 0.00984
 H661 H 0.48468 0.46623 0.03966
 H662 H 0.51281 0.46431 0.03855
 H663 H 0.48987 0.52572 -0.04510
 H664 H 0.50837 0.54253 -0.02779
 H665 H 0.45391 0.47407 0.02931
 H666 H 0.47238 0.52621 0.04692
 H667 H 0.52764 0.48794 -0.04363
 H668 H 0.54310 0.50738 -0.02768
 H669 H 0.47271 0.54297 0.00795
 H670 H 0.45532 0.52674 -0.00993
 H671 H 0.54391 0.47219 0.00902
 H672 H 0.52624 0.45320 -0.00866
 O673 O 0.75137 0.27303 0.45555
 O674 O 0.72298 0.27089 0.46068
 O675 O 0.77109 0.29579 0.49993
 O676 O 0.77144 0.29064 0.52750
 O677 O 0.79448 0.25208 0.47898
 O678 O 0.78830 0.22295 0.48008
 O679 O 0.72775 0.25042 0.54364
 O680 O 0.73107 0.27882 0.53903
 O681 O 0.70649 0.22973 0.50081
 O682 O 0.71254 0.23100 0.47063
 O683 O 0.74833 0.20749 0.52153
 O684 O 0.77799 0.21304 0.52105
 O685 O 0.74765 0.23017 0.54383
 O686 O 0.77859 0.23180 0.53791
 O687 O 0.72866 0.20745 0.50103
 O688 O 0.73086 0.21386 0.47023
 O689 O 0.70644 0.24945 0.52140
 O690 O 0.71188 0.27972 0.51592
 O691 O 0.77103 0.25250 0.45548
 O692 O 0.76962 0.22283 0.46168
 O693 O 0.79444 0.27211 0.49928
 O694 O 0.78742 0.26924 0.52951
 O695 O 0.75169 0.29586 0.47913
 O696 O 0.72168 0.28928 0.48255
 Zr697 Zr 0.74123 0.27171 0.47979
 O698 O 0.72511 0.25671 0.49412
 Zr699 Zr 0.77031 0.27131 0.50946
 O700 O 0.75513 0.25681 0.52525
 Zr701 Zr 0.77028 0.24214 0.47978
 O702 O 0.75555 0.22608 0.49449
 Zr703 Zr 0.72996 0.26079 0.51963
 O704 O 0.74509 0.27709 0.50538
 Zr705 Zr 0.73035 0.23133 0.49016
 O706 O 0.74510 0.24626 0.47416
 Zr707 Zr 0.75912 0.23140 0.52007
 O708 O 0.77564 0.24589 0.50535
 O709 O 0.76634 0.26739 0.48408
 O710 O 0.73397 0.23537 0.51567
 C711 C 0.76280 0.26434 0.44845
 C712 C 0.76300 0.30289 0.48805
 C713 C 0.80149 0.26367 0.48759
 C714 C 0.73574 0.23843 0.55063
 C715 C 0.69963 0.23762 0.51297
 C716 C 0.73656 0.20059 0.51316
 H717 H 0.71346 0.25948 0.49135
 H718 H 0.75831 0.21435 0.49180
 H719 H 0.77351 0.27456 0.47703
 H720 H 0.75750 0.25962 0.53708
 H721 H 0.73473 0.28941 0.53378
 H722 H 0.76285 0.28817 0.53598
 H723 H 0.74022 0.20611 0.47223
 H724 H 0.75880 0.22378 0.45586
 H725 H 0.70393 0.27922 0.52539
 H726 H 0.72281 0.29794 0.47374
 H727 H 0.77774 0.20683 0.51033
 H728 H 0.79339 0.22317 0.49138
 H729 H 0.72321 0.25946 0.45593
 H730 H 0.70578 0.24127 0.47162
 H731 H 0.79404 0.25903 0.52747
 H732 H 0.77638 0.24102 0.54586
 O733 O 0.75082 0.77255 -0.04614
 O734 O 0.72244 0.77054 -0.04093
 O735 O 0.77078 0.79528 -0.00186
 O736 O 0.77108 0.79021 0.02572
 O737 O 0.79393 0.75138 -0.02268
 O738 O 0.78756 0.72233 -0.02167
 O739 O 0.72728 0.75014 0.04204
 O740 O 0.73071 0.77854 0.03738
 O741 O 0.70585 0.72951 -0.00074
 O742 O 0.71185 0.73075 -0.03094
 O743 O 0.74768 0.70709 0.01986
 O744 O 0.77739 0.71261 0.01936
 O745 O 0.74709 0.72980 0.04219
 O746 O 0.77798 0.73128 0.03628
 O747 O 0.72798 0.70711 -0.00061
 O748 O 0.73007 0.71351 -0.03136
 O749 O 0.70589 0.74927 0.01981
 O750 O 0.71149 0.77950 0.01430
 O751 O 0.77043 0.75197 -0.04622
 O752 O 0.76887 0.72231 -0.04000
 O753 O 0.79403 0.77144 -0.00241
 O754 O 0.78698 0.76873 0.02779
 O755 O 0.75132 0.79542 -0.02261
 O756 O 0.72130 0.78901 -0.01909
 Zr757 Zr 0.74074 0.77132 -0.02187
 O758 O 0.72458 0.75641 -0.00750
 Zr759 Zr 0.76987 0.77083 0.00774
 O760 O 0.75465 0.75641 0.02358
 Zr761 Zr 0.76966 0.74162 -0.02191
 O762 O 0.75488 0.72565 -0.00715
 Zr763 Zr 0.72948 0.76048 0.01800
 O764 O 0.74466 0.77671 0.00371
 Zr765 Zr 0.72969 0.73100 -0.01143
 O766 O 0.74449 0.74585 -0.02748
 Zr767 Zr 0.75852 0.73097 0.01842
 O768 O 0.77507 0.74538 0.00365
 O769 O 0.76585 0.76690 -0.01763
 O770 O 0.73337 0.73504 0.01407
 C771 C 0.76221 0.76383 -0.05324
 C772 C 0.76269 0.80240 -0.01373
 C773 C 0.80103 0.76290 -0.01406
 C774 C 0.73523 0.73812 0.04901
 C775 C 0.69902 0.73746 0.01141
 C776 C 0.73591 0.70021 0.01147
 H777 H 0.71293 0.75923 -0.01025
 H778 H 0.75760 0.71391 -0.00984
 H779 H 0.77306 0.77401 -0.02469
 H780 H 0.75705 0.75922 0.03540
 H781 H 0.73441 0.78910 0.03210
 H782 H 0.76252 0.78777 0.03424
 H783 H 0.73946 0.70579 -0.02943
 H784 H 0.75805 0.72332 -0.04581
 H785 H 0.70354 0.77905 0.02378
 H786 H 0.72244 0.79761 -0.02795
 H787 H 0.77700 0.70628 0.00871
 H788 H 0.79262 0.72246 -0.01036
 H789 H 0.72260 0.75909 -0.04563
 H790 H 0.70507 0.74099 -0.02989
 H791 H 0.79350 0.75844 0.02580
 H792 H 0.77585 0.74057 0.04417
 O793 O 1.00132 0.20416 0.22871
 O794 O 0.97299 0.20942 0.23084
 O795 O 1.02118 0.24806 0.20543
 O796 O 1.02185 0.27556 0.21035
 O797 O 1.04462 0.22767 0.24962
 O798 O 1.03836 0.22901 0.27878
 O799 O 0.97813 0.29234 0.25063
 O800 O 0.98155 0.28748 0.22213
 O801 O 0.95675 0.25017 0.27172
 O802 O 0.96258 0.21997 0.27065
 O803 O 0.99882 0.27070 0.29382
 O804 O 1.02850 0.27002 0.28813
 O805 O 0.99802 0.29265 0.27099
 O806 O 1.02896 0.28675 0.26926
 O807 O 0.97897 0.25043 0.29405
 O808 O 0.98090 0.21966 0.28790
 O809 O 0.95678 0.27035 0.25164
 O810 O 0.96218 0.26450 0.22137
 O811 O 1.02103 0.20426 0.24928
 O812 O 1.01964 0.21075 0.27894
 O813 O 1.04468 0.24764 0.22932
 O814 O 1.03771 0.27781 0.23178
 O815 O 1.00164 0.22744 0.20555
 O816 O 0.97171 0.23099 0.21218
 Zr817 Zr 0.99131 0.22840 0.22980
 O818 O 0.97529 0.24297 0.24469
 Zr819 Zr 1.02056 0.25783 0.22991
 O820 O 1.00549 0.27385 0.24429
 Zr821 Zr 1.02039 0.22861 0.25946
 O822 O 1.00576 0.24355 0.27542
 Zr823 Zr 0.98029 0.26832 0.24035
 O824 O 0.99531 0.25382 0.22415
 Zr825 Zr 0.98052 0.23932 0.27019
 O826 O 0.99517 0.22310 0.25538
 Zr827 Zr 1.00948 0.26896 0.26983
 O828 O 1.02589 0.25402 0.25545
 O829 O 1.01647 0.23259 0.23407
 O830 O 0.98431 0.26466 0.26588
 C831 C 1.01272 0.19714 0.23749
 C832 C 1.01294 0.23622 0.19840
 C833 C 1.05170 0.23614 0.23799
 C834 C 0.98608 0.29936 0.26269
 C835 C 0.94995 0.26221 0.26363
 C836 C 0.98701 0.26252 0.30083
 H837 H 0.96361 0.24025 0.24193
 H838 H 1.00853 0.24099 0.28720
 H839 H 1.02361 0.22546 0.22695
 H840 H 1.00791 0.28560 0.24138
 H841 H 0.98501 0.28209 0.21151
 H842 H 1.01312 0.28394 0.21258
 H843 H 0.99030 0.22168 0.29564
 H844 H 1.00876 0.20505 0.27807
 H845 H 0.95432 0.27402 0.22173
 H846 H 0.97275 0.22207 0.20360
 H847 H 1.02809 0.25950 0.29459
 H848 H 1.04353 0.24024 0.27848
 H849 H 0.97315 0.20493 0.24240
 H850 H 0.95570 0.22099 0.26043
 H851 H 1.04427 0.27595 0.24211
 H852 H 1.02665 0.29466 0.26003
 O853 O 0.74933 1.04523 0.72772
 O854 O 0.77768 1.04009 0.72967
 O855 O 0.72945 1.00123 0.70452
 O856 O 0.72922 0.97368 0.70939
 O857 O 0.70619 1.02156 0.74871
 O858 O 0.71251 1.02034 0.77784
 O859 O 0.77293 0.95719 0.74951
 O860 O 0.76960 0.96208 0.72106
 O861 O 0.79424 0.99971 0.77066
 O862 O 0.78818 1.02984 0.76960
 O863 O 0.75249 0.97884 0.79282
 O864 O 0.72269 0.97945 0.78724
 O865 O 0.75308 0.95684 0.76988
 O866 O 0.72223 0.96264 0.76844
 O867 O 0.77213 0.99930 0.79301
 O868 O 0.76992 1.03006 0.78688
 O869 O 0.79427 0.97935 0.75070
 O870 O 0.78881 0.98511 0.72039
 O871 O 0.72967 1.04510 0.74833
 O872 O 0.73116 1.03867 0.77802
 O873 O 0.70617 1.00151 0.72843
 O874 O 0.71329 0.97140 0.73087
 O875 O 0.74889 1.02194 0.70459
 O876 O 0.77893 1.01840 0.71108
 Zr877 Zr 0.75942 1.02104 0.72878
 O878 O 0.77558 1.00664 0.74366
 Zr879 Zr 0.73035 0.99146 0.72897
 O880 O 0.74557 0.97559 0.74334
 Zr881 Zr 0.73045 1.02078 0.75851
 O882 O 0.74521 1.00597 0.77446
 Zr883 Zr 0.77074 0.98124 0.73935
 O884 O 0.75556 0.99558 0.72316
 Zr885 Zr 0.77039 1.01035 0.76916
 O886 O 0.75561 1.02643 0.75436
 Zr887 Zr 0.74162 0.98052 0.76889
 O888 O 0.72508 0.99532 0.75452
 O889 O 0.73432 1.01673 0.73313
 O890 O 0.76676 0.98496 0.76489
 C891 C 0.73791 1.05222 0.73651
 C892 C 0.73755 1.01313 0.69749
 C893 C 0.69912 1.01303 0.73708
 C894 C 0.76497 0.95013 0.76149
 C895 C 0.80108 0.98764 0.76265
 C896 C 0.76426 0.98713 0.79979
 H897 H 0.78723 1.00942 0.74089
 H898 H 0.74247 1.00855 0.78625
 H899 H 0.72711 1.02381 0.72604
 H900 H 0.74319 0.96382 0.74042
 H901 H 0.76595 0.96743 0.71050
 H902 H 0.73783 0.96521 0.71177
 H903 H 0.76059 1.02797 0.79466
 H904 H 0.74199 1.04446 0.77711
 H905 H 0.79677 0.97567 0.72081
 H906 H 0.77778 1.02724 0.70245
 H907 H 0.72318 0.98993 0.79380
 H908 H 0.70751 1.00904 0.77764
 H909 H 0.77760 1.04460 0.74123
 H910 H 0.79505 1.02884 0.75938
 H911 H 0.70676 0.97326 0.74121
 H912 H 0.72435 0.95490 0.75902
 O913 O 0.74938 0.54540 0.22719
 O914 O 0.77771 0.54018 0.22952
 O915 O 0.72965 0.50149 0.20376
 O916 O 0.72909 0.47397 0.20861
 O917 O 0.70599 0.52190 0.24780
 O918 O 0.71206 0.52063 0.27696
 O919 O 0.77249 0.45727 0.24916
 O920 O 0.76937 0.46216 0.22066
 O921 O 0.79370 0.49955 0.27059
 O922 O 0.78790 0.52970 0.26950
 O923 O 0.75156 0.47897 0.29227
 O924 O 0.72191 0.47961 0.28636
 O925 O 0.75248 0.45699 0.26938
 O926 O 0.72158 0.46287 0.26745
 O927 O 0.77134 0.49931 0.29269
 O928 O 0.76937 0.53010 0.28651
 O929 O 0.79382 0.47927 0.25056
 O930 O 0.78872 0.48514 0.22021
 O931 O 0.72953 0.54533 0.24761
 O932 O 0.73079 0.53889 0.27731
 O933 O 0.70606 0.50188 0.22749
 O934 O 0.71308 0.47171 0.22990
 O935 O 0.74919 0.52212 0.20404
 O936 O 0.77911 0.51855 0.21087
 Zr937 Zr 0.75941 0.52118 0.22835
 O938 O 0.77536 0.50668 0.24337
 Zr939 Zr 0.73020 0.49173 0.22822
 O940 O 0.74521 0.47576 0.24269
 Zr941 Zr 0.73016 0.52101 0.25780
 O942 O 0.74469 0.50610 0.27386
 Zr943 Zr 0.77043 0.48131 0.23897
 O944 O 0.75549 0.49575 0.22265
 Zr945 Zr 0.76995 0.51037 0.26883
 O946 O 0.75539 0.52655 0.25391
 Zr947 Zr 0.74104 0.48068 0.26821
 O948 O 0.72470 0.49558 0.25372
 O949 O 0.73424 0.51698 0.23244
 O950 O 0.76622 0.48501 0.26446
 C951 C 0.73789 0.55242 0.23587
 C952 C 0.73790 0.51334 0.19681
 C953 C 0.69898 0.51340 0.23612
 C954 C 0.76445 0.45025 0.26113
 C955 C 0.80055 0.48745 0.26262
 C956 C 0.76330 0.48720 0.29939
 H957 H 0.78705 0.50941 0.24072
 H958 H 0.74184 0.50868 0.28562
 H959 H 0.72712 0.52408 0.22528
 H960 H 0.74282 0.46400 0.23974
 H961 H 0.76597 0.46755 0.21003
 H962 H 0.73784 0.46563 0.21089
 H963 H 0.75998 0.52804 0.29423
 H964 H 0.74163 0.54467 0.27647
 H965 H 0.79661 0.47565 0.22066
 H966 H 0.77809 0.52743 0.20227
 H967 H 0.72226 0.49016 0.29282
 H968 H 0.70691 0.50939 0.27663
 H969 H 0.77747 0.54471 0.24107
 H970 H 0.79476 0.52876 0.25927
 H971 H 0.70644 0.47357 0.24018
 H972 H 0.72392 0.45499 0.25820
 O973 O 0.50083 0.20379 0.72932
 O974 O 0.47245 0.20895 0.73138
 O975 O 0.52066 0.24764 0.70609
 O976 O 0.52112 0.27518 0.71091
 O977 O 0.54397 0.22746 0.75038
 O978 O 0.53763 0.22879 0.77949
 O979 O 0.47733 0.29195 0.75095
 O980 O 0.48068 0.28693 0.72249
 O981 O 0.45599 0.24967 0.77219
 O982 O 0.46191 0.21954 0.77124
 O983 O 0.49781 0.27056 0.79427
 O984 O 0.52755 0.26986 0.78878
 O985 O 0.49720 0.29239 0.77133
 O986 O 0.52812 0.28648 0.76981
 O987 O 0.47809 0.25017 0.79452
 O988 O 0.48029 0.21931 0.78848
 O989 O 0.45601 0.26991 0.75218
 O990 O 0.46140 0.26391 0.72187
 O991 O 0.52049 0.20398 0.74995
 O992 O 0.51890 0.21052 0.77966
 O993 O 0.54402 0.24738 0.73003
 O994 O 0.53694 0.27756 0.73238
 O995 O 0.50118 0.22697 0.70617
 O996 O 0.47119 0.23051 0.71267
 Zr997 Zr 0.49072 0.22798 0.73037
 O998 O 0.47460 0.24251 0.74520
 Zr999 Zr 0.51987 0.25750 0.73052
 O1000 O 0.50469 0.27349 0.74481
 Zr1001 Zr 0.51970 0.22833 0.76013
 O1002 O 0.50500 0.24328 0.77602
 Zr1003 Zr 0.47951 0.26787 0.74082
 O1004 O 0.49464 0.25340 0.72469
 Zr1005 Zr 0.47980 0.23894 0.77072
 O1006 O 0.49452 0.22273 0.75597
 Zr1007 Zr 0.50865 0.26869 0.77037
 O1008 O 0.52515 0.25376 0.75608
 O1009 O 0.51584 0.23226 0.73473
 O1010 O 0.48350 0.26428 0.76636
 C1011 C 0.51226 0.19683 0.73812
 C1012 C 0.51252 0.23575 0.69906
 C1013 C 0.55105 0.23591 0.73874
 C1014 C 0.48528 0.29905 0.76295
 C1015 C 0.44919 0.26174 0.76417
 C1016 C 0.48599 0.26238 0.80126
 H1017 H 0.46294 0.23974 0.74243
 H1018 H 0.50774 0.24077 0.78782
 H1019 H 0.52304 0.22515 0.72765
 H1020 H 0.50708 0.28524 0.74186
 H1021 H 0.48423 0.28150 0.71192
 H1022 H 0.51235 0.28352 0.71309
 H1023 H 0.48956 0.22149 0.79632
 H1024 H 0.50808 0.20473 0.77869
 H1025 H 0.45348 0.27338 0.72225
 H1026 H 0.47229 0.22158 0.70410
 H1027 H 0.52709 0.25938 0.79532
 H1028 H 0.54266 0.24008 0.77930
 H1029 H 0.47264 0.20442 0.74291
 H1030 H 0.45518 0.22038 0.76090
 H1031 H 0.54352 0.27571 0.74269
 H1032 H 0.52590 0.29429 0.76049
 O1033 O 0.29488 0.75100 0.47766
 O1034 O 0.28926 0.72253 0.47973
 O1035 O 0.25155 0.77155 0.45438
 O1036 O 0.22419 0.77232 0.45917
 O1037 O 0.27207 0.79478 0.49860
 O1038 O 0.27068 0.78850 0.52774
 O1039 O 0.20694 0.72857 0.49938
 O1040 O 0.21179 0.73191 0.47094
 O1041 O 0.24873 0.70660 0.52046
 O1042 O 0.27870 0.71216 0.51958
 O1043 O 0.22872 0.74910 0.54265
 O1044 O 0.22978 0.77899 0.53699
 O1045 O 0.20687 0.74861 0.51972
 O1046 O 0.21312 0.77960 0.51815
 O1047 O 0.24865 0.72896 0.54287
 O1048 O 0.27931 0.73067 0.53674
 O1049 O 0.22863 0.70681 0.50038
 O1050 O 0.23445 0.71232 0.47009
 O1051 O 0.29503 0.77080 0.49828
 O1052 O 0.28854 0.76944 0.52795
 O1053 O 0.25221 0.79506 0.47826
 O1054 O 0.22214 0.78839 0.48068
 O1055 O 0.27180 0.75168 0.45449
 O1056 O 0.26783 0.72160 0.46094
 Zr1057 Zr 0.27066 0.74120 0.47868
 O1058 O 0.25600 0.72521 0.49352
 Zr1059 Zr 0.24177 0.77091 0.47880
 O1060 O 0.22567 0.75588 0.49313
 Zr1061 Zr 0.27082 0.77041 0.50841
 O1062 O 0.25579 0.75584 0.52431
 Zr1063 Zr 0.23086 0.73048 0.48916
 O1064 O 0.24543 0.74547 0.47300
 Zr1065 Zr 0.25971 0.73043 0.51903
 O1066 O 0.27600 0.74501 0.50427
 Zr1067 Zr 0.23058 0.75984 0.51869
 O1068 O 0.24563 0.77621 0.50436
 O1069 O 0.26681 0.76653 0.48302
 O1070 O 0.23455 0.73447 0.51471
 C1071 C 0.30199 0.76239 0.48647
 C1072 C 0.26326 0.76320 0.44737
 C1073 C 0.26376 0.80198 0.48694
 C1074 C 0.20004 0.73669 0.51138
 C1075 C 0.23670 0.69985 0.51234
 C1076 C 0.23673 0.73715 0.54965
 H1077 H 0.25858 0.71345 0.49074
 H1078 H 0.25838 0.75859 0.53611
 H1079 H 0.27399 0.77365 0.47594
 H1080 H 0.21402 0.75844 0.49019
 H1081 H 0.21714 0.73554 0.46038
 H1082 H 0.21558 0.76384 0.46154
 H1083 H 0.27733 0.74005 0.54457
 H1084 H 0.29413 0.75847 0.52702
 H1085 H 0.22494 0.70444 0.47045
 H1086 H 0.27676 0.72256 0.45243
 H1087 H 0.24019 0.77839 0.54353
 H1088 H 0.25956 0.79376 0.52748
 H1089 H 0.29382 0.72271 0.49126
 H1090 H 0.27776 0.70540 0.50923
 H1091 H 0.22410 0.79498 0.49101
 H1092 H 0.20536 0.77749 0.50876
 O1093 O 0.20437 0.22777 1.00197
 O1094 O 0.20968 0.22979 0.97342
 O1095 O 0.24800 0.20473 1.02224
 O1096 O 0.27537 0.20966 1.02274
 O1097 O 0.22760 0.24872 1.04573
 O1098 O 0.22882 0.27774 1.03946
 O1099 O 0.29203 0.24984 0.97878
 O1100 O 0.28726 0.22144 0.98211
 O1101 O 0.24998 0.27076 0.95715
 O1102 O 0.22004 0.26965 0.96293
 O1103 O 0.27039 0.29282 0.99949
 O1104 O 0.26956 0.28723 1.02953
 O1105 O 0.29223 0.27011 0.99890
 O1106 O 0.28627 0.26849 1.03004
 O1107 O 0.25020 0.29299 0.97952
 O1108 O 0.21953 0.28671 0.98157
 O1109 O 0.27018 0.25086 0.95717
 O1110 O 0.26444 0.22060 0.96260
 O1111 O 0.20435 0.24830 1.02187
 O1112 O 0.21077 0.27792 1.02050
 O1113 O 0.24753 0.22854 1.04582
 O1114 O 0.27752 0.23108 1.03885
 O1115 O 0.22753 0.20475 1.00250
 O1116 O 0.23121 0.21126 0.97225
 Zr1117 Zr 0.22850 0.22888 0.99196
 O1118 O 0.24293 0.24377 0.97581
 Zr1119 Zr 0.25770 0.22913 1.02150
 O1120 O 0.27359 0.24351 1.00631
 Zr1121 Zr 0.22853 0.25850 1.02129
 O1122 O 0.24336 0.27446 1.00656
 Zr1123 Zr 0.26815 0.23954 0.98087
 O1124 O 0.25378 0.22335 0.99602
 Zr1125 Zr 0.23920 0.26918 0.98111
 O1126 O 0.22311 0.25437 0.99585
 Zr1127 Zr 0.26863 0.26896 1.01035
 O1128 O 0.25380 0.25458 1.02688
 O1129 O 0.23259 0.23321 1.01734
 O1130 O 0.26440 0.26498 0.98495
 C1131 C 0.19732 0.23653 1.01345
 C1132 C 0.23622 0.19769 1.01398
 C1133 C 0.23605 0.23715 1.05288
 C1134 C 0.29896 0.26185 0.98686
 C1135 C 0.26203 0.26280 0.95029
 C1136 C 0.26225 0.29976 0.98756
 H1137 H 0.24025 0.24101 0.96403
 H1138 H 0.24078 0.28620 1.00934
 H1139 H 0.22550 0.22612 1.02454
 H1140 H 0.28528 0.24064 1.00877
 H1141 H 0.28195 0.21086 0.98570
 H1142 H 0.28382 0.21203 1.01409
 H1143 H 0.22162 0.29458 0.99091
 H1144 H 0.20503 0.27697 1.00956
 H1145 H 0.27387 0.22104 0.95463
 H1146 H 0.22239 0.20266 0.97332
 H1147 H 0.25918 0.29380 1.02893
 H1148 H 0.24004 0.27762 1.04453
 H1149 H 0.20521 0.24130 0.97352
 H1150 H 0.22101 0.25940 0.95607
 H1151 H 0.27558 0.24135 1.04550
 H1152 H 0.29408 0.25921 1.02783
 C1153 C 0.30264 0.34466 0.80204
 C1154 C 0.29740 0.35753 0.79627
 C1155 C 0.29146 0.37314 0.78964
 C1156 C 0.30239 0.38668 0.78808
 C1157 C 0.29663 0.40202 0.78210
 C1158 C 0.27991 0.40392 0.77764
 C1159 C 0.26898 0.39036 0.77908
 C1160 C 0.27474 0.37499 0.78507
 C1161 C 0.27398 0.41993 0.77203
 C1162 C 0.26935 0.43355 0.76762
 H1163 H 0.31532 0.38540 0.79161
 H1164 H 0.30518 0.41244 0.78109
 H1165 H 0.25601 0.39171 0.77572
 H1166 H 0.26617 0.36461 0.78627
 C1167 C 0.30241 -0.15600 0.30014
 C1168 C 0.29704 -0.14296 0.29489
 C1169 C 0.29092 -0.12717 0.28891
 C1170 C 0.30025 -0.11264 0.29162
 C1171 C 0.29431 -0.09721 0.28608
 C1172 C 0.27900 -0.09622 0.27780
 C1173 C 0.26966 -0.11075 0.27504
 C1174 C 0.27561 -0.12621 0.28059
 C1175 C 0.27294 -0.08024 0.27230
 C1176 C 0.26822 -0.06664 0.26794
 H1177 H 0.31209 -0.11323 0.29807
 H1178 H 0.30163 -0.08605 0.28830
 H1179 H 0.25779 -0.11012 0.26866
 H1180 H 0.26828 -0.13737 0.27846
 C1181 C 0.80128 0.84333 0.79868
 C1182 C 0.79632 0.85642 0.79317
 C1183 C 0.79073 0.87227 0.78685
 C1184 C 0.80218 0.88523 0.78442
 C1185 C 0.79677 0.90083 0.77877
 C1186 C 0.77989 0.90355 0.77553
 C1187 C 0.76844 0.89056 0.77784
 C1188 C 0.77385 0.87494 0.78349
 C1189 C 0.77434 0.91980 0.77027
 C1190 C 0.76993 0.93357 0.76611
 H1191 H 0.81525 0.88332 0.78702
 H1192 H 0.80572 0.91081 0.77709
 H1193 H 0.75535 0.89254 0.77541
 H1194 H 0.76489 0.86501 0.78536
 C1195 C 0.44717 0.90711 0.29893
 C1196 C 0.45257 0.89428 0.29319
 C1197 C 0.45881 0.87874 0.28664
 C1198 C 0.47574 0.87489 0.28798
 C1199 C 0.48165 0.85947 0.28226
 C1200 C 0.47066 0.84785 0.27518
 C1201 C 0.45377 0.85177 0.27370
 C1202 C 0.44786 0.86718 0.27941
 C1203 C 0.47655 0.83169 0.26997
 C1204 C 0.48120 0.81797 0.26587
 H1205 H 0.48431 0.88371 0.29362
 H1206 H 0.49472 0.85654 0.28354
 H1207 H 0.44514 0.84285 0.26832
 H1208 H 0.43474 0.87000 0.27838
 C1209 C -0.05015 0.90828 0.80035
 C1210 C -0.04432 0.89569 0.79451
 C1211 C -0.03765 0.88038 0.78786
 C1212 C -0.02337 0.87333 0.79497
 C1213 C -0.01752 0.85789 0.78924
 C1214 C -0.02592 0.84946 0.77637
 C1215 C -0.04004 0.85664 0.76909
 C1216 C -0.04590 0.87207 0.77482
 C1217 C -0.02061 0.83305 0.77130
 C1218 C -0.01652 0.81910 0.76738
 H1219 H -0.01695 0.87961 0.80512
 H1220 H -0.00664 0.85241 0.79503
 H1221 H -0.04669 0.85017 0.75920
 H1222 H -0.05700 0.87736 0.76929
 C1223 C -0.05134 -0.15741 -0.04996
 C1224 C -0.04629 -0.14430 -0.04452
 C1225 C -0.04058 -0.12841 -0.03829
 C1226 C -0.02566 -0.12724 -0.02931
 C1227 C -0.02010 -0.11170 -0.02351
 C1228 C -0.02945 -0.09728 -0.02667
 C1229 C -0.04439 -0.09848 -0.03561
 C1230 C -0.04994 -0.11400 -0.04140
 C1231 C -0.02371 -0.08120 -0.02102
 C1232 C -0.01918 -0.06753 -0.01658
 H1233 H -0.01832 -0.13831 -0.02685
 H1234 H -0.00851 -0.11091 -0.01663
 H1235 H -0.05170 -0.08741 -0.03815
 H1236 H -0.06148 -0.11475 -0.04835
 C1237 C -0.05105 0.34360 0.44893
 C1238 C -0.04557 0.35662 0.45419
 C1239 C -0.03926 0.37238 0.46013
 C1240 C -0.03711 0.37519 0.47734
 C1241 C -0.03147 0.39074 0.48306
 C1242 C -0.02795 0.40350 0.47159
 C1243 C -0.02999 0.40062 0.45438
 C1244 C -0.03562 0.38510 0.44867
 C1245 C -0.02262 0.41967 0.47738
 C1246 C -0.01833 0.43340 0.48187
 H1247 H -0.03992 0.36545 0.48631
 H1248 H -0.02997 0.39284 0.49639
 H1249 H -0.02734 0.41042 0.44541
 H1250 H -0.03727 0.38307 0.43535
 C1251 C 0.45011 -0.15882 0.45147
 C1252 C 0.45546 -0.14604 0.45739
 C1253 C 0.46151 -0.13050 0.46412
 C1254 C 0.45042 -0.11933 0.47169
 C1255 C 0.45604 -0.10377 0.47734
 C1256 C 0.47276 -0.09933 0.47545
 C1257 C 0.48392 -0.11060 0.46812
 C1258 C 0.47830 -0.12616 0.46246
 C1259 C 0.47822 -0.08289 0.48027
 C1260 C 0.48242 -0.06890 0.48395
 H1261 H 0.43740 -0.12252 0.47296
 H1262 H 0.44729 -0.09511 0.48291
 H1263 H 0.49686 -0.10724 0.46652
 H1264 H 0.48696 -0.13469 0.45656
 C1265 C 0.44619 0.34309 -0.05013
 C1266 C 0.45163 0.35588 -0.04429
 C1267 C 0.45784 0.37138 -0.03759
 C1268 C 0.44669 0.38401 -0.03299
 C1269 C 0.45264 0.39934 -0.02708
 C1270 C 0.46977 0.40213 -0.02573
 C1271 C 0.48093 0.38946 -0.03019
 C1272 C 0.47498 0.37411 -0.03611
 C1273 C 0.47579 0.41818 -0.02029
 C1274 C 0.48050 0.43184 -0.01601
 H1275 H 0.43342 0.38206 -0.03414
 H1276 H 0.44389 0.40907 -0.02373
 H1277 H 0.49421 0.39151 -0.02925
 H1278 H 0.48371 0.36445 -0.03969
 C1279 C 0.80059 0.40885 0.45040
 C1280 C 0.79499 0.39624 0.45639
 C1281 C 0.78863 0.38090 0.46324
 C1282 C 0.79871 0.37106 0.47359
 C1283 C 0.79294 0.35565 0.47943
 C1284 C 0.77706 0.35001 0.47496
 C1285 C 0.76688 0.35996 0.46483
 C1286 C 0.77265 0.37538 0.45898
 C1287 C 0.77164 0.33365 0.48003
 C1288 C 0.76747 0.31972 0.48390
 H1289 H 0.81112 0.37517 0.47689
 H1290 H 0.80096 0.34801 0.48717
 H1291 H 0.75462 0.35567 0.46122
 H1292 H 0.76478 0.38285 0.45092
 C1293 C 0.80190 0.90798 -0.05089
 C1294 C 0.79591 0.89545 -0.04509
 C1295 C 0.78903 0.88021 -0.03850
 C1296 C 0.79650 0.87240 -0.02472
 C1297 C 0.79045 0.85705 -0.01898
 C1298 C 0.77690 0.84946 -0.02698
 C1299 C 0.76927 0.85740 -0.04059
 C1300 C 0.77532 0.87275 -0.04633
 C1301 C 0.77145 0.83312 -0.02186
 C1302 C 0.76724 0.81921 -0.01793
 H1303 H 0.80716 0.87802 -0.01861
 H1304 H 0.79651 0.85097 -0.00851
 H1305 H 0.75885 0.85160 -0.04694
 H1306 H 0.76950 0.87864 -0.05705
 C1307 C 0.80095 0.30146 0.34219
 C1308 C 0.79506 0.29579 0.35485
 C1309 C 0.78834 0.28929 0.37023
 C1310 C 0.79554 0.27524 0.37776
 C1311 C 0.78968 0.26954 0.39323
 C1312 C 0.77659 0.27786 0.40123
 C1313 C 0.76922 0.29175 0.39358
 C1314 C 0.77508 0.29745 0.37812
 C1315 C 0.77132 0.27270 0.41766
 C1316 C 0.76723 0.26870 0.43162
 H1317 H 0.80586 0.26889 0.37181
 H1318 H 0.79553 0.25885 0.39907
 H1319 H 0.75915 0.29833 0.39971
 H1320 H 0.76948 0.30837 0.37245
 C1321 C 0.79968 0.80045 -0.15993
 C1322 C 0.79383 0.79488 -0.14720
 C1323 C 0.78720 0.78851 -0.13173
 C1324 C 0.77464 0.79726 -0.12334
 C1325 C 0.76891 0.79164 -0.10780
 C1326 C 0.77572 0.77724 -0.10058
 C1327 C 0.78811 0.76835 -0.10908
 C1328 C 0.79384 0.77397 -0.12463
 C1329 C 0.77059 0.77210 -0.08410
 C1330 C 0.76659 0.76813 -0.07011
 H1331 H 0.76949 0.80857 -0.12868
 H1332 H 0.75939 0.79866 -0.10129
 H1333 H 0.79352 0.75725 -0.10357
 H1334 H 0.80362 0.76716 -0.13097
 C1335 C 0.30297 0.44758 0.90614
 C1336 C 0.29763 0.45317 0.89320
 C1337 C 0.29155 0.45956 0.87750
 C1338 C 0.30063 0.45679 0.86280
 C1339 C 0.29471 0.46272 0.84746
 C1340 C 0.27965 0.47145 0.84673
 C1341 C 0.27057 0.47428 0.86144
 C1342 C 0.27651 0.46834 0.87681
 C1343 C 0.27356 0.47729 0.83083
 C1344 C 0.26882 0.48189 0.81727
 H1345 H 0.31226 0.44999 0.86319
 H1346 H 0.30182 0.46044 0.83616
 H1347 H 0.25890 0.48100 0.86101
 H1348 H 0.26937 0.47053 0.88810
 C1349 C 0.30163 -0.04941 0.40696
 C1350 C 0.29643 -0.04411 0.39383
 C1351 C 0.29051 -0.03803 0.37797
 C1352 C 0.27358 -0.03474 0.37559
 C1353 C 0.26784 -0.02925 0.35998
 C1354 C 0.27902 -0.02704 0.34672
 C1355 C 0.29595 -0.03024 0.34913
 C1356 C 0.30168 -0.03572 0.36472
 C1357 C 0.27315 -0.02181 0.33052
 C1358 C 0.26851 -0.01761 0.31680
 H1359 H 0.26483 -0.03652 0.38574
 H1360 H 0.25471 -0.02685 0.35823
 H1361 H 0.30469 -0.02862 0.33894
 H1362 H 0.31479 -0.03828 0.36640
 C1363 C -0.05185 -0.05083 -0.15620
 C1364 C -0.04663 -0.04557 -0.14305
 C1365 C -0.04071 -0.03955 -0.12712
 C1366 C -0.05053 -0.04161 -0.11279
 C1367 C -0.04479 -0.03603 -0.09723
 C1368 C -0.02920 -0.02835 -0.09591
 C1369 C -0.01938 -0.02623 -0.11025
 C1370 C -0.02513 -0.03182 -0.12584
 C1371 C -0.02331 -0.02289 -0.07978
 C1372 C -0.01870 -0.01856 -0.06607
 H1373 H -0.06259 -0.04758 -0.11364
 H1374 H -0.05247 -0.03775 -0.08622
 H1375 H -0.00730 -0.02032 -0.10936
 H1376 H -0.01743 -0.03018 -0.13685
 C1377 C -0.05313 0.44648 0.34439
 C1378 C -0.04746 0.45197 0.35726
 C1379 C -0.04093 0.45827 0.37284
 C1380 C -0.03684 0.47521 0.37454
 C1381 C -0.03090 0.48132 0.38986
 C1382 C -0.02903 0.47050 0.40352
 C1383 C -0.03303 0.45355 0.40178
 C1384 C -0.03897 0.44745 0.38648
 C1385 C -0.02333 0.47673 0.41944
 C1386 C -0.01876 0.48157 0.43299
 H1387 H -0.03835 0.48369 0.36408
 H1388 H -0.02788 0.49446 0.39108
 H1389 H -0.03168 0.44508 0.41227
 H1390 H -0.04213 0.43433 0.38532
 C1391 C 0.44887 -0.05106 0.34150
 C1392 C 0.45475 -0.04555 0.35426
 C1393 C 0.46148 -0.03922 0.36974
 C1394 C 0.45515 -0.02448 0.37676
 C1395 C 0.46105 -0.01883 0.39226
 C1396 C 0.47330 -0.02788 0.40079
 C1397 C 0.47979 -0.04249 0.39366
 C1398 C 0.47389 -0.04814 0.37816
 C1399 C 0.47863 -0.02263 0.41720
 C1400 C 0.48277 -0.01851 0.43113
 H1401 H 0.44550 -0.01753 0.37039
 H1402 H 0.45588 -0.00757 0.39770
 H1403 H 0.48920 -0.04963 0.40019
 H1404 H 0.47881 -0.05959 0.37288
 C1405 C 0.44770 0.44637 -0.15581
 C1406 C 0.45343 0.45157 -0.14285
 C1407 C 0.45999 0.45747 -0.12714
 C1408 C 0.46076 0.44663 -0.11340
 C1409 C 0.46666 0.45237 -0.09795
 C1410 C 0.47182 0.46900 -0.09616
 C1411 C 0.47118 0.47983 -0.10993
 C1412 C 0.46527 0.47407 -0.12540
 C1413 C 0.47738 0.47493 -0.08007
 C1414 C 0.48175 0.47961 -0.06639
 H1415 H 0.45668 0.43377 -0.11459
 H1416 H 0.46706 0.44390 -0.08738
 H1417 H 0.47510 0.49272 -0.10867
 H1418 H 0.46470 0.48257 -0.13594
 C1419 C 0.45008 0.80112 0.40723
 C1420 C 0.45537 0.79625 0.39397
 C1421 C 0.46143 0.79072 0.37794
 C1422 C 0.45998 0.80117 0.36396
 C1423 C 0.46559 0.79577 0.34829
 C1424 C 0.47268 0.77990 0.34652
 C1425 C 0.47420 0.76945 0.36052
 C1426 C 0.46859 0.77485 0.37621
 C1427 C 0.47813 0.77432 0.33029
 C1428 C 0.48244 0.76988 0.31653
 H1429 H 0.45444 0.81344 0.36515
 H1430 H 0.46432 0.80393 0.33754
 H1431 H 0.47964 0.75713 0.35928
 H1432 H 0.46974 0.76666 0.38694
 C1433 C -0.04966 0.80035 0.90907
 C1434 C -0.04382 0.79475 0.89634
 C1435 C -0.03713 0.78835 0.88089
 C1436 C -0.02427 0.79690 0.87275
 C1437 C -0.01842 0.79124 0.85725
 C1438 C -0.02541 0.77700 0.84982
 C1439 C -0.03811 0.76831 0.85807
 C1440 C -0.04396 0.77397 0.87357
 C1441 C -0.02017 0.77185 0.83336
 C1442 C -0.01611 0.76787 0.81938
 H1443 H -0.01896 0.80808 0.87825
 H1444 H -0.00867 0.79812 0.85093
 H1445 H -0.04367 0.75735 0.85239
 H1446 H -0.05396 0.76731 0.87971
 C1447 C 0.34461 0.80228 0.29964
 C1448 C 0.35757 0.79700 0.29425
 C1449 C 0.37324 0.79097 0.28805
 C1450 C 0.37635 0.77377 0.28709
 C1451 C 0.39179 0.76800 0.28151
 C1452 C 0.40417 0.77941 0.27687
 C1453 C 0.40101 0.79660 0.27773
 C1454 C 0.38559 0.80236 0.28331
 C1455 C 0.42024 0.77359 0.27159
 C1456 C 0.43387 0.76904 0.26734
 H1457 H 0.36690 0.76485 0.29077
 H1458 H 0.39412 0.75468 0.28093
 H1459 H 0.41051 0.80553 0.27423
 H1460 H 0.38333 0.81569 0.28405
 C1461 C -0.15696 0.80007 0.79947
 C1462 C -0.14393 0.79466 0.79441
 C1463 C -0.12807 0.78861 0.78873
 C1464 C -0.12711 0.77606 0.77650
 C1465 C -0.11159 0.77034 0.77106
 C1466 C -0.09702 0.77716 0.77784
 C1467 C -0.09802 0.78969 0.79006
 C1468 C -0.11349 0.79540 0.79550
 C1469 C -0.08097 0.77151 0.77232
 C1470 C -0.06724 0.76726 0.76809
 H1471 H -0.13832 0.77073 0.77119
 H1472 H -0.11095 0.76065 0.76158
 H1473 H -0.08683 0.79506 0.79538
 H1474 H -0.11410 0.80511 0.80495
 C1475 C 0.90720 0.30136 0.45033
 C1476 C 0.89444 0.29594 0.45609
 C1477 C 0.87894 0.28987 0.46268
 C1478 C 0.87585 0.27267 0.46370
 C1479 C 0.86045 0.26689 0.46943
 C1480 C 0.84811 0.27830 0.47415
 C1481 C 0.85129 0.29549 0.47329
 C1482 C 0.86666 0.30126 0.46758
 C1483 C 0.83196 0.27253 0.47927
 C1484 C 0.81818 0.26818 0.48325
 H1485 H 0.88524 0.26376 0.45989
 H1486 H 0.85809 0.25357 0.46997
 H1487 H 0.84182 0.30442 0.47684
 H1488 H 0.86890 0.31458 0.46678
 C1489 C 0.90761 0.79963 -0.04959
 C1490 C 0.89483 0.79393 -0.04417
 C1491 C 0.87934 0.78743 -0.03799
 C1492 C 0.87207 0.79430 -0.02360
 C1493 C 0.85655 0.78864 -0.01815
 C1494 C 0.84822 0.77607 -0.02707
 C1495 C 0.85559 0.76903 -0.04133
 C1496 C 0.87112 0.77469 -0.04677
 C1497 C 0.83179 0.77100 -0.02211
 C1498 C 0.81784 0.76709 -0.01826
 H1499 H 0.87828 0.80421 -0.01676
 H1500 H 0.85092 0.79423 -0.00717
 H1501 H 0.84923 0.75937 -0.04838
 H1502 H 0.87658 0.76935 -0.05796
 C1503 C -0.15533 -0.05199 -0.05176
 C1504 C -0.14236 -0.04673 -0.04631
 C1505 C -0.12667 -0.04069 -0.04011
 C1506 C -0.12593 -0.03107 -0.02544
 C1507 C -0.11060 -0.02533 -0.01946
 C1508 C -0.09596 -0.02922 -0.02813
 C1509 C -0.09673 -0.03882 -0.04280
 C1510 C -0.11203 -0.04454 -0.04877
 C1511 C -0.08012 -0.02348 -0.02205
 C1512 C -0.06663 -0.01893 -0.01731
 H1513 H -0.13717 -0.02802 -0.01864
 H1514 H -0.11014 -0.01792 -0.00810
 H1515 H -0.08549 -0.04190 -0.04960
 H1516 H -0.11245 -0.05199 -0.06012
 C1517 C -0.15619 0.45074 0.44854
 C1518 C -0.14322 0.45623 0.45375
 C1519 C -0.12753 0.46253 0.45966
 C1520 C -0.11495 0.46635 0.44817
 C1521 C -0.09950 0.47197 0.45385
 C1522 C -0.09654 0.47380 0.47105
 C1523 C -0.10915 0.47010 0.48257
 C1524 C -0.12462 0.46447 0.47688
 C1525 C -0.08042 0.47908 0.47681
 C1526 C -0.06675 0.48329 0.48130
 H1527 H -0.11705 0.46484 0.43484
 H1528 H -0.08982 0.47475 0.44484
 H1529 H -0.10697 0.47143 0.49590
 H1530 H -0.13425 0.46150 0.48588
 C1531 C 0.34236 -0.04897 0.45031
 C1532 C 0.35507 -0.04334 0.45600
 C1533 C 0.37049 -0.03695 0.46251
 C1534 C 0.37776 -0.02273 0.45536
 C1535 C 0.39324 -0.01711 0.46102
 C1536 C 0.40149 -0.02568 0.47386
 C1537 C 0.39410 -0.03974 0.48118
 C1538 C 0.37863 -0.04537 0.47551
 C1539 C 0.41789 -0.02059 0.47893
 C1540 C 0.43182 -0.01667 0.48284
 H1541 H 0.37161 -0.01618 0.44524
 H1542 H 0.39888 -0.00628 0.45522
 H1543 H 0.40042 -0.04652 0.49104
 H1544 H 0.37316 -0.05642 0.48107
 C1545 C 0.34448 0.44649 -0.05125
 C1546 C 0.35734 0.45181 -0.04563
 C1547 C 0.37293 0.45787 -0.03920
 C1548 C 0.38620 0.44678 -0.03703
 C1549 C 0.40153 0.45264 -0.03124
 C1550 C 0.40367 0.46964 -0.02760
 C1551 C 0.39038 0.48073 -0.02967
 C1552 C 0.37503 0.47486 -0.03546
 C1553 C 0.41962 0.47564 -0.02209
 C1554 C 0.43317 0.48033 -0.01769
 H1555 H 0.38473 0.43363 -0.03992
 H1556 H 0.41174 0.44396 -0.02973
 H1557 H 0.39191 0.49391 -0.02693
 H1558 H 0.36486 0.48355 -0.03714
 C1559 C 0.40501 0.44780 0.80277
 C1560 C 0.39215 0.45345 0.79752
 C1561 C 0.37655 0.45986 0.79151
 C1562 C 0.36192 0.45639 0.80034
 C1563 C 0.34668 0.46233 0.79445
 C1564 C 0.34599 0.47177 0.77970
 C1565 C 0.36062 0.47531 0.77088
 C1566 C 0.37588 0.46937 0.77678
 C1567 C 0.33019 0.47760 0.77363
 C1568 C 0.31673 0.48219 0.76889
 H1569 H 0.36229 0.44904 0.81172
 H1570 H 0.33544 0.45950 0.80135
 H1571 H 0.36021 0.48259 0.75946
 H1572 H 0.38712 0.47211 0.76985
 C1573 C 0.40531 -0.05076 0.29979
 C1574 C 0.39243 -0.04505 0.29465
 C1575 C 0.37684 -0.03843 0.28885
 C1576 C 0.37338 -0.03759 0.27166
 C1577 C 0.35797 -0.03166 0.26613
 C1578 C 0.34598 -0.02654 0.27778
 C1579 C 0.34951 -0.02726 0.29496
 C1580 C 0.36490 -0.03318 0.30048
 C1581 C 0.32987 -0.02108 0.27223
 C1582 C 0.31619 -0.01678 0.26786
 H1583 H 0.38250 -0.04165 0.26256
 H1584 H 0.35535 -0.03121 0.25282
 H1585 H 0.34031 -0.02340 0.30408
 H1586 H 0.36742 -0.03382 0.31380
 C1587 C 0.09206 0.54923 0.70213
 C1588 C 0.10478 0.54364 0.70779
 C1589 C 0.12023 0.53728 0.71422
 C1590 C 0.12787 0.52358 0.70647
 C1591 C 0.14340 0.51805 0.71203
 C1592 C 0.15136 0.52620 0.72535
 C1593 C 0.14361 0.53975 0.73326
 C1594 C 0.12807 0.54528 0.72771
 C1595 C 0.16782 0.52124 0.73031
 C1596 C 0.18179 0.51738 0.73411
 H1597 H 0.12195 0.51736 0.69597
 H1598 H 0.14932 0.50762 0.70576
 H1599 H 0.14969 0.54620 0.74352
 H1600 H 0.12232 0.55594 0.73373
 C1601 C 0.09017 0.04715 0.20276
 C1602 C 0.10302 0.04178 0.20832
 C1603 C 0.11863 0.03569 0.21463
 C1604 C 0.12674 0.04421 0.22763
 C1605 C 0.14241 0.03894 0.23305
 C1606 C 0.15003 0.02513 0.22548
 C1607 C 0.14181 0.01645 0.21266
 C1608 C 0.12615 0.02172 0.20724
 C1609 C 0.16659 0.02038 0.23030
 C1610 C 0.18063 0.01668 0.23400
 H1611 H 0.12108 0.05508 0.23338
 H1612 H 0.14868 0.04579 0.24292
 H1613 H 0.14763 0.00581 0.20666
 H1614 H 0.12003 0.01510 0.19712
 C1615 C 0.65848 0.70178 0.20086
 C1616 C 0.64579 0.70726 0.20669
 C1617 C 0.63038 0.71351 0.21333
 C1618 C 0.62144 0.70403 0.22501
 C1619 C 0.60598 0.70959 0.23071
 C1620 C 0.59939 0.72466 0.22476
 C1621 C 0.60844 0.73426 0.21327
 C1622 C 0.62391 0.72869 0.20757
 C1623 C 0.58299 0.72979 0.22976
 C1624 C 0.56906 0.73377 0.23358
 H1625 H 0.62629 0.69223 0.22948
 H1626 H 0.59904 0.70202 0.23951
 H1627 H 0.60342 0.74587 0.20852
 H1628 H 0.63067 0.73608 0.19848
 C1629 C 0.15661 0.69969 0.69898
 C1630 C 0.14360 0.70494 0.70425
 C1631 C 0.12783 0.71095 0.71022
 C1632 C 0.11343 0.70792 0.70083
 C1633 C 0.09804 0.71355 0.70662
 C1634 C 0.09697 0.72224 0.72183
 C1635 C 0.11136 0.72531 0.73122
 C1636 C 0.12678 0.71967 0.72543
 C1637 C 0.08104 0.72783 0.72775
 C1638 C 0.06750 0.73229 0.73237
 H1639 H 0.11410 0.70117 0.68907
 H1640 H 0.08699 0.71109 0.69926
 H1641 H 0.11066 0.73200 0.74301
 H1642 H 0.13784 0.72206 0.73280
 C1643 C 0.59416 0.19925 0.55067
 C1644 C 0.60717 0.20455 0.54540
 C1645 C 0.62292 0.21049 0.53932
 C1646 C 0.63725 0.20094 0.54194
 C1647 C 0.65263 0.20667 0.53622
 C1648 C 0.65376 0.22199 0.52784
 C1649 C 0.63943 0.23155 0.52516
 C1650 C 0.62402 0.22581 0.53089
 C1651 C 0.66970 0.22789 0.52224
 C1652 C 0.68326 0.23251 0.51783
 H1653 H 0.63653 0.18908 0.54844
 H1654 H 0.66363 0.19919 0.53837
 H1655 H 0.64018 0.24343 0.51871
 H1656 H 0.61302 0.23330 0.52880
 C1657 C 0.59292 0.69986 0.04819
 C1658 C 0.60595 0.70504 0.04285
 C1659 C 0.62171 0.71092 0.03672
 C1660 C 0.63452 0.69950 0.03359
 C1661 C 0.65001 0.70515 0.02808
 C1662 C 0.65279 0.72226 0.02567
 C1663 C 0.63996 0.73370 0.02871
 C1664 C 0.62445 0.72803 0.03423
 C1665 C 0.66891 0.72800 0.02041
 C1666 C 0.68257 0.73250 0.01619
 H1667 H 0.63256 0.68625 0.03552
 H1668 H 0.65985 0.69621 0.02581
 H1669 H 0.64199 0.74696 0.02693
 H1670 H 0.61465 0.73698 0.03666
 C1671 C 0.15898 0.04728 0.04787
 C1672 C 0.14616 0.04184 0.04228
 C1673 C 0.13056 0.03563 0.03601
 C1674 C 0.12319 0.02158 0.04338
 C1675 C 0.10752 0.01619 0.03804
 C1676 C 0.09917 0.02481 0.02531
 C1677 C 0.10666 0.03870 0.01776
 C1678 C 0.12232 0.04410 0.02310
 C1679 C 0.08260 0.01994 0.02060
 C1680 C 0.06856 0.01616 0.01696
 H1681 H 0.12941 0.01500 0.05344
 H1682 H 0.10181 0.00549 0.04403
 H1683 H 0.10027 0.04551 0.00796
 H1684 H 0.12787 0.05503 0.01737
 C1685 C 0.15806 0.54951 0.54862
 C1686 C 0.14533 0.54390 0.54296
 C1687 C 0.12988 0.53755 0.53648
 C1688 C 0.12255 0.52340 0.54368
 C1689 C 0.10703 0.51785 0.53806
 C1690 C 0.09879 0.52643 0.52523
 C1691 C 0.10623 0.54044 0.51787
 C1692 C 0.12175 0.54599 0.52348
 C1693 C 0.08235 0.52141 0.52022
 C1694 C 0.06840 0.51753 0.51635
 H1695 H 0.12869 0.51683 0.55380
 H1696 H 0.10134 0.50706 0.54390
 H1697 H 0.09992 0.54723 0.50800
 H1698 H 0.12727 0.55701 0.51790
 C1699 C 0.65607 0.05233 0.54967
 C1700 C 0.64319 0.04691 0.54420
 C1701 C 0.62759 0.04072 0.53788
 C1702 C 0.61526 0.05199 0.53288
 C1703 C 0.59988 0.04608 0.52725
 C1704 C 0.59677 0.02887 0.52659
 C1705 C 0.60915 0.01758 0.53148
 C1706 C 0.62454 0.02349 0.53712
 C1707 C 0.58072 0.02291 0.52130
 C1708 C 0.56711 0.01826 0.51706
 H1709 H 0.61747 0.06534 0.53347
 H1710 H 0.59039 0.05493 0.52355
 H1711 H 0.60685 0.00424 0.53106
 H1712 H 0.63397 0.01467 0.54100
 C1713 C 0.65800 0.54923 0.04765
 C1714 C 0.64519 0.54351 0.04229
 C1715 C 0.62965 0.53699 0.03620
 C1716 C 0.62199 0.54423 0.02222
 C1717 C 0.60642 0.53854 0.01689
 C1718 C 0.59845 0.52557 0.02552
 C1719 C 0.60622 0.51817 0.03936
 C1720 C 0.62179 0.52387 0.04469
 C1721 C 0.58200 0.52042 0.02067
 C1722 C 0.56805 0.51643 0.01690
 H1723 H 0.62792 0.55444 0.01561
 H1724 H 0.60049 0.54441 0.00622
 H1725 H 0.60013 0.50820 0.04617
 H1726 H 0.62756 0.51823 0.05556
 C1727 C 0.04903 0.04675 0.16094
 C1728 C 0.04364 0.04121 0.14797
 C1729 C 0.03748 0.03493 0.13224
 C1730 C 0.04602 0.02216 0.12386
 C1731 C 0.04061 0.01675 0.10809
 C1732 C 0.02664 0.02408 0.10065
 C1733 C 0.01796 0.03668 0.10914
 C1734 C 0.02337 0.04209 0.12490
 C1735 C 0.02166 0.01924 0.08401
 C1736 C 0.01773 0.01552 0.06990
 H1737 H 0.05699 0.01659 0.12938
 H1738 H 0.04745 0.00706 0.10160
 H1739 H 0.00720 0.04249 0.10346
 H1740 H 0.01673 0.05203 0.13123
 C1741 C 0.04970 0.54900 0.65917
 C1742 C 0.04415 0.54333 0.64633
 C1743 C 0.03781 0.53690 0.63073
 C1744 C 0.04609 0.52387 0.62251
 C1745 C 0.04053 0.51831 0.60685
 C1746 C 0.02666 0.52576 0.59935
 C1747 C 0.01822 0.53862 0.60768
 C1748 C 0.02378 0.54418 0.62333
 C1749 C 0.02158 0.52078 0.58278
 C1750 C 0.01761 0.51694 0.56872
 H1751 H 0.05699 0.51820 0.62808
 H1752 H 0.04720 0.50841 0.60049
 H1753 H 0.00753 0.54453 0.60195
 H1754 H 0.01733 0.55432 0.62954
 C1755 C 0.55170 0.04992 0.65712
 C1756 C 0.54661 0.04486 0.64383
 C1757 C 0.54075 0.03913 0.62777
 C1758 C 0.54386 0.04868 0.61341
 C1759 C 0.53832 0.04316 0.59775
 C1760 C 0.52963 0.02805 0.59635
 C1761 C 0.52649 0.01848 0.61071
 C1762 C 0.53204 0.02402 0.62639
 C1763 C 0.52408 0.02240 0.58015
 C1764 C 0.51963 0.01794 0.56642
 H1765 H 0.55060 0.06037 0.61432
 H1766 H 0.54083 0.05064 0.58673
 H1767 H 0.51980 0.00677 0.60977
 H1768 H 0.52958 0.01652 0.63741
 C1769 C 0.54831 0.54857 0.15985
 C1770 C 0.54272 0.54307 0.14696
 C1771 C 0.53638 0.53678 0.13131
 C1772 C 0.52381 0.54545 0.12285
 C1773 C 0.51836 0.53991 0.10715
 C1774 C 0.52545 0.52568 0.09985
 C1775 C 0.53785 0.51687 0.10841
 C1776 C 0.54330 0.52241 0.12411
 C1777 C 0.52056 0.52059 0.08326
 C1778 C 0.51676 0.51661 0.06920
 H1779 H 0.51844 0.55663 0.12826
 H1780 H 0.50882 0.54687 0.10060
 H1781 H 0.54348 0.50590 0.10284
 H1782 H 0.55309 0.51566 0.13051
 C1783 C 0.20051 0.54972 0.59149
 C1784 C 0.20612 0.54426 0.60437
 C1785 C 0.21257 0.53815 0.62002
 C1786 C 0.22072 0.54914 0.63097
 C1787 C 0.22628 0.54351 0.64656
 C1788 C 0.22373 0.52686 0.65130
 C1789 C 0.21576 0.51580 0.64028
 C1790 C 0.21019 0.52143 0.62467
 C1791 C 0.22871 0.52140 0.66773
 C1792 C 0.23265 0.51729 0.68170
 H1793 H 0.22257 0.56210 0.62754
 H1794 H 0.23236 0.55218 0.65502
 H1795 H 0.21366 0.50291 0.64386
 H1796 H 0.20384 0.51285 0.61632
 C1797 C 0.19977 0.04675 0.08998
 C1798 C 0.20494 0.04116 0.10299
 C1799 C 0.21071 0.03482 0.11882
 C1800 C 0.22755 0.03595 0.12313
 C1801 C 0.23294 0.03061 0.13892
 C1802 C 0.22149 0.02413 0.15044
 C1803 C 0.20470 0.02280 0.14603
 C1804 C 0.19932 0.02813 0.13026
 C1805 C 0.22679 0.01947 0.16701
 C1806 C 0.23091 0.01585 0.18106
 H1807 H 0.23645 0.04116 0.11440
 H1808 H 0.24594 0.03175 0.14223
 H1809 H 0.19573 0.01788 0.15486
 H1810 H 0.18626 0.02727 0.12708
 C1811 C 0.69874 0.20128 0.65758
 C1812 C 0.70374 0.20675 0.64444
 C1813 C 0.70945 0.21300 0.62854
 C1814 C 0.72629 0.21673 0.62611
 C1815 C 0.73184 0.22232 0.61047
 C1816 C 0.72057 0.22418 0.59721
 C1817 C 0.70372 0.22055 0.59969
 C1818 C 0.69818 0.21498 0.61532
 C1819 C 0.72625 0.22946 0.58096
 C1820 C 0.73074 0.23367 0.56719
 H1821 H 0.73512 0.21521 0.63625
 H1822 H 0.74490 0.22505 0.60868
 H1823 H 0.69490 0.22192 0.58952
 H1824 H 0.68514 0.21209 0.61704
 C1825 C 0.69925 0.70124 0.15644
 C1826 C 0.70413 0.70655 0.14319
 C1827 C 0.70964 0.71264 0.12716
 C1828 C 0.72595 0.71841 0.12507
 C1829 C 0.73130 0.72398 0.10936
 C1830 C 0.72037 0.72381 0.09569
 C1831 C 0.70405 0.71811 0.09781
 C1832 C 0.69870 0.71255 0.11350
 C1833 C 0.72589 0.72914 0.07940
 C1834 C 0.73029 0.73338 0.06560
 H1835 H 0.73452 0.71851 0.13554
 H1836 H 0.74396 0.72833 0.10785
 H1837 H 0.69550 0.71788 0.08731
 H1838 H 0.68607 0.70808 0.11496
 C1839 C 0.55027 0.70048 0.09079
 C1840 C 0.54492 0.70576 0.10386
 C1841 C 0.53880 0.71160 0.11976
 C1842 C 0.53792 0.70053 0.13332
 C1843 C 0.53241 0.70615 0.14894
 C1844 C 0.52773 0.72286 0.15110
 C1845 C 0.52849 0.73393 0.13753
 C1846 C 0.53402 0.72831 0.12187
 C1847 C 0.52252 0.72859 0.16737
 C1848 C 0.51843 0.73294 0.18123
 H1849 H 0.54162 0.68760 0.13184
 H1850 H 0.53191 0.69749 0.15935
 H1851 H 0.52494 0.74689 0.13908
 H1852 H 0.53468 0.73697 0.11148
 C1853 C 0.05275 0.70049 0.59351
 C1854 C 0.04762 0.70602 0.60658
 C1855 C 0.04174 0.71236 0.62238
 C1856 C 0.05301 0.71532 0.63544
 C1857 C 0.04732 0.72098 0.65099
 C1858 C 0.03033 0.72370 0.65357
 C1859 C 0.01905 0.72084 0.64048
 C1860 C 0.02475 0.71518 0.62492
 C1861 C 0.02452 0.72903 0.66976
 C1862 C 0.01995 0.73329 0.68350
 H1863 H 0.06617 0.71313 0.63364
 H1864 H 0.05615 0.72310 0.66103
 H1865 H 0.00588 0.72286 0.64236
 H1866 H 0.01592 0.71287 0.61492
 C1867 C 0.54890 0.59127 0.20270
 C1868 C 0.54349 0.60419 0.20822
 C1869 C 0.53729 0.61987 0.21444
 C1870 C 0.52341 0.62729 0.20693
 C1871 C 0.51800 0.64302 0.21227
 C1872 C 0.52644 0.65137 0.22516
 C1873 C 0.54017 0.64384 0.23284
 C1874 C 0.54558 0.62811 0.22750
 C1875 C 0.52152 0.66799 0.22992
 C1876 C 0.51766 0.68207 0.23356
 H1877 H 0.51695 0.62106 0.19676
 H1878 H 0.50742 0.64877 0.20618
 H1879 H 0.54684 0.65023 0.24276
 H1880 H 0.55638 0.62252 0.23334
 C1881 C 0.05083 0.59304 0.70065
 C1882 C 0.04577 0.60629 0.70569
 C1883 C 0.04001 0.62234 0.71141
 C1884 C 0.02864 0.62347 0.72465
 C1885 C 0.02314 0.63914 0.73014
 C1886 C 0.02899 0.65370 0.72240
 C1887 C 0.04036 0.65254 0.70916
 C1888 C 0.04585 0.63691 0.70368
 C1889 C 0.02345 0.66987 0.72797
 C1890 C 0.01906 0.68358 0.73237
 H1891 H 0.02405 0.61229 0.73072
 H1892 H 0.01435 0.63990 0.74039
 H1893 H 0.04497 0.66372 0.70309
 H1894 H 0.05464 0.63617 0.69344
 C1895 C 0.04831 0.15891 0.04901
 C1896 C 0.04291 0.14590 0.04363
 C1897 C 0.03674 0.13014 0.03755
 C1898 C 0.02308 0.12257 0.04533
 C1899 C 0.01766 0.10681 0.04006
 C1900 C 0.02588 0.09855 0.02699
 C1901 C 0.03940 0.10622 0.01905
 C1902 C 0.04482 0.12198 0.02432
 C1903 C 0.02090 0.08194 0.02220
 C1904 C 0.01700 0.06788 0.01844
 H1905 H 0.01679 0.12873 0.05562
 H1906 H 0.00724 0.10096 0.04633
 H1907 H 0.04589 0.09991 0.00898
 H1908 H 0.05544 0.12769 0.01827
 C1909 C 0.05066 0.65833 0.55013
 C1910 C 0.04473 0.64566 0.54451
 C1911 C 0.03798 0.63028 0.53808
 C1912 C 0.04418 0.62345 0.52317
 C1913 C 0.03834 0.60799 0.51745
 C1914 C 0.02628 0.59930 0.52662
 C1915 C 0.01991 0.60625 0.54140
 C1916 C 0.02575 0.62170 0.54712
 C1917 C 0.02109 0.58290 0.52136
 C1918 C 0.01708 0.56895 0.51729
 H1919 H 0.05371 0.62993 0.51613
 H1920 H 0.04343 0.60269 0.50606
 H1921 H 0.01065 0.59959 0.54864
 H1922 H 0.02093 0.62682 0.55871
 C1923 C 0.55164 0.15666 0.54978
 C1924 C 0.54641 0.14369 0.54418
 C1925 C 0.54050 0.12797 0.53775
 C1926 C 0.52345 0.12516 0.53561
 C1927 C 0.51777 0.10964 0.52988
 C1928 C 0.52914 0.09689 0.52626
 C1929 C 0.54619 0.09975 0.52827
 C1930 C 0.55186 0.11525 0.53400
 C1931 C 0.52338 0.08070 0.52095
 C1932 C 0.51886 0.06696 0.51675
 H1933 H 0.51456 0.13489 0.53852
 H1934 H 0.50456 0.10753 0.52841
 H1935 H 0.55508 0.08996 0.52556
 H1936 H 0.56507 0.11728 0.53565
 C1937 C 0.54934 0.65825 0.04749
 C1938 C 0.54359 0.64546 0.04196
 C1939 C 0.53703 0.62992 0.03572
 C1940 C 0.54490 0.62172 0.02238
 C1941 C 0.53921 0.60607 0.01705
 C1942 C 0.52563 0.59855 0.02502
 C1943 C 0.51758 0.60688 0.03816
 C1944 C 0.52327 0.62253 0.04350
 C1945 C 0.52052 0.58196 0.02031
 C1946 C 0.51657 0.56788 0.01668
 H1947 H 0.55560 0.62728 0.01633
 H1948 H 0.54558 0.59971 0.00693
 H1949 H 0.50712 0.60115 0.04447
 H1950 H 0.51714 0.62872 0.05387
 C1951 C 0.69795 0.09449 0.55050
 C1952 C 0.70324 0.10756 0.54520
 C1953 C 0.70925 0.12337 0.53911
 C1954 C 0.72535 0.12479 0.53258
 C1955 C 0.73118 0.14028 0.52695
 C1956 C 0.72093 0.15439 0.52783
 C1957 C 0.70482 0.15294 0.53429
 C1958 C 0.69900 0.13748 0.53992
 C1959 C 0.72690 0.17044 0.52236
 C1960 C 0.73154 0.18409 0.51802
 H1961 H 0.73339 0.11396 0.53192
 H1962 H 0.74367 0.14126 0.52199
 H1963 H 0.69680 0.16378 0.53505
 H1964 H 0.68654 0.13654 0.54496
 C1965 C 0.69929 0.59310 0.04779
 C1966 C 0.70429 0.60625 0.04244
 C1967 C 0.70999 0.62216 0.03632
 C1968 C 0.69851 0.63489 0.03304
 C1969 C 0.70401 0.65054 0.02760
 C1970 C 0.72101 0.65355 0.02541
 C1971 C 0.73250 0.64079 0.02856
 C1972 C 0.72700 0.62512 0.03401
 C1973 C 0.72661 0.66984 0.02028
 C1974 C 0.73103 0.68363 0.01616
 H1975 H 0.68534 0.63275 0.03482
 H1976 H 0.69502 0.66033 0.02524
 H1977 H 0.74568 0.64299 0.02694
 H1978 H 0.73598 0.61538 0.03654
 C1979 C 0.20028 0.65832 0.70020
 C1980 C 0.20608 0.64568 0.70594
 C1981 C 0.21272 0.63031 0.71242
 C1982 C 0.22467 0.62148 0.70324
 C1983 C 0.23038 0.60602 0.70897
 C1984 C 0.22418 0.59931 0.72392
 C1985 C 0.21241 0.60825 0.73324
 C1986 C 0.20670 0.62372 0.72751
 C1987 C 0.22924 0.58290 0.72918
 C1988 C 0.23320 0.56895 0.73319
 H1989 H 0.22935 0.62642 0.69152
 H1990 H 0.23941 0.59917 0.70161
 H1991 H 0.20747 0.60313 0.74477
 H1992 H 0.19740 0.63041 0.73467
 C1993 C 0.20084 0.15925 0.20167
 C1994 C 0.20628 0.14628 0.20700
 C1995 C 0.21249 0.13056 0.21307
 C1996 C 0.20507 0.12294 0.22698
 C1997 C 0.21050 0.10723 0.23233
 C1998 C 0.22337 0.09909 0.22379
 C1999 C 0.23092 0.10681 0.21001
 C2000 C 0.22549 0.12251 0.20466
 C2001 C 0.22830 0.08254 0.22870
 C2002 C 0.23215 0.06851 0.23255
 H2003 H 0.19495 0.12902 0.23353
 H2004 H 0.20451 0.10134 0.24295
 H2005 H 0.24082 0.10058 0.20326
 H2006 H 0.23126 0.12826 0.19384
 C2007 C 0.70079 1.15902 0.70074
 C2008 C 0.70656 1.14625 0.70621
 C2009 C 0.71309 1.13075 0.71249
 C2010 C 0.72620 1.12281 0.70413
 C2011 C 0.73187 1.10724 0.70963
 C2012 C 0.72446 1.09954 0.72351
 C2013 C 0.71152 1.10760 0.73201
 C2014 C 0.70585 1.12317 0.72651
 C2015 C 0.72956 1.08306 0.72849
 C2016 C 0.73354 1.06907 0.73235
 H2017 H 0.73184 1.12852 0.69322
 H2018 H 0.74183 1.10108 0.70291
 H2019 H 0.70564 1.10172 0.74270
 H2020 H 0.69565 1.12916 0.73302
 C2021 C 0.70117 0.65938 0.20000
 C2022 C 0.70686 0.64658 0.20550
 C2023 C 0.71333 0.63103 0.21174
 C2024 C 0.72597 0.62274 0.20300
 C2025 C 0.73157 0.60714 0.20849
 C2026 C 0.72457 0.59977 0.22274
 C2027 C 0.71209 0.60816 0.23163
 C2028 C 0.70648 0.62376 0.22614
 C2029 C 0.72962 0.58327 0.22777
 C2030 C 0.73357 0.56928 0.23165
 H2031 H 0.73129 0.62820 0.19181
 H2032 H 0.74116 0.60072 0.20147
 H2033 H 0.70652 0.60253 0.24261
 H2034 H 0.69664 0.63001 0.23294
 C2035 C 0.54963 0.09057 0.70080
 C2036 C 0.54391 0.10322 0.70663
 C2037 C 0.53740 0.11860 0.71328
 C2038 C 0.54569 0.12679 0.72637
 C2039 C 0.53998 0.14227 0.73213
 C2040 C 0.52595 0.14961 0.72482
 C2041 C 0.51751 0.14130 0.71190
 C2042 C 0.52322 0.12583 0.70614
 C2043 C 0.52075 0.16604 0.72996
 C2044 C 0.51670 0.17999 0.73390
 H2045 H 0.55672 0.12136 0.73193
 H2046 H 0.54666 0.14863 0.74206
 H2047 H 0.50671 0.14692 0.70609
 H2048 H 0.51677 0.11964 0.69595
 C2049 C 1.04846 0.08937 0.20272
 C2050 C 1.04299 0.10233 0.20810
 C2051 C 1.03675 0.11805 0.21419
 C2052 C 1.02341 0.12582 0.20606
 C2053 C 1.01796 0.14155 0.21136
 C2054 C 1.02582 0.14957 0.22483
 C2055 C 1.03901 0.14169 0.23311
 C2056 C 1.04446 0.12597 0.22781
 C2057 C 1.02086 0.16617 0.22964
 C2058 C 1.01698 0.18023 0.23338
 H2059 H 1.01741 0.11985 0.19547
 H2060 H 1.00781 0.14756 0.20481
 H2061 H 1.04523 0.14782 0.24349
 H2062 H 1.05484 0.12010 0.23414
 C2063 C 0.19938 0.59332 0.54969
 C2064 C 0.20449 0.60650 0.54454
 C2065 C 0.21032 0.62246 0.53869
 C2066 C 0.20451 0.63714 0.54625
 C2067 C 0.21008 0.65270 0.54065
 C2068 C 0.22149 0.65367 0.52744
 C2069 C 0.22732 0.63900 0.51985
 C2070 C 0.22174 0.62342 0.52547
 C2071 C 0.22714 0.66975 0.52176
 C2072 C 0.23165 0.68340 0.51729
 H2073 H 0.19568 0.63655 0.55648
 H2074 H 0.20549 0.66396 0.54660
 H2075 H 0.23614 0.63961 0.50963
 H2076 H 0.22631 0.61214 0.51953
 C2077 C 0.20035 0.08993 1.04896
 C2078 C 0.20569 0.10313 1.04405
 C2079 C 0.21174 0.11915 1.03863
 C2080 C 0.21893 0.12104 1.02275
 C2081 C 0.22443 0.13678 1.01748
 C2082 C 0.22276 0.15066 1.02807
 C2083 C 0.21566 0.14872 1.04398
 C2084 C 0.21017 0.13302 1.04924
 C2085 C 0.22794 0.16699 1.02263
 C2086 C 0.23193 0.18089 1.01846
 H2087 H 0.22018 0.11041 1.01444
 H2088 H 0.22987 0.13815 1.00514
 H2089 H 0.21427 0.15937 1.05225
 H2090 H 0.20460 0.13171 1.06152
 C2091 C 0.19914 0.69979 0.65629
 C2092 C 0.20444 0.70499 0.64316
 C2093 C 0.21049 0.71082 0.62725
 C2094 C 0.21820 0.72646 0.62591
 C2095 C 0.22383 0.73211 0.61031
 C2096 C 0.22175 0.72211 0.59602
 C2097 C 0.21409 0.70645 0.59740
 C2098 C 0.20847 0.70082 0.61296
 C2099 C 0.22731 0.72785 0.57990
 C2100 C 0.23174 0.73231 0.56619
 H2101 H 0.21981 0.73430 0.63687
 H2102 H 0.22973 0.74424 0.60938
 H2103 H 0.21241 0.69863 0.58643
 H2104 H 0.20251 0.68871 0.61385
 C2105 C 0.20097 0.20127 1.16061
 C2106 C 0.20644 0.20687 1.14773
 C2107 C 0.21263 0.21323 1.13208
 C2108 C 0.22600 0.20534 1.12412
 C2109 C 0.23134 0.21085 1.10840
 C2110 C 0.22334 0.22428 1.10058
 C2111 C 0.21013 0.23233 1.10865
 C2112 C 0.20479 0.22682 1.12438
 C2113 C 0.22813 0.22923 1.08395
 C2114 C 0.23189 0.23305 1.06985
 H2115 H 0.23210 0.19476 1.12993
 H2116 H 0.24151 0.20447 1.10222
 H2117 H 0.20379 0.24267 1.10267
 H2118 H 0.19439 0.23296 1.13039
 C2119 C 0.70123 0.54959 0.08969
 C2120 C 0.70699 0.54402 0.10246
 C2121 C 0.71350 0.53765 0.11798
 C2122 C 0.72663 0.54592 0.12603
 C2123 C 0.73226 0.54035 0.14164
 C2124 C 0.72479 0.52650 0.14927
 C2125 C 0.71184 0.51807 0.14110
 C2126 C 0.70621 0.52364 0.12549
 C2127 C 0.72982 0.52147 0.16582
 C2128 C 0.73370 0.51757 0.17987
 H2129 H 0.73230 0.55682 0.12038
 H2130 H 0.74222 0.54702 0.14789
 H2131 H 0.70591 0.50740 0.14693
 H2132 H 0.69599 0.51720 0.11942
 C2133 C 0.69950 1.05125 0.59152
 C2134 C 0.70531 1.04537 0.60413
 C2135 C 0.71197 1.03867 0.61946
 C2136 C 0.70462 1.02463 0.62687
 C2137 C 0.71046 1.01873 0.64228
 C2138 C 0.72367 1.02685 0.65033
 C2139 C 0.73118 1.04073 0.64280
 C2140 C 0.72534 1.04663 0.62739
 C2141 C 0.72894 1.02152 0.66672
 C2142 C 0.73305 1.01745 0.68066
 H2143 H 0.69422 1.01842 0.62088
 H2144 H 0.70450 1.00805 0.64805
 H2145 H 0.74134 1.04717 0.64896
 H2146 H 0.73106 1.05754 0.62181
 C2147 C 0.55051 0.19974 0.59226
 C2148 C 0.54469 0.20528 0.60502
 C2149 C 0.53802 0.21158 0.62052
 C2150 C 0.52458 0.20347 0.62815
 C2151 C 0.51874 0.20897 0.64371
 C2152 C 0.52631 0.22260 0.65170
 C2153 C 0.53959 0.23085 0.64395
 C2154 C 0.54544 0.22536 0.62839
 C2155 C 0.52101 0.22758 0.66818
 C2156 C 0.51692 0.23147 0.68218
 H2157 H 0.51881 0.19276 0.62221
 H2158 H 0.50852 0.20244 0.64963
 H2159 H 0.54559 0.24135 0.65006
 H2160 H 0.55589 0.23166 0.62264
 C2161 C 1.04798 0.20075 0.09037
 C2162 C 1.04251 0.20625 0.10331
 C2163 C 1.03634 0.21251 0.11903
 C2164 C 1.02285 0.20467 0.12685
 C2165 C 1.01753 0.21008 0.14263
 C2166 C 1.02566 0.22336 0.15065
 C2167 C 1.03899 0.23136 0.14272
 C2168 C 1.04432 0.22594 0.12694
 C2169 C 1.02085 0.22825 0.16731
 C2170 C 1.01709 0.23206 0.18143
 H2171 H 1.01665 0.19421 0.12089
 H2172 H 1.00726 0.20375 0.14869
 H2173 H 1.04543 0.24158 0.14884
 H2174 H 1.05481 0.23204 0.12104
 C2175 C 0.65765 0.20095 0.70173
 C2176 C 0.64490 0.20624 0.70759
 C2177 C 0.62942 0.21226 0.71428
 C2178 C 0.62281 0.22744 0.70868
 C2179 C 0.60728 0.23279 0.71442
 C2180 C 0.59830 0.22297 0.72578
 C2181 C 0.60503 0.20791 0.73158
 C2182 C 0.62056 0.20257 0.72585
 C2183 C 0.58185 0.22788 0.73079
 C2184 C 0.56788 0.23171 0.73463
 H2185 H 0.62952 0.23499 0.69968
 H2186 H 0.60215 0.24440 0.70978
 H2187 H 0.59816 0.20018 0.74030
 H2188 H 0.62553 0.19077 0.73020
 C2189 C 1.15883 0.20115 0.20252
 C2190 C 1.14597 0.20655 0.20804
 C2191 C 1.13037 0.21269 0.21432
 C2192 C 1.12273 0.22645 0.20670
 C2193 C 1.10710 0.23179 0.21215
 C2194 C 1.09905 0.22339 0.22523
 C2195 C 1.10681 0.20979 0.23301
 C2196 C 1.12244 0.20445 0.22757
 C2197 C 1.08253 0.22821 0.23012
 C2198 C 1.06853 0.23198 0.23390
 H2199 H 1.12872 0.23286 0.19640
 H2200 H 1.10118 0.24227 0.20599
 H2201 H 1.10066 0.20316 0.24309
 H2202 H 1.12820 0.19375 0.23349
 C2203 C 0.09445 0.69966 0.54995
 C2204 C 0.10733 0.70480 0.54422
 C2205 C 0.12292 0.71061 0.53762
 C2206 C 0.13507 0.69906 0.53279
 C2207 C 0.15047 0.70462 0.52692
 C2208 C 0.15379 0.72176 0.52584
 C2209 C 0.14160 0.73334 0.53053
 C2210 C 0.12618 0.72777 0.53641
 C2211 C 0.16990 0.72738 0.52041
 C2212 C 0.18356 0.73180 0.51612
 H2213 H 0.13270 0.68576 0.53373
 H2214 H 0.15983 0.69556 0.52339
 H2215 H 0.14406 0.74663 0.52980
 H2216 H 0.11689 0.73682 0.54016
 C2217 C 0.09017 0.20107 1.04851
 C2218 C 0.10303 0.20658 1.04309
 C2219 C 0.11863 0.21284 1.03694
 C2220 C 0.12637 0.20512 1.02325
 C2221 C 0.14201 0.21056 1.01791
 C2222 C 0.14997 0.22374 1.02624
 C2223 C 0.14213 0.23164 1.03977
 C2224 C 0.12649 0.22620 1.04511
 C2225 C 0.16650 0.22863 1.02143
 C2226 C 0.18050 0.23241 1.01764
 H2227 H 0.12044 0.19474 1.01689
 H2228 H 0.14799 0.20432 1.00748
 H2229 H 0.14821 0.24179 1.04635
 H2230 H 0.12065 0.23221 1.05575
 C2231 C 0.59152 0.54878 0.20190
 C2232 C 0.60449 0.54330 0.20705
 C2233 C 0.62022 0.53700 0.21282
 C2234 C 0.62985 0.52691 0.20227
 C2235 C 0.64553 0.52149 0.20747
 C2236 C 0.65165 0.52612 0.22324
 C2237 C 0.64194 0.53603 0.23389
 C2238 C 0.62624 0.54146 0.22869
 C2239 C 0.66817 0.52130 0.22814
 C2240 C 0.68216 0.51753 0.23195
 H2241 H 0.62534 0.52345 0.18995
 H2242 H 0.65297 0.51389 0.19910
 H2243 H 0.64658 0.53975 0.24609
 H2244 H 0.61892 0.54932 0.23693
 C2245 C 0.59253 1.04839 0.70042
 C2246 C 0.60527 1.04290 0.70611
 C2247 C 0.62074 1.03668 0.71263
 C2248 C 0.62857 1.04491 0.72598
 C2249 C 0.64411 1.03950 0.73165
 C2250 C 0.65187 1.02582 0.72398
 C2251 C 0.64393 1.01743 0.71079
 C2252 C 0.62840 1.02284 0.70513
 C2253 C 0.66833 1.02095 0.72904
 C2254 C 0.68229 1.01717 0.73293
 H2255 H 0.62281 1.05567 0.73181
 H2256 H 0.65018 1.04614 0.74179
 H2257 H 0.64986 1.00690 0.70472
 H2258 H 0.62249 1.01644 0.69474
 C2259 C 0.90445 0.44722 0.30268
 C2260 C 0.89165 0.45280 0.29721
 C2261 C 0.87614 0.45914 0.29091
 C2262 C 0.87580 0.47339 0.28072
 C2263 C 0.86064 0.47948 0.27469
 C2264 C 0.84579 0.47134 0.27884
 C2265 C 0.84615 0.45709 0.28901
 C2266 C 0.86128 0.45101 0.29503
 C2267 C 0.83012 0.47750 0.27277
 C2268 C 0.81675 0.48228 0.26797
 H2269 H 0.88722 0.47977 0.27746
 H2270 H 0.86050 0.49051 0.26684
 H2271 H 0.83474 0.45070 0.29230
 H2272 H 0.86139 0.43999 0.30290
 C2273 C 0.90629 0.94981 0.80156
 C2274 C 0.89336 0.95523 0.79624
 C2275 C 0.87771 0.96148 0.79021
 C2276 C 0.86398 0.96195 0.80097
 C2277 C 0.84864 0.96766 0.79511
 C2278 C 0.84694 0.97293 0.77847
 C2279 C 0.86069 0.97256 0.76771
 C2280 C 0.87606 0.96684 0.77358
 C2281 C 0.83100 0.97840 0.77246
 C2282 C 0.81744 0.98276 0.76776
 H2283 H 0.86511 0.95782 0.81384
 H2284 H 0.83808 0.96787 0.80353
 H2285 H 0.85951 0.97658 0.75481
 H2286 H 0.88659 0.96651 0.76514
 C2287 C 0.34477 0.30170 0.80314
 C2288 C 0.35764 0.29608 0.79787
 C2289 C 0.37323 0.28968 0.79184
 C2290 C 0.38810 0.29516 0.79914
 C2291 C 0.40331 0.28912 0.79329
 C2292 C 0.40374 0.27756 0.78009
 C2293 C 0.38888 0.27203 0.77280
 C2294 C 0.37364 0.27808 0.77867
 C2295 C 0.41949 0.27155 0.77408
 C2296 C 0.43292 0.26686 0.76935
 H2297 H 0.38793 0.30412 0.80933
 H2298 H 0.41472 0.29349 0.79901
 H2299 H 0.38908 0.26310 0.76259
 H2300 H 0.36221 0.27376 0.77293
 C2301 C 0.84481 0.30185 0.30087
 C2302 C 0.85776 0.29639 0.29565
 C2303 C 0.87344 0.29019 0.28965
 C2304 C 0.88747 0.30055 0.29008
 C2305 C 0.90281 0.29455 0.28453
 C2306 C 0.90421 0.27816 0.27852
 C2307 C 0.89017 0.26779 0.27803
 C2308 C 0.87481 0.27380 0.28359
 C2309 C 0.92011 0.27204 0.27306
 C2310 C 0.93363 0.26730 0.26865
 H2311 H 0.88656 0.31322 0.29477
 H2312 H 0.91359 0.30266 0.28499
 H2313 H 0.89112 0.25509 0.27342
 H2314 H 0.86404 0.26568 0.28322
 C2315 C 0.40851 0.79882 0.45082
 C2316 C 0.39580 0.79307 0.45632
 C2317 C 0.38036 0.78659 0.46262
 C2318 C 0.37243 0.77335 0.45434
 C2319 C 0.35690 0.76776 0.45982
 C2320 C 0.34924 0.77538 0.47360
 C2321 C 0.35728 0.78845 0.48205
 C2322 C 0.37281 0.79404 0.47657
 C2323 C 0.33278 0.77039 0.47853
 C2324 C 0.31881 0.76655 0.48234
 H2325 H 0.37812 0.76756 0.44348
 H2326 H 0.35074 0.75771 0.45314
 H2327 H 0.35141 0.79449 0.49266
 H2328 H 0.37879 0.80434 0.48301
 C2329 C 0.40400 0.30123 0.94902
 C2330 C 0.39110 0.29558 0.95419
 C2331 C 0.37547 0.28907 0.96001
 C2332 C 0.37417 0.28189 0.97596
 C2333 C 0.35884 0.27586 0.98162
 C2334 C 0.34477 0.27700 0.97133
 C2335 C 0.34611 0.28411 0.95536
 C2336 C 0.36141 0.29012 0.94971
 C2337 C 0.32887 0.27124 0.97718
 C2338 C 0.31533 0.26675 0.98178
 H2339 H 0.38497 0.28103 0.98403
 H2340 H 0.35794 0.27042 0.99401
 H2341 H 0.33531 0.28509 0.94732
 H2342 H 0.36227 0.29567 0.93736
 C2343 C 0.80106 0.44988 0.40602
 C2344 C 0.79569 0.45497 0.39288
 C2345 C 0.78963 0.46075 0.37694
 C2346 C 0.77742 0.47318 0.37612
 C2347 C 0.77169 0.47878 0.36054
 C2348 C 0.77818 0.47195 0.34574
 C2349 C 0.79037 0.45951 0.34659
 C2350 C 0.79608 0.45392 0.36214
 C2351 C 0.77250 0.47768 0.32965
 C2352 C 0.76809 0.48220 0.31594
 H2353 H 0.77235 0.47855 0.38749
 H2354 H 0.76227 0.48842 0.36002
 H2355 H 0.79547 0.45415 0.33523
 H2356 H 0.80553 0.44431 0.36263
 C2357 C 0.80303 0.94889 0.90574
 C2358 C 0.79773 0.95438 0.89273
 C2359 C 0.79168 0.96071 0.87700
 C2360 C 0.77477 0.96428 0.87488
 C2361 C 0.76891 0.97004 0.85941
 C2362 C 0.77994 0.97224 0.84602
 C2363 C 0.79686 0.96874 0.84818
 C2364 C 0.80271 0.96300 0.86362
 C2365 C 0.77397 0.97775 0.82994
 C2366 C 0.76932 0.98216 0.81629
 H2367 H 0.76613 0.96252 0.88513
 H2368 H 0.75580 0.97267 0.85787
 H2369 H 0.80549 0.97036 0.83789
 H2370 H 0.81580 0.96023 0.86511
 C2371 C 0.30097 0.80085 0.34118
 C2372 C 0.29514 0.79504 0.35381
 C2373 C 0.28846 0.78846 0.36916
 C2374 C 0.27558 0.79690 0.37738
 C2375 C 0.26978 0.79112 0.39284
 C2376 C 0.27683 0.77688 0.40014
 C2377 C 0.28954 0.76830 0.39180
 C2378 C 0.29534 0.77407 0.37633
 C2379 C 0.27164 0.77163 0.41656
 C2380 C 0.26762 0.76758 0.43052
 H2381 H 0.27024 0.80809 0.37199
 H2382 H 0.26002 0.79792 0.39924
 H2383 H 0.29514 0.75733 0.39738
 H2384 H 0.30536 0.76751 0.37012
 C2385 C 0.30163 0.30237 0.84523
 C2386 C 0.29591 0.29700 0.85810
 C2387 C 0.28936 0.29088 0.87371
 C2388 C 0.28927 0.30129 0.88784
 C2389 C 0.28330 0.29532 0.90314
 C2390 C 0.27738 0.27891 0.90441
 C2391 C 0.27737 0.26850 0.89027
 C2392 C 0.28336 0.27448 0.87494
 C2393 C 0.27163 0.27277 0.92032
 C2394 C 0.26708 0.26799 0.93388
 H2395 H 0.29392 0.31397 0.88704
 H2396 H 0.28339 0.30346 0.91401
 H2397 H 0.27285 0.25578 0.89112
 H2398 H 0.28340 0.26632 0.86410
 C2399 C 0.44682 0.30187 0.90665
 C2400 C 0.45229 0.29650 0.89366
 C2401 C 0.45847 0.29031 0.87791
 C2402 C 0.47170 0.27895 0.87747
 C2403 C 0.47759 0.27299 0.86209
 C2404 C 0.47027 0.27837 0.84710
 C2405 C 0.45704 0.28972 0.84756
 C2406 C 0.45116 0.29567 0.86292
 C2407 C 0.47623 0.27234 0.83120
 C2408 C 0.48089 0.26760 0.81766
 H2409 H 0.47744 0.27472 0.88899
 H2410 H 0.48783 0.26422 0.86187
 H2411 H 0.45128 0.29396 0.83605
 H2412 H 0.44091 0.30444 0.86311
 C2413 C 0.94909 0.30124 0.40693
 C2414 C 0.95451 0.29581 0.39395
 C2415 C 0.96080 0.28975 0.37819
 C2416 C 0.96449 0.27277 0.37604
 C2417 C 0.97025 0.26695 0.36054
 C2418 C 0.97233 0.27809 0.34717
 C2419 C 0.96871 0.29507 0.34937
 C2420 C 0.96297 0.30088 0.36484
 C2421 C 0.97781 0.27217 0.33107
 C2422 C 0.98216 0.26757 0.31737
 H2423 H 0.96283 0.26405 0.38627
 H2424 H 0.97297 0.25379 0.35896
 H2425 H 0.97023 0.30378 0.33911
 H2426 H 0.96012 0.31402 0.36636
 C2427 C 0.44703 0.40477 0.80139
 C2428 C 0.45228 0.39191 0.79557
 C2429 C 0.45828 0.37633 0.78892
 C2430 C 0.44696 0.36389 0.78415
 C2431 C 0.45271 0.34847 0.77832
 C2432 C 0.46981 0.34541 0.77722
 C2433 C 0.48114 0.35789 0.78185
 C2434 C 0.47538 0.37333 0.78769
 C2435 C 0.47563 0.32927 0.77186
 C2436 C 0.48022 0.31557 0.76764
 H2437 H 0.43371 0.36605 0.78511
 H2438 H 0.44384 0.33888 0.77484
 H2439 H 0.49438 0.35563 0.78111
 H2440 H 0.48424 0.38284 0.79141
 C2441 C 0.94667 0.40436 0.30206
 C2442 C 0.95203 0.39152 0.29632
 C2443 C 0.95814 0.37596 0.28969
 C2444 C 0.94730 0.36238 0.28783
 C2445 C 0.95323 0.34709 0.28184
 C2446 C 0.97004 0.34529 0.27768
 C2447 C 0.98088 0.35890 0.27943
 C2448 C 0.97494 0.37421 0.28542
 C2449 C 0.97613 0.32935 0.27205
 C2450 C 0.98089 0.31578 0.26760
 H2451 H 0.93430 0.36358 0.29112
 H2452 H 0.94475 0.33664 0.28059
 H2453 H 0.99390 0.35763 0.27629
 H2454 H 0.98343 0.38462 0.28685
 C2455 C 0.30064 0.90873 0.45053
 C2456 C 0.29502 0.89594 0.45613
 C2457 C 0.28859 0.88043 0.46253
 C2458 C 0.29610 0.87283 0.47640
 C2459 C 0.29047 0.85727 0.48202
 C2460 C 0.27729 0.84927 0.47379
 C2461 C 0.26962 0.85699 0.46007
 C2462 C 0.27525 0.87253 0.45445
 C2463 C 0.27219 0.83281 0.47888
 C2464 C 0.26818 0.81883 0.48278
 H2465 H 0.30647 0.87878 0.48269
 H2466 H 0.29655 0.85138 0.49258
 H2467 H 0.25948 0.85087 0.45356
 H2468 H 0.26940 0.87827 0.44367
 C2469 C 0.30225 0.40469 0.94868
 C2470 C 0.29656 0.39182 0.95401
 C2471 C 0.29002 0.37621 0.96004
 C2472 C 0.28254 0.37524 0.97587
 C2473 C 0.27647 0.35993 0.98173
 C2474 C 0.27785 0.34556 0.97177
 C2475 C 0.28525 0.34657 0.95593
 C2476 C 0.29132 0.36184 0.95008
 C2477 C 0.27197 0.32969 0.97780
 C2478 C 0.26734 0.31615 0.98249
 H2479 H 0.28149 0.38627 0.98368
 H2480 H 0.27079 0.35928 0.99402
 H2481 H 0.28642 0.33553 0.94814
 H2482 H 0.29710 0.36244 0.93783
 C2483 C 0.80248 0.34459 0.29985
 C2484 C 0.79725 0.35750 0.29417
 C2485 C 0.79131 0.37313 0.28759
 C2486 C 0.77425 0.37583 0.28542
 C2487 C 0.76853 0.39125 0.27952
 C2488 C 0.77986 0.40401 0.27577
 C2489 C 0.79692 0.40126 0.27783
 C2490 C 0.80263 0.38586 0.28372
 C2491 C 0.77405 0.42010 0.27028
 C2492 C 0.76948 0.43376 0.26594
 H2493 H 0.76538 0.36609 0.28841
 H2494 H 0.75531 0.39327 0.27802
 H2495 H 0.80578 0.41105 0.27503
 H2496 H 0.81584 0.38392 0.28539
   
