data_POSCAR
  _audit_creation_date              2014-09-24
  _audit_creation_method            'ToBaCCo'
  _symmetry_space_group_name_H-M    'P1'
  _symmetry_Int_Tables_number       1
  _symmetry_cell_setting            triclinic
  loop_
  _symmetry_equiv_pos_as_xyz
 x,y,z
_cell_length_a 57.5481
_cell_length_b 59.7115
_cell_length_c 55.2858
_cell_angle_alpha 88.884600
_cell_angle_beta 88.770300
_cell_angle_gamma 87.383300
loop_
  _atom_site_label
  _atom_site_type_symbol
  _atom_site_fract_x
  _atom_site_fract_y
  _atom_site_fract_z
N1 N 0.38824 0.33336 0.35334
 N2 N 0.39247 0.34650 0.33456
 C3 C 0.40869 0.33644 0.32012
 C4 C 0.41518 0.31598 0.33053
 C5 C 0.40199 0.31455 0.35170
 H6 H 0.41535 0.34358 0.30337
 H7 H 0.40207 0.30077 0.36470
 Cu8 Cu 0.37704 0.37581 0.33093
 Cu9 Cu 0.36449 0.34189 0.37765
 Cu10 Cu 0.32321 0.38064 0.35495
 N11 N 0.35598 0.40076 0.32258
 N12 N 0.33474 0.40258 0.33175
 C13 C 0.32300 0.41965 0.32051
 C14 C 0.33775 0.42886 0.30334
 C15 C 0.35856 0.41656 0.30524
 H16 H 0.30473 0.42402 0.32349
 H17 H 0.37385 0.41787 0.29370
 N18 N 0.31762 0.36163 0.38379
 N19 N 0.33349 0.34730 0.39276
 C20 C 0.32428 0.33666 0.41213
 C21 C 0.30157 0.34475 0.41546
 C22 C 0.29794 0.36060 0.39727
 H23 H 0.33320 0.32349 0.42252
 H24 H 0.28202 0.37033 0.39382
 H25 H 0.34659 0.35357 0.34886
 H26 H 0.35537 0.37591 0.36952
 N27 N 0.38620 0.80423 -0.17310
 N28 N 0.38676 0.81363 -0.19479
 C29 C 0.40485 0.80484 -0.20762
 C30 C 0.41634 0.78892 -0.19333
 C31 C 0.40411 0.78891 -0.17143
 H32 H 0.40926 0.80973 -0.22601
 H33 H 0.40784 0.77856 -0.15559
 Cu34 Cu 0.36420 0.83645 -0.20504
 Cu35 Cu 0.36215 0.81297 -0.14909
 Cu36 Cu 0.32734 0.85992 -0.16462
 N37 N 0.34811 0.86480 -0.21195
 N38 N 0.33314 0.87379 -0.19628
 C39 C 0.32303 0.89240 -0.20629
 C40 C 0.33236 0.89520 -0.22942
 C41 C 0.34838 0.87747 -0.23234
 H42 H 0.30962 0.90284 -0.19756
 H43 H 0.35878 0.87355 -0.24835
 N44 N 0.32414 0.84345 -0.13361
 N45 N 0.33673 0.82516 -0.12777
 C46 C 0.32887 0.81710 -0.10624
 C47 C 0.31063 0.83117 -0.09825
 C48 C 0.30821 0.84762 -0.11599
 H49 H 0.33562 0.80200 -0.09725
 H50 H 0.29516 0.86120 -0.11646
 H51 H 0.33751 0.82678 -0.17206
 H52 H 0.36083 0.84531 -0.16246
 N53 N 0.87837 0.33814 -0.19315
 N54 N 0.87107 0.35413 -0.20820
 C55 C 0.88791 0.35753 -0.22510
 C56 C 0.90668 0.34289 -0.22007
 C57 C 0.90004 0.33108 -0.19961
 H58 H 0.88620 0.36895 -0.24044
 H59 H 0.90962 0.31710 -0.19126
 Cu60 Cu 0.83920 0.36704 -0.20574
 Cu61 Cu 0.85736 0.32424 -0.17028
 Cu62 Cu 0.80861 0.35257 -0.15302
 N63 N 0.81050 0.38341 -0.19436
 N64 N 0.79926 0.37825 -0.17406
 C65 C 0.78102 0.39292 -0.17089
 C66 C 0.78079 0.40808 -0.19012
 C67 C 0.79968 0.40151 -0.20468
 H68 H 0.76868 0.39231 -0.15591
 H69 H 0.80542 0.40953 -0.22133
 N70 N 0.81609 0.32219 -0.14098
 N71 N 0.83544 0.31132 -0.14774
 C72 C 0.83673 0.29116 -0.13660
 C73 C 0.81725 0.28924 -0.12195
 C74 C 0.80444 0.30927 -0.12500
 H75 H 0.85101 0.27890 -0.13866
 H76 H 0.78804 0.31413 -0.11625
 H77 H 0.82165 0.34259 -0.18569
 H78 H 0.83999 0.36216 -0.16954
 N79 N 0.88190 0.84321 0.30959
 N80 N 0.88301 0.86055 0.29462
 C81 C 0.89555 0.85443 0.27480
 C82 C 0.90270 0.83213 0.27771
 C83 C 0.89373 0.82552 0.29993
 H84 H 0.89959 0.86547 0.25970
 H85 H 0.89574 0.80914 0.30854
 Cu86 Cu 0.86849 0.88955 0.30292
 Cu87 Cu 0.86513 0.84488 0.34046
 Cu88 Cu 0.86192 0.89860 0.36227
 N89 N 0.85594 0.91816 0.31499
 N90 N 0.85516 0.92202 0.33833
 C91 C 0.84453 0.94213 0.34223
 C92 C 0.83735 0.95102 0.32026
 C93 C 0.84526 0.93557 0.30320
 H94 H 0.84014 0.94847 0.36002
 H95 H 0.84199 0.93612 0.28400
 N96 N 0.85658 0.87207 0.38280
 N97 N 0.85720 0.85154 0.37433
 C98 C 0.84840 0.83764 0.39125
 C99 C 0.84140 0.85021 0.41105
 C100 C 0.84695 0.87188 0.40519
 H101 H 0.84506 0.82022 0.38837
 H102 H 0.84225 0.88672 0.41543
 H103 H 0.84823 0.87667 0.33911
 H104 H 0.88056 0.87391 0.34215
 N105 N 0.65570 0.70359 0.32490
 N106 N 0.65040 0.68591 0.31242
 C107 C 0.62996 0.69062 0.30133
 C108 C 0.62207 0.71206 0.30760
 C109 C 0.63878 0.71967 0.32247
 H110 H 0.62086 0.67896 0.29066
 H111 H 0.63830 0.73565 0.33137
 Cu112 Cu 0.66908 0.65698 0.31451
 Cu113 Cu 0.68343 0.70482 0.34508
 Cu114 Cu 0.71280 0.65611 0.35358
 N115 N 0.69210 0.63153 0.31637
 N116 N 0.70864 0.63146 0.33242
 C117 C 0.72169 0.61239 0.33108
 C118 C 0.71305 0.59944 0.31332
 C119 C 0.69418 0.61206 0.30417
 H120 H 0.73665 0.60845 0.34212
 H121 H 0.68284 0.60741 0.28994
 N122 N 0.72371 0.68339 0.36646
 N123 N 0.71171 0.70250 0.36402
 C124 C 0.72239 0.71841 0.37604
 C125 C 0.74232 0.70864 0.38607
 C126 C 0.74266 0.68645 0.37957
 H127 H 0.71617 0.73571 0.37743
 H128 H 0.75531 0.67335 0.38467
 H129 H 0.69407 0.67882 0.32222
 H130 H 0.67340 0.67195 0.34738
 N131 N 0.61586 0.18551 -0.15090
 N132 N 0.61264 0.17699 -0.17228
 C133 C 0.59302 0.18649 -0.18157
 C134 C 0.58358 0.20172 -0.16512
 C135 C 0.59854 0.20071 -0.14591
 H136 H 0.58582 0.18227 -0.19872
 H137 H 0.59662 0.20983 -0.12923
 Cu138 Cu 0.63349 0.15331 -0.18543
 Cu139 Cu 0.64105 0.17511 -0.13009
 Cu140 Cu 0.68224 0.13875 -0.15584
 N141 N 0.65309 0.12703 -0.19450
 N142 N 0.67132 0.12103 -0.18161
 C143 C 0.68227 0.10293 -0.19119
 C144 C 0.67063 0.09729 -0.21157
 C145 C 0.65206 0.11291 -0.21325
 H146 H 0.69828 0.09525 -0.18442
 H147 H 0.63913 0.11416 -0.22718
 N148 N 0.68624 0.15246 -0.12464
 N149 N 0.67095 0.16686 -0.11482
 C150 C 0.67962 0.17418 -0.09408
 C151 C 0.70111 0.16336 -0.09069
 C152 C 0.70470 0.14971 -0.11030
 H153 H 0.67111 0.18654 -0.08246
 H154 H 0.72001 0.13913 -0.11427
 H155 H 0.66196 0.16903 -0.15907
 H156 H 0.64826 0.14383 -0.14532
 N157 N 0.11592 0.67070 -0.14358
 N158 N 0.11608 0.65002 -0.15143
 C159 C 0.09746 0.64764 -0.16519
 C160 C 0.08502 0.66794 -0.16637
 C161 C 0.09721 0.68230 -0.15246
 H162 H 0.09384 0.63250 -0.17453
 H163 H 0.09320 0.69993 -0.14961
 Cu164 Cu 0.14178 0.62861 -0.14544
 Cu165 Cu 0.14113 0.68079 -0.12374
 Cu166 Cu 0.16982 0.63596 -0.09455
 N167 N 0.16553 0.60677 -0.13448
 N168 N 0.17586 0.60936 -0.11383
 C169 C 0.19167 0.59239 -0.11039
 C170 C 0.19160 0.57867 -0.13022
 C171 C 0.17473 0.58821 -0.14518
 H172 H 0.20333 0.59101 -0.09530
 H173 H 0.17009 0.58253 -0.16282
 N174 N 0.17152 0.66723 -0.08442
 N175 N 0.16157 0.68460 -0.09594
 C176 C 0.17012 0.70361 -0.08753
 C177 C 0.18643 0.69766 -0.07020
 C178 C 0.18670 0.67460 -0.06867
 H179 H 0.16650 0.72021 -0.09508
 H180 H 0.19876 0.66385 -0.05853
 H181 H 0.16661 0.65445 -0.12595
 H182 H 0.13897 0.65046 -0.10844
 N183 N 0.13023 0.19745 0.34416
 N184 N 0.12728 0.18335 0.32648
 C185 C 0.10683 0.18879 0.31585
 C186 C 0.09654 0.20710 0.32758
 C187 C 0.11179 0.21206 0.34537
 H188 H 0.09996 0.18012 0.30077
 H189 H 0.10990 0.22578 0.35781
 Cu190 Cu 0.15013 0.15854 0.31896
 Cu191 Cu 0.15866 0.19767 0.36329
 Cu192 Cu 0.19999 0.15864 0.34945
 N193 N 0.17080 0.13168 0.32178
 N194 N 0.19014 0.13190 0.33401
 C195 C 0.20008 0.11112 0.33491
 C196 C 0.18653 0.09718 0.32224
 C197 C 0.16800 0.11066 0.31411
 H198 H 0.21556 0.10630 0.34487
 H199 H 0.15303 0.10537 0.30458
 N200 N 0.20488 0.18071 0.37380
 N201 N 0.18818 0.19540 0.37987
 C202 C 0.19549 0.20803 0.39783
 C203 C 0.21797 0.20086 0.40327
 C204 C 0.22345 0.18349 0.38766
 H205 H 0.18527 0.22152 0.40623
 H206 H 0.23952 0.17339 0.38672
 H207 H 0.17024 0.18414 0.33111
 H208 H 0.15813 0.16418 0.35387
 N209 N 0.57010 0.32094 0.69331
 N210 N 0.56485 0.34132 0.70085
 C211 C 0.54518 0.34111 0.71439
 C212 C 0.53783 0.31937 0.71554
 C213 C 0.55403 0.30698 0.70194
 H214 H 0.53753 0.35546 0.72376
 H215 H 0.55456 0.28908 0.69919
 Cu216 Cu 0.58572 0.36555 0.69507
 Cu217 Cu 0.59828 0.31395 0.67448
 Cu218 Cu 0.63117 0.35896 0.65660
 N219 N 0.61193 0.38487 0.69578
 N220 N 0.62994 0.38239 0.68088
 C221 C 0.64534 0.39804 0.68559
 C222 C 0.63639 0.41086 0.70454
 C223 C 0.61520 0.40203 0.71049
 H224 H 0.66174 0.39990 0.67601
 H225 H 0.60307 0.40753 0.72460
 N226 N 0.63469 0.32933 0.64150
 N227 N 0.62242 0.31220 0.64876
 C228 C 0.62822 0.29447 0.63493
 C229 C 0.64502 0.30066 0.61826
 C230 C 0.64881 0.32287 0.62291
 H231 H 0.62049 0.27834 0.63666
 H232 H 0.66076 0.33356 0.61337
 H233 H 0.61857 0.34042 0.68395
 H234 H 0.59787 0.34539 0.65863
 N235 N 0.64525 0.83523 1.17120
 N236 N 0.64455 0.85250 1.18584
 C237 C 0.62506 0.85209 1.19967
 C238 C 0.61289 0.83368 1.19369
 C239 C 0.62615 0.82328 1.17556
 H240 H 0.62031 0.86400 1.21359
 H241 H 0.62219 0.80817 1.16630
 Cu242 Cu 0.66961 0.87387 1.18767
 Cu243 Cu 0.67101 0.82964 1.14721
 Cu244 Cu 0.71464 0.86468 1.14953
 N245 N 0.69626 0.89301 1.18687
 N246 N 0.71400 0.88928 1.17192
 C247 C 0.72967 0.90497 1.17487
 C248 C 0.72140 0.91927 1.19278
 C249 C 0.70015 0.91119 1.20008
 H250 H 0.74578 0.90601 1.16458
 H251 H 0.68830 0.91817 1.21369
 N252 N 0.71066 0.84638 1.12147
 N253 N 0.69398 0.83211 1.12054
 C254 C 0.69622 0.82096 1.09950
 C255 C 0.71513 0.82905 1.08657
 C256 C 0.72375 0.84517 1.10108
 H257 H 0.68491 0.80810 1.09398
 H258 H 0.73871 0.85508 1.09728
 H259 H 0.68662 0.84511 1.17563
 H260 H 0.67261 0.86330 1.15193
 N261 N 0.12401 0.31312 1.18314
 N262 N 0.12499 0.32666 1.20153
 C263 C 0.10427 0.32736 1.21347
 C264 C 0.08958 0.31383 1.20150
 C265 C 0.10261 0.30511 1.18239
 H266 H 0.09998 0.33752 1.22907
 H267 H 0.09701 0.29359 1.16907
 Cu268 Cu 0.15272 0.34334 1.20668
 Cu269 Cu 0.15087 0.30569 1.16247
 Cu270 Cu 0.19297 0.34509 1.16136
 N271 N 0.17540 0.36652 1.20444
 N272 N 0.19070 0.36743 1.18648
 C273 C 0.20351 0.38554 1.18894
 C274 C 0.19573 0.39658 1.20949
 C275 C 0.17790 0.38407 1.21892
 H276 H 0.21729 0.39042 1.17662
 H277 H 0.16725 0.38765 1.23485
 N278 N 0.19232 0.32087 1.13776
 N279 N 0.17647 0.30556 1.13839
 C280 C 0.18117 0.29089 1.12053
 C281 C 0.20094 0.29734 1.10814
 C282 C 0.20752 0.31637 1.11950
 H283 H 0.17106 0.27655 1.11690
 H284 H 0.22252 0.32601 1.11504
 H285 H 0.17813 0.31959 1.18059
 H286 H 0.15786 0.33892 1.16327
 N287 N 0.14189 0.78494 0.68654
 N288 N 0.14555 0.80307 0.69876
 C289 C 0.12913 0.80541 0.71640
 C290 C 0.11447 0.78774 0.71509
 C291 C 0.12313 0.77506 0.69598
 H292 H 0.12780 0.81907 0.72899
 H293 H 0.11620 0.75989 0.68927
 Cu294 Cu 0.17120 0.82195 0.68998
 Cu295 Cu 0.16180 0.77546 0.65941
 Cu296 Cu 0.19553 0.81682 0.63415
 N297 N 0.18961 0.84538 0.67558
 N298 N 0.19838 0.84356 0.65350
 C299 C 0.20909 0.86247 0.64745
 C300 C 0.20701 0.87686 0.66676
 C301 C 0.19461 0.86547 0.68439
 H302 H 0.21780 0.86551 0.63025
 H303 H 0.18915 0.87154 0.70202
 N304 N 0.19056 0.78828 0.61777
 N305 N 0.17756 0.77273 0.62759
 C306 C 0.17660 0.75567 0.61220
 C307 C 0.18978 0.76049 0.59175
 C308 C 0.19853 0.78127 0.59588
 H309 H 0.16685 0.74083 0.61558
 H310 H 0.20945 0.79070 0.58364
 H311 H 0.19091 0.79495 0.66238
 H312 H 0.16395 0.80858 0.64968
 N313 N 0.36333 0.68201 0.67094
 N314 N 0.35947 0.67403 0.69291
 C315 C 0.37885 0.67481 0.70585
 C316 C 0.39580 0.68401 0.69140
 C317 C 0.38543 0.68871 0.66935
 H318 H 0.38062 0.66857 0.72425
 H319 H 0.39369 0.69518 0.65307
 Cu320 Cu 0.33045 0.66123 0.70247
 Cu321 Cu 0.33960 0.67983 0.64616
 Cu322 Cu 0.30723 0.63278 0.65870
 N323 N 0.30826 0.63888 0.70990
 N324 N 0.30041 0.62611 0.69308
 C325 C 0.29042 0.60838 0.70398
 C326 C 0.29223 0.61046 0.72888
 C327 C 0.30330 0.63020 0.73181
 H328 H 0.28403 0.59428 0.69455
 H329 H 0.30965 0.63658 0.74846
 N330 N 0.30949 0.64745 0.62611
 N331 N 0.32078 0.66595 0.62165
 C332 C 0.31724 0.67278 0.59857
 C333 C 0.30327 0.65771 0.58794
 C334 C 0.29873 0.64190 0.60584
 H335 H 0.32430 0.68759 0.59018
 H336 H 0.28760 0.62789 0.60448
 H337 H 0.31013 0.66650 0.66447
 H338 H 0.33778 0.64925 0.66112
 N339 N 0.37035 0.18365 1.19493
 N340 N 0.37128 0.17171 1.21517
 C341 C 0.39109 0.17531 1.22645
 C342 C 0.40327 0.19056 1.21291
 C343 C 0.38961 0.19579 1.19300
 H344 H 0.39643 0.16707 1.24316
 H345 H 0.39390 0.20659 1.17777
 Cu346 Cu 0.34750 0.15151 1.22520
 Cu347 Cu 0.34473 0.18013 1.17242
 Cu348 Cu 0.32209 0.12725 1.17984
 N349 N 0.33053 0.12470 1.23079
 N350 N 0.32070 0.11497 1.21279
 C351 C 0.31134 0.09598 1.22109
 C352 C 0.31564 0.09377 1.24559
 C353 C 0.32784 0.11232 1.25118
 H354 H 0.30241 0.08450 1.21003
 H355 H 0.33467 0.11630 1.26857
 N356 N 0.31752 0.14633 1.15059
 N357 N 0.32519 0.16677 1.14782
 C358 C 0.31673 0.17591 1.12703
 C359 C 0.30305 0.16040 1.11643
 C360 C 0.30410 0.14194 1.13186
 H361 H 0.31958 0.19280 1.12059
 H362 H 0.29477 0.12675 1.13026
 H363 H 0.32129 0.15975 1.19165
 H364 H 0.35025 0.14788 1.18136
 N365 N 0.87285 0.67031 1.16050
 N366 N 0.86747 0.65414 1.17583
 C367 C 0.88094 0.65508 1.19540
 C368 C 0.89556 0.67267 1.19200
 C369 C 0.89003 0.68190 1.16964
 H370 H 0.87982 0.64419 1.21119
 H371 H 0.89723 0.69659 1.16118
 Cu372 Cu 0.84232 0.63465 1.16902
 Cu373 Cu 0.85534 0.67699 1.13127
 Cu374 Cu 0.80854 0.64400 1.12077
 N375 N 0.81702 0.61526 1.16250
 N376 N 0.80354 0.61935 1.14385
 C377 C 0.78692 0.60420 1.14391
 C378 C 0.79019 0.58984 1.16359
 C379 C 0.80944 0.59732 1.17501
 H380 H 0.77339 0.60373 1.13069
 H381 H 0.81702 0.59043 1.19142
 N382 N 0.81684 0.66957 1.09949
 N383 N 0.83535 0.68131 1.10293
 C384 C 0.83673 0.69715 1.08537
 C385 C 0.81812 0.69549 1.07031
 C386 C 0.80580 0.67788 1.07975
 H387 H 0.84987 0.70951 1.08404
 H388 H 0.78997 0.67167 1.07274
 H389 H 0.82429 0.66468 1.14437
 H390 H 0.84359 0.64516 1.12624
 N391 N 0.89117 0.19537 0.68269
 N392 N 0.89570 0.17546 0.69245
 C393 C 0.91579 0.17569 0.70439
 C394 C 0.92434 0.19690 0.70188
 C395 C 0.90835 0.20897 0.68790
 H396 H 0.92297 0.16184 0.71516
 H397 H 0.90840 0.22665 0.68326
 Cu398 Cu 0.87348 0.15209 0.69124
 Cu399 Cu 0.86170 0.20280 0.66727
 Cu400 Cu 0.82647 0.15824 0.65656
 N401 N 0.84723 0.13313 0.69594
 N402 N 0.82907 0.13474 0.68187
 C403 C 0.81413 0.11890 0.68879
 C404 C 0.82340 0.10718 0.70852
 C405 C 0.84434 0.11671 0.71253
 H406 H 0.79754 0.11655 0.68059
 H407 H 0.85667 0.11197 0.72642
 N408 N 0.82192 0.18818 0.64074
 N409 N 0.83503 0.20506 0.64559
 C410 C 0.82758 0.22330 0.63292
 C411 C 0.80888 0.21783 0.61943
 C412 C 0.80569 0.19537 0.62472
 H413 H 0.83544 0.23939 0.63327
 H414 H 0.79242 0.18517 0.61770
 H415 H 0.84082 0.17749 0.68091
 H416 H 0.85994 0.17111 0.65407
 N417 N 0.31010 0.38773 0.69716
 N418 N 0.32871 0.38222 0.70975
 C419 C 0.33530 0.40026 0.72154
 C420 C 0.31975 0.41792 0.71649
 C421 C 0.30380 0.40941 0.70111
 H422 H 0.34959 0.40026 0.73393
 H423 H 0.28871 0.41821 0.69356
 Cu424 Cu 0.34072 0.35139 0.71232
 Cu425 Cu 0.29565 0.36591 0.67702
 Cu426 Cu 0.33119 0.31837 0.66615
 N427 N 0.35137 0.32005 0.71291
 N428 N 0.34746 0.30709 0.69465
 C429 C 0.35772 0.28672 0.69866
 C430 C 0.36859 0.28693 0.72069
 C431 C 0.36424 0.30835 0.72928
 H432 H 0.35793 0.27309 0.68604
 H433 H 0.37062 0.31509 0.74577
 N434 N 0.30561 0.32831 0.64511
 N435 N 0.29127 0.34566 0.64975
 C436 C 0.27500 0.34725 0.63253
 C437 C 0.27952 0.33009 0.61637
 C438 C 0.29901 0.31846 0.62490
 H439 H 0.26113 0.36006 0.63165
 H440 H 0.30750 0.30363 0.61723
 H441 H 0.30982 0.33503 0.68976
 H442 H 0.32832 0.35335 0.67044
 N443 N 0.32839 0.89056 0.18975
 N444 N 0.34573 0.88326 0.20330
 C445 C 0.34598 0.89581 0.22327
 C446 C 0.32778 0.91172 0.22211
 C447 C 0.31703 0.90796 0.20058
 H448 H 0.35806 0.89317 0.23787
 H449 H 0.30156 0.91667 0.19378
 Cu450 Cu 0.36557 0.85726 0.19445
 Cu451 Cu 0.32037 0.87556 0.16048
 Cu452 Cu 0.35742 0.83190 0.14132
 N453 N 0.38796 0.83493 0.18150
 N454 N 0.38493 0.82517 0.16076
 C455 C 0.40301 0.81050 0.15648
 C456 C 0.41810 0.81111 0.17561
 C457 C 0.40800 0.82678 0.19113
 H458 H 0.40491 0.80002 0.14077
 H459 H 0.41476 0.83185 0.20818
 N460 N 0.32863 0.84142 0.12424
 N461 N 0.31486 0.85841 0.13138
 C462 C 0.29652 0.86059 0.11668
 C463 C 0.29873 0.84415 0.09951
 C464 C 0.31929 0.83227 0.10478
 H465 H 0.28219 0.87280 0.11874
 H466 H 0.32662 0.81780 0.09538
 H467 H 0.33544 0.84406 0.16847
 H468 H 0.35451 0.86458 0.15271
 N469 N 0.79829 0.36616 0.15377
 N470 N 0.81273 0.36827 0.17181
 C471 C 0.80650 0.38737 0.18353
 C472 C 0.78732 0.39748 0.17224
 C473 C 0.78274 0.38360 0.15349
 H474 H 0.81480 0.39316 0.19947
 H475 H 0.76888 0.38587 0.14067
 Cu476 Cu 0.83763 0.34490 0.17975
 Cu477 Cu 0.79960 0.34097 0.13138
 Cu478 Cu 0.83712 0.29956 0.14534
 N479 N 0.86001 0.31895 0.18423
 N480 N 0.85781 0.30066 0.17179
 C481 C 0.87550 0.28598 0.17626
 C482 C 0.89011 0.29539 0.19210
 C483 C 0.87969 0.31634 0.19724
 H484 H 0.87868 0.27045 0.16675
 H485 H 0.88681 0.32925 0.20796
 N486 N 0.82640 0.30368 0.11286
 N487 N 0.81093 0.31961 0.10709
 C488 C 0.80621 0.31814 0.08338
 C489 C 0.82025 0.30081 0.07401
 C490 C 0.83271 0.29200 0.09316
 H491 H 0.79393 0.32903 0.07369
 H492 H 0.84515 0.27786 0.09293
 H493 H 0.81138 0.32788 0.16494
 H494 H 0.83289 0.33998 0.14337
 N495 N 0.82785 0.88382 0.68875
 N496 N 0.84622 0.88098 0.70238
 C497 C 0.84772 0.89907 0.71637
 C498 C 0.82932 0.91396 0.71101
 C499 C 0.81705 0.90372 0.69348
 H500 H 0.86106 0.90113 0.72952
 H501 H 0.80118 0.91002 0.68510
 Cu502 Cu 0.86626 0.85382 0.70054
 Cu503 Cu 0.81859 0.86107 0.66687
 Cu504 Cu 0.86403 0.82510 0.64863
 N505 N 0.89097 0.83239 0.69079
 N506 N 0.89067 0.82270 0.66965
 C507 C 0.91001 0.80950 0.66685
 C508 C 0.92301 0.81071 0.68740
 C509 C 0.91044 0.82533 0.70238
 H510 H 0.91380 0.79892 0.65147
 H511 H 0.91511 0.83044 0.72023
 N512 N 0.83503 0.82950 0.63057
 N513 N 0.81734 0.84254 0.63815
 C514 C 0.79967 0.84127 0.62278
 C515 C 0.80659 0.82665 0.60469
 C516 C 0.82906 0.81948 0.61015
 H517 H 0.78309 0.85041 0.62456
 H518 H 0.84008 0.80763 0.60013
 H519 H 0.84034 0.83281 0.67539
 H520 H 0.85335 0.85702 0.65901
 N521 N 0.68302 0.61781 0.63263
 N522 N 0.66345 0.61813 0.64534
 C523 C 0.66230 0.59870 0.65810
 C524 C 0.68201 0.58556 0.65246
 C525 C 0.69467 0.59810 0.63623
 H526 H 0.64788 0.59412 0.66977
 H527 H 0.71123 0.59326 0.62780
 Cu528 Cu 0.64022 0.64279 0.64186
 Cu529 Cu 0.69213 0.64309 0.61304
 Cu530 Cu 0.65461 0.68582 0.60161
 N531 N 0.61940 0.66930 0.63507
 N532 N 0.62441 0.68516 0.61902
 C533 C 0.60671 0.70070 0.61853
 C534 C 0.59001 0.69446 0.63529
 C535 C 0.59855 0.67454 0.64545
 H536 H 0.60644 0.71596 0.60768
 H537 H 0.59034 0.66485 0.65968
 N538 N 0.68340 0.68146 0.58271
 N539 N 0.69802 0.66443 0.58724
 C540 C 0.71739 0.66645 0.57358
 C541 C 0.71494 0.68594 0.55992
 C542 C 0.69310 0.69508 0.56602
 H543 H 0.73267 0.65528 0.57460
 H544 H 0.68546 0.71101 0.55987
 H545 H 0.66246 0.66746 0.63293
 H546 H 0.65111 0.65183 0.60719
 N547 N 0.67368 0.13233 0.17384
 N548 N 0.65129 0.13026 0.17783
 C549 C 0.64809 0.11130 0.19086
 C550 C 0.66975 0.10111 0.19512
 C551 C 0.68555 0.11494 0.18415
 H552 H 0.63138 0.10566 0.19717
 H553 H 0.70432 0.11279 0.18397
 Cu554 Cu 0.62906 0.15343 0.16666
 Cu555 Cu 0.68593 0.15795 0.15680
 Cu556 Cu 0.64597 0.18939 0.12292
 N557 N 0.61114 0.18101 0.15946
 N558 N 0.61720 0.19474 0.14176
 C559 C 0.60197 0.21255 0.14118
 C560 C 0.58585 0.20992 0.15980
 C561 C 0.59214 0.18973 0.17099
 H562 H 0.60331 0.22685 0.12899
 H563 H 0.58389 0.18220 0.18672
 N564 N 0.67964 0.18867 0.11576
 N565 N 0.69475 0.17760 0.12967
 C566 C 0.71624 0.17957 0.12025
 C567 C 0.71466 0.19244 0.09936
 C568 C 0.69120 0.19810 0.09701
 H569 H 0.73172 0.17112 0.12738
 H570 H 0.68308 0.20763 0.08239
 H571 H 0.65781 0.18101 0.15581
 H572 H 0.65845 0.15714 0.13451
 N573 N 0.18566 0.62417 0.15365
 N574 N 0.17492 0.62049 0.17450
 C575 C 0.17949 0.59919 0.18184
 C576 C 0.19360 0.58892 0.16450
 C577 C 0.19721 0.60515 0.14683
 H578 H 0.17295 0.59171 0.19846
 H579 H 0.20815 0.60350 0.13076
 Cu580 Cu 0.15485 0.64307 0.18971
 Cu581 Cu 0.18557 0.65379 0.13815
 Cu582 Cu 0.14812 0.69390 0.16400
 N583 N 0.12735 0.66210 0.19616
 N584 N 0.12439 0.68167 0.18514
 C585 C 0.10366 0.69106 0.19183
 C586 C 0.09310 0.67657 0.20796
 C587 C 0.10862 0.65837 0.21047
 H588 H 0.09694 0.70734 0.18564
 H589 H 0.10633 0.64344 0.22149
 N590 N 0.16852 0.70021 0.13616
 N591 N 0.18282 0.68512 0.12593
 C592 C 0.19373 0.69484 0.10683
 C593 C 0.18554 0.71696 0.10502
 C594 C 0.16966 0.71972 0.12386
 H595 H 0.20609 0.68636 0.09473
 H596 H 0.15930 0.73475 0.12807
 H597 H 0.17724 0.67166 0.16837
 H598 H 0.15238 0.66218 0.15060
 N599 N 0.17775 0.10855 0.66151
 N600 N 0.16314 0.11107 0.67993
 C601 C 0.16177 0.09143 0.69205
 C602 C 0.17656 0.07587 0.68079
 C603 C 0.18649 0.08725 0.66147
 H604 H 0.15174 0.08896 0.70857
 H605 H 0.19952 0.08067 0.64878
 Cu606 Cu 0.14951 0.14018 0.68828
 Cu607 Cu 0.18479 0.13339 0.63976
 Cu608 Cu 0.15285 0.18345 0.64847
 N609 N 0.12991 0.16713 0.69147
 N610 N 0.13059 0.18387 0.67570
 C611 C 0.11541 0.20041 0.68295
 C612 C 0.10494 0.19355 0.70447
 C613 C 0.11451 0.17240 0.70927
 H614 H 0.11279 0.21646 0.67378
 H615 H 0.11068 0.16170 0.72470
 N616 N 0.17661 0.17932 0.62234
 N617 N 0.18913 0.16040 0.61966
 C618 C 0.20549 0.16332 0.60232
 C619 C 0.20316 0.18504 0.59356
 C620 C 0.18462 0.19476 0.60648
 H621 H 0.21862 0.15077 0.59693
 H622 H 0.17834 0.21209 0.60534
 H623 H 0.17670 0.16029 0.66247
 H624 H 0.15215 0.14918 0.64535
 N625 N 0.33445 0.61932 0.28137
 N626 N 0.34604 0.62786 0.26295
 C627 C 0.34278 0.61568 0.24313
 C628 C 0.32829 0.59860 0.24963
 C629 C 0.32335 0.60143 0.27401
 H630 H 0.35078 0.61870 0.22556
 H631 H 0.31296 0.59094 0.28570
 Cu632 Cu 0.36563 0.65282 0.26770
 Cu633 Cu 0.33634 0.63099 0.31384
 Cu634 Cu 0.36229 0.68213 0.31920
 N635 N 0.39068 0.67095 0.27735
 N636 N 0.38956 0.68335 0.29681
 C637 C 0.40959 0.69431 0.29807
 C638 C 0.42392 0.68779 0.27863
 C639 C 0.41131 0.67303 0.26604
 H640 H 0.41375 0.70543 0.31241
 H641 H 0.41672 0.66438 0.24970
 N642 N 0.34029 0.67029 0.34426
 N643 N 0.33172 0.65029 0.34216
 C644 C 0.31754 0.64624 0.36110
 C645 C 0.31680 0.66441 0.37615
 C646 C 0.33148 0.67955 0.36494
 H647 H 0.30760 0.63138 0.36319
 H648 H 0.33531 0.69599 0.37123
 H649 H 0.33835 0.66335 0.30055
 H650 H 0.36592 0.64983 0.31182
 N651 N 0.30161 0.08946 0.82442
 N652 N 0.31917 0.09658 0.81118
 C653 C 0.32071 0.08523 0.79048
 C654 C 0.30322 0.07016 0.79046
 C655 C 0.29135 0.07322 0.81234
 H656 H 0.33375 0.08776 0.77645
 H657 H 0.27630 0.06450 0.81881
 Cu658 Cu 0.33915 0.11986 0.82126
 Cu659 Cu 0.29347 0.10254 0.85592
 Cu660 Cu 0.33362 0.13798 0.87760
 N661 N 0.36407 0.13527 0.83626
 N662 N 0.36232 0.14101 0.85906
 C663 C 0.38109 0.15222 0.86480
 C664 C 0.39526 0.15392 0.84441
 C665 C 0.38396 0.14295 0.82655
 H666 H 0.38335 0.16012 0.88196
 H667 H 0.38927 0.14154 0.80774
 N668 N 0.30511 0.13105 0.89563
 N669 N 0.28927 0.11800 0.88735
 C670 C 0.27058 0.11893 0.90260
 C671 C 0.27503 0.13337 0.92112
 C672 C 0.29705 0.14056 0.91614
 H673 H 0.25454 0.11068 0.89979
 H674 H 0.30604 0.15278 0.92612
 H675 H 0.30928 0.13194 0.85071
 H676 H 0.32781 0.10733 0.86154
 N677 N 0.80264 0.61070 0.80238
 N678 N 0.82278 0.60808 0.79090
 C679 C 0.82199 0.59106 0.77542
 C680 C 0.80016 0.58240 0.77729
 C681 C 0.78828 0.59524 0.79460
 H682 H 0.83623 0.58546 0.76363
 H683 H 0.77054 0.59349 0.80098
 Cu684 Cu 0.84806 0.62727 0.79707
 Cu685 Cu 0.79718 0.63412 0.82647
 Cu686 Cu 0.83992 0.67335 0.83072
 N687 N 0.86946 0.65125 0.79514
 N688 N 0.86682 0.66929 0.80836
 C689 C 0.88427 0.68304 0.80268
 C690 C 0.89820 0.67298 0.78476
 C691 C 0.88822 0.65292 0.78053
 H692 H 0.88628 0.69931 0.81043
 H693 H 0.89402 0.64045 0.76754
 N694 N 0.81118 0.67396 0.85142
 N695 N 0.79511 0.65897 0.84968
 C696 C 0.77829 0.66313 0.86649
 C697 C 0.78387 0.68161 0.87944
 C698 C 0.80482 0.68814 0.86940
 H699 H 0.76319 0.65322 0.86935
 H700 H 0.81488 0.70186 0.87515
 H701 H 0.81904 0.65602 0.80861
 H702 H 0.83125 0.64035 0.83535
 N703 N 0.79621 0.14432 0.35420
 N704 N 0.81097 0.13964 0.33633
 C705 C 0.80275 0.12294 0.32335
 C706 C 0.78181 0.11686 0.33374
 C707 C 0.77822 0.13074 0.35329
 H708 H 0.81131 0.11571 0.30755
 H709 H 0.76351 0.13109 0.36579
 Cu710 Cu 0.83946 0.15589 0.33178
 Cu711 Cu 0.80089 0.16821 0.37677
 Cu712 Cu 0.84939 0.19972 0.36710
 N713 N 0.86668 0.17389 0.32684
 N714 N 0.87009 0.19131 0.34030
 C715 C 0.88973 0.20095 0.33279
 C716 C 0.89922 0.18884 0.31371
 C717 C 0.88421 0.17178 0.31038
 H718 H 0.89674 0.21553 0.34076
 H719 H 0.88584 0.15896 0.29684
 N720 N 0.82660 0.20558 0.39344
 N721 N 0.80851 0.19314 0.39755
 C722 C 0.79639 0.20112 0.41685
 C723 C 0.80731 0.21951 0.42513
 C724 C 0.82638 0.22191 0.40993
 H725 H 0.78046 0.19444 0.42403
 H726 H 0.83905 0.23469 0.41077
 H727 H 0.81984 0.18728 0.35251
 H728 H 0.83678 0.16825 0.37359
 N729 N 0.68165 0.38231 0.34324
 N730 N 0.66685 0.38831 0.32625
 C731 C 0.67538 0.40538 0.31304
 C732 C 0.69671 0.41025 0.32222
 C733 C 0.70013 0.39532 0.34138
 H734 H 0.66702 0.41322 0.29751
 H735 H 0.71514 0.39374 0.35282
 Cu736 Cu 0.63842 0.37253 0.32205
 Cu737 Cu 0.67631 0.35750 0.36586
 Cu738 Cu 0.63096 0.32409 0.35290
 N739 N 0.61545 0.35161 0.31263
 N740 N 0.61301 0.33253 0.32447
 C741 C 0.59636 0.32115 0.31411
 C742 C 0.58784 0.33377 0.29478
 C743 C 0.60031 0.35306 0.29432
 H744 H 0.59068 0.30497 0.32031
 H745 H 0.59862 0.36698 0.28158
 N746 N 0.65096 0.31848 0.38100
 N747 N 0.66797 0.33151 0.38635
 C748 C 0.67809 0.32355 0.40675
 C749 C 0.66695 0.30456 0.41443
 C750 C 0.64989 0.30183 0.39771
 H751 H 0.69269 0.33080 0.41521
 H752 H 0.63759 0.28868 0.39775
 H753 H 0.65976 0.34038 0.33961
 H754 H 0.64075 0.35559 0.36245
 N755 N 0.68368 0.87690 0.79558
 N756 N 0.67197 0.87379 0.77587
 C757 C 0.67389 0.89145 0.76078
 C758 C 0.68772 0.90663 0.77128
 C759 C 0.69381 0.89688 0.79345
 H760 H 0.66574 0.89303 0.74335
 H761 H 0.70467 0.90376 0.80692
 Cu762 Cu 0.65482 0.84732 0.77113
 Cu763 Cu 0.68428 0.85397 0.82170
 Cu764 Cu 0.63935 0.81671 0.81931
 N765 N 0.62919 0.82777 0.76990
 N766 N 0.62300 0.81562 0.78881
 C767 C 0.60420 0.80423 0.78325
 C768 C 0.59824 0.80999 0.75975
 C769 C 0.61442 0.82496 0.75184
 H770 H 0.59507 0.79326 0.79560
 H771 H 0.61516 0.83353 0.73445
 N772 N 0.65826 0.82016 0.84822
 N773 N 0.67609 0.83334 0.84895
 C774 C 0.68675 0.82985 0.87033
 C775 C 0.67478 0.81400 0.88360
 C776 C 0.65686 0.80838 0.86911
 H777 H 0.70215 0.83802 0.87575
 H778 H 0.64440 0.79574 0.87310
 H779 H 0.67121 0.82604 0.80571
 H780 H 0.65038 0.84929 0.81470
 N781 N 0.20622 0.36514 0.85438
 N782 N 0.19344 0.37339 0.83658
 C783 C 0.20291 0.39215 0.82769
 C784 C 0.22264 0.39574 0.84060
 C785 C 0.22426 0.37830 0.85735
 H786 H 0.19595 0.40250 0.81305
 H787 H 0.23729 0.37565 0.87104
 Cu788 Cu 0.16567 0.35882 0.82705
 Cu789 Cu 0.19805 0.33853 0.87317
 Cu790 Cu 0.14730 0.31364 0.85750
 N791 N 0.13794 0.34411 0.81748
 N792 N 0.13053 0.32679 0.82999
 C793 C 0.11155 0.31937 0.81950
 C794 C 0.10690 0.33261 0.79924
 C795 C 0.12397 0.34818 0.79845
 H796 H 0.10224 0.30493 0.82568
 H797 H 0.12628 0.36114 0.78479
 N798 N 0.16683 0.30274 0.88459
 N799 N 0.18660 0.31163 0.89006
 C800 C 0.19603 0.30005 0.90893
 C801 C 0.18137 0.28321 0.91567
 C802 C 0.16307 0.28544 0.89992
 H803 H 0.21206 0.30382 0.91749
 H804 H 0.14814 0.27511 0.89962
 H805 H 0.17976 0.32384 0.84640
 H806 H 0.16284 0.34240 0.86776
 N807 N 0.18030 0.85914 0.32311
 N808 N 0.16585 0.86116 0.30502
 C809 C 0.16697 0.88161 0.29484
 C810 C 0.18313 0.89327 0.30688
 C811 C 0.19151 0.87850 0.32475
 H812 H 0.15676 0.88744 0.27959
 H813 H 0.20442 0.88167 0.33806
 Cu814 Cu 0.14648 0.83742 0.29552
 Cu815 Cu 0.18201 0.83115 0.34261
 Cu816 Cu 0.12947 0.80432 0.34083
 N817 N 0.12011 0.81897 0.29231
 N818 N 0.11290 0.80623 0.31032
 C819 C 0.09338 0.79644 0.30377
 C820 C 0.08830 0.80350 0.28035
 C821 C 0.10566 0.81775 0.27368
 H822 H 0.08361 0.78518 0.31519
 H823 H 0.10744 0.82693 0.25674
 N824 N 0.15328 0.79772 0.36555
 N825 N 0.17367 0.80703 0.36599
 C826 C 0.18673 0.79652 0.38323
 C827 C 0.17383 0.77978 0.39394
 C828 C 0.15280 0.78120 0.38231
 H829 H 0.20451 0.80016 0.38701
 H830 H 0.13855 0.77017 0.38489
 H831 H 0.16136 0.80893 0.32400
 H832 H 0.14761 0.83380 0.33948
 O833 O 0.26583 1.02095 0.26368
 O834 O 0.22417 0.97722 0.27309
 O835 O 0.22413 1.02013 0.28115
 O836 O 0.26734 0.97788 0.25722
 O837 O 0.28132 0.97278 0.29392
 O838 O 0.23545 1.01120 0.31818
 O839 O 0.23839 0.96835 0.30899
 O840 O 0.27755 1.01587 0.30126
 Cu841 Cu 0.24403 0.99951 0.26506
 Cu842 Cu 0.25949 0.99133 0.30929
 C843 C 0.27828 1.02640 0.28104
 C844 C 0.22419 0.96518 0.29223
 C845 C 0.22253 1.02275 0.30389
 C846 C 0.28200 0.96853 0.27154
 O847 O 0.24610 0.47623 0.79942
 O848 O 0.26161 0.52974 0.76950
 O849 O 0.27178 0.48681 0.76214
 O850 O 0.23629 0.51881 0.80741
 O851 O 0.26640 0.51775 0.83162
 O852 O 0.30256 0.48995 0.78481
 O853 O 0.29048 0.53156 0.79500
 O854 O 0.27763 0.47679 0.82148
 Cu855 Cu 0.25087 0.50282 0.78215
 Cu856 Cu 0.28744 0.50417 0.81038
 C857 C 0.25946 0.46732 0.81529
 C858 C 0.27832 0.54010 0.77801
 C859 C 0.29327 0.48285 0.76601
 C860 C 0.24535 0.52338 0.82740
 O861 O 0.75587 0.00421 0.23084
 O862 O 0.76109 0.05179 0.27100
 O863 O 0.78107 0.01250 0.26777
 O864 O 0.73400 0.04350 0.23546
 O865 O 0.70771 0.02839 0.25963
 O866 O 0.75463 -0.00024 0.29353
 O867 O 0.73379 0.03856 0.29536
 O868 O 0.73010 -0.01059 0.25585
 Cu869 Cu 0.76050 0.02936 0.24853
 Cu870 Cu 0.72886 0.01244 0.27846
 C871 C 0.74248 -0.01141 0.23652
 C872 C 0.74859 0.05319 0.29014
 C873 C 0.77567 0.00156 0.28682
 C874 C 0.71293 0.04135 0.24215
 O875 O 0.72110 0.48566 0.77493
 O876 O 0.69980 0.52338 0.72515
 O877 O 0.68603 0.48654 0.74590
 O878 O 0.73297 0.52438 0.75663
 O879 O 0.75540 0.50607 0.73002
 O880 O 0.70834 0.46709 0.72010
 O881 O 0.72192 0.50368 0.69941
 O882 O 0.74396 0.46773 0.74840
 Cu883 Cu 0.70771 0.50689 0.75327
 Cu884 Cu 0.73466 0.48429 0.72191
 C885 C 0.73634 0.47025 0.76986
 C886 C 0.70732 0.51967 0.70371
 C887 C 0.68903 0.47042 0.73140
 C888 C 0.75217 0.52176 0.74514
 O889 O 0.25340 0.46838 0.20613
 O890 O 0.29082 0.51762 0.20418
 O891 O 0.29505 0.47707 0.22122
 O892 O 0.25214 0.50781 0.18443
 O893 O 0.23538 0.52198 0.21740
 O894 O 0.27698 0.48824 0.25485
 O895 O 0.27391 0.52897 0.23835
 O896 O 0.23545 0.48221 0.23862
 Cu897 Cu 0.27450 0.49128 0.20067
 Cu898 Cu 0.25350 0.50644 0.24058
 C899 C 0.23790 0.46717 0.22286
 C900 C 0.28874 0.53152 0.22138
 C901 C 0.29366 0.47754 0.24407
 C902 C 0.23713 0.52089 0.19445
 O903 O 0.72908 0.98779 0.72770
 O904 O 0.76805 1.03469 0.72034
 O905 O 0.77330 0.99053 0.71942
 O906 O 0.72356 1.03099 0.72895
 O907 O 0.73023 1.02918 0.76816
 O908 O 0.78011 0.98974 0.75862
 O909 O 0.77451 1.03297 0.75959
 O910 O 0.73601 0.98536 0.76684
 Cu911 Cu 0.74798 1.01118 0.72011
 Cu912 Cu 0.75577 1.00927 0.76726
 C913 C 0.72606 0.97847 0.74828
 C914 C 0.77787 1.04188 0.73883
 C915 C 0.78492 0.98308 0.73740
 C916 C 0.71851 1.03691 0.75042
 O917 O 0.77064 0.47372 0.22563
 O918 O 0.75779 0.51896 0.26850
 O919 O 0.75638 0.47581 0.27033
 O920 O 0.77094 0.51788 0.22328
 O921 O 0.73438 0.51961 0.21175
 O922 O 0.71964 0.47835 0.25938
 O923 O 0.72126 0.52233 0.25694
 O924 O 0.73396 0.47603 0.21448
 Cu925 Cu 0.76765 0.49642 0.24794
 Cu926 Cu 0.72362 0.49928 0.23451
 C927 C 0.75433 0.46690 0.21301
 C928 C 0.73763 0.52838 0.27006
 C929 C 0.73552 0.46992 0.27282
 C930 C 0.75505 0.52600 0.20963
 O931 O 0.27848 0.00753 0.71342
 O932 O 0.25088 -0.03650 0.68148
 O933 O 0.23945 0.00514 0.69133
 O934 O 0.28813 -0.03478 0.70682
 O935 O 0.26985 -0.04296 0.74120
 O936 O 0.22053 -0.00572 0.72438
 O937 O 0.23327 -0.04758 0.71522
 O938 O 0.25934 -0.00056 0.74727
 Cu939 Cu 0.26602 -0.01369 0.69488
 Cu940 Cu 0.24377 -0.02512 0.73535
 C941 C 0.27379 0.01124 0.73549
 C942 C 0.23789 -0.04991 0.69272
 C943 C 0.22168 0.00639 0.70538
 C944 C 0.28721 -0.04553 0.72688
 O945 O 0.23259 0.23515 0.98493
 O946 O 0.26579 0.20355 1.03272
 O947 O 0.25458 0.19588 0.98796
 O948 O 0.24509 0.24306 1.02879
 O949 O 0.21301 0.22835 1.04328
 O950 O 0.22153 0.18159 1.00028
 O951 O 0.23323 0.18808 1.04460
 O952 O 0.20029 0.22072 0.99923
 Cu953 Cu 0.25278 0.22082 1.00722
 Cu954 Cu 0.21377 0.20329 1.02333
 C955 C 0.21068 0.23322 0.98413
 C956 C 0.25493 0.19014 1.04655
 C957 C 0.23972 0.18088 0.98682
 C958 C 0.22759 0.24375 1.04308
 O959 O 0.23446 0.73556 0.46001
 O960 O 0.27104 0.70268 0.50451
 O961 O 0.27164 0.70730 0.45644
 O962 O 0.23630 0.73200 0.50761
 O963 O 0.21317 0.70356 0.50630
 O964 O 0.24750 0.67966 0.45593
 O965 O 0.24738 0.67474 0.50202
 O966 O 0.21108 0.70728 0.45979
 Cu967 Cu 0.25584 0.72223 0.48201
 Cu968 Cu 0.22742 0.68867 0.48062
 C969 C 0.21605 0.72687 0.45290
 C970 C 0.26502 0.68312 0.51094
 C971 C 0.26562 0.68886 0.44790
 C972 C 0.21895 0.72158 0.51586
 O973 O 0.27310 0.78665 -0.01648
 O974 O 0.24001 0.75708 0.03247
 O975 O 0.24922 0.75042 -0.01346
 O976 O 0.26751 0.79065 0.03025
 O977 O 0.23631 0.81243 0.02284
 O978 O 0.21742 0.77112 -0.02134
 O979 O 0.20928 0.77914 0.02407
 O980 O 0.24133 0.80773 -0.02351
 Cu981 Cu 0.26055 0.76899 0.00885
 Cu982 Cu 0.22303 0.79473 -0.00044
 C983 C 0.26255 0.80266 -0.02795
 C984 C 0.21892 0.76358 0.03664
 C985 C 0.23033 0.75350 -0.02461
 C986 C 0.25513 0.80834 0.03415
 O987 O 0.26186 0.24076 0.52868
 O988 O 0.27642 0.28693 0.48726
 O989 O 0.27087 0.28267 0.53422
 O990 O 0.26683 0.24530 0.48243
 O991 O 0.22940 0.25490 0.47996
 O992 O 0.23375 0.29319 0.53093
 O993 O 0.23911 0.29677 0.48418
 O994 O 0.22455 0.25108 0.52693
 Cu995 Cu 0.27278 0.26305 0.50852
 Cu996 Cu 0.22793 0.27499 0.50523
 C997 C 0.24082 0.23798 0.53480
 C998 C 0.26027 0.29948 0.47837
 C999 C 0.25307 0.29427 0.54137
 C1000 C 0.24732 0.24367 0.47248
 O1001 O 0.73747 0.78249 0.95104
 O1002 O 0.78187 0.75515 0.99015
 O1003 O 0.76530 0.74681 0.94786
 O1004 O 0.75343 0.79008 0.99402
 O1005 O 0.72710 0.76931 1.01197
 O1006 O 0.73815 0.72663 0.96523
 O1007 O 0.75531 0.73421 1.00745
 O1008 O 0.71073 0.76234 0.96920
 Cu1009 Cu 0.76216 0.77074 0.96904
 Cu1010 Cu 0.73013 0.74606 0.99015
 C1011 C 0.71649 0.77699 0.95348
 C1012 C 0.77620 0.74009 1.00541
 C1013 C 0.75353 0.72931 0.94872
 C1014 C 0.73854 0.78699 1.01095
 O1015 O 0.71401 0.28551 0.49770
 O1016 O 0.75336 0.27285 0.54800
 O1017 O 0.75759 0.27344 0.50125
 O1018 O 0.70947 0.28477 0.54514
 O1019 O 0.70116 0.24902 0.54475
 O1020 O 0.74816 0.23800 0.50028
 O1021 O 0.74522 0.23706 0.54741
 O1022 O 0.70454 0.25006 0.49766
 Cu1023 Cu 0.73438 0.28276 0.52315
 Cu1024 Cu 0.72384 0.23996 0.52254
 C1025 C 0.70278 0.26989 0.48891
 C1026 C 0.75624 0.25291 0.55612
 C1027 C 0.76081 0.25377 0.49312
 C1028 C 0.69732 0.26868 0.55259
 O1029 O 0.80155 0.22408 -0.04229
 O1030 O 0.78118 0.20538 0.01741
 O1031 O 0.77394 0.19375 -0.02676
 O1032 O 0.80776 0.23628 0.00136
 O1033 O 0.77702 0.25990 0.00146
 O1034 O 0.74442 0.21843 -0.03071
 O1035 O 0.74994 0.22815 0.01462
 O1036 O 0.77278 0.24986 -0.04379
 Cu1037 Cu 0.79408 0.21237 -0.01235
 Cu1038 Cu 0.75789 0.24151 -0.01492
 C1039 C 0.79112 0.24048 -0.05293
 C1040 C 0.76212 0.21340 0.02616
 C1041 C 0.75360 0.19896 -0.03397
 C1042 C 0.79807 0.25512 0.00663
 O1043 O 0.75877 0.76425 0.45929
 O1044 O 0.76183 0.79429 0.51635
 O1045 O 0.77318 0.80338 0.47184
 O1046 O 0.74934 0.75481 0.50445
 O1047 O 0.78517 0.74083 0.50953
 O1048 O 0.80869 0.78815 0.47567
 O1049 O 0.79779 0.78059 0.52114
 O1050 O 0.79418 0.74933 0.46465
 Cu1051 Cu 0.75719 0.78066 0.48738
 Cu1052 Cu 0.80010 0.76338 0.49334
 C1053 C 0.77570 0.75133 0.45251
 C1054 C 0.78035 0.79267 0.52838
 C1055 C 0.79501 0.80385 0.46814
 C1056 C 0.76337 0.73951 0.51244
 O1057 O 0.96865 0.24416 0.28356
 O1058 O 1.00874 0.28493 0.25570
 O1059 O 0.96519 0.27597 0.25105
 O1060 O 1.01078 0.25703 0.29331
 O1061 O 1.02431 0.23161 0.26758
 O1062 O 0.97813 0.25000 0.22553
 O1063 O 1.01978 0.25929 0.22895
 O1064 O 0.98155 0.21903 0.25706
 Cu1065 Cu 0.98729 0.26799 0.27375
 Cu1066 Cu 1.00287 0.23728 0.24307
 C1067 C 0.96798 0.22476 0.27440
 C1068 C 1.02042 0.27899 0.23687
 C1069 C 0.96389 0.26613 0.23105
 C1070 C 1.02532 0.24131 0.28774
 O1071 O 0.50177 0.22182 0.79060
 O1072 O 0.44781 0.23234 0.75754
 O1073 O 0.48792 0.25113 0.75782
 O1074 O 0.46030 0.20527 0.79272
 O1075 O 0.44942 0.22982 0.82062
 O1076 O 0.47456 0.27522 0.78518
 O1077 O 0.43515 0.25663 0.78502
 O1078 O 0.49012 0.24682 0.81774
 Cu1079 Cu 0.47569 0.22517 0.77194
 Cu1080 Cu 0.46099 0.25443 0.80497
 C1081 C 0.50530 0.23260 0.80960
 C1082 C 0.43242 0.24636 0.76540
 C1083 C 0.48564 0.27105 0.76564
 C1084 C 0.45038 0.20997 0.81289
 O1085 O -0.01089 0.30231 0.72715
 O1086 O 0.03673 0.25940 0.71969
 O1087 O -0.00851 0.25901 0.71835
 O1088 O 0.03447 0.30079 0.73386
 O1089 O 0.03179 0.28946 0.77206
 O1090 O -0.00938 0.24780 0.75670
 O1091 O 0.03347 0.24971 0.75837
 O1092 O -0.01460 0.29184 0.76547
 Cu1093 Cu 0.01313 0.28157 0.72091
 Cu1094 Cu 0.00916 0.26964 0.76698
 C1095 C -0.02103 0.30416 0.74762
 C1096 C 0.04311 0.24722 0.73765
 C1097 C -0.01553 0.24575 0.73503
 C1098 C 0.04087 0.30160 0.75573
 O1099 O 0.50961 0.26684 0.20573
 O1100 O 0.47092 0.28417 0.25672
 O1101 O 0.51041 0.29741 0.23876
 O1102 O 0.46964 0.25387 0.22325
 O1103 O 0.48891 0.22991 0.24723
 O1104 O 0.52854 0.27321 0.26341
 O1105 O 0.48919 0.25953 0.28077
 O1106 O 0.52821 0.24283 0.23023
 Cu1107 Cu 0.48824 0.27803 0.22866
 Cu1108 Cu 0.51063 0.24898 0.25782
 C1109 C 0.52549 0.25177 0.20941
 C1110 C 0.47343 0.27473 0.27736
 C1111 C 0.52631 0.29267 0.25387
 C1112 C 0.47254 0.23438 0.23267
 O1113 O 0.99641 0.74448 0.71715
 O1114 O 1.02639 0.70381 0.75707
 O1115 O 0.98497 0.70860 0.74053
 O1116 O 1.03783 0.74040 0.73427
 O1117 O 1.02593 0.76148 0.76493
 O1118 O 0.97398 0.72735 0.77319
 O1119 O 1.01697 0.72450 0.78881
 O1120 O 0.98336 0.76390 0.74862
 Cu1121 Cu 1.01258 0.72235 0.73414
 Cu1122 Cu 0.99894 0.74636 0.77213
 C1123 C 0.98445 0.76084 0.72592
 C1124 C 1.02701 0.70719 0.77958
 C1125 C 0.97061 0.71225 0.75791
 C1126 C 1.04075 0.75659 0.74826
 O1127 O 0.55043 0.73815 0.24695
 O1128 O 0.50543 0.75933 0.20433
 O1129 O 0.54723 0.77131 0.21574
 O1130 O 0.50867 0.72682 0.23654
 O1131 O 0.49247 0.74897 0.26430
 O1132 O 0.53127 0.79335 0.24372
 O1133 O 0.48983 0.78143 0.23246
 O1134 O 0.53449 0.76026 0.27488
 Cu1135 Cu 0.52942 0.74670 0.22302
 Cu1136 Cu 0.51052 0.77323 0.25665
 C1137 C 0.55011 0.74582 0.26822
 C1138 C 0.48989 0.77380 0.21119
 C1139 C 0.54591 0.78993 0.22652
 C1140 C 0.49398 0.73028 0.25372
 O1141 O -0.03712 0.71870 0.25278
 O1142 O 0.00948 0.75727 0.26454
 O1143 O -0.03595 0.76167 0.26181
 O1144 O 0.00800 0.71520 0.25502
 O1145 O 0.01115 0.72391 0.21608
 O1146 O -0.03311 0.76956 0.22268
 O1147 O 0.01165 0.76577 0.22549
 O1148 O -0.03429 0.72681 0.21371
 Cu1149 Cu -0.01441 0.73745 0.26251
 Cu1150 Cu -0.01104 0.74721 0.21552
 C1151 C -0.04344 0.71604 0.23121
 C1152 C 0.01871 0.76783 0.24690
 C1153 C -0.04179 0.77363 0.24347
 C1154 C 0.01751 0.71218 0.23436
 O1155 O 0.53255 0.74994 0.73849
 O1156 O 0.48856 0.70933 0.72455
 O1157 O 0.52876 0.71957 0.70566
 O1158 O 0.49404 0.73729 0.75898
 O1159 O 0.47550 0.76282 0.73620
 O1160 O 0.51039 0.74513 0.68277
 O1161 O 0.47026 0.73485 0.70155
 O1162 O 0.51404 0.77515 0.71527
 Cu1163 Cu 0.51290 0.72642 0.73411
 Cu1164 Cu 0.49065 0.75707 0.70672
 C1165 C 0.53076 0.76949 0.72898
 C1166 C 0.47180 0.71531 0.71090
 C1167 C 0.52572 0.72934 0.68532
 C1168 C 0.47868 0.75301 0.75657
 N1169 N 0.45678 0.27067 0.31918
 N1170 N 0.44126 0.28144 0.33319
 C1171 C 0.43245 0.29942 0.32082
 C1172 C 0.44262 0.30005 0.29791
 C1173 C 0.45794 0.28154 0.29762
 H1174 H 0.43951 0.31233 0.28355
 H1175 H 0.46638 0.25618 0.32438
 H1176 H 0.43708 0.27665 0.35096
 N1177 N 0.46461 0.74986 0.79954
 N1178 N 0.44676 0.75994 0.81364
 C1179 C 0.43579 0.77566 0.79966
 C1180 C 0.44626 0.77609 0.77684
 C1181 C 0.46398 0.75974 0.77743
 H1182 H 0.44124 0.78647 0.76139
 H1183 H 0.47574 0.73657 0.80522
 H1184 H 0.44268 0.75546 0.83153
 N1185 N -0.04918 0.33474 0.73369
 N1186 N -0.06824 0.34527 0.74236
 C1187 C -0.07228 0.33767 0.76511
 C1188 C -0.05500 0.32183 0.77120
 C1189 C -0.04081 0.32035 0.75082
 H1190 H -0.05359 0.31181 0.78767
 H1191 H -0.04250 0.33694 0.71614
 H1192 H -0.07868 0.35676 0.73249
 N1193 N -0.06294 0.80848 0.22901
 N1194 N -0.07740 0.82412 0.23810
 C1195 C -0.08245 0.81849 0.26126
 C1196 C -0.07073 0.79845 0.26722
 C1197 C -0.05846 0.79276 0.24630
 H1198 H -0.07057 0.78964 0.28452
 H1199 H -0.05591 0.80891 0.21144
 H1200 H -0.08347 0.83842 0.22859
 N1201 N 0.57101 0.74859 0.30672
 N1202 N 0.58998 0.73991 0.31688
 C1203 C 0.59974 0.72407 0.30237
 C1204 C 0.58632 0.72257 0.28192
 C1205 C 0.56832 0.73863 0.28538
 H1206 H 0.58975 0.71212 0.26636
 H1207 H 0.56050 0.76158 0.31405
 H1208 H 0.59621 0.74501 0.33340
 N1209 N 0.53284 0.23820 0.84298
 N1210 N 0.55353 0.23006 0.84961
 C1211 C 0.56149 0.21502 0.83318
 C1212 C 0.54520 0.21352 0.81532
 C1213 C 0.52727 0.22842 0.82227
 H1214 H 0.54603 0.20280 0.79974
 H1215 H 0.52270 0.25005 0.85265
 H1216 H 0.56187 0.23467 0.86522
 N1217 N 1.04034 0.66836 0.78975
 N1218 N 1.05556 0.65795 0.80403
 C1219 C 1.06488 0.67317 0.81819
 C1220 C 1.05473 0.69424 0.81304
 C1221 C 1.03941 0.69036 0.79469
 H1222 H 1.05930 0.71023 0.82001
 H1223 H 1.03137 0.66058 0.77624
 H1224 H 1.06011 0.64086 0.80320
 N1225 N 1.04610 0.24447 0.32630
 N1226 N 1.06479 0.23549 0.33676
 C1227 C 1.07457 0.21966 0.32224
 C1228 C 1.06146 0.21843 0.30158
 C1229 C 1.04362 0.23460 0.30488
 H1230 H 1.06483 0.20789 0.28608
 H1231 H 1.03549 0.25739 0.33363
 H1232 H 1.07077 0.24039 0.35346
 N1233 N 0.49046 0.31151 0.75728
 N1234 N 0.50409 0.32429 0.74405
 C1235 C 0.51852 0.31103 0.73051
 C1236 C 0.51367 0.28875 0.73510
 C1237 C 0.49587 0.28986 0.75237
 H1238 H 0.52270 0.27390 0.72804
 H1239 H 0.47807 0.31759 0.76989
 H1240 H 0.50384 0.34175 0.74491
 N1241 N 0.56078 0.82814 0.22962
 N1242 N 0.57835 0.83958 0.22107
 C1243 C 0.59095 0.82676 0.20534
 C1244 C 0.58080 0.80618 0.20367
 C1245 C 0.56175 0.80776 0.21956
 H1246 H 0.58696 0.79183 0.19331
 H1247 H 0.54864 0.83412 0.24254
 H1248 H 0.58174 0.85578 0.22634
 N1249 N 1.03074 0.29859 0.19901
 N1250 N 1.04943 0.30746 0.18935
 C1251 C 1.06504 0.30970 0.20679
 C1252 C 1.05580 0.30208 0.22869
 C1253 C 1.03400 0.29500 0.22283
 H1254 H 1.06487 0.29904 0.24547
 H1255 H 1.01680 0.29339 0.18905
 H1256 H 1.05202 0.31044 0.17082
 N1257 N 1.06648 0.78780 0.75774
 N1258 N 1.08592 0.79606 0.74892
 C1259 C 1.09364 0.78350 0.73015
 C1260 C 1.07851 0.76650 0.72692
 C1261 C 1.06150 0.76985 0.74471
 H1262 H 1.07945 0.75374 0.71325
 H1263 H 1.05673 0.79453 0.77223
 H1264 H 1.09357 0.81015 0.75559
 N1265 N 0.45131 0.68022 0.71909
 N1266 N 0.43106 0.67210 0.71409
 C1267 C 0.42007 0.68610 0.69823
 C1268 C 0.43388 0.70395 0.69282
 C1269 C 0.45344 0.69969 0.70673
 H1270 H 0.42945 0.71880 0.68204
 H1271 H 0.46284 0.67311 0.73173
 H1272 H 0.42459 0.65760 0.72210
 N1273 N 0.46003 0.19542 0.23624
 N1274 N 0.44188 0.18391 0.23097
 C1275 C 0.42680 0.19727 0.21842
 C1276 C 0.43580 0.21836 0.21539
 C1277 C 0.45686 0.21645 0.22733
 H1278 H 0.42746 0.23327 0.20745
 H1279 H 0.47392 0.18910 0.24657
 H1280 H 0.43963 0.16732 0.23657
 N1281 N -0.07022 0.68577 0.24288
 N1282 N -0.08611 0.67412 0.23247
 C1283 C -0.08791 0.68108 0.20922
 C1284 C -0.07243 0.69780 0.20459
 C1285 C -0.06156 0.70025 0.22641
 H1286 H -0.06960 0.70702 0.18782
 H1287 H -0.06549 0.68380 0.26096
 H1288 H -0.09567 0.66183 0.24129
 N1289 N -0.03112 0.20837 0.74337
 N1290 N -0.04652 0.19526 0.73440
 C1291 C -0.05604 0.20559 0.71489
 C1292 C -0.04601 0.22612 0.71102
 C1293 C -0.03032 0.22718 0.72960
 H1294 H -0.05017 0.23878 0.69733
 H1295 H -0.02154 0.20452 0.75886
 H1296 H -0.05092 0.17989 0.74213
 N1297 N 0.33378 0.46181 0.24893
 N1298 N 0.34564 0.44938 0.26478
 C1299 C 0.33157 0.44503 0.28392
 C1300 C 0.30988 0.45552 0.28034
 C1301 C 0.31205 0.46578 0.25781
 H1302 H 0.29437 0.45457 0.29166
 H1303 H 0.34039 0.46707 0.23213
 H1304 H 0.36276 0.44331 0.26193
 N1305 N 0.32317 -0.06932 0.71871
 N1306 N 0.33565 -0.08640 0.73108
 C1307 C 0.32583 -0.08847 0.75334
 C1308 C 0.30732 -0.07298 0.75574
 C1309 C 0.30605 -0.06159 0.73372
 H1310 H 0.29542 -0.07101 0.77106
 H1311 H 0.32601 -0.06460 0.70064
 H1312 H 0.34954 -0.09604 0.72371
 N1313 N 0.73541 0.45099 0.81044
 N1314 N 0.74767 0.43285 0.82132
 C1315 C 0.76494 0.42613 0.80585
 C1316 C 0.76410 0.43952 0.78514
 C1317 C 0.74539 0.45461 0.78856
 H1318 H 0.77512 0.43800 0.76908
 H1319 H 0.72055 0.45924 0.81772
 H1320 H 0.74363 0.42591 0.83829
 N1321 N 0.79421 -0.00497 0.32616
 N1322 N 0.81199 -0.01889 0.33554
 C1323 C 0.82169 -0.03070 0.31706
 C1324 C 0.81105 -0.02406 0.29556
 C1325 C 0.79383 -0.00826 0.30221
 H1326 H 0.81400 -0.03113 0.27782
 H1327 H 0.78270 0.00528 0.33635
 H1328 H 0.81549 -0.02067 0.35394
 N1329 N 0.29309 0.57762 0.78364
 N1330 N 0.29616 0.59624 0.77107
 C1331 C 0.28869 0.59366 0.74838
 C1332 C 0.28006 0.57237 0.74655
 C1333 C 0.28340 0.56278 0.76942
 H1334 H 0.27336 0.56467 0.73074
 H1335 H 0.29775 0.57515 0.80169
 H1336 H 0.30388 0.61018 0.77798
 N1337 N 0.30553 1.05488 0.29468
 N1338 N 0.31515 1.07290 0.28534
 C1339 C 0.30901 1.07531 0.26199
 C1340 C 0.29499 1.05812 0.25622
 C1341 C 0.29313 1.04558 0.27743
 H1342 H 0.28669 1.05546 0.23919
 H1343 H 0.30708 1.04941 0.31266
 H1344 H 0.32548 1.08342 0.29494
 N1345 N 0.74589 0.55016 0.17357
 N1346 N 0.75513 0.56694 0.16141
 C1347 C 0.77557 0.57129 0.17137
 C1348 C 0.77965 0.55644 0.19059
 C1349 C 0.76035 0.54336 0.19136
 H1350 H 0.79414 0.55575 0.20278
 H1351 H 0.72976 0.54377 0.16992
 H1352 H 0.74722 0.57551 0.14691
 N1353 N 0.80817 1.06623 0.75368
 N1354 N 0.82023 1.08323 0.74565
 C1355 C 0.81334 1.08898 0.72314
 C1356 C 0.79617 1.07489 0.71644
 C1357 C 0.79352 1.06063 0.73637
 H1358 H 0.78716 1.07482 0.69946
 H1359 H 0.81021 1.05848 0.77065
 H1360 H 0.83290 1.09075 0.75557
 N1361 N 0.74782 0.54867 0.30644
 N1362 N 0.74139 0.56719 0.31779
 C1363 C 0.72315 0.57727 0.30637
 C1364 C 0.71745 0.56428 0.28693
 C1365 C 0.73378 0.54635 0.28762
 H1366 H 0.70427 0.56793 0.27357
 H1367 H 0.76191 0.53802 0.31135
 H1368 H 0.74984 0.57290 0.33284
 N1369 N 0.68274 1.06018 0.73946
 N1370 N 0.66894 1.07711 0.75056
 C1371 C 0.67786 1.08039 0.77249
 C1372 C 0.69677 1.06557 0.77606
 C1373 C 0.69937 1.05343 0.75514
 H1374 H 0.70797 1.06429 0.79154
 H1375 H 0.68062 1.05444 0.72196
 H1376 H 0.65516 1.08617 0.74243
 N1377 N 0.23875 0.53758 0.86893
 N1378 N 0.22454 0.55210 0.88017
 C1379 C 0.20830 0.55990 0.86457
 C1380 C 0.21213 0.54964 0.84244
 C1381 C 0.23179 0.53577 0.84598
 H1382 H 0.20311 0.55307 0.82570
 H1383 H 0.25342 0.52967 0.87669
 H1384 H 0.22659 0.55711 0.89796
 N1385 N 0.19959 1.04018 0.33761
 N1386 N 0.18958 1.05998 0.34235
 C1387 C 0.18951 1.07268 0.32197
 C1388 C 0.19991 1.06038 0.30332
 C1389 C 0.20625 1.03989 0.31411
 H1390 H 0.20503 1.06648 0.28552
 H1391 H 0.20321 1.02770 0.35067
 H1392 H 0.18453 1.06525 0.35966
 N1393 N 0.64932 0.45778 0.74049
 N1394 N 0.63552 0.44221 0.73349
 C1395 C 0.64670 0.42986 0.71635
 C1396 C 0.66874 0.43793 0.71224
 C1397 C 0.66963 0.45567 0.72802
 H1398 H 0.68214 0.43179 0.69969
 H1399 H 0.64482 0.46960 0.75366
 H1400 H 0.61869 0.44026 0.74042
 N1401 N 0.75715 -0.03417 0.20189
 N1402 N 0.75177 -0.05239 0.19050
 C1403 C 0.73272 -0.06074 0.20125
 C1404 C 0.72571 -0.04727 0.22055
 C1405 C 0.74175 -0.03057 0.22025
 H1406 H 0.71098 -0.04916 0.23279
 H1407 H 0.77118 -0.02440 0.19706
 H1408 H 0.76094 -0.05873 0.17544
 N1409 N 0.20622 0.44604 0.24237
 N1410 N 0.19517 0.42751 0.23901
 C1411 C 0.20407 0.41754 0.21902
 C1412 C 0.22166 0.43030 0.20918
 C1413 C 0.22239 0.44827 0.22460
 H1414 H 0.23228 0.42705 0.19313
 H1415 H 0.20265 0.45694 0.25666
 H1416 H 0.18174 0.42194 0.25027
 N1417 N 0.23236 -0.07034 0.65491
 N1418 N 0.22456 -0.08960 0.64808
 C1419 C 0.21593 -0.10043 0.66762
 C1420 C 0.21817 -0.08734 0.68792
 C1421 C 0.22889 -0.06841 0.67898
 H1422 H 0.21374 -0.09147 0.70655
 H1423 H 0.24044 -0.05897 0.64325
 H1424 H 0.22553 -0.09526 0.63031
 N1425 N 0.25085 0.33213 0.45097
 N1426 N 0.26181 0.34414 0.43436
 C1427 C 0.28430 0.33681 0.43322
 C1428 C 0.28788 0.31955 0.44995
 C1429 C 0.26622 0.31703 0.46071
 H1430 H 0.30373 0.30955 0.45311
 H1431 H 0.23308 0.33398 0.45512
 H1432 H 0.25379 0.35672 0.42364
 N1433 N 0.26646 0.83732 -0.05223
 N1434 N 0.27908 0.84492 -0.07048
 C1435 C 0.29537 0.82904 -0.07667
 C1436 C 0.29328 0.81047 -0.06126
 C1437 C 0.27445 0.81647 -0.04620
 H1438 H 0.30295 0.79452 -0.06195
 H1439 H 0.25226 0.84620 -0.04439
 H1440 H 0.27603 0.86058 -0.07885
 N1441 N 0.81866 0.23786 -0.08778
 N1442 N 0.82559 0.25071 -0.10594
 C1443 C 0.81257 0.27004 -0.10586
 C1444 C 0.79638 0.26941 -0.08695
 C1445 C 0.80106 0.24872 -0.07583
 H1446 H 0.78416 0.28263 -0.08113
 H1447 H 0.82643 0.22222 -0.08328
 H1448 H 0.83948 0.24643 -0.11767
 N1449 N 0.79610 0.84401 0.45554
 N1450 N 0.80904 0.85646 0.44111
 C1451 C 0.82587 0.84313 0.43082
 C1452 C 0.82382 0.82140 0.43928
 C1453 C 0.80474 0.82271 0.45484
 H1454 H 0.83409 0.80659 0.43404
 H1455 H 0.78158 0.85002 0.46551
 H1456 H 0.80574 0.87355 0.43766
 N1457 N 0.66434 0.25663 0.57861
 N1458 N 0.65063 0.26499 0.59594
 C1459 C 0.65610 0.28635 0.59957
 C1460 C 0.67400 0.29192 0.58372
 C1461 C 0.67874 0.27251 0.57082
 H1462 H 0.68277 0.30756 0.58228
 H1463 H 0.66397 0.24020 0.57251
 H1464 H 0.63798 0.25601 0.60523
 N1465 N 0.74708 0.82277 1.03049
 N1466 N 0.74102 0.83371 1.05033
 C1467 C 0.72484 0.82225 1.06272
 C1468 C 0.72032 0.80310 1.05008
 C1469 C 0.73497 0.80404 1.02977
 H1470 H 0.70874 0.78999 1.05532
 H1471 H 0.75967 0.82791 1.01793
 H1472 H 0.74815 0.84867 1.05532
 N1473 N 0.23917 0.27985 1.05950
 N1474 N 0.23222 0.29396 1.07653
 C1475 C 0.21310 0.28618 1.08769
 C1476 C 0.20756 0.26620 1.07725
 C1477 C 0.22463 0.26280 1.05946
 H1478 H 0.19342 0.25553 1.08212
 H1479 H 0.25375 0.28189 1.04822
 H1480 H 0.24061 0.30856 1.08040
 N1481 N 0.18692 0.71888 0.54627
 N1482 N 0.17942 0.72885 0.56621
 C1483 C 0.19273 0.74633 0.57022
 C1484 C 0.20953 0.74761 0.55179
 C1485 C 0.20525 0.72968 0.53705
 H1486 H 0.22335 0.75925 0.54994
 H1487 H 0.17980 0.70458 0.53942
 H1488 H 0.16551 0.72352 0.57694
 N1489 N 0.27490 0.64748 0.53266
 N1490 N 0.28462 0.64078 0.55309
 C1491 C 0.29391 0.65848 0.56333
 C1492 C 0.29023 0.67735 0.54848
 C1493 C 0.27776 0.66961 0.52933
 H1494 H 0.29399 0.69451 0.55227
 H1495 H 0.26548 0.63719 0.52178
 H1496 H 0.28406 0.62450 0.56026
 N1497 N 0.26023 0.15541 1.07104
 N1498 N 0.27287 0.14753 1.08917
 C1499 C 0.28799 0.16300 1.09513
 C1500 C 0.28508 0.18157 1.07964
 C1501 C 0.26712 0.17597 1.06473
 H1502 H 0.29375 0.19725 1.08008
 H1503 H 0.24677 0.14692 1.06343
 H1504 H 0.27049 0.13203 1.09769
 N1505 N 0.81608 0.73636 1.02197
 N1506 N 0.82708 0.72471 1.03913
 C1507 C 0.81232 0.71030 1.04949
 C1508 C 0.79095 0.71287 1.03843
 C1509 C 0.79407 0.72969 1.02117
 H1510 H 0.77518 0.70434 1.04289
 H1511 H 0.82345 0.74899 1.01141
 H1512 H 0.84432 0.72686 1.04376
 N1513 N 0.78507 0.26470 0.58536
 N1514 N 0.79887 0.25554 0.60189
 C1515 C 0.79566 0.23333 0.60322
 C1516 C 0.77892 0.22809 0.58675
 C1517 C 0.77276 0.24857 0.57574
 H1518 H 0.77254 0.21177 0.58299
 H1519 H 0.78433 0.28175 0.58066
 H1520 H 0.81032 0.26450 0.61197
 N1521 N 0.78921 0.72154 0.42404
 N1522 N 0.78026 0.71006 0.40661
 C1523 C 0.75880 0.71885 0.40199
 C1524 C 0.75387 0.73678 0.41702
 C1525 C 0.77352 0.73773 0.43094
 H1526 H 0.73761 0.74648 0.41898
 H1527 H 0.80529 0.71758 0.43183
 H1528 H 0.78845 0.69598 0.39867
 N1529 N 0.74984 0.16159 -0.05183
 N1530 N 0.73594 0.15217 -0.06692
 C1531 C 0.71797 0.16669 -0.07176
 C1532 C 0.72037 0.18618 -0.05909
 C1533 C 0.74102 0.18233 -0.04696
 H1534 H 0.70979 0.20161 -0.06027
 H1535 H 0.76561 0.15428 -0.04595
 H1536 H 0.73926 0.13640 -0.07442
 N1537 N 0.23816 0.71802 -0.04599
 N1538 N 0.22660 0.70326 -0.05771
 C1539 C 0.20456 0.71128 -0.06046
 C1540 C 0.20193 0.73233 -0.05016
 C1541 C 0.22375 0.73577 -0.04086
 H1542 H 0.18611 0.74266 -0.04798
 H1543 H 0.25544 0.71547 -0.04078
 H1544 H 0.23363 0.68767 -0.06312
 N1545 N 0.26286 0.21472 0.44368
 N1546 N 0.25510 0.20333 0.42548
 C1547 C 0.23266 0.20976 0.42194
 C1548 C 0.22581 0.22588 0.43862
 C1549 C 0.24546 0.22852 0.45207
 H1550 H 0.20892 0.23443 0.44076
 H1551 H 0.27974 0.21294 0.45024
 H1552 H 0.26508 0.19142 0.41573
 N1553 N 0.33083 0.46587 0.75110
 N1554 N 0.33786 0.44846 0.73807
 C1555 C 0.31923 0.43999 0.72781
 C1556 C 0.29945 0.45279 0.73427
 C1557 C 0.30757 0.46881 0.74944
 H1558 H 0.28153 0.44920 0.73101
 H1559 H 0.34163 0.47460 0.76217
 H1560 H 0.35495 0.44179 0.73742
 N1561 N 0.31775 0.94384 0.27568
 N1562 N 0.32994 0.92899 0.26264
 C1563 C 0.32010 0.92775 0.24085
 C1564 C 0.30089 0.94262 0.23988
 C1565 C 0.29997 0.95239 0.26241
 H1566 H 0.28881 0.94534 0.22526
 H1567 H 0.32141 0.94775 0.29349
 H1568 H 0.34442 0.91959 0.26887
 N1569 N 0.74410 0.44217 0.17962
 N1570 N 0.75284 0.42403 0.16887
 C1571 C 0.77329 0.41779 0.17902
 C1572 C 0.77790 0.43281 0.19695
 C1573 C 0.75887 0.44800 0.19670
 H1574 H 0.79260 0.43243 0.20884
 H1575 H 0.72817 0.45024 0.17539
 H1576 H 0.74458 0.41592 0.15511
 N1577 N 0.82030 0.96074 0.75014
 N1578 N 0.83212 0.94241 0.74315
 C1579 C 0.82295 0.93541 0.72255
 C1580 C 0.80481 0.95015 0.71588
 C1581 C 0.80362 0.96586 0.73395
 H1582 H 0.79304 0.94873 0.70104
 H1583 H 0.82312 0.96907 0.76618
 H1584 H 0.84547 0.93436 0.75297
 N1585 N 0.70756 0.53065 0.66041
 N1586 N 0.70087 0.54805 0.64684
 C1587 C 0.68858 0.56277 0.66073
 C1588 C 0.68723 0.55441 0.68427
 C1589 C 0.69987 0.53408 0.68328
 H1590 H 0.68009 0.56280 0.70013
 H1591 H 0.71817 0.51720 0.65423
 H1592 H 0.70548 0.55013 0.62858
 N1593 N 0.67145 0.05293 0.23472
 N1594 N 0.65994 0.06881 0.22227
 C1595 C 0.67543 0.08077 0.20951
 C1596 C 0.69766 0.07204 0.21378
 C1597 C 0.69439 0.05453 0.22995
 H1598 H 0.71402 0.07824 0.20709
 H1599 H 0.66371 0.04165 0.24675
 H1600 H 0.64192 0.07172 0.22315
 N1601 N 0.22508 0.53694 0.15472
 N1602 N 0.21395 0.55534 0.14669
 C1603 C 0.20430 0.56622 0.16575
 C1604 C 0.20924 0.55420 0.18681
 C1605 C 0.22279 0.53592 0.17903
 H1606 H 0.20564 0.55928 0.20525
 H1607 H 0.23525 0.52610 0.14381
 H1608 H 0.21391 0.56075 0.12861
 N1609 N 0.18252 0.02398 0.71367
 N1610 N 0.17056 0.04244 0.70723
 C1611 C 0.18261 0.05309 0.68969
 C1612 C 0.20302 0.04077 0.68448
 C1613 C 0.20240 0.02259 0.70036
 H1614 H 0.21722 0.04543 0.67255
 H1615 H 0.17757 0.01314 0.72772
 H1616 H 0.15490 0.04801 0.71548
 N1617 N 0.31825 0.55767 0.20461
 N1618 N 0.32852 0.57564 0.21205
 C1619 C 0.32054 0.58041 0.23457
 C1620 C 0.30449 0.56498 0.24168
 C1621 C 0.30353 0.55087 0.22226
 H1622 H 0.29494 0.56400 0.25872
 H1623 H 0.32133 0.55028 0.18781
 H1624 H 0.34094 0.58422 0.20195
 N1625 N 0.30259 0.04059 0.73486
 N1626 N 0.31034 0.05588 0.74910
 C1627 C 0.29872 0.05502 0.77047
 C1628 C 0.28272 0.03821 0.76982
 C1629 C 0.28586 0.02948 0.74674
 H1630 H 0.27065 0.03313 0.78395
 H1631 H 0.30880 0.03787 0.71721
 H1632 H 0.32334 0.06676 0.74398
 N1633 N 0.79192 0.53603 0.73843
 N1634 N 0.80452 0.55197 0.74693
 C1635 C 0.79173 0.56349 0.76365
 C1636 C 0.77000 0.55449 0.76587
 C1637 C 0.77087 0.53708 0.74956
 H1638 H 0.75567 0.55972 0.77776
 H1639 H 0.79775 0.52462 0.72530
 H1640 H 0.82161 0.55475 0.74134
 N1641 N 0.73861 0.07608 0.32657
 N1642 N 0.74744 0.09283 0.33808
 C1643 C 0.76660 0.09929 0.32586
 C1644 C 0.77000 0.08621 0.30557
 C1645 C 0.75190 0.07168 0.30673
 H1646 H 0.78403 0.08672 0.29225
 H1647 H 0.72396 0.06765 0.33246
 H1648 H 0.74063 0.09935 0.35426
 N1649 N 0.74488 0.44458 0.30794
 N1650 N 0.73466 0.42892 0.32098
 C1651 C 0.71297 0.42685 0.31283
 C1652 C 0.70916 0.44199 0.29383
 C1653 C 0.72987 0.45287 0.29131
 H1654 H 0.69377 0.44437 0.28300
 H1655 H 0.76194 0.44926 0.31028
 H1656 H 0.74265 0.41961 0.33493
 N1657 N 0.69670 0.95409 0.73219
 N1658 N 0.68667 0.93531 0.73819
 C1659 C 0.69429 0.92809 0.76001
 C1660 C 0.70977 0.94320 0.76845
 C1661 C 0.71085 0.95938 0.75005
 H1662 H 0.71954 0.94208 0.78497
 H1663 H 0.69410 0.96288 0.71588
 H1664 H 0.67513 0.92749 0.72714
 N1665 N 0.26713 0.43551 0.84410
 N1666 N 0.25749 0.41665 0.85078
 C1667 C 0.23818 0.41454 0.83784
 C1668 C 0.23536 0.43285 0.82220
 C1669 C 0.25411 0.44575 0.82682
 H1670 H 0.22161 0.43639 0.80944
 H1671 H 0.28232 0.44123 0.85139
 H1672 H 0.26413 0.40554 0.86400
 N1673 N 0.18793 0.94814 0.28084
 N1674 N 0.17713 0.92940 0.28471
 C1675 C 0.18921 0.91645 0.30074
 C1676 C 0.20853 0.92772 0.30776
 C1677 C 0.20708 0.94771 0.29438
 H1678 H 0.22234 0.92167 0.31951
 H1679 H 0.18245 0.96078 0.26864
 H1680 H 0.16199 0.92549 0.27595
 N1681 N 0.40527 0.23825 0.73276
 N1682 N 0.38839 0.24899 0.72086
 C1683 C 0.38386 0.26903 0.73115
 C1684 C 0.39819 0.27097 0.75076
 C1685 C 0.41167 0.25117 0.75095
 H1686 H 0.40002 0.28546 0.76191
 H1687 H 0.41287 0.22273 0.72783
 H1688 H 0.38091 0.24302 0.70534
 N1689 N 0.46882 0.77377 0.17210
 N1690 N 0.44981 0.78346 0.16279
 C1691 C 0.43997 0.79765 0.17912
 C1692 C 0.45333 0.79696 0.19972
 C1693 C 0.47143 0.78156 0.19454
 H1694 H 0.45009 0.80597 0.21633
 H1695 H 0.47956 0.76178 0.16330
 H1696 H 0.44368 0.78021 0.14563
 N1697 N 0.94455 0.26420 0.19178
 N1698 N 0.92528 0.27202 0.18159
 C1699 C 0.91372 0.28606 0.19694
 C1700 C 0.92637 0.28745 0.21791
 C1701 C 0.94571 0.27301 0.21389
 H1702 H 0.92148 0.29638 0.23423
 H1703 H 0.95633 0.25255 0.18388
 H1704 H 0.92001 0.26735 0.16452
 N1705 N 0.97408 0.77461 0.68490
 N1706 N 0.95788 0.78772 0.67471
 C1707 C 0.94469 0.79761 0.69222
 C1708 C 0.95302 0.79070 0.71467
 C1709 C 0.97152 0.77583 0.70911
 H1710 H 0.94549 0.79439 0.73233
 H1711 H 0.98608 0.76433 0.67532
 H1712 H 0.95550 0.78918 0.65607
 N1713 N 0.54324 0.33051 0.25068
 N1714 N 0.55960 0.34135 0.26142
 C1715 C 0.56930 0.32772 0.27851
 C1716 C 0.55877 0.30736 0.27858
 C1717 C 0.54236 0.30981 0.26070
 H1718 H 0.56240 0.29282 0.29010
 H1719 H 0.53292 0.33725 0.23678
 H1720 H 0.56382 0.35781 0.25719
 N1721 N 0.55120 0.80434 0.71946
 N1722 N 0.56921 0.81480 0.72727
 C1723 C 0.57809 0.80320 0.74632
 C1724 C 0.56530 0.78441 0.75081
 C1725 C 0.54845 0.78577 0.73325
 H1726 H 0.56803 0.77151 0.76461
 H1727 H 0.54124 0.80970 0.70469
 H1728 H 0.57515 0.82970 0.71968
 N1729 N 0.06974 0.33125 0.74795
 N1730 N 0.08720 0.33953 0.75960
 C1731 C 0.08855 0.32950 0.78162
 C1732 C 0.07110 0.31444 0.78420
 C1733 C 0.05964 0.31597 0.76248
 H1734 H 0.06778 0.30322 0.79936
 H1735 H 0.06520 0.33570 0.73025
 H1736 H 0.09834 0.35130 0.75223
 N1737 N 0.04727 0.79576 0.23373
 N1738 N 0.06563 0.80503 0.24246
 C1739 C 0.06871 0.79755 0.26538
 C1740 C 0.05136 0.78299 0.27162
 C1741 C 0.03819 0.78228 0.25094
 H1742 H 0.04914 0.77363 0.28841
 H1743 H 0.04137 0.79837 0.21612
 H1744 H 0.07604 0.81596 0.23260
 N1745 N 0.54213 0.73417 0.64354
 N1746 N 0.55936 0.72506 0.63034
 C1747 C 0.56898 0.70752 0.64283
 C1748 C 0.55741 0.70531 0.66484
 C1749 C 0.54067 0.72264 0.66467
 H1750 H 0.56153 0.69363 0.67952
 H1751 H 0.53221 0.74853 0.63849
 H1752 H 0.56473 0.73115 0.61339
 N1753 N 0.54310 0.25493 0.16783
 N1754 N 0.55921 0.24390 0.15473
 C1755 C 0.56735 0.22604 0.16777
 C1756 C 0.55613 0.22573 0.19011
 C1757 C 0.54098 0.24434 0.18945
 H1758 H 0.55886 0.21386 0.20493
 H1759 H 0.53405 0.26957 0.16212
 H1760 H 0.56449 0.24862 0.13724
 N1761 N 0.04319 0.67957 0.24774
 N1762 N 0.06332 0.67003 0.24060
 C1763 C 0.07035 0.68034 0.22000
 C1764 C 0.05391 0.69677 0.21349
 C1765 C 0.03705 0.69582 0.23155
 H1766 H 0.05477 0.70871 0.19856
 H1767 H 0.03429 0.67546 0.26376
 H1768 H 0.07247 0.65742 0.25028
 N1769 N 0.06718 0.21433 0.75197
 N1770 N 0.08323 0.20007 0.74317
 C1771 C 0.08816 0.20607 0.72008
 C1772 C 0.07466 0.22504 0.71384
 C1773 C 0.06150 0.22961 0.73463
 H1774 H 0.07406 0.23386 0.69655
 H1775 H 0.06001 0.21329 0.76945
 H1776 H 0.09055 0.18645 0.75292
 N1777 N 0.48073 0.69149 0.25205
 N1778 N 0.46236 0.68032 0.25875
 C1779 C 0.44782 0.69377 0.27200
 C1780 C 0.45754 0.71450 0.27406
 C1781 C 0.47834 0.71236 0.26077
 H1782 H 0.44967 0.72950 0.28204
 H1783 H 0.49419 0.68512 0.24082
 H1784 H 0.45950 0.66398 0.25349
 N1785 N 0.43956 0.19287 0.85231
 N1786 N 0.42505 0.17797 0.86071
 C1787 C 0.41555 0.16800 0.84188
 C1788 C 0.42489 0.17661 0.82044
 C1789 C 0.43983 0.19255 0.82798
 H1790 H 0.41962 0.17360 0.80216
 H1791 H 0.44824 0.20381 0.86311
 H1792 H 0.42089 0.17563 0.87904
 N1793 N 0.94624 0.68213 0.74413
 N1794 N 0.92739 0.67187 0.75113
 C1795 C 0.91873 0.68131 0.77155
 C1796 C 0.93276 0.69857 0.77783
 C1797 C 0.95015 0.69835 0.75992
 H1798 H 0.93099 0.70920 0.79346
 H1799 H 0.95639 0.67781 0.72889
 H1800 H 0.92076 0.65851 0.74198
 N1801 N 0.94883 0.18837 0.27352
 N1802 N 0.93057 0.17899 0.28356
 C1803 C 0.92065 0.19319 0.29977
 C1804 C 0.93322 0.21248 0.30018
 C1805 C 0.95088 0.20875 0.28311
 H1806 H 0.92948 0.22742 0.31061
 H1807 H 0.95933 0.18108 0.25990
 H1808 H 0.92494 0.16326 0.27905
 N1809 N 0.23833 0.32428 0.56937
 N1810 N 0.24539 0.33391 0.58910
 C1811 C 0.26641 0.32472 0.59486
 C1812 C 0.27311 0.30872 0.57800
 C1813 C 0.25483 0.30894 0.56220
 H1814 H 0.28883 0.29806 0.57756
 H1815 H 0.22243 0.32809 0.56115
 H1816 H 0.23574 0.34624 0.59859
 N1817 N 0.25094 0.84292 0.05889
 N1818 N 0.26249 0.85232 0.07615
 C1819 C 0.28192 0.83958 0.08068
 C1820 C 0.28281 0.82131 0.06564
 C1821 C 0.26281 0.82402 0.05217
 H1822 H 0.29586 0.80768 0.06496
 H1823 H 0.23510 0.84924 0.05214
 H1824 H 0.25693 0.86709 0.08476
 N1825 N 0.83459 0.26899 0.02208
 N1826 N 0.84055 0.28152 0.04011
 C1827 C 0.82122 0.29178 0.04961
 C1828 C 0.80211 0.28588 0.03681
 C1829 C 0.81135 0.27099 0.01986
 H1830 H 0.78394 0.28897 0.04169
 H1831 H 0.84605 0.25792 0.01285
 H1832 H 0.85731 0.28154 0.04700
 N1833 N 0.76395 0.81841 0.55989
 N1834 N 0.77084 0.82743 0.57998
 C1835 C 0.79291 0.82008 0.58408
 C1836 C 0.80042 0.80573 0.56584
 C1837 C 0.78150 0.80517 0.55087
 H1838 H 0.81725 0.79710 0.56366
 H1839 H 0.74752 0.82141 0.55249
 H1840 H 0.76055 0.83845 0.59056
 N1841 N 0.27758 0.65466 0.42597
 N1842 N 0.29107 0.64821 0.40766
 C1843 C 0.30214 0.66599 0.39849
 C1844 C 0.29555 0.68481 0.41210
 C1845 C 0.27966 0.67673 0.42926
 H1846 H 0.30061 0.70190 0.40921
 H1847 H 0.26693 0.64400 0.43592
 H1848 H 0.29227 0.63178 0.40147
 N1849 N 0.22859 0.14740 0.96355
 N1850 N 0.23789 0.13487 0.94600
 C1851 C 0.25929 0.14201 0.94051
 C1852 C 0.26374 0.15979 0.95512
 C1853 C 0.24390 0.16277 0.96937
 H1854 H 0.27900 0.16973 0.95493
 H1855 H 0.21190 0.14573 0.97096
 H1856 H 0.22955 0.12192 0.93780
 N1857 N 0.74398 0.69409 0.92867
 N1858 N 0.75180 0.68169 0.91046
 C1859 C 0.77048 0.69120 0.90019
 C1860 C 0.77469 0.71068 0.91245
 C1861 C 0.75741 0.71184 0.93040
 H1862 H 0.78832 0.72227 0.90886
 H1863 H 0.72961 0.69039 0.93964
 H1864 H 0.74443 0.66689 0.90536
 N1865 N 0.79549 0.26331 0.46770
 N1866 N 0.80794 0.25412 0.44979
 C1867 C 0.79938 0.23406 0.44507
 C1868 C 0.78094 0.23018 0.46076
 C1869 C 0.77900 0.24913 0.47472
 H1870 H 0.76991 0.21597 0.46138
 H1871 H 0.79808 0.27913 0.47465
 H1872 H 0.82159 0.26180 0.44063
 N1873 N 0.67279 0.26054 0.45929
 N1874 N 0.66333 0.26972 0.43968
 C1875 C 0.67246 0.28985 0.43542
 C1876 C 0.68828 0.29375 0.45322
 C1877 C 0.68795 0.27474 0.46798
 H1878 H 0.69897 0.30807 0.45484
 H1879 H 0.66909 0.24471 0.46634
 H1880 H 0.65117 0.26204 0.42923
 N1881 N 0.67601 0.78212 0.93905
 N1882 N 0.66505 0.79189 0.92067
 C1883 C 0.68036 0.80346 0.90720
 C1884 C 0.70209 0.80108 0.91757
 C1885 C 0.69857 0.78716 0.93762
 H1886 H 0.71838 0.80721 0.91059
 H1887 H 0.66825 0.77155 0.95182
 H1888 H 0.64748 0.79008 0.91713
 N1889 N 0.17426 0.24095 0.96171
 N1890 N 0.16658 0.25387 0.94371
 C1891 C 0.18390 0.26668 0.93568
 C1892 C 0.20364 0.26159 0.94917
 C1893 C 0.19669 0.24510 0.96549
 H1894 H 0.22054 0.26874 0.94731
 H1895 H 0.16424 0.22936 0.97111
 H1896 H 0.14966 0.25393 0.93725
 N1897 N 0.17783 0.73185 0.43376
 N1898 N 0.16669 0.74569 0.41873
 C1899 C 0.18077 0.76218 0.41188
 C1900 C 0.20202 0.75873 0.42340
 C1901 C 0.19931 0.73912 0.43709
 H1902 H 0.21725 0.76866 0.42169
 H1903 H 0.17070 0.71759 0.44159
 H1904 H 0.14974 0.74352 0.41315
 N1905 N 0.76789 0.70131 0.53044
 N1906 N 0.75506 0.68701 0.54259
 C1907 C 0.73334 0.69617 0.54524
 C1908 C 0.73219 0.71717 0.53411
 C1909 C 0.75457 0.71977 0.52509
 H1910 H 0.71752 0.72916 0.53350
 H1911 H 0.78554 0.69848 0.52619
 H1912 H 0.76136 0.67151 0.54934
 N1913 N 0.76801 0.19297 0.06512
 N1914 N 0.75560 0.18769 0.08456
 C1915 C 0.73380 0.19655 0.08211
 C1916 C 0.73227 0.20820 0.06025
 C1917 C 0.75436 0.20537 0.05003
 H1918 H 0.71713 0.21676 0.05250
 H1919 H 0.78544 0.18791 0.06222
 H1920 H 0.76196 0.17775 0.09891
 N1921 N 0.18483 0.76414 0.06438
 N1922 N 0.17616 0.75214 0.08234
 C1923 C 0.19039 0.73397 0.08623
 C1924 C 0.20920 0.73445 0.07000
 C1925 C 0.20491 0.75403 0.05649
 H1926 H 0.22377 0.72243 0.06831
 H1927 H 0.17708 0.77913 0.05778
 H1928 H 0.16057 0.75635 0.09151
 N1929 N 0.25035 0.20138 0.55496
 N1930 N 0.24032 0.18727 0.57010
 C1931 C 0.21896 0.19582 0.57616
 C1932 C 0.21509 0.21622 0.56420
 C1933 C 0.23549 0.21906 0.55093
 H1934 H 0.19980 0.22743 0.56516
 H1935 H 0.26707 0.19884 0.54750
 H1936 H 0.24823 0.17224 0.57638
   
