data_POSCAR
  _audit_creation_date              2014-09-24
  _audit_creation_method            'ToBaCCo'
  _symmetry_space_group_name_H-M    'P1'
  _symmetry_Int_Tables_number       1
  _symmetry_cell_setting            triclinic
  loop_
  _symmetry_equiv_pos_as_xyz
 x,y,z
_cell_length_a 81.6838
_cell_length_b 81.7878
_cell_length_c 82.0966
_cell_angle_alpha 89.992300
_cell_angle_beta 90.024700
_cell_angle_gamma 89.966400
loop_
  _atom_site_label
  _atom_site_type_symbol
  _atom_site_fract_x
  _atom_site_fract_y
  _atom_site_fract_z
N1 N 0.18056 0.22083 0.22296
 N2 N 0.18475 0.20770 0.23117
 C3 C 0.17426 0.20567 0.24366
 C4 C 0.16283 0.21821 0.24326
 C5 C 0.16726 0.22759 0.22991
 H6 H 0.17484 0.19574 0.25231
 H7 H 0.16137 0.23860 0.22560
 Cu8 Cu 0.20350 0.19450 0.22473
 Cu9 Cu 0.19262 0.22824 0.20390
 Cu10 Cu 0.22659 0.20551 0.19261
 N11 N 0.22283 0.18211 0.21843
 N12 N 0.23181 0.18650 0.20590
 C13 C 0.24434 0.17594 0.20425
 C14 C 0.24322 0.16424 0.21642
 C15 C 0.22937 0.16859 0.22519
 H16 H 0.25350 0.17670 0.19479
 H17 H 0.22449 0.16247 0.23578
 N18 N 0.21933 0.22514 0.18070
 N19 N 0.20638 0.23377 0.18498
 C20 C 0.20457 0.24630 0.17448
 C21 C 0.21698 0.24556 0.16301
 C22 C 0.22610 0.23196 0.16738
 H23 H 0.19497 0.25535 0.17522
 H24 H 0.23680 0.22726 0.16122
 H25 H 0.20172 0.20563 0.19721
 H26 H 0.21483 0.21832 0.21091
 N27 N 0.68076 0.72085 0.72338
 N28 N 0.68492 0.70762 0.73147
 C29 C 0.67445 0.70553 0.74397
 C30 C 0.66309 0.71813 0.74372
 C31 C 0.66753 0.72762 0.73044
 H32 H 0.67515 0.69565 0.75267
 H33 H 0.66154 0.73857 0.72611
 Cu34 Cu 0.70364 0.69443 0.72493
 Cu35 Cu 0.69277 0.72831 0.70430
 Cu36 Cu 0.72667 0.70558 0.69282
 N37 N 0.72297 0.68207 0.71855
 N38 N 0.73192 0.68651 0.70602
 C39 C 0.74446 0.67598 0.70432
 C40 C 0.74336 0.66424 0.71645
 C41 C 0.72953 0.66854 0.72525
 H42 H 0.75361 0.67678 0.69485
 H43 H 0.72467 0.66238 0.73584
 N44 N 0.71939 0.72526 0.68100
 N45 N 0.70647 0.73389 0.68535
 C46 C 0.70463 0.74645 0.67490
 C47 C 0.71700 0.74573 0.66338
 C48 C 0.72612 0.73211 0.66768
 H49 H 0.69505 0.75552 0.67570
 H50 H 0.73678 0.72741 0.66146
 H51 H 0.70181 0.70572 0.69748
 H52 H 0.71497 0.71831 0.71121
 N53 N 0.31783 0.77857 0.72415
 N54 N 0.31316 0.79131 0.73271
 C55 C 0.32361 0.79341 0.74523
 C56 C 0.33548 0.78130 0.74452
 C57 C 0.33137 0.77211 0.73094
 H58 H 0.32258 0.80297 0.75425
 H59 H 0.33779 0.76159 0.72620
 Cu60 Cu 0.29390 0.80395 0.72667
 Cu61 Cu 0.30609 0.77133 0.70482
 Cu62 Cu 0.27223 0.79408 0.69323
 N63 N 0.27508 0.81681 0.71973
 N64 N 0.26668 0.81289 0.70667
 C65 C 0.25443 0.82370 0.70464
 C66 C 0.25511 0.83516 0.71713
 C67 C 0.26847 0.83030 0.72647
 H68 H 0.24574 0.82316 0.69474
 H69 H 0.27311 0.83609 0.73734
 N70 N 0.27976 0.77463 0.68120
 N71 N 0.29263 0.76595 0.68563
 C72 C 0.29459 0.75350 0.67508
 C73 C 0.28238 0.75435 0.66340
 C74 C 0.27322 0.76793 0.66771
 H75 H 0.30430 0.74455 0.67579
 H76 H 0.26246 0.77253 0.66156
 H77 H 0.29693 0.79412 0.69880
 H78 H 0.28349 0.78060 0.71134
 N79 N 0.81306 0.27307 0.22811
 N80 N 0.80850 0.28595 0.23648
 C81 C 0.81965 0.28896 0.24816
 C82 C 0.83195 0.27722 0.24717
 C83 C 0.82722 0.26733 0.23420
 H84 H 0.81869 0.29892 0.25675
 H85 H 0.83346 0.25669 0.22948
 Cu86 Cu 0.78816 0.29731 0.23166
 Cu87 Cu 0.79995 0.26443 0.21029
 Cu88 Cu 0.77092 0.29130 0.19490
 N89 N 0.77185 0.31221 0.22301
 N90 N 0.76535 0.30999 0.20854
 C91 C 0.75446 0.32198 0.20563
 C92 C 0.75408 0.33234 0.21899
 C93 C 0.76535 0.32571 0.22979
 H94 H 0.74730 0.32298 0.19460
 H95 H 0.76851 0.33023 0.24175
 N96 N 0.77814 0.27152 0.18319
 N97 N 0.78894 0.26116 0.18921
 C98 C 0.79097 0.24873 0.17866
 C99 C 0.78088 0.25131 0.16532
 C100 C 0.77294 0.26591 0.16866
 H101 H 0.79910 0.23850 0.18066
 H102 H 0.76400 0.27201 0.16111
 H103 H 0.79435 0.28806 0.20423
 H104 H 0.77735 0.27600 0.21345
 N105 N 0.81911 0.72090 0.27670
 N106 N 0.81491 0.70775 0.26854
 C107 C 0.82532 0.70572 0.25599
 C108 C 0.83671 0.71828 0.25629
 C109 C 0.83234 0.72768 0.26965
 H110 H 0.82472 0.69577 0.24736
 H111 H 0.83823 0.73871 0.27390
 Cu112 Cu 0.79624 0.69453 0.27511
 Cu113 Cu 0.80714 0.72831 0.29583
 Cu114 Cu 0.77339 0.70544 0.30743
 N115 N 0.77700 0.68209 0.28154
 N116 N 0.76815 0.68640 0.29419
 C117 C 0.75568 0.67580 0.29594
 C118 C 0.75671 0.66416 0.28371
 C119 C 0.77042 0.66859 0.27480
 H120 H 0.74649 0.67663 0.30536
 H121 H 0.77534 0.66240 0.26426
 N122 N 0.78066 0.72510 0.31926
 N123 N 0.79348 0.73382 0.31483
 C124 C 0.79528 0.74639 0.32527
 C125 C 0.78300 0.74557 0.33688
 C126 C 0.77397 0.73188 0.33265
 H127 H 0.80493 0.75538 0.32455
 H128 H 0.76324 0.72725 0.33878
 H129 H 0.79822 0.70567 0.30261
 H130 H 0.78492 0.71830 0.28903
 N131 N 0.31936 0.22066 -0.22356
 N132 N 0.31521 0.20748 -0.23169
 C133 C 0.32566 0.20543 -0.24420
 C134 C 0.33710 0.21802 -0.24394
 C135 C 0.33260 0.22744 -0.23058
 H136 H 0.32493 0.19548 -0.25281
 H137 H 0.33843 0.23843 -0.22617
 Cu138 Cu 0.29650 0.19427 -0.22518
 Cu139 Cu 0.30733 0.22807 -0.20447
 Cu140 Cu 0.27353 0.20524 -0.19296
 N141 N 0.27720 0.18188 -0.21882
 N142 N 0.26830 0.18622 -0.20621
 C143 C 0.25580 0.17565 -0.20451
 C144 C 0.25685 0.16401 -0.21674
 C145 C 0.27062 0.16840 -0.22559
 H146 H 0.24657 0.17650 -0.19513
 H147 H 0.27556 0.16220 -0.23611
 N148 N 0.28078 0.22490 -0.18110
 N149 N 0.29363 0.23360 -0.18550
 C150 C 0.29541 0.24617 -0.17506
 C151 C 0.28311 0.24537 -0.16348
 C152 C 0.27407 0.23169 -0.16773
 H153 H 0.30508 0.25515 -0.17575
 H154 H 0.26332 0.22707 -0.16163
 H155 H 0.29838 0.20545 -0.19769
 H156 H 0.28513 0.21807 -0.21134
 N157 N 0.68125 0.27846 -0.22394
 N158 N 0.68565 0.29143 -0.23229
 C159 C 0.67513 0.29356 -0.24474
 C160 C 0.66341 0.28124 -0.24423
 C161 C 0.66780 0.27190 -0.23077
 H162 H 0.67601 0.30339 -0.25348
 H163 H 0.66175 0.26110 -0.22618
 Cu164 Cu 0.70471 0.30423 -0.22602
 Cu165 Cu 0.69325 0.27102 -0.20481
 Cu166 Cu 0.72730 0.29363 -0.19346
 N167 N 0.72382 0.31684 -0.21951
 N168 N 0.73261 0.31260 -0.20679
 C169 C 0.74503 0.32324 -0.20499
 C170 C 0.74403 0.33486 -0.21724
 C171 C 0.73037 0.33037 -0.22623
 H172 H 0.75404 0.32260 -0.19536
 H173 H 0.72562 0.33640 -0.23694
 N174 N 0.71994 0.27404 -0.18154
 N175 N 0.70697 0.26546 -0.18583
 C176 C 0.70512 0.25295 -0.17533
 C177 C 0.71753 0.25364 -0.16384
 C178 C 0.72669 0.26720 -0.16820
 H179 H 0.69550 0.24392 -0.17608
 H180 H 0.73739 0.27186 -0.16204
 H181 H 0.70248 0.29363 -0.19835
 H182 H 0.71564 0.28055 -0.21161
 N183 N 0.18070 0.77962 0.27643
 N184 N 0.18488 0.79282 0.26832
 C185 C 0.17442 0.79491 0.25581
 C186 C 0.16303 0.78235 0.25607
 C187 C 0.16746 0.77288 0.26937
 H188 H 0.17515 0.80477 0.24708
 H189 H 0.16144 0.76195 0.27371
 Cu190 Cu 0.20364 0.80596 0.27485
 Cu191 Cu 0.19269 0.77215 0.29553
 Cu192 Cu 0.22664 0.79479 0.30700
 N193 N 0.22301 0.81825 0.28122
 N194 N 0.23193 0.81382 0.29377
 C195 C 0.24449 0.82431 0.29547
 C196 C 0.24349 0.83608 0.28329
 C197 C 0.22961 0.83173 0.27447
 H198 H 0.25363 0.82334 0.30494
 H199 H 0.22462 0.83784 0.26392
 N200 N 0.21932 0.77515 0.31884
 N201 N 0.20638 0.76655 0.31449
 C202 C 0.20452 0.75401 0.32496
 C203 C 0.21690 0.75470 0.33648
 C204 C 0.22604 0.76829 0.33218
 H205 H 0.19492 0.74497 0.32416
 H206 H 0.23672 0.77297 0.33839
 H207 H 0.20177 0.79472 0.30232
 H208 H 0.21491 0.78206 0.28862
 N209 N 0.47094 0.43078 0.47327
 N210 N 0.45775 0.43502 0.48138
 C211 C 0.45564 0.42461 0.49392
 C212 C 0.46819 0.41319 0.49367
 C213 C 0.47767 0.41754 0.48035
 H214 H 0.44579 0.42539 0.50265
 H215 H 0.48858 0.41148 0.47600
 Cu216 Cu 0.44463 0.45378 0.47484
 Cu217 Cu 0.47842 0.44269 0.45414
 Cu218 Cu 0.45582 0.47666 0.44264
 N219 N 0.43235 0.47314 0.46844
 N220 N 0.43680 0.48204 0.45588
 C221 C 0.42631 0.49462 0.45419
 C222 C 0.41459 0.49360 0.46635
 C223 C 0.41886 0.47978 0.47517
 H224 H 0.42713 0.50374 0.44470
 H225 H 0.41270 0.47498 0.48578
 N226 N 0.47543 0.46925 0.43079
 N227 N 0.48402 0.45630 0.43514
 C228 C 0.49655 0.45439 0.42466
 C229 C 0.49587 0.46673 0.41312
 C230 C 0.48229 0.47592 0.41744
 H231 H 0.50558 0.44477 0.42546
 H232 H 0.47763 0.48659 0.41122
 H233 H 0.46856 0.46493 0.46103
 H234 H 0.45583 0.45184 0.44736
 N235 N -0.02576 -0.06565 0.97590
 N236 N -0.03653 -0.05947 0.98605
 C237 C -0.03872 -0.06990 0.99853
 C238 C -0.02872 -0.08340 0.99613
 C239 C -0.02068 -0.08022 0.98159
 H240 H -0.04688 -0.06771 1.00865
 H241 H -0.01174 -0.08786 0.97557
 Cu242 Cu -0.04673 -0.03842 0.98205
 Cu243 Cu -0.01859 -0.05402 0.95645
 Cu244 Cu -0.03662 -0.01628 0.94919
 N245 N -0.06075 -0.02097 0.97408
 N246 N -0.05676 -0.01233 0.96120
 C247 C -0.06828 -0.00087 0.95860
 C248 C -0.08025 -0.00242 0.97048
 C249 C -0.07501 -0.01537 0.98009
 H250 H -0.06778 0.00804 0.94888
 H251 H -0.08106 -0.02039 0.99067
 N252 N -0.01959 -0.02568 0.93506
 N253 N -0.01294 -0.04016 0.93761
 C254 C -0.00185 -0.04311 0.92584
 C255 C -0.00150 -0.02986 0.91531
 C256 C -0.01297 -0.01907 0.92157
 H257 H 0.00545 -0.05409 0.92504
 H258 H -0.01621 -0.00720 0.91678
 H259 H -0.02307 -0.03105 0.96503
 H260 H -0.04005 -0.04073 0.95331
 N261 N 1.02901 0.56905 0.97331
 N262 N 1.04222 0.56486 0.98145
 C263 C 1.04429 0.57532 0.99394
 C264 C 1.03171 0.58671 0.99364
 C265 C 1.02225 0.58229 0.98033
 H266 H 1.05416 0.57461 1.00268
 H267 H 1.01132 0.58830 0.97595
 Cu268 Cu 1.05539 0.54613 0.97495
 Cu269 Cu 1.02158 0.55707 0.95419
 Cu270 Cu 1.04437 0.52322 0.94273
 N271 N 1.06778 0.52683 0.96859
 N272 N 1.06343 0.51796 0.95598
 C273 C 1.07401 0.50547 0.95425
 C274 C 1.08568 0.50650 0.96647
 C275 C 1.08129 0.52024 0.97534
 H276 H 1.07314 0.49626 0.94486
 H277 H 1.08753 0.52517 0.98586
 N278 N 1.02469 0.53050 0.93087
 N279 N 1.01604 0.54340 0.93521
 C280 C 1.00348 0.54524 0.92473
 C281 C 1.00423 0.53290 0.91320
 C282 C 1.01786 0.52379 0.91752
 H283 H 0.99440 0.55481 0.92552
 H284 H 1.02258 0.51315 0.91131
 H285 H 1.03154 0.53487 0.96108
 H286 H 1.04422 0.54804 0.94745
 N287 N 0.52897 0.06941 0.47349
 N288 N 0.54222 0.06524 0.48157
 C289 C 0.54435 0.07571 0.49405
 C290 C 0.53176 0.08709 0.49380
 C291 C 0.52224 0.08266 0.48054
 H292 H 0.55424 0.07499 0.50276
 H293 H 0.51128 0.08866 0.47621
 Cu294 Cu 0.55536 0.04650 0.47506
 Cu295 Cu 0.52144 0.05740 0.45444
 Cu296 Cu 0.54408 0.02344 0.44303
 N297 N 0.56766 0.02713 0.46872
 N298 N 0.56317 0.01816 0.45622
 C299 C 0.57366 0.00559 0.45455
 C300 C 0.58544 0.00669 0.46667
 C301 C 0.58119 0.02055 0.47543
 H302 H 0.57282 -0.00357 0.44511
 H303 H 0.58739 0.02541 0.48600
 N304 N 0.52439 0.03074 0.43120
 N305 N 0.51580 0.04368 0.43553
 C306 C 0.50322 0.04553 0.42507
 C307 C 0.50389 0.03314 0.41358
 C308 C 0.51750 0.02400 0.41790
 H309 H 0.49417 0.05513 0.42585
 H310 H 0.52217 0.01332 0.41171
 H311 H 0.53139 0.03522 0.46141
 H312 H 0.54402 0.04828 0.44762
 N313 N -0.02942 0.06979 0.52575
 N314 N -0.04265 0.06560 0.51767
 C315 C -0.04481 0.07607 0.50520
 C316 C -0.03225 0.08747 0.50545
 C317 C -0.02272 0.08304 0.51871
 H318 H -0.05471 0.07535 0.49650
 H319 H -0.01178 0.08906 0.52305
 Cu320 Cu -0.05575 0.04684 0.52421
 Cu321 Cu -0.02186 0.05779 0.54481
 Cu322 Cu -0.04448 0.02388 0.55633
 N323 N -0.06804 0.02749 0.53059
 N324 N -0.06359 0.01861 0.54316
 C325 C -0.07411 0.00608 0.54491
 C326 C -0.08585 0.00710 0.53275
 C327 C -0.08156 0.02088 0.52389
 H328 H -0.07316 -0.00315 0.55428
 H329 H -0.08786 0.02581 0.51341
 N330 N -0.02478 0.03117 0.56811
 N331 N -0.01619 0.04410 0.56375
 C332 C -0.00359 0.04594 0.57418
 C333 C -0.00425 0.03357 0.58569
 C334 C -0.01787 0.02445 0.58141
 H335 H 0.00546 0.05553 0.57337
 H336 H -0.02253 0.01378 0.58763
 H337 H -0.03179 0.03559 0.53792
 H338 H -0.04444 0.04871 0.55165
 N339 N 0.47179 0.56839 0.02591
 N340 N 0.45913 0.56368 0.01725
 C341 C 0.45702 0.57416 0.00477
 C342 C 0.46902 0.58611 0.00562
 C343 C 0.47817 0.58201 0.01925
 H344 H 0.44736 0.57323 -0.00418
 H345 H 0.48877 0.58835 0.02395
 Cu346 Cu 0.44655 0.54436 0.02315
 Cu347 Cu 0.47910 0.55657 0.04517
 Cu348 Cu 0.45651 0.52256 0.05649
 N349 N 0.43374 0.52552 0.02999
 N350 N 0.43768 0.51708 0.04303
 C351 C 0.42686 0.50485 0.04501
 C352 C 0.41545 0.50560 0.03252
 C353 C 0.42025 0.51892 0.02322
 H354 H 0.42736 0.49600 0.05477
 H355 H 0.41429 0.52357 0.01243
 N356 N 0.47597 0.53005 0.06855
 N357 N 0.48455 0.54301 0.06426
 C358 C 0.49700 0.54495 0.07485
 C359 C 0.49627 0.53261 0.08638
 C360 C 0.48275 0.52340 0.08196
 H361 H 0.50603 0.55457 0.07410
 H362 H 0.47809 0.51270 0.08813
 H363 H 0.46996 0.53399 0.03847
 H364 H 0.45632 0.54726 0.05106
 N365 N 0.52917 -0.06874 0.02670
 N366 N 0.54234 -0.06453 0.01854
 C367 C 0.54439 -0.07496 0.00601
 C368 C 0.53183 -0.08636 0.00632
 C369 C 0.52241 -0.08197 0.01966
 H370 H 0.55423 -0.07422 -0.00275
 H371 H 0.51151 -0.08801 0.02405
 Cu372 Cu 0.55550 -0.04581 0.02505
 Cu373 Cu 0.52178 -0.05681 0.04585
 Cu374 Cu 0.54455 -0.02298 0.05735
 N375 N 0.56789 -0.02653 0.03143
 N376 N 0.56357 -0.01769 0.04407
 C377 C 0.57416 -0.00521 0.04579
 C378 C 0.58579 -0.00622 0.03354
 C379 C 0.58137 -0.01994 0.02465
 H380 H 0.57333 0.00398 0.05521
 H381 H 0.58758 -0.02486 0.01412
 N382 N 0.52492 -0.03030 0.06924
 N383 N 0.51627 -0.04319 0.06488
 C384 C 0.50375 -0.04506 0.07538
 C385 C 0.50451 -0.03275 0.08694
 C386 C 0.51811 -0.02362 0.08262
 H387 H 0.49468 -0.05464 0.07458
 H388 H 0.52283 -0.01299 0.08884
 H389 H 0.53168 -0.03458 0.03900
 H390 H 0.54443 -0.04778 0.05257
 N391 N 1.02829 0.43193 0.52527
 N392 N 1.04096 0.43664 0.51662
 C393 C 1.04294 0.42627 0.50403
 C394 C 1.03085 0.41440 0.50481
 C395 C 1.02179 0.41844 0.51850
 H396 H 1.05257 0.42721 0.49506
 H397 H 1.01116 0.41213 0.52317
 Cu398 Cu 1.05370 0.45580 0.52267
 Cu399 Cu 1.02115 0.44362 0.54467
 Cu400 Cu 1.04403 0.47734 0.55625
 N401 N 1.06668 0.47449 0.52965
 N402 N 1.06285 0.48282 0.54279
 C403 C 1.07375 0.49497 0.54484
 C404 C 1.08509 0.49427 0.53230
 C405 C 1.08017 0.48107 0.52290
 H406 H 1.07334 0.50373 0.55468
 H407 H 1.08605 0.47650 0.51203
 N408 N 1.02456 0.46987 0.56830
 N409 N 1.01587 0.45702 0.56391
 C410 C 1.00344 0.45506 0.57450
 C411 C 1.00430 0.46728 0.58615
 C412 C 1.01787 0.47644 0.58179
 H413 H 0.99434 0.44552 0.57368
 H414 H 1.02263 0.48704 0.58804
 H415 H 1.03043 0.46619 0.53816
 H416 H 1.04402 0.45270 0.55058
 C417 C 0.39838 0.00737 0.22822
 H418 H 0.39899 0.01847 0.23537
 C419 C 0.40911 0.00508 0.21519
 H420 H 0.41805 0.01445 0.21244
 C421 C 0.38629 -0.01853 0.22353
 H422 H 0.37753 -0.02780 0.22693
 C423 C 0.39680 -0.02134 0.21041
 H424 H 0.39576 -0.03265 0.20365
 N425 N 0.38713 -0.00427 0.23201
 C426 C 0.34817 0.02172 0.25751
 H427 H 0.34750 0.01459 0.26859
 C428 C 0.33749 0.03484 0.25515
 H429 H 0.32877 0.03789 0.26461
 C430 C 0.36048 0.02640 0.23180
 H431 H 0.36924 0.02290 0.22260
 C432 C 0.35005 0.03963 0.22894
 H433 H 0.35092 0.04617 0.21751
 Zn434 Zn 0.37329 -0.00028 0.25008
 N435 N 0.35950 0.01788 0.24600
 C436 C 0.38596 0.01808 0.27670
 N437 N 0.38696 0.00380 0.26826
 C438 C 0.39825 -0.00777 0.27218
 C439 C 0.40887 -0.00539 0.28529
 C440 C 0.39635 0.02098 0.28990
 C441 C 0.34837 -0.02242 0.24244
 C442 C 0.33772 -0.03556 0.24474
 C443 C 0.35008 -0.04024 0.27107
 C444 C 0.36049 -0.02700 0.26827
 N445 N 0.35959 -0.01851 0.25404
 H446 H 0.37717 0.02730 0.27320
 H447 H 0.39899 -0.01888 0.26506
 H448 H 0.41784 -0.01471 0.28814
 H449 H 0.39519 0.03231 0.29662
 H450 H 0.34776 -0.01532 0.23133
 H451 H 0.32909 -0.03865 0.23522
 H452 H 0.35088 -0.04674 0.28253
 H453 H 0.36915 -0.02344 0.27755
 C454 C 0.33839 0.04404 0.24073
 C455 C 0.40838 -0.00942 0.20606
 C456 C 0.33853 -0.04470 0.25920
 C457 C 0.40798 0.00913 0.29438
 C458 C 0.10144 -0.00739 0.72705
 H459 H 0.10066 -0.01848 0.73419
 C460 C 0.09084 -0.00499 0.71393
 H461 H 0.08183 -0.01427 0.71110
 C462 C 0.11381 0.01840 0.72249
 H463 H 0.12262 0.02759 0.72598
 C464 C 0.10343 0.02132 0.70928
 H465 H 0.10463 0.03264 0.70254
 N466 N 0.11276 0.00414 0.73095
 C467 C 0.15122 -0.02221 0.75689
 H468 H 0.15184 -0.01508 0.76797
 C469 C 0.16181 -0.03542 0.75464
 H470 H 0.17041 -0.03853 0.76418
 C471 C 0.13913 -0.02678 0.73105
 H472 H 0.13049 -0.02320 0.72175
 C473 C 0.14948 -0.04008 0.72829
 H474 H 0.14867 -0.04661 0.71685
 Zn475 Zn 0.12639 0.00003 0.74916
 N476 N 0.14004 -0.01827 0.74525
 C477 C 0.11331 -0.01810 0.77575
 N478 N 0.11250 -0.00387 0.76721
 C479 C 0.10130 0.00784 0.77096
 C480 C 0.09059 0.00566 0.78403
 C481 C 0.10282 -0.02079 0.78891
 C482 C 0.15158 0.02196 0.74175
 C483 C 0.16228 0.03504 0.74414
 C484 C 0.14971 0.03984 0.77033
 C485 C 0.13925 0.02665 0.76745
 N486 N 0.14022 0.01814 0.75325
 H487 H 0.12204 -0.02742 0.77238
 H488 H 0.10071 0.01891 0.76376
 H489 H 0.08170 0.01510 0.78676
 H490 H 0.10385 -0.03207 0.79574
 H491 H 0.15224 0.01484 0.73067
 H492 H 0.17102 0.03807 0.73470
 H493 H 0.14883 0.04637 0.78177
 H494 H 0.13047 0.02317 0.77665
 C495 C 0.16099 -0.04459 0.74020
 C496 C 0.09178 0.00952 0.70482
 C497 C 0.16139 0.04422 0.75857
 C498 C 0.09131 -0.00879 0.79325
 C499 C 0.60196 0.49204 0.22792
 H500 H 0.60128 0.48093 0.23503
 C501 C 0.59130 0.49440 0.21483
 H502 H 0.58236 0.48506 0.21200
 C503 C 0.61413 0.51794 0.22338
 H504 H 0.62288 0.52718 0.22687
 C505 C 0.60369 0.52082 0.21021
 H506 H 0.60479 0.53215 0.20349
 N507 N 0.61321 0.50365 0.23181
 C508 C 0.65194 0.47749 0.25754
 H509 H 0.65256 0.48459 0.26864
 C510 C 0.66256 0.46431 0.25525
 H511 H 0.67119 0.46120 0.26478
 C512 C 0.63978 0.47291 0.23174
 H513 H 0.63110 0.47647 0.22247
 C514 C 0.65016 0.45963 0.22894
 H515 H 0.64933 0.45311 0.21750
 Zn516 Zn 0.62693 0.49959 0.24997
 N517 N 0.64070 0.48140 0.24595
 C518 C 0.61406 0.48124 0.27650
 N519 N 0.61314 0.49552 0.26805
 C520 C 0.60186 0.50713 0.27189
 C521 C 0.59117 0.50478 0.28494
 C522 C 0.60359 0.47838 0.28964
 C523 C 0.65194 0.52169 0.24252
 C524 C 0.66257 0.53483 0.24489
 C525 C 0.65007 0.53949 0.27115
 C526 C 0.63968 0.52625 0.26827
 N527 N 0.64065 0.51778 0.25405
 H528 H 0.62284 0.47200 0.27306
 H529 H 0.60119 0.51823 0.26476
 H530 H 0.58220 0.51412 0.28773
 H531 H 0.60469 0.46705 0.29638
 H532 H 0.65260 0.51459 0.23142
 H533 H 0.67126 0.53793 0.23543
 H534 H 0.64920 0.54599 0.28261
 H535 H 0.63096 0.52269 0.27749
 C536 C 0.66171 0.45514 0.24081
 C537 C 0.59211 0.50894 0.20575
 C538 C 0.66168 0.54397 0.25935
 C539 C 0.59197 0.49025 0.29404
 C540 C 0.89861 0.50737 0.72774
 H541 H 0.89925 0.51847 0.73489
 C542 C 0.90930 0.50506 0.71468
 H543 H 0.91824 0.51443 0.71191
 C544 C 0.88649 0.48147 0.72311
 H545 H 0.87774 0.47221 0.72654
 C546 C 0.89696 0.47864 0.70997
 H547 H 0.89590 0.46732 0.70321
 N548 N 0.88736 0.49574 0.73158
 C549 C 0.84849 0.52175 0.75719
 H550 H 0.84785 0.51462 0.76827
 C551 C 0.83781 0.53488 0.75486
 H552 H 0.82912 0.53793 0.76433
 C553 C 0.86073 0.52643 0.73145
 H554 H 0.86947 0.52293 0.72222
 C555 C 0.85030 0.53966 0.72861
 H556 H 0.85114 0.54620 0.71718
 Zn557 Zn 0.87358 0.49974 0.74968
 N558 N 0.85979 0.51791 0.74565
 C559 C 0.88633 0.51806 0.77629
 N560 N 0.88730 0.50380 0.76783
 C561 C 0.89860 0.49221 0.77170
 C562 C 0.90925 0.49457 0.78479
 C563 C 0.89676 0.52094 0.78947
 C564 C 0.84863 0.47761 0.74211
 C565 C 0.83801 0.46444 0.74443
 C566 C 0.85045 0.45976 0.77072
 C567 C 0.86083 0.47302 0.76790
 N568 N 0.85988 0.48151 0.75369
 H569 H 0.87753 0.52729 0.77283
 H570 H 0.89932 0.48112 0.76456
 H571 H 0.91823 0.48525 0.78760
 H572 H 0.89561 0.53225 0.79621
 H573 H 0.84798 0.48472 0.73101
 H574 H 0.82935 0.46135 0.73493
 H575 H 0.85129 0.45324 0.78217
 H576 H 0.86952 0.47657 0.77716
 C577 C 0.83867 0.54407 0.74043
 C578 C 0.90854 0.49055 0.70557
 C579 C 0.83887 0.45528 0.75888
 C580 C 0.90839 0.50908 0.79390
 C581 C 0.22822 0.40132 0.00729
 H582 H 0.23542 0.40200 0.01834
 C583 C 0.21509 0.41201 0.00498
 H584 H 0.21231 0.42096 0.01428
 C585 C 0.22351 0.38913 -0.01847
 H586 H 0.22695 0.38035 -0.02767
 C587 C 0.21030 0.39959 -0.02130
 H588 H 0.20349 0.39849 -0.03256
 N589 N 0.23205 0.39005 -0.00427
 C590 C 0.25781 0.35125 0.02169
 H591 H 0.26890 0.35053 0.01454
 C592 C 0.25546 0.34058 0.03476
 H593 H 0.26479 0.33160 0.03753
 C594 C 0.23194 0.36351 0.02635
 H595 H 0.22271 0.37231 0.02292
 C596 C 0.22908 0.35307 0.03951
 H597 H 0.21776 0.35421 0.04627
 Zn598 Zn 0.25025 0.37627 -0.00027
 N599 N 0.24621 0.36255 0.01787
 C600 C 0.27703 0.38900 0.01793
 N601 N 0.26850 0.38995 0.00373
 C602 C 0.27238 0.40120 -0.00784
 C603 C 0.28555 0.41182 -0.00554
 C604 C 0.29029 0.39940 0.02075
 C605 C 0.24258 0.35127 -0.02220
 C606 C 0.24488 0.34059 -0.03526
 C607 C 0.27129 0.35297 -0.04006
 C608 C 0.26849 0.36342 -0.02689
 N609 N 0.25422 0.36252 -0.01839
 H610 H 0.27356 0.38025 0.02714
 H611 H 0.26519 0.40190 -0.01889
 H612 H 0.28837 0.42075 -0.01485
 H613 H 0.29709 0.39827 0.03202
 H614 H 0.23145 0.35067 -0.01509
 H615 H 0.23533 0.33193 -0.03828
 H616 H 0.28278 0.35377 -0.04658
 H617 H 0.27779 0.37211 -0.02342
 C618 C 0.24095 0.34144 0.04389
 C619 C 0.20590 0.41120 -0.00947
 C620 C 0.25938 0.34138 -0.04442
 C621 C 0.29473 0.41097 0.00891
 C622 C 0.72865 0.09805 -0.00781
 H623 H 0.73581 0.09727 -0.01886
 C624 C 0.71546 0.08747 -0.00541
 H625 H 0.71261 0.07848 -0.01466
 C626 C 0.72408 0.11042 0.01789
 H627 H 0.72759 0.11922 0.02704
 C628 C 0.71081 0.10006 0.02080
 H629 H 0.70404 0.10127 0.03207
 N630 N 0.73257 0.10937 0.00368
 C631 C 0.75844 0.14790 -0.02253
 H632 H 0.76956 0.14858 -0.01540
 C633 C 0.75608 0.15853 -0.03562
 H634 H 0.76544 0.16746 -0.03845
 C635 C 0.73250 0.13576 -0.02707
 H636 H 0.72324 0.12702 -0.02358
 C637 C 0.72963 0.14617 -0.04025
 H638 H 0.71828 0.14508 -0.04697
 Zn639 Zn 0.75082 0.12302 -0.00043
 N640 N 0.74680 0.13668 -0.01862
 C641 C 0.77759 0.11008 -0.01852
 N642 N 0.76902 0.10923 -0.00435
 C643 C 0.77288 0.09806 0.00731
 C644 C 0.78612 0.08748 0.00516
 C645 C 0.79092 0.09972 -0.02120
 C646 C 0.74333 0.14814 0.02145
 C647 C 0.74568 0.15880 0.03453
 C648 C 0.77205 0.14628 0.03929
 C649 C 0.76919 0.13588 0.02611
 N650 N 0.75491 0.13684 0.01763
 H651 H 0.77414 0.11878 -0.02781
 H652 H 0.76565 0.09743 0.01833
 H653 H 0.78896 0.07864 0.01456
 H654 H 0.79778 0.10080 -0.03242
 H655 H 0.73218 0.14880 0.01436
 H656 H 0.73616 0.16749 0.03757
 H657 H 0.78354 0.14541 0.04582
 H658 H 0.77847 0.12714 0.02263
 C659 C 0.74153 0.15773 -0.04470
 C660 C 0.70631 0.08842 0.00905
 C661 C 0.76018 0.15790 0.04370
 C662 C 0.79539 0.08828 -0.00923
 C663 C 0.22812 0.59882 0.49216
 H664 H 0.23531 0.59816 0.48112
 C665 C 0.21499 0.58814 0.49446
 H666 H 0.21222 0.57920 0.48515
 C667 C 0.22342 0.61099 0.51793
 H668 H 0.22685 0.61976 0.52714
 C669 C 0.21021 0.60053 0.52075
 H670 H 0.20340 0.60163 0.53201
 N671 N 0.23194 0.61008 0.50373
 C672 C 0.25764 0.64888 0.47776
 H673 H 0.26875 0.64958 0.48491
 C674 C 0.25528 0.65953 0.46468
 H675 H 0.26461 0.66850 0.46190
 C676 C 0.23177 0.63663 0.47312
 H677 H 0.22254 0.62785 0.47656
 C678 C 0.22889 0.64707 0.45996
 H679 H 0.21756 0.64594 0.45320
 Zn680 Zn 0.25012 0.62387 0.49974
 N681 N 0.24605 0.63759 0.48160
 C682 C 0.27690 0.61113 0.48153
 N683 N 0.26839 0.61019 0.49574
 C684 C 0.27229 0.59894 0.50731
 C685 C 0.28546 0.58831 0.50499
 C686 C 0.29016 0.60074 0.47871
 C687 C 0.24244 0.64884 0.52170
 C688 C 0.24474 0.65952 0.53476
 C689 C 0.27119 0.64717 0.53951
 C690 C 0.26839 0.63673 0.52634
 N691 N 0.25410 0.63762 0.51786
 H692 H 0.27334 0.61982 0.47228
 H693 H 0.26517 0.59830 0.51840
 H694 H 0.28855 0.57965 0.51448
 H695 H 0.29669 0.60157 0.46726
 H696 H 0.23129 0.64944 0.51460
 H697 H 0.23518 0.66817 0.53780
 H698 H 0.28270 0.64638 0.54602
 H699 H 0.27771 0.62806 0.52285
 C700 C 0.24075 0.65869 0.45556
 C701 C 0.20581 0.58894 0.50890
 C702 C 0.25926 0.65874 0.54390
 C703 C 0.29463 0.58916 0.49054
 C704 C 0.72788 0.90146 0.50758
 H705 H 0.73503 0.90211 0.51866
 C706 C 0.71472 0.91211 0.50526
 H707 H 0.71168 0.92080 0.51473
 C708 C 0.72318 0.88921 0.48185
 H709 H 0.72669 0.88049 0.47262
 C710 C 0.70992 0.89962 0.47902
 H711 H 0.70336 0.89877 0.46759
 N712 N 0.73173 0.89018 0.49604
 C713 C 0.75762 0.85152 0.52209
 H714 H 0.76873 0.85084 0.51495
 C715 C 0.75530 0.84088 0.53518
 H716 H 0.76467 0.83194 0.53798
 C717 C 0.73170 0.86369 0.52668
 H718 H 0.72243 0.87244 0.52322
 C719 C 0.72886 0.85326 0.53986
 H720 H 0.71753 0.85437 0.54660
 Zn721 Zn 0.74997 0.87646 0.50006
 N722 N 0.74598 0.86276 0.51822
 C723 C 0.77673 0.88934 0.51819
 N724 N 0.76817 0.89022 0.50400
 C725 C 0.77198 0.90146 0.49240
 C726 C 0.78510 0.91215 0.49467
 C727 C 0.78994 0.89981 0.52098
 C728 C 0.74237 0.85143 0.47814
 C729 C 0.74470 0.84074 0.46509
 C730 C 0.77108 0.85318 0.46030
 C731 C 0.76825 0.86362 0.47346
 N732 N 0.75399 0.86270 0.48195
 H733 H 0.77332 0.88059 0.52743
 H734 H 0.76477 0.90211 0.48136
 H735 H 0.78785 0.92109 0.48534
 H736 H 0.79676 0.89875 0.53224
 H737 H 0.73124 0.85081 0.48525
 H738 H 0.73517 0.83206 0.46207
 H739 H 0.78257 0.85400 0.45378
 H740 H 0.77754 0.87234 0.47693
 C741 C 0.74077 0.84169 0.54428
 C742 C 0.70551 0.91124 0.49083
 C743 C 0.75920 0.84157 0.45594
 C744 C 0.79430 0.91139 0.50911
 C745 C 0.00682 0.22889 0.39898
 H746 H 0.01786 0.23616 0.39961
 C747 C 0.00461 0.21581 0.40967
 H748 H 0.01400 0.21314 0.41861
 C749 C -0.01905 0.22395 0.38687
 H750 H -0.02834 0.22727 0.37812
 C751 C -0.02177 0.21078 0.39735
 H752 H -0.03304 0.20389 0.39629
 N753 N -0.00485 0.23258 0.38774
 C754 C 0.02103 0.25840 0.34904
 H755 H 0.01381 0.26948 0.34837
 C756 C 0.03417 0.25611 0.33842
 H757 H 0.03714 0.26561 0.32973
 C758 C 0.02590 0.23262 0.36130
 H759 H 0.02246 0.22336 0.37002
 C760 C 0.03915 0.22983 0.35092
 H761 H 0.04577 0.21839 0.35179
 Zn762 Zn -0.00100 0.25074 0.37395
 N763 N 0.01726 0.24682 0.36031
 C764 C 0.01705 0.27766 0.38663
 N765 N 0.00283 0.26905 0.38755
 C766 C -0.00883 0.27284 0.39874
 C767 C -0.00659 0.28597 0.40937
 C768 C 0.01979 0.29089 0.39702
 C769 C -0.02297 0.24275 0.34910
 C770 C -0.03620 0.24479 0.33853
 C771 C -0.04135 0.27117 0.35074
 C772 C -0.02802 0.26862 0.36110
 N773 N -0.01927 0.25449 0.36024
 H774 H 0.02638 0.27419 0.37798
 H775 H -0.01992 0.26564 0.39936
 H776 H -0.01615 0.28895 0.41800
 H777 H 0.03125 0.29749 0.39622
 H778 H -0.01560 0.23177 0.34847
 H779 H -0.03889 0.23533 0.32970
 H780 H -0.04835 0.28236 0.35181
 H781 H -0.02469 0.27796 0.36977
 C782 C 0.04346 0.24168 0.33930
 C783 C -0.00983 0.20652 0.40892
 C784 C -0.04564 0.25913 0.33931
 C785 C 0.00787 0.29522 0.40857
 C786 C -0.00803 0.72827 0.09967
 H787 H -0.01910 0.73551 0.09899
 C788 C -0.00577 0.71512 0.08907
 H789 H -0.01514 0.71237 0.08015
 C790 C 0.01786 0.72349 0.11181
 H791 H 0.02714 0.72690 0.12053
 C792 C 0.02064 0.71025 0.10142
 H793 H 0.03194 0.70341 0.10252
 N794 N 0.00363 0.73208 0.11088
 C795 C -0.02226 0.75813 0.14942
 H796 H -0.01505 0.76921 0.15000
 C797 C -0.03535 0.75590 0.16011
 H798 H -0.03829 0.76545 0.16876
 C799 C -0.02714 0.73228 0.13734
 H800 H -0.02372 0.72296 0.12867
 C801 C -0.04034 0.72954 0.14779
 H802 H -0.04694 0.71810 0.14703
 Zn803 Zn -0.00028 0.75033 0.12452
 N804 N -0.01852 0.74648 0.13821
 C805 C -0.01835 0.77721 0.11173
 N806 N -0.00417 0.76854 0.11081
 C807 C 0.00750 0.77227 0.09960
 C808 C 0.00533 0.78545 0.08901
 C809 C -0.02104 0.79048 0.10136
 C810 C 0.02173 0.74263 0.14946
 C811 C 0.03485 0.74490 0.16012
 C812 C 0.03978 0.77123 0.14773
 C813 C 0.02657 0.76845 0.13728
 N814 N 0.01796 0.75424 0.13821
 H815 H -0.02764 0.77386 0.12046
 H816 H 0.01853 0.76497 0.09892
 H817 H 0.01473 0.78816 0.08012
 H818 H -0.03228 0.79741 0.10247
 H819 H 0.01448 0.73158 0.15014
 H820 H 0.03756 0.73556 0.16907
 H821 H 0.04663 0.78250 0.14663
 H822 H 0.02318 0.77770 0.12852
 C823 C -0.04461 0.74146 0.15936
 C824 C 0.00872 0.70589 0.08988
 C825 C 0.04410 0.75935 0.15932
 C826 C -0.00908 0.79480 0.08985
 C827 C 0.49225 0.22825 0.60043
 H828 H 0.48119 0.23551 0.59976
 C829 C 0.49450 0.21515 0.58976
 H830 H 0.48514 0.21247 0.58081
 C831 C 0.51810 0.22335 0.61260
 H832 H 0.52737 0.22669 0.62136
 C833 C 0.52087 0.21016 0.60214
 H834 H 0.53215 0.20329 0.60323
 N835 N 0.50389 0.23197 0.61168
 C836 C 0.47793 0.25785 0.65029
 H837 H 0.48517 0.26890 0.65099
 C838 C 0.46479 0.25557 0.66092
 H839 H 0.46205 0.26490 0.66986
 C840 C 0.47312 0.23203 0.63810
 H841 H 0.47653 0.22279 0.62935
 C842 C 0.45990 0.22924 0.64851
 H843 H 0.45306 0.21796 0.64740
 Zn844 Zn 0.49997 0.25017 0.62539
 N845 N 0.48172 0.24624 0.63905
 C846 C 0.48185 0.27702 0.61263
 N847 N 0.49607 0.26841 0.61173
 C848 C 0.50772 0.27217 0.60052
 C849 C 0.50547 0.28529 0.58986
 C850 C 0.47908 0.29023 0.60220
 C851 C 0.52198 0.24239 0.65031
 C852 C 0.53511 0.24461 0.66096
 C853 C 0.54005 0.27098 0.64865
 C854 C 0.52682 0.26824 0.63821
 N855 N 0.51821 0.25404 0.63910
 H856 H 0.47257 0.27365 0.62137
 H857 H 0.51878 0.26491 0.59985
 H858 H 0.51484 0.28799 0.58094
 H859 H 0.46779 0.29708 0.60327
 H860 H 0.51472 0.23134 0.65096
 H861 H 0.53783 0.23523 0.66988
 H862 H 0.54691 0.28224 0.64758
 H863 H 0.52344 0.27752 0.62948
 C864 C 0.45555 0.24111 0.66009
 C865 C 0.50896 0.20589 0.59055
 C866 C 0.54438 0.25905 0.66019
 C867 C 0.49100 0.29453 0.59064
 C868 C 0.50759 0.72835 0.90009
 H869 H 0.51868 0.73556 0.90067
 C870 C 0.50538 0.71525 0.91076
 H871 H 0.51496 0.71229 0.91939
 C872 C 0.48171 0.72348 0.88800
 H873 H 0.47237 0.72690 0.87933
 C874 C 0.47899 0.71027 0.89843
 H875 H 0.46754 0.70365 0.89765
 N876 N 0.49592 0.73209 0.88888
 C877 C 0.52175 0.75797 0.85019
 H878 H 0.51449 0.76902 0.84951
 C879 C 0.53486 0.75569 0.83953
 H880 H 0.53756 0.76503 0.83058
 C881 C 0.52661 0.73215 0.86237
 H882 H 0.52324 0.72290 0.87113
 C883 C 0.53981 0.72936 0.85192
 H884 H 0.54667 0.71808 0.85302
 Zn885 Zn 0.49978 0.75029 0.87515
 N886 N 0.51800 0.74636 0.86144
 C887 C 0.51792 0.77714 0.88784
 N888 N 0.50370 0.76854 0.88879
 C889 C 0.49208 0.77232 0.90003
 C890 C 0.49435 0.78545 0.91065
 C891 C 0.52070 0.79036 0.89824
 C892 C 0.47771 0.74250 0.85031
 C893 C 0.46454 0.74472 0.83969
 C894 C 0.45963 0.77111 0.85199
 C895 C 0.47288 0.76837 0.86239
 N896 N 0.48150 0.75416 0.86149
 H897 H 0.52718 0.77375 0.87909
 H898 H 0.48103 0.76507 0.90073
 H899 H 0.48500 0.78818 0.91959
 H900 H 0.53198 0.79721 0.89713
 H901 H 0.48497 0.73146 0.84965
 H902 H 0.46181 0.73534 0.83080
 H903 H 0.45276 0.78238 0.85306
 H904 H 0.47628 0.77765 0.87110
 C905 C 0.54411 0.74123 0.84033
 C906 C 0.49093 0.70597 0.90998
 C907 C 0.45527 0.75917 0.84047
 C908 C 0.50881 0.79469 0.90982
 C909 C 0.12248 0.22616 0.27601
 C910 C 0.12358 0.23509 0.26152
 C911 C 0.13669 0.23253 0.25088
 C912 C 0.14891 0.22096 0.25458
 C913 C 0.14767 0.21204 0.26920
 C914 C 0.13455 0.21464 0.27982
 C915 C 0.10896 0.22880 0.28693
 C916 C 0.09761 0.23104 0.29605
 C917 C 0.08404 0.23372 0.30690
 C918 C 0.06967 0.24101 0.30112
 C919 C 0.05647 0.24361 0.31164
 C920 C 0.05748 0.23894 0.32811
 C921 C 0.07200 0.23162 0.33380
 C922 C 0.08518 0.22904 0.32326
 H923 H 0.11428 0.24403 0.25843
 H924 H 0.13711 0.23955 0.23973
 H925 H 0.15685 0.20313 0.27256
 H926 H 0.13383 0.20767 0.29102
 H927 H 0.06864 0.24463 0.28846
 H928 H 0.04540 0.24907 0.30684
 H929 H 0.07323 0.22808 0.34645
 H930 H 0.09627 0.22342 0.32787
 C931 C 0.62288 0.72599 0.77666
 C932 C 0.62746 0.73826 0.76570
 C933 C 0.64053 0.73573 0.75500
 C934 C 0.64923 0.72085 0.75511
 C935 C 0.64451 0.70861 0.76621
 C936 C 0.63143 0.71117 0.77689
 C937 C 0.60940 0.72860 0.78763
 C938 C 0.59809 0.73079 0.79681
 C939 C 0.58457 0.73340 0.80774
 C940 C 0.58195 0.74886 0.81457
 C941 C 0.56880 0.75142 0.82517
 C942 C 0.55810 0.73852 0.82909
 C943 C 0.56085 0.72303 0.82216
 C944 C 0.57400 0.72050 0.81155
 H945 H 0.62094 0.74980 0.76543
 H946 H 0.64383 0.74550 0.74676
 H947 H 0.65078 0.69697 0.76661
 H948 H 0.62797 0.70158 0.78531
 H949 H 0.59008 0.75892 0.81174
 H950 H 0.56713 0.76343 0.83047
 H951 H 0.55271 0.71291 0.82475
 H952 H 0.57590 0.70850 0.80629
 C953 C 0.37607 0.77390 0.77714
 C954 C 0.37197 0.76187 0.76574
 C955 C 0.35879 0.76426 0.75513
 C956 C 0.34949 0.77875 0.75578
 C957 C 0.35374 0.79077 0.76731
 C958 C 0.36694 0.78835 0.77790
 C959 C 0.38965 0.77141 0.78804
 C960 C 0.40103 0.76931 0.79716
 C961 C 0.41461 0.76678 0.80804
 C962 C 0.41731 0.75137 0.81494
 C963 C 0.43052 0.74888 0.82548
 C964 C 0.44122 0.76181 0.82928
 C965 C 0.43840 0.77727 0.82229
 C966 C 0.42518 0.77972 0.81174
 H967 H 0.37895 0.75062 0.76506
 H968 H 0.35587 0.75467 0.74655
 H969 H 0.34700 0.80212 0.76813
 H970 H 0.37002 0.79776 0.78666
 H971 H 0.40917 0.74128 0.81219
 H972 H 0.43224 0.73690 0.83083
 H973 H 0.44653 0.78741 0.82479
 H974 H 0.42323 0.79170 0.80642
 C975 C -0.12639 0.27196 0.27752
 C976 C -0.12909 0.26098 0.26476
 C977 C -0.14277 0.26273 0.25469
 C978 C -0.15409 0.27556 0.25720
 C979 C -0.15110 0.28660 0.27009
 C980 C -0.13738 0.28479 0.28013
 C981 C -0.11242 0.26996 0.28803
 C982 C -0.10077 0.26817 0.29687
 C983 C -0.08690 0.26593 0.30746
 C984 C -0.08385 0.25059 0.31439
 C985 C -0.07043 0.24837 0.32473
 C986 C -0.05987 0.26149 0.32828
 C987 C -0.06305 0.27686 0.32125
 C988 C -0.07648 0.27905 0.31090
 H989 H -0.12063 0.25099 0.26263
 H990 H -0.14437 0.25392 0.24501
 H991 H -0.15928 0.29667 0.27260
 H992 H -0.13540 0.29337 0.28998
 H993 H -0.09188 0.24036 0.31185
 H994 H -0.06845 0.23645 0.33012
 H995 H -0.05503 0.28714 0.32358
 H996 H -0.07871 0.29097 0.30557
 C997 C -0.12318 0.72622 0.22325
 C998 C -0.13526 0.71468 0.21954
 C999 C -0.14830 0.71209 0.23026
 C1000 C -0.14946 0.72104 0.24487
 C1001 C -0.13724 0.73263 0.24846
 C1002 C -0.12421 0.73518 0.23772
 C1003 C -0.10974 0.72884 0.21223
 C1004 C -0.09846 0.73103 0.20303
 C1005 C -0.08497 0.73366 0.19207
 C1006 C -0.08620 0.72887 0.17575
 C1007 C -0.07309 0.73140 0.16511
 C1008 C -0.05856 0.73878 0.17066
 C1009 C -0.05745 0.74355 0.18709
 C1010 C -0.07058 0.74100 0.19771
 H1011 H -0.13460 0.70769 0.20835
 H1012 H -0.15749 0.70317 0.22698
 H1013 H -0.13760 0.73967 0.25960
 H1014 H -0.11490 0.74413 0.24073
 H1015 H -0.09731 0.72322 0.17125
 H1016 H -0.07440 0.72778 0.15249
 H1017 H -0.04636 0.74905 0.19179
 H1018 H -0.06948 0.74471 0.21034
 C1019 C 0.37671 0.22582 0.72365
 C1020 C 0.36636 0.21241 0.72150
 C1021 C 0.35327 0.20981 0.73216
 C1022 C 0.35029 0.22063 0.74524
 C1023 C 0.36088 0.23414 0.74720
 C1024 C 0.37395 0.23667 0.73650
 C1025 C 0.39021 0.22844 0.71269
 C1026 C 0.40152 0.23064 0.70352
 C1027 C 0.41505 0.23326 0.69261
 C1028 C 0.42564 0.22036 0.68881
 C1029 C 0.43881 0.22289 0.67823
 C1030 C 0.44155 0.23839 0.67131
 C1031 C 0.43082 0.25128 0.67520
 C1032 C 0.41766 0.24871 0.68578
 H1033 H 0.36840 0.20392 0.71157
 H1034 H 0.34560 0.19927 0.73002
 H1035 H 0.35924 0.24285 0.75695
 H1036 H 0.38191 0.24712 0.73827
 H1037 H 0.42376 0.20835 0.69407
 H1038 H 0.44697 0.21278 0.67566
 H1039 H 0.43248 0.26329 0.66991
 H1040 H 0.40951 0.25877 0.68860
 C1041 C 0.62346 0.27385 0.72363
 C1042 C 0.63409 0.28701 0.72126
 C1043 C 0.64727 0.28948 0.73184
 C1044 C 0.65010 0.27878 0.74505
 C1045 C 0.63922 0.26554 0.74725
 C1046 C 0.62605 0.26313 0.73664
 C1047 C 0.60989 0.27133 0.71273
 C1048 C 0.59853 0.26921 0.70359
 C1049 C 0.58496 0.26667 0.69270
 C1050 C 0.57439 0.27961 0.68897
 C1051 C 0.56120 0.27716 0.67839
 C1052 C 0.55840 0.26169 0.67141
 C1053 C 0.56910 0.24876 0.67525
 C1054 C 0.58229 0.25125 0.68582
 H1055 H 0.63219 0.29540 0.71121
 H1056 H 0.65516 0.29982 0.72951
 H1057 H 0.64072 0.25693 0.75712
 H1058 H 0.61788 0.25288 0.73858
 H1059 H 0.57632 0.29159 0.69426
 H1060 H 0.55306 0.28730 0.67586
 H1061 H 0.56740 0.23677 0.66992
 H1062 H 0.59043 0.24116 0.68860
 C1063 C 0.12284 0.77453 0.22307
 C1064 C 0.12740 0.76228 0.23406
 C1065 C 0.14046 0.76480 0.24478
 C1066 C 0.14918 0.77965 0.24466
 C1067 C 0.14449 0.79188 0.23353
 C1068 C 0.13141 0.78933 0.22283
 C1069 C 0.10937 0.77194 0.21208
 C1070 C 0.09806 0.76976 0.20289
 C1071 C 0.08456 0.76716 0.19194
 C1072 C 0.08194 0.75171 0.18510
 C1073 C 0.06880 0.74916 0.17449
 C1074 C 0.05808 0.76205 0.17057
 C1075 C 0.06083 0.77755 0.17750
 C1076 C 0.07398 0.78007 0.18812
 H1077 H 0.12086 0.75076 0.23434
 H1078 H 0.14374 0.75503 0.25305
 H1079 H 0.15077 0.80351 0.23312
 H1080 H 0.12797 0.79892 0.21438
 H1081 H 0.09008 0.74164 0.18794
 H1082 H 0.06713 0.73715 0.16919
 H1083 H 0.05268 0.78767 0.17491
 H1084 H 0.07586 0.79207 0.19338
 C1085 C 0.27542 0.12346 0.22490
 C1086 C 0.27989 0.13577 0.21395
 C1087 C 0.26945 0.14903 0.21119
 C1088 C 0.25434 0.15018 0.21937
 C1089 C 0.24998 0.13771 0.23038
 C1090 C 0.26045 0.12446 0.23311
 C1091 C 0.28618 0.10980 0.22769
 C1092 C 0.29522 0.09838 0.22999
 C1093 C 0.30603 0.08475 0.23270
 C1094 C 0.32247 0.08576 0.22802
 C1095 C 0.33299 0.07252 0.23061
 C1096 C 0.32721 0.05809 0.23796
 C1097 C 0.31065 0.05722 0.24264
 C1098 C 0.30015 0.07046 0.24001
 H1099 H 0.29147 0.13513 0.20755
 H1100 H 0.27332 0.15840 0.20274
 H1101 H 0.23844 0.13806 0.23682
 H1102 H 0.25685 0.11498 0.24160
 H1103 H 0.32716 0.09678 0.22238
 H1104 H 0.34571 0.07366 0.22707
 H1105 H 0.30577 0.04621 0.24812
 H1106 H 0.28743 0.06954 0.24365
 C1107 C 0.77563 0.62348 0.72478
 C1108 C 0.78008 0.63582 0.71386
 C1109 C 0.76961 0.64908 0.71115
 C1110 C 0.75451 0.65018 0.71935
 C1111 C 0.75018 0.63767 0.73032
 C1112 C 0.76067 0.62443 0.73300
 C1113 C 0.78642 0.60983 0.72752
 C1114 C 0.79547 0.59841 0.72980
 C1115 C 0.80630 0.58478 0.73248
 C1116 C 0.82272 0.58579 0.72775
 C1117 C 0.83325 0.57256 0.73032
 C1118 C 0.82748 0.55813 0.73769
 C1119 C 0.81094 0.55725 0.74241
 C1120 C 0.80043 0.57049 0.73981
 H1121 H 0.79166 0.63522 0.70745
 H1122 H 0.77346 0.65847 0.70272
 H1123 H 0.73864 0.63798 0.73677
 H1124 H 0.75710 0.61492 0.74147
 H1125 H 0.82740 0.59681 0.72211
 H1126 H 0.84596 0.57370 0.72675
 H1127 H 0.80608 0.54624 0.74790
 H1128 H 0.78772 0.56957 0.74347
 C1129 C 0.77612 0.37574 0.77451
 C1130 C 0.76128 0.37460 0.76607
 C1131 C 0.75085 0.36132 0.76872
 C1132 C 0.75511 0.34896 0.77990
 C1133 C 0.77007 0.35025 0.78832
 C1134 C 0.78049 0.36353 0.78563
 C1135 C 0.78685 0.38941 0.77177
 C1136 C 0.79586 0.40085 0.76951
 C1137 C 0.80664 0.41450 0.76682
 C1138 C 0.80073 0.42875 0.75944
 C1139 C 0.81120 0.44202 0.75684
 C1140 C 0.82773 0.44120 0.76161
 C1141 C 0.83354 0.42681 0.76903
 C1142 C 0.82305 0.41355 0.77161
 H1143 H 0.75777 0.38400 0.75744
 H1144 H 0.73941 0.36088 0.76210
 H1145 H 0.77387 0.34096 0.79691
 H1146 H 0.79196 0.36428 0.79222
 H1147 H 0.78803 0.42963 0.75573
 H1148 H 0.80631 0.45300 0.75130
 H1149 H 0.84624 0.42571 0.77265
 H1150 H 0.82776 0.40256 0.77730
 C1151 C 0.27539 -0.12392 0.27498
 C1152 C 0.27831 -0.13465 0.28791
 C1153 C 0.26781 -0.14786 0.29067
 C1154 C 0.25413 -0.15060 0.28050
 C1155 C 0.25138 -0.13963 0.26749
 C1156 C 0.26192 -0.12644 0.26479
 C1157 C 0.28621 -0.11033 0.27220
 C1158 C 0.29528 -0.09894 0.26989
 C1159 C 0.30613 -0.08535 0.26717
 C1160 C 0.32253 -0.08635 0.27200
 C1161 C 0.33307 -0.07314 0.26941
 C1162 C 0.32734 -0.05875 0.26193
 C1163 C 0.31082 -0.05788 0.25711
 C1164 C 0.30030 -0.07110 0.25973
 H1165 H 0.28872 -0.13281 0.29588
 H1166 H 0.27057 -0.15581 0.30081
 H1167 H 0.24113 -0.14107 0.25930
 H1168 H 0.25955 -0.11819 0.25473
 H1169 H 0.32718 -0.09734 0.27774
 H1170 H 0.34576 -0.07427 0.27306
 H1171 H 0.30598 -0.04690 0.25153
 H1172 H 0.28761 -0.07019 0.25599
 C1173 C 0.22361 -0.12439 0.72497
 C1174 C 0.23656 -0.12742 0.73568
 C1175 C 0.24697 -0.14075 0.73313
 C1176 C 0.24462 -0.15135 0.71974
 C1177 C 0.23147 -0.14808 0.70904
 C1178 C 0.22110 -0.13473 0.71166
 C1179 C 0.21290 -0.11067 0.72763
 C1180 C 0.20391 -0.09919 0.72984
 C1181 C 0.19315 -0.08550 0.73245
 C1182 C 0.19905 -0.07127 0.73985
 C1183 C 0.18861 -0.05796 0.74238
 C1184 C 0.17210 -0.05872 0.73753
 C1185 C 0.16629 -0.07310 0.73010
 C1186 C 0.17676 -0.08639 0.72759
 H1187 H 0.23862 -0.11948 0.74604
 H1188 H 0.25680 -0.14261 0.74174
 H1189 H 0.22904 -0.15573 0.69859
 H1190 H 0.21110 -0.13249 0.70327
 H1191 H 0.21174 -0.07043 0.74362
 H1192 H 0.19351 -0.04699 0.74794
 H1193 H 0.15360 -0.07415 0.72642
 H1194 H 0.17205 -0.09737 0.72189
 C1195 C 0.72358 0.37466 0.22611
 C1196 C 0.72079 0.36423 0.21291
 C1197 C 0.73075 0.35053 0.21054
 C1198 C 0.74365 0.34704 0.22138
 C1199 C 0.74638 0.35768 0.23459
 C1200 C 0.73640 0.37138 0.23693
 C1201 C 0.71316 0.38863 0.22864
 C1202 C 0.70434 0.40026 0.23073
 C1203 C 0.69369 0.41406 0.23320
 C1204 C 0.67730 0.41324 0.22833
 C1205 C 0.66690 0.42660 0.23077
 C1206 C 0.67278 0.44098 0.23815
 C1207 C 0.68930 0.44168 0.24299
 C1208 C 0.69967 0.42831 0.24053
 H1209 H 0.71087 0.36664 0.20448
 H1210 H 0.72816 0.34263 0.20030
 H1211 H 0.75623 0.35552 0.24313
 H1212 H 0.73868 0.37939 0.24719
 H1213 H 0.67253 0.40225 0.22269
 H1214 H 0.65421 0.42559 0.22711
 H1215 H 0.69424 0.45265 0.24851
 H1216 H 0.71236 0.42909 0.24431
 C1217 C 0.72453 0.62338 0.27532
 C1218 C 0.72341 0.63233 0.28979
 C1219 C 0.73385 0.64559 0.29253
 C1220 C 0.74560 0.65009 0.28081
 C1221 C 0.74660 0.64097 0.26629
 C1222 C 0.73614 0.62773 0.26358
 C1223 C 0.71377 0.60974 0.27253
 C1224 C 0.70474 0.59832 0.27021
 C1225 C 0.69395 0.58469 0.26747
 C1226 C 0.67752 0.58565 0.27220
 C1227 C 0.66702 0.57242 0.26957
 C1228 C 0.67283 0.55803 0.26215
 C1229 C 0.68937 0.55720 0.25743
 C1230 C 0.69985 0.57044 0.26008
 H1231 H 0.71447 0.62905 0.29898
 H1232 H 0.73275 0.65218 0.30389
 H1233 H 0.75536 0.64409 0.25692
 H1234 H 0.73709 0.62089 0.25232
 H1235 H 0.67281 0.59665 0.27789
 H1236 H 0.65431 0.57352 0.27314
 H1237 H 0.69427 0.54622 0.25189
 H1238 H 0.71256 0.56956 0.25642
 C1239 C 0.22457 0.12333 0.77472
 C1240 C 0.22341 0.13229 0.78918
 C1241 C 0.23389 0.14551 0.79197
 C1242 C 0.24571 0.14996 0.78031
 C1243 C 0.24676 0.14084 0.76580
 C1244 C 0.23626 0.12763 0.76304
 C1245 C 0.21377 0.10974 0.77187
 C1246 C 0.20470 0.09836 0.76952
 C1247 C 0.19384 0.08479 0.76674
 C1248 C 0.17740 0.08585 0.77140
 C1249 C 0.16684 0.07267 0.76874
 C1250 C 0.17260 0.05823 0.76137
 C1251 C 0.18916 0.05730 0.75672
 C1252 C 0.19969 0.07050 0.75939
 H1253 H 0.21441 0.12905 0.79832
 H1254 H 0.23275 0.15211 0.80333
 H1255 H 0.25558 0.14392 0.75647
 H1256 H 0.23725 0.12079 0.75178
 H1257 H 0.17273 0.09687 0.77705
 H1258 H 0.15412 0.07384 0.77227
 H1259 H 0.19401 0.04629 0.75121
 H1260 H 0.21242 0.06953 0.75578
 C1261 C 0.22522 0.27811 0.12266
 C1262 C 0.21047 0.27875 0.13128
 C1263 C 0.20778 0.26820 0.14440
 C1264 C 0.21984 0.25681 0.14909
 C1265 C 0.23464 0.25628 0.14032
 C1266 C 0.23730 0.26687 0.12720
 C1267 C 0.22796 0.28898 0.10914
 C1268 C 0.23023 0.29808 0.09781
 C1269 C 0.23292 0.30894 0.08429
 C1270 C 0.22005 0.31272 0.07368
 C1271 C 0.22264 0.32328 0.06055
 C1272 C 0.23817 0.33021 0.05784
 C1273 C 0.25104 0.32632 0.06858
 C1274 C 0.24841 0.31576 0.08172
 H1275 H 0.20103 0.28740 0.12784
 H1276 H 0.19620 0.26891 0.15072
 H1277 H 0.24426 0.24782 0.14360
 H1278 H 0.24878 0.26628 0.12063
 H1279 H 0.20802 0.30746 0.07554
 H1280 H 0.21255 0.32585 0.05238
 H1281 H 0.26307 0.33162 0.06695
 H1282 H 0.25845 0.31296 0.08988
 C1283 C 0.72516 0.77837 0.62308
 C1284 C 0.71044 0.77902 0.63175
 C1285 C 0.70778 0.76844 0.64486
 C1286 C 0.71983 0.75702 0.64948
 C1287 C 0.73460 0.75649 0.64066
 C1288 C 0.73723 0.76710 0.62756
 C1289 C 0.72787 0.78925 0.60957
 C1290 C 0.73012 0.79836 0.59824
 C1291 C 0.73279 0.80922 0.58472
 C1292 C 0.71993 0.81293 0.57408
 C1293 C 0.72251 0.82348 0.56093
 C1294 C 0.73801 0.83047 0.55825
 C1295 C 0.75087 0.82665 0.56901
 C1296 C 0.74826 0.81610 0.58216
 H1297 H 0.70100 0.78769 0.62837
 H1298 H 0.69622 0.76916 0.65123
 H1299 H 0.74422 0.74800 0.64389
 H1300 H 0.74869 0.76651 0.62094
 H1301 H 0.70792 0.80763 0.57591
 H1302 H 0.71242 0.82600 0.55274
 H1303 H 0.76289 0.83199 0.56740
 H1304 H 0.75830 0.81334 0.59035
 C1305 C 0.77486 0.77818 0.37721
 C1306 C 0.78586 0.78245 0.36488
 C1307 C 0.78852 0.77187 0.35176
 C1308 C 0.78018 0.75684 0.35079
 C1309 C 0.76912 0.75269 0.36328
 C1310 C 0.76650 0.76329 0.37638
 C1311 C 0.77216 0.78907 0.39071
 C1312 C 0.76990 0.79819 0.40203
 C1313 C 0.76721 0.80906 0.41554
 C1314 C 0.77197 0.82546 0.41446
 C1315 C 0.76937 0.83604 0.42759
 C1316 C 0.76196 0.83034 0.44198
 C1317 C 0.75722 0.81382 0.44294
 C1318 C 0.75983 0.80327 0.42980
 H1319 H 0.79239 0.79397 0.36538
 H1320 H 0.79701 0.77559 0.34237
 H1321 H 0.76257 0.74121 0.36307
 H1322 H 0.75797 0.75985 0.38588
 H1323 H 0.77764 0.83008 0.40346
 H1324 H 0.77297 0.84872 0.42640
 H1325 H 0.75169 0.80901 0.45392
 H1326 H 0.75614 0.79058 0.43077
 C1327 C 0.27493 0.27798 -0.12315
 C1328 C 0.26655 0.26310 -0.12400
 C1329 C 0.26918 0.25250 -0.13710
 C1330 C 0.28027 0.25663 -0.14957
 C1331 C 0.28863 0.27165 -0.14857
 C1332 C 0.28597 0.28223 -0.13546
 C1333 C 0.27223 0.28886 -0.10965
 C1334 C 0.26998 0.29798 -0.09833
 C1335 C 0.26731 0.30886 -0.08482
 C1336 C 0.25992 0.30309 -0.07056
 C1337 C 0.25733 0.31365 -0.05742
 C1338 C 0.26211 0.33015 -0.05837
 C1339 C 0.26954 0.33583 -0.07277
 C1340 C 0.27210 0.32525 -0.08589
 H1341 H 0.25799 0.25967 -0.11452
 H1342 H 0.26260 0.24103 -0.13733
 H1343 H 0.29715 0.27536 -0.15795
 H1344 H 0.29251 0.29374 -0.13494
 H1345 H 0.25620 0.29041 -0.06958
 H1346 H 0.25179 0.30885 -0.04644
 H1347 H 0.27316 0.34851 -0.07396
 H1348 H 0.27780 0.32986 -0.09689
 C1349 C 0.72573 0.22105 -0.12349
 C1350 C 0.71097 0.22046 -0.13211
 C1351 C 0.70829 0.23103 -0.14523
 C1352 C 0.72036 0.24238 -0.14992
 C1353 C 0.73517 0.24286 -0.14114
 C1354 C 0.73782 0.23226 -0.12804
 C1355 C 0.72846 0.21018 -0.10998
 C1356 C 0.73074 0.20107 -0.09865
 C1357 C 0.73345 0.19021 -0.08513
 C1358 C 0.72061 0.18651 -0.07446
 C1359 C 0.72322 0.17595 -0.06132
 C1360 C 0.73874 0.16895 -0.05867
 C1361 C 0.75156 0.17275 -0.06946
 C1362 C 0.74892 0.18331 -0.08260
 H1363 H 0.70151 0.21185 -0.12868
 H1364 H 0.69670 0.23036 -0.15156
 H1365 H 0.74481 0.25129 -0.14443
 H1366 H 0.74931 0.23280 -0.12146
 H1367 H 0.70859 0.19183 -0.07628
 H1368 H 0.71316 0.17345 -0.05311
 H1369 H 0.76359 0.16740 -0.06786
 H1370 H 0.75893 0.18605 -0.09080
 C1371 C 0.22503 0.72205 0.37680
 C1372 C 0.21030 0.72144 0.36812
 C1373 C 0.20765 0.73203 0.35501
 C1374 C 0.21971 0.74342 0.35039
 C1375 C 0.23449 0.74391 0.35922
 C1376 C 0.23711 0.73329 0.37232
 C1377 C 0.22773 0.71116 0.39030
 C1378 C 0.22999 0.70204 0.40162
 C1379 C 0.23269 0.69117 0.41514
 C1380 C 0.21982 0.68741 0.42575
 C1381 C 0.22243 0.67685 0.43889
 C1382 C 0.23796 0.66990 0.44160
 C1383 C 0.25081 0.67377 0.43086
 C1384 C 0.24818 0.68433 0.41772
 H1385 H 0.20085 0.71280 0.37151
 H1386 H 0.19608 0.73134 0.34864
 H1387 H 0.24412 0.75237 0.35599
 H1388 H 0.24857 0.73385 0.37894
 H1389 H 0.20779 0.69268 0.42389
 H1390 H 0.21235 0.67430 0.44706
 H1391 H 0.26285 0.66846 0.43249
 H1392 H 0.25821 0.68712 0.40955
 C1393 C 0.27458 0.72196 0.62282
 C1394 C 0.26612 0.73681 0.62371
 C1395 C 0.26864 0.74734 0.63689
 C1396 C 0.27969 0.74317 0.64939
 C1397 C 0.28815 0.72820 0.64835
 C1398 C 0.28559 0.71768 0.63516
 C1399 C 0.27196 0.71113 0.60926
 C1400 C 0.26977 0.70204 0.59791
 C1401 C 0.26714 0.69119 0.58436
 C1402 C 0.25973 0.69698 0.57012
 C1403 C 0.25716 0.68645 0.55696
 C1404 C 0.26199 0.66995 0.55787
 C1405 C 0.26945 0.66425 0.57225
 C1406 C 0.27200 0.67481 0.58540
 H1407 H 0.25758 0.74026 0.61421
 H1408 H 0.26200 0.75878 0.63715
 H1409 H 0.29664 0.72447 0.65775
 H1410 H 0.29219 0.70620 0.63460
 H1411 H 0.25597 0.70965 0.56917
 H1412 H 0.25159 0.69126 0.54598
 H1413 H 0.27311 0.65158 0.57341
 H1414 H 0.27771 0.67019 0.59639
 C1415 C 0.77462 0.22015 0.12354
 C1416 C 0.76385 0.23318 0.12622
 C1417 C 0.76592 0.24336 0.13974
 C1418 C 0.77881 0.24063 0.15082
 C1419 C 0.78961 0.22752 0.14795
 C1420 C 0.78751 0.21736 0.13441
 C1421 C 0.77234 0.20956 0.10973
 C1422 C 0.77036 0.20066 0.09819
 C1423 C 0.76793 0.18998 0.08447
 C1424 C 0.76065 0.19593 0.07022
 C1425 C 0.75815 0.18553 0.05694
 C1426 C 0.76291 0.16901 0.05775
 C1427 C 0.77025 0.16316 0.07213
 C1428 C 0.77273 0.17358 0.08539
 H1429 H 0.75381 0.23543 0.11789
 H1430 H 0.75728 0.25321 0.14154
 H1431 H 0.79974 0.22508 0.15608
 H1432 H 0.79593 0.20732 0.13244
 H1433 H 0.75692 0.20862 0.06937
 H1434 H 0.75267 0.19045 0.04598
 H1435 H 0.77385 0.15046 0.07321
 H1436 H 0.77832 0.16883 0.09639
 C1437 C 0.47595 0.37310 0.52674
 C1438 C 0.46116 0.38172 0.52698
 C1439 C 0.45863 0.39476 0.51626
 C1440 C 0.47088 0.39937 0.50510
 C1441 C 0.48572 0.39059 0.50498
 C1442 C 0.48822 0.37757 0.51573
 C1443 C 0.47852 0.35966 0.53777
 C1444 C 0.48068 0.34839 0.54699
 C1445 C 0.48325 0.33492 0.55798
 C1446 C 0.47032 0.32438 0.56177
 C1447 C 0.47281 0.31126 0.57241
 C1448 C 0.48831 0.30850 0.57939
 C1449 C 0.50123 0.31919 0.57550
 C1450 C 0.49870 0.33231 0.56487
 H1451 H 0.45156 0.37835 0.53544
 H1452 H 0.44701 0.40109 0.51666
 H1453 H 0.49549 0.39381 0.49670
 H1454 H 0.49973 0.37099 0.51546
 H1455 H 0.45831 0.32627 0.55646
 H1456 H 0.46268 0.30313 0.57498
 H1457 H 0.51324 0.31752 0.58083
 H1458 H 0.50879 0.34042 0.56204
 C1459 C -0.02284 0.87487 0.02754
 C1460 C -0.03560 0.88596 0.03025
 C1461 C -0.03757 0.89949 0.02001
 C1462 C -0.02678 0.90212 0.00689
 C1463 C -0.01404 0.89082 0.00425
 C1464 C -0.01210 0.87732 0.01451
 C1465 C -0.02068 0.86107 0.03820
 C1466 C -0.01876 0.84953 0.04714
 C1467 C -0.01636 0.83579 0.05783
 C1468 C -0.02941 0.82531 0.06141
 C1469 C -0.02706 0.81197 0.07181
 C1470 C -0.01161 0.80894 0.07877
 C1471 C 0.00143 0.81956 0.07509
 C1472 C -0.00095 0.83289 0.06469
 H1473 H -0.04401 0.88417 0.04029
 H1474 H -0.04759 0.90779 0.02239
 H1475 H -0.00542 0.89244 -0.00561
 H1476 H -0.00216 0.86882 0.01232
 H1477 H -0.04138 0.82742 0.05612
 H1478 H -0.03728 0.80391 0.07424
 H1479 H 0.01341 0.81769 0.08042
 H1480 H 0.00923 0.84095 0.06204
 C1481 C 0.02387 0.62696 0.02649
 C1482 C 0.01161 0.62240 0.01550
 C1483 C 0.01413 0.60932 0.00483
 C1484 C 0.02899 0.60058 0.00500
 C1485 C 0.04124 0.60528 0.01614
 C1486 C 0.03868 0.61837 0.02679
 C1487 C 0.02127 0.64046 0.03742
 C1488 C 0.01909 0.65179 0.04656
 C1489 C 0.01650 0.66533 0.05745
 C1490 C 0.00104 0.66797 0.06431
 C1491 C -0.00150 0.68115 0.07486
 C1492 C 0.01141 0.69187 0.07869
 C1493 C 0.02691 0.68910 0.07173
 C1494 C 0.02942 0.67592 0.06118
 H1495 H 0.00008 0.62895 0.01518
 H1496 H 0.00436 0.60603 -0.00344
 H1497 H 0.05287 0.59898 0.01659
 H1498 H 0.04827 0.62182 0.03523
 H1499 H -0.00903 0.65983 0.06153
 H1500 H -0.01351 0.68284 0.08018
 H1501 H 0.03704 0.69725 0.07426
 H1502 H 0.04142 0.67401 0.05590
 C1503 C 0.52401 0.12726 0.52676
 C1504 C 0.53883 0.11870 0.52698
 C1505 C 0.54136 0.10563 0.51629
 C1506 C 0.52908 0.10095 0.50519
 C1507 C 0.51420 0.10966 0.50509
 C1508 C 0.51171 0.12272 0.51581
 C1509 C 0.52143 0.14072 0.53775
 C1510 C 0.51927 0.15201 0.54695
 C1511 C 0.51670 0.16550 0.55791
 C1512 C 0.52964 0.17602 0.56173
 C1513 C 0.52715 0.18915 0.57235
 C1514 C 0.51164 0.19192 0.57930
 C1515 C 0.49871 0.18126 0.57538
 C1516 C 0.50124 0.16814 0.56476
 H1517 H 0.54845 0.12213 0.53539
 H1518 H 0.55300 0.09935 0.51668
 H1519 H 0.50441 0.10639 0.49686
 H1520 H 0.50017 0.12925 0.51555
 H1521 H 0.54165 0.17412 0.55645
 H1522 H 0.53729 0.19726 0.57495
 H1523 H 0.48669 0.18294 0.58069
 H1524 H 0.49114 0.16003 0.56192
 C1525 C -0.02463 0.12774 0.47258
 C1526 C -0.03942 0.11914 0.47233
 C1527 C -0.04191 0.10604 0.48299
 C1528 C -0.02961 0.10135 0.49408
 C1529 C -0.01477 0.11011 0.49420
 C1530 C -0.01232 0.12320 0.48352
 C1531 C -0.02210 0.14124 0.46162
 C1532 C -0.01997 0.15256 0.45246
 C1533 C -0.01743 0.16608 0.44153
 C1534 C -0.03040 0.17661 0.43776
 C1535 C -0.02795 0.18976 0.42715
 C1536 C -0.01246 0.19256 0.42018
 C1537 C 0.00050 0.18190 0.42407
 C1538 C -0.00198 0.16875 0.43467
 H1539 H -0.04905 0.12257 0.46392
 H1540 H -0.05353 0.09972 0.48258
 H1541 H -0.00497 0.10683 0.50244
 H1542 H -0.00080 0.12976 0.48380
 H1543 H -0.04239 0.17468 0.44304
 H1544 H -0.03811 0.19786 0.42458
 H1545 H 0.01251 0.18360 0.41875
 H1546 H 0.00813 0.16065 0.43748
 C1547 C 0.47631 0.62681 0.97321
 C1548 C 0.48480 0.62605 0.98799
 C1549 C 0.48244 0.61284 0.99853
 C1550 C 0.47152 0.60017 0.99444
 C1551 C 0.46303 0.60108 0.97953
 C1552 C 0.46542 0.61431 0.96901
 C1553 C 0.47877 0.64041 0.96236
 C1554 C 0.48085 0.65180 0.95327
 C1555 C 0.48335 0.66539 0.94243
 C1556 C 0.49064 0.67976 0.94816
 C1557 C 0.49311 0.69296 0.93763
 C1558 C 0.48830 0.69196 0.92119
 C1559 C 0.48096 0.67746 0.91556
 C1560 C 0.47852 0.66427 0.92611
 H1561 H 0.49324 0.63569 0.99137
 H1562 H 0.48911 0.61267 1.00991
 H1563 H 0.45463 0.59156 0.97587
 H1564 H 0.45880 0.61476 0.95758
 H1565 H 0.49439 0.68077 0.96078
 H1566 H 0.49858 0.70403 0.94239
 H1567 H 0.47732 0.67623 0.90293
 H1568 H 0.47291 0.65319 0.92153
 C1569 C 0.52398 0.87347 0.97339
 C1570 C 0.51174 0.87799 0.98442
 C1571 C 0.51427 0.89104 0.99511
 C1572 C 0.52911 0.89980 0.99493
 C1573 C 0.54133 0.89514 0.98375
 C1574 C 0.53876 0.88207 0.97307
 C1575 C 0.52137 0.85999 0.96242
 C1576 C 0.51920 0.84869 0.95325
 C1577 C 0.51660 0.83518 0.94233
 C1578 C 0.50113 0.83254 0.93549
 C1579 C 0.49859 0.81939 0.92491
 C1580 C 0.51151 0.80869 0.92103
 C1581 C 0.52702 0.81146 0.92796
 C1582 C 0.52954 0.82462 0.93855
 H1583 H 0.50022 0.87142 0.98474
 H1584 H 0.50452 0.89430 1.00341
 H1585 H 0.55295 0.90145 0.98329
 H1586 H 0.54834 0.87866 0.96460
 H1587 H 0.49105 0.84067 0.93830
 H1588 H 0.48657 0.81771 0.91961
 H1589 H 0.53716 0.80332 0.92539
 H1590 H 0.54155 0.82651 0.94382
 C1591 C 0.02314 0.37404 0.47207
 C1592 C 0.03410 0.38650 0.46794
 C1593 C 0.03663 0.39962 0.47857
 C1594 C 0.02820 0.40046 0.49351
 C1595 C 0.01720 0.38784 0.49752
 C1596 C 0.01470 0.37474 0.48687
 C1597 C 0.02054 0.36054 0.46113
 C1598 C 0.01835 0.34922 0.45198
 C1599 C 0.01572 0.33569 0.44109
 C1600 C 0.02049 0.33684 0.42476
 C1601 C 0.01794 0.32369 0.41418
 C1602 C 0.01056 0.30920 0.41980
 C1603 C 0.00580 0.30818 0.43624
 C1604 C 0.00837 0.32134 0.44680
 H1605 H 0.04068 0.38609 0.45649
 H1606 H 0.04509 0.40911 0.47496
 H1607 H 0.01057 0.38795 0.50892
 H1608 H 0.00620 0.36514 0.49020
 H1609 H 0.02614 0.34791 0.42020
 H1610 H 0.02155 0.32493 0.40155
 H1611 H 0.00030 0.29713 0.44100
 H1612 H 0.00468 0.32031 0.45943
 C1613 C 0.37397 0.52604 0.47474
 C1614 C 0.37488 0.51111 0.48299
 C1615 C 0.38808 0.50056 0.48029
 C1616 C 0.40058 0.50481 0.46927
 C1617 C 0.39952 0.51989 0.46104
 C1618 C 0.38631 0.53041 0.46377
 C1619 C 0.36036 0.53687 0.47750
 C1620 C 0.34896 0.54595 0.47980
 C1621 C 0.33534 0.55679 0.48252
 C1622 C 0.32106 0.55095 0.48991
 C1623 C 0.30782 0.56146 0.49253
 C1624 C 0.30869 0.57797 0.48778
 C1625 C 0.32312 0.58372 0.48036
 C1626 C 0.33634 0.57318 0.47776
 H1627 H 0.36537 0.50759 0.49149
 H1628 H 0.38835 0.48905 0.48676
 H1629 H 0.40892 0.52367 0.45257
 H1630 H 0.38574 0.54196 0.45733
 H1631 H 0.32014 0.53826 0.49359
 H1632 H 0.29682 0.55662 0.49807
 H1633 H 0.32425 0.59640 0.47676
 H1634 H 0.34736 0.57784 0.47207
 C1635 C 0.87682 0.02742 -0.02309
 C1636 C 0.88153 0.01639 -0.01093
 C1637 C 0.89543 0.00663 -0.01304
 C1638 C 0.90484 0.00777 -0.02736
 C1639 C 0.89992 0.01885 -0.03955
 C1640 C 0.88602 0.02860 -0.03741
 C1641 C 0.86267 0.03765 -0.02079
 C1642 C 0.85087 0.04629 -0.01882
 C1643 C 0.83686 0.05668 -0.01640
 C1644 C 0.83393 0.06363 -0.00110
 C1645 C 0.82042 0.07386 0.00125
 C1646 C 0.80966 0.07729 -0.01170
 C1647 C 0.81269 0.07021 -0.02703
 C1648 C 0.82621 0.05997 -0.02935
 H1649 H 0.87452 0.01541 0.00022
 H1650 H 0.89883 -0.00165 -0.00334
 H1651 H 0.90672 0.02002 -0.05078
 H1652 H 0.88247 0.03709 -0.04691
 H1653 H 0.84214 0.06121 0.00899
 H1654 H 0.81855 0.07929 0.01313
 H1655 H 0.80452 0.07244 -0.03718
 H1656 H 0.82834 0.05462 -0.04123
 C1657 C 0.62663 0.02590 0.02512
 C1658 C 0.61774 0.02697 0.03963
 C1659 C 0.60446 0.01655 0.04238
 C1660 C 0.59987 0.00489 0.03062
 C1661 C 0.60891 0.00394 0.01605
 C1662 C 0.62218 0.01438 0.01333
 C1663 C 0.64031 0.03662 0.02232
 C1664 C 0.65178 0.04559 0.01999
 C1665 C 0.66547 0.05630 0.01724
 C1666 C 0.67618 0.06003 0.03001
 C1667 C 0.68947 0.07046 0.02736
 C1668 C 0.69222 0.07730 0.01187
 C1669 C 0.68138 0.07346 -0.00090
 C1670 C 0.66810 0.06303 0.00178
 H1671 H 0.62109 0.03583 0.04886
 H1672 H 0.59792 0.01760 0.05379
 H1673 H 0.60572 -0.00475 0.00665
 H1674 H 0.62896 0.01347 0.00203
 H1675 H 0.67428 0.05485 0.04201
 H1676 H 0.69771 0.07300 0.03738
 H1677 H 0.68305 0.07869 -0.01290
 H1678 H 0.65985 0.06026 -0.00818
 C1679 C 0.12624 0.52611 0.52431
 C1680 C 0.11774 0.52663 0.53908
 C1681 C 0.10438 0.51628 0.54170
 C1682 C 0.09932 0.50524 0.52955
 C1683 C 0.10799 0.50481 0.51473
 C1684 C 0.12134 0.51518 0.51214
 C1685 C 0.13995 0.53681 0.52162
 C1686 C 0.15143 0.54580 0.51939
 C1687 C 0.16510 0.55657 0.51674
 C1688 C 0.17576 0.56025 0.52957
 C1689 C 0.18901 0.57076 0.52704
 C1690 C 0.19177 0.57773 0.51160
 C1691 C 0.18099 0.57393 0.49878
 C1692 C 0.16774 0.56342 0.50135
 H1693 H 0.12145 0.53503 0.54860
 H1694 H 0.09815 0.51691 0.55330
 H1695 H 0.10443 0.49660 0.50503
 H1696 H 0.12782 0.51470 0.50064
 H1697 H 0.17385 0.55497 0.54153
 H1698 H 0.19721 0.57327 0.53709
 H1699 H 0.18265 0.57926 0.48682
 H1700 H 0.15953 0.56069 0.49134
 C1701 C 0.12649 0.47428 -0.02515
 C1702 C 0.11756 0.47322 -0.03964
 C1703 C 0.10429 0.48367 -0.04238
 C1704 C 0.09976 0.49537 -0.03062
 C1705 C 0.10885 0.49631 -0.01607
 C1706 C 0.12211 0.48583 -0.01337
 C1707 C 0.14015 0.46351 -0.02237
 C1708 C 0.15159 0.45447 -0.02008
 C1709 C 0.16523 0.44366 -0.01740
 C1710 C 0.17590 0.43994 -0.03021
 C1711 C 0.18913 0.42940 -0.02764
 C1712 C 0.19187 0.42243 -0.01220
 C1713 C 0.18108 0.42628 0.00060
 C1714 C 0.16785 0.43681 -0.00200
 H1715 H 0.12087 0.46433 -0.04886
 H1716 H 0.09772 0.48263 -0.05377
 H1717 H 0.10571 0.50503 -0.00668
 H1718 H 0.12893 0.48674 -0.00208
 H1719 H 0.17401 0.44521 -0.04217
 H1720 H 0.19733 0.42686 -0.03769
 H1721 H 0.18273 0.42095 0.01257
 H1722 H 0.15964 0.43958 0.00799
 C1723 C 0.62614 0.97433 0.47506
 C1724 C 0.62525 0.98931 0.48325
 C1725 C 0.61202 0.99983 0.48054
 C1726 C 0.59948 0.99551 0.46959
 C1727 C 0.60052 0.98040 0.46143
 C1728 C 0.61375 0.96990 0.46417
 C1729 C 0.63977 0.96353 0.47783
 C1730 C 0.65118 0.95446 0.48012
 C1731 C 0.66480 0.94363 0.48283
 C1732 C 0.67911 0.94947 0.49016
 C1733 C 0.69236 0.93895 0.49278
 C1734 C 0.69145 0.92243 0.48808
 C1735 C 0.67700 0.91668 0.48071
 C1736 C 0.66377 0.92722 0.47812
 H1737 H 0.63480 0.99287 0.49169
 H1738 H 0.61176 1.01137 0.48696
 H1739 H 0.59108 0.97656 0.45302
 H1740 H 0.61431 0.95832 0.45779
 H1741 H 0.68006 0.96217 0.49381
 H1742 H 0.70338 0.94380 0.49828
 H1743 H 0.67584 0.90399 0.47715
 H1744 H 0.65272 0.92256 0.47247
 C1745 C 0.87346 0.97475 0.52451
 C1746 C 0.88246 0.97370 0.53896
 C1747 C 0.89569 0.98420 0.54165
 C1748 C 0.90011 0.99594 0.52990
 C1749 C 0.89094 0.99687 0.51539
 C1750 C 0.87773 0.98635 0.51273
 C1751 C 0.85985 0.96392 0.52177
 C1752 C 0.84846 0.95484 0.51953
 C1753 C 0.83486 0.94397 0.51690
 C1754 C 0.82422 0.94026 0.52973
 C1755 C 0.81103 0.92967 0.52722
 C1756 C 0.80830 0.92265 0.51180
 C1757 C 0.81907 0.92648 0.49897
 C1758 C 0.83226 0.93706 0.50153
 H1759 H 0.87925 0.96478 0.54818
 H1760 H 0.90232 0.98316 0.55301
 H1761 H 0.89400 1.00562 0.50600
 H1762 H 0.87085 0.98725 0.50148
 H1763 H 0.82610 0.94558 0.54167
 H1764 H 0.80284 0.92715 0.53727
 H1765 H 0.81743 0.92111 0.48703
 H1766 H 0.84045 0.93982 0.49152
 C1767 C 0.37439 0.47368 0.02443
 C1768 C 0.38297 0.47306 0.03916
 C1769 C 0.39631 0.48342 0.04181
 C1770 C 0.40127 0.49460 0.02973
 C1771 C 0.39252 0.49512 0.01495
 C1772 C 0.37919 0.48473 0.01234
 C1773 C 0.36068 0.46298 0.02172
 C1774 C 0.34920 0.45399 0.01947
 C1775 C 0.33552 0.44324 0.01681
 C1776 C 0.32484 0.43958 0.02962
 C1777 C 0.31157 0.42910 0.02707
 C1778 C 0.30881 0.42214 0.01164
 C1779 C 0.31961 0.42592 -0.00117
 C1780 C 0.33288 0.43640 0.00142
 H1781 H 0.37933 0.46456 0.04862
 H1782 H 0.40260 0.48272 0.05338
 H1783 H 0.39600 0.50343 0.00531
 H1784 H 0.37264 0.48529 0.00087
 H1785 H 0.32675 0.44486 0.04158
 H1786 H 0.30336 0.42661 0.03712
 H1787 H 0.31794 0.42059 -0.01313
 H1788 H 0.34110 0.43911 -0.00858
 C1789 C 0.52852 0.47469 0.37277
 C1790 C 0.51730 0.48680 0.37725
 C1791 C 0.50669 0.48423 0.39036
 C1792 C 0.50715 0.46948 0.39920
 C1793 C 0.51852 0.45739 0.39458
 C1794 C 0.52911 0.45999 0.38146
 C1795 C 0.53942 0.47734 0.35926
 C1796 C 0.54855 0.47958 0.34794
 C1797 C 0.55943 0.48225 0.33443
 C1798 C 0.56631 0.49770 0.33187
 C1799 C 0.57688 0.50032 0.31874
 C1800 C 0.58073 0.48749 0.30799
 C1801 C 0.57375 0.47199 0.31067
 C1802 C 0.56317 0.46941 0.32380
 H1803 H 0.51676 0.49824 0.37063
 H1804 H 0.49824 0.49389 0.39359
 H1805 H 0.51919 0.44584 0.40096
 H1806 H 0.53774 0.45051 0.37807
 H1807 H 0.56353 0.50772 0.34005
 H1808 H 0.58222 0.51233 0.31714
 H1809 H 0.57629 0.46192 0.30249
 H1810 H 0.55787 0.45740 0.32564
 C1811 C 0.02924 -0.02311 0.87328
 C1812 C 0.03219 -0.03606 0.88401
 C1813 C 0.02217 -0.03832 0.89763
 C1814 C 0.00903 -0.02761 0.90073
 C1815 C 0.00614 -0.01465 0.88980
 C1816 C 0.01618 -0.01243 0.87619
 C1817 C 0.03970 -0.02069 0.85939
 C1818 C 0.04853 -0.01863 0.84781
 C1819 C 0.05914 -0.01614 0.83404
 C1820 C 0.06263 -0.02912 0.82349
 C1821 C 0.07306 -0.02674 0.81020
 C1822 C 0.08013 -0.01132 0.80729
 C1823 C 0.07650 0.00165 0.81796
 C1824 C 0.06607 -0.00076 0.83124
 H1825 H 0.04229 -0.04439 0.88189
 H1826 H 0.02489 -0.04835 0.90576
 H1827 H -0.00390 -0.00623 0.89165
 H1828 H 0.01377 -0.00236 0.86794
 H1829 H 0.05730 -0.04107 0.82553
 H1830 H 0.07545 -0.03691 0.80209
 H1831 H 0.08191 0.01360 0.81617
 H1832 H 0.06349 0.00935 0.83937
 C1833 C 0.02851 0.02543 0.62594
 C1834 C 0.02910 0.04014 0.61729
 C1835 C 0.01848 0.04280 0.60419
 C1836 C 0.00708 0.03075 0.59956
 C1837 C 0.00662 0.01598 0.60837
 C1838 C 0.01726 0.01336 0.62146
 C1839 C 0.03942 0.02272 0.63945
 C1840 C 0.04854 0.02044 0.65077
 C1841 C 0.05940 0.01771 0.66430
 C1842 C 0.06318 0.03054 0.67494
 C1843 C 0.07371 0.02790 0.68811
 C1844 C 0.08061 0.01236 0.69082
 C1845 C 0.07673 -0.00046 0.68005
 C1846 C 0.06620 0.00222 0.66688
 H1847 H 0.03775 0.04959 0.62068
 H1848 H 0.01915 0.05436 0.59783
 H1849 H -0.00185 0.00636 0.60514
 H1850 H 0.01672 0.00190 0.62806
 H1851 H 0.05794 0.04257 0.67308
 H1852 H 0.07627 0.03795 0.69630
 H1853 H 0.08200 -0.01250 0.68168
 H1854 H 0.06339 -0.00778 0.65870
 C1855 C 0.52879 0.52461 0.12686
 C1856 C 0.51760 0.51250 0.12232
 C1857 C 0.50702 0.51509 0.10917
 C1858 C 0.50750 0.52985 0.10036
 C1859 C 0.51882 0.54194 0.10505
 C1860 C 0.52938 0.53933 0.11821
 C1861 C 0.53967 0.52193 0.14040
 C1862 C 0.54877 0.51968 0.15174
 C1863 C 0.55964 0.51698 0.16528
 C1864 C 0.56654 0.50153 0.16783
 C1865 C 0.57709 0.49890 0.18098
 C1866 C 0.58089 0.51172 0.19177
 C1867 C 0.57388 0.52722 0.18910
 C1868 C 0.56333 0.52981 0.17594
 H1869 H 0.51706 0.50104 0.12892
 H1870 H 0.49861 0.50543 0.10589
 H1871 H 0.51950 0.55350 0.09869
 H1872 H 0.53798 0.54880 0.12164
 H1873 H 0.56380 0.49153 0.15962
 H1874 H 0.58245 0.48690 0.18259
 H1875 H 0.57638 0.53727 0.19731
 H1876 H 0.55801 0.54181 0.17411
 C1877 C 0.47195 -0.02475 0.12736
 C1878 C 0.48321 -0.01269 0.12290
 C1879 C 0.49380 -0.01526 0.10977
 C1880 C 0.49326 -0.02998 0.10089
 C1881 C 0.48186 -0.04203 0.10549
 C1882 C 0.47130 -0.03942 0.11863
 C1883 C 0.46106 -0.02209 0.14088
 C1884 C 0.45194 -0.01988 0.15221
 C1885 C 0.44103 -0.01725 0.16572
 C1886 C 0.43410 -0.00182 0.16829
 C1887 C 0.42349 0.00074 0.18141
 C1888 C 0.41967 -0.01213 0.19213
 C1889 C 0.42672 -0.02760 0.18944
 C1890 C 0.43733 -0.03013 0.17632
 H1891 H 0.48380 -0.00126 0.12956
 H1892 H 0.50228 -0.00564 0.10656
 H1893 H 0.48113 -0.05356 0.09908
 H1894 H 0.46263 -0.04887 0.12200
 H1895 H 0.43685 0.00822 0.16013
 H1896 H 0.41810 0.01273 0.18303
 H1897 H 0.42420 -0.03769 0.19760
 H1898 H 0.44267 -0.04211 0.17447
 C1899 C 0.97191 0.47516 0.62673
 C1900 C 0.98319 0.48722 0.62229
 C1901 C 0.99373 0.48467 0.60911
 C1902 C 0.99313 0.47000 0.60017
 C1903 C 0.98172 0.45795 0.60476
 C1904 C 0.97120 0.46052 0.61794
 C1905 C 0.96105 0.47780 0.64028
 C1906 C 0.95195 0.48002 0.65162
 C1907 C 0.94109 0.48266 0.66516
 C1908 C 0.93416 0.49810 0.66773
 C1909 C 0.92359 0.50068 0.68087
 C1910 C 0.91979 0.48782 0.69162
 C1911 C 0.92682 0.47234 0.68892
 C1912 C 0.93740 0.46980 0.67578
 H1913 H 0.98382 0.49861 0.62899
 H1914 H 1.00221 0.49429 0.60591
 H1915 H 0.98095 0.44645 0.59830
 H1916 H 0.96253 0.45108 0.62130
 H1917 H 0.93690 0.50813 0.65956
 H1918 H 0.91822 0.51267 0.68250
 H1919 H 0.92432 0.46226 0.69709
 H1920 H 0.94273 0.45781 0.67392
 C1921 C 0.97164 0.52477 0.87281
 C1922 C 0.98292 0.51272 0.87731
 C1923 C 0.99351 0.51534 0.89044
 C1924 C 0.99296 0.53008 0.89927
 C1925 C 0.98154 0.54212 0.89464
 C1926 C 0.97097 0.53947 0.88150
 C1927 C 0.96077 0.52207 0.85928
 C1928 C 0.95167 0.51981 0.84793
 C1929 C 0.94082 0.51712 0.83439
 C1930 C 0.93398 0.50166 0.83181
 C1931 C 0.92344 0.49903 0.81865
 C1932 C 0.91959 0.51186 0.80788
 C1933 C 0.92653 0.52737 0.81059
 C1934 C 0.93708 0.52997 0.82376
 H1935 H 0.98352 0.50128 0.87068
 H1936 H 1.00200 0.50573 0.89368
 H1937 H 0.98080 0.55366 0.90101
 H1938 H 0.96230 0.54890 0.87810
 H1939 H 0.93676 0.49164 0.83999
 H1940 H 0.91813 0.48701 0.81701
 H1941 H 0.92399 0.53744 0.80241
 H1942 H 0.94235 0.54198 0.82562
 C1943 C 0.47119 0.02498 0.37329
 C1944 C 0.47058 0.03970 0.38193
 C1945 C 0.48118 0.04236 0.39504
 C1946 C 0.49258 0.03031 0.39970
 C1947 C 0.49306 0.01553 0.39091
 C1948 C 0.48244 0.01290 0.37781
 C1949 C 0.46031 0.02227 0.35977
 C1950 C 0.45121 0.01999 0.34843
 C1951 C 0.44035 0.01727 0.33489
 C1952 C 0.43662 0.03010 0.32423
 C1953 C 0.42609 0.02747 0.31106
 C1954 C 0.41916 0.01195 0.30837
 C1955 C 0.42300 -0.00086 0.31916
 C1956 C 0.43353 0.00180 0.33233
 H1957 H 0.46194 0.04915 0.37851
 H1958 H 0.48050 0.05393 0.40138
 H1959 H 0.50153 0.00590 0.39417
 H1960 H 0.48300 0.00144 0.37122
 H1961 H 0.44188 0.04211 0.32607
 H1962 H 0.42355 0.03752 0.30285
 H1963 H 0.41770 -0.01289 0.31755
 H1964 H 0.43631 -0.00820 0.34054
   
