data_POSCAR
  _audit_creation_date              2014-09-24
  _audit_creation_method            'ToBaCCo'
  _symmetry_space_group_name_H-M    'P1'
  _symmetry_Int_Tables_number       1
  _symmetry_cell_setting            triclinic
  loop_
  _symmetry_equiv_pos_as_xyz
 x,y,z
_cell_length_a 59.4613
_cell_length_b 60.0540
_cell_length_c 59.9640
_cell_angle_alpha 91.828700
_cell_angle_beta 91.444200
_cell_angle_gamma 91.927700
loop_
  _atom_site_label
  _atom_site_type_symbol
  _atom_site_fract_x
  _atom_site_fract_y
  _atom_site_fract_z
N1 N 0.17463 0.22831 0.23470
 N2 N 0.18261 0.21195 0.24621
 C3 C 0.16917 0.20830 0.26361
 C4 C 0.15183 0.22316 0.26279
 C5 C 0.15596 0.23559 0.24424
 H6 H 0.17161 0.19560 0.27573
 H7 H 0.14621 0.24910 0.23815
 Cu8 Cu 0.20950 0.19686 0.23689
 Cu9 Cu 0.18857 0.23912 0.20812
 Cu10 Cu 0.23517 0.21194 0.18971
 N11 N 0.23500 0.18103 0.22530
 N12 N 0.24491 0.18708 0.20701
 C13 C 0.26163 0.17322 0.20260
 C14 C 0.26232 0.15750 0.21897
 C15 C 0.24512 0.16301 0.23313
 H16 H 0.27218 0.17431 0.18824
 H17 H 0.24021 0.15449 0.24794
 N18 N 0.22270 0.23749 0.17450
 N19 N 0.20487 0.24777 0.18158
 C20 C 0.20020 0.26427 0.16774
 C21 C 0.21584 0.26446 0.15105
 C22 C 0.22987 0.24720 0.15590
 H23 H 0.18626 0.27518 0.16960
 H24 H 0.24426 0.24207 0.14663
 H25 H 0.20211 0.20884 0.19904
 H26 H 0.22087 0.22918 0.21566
 N27 N 0.67069 0.72223 0.72570
 N28 N 0.67792 0.70490 0.73623
 C29 C 0.66324 0.69960 0.75215
 C30 C 0.64585 0.71437 0.75138
 C31 C 0.65121 0.72849 0.73440
 H32 H 0.66494 0.68592 0.76329
 H33 H 0.64183 0.74253 0.72897
 Cu34 Cu 0.70556 0.69088 0.72758
 Cu35 Cu 0.68690 0.73571 0.70162
 Cu36 Cu 0.73610 0.71117 0.68575
 N37 N 0.73326 0.67733 0.71847
 N38 N 0.74498 0.68526 0.70203
 C39 C 0.76281 0.67249 0.69867
 C40 C 0.76228 0.65557 0.71381
 C41 C 0.74328 0.65921 0.72615
 H42 H 0.77516 0.67531 0.68606
 H43 H 0.73692 0.64913 0.73935
 N44 N 0.72425 0.73753 0.67141
 N45 N 0.70559 0.74694 0.67763
 C46 C 0.70183 0.76443 0.66475
 C47 C 0.71890 0.76611 0.64961
 C48 C 0.73282 0.74876 0.65431
 H49 H 0.68746 0.77489 0.66598
 H50 H 0.74809 0.74464 0.64593
 H51 H 0.70209 0.70689 0.69086
 H52 H 0.71851 0.72555 0.71134
 N53 N 0.31836 0.75759 0.74557
 N54 N 0.31591 0.77784 0.75391
 C55 C 0.32954 0.78114 0.77205
 C56 C 0.34115 0.76189 0.77536
 C57 C 0.33356 0.74725 0.75825
 H58 H 0.33103 0.79651 0.78196
 H59 H 0.33939 0.73067 0.75473
 Cu60 Cu 0.29581 0.79841 0.74009
 Cu61 Cu 0.30311 0.74714 0.71779
 Cu62 Cu 0.26159 0.78056 0.69716
 N63 N 0.26949 0.81459 0.73141
 N64 N 0.25603 0.80763 0.71476
 C65 C 0.23926 0.82200 0.71259
 C66 C 0.24234 0.83899 0.72884
 C67 C 0.26181 0.83355 0.74045
 H68 H 0.22590 0.82011 0.70006
 H69 H 0.26989 0.84249 0.75454
 N70 N 0.27001 0.75252 0.68197
 N71 N 0.28581 0.73976 0.68984
 C72 C 0.28846 0.72257 0.67527
 C73 C 0.27362 0.72454 0.65730
 C74 C 0.26216 0.74374 0.66222
 H75 H 0.30063 0.70980 0.67741
 H76 H 0.24959 0.75124 0.65183
 H77 H 0.29558 0.77756 0.70457
 H78 H 0.27525 0.76564 0.72476
 N79 N 0.81885 0.24810 0.24345
 N80 N 0.81346 0.26531 0.25603
 C81 C 0.82808 0.26753 0.27357
 C82 C 0.84362 0.25081 0.27193
 C83 C 0.83707 0.23881 0.25249
 H84 H 0.82758 0.28061 0.28631
 H85 H 0.84490 0.22441 0.24526
 Cu86 Cu 0.78832 0.28367 0.24797
 Cu87 Cu 0.80203 0.23903 0.21614
 Cu88 Cu 0.75746 0.27150 0.20106
 N89 N 0.76405 0.30243 0.23831
 N90 N 0.75191 0.29740 0.22013
 C91 C 0.73659 0.31309 0.21718
 C92 C 0.73926 0.32896 0.23439
 C93 C 0.75689 0.32162 0.24750
 H94 H 0.72475 0.31319 0.20322
 H95 H 0.76401 0.32965 0.26257
 N96 N 0.76565 0.24471 0.18378
 N97 N 0.78289 0.23253 0.18917
 C98 C 0.78463 0.21607 0.17352
 C99 C 0.76757 0.21794 0.15758
 C100 C 0.75591 0.23630 0.16470
 H101 H 0.79739 0.20367 0.17367
 H102 H 0.74174 0.24341 0.15622
 H103 H 0.79150 0.27056 0.20929
 H104 H 0.77205 0.25237 0.22532
 N105 N 0.80987 0.73776 0.26481
 N106 N 0.80475 0.71889 0.25385
 C107 C 0.82014 0.71547 0.23810
 C108 C 0.83580 0.73312 0.23930
 C109 C 0.82869 0.74693 0.25648
 H110 H 0.82015 0.70106 0.22684
 H111 H 0.83651 0.76258 0.26243
 Cu112 Cu 0.77878 0.70045 0.26173
 Cu113 Cu 0.79194 0.74908 0.28919
 Cu114 Cu 0.74505 0.71686 0.30265
 N115 N 0.75240 0.68248 0.26947
 N116 N 0.73927 0.68915 0.28548
 C117 C 0.72287 0.67357 0.28815
 C118 C 0.72581 0.65605 0.27303
 C119 C 0.74474 0.66236 0.26139
 H120 H 0.70997 0.67483 0.30045
 H121 H 0.75272 0.65276 0.24846
 N122 N 0.75367 0.74536 0.31816
 N123 N 0.77159 0.75761 0.31325
 C124 C 0.77341 0.77539 0.32758
 C125 C 0.75583 0.77421 0.34228
 C126 C 0.74365 0.75498 0.33568
 H127 H 0.78693 0.78788 0.32774
 H128 H 0.72875 0.74823 0.34330
 H129 H 0.77959 0.71846 0.29879
 H130 H 0.76218 0.73348 0.27815
 N131 N 0.31158 0.23756 -0.23593
 N132 N 0.30562 0.21900 -0.24701
 C133 C 0.32061 0.21522 -0.26308
 C134 C 0.33700 0.23234 -0.26193
 C135 C 0.33055 0.24617 -0.24440
 H136 H 0.31976 0.20092 -0.27451
 H137 H 0.33880 0.26151 -0.23822
 Cu138 Cu 0.27920 0.20151 -0.23849
 Cu139 Cu 0.29445 0.24953 -0.21136
 Cu140 Cu 0.24697 0.21890 -0.19654
 N141 N 0.25261 0.18427 -0.23004
 N142 N 0.24015 0.19117 -0.21358
 C143 C 0.22346 0.17596 -0.21057
 C144 C 0.22551 0.15848 -0.22597
 C145 C 0.24423 0.16441 -0.23807
 H146 H 0.21093 0.17745 -0.19791
 H147 H 0.25159 0.15472 -0.25133
 N148 N 0.25681 0.24738 -0.18141
 N149 N 0.27495 0.25894 -0.18702
 C150 C 0.27762 0.27706 -0.17330
 C151 C 0.26036 0.27699 -0.15824
 C152 C 0.24747 0.25790 -0.16394
 H153 H 0.29127 0.28932 -0.17411
 H154 H 0.23269 0.25179 -0.15563
 H155 H 0.28118 0.21927 -0.20132
 H156 H 0.26375 0.23485 -0.22147
 N157 N 0.68231 0.26472 -0.24868
 N158 N 0.68770 0.28344 -0.25826
 C159 C 0.67271 0.28693 -0.27482
 C160 C 0.65671 0.26952 -0.27571
 C161 C 0.66353 0.25565 -0.25880
 H162 H 0.67330 0.30141 -0.28503
 H163 H 0.65530 0.24035 -0.25384
 Cu164 Cu 0.71281 0.30252 -0.24749
 Cu165 Cu 0.69967 0.25438 -0.22313
 Cu166 Cu 0.74876 0.28491 -0.20832
 N167 N 0.74192 0.31725 -0.24171
 N168 N 0.75609 0.31052 -0.22639
 C169 C 0.77405 0.32488 -0.22485
 C170 C 0.77079 0.34157 -0.23996
 C171 C 0.75027 0.33601 -0.25043
 H172 H 0.78782 0.32394 -0.21283
 H173 H 0.74170 0.34528 -0.26305
 N174 N 0.73827 0.25851 -0.19219
 N175 N 0.71965 0.24686 -0.19780
 C176 C 0.71658 0.23067 -0.18301
 C177 C 0.73404 0.23225 -0.16722
 C178 C 0.74747 0.25009 -0.17366
 H179 H 0.70228 0.21907 -0.18327
 H180 H 0.76267 0.25670 -0.16529
 H181 H 0.71399 0.28454 -0.21162
 H182 H 0.72935 0.26903 -0.23369
 N183 N 0.18250 0.76634 0.25181
 N184 N 0.18642 0.78639 0.24438
 C185 C 0.17147 0.79022 0.22785
 C186 C 0.15722 0.77156 0.22472
 C187 C 0.16483 0.75671 0.24028
 H188 H 0.17072 0.80571 0.21922
 H189 H 0.15781 0.74031 0.24337
 Cu190 Cu 0.20984 0.80618 0.25769
 Cu191 Cu 0.19971 0.75504 0.27686
 Cu192 Cu 0.24693 0.78654 0.29505
 N193 N 0.23839 0.82156 0.26486
 N194 N 0.25327 0.81374 0.27888
 C195 C 0.27129 0.82802 0.28052
 C196 C 0.26734 0.84595 0.26695
 C197 C 0.24623 0.84104 0.25726
 H198 H 0.28576 0.82585 0.29142
 H199 H 0.23710 0.85073 0.24542
 N200 N 0.23719 0.75855 0.30908
 N201 N 0.21924 0.74660 0.30202
 C202 C 0.21607 0.72942 0.31558
 C203 C 0.23277 0.73052 0.33217
 C204 C 0.24592 0.74924 0.32741
 H205 H 0.20216 0.71742 0.31385
 H206 H 0.26034 0.75603 0.33696
 H207 H 0.21230 0.78497 0.29151
 H208 H 0.22866 0.77272 0.26809
 N209 N 0.48177 0.42697 0.48351
 N210 N 0.46468 0.43305 0.49547
 C211 C 0.46199 0.41871 0.51211
 C212 C 0.47830 0.40275 0.51052
 C213 C 0.49052 0.40863 0.49210
 H214 H 0.44901 0.41974 0.52434
 H215 H 0.50475 0.40022 0.48534
 Cu216 Cu 0.44752 0.45902 0.48797
 Cu217 Cu 0.49133 0.44311 0.45756
 Cu218 Cu 0.46061 0.48872 0.44307
 N219 N 0.43004 0.48438 0.47924
 N220 N 0.43530 0.49588 0.46173
 C221 C 0.42064 0.51228 0.45936
 C222 C 0.40523 0.51109 0.47630
 C223 C 0.41177 0.49309 0.48858
 H224 H 0.42111 0.52404 0.44611
 H225 H 0.40385 0.48680 0.50324
 N226 N 0.48680 0.47884 0.42628
 N227 N 0.49847 0.46148 0.43187
 C228 C 0.51512 0.45887 0.41732
 C229 C 0.51397 0.47536 0.40173
 C230 C 0.49574 0.48771 0.40799
 H231 H 0.52707 0.44573 0.41793
 H232 H 0.48946 0.50214 0.39986
 H233 H 0.47937 0.47375 0.46744
 H234 H 0.45999 0.45516 0.44965
 N235 N -0.01962 -0.07077 0.98550
 N236 N -0.03469 -0.06316 0.99918
 C237 C -0.03718 -0.07738 1.01594
 C238 C -0.02281 -0.09488 1.01265
 C239 C -0.01197 -0.09003 0.99309
 H240 H -0.04856 -0.07502 1.02951
 H241 H 0.00072 -0.09963 0.98500
 Cu242 Cu -0.04955 -0.03537 0.99387
 Cu243 Cu -0.01022 -0.05465 0.95948
 Cu244 Cu -0.03630 -0.00503 0.94963
 N245 N -0.06893 -0.01214 0.98342
 N246 N -0.06362 -0.00030 0.96616
 C247 C -0.07924 0.01507 0.96306
 C248 C -0.09537 0.01279 0.97923
 C249 C -0.08823 -0.00477 0.99183
 H250 H -0.07874 0.02704 0.94998
 H251 H -0.09620 -0.01146 1.00629
 N252 N -0.01256 -0.01674 0.93056
 N253 N -0.00288 -0.03579 0.93417
 C254 C 0.01263 -0.03919 0.91857
 C255 C 0.01277 -0.02146 0.90433
 C256 C -0.00353 -0.00758 0.91245
 H257 H 0.02308 -0.05353 0.91767
 H258 H -0.00831 0.00816 0.90584
 H259 H -0.01734 -0.02356 0.97158
 H260 H -0.04026 -0.03846 0.95466
 N261 N 1.03780 0.59972 0.96358
 N262 N 1.05335 0.59353 0.97782
 C263 C 1.05390 0.60763 0.99580
 C264 C 1.03778 0.62354 0.99259
 C265 C 1.02809 0.61800 0.97181
 H266 H 1.06465 0.60593 1.01041
 H267 H 1.01447 0.62613 0.96343
 Cu268 Cu 1.07042 0.56695 0.97163
 Cu269 Cu 1.03005 0.58273 0.93616
 Cu270 Cu 1.04560 0.52779 0.93732
 N271 N 1.08555 0.53963 0.96360
 N272 N 1.07537 0.52420 0.95057
 C273 C 1.08835 0.50637 0.94900
 C274 C 1.10789 0.51085 0.96157
 C275 C 1.10558 0.53219 0.97058
 H276 H 1.08376 0.49124 0.93946
 H277 H 1.11718 0.54123 0.98203
 N278 N 1.02170 0.53802 0.91726
 N279 N 1.01636 0.55911 0.91634
 C280 C 0.99960 0.56096 0.90113
 C281 C 0.99415 0.53999 0.89189
 C282 C 1.00862 0.52585 0.90245
 H283 H 0.99183 0.57644 0.89728
 H284 H 1.00938 0.50800 0.89980
 H285 H 1.03380 0.55561 0.95485
 H286 H 1.05580 0.55966 0.93355
 N287 N 0.53445 0.09105 0.47001
 N288 N 0.55372 0.08774 0.48039
 C289 C 0.55642 0.10259 0.49766
 C290 C 0.53780 0.11592 0.49814
 C291 C 0.52427 0.10806 0.48025
 H292 H 0.57063 0.10330 0.50928
 H293 H 0.50808 0.11404 0.47510
 Cu294 Cu 0.57258 0.06355 0.47061
 Cu295 Cu 0.52330 0.07263 0.44450
 Cu296 Cu 0.55673 0.02952 0.42720
 N297 N 0.59145 0.03942 0.46072
 N298 N 0.58481 0.02609 0.44384
 C299 C 0.59967 0.00991 0.44123
 C300 C 0.61660 0.01316 0.45733
 C301 C 0.61093 0.03215 0.46938
 H302 H 0.59797 -0.00354 0.42883
 H303 H 0.61973 0.03940 0.48399
 N304 N 0.52777 0.03572 0.41250
 N305 N 0.51505 0.05214 0.41905
 C306 C 0.49651 0.05210 0.40568
 C307 C 0.49758 0.03480 0.38994
 C308 C 0.51767 0.02479 0.39483
 H309 H 0.48319 0.06378 0.40735
 H310 H 0.52459 0.01076 0.38599
 H311 H 0.53969 0.04427 0.45308
 H312 H 0.55438 0.06332 0.43376
 N313 N -0.02932 0.08705 0.53579
 N314 N -0.04551 0.07939 0.52199
 C315 C -0.04882 0.09420 0.50600
 C316 C -0.03389 0.11215 0.50981
 C317 C -0.02171 0.10702 0.52890
 H318 H -0.06072 0.09177 0.49216
 H319 H -0.00824 0.11697 0.53709
 Cu320 Cu -0.06004 0.05033 0.52540
 Cu321 Cu -0.01924 0.07028 0.56146
 Cu322 Cu -0.04587 0.01864 0.56795
 N323 N -0.07468 0.02131 0.52908
 N324 N -0.06881 0.00897 0.54579
 C325 C -0.08130 -0.01011 0.54483
 C326 C -0.09591 -0.00981 0.52649
 C327 C -0.09123 0.01047 0.51688
 H328 H -0.08017 -0.02298 0.55694
 H329 H -0.09933 0.01689 0.50221
 N330 N -0.02229 0.03110 0.58869
 N331 N -0.01181 0.05056 0.58629
 C332 C 0.00383 0.05372 0.60294
 C333 C 0.00295 0.03539 0.61646
 C334 C -0.01378 0.02147 0.60681
 H335 H 0.01505 0.06822 0.60502
 H336 H -0.01898 0.00516 0.61223
 H337 H -0.02749 0.03935 0.54747
 H338 H -0.04915 0.05281 0.56485
 N339 N 0.46878 0.58440 0.03571
 N340 N 0.44922 0.57920 0.02589
 C341 C 0.44545 0.59337 0.00939
 C342 C 0.46366 0.60831 0.00874
 C343 C 0.47815 0.60209 0.02575
 H344 H 0.43089 0.59230 -0.00181
 H345 H 0.49444 0.60962 0.03036
 Cu346 Cu 0.43097 0.55365 0.03435
 Cu347 Cu 0.48096 0.56721 0.06003
 Cu348 Cu 0.45267 0.51736 0.06976
 N349 N 0.41783 0.52386 0.03682
 N350 N 0.42645 0.50970 0.05062
 C351 C 0.41414 0.49051 0.04920
 C352 C 0.39676 0.49266 0.03362
 C353 C 0.39971 0.51415 0.02610
 H354 H 0.41753 0.47618 0.05903
 H355 H 0.38945 0.52225 0.01385
 N356 N 0.47946 0.52812 0.08737
 N357 N 0.49026 0.54716 0.08380
 C358 C 0.50776 0.54975 0.09849
 C359 C 0.50801 0.53139 0.11196
 C360 C 0.48975 0.51809 0.10437
 H361 H 0.51957 0.56385 0.09915
 H362 H 0.48423 0.50229 0.11081
 H363 H 0.46630 0.53823 0.04629
 H364 H 0.45144 0.55193 0.06996
 N365 N 0.52815 -0.08552 0.02153
 N366 N 0.54301 -0.07656 0.00836
 C367 C 0.54516 -0.09005 -0.00974
 C368 C 0.53071 -0.10845 -0.00790
 C369 C 0.52015 -0.10496 0.01217
 H370 H 0.55642 -0.08668 -0.02320
 H371 H 0.50795 -0.11597 0.01967
 Cu372 Cu 0.55826 -0.04831 0.01626
 Cu373 Cu 0.52078 -0.07133 0.04989
 Cu374 Cu 0.55326 -0.02456 0.06750
 N375 N 0.57951 -0.02547 0.02786
 N376 N 0.57765 -0.01582 0.04768
 C377 C 0.59461 -0.00042 0.05089
 C378 C 0.60787 -0.00070 0.03210
 C379 C 0.59763 -0.01683 0.01792
 H380 H 0.59720 0.01004 0.06581
 H381 H 0.60273 -0.02176 0.00136
 N382 N 0.52771 -0.03666 0.08472
 N383 N 0.51577 -0.05467 0.07795
 C384 C 0.49918 -0.05840 0.09228
 C385 C 0.50041 -0.04195 0.10897
 C386 C 0.51885 -0.02846 0.10368
 H387 H 0.48672 -0.07185 0.09031
 H388 H 0.52483 -0.01334 0.11249
 H389 H 0.53076 -0.03841 0.04401
 H390 H 0.55293 -0.05677 0.05506
 N391 N 1.03484 0.41419 0.53359
 N392 N 1.04793 0.42312 0.51873
 C393 C 1.04519 0.41142 0.49928
 C394 C 1.02956 0.39410 0.50210
 C395 C 1.02343 0.39642 0.52419
 H396 H 1.05412 0.41513 0.48430
 H397 H 1.01183 0.38585 0.53301
 Cu398 Cu 1.06813 0.44846 0.52674
 Cu399 Cu 1.03432 0.42585 0.56422
 Cu400 Cu 1.05659 0.47984 0.57187
 N401 N 1.08748 0.47396 0.53629
 N402 N 1.08293 0.48623 0.55404
 C403 C 1.09815 0.50332 0.55627
 C404 C 1.11316 0.50168 0.53898
 C405 C 1.10580 0.48275 0.52667
 H406 H 1.09789 0.51626 0.56921
 H407 H 1.11306 0.47599 0.51168
 N408 N 1.03556 0.46601 0.59271
 N409 N 1.02770 0.44527 0.59012
 C410 C 1.01318 0.44095 0.60640
 C411 C 1.01173 0.45992 0.62002
 C412 C 1.02632 0.47543 0.61081
 H413 H 1.00358 0.42544 0.60751
 H414 H 1.02953 0.49255 0.61640
 H415 H 1.03752 0.45671 0.55165
 H416 H 1.06300 0.44736 0.56703
 C417 C 0.36040 0.02506 0.23520
 C418 C 0.34552 0.00468 0.24031
 C419 C 0.35693 -0.01365 0.24616
 C420 C 0.38271 -0.00995 0.24596
 C421 C 0.37601 0.02872 0.25580
 C422 C 0.38756 0.01050 0.26168
 C423 C 0.37590 0.01658 0.21689
 C424 C 0.38755 -0.00159 0.22253
 H425 H 0.32736 0.00476 0.23856
 H426 H 0.39221 -0.02482 0.25040
 H427 H 0.37819 0.04477 0.26446
 H428 H 0.37841 0.02431 0.20111
 C429 C 0.14278 -0.03068 0.74998
 C430 C 0.15651 -0.00864 0.75246
 C431 C 0.14404 0.00966 0.75616
 C432 C 0.11863 0.00426 0.75703
 C433 C 0.12879 -0.03158 0.77111
 C434 C 0.11619 -0.01338 0.77495
 C435 C 0.12527 -0.02674 0.73127
 C436 C 0.11278 -0.00844 0.73492
 H437 H 0.17470 -0.00780 0.75173
 H438 H 0.10833 0.01909 0.75987
 H439 H 0.12809 -0.04604 0.78144
 H440 H 0.12261 -0.03722 0.71644
 C441 C 0.64573 0.46566 0.24892
 C442 C 0.65943 0.48771 0.25195
 C443 C 0.64681 0.50596 0.25543
 C444 C 0.62136 0.50049 0.25547
 C445 C 0.63110 0.46459 0.26955
 C446 C 0.61837 0.48269 0.27310
 C447 C 0.62903 0.46991 0.22956
 C448 C 0.61631 0.48812 0.23297
 H449 H 0.67762 0.48863 0.25146
 H450 H 0.61096 0.51523 0.25831
 H451 H 0.63032 0.45016 0.27992
 H452 H 0.62843 0.46077 0.21376
 C453 C 0.86125 0.52484 0.73557
 C454 C 0.84688 0.50335 0.73693
 C455 C 0.85826 0.48542 0.74389
 C456 C 0.88365 0.49046 0.74803
 C457 C 0.87294 0.52792 0.75852
 C458 C 0.88468 0.51012 0.76511
 C459 C 0.88005 0.51842 0.71977
 C460 C 0.89198 0.50064 0.72631
 H461 H 0.82907 0.50253 0.73259
 H462 H 0.89315 0.47596 0.75358
 H463 H 0.87288 0.54349 0.76815
 H464 H 0.88309 0.52628 0.70413
 C465 C 0.23290 0.36690 0.02241
 C466 C 0.23395 0.35393 0.00012
 C467 C 0.23920 0.36664 -0.01755
 C468 C 0.24301 0.39158 -0.01128
 C469 C 0.25571 0.37944 0.02503
 C470 C 0.26119 0.39213 0.00747
 C471 C 0.21620 0.38534 0.01802
 C472 C 0.22122 0.39804 0.00027
 H473 H 0.23139 0.33599 -0.00128
 H474 H 0.24728 0.40205 -0.02559
 H475 H 0.26651 0.37857 0.03978
 H476 H 0.20204 0.38888 0.02832
 C477 C 0.74706 0.13641 -0.03223
 C478 C 0.74787 0.15029 -0.01032
 C479 C 0.75081 0.13830 0.00837
 C480 C 0.75272 0.11315 0.00347
 C481 C 0.76874 0.12336 -0.03176
 C482 C 0.77189 0.11122 -0.01322
 C483 C 0.72830 0.11858 -0.02893
 C484 C 0.73121 0.10647 -0.01026
 H485 H 0.74626 0.16821 -0.00980
 H486 H 0.75511 0.10327 0.01862
 H487 H 0.78001 0.12290 -0.04566
 H488 H 0.71350 0.11606 -0.03960
 C489 C 0.24971 0.63860 0.46947
 C490 C 0.25252 0.65279 0.49121
 C491 C 0.25674 0.64086 0.50974
 C492 C 0.25755 0.61558 0.50484
 C493 C 0.27098 0.62504 0.46836
 C494 C 0.27519 0.61293 0.48670
 C495 C 0.23078 0.62156 0.47457
 C496 C 0.23484 0.60943 0.49298
 H497 H 0.25087 0.67068 0.49193
 H498 H 0.26092 0.60574 0.51980
 H499 H 0.28125 0.62440 0.45370
 H500 H 0.21477 0.62046 0.46553
 C501 C 0.73843 0.86958 0.52221
 C502 C 0.73687 0.85569 0.50036
 C503 C 0.74217 0.86720 0.48193
 C504 C 0.74866 0.89189 0.48690
 C505 C 0.76231 0.88003 0.52296
 C506 C 0.76781 0.89150 0.50456
 C507 C 0.72320 0.88928 0.51794
 C508 C 0.72845 0.90079 0.49949
 H509 H 0.73196 0.83813 0.49962
 H510 H 0.75285 0.90129 0.47181
 H511 H 0.77364 0.87899 0.53729
 H512 H 0.70909 0.89376 0.52791
 C513 C 0.02378 0.24118 0.36799
 C514 C 0.00194 0.23909 0.35397
 C515 C -0.01700 0.24241 0.36560
 C516 C -0.01253 0.24752 0.39060
 C517 C 0.02323 0.26407 0.37996
 C518 C 0.00438 0.26750 0.39185
 C519 C 0.02024 0.22458 0.38674
 C520 C 0.00122 0.22784 0.39857
 H521 H 0.00155 0.23510 0.33621
 H522 H -0.02808 0.25041 0.39997
 H523 H 0.03761 0.27566 0.38066
 H524 H 0.03122 0.21112 0.39023
 C525 C -0.03088 0.75020 0.13953
 C526 C -0.00841 0.75176 0.15265
 C527 C 0.00995 0.75537 0.13999
 C528 C 0.00417 0.75711 0.11498
 C529 C -0.03144 0.77169 0.12645
 C530 C -0.01323 0.77545 0.11362
 C531 C -0.02760 0.73181 0.12149
 C532 C -0.00926 0.73541 0.10871
 H533 H -0.00734 0.75040 0.17061
 H534 H 0.01904 0.76003 0.10454
 H535 H -0.04583 0.78229 0.12638
 H536 H -0.03822 0.71698 0.11908
 C537 C 0.46927 0.24894 0.63854
 C538 C 0.49125 0.25168 0.65239
 C539 C 0.50997 0.25529 0.64025
 C540 C 0.50497 0.25605 0.61501
 C541 C 0.46849 0.26984 0.62458
 C542 C 0.48708 0.27377 0.61237
 C543 C 0.47369 0.23006 0.62136
 C544 C 0.49244 0.23372 0.60914
 H545 H 0.49176 0.25071 0.67040
 H546 H 0.52008 0.25916 0.60496
 H547 H 0.45382 0.28002 0.62366
 H548 H 0.46360 0.21483 0.61932
 C549 C 0.52024 0.73111 0.85923
 C550 C 0.49718 0.73568 0.84872
 C551 C 0.48131 0.74096 0.86367
 C552 C 0.48968 0.74110 0.88809
 C553 C 0.52623 0.75182 0.87398
 C554 C 0.51046 0.75714 0.88914
 C555 C 0.51528 0.71266 0.87585
 C556 C 0.49943 0.71793 0.89105
 H557 H 0.49358 0.73434 0.83091
 H558 H 0.47664 0.74544 0.90023
 H559 H 0.54172 0.76154 0.87222
 H560 H 0.52272 0.69652 0.87533
 C561 C 0.09765 0.23173 0.30747
 C562 C 0.09634 0.24037 0.28603
 C563 C 0.11391 0.23734 0.27150
 C564 C 0.13282 0.22557 0.27807
 C565 C 0.13320 0.21655 0.29939
 N566 N 0.11585 0.21983 0.31338
 C567 C 0.07945 0.23491 0.32351
 N568 N 0.07594 0.21962 0.33944
 C569 C 0.05899 0.22116 0.35420
 C570 C 0.04421 0.23899 0.35336
 C571 C 0.04800 0.25513 0.33730
 C572 C 0.06557 0.25329 0.32257
 H573 H 0.11247 0.24409 0.25504
 H574 H 0.14738 0.20725 0.30511
 H575 H 0.05708 0.20814 0.36601
 H576 H 0.03711 0.26916 0.33602
 H577 H 0.08179 0.24909 0.28028
 H578 H 0.06819 0.26624 0.31068
 C579 C 0.58969 0.71966 0.79403
 C580 C 0.58896 0.72923 0.77298
 C581 C 0.60715 0.72720 0.75900
 C582 C 0.62601 0.71545 0.76572
 C583 C 0.62571 0.70531 0.78648
 N584 N 0.60785 0.70774 0.79998
 C585 C 0.57140 0.72246 0.81003
 N586 N 0.56861 0.70736 0.82627
 C587 C 0.55253 0.70920 0.84190
 C588 C 0.53802 0.72726 0.84182
 C589 C 0.54106 0.74321 0.82543
 C590 C 0.55757 0.74090 0.80959
 H591 H 0.60634 0.73479 0.74289
 H592 H 0.63984 0.69600 0.79229
 H593 H 0.55167 0.69674 0.85441
 H594 H 0.53074 0.75773 0.82509
 H595 H 0.57452 0.73810 0.76720
 H596 H 0.55977 0.75384 0.79762
 C597 C 0.39553 0.75274 0.82179
 C598 C 0.38293 0.73405 0.81321
 C599 C 0.36492 0.73700 0.79830
 C600 C 0.35927 0.75850 0.79217
 C601 C 0.37189 0.77675 0.80165
 N602 N 0.38965 0.77343 0.81571
 C603 C 0.41644 0.75046 0.83525
 N604 N 0.43370 0.76556 0.83270
 C605 C 0.45420 0.76354 0.84279
 C606 C 0.45820 0.74546 0.85633
 C607 C 0.44049 0.73021 0.86008
 C608 C 0.41953 0.73262 0.84951
 H609 H 0.35559 0.72248 0.79141
 H610 H 0.36826 0.79361 0.79726
 H611 H 0.46761 0.77557 0.83959
 H612 H 0.44321 0.71592 0.87026
 H613 H 0.38748 0.71730 0.81715
 H614 H 0.40608 0.72047 0.85216
 C615 C -0.10007 0.24102 0.31454
 C616 C -0.10399 0.22714 0.29541
 C617 C -0.12276 0.23017 0.28158
 C618 C -0.13778 0.24717 0.28635
 C619 C -0.13331 0.26060 0.30578
 N620 N -0.11488 0.25727 0.31902
 C621 C -0.07965 0.23950 0.32924
 N622 N -0.07438 0.25649 0.34433
 C623 C -0.05512 0.25717 0.35717
 C624 C -0.03953 0.24037 0.35469
 C625 C -0.04497 0.22228 0.34003
 C626 C -0.06505 0.22160 0.32752
 H627 H -0.12502 0.21930 0.26693
 H628 H -0.14422 0.27387 0.31053
 H629 H -0.05148 0.27135 0.36844
 H630 H -0.03348 0.20878 0.33803
 H631 H -0.09258 0.21438 0.29053
 H632 H -0.06863 0.20726 0.31655
 C633 C -0.10646 0.74252 0.19886
 C634 C -0.10806 0.75498 0.21897
 C635 C -0.12689 0.75196 0.23209
 C636 C -0.14411 0.73642 0.22546
 C637 C -0.14172 0.72404 0.20545
 N638 N -0.12327 0.72737 0.19287
 C639 C -0.08695 0.74495 0.18409
 N640 N -0.08341 0.72849 0.16857
 C641 C -0.06607 0.72938 0.15423
 C642 C -0.05083 0.74788 0.15490
 C643 C -0.05433 0.76508 0.17076
 C644 C -0.07230 0.76379 0.18520
 H645 H -0.12773 0.76159 0.24758
 H646 H -0.15453 0.71190 0.19959
 H647 H -0.06450 0.71552 0.14261
 H648 H -0.04312 0.77969 0.17186
 H649 H -0.09486 0.76666 0.22490
 H650 H -0.07470 0.77766 0.19672
 C651 C 0.39333 0.24114 0.69739
 C652 C 0.39050 0.25563 0.71586
 C653 C 0.37187 0.25274 0.72921
 C654 C 0.35597 0.23520 0.72463
 C655 C 0.35977 0.22071 0.70627
 N656 N 0.37799 0.22406 0.69334
 C657 C 0.41267 0.24363 0.68238
 N658 N 0.41785 0.22614 0.66866
 C659 C 0.43534 0.22706 0.65446
 C660 C 0.44896 0.24662 0.65343
 C661 C 0.44380 0.26480 0.66749
 C662 C 0.42568 0.26353 0.68167
 H663 H 0.37034 0.26424 0.74327
 H664 H 0.34827 0.20686 0.70188
 H665 H 0.43847 0.21234 0.64443
 H666 H 0.45386 0.28018 0.66740
 H667 H 0.40258 0.26893 0.72041
 H668 H 0.42197 0.27818 0.69163
 C669 C 0.59765 0.26348 0.68360
 C670 C 0.61282 0.28158 0.68114
 C671 C 0.63253 0.28334 0.69428
 C672 C 0.63734 0.26724 0.71015
 C673 C 0.62180 0.24918 0.71177
 N674 N 0.60267 0.24792 0.69882
 C675 C 0.57572 0.26135 0.67121
 N676 N 0.55932 0.24771 0.67929
 C677 C 0.53846 0.24533 0.66958
 C678 C 0.53294 0.25722 0.65052
 C679 C 0.54971 0.27095 0.64151
 C680 C 0.57110 0.27302 0.65172
 H681 H 0.64366 0.29764 0.69206
 H682 H 0.62448 0.23619 0.72351
 H683 H 0.52628 0.23406 0.67677
 H684 H 0.54622 0.28044 0.62685
 H685 H 0.60940 0.29471 0.66976
 H686 H 0.58370 0.28358 0.64426
 C687 C 0.09794 0.76450 0.18243
 C688 C 0.11268 0.78308 0.18043
 C689 C 0.13222 0.78514 0.19385
 C690 C 0.13721 0.76885 0.20937
 C691 C 0.12225 0.75036 0.21053
 N692 N 0.10327 0.74880 0.19739
 C693 C 0.07604 0.76201 0.17003
 N694 N 0.06013 0.74764 0.17782
 C695 C 0.03923 0.74493 0.16826
 C696 C 0.03316 0.75725 0.14968
 C697 C 0.04945 0.77167 0.14087
 C698 C 0.07090 0.77408 0.15094
 H699 H 0.14318 0.79969 0.19220
 H700 H 0.12523 0.73733 0.22216
 H701 H 0.02742 0.73315 0.17527
 H702 H 0.04549 0.78152 0.12658
 H703 H 0.10900 0.79631 0.16925
 H704 H 0.08312 0.78527 0.14373
 C705 C 0.30586 0.10232 0.22292
 C706 C 0.31019 0.11896 0.20754
 C707 C 0.29608 0.13698 0.20634
 C708 C 0.27768 0.13862 0.22047
 C709 C 0.27421 0.12182 0.23591
 N710 N 0.28818 0.10440 0.23673
 C711 C 0.32020 0.08279 0.22500
 N712 N 0.32027 0.07178 0.24446
 C713 C 0.33286 0.05366 0.24769
 C714 C 0.34652 0.04540 0.23070
 C715 C 0.34632 0.05632 0.21029
 C716 C 0.33323 0.07492 0.20740
 H717 H 0.29979 0.14965 0.19444
 H718 H 0.26033 0.12230 0.24720
 H719 H 0.33223 0.04566 0.26360
 H720 H 0.35589 0.05071 0.19630
 H721 H 0.32449 0.11843 0.19678
 H722 H 0.33305 0.08264 0.19136
 C723 C 0.80716 0.60171 0.71980
 C724 C 0.80766 0.61466 0.70070
 C725 C 0.79320 0.63236 0.69884
 C726 C 0.77809 0.63715 0.71582
 C727 C 0.77808 0.62377 0.73458
 N728 N 0.79235 0.60666 0.73603
 C729 C 0.82162 0.58237 0.72274
 N730 N 0.81583 0.56731 0.73823
 C731 C 0.82809 0.54913 0.74218
 C732 C 0.84752 0.54499 0.73005
 C733 C 0.85419 0.56074 0.71442
 C734 C 0.84129 0.57932 0.71069
 H735 H 0.79361 0.64195 0.68389
 H736 H 0.76687 0.62686 0.74816
 H737 H 0.82270 0.53794 0.75496
 H738 H 0.86957 0.55931 0.70541
 H739 H 0.81861 0.61100 0.68705
 H740 H 0.84714 0.59133 0.69891
 C741 C 0.80946 0.40236 0.75448
 C742 C 0.78686 0.40105 0.74717
 C743 C 0.77447 0.38114 0.74870
 C744 C 0.78444 0.36240 0.75754
 C745 C 0.80726 0.36422 0.76430
 N746 N 0.81911 0.38389 0.76253
 C747 C 0.82255 0.42364 0.75363
 N748 N 0.84445 0.42391 0.74744
 C749 C 0.85653 0.44333 0.74491
 C750 C 0.84642 0.46393 0.74840
 C751 C 0.82424 0.46382 0.75589
 C752 C 0.81231 0.44384 0.75846
 H753 H 0.75695 0.38069 0.74337
 H754 H 0.81565 0.35007 0.77096
 H755 H 0.87367 0.44262 0.73942
 H756 H 0.81599 0.47923 0.75974
 H757 H 0.77881 0.41528 0.74025
 H758 H 0.79517 0.44419 0.76412
 C759 C 0.30742 -0.09557 0.26012
 C760 C 0.28560 -0.09704 0.25082
 C761 C 0.27257 -0.11652 0.25268
 C762 C 0.28098 -0.13468 0.26421
 C763 C 0.30319 -0.13254 0.27307
 N764 N 0.31573 -0.11336 0.27071
 C765 C 0.32097 -0.07468 0.25877
 N766 N 0.34227 -0.07489 0.25096
 C767 C 0.35445 -0.05571 0.24753
 C768 C 0.34509 -0.03485 0.25184
 C769 C 0.32355 -0.03451 0.26094
 C770 C 0.31144 -0.05429 0.26422
 H771 H 0.25572 -0.11687 0.24550
 H772 H 0.31072 -0.14602 0.28178
 H773 H 0.37099 -0.05684 0.24056
 H774 H 0.31587 -0.01895 0.26535
 H775 H 0.27867 -0.08318 0.24213
 H776 H 0.29465 -0.05369 0.27078
 C777 C 0.20171 -0.10566 0.74038
 C778 C 0.22124 -0.10811 0.75357
 C779 C 0.23461 -0.12642 0.74981
 C780 C 0.22886 -0.14243 0.73276
 C781 C 0.20925 -0.13913 0.71977
 N782 N 0.19648 -0.12115 0.72384
 C783 C 0.18687 -0.08647 0.74344
 N784 N 0.17268 -0.08134 0.72634
 C785 C 0.15851 -0.06407 0.72767
 C786 C 0.15789 -0.05061 0.74732
 C787 C 0.17248 -0.05568 0.76512
 C788 C 0.18677 -0.07356 0.76337
 H789 H 0.24953 -0.12770 0.76028
 H790 H 0.20390 -0.15070 0.70636
 H791 H 0.14819 -0.06101 0.71316
 H792 H 0.17274 -0.04576 0.78053
 H793 H 0.22656 -0.09590 0.76643
 H794 H 0.19725 -0.07726 0.77767
 C795 C 0.70185 0.38827 0.24308
 C796 C 0.72225 0.38619 0.25508
 C797 C 0.73436 0.36680 0.25240
 C798 C 0.72642 0.34952 0.23765
 C799 C 0.70608 0.35235 0.22583
 N800 N 0.69454 0.37132 0.22880
 C801 C 0.68810 0.40838 0.24499
 N802 N 0.67199 0.41155 0.22898
 C803 C 0.65843 0.42933 0.22943
 C804 C 0.66062 0.44552 0.24693
 C805 C 0.67690 0.44228 0.26383
 C806 C 0.69058 0.42389 0.26298
 H807 H 0.75013 0.36558 0.26161
 H808 H 0.69918 0.33951 0.21435
 H809 H 0.64592 0.43030 0.21623
 H810 H 0.67887 0.45401 0.27791
 H811 H 0.72918 0.39940 0.26611
 H812 H 0.70253 0.42180 0.27657
 C813 C 0.68808 0.59396 0.26667
 C814 C 0.68454 0.60859 0.28489
 C815 C 0.69662 0.62891 0.28681
 C816 C 0.71238 0.63477 0.27076
 C817 C 0.71540 0.61968 0.25280
 N818 N 0.70344 0.59997 0.25130
 C819 C 0.67649 0.57174 0.26405
 N820 N 0.68554 0.55613 0.25032
 C821 C 0.67636 0.53522 0.24722
 C822 C 0.65677 0.52886 0.25833
 C823 C 0.64686 0.54476 0.27223
 C824 C 0.65658 0.56619 0.27509
 H825 H 0.69386 0.63976 0.30115
 H826 H 0.72724 0.62341 0.23994
 H827 H 0.68430 0.52369 0.23592
 H828 H 0.63181 0.54058 0.28122
 H829 H 0.67309 0.60434 0.29793
 H830 H 0.64836 0.57814 0.28569
 C831 C 0.18640 0.09717 0.76766
 C832 C 0.18348 0.11168 0.78614
 C833 C 0.19598 0.13178 0.78807
 C834 C 0.21152 0.13753 0.77177
 C835 C 0.21383 0.12260 0.75353
 N836 N 0.20149 0.10313 0.75203
 C837 C 0.17447 0.07512 0.76498
 N838 N 0.18300 0.05961 0.75078
 C839 C 0.17353 0.03882 0.74757
 C840 C 0.15417 0.03250 0.75906
 C841 C 0.14477 0.04831 0.77345
 C842 C 0.15478 0.06962 0.77642
 H843 H 0.19375 0.14253 0.80260
 H844 H 0.22543 0.12626 0.74044
 H845 H 0.18108 0.02735 0.73592
 H846 H 0.12992 0.04414 0.78274
 H847 H 0.17222 0.10747 0.79934
 H848 H 0.14699 0.08150 0.78743
 C849 C 0.21934 0.30822 0.09619
 C850 C 0.20419 0.31234 0.11328
 C851 C 0.20306 0.29809 0.13112
 C852 C 0.21704 0.27974 0.13214
 C853 C 0.23214 0.27636 0.11482
 N854 N 0.23294 0.29050 0.09760
 C855 C 0.22161 0.32304 0.07711
 N856 N 0.24126 0.32354 0.06600
 C857 C 0.24482 0.33707 0.04864
 C858 C 0.22814 0.35157 0.04160
 C859 C 0.20731 0.35045 0.05220
 C860 C 0.20405 0.33635 0.06994
 H861 H 0.19139 0.30173 0.14417
 H862 H 0.24328 0.26251 0.11481
 H863 H 0.26081 0.33667 0.04043
 H864 H 0.19324 0.35998 0.04682
 H865 H 0.19364 0.32666 0.11327
 H866 H 0.18776 0.33565 0.07758
 C867 C 0.72487 0.81270 0.59748
 C868 C 0.71111 0.81742 0.61561
 C869 C 0.70926 0.80227 0.63265
 C870 C 0.72122 0.78253 0.63187
 C871 C 0.73520 0.77868 0.61375
 N872 N 0.73660 0.79361 0.59726
 C873 C 0.72741 0.82788 0.57868
 N874 N 0.74531 0.82553 0.56525
 C875 C 0.74882 0.83858 0.54752
 C876 C 0.73384 0.85540 0.54231
 C877 C 0.71492 0.85774 0.55572
 C878 C 0.71167 0.84407 0.57381
 H879 H 0.69865 0.80620 0.64653
 H880 H 0.74473 0.76369 0.61241
 H881 H 0.76337 0.83582 0.53742
 H882 H 0.70226 0.86969 0.55236
 H883 H 0.70209 0.83270 0.61698
 H884 H 0.69668 0.84597 0.58341
 C885 C 0.74469 0.81700 0.39921
 C886 C 0.73308 0.79627 0.39673
 C887 C 0.73653 0.78258 0.37807
 C888 C 0.75168 0.78919 0.36180
 C889 C 0.76308 0.81000 0.36489
 N890 N 0.75942 0.82313 0.38329
 C891 C 0.74236 0.83160 0.41938
 N892 N 0.75934 0.84656 0.42550
 C893 C 0.75910 0.85912 0.44480
 C894 C 0.74129 0.85646 0.45945
 C895 C 0.72317 0.84200 0.45301
 C896 C 0.72349 0.82977 0.43293
 H897 H 0.72766 0.76656 0.37681
 H898 H 0.77490 0.81584 0.35280
 H899 H 0.77330 0.87029 0.44922
 H900 H 0.70886 0.83996 0.46369
 H901 H 0.72196 0.79017 0.40932
 H902 H 0.70915 0.81890 0.42835
 C903 C 0.25144 0.32186 -0.10237
 C904 C 0.27151 0.32313 -0.11421
 C905 C 0.27425 0.30880 -0.13266
 C906 C 0.25717 0.29310 -0.13938
 C907 C 0.23725 0.29264 -0.12731
 N908 N 0.23502 0.30669 -0.10935
 C909 C 0.24802 0.33519 -0.08155
 N910 N 0.23157 0.32817 -0.06778
 C911 C 0.22799 0.33840 -0.04775
 C912 C 0.24159 0.35683 -0.04030
 C913 C 0.25809 0.36497 -0.05451
 C914 C 0.26135 0.35426 -0.07516
 H915 H 0.29003 0.30971 -0.14122
 H916 H 0.22350 0.28104 -0.13190
 H917 H 0.21465 0.33192 -0.03758
 H918 H 0.26895 0.37914 -0.04940
 H919 H 0.28533 0.33439 -0.10901
 H920 H 0.27423 0.36087 -0.08575
 C921 C 0.74216 0.19299 -0.10920
 C922 C 0.75454 0.21322 -0.11075
 C923 C 0.75202 0.22587 -0.12971
 C924 C 0.73706 0.21868 -0.14715
 C925 C 0.72482 0.19850 -0.14486
 N926 N 0.72763 0.18640 -0.12626
 C927 C 0.74394 0.17880 -0.08942
 N928 N 0.72737 0.16313 -0.08615
 C929 C 0.72762 0.14944 -0.06851
 C930 C 0.74549 0.15101 -0.05259
 C931 C 0.76284 0.16698 -0.05585
 C932 C 0.76224 0.18073 -0.07414
 H933 H 0.76153 0.24149 -0.13042
 H934 H 0.71312 0.19222 -0.15785
 H935 H 0.71377 0.13757 -0.06725
 H936 H 0.77703 0.16871 -0.04417
 H937 H 0.76572 0.21962 -0.09740
 H938 H 0.77620 0.19237 -0.07626
 C939 C 0.23878 0.68870 0.38866
 C940 C 0.22096 0.68480 0.37306
 C941 C 0.21919 0.69824 0.35459
 C942 C 0.23497 0.71575 0.35152
 C943 C 0.25250 0.71912 0.36757
 N944 N 0.25387 0.70579 0.38546
 C945 C 0.24123 0.67525 0.40888
 N946 N 0.25366 0.68393 0.42665
 C947 C 0.25644 0.67281 0.44588
 C948 C 0.24606 0.65163 0.44831
 C949 C 0.23420 0.64193 0.42966
 C950 C 0.23159 0.65367 0.41011
 H951 H 0.20523 0.69493 0.34294
 H952 H 0.26508 0.73236 0.36609
 H953 H 0.26700 0.68050 0.45911
 H954 H 0.22720 0.62508 0.42995
 H955 H 0.20814 0.67192 0.37520
 H956 H 0.22257 0.64557 0.39604
 C957 C 0.26768 0.68441 0.59675
 C958 C 0.28584 0.68152 0.61173
 C959 C 0.28760 0.69433 0.63160
 C960 C 0.27146 0.71016 0.63665
 C961 C 0.25353 0.71242 0.62130
 N962 N 0.25219 0.69978 0.60207
 C963 C 0.26516 0.67216 0.57485
 N964 N 0.25080 0.68008 0.55920
 C965 C 0.24770 0.67034 0.53854
 C966 C 0.25952 0.65131 0.53247
 C967 C 0.27408 0.64252 0.54844
 C968 C 0.27693 0.65281 0.56962
 H969 H 0.30190 0.69210 0.64271
 H970 H 0.24056 0.72422 0.62443
 H971 H 0.23585 0.67741 0.52700
 H972 H 0.28362 0.62794 0.54448
 H973 H 0.29894 0.67003 0.60809
 H974 H 0.28810 0.64547 0.58158
 C975 C 0.75604 0.18085 0.09593
 C976 C 0.73866 0.19318 0.10510
 C977 C 0.74234 0.20489 0.12537
 C978 C 0.76318 0.20426 0.13679
 C979 C 0.77979 0.19091 0.12759
 N980 N 0.77591 0.17982 0.10762
 C981 C 0.75352 0.16951 0.07362
 N982 N 0.76654 0.15189 0.06853
 C983 C 0.76562 0.14133 0.04806
 C984 C 0.75127 0.14874 0.03112
 C985 C 0.73768 0.16681 0.03604
 C986 C 0.73878 0.17723 0.05713
 H987 H 0.72879 0.21444 0.13204
 H988 H 0.79606 0.18979 0.13586
 H989 H 0.77655 0.12760 0.04488
 H990 H 0.72619 0.17295 0.02356
 H991 H 0.72233 0.19380 0.09684
 H992 H 0.72862 0.19156 0.06014
 C993 C 0.48740 0.34712 0.55272
 C994 C 0.50104 0.34968 0.53412
 C995 C 0.49812 0.36780 0.52040
 C996 C 0.48176 0.38351 0.52512
 C997 C 0.46873 0.38048 0.54407
 N998 N 0.47186 0.36270 0.55712
 C999 C 0.48920 0.32818 0.56792
 N1000 N 0.47950 0.32996 0.58819
 C1001 C 0.47925 0.31315 0.60280
 C1002 C 0.48896 0.29278 0.59726
 C1003 C 0.49941 0.29060 0.57664
 C1004 C 0.49951 0.30818 0.56189
 H1005 H 0.50873 0.36936 0.50612
 H1006 H 0.45605 0.39214 0.54864
 H1007 H 0.47131 0.31570 0.61867
 H1008 H 0.50674 0.27504 0.57153
 H1009 H 0.51401 0.33811 0.53020
 H1010 H 0.50692 0.30568 0.54577
 C1011 C -0.01382 0.84905 0.05430
 C1012 C -0.00054 0.85150 0.03542
 C1013 C -0.00348 0.86971 0.02186
 C1014 C -0.01949 0.88566 0.02699
 C1015 C -0.03219 0.88271 0.04618
 N1016 N -0.02906 0.86482 0.05909
 C1017 C -0.01186 0.83004 0.06938
 N1018 N -0.02073 0.83194 0.09003
 C1019 C -0.02071 0.81508 0.10459
 C1020 C -0.01159 0.79454 0.09859
 C1021 C -0.00203 0.79223 0.07753
 C1022 C -0.00219 0.80986 0.06286
 H1023 H 0.00694 0.87124 0.00743
 H1024 H -0.04468 0.89448 0.05100
 H1025 H -0.02799 0.81771 0.12078
 H1026 H 0.00477 0.77654 0.07204
 H1027 H 0.01222 0.83979 0.03121
 H1028 H 0.00450 0.80726 0.04643
 C1029 C 0.01681 0.67334 0.03971
 C1030 C 0.00394 0.66869 0.02008
 C1031 C 0.01096 0.65273 0.00464
 C1032 C 0.03085 0.64132 0.00853
 C1033 C 0.04357 0.64691 0.02810
 N1034 N 0.03635 0.66255 0.04296
 C1035 C 0.00956 0.68957 0.05697
 N1036 N 0.02535 0.70052 0.07046
 C1037 C 0.01978 0.71540 0.08683
 C1038 C -0.00289 0.71969 0.09060
 C1039 C -0.01944 0.70847 0.07701
 C1040 C -0.01331 0.69344 0.06023
 H1041 H 0.00053 0.64921 -0.01016
 H1042 H 0.05917 0.63884 0.03171
 H1043 H 0.03303 0.72347 0.09718
 H1044 H -0.03712 0.71139 0.07927
 H1045 H -0.01133 0.67736 0.01651
 H1046 H -0.02644 0.68464 0.05032
 C1047 C 0.52256 0.16770 0.54580
 C1048 C 0.54393 0.15838 0.54645
 C1049 C 0.54899 0.14163 0.53085
 C1050 C 0.53286 0.13401 0.51462
 C1051 C 0.51171 0.14376 0.51461
 N1052 N 0.50718 0.15998 0.52998
 C1053 C 0.51574 0.18508 0.56216
 N1054 N 0.49337 0.18819 0.56479
 C1055 C 0.48556 0.20360 0.57948
 C1056 C 0.50065 0.21718 0.59265
 C1057 C 0.52379 0.21455 0.59001
 C1058 C 0.53142 0.19861 0.57478
 H1059 H 0.56552 0.13467 0.53164
 H1060 H 0.49858 0.13843 0.50264
 H1061 H 0.46757 0.20532 0.58069
 H1062 H 0.53605 0.22451 0.59996
 H1063 H 0.55653 0.16348 0.55906
 H1064 H 0.54934 0.19720 0.57290
 C1065 C -0.02378 0.16641 0.46615
 C1066 C -0.04416 0.15387 0.46499
 C1067 C -0.04765 0.13662 0.47965
 C1068 C -0.03092 0.13164 0.49547
 C1069 C -0.01100 0.14490 0.49649
 N1070 N -0.00790 0.16152 0.48186
 C1071 C -0.01830 0.18357 0.44971
 N1072 N 0.00374 0.18907 0.44643
 C1073 C 0.01032 0.20354 0.43070
 C1074 C -0.00574 0.21331 0.41687
 C1075 C -0.02857 0.20850 0.42045
 C1076 C -0.03493 0.19377 0.43688
 H1077 H -0.06338 0.12703 0.47832
 H1078 H 0.00240 0.14164 0.50834
 H1079 H 0.02811 0.20724 0.42895
 H1080 H -0.04154 0.21558 0.41016
 H1081 H -0.05705 0.15662 0.45245
 H1082 H -0.05267 0.19046 0.43928
 C1083 C 0.47519 0.65793 0.96022
 C1084 C 0.45329 0.64913 0.96297
 C1085 C 0.44948 0.63322 0.97903
 C1086 C 0.46736 0.62599 0.99239
 C1087 C 0.48893 0.63541 0.98929
 N1088 N 0.49226 0.65074 0.97341
 C1089 C 0.48059 0.67390 0.94266
 N1090 N 0.50204 0.67522 0.93532
 C1091 C 0.50839 0.68907 0.91898
 C1092 C 0.49268 0.70283 0.90897
 C1093 C 0.47056 0.70213 0.91658
 C1094 C 0.46444 0.68772 0.93339
 H1095 H 0.43252 0.62652 0.98083
 H1096 H 0.50328 0.63026 0.99903
 H1097 H 0.52577 0.68946 0.91404
 H1098 H 0.45790 0.71246 0.90940
 H1099 H 0.43930 0.65387 0.95249
 H1100 H 0.44734 0.68770 0.93912
 C1101 C 0.52303 0.83422 0.94813
 C1102 C 0.54232 0.84825 0.94708
 C1103 C 0.54469 0.86707 0.96124
 C1104 C 0.52795 0.87199 0.97651
 C1105 C 0.50871 0.85776 0.97677
 N1106 N 0.50671 0.83954 0.96269
 C1107 C 0.52011 0.81392 0.93364
 N1108 N 0.49909 0.80689 0.92638
 C1109 C 0.49549 0.78862 0.91255
 C1110 C 0.51372 0.77631 0.90523
 C1111 C 0.53542 0.78291 0.91320
 C1112 C 0.53867 0.80163 0.92731
 H1113 H 0.55980 0.87753 0.96041
 H1114 H 0.49522 0.86112 0.98803
 H1115 H 0.47849 0.78417 0.90682
 H1116 H 0.54993 0.77352 0.90867
 H1117 H 0.55537 0.84489 0.93529
 H1118 H 0.55554 0.80624 0.93338
 C1119 C 0.00976 0.34163 0.45475
 C1120 C -0.00171 0.34371 0.47487
 C1121 C 0.00450 0.36098 0.49018
 C1122 C 0.02200 0.37632 0.48553
 C1123 C 0.03246 0.37407 0.46489
 N1124 N 0.02625 0.35703 0.45036
 C1125 C 0.00527 0.32293 0.43832
 N1126 N 0.01334 0.32492 0.41741
 C1127 C 0.01205 0.30790 0.40192
 C1128 C 0.00261 0.28708 0.40727
 C1129 C -0.00652 0.28478 0.42844
 C1130 C -0.00520 0.30261 0.44403
 H1131 H -0.00441 0.36221 0.50564
 H1132 H 0.04591 0.38546 0.46036
 H1133 H 0.01900 0.31048 0.38566
 H1134 H -0.01358 0.26890 0.43340
 H1135 H -0.01535 0.33230 0.47886
 H1136 H -0.01131 0.29995 0.46058
 C1137 C 0.34922 0.55334 0.48624
 C1138 C 0.35179 0.53478 0.49966
 C1139 C 0.37006 0.52105 0.49652
 C1140 C 0.38588 0.52571 0.48014
 C1141 C 0.38286 0.54464 0.46737
 N1142 N 0.36495 0.55769 0.47071
 C1143 C 0.33012 0.56854 0.48819
 N1144 N 0.33182 0.58862 0.47833
 C1145 C 0.31486 0.60320 0.47819
 C1146 C 0.29439 0.59784 0.48822
 C1147 C 0.29226 0.57740 0.49880
 C1148 C 0.31001 0.56268 0.49878
 H1149 H 0.37164 0.50676 0.50691
 H1150 H 0.39462 0.54920 0.45473
 H1151 H 0.31738 0.61891 0.47012
 H1152 H 0.27663 0.57241 0.50638
 H1153 H 0.34012 0.53089 0.51261
 H1154 H 0.30753 0.54672 0.50633
 C1155 C 0.84702 0.05310 -0.01169
 C1156 C 0.84927 0.03386 0.00081
 C1157 C 0.86801 0.02068 -0.00212
 C1158 C 0.88457 0.02656 -0.01739
 C1159 C 0.88173 0.04604 -0.02935
 N1160 N 0.86340 0.05855 -0.02621
 C1161 C 0.82759 0.06793 -0.00986
 N1162 N 0.82953 0.08850 -0.01865
 C1163 C 0.81234 0.10280 -0.01908
 C1164 C 0.79135 0.09661 -0.01057
 C1165 C 0.78899 0.07573 -0.00090
 C1166 C 0.80701 0.06130 -0.00056
 H1167 H 0.86941 0.00587 0.00756
 H1168 H 0.89404 0.05152 -0.04112
 H1169 H 0.81506 0.11890 -0.02635
 H1170 H 0.77298 0.07016 0.00554
 H1171 H 0.83701 0.02904 0.01291
 H1172 H 0.80440 0.04496 0.00617
 C1173 C 0.66414 0.04152 0.01560
 C1174 C 0.65995 0.02118 0.00384
 C1175 C 0.64200 0.00727 0.00966
 C1176 C 0.62811 0.01335 0.02727
 C1177 C 0.63352 0.03333 0.03937
 N1178 N 0.65108 0.04679 0.03324
 C1179 C 0.68198 0.05752 0.00871
 N1180 N 0.69260 0.07152 0.02423
 C1181 C 0.70874 0.08687 0.01868
 C1182 C 0.71465 0.08906 -0.00369
 C1183 C 0.70386 0.07486 -0.01991
 C1184 C 0.68760 0.05912 -0.01382
 H1185 H 0.63904 -0.00824 0.00021
 H1186 H 0.62343 0.03861 0.05321
 H1187 H 0.71648 0.09774 0.03164
 H1188 H 0.70798 0.07594 -0.03734
 H1189 H 0.67041 0.01601 -0.00977
 H1190 H 0.67914 0.04875 -0.02676
 C1191 C 0.16734 0.54719 0.52363
 C1192 C 0.15757 0.54865 0.54470
 C1193 C 0.14005 0.53371 0.54981
 C1194 C 0.13216 0.51731 0.53403
 C1195 C 0.14246 0.51640 0.51321
 N1196 N 0.15937 0.53119 0.50859
 C1197 C 0.18532 0.56306 0.51670
 N1198 N 0.18839 0.56559 0.49449
 C1199 C 0.20414 0.58002 0.48660
 C1200 C 0.21815 0.59304 0.50142
 C1201 C 0.21567 0.59041 0.52440
 C1202 C 0.19933 0.57546 0.53212
 H1203 H 0.13270 0.53511 0.56609
 H1204 H 0.13689 0.50426 0.50038
 H1205 H 0.20575 0.58121 0.46873
 H1206 H 0.22600 0.60021 0.53645
 H1207 H 0.16288 0.56144 0.55699
 H1208 H 0.19793 0.57361 0.54991
 C1209 C 0.16007 0.46530 -0.02566
 C1210 C 0.16487 0.48832 -0.02304
 C1211 C 0.14789 0.50330 -0.02726
 C1212 C 0.12631 0.49540 -0.03432
 C1213 C 0.12236 0.47229 -0.03699
 N1214 N 0.13900 0.45807 -0.03243
 C1215 C 0.17663 0.44849 -0.01986
 N1216 N 0.16878 0.42846 -0.01277
 C1217 C 0.18269 0.41218 -0.00661
 C1218 C 0.20613 0.41550 -0.00747
 C1219 C 0.21462 0.43569 -0.01550
 C1220 C 0.19995 0.45233 -0.02155
 H1221 H 0.15165 0.52100 -0.02501
 H1222 H 0.10593 0.46541 -0.04212
 H1223 H 0.17538 0.39662 -0.00110
 H1224 H 0.23253 0.43883 -0.01671
 H1225 H 0.18127 0.49468 -0.01715
 H1226 H 0.20679 0.46783 -0.02767
 C1227 C 0.66893 0.96840 0.47193
 C1228 C 0.67185 0.99098 0.47856
 C1229 C 0.65485 1.00575 0.47369
 C1230 C 0.63520 0.99810 0.46201
 C1231 C 0.63319 0.97549 0.45537
 N1232 N 0.64972 0.96140 0.46067
 C1233 C 0.68521 0.95154 0.47823
 N1234 N 0.67725 0.93046 0.48168
 C1235 C 0.69087 0.91404 0.48810
 C1236 C 0.71404 0.91837 0.49122
 C1237 C 0.72282 0.93974 0.48717
 C1238 C 0.70842 0.95648 0.48079
 H1239 H 0.65704 1.02308 0.47910
 H1240 H 0.61823 0.96878 0.44660
 H1241 H 0.68359 0.89762 0.49085
 H1242 H 0.74061 0.94363 0.48952
 H1243 H 0.68667 0.99703 0.48803
 H1244 H 0.71538 0.97296 0.47779
 C1245 C 0.85131 0.94196 0.50940
 C1246 C 0.86878 0.93656 0.52430
 C1247 C 0.88627 0.95205 0.52929
 C1248 C 0.88651 0.97305 0.51971
 C1249 C 0.86913 0.97760 0.50441
 N1250 N 0.85213 0.96227 0.49991
 C1251 C 0.83098 0.92722 0.50539
 N1252 N 0.81209 0.93607 0.49647
 C1253 C 0.79206 0.92447 0.49457
 C1254 C 0.79005 0.90291 0.50268
 C1255 C 0.80951 0.89297 0.51070
 C1256 C 0.83001 0.90490 0.51184
 H1257 H 0.89936 0.94759 0.54100
 H1258 H 0.86856 0.99355 0.49657
 H1259 H 0.77754 0.93256 0.48787
 H1260 H 0.80877 0.87605 0.51648
 H1261 H 0.86879 0.92100 0.53283
 H1262 H 0.84464 0.89668 0.51811
 C1263 C 0.34305 0.44523 0.01661
 C1264 C 0.36048 0.43950 0.03139
 C1265 C 0.37813 0.45477 0.03653
 C1266 C 0.37857 0.47593 0.02723
 C1267 C 0.36098 0.48093 0.01231
 N1268 N 0.34387 0.46576 0.00760
 C1269 C 0.32296 0.43032 0.01192
 N1270 N 0.30368 0.43928 0.00401
 C1271 C 0.28403 0.42712 0.00115
 C1272 C 0.28291 0.40474 0.00701
 C1273 C 0.30275 0.39488 0.01414
 C1274 C 0.32282 0.40748 0.01638
 H1275 H 0.39116 0.44999 0.04814
 H1276 H 0.36049 0.49696 0.00467
 H1277 H 0.26914 0.43527 -0.00452
 H1278 H 0.30263 0.37745 0.01831
 H1279 H 0.36033 0.42376 0.03962
 H1280 H 0.33782 0.39930 0.02179
 C1281 C 0.55704 0.48384 0.34601
 C1282 C 0.53795 0.49689 0.34796
 C1283 C 0.52394 0.49424 0.36615
 C1284 C 0.52887 0.47873 0.38248
 C1285 C 0.54832 0.46635 0.38006
 N1286 N 0.56162 0.46918 0.36222
 C1287 C 0.57258 0.48527 0.32707
 N1288 N 0.59295 0.47577 0.32920
 C1289 C 0.60792 0.47522 0.31248
 C1290 C 0.60269 0.48445 0.29187
 C1291 C 0.58194 0.49464 0.28929
 C1292 C 0.56681 0.49503 0.30677
 H1293 H 0.50923 0.50428 0.36726
 H1294 H 0.55312 0.45440 0.39225
 H1295 H 0.62388 0.46750 0.31535
 H1296 H 0.57706 0.50162 0.27353
 H1297 H 0.53383 0.50916 0.33586
 H1298 H 0.55064 0.50228 0.30398
 C1299 C 0.05547 -0.01277 0.84839
 C1300 C 0.03703 0.00104 0.85111
 C1301 C 0.02311 -0.00171 0.86936
 C1302 C 0.02746 -0.01810 0.88495
 C1303 C 0.04624 -0.03129 0.88174
 N1304 N 0.05950 -0.02830 0.86390
 C1305 C 0.07092 -0.01114 0.82940
 N1306 N 0.09123 -0.02084 0.83121
 C1307 C 0.10607 -0.02122 0.81437
 C1308 C 0.10074 -0.01166 0.79393
 C1309 C 0.08004 -0.00129 0.79170
 C1310 C 0.06507 -0.00103 0.80932
 H1311 H 0.00890 0.00893 0.87111
 H1312 H 0.05059 -0.04391 0.89339
 H1313 H 0.12197 -0.02911 0.81699
 H1314 H 0.07504 0.00591 0.77609
 H1315 H 0.03342 0.01399 0.83957
 H1316 H 0.04891 0.00635 0.80681
 C1317 C 0.04631 0.01850 0.67090
 C1318 C 0.02547 0.00715 0.66745
 C1319 C 0.01112 0.01317 0.65015
 C1320 C 0.01735 0.03052 0.63617
 C1321 C 0.03787 0.04224 0.64088
 N1322 N 0.05171 0.03594 0.65783
 C1323 C 0.06273 0.01130 0.68792
 N1324 N 0.07701 0.02665 0.69851
 C1325 C 0.09276 0.02080 0.71392
 C1326 C 0.09510 -0.00167 0.71900
 C1327 C 0.08065 -0.01772 0.70820
 C1328 C 0.06446 -0.01132 0.69273
 H1329 H -0.00479 0.00405 0.64773
 H1330 H 0.04327 0.05587 0.63071
 H1331 H 0.10381 0.03361 0.72175
 H1332 H 0.08186 -0.03521 0.71176
 H1333 H 0.02028 -0.00631 0.67797
 H1334 H 0.05382 -0.02406 0.68424
 C1335 C 0.55480 0.51703 0.16478
 C1336 C 0.55535 0.53832 0.15566
 C1337 C 0.54009 0.54307 0.13850
 C1338 C 0.52430 0.52671 0.13028
 C1339 C 0.52444 0.50564 0.13979
 N1340 N 0.53947 0.50142 0.15642
 C1341 C 0.57073 0.51057 0.18268
 N1342 N 0.57360 0.48847 0.18578
 C1343 C 0.58787 0.48096 0.20169
 C1344 C 0.60033 0.49609 0.21584
 C1345 C 0.59743 0.51895 0.21322
 C1346 C 0.58266 0.52627 0.19674
 H1347 H 0.54072 0.55955 0.13173
 H1348 H 0.51286 0.49235 0.13395
 H1349 H 0.58929 0.46317 0.20337
 H1350 H 0.60684 0.53123 0.22363
 H1351 H 0.56760 0.55111 0.16128
 H1352 H 0.58055 0.54398 0.19534
 C1353 C 0.45222 -0.03087 0.15976
 C1354 C 0.44760 -0.04705 0.14277
 C1355 C 0.46345 -0.05085 0.12652
 C1356 C 0.48407 -0.03867 0.12705
 C1357 C 0.48836 -0.02312 0.14479
 N1358 N 0.47254 -0.01964 0.16047
 C1359 C 0.43510 -0.02521 0.17631
 N1360 N 0.44174 -0.01792 0.19729
 C1361 C 0.42672 -0.01145 0.21280
 C1362 C 0.40369 -0.01155 0.20725
 C1363 C 0.39647 -0.01897 0.18582
 C1364 C 0.41207 -0.02595 0.17036
 H1365 H 0.45919 -0.06308 0.11335
 H1366 H 0.50412 -0.01359 0.14612
 H1367 H 0.43285 -0.00526 0.22903
 H1368 H 0.37881 -0.01888 0.18094
 H1369 H 0.43187 -0.05668 0.14195
 H1370 H 0.40619 -0.03096 0.15367
 C1371 C 0.96432 0.47203 0.67141
 C1372 C 0.96547 0.45054 0.66165
 C1373 C 0.98135 0.44640 0.64538
 C1374 C 0.99609 0.46357 0.63866
 C1375 C 0.99480 0.48461 0.64936
 N1376 N 0.97909 0.48827 0.66499
 C1377 C 0.94649 0.47832 0.68704
 N1378 N 0.94220 0.50033 0.68979
 C1379 C 0.92539 0.50775 0.70265
 C1380 C 0.91138 0.49261 0.71365
 C1381 C 0.91596 0.46989 0.71184
 C1382 C 0.93348 0.46264 0.69856
 H1383 H 0.98162 0.42985 0.63778
 H1384 H 1.00579 0.49840 0.64499
 H1385 H 0.92293 0.52550 0.70412
 H1386 H 0.90568 0.45767 0.72014
 H1387 H 0.95380 0.43720 0.66574
 H1388 H 0.93660 0.44503 0.69741
 C1389 C 0.94324 0.52325 0.84199
 C1390 C 0.94204 0.54307 0.85490
 C1391 C 0.95855 0.54840 0.87124
 C1392 C 0.97633 0.53409 0.87485
 C1393 C 0.97688 0.51433 0.86172
 N1394 N 0.96068 0.50959 0.84567
 C1395 C 0.92684 0.51775 0.82353
 N1396 N 0.93356 0.50595 0.80524
 C1397 C 0.91993 0.50214 0.78683
 C1398 C 0.89836 0.51088 0.78606
 C1399 C 0.89071 0.52205 0.80515
 C1400 C 0.90480 0.52540 0.82392
 H1401 H 0.95734 0.56376 0.88101
 H1402 H 0.99040 0.50291 0.86382
 H1403 H 0.92641 0.49337 0.77246
 H1404 H 0.87393 0.52854 0.80541
 H1405 H 0.92889 0.55475 0.85205
 H1406 H 0.89853 0.53414 0.83842
 C1407 C 0.45062 0.01838 0.33612
 C1408 C 0.46751 0.00345 0.34132
 C1409 C 0.48274 0.00870 0.35895
 C1410 C 0.48117 0.02870 0.37154
 C1411 C 0.46373 0.04289 0.36608
 N1412 N 0.44920 0.03746 0.34879
 C1413 C 0.43424 0.01436 0.31730
 N1414 N 0.41524 0.02636 0.31709
 C1415 C 0.39990 0.02488 0.29993
 C1416 C 0.40339 0.01087 0.28122
 C1417 C 0.42258 -0.00208 0.28127
 C1418 C 0.43809 -0.00033 0.29918
 H1419 H 0.49561 -0.00301 0.36273
 H1420 H 0.46174 0.05847 0.37522
 H1421 H 0.38507 0.03477 0.30095
 H1422 H 0.42607 -0.01303 0.26722
 H1423 H 0.46893 -0.01223 0.33217
 H1424 H 0.45318 -0.00982 0.29830
   
