data_POSCAR
  _audit_creation_date              2014-09-24
  _audit_creation_method            'ToBaCCo'
  _symmetry_space_group_name_H-M    'P1'
  _symmetry_Int_Tables_number       1
  _symmetry_cell_setting            triclinic
  loop_
  _symmetry_equiv_pos_as_xyz
 x,y,z
_cell_length_a 54.9957
_cell_length_b 54.8528
_cell_length_c 54.9245
_cell_angle_alpha 89.987100
_cell_angle_beta 89.838500
_cell_angle_gamma 89.980100
loop_
  _atom_site_label
  _atom_site_type_symbol
  _atom_site_fract_x
  _atom_site_fract_y
  _atom_site_fract_z
C1 C 0.26347 1.00556 -0.02442
 C2 C 0.26673 1.00535 0.00002
 C3 C 0.26859 0.98254 0.01426
 C4 C 0.26706 1.02813 0.01453
 C5 C 0.26151 1.02880 -0.03785
 C6 C 0.26110 0.98293 -0.03901
 C7 C 0.24901 0.96623 0.01578
 C8 C 0.24960 0.94691 0.03240
 C9 C 0.26976 0.94382 0.04792
 C10 C 0.28974 0.95953 0.04539
 C11 C 0.28909 0.97879 0.02887
 C12 C 0.24882 1.03194 0.03190
 C13 C 0.24997 1.05167 0.04784
 C14 C 0.26983 1.06807 0.04709
 C15 C 0.28750 1.06469 0.02867
 C16 C 0.28621 1.04486 0.01268
 C17 C 0.28111 1.03681 -0.05207
 C18 C 0.27935 1.05844 -0.06532
 C19 C 0.25772 1.07199 -0.06507
 C20 C 0.23810 1.06402 -0.05064
 C21 C 0.24006 1.04260 -0.03700
 C22 C 0.27951 0.96518 -0.03947
 C23 C 0.27742 0.94473 -0.05462
 C24 C 0.25683 0.94177 -0.06955
 C25 C 0.23844 0.95948 -0.06878
 C26 C 0.24055 0.97982 -0.05372
 H27 H 0.23292 0.96902 0.00480
 H28 H 0.23408 0.93487 0.03323
 H29 H 0.30555 0.95750 0.05695
 H30 H 0.30431 0.99130 0.02798
 H31 H 0.23376 1.01928 0.03339
 H32 H 0.23513 1.05342 0.06058
 H33 H 0.30055 1.04211 -0.00059
 H34 H 0.29779 1.02630 -0.05282
 H35 H 0.29472 1.06435 -0.07620
 H36 H 0.22140 1.07443 -0.04971
 H37 H 0.22481 1.03659 -0.02600
 H38 H 0.29574 0.96748 -0.02859
 H39 H 0.29226 0.93181 -0.05509
 H40 H 0.22245 0.95776 -0.08014
 H41 H 0.22613 0.99328 -0.05369
 H42 H 0.30291 1.07692 0.02711
 C43 C 0.73049 0.50704 0.48186
 C44 C 0.73212 0.50545 0.50642
 C45 C 0.73406 0.48166 0.51892
 C46 C 0.73148 0.52709 0.52243
 C47 C 0.72980 0.53076 0.46885
 C48 C 0.72954 0.48483 0.46663
 C49 C 0.71383 0.47214 0.53122
 C50 C 0.71611 0.45111 0.54537
 C51 C 0.73880 0.43972 0.54798
 C52 C 0.75894 0.44892 0.53507
 C53 C 0.75653 0.46972 0.52053
 C54 C 0.71050 0.54154 0.52410
 C55 C 0.70895 0.56000 0.54162
 C56 C 0.72848 0.56448 0.55741
 C57 C 0.74966 0.55026 0.55531
 C58 C 0.75107 0.53167 0.53804
 C59 C 0.74848 0.54797 0.47161
 C60 C 0.74855 0.56935 0.45768
 C61 C 0.73013 0.57377 0.44054
 C62 C 0.71104 0.55682 0.43840
 C63 C 0.71103 0.53546 0.45225
 C64 C 0.74912 0.47908 0.45130
 C65 C 0.74786 0.45889 0.43586
 C66 C 0.72681 0.44433 0.43532
 C67 C 0.70721 0.45023 0.45065
 C68 C 0.70863 0.47023 0.46636
 H69 H 0.69640 0.48129 0.53021
 H70 H 0.70034 0.44424 0.55503
 H71 H 0.77653 0.44016 0.53631
 H72 H 0.77231 0.47696 0.51117
 H73 H 0.69504 0.53793 0.51247
 H74 H 0.69237 0.57057 0.54308
 H75 H 0.76727 0.52047 0.53720
 H76 H 0.76333 0.54456 0.48406
 H77 H 0.76337 0.58216 0.45983
 H78 H 0.69601 0.55993 0.42614
 H79 H 0.69637 0.52250 0.44996
 H80 H 0.76526 0.49040 0.45114
 H81 H 0.76301 0.45523 0.42379
 H82 H 0.69072 0.43943 0.45036
 H83 H 0.69324 0.47468 0.47788
 H84 H 0.76479 0.55273 0.56762
 C85 C 0.75633 1.02061 0.99244
 C86 C 0.75488 0.99612 0.98977
 C87 C 0.75841 0.98420 0.96591
 C88 C 0.74978 0.97956 1.01049
 C89 C 0.75402 1.03254 1.01646
 C90 C 0.76030 1.03698 0.97142
 C91 C 0.74115 0.98662 0.94733
 C92 C 0.74302 0.97237 0.92628
 C93 C 0.76199 0.95540 0.92369
 C94 C 0.78000 0.95413 0.94178
 C95 C 0.77805 0.96823 0.96281
 C96 C 0.72948 0.96418 1.00942
 C97 C 0.72530 0.94699 1.02766
 C98 C 0.74138 0.94471 1.04732
 C99 C 0.76172 0.96031 1.04849
 C100 C 0.76584 0.97762 1.03019
 C101 C 0.77360 1.04609 1.02546
 C102 C 0.77151 1.05862 1.04744
 C103 C 0.74953 1.05822 1.06061
 C104 C 0.73016 1.04400 1.05193
 C105 C 0.73233 1.03133 1.02992
 C106 C 0.78330 1.03928 0.96068
 C107 C 0.78725 1.05661 0.94238
 C108 C 0.76817 1.07166 0.93419
 C109 C 0.74497 1.06885 0.94494
 C110 C 0.74122 1.05182 0.96346
 H111 H 0.72576 0.99875 0.94958
 H112 H 0.72907 0.97387 0.91247
 H113 H 0.79545 0.94204 0.93998
 H114 H 0.79158 0.96630 0.97697
 H115 H 0.71699 0.96529 0.99424
 H116 H 0.70960 0.93516 1.02620
 H117 H 0.78191 0.98899 1.03102
 H118 H 0.79056 1.04696 1.01542
 H119 H 0.78718 1.06851 1.05401
 H120 H 0.71314 1.04322 1.06186
 H121 H 0.71700 1.02100 1.02314
 H122 H 0.79829 1.02812 0.96690
 H123 H 0.80533 1.05830 0.93469
 H124 H 0.72976 1.08029 0.94007
 H125 H 0.72344 1.05044 0.97191
 H126 H 0.77493 0.95881 1.06293
 C127 C 0.24541 0.49052 0.48822
 C128 C 0.24566 0.51530 0.48929
 C129 C 0.24851 0.53065 0.46717
 C130 C 0.24328 0.52855 0.51282
 C131 C 0.24250 0.47526 0.51033
 C132 C 0.24785 0.47681 0.46503
 C133 C 0.26881 0.52834 0.45178
 C134 C 0.27170 0.54399 0.43182
 C135 C 0.25459 0.56242 0.42713
 C136 C 0.23404 0.56433 0.44235
 C137 C 0.23118 0.54873 0.46224
 C138 C 0.26151 0.54496 0.51983
 C139 C 0.25950 0.55800 0.54159
 C140 C 0.23896 0.55516 0.55668
 C141 C 0.22082 0.53853 0.54973
 C142 C 0.22284 0.52549 0.52791
 C143 C 0.22284 0.45908 0.51181
 C144 C 0.22075 0.44302 0.53138
 C145 C 0.23837 0.44260 0.54982
 C146 C 0.25802 0.45907 0.54846
 C147 C 0.26001 0.47529 0.52886
 C148 C 0.23050 0.47890 0.44644
 C149 C 0.23134 0.46322 0.42630
 C150 C 0.24932 0.44506 0.42460
 C151 C 0.26733 0.44389 0.44270
 C152 C 0.26645 0.45945 0.46276
 H153 H 0.28260 0.51475 0.45545
 H154 H 0.28760 0.54201 0.42030
 H155 H 0.21999 0.57767 0.43889
 H156 H 0.21534 0.55074 0.47384
 H157 H 0.27746 0.54750 0.50850
 H158 H 0.27426 0.56998 0.54663
 H159 H 0.20839 0.51317 0.52268
 H160 H 0.20924 0.45869 0.49758
 H161 H 0.20551 0.43052 0.53184
 H162 H 0.27227 0.45913 0.56194
 H163 H 0.27555 0.48736 0.52774
 H164 H 0.21583 0.49199 0.44799
 H165 H 0.21741 0.46468 0.41247
 H166 H 0.28205 0.43085 0.44157
 H167 H 0.28007 0.45765 0.47686
 H168 H 0.20488 0.53590 0.56105
 C169 C 1.00613 0.24601 0.00137
 C170 C 1.00602 0.24361 0.02593
 C171 C 1.02874 0.24036 0.04003
 C172 C 0.98317 0.24294 0.04028
 C173 C 0.98345 0.24697 -0.01307
 C174 C 1.02906 0.24790 -0.01264
 C175 C 1.03173 0.21880 0.05328
 C176 C 1.05128 0.21539 0.06886
 C177 C 1.07044 0.23460 0.07260
 C178 C 1.06616 0.25713 0.05666
 C179 C 1.04586 0.25914 0.04165
 C180 C 0.96682 0.22342 0.03821
 C181 C 0.94694 0.22163 0.05411
 C182 C 0.94297 0.23945 0.07206
 C183 C 0.95922 0.25917 0.07378
 C184 C 0.97916 0.26080 0.05809
 C185 C 0.96703 0.26637 -0.01071
 C186 C 0.94692 0.26804 -0.02621
 C187 C 0.94299 0.25052 -0.04457
 C188 C 0.95910 0.23051 -0.04598
 C189 C 0.97912 0.22894 -0.03054
 C190 C 1.03760 0.27091 -0.01959
 C191 C 1.05787 0.27305 -0.03479
 C192 C 1.06947 0.25219 -0.04419
 C193 C 1.06113 0.22903 -0.03658
 C194 C 1.04119 0.22698 -0.02082
 H195 H 1.01830 0.20443 0.05186
 H196 H 1.05247 0.19853 0.07905
 H197 H 1.07871 0.27228 0.05765
 H198 H 1.04309 0.27595 0.03170
 H199 H 0.96993 0.20920 0.02489
 H200 H 0.93483 0.20614 0.05261
 H201 H 0.99186 0.27574 0.06020
 H202 H 0.97015 0.28054 0.00265
 H203 H 0.93483 0.28354 -0.02430
 H204 H 0.95668 0.21581 -0.05879
 H205 H 0.99140 0.21361 -0.03238
 H206 H 1.02831 0.28723 -0.01349
 H207 H 1.06386 0.29114 -0.04000
 H208 H 1.06991 0.21241 -0.04245
 H209 H 1.03482 0.20907 -0.01548
 H210 H 0.95718 0.27284 0.08782
 C211 C 0.49420 0.75355 0.52061
 C212 C 0.49415 0.75454 0.49594
 C213 C 0.51711 0.75463 0.48181
 C214 C 0.47130 0.75573 0.48170
 C215 C 0.47152 0.75039 0.53479
 C216 C 0.51709 0.75501 0.53474
 C217 C 0.52227 0.77419 0.46626
 C218 C 0.54337 0.77410 0.45212
 C219 C 0.55940 0.75409 0.45286
 C220 C 0.55445 0.73480 0.46893
 C221 C 0.53341 0.73501 0.48325
 C222 C 0.45430 0.77442 0.48568
 C223 C 0.43393 0.77658 0.47065
 C224 C 0.43042 0.76034 0.45122
 C225 C 0.44705 0.74111 0.44786
 C226 C 0.46739 0.73900 0.46283
 C227 C 0.45711 0.72951 0.53179
 C228 C 0.43683 0.72574 0.54670
 C229 C 0.43050 0.74293 0.56454
 C230 C 0.44486 0.76396 0.56731
 C231 C 0.46528 0.76755 0.55263
 C232 C 0.52308 0.73627 0.55098
 C233 C 0.54427 0.73763 0.56482
 C234 C 0.55965 0.75806 0.56298
 C235 C 0.55377 0.77664 0.54643
 C236 C 0.53257 0.77523 0.53253
 H237 H 0.50997 0.78958 0.46516
 H238 H 0.54699 0.78980 0.44077
 H239 H 0.56658 0.71928 0.46999
 H240 H 0.52959 0.71970 0.49511
 H241 H 0.45716 0.78771 0.49997
 H242 H 0.42128 0.79141 0.47373
 H243 H 0.48023 0.72436 0.45960
 H244 H 0.46196 0.71588 0.51836
 H245 H 0.42619 0.70928 0.54448
 H246 H 0.44091 0.77720 0.58138
 H247 H 0.47643 0.78359 0.55536
 H248 H 0.51143 0.72045 0.55276
 H249 H 0.54860 0.72251 0.57668
 H250 H 0.56539 0.79248 0.54456
 H251 H 0.52810 0.79000 0.52025
 H252 H 0.44447 0.72766 0.43371
 C253 C -0.01579 0.74211 0.01089
 C254 C 0.00868 0.73913 0.01226
 C255 C 0.02415 0.73684 -0.00983
 C256 C 0.02153 0.73916 0.03596
 C257 C -0.03131 0.74409 0.03295
 C258 C -0.02843 0.74437 -0.01278
 C259 C 0.02021 0.71830 -0.02695
 C260 C 0.03561 0.71586 -0.04711
 C261 C 0.05561 0.73158 -0.05039
 C262 C 0.05925 0.75035 -0.03317
 C263 C 0.04376 0.75280 -0.01315
 C264 C 0.03446 0.71841 0.04334
 C265 C 0.04797 0.71873 0.06485
 C266 C 0.04935 0.74002 0.07894
 C267 C 0.03606 0.76070 0.07173
 C268 C 0.02220 0.76024 0.05041
 C269 C -0.04624 0.76455 0.03606
 C270 C -0.06200 0.76621 0.05595
 C271 C -0.06345 0.74714 0.07320
 C272 C -0.04797 0.72688 0.07018
 C273 C -0.03218 0.72530 0.05023
 C274 C -0.02709 0.76618 -0.02588
 C275 C -0.04100 0.76995 -0.04672
 C276 C -0.05797 0.75062 -0.05667
 C277 C -0.05707 0.72717 -0.04175
 C278 C -0.04312 0.72522 -0.02075
 H279 H 0.00548 0.70544 -0.02449
 H280 H 0.03213 0.70126 -0.05993
 H281 H 0.07369 0.76355 -0.03493
 H282 H 0.04704 0.76730 -0.00019
 H283 H 0.03418 0.70203 0.03233
 H284 H 0.05798 0.70256 0.07010
 H285 H 0.01242 0.77645 0.04487
 H286 H -0.04571 0.77934 0.02300
 H287 H -0.07276 0.78259 0.05737
 H288 H -0.04840 0.71189 0.08304
 H289 H -0.02100 0.70919 0.04801
 H290 H -0.01566 0.78086 -0.01933
 H291 H -0.03990 0.78741 -0.05587
 H292 H -0.06836 0.71189 -0.04692
 H293 H -0.04399 0.70849 -0.01029
 H294 H 0.03638 0.77722 0.08250
 C295 C 0.51981 0.23857 0.51970
 C296 C 0.49524 0.23726 0.51833
 C297 C 0.47982 0.23815 0.54045
 C298 C 0.48223 0.23490 0.49487
 C299 C 0.53578 0.23629 0.49803
 C300 C 0.53239 0.24287 0.54308
 C301 C 0.46859 0.21676 0.54871
 C302 C 0.45272 0.21743 0.56858
 C303 C 0.44732 0.23960 0.58013
 C304 C 0.45893 0.26103 0.57207
 C305 C 0.47516 0.26026 0.55239
 C306 C 0.48550 0.21453 0.47974
 C307 C 0.47181 0.21210 0.45841
 C308 C 0.45446 0.22981 0.45207
 C309 C 0.45183 0.25053 0.46695
 C310 C 0.46543 0.25290 0.48821
 C311 C 0.53517 0.25347 0.47911
 C312 C 0.55215 0.25230 0.46007
 C313 C 0.57000 0.23381 0.45966
 C314 C 0.57017 0.21650 0.47850
 C315 C 0.55335 0.21779 0.49750
 C316 C 0.54533 0.26461 0.54631
 C317 C 0.55969 0.26803 0.56692
 C318 C 0.56178 0.24947 0.58449
 C319 C 0.54790 0.22813 0.58173
 C320 C 0.53337 0.22479 0.56110
 H321 H 0.47202 0.19957 0.53961
 H322 H 0.44415 0.20069 0.57457
 H323 H 0.45558 0.27830 0.58099
 H324 H 0.48373 0.27692 0.54617
 H325 H 0.49828 0.20036 0.48468
 H326 H 0.47435 0.19610 0.44714
 H327 H 0.46284 0.26886 0.49953
 H328 H 0.52204 0.26818 0.47949
 H329 H 0.55147 0.26629 0.44626
 H330 H 0.58369 0.20213 0.47877
 H331 H 0.55423 0.20448 0.51205
 H332 H 0.54461 0.27880 0.53260
 H333 H 0.56923 0.28515 0.56885
 H334 H 0.54897 0.21367 0.59511
 H335 H 0.52360 0.20782 0.55877
 H336 H 0.43942 0.26506 0.46222
 C337 C 0.99031 0.00982 0.24489
 C338 C 0.99286 -0.01477 0.24413
 C339 C 0.97181 -0.03149 0.24632
 C340 C 1.01667 -0.02698 0.24114
 C341 C 1.01141 0.02671 0.24565
 C342 C 0.96595 0.02145 0.24503
 C343 C 0.97115 -0.04805 0.26571
 C344 C 0.95298 -0.06571 0.26704
 C345 C 0.93503 -0.06736 0.24894
 C346 C 0.93556 -0.05036 0.22957
 C347 C 0.95386 -0.03265 0.22831
 C348 C 1.03366 -0.02772 0.26009
 C349 C 1.05390 -0.04321 0.25853
 C350 C 1.05739 -0.05824 0.23788
 C351 C 1.04079 -0.05631 0.21854
 C352 C 1.02064 -0.04101 0.22022
 C353 C 1.02934 0.02689 0.22737
 C354 C 1.04801 0.04429 0.22781
 C355 C 1.04888 0.06189 0.24647
 C356 C 1.03091 0.06159 0.26462
 C357 C 1.01245 0.04419 0.26425
 C358 C 0.95901 0.03569 0.22506
 C359 C 0.93686 0.04811 0.22519
 C360 C 0.92141 0.04702 0.24565
 C361 C 0.92811 0.03212 0.26537
 C362 C 0.95026 0.01948 0.26512
 H363 H 0.98500 -0.04754 0.27968
 H364 H 0.95324 -0.07837 0.28220
 H365 H 0.92251 -0.05081 0.21495
 H366 H 0.95441 -0.02029 0.21293
 H367 H 1.03063 -0.01722 0.27652
 H368 H 1.06599 -0.04380 0.27396
 H369 H 1.00757 -0.04077 0.20550
 H370 H 1.02851 0.01405 0.21243
 H371 H 1.06117 0.04437 0.21314
 H372 H 1.03106 0.07500 0.27910
 H373 H 0.99872 0.04452 0.27844
 H374 H 0.97084 0.03720 0.20932
 H375 H 0.93203 0.05846 0.20917
 H376 H 0.91647 0.03075 0.28125
 H377 H 0.95540 0.00861 0.28074
 H378 H 1.04286 -0.06738 0.20232
 C379 C 0.50579 0.50634 0.74106
 C380 C 0.50487 0.48161 0.73980
 C381 C 0.52696 0.46614 0.73861
 C382 C 0.48136 0.46847 0.74073
 C383 C 0.48317 0.52102 0.74258
 C384 C 0.52907 0.51998 0.74106
 C385 C 0.52948 0.44937 0.71954
 C386 C 0.54899 0.43313 0.71908
 C387 C 0.56632 0.43307 0.73782
 C388 C 0.56391 0.45014 0.75688
 C389 C 0.54436 0.46652 0.75723
 C390 C 0.46431 0.47062 0.72190
 C391 C 0.44211 0.45827 0.72337
 C392 C 0.43664 0.44351 0.74359
 C393 C 0.45372 0.44179 0.76258
 C394 C 0.47595 0.45393 0.76098
 C395 C 0.46751 0.51906 0.76270
 C396 C 0.44561 0.53201 0.76323
 C397 C 0.43908 0.54732 0.74380
 C398 C 0.45495 0.54929 0.72371
 C399 C 0.47687 0.53642 0.72326
 C400 C 0.53419 0.53579 0.76040
 C401 C 0.55567 0.54932 0.76064
 C402 C 0.57232 0.54772 0.74117
 C403 C 0.56731 0.53155 0.72198
 C404 C 0.54582 0.51786 0.72185
 H405 H 0.51612 0.44869 0.70509
 H406 H 0.55029 0.42022 0.70420
 H407 H 0.57657 0.45076 0.77184
 H408 H 0.54245 0.47903 0.77237
 H409 H 0.46825 0.48181 0.70613
 H410 H 0.42924 0.46009 0.70858
 H411 H 0.48882 0.45238 0.77580
 H412 H 0.47216 0.50731 0.77784
 H413 H 0.43373 0.53005 0.77887
 H414 H 0.45038 0.56023 0.70801
 H415 H 0.48867 0.53795 0.70751
 H416 H 0.52159 0.53748 0.77551
 H417 H 0.55916 0.56071 0.77629
 H418 H 0.57988 0.52979 0.70686
 H419 H 0.54211 0.50587 0.70664
 H420 H 0.45001 0.43148 0.77893
 C421 C 1.02121 0.99227 0.73348
 C422 C 0.99655 0.99258 0.73350
 C423 C 0.98211 0.96992 0.73598
 C424 C 0.98252 1.01541 0.73099
 C425 C 1.03586 1.01485 0.73121
 C426 C 1.03479 0.96911 0.73626
 C427 C 0.96698 0.96258 0.71686
 C428 C 0.95311 0.94138 0.71889
 C429 C 0.95379 0.92733 0.74034
 C430 C 0.96927 0.93454 0.75931
 C431 C 0.98322 0.95576 0.75723
 C432 C 0.97987 1.02635 0.70817
 C433 C 0.96441 1.04620 0.70478
 C434 C 0.94991 1.05726 0.72556
 C435 C 0.95498 1.04459 0.74973
 C436 C 0.97033 1.02455 0.75136
 C437 C 1.03437 1.03339 0.74876
 C438 C 1.04970 1.05371 0.74736
 C439 C 1.06679 1.05582 0.72831
 C440 C 1.06803 1.03724 0.71075
 C441 C 1.05279 1.01695 0.71222
 C442 C 1.04889 0.96533 0.75708
 C443 C 1.06068 0.94310 0.76079
 C444 C 1.05884 0.92414 0.74346
 C445 C 1.04515 0.92845 0.72224
 C446 C 1.03317 0.95065 0.71872
 H447 H 0.96614 0.97316 0.70023
 H448 H 0.94214 0.93600 0.70350
 H449 H 0.97026 0.92396 0.77593
 H450 H 0.99474 0.96125 0.77222
 H451 H 0.98936 1.01884 0.69257
 H452 H 0.96244 1.05371 0.68665
 H453 H 0.97251 1.01571 0.76886
 H454 H 1.02188 1.03175 0.76394
 H455 H 1.04855 1.06719 0.76167
 H456 H 1.08112 1.03825 0.69601
 H457 H 1.05437 1.00271 0.69865
 H458 H 1.05037 0.97950 0.77073
 H459 H 1.07127 0.94138 0.77719
 H460 H 1.04342 0.91449 0.70840
 H461 H 1.02248 0.95338 0.70241
 H462 H 0.94577 1.05065 0.76606
 C463 C 0.47918 0.49839 0.23698
 C464 C 0.50372 0.49651 0.23558
 C465 C 0.51600 0.47258 0.23751
 C466 C 0.51980 0.51804 0.23305
 C467 C 0.46634 0.52205 0.23588
 C468 C 0.46342 0.47669 0.23983
 C469 C 0.53073 0.46780 0.25769
 C470 C 0.54311 0.44569 0.25962
 C471 C 0.54147 0.42813 0.24097
 C472 C 0.52617 0.43278 0.22104
 C473 C 0.51353 0.45486 0.21929
 C474 C 0.52038 0.53628 0.25094
 C475 C 0.53766 0.55499 0.24970
 C476 C 0.55465 0.55578 0.23042
 C477 C 0.55363 0.53766 0.21239
 C478 C 0.53649 0.51896 0.21375
 C479 C 0.46571 0.53572 0.21431
 C480 C 0.45015 0.55584 0.21240
 C481 C 0.43531 0.56270 0.23211
 C482 C 0.43659 0.54932 0.25391
 C483 C 0.45191 0.52916 0.25570
 C484 C 0.44617 0.47146 0.22187
 C485 C 0.42970 0.45241 0.22511
 C486 C 0.43002 0.43830 0.24643
 C487 C 0.44751 0.44348 0.26442
 C488 C 0.46409 0.46254 0.26108
 H489 H 0.53252 0.48120 0.27207
 H490 H 0.55375 0.44254 0.27582
 H491 H 0.52437 0.41951 0.20656
 H492 H 0.50217 0.45832 0.20359
 H493 H 0.50803 0.53554 0.26632
 H494 H 0.53796 0.56817 0.26429
 H495 H 0.53649 0.50489 0.19990
 H496 H 0.47641 0.53016 0.19868
 H497 H 0.44929 0.56574 0.19535
 H498 H 0.42495 0.55359 0.26923
 H499 H 0.45190 0.51853 0.27233
 H500 H 0.44527 0.48236 0.20545
 H501 H 0.41640 0.44892 0.21102
 H502 H 0.44807 0.43350 0.28136
 H503 H 0.47698 0.46672 0.27536
 H504 H 0.56648 0.53769 0.19740
 O505 O 0.26939 0.16826 0.22496
 O506 O 0.29077 0.16017 0.26236
 O507 O 0.20142 0.19824 0.25050
 O508 O 0.19022 0.22872 0.27469
 O509 O 0.24105 0.23425 0.19264
 O510 O 0.27653 0.25918 0.19144
 O511 O 0.25711 0.26268 0.32332
 O512 O 0.22733 0.23115 0.32482
 O513 O 0.32205 0.22939 0.30240
 O514 O 0.33394 0.20197 0.26824
 O515 O 0.29906 0.29257 0.26745
 O516 O 0.26865 0.30143 0.23505
 O517 O 0.26198 0.29263 0.29512
 O518 O 0.23969 0.30157 0.25731
 O519 O 0.32754 0.26270 0.27052
 O520 O 0.33846 0.22868 0.24368
 O521 O 0.28885 0.22933 0.32717
 O522 O 0.25431 0.20197 0.32922
 O523 O 0.27323 0.19818 0.19648
 O524 O 0.30222 0.23109 0.19478
 O525 O 0.20777 0.23297 0.21731
 O526 O 0.19767 0.26053 0.25079
 O527 O 0.23099 0.16747 0.25348
 O528 O 0.25970 0.15992 0.28505
 Zr529 Zr 0.26352 0.18699 0.25790
 O530 O 0.28294 0.20680 0.28423
 Zr531 Zr 0.22191 0.23058 0.25282
 O532 O 0.23949 0.25230 0.27912
 Zr533 Zr 0.27055 0.23070 0.21669
 O534 O 0.29024 0.25253 0.24124
 Zr535 Zr 0.25917 0.23011 0.30315
 O536 O 0.23906 0.20805 0.27871
 Zr537 Zr 0.30771 0.23021 0.26691
 O538 O 0.29033 0.20817 0.24052
 Zr539 Zr 0.26611 0.27388 0.26195
 O540 O 0.24654 0.25417 0.23524
 O541 O 0.24477 0.20811 0.23280
 O542 O 0.28502 0.25293 0.28725
 C543 C 0.27252 0.17567 0.20298
 C544 C 0.20745 0.17414 0.25090
 C545 C 0.21799 0.23474 0.19630
 C546 C 0.25871 0.28519 0.31706
 C547 C 0.31191 0.22918 0.32351
 C548 C 0.32103 0.28514 0.27029
 H549 H 0.29129 0.19530 0.29525
 H550 H 0.30192 0.26267 0.23202
 H551 H 0.23570 0.19820 0.22082
 H552 H 0.22739 0.26226 0.28799
 H553 H 0.21570 0.21948 0.31752
 H554 H 0.19312 0.23869 0.28939
 H555 H 0.33648 0.24139 0.23107
 H556 H 0.31347 0.21889 0.20180
 H557 H 0.26678 0.18932 0.32628
 H558 H 0.24669 0.16561 0.29618
 H559 H 0.28376 0.29863 0.22565
 H560 H 0.26538 0.27257 0.19610
 H561 H 0.30512 0.16584 0.25303
 H562 H 0.32880 0.19018 0.28087
 H563 H 0.20485 0.27240 0.23925
 H564 H 0.22591 0.29793 0.26834
 O565 O 0.73152 0.82692 0.21783
 O566 O 0.70525 0.83088 0.25254
 O567 O 0.79435 0.79254 0.24761
 O568 O 0.80193 0.75867 0.26978
 O569 O 0.76383 0.76535 0.18137
 O570 O 0.72915 0.74120 0.17182
 O571 O 0.72804 0.72051 0.30381
 O572 O 0.75756 0.75021 0.31353
 O573 O 0.66756 0.75807 0.27797
 O574 O 0.66110 0.78972 0.24618
 O575 O 0.69467 0.69882 0.23964
 O576 O 0.72918 0.69323 0.21054
 O577 O 0.72774 0.69452 0.27157
 O578 O 0.75503 0.68982 0.23598
 O579 O 0.66650 0.72906 0.24208
 O580 O 0.66004 0.76635 0.21819
 O581 O 0.69653 0.75426 0.30720
 O582 O 0.73106 0.78009 0.31734
 O583 O 0.73132 0.80105 0.18542
 O584 O 0.70298 0.76896 0.17518
 O585 O 0.79319 0.76163 0.21026
 O586 O 0.79826 0.73035 0.24115
 O587 O 0.76563 0.82225 0.25125
 O588 O 0.73232 0.82715 0.27903
 Zr589 Zr 0.73235 0.80384 0.24837
 O590 O 0.70901 0.78143 0.26879
 Zr591 Zr 0.77393 0.76021 0.24347
 O592 O 0.75237 0.73582 0.26401
 Zr593 Zr 0.73108 0.76599 0.20120
 O594 O 0.70779 0.74169 0.21964
 Zr595 Zr 0.72951 0.75528 0.28774
 O596 O 0.75330 0.77963 0.26948
 Zr597 Zr 0.68698 0.76114 0.24516
 O598 O 0.70825 0.78589 0.22470
 Zr599 Zr 0.72835 0.71725 0.24070
 O600 O 0.75186 0.73969 0.21979
 O601 O 0.75434 0.78559 0.22352
 O602 O 0.70610 0.73542 0.26551
 C603 C 0.73131 0.82252 0.19487
 C604 C 0.78776 0.81491 0.25035
 C605 C 0.78611 0.76339 0.18803
 C606 C 0.72753 0.69902 0.29451
 C607 C 0.67432 0.75571 0.30017
 C608 C 0.67261 0.70657 0.24044
 H609 H 0.69922 0.79172 0.27984
 H610 H 0.69748 0.73310 0.20770
 H611 H 0.76502 0.79668 0.21413
 H612 H 0.76296 0.72449 0.27313
 H613 H 0.77045 0.76219 0.30957
 H614 H 0.79685 0.74689 0.28244
 H615 H 0.66349 0.75495 0.20467
 H616 H 0.69085 0.78042 0.18202
 H617 H 0.71880 0.79299 0.31465
 H618 H 0.74359 0.81984 0.29102
 H619 H 0.71572 0.69778 0.19952
 H620 H 0.73912 0.72693 0.17649
 H621 H 0.69220 0.82684 0.24084
 H622 H 0.66437 0.79972 0.26079
 H623 H 0.79255 0.71989 0.22765
 H624 H 0.76703 0.69155 0.24925
 O625 O 0.77337 0.19765 0.77456
 O626 O 0.74851 0.19297 0.74008
 O627 O 0.83815 0.22967 0.74310
 O628 O 0.84715 0.26258 0.72101
 O629 O 0.80873 0.25833 0.80936
 O630 O 0.77540 0.28426 0.81867
 O631 O 0.77339 0.30129 0.68584
 O632 O 0.80177 0.27071 0.67637
 O633 O 0.71204 0.26712 0.71349
 O634 O 0.70417 0.23756 0.74600
 O635 O 0.74241 0.32658 0.75071
 O636 O 0.77669 0.33241 0.77742
 O637 O 0.77457 0.32848 0.71704
 O638 O 0.80350 0.33234 0.75252
 O639 O 0.71277 0.29780 0.74850
 O640 O 0.70544 0.26070 0.77411
 O641 O 0.74099 0.26892 0.68391
 O642 O 0.77487 0.24109 0.67443
 O643 O 0.77433 0.22423 0.80638
 O644 O 0.74764 0.25812 0.81584
 O645 O 0.83792 0.26068 0.78002
 O646 O 0.84347 0.29182 0.74806
 O647 O 0.80893 0.20037 0.74070
 O648 O 0.77488 0.19609 0.71311
 Zr649 Zr 0.77588 0.21979 0.74345
 O650 O 0.75285 0.24246 0.72296
 Zr651 Zr 0.81865 0.26232 0.74696
 O652 O 0.79791 0.28657 0.72564
 Zr653 Zr 0.77595 0.25888 0.78972
 O654 O 0.75365 0.28369 0.77081
 Zr655 Zr 0.77410 0.26716 0.70295
 O656 O 0.79742 0.24282 0.72161
 Zr657 Zr 0.73175 0.26448 0.74613
 O658 O 0.75238 0.23931 0.76677
 Zr659 Zr 0.77498 0.30670 0.74875
 O660 O 0.79752 0.28408 0.77039
 O661 O 0.79845 0.23790 0.76771
 O662 O 0.75174 0.28874 0.72482
 C663 C 0.77287 0.20262 0.79739
 C664 C 0.83125 0.20744 0.74091
 C665 C 0.83102 0.25934 0.80235
 C666 C 0.77367 0.32310 0.69429
 C667 C 0.71877 0.26858 0.69113
 C668 C 0.72005 0.32000 0.75022
 H669 H 0.74257 0.23223 0.71236
 H670 H 0.74384 0.29304 0.78268
 H671 H 0.80866 0.22653 0.77725
 H672 H 0.80880 0.29716 0.71596
 H673 H 0.81466 0.25889 0.68072
 H674 H 0.84190 0.27304 0.70733
 H675 H 0.70837 0.27363 0.78630
 H676 H 0.73507 0.24691 0.80947
 H677 H 0.76154 0.22930 0.67715
 H678 H 0.78688 0.20239 0.70120
 H679 H 0.76545 0.32686 0.79038
 H680 H 0.78622 0.29783 0.81376
 H681 H 0.73476 0.19847 0.75037
 H682 H 0.70762 0.22621 0.73242
 H683 H 0.83896 0.30200 0.76226
 H684 H 0.81409 0.33107 0.73800
 O685 O 0.24935 0.79582 0.79775
 O686 O 0.26971 0.80791 0.76137
 O687 O 0.18059 0.77034 0.76822
 O688 O 0.16772 0.74081 0.74395
 O689 O 0.21942 0.72890 0.82374
 O690 O 0.25357 0.70173 0.82181
 O691 O 0.23511 0.71333 0.68992
 O692 O 0.20518 0.74437 0.69253
 O693 O 0.29975 0.74206 0.71374
 O694 O 0.31225 0.76601 0.75082
 O695 O 0.27576 0.67493 0.74348
 O696 O 0.24615 0.66405 0.77313
 O697 O 0.24113 0.68028 0.71416
 O698 O 0.21326 0.67072 0.75021
 O699 O 0.30511 0.70597 0.74167
 O700 O 0.31684 0.73628 0.77180
 O701 O 0.26655 0.74660 0.68957
 O702 O 0.23208 0.77430 0.69156
 O703 O 0.25366 0.76309 0.82281
 O704 O 0.28072 0.72850 0.82071
 O705 O 0.18605 0.73281 0.79966
 O706 O 0.17584 0.70759 0.76351
 O707 O 0.20992 0.79958 0.76989
 O708 O 0.23902 0.81080 0.73938
 Zr709 Zr 0.24249 0.78077 0.76327
 O710 O 0.26149 0.76370 0.73476
 Zr711 Zr 0.20019 0.73751 0.76426
 O712 O 0.21733 0.71859 0.73541
 Zr713 Zr 0.24893 0.73285 0.79958
 O714 O 0.26797 0.71345 0.77245
 Zr715 Zr 0.23717 0.74307 0.71378
 O716 O 0.21755 0.76244 0.74068
 Zr717 Zr 0.28576 0.73805 0.74921
 O718 O 0.26899 0.75741 0.77800
 Zr719 Zr 0.24351 0.69471 0.74978
 O720 O 0.22456 0.71175 0.77894
 O721 O 0.22353 0.75748 0.78628
 O722 O 0.26264 0.71815 0.72686
 C723 C 0.25344 0.78616 0.81867
 C724 C 0.18767 0.79261 0.77033
 C725 C 0.19632 0.72951 0.82041
 C726 C 0.23760 0.69033 0.69330
 C727 C 0.28957 0.74535 0.69297
 C728 C 0.29934 0.68216 0.74036
 H729 H 0.27000 0.77621 0.72500
 H730 H 0.27958 0.70221 0.78032
 H731 H 0.21492 0.76653 0.79931
 H732 H 0.20515 0.70963 0.72567
 H733 H 0.19364 0.75523 0.70116
 H734 H 0.17096 0.73407 0.72757
 H735 H 0.31479 0.72223 0.78290
 H736 H 0.29249 0.74082 0.81480
 H737 H 0.24517 0.78608 0.69519
 H738 H 0.22577 0.80671 0.72792
 H739 H 0.25891 0.66751 0.78528
 H740 H 0.24103 0.68982 0.81678
 H741 H 0.28447 0.80078 0.76880
 H742 H 0.30796 0.77856 0.73863
 H743 H 0.18199 0.69534 0.77521
 H744 H 0.21747 0.65591 0.74073
 O745 O 0.24544 0.32793 0.72324
 O746 O 0.22058 0.33405 0.75803
 O747 O 0.30558 0.28747 0.75367
 O748 O 0.31150 0.25240 0.77277
 O749 O 0.27243 0.26481 0.68600
 O750 O 0.23601 0.24282 0.67688
 O751 O 0.23527 0.22193 0.80883
 O752 O 0.26663 0.24958 0.81835
 O753 O 0.17682 0.26257 0.78410
 O754 O 0.17221 0.29571 0.75321
 O755 O 0.19922 0.20287 0.74441
 O756 O 0.23212 0.19403 0.71616
 O757 O 0.23144 0.19604 0.77674
 O758 O 0.25908 0.18979 0.74052
 O759 O 0.17319 0.23490 0.74755
 O760 O 0.16963 0.27347 0.72424
 O761 O 0.20603 0.25695 0.81279
 O762 O 0.24234 0.28115 0.82234
 O763 O 0.24218 0.30231 0.69083
 O764 O 0.21181 0.27222 0.68073
 O765 O 0.30161 0.25839 0.71457
 O766 O 0.30382 0.22538 0.74510
 O767 O 0.28005 0.32006 0.75630
 O768 O 0.24711 0.32741 0.78464
 Zr769 Zr 0.24503 0.30464 0.75366
 O770 O 0.22000 0.28409 0.77426
 Zr771 Zr 0.28262 0.25751 0.74793
 O772 O 0.25957 0.23510 0.76890
 Zr773 Zr 0.23999 0.26725 0.70636
 O774 O 0.21514 0.24473 0.72508
 Zr775 Zr 0.23870 0.25644 0.79285
 O776 O 0.26417 0.27859 0.77428
 Zr777 Zr 0.19608 0.26547 0.75101
 O778 O 0.21911 0.28865 0.73041
 Zr779 Zr 0.23401 0.21863 0.74578
 O780 O 0.25878 0.23912 0.72436
 O781 O 0.26509 0.28476 0.72844
 O782 O 0.21360 0.23837 0.77093
 C783 C 0.24403 0.32368 0.70029
 C784 C 0.30135 0.31033 0.75629
 C785 C 0.29459 0.26121 0.69243
 C786 C 0.23246 0.20060 0.79966
 C787 C 0.18376 0.25918 0.80616
 C788 C 0.17775 0.21205 0.74538
 H789 H 0.21111 0.29495 0.78552
 H790 H 0.20408 0.23704 0.71319
 H791 H 0.27653 0.29517 0.71915
 H792 H 0.26938 0.22299 0.77789
 H793 H 0.28035 0.26046 0.81405
 H794 H 0.30501 0.24295 0.78668
 H795 H 0.17157 0.26152 0.71089
 H796 H 0.20056 0.28445 0.68778
 H797 H 0.23022 0.29431 0.82039
 H798 H 0.25805 0.31915 0.79631
 H799 H 0.22095 0.20109 0.70397
 H800 H 0.24555 0.22810 0.68106
 H801 H 0.20629 0.33027 0.74778
 H802 H 0.17630 0.30502 0.76806
 H803 H 0.29796 0.21637 0.73064
 H804 H 0.27020 0.18952 0.75464
 O805 O 0.74730 0.68971 0.71198
 O806 O 0.77801 0.67952 0.74115
 O807 O 0.68965 0.71552 0.75882
 O808 O 0.68398 0.74483 0.78595
 O809 O 0.70994 0.75491 0.69383
 O810 O 0.74217 0.78321 0.68511
 O811 O 0.76176 0.77706 0.81654
 O812 O 0.73463 0.74416 0.82404
 O813 O 0.81908 0.74645 0.77546
 O814 O 0.82200 0.72388 0.73777
 O815 O 0.78538 0.81229 0.75295
 O816 O 0.74728 0.82208 0.73186
 O817 O 0.75829 0.80879 0.79016
 O818 O 0.72550 0.81921 0.76106
 O819 O 0.81449 0.78350 0.74671
 O820 O 0.81722 0.75115 0.71423
 O821 O 0.79432 0.74569 0.80869
 O822 O 0.76257 0.71596 0.81826
 O823 O 0.74483 0.72189 0.68591
 O824 O 0.76895 0.75705 0.67847
 O825 O 0.68513 0.75247 0.72696
 O826 O 0.68467 0.77772 0.76400
 O827 O 0.71790 0.68628 0.75061
 O828 O 0.75505 0.67715 0.77171
 Zr829 Zr 0.75061 0.70601 0.74660
 O830 O 0.77659 0.72483 0.76758
 Zr831 Zr 0.70883 0.74853 0.75671
 O832 O 0.73280 0.76896 0.77850
 Zr833 Zr 0.74520 0.75273 0.70848
 O834 O 0.77069 0.77360 0.72791
 Zr835 Zr 0.75897 0.74603 0.79421
 O836 O 0.73299 0.72499 0.77500
 Zr837 Zr 0.79513 0.75033 0.74586
 O838 O 0.77123 0.72936 0.72411
 Zr839 Zr 0.75290 0.79254 0.75602
 O840 O 0.72692 0.77403 0.73457
 O841 O 0.72534 0.72816 0.72938
 O842 O 0.77874 0.77083 0.77332
 C843 C 0.74587 0.69899 0.69051
 C844 C 0.69613 0.69324 0.75573
 C845 C 0.68885 0.75473 0.70399
 C846 C 0.76128 0.79994 0.81157
 C847 C 0.81539 0.74550 0.79853
 C848 C 0.80747 0.80570 0.74942
 H849 H 0.78794 0.71293 0.77482
 H850 H 0.77909 0.78475 0.71653
 H851 H 0.71363 0.71855 0.71966
 H852 H 0.72351 0.77781 0.79114
 H853 H 0.72176 0.73237 0.81955
 H854 H 0.69163 0.75218 0.80047
 H855 H 0.81361 0.76639 0.70529
 H856 H 0.78297 0.74615 0.68144
 H857 H 0.77468 0.70455 0.81136
 H858 H 0.74607 0.68192 0.78661
 H859 H 0.75793 0.81958 0.71754
 H860 H 0.73146 0.79508 0.69348
 H861 H 0.78925 0.68626 0.72875
 H862 H 0.81896 0.70961 0.74835
 H863 H 0.68770 0.79035 0.75147
 H864 H 0.71599 0.81470 0.77570
 O865 O 0.25779 0.70365 0.28506
 O866 O 0.22975 0.69331 0.25422
 O867 O 0.31949 0.72904 0.24408
 O868 O 0.32731 0.75729 0.21625
 O869 O 0.29410 0.76886 0.30590
 O870 O 0.26169 0.79705 0.31219
 O871 O 0.25192 0.78928 0.17883
 O872 O 0.27924 0.75678 0.17372
 O873 O 0.19175 0.76231 0.21578
 O874 O 0.18490 0.73962 0.25244
 O875 O 0.22486 0.82686 0.24038
 O876 O 0.26060 0.83701 0.26261
 O877 O 0.25422 0.82177 0.20444
 O878 O 0.28586 0.83171 0.23664
 O879 O 0.19489 0.79875 0.24540
 O880 O 0.18957 0.76579 0.27757
 O881 O 0.21907 0.75891 0.18481
 O882 O 0.25165 0.72801 0.17897
 O883 O 0.25925 0.73586 0.31113
 O884 O 0.23360 0.77151 0.31587
 O885 O 0.32149 0.76627 0.27489
 O886 O 0.32502 0.79093 0.23729
 O887 O 0.29026 0.69995 0.24850
 O888 O 0.25398 0.69112 0.22488
 Zr889 Zr 0.25734 0.71985 0.25030
 O890 O 0.23307 0.73874 0.22742
 Zr891 Zr 0.30026 0.76196 0.24332
 O892 O 0.27835 0.78204 0.21916
 Zr893 Zr 0.26019 0.76680 0.28839
 O894 O 0.23690 0.78806 0.26665
 Zr895 Zr 0.25315 0.75904 0.20200
 O896 O 0.27753 0.73830 0.22338
 Zr897 Zr 0.21341 0.76501 0.24725
 O898 O 0.23521 0.74365 0.27087
 Zr899 Zr 0.25698 0.80635 0.23955
 O900 O 0.28066 0.78783 0.26364
 O901 O 0.28136 0.74192 0.26931
 O902 O 0.23224 0.78465 0.22078
 C903 C 0.25820 0.71290 0.30656
 C904 C 0.31253 0.70682 0.24604
 C905 C 0.31593 0.76854 0.29750
 C906 C 0.25238 0.81222 0.18313
 C907 C 0.19729 0.76035 0.19311
 C908 C 0.20251 0.82079 0.24292
 H909 H 0.22207 0.72698 0.21947
 H910 H 0.22795 0.79953 0.27727
 H911 H 0.29219 0.73234 0.28003
 H912 H 0.28865 0.79051 0.20705
 H913 H 0.29209 0.74549 0.17939
 H914 H 0.32092 0.76439 0.20101
 H915 H 0.19254 0.78113 0.28655
 H916 H 0.22076 0.75926 0.31278
 H917 H 0.23752 0.71795 0.18380
 H918 H 0.26494 0.69509 0.21111
 H919 H 0.25119 0.83359 0.27759
 H920 H 0.27282 0.80902 0.30456
 H921 H 0.21701 0.70076 0.26459
 H922 H 0.18909 0.72476 0.24314
 H923 H 0.32157 0.80353 0.24973
 H924 H 0.29500 0.82808 0.22153
 O925 O 0.74243 0.30799 0.29138
 O926 O 0.76970 0.31830 0.25903
 O927 O 0.67943 0.28290 0.25263
 O928 O 0.67062 0.25383 0.22574
 O929 O 0.70758 0.24285 0.31384
 O930 O 0.74074 0.21425 0.31786
 O931 O 0.74427 0.22259 0.18474
 O932 O 0.71525 0.25454 0.18171
 O933 O 0.80535 0.25054 0.21768
 O934 O 0.81274 0.27485 0.25543
 O935 O 0.77530 0.18538 0.24432
 O936 O 0.74137 0.17553 0.26995
 O937 O 0.74499 0.19023 0.21060
 O938 O 0.71235 0.18198 0.24240
 O939 O 0.80446 0.21468 0.24712
 O940 O 0.81247 0.24638 0.27819
 O941 O 0.77636 0.25527 0.18861
 O942 O 0.74303 0.28353 0.18405
 O943 O 0.74316 0.27576 0.31747
 O944 O 0.76837 0.24036 0.32105
 O945 O 0.67893 0.24568 0.28415
 O946 O 0.67381 0.22058 0.24746
 O947 O 0.70896 0.31169 0.25672
 O948 O 0.74340 0.32142 0.23174
 Zr949 Zr 0.74171 0.29201 0.25657
 O950 O 0.76461 0.27368 0.23195
 Zr951 Zr 0.69875 0.24972 0.25163
 O952 O 0.71983 0.22954 0.22658
 Zr953 Zr 0.74087 0.24500 0.29465
 O954 O 0.76367 0.22450 0.27152
 Zr955 Zr 0.74343 0.25302 0.20781
 O956 O 0.72029 0.27366 0.23065
 Zr957 Zr 0.78565 0.24787 0.25065
 O958 O 0.76486 0.26841 0.27591
 Zr959 Zr 0.74272 0.20559 0.24570
 O960 O 0.71966 0.22388 0.27082
 O961 O 0.71868 0.26977 0.27672
 O962 O 0.76578 0.22793 0.22540
 C963 C 0.74337 0.29872 0.31285
 C964 C 0.68666 0.30511 0.25468
 C965 C 0.68538 0.24327 0.30646
 C966 C 0.74513 0.19965 0.18918
 C967 C 0.79854 0.25361 0.19550
 C968 C 0.79760 0.19242 0.24494
 H969 H 0.77489 0.28570 0.22337
 H970 H 0.77356 0.21330 0.28152
 H971 H 0.70827 0.27932 0.28795
 H972 H 0.70912 0.22054 0.21528
 H973 H 0.70296 0.26617 0.18799
 H974 H 0.67596 0.24564 0.21060
 H975 H 0.80885 0.23216 0.28866
 H976 H 0.78176 0.25150 0.31642
 H977 H 0.75537 0.29532 0.18970
 H978 H 0.73215 0.31742 0.21829
 H979 H 0.75237 0.17905 0.28371
 H980 H 0.72878 0.20264 0.31104
 H981 H 0.78262 0.31098 0.26919
 H982 H 0.80991 0.28785 0.24327
 H983 H 0.67806 0.20806 0.25970
 H984 H 0.71761 0.16681 0.23407
 C985 C 0.27298 0.08630 0.06349
 C986 C 0.25830 0.09016 0.08412
 C987 C 0.26342 0.10874 0.10298
 C988 C 0.25410 0.10494 0.12648
 C989 C 0.25802 0.12195 0.14491
 C990 C 0.27135 0.14331 0.14025
 C991 C 0.28029 0.14743 0.11663
 C992 C 0.27647 0.13027 0.09814
 C993 C 0.27476 0.16214 0.15926
 C994 C 0.27409 0.15674 0.18410
 H995 H 0.24349 0.07798 0.08830
 H996 H 0.24365 0.08870 0.13061
 H997 H 0.24997 0.11854 0.16258
 H998 H 0.29017 0.16400 0.11247
 H999 H 0.28325 0.13424 0.08007
 H1000 H 0.27741 0.18085 0.15349
 H1001 H 0.28871 0.09799 0.06132
 H1002 H 0.27332 0.13794 0.19003
 C1003 C 0.72579 0.58276 0.57700
 C1004 C 0.74564 0.59499 0.58695
 C1005 C 0.74359 0.61130 0.60823
 C1006 C 0.76019 0.63051 0.61066
 C1007 C 0.75929 0.64580 0.63095
 C1008 C 0.74197 0.64188 0.64942
 C1009 C 0.72577 0.62227 0.64734
 C1010 C 0.72639 0.60721 0.62679
 C1011 C 0.74099 0.65777 0.67109
 C1012 C 0.74558 0.68267 0.66935
 H1013 H 0.76328 0.59332 0.57829
 H1014 H 0.77386 0.63373 0.59679
 H1015 H 0.77247 0.66038 0.63240
 H1016 H 0.71250 0.61876 0.66152
 H1017 H 0.71382 0.59206 0.62575
 H1018 H 0.73536 0.65003 0.68836
 H1019 H 0.70763 0.58703 0.58341
 H1020 H 0.74853 0.69076 0.65159
 C1021 C 0.73688 0.92496 0.06520
 C1022 C 0.74860 0.92295 0.08764
 C1023 C 0.74462 0.90210 0.10433
 C1024 C 0.74948 0.90505 0.12920
 C1025 C 0.74624 0.88569 0.14544
 C1026 C 0.73806 0.86286 0.13705
 C1027 C 0.73375 0.85977 0.11210
 C1028 C 0.73698 0.87913 0.09587
 C1029 C 0.73494 0.84167 0.15349
 C1030 C 0.73202 0.84382 0.17864
 H1031 H 0.76023 0.93755 0.09387
 H1032 H 0.75584 0.92241 0.13611
 H1033 H 0.75069 0.88863 0.16437
 H1034 H 0.72792 0.84226 0.10510
 H1035 H 0.73396 0.87581 0.07671
 H1036 H 0.73474 0.82366 0.14539
 H1037 H 0.72315 0.91165 0.06056
 H1038 H 0.73086 0.86163 0.18700
 C1039 C 0.23608 0.42376 0.56907
 C1040 C 0.25060 0.42241 0.58987
 C1041 C 0.24885 0.40195 0.60743
 C1042 C 0.25638 0.40552 0.63154
 C1043 C 0.25514 0.38650 0.64848
 C1044 C 0.24638 0.36341 0.64154
 C1045 C 0.23947 0.35971 0.61727
 C1046 C 0.24068 0.37870 0.60037
 C1047 C 0.24491 0.34255 0.65866
 C1048 C 0.24517 0.34493 0.68396
 H1049 H 0.26298 0.43709 0.59413
 H1050 H 0.26320 0.42312 0.63731
 H1051 H 0.26147 0.38996 0.66677
 H1052 H 0.23310 0.34200 0.61131
 H1053 H 0.23566 0.37489 0.58173
 H1054 H 0.24284 0.32451 0.65091
 H1055 H 0.22192 0.41028 0.56671
 H1056 H 0.24605 0.36277 0.69228
 C1057 C 0.77316 0.08948 0.91639
 C1058 C 0.75535 0.10301 0.90421
 C1059 C 0.76130 0.12299 0.88715
 C1060 C 0.74566 0.12754 0.86755
 C1061 C 0.75019 0.14684 0.85160
 C1062 C 0.77026 0.16227 0.85522
 C1063 C 0.78562 0.15809 0.87514
 C1064 C 0.78135 0.13845 0.89087
 C1065 C 0.77487 0.18317 0.83886
 C1066 C 0.77014 0.18179 0.81399
 H1067 H 0.73640 0.09802 0.90572
 H1068 H 0.72989 0.11610 0.86457
 H1069 H 0.73764 0.15001 0.83678
 H1070 H 0.80100 0.16996 0.87843
 H1071 H 0.79333 0.13578 0.90624
 H1072 H 0.78303 0.19951 0.84632
 H1073 H 0.79197 0.09254 0.91129
 H1074 H 0.76455 0.16455 0.80618
 C1075 C 0.25846 0.57911 0.40621
 C1076 C 0.24845 0.60256 0.40528
 C1077 C 0.25161 0.61977 0.38465
 C1078 C 0.24553 0.64436 0.38826
 C1079 C 0.24740 0.66122 0.36927
 C1080 C 0.25548 0.65384 0.34609
 C1081 C 0.26133 0.62919 0.34238
 C1082 C 0.25944 0.61230 0.36140
 C1083 C 0.25704 0.67097 0.32520
 C1084 C 0.25765 0.69633 0.32767
 H1085 H 0.23856 0.60924 0.42097
 H1086 H 0.23910 0.65057 0.40587
 H1087 H 0.24192 0.67980 0.37282
 H1088 H 0.26727 0.62293 0.32462
 H1089 H 0.26366 0.59344 0.35758
 H1090 H 0.25820 0.66320 0.30709
 H1091 H 0.27073 0.57319 0.39197
 H1092 H 0.25803 0.70455 0.34555
 C1093 C 0.25429 0.92158 0.91271
 C1094 C 0.26836 0.90036 0.91254
 C1095 C 0.26589 0.88176 0.89312
 C1096 C 0.27139 0.85728 0.89813
 C1097 C 0.26892 0.83942 0.88006
 C1098 C 0.26106 0.84583 0.85652
 C1099 C 0.25626 0.87043 0.85144
 C1100 C 0.25867 0.88819 0.86944
 C1101 C 0.25796 0.82790 0.83656
 C1102 C 0.25772 0.80258 0.83948
 H1103 H 0.28059 0.89659 0.92746
 H1104 H 0.27737 0.85194 0.91613
 H1105 H 0.27342 0.82081 0.88465
 H1106 H 0.25056 0.87598 0.83340
 H1107 H 0.25520 0.90699 0.86459
 H1108 H 0.25484 0.83522 0.81850
 H1109 H 0.24007 0.92342 0.89924
 H1110 H 0.26016 0.79445 0.85723
 C1111 C 0.72423 0.42403 0.41785
 C1112 C 0.74401 0.41052 0.40934
 C1113 C 0.74167 0.39193 0.39003
 C1114 C 0.75782 0.37214 0.38957
 C1115 C 0.75659 0.35480 0.37094
 C1116 C 0.73941 0.35726 0.35219
 C1117 C 0.72355 0.37728 0.35244
 C1118 C 0.72451 0.39438 0.37126
 C1119 C 0.73839 0.34000 0.33158
 C1120 C 0.74450 0.31541 0.33376
 H1121 H 0.76167 0.41304 0.41764
 H1122 H 0.77144 0.37011 0.40364
 H1123 H 0.76952 0.33993 0.37090
 H1124 H 0.71039 0.37971 0.33799
 H1125 H 0.71229 0.40984 0.37070
 H1126 H 0.73135 0.34662 0.31439
 H1127 H 0.70607 0.41914 0.41202
 H1128 H 0.74917 0.30795 0.35139
 C1129 C 0.09150 0.23040 0.09191
 C1130 C 0.11049 0.24653 0.09611
 C1131 C 0.12805 0.24230 0.11601
 C1132 C 0.14936 0.25632 0.11711
 C1133 C 0.16582 0.25321 0.13624
 C1134 C 0.16108 0.23613 0.15477
 C1135 C 0.13972 0.22225 0.15375
 C1136 C 0.12346 0.22511 0.13449
 C1137 C 0.17736 0.23319 0.17591
 C1138 C 0.20235 0.23735 0.17478
 H1139 H 0.11242 0.26266 0.08486
 H1140 H 0.15319 0.26982 0.10322
 H1141 H 0.18183 0.26465 0.13682
 H1142 H 0.13560 0.20914 0.16794
 H1143 H 0.10708 0.21417 0.13437
 H1144 H 0.16951 0.22639 0.19272
 H1145 H 0.08145 0.23413 0.08164
 H1146 H 0.21085 0.24192 0.15756
 C1147 C 0.58189 0.76046 0.57789
 C1148 C 0.58460 0.74875 0.60030
 C1149 C 0.60628 0.75121 0.61601
 C1150 C 0.60431 0.74423 0.64049
 C1151 C 0.62427 0.74580 0.65602
 C1152 C 0.64675 0.75451 0.64738
 C1153 C 0.64888 0.76108 0.62277
 C1154 C 0.62888 0.75948 0.60719
 C1155 C 0.66850 0.75581 0.66315
 C1156 C 0.66718 0.75628 0.68852
 H1157 H 0.56953 0.73833 0.60754
 H1158 H 0.58724 0.73740 0.64765
 H1159 H 0.62202 0.73960 0.67457
 H1160 H 0.66611 0.76741 0.61556
 H1161 H 0.63142 0.76428 0.58827
 H1162 H 0.68619 0.75643 0.65442
 H1163 H 0.59561 0.77320 0.57177
 H1164 H 0.64973 0.75715 0.69759
 C1165 C 0.07101 0.72793 0.92935
 C1166 C 0.09318 0.74001 0.92565
 C1167 C 0.10892 0.73608 0.90407
 C1168 C 0.13373 0.74172 0.90587
 C1169 C 0.14915 0.73923 0.88578
 C1170 C 0.14003 0.73105 0.86332
 C1171 C 0.11516 0.72567 0.86141
 C1172 C 0.09972 0.72808 0.88157
 C1173 C 0.15559 0.72947 0.84130
 C1174 C 0.18088 0.72741 0.84223
 H1175 H 0.10044 0.75174 0.93962
 H1176 H 0.14121 0.74830 0.92288
 H1177 H 0.16799 0.74443 0.88784
 H1178 H 0.10760 0.71977 0.84420
 H1179 H 0.08057 0.72432 0.87923
 H1180 H 0.14675 0.73014 0.82370
 H1181 H 0.06583 0.71410 0.91631
 H1182 H 0.18990 0.72499 0.85954
 C1183 C 0.58943 0.23228 0.44086
 C1184 C 0.59064 0.24676 0.41995
 C1185 C 0.61096 0.24530 0.40217
 C1186 C 0.60709 0.25348 0.37830
 C1187 C 0.62579 0.25261 0.36103
 C1188 C 0.64888 0.24350 0.36729
 C1189 C 0.65296 0.23595 0.39134
 C1190 C 0.63424 0.23680 0.40862
 C1191 C 0.66922 0.24253 0.34949
 C1192 C 0.66551 0.24184 0.32438
 H1193 H 0.57577 0.25887 0.41561
 H1194 H 0.58950 0.26057 0.37297
 H1195 H 0.62211 0.25957 0.34300
 H1196 H 0.67070 0.22934 0.39677
 H1197 H 0.63828 0.23122 0.42705
 H1198 H 0.68765 0.24201 0.35641
 H1199 H 0.60333 0.21859 0.44357
 H1200 H 0.64721 0.24089 0.31729
 C1201 C 0.92011 0.74727 0.09298
 C1202 C 0.90212 0.76500 0.09687
 C1203 C 0.88395 0.76373 0.11680
 C1204 C 0.86192 0.77631 0.11396
 C1205 C 0.84410 0.77557 0.13209
 C1206 C 0.84795 0.76221 0.15358
 C1207 C 0.87029 0.75026 0.15682
 C1208 C 0.88813 0.75093 0.13860
 C1209 C 0.82936 0.76101 0.17311
 C1210 C 0.80455 0.76385 0.16860
 H1211 H 0.89964 0.77961 0.08396
 H1212 H 0.85840 0.78667 0.09754
 H1213 H 0.82754 0.78583 0.12931
 H1214 H 0.87387 0.74025 0.17343
 H1215 H 0.90520 0.74173 0.14187
 H1216 H 0.83532 0.75680 0.19142
 H1217 H 0.92068 0.73190 0.10533
 H1218 H 0.79817 0.76617 0.15012
 C1219 C 0.42957 0.23967 0.60043
 C1220 C 0.41408 0.25931 0.60512
 C1221 C 0.39469 0.25838 0.62388
 C1222 C 0.37366 0.27252 0.62075
 C1223 C 0.35485 0.27180 0.63794
 C1224 C 0.35685 0.25704 0.65879
 C1225 C 0.37819 0.24346 0.66227
 C1226 C 0.39689 0.24400 0.64497
 C1227 C 0.33760 0.25619 0.67770
 C1228 C 0.31314 0.26114 0.67301
 H1229 H 0.41467 0.27504 0.59321
 H1230 H 0.37169 0.28403 0.60484
 H1231 H 0.33904 0.28317 0.63504
 H1232 H 0.38036 0.23230 0.67839
 H1233 H 0.41316 0.23346 0.64836
 H1234 H 0.34283 0.25062 0.69588
 H1235 H 0.42690 0.22277 0.61026
 H1236 H 0.30725 0.26493 0.65461
 C1237 C 0.92356 0.25393 0.93904
 C1238 C 0.91998 0.23999 0.91794
 C1239 C 0.90063 0.24485 0.89988
 C1240 C 0.90408 0.23656 0.87596
 C1241 C 0.88638 0.24044 0.85823
 C1242 C 0.86468 0.25269 0.86408
 C1243 C 0.86089 0.26046 0.88815
 C1244 C 0.87872 0.25669 0.90591
 C1245 C 0.84539 0.25655 0.84572
 C1246 C 0.85029 0.25796 0.82080
 H1247 H 0.93295 0.22611 0.91290
 H1248 H 0.92060 0.22703 0.87092
 H1249 H 0.88959 0.23333 0.84014
 H1250 H 0.84411 0.26951 0.89320
 H1251 H 0.87506 0.26262 0.92434
 H1252 H 0.82684 0.25873 0.85208
 H1253 H 0.91156 0.26927 0.94216
 H1254 H 0.86891 0.25779 0.81440
 C1255 C 0.40953 0.76402 0.43467
 C1256 C 0.41001 0.75636 0.41040
 C1257 C 0.39002 0.76026 0.39279
 C1258 C 0.39488 0.75644 0.36800
 C1259 C 0.37663 0.75923 0.35062
 C1260 C 0.35297 0.76607 0.35766
 C1261 C 0.34803 0.76968 0.38248
 C1262 C 0.36631 0.76682 0.39992
 C1263 C 0.33280 0.76825 0.33993
 C1264 C 0.33625 0.76985 0.31477
 H1265 H 0.42648 0.74811 0.40338
 H1266 H 0.41289 0.75105 0.36202
 H1267 H 0.38118 0.75538 0.33187
 H1268 H 0.32987 0.77456 0.38846
 H1269 H 0.36154 0.76929 0.41885
 H1270 H 0.31439 0.76821 0.34703
 H1271 H 0.39441 0.77473 0.44133
 H1272 H 0.35436 0.77109 0.30718
 C1273 C 0.06730 0.08158 0.24712
 C1274 C 0.09004 0.08019 0.23582
 C1275 C 0.10819 0.10007 0.23774
 C1276 C 0.13303 0.09434 0.23679
 C1277 C 0.15058 0.11262 0.23922
 C1278 C 0.14359 0.13713 0.24230
 C1279 C 0.11875 0.14292 0.24256
 C1280 C 0.10120 0.12462 0.24032
 C1281 C 0.16170 0.15689 0.24517
 C1282 C 0.18632 0.15199 0.24780
 H1283 H 0.09552 0.06340 0.22705
 H1284 H 0.13887 0.07560 0.23457
 H1285 H 0.16959 0.10752 0.23867
 H1286 H 0.11288 0.16167 0.24463
 H1287 H 0.08222 0.12981 0.24034
 H1288 H 0.15553 0.17567 0.24554
 H1289 H 0.06326 0.09729 0.25836
 H1290 H 0.19607 0.16345 0.24927
 C1291 C 0.59500 0.56243 0.74042
 C1292 C 0.59776 0.58417 0.75348
 C1293 C 0.61974 0.59990 0.75313
 C1294 C 0.62079 0.61932 0.76973
 C1295 C 0.64037 0.63548 0.76966
 C1296 C 0.65938 0.63278 0.75272
 C1297 C 0.65884 0.61294 0.73659
 C1298 C 0.63918 0.59670 0.73665
 C1299 C 0.67972 0.65048 0.75140
 C1300 C 0.67677 0.67489 0.75800
 H1301 H 0.58273 0.59057 0.76448
 H1302 H 0.60628 0.62211 0.78283
 H1303 H 0.64056 0.64999 0.78299
 H1304 H 0.67338 0.61037 0.72349
 H1305 H 0.63921 0.58213 0.72343
 H1306 H 0.69679 0.64463 0.74342
 H1307 H 0.60937 0.55621 0.72850
 H1308 H 0.65910 0.68133 0.76387
 C1309 C 0.93129 0.07919 0.72184
 C1310 C 0.92096 0.09149 0.74142
 C1311 C 0.90243 0.11067 0.73824
 C1312 C 0.89922 0.12796 0.75676
 C1313 C 0.88133 0.14590 0.75474
 C1314 C 0.86601 0.14658 0.73433
 C1315 C 0.86886 0.12902 0.71599
 C1316 C 0.88717 0.11137 0.71774
 C1317 C 0.84665 0.16511 0.73242
 C1318 C 0.85058 0.18903 0.73990
 H1319 H 0.92714 0.08761 0.75973
 H1320 H 0.91061 0.12761 0.77282
 H1321 H 0.87914 0.15889 0.76942
 H1322 H 0.85706 0.12912 0.70023
 H1323 H 0.88904 0.09800 0.70335
 H1324 H 0.82941 0.16007 0.72436
 H1325 H 0.94070 0.06797 0.72426
 H1326 H 0.86868 0.19454 0.74537
 C1327 C 0.41724 0.58244 0.22898
 C1328 C 0.40827 0.59596 0.24857
 C1329 C 0.38791 0.61338 0.24639
 C1330 C 0.38660 0.63297 0.26270
 C1331 C 0.36723 0.64937 0.26171
 C1332 C 0.34854 0.64624 0.24458
 C1333 C 0.34940 0.62622 0.22874
 C1334 C 0.36906 0.61001 0.22945
 C1335 C 0.32810 0.66367 0.24322
 C1336 C 0.33200 0.68853 0.24645
 H1337 H 0.41699 0.59434 0.26615
 H1338 H 0.40068 0.63565 0.27620
 H1339 H 0.36669 0.66429 0.27460
 H1340 H 0.33503 0.62333 0.21561
 H1341 H 0.36918 0.59461 0.21713
 H1342 H 0.31023 0.65712 0.23816
 H1343 H 0.41094 0.58648 0.21075
 H1344 H 0.35042 0.69510 0.24877
 C1345 C 0.07038 0.90133 0.74616
 C1346 C 0.08311 0.89382 0.76695
 C1347 C 0.09735 0.87092 0.76828
 C1348 C 0.11621 0.86948 0.78536
 C1349 C 0.13123 0.84901 0.78636
 C1350 C 0.12765 0.82943 0.77026
 C1351 C 0.10790 0.83014 0.75417
 C1352 C 0.09288 0.85073 0.75310
 C1353 C 0.14474 0.80863 0.76942
 C1354 C 0.16949 0.81190 0.77372
 H1355 H 0.08415 0.90552 0.78269
 H1356 H 0.11975 0.88454 0.79762
 H1357 H 0.14572 0.84863 0.79964
 H1358 H 0.10453 0.81505 0.74192
 H1359 H 0.07792 0.85065 0.74038
 H1360 H 0.13829 0.79119 0.76279
 H1361 H 0.06958 0.88895 0.73086
 H1362 H 0.17626 0.82993 0.77797
 C1363 C 0.55559 0.40507 0.24159
 C1364 C 0.57671 0.40235 0.25546
 C1365 C 0.59272 0.38057 0.25532
 C1366 C 0.61476 0.38201 0.26804
 C1367 C 0.63113 0.36262 0.26789
 C1368 C 0.62594 0.34125 0.25478
 C1369 C 0.60350 0.33930 0.24285
 C1370 C 0.58701 0.35877 0.24303
 C1371 C 0.64358 0.32089 0.25344
 C1372 C 0.66858 0.32479 0.25530
 H1373 H 0.58299 0.41767 0.26609
 H1374 H 0.61949 0.39835 0.27806
 H1375 H 0.64775 0.36444 0.27822
 H1376 H 0.59892 0.32283 0.23299
 H1377 H 0.57004 0.35653 0.23346
 H1378 H 0.63686 0.30270 0.24979
 H1379 H 0.55002 0.39070 0.22937
 H1380 H 0.67547 0.34319 0.25701
 C1381 C 0.91789 0.91366 0.25079
 C1382 C 0.89837 0.90990 0.23497
 C1383 C 0.88148 0.88911 0.23785
 C1384 C 0.85725 0.89188 0.23054
 C1385 C 0.84071 0.87278 0.23336
 C1386 C 0.84816 0.85039 0.24341
 C1387 C 0.87261 0.84726 0.24981
 C1388 C 0.88914 0.86648 0.24720
 C1389 C 0.83087 0.82998 0.24654
 C1390 C 0.80632 0.83410 0.25131
 H1391 H 0.89401 0.92314 0.22109
 H1392 H 0.85104 0.90897 0.22285
 H1393 H 0.82220 0.87550 0.22730
 H1394 H 0.87887 0.83001 0.25708
 H1395 H 0.90793 0.86344 0.25217
 H1396 H 0.83761 0.81146 0.24518
 H1397 H 0.91976 0.90111 0.26592
 H1398 H 0.80004 0.85256 0.25438
 C1399 C 0.41303 0.43046 0.74432
 C1400 C 0.40867 0.41037 0.75940
 C1401 C 0.38575 0.39618 0.75968
 C1402 C 0.38592 0.37314 0.77076
 C1403 C 0.36506 0.35868 0.77105
 C1404 C 0.34349 0.36693 0.76010
 C1405 C 0.34296 0.39037 0.74990
 C1406 C 0.36388 0.40491 0.74964
 C1407 C 0.32146 0.35147 0.75902
 C1408 C 0.32276 0.32607 0.75897
 H1409 H 0.42332 0.40343 0.77050
 H1410 H 0.40235 0.36616 0.77908
 H1411 H 0.36594 0.34115 0.78002
 H1412 H 0.32643 0.39730 0.74176
 H1413 H 0.36267 0.42288 0.74168
 H1414 H 0.30401 0.36025 0.75641
 H1415 H 0.39932 0.43598 0.73137
 H1416 H 0.34029 0.31713 0.75954
 C1417 C 0.08857 0.25541 0.93898
 C1418 C 0.09782 0.23706 0.92387
 C1419 C 0.11640 0.24225 0.90506
 C1420 C 0.11495 0.23049 0.88244
 C1421 C 0.13201 0.23541 0.86417
 C1422 C 0.15114 0.25186 0.86841
 C1423 C 0.15303 0.26303 0.89130
 C1424 C 0.13566 0.25850 0.90941
 C1425 C 0.16989 0.25667 0.84969
 C1426 C 0.16466 0.25694 0.82484
 H1427 H 0.08941 0.21925 0.92350
 H1428 H 0.10041 0.21769 0.87881
 H1429 H 0.13050 0.22596 0.84694
 H1430 H 0.16785 0.27546 0.89508
 H1431 H 0.13754 0.26739 0.92690
 H1432 H 0.18818 0.26081 0.85570
 H1433 H 0.09528 0.27377 0.93607
 H1434 H 0.14599 0.25520 0.81884
 C1435 C 0.58109 0.75258 0.43691
 C1436 C 0.58261 0.76506 0.41479
 C1437 C 0.60285 0.76247 0.39717
 C1438 C 0.59925 0.77112 0.37343
 C1439 C 0.61750 0.76899 0.35592
 C1440 C 0.63982 0.75796 0.36172
 C1441 C 0.64376 0.74991 0.38564
 C1442 C 0.62546 0.75210 0.40325
 C1443 C 0.65949 0.75551 0.34347
 C1444 C 0.65491 0.75513 0.31851
 H1445 H 0.56732 0.77600 0.40902
 H1446 H 0.58219 0.77958 0.36836
 H1447 H 0.61409 0.77644 0.33802
 H1448 H 0.66100 0.74181 0.39066
 H1449 H 0.62930 0.74590 0.42152
 H1450 H 0.67803 0.75381 0.34988
 H1451 H 0.59506 0.73961 0.44178
 H1452 H 0.63640 0.75512 0.31192
 C1453 C 0.92497 0.75531 0.92040
 C1454 C 0.91267 0.73661 0.90861
 C1455 C 0.89450 0.74152 0.88949
 C1456 C 0.88949 0.72351 0.87207
 C1457 C 0.87123 0.72710 0.85475
 C1458 C 0.85725 0.74855 0.85499
 C1459 C 0.86219 0.76652 0.87244
 C1460 C 0.88089 0.76322 0.88934
 C1461 C 0.83645 0.75175 0.83834
 C1462 C 0.83688 0.74366 0.81429
 H1463 H 0.91652 0.71781 0.91330
 H1464 H 0.89959 0.70655 0.87200
 H1465 H 0.86745 0.71273 0.84180
 H1466 H 0.85146 0.78308 0.87307
 H1467 H 0.88410 0.77726 0.90281
 H1468 H 0.82066 0.76158 0.84497
 H1469 H 0.93345 0.75227 0.93217
 H1470 H 0.85359 0.73654 0.80660
 C1471 C 0.43944 0.22632 0.42997
 C1472 C 0.41633 0.23672 0.42758
 C1473 C 0.40046 0.23395 0.40598
 C1474 C 0.37597 0.24084 0.40811
 C1475 C 0.36030 0.23931 0.38822
 C1476 C 0.36877 0.23071 0.36561
 C1477 C 0.39335 0.22410 0.36334
 C1478 C 0.40907 0.22566 0.38329
 C1479 C 0.35284 0.22938 0.34390
 C1480 C 0.32747 0.22901 0.34526
 H1481 H 0.40881 0.24666 0.44286
 H1482 H 0.36892 0.24765 0.42525
 H1483 H 0.34178 0.24546 0.39063
 H1484 H 0.40044 0.21778 0.34604
 H1485 H 0.42794 0.22081 0.38062
 H1486 H 0.36147 0.22828 0.32617
 H1487 H 0.44615 0.21398 0.41615
 H1488 H 0.31844 0.22855 0.36276
 C1489 C 0.06510 0.74022 0.10072
 C1490 C 0.07824 0.76084 0.10766
 C1491 C 0.09684 0.76026 0.12705
 C1492 C 0.11725 0.77545 0.12495
 C1493 C 0.13564 0.77476 0.14244
 C1494 C 0.13375 0.75910 0.16262
 C1495 C 0.11287 0.74465 0.16529
 C1496 C 0.09465 0.74502 0.14754
 C1497 C 0.15314 0.75797 0.18120
 C1498 C 0.17764 0.76033 0.17499
 H1499 H 0.07692 0.77720 0.09669
 H1500 H 0.11917 0.78759 0.10950
 H1501 H 0.15118 0.78667 0.14028
 H1502 H 0.11087 0.73275 0.18091
 H1503 H 0.07880 0.73358 0.14999
 H1504 H 0.14814 0.75391 0.19986
 H1505 H 0.06874 0.72300 0.10964
 H1506 H 0.18274 0.76192 0.15600
 C1507 C 0.57870 0.25153 0.60536
 C1508 C 0.59959 0.26607 0.60450
 C1509 C 0.61835 0.26689 0.62382
 C1510 C 0.64113 0.27695 0.61809
 C1511 C 0.65964 0.27778 0.63541
 C1512 C 0.65579 0.26848 0.65896
 C1513 C 0.63278 0.25914 0.66497
 C1514 C 0.61421 0.25831 0.64762
 C1515 C 0.67511 0.26849 0.67772
 C1516 C 0.69991 0.26981 0.67222
 H1517 H 0.60356 0.27606 0.58798
 H1518 H 0.64470 0.28408 0.60003
 H1519 H 0.67676 0.28600 0.63026
 H1520 H 0.62920 0.25224 0.68312
 H1521 H 0.59673 0.25114 0.65308
 H1522 H 0.66962 0.26607 0.69653
 H1523 H 0.57577 0.23947 0.62066
 H1524 H 0.70595 0.27080 0.65350
 C1525 C 0.92288 0.23628 0.08980
 C1526 C 0.91190 0.25591 0.10172
 C1527 C 0.89342 0.25296 0.12111
 C1528 C 0.87631 0.27156 0.12479
 C1529 C 0.85907 0.26978 0.14344
 C1530 C 0.85886 0.24946 0.15905
 C1531 C 0.87637 0.23113 0.15581
 C1532 C 0.89339 0.23273 0.13687
 C1533 C 0.84083 0.24733 0.17897
 C1534 C 0.81708 0.25577 0.17630
 H1535 H 0.91625 0.27429 0.09597
 H1536 H 0.87625 0.28751 0.11316
 H1537 H 0.84622 0.28453 0.14590
 H1538 H 0.87673 0.21547 0.16782
 H1539 H 0.90683 0.21842 0.13497
 H1540 H 0.84580 0.23748 0.19532
 H1541 H 0.91618 0.21800 0.09310
 H1542 H 0.81138 0.26308 0.15891
 C1543 C 0.41006 0.73777 0.58120
 C1544 C 0.39664 0.75621 0.59239
 C1545 C 0.37875 0.75134 0.61184
 C1546 C 0.35940 0.76764 0.61532
 C1547 C 0.34295 0.76421 0.63443
 C1548 C 0.34584 0.74458 0.65063
 C1549 C 0.36538 0.72848 0.64735
 C1550 C 0.38161 0.73170 0.62803
 C1551 C 0.32959 0.74122 0.67176
 C1552 C 0.30521 0.74810 0.67146
 H1553 H 0.39901 0.77489 0.58645
 H1554 H 0.35712 0.78314 0.60331
 H1555 H 0.32846 0.77734 0.63691
 H1556 H 0.36812 0.71344 0.65983
 H1557 H 0.39680 0.71926 0.62629
 H1558 H 0.33679 0.73208 0.68768
 H1559 H 0.40531 0.71890 0.58453
 H1560 H 0.29711 0.75487 0.65483
 C1561 C 0.25625 0.09436 0.92012
 C1562 C 0.23488 0.10169 0.90862
 C1563 C 0.23429 0.12276 0.89192
 C1564 C 0.21886 0.12221 0.87164
 C1565 C 0.21876 0.14150 0.85499
 C1566 C 0.23388 0.16184 0.85863
 C1567 C 0.24852 0.16281 0.87946
 C1568 C 0.24889 0.14339 0.89589
 C1569 C 0.23451 0.18247 0.84139
 C1570 C 0.23032 0.17984 0.81647
 H1571 H 0.21886 0.09029 0.90992
 H1572 H 0.20721 0.10663 0.86843
 H1573 H 0.20668 0.14056 0.83950
 H1574 H 0.26002 0.17849 0.88283
 H1575 H 0.26044 0.14464 0.91177
 H1576 H 0.24026 0.20004 0.84833
 H1577 H 0.27304 0.10389 0.91610
 H1578 H 0.22644 0.16204 0.80892
 C1579 C 0.73143 0.59602 0.42520
 C1580 C 0.72015 0.59773 0.40245
 C1581 C 0.72194 0.61914 0.38599
 C1582 C 0.71475 0.61633 0.36165
 C1583 C 0.71593 0.63584 0.34535
 C1584 C 0.72445 0.65877 0.35301
 C1585 C 0.73113 0.66177 0.37749
 C1586 C 0.72993 0.64221 0.39384
 C1587 C 0.72592 0.67998 0.33627
 C1588 C 0.72654 0.67780 0.31092
 H1589 H 0.71062 0.58198 0.39548
 H1590 H 0.70814 0.59890 0.35517
 H1591 H 0.70971 0.63287 0.32694
 H1592 H 0.73737 0.67933 0.38398
 H1593 H 0.73496 0.64545 0.41257
 H1594 H 0.72728 0.69799 0.34428
 H1595 H 0.74317 0.61059 0.43129
 H1596 H 0.72664 0.65997 0.30253
 C1597 C 0.74629 0.07265 0.08316
 C1598 C 0.75930 0.09411 0.08736
 C1599 C 0.75593 0.10996 0.10889
 C1600 C 0.76464 0.13395 0.10768
 C1601 C 0.76206 0.14970 0.12744
 C1602 C 0.75062 0.14176 0.14895
 C1603 C 0.74249 0.11756 0.15046
 C1604 C 0.74504 0.10176 0.13061
 C1605 C 0.74767 0.15804 0.17021
 C1606 C 0.74673 0.18337 0.16803
 H1607 H 0.77152 0.10069 0.07335
 H1608 H 0.77350 0.14060 0.09133
 H1609 H 0.76947 0.16789 0.12588
 H1610 H 0.73403 0.11089 0.16701
 H1611 H 0.73880 0.08318 0.13255
 H1612 H 0.74546 0.14980 0.18801
 H1613 H 0.73193 0.06733 0.09555
 H1614 H 0.74706 0.19177 0.15020
 C1615 C 0.23611 0.56894 0.57978
 C1616 C 0.24744 0.59140 0.58389
 C1617 C 0.24485 0.60587 0.60658
 C1618 C 0.25108 0.63066 0.60596
 C1619 C 0.24945 0.64505 0.62688
 C1620 C 0.24153 0.63493 0.64907
 C1621 C 0.23580 0.61000 0.64988
 C1622 C 0.23734 0.59558 0.62886
 C1623 C 0.24008 0.64971 0.67167
 C1624 C 0.23681 0.67496 0.67133
 H1625 H 0.25771 0.59965 0.56921
 H1626 H 0.25734 0.63898 0.58918
 H1627 H 0.25497 0.66393 0.62563
 H1628 H 0.23007 0.60166 0.66683
 H1629 H 0.23311 0.57639 0.63032
 H1630 H 0.24120 0.64040 0.68903
 H1631 H 0.22351 0.56187 0.59318
 H1632 H 0.23384 0.68416 0.65416
 C1633 C 0.76205 0.93872 0.90251
 C1634 C 0.77246 0.91547 0.90358
 C1635 C 0.77078 0.89716 0.88386
 C1636 C 0.77569 0.87268 0.88947
 C1637 C 0.77402 0.85462 0.87163
 C1638 C 0.76735 0.86071 0.84769
 C1639 C 0.76304 0.88528 0.84195
 C1640 C 0.76476 0.90335 0.85978
 C1641 C 0.76502 0.84230 0.82809
 C1642 C 0.76431 0.81710 0.83191
 H1643 H 0.78066 0.90952 0.92045
 H1644 H 0.78071 0.86746 0.90780
 H1645 H 0.77821 0.83610 0.87681
 H1646 H 0.75823 0.89054 0.82357
 H1647 H 0.76160 0.92205 0.85447
 H1648 H 0.76303 0.84907 0.80967
 H1649 H 0.75143 0.94396 0.88683
 H1650 H 0.76557 0.80955 0.85003
 C1651 C 0.24869 0.42736 0.40417
 C1652 C 0.25792 0.40367 0.40645
 C1653 C 0.25726 0.38482 0.38707
 C1654 C 0.26210 0.36053 0.39355
 C1655 C 0.26234 0.34208 0.37601
 C1656 C 0.25768 0.34750 0.35143
 C1657 C 0.25313 0.37183 0.34487
 C1658 C 0.25288 0.39033 0.36245
 C1659 C 0.25841 0.32858 0.33209
 C1660 C 0.25681 0.30352 0.33661
 H1661 H 0.26502 0.39804 0.42393
 H1662 H 0.26587 0.35579 0.41231
 H1663 H 0.26673 0.32380 0.38185
 H1664 H 0.24983 0.37659 0.32602
 H1665 H 0.24972 0.40885 0.35653
 H1666 H 0.25989 0.33473 0.31340
 H1667 H 0.23901 0.43255 0.38787
 H1668 H 0.25395 0.29687 0.35493
 C1669 C 0.27048 0.92548 0.06771
 C1670 C 0.25008 0.91336 0.07683
 C1671 C 0.25119 0.89819 0.09903
 C1672 C 0.23545 0.87823 0.10136
 C1673 C 0.23612 0.86359 0.12217
 C1674 C 0.25240 0.86888 0.14116
 C1675 C 0.26744 0.88940 0.13926
 C1676 C 0.26697 0.90388 0.11833
 C1677 C 0.25394 0.85336 0.16306
 C1678 C 0.25036 0.82826 0.16186
 H1679 H 0.23275 0.91475 0.06772
 H1680 H 0.22280 0.87381 0.08694
 H1681 H 0.22371 0.84833 0.12346
 H1682 H 0.27983 0.89404 0.15385
 H1683 H 0.27869 0.91970 0.11750
 H1684 H 0.25976 0.86153 0.18003
 H1685 H 0.28778 0.92262 0.07665
 H1686 H 0.24676 0.81978 0.14443
 C1687 C 0.74098 0.41865 0.56459
 C1688 C 0.76164 0.41474 0.57880
 C1689 C 0.76299 0.39532 0.59745
 C1690 C 0.77776 0.39880 0.61796
 C1691 C 0.77918 0.38092 0.63607
 C1692 C 0.76603 0.35907 0.63381
 C1693 C 0.75180 0.35534 0.61297
 C1694 C 0.75016 0.37331 0.59501
 C1695 C 0.76747 0.33941 0.65219
 C1696 C 0.77285 0.34338 0.67673
 H1697 H 0.77645 0.42772 0.57784
 H1698 H 0.78807 0.41548 0.62006
 H1699 H 0.79092 0.38410 0.65152
 H1700 H 0.74181 0.33848 0.61063
 H1701 H 0.73918 0.36973 0.57909
 H1702 H 0.76285 0.32112 0.64633
 H1703 H 0.72491 0.40770 0.56777
 H1704 H 0.77550 0.36173 0.68346
 C1705 C 0.08468 0.07600 0.72683
 C1706 C 0.08334 0.09753 0.74039
 C1707 C 0.10287 0.11618 0.74014
 C1708 C 0.09736 0.14021 0.74697
 C1709 C 0.11552 0.15809 0.74753
 C1710 C 0.13968 0.15219 0.74134
 C1711 C 0.14519 0.12807 0.73486
 C1712 C 0.12708 0.11025 0.73430
 C1713 C 0.15985 0.17012 0.74221
 C1714 C 0.15680 0.19536 0.74405
 H1715 H 0.06721 0.10140 0.75102
 H1716 H 0.07894 0.14518 0.75194
 H1717 H 0.11050 0.17625 0.75327
 H1718 H 0.16369 0.12290 0.73038
 H1719 H 0.13232 0.09177 0.72985
 H1720 H 0.17820 0.16299 0.74093
 H1721 H 0.09953 0.07380 0.71404
 H1722 H 0.13882 0.20330 0.74445
 C1723 C 0.57443 0.57417 0.22885
 C1724 C 0.57634 0.59464 0.24388
 C1725 C 0.59696 0.61202 0.24255
 C1726 C 0.59375 0.63564 0.25178
 C1727 C 0.61272 0.65257 0.25106
 C1728 C 0.63545 0.64621 0.24104
 C1729 C 0.63892 0.62236 0.23249
 C1730 C 0.61991 0.60542 0.23318
 C1731 C 0.65597 0.66372 0.24000
 C1732 C 0.65250 0.68891 0.23981
 H1733 H 0.56178 0.59897 0.25639
 H1734 H 0.57645 0.64106 0.25957
 H1735 H 0.60956 0.67042 0.25880
 H1736 H 0.65638 0.61685 0.22516
 H1737 H 0.62347 0.58713 0.22677
 H1738 H 0.67429 0.65654 0.23873
 H1739 H 0.58795 0.57152 0.21476
 H1740 H 0.63425 0.69627 0.23948
 C1741 C 0.07578 0.92397 0.23607
 C1742 C 0.09351 0.91916 0.25365
 C1743 C 0.11033 0.89819 0.25146
 C1744 C 0.13370 0.89989 0.26143
 C1745 C 0.14996 0.88038 0.25959
 C1746 C 0.14303 0.85862 0.24793
 C1747 C 0.11936 0.85658 0.23874
 C1748 C 0.10318 0.87620 0.24035
 C1749 C 0.15992 0.83771 0.24569
 C1750 C 0.18496 0.84100 0.24357
 H1751 H 0.09606 0.93128 0.26893
 H1752 H 0.13945 0.91644 0.27050
 H1753 H 0.16779 0.88226 0.26766
 H1754 H 0.11347 0.83986 0.23009
 H1755 H 0.08498 0.87394 0.23327
 H1756 H 0.15243 0.81948 0.24471
 H1757 H 0.07602 0.91273 0.21984
 H1758 H 0.19223 0.85932 0.24246
 C1759 C 0.58580 0.41430 0.73692
 C1760 C 0.60453 0.41195 0.75391
 C1761 C 0.62282 0.39210 0.75280
 C1762 C 0.64546 0.39560 0.76396
 C1763 C 0.66318 0.37733 0.76331
 C1764 C 0.65855 0.35504 0.75149
 C1765 C 0.63563 0.35124 0.74102
 C1766 C 0.61794 0.36954 0.74162
 C1767 C 0.67690 0.33529 0.75024
 C1768 C 0.70185 0.33959 0.75184
 H1769 H 0.60675 0.42548 0.76801
 H1770 H 0.64952 0.41260 0.77312
 H1771 H 0.68026 0.38065 0.77242
 H1772 H 0.63145 0.33408 0.73221
 H1773 H 0.60038 0.36572 0.73366
 H1774 H 0.67060 0.31691 0.74670
 H1775 H 0.58532 0.40169 0.72178
 H1776 H 0.70854 0.35804 0.75365
 C1777 C 0.89853 0.06139 0.24709
 C1778 C 0.89481 0.08261 0.23343
 C1779 C 0.87325 0.09877 0.23548
 C1780 C 0.87470 0.12208 0.22505
 C1781 C 0.85527 0.13835 0.22674
 C1782 C 0.83382 0.13175 0.23905
 C1783 C 0.83190 0.10813 0.24872
 C1784 C 0.85145 0.09177 0.24706
 C1785 C 0.81333 0.14915 0.24176
 C1786 C 0.81719 0.17428 0.24283
 H1787 H 0.90930 0.08893 0.22167
 H1788 H 0.89105 0.12785 0.21563
 H1789 H 0.85710 0.15602 0.21815
 H1790 H 0.81539 0.10246 0.25790
 H1791 H 0.84926 0.07375 0.25471
 H1792 H 0.79510 0.14203 0.24414
 H1793 H 0.88530 0.05613 0.26071
 H1794 H 0.83561 0.18123 0.24259
 C1795 C 0.41546 0.56040 0.74493
 C1796 C 0.41013 0.58085 0.73071
 C1797 C 0.38700 0.59463 0.73235
 C1798 C 0.38665 0.61879 0.72402
 C1799 C 0.36549 0.63275 0.72558
 C1800 C 0.34402 0.62277 0.73538
 C1801 C 0.34409 0.59836 0.74303
 C1802 C 0.36537 0.58437 0.74155
 C1803 C 0.32175 0.63771 0.73835
 C1804 C 0.32257 0.66276 0.73499
 H1805 H 0.42413 0.58838 0.71908
 H1806 H 0.40295 0.62706 0.71659
 H1807 H 0.36609 0.65143 0.71924
 H1808 H 0.32774 0.59018 0.75044
 H1809 H 0.36467 0.56557 0.74742
 H1810 H 0.30508 0.62923 0.74470
 H1811 H 0.40246 0.55449 0.75852
 H1812 H 0.31002 0.67082 0.73768
 C1813 C 0.93864 0.90521 0.74342
 C1814 C 0.91683 0.90188 0.73088
 C1815 C 0.90040 0.88082 0.73449
 C1816 C 0.87614 0.88316 0.72709
 C1817 C 0.85981 0.86396 0.73009
 C1818 C 0.86739 0.84189 0.74065
 C1819 C 0.89184 0.83918 0.74736
 C1820 C 0.90824 0.85850 0.74441
 C1821 C 0.85023 0.82143 0.74420
 C1822 C 0.82546 0.82540 0.74800
 H1823 H 0.91039 0.91629 0.71909
 H1824 H 0.86972 0.89999 0.71900
 H1825 H 0.84136 0.86639 0.72375
 H1826 H 0.89819 0.82217 0.75510
 H1827 H 0.92698 0.85571 0.74961
 H1828 H 0.85729 0.80299 0.74446
 H1829 H 0.94387 0.89231 0.75736
 H1830 H 0.81873 0.84385 0.74985
 C1831 C 0.41106 0.41937 0.24947
 C1832 C 0.41127 0.40137 0.26746
 C1833 C 0.39156 0.38315 0.26978
 C1834 C 0.39676 0.36027 0.27988
 C1835 C 0.37875 0.34235 0.28140
 C1836 C 0.35509 0.34708 0.27288
 C1837 C 0.34963 0.37037 0.26389
 C1838 C 0.36763 0.38825 0.26234
 C1839 C 0.33571 0.32836 0.27288
 C1840 C 0.34041 0.30336 0.27314
 H1841 H 0.42693 0.39936 0.27914
 H1842 H 0.41493 0.35610 0.28623
 H1843 H 0.38348 0.32496 0.28935
 H1844 H 0.33145 0.37465 0.25766
 H1845 H 0.36267 0.40603 0.25544
 H1846 H 0.31711 0.33449 0.27068
 H1847 H 0.39651 0.41922 0.23623
 H1848 H 0.35889 0.29672 0.27422
   
