data_POSCAR
  _audit_creation_date              2014-09-24
  _audit_creation_method            'ToBaCCo'
  _symmetry_space_group_name_H-M    'P1'
  _symmetry_Int_Tables_number       1
  _symmetry_cell_setting            triclinic
  loop_
  _symmetry_equiv_pos_as_xyz
 x,y,z
_cell_length_a 72.7818
_cell_length_b 72.6987
_cell_length_c 72.7538
_cell_angle_alpha 90.034800
_cell_angle_beta 90.028300
_cell_angle_gamma 90.040000
loop_
  _atom_site_label
  _atom_site_type_symbol
  _atom_site_fract_x
  _atom_site_fract_y
  _atom_site_fract_z
O1 O 0.34526 0.32086 -0.01813
 O2 O 0.31994 0.34584 0.01778
 O3 O 0.34524 0.32054 0.01756
 O4 O 0.31995 0.34616 -0.01792
 O5 O 0.29852 0.32474 -0.01819
 O6 O 0.32386 0.29903 0.01736
 O7 O 0.29848 0.32441 0.01758
 O8 O 0.32387 0.29936 -0.01840
 Cu9 Cu 0.33473 0.33549 -0.00015
 Cu10 Cu 0.30903 0.30973 -0.00043
 C11 C 0.33898 0.30579 -0.02436
 C12 C 0.30483 0.33947 0.02378
 C13 C 0.33896 0.30535 0.02348
 C14 C 0.30484 0.33994 -0.02412
 O15 O 0.67974 0.65434 0.01757
 O16 O 0.65463 0.67955 -0.01831
 O17 O 0.67999 0.65431 -0.01812
 O18 O 0.65439 0.67959 0.01739
 O19 O 0.67573 0.70113 0.01758
 O20 O 0.70138 0.67577 -0.01801
 O21 O 0.67596 0.70111 -0.01820
 O22 O 0.70116 0.67581 0.01774
 Cu23 Cu 0.66505 0.66480 -0.00039
 Cu24 Cu 0.69070 0.69062 -0.00021
 C25 C 0.69479 0.66069 0.02375
 C26 C 0.66092 0.69469 -0.02435
 C27 C 0.69515 0.66060 -0.02411
 C28 C 0.66061 0.69473 0.02352
 O29 O 0.65498 0.32014 1.01812
 O30 O 0.68027 0.34539 0.98237
 O31 O 0.65490 0.32013 0.98242
 O32 O 0.68029 0.34547 1.01807
 O33 O 0.70171 0.32406 1.01811
 O34 O 0.67624 0.29861 0.98238
 O35 O 0.70169 0.32395 0.98234
 O36 O 0.67634 0.29865 1.01815
 Cu37 Cu 0.66548 0.33493 1.00025
 Cu38 Cu 0.69114 0.30916 1.00025
 C39 C 0.66126 0.30503 1.02420
 C40 C 0.69536 0.33906 0.97629
 C41 C 0.66115 0.30499 0.97635
 C42 C 0.69542 0.33921 1.02417
 O43 O 0.34557 0.67926 1.01835
 O44 O 0.32034 0.65409 0.98244
 O45 O 0.34568 0.67940 0.98265
 O46 O 0.32028 0.65390 1.01814
 O47 O 0.29884 0.67529 1.01823
 O48 O 0.32431 0.70089 0.98267
 O49 O 0.29890 0.67551 0.98246
 O50 O 0.32418 0.70074 1.01843
 Cu51 Cu 0.33511 0.66453 1.00039
 Cu52 Cu 0.30941 0.69026 1.00045
 C53 C 0.33927 0.69435 1.02449
 C54 C 0.30526 0.66043 0.97635
 C55 C 0.33942 0.69455 0.97663
 C56 C 0.30514 0.66012 1.02424
 O57 O -0.01814 0.34570 0.32063
 O58 O 0.01767 0.32035 0.34570
 O59 O 0.01755 0.34576 0.32049
 O60 O -0.01800 0.32034 0.34588
 O61 O -0.01815 0.29891 0.32445
 O62 O 0.01748 0.32440 0.29895
 O63 O 0.01760 0.29891 0.32424
 O64 O -0.01828 0.32432 0.29911
 Cu65 Cu -0.00022 0.33518 0.33532
 Cu66 Cu -0.00035 0.30949 0.30953
 C67 C -0.02430 0.33942 0.30554
 C68 C 0.02370 0.30524 0.33934
 C69 C 0.02355 0.33951 0.30533
 C70 C -0.02414 0.30520 0.33962
 O71 O 0.01773 0.67979 0.65440
 O72 O -0.01822 0.65494 0.67979
 O73 O -0.01795 0.68019 0.65442
 O74 O 0.01746 0.65452 0.67976
 O75 O 0.01778 0.67599 0.70118
 O76 O -0.01770 0.70171 0.67576
 O77 O -0.01796 0.67641 0.70121
 O78 O 0.01804 0.70133 0.67576
 Cu79 Cu -0.00027 0.66521 0.66496
 Cu80 Cu 0.00006 0.69102 0.69062
 C81 C 0.02399 0.69486 0.66066
 C82 C -0.02419 0.66134 0.69489
 C83 C -0.02386 0.69542 0.66065
 C84 C 0.02363 0.66079 0.69485
 O85 O 1.01789 0.65461 0.32026
 O86 O 0.98218 0.67995 0.34551
 O87 O 0.98220 0.65459 0.32020
 O88 O 1.01785 0.67991 0.34560
 O89 O 1.01795 0.70139 0.32424
 O90 O 0.98222 0.67600 0.29874
 O91 O 0.98221 0.70142 0.32411
 O92 O 1.01798 0.67603 0.29881
 Cu93 Cu 1.00002 0.66512 0.33503
 Cu94 Cu 1.00009 0.69086 0.30932
 C95 C 1.02401 0.66092 0.30518
 C96 C 0.97614 0.69507 0.33921
 C97 C 0.97615 0.66089 0.30508
 C98 C 1.02399 0.69505 0.33937
 O99 O 0.98192 0.32021 0.65439
 O100 O 1.01789 0.34523 0.67965
 O101 O 1.01761 0.31993 0.65430
 O102 O 0.98221 0.34549 0.67977
 O103 O 0.98207 0.32403 0.70118
 O104 O 1.01754 0.29843 0.67564
 O105 O 1.01782 0.32378 0.70108
 O106 O 0.98179 0.29868 0.67574
 Cu107 Cu 0.99992 0.33486 0.66489
 Cu108 Cu 0.99980 0.30908 0.69056
 C109 C 0.97575 0.30512 0.66067
 C110 C 1.02396 0.33886 0.69473
 C111 C 1.02362 0.30473 0.66051
 C112 C 0.97613 0.33921 0.69488
 O113 O 0.34505 0.01829 0.32004
 O114 O 0.32013 -0.01765 0.34542
 O115 O 0.34544 -0.01743 0.32014
 O116 O 0.31978 0.01808 0.34537
 O117 O 0.29830 0.01781 0.32398
 O118 O 0.32404 -0.01777 0.29867
 O119 O 0.29867 -0.01798 0.32401
 O120 O 0.32364 0.01802 0.29857
 Cu121 Cu 0.33474 0.00035 0.33489
 Cu122 Cu 0.30901 -0.00000 0.30916
 C123 C 0.33869 0.02424 0.30491
 C124 C 0.30510 -0.02392 0.33913
 C125 C 0.33921 -0.02363 0.30505
 C126 C 0.30460 0.02396 0.33908
 O127 O 0.65412 0.01816 0.67934
 O128 O 0.67953 -0.01773 0.65439
 O129 O 0.65412 -0.01757 0.67957
 O130 O 0.67947 0.01799 0.65409
 O131 O 0.70087 0.01823 0.67556
 O132 O 0.67543 -0.01739 0.70112
 O133 O 0.70092 -0.01755 0.67587
 O134 O 0.67545 0.01840 0.70088
 Cu135 Cu 0.66467 0.00019 0.66470
 Cu136 Cu 0.69031 0.00044 0.69052
 C137 C 0.66036 0.02438 0.69442
 C138 C 0.69462 -0.02373 0.66079
 C139 C 0.66036 -0.02352 0.69474
 C140 C 0.69455 0.02414 0.66038
 O141 O 0.34535 0.98204 0.67981
 O142 O 0.31990 1.01774 0.65463
 O143 O 0.34527 1.01777 0.67986
 O144 O 0.32004 0.98201 0.65450
 O145 O 0.29860 0.98185 0.67592
 O146 O 0.32393 1.01768 0.70138
 O147 O 0.29849 1.01765 0.67607
 O148 O 0.32399 0.98188 0.70129
 Cu149 Cu 0.33478 0.99990 0.66506
 Cu150 Cu 0.30911 0.99975 0.69082
 C151 C 0.33909 0.97590 0.69490
 C152 C 0.30480 1.02375 0.66098
 C153 C 0.33900 1.02380 0.69500
 C154 C 0.30496 0.97586 0.66079
 O155 O 0.65486 0.98228 0.32040
 O156 O 0.68010 1.01825 0.34548
 O157 O 0.65472 1.01801 0.32023
 O158 O 0.68022 0.98253 0.34567
 O159 O 0.70163 0.98247 0.32423
 O160 O 0.67606 1.01802 0.29872
 O161 O 0.70149 1.01826 0.32406
 O162 O 0.67620 0.98222 0.29889
 Cu163 Cu 0.66534 1.00027 0.33508
 Cu164 Cu 0.69099 1.00024 0.30932
 C165 C 0.66115 0.97614 0.30531
 C166 C 0.69519 1.02439 0.33917
 C167 C 0.66095 1.02403 0.30507
 C168 C 0.69533 0.97648 0.33937
 C169 C 0.86141 0.78145 0.50976
 C170 C 0.86138 0.78147 0.49091
 C171 C 0.85263 0.79751 0.48551
 N172 N 0.84735 0.80729 0.50040
 C173 C 0.85269 0.79748 0.51524
 C174 C 0.85087 0.80351 0.46713
 C175 C 0.83985 0.81862 0.46187
 C176 C 0.84065 0.82728 0.44491
 C177 C 0.82729 0.84064 0.44494
 C178 C 0.81868 0.83978 0.46192
 N179 N 0.82634 0.82625 0.47212
 C180 C 0.80358 0.85078 0.46724
 C181 C 0.79759 0.85243 0.48563
 C182 C 0.78153 0.86108 0.49109
 C183 C 0.78152 0.86101 0.50994
 C184 C 0.79758 0.85232 0.51536
 N185 N 0.80740 0.84710 0.50048
 C186 C 0.80355 0.85056 0.53375
 C187 C 0.81868 0.83958 0.53902
 C188 C 0.82729 0.84039 0.55602
 C189 C 0.84070 0.82707 0.55599
 C190 C 0.83991 0.81848 0.53898
 N191 N 0.82638 0.82611 0.52876
 C192 C 0.85098 0.80343 0.53365
 H193 H 0.86733 0.77091 0.51843
 H194 H 0.86726 0.77095 0.48219
 H195 H 0.82141 0.82114 0.51632
 H196 H 0.84990 0.82427 0.43365
 H197 H 0.82425 0.84991 0.43372
 H198 H 0.77099 0.86698 0.48241
 H199 H 0.77097 0.86684 0.51865
 H200 H 0.84995 0.82405 0.56723
 H201 H 0.82137 0.82123 0.48453
 H202 H 0.82422 0.84961 0.56729
 C203 C 0.13850 0.21876 0.50970
 C204 C 0.13853 0.21873 0.49085
 C205 C 0.14724 0.20266 0.48544
 N206 N 0.15251 0.19288 0.50033
 C207 C 0.14721 0.20271 0.51517
 C208 C 0.14898 0.19665 0.46706
 C209 C 0.15997 0.18151 0.46180
 C210 C 0.15914 0.17285 0.44483
 C211 C 0.17249 0.15947 0.44485
 C212 C 0.18111 0.16033 0.46184
 N213 N 0.17347 0.17387 0.47204
 C214 C 0.19621 0.14932 0.46715
 C215 C 0.20219 0.14765 0.48554
 C216 C 0.21823 0.13896 0.49101
 C217 C 0.21823 0.13902 0.50985
 C218 C 0.20220 0.14775 0.51528
 N219 N 0.19239 0.15299 0.50040
 C220 C 0.19623 0.14952 0.53366
 C221 C 0.18113 0.16055 0.53894
 C222 C 0.17253 0.15976 0.55593
 C223 C 0.15916 0.17312 0.55590
 C224 C 0.15996 0.18170 0.53890
 N225 N 0.17347 0.17403 0.52869
 C226 C 0.14891 0.19677 0.53358
 H227 H 0.13261 0.22931 0.51837
 H228 H 0.13266 0.22925 0.48213
 H229 H 0.17843 0.17898 0.51625
 H230 H 0.14989 0.17586 0.43357
 H231 H 0.17551 0.15019 0.43362
 H232 H 0.22876 0.13305 0.48233
 H233 H 0.22877 0.13317 0.51857
 H234 H 0.14992 0.17617 0.56715
 H235 H 0.17846 0.17889 0.48446
 H236 H 0.17558 0.15054 0.56719
 C237 C 0.12781 0.79219 0.49008
 C238 C 0.12782 0.79218 0.50893
 C239 C 0.14405 0.80056 0.51438
 N240 N 0.15396 0.80563 0.49951
 C241 C 0.14403 0.80057 0.48464
 C242 C 0.14995 0.80242 0.53279
 C243 C 0.16519 0.81327 0.53805
 C244 C 0.17364 0.81261 0.55512
 C245 C 0.18701 0.82599 0.55515
 C246 C 0.18636 0.83445 0.53808
 N247 N 0.17299 0.82666 0.52777
 C248 C 0.19724 0.84970 0.53286
 C249 C 0.19913 0.85556 0.51445
 C250 C 0.20756 0.87176 0.50900
 C251 C 0.20759 0.87173 0.49015
 C252 C 0.19917 0.85550 0.48471
 N253 N 0.19406 0.84561 0.49958
 C254 C 0.19732 0.84958 0.46630
 C255 C 0.18642 0.83437 0.46104
 C256 C 0.18706 0.82589 0.44397
 C257 C 0.17364 0.81256 0.44395
 C258 C 0.16518 0.81325 0.46101
 N259 N 0.17301 0.82662 0.47132
 C260 C 0.14991 0.80242 0.46623
 H261 H 0.11710 0.78660 0.48139
 H262 H 0.11713 0.78659 0.51762
 H263 H 0.16809 0.83157 0.48378
 H264 H 0.17043 0.80352 0.56645
 H265 H 0.19609 0.82920 0.56649
 H266 H 0.21316 0.88248 0.51769
 H267 H 0.21322 0.88241 0.48146
 H268 H 0.17040 0.80347 0.43261
 H269 H 0.16807 0.83160 0.51530
 H270 H 0.19616 0.82907 0.43265
 C271 C 0.79282 0.12751 0.50848
 C272 C 0.79287 0.12757 0.48963
 C273 C 0.80128 0.14382 0.48427
 N274 N 0.80631 0.15370 0.49920
 C275 C 0.80119 0.14372 0.51401
 C276 C 0.80319 0.14978 0.46589
 C277 C 0.81409 0.16502 0.46073
 C278 C 0.81350 0.17351 0.44367
 C279 C 0.82687 0.18689 0.44375
 C280 C 0.83526 0.18620 0.46086
 N281 N 0.82743 0.17280 0.47109
 C282 C 0.85045 0.19710 0.46620
 C283 C 0.85623 0.19897 0.48465
 C284 C 0.87238 0.20743 0.49020
 C285 C 0.87227 0.20741 0.50905
 C286 C 0.85606 0.19894 0.51438
 N287 N 0.84625 0.19384 0.49945
 C288 C 0.85008 0.19704 0.53276
 C289 C 0.83487 0.18610 0.53791
 C290 C 0.82635 0.18670 0.55494
 C291 C 0.81304 0.17326 0.55486
 C292 C 0.81379 0.16483 0.53778
 N293 N 0.82718 0.17269 0.52755
 C294 C 0.80299 0.14956 0.53245
 H295 H 0.78719 0.11677 0.51711
 H296 H 0.78729 0.11690 0.48088
 H297 H 0.83217 0.16780 0.51510
 H298 H 0.80445 0.17032 0.43229
 H299 H 0.83012 0.19600 0.43245
 H300 H 0.88310 0.21308 0.48158
 H301 H 0.88290 0.21305 0.51781
 H302 H 0.80392 0.17000 0.56615
 H303 H 0.83230 0.16785 0.48357
 H304 H 0.82948 0.19579 0.56631
 C305 C 0.49025 0.87241 0.79299
 C306 C 0.50909 0.87248 0.79294
 C307 C 0.51461 0.85629 0.80133
 N308 N 0.49979 0.84631 0.80645
 C309 C 0.48488 0.85617 0.80141
 C310 C 0.53303 0.85046 0.80314
 C311 C 0.53833 0.83522 0.81396
 C312 C 0.55539 0.82677 0.81322
 C313 C 0.55546 0.81337 0.82655
 C314 C 0.53843 0.81400 0.83508
 N315 N 0.52810 0.82739 0.82737
 C316 C 0.53327 0.80310 0.85031
 C317 C 0.51490 0.80122 0.85630
 C318 C 0.50955 0.79281 0.87253
 C319 C 0.49071 0.79280 0.87264
 C320 C 0.48517 0.80120 0.85646
 N321 N 0.49998 0.80629 0.84647
 C322 C 0.46673 0.80304 0.85067
 C323 C 0.46141 0.81388 0.83545
 C324 C 0.44432 0.81316 0.82705
 C325 C 0.44426 0.82649 0.81364
 C326 C 0.46132 0.83499 0.81423
 N327 N 0.47166 0.82726 0.82759
 C328 C 0.46650 0.85021 0.80330
 H329 H 0.48151 0.88307 0.78740
 H330 H 0.51773 0.88321 0.78731
 H331 H 0.48414 0.83223 0.83247
 H332 H 0.56668 0.83000 0.80408
 H333 H 0.56680 0.80428 0.82969
 H334 H 0.51830 0.78720 0.88317
 H335 H 0.48209 0.78719 0.88338
 H336 H 0.43289 0.82965 0.80458
 H337 H 0.51566 0.83230 0.83236
 H338 H 0.43302 0.80405 0.83031
 C339 C 0.49060 0.21883 0.13875
 C340 C 0.50944 0.21883 0.13887
 C341 C 0.51481 0.20277 0.14760
 N342 N 0.49991 0.19296 0.15279
 C343 C 0.48509 0.20277 0.14741
 C344 C 0.53318 0.19678 0.14944
 C345 C 0.53840 0.18166 0.16047
 C346 C 0.55538 0.17304 0.15974
 C347 C 0.55530 0.15966 0.17310
 C348 C 0.53828 0.16048 0.18162
 N349 N 0.52811 0.17400 0.17392
 C350 C 0.53291 0.14945 0.19669
 C351 C 0.51450 0.14775 0.20257
 C352 C 0.50896 0.13906 0.21859
 C353 C 0.49012 0.13909 0.21850
 C354 C 0.48477 0.14780 0.20242
 N355 N 0.49969 0.15306 0.19269
 C356 C 0.46642 0.14955 0.19635
 C357 C 0.46122 0.16054 0.18120
 C358 C 0.44428 0.15972 0.17250
 C359 C 0.44436 0.17307 0.15912
 C360 C 0.46134 0.18170 0.16002
 N361 N 0.47150 0.17405 0.17359
 C362 C 0.46669 0.19680 0.14903
 H363 H 0.48195 0.22938 0.13281
 H364 H 0.51817 0.22937 0.13304
 H365 H 0.48390 0.17903 0.17864
 H366 H 0.56667 0.17607 0.15055
 H367 H 0.56652 0.15040 0.17618
 H368 H 0.51760 0.13316 0.22917
 H369 H 0.48137 0.13323 0.22899
 H370 H 0.43316 0.17610 0.14981
 H371 H 0.51567 0.17900 0.17884
 H372 H 0.43301 0.15047 0.17548
 C373 C 0.50913 0.12822 0.79236
 C374 C 0.49029 0.12822 0.79239
 C375 C 0.48487 0.14443 0.80083
 N376 N 0.49975 0.15434 0.80592
 C377 C 0.51460 0.14442 0.80080
 C378 C 0.46648 0.15033 0.80273
 C379 C 0.46129 0.16559 0.81358
 C380 C 0.44425 0.17409 0.81291
 C381 C 0.44429 0.18749 0.82626
 C382 C 0.46136 0.18681 0.83472
 N383 N 0.47161 0.17338 0.82695
 C384 C 0.46663 0.19768 0.84995
 C385 C 0.48503 0.19949 0.85588
 C386 C 0.49048 0.20788 0.87211
 C387 C 0.50932 0.20781 0.87216
 C388 C 0.51476 0.19938 0.85596
 N389 N 0.49989 0.19435 0.84600
 C390 C 0.53316 0.19744 0.85012
 C391 C 0.53837 0.18659 0.83486
 C392 C 0.55545 0.18722 0.82643
 C393 C 0.55540 0.17390 0.81300
 C394 C 0.53830 0.16548 0.81361
 N395 N 0.52803 0.17326 0.82701
 C396 C 0.53301 0.15030 0.80267
 H397 H 0.51779 0.11752 0.78672
 H398 H 0.48158 0.11753 0.78677
 H399 H 0.51555 0.16835 0.83190
 H400 H 0.43290 0.17089 0.80382
 H401 H 0.43299 0.19662 0.82945
 H402 H 0.48179 0.21353 0.88278
 H403 H 0.51801 0.21338 0.88288
 H404 H 0.56672 0.17069 0.80391
 H405 H 0.48405 0.16843 0.83189
 H406 H 0.56681 0.19627 0.82968
 C407 C 0.49112 0.87235 0.20756
 C408 C 0.50996 0.87224 0.20755
 C409 C 0.51529 0.85600 0.19911
 N410 N 0.50035 0.84617 0.19402
 C411 C 0.48556 0.85617 0.19913
 C412 C 0.53365 0.85001 0.19722
 C413 C 0.53880 0.83478 0.18629
 C414 C 0.55583 0.82626 0.18689
 C415 C 0.55575 0.81292 0.17347
 C416 C 0.53866 0.81366 0.16505
 N417 N 0.52845 0.82706 0.17291
 C418 C 0.53333 0.80284 0.14981
 C419 C 0.51490 0.80104 0.14398
 C420 C 0.50936 0.79265 0.12779
 C421 C 0.49052 0.79268 0.12787
 C422 C 0.48517 0.80110 0.14411
 N423 N 0.50010 0.80615 0.15396
 C424 C 0.46680 0.80299 0.15008
 C425 C 0.46164 0.81392 0.16530
 C426 C 0.44460 0.81334 0.17379
 C427 C 0.44468 0.82675 0.18713
 C428 C 0.46178 0.83515 0.18642
 N429 N 0.47201 0.82730 0.17304
 C430 C 0.46712 0.85039 0.19727
 H431 H 0.48251 0.88310 0.21320
 H432 H 0.51872 0.88288 0.21318
 H433 H 0.48448 0.83217 0.16808
 H434 H 0.56720 0.82940 0.19596
 H435 H 0.56703 0.80380 0.17021
 H436 H 0.51798 0.78702 0.11705
 H437 H 0.48176 0.78710 0.11721
 H438 H 0.43339 0.83002 0.19623
 H439 H 0.51599 0.83205 0.16803
 H440 H 0.43322 0.80427 0.17063
 C441 C 0.86101 0.49109 0.78140
 C442 C 0.86095 0.50995 0.78145
 C443 C 0.85227 0.51534 0.79753
 N444 N 0.84706 0.50042 0.80731
 C445 C 0.85236 0.48558 0.79746
 C446 C 0.85052 0.53373 0.80356
 C447 C 0.83955 0.53896 0.81871
 C448 C 0.84036 0.55595 0.82736
 C449 C 0.82704 0.55589 0.84076
 C450 C 0.81846 0.53887 0.83993
 N451 N 0.82609 0.52868 0.82637
 C452 C 0.80340 0.53352 0.85097
 C453 C 0.79747 0.51509 0.85265
 C454 C 0.78146 0.50958 0.86138
 C455 C 0.78150 0.49072 0.86131
 C456 C 0.79753 0.48534 0.85255
 N457 N 0.80729 0.50025 0.84729
 C458 C 0.80354 0.46695 0.85076
 C459 C 0.81862 0.46171 0.83970
 C460 C 0.82726 0.44473 0.84045
 C461 C 0.84059 0.44479 0.82706
 C462 C 0.83973 0.46181 0.81850
 N463 N 0.82623 0.47199 0.82620
 C464 C 0.85071 0.46716 0.80339
 H465 H 0.86688 0.48243 0.77083
 H466 H 0.86677 0.51870 0.77092
 H467 H 0.82121 0.48443 0.82127
 H468 H 0.84957 0.56724 0.82433
 H469 H 0.82401 0.56712 0.85005
 H470 H 0.77093 0.51824 0.86731
 H471 H 0.77100 0.48197 0.86719
 H472 H 0.84985 0.43356 0.82398
 H473 H 0.82112 0.51624 0.82137
 H474 H 0.82427 0.43345 0.84968
 C475 C 0.20701 0.49047 0.12754
 C476 C 0.20711 0.50933 0.12748
 C477 C 0.19876 0.51488 0.14368
 N478 N 0.19360 0.50006 0.15364
 C479 C 0.19858 0.48512 0.14377
 C480 C 0.19701 0.53334 0.14952
 C481 C 0.18621 0.53868 0.16475
 C482 C 0.18699 0.55578 0.17318
 C483 C 0.17367 0.55587 0.18658
 C484 C 0.16511 0.53883 0.18597
 N485 N 0.17280 0.52846 0.17259
 C486 C 0.14990 0.53368 0.19689
 C487 C 0.14387 0.51530 0.19877
 C488 C 0.12764 0.50998 0.20720
 C489 C 0.12750 0.49112 0.20722
 C490 C 0.14364 0.48554 0.19880
 N491 N 0.15366 0.50034 0.19369
 C492 C 0.14939 0.46707 0.19695
 C493 C 0.16457 0.46172 0.18609
 C494 C 0.17293 0.44460 0.18679
 C495 C 0.18630 0.44450 0.17343
 C496 C 0.18574 0.46157 0.16495
 N497 N 0.17242 0.47196 0.17270
 C498 C 0.19664 0.46673 0.14972
 H499 H 0.21255 0.48171 0.11688
 H500 H 0.21275 0.51796 0.11676
 H501 H 0.16756 0.48444 0.16774
 H502 H 0.19613 0.56707 0.16994
 H503 H 0.17055 0.56725 0.19566
 H504 H 0.11703 0.51876 0.21281
 H505 H 0.11675 0.48250 0.21284
 H506 H 0.19532 0.43311 0.17026
 H507 H 0.16779 0.51600 0.16770
 H508 H 0.16966 0.43330 0.19590
 C509 C 0.87215 0.50937 0.20723
 C510 C 0.87210 0.49051 0.20729
 C511 C 0.85590 0.48507 0.19885
 N512 N 0.84604 0.49995 0.19370
 C513 C 0.85599 0.51483 0.19877
 C514 C 0.84996 0.46665 0.19703
 C515 C 0.83478 0.46138 0.18611
 C516 C 0.82630 0.44431 0.18677
 C517 C 0.81300 0.44427 0.17333
 C518 C 0.81373 0.46133 0.16483
 N519 N 0.82708 0.47165 0.17266
 C520 C 0.80294 0.46654 0.14954
 C521 C 0.80110 0.48495 0.14363
 C522 C 0.79274 0.49038 0.12740
 C523 C 0.79274 0.50925 0.12739
 C524 C 0.80111 0.51472 0.14362
 N525 N 0.80616 0.49985 0.15355
 C526 C 0.80295 0.53315 0.14951
 C527 C 0.81380 0.53843 0.16475
 C528 C 0.81315 0.55553 0.17318
 C529 C 0.82650 0.55556 0.18656
 C530 C 0.83495 0.53848 0.18594
 N531 N 0.82717 0.52815 0.17257
 C532 C 0.85015 0.53326 0.19684
 H533 H 0.88285 0.51807 0.21285
 H534 H 0.88274 0.48181 0.21296
 H535 H 0.83209 0.51566 0.16766
 H536 H 0.82944 0.43300 0.19591
 H537 H 0.80391 0.43293 0.17011
 H538 H 0.78716 0.48167 0.11669
 H539 H 0.78715 0.51793 0.11668
 H540 H 0.82971 0.56693 0.19564
 H541 H 0.83205 0.48410 0.16772
 H542 H 0.80407 0.56686 0.16995
 C543 C 0.20720 0.50958 0.87234
 C544 C 0.20729 0.49072 0.87239
 C545 C 0.19884 0.48517 0.85623
 N546 N 0.19365 0.49999 0.84629
 C547 C 0.19871 0.51493 0.85615
 C548 C 0.19704 0.46671 0.85040
 C549 C 0.18618 0.46137 0.83520
 C550 C 0.18692 0.44428 0.82676
 C551 C 0.17354 0.44418 0.81340
 C552 C 0.16499 0.46121 0.81405
 N553 N 0.17273 0.47158 0.82742
 C554 C 0.14972 0.46635 0.80320
 C555 C 0.14369 0.48472 0.80136
 C556 C 0.12743 0.49004 0.79299
 C557 C 0.12729 0.50890 0.79299
 C558 C 0.14348 0.51448 0.80135
 N559 N 0.15351 0.49968 0.80641
 C560 C 0.14924 0.53295 0.80318
 C561 C 0.16448 0.53832 0.81399
 C562 C 0.17283 0.55546 0.81327
 C563 C 0.18627 0.55556 0.82657
 C564 C 0.18576 0.53848 0.83504
 N565 N 0.17240 0.52809 0.82734
 C566 C 0.19674 0.53332 0.85021
 H567 H 0.21281 0.51834 0.88298
 H568 H 0.21297 0.48209 0.88309
 H569 H 0.16757 0.51558 0.83229
 H570 H 0.19607 0.43300 0.82996
 H571 H 0.17039 0.43281 0.80432
 H572 H 0.11679 0.48125 0.78741
 H573 H 0.11652 0.51750 0.78741
 H574 H 0.19532 0.56696 0.82972
 H575 H 0.16774 0.48403 0.83234
 H576 H 0.16952 0.56676 0.80419
 C577 C 0.29136 0.37670 0.05766
 C578 C 0.27425 0.37037 0.06372
 C579 C 0.26731 0.35368 0.05707
 C580 C 0.27735 0.34346 0.04425
 C581 C 0.29447 0.34984 0.03790
 C582 C 0.30142 0.36653 0.04485
 C583 C 0.26364 0.38134 0.07629
 C584 C 0.25488 0.39093 0.08657
 C585 C 0.24476 0.40261 0.09830
 C586 C 0.23626 0.41296 0.10805
 C587 C 0.22629 0.42577 0.11935
 C588 C 0.23583 0.43915 0.12940
 C589 C 0.22618 0.45229 0.13957
 C590 C 0.20689 0.45218 0.13972
 C591 C 0.19738 0.43854 0.12990
 C592 C 0.20705 0.42540 0.11973
 H593 H 0.29685 0.38962 0.06269
 H594 H 0.25405 0.34867 0.06164
 H595 H 0.27162 0.33068 0.03916
 H596 H 0.31454 0.37183 0.04026
 H597 H 0.25071 0.43960 0.12917
 H598 H 0.23371 0.46270 0.14712
 H599 H 0.18250 0.43830 0.12987
 H600 H 0.19954 0.41514 0.11196
 C601 C 0.73211 0.64627 0.05719
 C602 C 0.72519 0.62949 0.06358
 C603 C 0.70815 0.62315 0.05730
 C604 C 0.69815 0.63342 0.04453
 C605 C 0.70508 0.65021 0.03784
 C606 C 0.72212 0.65659 0.04441
 C607 C 0.73575 0.61843 0.07612
 C608 C 0.74450 0.60878 0.08636
 C609 C 0.75461 0.59706 0.09805
 C610 C 0.76312 0.58670 0.10777
 C611 C 0.77314 0.57390 0.11904
 C612 C 0.79238 0.57435 0.11945
 C613 C 0.80210 0.56126 0.12963
 C614 C 0.79264 0.54759 0.13944
 C615 C 0.77335 0.54740 0.13924
 C616 C 0.76365 0.56048 0.12906
 H617 H 0.74532 0.65128 0.06193
 H618 H 0.70268 0.61015 0.06213
 H619 H 0.68508 0.62811 0.03976
 H620 H 0.72784 0.66944 0.03952
 H621 H 0.79985 0.58464 0.11170
 H622 H 0.81698 0.56157 0.12963
 H623 H 0.76586 0.53697 0.14678
 H624 H 0.74877 0.55998 0.12881
 C625 C 0.70899 0.37663 0.94286
 C626 C 0.72608 0.37031 0.93674
 C627 C 0.73293 0.35351 0.94317
 C628 C 0.72282 0.34317 0.95584
 C629 C 0.70573 0.34955 0.96227
 C630 C 0.69887 0.36633 0.95553
 C631 C 0.73681 0.38143 0.92440
 C632 C 0.74573 0.39112 0.91436
 C633 C 0.75608 0.40291 0.90296
 C634 C 0.76483 0.41336 0.89353
 C635 C 0.77514 0.42629 0.88268
 C636 C 0.77459 0.42548 0.86345
 C637 C 0.78405 0.43858 0.85301
 C638 C 0.79407 0.45259 0.86174
 C639 C 0.79478 0.45316 0.88102
 C640 C 0.78534 0.44009 0.89143
 H641 H 0.70358 0.38963 0.93801
 H642 H 0.74617 0.34852 0.93855
 H643 H 0.72849 0.33032 0.96076
 H644 H 0.68577 0.37163 0.96019
 H645 H 0.76671 0.41488 0.85655
 H646 H 0.78337 0.43797 0.83815
 H647 H 0.80250 0.46386 0.88795
 H648 H 0.78583 0.44085 0.90630
 C649 C 0.26787 0.64616 0.94287
 C650 C 0.27477 0.62941 0.93636
 C651 C 0.29181 0.62304 0.94258
 C652 C 0.30184 0.63325 0.95541
 C653 C 0.29494 0.65000 0.96222
 C654 C 0.27789 0.65641 0.95571
 C655 C 0.26418 0.61843 0.92374
 C656 C 0.25540 0.60886 0.91343
 C657 C 0.24525 0.59723 0.90167
 C658 C 0.23669 0.58693 0.89189
 C659 C 0.22664 0.57419 0.88056
 C660 C 0.23610 0.56085 0.87040
 C661 C 0.22637 0.54776 0.86023
 C662 C 0.20707 0.54786 0.86018
 C663 C 0.19765 0.56146 0.87010
 C664 C 0.20740 0.57456 0.88028
 H665 H 0.25468 0.65120 0.93817
 H666 H 0.29726 0.61008 0.93766
 H667 H 0.31490 0.62792 0.96013
 H668 H 0.27219 0.66924 0.96068
 H669 H 0.25098 0.56040 0.87057
 H670 H 0.23384 0.53737 0.85261
 H671 H 0.18277 0.56170 0.87022
 H672 H 0.19995 0.58478 0.88814
 C673 C 0.05718 0.29151 0.37680
 C674 C 0.06321 0.27437 0.37048
 C675 C 0.05673 0.26752 0.35370
 C676 C 0.04408 0.27768 0.34339
 C677 C 0.03773 0.29482 0.34977
 C678 C 0.04454 0.30168 0.36654
 C679 C 0.07552 0.26359 0.38158
 C680 C 0.08554 0.25463 0.39126
 C681 C 0.09690 0.24424 0.40305
 C682 C 0.10630 0.23547 0.41350
 C683 C 0.11712 0.22514 0.42642
 C684 C 0.13635 0.22560 0.42561
 C685 C 0.14676 0.21612 0.43870
 C686 C 0.13801 0.20616 0.45272
 C687 C 0.11874 0.20553 0.45331
 C688 C 0.10835 0.21500 0.44023
 H689 H 0.06208 0.29692 0.38979
 H690 H 0.06127 0.25424 0.34870
 H691 H 0.03910 0.27201 0.33055
 H692 H 0.03995 0.31482 0.37184
 H693 H 0.14326 0.23343 0.41500
 H694 H 0.16162 0.21674 0.43808
 H695 H 0.11179 0.19785 0.46400
 H696 H 0.09349 0.21457 0.44100
 C697 C 0.05757 0.73202 0.64605
 C698 C 0.06390 0.72499 0.62929
 C699 C 0.05753 0.70794 0.62304
 C700 C 0.04474 0.69802 0.63337
 C701 C 0.03811 0.70505 0.65012
 C702 C 0.04476 0.72211 0.65642
 C703 C 0.07646 0.73547 0.61818
 C704 C 0.08672 0.74416 0.60850
 C705 C 0.09842 0.75421 0.59676
 C706 C 0.10816 0.76269 0.58638
 C707 C 0.11944 0.77268 0.57357
 C708 C 0.12945 0.76314 0.56017
 C709 C 0.13964 0.77281 0.54708
 C710 C 0.13987 0.79213 0.54725
 C711 C 0.13008 0.80163 0.56089
 C712 C 0.11989 0.79193 0.57399
 H713 H 0.06237 0.74523 0.65099
 H714 H 0.06231 0.70239 0.61007
 H715 H 0.03991 0.68493 0.62813
 H716 H 0.03993 0.72791 0.66925
 H717 H 0.12916 0.74825 0.55970
 H718 H 0.14717 0.76529 0.53667
 H719 H 0.13010 0.81653 0.56118
 H720 H 0.11215 0.79945 0.58426
 C721 C 0.94315 0.73276 0.35372
 C722 C 0.93671 0.72589 0.37049
 C723 C 0.94278 0.70876 0.37678
 C724 C 0.95540 0.69860 0.36647
 C725 C 0.96215 0.70548 0.34970
 C726 C 0.95578 0.72262 0.34336
 C727 C 0.92440 0.73665 0.38163
 C728 C 0.91439 0.74559 0.39133
 C729 C 0.90302 0.75596 0.40313
 C730 C 0.89362 0.76472 0.41359
 C731 C 0.88278 0.77504 0.42651
 C732 C 0.89153 0.78522 0.44033
 C733 C 0.88113 0.79468 0.45339
 C734 C 0.86186 0.79401 0.45280
 C735 C 0.85312 0.78401 0.43877
 C736 C 0.86355 0.77454 0.42569
 H737 H 0.93857 0.74604 0.34875
 H738 H 0.93792 0.70334 0.38977
 H739 H 0.96002 0.68547 0.37174
 H740 H 0.96071 0.72830 0.33053
 H741 H 0.90639 0.78568 0.44110
 H742 H 0.88806 0.80239 0.46409
 H743 H 0.83826 0.78337 0.43814
 H744 H 0.85665 0.76668 0.41508
 C745 C 0.94223 0.26784 0.64614
 C746 C 0.93581 0.27483 0.62941
 C747 C 0.94208 0.29191 0.62315
 C748 C 0.95489 0.30188 0.63344
 C749 C 0.96162 0.29487 0.65017
 C750 C 0.95505 0.27779 0.65648
 C751 C 0.92324 0.26430 0.61832
 C752 C 0.91298 0.25557 0.60866
 C753 C 0.90128 0.24547 0.59692
 C754 C 0.89157 0.23695 0.58653
 C755 C 0.88032 0.22692 0.57371
 C756 C 0.87029 0.23641 0.56030
 C757 C 0.86016 0.22669 0.54717
 C758 C 0.86004 0.20738 0.54729
 C759 C 0.86985 0.19792 0.56095
 C760 C 0.87997 0.20766 0.57409
 H761 H 0.93749 0.25461 0.65109
 H762 H 0.93722 0.29744 0.61020
 H763 H 0.95965 0.31497 0.62820
 H764 H 0.95996 0.27201 0.66928
 H765 H 0.87050 0.25130 0.55985
 H766 H 0.85263 0.23418 0.53674
 H767 H 0.86991 0.18302 0.56121
 H768 H 0.88773 0.20018 0.58437
 C769 C 0.37599 0.05793 0.29118
 C770 C 0.36970 0.06384 0.27400
 C771 C 0.35300 0.05722 0.26712
 C772 C 0.34272 0.04454 0.27730
 C773 C 0.34907 0.03831 0.29448
 C774 C 0.36575 0.04526 0.30137
 C775 C 0.38079 0.07615 0.26320
 C776 C 0.39048 0.08616 0.25423
 C777 C 0.40227 0.09752 0.24384
 C778 C 0.41274 0.10691 0.23507
 C779 C 0.42569 0.11772 0.22475
 C780 C 0.43951 0.10892 0.21467
 C781 C 0.45261 0.11929 0.20523
 C782 C 0.45205 0.13859 0.20583
 C783 C 0.43802 0.14738 0.21573
 C784 C 0.42490 0.13697 0.22519
 H785 H 0.38892 0.06293 0.29661
 H786 H 0.34803 0.06166 0.25381
 H787 H 0.32994 0.03945 0.27160
 H788 H 0.37103 0.04076 0.31454
 H789 H 0.44026 0.09404 0.21426
 H790 H 0.46332 0.11232 0.19759
 H791 H 0.43741 0.16225 0.21633
 H792 H 0.41428 0.14391 0.23298
 C793 C 0.64580 0.05791 0.73164
 C794 C 0.62905 0.06426 0.72466
 C795 C 0.62277 0.05792 0.70762
 C796 C 0.63307 0.04513 0.69766
 C797 C 0.64983 0.03848 0.70465
 C798 C 0.65616 0.04511 0.72170
 C799 C 0.61797 0.07682 0.73518
 C800 C 0.60834 0.08709 0.74392
 C801 C 0.59666 0.09880 0.75405
 C802 C 0.58635 0.10854 0.76260
 C803 C 0.57362 0.11983 0.77268
 C804 C 0.56027 0.12997 0.76324
 C805 C 0.54724 0.14016 0.77300
 C806 C 0.54743 0.14025 0.79230
 C807 C 0.56104 0.13033 0.80170
 C808 C 0.57407 0.12014 0.79192
 H809 H 0.65077 0.06270 0.74484
 H810 H 0.60979 0.06272 0.70211
 H811 H 0.62781 0.04032 0.68459
 H812 H 0.66899 0.04026 0.72746
 H813 H 0.55977 0.12980 0.74836
 H814 H 0.53685 0.14779 0.76555
 H815 H 0.56134 0.13024 0.81659
 H816 H 0.58431 0.11229 0.79936
 C817 C 0.35362 0.94254 0.73226
 C818 C 0.37038 0.93616 0.72534
 C819 C 0.37669 0.94243 0.70829
 C820 C 0.36639 0.95518 0.69828
 C821 C 0.34962 0.96186 0.70521
 C822 C 0.34328 0.95530 0.72226
 C823 C 0.38143 0.92360 0.73590
 C824 C 0.39104 0.91334 0.74466
 C825 C 0.40270 0.90162 0.75479
 C826 C 0.41301 0.89187 0.76334
 C827 C 0.42574 0.88056 0.77339
 C828 C 0.43912 0.87046 0.76393
 C829 C 0.45218 0.86029 0.77366
 C830 C 0.45201 0.86018 0.79296
 C831 C 0.43838 0.87005 0.80239
 C832 C 0.42531 0.88022 0.79263
 H833 H 0.34863 0.93780 0.74547
 H834 H 0.38967 0.93761 0.70282
 H835 H 0.37167 0.95994 0.68520
 H836 H 0.33044 0.96016 0.72798
 H837 H 0.43961 0.87066 0.74904
 H838 H 0.46258 0.85271 0.76619
 H839 H 0.43809 0.87012 0.81727
 H840 H 0.41506 0.88803 0.80009
 C841 C 0.62371 0.94237 0.29206
 C842 C 0.63000 0.93611 0.27499
 C843 C 0.64670 0.94259 0.26801
 C844 C 0.65700 0.95544 0.27797
 C845 C 0.65068 0.96199 0.29504
 C846 C 0.63397 0.95521 0.30203
 C847 C 0.61896 0.92349 0.26446
 C848 C 0.60934 0.91319 0.25573
 C849 C 0.59765 0.90143 0.24563
 C850 C 0.58731 0.89167 0.23711
 C851 C 0.57453 0.88036 0.22709
 C852 C 0.57494 0.87998 0.20784
 C853 C 0.56183 0.86981 0.19810
 C854 C 0.54818 0.85999 0.20755
 C855 C 0.54803 0.86014 0.22685
 C856 C 0.56113 0.87031 0.23657
 H857 H 0.61078 0.93747 0.29757
 H858 H 0.65167 0.93787 0.25479
 H859 H 0.66980 0.96040 0.27221
 H860 H 0.62870 0.95995 0.31512
 H861 H 0.58521 0.88775 0.20037
 H862 H 0.56211 0.86985 0.18322
 H863 H 0.53760 0.85259 0.23434
 H864 H 0.56065 0.87054 0.25145
 C865 C 0.37657 0.29259 0.94211
 C866 C 0.37028 0.27554 0.93577
 C867 C 0.35352 0.26856 0.94211
 C868 C 0.34316 0.27850 0.95490
 C869 C 0.34949 0.29556 0.96154
 C870 C 0.36626 0.30255 0.95490
 C871 C 0.38138 0.26501 0.92323
 C872 C 0.39104 0.25629 0.91299
 C873 C 0.40276 0.24618 0.90131
 C874 C 0.41313 0.23766 0.89160
 C875 C 0.42591 0.22761 0.88035
 C876 C 0.42544 0.20835 0.87995
 C877 C 0.43852 0.19860 0.86980
 C878 C 0.45219 0.20804 0.85999
 C879 C 0.45241 0.22735 0.86017
 C880 C 0.43934 0.23709 0.87033
 H881 H 0.38955 0.29810 0.93733
 H882 H 0.34854 0.25535 0.93731
 H883 H 0.33032 0.27274 0.95974
 H884 H 0.37153 0.31563 0.95971
 H885 H 0.41514 0.20089 0.88770
 H886 H 0.43819 0.18370 0.86981
 H887 H 0.46285 0.23483 0.85264
 H888 H 0.43986 0.25198 0.87057
 C889 C 0.62357 0.70804 0.94190
 C890 C 0.62981 0.72519 0.93583
 C891 C 0.64648 0.73220 0.94241
 C892 C 0.65677 0.72217 0.95519
 C893 C 0.65048 0.70501 0.96156
 C894 C 0.63382 0.69800 0.95467
 C895 C 0.61875 0.73579 0.92331
 C896 C 0.60911 0.74456 0.91309
 C897 C 0.59738 0.75469 0.90144
 C898 C 0.58699 0.76322 0.89176
 C899 C 0.57417 0.77325 0.88053
 C900 C 0.56073 0.76375 0.87052
 C901 C 0.54761 0.77346 0.86041
 C902 C 0.54778 0.79277 0.86027
 C903 C 0.56146 0.80224 0.87007
 C904 C 0.57459 0.79251 0.88018
 H905 H 0.61066 0.70250 0.93693
 H906 H 0.65141 0.74549 0.93783
 H907 H 0.66953 0.72796 0.96023
 H908 H 0.62858 0.68484 0.95928
 H909 H 0.56025 0.74886 0.87074
 H910 H 0.53717 0.76596 0.85289
 H911 H 0.56175 0.81714 0.87011
 H912 H 0.58489 0.79999 0.88792
 C913 C 0.35369 0.73179 0.05789
 C914 C 0.37044 0.72487 0.06433
 C915 C 0.37675 0.70779 0.05810
 C916 C 0.36648 0.69775 0.04533
 C917 C 0.34974 0.70467 0.03858
 C918 C 0.34338 0.72175 0.04511
 C919 C 0.38149 0.73548 0.07687
 C920 C 0.39111 0.74427 0.08711
 C921 C 0.40281 0.75443 0.09880
 C922 C 0.41316 0.76299 0.10851
 C923 C 0.42595 0.77305 0.11978
 C924 C 0.43936 0.76359 0.12982
 C925 C 0.45246 0.77333 0.13996
 C926 C 0.45229 0.79264 0.14010
 C927 C 0.43862 0.80208 0.13029
 C928 C 0.42551 0.79231 0.12015
 H929 H 0.34870 0.74501 0.06259
 H930 H 0.38972 0.70233 0.06297
 H931 H 0.37177 0.68465 0.04060
 H932 H 0.33056 0.72747 0.04019
 H933 H 0.43985 0.74869 0.12959
 H934 H 0.46290 0.76585 0.14750
 H935 H 0.43833 0.81697 0.13024
 H936 H 0.41523 0.79977 0.11239
 C937 C 0.64673 0.26746 0.05733
 C938 C 0.62997 0.27436 0.06376
 C939 C 0.62371 0.29149 0.05765
 C940 C 0.63403 0.30160 0.04499
 C941 C 0.65077 0.29467 0.03823
 C942 C 0.65708 0.27755 0.04466
 C943 C 0.61883 0.26365 0.07610
 C944 C 0.60912 0.25473 0.08613
 C945 C 0.59730 0.24438 0.09750
 C946 C 0.58683 0.23563 0.10689
 C947 C 0.57388 0.22530 0.11768
 C948 C 0.57463 0.22580 0.13692
 C949 C 0.56152 0.21631 0.14731
 C950 C 0.54754 0.20630 0.13851
 C951 C 0.54702 0.20564 0.11923
 C952 C 0.56011 0.21512 0.10888
 H953 H 0.65167 0.25418 0.06194
 H954 H 0.61074 0.29695 0.06251
 H955 H 0.62877 0.31472 0.04033
 H956 H 0.66990 0.27183 0.03973
 H957 H 0.58521 0.23366 0.14387
 H958 H 0.56210 0.21695 0.16217
 H959 H 0.53635 0.19793 0.11225
 H960 H 0.55939 0.21466 0.09401
 C961 C 0.26715 0.05687 0.64667
 C962 C 0.27397 0.06336 0.62990
 C963 C 0.29105 0.05727 0.62354
 C964 C 0.30120 0.04459 0.63378
 C965 C 0.29437 0.03778 0.65054
 C966 C 0.27729 0.04418 0.65696
 C967 C 0.26321 0.07574 0.61885
 C968 C 0.25427 0.08582 0.60921
 C969 C 0.24389 0.09725 0.59747
 C970 C 0.23511 0.10669 0.58707
 C971 C 0.22476 0.11756 0.57420
 C972 C 0.22527 0.13681 0.57503
 C973 C 0.21578 0.14726 0.56198
 C974 C 0.20574 0.13852 0.54798
 C975 C 0.20506 0.11923 0.54738
 C976 C 0.21455 0.10881 0.56042
 H977 H 0.25391 0.06146 0.65170
 H978 H 0.29644 0.06217 0.61055
 H979 H 0.31430 0.03996 0.62845
 H980 H 0.27164 0.03921 0.66980
 H981 H 0.23316 0.14371 0.58561
 H982 H 0.21643 0.16213 0.56261
 H983 H 0.19733 0.11229 0.53671
 H984 H 0.21407 0.09393 0.55963
 C985 C 0.73201 0.05739 0.35280
 C986 C 0.72525 0.06372 0.36965
 C987 C 0.70833 0.05734 0.37614
 C988 C 0.69826 0.04452 0.36596
 C989 C 0.70501 0.03780 0.34906
 C990 C 0.72198 0.04455 0.34255
 C991 C 0.73587 0.07631 0.38063
 C992 C 0.74466 0.08660 0.39022
 C993 C 0.75481 0.09833 0.40188
 C994 C 0.76334 0.10809 0.41222
 C995 C 0.77337 0.11939 0.42501
 C996 C 0.79261 0.11976 0.42461
 C997 C 0.80233 0.12993 0.43773
 C998 C 0.79288 0.13977 0.45137
 C999 C 0.77359 0.13963 0.45150
 C1000 C 0.76389 0.12946 0.43839
 H1001 H 0.74512 0.06222 0.34767
 H1002 H 0.70298 0.06214 0.38918
 H1003 H 0.68529 0.03975 0.37148
 H1004 H 0.72766 0.03979 0.32964
 H1005 H 0.80008 0.11197 0.41435
 H1006 H 0.81721 0.12988 0.43747
 H1007 H 0.76610 0.14719 0.46192
 H1008 H 0.74901 0.12924 0.43885
 C1009 C 0.73232 0.94314 0.64664
 C1010 C 0.72551 0.93658 0.62988
 C1011 C 0.70842 0.94260 0.62348
 C1012 C 0.69824 0.95531 0.63367
 C1013 C 0.70505 0.96219 0.65043
 C1014 C 0.72215 0.95586 0.65688
 C1015 C 0.73631 0.92420 0.61886
 C1016 C 0.74529 0.91413 0.60924
 C1017 C 0.75572 0.90271 0.59754
 C1018 C 0.76453 0.89329 0.58715
 C1019 C 0.77493 0.88245 0.57429
 C1020 C 0.77447 0.86320 0.57510
 C1021 C 0.78401 0.85277 0.56205
 C1022 C 0.79401 0.86153 0.54807
 C1023 C 0.79464 0.88083 0.54750
 C1024 C 0.78512 0.89122 0.56053
 H1025 H 0.74556 0.93860 0.65170
 H1026 H 0.70305 0.93764 0.61050
 H1027 H 0.68514 0.95990 0.62832
 H1028 H 0.72779 0.96089 0.66971
 H1029 H 0.76660 0.85627 0.58567
 H1030 H 0.78339 0.83789 0.56266
 H1031 H 0.80235 0.88779 0.53683
 H1032 H 0.78555 0.90610 0.55976
 C1033 C 0.29195 0.94247 0.37670
 C1034 C 0.27498 0.93602 0.37035
 C1035 C 0.26802 0.94233 0.35356
 C1036 C 0.27792 0.95520 0.34325
 C1037 C 0.29490 0.96193 0.34963
 C1038 C 0.30186 0.95532 0.36643
 C1039 C 0.26451 0.92337 0.38138
 C1040 C 0.25582 0.91304 0.39098
 C1041 C 0.24574 0.90125 0.40263
 C1042 C 0.23723 0.89145 0.41292
 C1043 C 0.22721 0.88009 0.42564
 C1044 C 0.23667 0.87002 0.43903
 C1045 C 0.22695 0.85980 0.45206
 C1046 C 0.20766 0.85962 0.45185
 C1047 C 0.19823 0.86947 0.43821
 C1048 C 0.20797 0.87969 0.42516
 H1049 H 0.29744 0.93770 0.38970
 H1050 H 0.25487 0.93746 0.34854
 H1051 H 0.27218 0.96001 0.33039
 H1052 H 0.31488 0.96021 0.37174
 H1053 H 0.25155 0.87028 0.43955
 H1054 H 0.23442 0.85224 0.46248
 H1055 H 0.18335 0.86949 0.43789
 H1056 H 0.20051 0.88748 0.41490
 C1057 C 0.05733 0.35315 0.73222
 C1058 C 0.06390 0.36987 0.72530
 C1059 C 0.05777 0.37619 0.70821
 C1060 C 0.04496 0.36598 0.69815
 C1061 C 0.03809 0.34927 0.70508
 C1062 C 0.04452 0.34289 0.72218
 C1063 C 0.07646 0.38088 0.73591
 C1064 C 0.08673 0.39049 0.74469
 C1065 C 0.09844 0.40219 0.75482
 C1066 C 0.10817 0.41256 0.76335
 C1067 C 0.11944 0.42538 0.77337
 C1068 C 0.12940 0.43885 0.76388
 C1069 C 0.13954 0.45199 0.77358
 C1070 C 0.13976 0.45180 0.79288
 C1071 C 0.13003 0.43807 0.80234
 C1072 C 0.11989 0.42493 0.79261
 H1073 H 0.06196 0.34815 0.74546
 H1074 H 0.06273 0.38913 0.70273
 H1075 H 0.04031 0.37128 0.68504
 H1076 H 0.03949 0.33009 0.72789
 H1077 H 0.12911 0.43935 0.74900
 H1078 H 0.14701 0.46246 0.76609
 H1079 H 0.13004 0.43777 0.81722
 H1080 H 0.11219 0.41460 0.80008
 C1081 C 0.05761 0.62344 0.29178
 C1082 C 0.06389 0.62981 0.27477
 C1083 C 0.05746 0.64657 0.26786
 C1084 C 0.04465 0.65685 0.27784
 C1085 C 0.03808 0.65045 0.29487
 C1086 C 0.04480 0.63367 0.30178
 C1087 C 0.07650 0.61881 0.26422
 C1088 C 0.08680 0.60924 0.25547
 C1089 C 0.09855 0.59760 0.24534
 C1090 C 0.10832 0.58730 0.23680
 C1091 C 0.11963 0.57455 0.22677
 C1092 C 0.12000 0.57499 0.20752
 C1093 C 0.13015 0.56189 0.19778
 C1094 C 0.13997 0.54822 0.20722
 C1095 C 0.13984 0.54806 0.22652
 C1096 C 0.12968 0.56115 0.23624
 H1097 H 0.06246 0.61046 0.29724
 H1098 H 0.06221 0.65161 0.25467
 H1099 H 0.03974 0.66970 0.27213
 H1100 H 0.04004 0.62835 0.31484
 H1101 H 0.11222 0.58526 0.20006
 H1102 H 0.13009 0.56217 0.18289
 H1103 H 0.14737 0.53762 0.23400
 H1104 H 0.12946 0.56066 0.25112
 C1105 C 0.94212 0.37695 0.29225
 C1106 C 0.93584 0.37063 0.27520
 C1107 C 0.94224 0.35387 0.26825
 C1108 C 0.95504 0.34355 0.27821
 C1109 C 0.96161 0.34992 0.29527
 C1110 C 0.95491 0.36668 0.30223
 C1111 C 0.92327 0.38168 0.26466
 C1112 C 0.91301 0.39128 0.25590
 C1113 C 0.90130 0.40294 0.24576
 C1114 C 0.89156 0.41325 0.23719
 C1115 C 0.88028 0.42598 0.22710
 C1116 C 0.87994 0.42546 0.20786
 C1117 C 0.86978 0.43851 0.19805
 C1118 C 0.85994 0.45221 0.20743
 C1119 C 0.86006 0.45246 0.22673
 C1120 C 0.87022 0.43942 0.23651
 H1121 H 0.93728 0.38993 0.29775
 H1122 H 0.93749 0.34887 0.25504
 H1123 H 0.95993 0.33071 0.27247
 H1124 H 0.95968 0.37197 0.31531
 H1125 H 0.88772 0.41516 0.20044
 H1126 H 0.86984 0.43816 0.18317
 H1127 H 0.85250 0.46291 0.23416
 H1128 H 0.87043 0.43997 0.25139
 C1129 C 0.94209 0.62407 0.70861
 C1130 C 0.93616 0.63040 0.72577
 C1131 C 0.94278 0.64713 0.73263
 C1132 C 0.95547 0.65739 0.72247
 C1133 C 0.96173 0.65099 0.70531
 C1134 C 0.95478 0.63428 0.69844
 C1135 C 0.92382 0.61933 0.73657
 C1136 C 0.91380 0.60966 0.74554
 C1137 C 0.90244 0.59787 0.75593
 C1138 C 0.89306 0.58741 0.76471
 C1139 C 0.88227 0.57445 0.77505
 C1140 C 0.89107 0.56065 0.78516
 C1141 C 0.88072 0.54754 0.79463
 C1142 C 0.86145 0.54809 0.79404
 C1143 C 0.85266 0.56211 0.78410
 C1144 C 0.86304 0.57523 0.77461
 H1145 H 0.93709 0.61111 0.70320
 H1146 H 0.93831 0.65213 0.74593
 H1147 H 0.96056 0.67018 0.72815
 H1148 H 0.95930 0.62896 0.68529
 H1149 H 0.90594 0.55991 0.78557
 H1150 H 0.88769 0.53685 0.80230
 H1151 H 0.83780 0.56271 0.78351
 H1152 H 0.85610 0.58584 0.76680
 C1153 C 0.70869 0.62338 0.94340
 C1154 C 0.72569 0.62983 0.93721
 C1155 C 0.73237 0.64676 0.94350
 C1156 C 0.72218 0.65710 0.95611
 C1157 C 0.70512 0.65061 0.96268
 C1158 C 0.69846 0.63365 0.95599
 C1159 C 0.73650 0.61874 0.92490
 C1160 C 0.74546 0.60906 0.91487
 C1161 C 0.75584 0.59729 0.90346
 C1162 C 0.76460 0.58687 0.89401
 C1163 C 0.77491 0.57398 0.88310
 C1164 C 0.77441 0.57488 0.86387
 C1165 C 0.78388 0.56184 0.85337
 C1166 C 0.79388 0.54779 0.86203
 C1167 C 0.79454 0.54712 0.88131
 C1168 C 0.78508 0.56014 0.89178
 H1169 H 0.70341 0.61027 0.93864
 H1170 H 0.74554 0.65187 0.93882
 H1171 H 0.72780 0.67006 0.96085
 H1172 H 0.68543 0.62814 0.96063
 H1173 H 0.76656 0.58551 0.85702
 H1174 H 0.78324 0.56253 0.83851
 H1175 H 0.80224 0.53640 0.88819
 H1176 H 0.78554 0.55930 0.90664
 C1177 C 0.29181 0.37726 0.94333
 C1178 C 0.27490 0.37083 0.93684
 C1179 C 0.26810 0.35392 0.94300
 C1180 C 0.27807 0.34355 0.95576
 C1181 C 0.29504 0.35000 0.96261
 C1182 C 0.30182 0.36696 0.95608
 C1183 C 0.26437 0.38188 0.92426
 C1184 C 0.25564 0.39149 0.91396
 C1185 C 0.24554 0.40315 0.90220
 C1186 C 0.23702 0.41345 0.89241
 C1187 C 0.22698 0.42616 0.88105
 C1188 C 0.20774 0.42566 0.88064
 C1189 C 0.19799 0.43867 0.87039
 C1190 C 0.20740 0.45231 0.86050
 C1191 C 0.22670 0.45255 0.86069
 C1192 C 0.23643 0.43954 0.87095
 H1193 H 0.29720 0.39035 0.93867
 H1194 H 0.25500 0.34882 0.93807
 H1195 H 0.27235 0.33059 0.96036
 H1196 H 0.31479 0.37244 0.96093
 H1197 H 0.20029 0.41540 0.88845
 H1198 H 0.18311 0.43832 0.87040
 H1199 H 0.23416 0.46296 0.85310
 H1200 H 0.25130 0.44008 0.87120
 C1201 C 0.29198 0.62286 0.05682
 C1202 C 0.27504 0.62927 0.06320
 C1203 C 0.26825 0.64615 0.05696
 C1204 C 0.27828 0.65651 0.04423
 C1205 C 0.29528 0.65008 0.03750
 C1206 C 0.30204 0.63314 0.04410
 C1207 C 0.26445 0.61822 0.07574
 C1208 C 0.25569 0.60860 0.08600
 C1209 C 0.24555 0.59693 0.09773
 C1210 C 0.23702 0.58662 0.10750
 C1211 C 0.22697 0.57389 0.11885
 C1212 C 0.23641 0.56046 0.12889
 C1213 C 0.22667 0.54746 0.13915
 C1214 C 0.20738 0.54773 0.13940
 C1215 C 0.19797 0.56142 0.12956
 C1216 C 0.20773 0.57443 0.11931
 H1217 H 0.29735 0.60979 0.06154
 H1218 H 0.25512 0.65123 0.06180
 H1219 H 0.27257 0.66944 0.03956
 H1220 H 0.31504 0.62768 0.03934
 H1221 H 0.25128 0.55989 0.12860
 H1222 H 0.23413 0.53702 0.14670
 H1223 H 0.18309 0.56180 0.12960
 H1224 H 0.20029 0.58473 0.11155
 C1225 C 0.70857 0.37640 0.05689
 C1226 C 0.72552 0.36997 0.06326
 C1227 C 0.73231 0.35311 0.05698
 C1228 C 0.72228 0.34277 0.04421
 C1229 C 0.70527 0.34921 0.03748
 C1230 C 0.69851 0.36613 0.04414
 C1231 C 0.73611 0.38102 0.07582
 C1232 C 0.74484 0.39067 0.08610
 C1233 C 0.75492 0.40241 0.09783
 C1234 C 0.76338 0.41280 0.10760
 C1235 C 0.77332 0.42564 0.11893
 C1236 C 0.76377 0.43906 0.12889
 C1237 C 0.77340 0.45219 0.13912
 C1238 C 0.79269 0.45203 0.13943
 C1239 C 0.80221 0.43835 0.12970
 C1240 C 0.79256 0.42522 0.11947
 H1241 H 0.70320 0.38945 0.06165
 H1242 H 0.74544 0.34802 0.06180
 H1243 H 0.72798 0.32985 0.03949
 H1244 H 0.68551 0.37160 0.03938
 H1245 H 0.74889 0.43953 0.12854
 H1246 H 0.76585 0.46262 0.14660
 H1247 H 0.81709 0.43807 0.12979
 H1248 H 0.80008 0.41493 0.11177
 C1249 C 0.94357 0.70887 0.62350
 C1250 C 0.93744 0.72594 0.62989
 C1251 C 0.94381 0.73269 0.64674
 C1252 C 0.95643 0.72251 0.65708
 C1253 C 0.96293 0.70539 0.65066
 C1254 C 0.95617 0.69865 0.63377
 C1255 C 0.92510 0.73672 0.61881
 C1256 C 0.91504 0.74565 0.60914
 C1257 C 0.90359 0.75600 0.59739
 C1258 C 0.89412 0.76473 0.58697
 C1259 C 0.88318 0.77502 0.57410
 C1260 C 0.89182 0.78521 0.56026
 C1261 C 0.88132 0.79465 0.54724
 C1262 C 0.86206 0.79393 0.54792
 C1263 C 0.85343 0.78390 0.56197
 C1264 C 0.86396 0.77446 0.57499
 H1265 H 0.93874 0.70352 0.61045
 H1266 H 0.93918 0.74591 0.65180
 H1267 H 0.96122 0.72820 0.66998
 H1268 H 0.96075 0.68557 0.62831
 H1269 H 0.90668 0.78572 0.55942
 H1270 H 0.88819 0.80238 0.53653
 H1271 H 0.83858 0.78321 0.56266
 H1272 H 0.85713 0.76658 0.58562
 C1273 C 0.94307 0.26829 0.35347
 C1274 C 0.93685 0.27506 0.37036
 C1275 C 0.94327 0.29200 0.37682
 C1276 C 0.95600 0.30208 0.36657
 C1277 C 0.96258 0.29534 0.34962
 C1278 C 0.95581 0.27833 0.34315
 C1279 C 0.92430 0.26445 0.38138
 C1280 C 0.91403 0.25568 0.39098
 C1281 C 0.90228 0.24554 0.40263
 C1282 C 0.89251 0.23701 0.41293
 C1283 C 0.88115 0.22697 0.42564
 C1284 C 0.87100 0.23646 0.43896
 C1285 C 0.86073 0.22675 0.45196
 C1286 C 0.86058 0.20743 0.45180
 C1287 C 0.87052 0.19797 0.43823
 C1288 C 0.88078 0.20771 0.42522
 H1289 H 0.93820 0.25516 0.34836
 H1290 H 0.93856 0.29736 0.38990
 H1291 H 0.96079 0.31509 0.37206
 H1292 H 0.96046 0.27264 0.33020
 H1293 H 0.87121 0.25136 0.43943
 H1294 H 0.85310 0.23424 0.46232
 H1295 H 0.87056 0.18307 0.43795
 H1296 H 0.88863 0.20023 0.41501
 C1297 C 0.05613 0.29138 0.62329
 C1298 C 0.06237 0.27436 0.62969
 C1299 C 0.05608 0.26760 0.64655
 C1300 C 0.04344 0.27773 0.65691
 C1301 C 0.03683 0.29480 0.65049
 C1302 C 0.04350 0.30154 0.63358
 C1303 C 0.07474 0.26362 0.61860
 C1304 C 0.08483 0.25470 0.60894
 C1305 C 0.09630 0.24435 0.59721
 C1306 C 0.10578 0.23560 0.58682
 C1307 C 0.11672 0.22527 0.57397
 C1308 C 0.13594 0.22581 0.57490
 C1309 C 0.14647 0.21633 0.56189
 C1310 C 0.13784 0.20628 0.54784
 C1311 C 0.11857 0.20558 0.54714
 C1312 C 0.10807 0.21505 0.56013
 H1313 H 0.06089 0.29672 0.61023
 H1314 H 0.06080 0.25441 0.65161
 H1315 H 0.03872 0.27204 0.66983
 H1316 H 0.03884 0.31460 0.62813
 H1317 H 0.14277 0.23371 0.58553
 H1318 H 0.16132 0.21701 0.56261
 H1319 H 0.11171 0.19783 0.53642
 H1320 H 0.09322 0.21455 0.55927
 C1321 C 0.05691 0.73187 0.35325
 C1322 C 0.06320 0.72503 0.37009
 C1323 C 0.05677 0.70808 0.37651
 C1324 C 0.04396 0.69806 0.36627
 C1325 C 0.03732 0.70487 0.34937
 C1326 C 0.04410 0.72188 0.34294
 C1327 C 0.07583 0.73557 0.38111
 C1328 C 0.08616 0.74429 0.39071
 C1329 C 0.09797 0.75435 0.40238
 C1330 C 0.10779 0.76282 0.41270
 C1331 C 0.11920 0.77277 0.42547
 C1332 C 0.12920 0.76321 0.43884
 C1333 C 0.13948 0.77285 0.45191
 C1334 C 0.13980 0.79216 0.45175
 C1335 C 0.13002 0.80169 0.43812
 C1336 C 0.11974 0.79203 0.42504
 H1337 H 0.06179 0.74500 0.34817
 H1338 H 0.06152 0.70268 0.38955
 H1339 H 0.03917 0.68506 0.37173
 H1340 H 0.03939 0.72762 0.33003
 H1341 H 0.12885 0.74832 0.43932
 H1342 H 0.14699 0.76530 0.46231
 H1343 H 0.13010 0.81659 0.43784
 H1344 H 0.11201 0.79956 0.41479
 C1345 C 0.62285 0.94292 0.70825
 C1346 C 0.62909 0.93685 0.72539
 C1347 C 0.64578 0.94341 0.73237
 C1348 C 0.65612 0.95614 0.72231
 C1349 C 0.64984 0.96249 0.70514
 C1350 C 0.63314 0.95564 0.69818
 C1351 C 0.61803 0.92431 0.73599
 C1352 C 0.60840 0.91404 0.74474
 C1353 C 0.59672 0.90231 0.75484
 C1354 C 0.58639 0.89253 0.76334
 C1355 C 0.57364 0.88117 0.77334
 C1356 C 0.57414 0.88069 0.79259
 C1357 C 0.56110 0.87042 0.80230
 C1358 C 0.54744 0.86059 0.79283
 C1359 C 0.54721 0.86085 0.77353
 C1360 C 0.56024 0.87112 0.76384
 H1361 H 0.60993 0.93796 0.70273
 H1362 H 0.65072 0.93883 0.74565
 H1363 H 0.66890 0.96115 0.72806
 H1364 H 0.62791 0.96023 0.68502
 H1365 H 0.58442 0.88845 0.80007
 H1366 H 0.56145 0.87038 0.81718
 H1367 H 0.53679 0.85330 0.76603
 H1368 H 0.55970 0.87143 0.74896
 C1369 C 0.35400 0.94307 0.26769
 C1370 C 0.37080 0.93681 0.27465
 C1371 C 0.37705 0.94316 0.29169
 C1372 C 0.36667 0.95586 0.30169
 C1373 C 0.34985 0.96240 0.29474
 C1374 C 0.34356 0.95577 0.27767
 C1375 C 0.38194 0.92428 0.26413
 C1376 C 0.39162 0.91403 0.25543
 C1377 C 0.40336 0.90230 0.24538
 C1378 C 0.41372 0.89253 0.23692
 C1379 C 0.42650 0.88118 0.22695
 C1380 C 0.43982 0.87109 0.23649
 C1381 C 0.45286 0.86080 0.22684
 C1382 C 0.45272 0.86057 0.20754
 C1383 C 0.43914 0.87045 0.19803
 C1384 C 0.42610 0.88074 0.20771
 H1385 H 0.34905 0.93827 0.25448
 H1386 H 0.39006 0.93844 0.29719
 H1387 H 0.37190 0.96067 0.31477
 H1388 H 0.33069 0.96054 0.27193
 H1389 H 0.44028 0.87137 0.25138
 H1390 H 0.46321 0.85321 0.23437
 H1391 H 0.43887 0.87043 0.18315
 H1392 H 0.41589 0.88853 0.20019
 C1393 C 0.62321 0.05725 0.29143
 C1394 C 0.62941 0.06332 0.27427
 C1395 C 0.64618 0.05691 0.26737
 C1396 C 0.65661 0.04432 0.27749
 C1397 C 0.65036 0.03795 0.29466
 C1398 C 0.63360 0.04467 0.30157
 C1399 C 0.61822 0.07562 0.26355
 C1400 C 0.60848 0.08564 0.25465
 C1401 C 0.59666 0.09704 0.24433
 C1402 C 0.58621 0.10647 0.23560
 C1403 C 0.57331 0.11737 0.22530
 C1404 C 0.55948 0.10866 0.21512
 C1405 C 0.54648 0.11912 0.20563
 C1406 C 0.54715 0.13841 0.20627
 C1407 C 0.56118 0.14711 0.21630
 C1408 C 0.57420 0.13662 0.22579
 H1409 H 0.61024 0.06209 0.29689
 H1410 H 0.65109 0.06148 0.25408
 H1411 H 0.66944 0.03942 0.27178
 H1412 H 0.62839 0.04006 0.31472
 H1413 H 0.55866 0.09378 0.21465
 H1414 H 0.53578 0.11220 0.19790
 H1415 H 0.56187 0.16198 0.21693
 H1416 H 0.58482 0.14349 0.23365
 C1417 C 0.37640 0.05755 0.70838
 C1418 C 0.37014 0.06372 0.72548
 C1419 C 0.35346 0.05716 0.73246
 C1420 C 0.34317 0.04434 0.72246
 C1421 C 0.34947 0.03789 0.70534
 C1422 C 0.36616 0.04474 0.69836
 C1423 C 0.38116 0.07635 0.73602
 C1424 C 0.39078 0.08668 0.74472
 C1425 C 0.40248 0.09848 0.75476
 C1426 C 0.41283 0.10829 0.76321
 C1427 C 0.42562 0.11968 0.77314
 C1428 C 0.42527 0.12015 0.79238
 C1429 C 0.43838 0.13041 0.80203
 C1430 C 0.45198 0.14023 0.79249
 C1431 C 0.45207 0.13998 0.77319
 C1432 C 0.43896 0.12972 0.76357
 H1433 H 0.38931 0.06251 0.70286
 H1434 H 0.34851 0.06181 0.74571
 H1435 H 0.33039 0.03933 0.72822
 H1436 H 0.37140 0.04008 0.68524
 H1437 H 0.41504 0.11239 0.79993
 H1438 H 0.43815 0.13045 0.81691
 H1439 H 0.46244 0.14753 0.76563
 H1440 H 0.43939 0.12942 0.74868
 C1441 C 0.64595 0.73211 0.05685
 C1442 C 0.62918 0.72515 0.06319
 C1443 C 0.62290 0.70809 0.05687
 C1444 C 0.63323 0.69809 0.04413
 C1445 C 0.65002 0.70505 0.03751
 C1446 C 0.65633 0.72213 0.04410
 C1447 C 0.61811 0.73567 0.07576
 C1448 C 0.60850 0.74439 0.08606
 C1449 C 0.59684 0.75448 0.09783
 C1450 C 0.58655 0.76299 0.10764
 C1451 C 0.57384 0.77300 0.11903
 C1452 C 0.57436 0.79225 0.11954
 C1453 C 0.56136 0.80198 0.12984
 C1454 C 0.54772 0.79251 0.13966
 C1455 C 0.54746 0.77320 0.13937
 C1456 C 0.56045 0.76349 0.12907
 H1457 H 0.65093 0.74533 0.06162
 H1458 H 0.60992 0.70258 0.06165
 H1459 H 0.62798 0.68500 0.03934
 H1460 H 0.66918 0.72788 0.03928
 H1461 H 0.58463 0.79974 0.11179
 H1462 H 0.56172 0.81687 0.12991
 H1463 H 0.53705 0.76569 0.14691
 H1464 H 0.55990 0.74860 0.12874
 C1465 C 0.35356 0.26743 0.05620
 C1466 C 0.37030 0.27433 0.06274
 C1467 C 0.37653 0.29154 0.05682
 C1468 C 0.36620 0.30174 0.04425
 C1469 C 0.34947 0.29485 0.03739
 C1470 C 0.34319 0.27763 0.04362
 C1471 C 0.38143 0.26355 0.07504
 C1472 C 0.39114 0.25461 0.08507
 C1473 C 0.40293 0.24427 0.09647
 C1474 C 0.41337 0.23555 0.10593
 C1475 C 0.42627 0.22527 0.11685
 C1476 C 0.42532 0.22572 0.13607
 C1477 C 0.43835 0.21627 0.14659
 C1478 C 0.45245 0.20633 0.13794
 C1479 C 0.45318 0.20573 0.11867
 C1480 C 0.44017 0.21517 0.10818
 H1481 H 0.34863 0.25410 0.06067
 H1482 H 0.38948 0.29699 0.06176
 H1483 H 0.37144 0.31494 0.03975
 H1484 H 0.33038 0.27193 0.03861
 H1485 H 0.41464 0.23351 0.14292
 H1486 H 0.43761 0.21687 0.16145
 H1487 H 0.46394 0.19807 0.11180
 H1488 H 0.44105 0.21474 0.09332
 C1489 C 0.64650 0.26750 0.94308
 C1490 C 0.62979 0.27449 0.93662
 C1491 C 0.62357 0.29161 0.94282
 C1492 C 0.63388 0.30163 0.95556
 C1493 C 0.65060 0.29464 0.96232
 C1494 C 0.65687 0.27751 0.95584
 C1495 C 0.61870 0.26395 0.92405
 C1496 C 0.60903 0.25526 0.91377
 C1497 C 0.59728 0.24523 0.90201
 C1498 C 0.58688 0.23680 0.89222
 C1499 C 0.57405 0.22690 0.88086
 C1500 C 0.57433 0.20764 0.88039
 C1501 C 0.56120 0.19804 0.87011
 C1502 C 0.54766 0.20763 0.86027
 C1503 C 0.54764 0.22695 0.86052
 C1504 C 0.56076 0.23653 0.87080
 H1505 H 0.65143 0.25424 0.93840
 H1506 H 0.61064 0.29714 0.93793
 H1507 H 0.62867 0.31476 0.96025
 H1508 H 0.66967 0.27175 0.96078
 H1509 H 0.58451 0.20006 0.88816
 H1510 H 0.56139 0.18314 0.87007
 H1511 H 0.53731 0.23454 0.85296
 H1512 H 0.56039 0.25143 0.87110
 C1513 C 0.35399 0.73217 0.94354
 C1514 C 0.37073 0.72525 0.93709
 C1515 C 0.37701 0.70815 0.94324
 C1516 C 0.36671 0.69806 0.95593
 C1517 C 0.34996 0.70497 0.96267
 C1518 C 0.34364 0.72209 0.95624
 C1519 C 0.38179 0.73586 0.92456
 C1520 C 0.39141 0.74463 0.91431
 C1521 C 0.40309 0.75474 0.90257
 C1522 C 0.41341 0.76325 0.89280
 C1523 C 0.42615 0.77325 0.88143
 C1524 C 0.43949 0.76373 0.87135
 C1525 C 0.45251 0.77342 0.86107
 C1526 C 0.45233 0.79273 0.86082
 C1527 C 0.43873 0.80222 0.87068
 C1528 C 0.42570 0.79251 0.88097
 H1529 H 0.34902 0.74542 0.93889
 H1530 H 0.38997 0.70268 0.93837
 H1531 H 0.37197 0.68493 0.96059
 H1532 H 0.33081 0.72780 0.96116
 H1533 H 0.43999 0.74884 0.87164
 H1534 H 0.46289 0.76590 0.85349
 H1535 H 0.43842 0.81712 0.87065
 H1536 H 0.41547 0.80002 0.88875
 C1537 C 0.70910 0.94330 0.37711
 C1538 C 0.72619 0.93717 0.37081
 C1539 C 0.73302 0.94352 0.35399
 C1540 C 0.72288 0.95613 0.34359
 C1541 C 0.70578 0.96256 0.34994
 C1542 C 0.69895 0.95590 0.36676
 C1543 C 0.73693 0.92484 0.38195
 C1544 C 0.74583 0.91479 0.39166
 C1545 C 0.75615 0.90336 0.40345
 C1546 C 0.76487 0.89389 0.41389
 C1547 C 0.77515 0.88296 0.42678
 C1548 C 0.77469 0.86372 0.42582
 C1549 C 0.78414 0.85319 0.43885
 C1550 C 0.79407 0.86186 0.45297
 C1551 C 0.79469 0.88115 0.45371
 C1552 C 0.78525 0.89164 0.44069
 H1553 H 0.70371 0.93850 0.39013
 H1554 H 0.74626 0.93890 0.34900
 H1555 H 0.72852 0.96099 0.33071
 H1556 H 0.68584 0.96056 0.37204
 H1557 H 0.76689 0.85687 0.41513
 H1558 H 0.78353 0.83832 0.43811
 H1559 H 0.80234 0.88803 0.46448
 H1560 H 0.78568 0.90651 0.44158
 C1561 C 0.26758 0.94248 0.64619
 C1562 C 0.27453 0.93607 0.62943
 C1563 C 0.29159 0.94233 0.62317
 C1564 C 0.30159 0.95510 0.63348
 C1565 C 0.29464 0.96180 0.65024
 C1566 C 0.27757 0.95525 0.65655
 C1567 C 0.26399 0.92350 0.61834
 C1568 C 0.25529 0.91321 0.60867
 C1569 C 0.24524 0.90146 0.59692
 C1570 C 0.23679 0.89169 0.58654
 C1571 C 0.22685 0.88034 0.57372
 C1572 C 0.20761 0.87986 0.57409
 C1573 C 0.19796 0.86962 0.56097
 C1574 C 0.20748 0.85981 0.54735
 C1575 C 0.22678 0.86007 0.54724
 C1576 C 0.23641 0.87032 0.56035
 H1577 H 0.25436 0.93775 0.65115
 H1578 H 0.29708 0.93749 0.61020
 H1579 H 0.31468 0.95984 0.62823
 H1580 H 0.27184 0.96014 0.66939
 H1581 H 0.20008 0.88761 0.58433
 H1582 H 0.18308 0.86957 0.56122
 H1583 H 0.23432 0.85254 0.53685
 H1584 H 0.25128 0.87062 0.55991
 C1585 C 0.29079 0.05735 0.37663
 C1586 C 0.27357 0.06323 0.37042
 C1587 C 0.26668 0.05665 0.35369
 C1588 C 0.27688 0.04407 0.34332
 C1589 C 0.29410 0.03788 0.34959
 C1590 C 0.30099 0.04478 0.36631
 C1591 C 0.26279 0.07552 0.38157
 C1592 C 0.25387 0.08553 0.39130
 C1593 C 0.24354 0.09691 0.40314
 C1594 C 0.23484 0.10635 0.41362
 C1595 C 0.22459 0.11724 0.42657
 C1596 C 0.22505 0.13648 0.42568
 C1597 C 0.21563 0.14697 0.43876
 C1598 C 0.20572 0.13827 0.45285
 C1599 C 0.20511 0.11898 0.45353
 C1600 C 0.21452 0.10852 0.44046
 H1601 H 0.29623 0.06233 0.38958
 H1602 H 0.25335 0.06108 0.34877
 H1603 H 0.27118 0.03902 0.33052
 H1604 H 0.31419 0.04031 0.37153
 H1605 H 0.23283 0.14336 0.41501
 H1606 H 0.21623 0.16184 0.43807
 H1607 H 0.19747 0.11207 0.46427
 H1608 H 0.21409 0.09365 0.44129
 C1609 C 0.73206 0.05732 0.64570
 C1610 C 0.72517 0.06361 0.62887
 C1611 C 0.70811 0.05735 0.62259
 C1612 C 0.69805 0.04469 0.63295
 C1613 C 0.70493 0.03810 0.64979
 C1614 C 0.72201 0.04465 0.65611
 C1615 C 0.73578 0.07607 0.61774
 C1616 C 0.74454 0.08627 0.60805
 C1617 C 0.75466 0.09792 0.59629
 C1618 C 0.76317 0.10763 0.58591
 C1619 C 0.77318 0.11892 0.57311
 C1620 C 0.79242 0.11939 0.57359
 C1621 C 0.80213 0.12962 0.56053
 C1622 C 0.79268 0.13942 0.54685
 C1623 C 0.77338 0.13915 0.54663
 C1624 C 0.76369 0.12892 0.55968
 H1625 H 0.74528 0.06205 0.65067
 H1626 H 0.70267 0.06210 0.60956
 H1627 H 0.68496 0.03994 0.62768
 H1628 H 0.72769 0.03984 0.66900
 H1629 H 0.79990 0.11166 0.58388
 H1630 H 0.81701 0.12967 0.56087
 H1631 H 0.76589 0.14668 0.53620
 H1632 H 0.74882 0.12862 0.55916
 C1633 C 0.94259 0.62335 0.29157
 C1634 C 0.93642 0.62964 0.27448
 C1635 C 0.94292 0.64638 0.26755
 C1636 C 0.95568 0.65671 0.27759
 C1637 C 0.96212 0.65038 0.29471
 C1638 C 0.95533 0.63363 0.30163
 C1639 C 0.92387 0.61858 0.26389
 C1640 C 0.91359 0.60895 0.25514
 C1641 C 0.90185 0.59724 0.24505
 C1642 C 0.89208 0.58688 0.23655
 C1643 C 0.88074 0.57409 0.22656
 C1644 C 0.88032 0.57446 0.20732
 C1645 C 0.87009 0.56136 0.19763
 C1646 C 0.86023 0.54775 0.20712
 C1647 C 0.86042 0.54764 0.22642
 C1648 C 0.87066 0.56074 0.23609
 H1649 H 0.93768 0.61039 0.29705
 H1650 H 0.93827 0.65135 0.25431
 H1651 H 0.96064 0.66953 0.27188
 H1652 H 0.95999 0.62836 0.31475
 H1653 H 0.88811 0.58470 0.19981
 H1654 H 0.87009 0.56161 0.18274
 H1655 H 0.85285 0.53726 0.23395
 H1656 H 0.87091 0.56029 0.25097
 C1657 C 0.94307 0.37704 0.70865
 C1658 C 0.93689 0.37074 0.72573
 C1659 C 0.94319 0.35388 0.73255
 C1660 C 0.95577 0.34345 0.72241
 C1661 C 0.96224 0.34981 0.70532
 C1662 C 0.95564 0.36666 0.69850
 C1663 C 0.92459 0.38191 0.73647
 C1664 C 0.91456 0.39162 0.74539
 C1665 C 0.90315 0.40342 0.75573
 C1666 C 0.89371 0.41385 0.76448
 C1667 C 0.88281 0.42674 0.77480
 C1668 C 0.89149 0.44063 0.78495
 C1669 C 0.88103 0.45363 0.79444
 C1670 C 0.86176 0.45290 0.79383
 C1671 C 0.85309 0.43882 0.78385
 C1672 C 0.86359 0.42580 0.77435
 H1673 H 0.93832 0.39009 0.70326
 H1674 H 0.93853 0.34889 0.74578
 H1675 H 0.96058 0.33055 0.72805
 H1676 H 0.96033 0.37195 0.68540
 H1677 H 0.90635 0.44150 0.78537
 H1678 H 0.88792 0.46438 0.80213
 H1679 H 0.83824 0.43808 0.78325
 H1680 H 0.85673 0.41513 0.76652
 C1681 C 0.05677 0.64603 0.73233
 C1682 C 0.06301 0.62917 0.72544
 C1683 C 0.05669 0.62287 0.70840
 C1684 C 0.04406 0.63327 0.69834
 C1685 C 0.03754 0.65014 0.70522
 C1686 C 0.04413 0.65647 0.72229
 C1687 C 0.07547 0.61803 0.73602
 C1688 C 0.08568 0.60836 0.74478
 C1689 C 0.09737 0.59663 0.75489
 C1690 C 0.10711 0.58628 0.76340
 C1691 C 0.11845 0.57352 0.77340
 C1692 C 0.11893 0.57400 0.79265
 C1693 C 0.12921 0.56097 0.80235
 C1694 C 0.13906 0.54734 0.79288
 C1695 C 0.13878 0.54712 0.77358
 C1696 C 0.12850 0.56014 0.76390
 H1697 H 0.06154 0.65102 0.74553
 H1698 H 0.06140 0.60983 0.70295
 H1699 H 0.03927 0.62800 0.68526
 H1700 H 0.03938 0.66939 0.72797
 H1701 H 0.11116 0.58426 0.80014
 H1702 H 0.12927 0.56131 0.81724
 H1703 H 0.14635 0.53672 0.76607
 H1704 H 0.12820 0.55962 0.74902
 C1705 C 0.05659 0.35417 0.26774
 C1706 C 0.06309 0.37090 0.27471
 C1707 C 0.05700 0.37714 0.29185
 C1708 C 0.04431 0.36681 0.30191
 C1709 C 0.03752 0.35007 0.29495
 C1710 C 0.04389 0.34379 0.27779
 C1711 C 0.07559 0.38200 0.26412
 C1712 C 0.08583 0.39165 0.25537
 C1713 C 0.09754 0.40337 0.24526
 C1714 C 0.10729 0.41371 0.23675
 C1715 C 0.11864 0.42647 0.22675
 C1716 C 0.12875 0.43983 0.23625
 C1717 C 0.13902 0.45286 0.22656
 C1718 C 0.13922 0.45267 0.20726
 C1719 C 0.12931 0.43906 0.19779
 C1720 C 0.11904 0.42603 0.20750
 H1721 H 0.06119 0.34924 0.25446
 H1722 H 0.06191 0.39009 0.29737
 H1723 H 0.03970 0.37203 0.31507
 H1724 H 0.03893 0.33098 0.27204
 H1725 H 0.12850 0.44033 0.25113
 H1726 H 0.14663 0.46324 0.23406
 H1727 H 0.12931 0.43875 0.18290
 H1728 H 0.11123 0.41578 0.20001
   
