data_POSCAR
  _audit_creation_date              2014-09-24
  _audit_creation_method            'ToBaCCo'
  _symmetry_space_group_name_H-M    'P1'
  _symmetry_Int_Tables_number       1
  _symmetry_cell_setting            triclinic
  loop_
  _symmetry_equiv_pos_as_xyz
 x,y,z
_cell_length_a 53.0570
_cell_length_b 53.9839
_cell_length_c 54.7767
_cell_angle_alpha 90.211300
_cell_angle_beta 89.831500
_cell_angle_gamma 90.291300
loop_
  _atom_site_label
  _atom_site_type_symbol
  _atom_site_fract_x
  _atom_site_fract_y
  _atom_site_fract_z
C1 C 0.34909 0.35378 0.32176
 C2 C 0.37200 0.34404 0.31322
 C3 C 0.38442 0.32518 0.32617
 C4 C 0.37336 0.31611 0.34777
 C5 C 0.35016 0.32511 0.35607
 C6 C 0.33803 0.34413 0.34316
 C7 C 0.33704 0.37298 0.30918
 C8 C 0.31430 0.38312 0.31798
 C9 C 0.30322 0.37289 0.33912
 C10 C 0.31477 0.35337 0.35158
 C11 C 0.30330 0.34279 0.37223
 C12 C 0.31489 0.32318 0.38477
 C13 C 0.33874 0.31505 0.37692
 H14 H 0.37989 0.35099 0.29632
 H15 H 0.38276 0.30186 0.35817
 H16 H 0.34547 0.37994 0.29253
 H17 H 0.28577 0.38039 0.34621
 H18 H 0.28498 0.34936 0.37807
 H19 H 0.34841 0.30062 0.38683
 C20 C 0.35120 0.85001 -0.18102
 C21 C 0.37220 0.83830 -0.19147
 C22 C 0.38332 0.81741 -0.18039
 C23 C 0.37193 0.80792 -0.15899
 C24 C 0.35087 0.81940 -0.14843
 C25 C 0.34065 0.84068 -0.15934
 C26 C 0.34075 0.87106 -0.19199
 C27 C 0.32004 0.88353 -0.18134
 C28 C 0.30988 0.87388 -0.15942
 C29 C 0.31995 0.85267 -0.14850
 C30 C 0.30979 0.84352 -0.12664
 C31 C 0.31968 0.82217 -0.11559
 C32 C 0.34016 0.81011 -0.12685
 H33 H 0.37936 0.84544 -0.20857
 H34 H 0.38003 0.79222 -0.14968
 H35 H 0.34865 0.87710 -0.20919
 H36 H 0.29455 0.88322 -0.15021
 H37 H 0.29428 0.85327 -0.11810
 H38 H 0.34775 0.79337 -0.11900
 C39 C 0.84777 0.34921 -0.17552
 C40 C 0.86867 0.33770 -0.18636
 C41 C 0.87939 0.31614 -0.17621
 C42 C 0.86752 0.30569 -0.15547
 C43 C 0.84646 0.31689 -0.14462
 C44 C 0.83677 0.33891 -0.15449
 C45 C 0.83792 0.37104 -0.18542
 C46 C 0.81745 0.38342 -0.17425
 C47 C 0.80675 0.37276 -0.15305
 C48 C 0.81616 0.35070 -0.14325
 C49 C 0.80546 0.34049 -0.12209
 C50 C 0.81480 0.31837 -0.11212
 C51 C 0.83525 0.30661 -0.12371
 H52 H 0.87613 0.34563 -0.20298
 H53 H 0.87525 0.28941 -0.14686
 H54 H 0.84614 0.37782 -0.20220
 H55 H 0.79154 0.38193 -0.14348
 H56 H 0.78999 0.35002 -0.11322
 H57 H 0.84244 0.28932 -0.11666
 C58 C 0.85236 0.86011 0.32613
 C59 C 0.87437 0.84946 0.31646
 C60 C 0.88423 0.82746 0.32632
 C61 C 0.87177 0.81651 0.34631
 C62 C 0.84944 0.82656 0.35565
 C63 C 0.83964 0.84842 0.34552
 C64 C 0.84281 0.88216 0.31648
 C65 C 0.82028 0.89280 0.32552
 C66 C 0.80750 0.88037 0.34465
 C67 C 0.81702 0.85842 0.35465
 C68 C 0.80394 0.84602 0.37335
 C69 C 0.81339 0.82394 0.38334
 C70 C 0.83655 0.81476 0.37471
 H71 H 0.88336 0.85808 0.30088
 H72 H 0.87930 0.79991 0.35454
 H73 H 0.85357 0.89129 0.30230
 H74 H 0.78962 0.88702 0.35146
 H75 H 0.78610 0.85331 0.37975
 H76 H 0.84458 0.79825 0.38266
 C77 C 0.65359 0.64572 0.32023
 C78 C 0.63332 0.65731 0.30874
 C79 C 0.62104 0.67756 0.31973
 C80 C 0.62922 0.68581 0.34285
 C81 C 0.64969 0.67448 0.35451
 C82 C 0.66188 0.65434 0.34314
 C83 C 0.66615 0.62608 0.30875
 C84 C 0.68753 0.61531 0.31947
 C85 C 0.69534 0.62373 0.34261
 C86 C 0.68263 0.64307 0.35448
 C87 C 0.69088 0.65176 0.37721
 C88 C 0.67930 0.67221 0.38859
 C89 C 0.65856 0.68339 0.37704
 H90 H 0.62762 0.65097 0.29078
 H91 H 0.61974 0.70102 0.35188
 H92 H 0.65927 0.61938 0.29133
 H93 H 0.71186 0.61583 0.35109
 H94 H 0.70658 0.64263 0.38594
 H95 H 0.64969 0.69947 0.38512
 C96 C 0.64624 0.14607 -0.18286
 C97 C 0.62857 0.15937 -0.19651
 C98 C 0.61878 0.18197 -0.18784
 C99 C 0.62720 0.19121 -0.16516
 C100 C 0.64525 0.17835 -0.15153
 C101 C 0.65466 0.15562 -0.16036
 C102 C 0.65587 0.12353 -0.19161
 C103 C 0.67399 0.11013 -0.17820
 C104 C 0.68206 0.12002 -0.15563
 C105 C 0.67261 0.14252 -0.14675
 C106 C 0.68105 0.15213 -0.12444
 C107 C 0.67233 0.17507 -0.11563
 C108 C 0.65424 0.18801 -0.12932
 H109 H 0.62266 0.15217 -0.21408
 H110 H 0.61959 0.20827 -0.15786
 H111 H 0.64979 0.11719 -0.20941
 H112 H 0.69535 0.11000 -0.14447
 H113 H 0.69458 0.14166 -0.11394
 H114 H 0.64754 0.20586 -0.12309
 C115 C 0.14277 0.65026 -0.17555
 C116 C 0.12338 0.66256 -0.18780
 C117 C 0.11392 0.68528 -0.17908
 C118 C 0.12411 0.69536 -0.15745
 C119 C 0.14378 0.68339 -0.14517
 C120 C 0.15313 0.66075 -0.15430
 C121 C 0.15207 0.62773 -0.18451
 C122 C 0.17238 0.61547 -0.17309
 C123 C 0.18255 0.62640 -0.15173
 C124 C 0.17296 0.64868 -0.14228
 C125 C 0.18320 0.65920 -0.12106
 C126 C 0.17422 0.68188 -0.11177
 C127 C 0.15444 0.69385 -0.12405
 H128 H 0.11611 0.65463 -0.20458
 H129 H 0.11677 0.71248 -0.15001
 H130 H 0.14290 0.61966 -0.20025
 H131 H 0.19854 0.61837 -0.14259
 H132 H 0.19813 0.64954 -0.11167
 H133 H 0.14762 0.71157 -0.11757
 C134 C 0.15270 0.15119 0.32017
 C135 C 0.13206 0.16240 0.30883
 C136 C 0.11982 0.18300 0.31948
 C137 C 0.12992 0.19290 0.34134
 C138 C 0.15074 0.18199 0.35273
 C139 C 0.16195 0.16086 0.34226
 C140 C 0.16400 0.13024 0.30971
 C141 C 0.18423 0.11809 0.32130
 C142 C 0.19329 0.12818 0.34348
 C143 C 0.18235 0.14934 0.35393
 C144 C 0.19125 0.15886 0.37615
 C145 C 0.18043 0.18013 0.38675
 C146 C 0.16022 0.19165 0.37472
 H147 H 0.12599 0.15502 0.29143
 H148 H 0.12098 0.20845 0.35031
 H149 H 0.15709 0.12394 0.29220
 H150 H 0.20835 0.11916 0.35328
 H151 H 0.20652 0.14947 0.38531
 H152 H 0.15191 0.20829 0.38224
 C153 C 0.64526 0.36218 0.67345
 C154 C 0.62190 0.35330 0.68168
 C155 C 0.61156 0.33116 0.67234
 C156 C 0.62452 0.31868 0.65348
 C157 C 0.64768 0.32774 0.64463
 C158 C 0.65833 0.34930 0.65501
 C159 C 0.65592 0.38353 0.68379
 C160 C 0.68001 0.39191 0.67668
 C161 C 0.69298 0.37887 0.65821
 C162 C 0.68216 0.35784 0.64716
 C163 C 0.69501 0.34495 0.62868
 C164 C 0.68436 0.32369 0.61772
 C165 C 0.66058 0.31530 0.62587
 H166 H 0.61193 0.36352 0.69573
 H167 H 0.61712 0.30149 0.64615
 H168 H 0.64541 0.39352 0.69763
 H169 H 0.71170 0.38469 0.65269
 H170 H 0.71351 0.35136 0.62303
 H171 H 0.65185 0.29921 0.61753
 C172 C 0.64315 0.85056 1.18373
 C173 C 0.62065 0.84050 1.19306
 C174 C 0.60729 0.82182 1.18024
 C175 C 0.61714 0.81383 1.15754
 C176 C 0.63981 0.82339 1.14830
 C177 C 0.65287 0.84185 1.16137
 C178 C 0.65627 0.86897 1.19667
 C179 C 0.67882 0.87921 1.18743
 C180 C 0.68836 0.87027 1.16506
 C181 C 0.67572 0.85148 1.15216
 C182 C 0.68573 0.84201 1.13029
 C183 C 0.67294 0.82331 1.11718
 C184 C 0.64971 0.81451 1.12621
 H185 H 0.61439 0.84678 1.21082
 H186 H 0.60706 0.80032 1.14663
 H187 H 0.64893 0.87521 1.21411
 H188 H 0.70544 0.87810 1.15737
 H189 H 0.70379 0.84885 1.12392
 H190 H 0.63931 0.80053 1.11613
 C191 C 0.14628 0.35216 1.16730
 C192 C 0.12571 0.34061 1.17864
 C193 C 0.11583 0.31782 1.16999
 C194 C 0.12769 0.30680 1.14946
 C195 C 0.14809 0.31845 1.13763
 C196 C 0.15727 0.34130 1.14649
 C197 C 0.15596 0.37453 1.17654
 C198 C 0.17629 0.38659 1.16499
 C199 C 0.18672 0.37588 1.14378
 C200 C 0.17748 0.35328 1.13461
 C201 C 0.18821 0.34249 1.11376
 C202 C 0.17958 0.31944 1.10485
 C203 C 0.15952 0.30751 1.11709
 H204 H 0.11694 0.35014 1.19381
 H205 H 0.12166 0.28892 1.14269
 H206 H 0.14791 0.38217 1.19310
 H207 H 0.20212 0.38510 1.13440
 H208 H 0.20333 0.35218 1.10443
 H209 H 0.15288 0.28958 1.11089
 C210 C 0.14539 0.85560 0.67100
 C211 C 0.12314 0.84604 0.68123
 C212 C 0.11150 0.82438 0.67182
 C213 C 0.12286 0.81281 0.65136
 C214 C 0.14502 0.82235 0.64080
 C215 C 0.15635 0.84376 0.65070
 C216 C 0.15686 0.87683 0.68094
 C217 C 0.17907 0.88676 0.67063
 C218 C 0.18981 0.87473 0.65026
 C219 C 0.17875 0.85325 0.64040
 C220 C 0.18997 0.84096 0.62059
 C221 C 0.17904 0.81933 0.61064
 C222 C 0.15625 0.81047 0.62070
 H223 H 0.11467 0.85609 0.69624
 H224 H 0.11533 0.79575 0.64393
 H225 H 0.14862 0.88529 0.69702
 H226 H 0.20674 0.88216 0.64189
 H227 H 0.20762 0.84798 0.61334
 H228 H 0.14709 0.79430 0.61296
 C229 C 0.34505 0.64896 0.68113
 C230 C 0.36663 0.66016 0.69105
 C231 C 0.37950 0.67899 0.67835
 C232 C 0.36978 0.68724 0.65594
 C233 C 0.34805 0.67638 0.64594
 C234 C 0.33589 0.65686 0.65837
 C235 C 0.33253 0.62995 0.69368
 C236 C 0.31121 0.61815 0.68358
 C237 C 0.30256 0.62582 0.66053
 C238 C 0.31455 0.64527 0.64806
 C239 C 0.30548 0.65337 0.62546
 C240 C 0.31702 0.67334 0.61318
 C241 C 0.33838 0.68470 0.62367
 H242 H 0.37333 0.65415 0.70872
 H243 H 0.37945 0.70175 0.64595
 H244 H 0.33933 0.62453 0.71149
 H245 H 0.28656 0.61665 0.65215
 H246 H 0.28931 0.64410 0.61746
 H247 H 0.34733 0.70036 0.61483
 C248 C 0.35744 0.14581 1.18291
 C249 C 0.37666 0.15861 1.19534
 C250 C 0.38622 0.18150 1.18669
 C251 C 0.37594 0.19102 1.16486
 C252 C 0.35648 0.17861 1.15252
 C253 C 0.34730 0.15588 1.16146
 C254 C 0.34774 0.12343 1.19211
 C255 C 0.32798 0.11061 1.18010
 C256 C 0.31851 0.12088 1.15826
 C257 C 0.32775 0.14339 1.14911
 C258 C 0.31733 0.15383 1.12800
 C259 C 0.32571 0.17702 1.11939
 C260 C 0.34566 0.18901 1.13162
 H261 H 0.38341 0.15095 1.21231
 H262 H 0.38318 0.20788 1.15685
 H263 H 0.35510 0.11686 1.20927
 H264 H 0.30403 0.11130 1.14798
 H265 H 0.30249 0.14394 1.11849
 H266 H 0.35225 0.20694 1.12540
 C267 C 0.85344 0.64833 1.17578
 C268 C 0.87324 0.66082 1.18760
 C269 C 0.88324 0.68299 1.17805
 C270 C 0.87226 0.69310 1.15695
 C271 C 0.85217 0.68105 1.14520
 C272 C 0.84296 0.65841 1.15446
 C273 C 0.84411 0.62584 1.18498
 C274 C 0.82448 0.61279 1.17305
 C275 C 0.81430 0.62325 1.15160
 C276 C 0.82331 0.64584 1.14237
 C277 C 0.81305 0.65594 1.12104
 C278 C 0.82174 0.67880 1.11182
 C279 C 0.84133 0.69123 1.12419
 H280 H 0.88083 0.65313 1.20424
 H281 H 0.87975 0.71007 1.14925
 H282 H 0.85189 0.61915 1.20193
 H283 H 0.79976 0.61356 1.14151
 H284 H 0.79831 0.64585 1.11157
 H285 H 0.84804 0.70903 1.11778
 C286 C 0.84974 0.14902 0.68110
 C287 C 0.87083 0.16019 0.69200
 C288 C 0.88336 0.18012 0.68061
 C289 C 0.87367 0.18948 0.65859
 C290 C 0.85234 0.17876 0.64770
 C291 C 0.84060 0.15818 0.65877
 C292 C 0.83786 0.12859 0.69204
 C293 C 0.81737 0.11665 0.68060
 C294 C 0.80845 0.12597 0.65830
 C295 C 0.81979 0.14669 0.64745
 C296 C 0.81076 0.15589 0.62528
 C297 C 0.82186 0.17685 0.61434
 C298 C 0.84274 0.18816 0.62577
 H299 H 0.87747 0.15323 0.70932
 H300 H 0.88308 0.20477 0.64955
 H301 H 0.84468 0.12203 0.70946
 H302 H 0.79287 0.11686 0.64912
 H303 H 0.79506 0.14659 0.61650
 H304 H 0.85138 0.20450 0.61792
 C305 C 0.34670 0.35613 0.68171
 C306 C 0.33646 0.37775 0.69195
 C307 C 0.31654 0.39021 0.68039
 C308 C 0.30710 0.38067 0.65823
 C309 C 0.31682 0.35883 0.64805
 C310 C 0.33656 0.34641 0.65991
 C311 C 0.36716 0.34429 0.69278
 C312 C 0.37760 0.32267 0.68250
 C313 C 0.36645 0.31246 0.66140
 C314 C 0.34626 0.32433 0.64988
 C315 C 0.33589 0.31464 0.62829
 C316 C 0.31648 0.32717 0.61596
 C317 C 0.30717 0.34936 0.62608
 H318 H 0.34384 0.38457 0.70913
 H319 H 0.29216 0.39028 0.64879
 H320 H 0.37544 0.35241 0.70902
 H321 H 0.37360 0.29539 0.65367
 H322 H 0.34302 0.29728 0.62123
 H323 H 0.29251 0.35948 0.61677
 C324 C 0.34914 0.84618 0.18468
 C325 C 0.33814 0.86681 0.19596
 C326 C 0.31789 0.87928 0.18498
 C327 C 0.30905 0.87096 0.16212
 C328 C 0.31977 0.85021 0.15067
 C329 C 0.33990 0.83781 0.16201
 C330 C 0.36885 0.83345 0.19607
 C331 C 0.37912 0.81196 0.18542
 C332 C 0.36997 0.80401 0.16258
 C333 C 0.35060 0.81682 0.15082
 C334 C 0.34143 0.80857 0.12827
 C335 C 0.32101 0.82042 0.11688
 C336 C 0.31033 0.84135 0.12832
 H337 H 0.34492 0.87269 0.21370
 H338 H 0.29386 0.88060 0.15311
 H339 H 0.37604 0.84037 0.21328
 H340 H 0.37741 0.78738 0.15416
 H341 H 0.35027 0.79276 0.11963
 H342 H 0.29428 0.85048 0.12026
 C343 C 0.85062 0.34628 0.17594
 C344 C 0.83910 0.36648 0.18740
 C345 C 0.81788 0.37789 0.17710
 C346 C 0.80806 0.36839 0.15508
 C347 C 0.81920 0.34785 0.14359
 C348 C 0.84078 0.33697 0.15390
 C349 C 0.87152 0.33495 0.18659
 C350 C 0.88319 0.31448 0.17541
 C351 C 0.87366 0.30568 0.15299
 C352 C 0.85235 0.31659 0.14237
 C353 C 0.84213 0.30713 0.12066
 C354 C 0.81999 0.31720 0.11061
 C355 C 0.80881 0.33776 0.12221
 H356 H 0.84654 0.37308 0.20465
 H357 H 0.79189 0.37701 0.14669
 H358 H 0.87830 0.34182 0.20399
 H359 H 0.88262 0.29025 0.14381
 H360 H 0.85132 0.29166 0.11175
 H361 H 0.79160 0.34559 0.11512
 C362 C 0.85042 0.85727 0.67298
 C363 C 0.84009 0.87891 0.68297
 C364 C 0.82124 0.89199 0.67052
 C365 C 0.81269 0.88289 0.64788
 C366 C 0.82248 0.86097 0.63795
 C367 C 0.84155 0.84817 0.65045
 C368 C 0.86927 0.84444 0.68541
 C369 C 0.87989 0.82273 0.67555
 C370 C 0.87084 0.81374 0.65300
 C371 C 0.85153 0.82614 0.64056
 C372 C 0.84180 0.81668 0.61858
 C373 C 0.82237 0.82911 0.60618
 C374 C 0.81322 0.85151 0.61588
 H375 H 0.84649 0.88525 0.70070
 H376 H 0.79831 0.89283 0.63796
 H377 H 0.87550 0.85134 0.70300
 H378 H 0.87888 0.79725 0.64490
 H379 H 0.84889 0.79926 0.61159
 H380 H 0.79864 0.86156 0.60633
 C381 C 0.65324 0.64952 0.68247
 C382 C 0.66456 0.62917 0.69383
 C383 C 0.68586 0.61771 0.68343
 C384 C 0.69622 0.62754 0.66181
 C385 C 0.68543 0.64818 0.65054
 C386 C 0.66374 0.65909 0.66078
 C387 C 0.63131 0.66017 0.69224
 C388 C 0.61930 0.67993 0.68029
 C389 C 0.63029 0.68960 0.65890
 C390 C 0.65242 0.67943 0.64918
 C391 C 0.66310 0.68904 0.62776
 C392 C 0.68468 0.67822 0.61728
 C393 C 0.69570 0.65774 0.62889
 H394 H 0.65663 0.62227 0.71074
 H395 H 0.71243 0.61882 0.65340
 H396 H 0.62360 0.65291 0.70909
 H397 H 0.62127 0.70468 0.64936
 H398 H 0.65459 0.70509 0.61939
 H399 H 0.71209 0.64896 0.62087
 C400 C 0.64132 0.14246 0.17817
 C401 C 0.65125 0.12040 0.18757
 C402 C 0.66939 0.10683 0.17437
 C403 C 0.67740 0.11573 0.15147
 C404 C 0.66812 0.13803 0.14217
 C405 C 0.64994 0.15142 0.15548
 C406 C 0.62325 0.15595 0.19134
 C407 C 0.61336 0.17821 0.18209
 C408 C 0.62218 0.18693 0.15939
 C409 C 0.64062 0.17391 0.14624
 C410 C 0.65020 0.18328 0.12418
 C411 C 0.66873 0.17026 0.11093
 C412 C 0.67712 0.14734 0.11992
 H413 H 0.64518 0.11420 0.20543
 H414 H 0.69109 0.10539 0.14090
 H415 H 0.61713 0.14919 0.20900
 H416 H 0.61463 0.20377 0.15171
 H417 H 0.64370 0.20110 0.11785
 H418 H 0.69095 0.13679 0.10973
 C419 C 0.14445 0.65018 0.17773
 C420 C 0.15502 0.62875 0.18775
 C421 C 0.17723 0.61834 0.17795
 C422 C 0.18892 0.63023 0.15797
 C423 C 0.17805 0.65117 0.14720
 C424 C 0.15568 0.66108 0.15705
 C425 C 0.12272 0.66079 0.18804
 C426 C 0.11157 0.68187 0.17753
 C427 C 0.12247 0.69191 0.15625
 C428 C 0.14447 0.68186 0.14616
 C429 C 0.15532 0.69226 0.12522
 C430 C 0.17771 0.68265 0.11518
 C431 C 0.18912 0.66222 0.12657
 H432 H 0.14548 0.61994 0.20292
 H433 H 0.20644 0.62329 0.15056
 H434 H 0.11490 0.65280 0.20451
 H435 H 0.11383 0.70764 0.14744
 H436 H 0.14608 0.70778 0.11659
 H437 H 0.20662 0.65484 0.11948
 C438 C 0.14943 0.14848 0.68098
 C439 C 0.16201 0.12846 0.69152
 C440 C 0.18272 0.11734 0.67971
 C441 C 0.19087 0.12691 0.65711
 C442 C 0.17866 0.14721 0.64650
 C443 C 0.15762 0.15777 0.65831
 C444 C 0.12918 0.15975 0.69313
 C445 C 0.11671 0.18015 0.68283
 C446 C 0.12443 0.18866 0.65972
 C447 C 0.14501 0.17788 0.64763
 C448 C 0.15356 0.18739 0.62533
 C449 C 0.17526 0.17784 0.61386
 C450 C 0.18751 0.15747 0.62455
 H451 H 0.15587 0.12183 0.70921
 H452 H 0.20659 0.11853 0.64759
 H453 H 0.12362 0.15302 0.71097
 H454 H 0.11469 0.20392 0.65118
 H455 H 0.14347 0.20262 0.61713
 H456 H 0.20441 0.14996 0.61635
 C457 C 0.35504 0.63347 0.32557
 C458 C 0.34286 0.61285 0.31524
 C459 C 0.32061 0.60316 0.32569
 C460 C 0.31053 0.61480 0.34658
 C461 C 0.32226 0.63572 0.35683
 C462 C 0.34467 0.64501 0.34636
 C463 C 0.37742 0.64275 0.31533
 C464 C 0.38947 0.66378 0.32528
 C465 C 0.37875 0.67530 0.34593
 C466 C 0.35664 0.66593 0.35661
 C467 C 0.34631 0.67725 0.37737
 C468 C 0.32386 0.66826 0.38798
 C469 C 0.31189 0.64749 0.37739
 H470 H 0.35062 0.60471 0.29879
 H471 H 0.29362 0.60746 0.35507
 H472 H 0.38553 0.63342 0.29965
 H473 H 0.38726 0.69186 0.35355
 H474 H 0.35600 0.69296 0.38543
 H475 H 0.29429 0.64060 0.38483
 C476 C 0.36069 0.14098 0.82176
 C477 C 0.34787 0.12127 0.81057
 C478 C 0.32634 0.11058 0.82147
 C479 C 0.31800 0.11992 0.84414
 C480 C 0.33052 0.13988 0.85546
 C481 C 0.35195 0.15043 0.84421
 C482 C 0.38191 0.15161 0.81057
 C483 C 0.39439 0.17208 0.82112
 C484 C 0.38544 0.18142 0.84359
 C485 C 0.36450 0.17059 0.85525
 C486 C 0.35574 0.17987 0.87765
 C487 C 0.33418 0.16973 0.88903
 C488 C 0.32169 0.14968 0.87766
 H489 H 0.35439 0.11468 0.79296
 H490 H 0.30181 0.11170 0.85313
 H491 H 0.38870 0.14382 0.79354
 H492 H 0.39431 0.19746 0.85188
 H493 H 0.36585 0.19503 0.88623
 H494 H 0.30473 0.14197 0.88566
 C495 C 0.85426 0.64885 0.82760
 C496 C 0.84425 0.62650 0.81864
 C497 C 0.82406 0.61463 0.83066
 C498 C 0.81399 0.62559 0.85190
 C499 C 0.82340 0.64822 0.86072
 C500 C 0.84373 0.65982 0.84864
 C501 C 0.87417 0.66075 0.81540
 C502 C 0.88402 0.68343 0.82401
 C503 C 0.87355 0.69401 0.84529
 C504 C 0.85322 0.68262 0.85734
 C505 C 0.84168 0.69411 0.87747
 C506 C 0.82072 0.68314 0.88911
 C507 C 0.81229 0.65974 0.88103
 H508 H 0.85188 0.61874 0.80194
 H509 H 0.79858 0.61663 0.86149
 H510 H 0.88162 0.65252 0.79884
 H511 H 0.88103 0.71121 0.85254
 H512 H 0.84842 0.71212 0.88340
 H513 H 0.79676 0.65059 0.89023
 C514 C 0.84976 0.15309 0.31821
 C515 C 0.83705 0.13403 0.30581
 C516 C 0.81520 0.12304 0.31575
 C517 C 0.80625 0.13154 0.33852
 C518 C 0.81841 0.15105 0.35083
 C519 C 0.84026 0.16184 0.34067
 C520 C 0.87181 0.16353 0.30843
 C521 C 0.88483 0.18246 0.32094
 C522 C 0.87480 0.19151 0.34307
 C523 C 0.85259 0.18142 0.35294
 C524 C 0.84258 0.19057 0.37492
 C525 C 0.82071 0.17999 0.38528
 C526 C 0.80900 0.15996 0.37314
 H527 H 0.84412 0.12793 0.28822
 H528 H 0.78986 0.12298 0.34683
 H529 H 0.87873 0.15691 0.29098
 H530 H 0.88457 0.20610 0.35291
 H531 H 0.85172 0.20623 0.38363
 H532 H 0.79246 0.15123 0.38102
 C533 C 0.64939 0.36049 0.32947
 C534 C 0.66131 0.38051 0.31797
 C535 C 0.68322 0.39137 0.32788
 C536 C 0.69287 0.38194 0.34992
 C537 C 0.68131 0.36163 0.36148
 C538 C 0.65931 0.35108 0.35136
 C539 C 0.62847 0.34892 0.31867
 C540 C 0.61708 0.32804 0.32948
 C541 C 0.62635 0.31958 0.35201
 C542 C 0.64768 0.33058 0.36267
 C543 C 0.65835 0.32046 0.38373
 C544 C 0.68127 0.32968 0.39305
 C545 C 0.69214 0.35087 0.38226
 H546 H 0.65395 0.38706 0.30075
 H547 H 0.70956 0.39011 0.35801
 H548 H 0.62177 0.35562 0.30125
 H549 H 0.61750 0.30394 0.36098
 H550 H 0.64919 0.30475 0.39229
 H551 H 0.70977 0.35824 0.38919
 C552 C 0.64813 0.84858 0.82165
 C553 C 0.66094 0.86768 0.80962
 C554 C 0.68159 0.87977 0.82055
 C555 C 0.68962 0.87196 0.84379
 C556 C 0.67716 0.85249 0.85592
 C557 C 0.65608 0.84105 0.84494
 C558 C 0.62781 0.83656 0.81039
 C559 C 0.61489 0.81715 0.82217
 C560 C 0.62243 0.81023 0.84579
 C561 C 0.64314 0.82183 0.85706
 C562 C 0.65145 0.81405 0.88000
 C563 C 0.67320 0.82443 0.89075
 C564 C 0.68575 0.84395 0.87861
 H565 H 0.65492 0.87290 0.79147
 H566 H 0.70537 0.88109 0.85263
 H567 H 0.62248 0.84198 0.79210
 H568 H 0.61243 0.79567 0.85538
 H569 H 0.64113 0.79950 0.88930
 H570 H 0.70266 0.85206 0.88629
 C571 C 0.14808 0.34990 0.82911
 C572 C 0.15790 0.37209 0.81978
 C573 C 0.18052 0.38218 0.82889
 C574 C 0.19332 0.36940 0.84745
 C575 C 0.18392 0.34693 0.85659
 C576 C 0.16115 0.33716 0.84748
 C577 C 0.12542 0.34020 0.82014
 C578 C 0.11572 0.31750 0.82871
 C579 C 0.12899 0.30483 0.84707
 C580 C 0.15154 0.31460 0.85661
 C581 C 0.16475 0.30207 0.87497
 C582 C 0.18775 0.31152 0.88403
 C583 C 0.19709 0.33402 0.87460
 H584 H 0.14804 0.38116 0.80506
 H585 H 0.21058 0.37699 0.85497
 H586 H 0.11527 0.35053 0.80644
 H587 H 0.12219 0.28713 0.85365
 H588 H 0.15689 0.28510 0.88227
 H589 H 0.21493 0.34140 0.88097
 C590 C 0.14423 0.85894 0.32909
 C591 C 0.15418 0.88120 0.32012
 C592 C 0.17765 0.89026 0.32824
 C593 C 0.19064 0.87698 0.34636
 C594 C 0.18048 0.85501 0.35605
 C595 C 0.15732 0.84581 0.34716
 C596 C 0.12157 0.84942 0.31984
 C597 C 0.11203 0.82642 0.32777
 C598 C 0.12500 0.81367 0.34625
 C599 C 0.14739 0.82335 0.35613
 C600 C 0.16021 0.81064 0.37454
 C601 C 0.18331 0.81963 0.38370
 C602 C 0.19333 0.84182 0.37417
 H603 H 0.14366 0.89134 0.30654
 H604 H 0.20890 0.88334 0.35263
 H605 H 0.11155 0.85984 0.30610
 H606 H 0.11823 0.79583 0.35249
 H607 H 0.15194 0.79384 0.38183
 H608 H 0.21133 0.84874 0.38063
 O609 O 0.25264 1.02653 0.28287
 O610 O 0.28291 0.97400 0.25148
 O611 O 0.28689 1.02222 0.24868
 O612 O 0.24956 0.97861 0.28605
 O613 O 0.21989 0.97833 0.25786
 O614 O 0.25666 1.02248 0.22111
 O615 O 0.25284 0.97408 0.22369
 O616 O 0.22238 1.02610 0.25530
 Cu617 Cu 0.27112 1.00043 0.26997
 Cu618 Cu 0.23504 1.00042 0.23658
 C619 C 0.23203 1.03495 0.27466
 C620 C 0.27271 0.96474 0.23254
 C621 C 0.27805 1.02992 0.22858
 C622 C 0.22842 0.97088 0.27818
 O623 O 0.24328 0.52619 0.72639
 O624 O 0.21326 0.47575 0.76150
 O625 O 0.21060 0.52358 0.76084
 O626 O 0.24543 0.47756 0.72512
 O627 O 0.27716 0.47960 0.75103
 O628 O 0.24098 0.52442 0.78832
 O629 O 0.24530 0.47624 0.78715
 O630 O 0.27407 0.52761 0.75341
 Cu631 Cu 0.22511 0.50041 0.74067
 Cu632 Cu 0.26250 0.50203 0.77265
 C633 C 0.26354 0.53590 0.73437
 C634 C 0.22422 0.46747 0.78036
 C635 C 0.21978 0.53198 0.78057
 C636 C 0.26725 0.47082 0.73173
 O637 O 0.77663 0.02828 0.25076
 O638 O 0.74681 -0.02706 0.22368
 O639 O 0.74240 0.02087 0.21759
 O640 O 0.78080 -0.01940 0.25624
 O641 O 0.75154 -0.01821 0.28493
 O642 O 0.71250 0.02163 0.24569
 O643 O 0.71715 -0.02580 0.25203
 O644 O 0.74662 0.02983 0.27872
 Cu645 Cu 0.76459 0.00067 0.23418
 Cu646 Cu 0.72904 0.00200 0.26827
 C647 C 0.76657 0.03864 0.26919
 C648 C 0.72708 -0.03606 0.23348
 C649 C 0.72097 0.02820 0.22497
 C650 C 0.77260 -0.02605 0.27700
 O651 O 0.75181 0.47870 0.72355
 O652 O 0.78600 0.52417 0.76167
 O653 O 0.78388 0.47623 0.75974
 O654 O 0.75372 0.52689 0.72610
 O655 O 0.72152 0.52586 0.75172
 O656 O 0.75278 0.47671 0.78660
 O657 O 0.75388 0.52502 0.78738
 O658 O 0.72099 0.47787 0.75071
 Cu659 Cu 0.77200 0.50146 0.74008
 Cu660 Cu 0.73417 0.50137 0.77179
 C661 C 0.73057 0.47047 0.73072
 C662 C 0.77565 0.53247 0.78095
 C663 C 0.77362 0.46801 0.77909
 C664 C 0.73234 0.53481 0.73299
 O665 O 0.24393 0.47105 0.27327
 O666 O 0.21343 0.52312 0.24227
 O667 O 0.21235 0.47516 0.23706
 O668 O 0.24579 0.51911 0.27751
 O669 O 0.27718 0.52095 0.25099
 O670 O 0.24466 0.47584 0.21159
 O671 O 0.24434 0.52418 0.21523
 O672 O 0.27621 0.47340 0.24783
 Cu673 Cu 0.22569 0.49692 0.26012
 Cu674 Cu 0.26367 0.49884 0.22866
 C675 C 0.26546 0.46366 0.26623
 C676 C 0.22348 0.53240 0.22334
 C677 C 0.22296 0.46784 0.21751
 C678 C 0.26734 0.52731 0.27120
 O679 O 0.74762 1.02521 0.72104
 O680 O 0.71793 0.97268 0.75291
 O681 O 0.71376 1.02068 0.75524
 O682 O 0.74943 0.97739 0.71706
 O683 O 0.78067 0.97770 0.74363
 O684 O 0.74450 1.02107 0.78228
 O685 O 0.74904 0.97261 0.77958
 O686 O 0.77856 1.02514 0.74793
 Cu687 Cu 0.72902 0.99903 0.73396
 Cu688 Cu 0.76617 0.99921 0.76624
 C689 C 0.76846 1.03381 0.72884
 C690 C 0.72869 0.96339 0.77142
 C691 C 0.72298 1.02841 0.77520
 C692 C 0.77111 0.97024 0.72364
 O693 O 0.78642 0.47383 0.24269
 O694 O 0.75758 0.52505 0.27702
 O695 O 0.75595 0.47674 0.27926
 O696 O 0.78941 0.52197 0.24072
 O697 O 0.75804 0.52116 0.21435
 O698 O 0.72328 0.47816 0.25443
 O699 O 0.72669 0.52636 0.25011
 O700 O 0.75372 0.47291 0.21784
 Cu701 Cu 0.77556 0.49951 0.26252
 Cu702 Cu 0.73721 0.49969 0.23160
 C703 C 0.77462 0.46414 0.22487
 C704 C 0.73750 0.53478 0.26905
 C705 C 0.73402 0.46950 0.27326
 C706 C 0.77951 0.52926 0.22094
 O707 O 0.25243 -0.02651 0.77684
 O708 O 0.22068 0.02311 0.74332
 O709 O 0.21962 -0.02483 0.74103
 O710 O 0.25319 0.02209 0.77800
 O711 O 0.28449 0.02190 0.75133
 O712 O 0.25098 -0.02468 0.71445
 O713 O 0.25195 0.02405 0.71664
 O714 O 0.28362 -0.02605 0.75010
 Cu715 Cu 0.23340 -0.00184 0.76255
 Cu716 Cu 0.27080 -0.00136 0.73033
 C717 C 0.27355 -0.03460 0.76939
 C718 C 0.23118 0.03251 0.72466
 C719 C 0.22953 -0.03259 0.72131
 C720 C 0.27436 0.03036 0.77064
 O721 O 0.25793 0.27237 0.97380
 O722 O 0.28900 0.24176 1.02543
 O723 O 0.29281 0.23931 0.97794
 O724 O 0.25466 0.27539 1.02105
 O725 O 0.22450 0.24712 1.01938
 O726 O 0.26465 0.20907 0.97872
 O727 O 0.25877 0.21352 1.02612
 O728 O 0.22986 0.24208 0.97209
 Cu729 Cu 0.27655 0.26009 0.99961
 Cu730 Cu 0.24153 0.22496 0.99905
 C731 C 0.23890 0.26221 0.96384
 C732 C 0.27882 0.22277 1.03499
 C733 C 0.28532 0.21810 0.97090
 C734 C 0.23303 0.26761 1.02749
 O735 O 0.25026 0.77665 0.47412
 O736 O 0.28189 0.74037 0.52178
 O737 O 0.28310 0.74141 0.47462
 O738 O 0.24892 0.77615 0.52195
 O739 O 0.21796 0.74869 0.52059
 O740 O 0.25333 0.71265 0.47477
 O741 O 0.25037 0.71346 0.52163
 O742 O 0.22041 0.74808 0.47203
 Cu743 Cu 0.26898 0.76158 0.49829
 Cu744 Cu 0.23215 0.72817 0.49704
 C745 C 0.23044 0.76798 0.46430
 C746 C 0.27151 0.72075 0.52982
 C747 C 0.27430 0.72090 0.46694
 C748 C 0.22788 0.76808 0.52972
 O749 O 0.28111 0.75678 -0.02321
 O750 O 0.24585 0.72147 0.02335
 O751 O 0.24598 0.72297 -0.02407
 O752 O 0.28062 0.75532 0.02433
 O753 O 0.25286 0.78566 0.02388
 O754 O 0.21577 0.75088 -0.02197
 O755 O 0.21803 0.75169 0.02553
 O756 O 0.25086 0.78470 -0.02372
 Cu757 Cu 0.26635 0.73624 -0.00003
 Cu758 Cu 0.23146 0.77119 0.00099
 C759 C 0.27174 0.77657 -0.03168
 C760 C 0.22611 0.73084 0.03268
 C761 C 0.22479 0.73111 -0.03105
 C762 C 0.27282 0.77603 0.03230
 O763 O 0.27769 0.25656 0.47734
 O764 O 0.24518 0.22236 0.52631
 O765 O 0.24574 0.22121 0.47924
 O766 O 0.27898 0.25859 0.52534
 O767 O 0.24820 0.28592 0.52504
 O768 O 0.21460 0.24822 0.47907
 O769 O 0.21492 0.25028 0.52640
 O770 O 0.24715 0.28420 0.47719
 Cu771 Cu 0.26518 0.23709 0.50244
 Cu772 Cu 0.22823 0.27000 0.50202
 C773 C 0.26751 0.27570 0.46833
 C774 C 0.22420 0.23025 0.53434
 C775 C 0.22463 0.22841 0.47113
 C776 C 0.26934 0.27864 0.53305
 O777 O 0.71510 0.75490 1.02747
 O778 O 0.74866 0.72349 0.97738
 O779 O 0.74978 0.72098 1.02509
 O780 O 0.71383 0.75637 0.98018
 O781 O 0.74271 0.78598 0.98061
 O782 O 0.77913 0.75010 1.02564
 O783 O 0.77798 0.75266 0.97811
 O784 O 0.74407 0.78440 1.02785
 Cu785 Cu 0.72901 0.73593 1.00262
 Cu786 Cu 0.76399 0.77118 1.00324
 C787 C 0.72358 0.77525 1.03588
 C788 C 0.76885 0.73294 0.96894
 C789 C 0.77062 0.72936 1.03299
 C790 C 0.72205 0.77711 0.97265
 O791 O 0.75274 0.28393 0.47921
 O792 O 0.78595 0.24614 0.52476
 O793 O 0.78495 0.24733 0.47766
 O794 O 0.75346 0.28204 0.52714
 O795 O 0.72231 0.25475 0.52699
 O796 O 0.75329 0.22062 0.47715
 O797 O 0.75440 0.21927 0.52447
 O798 O 0.72157 0.25668 0.47881
 Cu799 Cu 0.77230 0.26775 0.50218
 Cu800 Cu 0.73460 0.23528 0.50180
 C801 C 0.73178 0.27637 0.47080
 C802 C 0.77578 0.22624 0.53237
 C803 C 0.77451 0.22793 0.46910
 C804 C 0.73290 0.27383 0.53600
 O805 O 0.77468 0.24903 -0.02319
 O806 O 0.73994 0.21277 0.02285
 O807 O 0.74042 0.21446 -0.02463
 O808 O 0.77457 0.24696 0.02404
 O809 O 0.74567 0.27625 0.02430
 O810 O 0.71002 0.24221 -0.02310
 O811 O 0.71049 0.24149 0.02424
 O812 O 0.74419 0.27673 -0.02317
 Cu813 Cu 0.76033 0.22792 -0.00030
 Cu814 Cu 0.72461 0.26207 0.00082
 C815 C 0.76524 0.26901 -0.03116
 C816 C 0.71923 0.22088 0.03132
 C817 C 0.71941 0.22259 -0.03213
 C818 C 0.76629 0.26741 0.03214
 O819 O 0.71526 0.74279 0.47786
 O820 O 0.74976 0.78225 0.52167
 O821 O 0.74595 0.78030 0.47412
 O822 O 0.71798 0.74514 0.52485
 O823 O 0.75081 0.72015 0.52488
 O824 O 0.77727 0.75355 0.47218
 O825 O 0.78241 0.75717 0.51952
 O826 O 0.74719 0.71669 0.47764
 Cu827 Cu 0.72909 0.76534 0.49986
 Cu828 Cu 0.76772 0.73436 0.49864
 C829 C 0.72547 0.72295 0.47027
 C830 C 0.77206 0.77657 0.52788
 C831 C 0.76594 0.77244 0.46400
 C832 C 0.72949 0.72654 0.53338
 O833 O 1.02779 0.21792 0.25104
 O834 O 0.97633 0.24736 0.21705
 O835 O 1.02574 0.24930 0.21470
 O836 O 0.97901 0.21660 0.25308
 O837 O 0.97872 0.24828 0.27870
 O838 O 1.02658 0.27991 0.24150
 O839 O 0.97748 0.27902 0.24265
 O840 O 1.02776 0.24883 0.27753
 Cu841 Cu 1.00232 0.22971 0.23123
 Cu842 Cu 1.00274 0.26718 0.26265
 C843 C 1.03628 0.22812 0.27029
 C844 C 0.96789 0.26810 0.22429
 C845 C 1.03431 0.27014 0.22176
 C846 C 0.97069 0.22703 0.27230
 O847 O 0.47383 0.25612 0.71544
 O848 O 0.52727 0.22373 0.74359
 O849 O 0.47817 0.22021 0.74687
 O850 O 0.52235 0.25924 0.71186
 O851 O 0.52195 0.28683 0.74172
 O852 O 0.48003 0.24643 0.77785
 O853 O 0.52865 0.25189 0.77290
 O854 O 0.47311 0.28229 0.74650
 Cu855 Cu 0.50031 0.23699 0.72650
 Cu856 Cu 0.50082 0.26959 0.76279
 C857 C 0.46437 0.27477 0.72619
 C858 C 0.53745 0.23262 0.76271
 C859 C 0.47177 0.22649 0.76838
 C860 C 0.52961 0.27979 0.72083
 O861 O -0.02589 0.27975 0.75890
 O862 O 0.02507 0.24824 0.72556
 O863 O -0.02431 0.24744 0.72362
 O864 O 0.02290 0.28027 0.76031
 O865 O 0.02175 0.25055 0.78790
 O866 O -0.02455 0.21665 0.75004
 O867 O 0.02448 0.21812 0.75273
 O868 O -0.02736 0.24902 0.78536
 Cu869 Cu -0.00059 0.26689 0.73931
 Cu870 Cu -0.00156 0.23050 0.77170
 C871 C -0.03530 0.26979 0.77784
 C872 C 0.03385 0.22809 0.73377
 C873 C -0.03250 0.22646 0.73049
 C874 C 0.03048 0.27109 0.78027
 O875 O 0.52764 0.25557 0.28769
 O876 O 0.47650 0.22277 0.25560
 O877 O 0.52556 0.22192 0.25393
 O878 O 0.47839 0.25683 0.28909
 O879 O 0.47841 0.28618 0.26112
 O880 O 0.52608 0.25143 0.22612
 O881 O 0.47620 0.25205 0.22758
 O882 O 0.52702 0.28510 0.25990
 Cu883 Cu 0.50199 0.23635 0.27439
 Cu884 Cu 0.50187 0.27148 0.24067
 C885 C 0.53613 0.27586 0.27923
 C886 C 0.46736 0.23202 0.23631
 C887 C 0.53431 0.23102 0.23430
 C888 C 0.47032 0.27740 0.28115
 O889 O 1.02141 0.78673 0.74264
 O890 O 0.97403 0.75329 0.77903
 O891 O 1.02374 0.75450 0.77744
 O892 O 0.97252 0.78516 0.74412
 O893 O 0.97140 0.75426 0.71760
 O894 O 1.02358 0.72434 0.75009
 O895 O 0.97456 0.72244 0.75244
 O896 O 1.02059 0.75695 0.71493
 Cu897 Cu 0.99802 0.77289 0.76362
 Cu898 Cu 0.99768 0.73643 0.73104
 C899 C 1.02896 0.77771 0.72249
 C900 C 0.96581 0.73242 0.77170
 C901 C 1.03262 0.73431 0.76921
 C902 C 0.96288 0.77472 0.72550
 O903 O 0.52661 0.71406 0.25273
 O904 O 0.47245 0.74320 0.22279
 O905 O 0.52094 0.74805 0.21986
 O906 O 0.47783 0.70845 0.25480
 O907 O 0.47792 0.73560 0.28506
 O908 O 0.51856 0.77698 0.24833
 O909 O 0.46987 0.77020 0.25308
 O910 O 0.52638 0.74327 0.28105
 Cu911 Cu 0.49962 0.72558 0.23464
 Cu912 Cu 0.49801 0.75937 0.26984
 C913 C 0.53606 0.72398 0.27171
 C914 C 0.46166 0.76143 0.23307
 C915 C 0.52706 0.76929 0.22796
 C916 C 0.47058 0.71515 0.27590
 O917 O -0.02535 0.78685 0.25680
 O918 O 0.02223 0.75292 0.22100
 O919 O -0.02703 0.75402 0.22177
 O920 O 0.02327 0.78567 0.25589
 O921 O 0.02211 0.75626 0.28378
 O922 O -0.02641 0.72314 0.24810
 O923 O 0.02229 0.72306 0.24844
 O924 O -0.02691 0.75594 0.28306
 Cu925 Cu -0.00167 0.77282 0.23606
 Cu926 Cu -0.00220 0.73660 0.26862
 C927 C -0.03424 0.77712 0.27607
 C928 C 0.03036 0.73222 0.22856
 C929 C -0.03507 0.73304 0.22890
 C930 C 0.03088 0.77670 0.27593
 O931 O 0.52387 0.74683 0.77940
 O932 O 0.47373 0.71537 0.74466
 O933 O 0.52257 0.71468 0.74424
 O934 O 0.47442 0.74799 0.78000
 O935 O 0.47512 0.77840 0.75316
 O936 O 0.52321 0.74531 0.71762
 O937 O 0.47393 0.74592 0.71796
 O938 O 0.52391 0.77733 0.75265
 Cu939 Cu 0.49848 0.72821 0.76487
 Cu940 Cu 0.49898 0.76475 0.73261
 C941 C 0.53271 0.76729 0.77171
 C942 C 0.46538 0.72523 0.72531
 C943 C 0.53131 0.72452 0.72495
 C944 C 0.46660 0.76890 0.77269
 C945 C 0.41553 0.29021 0.32313
 C946 C 0.40864 0.31451 0.31720
 C947 C 0.42566 0.32809 0.30240
 C948 C 0.44653 0.31639 0.29137
 C949 C 0.45114 0.29101 0.29527
 C950 C 0.43626 0.27883 0.31259
 C951 C 0.42312 0.25437 0.31099
 C952 C 0.40036 0.26682 0.32251
 H953 H 0.42242 0.34743 0.29846
 H954 H 0.45836 0.32692 0.27901
 H955 H 0.43189 0.24030 0.32300
 H956 H 0.41989 0.24827 0.29183
 H957 H 0.39603 0.25980 0.34112
 H958 H 0.38390 0.26798 0.31005
 C959 C 0.41303 0.78237 0.81634
 C960 C 0.40560 0.80651 0.80993
 C961 C 0.42205 0.81949 0.79389
 C962 C 0.44254 0.80759 0.78257
 C963 C 0.44749 0.78243 0.78701
 C964 C 0.43336 0.77071 0.80519
 C965 C 0.42038 0.74617 0.80461
 C966 C 0.39806 0.75877 0.81671
 H967 H 0.41932 0.83883 0.78969
 H968 H 0.45392 0.81791 0.76964
 H969 H 0.42974 0.73244 0.81658
 H970 H 0.41640 0.73963 0.78572
 H971 H 0.39453 0.75202 0.83556
 H972 H 0.38109 0.75955 0.80487
 C973 C -0.09084 0.28126 0.81969
 C974 C -0.09822 0.30559 0.81397
 C975 C -0.08148 0.31918 0.79869
 C976 C -0.06059 0.30780 0.78751
 C977 C -0.05548 0.28259 0.79139
 C978 C -0.07009 0.27015 0.80874
 C979 C -0.08288 0.24558 0.80687
 C980 C -0.10566 0.25759 0.81872
 H981 H -0.08418 0.33863 0.79505
 H982 H -0.04888 0.31862 0.77527
 H983 H -0.07382 0.23145 0.81861
 H984 H -0.08619 0.23974 0.78764
 H985 H -0.10976 0.25009 0.83719
 H986 H -0.12223 0.25874 0.80640
 C987 C -0.08886 0.78995 0.31834
 C988 C -0.09291 0.81548 0.31570
 C989 C -0.07441 0.82897 0.30257
 C990 C -0.05487 0.81664 0.29003
 C991 C -0.05302 0.79061 0.29077
 C992 C -0.06934 0.77790 0.30640
 C993 C -0.08508 0.75544 0.30154
 C994 C -0.10651 0.76862 0.31457
 H995 H -0.07537 0.84892 0.30120
 H996 H -0.04171 0.82739 0.27919
 H997 H -0.07815 0.73898 0.31158
 H998 H -0.08861 0.75239 0.28175
 H999 H -0.11194 0.75963 0.33205
 H1000 H -0.12250 0.77327 0.30236
 C1001 C 0.58619 0.67789 0.28865
 C1002 C 0.60039 0.69037 0.30646
 C1003 C 0.59511 0.71578 0.31009
 C1004 C 0.57442 0.72697 0.29850
 C1005 C 0.55879 0.71317 0.28266
 C1006 C 0.56608 0.68901 0.27697
 C1007 C 0.55089 0.66566 0.27702
 C1008 C 0.57291 0.65346 0.28986
 H1009 H 0.60650 0.72700 0.32223
 H1010 H 0.57032 0.74622 0.30240
 H1011 H 0.54772 0.65840 0.25826
 H1012 H 0.53368 0.66704 0.28857
 H1013 H 0.58232 0.63912 0.27848
 H1014 H 0.56853 0.64776 0.30890
 C1015 C 0.58428 0.18354 0.78056
 C1016 C 0.59998 0.19583 0.79733
 C1017 C 0.59727 0.22183 0.79917
 C1018 C 0.57733 0.23404 0.78735
 C1019 C 0.55994 0.22066 0.77297
 C1020 C 0.56494 0.19565 0.76856
 C1021 C 0.54776 0.17375 0.77027
 C1022 C 0.56891 0.16047 0.78345
 H1023 H 0.60992 0.23276 0.81035
 H1024 H 0.57505 0.25377 0.79013
 H1025 H 0.54351 0.16568 0.75204
 H1026 H 0.53102 0.17729 0.78202
 H1027 H 0.57672 0.14471 0.77279
 H1028 H 0.56448 0.15632 0.80287
 C1029 C 1.07813 0.68564 0.79074
 C1030 C 1.09403 0.69852 0.80687
 C1031 C 1.09118 0.72457 0.80799
 C1032 C 1.07130 0.73637 0.79566
 C1033 C 1.05409 0.72253 0.78150
 C1034 C 1.05888 0.69733 0.77825
 C1035 C 1.04147 0.67573 0.78107
 C1036 C 1.06252 0.66291 0.79480
 H1037 H 1.10393 0.73592 0.81864
 H1038 H 1.06918 0.75623 0.79751
 H1039 H 1.03704 0.66680 0.76327
 H1040 H 1.02482 0.68003 0.79270
 H1041 H 1.07010 0.64655 0.78489
 H1042 H 1.05814 0.65978 0.81442
 C1043 C 1.08904 0.21695 0.31517
 C1044 C 1.09768 0.19312 0.30894
 C1045 C 1.08250 0.17953 0.29220
 C1046 C 1.06209 0.19064 0.28018
 C1047 C 1.05593 0.21556 0.28458
 C1048 C 1.06879 0.22781 0.30333
 C1049 C 1.08081 0.25282 0.30339
 C1050 C 1.10303 0.24109 0.31626
 H1051 H 1.08610 0.16030 0.28805
 H1052 H 1.05164 0.17985 0.26688
 H1053 H 1.07036 0.26620 0.31505
 H1054 H 1.08542 0.25947 0.28472
 H1055 H 1.10541 0.24797 0.33527
 H1056 H 1.12056 0.24097 0.30507
 C1057 C 0.58105 0.32620 0.70734
 C1058 C 0.58783 0.32087 0.68309
 C1059 C 0.57153 0.30491 0.66992
 C1060 C 0.55168 0.29225 0.68183
 C1061 C 0.54738 0.29560 0.70705
 C1062 C 0.56132 0.31404 0.71893
 C1063 C 0.57504 0.31313 0.74265
 C1064 C 0.59670 0.32643 0.72998
 H1065 H 0.57466 0.30124 0.65073
 H1066 H 0.54052 0.27900 0.67156
 H1067 H 0.57971 0.29392 0.74827
 H1068 H 0.56575 0.32459 0.75695
 H1069 H 0.61395 0.31494 0.72821
 H1070 H 0.59989 0.34549 0.73710
 C1071 C 0.57592 0.78792 0.18126
 C1072 C 0.58488 0.81094 0.18987
 C1073 C 0.57043 0.82220 0.20875
 C1074 C 0.55062 0.80929 0.22042
 C1075 C 0.54450 0.78485 0.21352
 C1076 C 0.55641 0.77531 0.19277
 C1077 C 0.56832 0.75065 0.18888
 C1078 C 0.58978 0.76428 0.17635
 H1079 H 0.57443 0.84077 0.21511
 H1080 H 0.54100 0.81802 0.23562
 H1081 H 0.55719 0.73876 0.17624
 H1082 H 0.57398 0.74166 0.20624
 H1083 H 0.59106 0.75989 0.15654
 H1084 H 0.60791 0.76320 0.18643
 C1085 C 1.08617 0.31497 0.20471
 C1086 C 1.09440 0.30686 0.18155
 C1087 C 1.07948 0.28804 0.17035
 C1088 C 1.05944 0.27646 0.18299
 C1089 C 1.05345 0.28340 0.20710
 C1090 C 1.06633 0.30366 0.21698
 C1091 C 1.07883 0.30605 0.24120
 C1092 C 1.10066 0.31831 0.22796
 H1093 H 1.08298 0.28190 0.15187
 H1094 H 1.04913 0.26161 0.17410
 H1095 H 1.08374 0.28782 0.24922
 H1096 H 1.06855 0.31885 0.25362
 H1097 H 1.11827 0.30723 0.22830
 H1098 H 1.10301 0.33812 0.23313
 C1099 C 1.08151 0.82218 0.70641
 C1100 C 1.08915 0.81469 0.68285
 C1101 C 1.07315 0.79720 0.67098
 C1102 C 1.05293 0.78574 0.68343
 C1103 C 1.04777 0.79158 0.70799
 C1104 C 1.06144 0.81101 0.71850
 C1105 C 1.07427 0.81210 0.74265
 C1106 C 1.09635 0.82418 0.72959
 H1107 H 1.07607 0.79185 0.65218
 H1108 H 1.04194 0.77169 0.67407
 H1109 H 1.07865 0.79344 0.75000
 H1110 H 1.06454 0.82477 0.75560
 H1111 H 1.11358 0.81254 0.72933
 H1112 H 1.09940 0.84371 0.73541
 C1113 C 0.41048 0.71418 0.68294
 C1114 C 0.40331 0.68973 0.68813
 C1115 C 0.41991 0.67569 0.70266
 C1116 C 0.44072 0.68698 0.71418
 C1117 C 0.44566 0.71245 0.71111
 C1118 C 0.43116 0.72522 0.69405
 C1119 C 0.41815 0.74957 0.69636
 C1120 C 0.39548 0.73748 0.68418
 H1121 H 0.41642 0.65621 0.70591
 H1122 H 0.45231 0.67598 0.72621
 H1123 H 0.42722 0.76409 0.68493
 H1124 H 0.41465 0.75498 0.71568
 H1125 H 0.39151 0.74509 0.66577
 H1126 H 0.37880 0.73584 0.69643
 C1127 C 0.41945 0.18320 0.21827
 C1128 C 0.40509 0.19472 0.19996
 C1129 C 0.40998 0.22037 0.19629
 C1130 C 0.43000 0.23256 0.20821
 C1131 C 0.44567 0.21975 0.22447
 C1132 C 0.43903 0.19540 0.23020
 C1133 C 0.45516 0.17290 0.23065
 C1134 C 0.43394 0.15947 0.21752
 H1135 H 0.39854 0.23147 0.18433
 H1136 H 0.43343 0.25196 0.20437
 H1137 H 0.45825 0.16610 0.24953
 H1138 H 0.47253 0.17494 0.21940
 H1139 H 0.42510 0.14475 0.22887
 H1140 H 0.43895 0.15371 0.19861
 C1141 C -0.08997 0.72072 0.18680
 C1142 C -0.09445 0.69524 0.18951
 C1143 C -0.07630 0.68167 0.20272
 C1144 C -0.05664 0.69387 0.21524
 C1145 C -0.05428 0.71985 0.21441
 C1146 C -0.07033 0.73267 0.19877
 C1147 C -0.08580 0.75517 0.20363
 C1148 C -0.10733 0.74210 0.19055
 H1149 H -0.07750 0.66171 0.20401
 H1150 H -0.04371 0.68301 0.22603
 H1151 H -0.07856 0.77163 0.19363
 H1152 H -0.08943 0.75821 0.22343
 H1153 H -0.11249 0.75110 0.17306
 H1154 H -0.12348 0.73750 0.20273
 C1155 C -0.08633 0.21558 0.68694
 C1156 C -0.09322 0.19088 0.69130
 C1157 C -0.07663 0.17668 0.70574
 C1158 C -0.05619 0.18796 0.71793
 C1159 C -0.05156 0.21356 0.71557
 C1160 C -0.06601 0.22658 0.69866
 C1161 C -0.07940 0.25068 0.70143
 C1162 C -0.10170 0.23863 0.68860
 H1163 H -0.07982 0.15707 0.70839
 H1164 H -0.04464 0.17684 0.72988
 H1165 H -0.07037 0.26564 0.69054
 H1166 H -0.08328 0.25549 0.72084
 H1167 H -0.10549 0.24672 0.67036
 H1168 H -0.11853 0.23640 0.70055
 C1169 C 0.27648 0.40933 0.30808
 C1170 C 0.30237 0.40471 0.30566
 C1171 C 0.31663 0.42216 0.29213
 C1172 C 0.30474 0.44145 0.27934
 C1173 C 0.27834 0.44411 0.28012
 C1174 C 0.26483 0.42857 0.29582
 C1175 C 0.24175 0.41346 0.29095
 C1176 C 0.25449 0.39236 0.30434
 H1177 H 0.33693 0.42081 0.29097
 H1178 H 0.31616 0.45400 0.26855
 H1179 H 0.23889 0.40969 0.27117
 H1180 H 0.22499 0.42080 0.30075
 H1181 H 0.25908 0.37633 0.29236
 H1182 H 0.24498 0.38755 0.32181
 C1183 C 0.28564 -0.08610 0.81442
 C1184 C 0.30980 -0.09471 0.80800
 C1185 C 0.32335 -0.08010 0.79081
 C1186 C 0.31189 -0.06011 0.77875
 C1187 C 0.28662 -0.05388 0.78353
 C1188 C 0.27445 -0.06631 0.80255
 C1189 C 0.24898 -0.07806 0.80302
 C1190 C 0.26106 -0.09980 0.81591
 H1191 H 0.34279 -0.08385 0.78632
 H1192 H 0.32263 -0.05005 0.76514
 H1193 H 0.24189 -0.08273 0.78447
 H1194 H 0.23558 -0.06765 0.81479
 H1195 H 0.26100 -0.11712 0.80486
 H1196 H 0.25431 -0.10194 0.83502
 C1197 C 0.78401 0.41502 0.82280
 C1198 C 0.80800 0.40605 0.81623
 C1199 C 0.82219 0.42113 0.79994
 C1200 C 0.81137 0.44181 0.78851
 C1201 C 0.78616 0.44835 0.79312
 C1202 C 0.77347 0.43555 0.81159
 C1203 C 0.74768 0.42450 0.81151
 C1204 C 0.75905 0.40196 0.82366
 H1205 H 0.84162 0.41716 0.79557
 H1206 H 0.82253 0.45213 0.77540
 H1207 H 0.74063 0.42070 0.79277
 H1208 H 0.73449 0.43483 0.82355
 H1209 H 0.75857 0.38506 0.81199
 H1210 H 0.75210 0.39929 0.84264
 C1211 C 0.81910 -0.07618 0.29247
 C1212 C 0.81084 -0.08481 0.31540
 C1213 C 0.79274 -0.06981 0.32759
 C1214 C 0.78119 -0.04966 0.31576
 C1215 C 0.78754 -0.04367 0.29152
 C1216 C 0.80776 -0.05629 0.28095
 C1217 C 0.80980 -0.06794 0.25630
 C1218 C 0.82210 -0.08979 0.26875
 H1219 H 0.78686 -0.07359 0.34610
 H1220 H 0.76644 -0.03963 0.32519
 H1221 H 0.82287 -0.05756 0.24413
 H1222 H 0.79112 -0.07249 0.24823
 H1223 H 0.84219 -0.09203 0.26340
 H1224 H 0.81058 -0.10704 0.26791
 C1225 C 0.31096 0.58417 0.71484
 C1226 C 0.29805 0.59816 0.69742
 C1227 C 0.27203 0.59305 0.69450
 C1228 C 0.26058 0.57283 0.70653
 C1229 C 0.27476 0.55751 0.72202
 C1230 C 0.29961 0.56455 0.72692
 C1231 C 0.32308 0.54944 0.72619
 C1232 C 0.33554 0.57094 0.71290
 H1233 H 0.26052 0.60426 0.68265
 H1234 H 0.24080 0.56897 0.70337
 H1235 H 0.32108 0.53250 0.71473
 H1236 H 0.33090 0.54633 0.74472
 H1237 H 0.34076 0.56652 0.69370
 H1238 H 0.35059 0.58011 0.72380
 C1239 C 0.29358 1.07961 0.18242
 C1240 C 0.31749 1.08833 0.18974
 C1241 C 0.33014 1.07369 0.20737
 C1242 C 0.31783 1.05386 0.21924
 C1243 C 0.29262 1.04783 0.21377
 C1244 C 0.28157 1.06001 0.19410
 C1245 C 0.25626 1.07168 0.19231
 C1246 C 0.26921 1.09322 0.17964
 H1247 H 0.34939 1.07752 0.21258
 H1248 H 0.32774 1.04403 0.23346
 H1249 H 0.24824 1.07666 0.21045
 H1250 H 0.24340 1.06106 0.18013
 H1251 H 0.26871 1.11072 0.19040
 H1252 H 0.26347 1.09504 0.16023
 C1253 C 0.79128 0.58055 0.17547
 C1254 C 0.81514 0.58985 0.18223
 C1255 C 0.82911 0.57501 0.19869
 C1256 C 0.81808 0.55435 0.21028
 C1257 C 0.79285 0.54767 0.20569
 C1258 C 0.78049 0.56013 0.18692
 C1259 C 0.75473 0.57100 0.18656
 C1260 C 0.76636 0.59340 0.17413
 H1261 H 0.84844 0.57933 0.20322
 H1262 H 0.82895 0.54441 0.22374
 H1263 H 0.74734 0.57509 0.20517
 H1264 H 0.74171 0.56037 0.17456
 H1265 H 0.76573 0.61050 0.18549
 H1266 H 0.75977 0.59567 0.15503
 C1267 C 0.78036 1.08796 0.68688
 C1268 C 0.80564 1.09411 0.69142
 C1269 C 0.81958 1.07751 0.70592
 C1270 C 0.80759 1.05760 0.71783
 C1271 C 0.78148 1.05354 0.71518
 C1272 C 0.76863 1.06811 0.69833
 C1273 C 0.74444 1.08183 0.70116
 C1274 C 0.75729 1.10360 0.68863
 H1275 H 0.83960 1.08015 0.70868
 H1276 H 0.81865 1.04581 0.72958
 H1277 H 0.73957 1.08554 0.72059
 H1278 H 0.72905 1.07344 0.69011
 H1279 H 0.75991 1.11996 0.70077
 H1280 H 0.74923 1.10773 0.67039
 C1281 C 0.71733 0.57903 0.31870
 C1282 C 0.70232 0.59611 0.30617
 C1283 C 0.70270 0.59486 0.28037
 C1284 C 0.71460 0.57512 0.26820
 C1285 C 0.72699 0.55656 0.28147
 C1286 C 0.72956 0.55987 0.30663
 C1287 C 0.72449 0.54205 0.32684
 C1288 C 0.71106 0.56301 0.34006
 H1289 H 0.69326 0.60863 0.26946
 H1290 H 0.71353 0.57404 0.24848
 H1291 H 0.74210 0.53619 0.33606
 H1292 H 0.71169 0.52667 0.32128
 H1293 H 0.72094 0.56911 0.35692
 H1294 H 0.69044 0.55983 0.34216
 C1295 C 0.70739 1.07840 0.82122
 C1296 C 0.68410 1.08748 0.81289
 C1297 C 0.67157 1.07283 0.79507
 C1298 C 0.68361 1.05259 0.78385
 C1299 C 0.70851 1.04627 0.79005
 C1300 C 0.71926 1.05845 0.81003
 C1301 C 0.74481 1.06973 0.81268
 C1302 C 0.73200 1.09162 0.82486
 H1303 H 0.65264 1.07705 0.78921
 H1304 H 0.67387 1.04278 0.76938
 H1305 H 0.75363 1.07440 0.79482
 H1306 H 0.75691 1.05903 0.82532
 H1307 H 0.73340 1.10901 0.81410
 H1308 H 0.73697 1.09354 0.84448
 C1309 C 0.17596 0.58524 0.79309
 C1310 C 0.18214 0.59299 0.81695
 C1311 C 0.19838 0.57698 0.83016
 C1312 C 0.21009 0.55652 0.81878
 C1313 C 0.20558 0.55107 0.79406
 C1314 C 0.18724 0.56488 0.78213
 C1315 C 0.18854 0.57693 0.75772
 C1316 C 0.17640 0.59934 0.76953
 H1317 H 0.20264 0.58005 0.84918
 H1318 H 0.22327 0.54551 0.82913
 H1319 H 0.17619 0.56753 0.74416
 H1320 H 0.20823 0.58037 0.75150
 H1321 H 0.15720 0.60291 0.76234
 H1322 H 0.18903 0.61583 0.77024
 C1323 C 0.21883 1.08769 0.31848
 C1324 C 0.19490 1.09615 0.31130
 C1325 C 0.18189 1.08112 0.29406
 C1326 C 0.19370 1.06089 0.28260
 C1327 C 0.21881 1.05479 0.28805
 C1328 C 0.23039 1.06762 0.30719
 C1329 C 0.25583 1.07940 0.30812
 C1330 C 0.24334 1.10143 0.32038
 H1331 H 0.16256 1.08469 0.28910
 H1332 H 0.18334 1.05048 0.26895
 H1333 H 0.26351 1.08365 0.28968
 H1334 H 0.26885 1.06927 0.32037
 H1335 H 0.24376 1.11851 0.30908
 H1336 H 0.24944 1.10402 0.33962
 C1337 C 0.68413 0.42056 0.71280
 C1338 C 0.69147 0.41392 0.68905
 C1339 C 0.70987 0.42911 0.67770
 C1340 C 0.72238 0.44798 0.69095
 C1341 C 0.71651 0.45234 0.71572
 C1342 C 0.69618 0.43928 0.72568
 C1343 C 0.69436 0.42548 0.74919
 C1344 C 0.68114 0.40494 0.73509
 H1345 H 0.71524 0.42608 0.65887
 H1346 H 0.73711 0.45858 0.68203
 H1347 H 0.68188 0.43493 0.76260
 H1348 H 0.71311 0.41999 0.75631
 H1349 H 0.66106 0.40257 0.74046
 H1350 H 0.69219 0.38751 0.73407
 C1351 C 0.67913 -0.08524 0.21738
 C1352 C 0.69222 -0.10087 0.20128
 C1353 C 0.71851 -0.09687 0.19908
 C1354 C 0.73010 -0.07603 0.20992
 C1355 C 0.71580 -0.05898 0.22364
 C1356 C 0.69064 -0.06500 0.22841
 C1357 C 0.66762 -0.04942 0.22610
 C1358 C 0.65499 -0.07157 0.21396
 H1359 H 0.73012 -0.10928 0.18840
 H1360 H 0.75006 -0.07290 0.20699
 H1361 H 0.67043 -0.03344 0.21360
 H1362 H 0.65933 -0.04471 0.24417
 H1363 H 0.65047 -0.06850 0.19440
 H1364 H 0.63937 -0.07951 0.22506
 C1365 C 0.21247 0.41621 0.17196
 C1366 C 0.18699 0.41001 0.17527
 C1367 C 0.17232 0.42657 0.18942
 C1368 C 0.18377 0.44611 0.20255
 C1369 C 0.21005 0.44987 0.20142
 C1370 C 0.22365 0.43569 0.18457
 C1371 C 0.24771 0.42188 0.18778
 C1372 C 0.23547 0.40053 0.17399
 H1373 H 0.15220 0.42387 0.19134
 H1374 H 0.17222 0.45753 0.21436
 H1375 H 0.25170 0.41757 0.20723
 H1376 H 0.26358 0.43060 0.17762
 H1377 H 0.23232 0.38381 0.18542
 H1378 H 0.24437 0.39696 0.15593
 C1379 C 0.21705 -0.08593 0.67819
 C1380 C 0.19115 -0.09051 0.68108
 C1381 C 0.17724 -0.07260 0.69433
 C1382 C 0.18957 -0.05321 0.70692
 C1383 C 0.21602 -0.05088 0.70610
 C1384 C 0.22911 -0.06655 0.69020
 C1385 C 0.25218 -0.08154 0.69465
 C1386 C 0.23900 -0.10280 0.68154
 H1387 H 0.15695 -0.07392 0.69581
 H1388 H 0.17849 -0.04060 0.71795
 H1389 H 0.25543 -0.08513 0.71437
 H1390 H 0.26879 -0.07425 0.68450
 H1391 H 0.23455 -0.11874 0.69365
 H1392 H 0.24812 -0.10775 0.66391
 C1393 C 0.28367 0.32275 0.41964
 C1394 C 0.30161 0.31046 0.40524
 C1395 C 0.30558 0.28509 0.41023
 C1396 C 0.29449 0.27379 0.43074
 C1397 C 0.27875 0.28738 0.44657
 C1398 C 0.27239 0.31146 0.43967
 C1399 C 0.27294 0.33484 0.45428
 C1400 C 0.28529 0.34720 0.43237
 H1401 H 0.31763 0.27397 0.39865
 H1402 H 0.29856 0.25451 0.43439
 H1403 H 0.28553 0.33365 0.47043
 H1404 H 0.25368 0.34187 0.45818
 H1405 H 0.30506 0.35317 0.43576
 H1406 H 0.27312 0.36135 0.42370
 C1407 C 0.28346 0.81757 -0.08612
 C1408 C 0.30863 0.81274 -0.09232
 C1409 C 0.32284 0.79885 -0.07541
 C1410 C 0.31113 0.78757 -0.05512
 C1411 C 0.28507 0.79037 -0.05098
 C1412 C 0.27206 0.80682 -0.06594
 C1413 C 0.24760 0.80340 -0.07895
 C1414 C 0.26009 0.81514 -0.10110
 H1415 H 0.34280 0.79591 -0.07815
 H1416 H 0.32226 0.77601 -0.04322
 H1417 H 0.23240 0.81498 -0.07093
 H1418 H 0.24260 0.78354 -0.08170
 H1419 H 0.25198 0.83344 -0.10583
 H1420 H 0.26238 0.80212 -0.11672
 C1421 C 0.77801 0.31254 -0.08350
 C1422 C 0.80325 0.30785 -0.08954
 C1423 C 0.81708 0.29305 -0.07311
 C1424 C 0.80496 0.28085 -0.05359
 C1425 C 0.77885 0.28358 -0.04973
 C1426 C 0.76618 0.30086 -0.06406
 C1427 C 0.74195 0.29826 -0.07762
 C1428 C 0.75489 0.31104 -0.09895
 H1429 H 0.83707 0.29012 -0.07568
 H1430 H 0.81585 0.26868 -0.04207
 H1431 H 0.72668 0.30953 -0.06928
 H1432 H 0.73687 0.27861 -0.08142
 H1433 H 0.74699 0.32963 -0.10290
 H1434 H 0.75738 0.29882 -0.11516
 C1435 C 0.78230 0.82223 0.41828
 C1436 C 0.79881 0.81011 0.40220
 C1437 C 0.80070 0.78409 0.40450
 C1438 C 0.78955 0.77170 0.42436
 C1439 C 0.77571 0.78489 0.44206
 C1440 C 0.77087 0.80990 0.43761
 C1441 C 0.77355 0.83172 0.45421
 C1442 C 0.78609 0.84523 0.43307
 H1443 H 0.81150 0.77330 0.39154
 H1444 H 0.79239 0.75194 0.42624
 H1445 H 0.78651 0.82817 0.46973
 H1446 H 0.75499 0.83964 0.45939
 H1447 H 0.80634 0.84950 0.43627
 H1448 H 0.77473 0.86094 0.42614
 C1449 C 0.71604 0.32228 0.58325
 C1450 C 0.69837 0.31013 0.59818
 C1451 C 0.69498 0.28443 0.59413
 C1452 C 0.70635 0.27255 0.57400
 C1453 C 0.72178 0.28591 0.55766
 C1454 C 0.72761 0.31046 0.56367
 C1455 C 0.72661 0.33311 0.54819
 C1456 C 0.71394 0.34607 0.56960
 H1457 H 0.68310 0.27349 0.60605
 H1458 H 0.70264 0.25304 0.57098
 H1459 H 0.71411 0.33079 0.53207
 H1460 H 0.74573 0.34055 0.54407
 H1461 H 0.69405 0.35127 0.56595
 H1462 H 0.72577 0.36099 0.57774
 C1463 C 0.67775 0.78822 1.08713
 C1464 C 0.68383 0.81246 1.09441
 C1465 C 0.70073 0.82577 1.07927
 C1466 C 0.71336 0.81390 1.05981
 C1467 C 0.70910 0.78859 1.05479
 C1468 C 0.68990 0.77667 1.06779
 C1469 C 0.69006 0.75224 1.08044
 C1470 C 0.67672 0.76486 1.10165
 H1471 H 0.70494 0.84507 1.08281
 H1472 H 0.72702 0.82434 1.04926
 H1473 H 0.70940 0.74600 1.08500
 H1474 H 0.67811 0.73826 1.07096
 H1475 H 0.68831 0.76590 1.11851
 H1476 H 0.65709 0.75809 1.10435
 C1477 C 0.21678 0.31392 1.07671
 C1478 C 0.19181 0.30803 1.08294
 C1479 C 0.17905 0.29113 1.06739
 C1480 C 0.19208 0.27843 1.04865
 C1481 C 0.21803 0.28265 1.04473
 C1482 C 0.22945 0.30170 1.05812
 C1483 C 0.25369 0.30180 1.07188
 C1484 C 0.23982 0.31517 1.09230
 H1485 H 0.15928 0.28699 1.07010
 H1486 H 0.18208 0.26468 1.03791
 H1487 H 0.26830 0.31348 1.06289
 H1488 H 0.25994 0.28287 1.07695
 H1489 H 0.24656 0.33450 1.09508
 H1490 H 0.23796 0.30400 1.10924
 C1491 C 0.20936 0.81768 0.57507
 C1492 C 0.19203 0.80567 0.59047
 C1493 C 0.18875 0.77987 0.58687
 C1494 C 0.20016 0.76764 0.56695
 C1495 C 0.21556 0.78073 0.55040
 C1496 C 0.22100 0.80551 0.55575
 C1497 C 0.21943 0.82766 0.53963
 C1498 C 0.20665 0.84100 0.56075
 H1499 H 0.17722 0.76900 0.59916
 H1500 H 0.19680 0.74799 0.56446
 H1501 H 0.20685 0.82462 0.52367
 H1502 H 0.23835 0.83534 0.53516
 H1503 H 0.18663 0.84568 0.55711
 H1504 H 0.21824 0.85639 0.56834
 C1505 C 0.28081 0.67941 0.58423
 C1506 C 0.30645 0.68246 0.58971
 C1507 C 0.32146 0.69494 0.57218
 C1508 C 0.31029 0.70690 0.55213
 C1509 C 0.28399 0.70611 0.54883
 C1510 C 0.26992 0.69074 0.56422
 C1511 C 0.24610 0.69603 0.57779
 C1512 C 0.25803 0.68366 0.59975
 H1513 H 0.34166 0.69643 0.57434
 H1514 H 0.32211 0.71747 0.53978
 H1515 H 0.22982 0.68549 0.57027
 H1516 H 0.24283 0.71621 0.58043
 H1517 H 0.24850 0.66604 0.60490
 H1518 H 0.26173 0.69663 0.61516
 C1519 C 0.32569 0.20712 1.08433
 C1520 C 0.31300 0.18941 1.09850
 C1521 C 0.28726 0.18521 1.09309
 C1522 C 0.27599 0.19616 1.07254
 C1523 C 0.29002 0.21191 1.05710
 C1524 C 0.31449 0.21817 1.06429
 C1525 C 0.33842 0.21783 1.04991
 C1526 C 0.35070 0.20570 1.07185
 H1527 H 0.27581 0.17321 1.10440
 H1528 H 0.25647 0.19192 1.06853
 H1529 H 0.34569 0.23681 1.04628
 H1530 H 0.33732 0.20549 1.03364
 H1531 H 0.36507 0.21772 1.08076
 H1532 H 0.35672 0.18631 1.06834
 C1533 C 0.78537 0.68353 1.08272
 C1534 C 0.81015 0.68955 1.08944
 C1535 C 0.82332 0.70625 1.07406
 C1536 C 0.81079 0.71882 1.05512
 C1537 C 0.78495 0.71462 1.05078
 C1538 C 0.77319 0.69559 1.06386
 C1539 C 0.74859 0.69551 1.07714
 C1540 C 0.76191 0.68230 1.09783
 H1541 H 0.84303 0.71040 1.07706
 H1542 H 0.82109 0.73241 1.04450
 H1543 H 0.73423 0.68377 1.06785
 H1544 H 0.74223 0.71445 1.08212
 H1545 H 0.75516 0.66296 1.10043
 H1546 H 0.76326 0.69357 1.11482
 C1547 C 0.78596 0.18299 0.58510
 C1548 C 0.81135 0.18683 0.59118
 C1549 C 0.82614 0.20060 0.57445
 C1550 C 0.81486 0.21281 0.55460
 C1551 C 0.78866 0.21107 0.55073
 C1552 C 0.77497 0.19464 0.56534
 C1553 C 0.75070 0.19847 0.57865
 C1554 C 0.76273 0.18574 0.60035
 H1555 H 0.84622 0.20284 0.57709
 H1556 H 0.82644 0.22437 0.54292
 H1557 H 0.73500 0.18759 0.57046
 H1558 H 0.74655 0.21838 0.58197
 H1559 H 0.75384 0.16758 0.60467
 H1560 H 0.76562 0.19825 0.61629
 C1561 C 0.71504 0.67865 0.41809
 C1562 C 0.68965 0.68220 0.41196
 C1563 C 0.67487 0.69599 0.42867
 C1564 C 0.68618 0.70854 0.44850
 C1565 C 0.71238 0.70711 0.45235
 C1566 C 0.72603 0.69061 0.43781
 C1567 C 0.75033 0.69448 0.42452
 C1568 C 0.73830 0.68141 0.40286
 H1569 H 0.65481 0.69809 0.42596
 H1570 H 0.67463 0.72021 0.46007
 H1571 H 0.76600 0.68382 0.43278
 H1572 H 0.75453 0.71438 0.42112
 H1573 H 0.74719 0.66329 0.39863
 H1574 H 0.73548 0.69371 0.38687
 C1575 C 0.70694 0.17900 -0.08464
 C1576 C 0.68270 0.18540 -0.09245
 C1577 C 0.66893 0.20181 -0.07733
 C1578 C 0.68047 0.21352 -0.05713
 C1579 C 0.70591 0.20883 -0.05143
 C1580 C 0.71816 0.19027 -0.06467
 C1581 C 0.74350 0.19056 -0.07658
 C1582 C 0.73121 0.17821 -0.09852
 H1583 H 0.64956 0.20631 -0.08145
 H1584 H 0.66979 0.22686 -0.04659
 H1585 H 0.75711 0.17838 -0.06705
 H1586 H 0.75045 0.20965 -0.08036
 H1587 H 0.73784 0.15895 -0.10161
 H1588 H 0.73099 0.19011 -0.11505
 C1589 C 0.21076 0.68740 -0.08311
 C1590 C 0.18583 0.69288 -0.08943
 C1591 C 0.17245 0.70883 -0.07349
 C1592 C 0.18481 0.72098 -0.05401
 C1593 C 0.21070 0.71716 -0.04980
 C1594 C 0.22279 0.69907 -0.06380
 C1595 C 0.24729 0.70038 -0.07721
 C1596 C 0.23412 0.68760 -0.09842
 H1597 H 0.15267 0.71256 -0.07637
 H1598 H 0.17431 0.73390 -0.04280
 H1599 H 0.26197 0.68873 -0.06858
 H1600 H 0.25320 0.71973 -0.08130
 H1601 H 0.24131 0.66862 -0.10200
 H1602 H 0.23234 0.69951 -0.11484
 C1603 C 0.21535 0.18575 0.41732
 C1604 C 0.19036 0.19006 0.41031
 C1605 C 0.17529 0.20402 0.42665
 C1606 C 0.18608 0.21590 0.44714
 C1607 C 0.21202 0.21363 0.45203
 C1608 C 0.22583 0.19708 0.43767
 C1609 C 0.25072 0.20059 0.42534
 C1610 C 0.23925 0.18820 0.40301
 H1611 H 0.15541 0.20663 0.42327
 H1612 H 0.17435 0.22759 0.45851
 H1613 H 0.26578 0.18941 0.43397
 H1614 H 0.25554 0.22045 0.42246
 H1615 H 0.24781 0.16993 0.39878
 H1616 H 0.23736 0.20086 0.38715
 C1617 C 0.28015 0.41926 0.68680
 C1618 C 0.30531 0.41300 0.69133
 C1619 C 0.31918 0.42919 0.70668
 C1620 C 0.30712 0.44865 0.71936
 C1621 C 0.28103 0.45260 0.71668
 C1622 C 0.26839 0.43856 0.69902
 C1623 C 0.24404 0.42470 0.70080
 C1624 C 0.25691 0.40353 0.68742
 H1625 H 0.33910 0.42640 0.70968
 H1626 H 0.31801 0.45992 0.73191
 H1627 H 0.22890 0.43353 0.68994
 H1628 H 0.23882 0.42014 0.71996
 H1629 H 0.24911 0.40018 0.66888
 H1630 H 0.25920 0.38667 0.69879
 C1631 C 0.31884 0.91459 0.21517
 C1632 C 0.30556 0.90030 0.19800
 C1633 C 0.27978 0.90587 0.19478
 C1634 C 0.26897 0.92675 0.20612
 C1635 C 0.28354 0.94236 0.22127
 C1636 C 0.30809 0.93493 0.22661
 C1637 C 0.33209 0.94942 0.22561
 C1638 C 0.34389 0.92714 0.21305
 H1639 H 0.26795 0.89448 0.18320
 H1640 H 0.24935 0.93090 0.20266
 H1641 H 0.33990 0.95304 0.24410
 H1642 H 0.33078 0.96597 0.21365
 H1643 H 0.35850 0.91800 0.22433
 H1644 H 0.34941 0.93071 0.19378
 C1645 C 0.82009 0.41426 0.20577
 C1646 C 0.80597 0.39926 0.18988
 C1647 C 0.78001 0.40461 0.18775
 C1648 C 0.76966 0.42577 0.19905
 C1649 C 0.78494 0.44185 0.21302
 C1650 C 0.80983 0.43482 0.21717
 C1651 C 0.83357 0.44950 0.21435
 C1652 C 0.84483 0.42695 0.20182
 H1653 H 0.76766 0.39279 0.17713
 H1654 H 0.74984 0.42967 0.19657
 H1655 H 0.84245 0.45379 0.23224
 H1656 H 0.83133 0.46564 0.20199
 H1657 H 0.86023 0.41833 0.21251
 H1658 H 0.84912 0.42994 0.18217
 C1659 C 0.78495 0.92120 0.67642
 C1660 C 0.80998 0.91473 0.68132
 C1661 C 0.82358 0.93036 0.69740
 C1662 C 0.81126 0.94922 0.71063
 C1663 C 0.78520 0.95310 0.70775
 C1664 C 0.77293 0.93994 0.68920
 C1665 C 0.74852 0.92607 0.68981
 C1666 C 0.76170 0.90549 0.67581
 H1667 H 0.84344 0.92741 0.70068
 H1668 H 0.82188 0.95993 0.72386
 H1669 H 0.73367 0.93543 0.67900
 H1670 H 0.74281 0.92066 0.70861
 H1671 H 0.75437 0.90301 0.65697
 H1672 H 0.76368 0.88813 0.68647
 C1673 C 0.72243 0.58920 0.69106
 C1674 C 0.69695 0.59510 0.69456
 C1675 C 0.68226 0.57816 0.70826
 C1676 C 0.69360 0.55816 0.72042
 C1677 C 0.71981 0.55432 0.71881
 C1678 C 0.73351 0.56929 0.70274
 C1679 C 0.75756 0.58316 0.70678
 C1680 C 0.74542 0.60499 0.69400
 H1681 H 0.66213 0.58060 0.71020
 H1682 H 0.68196 0.54616 0.73161
 H1683 H 0.77349 0.57503 0.69630
 H1684 H 0.76142 0.58663 0.72645
 H1685 H 0.75443 0.60943 0.67620
 H1686 H 0.74220 0.62116 0.70624
 C1687 C 0.70518 0.07664 0.17814
 C1688 C 0.68068 0.08383 0.18458
 C1689 C 0.66772 0.06864 0.20152
 C1690 C 0.68035 0.04951 0.21394
 C1691 C 0.70609 0.04490 0.20941
 C1692 C 0.71749 0.05765 0.19012
 C1693 C 0.74226 0.07087 0.18913
 C1694 C 0.72879 0.09170 0.17601
 H1695 H 0.64821 0.07214 0.20610
 H1696 H 0.67034 0.03926 0.22792
 H1697 H 0.75612 0.06105 0.17738
 H1698 H 0.74929 0.07627 0.20752
 H1699 H 0.73500 0.09386 0.15673
 H1700 H 0.72797 0.10919 0.18677
 C1701 C 0.18080 0.58687 0.21180
 C1702 C 0.18769 0.59492 0.18836
 C1703 C 0.20411 0.57924 0.17498
 C1704 C 0.21556 0.55860 0.18608
 C1705 C 0.21042 0.55269 0.21063
 C1706 C 0.19165 0.56628 0.22250
 C1707 C 0.19189 0.57807 0.24716
 C1708 C 0.18004 0.60065 0.23550
 H1709 H 0.20876 0.58302 0.15614
 H1710 H 0.22887 0.54768 0.17563
 H1711 H 0.21129 0.58159 0.25388
 H1712 H 0.17915 0.56842 0.26021
 H1713 H 0.19255 0.61724 0.23556
 H1714 H 0.16047 0.60397 0.24197
 C1715 C 0.18330 0.08106 0.70834
 C1716 C 0.19594 0.09623 0.69153
 C1717 C 0.22180 0.09132 0.68750
 C1718 C 0.23337 0.07045 0.69801
 C1719 C 0.21949 0.05420 0.71306
 C1720 C 0.19477 0.06078 0.71893
 C1721 C 0.17121 0.04560 0.71776
 C1722 C 0.15862 0.06783 0.70613
 H1723 H 0.23313 0.10330 0.67606
 H1724 H 0.25308 0.06696 0.69418
 H1725 H 0.16369 0.04125 0.73622
 H1726 H 0.17293 0.02943 0.70523
 H1727 H 0.14382 0.07620 0.71790
 H1728 H 0.15304 0.06462 0.68681
 C1729 C 0.28176 0.57715 0.31776
 C1730 C 0.30776 0.58111 0.31475
 C1731 C 0.32095 0.56349 0.30052
 C1732 C 0.30788 0.54537 0.28691
 C1733 C 0.28136 0.54401 0.28768
 C1734 C 0.26893 0.55897 0.30470
 C1735 C 0.24643 0.57506 0.30141
 C1736 C 0.26038 0.59491 0.31581
 H1737 H 0.34126 0.56421 0.29892
 H1738 H 0.31846 0.53309 0.27508
 H1739 H 0.22954 0.56769 0.31104
 H1740 H 0.24350 0.58015 0.28202
 H1741 H 0.25155 0.59886 0.33382
 H1742 H 0.26525 0.61153 0.30480
 C1743 C 0.32455 0.07560 0.79103
 C1744 C 0.31239 0.09038 0.80852
 C1745 C 0.28621 0.08636 0.81178
 C1746 C 0.27373 0.06667 0.79974
 C1747 C 0.28701 0.05075 0.78387
 C1748 C 0.31220 0.05651 0.77893
 C1749 C 0.33481 0.04020 0.77964
 C1750 C 0.34836 0.06111 0.79293
 H1751 H 0.27526 0.09818 0.82369
 H1752 H 0.25378 0.06385 0.80298
 H1753 H 0.34255 0.03656 0.76110
 H1754 H 0.33184 0.02345 0.79108
 H1755 H 0.36393 0.06941 0.78203
 H1756 H 0.35323 0.05655 0.81213
 C1757 C 0.78748 0.58530 0.82477
 C1758 C 0.81293 0.59124 0.82080
 C1759 C 0.82715 0.57433 0.80666
 C1760 C 0.81527 0.55452 0.79429
 C1761 C 0.78900 0.55090 0.79614
 C1762 C 0.77588 0.56560 0.81289
 C1763 C 0.75186 0.57950 0.80980
 C1764 C 0.76455 0.60111 0.82279
 H1765 H 0.84723 0.57688 0.80422
 H1766 H 0.82648 0.54273 0.78252
 H1767 H 0.73614 0.57117 0.82049
 H1768 H 0.74749 0.58333 0.79033
 H1769 H 0.75606 0.60522 0.84092
 H1770 H 0.76758 0.61750 0.81088
 C1771 C 0.81454 0.08793 0.28525
 C1772 C 0.80176 0.10300 0.30210
 C1773 C 0.77560 0.09863 0.30495
 C1774 C 0.76390 0.07798 0.29386
 C1775 C 0.77794 0.06145 0.27927
 C1776 C 0.80292 0.06784 0.27403
 C1777 C 0.82617 0.05247 0.27535
 C1778 C 0.83891 0.07445 0.28768
 H1779 H 0.76418 0.11065 0.31625
 H1780 H 0.74407 0.07458 0.29729
 H1781 H 0.83400 0.04830 0.25695
 H1782 H 0.82389 0.03616 0.28752
 H1783 H 0.85412 0.08284 0.27638
 H1784 H 0.84402 0.07094 0.30704
 C1785 C 0.68373 0.42622 0.29743
 C1786 C 0.69663 0.41134 0.31416
 C1787 C 0.72305 0.41468 0.31561
 C1788 C 0.73521 0.43380 0.30259
 C1789 C 0.72140 0.44986 0.28749
 C1790 C 0.69577 0.44480 0.28433
 C1791 C 0.67378 0.46178 0.28660
 C1792 C 0.66058 0.44144 0.30096
 H1793 H 0.73445 0.40268 0.32678
 H1794 H 0.75542 0.43603 0.30443
 H1795 H 0.66484 0.46546 0.26866
 H1796 H 0.67808 0.47856 0.29771
 H1797 H 0.64404 0.43346 0.29126
 H1798 H 0.65722 0.44637 0.32042
 C1799 C 0.68191 0.91391 0.78946
 C1800 C 0.69468 0.90014 0.80718
 C1801 C 0.72048 0.90576 0.81070
 C1802 C 0.73178 0.92620 0.79891
 C1803 C 0.71767 0.94127 0.78307
 C1804 C 0.69310 0.93376 0.77763
 C1805 C 0.66930 0.94838 0.77784
 C1806 C 0.65700 0.92662 0.79085
 H1807 H 0.73190 0.89480 0.82286
 H1808 H 0.75137 0.93048 0.80262
 H1809 H 0.66186 0.95133 0.75913
 H1810 H 0.67067 0.96535 0.78934
 H1811 H 0.64242 0.91714 0.77961
 H1812 H 0.65122 0.93092 0.80992
 C1813 C 0.21680 0.41121 0.82027
 C1814 C 0.19094 0.40585 0.81901
 C1815 C 0.17545 0.42388 0.80793
 C1816 C 0.18613 0.44433 0.79568
 C1817 C 0.21245 0.44760 0.79481
 C1818 C 0.22723 0.43164 0.80869
 C1819 C 0.25041 0.41782 0.80154
 C1820 C 0.23899 0.39539 0.81418
 H1821 H 0.15516 0.42190 0.80788
 H1822 H 0.17385 0.45713 0.78633
 H1823 H 0.26748 0.42514 0.81087
 H1824 H 0.25228 0.41549 0.78143
 H1825 H 0.24961 0.38978 0.83071
 H1826 H 0.23418 0.38001 0.80142
 C1827 C 0.18188 0.92027 0.29342
 C1828 C 0.18857 0.91315 0.31712
 C1829 C 0.20601 0.92857 0.32956
 C1830 C 0.21849 0.94810 0.31731
 C1831 C 0.21350 0.95290 0.29250
 C1832 C 0.19388 0.93964 0.28152
 C1833 C 0.19322 0.92652 0.25749
 C1834 C 0.18009 0.90525 0.27051
 H1835 H 0.21080 0.92511 0.34841
 H1836 H 0.23271 0.95871 0.32695
 H1837 H 0.21233 0.92174 0.25060
 H1838 H 0.18091 0.93605 0.24413
 H1839 H 0.19159 0.88809 0.27123
 H1840 H 0.16027 0.90251 0.26452
 C1841 C 0.40685 0.31491 0.71790
 C1842 C 0.40078 0.31158 0.69319
 C1843 C 0.41839 0.29854 0.67865
 C1844 C 0.43930 0.28681 0.68929
 C1845 C 0.44346 0.28824 0.71465
 C1846 C 0.42769 0.30368 0.72832
 C1847 C 0.41393 0.29852 0.75156
 C1848 C 0.39110 0.31080 0.74016
 H1849 H 0.41590 0.29686 0.65912
 H1850 H 0.45188 0.27622 0.67772
 H1851 H 0.42185 0.30917 0.76718
 H1852 H 0.41125 0.27836 0.75489
 H1853 H 0.38590 0.32848 0.74929
 H1854 H 0.37515 0.29778 0.73685
 C1855 C 0.41525 0.78181 0.18529
 C1856 C 0.39876 0.79729 0.19827
 C1857 C 0.40104 0.79745 0.22401
 C1858 C 0.42120 0.78533 0.23554
 C1859 C 0.43920 0.77226 0.22169
 C1860 C 0.43480 0.76948 0.19670
 C1861 C 0.45229 0.77346 0.17568
 C1862 C 0.43091 0.78702 0.16317
 H1863 H 0.38778 0.80744 0.23534
 H1864 H 0.42308 0.78677 0.25518
 H1865 H 0.45735 0.75577 0.16649
 H1866 H 0.46852 0.78567 0.18039
 H1867 H 0.42378 0.77713 0.14672
 H1868 H 0.43467 0.80713 0.16063
 C1869 C 0.91942 0.31488 0.20490
 C1870 C 0.90452 0.30197 0.18794
 C1871 C 0.90941 0.27640 0.18498
 C1872 C 0.93007 0.26525 0.19670
 C1873 C 0.94612 0.27929 0.21193
 C1874 C 0.93950 0.30384 0.21668
 C1875 C 0.95523 0.32679 0.21525
 C1876 C 0.93322 0.33891 0.20231
 H1877 H 0.89753 0.26495 0.17351
 H1878 H 0.93359 0.24575 0.19362
 H1879 H 0.97213 0.32447 0.20343
 H1880 H 0.95900 0.33485 0.23359
 H1881 H 0.93731 0.34361 0.18295
 H1882 H 0.92441 0.35398 0.21321
 C1883 C 0.91525 0.82232 0.70606
 C1884 C 0.90004 0.80957 0.68923
 C1885 C 0.90410 0.78380 0.68681
 C1886 C 0.92446 0.77229 0.69867
 C1887 C 0.94101 0.78616 0.71355
 C1888 C 0.93501 0.81092 0.71802
 C1889 C 0.95134 0.83344 0.71642
 C1890 C 0.92971 0.84596 0.70327
 H1891 H 0.89196 0.77249 0.67546
 H1892 H 0.92750 0.75266 0.69583
 H1893 H 0.96822 0.83057 0.70468
 H1894 H 0.95525 0.84160 0.73468
 H1895 H 0.93398 0.85035 0.68387
 H1896 H 0.92127 0.86138 0.71398
 C1897 C 0.58190 0.32587 0.29873
 C1898 C 0.59686 0.31418 0.31628
 C1899 C 0.59333 0.28836 0.31923
 C1900 C 0.57364 0.27577 0.30716
 C1901 C 0.55728 0.28854 0.29145
 C1902 C 0.56277 0.31338 0.28654
 C1903 C 0.54585 0.33537 0.28723
 C1904 C 0.56679 0.34905 0.30061
 H1905 H 0.60549 0.27777 0.33103
 H1906 H 0.57104 0.25614 0.31039
 H1907 H 0.52873 0.33226 0.29861
 H1908 H 0.54222 0.34282 0.26869
 H1909 H 0.56188 0.35388 0.31979
 H1910 H 0.57513 0.36442 0.28976
 C1911 C 0.58071 0.81531 0.79059
 C1912 C 0.59435 0.80369 0.80913
 C1913 C 0.58903 0.77837 0.81341
 C1914 C 0.56897 0.76634 0.80129
 C1915 C 0.55399 0.77925 0.78440
 C1916 C 0.56121 0.80342 0.77848
 C1917 C 0.54575 0.82642 0.77753
 C1918 C 0.56714 0.83947 0.79083
 H1919 H 0.60006 0.76782 0.82624
 H1920 H 0.56500 0.74711 0.80540
 H1921 H 0.52815 0.82499 0.78853
 H1922 H 0.54317 0.83307 0.75852
 H1923 H 0.56201 0.84563 0.80959
 H1924 H 0.57681 0.85368 0.77947
 C1925 C 0.08449 0.31414 0.79446
 C1926 C 0.09202 0.30724 0.81798
 C1927 C 0.07598 0.29065 0.83071
 C1928 C 0.05527 0.27927 0.81889
 C1929 C 0.04989 0.28459 0.79427
 C1930 C 0.06398 0.30328 0.78303
 C1931 C 0.07673 0.30333 0.75869
 C1932 C 0.09927 0.31521 0.77121
 H1933 H 0.07975 0.28575 0.84946
 H1934 H 0.04410 0.26572 0.82872
 H1935 H 0.06728 0.31588 0.74557
 H1936 H 0.08052 0.28435 0.75168
 H1937 H 0.10282 0.33454 0.76514
 H1938 H 0.11618 0.30312 0.77152
 C1939 C 0.08251 0.82206 0.29214
 C1940 C 0.08909 0.81562 0.31606
 C1941 C 0.07324 0.79832 0.32805
 C1942 C 0.05389 0.78583 0.31525
 C1943 C 0.04970 0.79064 0.29030
 C1944 C 0.06328 0.81007 0.27970
 C1945 C 0.07732 0.81083 0.25607
 C1946 C 0.09844 0.82398 0.26967
 H1947 H 0.07617 0.79372 0.34702
 H1948 H 0.04280 0.77193 0.32466
 H1949 H 0.06790 0.82277 0.24240
 H1950 H 0.08261 0.79209 0.24940
 H1951 H 0.10116 0.84348 0.26375
 H1952 H 0.11599 0.81288 0.27089
 C1953 C 0.58802 0.71464 0.68456
 C1954 C 0.59504 0.69018 0.68960
 C1955 C 0.57771 0.67567 0.70315
 C1956 C 0.55624 0.68649 0.71393
 C1957 C 0.55132 0.71194 0.71100
 C1958 C 0.56671 0.72519 0.69488
 C1959 C 0.57943 0.74969 0.69818
 C1960 C 0.60281 0.73814 0.68691
 H1961 H 0.58104 0.65618 0.70620
 H1962 H 0.54412 0.67519 0.72533
 H1963 H 0.58182 0.75483 0.71773
 H1964 H 0.57094 0.76427 0.68658
 H1965 H 0.61878 0.73653 0.69989
 H1966 H 0.60777 0.74615 0.66885
 C1967 C 0.57869 0.18058 0.21360
 C1968 C 0.59430 0.19242 0.19648
 C1969 C 0.59162 0.21838 0.19421
 C1970 C 0.57207 0.23103 0.20642
 C1971 C 0.55501 0.21815 0.22158
 C1972 C 0.55974 0.19312 0.22596
 C1973 C 0.54219 0.17147 0.22463
 C1974 C 0.56291 0.15773 0.21108
 H1975 H 0.60422 0.22902 0.18272
 H1976 H 0.57013 0.25079 0.20372
 H1977 H 0.52533 0.17517 0.21321
 H1978 H 0.53807 0.16364 0.24296
 H1979 H 0.55813 0.15345 0.19176
 H1980 H 0.57064 0.14195 0.22162
 C1981 C 0.08341 0.71874 0.18448
 C1982 C 0.08878 0.69366 0.18857
 C1983 C 0.07158 0.68039 0.20345
 C1984 C 0.05213 0.69275 0.21612
 C1985 C 0.04905 0.71856 0.21383
 C1986 C 0.06399 0.73079 0.19660
 C1987 C 0.07893 0.75414 0.19914
 C1988 C 0.10022 0.74099 0.18587
 H1989 H 0.07348 0.66064 0.20605
 H1990 H 0.04003 0.68222 0.22825
 H1991 H 0.08341 0.75864 0.21847
 H1992 H 0.07072 0.76959 0.18847
 H1993 H 0.11707 0.73790 0.19747
 H1994 H 0.10425 0.74894 0.16757
 C1995 C 0.08204 0.18058 0.71437
 C1996 C 0.09650 0.19309 0.69679
 C1997 C 0.09197 0.21872 0.69400
 C1998 C 0.07172 0.23024 0.70616
 C1999 C 0.05573 0.21654 0.72171
 C2000 C 0.06230 0.19202 0.72659
 C2001 C 0.04643 0.16913 0.72595
 C2002 C 0.06804 0.15659 0.71254
 H2003 H 0.10369 0.22990 0.68213
 H2004 H 0.06832 0.24973 0.70300
 H2005 H 0.02924 0.17128 0.71459
 H2006 H 0.04307 0.16150 0.74450
 H2007 H 0.06344 0.15148 0.69337
 H2008 H 0.07706 0.14173 0.72339
 C2009 C 0.41808 0.66992 0.28898
 C2010 C 0.41294 0.67380 0.31383
 C2011 C 0.43076 0.68799 0.32715
 C2012 C 0.45041 0.70073 0.31508
 C2013 C 0.45306 0.69906 0.28954
 C2014 C 0.43770 0.68207 0.27721
 C2015 C 0.42276 0.68527 0.25440
 C2016 C 0.40122 0.67201 0.26728
 H2017 H 0.42900 0.69026 0.34671
 H2018 H 0.46274 0.71273 0.32557
 H2019 H 0.43072 0.67450 0.23888
 H2020 H 0.41871 0.70504 0.25037
 H2021 H 0.39676 0.65365 0.25907
 H2022 H 0.38466 0.68406 0.27079
 C2023 C 0.41947 0.18132 0.78299
 C2024 C 0.41641 0.18367 0.80836
 C2025 C 0.43515 0.19738 0.82097
 C2026 C 0.45379 0.21080 0.80810
 C2027 C 0.45453 0.21037 0.78238
 C2028 C 0.43811 0.19413 0.77039
 C2029 C 0.42131 0.19874 0.74911
 C2030 C 0.40084 0.18477 0.76288
 H2031 H 0.43503 0.19856 0.84068
 H2032 H 0.46702 0.22216 0.81824
 H2033 H 0.42784 0.18891 0.73241
 H2034 H 0.41706 0.21873 0.74660
 H2035 H 0.39556 0.16695 0.75399
 H2036 H 0.38471 0.19663 0.76841
 C2037 C 0.92061 0.68331 0.79446
 C2038 C 0.90439 0.69640 0.81009
 C2039 C 0.90732 0.72247 0.81079
 C2040 C 0.92747 0.73417 0.79855
 C2041 C 0.94493 0.72025 0.78486
 C2042 C 0.94017 0.69493 0.78200
 C2043 C 0.95747 0.67356 0.78561
 C2044 C 0.93608 0.66083 0.79926
 H2045 H 0.89433 0.73396 0.82094
 H2046 H 0.92944 0.75411 0.79994
 H2047 H 0.97384 0.67828 0.79742
 H2048 H 0.96233 0.66428 0.76808
 H2049 H 0.93999 0.65817 0.81901
 H2050 H 0.92869 0.64420 0.78957
 C2051 C 0.91634 0.21715 0.31584
 C2052 C 0.90894 0.19264 0.31111
 C2053 C 0.92545 0.17812 0.29672
 C2054 C 0.94631 0.18898 0.28480
 C2055 C 0.95140 0.21451 0.28733
 C2056 C 0.93704 0.22777 0.30433
 C2057 C 0.92423 0.25218 0.30185
 C2058 C 0.90154 0.24055 0.31445
 H2059 H 0.92178 0.15860 0.29380
 H2060 H 0.95772 0.17763 0.27279
 H2061 H 0.92064 0.25721 0.28249
 H2062 H 0.93350 0.26687 0.31297
 H2063 H 0.88477 0.23879 0.30242
 H2064 H 0.89776 0.24859 0.33280
 C2065 C 0.28150 0.32335 0.58496
 C2066 C 0.30596 0.31734 0.59254
 C2067 C 0.31999 0.30168 0.57684
 C2068 C 0.30845 0.28979 0.55677
 C2069 C 0.28276 0.29364 0.55156
 C2070 C 0.27029 0.31197 0.56497
 C2071 C 0.24503 0.31139 0.57700
 C2072 C 0.25728 0.32379 0.59894
 H2073 H 0.33958 0.29774 0.58046
 H2074 H 0.31936 0.27678 0.54604
 H2075 H 0.23837 0.29224 0.58074
 H2076 H 0.23123 0.32343 0.56757
 H2077 H 0.25773 0.31183 0.61541
 H2078 H 0.25042 0.34296 0.60213
 C2079 C 0.31453 0.78548 0.08699
 C2080 C 0.31083 0.81038 0.09343
 C2081 C 0.29728 0.82510 0.07665
 C2082 C 0.28535 0.81426 0.05619
 C2083 C 0.28719 0.78860 0.05174
 C2084 C 0.30323 0.77497 0.06666
 C2085 C 0.29850 0.75098 0.07937
 C2086 C 0.31082 0.76248 0.10172
 H2087 H 0.29510 0.84478 0.07961
 H2088 H 0.27406 0.82577 0.04438
 H2089 H 0.30962 0.73560 0.07128
 H2090 H 0.27807 0.74697 0.08192
 H2091 H 0.32897 0.75355 0.10651
 H2092 H 0.29757 0.76520 0.11725
 C2093 C 0.81248 0.28068 0.08278
 C2094 C 0.80837 0.30569 0.08848
 C2095 C 0.79252 0.31906 0.07252
 C2096 C 0.77894 0.30681 0.05389
 C2097 C 0.78128 0.28104 0.05045
 C2098 C 0.79947 0.26877 0.06419
 C2099 C 0.79723 0.24531 0.07837
 C2100 C 0.81150 0.25833 0.09876
 H2101 H 0.78986 0.33878 0.07477
 H2102 H 0.76617 0.31737 0.04264
 H2103 H 0.80801 0.22993 0.06983
 H2104 H 0.77740 0.24077 0.08327
 H2105 H 0.83049 0.25038 0.10193
 H2106 H 0.79997 0.26129 0.11550
 C2107 C 0.78565 0.82307 0.57776
 C2108 C 0.81095 0.81855 0.58358
 C2109 C 0.82462 0.80317 0.56739
 C2110 C 0.81226 0.79025 0.54842
 C2111 C 0.78603 0.79266 0.54502
 C2112 C 0.77356 0.81057 0.55895
 C2113 C 0.74946 0.80873 0.57297
 C2114 C 0.76269 0.82243 0.59360
 H2115 H 0.84458 0.80019 0.56993
 H2116 H 0.82301 0.77752 0.53723
 H2117 H 0.74435 0.78929 0.57761
 H2118 H 0.73415 0.81967 0.56445
 H2119 H 0.76528 0.81096 0.61022
 H2120 H 0.75494 0.84123 0.59694
 C2121 C 0.31841 0.70566 0.41506
 C2122 C 0.31317 0.68066 0.41004
 C2123 C 0.29769 0.66795 0.42701
 C2124 C 0.28542 0.68082 0.44603
 C2125 C 0.28879 0.70658 0.44886
 C2126 C 0.30671 0.71821 0.43405
 C2127 C 0.30463 0.74148 0.41958
 C2128 C 0.31741 0.72774 0.39873
 H2129 H 0.29431 0.64825 0.42527
 H2130 H 0.27273 0.67078 0.45798
 H2131 H 0.31640 0.75668 0.42728
 H2132 H 0.28475 0.74653 0.41564
 H2133 H 0.33648 0.73515 0.39441
 H2134 H 0.30496 0.72475 0.38267
 C2135 C 0.32980 0.20530 0.91868
 C2136 C 0.32458 0.18058 0.91241
 C2137 C 0.30963 0.16686 0.92910
 C2138 C 0.29759 0.17866 0.94899
 C2139 C 0.30069 0.20430 0.95298
 C2140 C 0.31832 0.21676 0.93845
 C2141 C 0.31601 0.24079 0.92528
 C2142 C 0.32854 0.22825 0.90358
 H2143 H 0.30626 0.14728 0.92636
 H2144 H 0.28501 0.16797 0.96050
 H2145 H 0.32785 0.25558 0.93364
 H2146 H 0.29608 0.24601 0.92185
 H2147 H 0.34753 0.23596 0.89943
 H2148 H 0.31588 0.22614 0.88755
 C2149 C 0.81890 0.71484 0.92304
 C2150 C 0.80687 0.69681 0.90865
 C2151 C 0.78068 0.69343 0.91245
 C2152 C 0.76819 0.70536 0.93190
 C2153 C 0.78141 0.72133 0.94779
 C2154 C 0.80649 0.72687 0.94199
 C2155 C 0.82929 0.72662 0.95787
 C2156 C 0.84289 0.71342 0.93713
 H2157 H 0.76980 0.68127 0.90076
 H2158 H 0.74831 0.70169 0.93475
 H2159 H 0.82673 0.71494 0.97438
 H2160 H 0.83670 0.74559 0.96141
 H2161 H 0.84821 0.69406 0.94158
 H2162 H 0.85814 0.72481 0.92881
 C2163 C 0.78417 0.18680 0.41407
 C2164 C 0.80986 0.18978 0.40858
 C2165 C 0.82471 0.20246 0.42611
 C2166 C 0.81341 0.21444 0.44626
 C2167 C 0.78709 0.21355 0.44969
 C2168 C 0.77315 0.19818 0.43416
 C2169 C 0.74942 0.20346 0.42062
 C2170 C 0.76148 0.19105 0.39858
 H2171 H 0.84493 0.20396 0.42398
 H2172 H 0.82516 0.22503 0.45866
 H2173 H 0.74617 0.22363 0.41811
 H2174 H 0.73309 0.19293 0.42807
 H2175 H 0.76529 0.20401 0.38325
 H2176 H 0.75197 0.17344 0.39332
 C2177 C 0.71244 0.32762 0.42785
 C2178 C 0.69495 0.31587 0.41245
 C2179 C 0.69243 0.28988 0.41475
 C2180 C 0.70442 0.27710 0.43373
 C2181 C 0.71975 0.28979 0.45063
 C2182 C 0.72467 0.31488 0.44635
 C2183 C 0.72300 0.33637 0.46348
 C2184 C 0.70961 0.35029 0.44326
 H2185 H 0.68096 0.27927 0.40216
 H2186 H 0.70145 0.25730 0.43533
 H2187 H 0.74187 0.34420 0.46788
 H2188 H 0.71077 0.33249 0.47956
 H2189 H 0.72079 0.36615 0.43607
 H2190 H 0.68958 0.35449 0.44756
 C2191 C 0.67765 0.78948 0.92068
 C2192 C 0.68308 0.81402 0.91405
 C2193 C 0.69865 0.82780 0.93015
 C2194 C 0.71084 0.81617 0.94990
 C2195 C 0.70731 0.79067 0.95429
 C2196 C 0.68926 0.77822 0.94031
 C2197 C 0.69102 0.75391 0.92738
 C2198 C 0.67835 0.76622 0.90580
 H2199 H 0.70233 0.84725 0.92706
 H2200 H 0.72373 0.82689 0.96107
 H2201 H 0.67910 0.73945 0.93614
 H2202 H 0.71082 0.74834 0.92362
 H2203 H 0.65919 0.75870 0.90211
 H2204 H 0.69078 0.76786 0.88950
 C2205 C 0.21947 0.31058 0.91817
 C2206 C 0.20237 0.29799 0.90300
 C2207 C 0.20044 0.27203 0.90609
 C2208 C 0.21267 0.26014 0.92561
 C2209 C 0.22754 0.27382 0.94221
 C2210 C 0.23185 0.29880 0.93709
 C2211 C 0.22982 0.32085 0.95348
 C2212 C 0.21620 0.33377 0.93278
 H2213 H 0.18903 0.26086 0.89394
 H2214 H 0.20995 0.24041 0.92807
 H2215 H 0.24855 0.32915 0.95759
 H2216 H 0.21764 0.31735 0.96968
 H2217 H 0.22711 0.34957 0.92510
 H2218 H 0.19609 0.33776 0.93692
 C2219 C 0.21366 0.81785 0.41903
 C2220 C 0.19720 0.80573 0.40287
 C2221 C 0.19472 0.77976 0.40545
 C2222 C 0.20559 0.76742 0.42539
 C2223 C 0.21967 0.78060 0.44297
 C2224 C 0.22479 0.80558 0.43841
 C2225 C 0.22218 0.82745 0.45496
 C2226 C 0.20998 0.84089 0.43375
 H2227 H 0.18387 0.76894 0.39254
 H2228 H 0.20256 0.74766 0.42729
 H2229 H 0.24078 0.83538 0.46017
 H2230 H 0.20906 0.82393 0.47045
 H2231 H 0.22156 0.85659 0.42683
 H2232 H 0.18974 0.84517 0.43688
 C2233 C 0.72126 0.68575 0.58871
 C2234 C 0.69549 0.68795 0.59408
 C2235 C 0.68033 0.69969 0.57642
 C2236 C 0.69131 0.71175 0.55626
 C2237 C 0.71766 0.71191 0.55297
 C2238 C 0.73204 0.69728 0.56858
 C2239 C 0.75551 0.70364 0.58224
 C2240 C 0.74372 0.69103 0.60429
 H2241 H 0.66006 0.70042 0.57853
 H2242 H 0.67926 0.72162 0.54374
 H2243 H 0.75813 0.72396 0.58468
 H2244 H 0.77220 0.69367 0.57493
 H2245 H 0.73945 0.70401 0.61955
 H2246 H 0.75367 0.67383 0.60966
 C2247 C 0.70454 0.17455 0.08089
 C2248 C 0.67997 0.18072 0.08816
 C2249 C 0.66686 0.19763 0.07322
 C2250 C 0.67933 0.21026 0.05415
 C2251 C 0.70507 0.20597 0.04930
 C2252 C 0.71668 0.18670 0.06190
 C2253 C 0.74149 0.18623 0.07464
 C2254 C 0.72822 0.17295 0.09548
 H2255 H 0.64730 0.20194 0.07674
 H2256 H 0.66910 0.22402 0.04389
 H2257 H 0.74834 0.20505 0.07966
 H2258 H 0.75543 0.17444 0.06493
 H2259 H 0.72738 0.18405 0.11260
 H2260 H 0.73461 0.15352 0.09776
 C2261 C 0.18388 0.71872 0.08680
 C2262 C 0.18867 0.69393 0.09268
 C2263 C 0.20343 0.68021 0.07591
 C2264 C 0.21527 0.69194 0.05592
 C2265 C 0.21224 0.71755 0.05199
 C2266 C 0.19520 0.73015 0.06697
 C2267 C 0.19844 0.75403 0.08045
 C2268 C 0.18604 0.74151 0.10222
 H2269 H 0.20646 0.66059 0.07843
 H2270 H 0.22732 0.68115 0.04401
 H2271 H 0.18682 0.76907 0.07255
 H2272 H 0.21858 0.75890 0.08353
 H2273 H 0.16733 0.74943 0.10686
 H2274 H 0.19898 0.73907 0.11796
 C2275 C 0.18013 0.21479 0.58626
 C2276 C 0.18540 0.18988 0.59135
 C2277 C 0.20107 0.17727 0.57448
 C2278 C 0.21347 0.19020 0.55556
 C2279 C 0.21008 0.21591 0.55274
 C2280 C 0.19197 0.22737 0.56739
 C2281 C 0.19394 0.25070 0.58195
 C2282 C 0.18090 0.23700 0.60262
 H2283 H 0.20458 0.15765 0.57626
 H2284 H 0.22624 0.18024 0.54365
 H2285 H 0.18237 0.26584 0.57417
 H2286 H 0.21378 0.25576 0.58617
 H2287 H 0.16178 0.24427 0.60668
 H2288 H 0.19313 0.23427 0.61884
   
