data_POSCAR
  _audit_creation_date              2014-09-24
  _audit_creation_method            'ToBaCCo'
  _symmetry_space_group_name_H-M    'P1'
  _symmetry_Int_Tables_number       1
  _symmetry_cell_setting            triclinic
  loop_
  _symmetry_equiv_pos_as_xyz
 x,y,z
_cell_length_a 38.7727
_cell_length_b 39.5791
_cell_length_c 44.3265
_cell_angle_alpha 89.873900
_cell_angle_beta 89.968300
_cell_angle_gamma 89.576400
loop_
  _atom_site_label
  _atom_site_type_symbol
  _atom_site_fract_x
  _atom_site_fract_y
  _atom_site_fract_z
Zr1 Zr 0.26483 0.26129 0.29660
 O2 O 0.29183 0.28919 0.32967
 O3 O 0.23780 0.22636 0.32332
 O4 O 0.23132 0.28964 0.32405
 O5 O 0.33476 0.21028 0.27996
 O6 O 0.19695 0.31814 0.29074
 O7 O 0.30236 0.23165 0.31862
 O8 O 0.20803 0.19568 0.28853
 O9 O 0.21727 0.25989 0.27433
 O10 O 0.26635 0.21802 0.26975
 O11 O 0.26193 0.30673 0.27199
 O12 O 0.30864 0.26657 0.26870
 Zr13 Zr 0.25833 0.26650 0.19184
 Zr14 Zr 0.21559 0.30397 0.24788
 Zr15 Zr 0.30776 0.22407 0.24055
 Zr16 Zr 0.21986 0.21761 0.24641
 O17 O 0.36128 0.23109 0.23382
 O18 O 0.16587 0.22346 0.25215
 O19 O 0.26144 0.22079 0.21624
 O20 O 0.21499 0.26136 0.21998
 O21 O 0.25716 0.31027 0.21815
 O22 O 0.30559 0.26769 0.21443
 C23 C 0.21781 0.20207 0.31564
 C24 C 0.32813 0.21471 0.30815
 C25 C 0.20670 0.31041 0.31768
 O26 O 0.16157 0.29679 0.24801
 O27 O 0.19432 0.32548 0.20835
 O28 O 0.22435 0.30030 0.17023
 C29 C 0.20135 0.32108 0.18020
 O30 O 0.32761 0.33030 0.28094
 Zr31 Zr 0.30348 0.31018 0.24193
 O32 O 0.28794 0.29897 0.16487
 O33 O 0.21656 0.35721 0.25199
 O34 O 0.29139 0.36249 0.24312
 O35 O 0.35788 0.30643 0.23792
 O36 O 0.31694 0.33035 0.19948
 C37 C 0.30921 0.32240 0.17216
 O38 O 0.22817 0.24218 0.15860
 O39 O 0.30836 0.17062 0.24293
 O40 O 0.28721 0.23323 0.16460
 O41 O 0.31976 0.20325 0.19823
 O42 O 0.22976 0.16494 0.24361
 O43 O 0.19691 0.19664 0.20721
 C44 C 0.30895 0.20964 0.17134
 H45 H 0.26986 0.19687 0.28133
 H46 H 0.19347 0.26048 0.20801
 H47 H 0.32565 0.26809 0.20061
 H48 H 0.26207 0.32653 0.28560
 H49 H 0.15658 0.20107 0.25781
 H50 H 0.15086 0.31941 0.25060
 H51 H 0.19223 0.36504 0.25251
 H52 H 0.31218 0.37488 0.23648
 H53 H 0.20847 0.15307 0.24983
 H54 H 0.33283 0.16336 0.24168
 H55 H 0.37183 0.20828 0.23232
 H56 H 0.36657 0.32910 0.23239
 H57 H 0.17787 0.18153 0.21327
 H58 H 0.23513 0.25140 0.13868
 H59 H 0.28578 0.27958 0.34967
 H60 H 0.34137 0.35029 0.27520
 Zr61 Zr 0.75548 0.76922 0.30809
 O62 O 0.72372 0.75053 0.34318
 O63 O 0.79392 0.79377 0.33289
 O64 O 0.78073 0.73222 0.33449
 O65 O 0.70383 0.83929 0.29354
 O66 O 0.80338 0.69574 0.29993
 O67 O 0.72865 0.80784 0.33097
 O68 O 0.83092 0.81278 0.29682
 O69 O 0.80001 0.75724 0.28359
 O70 O 0.76526 0.81120 0.28079
 O71 O 0.74343 0.72500 0.28427
 O72 O 0.71039 0.77674 0.28219
 Zr73 Zr 0.75417 0.76259 0.20312
 Zr74 Zr 0.78707 0.71474 0.25794
 Zr75 Zr 0.72201 0.81717 0.25327
 Zr76 Zr 0.80843 0.79853 0.25528
 O77 O 0.66809 0.82586 0.25161
 O78 O 0.85909 0.77801 0.25617
 O79 O 0.76588 0.80741 0.22671
 O80 O 0.79875 0.75531 0.22942
 O81 O 0.74379 0.72049 0.23021
 O82 O 0.70995 0.77449 0.22812
 C83 C 0.82148 0.80910 0.32453
 C84 C 0.70916 0.83215 0.32154
 C85 C 0.79793 0.70547 0.32721
 O86 O 0.84092 0.70629 0.25511
 O87 O 0.79723 0.68777 0.21800
 O88 O 0.77784 0.72201 0.18005
 C89 C 0.79232 0.69479 0.18995
 O90 O 0.67413 0.72182 0.29670
 Zr91 Zr 0.70093 0.73351 0.25620
 O92 O 0.71617 0.73715 0.17831
 O93 O 0.77103 0.66409 0.26345
 O94 O 0.69734 0.68012 0.25814
 O95 O 0.64953 0.75211 0.25421
 O96 O 0.67974 0.71774 0.21485
 C97 C 0.68905 0.72143 0.18717
 O98 O 0.78755 0.77977 0.16859
 O99 O 0.73885 0.86786 0.25216
 O100 O 0.73108 0.80070 0.17656
 O101 O 0.70883 0.83793 0.21091
 O102 O 0.81447 0.85174 0.25462
 O103 O 0.83271 0.81377 0.21451
 C104 C 0.71423 0.82768 0.18373
 H105 H 0.76929 0.83210 0.29247
 H106 H 0.81899 0.75014 0.21655
 H107 H 0.68938 0.77899 0.21549
 H108 H 0.73828 0.70611 0.29819
 H109 H 0.87505 0.79671 0.26091
 H110 H 0.84464 0.68162 0.25731
 H111 H 0.79207 0.64972 0.26272
 H112 H 0.67337 0.67408 0.25271
 H113 H 0.83891 0.85655 0.25942
 H114 H 0.71779 0.88218 0.25246
 H115 H 0.66453 0.85063 0.24995
 H116 H 0.63435 0.73270 0.24980
 H117 H 0.85536 0.82391 0.21916
 H118 H 0.77747 0.77277 0.14902
 H119 H 0.73383 0.75801 0.36260
 H120 H 0.65513 0.70603 0.29218
 Zr121 Zr 0.74619 0.22808 -0.29045
 O122 O 0.72161 0.25583 -0.32536
 O123 O 0.77349 0.19150 -0.31548
 O124 O 0.78152 0.25365 -0.31800
 O125 O 0.67343 0.18272 -0.27250
 O126 O 0.81596 0.28245 -0.28541
 O127 O 0.70656 0.20055 -0.31190
 O128 O 0.80089 0.16041 -0.27917
 O129 O 0.79302 0.22437 -0.26707
 O130 O 0.74161 0.18605 -0.26225
 O131 O 0.75145 0.27423 -0.26733
 O132 O 0.70245 0.23778 -0.26338
 Zr133 Zr 0.75060 0.23713 -0.18550
 Zr134 Zr 0.79697 0.26929 -0.24215
 Zr135 Zr 0.70026 0.19656 -0.23369
 Zr136 Zr 0.78728 0.18336 -0.23785
 O137 O 0.64693 0.20745 -0.22930
 O138 O 0.84183 0.18473 -0.24094
 O139 O 0.74546 0.19069 -0.20827
 O140 O 0.79405 0.22770 -0.21291
 O141 O 0.75530 0.27975 -0.21331
 O142 O 0.70433 0.24111 -0.20929
 C143 C 0.79324 0.16707 -0.30682
 C144 C 0.67974 0.18599 -0.30077
 C145 C 0.80622 0.27420 -0.31224
 O146 O 0.85033 0.25787 -0.24257
 O147 O 0.81932 0.28925 -0.20238
 O148 O 0.78798 0.26638 -0.16390
 C149 C 0.81256 0.28476 -0.17411
 O150 O 0.68742 0.30159 -0.27855
 Zr151 Zr 0.70974 0.28206 -0.23827
 O152 O 0.72328 0.27417 -0.16073
 O153 O 0.79944 0.32246 -0.24650
 O154 O 0.72520 0.33321 -0.24174
 O155 O 0.65518 0.28272 -0.23482
 O156 O 0.69693 0.30562 -0.19726
 C157 C 0.70378 0.29885 -0.16950
 O158 O 0.77693 0.21077 -0.15067
 O159 O 0.69743 0.14317 -0.23319
 O160 O 0.71750 0.20864 -0.15769
 O161 O 0.68388 0.18017 -0.19110
 O162 O 0.77371 0.13164 -0.23501
 O163 O 0.80689 0.16167 -0.19737
 C164 C 0.69346 0.18758 -0.16419
 H165 H 0.73745 0.16485 -0.27345
 H166 H 0.81526 0.22536 -0.20064
 H167 H 0.68395 0.24395 -0.19605
 H168 H 0.75257 0.29354 -0.28152
 H169 H 0.84995 0.16151 -0.24557
 H170 H 0.86245 0.27966 -0.24501
 H171 H 0.82423 0.32841 -0.24687
 H172 H 0.70510 0.34752 -0.23620
 H173 H 0.79442 0.11810 -0.24040
 H174 H 0.67262 0.13738 -0.23250
 H175 H 0.63492 0.18554 -0.22719
 H176 H 0.64788 0.30632 -0.23070
 H177 H 0.82416 0.14400 -0.20239
 H178 H 0.77008 0.22112 -0.13116
 H179 H 0.72784 0.24489 -0.34477
 H180 H 0.67513 0.32302 -0.27405
 Zr181 Zr 0.24202 0.74110 -0.31393
 O182 O 0.26883 0.71612 -0.34923
 O183 O 0.21162 0.77604 -0.33821
 O184 O 0.20922 0.71344 -0.34237
 O185 O 0.30893 0.79523 -0.29702
 O186 O 0.17645 0.68323 -0.30954
 O187 O 0.27851 0.77136 -0.33519
 O188 O 0.18032 0.80277 -0.30191
 O189 O 0.19518 0.74076 -0.29077
 O190 O 0.24274 0.78304 -0.28537
 O191 O 0.24158 0.69432 -0.29166
 O192 O 0.28676 0.73520 -0.28714
 Zr193 Zr 0.23810 0.72931 -0.20914
 Zr194 Zr 0.19590 0.69534 -0.26683
 Zr195 Zr 0.28522 0.77614 -0.25716
 Zr196 Zr 0.19714 0.78124 -0.26078
 O197 O 0.33923 0.76928 -0.25373
 O198 O 0.14287 0.77542 -0.26286
 O199 O 0.23949 0.77666 -0.23150
 O200 O 0.19427 0.73581 -0.23657
 O201 O 0.23791 0.68756 -0.23795
 O202 O 0.28485 0.73069 -0.23291
 C203 C 0.18872 0.79787 -0.32973
 C204 C 0.30279 0.79035 -0.32542
 C205 C 0.18528 0.69215 -0.33632
 O206 O 0.14165 0.70162 -0.26580
 O207 O 0.17633 0.67128 -0.22895
 O208 O 0.20427 0.69347 -0.18869
 C209 C 0.18200 0.67310 -0.20050
 O210 O 0.30926 0.67493 -0.30265
 Zr211 Zr 0.28374 0.68993 -0.26235
 O212 O 0.26919 0.69532 -0.18452
 O213 O 0.19836 0.64242 -0.27352
 O214 O 0.27412 0.63772 -0.26859
 O215 O 0.33784 0.69370 -0.25638
 O216 O 0.29560 0.66464 -0.22158
 C217 C 0.28856 0.67091 -0.19374
 O218 O 0.20846 0.75122 -0.17403
 O219 O 0.28325 0.82953 -0.25516
 O220 O 0.26750 0.76125 -0.18119
 O221 O 0.29951 0.79303 -0.21379
 O222 O 0.20594 0.83398 -0.25810
 O223 O 0.17662 0.80058 -0.21978
 C224 C 0.28960 0.78463 -0.18702
 H225 H 0.24459 0.80472 -0.29641
 H226 H 0.17292 0.73557 -0.22430
 H227 H 0.30519 0.72927 -0.21945
 H228 H 0.24205 0.67541 -0.30624
 H229 H 0.13267 0.79798 -0.26703
 H230 H 0.13150 0.67904 -0.26920
 H231 H 0.17429 0.63419 -0.27425
 H232 H 0.29547 0.62523 -0.26309
 H233 H 0.18399 0.84561 -0.26326
 H234 H 0.30745 0.83739 -0.25453
 H235 H 0.34921 0.79208 -0.25127
 H236 H 0.34683 0.67060 -0.25249
 H237 H 0.15806 0.81713 -0.22433
 H238 H 0.21628 0.74067 -0.15487
 H239 H 0.26159 0.72663 -0.36861
 H240 H 0.32446 0.65527 -0.29840
 Zr241 Zr 1.26114 1.26575 0.80862
 O242 O 1.23650 1.24119 0.84517
 O243 O 1.29429 1.29835 0.83149
 O244 O 1.29620 1.23656 0.83436
 O245 O 1.19444 1.32325 0.79572
 O246 O 1.32454 1.20445 0.79940
 O247 O 1.22718 1.29797 0.83224
 O248 O 1.32488 1.32330 0.79377
 O249 O 1.30595 1.26394 0.78237
 O250 O 1.25899 1.30817 0.78050
 O251 O 1.25946 1.21922 0.78601
 O252 O 1.21426 1.26180 0.78473
 Zr253 Zr 1.25626 1.25613 0.70433
 Zr254 Zr 1.30292 1.21889 0.75790
 Zr255 Zr 1.21406 1.30315 0.75483
 Zr256 Zr 1.30256 1.30532 0.75331
 O257 O 1.15976 1.29843 0.75623
 O258 O 1.35668 1.29793 0.75034
 O259 O 1.25765 1.30324 0.72656
 O260 O 1.30267 1.26030 0.72846
 O261 O 1.25822 1.21365 0.73237
 O262 O 1.21171 1.25772 0.73094
 C263 C 1.31828 1.31787 0.82188
 C264 C 1.20275 1.31801 0.82356
 C265 C 1.31826 1.21361 0.82669
 O266 O 1.35697 1.22364 0.75337
 O267 O 1.31699 1.19411 0.71763
 O268 O 1.28795 1.22209 0.68027
 C269 C 1.30875 1.19896 0.68980
 O270 O 1.19177 1.20365 0.80183
 Zr271 Zr 1.21480 1.21659 0.75989
 O272 O 1.22560 1.22095 0.68152
 O273 O 1.30024 1.16590 0.76403
 O274 O 1.22332 1.16418 0.76705
 O275 O 1.16044 1.22067 0.75561
 O276 O 1.20204 1.19048 0.72005
 C277 C 1.20815 1.19600 0.69191
 O278 O 1.28189 1.28096 0.66847
 O279 O 1.21765 1.35632 0.75151
 O280 O 1.22167 1.28492 0.67843
 O281 O 1.19391 1.31867 0.71249
 O282 O 1.29563 1.35853 0.75365
 O283 O 1.31871 1.32567 0.71125
 C284 C 1.19933 1.30778 0.68543
 H285 H 1.25878 1.32967 0.79187
 H286 H 1.32278 1.25974 0.71468
 H287 H 1.19025 1.25612 0.71898
 H288 H 1.25973 1.20012 0.80047
 H289 H 1.36770 1.32002 0.75417
 H290 H 1.36674 1.20052 0.75511
 H291 H 1.32411 1.15692 0.76255
 H292 H 1.20129 1.15250 0.76292
 H293 H 1.31852 1.36871 0.75731
 H294 H 1.19372 1.36524 0.75230
 H295 H 1.15003 1.32154 0.75415
 H296 H 1.15158 1.19753 0.75244
 H297 H 1.33776 1.34177 0.71459
 H298 H 1.27327 1.27113 0.64936
 H299 H 1.24565 1.25113 0.86406
 H300 H 1.17548 1.18480 0.79885
 Zr301 Zr 0.76088 0.75934 0.79671
 O302 O 0.78856 0.78248 0.83218
 O303 O 0.72504 0.73000 0.82046
 O304 O 0.72795 0.79002 0.82229
 O305 O 0.81731 0.69325 0.78371
 O306 O 0.70217 0.82508 0.78804
 O307 O 0.79107 0.72405 0.82082
 O308 O 0.68826 0.71353 0.78319
 O309 O 0.71646 0.76707 0.77078
 O310 O 0.75609 0.71695 0.76912
 O311 O 0.76823 0.80537 0.77382
 O312 O 0.80738 0.75700 0.77221
 Zr313 Zr 0.76516 0.76774 0.69256
 Zr314 Zr 0.72467 0.81140 0.74622
 Zr315 Zr 0.80077 0.71579 0.74304
 Zr316 Zr 0.71303 0.72570 0.74226
 O317 O 0.85528 0.71295 0.74320
 O318 O 0.66036 0.74003 0.73876
 O319 O 0.75733 0.72149 0.71517
 O320 O 0.71894 0.77009 0.71719
 O321 O 0.76949 0.81068 0.71971
 O322 O 0.80931 0.76004 0.71869
 C323 C 0.69710 0.71625 0.81108
 C324 C 0.81082 0.69995 0.81158
 C325 C 0.70613 0.81320 0.81498
 O326 O 0.67041 0.81485 0.74167
 O327 O 0.71110 0.83635 0.70563
 O328 O 0.73860 0.80604 0.66903
 C329 C 0.71851 0.83015 0.67779
 O330 O 0.83621 0.81512 0.78832
 Zr331 Zr 0.81256 0.80177 0.74682
 O332 O 0.80168 0.79585 0.66881
 O333 O 0.73534 0.86314 0.75301
 O334 O 0.80996 0.85521 0.74934
 O335 O 0.86597 0.78984 0.74583
 O336 O 0.83330 0.82055 0.70590
 C337 C 0.82613 0.81501 0.67793
 O338 O 0.73522 0.74779 0.65691
 O339 O 0.78988 0.66353 0.74089
 O340 O 0.79343 0.73307 0.66645
 O341 O 0.81600 0.69616 0.70091
 O342 O 0.71182 0.67218 0.74432
 O343 O 0.69434 0.70680 0.70056
 C344 C 0.81115 0.70667 0.67370
 H345 H 0.75343 0.69571 0.78070
 H346 H 0.69888 0.77305 0.70360
 H347 H 0.83069 0.75769 0.70665
 H348 H 0.77028 0.82430 0.78825
 H349 H 0.64640 0.71968 0.74300
 H350 H 0.66402 0.83898 0.74422
 H351 H 0.71287 0.87516 0.75209
 H352 H 0.83324 0.86388 0.74453
 H353 H 0.68768 0.66570 0.74862
 H354 H 0.81235 0.65144 0.74144
 H355 H 0.86148 0.68871 0.74132
 H356 H 0.87860 0.81121 0.74252
 H357 H 0.67351 0.69305 0.70421
 H358 H 0.74527 0.75610 0.63770
 H359 H 0.77883 0.77398 0.85144
 H360 H 0.85288 0.83354 0.78478
 Zr361 Zr 1.25406 0.72797 0.20844
 O362 O 1.23309 0.75613 0.17205
 O363 O 1.28205 0.69019 0.18567
 O364 O 1.29316 0.75067 0.18273
 O365 O 1.18032 0.68093 0.22118
 O366 O 1.32472 0.77997 0.21717
 O367 O 1.21689 0.70008 0.18479
 O368 O 1.30582 0.65917 0.22390
 O369 O 1.29856 0.72312 0.23476
 O370 O 1.24595 0.68653 0.23670
 O371 O 1.25852 0.77436 0.23112
 O372 O 1.20813 0.73920 0.23213
 Zr373 Zr 1.24992 0.73893 0.31314
 Zr374 Zr 1.30162 0.76831 0.25908
 Zr375 Zr 1.20227 0.69837 0.26191
 Zr376 Zr 1.28916 0.68292 0.26408
 O377 O 1.14931 0.71160 0.26122
 O378 O 1.34384 0.68271 0.26481
 O379 O 1.24507 0.69218 0.29053
 O380 O 1.29513 0.72750 0.28872
 O381 O 1.25811 0.78074 0.28509
 O382 O 1.20576 0.74333 0.28626
 C383 C 1.30051 0.66550 0.19574
 C384 C 1.19014 0.68355 0.19347
 C385 C 1.31795 0.77051 0.19001
 O386 O 1.35466 0.75557 0.26131
 O387 O 1.32296 0.78649 0.29948
 O388 O 1.28665 0.76838 0.33665
 C389 C 1.31384 0.78388 0.32731
 O390 O 1.19612 0.80293 0.21557
 Zr391 Zr 1.21459 0.78377 0.25744
 O392 O 1.22260 0.77741 0.33554
 O393 O 1.30562 0.82139 0.25506
 O394 O 1.23162 0.83443 0.25402
 O395 O 1.15992 0.78604 0.25779
 O396 O 1.19926 0.80883 0.29748
 C397 C 1.20460 0.80256 0.32565
 O398 O 1.27214 0.71222 0.34983
 O399 O 1.19747 0.64518 0.26428
 O400 O 1.21266 0.71279 0.33890
 O401 O 1.18220 0.68332 0.30375
 O402 O 1.27395 0.63162 0.26650
 O403 O 1.30422 0.66131 0.30604
 C404 C 1.18914 0.69161 0.33112
 H405 H 1.24255 0.66505 0.22574
 H406 H 1.31518 0.72463 0.30232
 H407 H 1.18445 0.74714 0.29812
 H408 H 1.26158 0.79325 0.21672
 H409 H 1.35164 0.65922 0.26094
 H410 H 1.36762 0.77697 0.25938
 H411 H 1.33055 0.82670 0.25562
 H412 H 1.21151 0.84933 0.25813
 H413 H 1.29469 0.61751 0.26256
 H414 H 1.17249 0.64011 0.26348
 H415 H 1.13635 0.69025 0.26337
 H416 H 1.15307 0.80994 0.26100
 H417 H 1.32152 0.64323 0.30247
 H418 H 1.26424 0.72348 0.36861
 H419 H 1.24053 0.74483 0.15314
 H420 H 1.18388 0.82463 0.21897
 Zr421 Zr 0.74402 1.23833 0.18721
 O422 O 0.76520 1.21075 0.15066
 O423 O 0.71529 1.27560 0.16465
 O424 O 0.70517 1.21408 0.16192
 O425 O 0.81864 1.28347 0.20006
 O426 O 0.67395 1.18552 0.19732
 O427 O 0.78150 1.26647 0.16318
 O428 O 0.68864 1.30469 0.20242
 O429 O 0.69948 1.24196 0.21381
 O430 O 0.75135 1.27995 0.21534
 O431 O 0.74036 1.19187 0.21024
 O432 O 0.79005 1.22810 0.21116
 Zr433 Zr 0.74848 1.22767 0.29170
 Zr434 Zr 0.69734 1.19681 0.23867
 Zr435 Zr 0.79526 1.26897 0.24095
 Zr436 Zr 0.70782 1.28258 0.24270
 O437 O 0.84872 1.25774 0.24166
 O438 O 0.65320 1.28165 0.24487
 O439 O 0.75221 1.27460 0.26928
 O440 O 0.70274 1.23788 0.26786
 O441 O 0.74131 1.18566 0.26406
 O442 O 0.79270 1.22377 0.26501
 C443 C 0.69465 1.29878 0.17429
 C444 C 0.80938 1.28090 0.17226
 C445 C 0.68068 1.19407 0.16995
 O446 O 0.64425 1.20847 0.24306
 O447 O 0.67921 1.17457 0.27915
 O448 O 0.71434 1.19622 0.31531
 C449 C 0.68940 1.17721 0.30674
 O450 O 0.80453 1.16605 0.19430
 Zr451 Zr 0.78454 1.18329 0.23623
 O452 O 0.77659 1.19012 0.31456
 O453 O 0.69406 1.14385 0.23294
 O454 O 0.76920 1.13232 0.23095
 O455 O 0.83916 1.18139 0.23850
 O456 O 0.79707 1.15704 0.27636
 C457 C 0.79256 1.16388 0.30450
 O458 O 0.72512 1.25424 0.32784
 O459 O 0.79840 1.32231 0.24175
 O460 O 0.78527 1.25315 0.31762
 O461 O 0.81526 1.28417 0.28316
 O462 O 0.72139 1.33439 0.24332
 O463 O 0.69348 1.30437 0.28470
 C464 C 0.80867 1.27457 0.31038
 H465 H 0.75439 1.30128 0.20397
 H466 H 0.68284 1.23981 0.28178
 H467 H 0.81397 1.22008 0.27695
 H468 H 0.73769 1.17293 0.19590
 H469 H 0.64474 1.30497 0.24113
 H470 H 0.63174 1.18685 0.24109
 H471 H 0.66930 1.13793 0.23427
 H472 H 0.78963 1.11786 0.23511
 H473 H 0.70004 1.34771 0.23971
 H474 H 0.82326 1.32790 0.24121
 H475 H 0.86092 1.27959 0.24317
 H476 H 0.84588 1.15749 0.24196
 H477 H 0.67608 1.32240 0.28125
 H478 H 0.73283 1.24321 0.34682
 H479 H 0.75720 1.22191 0.13183
 H480 H 0.81809 1.14505 0.19755
 O481 O 0.46334 1.03590 0.04027
 O482 O 0.50705 0.92376 0.03390
 O483 O 0.42680 0.95999 0.03675
 O484 O 0.54214 1.00098 0.03772
 O485 O 0.44895 0.91546 0.01822
 O486 O 0.52008 1.04759 0.02364
 O487 O 0.55245 0.94596 0.01690
 O488 O 0.41608 1.01707 0.02310
 C489 C 0.43221 1.03155 0.04370
 C490 C 0.53780 0.93022 0.03753
 C491 C 0.43434 0.92988 0.03984
 C492 C 0.53741 1.03134 0.04248
 O493 O 0.49780 1.04347 -0.03487
 O494 O 0.46879 0.92657 -0.04034
 O495 O 0.42327 0.99969 -0.03663
 O496 O 0.54290 0.97203 -0.03927
 O497 O 0.52755 0.92282 -0.02567
 O498 O 0.44002 1.04548 -0.01702
 O499 O 0.54675 1.02730 -0.01914
 O500 O 0.42028 0.94104 -0.02216
 Co501 Co 0.48069 1.03724 0.00264
 Co502 Co 0.48775 0.92782 -0.00316
 Co503 Co 0.42764 0.97976 0.00012
 Co504 Co 0.54001 0.98618 -0.00083
 O505 O 0.48401 0.98271 -0.00034
 C506 C 0.52929 1.04287 -0.03830
 C507 C 0.43723 0.92835 -0.04334
 C508 C 0.42621 1.03067 -0.03857
 C509 C 0.54106 0.94168 -0.04499
 O510 O 0.93921 0.54521 0.51589
 O511 O 1.02773 0.42278 0.52199
 O512 O 0.92055 0.44063 0.52022
 O513 O 1.04614 0.52747 0.51647
 O514 O 0.96942 0.42675 0.53786
 O515 O 0.99721 0.54355 0.53252
 O516 O 1.04311 0.47165 0.53601
 O517 O 0.92331 0.49869 0.53497
 C518 C 0.92571 0.52961 0.53728
 C519 C 1.04137 0.44120 0.54145
 C520 C 0.93800 0.42849 0.54135
 C521 C 1.02868 0.54261 0.53590
 O522 O 1.01876 0.54850 0.47392
 O523 O 0.94817 0.41586 0.47940
 O524 O 0.91483 0.51735 0.47572
 O525 O 1.05163 0.44671 0.47911
 O526 O 1.00557 0.42473 0.46307
 O527 O 0.96150 0.53688 0.45788
 O528 O 1.04108 0.50215 0.45941
 O529 O 0.92613 0.46069 0.46128
 Co530 Co 0.97958 0.53767 0.49531
 Co531 Co 0.98731 0.42822 0.50034
 Co532 Co 0.92720 0.47966 0.49807
 Co533 Co 1.03947 0.48657 0.49773
 O534 O 0.98341 0.48302 0.49787
 C535 C 1.03628 0.53257 0.45498
 C536 C 0.93326 0.43056 0.45803
 C537 C 0.93031 0.53234 0.45497
 C538 C 1.03632 0.43064 0.45906
 O539 O 0.99285 0.47058 0.06546
 O540 O 1.01508 0.55092 -0.04908
 O541 O 1.03735 0.45480 -0.02504
 O542 O 1.03488 0.54004 0.04200
 O543 O 1.01566 0.48980 -0.05845
 O544 O 0.99293 0.53154 0.07143
 O545 O 1.04534 0.55108 -0.00940
 O546 O 1.03144 0.45459 0.03278
 C547 C 1.02229 0.45837 0.05955
 C548 C 1.04356 0.55569 -0.03679
 C549 C 1.03742 0.46744 -0.05100
 C550 C 1.02393 0.53902 0.06807
 O551 O 0.93425 0.53602 0.03787
 O552 O 0.94900 0.48712 -0.05169
 O553 O 0.96679 0.43541 0.02665
 O554 O 0.98211 0.58315 -0.01464
 O555 O 0.94779 0.54747 -0.03484
 O556 O 0.93135 0.47551 0.03568
 O557 O 0.97312 0.57381 0.03834
 O558 O 0.97123 0.44202 -0.03005
 Co559 Co 0.96518 0.50383 0.04853
 Co560 Co 0.98236 0.51820 -0.04328
 Co561 Co 1.00046 0.45277 0.00171
 Co562 Co 1.00711 0.55752 0.01337
 O563 O 0.98873 0.50760 0.00467
 C564 C 0.94206 0.56608 0.04087
 C565 C 0.95147 0.45574 -0.04940
 C566 C 0.93701 0.44485 0.03373
 C567 C 0.95461 0.57720 -0.02883
 O568 O 0.51777 0.98751 0.56346
 O569 O 0.49457 1.02662 0.43397
 O570 O 0.53470 0.95275 0.47232
 O571 O 0.54468 1.04880 0.51554
 O572 O 0.49469 0.96616 0.44019
 O573 O 0.51287 1.04863 0.55414
 O574 O 0.53608 1.03750 0.46354
 O575 O 0.54102 0.95288 0.53034
 C576 C 0.54074 0.96629 0.55603
 C577 C 0.52541 1.03497 0.43738
 C578 C 0.52506 0.95617 0.44566
 C579 C 0.54179 1.05340 0.54283
 O580 O 0.44659 1.04167 0.54009
 O581 O 0.43356 0.97018 0.47042
 O582 O 0.47601 0.93728 0.53546
 O583 O 0.47363 1.06887 0.46558
 O584 O 0.43528 1.03093 0.46792
 O585 O 0.45132 0.98081 0.55756
 O586 O 0.47947 1.07843 0.51876
 O587 O 0.47046 0.93101 0.47916
 Co588 Co 0.48268 1.01395 0.54854
 Co589 Co 0.46664 0.99904 0.45710
 Co590 Co 0.50412 0.94935 0.50358
 Co591 Co 0.50689 1.05390 0.49171
 O592 O 0.49003 1.00351 0.50060
 C593 C 0.45209 1.07153 0.53302
 C594 C 0.44019 0.93968 0.47261
 C595 C 0.45590 0.94967 0.55507
 C596 C 0.44275 1.06075 0.46305
 O597 O 1.08324 1.04116 0.47395
 O598 O 0.94158 1.02831 0.52882
 O599 O 0.97498 1.06479 0.45844
 O600 O 1.04056 1.07104 0.53492
 O601 O 0.93881 1.02693 0.47389
 O602 O 1.08246 1.03706 0.52962
 O603 O 0.97914 1.06694 0.53342
 O604 O 1.04083 1.06816 0.45101
 C605 C 1.07176 1.06598 0.45884
 C606 C 0.94858 1.05840 0.53479
 C607 C 0.94479 1.05587 0.46327
 C608 C 1.07192 1.06613 0.53537
 O609 O 1.06157 0.97327 0.52643
 O610 O 0.96920 0.96560 0.47363
 O611 O 1.04182 1.00420 0.43522
 O612 O 0.98280 1.00590 0.56170
 O613 O 0.97589 0.96792 0.52827
 O614 O 1.07021 0.97600 0.46980
 O615 O 1.04441 1.00770 0.56131
 O616 O 0.97821 1.00148 0.43811
 Co617 Co 1.06844 1.00780 0.50010
 Co618 Co 0.96117 0.99902 0.50117
 Co619 Co 1.00903 1.03326 0.45092
 Co620 Co 1.01187 1.03628 0.54391
 O621 O 1.01282 1.01841 0.49881
 C622 C 1.05673 0.97931 0.55370
 C623 C 0.97064 0.97210 0.44622
 C624 C 1.06215 0.98054 0.44277
 C625 C 0.97650 0.97585 0.55530
 O626 O 0.58508 0.53380 -0.03246
 O627 O 0.43923 0.53103 0.01916
 O628 O 0.48298 0.56767 -0.04042
 O629 O 0.54238 0.56692 0.04444
 O630 O 0.44369 0.53078 -0.03560
 O631 O 0.58403 0.53783 0.02301
 O632 O 0.47707 0.56732 0.03420
 O633 O 0.54473 0.56897 -0.04135
 C634 C 0.57594 0.56291 -0.03991
 C635 C 0.44642 0.55960 0.02991
 C636 C 0.45205 0.56042 -0.04189
 C637 C 0.57369 0.56268 0.03857
 O638 O 0.56763 0.47365 0.02733
 O639 O 0.47523 0.46915 -0.03305
 O640 O 0.54665 0.50538 -0.06549
 O641 O 0.47556 0.50452 0.05603
 O642 O 0.46730 0.46831 0.02106
 O643 O 0.56149 0.47089 -0.02974
 O644 O 0.53885 0.50328 0.06069
 O645 O 0.48466 0.50573 -0.06728
 Co646 Co 0.56860 0.50526 -0.00335
 Co647 Co 0.46117 0.50149 -0.00700
 Co648 Co 0.51462 0.53536 -0.04958
 Co649 Co 0.50862 0.53410 0.04362
 O650 O 0.51349 0.51869 -0.00386
 C651 C 0.55841 0.47870 0.05401
 C652 C 0.47660 0.47624 -0.06024
 C653 C 0.55832 0.47696 -0.05717
 C654 C 0.46759 0.47528 0.04828
 C655 C 0.34502 1.16116 0.15332
 C656 C 0.35531 1.13843 0.13085
 C657 C 0.34214 1.14196 0.10128
 C658 C 0.31913 1.16844 0.09466
 C659 C 0.30899 1.19104 0.11722
 C660 C 0.32163 1.18750 0.14681
 C661 C 0.35240 1.11915 0.07879
 C662 C 0.37630 1.09341 0.08540
 C663 C 0.38965 1.09010 0.11498
 C664 C 0.37869 1.11234 0.13760
 C665 C 0.41471 1.06534 0.12122
 C666 C 0.42757 1.04505 0.09805
 C667 C 0.41460 1.04840 0.06868
 C668 C 0.38831 1.07189 0.06256
 H669 H 0.35504 1.15801 0.17599
 H670 H 0.30885 1.17159 0.07209
 H671 H 0.29082 1.21097 0.11155
 H672 H 0.34241 1.12189 0.05605
 H673 H 0.38894 1.10981 0.16027
 H674 H 0.42531 1.06258 0.14371
 H675 H 0.44822 1.02723 0.10283
 H676 H 0.37900 1.07497 0.03964
 C677 C 0.83735 0.65359 0.65321
 C678 C 0.85349 0.63559 0.62988
 C679 C 0.86069 0.65203 0.60224
 C680 C 0.85114 0.68593 0.59821
 C681 C 0.83462 0.70350 0.62136
 C682 C 0.82776 0.68759 0.64908
 C683 C 0.87717 0.63433 0.57900
 C684 C 0.88595 0.60020 0.58280
 C685 C 0.87823 0.58348 0.61018
 C686 C 0.86232 0.60140 0.63369
 C687 C 0.88632 0.54905 0.61342
 C688 C 0.90171 0.53133 0.58965
 C689 C 0.90971 0.54795 0.56255
 C690 C 0.90199 0.58244 0.55938
 H691 H 0.83193 0.64104 0.67444
 H692 H 0.85641 0.69885 0.57714
 H693 H 0.82769 0.72976 0.61773
 H694 H 0.88286 0.64701 0.55787
 H695 H 0.85655 0.58869 0.65479
 H696 H 0.88051 0.53580 0.63420
 H697 H 0.90759 0.50471 0.59251
 H698 H 0.90783 0.59537 0.53841
 C699 C 0.66357 0.85784 0.16213
 C700 C 0.64607 0.87240 0.13760
 C701 C 0.66370 0.87762 0.11005
 C702 C 0.69841 0.86771 0.10745
 C703 C 0.71520 0.85192 0.13163
 C704 C 0.69793 0.84696 0.15909
 C705 C 0.64609 0.89169 0.08534
 C706 C 0.61075 0.89930 0.08746
 C707 C 0.59298 0.89333 0.11482
 C708 C 0.61091 0.88057 0.13988
 C709 C 0.55738 0.89957 0.11648
 C710 C 0.53942 0.91124 0.09118
 C711 C 0.55690 0.91763 0.06404
 C712 C 0.59267 0.91201 0.06241
 H713 H 0.64993 0.85334 0.18311
 H714 H 0.71225 0.87130 0.08645
 H715 H 0.74164 0.84343 0.12889
 H716 H 0.65962 0.89582 0.06424
 H717 H 0.59728 0.87609 0.16088
 H718 H 0.54334 0.89500 0.13722
 H719 H 0.51187 0.91564 0.09289
 H720 H 0.60624 0.91668 0.04143
 C721 C 1.15819 0.35079 0.66335
 C722 C 1.13672 0.36186 0.63967
 C723 C 1.13381 0.34211 0.61321
 C724 C 1.15266 0.31200 0.61065
 C725 C 1.17430 0.30148 0.63397
 C726 C 1.17729 0.32060 0.66058
 C727 C 1.11244 0.35288 0.58955
 C728 C 1.09460 0.38368 0.59151
 C729 C 1.09780 0.40376 0.61774
 C730 C 1.11842 0.39249 0.64183
 C731 C 1.08096 0.43518 0.61908
 C732 C 1.06201 0.44700 0.59438
 C733 C 1.05880 0.42723 0.56826
 C734 C 1.07453 0.39525 0.56720
 H735 H 1.16027 0.36576 0.68371
 H736 H 1.15076 0.29659 0.59054
 H737 H 1.18830 0.27789 0.63129
 H738 H 1.11027 0.33764 0.56933
 H739 H 1.12079 0.40786 0.66194
 H740 H 1.08315 0.45097 0.63892
 H741 H 1.05002 0.47178 0.59556
 H742 H 1.07251 0.38011 0.54692
 C743 C 0.64246 1.15686 -0.14441
 C744 C 0.62604 1.13776 -0.12213
 C745 C 0.64282 1.13176 -0.09431
 C746 C 0.67527 1.14601 -0.08894
 C747 C 0.69139 1.16528 -0.11127
 C748 C 0.67541 1.17026 -0.13936
 C749 C 0.62705 1.11135 -0.07251
 C750 C 0.59457 1.09729 -0.07811
 C751 C 0.57733 1.10423 -0.10557
 C752 C 0.59330 1.12425 -0.12749
 C753 C 0.54436 1.09102 -0.11062
 C754 C 0.52858 1.07107 -0.08865
 C755 C 0.54589 1.06347 -0.06167
 C756 C 0.57892 1.07654 -0.05655
 H757 H 0.62969 1.16096 -0.16588
 H758 H 0.68839 1.14185 -0.06766
 H759 H 0.71679 1.17536 -0.10692
 H760 H 0.64005 1.10635 -0.05129
 H761 H 0.58032 1.12921 -0.14874
 H762 H 0.53072 1.09628 -0.13146
 H763 H 0.50301 1.06128 -0.09283
 H764 H 0.59211 1.07115 -0.03550
 C765 C 1.15234 0.64429 0.34904
 C766 C 1.13137 0.62891 0.37073
 C767 C 1.12556 0.64510 0.39868
 C768 C 1.14157 0.67609 0.40463
 C769 C 1.16293 0.69104 0.38298
 C770 C 1.16815 0.67546 0.35490
 C771 C 1.10403 0.62993 0.42020
 C772 C 1.08902 0.59841 0.41435
 C773 C 1.09560 0.58191 0.38663
 C774 C 1.11635 0.59748 0.36487
 C775 C 1.08181 0.54980 0.38135
 C776 C 1.06213 0.53386 0.40353
 C777 C 1.05510 0.55021 0.43091
 C778 C 1.06821 0.58269 0.43606
 H779 H 1.15653 0.63180 0.32759
 H780 H 1.13756 0.68878 0.42600
 H781 H 1.17477 0.71509 0.38795
 H782 H 1.09936 0.64239 0.44160
 H783 H 1.12118 0.58493 0.34352
 H784 H 1.08679 0.53674 0.36032
 H785 H 1.05237 0.50872 0.39933
 H786 H 1.06336 0.59510 0.45746
 C787 C 0.33444 0.82289 -0.16467
 C788 C 0.34799 0.84126 -0.14032
 C789 C 0.33102 0.84070 -0.11208
 C790 C 0.30117 0.82129 -0.10856
 C791 C 0.28814 0.80271 -0.13275
 C792 C 0.30441 0.80344 -0.16113
 C793 C 0.34427 0.85931 -0.08778
 C794 C 0.37480 0.87785 -0.09112
 C795 C 0.39212 0.87784 -0.11923
 C796 C 0.37839 0.85993 -0.14371
 C797 C 0.42329 0.89526 -0.12226
 C798 C 0.43757 0.91198 -0.09757
 C799 C 0.42053 0.91239 -0.06960
 C800 C 0.38880 0.89572 -0.06661
 H801 H 0.34745 0.82355 -0.18632
 H802 H 0.28788 0.82045 -0.08706
 H803 H 0.26492 0.78814 -0.12933
 H804 H 0.33113 0.85895 -0.06617
 H805 H 0.39164 0.86013 -0.16527
 H806 H 0.43698 0.89541 -0.14357
 H807 H 0.46207 0.92463 -0.10028
 H808 H 0.37579 0.89552 -0.04496
 C809 C 0.84532 0.32027 0.33237
 C810 C 0.86326 0.33434 0.35678
 C811 C 0.86636 0.31605 0.38412
 C812 C 0.85152 0.28400 0.38657
 C813 C 0.83301 0.27055 0.36246
 C814 C 0.82953 0.28859 0.33524
 C815 C 0.88340 0.33042 0.40884
 C816 C 0.89634 0.36336 0.40693
 C817 C 0.89310 0.38167 0.37959
 C818 C 0.87716 0.36684 0.35456
 C819 C 0.90486 0.41500 0.37801
 C820 C 0.91852 0.43049 0.40353
 C821 C 0.92151 0.41268 0.43086
 C822 C 0.91121 0.37879 0.43227
 H823 H 0.84262 0.33446 0.31154
 H824 H 0.85364 0.26960 0.40731
 H825 H 0.82137 0.24593 0.36515
 H826 H 0.88559 0.31643 0.42983
 H827 H 0.87459 0.38100 0.33369
 H828 H 0.90260 0.42941 0.35728
 H829 H 0.92654 0.45661 0.40201
 H830 H 0.91320 0.36507 0.45340
 C831 C 1.15311 0.36103 0.16582
 C832 C 1.13416 0.37889 0.14384
 C833 C 1.14433 0.37704 0.11323
 C834 C 1.17331 0.35783 0.10512
 C835 C 1.19181 0.34002 0.12698
 C836 C 1.18185 0.34111 0.15750
 C837 C 1.12510 0.39393 0.09106
 C838 C 1.09546 0.41232 0.09894
 C839 C 1.08534 0.41466 0.12950
 C840 C 1.10491 0.39809 0.15183
 C841 C 1.05542 0.43300 0.13703
 C842 C 1.03521 0.44796 0.11440
 C843 C 1.04472 0.44501 0.08391
 C844 C 1.07533 0.42768 0.07649
 H845 H 1.14512 0.36218 0.18923
 H846 H 1.18147 0.35626 0.08177
 H847 H 1.21395 0.32522 0.11984
 H848 H 1.13283 0.39220 0.06758
 H849 H 1.09703 0.39962 0.17527
 H850 H 1.04731 0.43523 0.16033
 H851 H 1.01188 0.46139 0.12074
 H852 H 1.08310 0.42528 0.05309
 C853 C 0.67757 0.87640 0.66137
 C854 C 0.65849 0.89290 0.63864
 C855 C 0.66381 0.88410 0.60808
 C856 C 0.68906 0.86005 0.60065
 C857 C 0.70779 0.84368 0.62331
 C858 C 0.70173 0.85098 0.65395
 C859 C 0.64313 0.89866 0.58549
 C860 C 0.61689 0.92170 0.59307
 C861 C 0.61242 0.93152 0.62349
 C862 C 0.63334 0.91719 0.64606
 C863 C 0.58638 0.95478 0.63094
 C864 C 0.56401 0.96708 0.60873
 C865 C 0.56717 0.95634 0.57860
 C866 C 0.59431 0.93421 0.57084
 H867 H 0.67266 0.88251 0.68481
 H868 H 0.69369 0.85321 0.57733
 H869 H 0.72635 0.82447 0.61675
 H870 H 0.64679 0.89131 0.56214
 H871 H 0.62938 0.92421 0.66946
 H872 H 0.58274 0.96281 0.65408
 H873 H 0.54349 0.98422 0.61539
 H874 H 0.59725 0.92589 0.54769
 C875 C 1.16539 0.65113 -0.15110
 C876 C 1.14358 0.62982 -0.13405
 C877 C 1.11905 0.60951 -0.14902
 C878 C 1.11710 0.60982 -0.18031
 C879 C 1.13847 0.63060 -0.19697
 C880 C 1.16275 0.65221 -0.18295
 C881 C 1.09616 0.58948 -0.13262
 C882 C 1.09704 0.58936 -0.10120
 C883 C 1.12212 0.60854 -0.08582
 C884 C 1.14533 0.62868 -0.10234
 C885 C 1.12290 0.60771 -0.05417
 C886 C 1.09826 0.58920 -0.03811
 C887 C 1.07233 0.57140 -0.05342
 C888 C 1.07243 0.57101 -0.08499
 H889 H 1.18382 0.66699 -0.13954
 H890 H 1.09861 0.59419 -0.19205
 H891 H 1.13525 0.62974 -0.22123
 H892 H 1.07710 0.57448 -0.14438
 H893 H 1.16419 0.64384 -0.09056
 H894 H 1.14202 0.62197 -0.04186
 H895 H 1.09871 0.58987 -0.01368
 H896 H 1.05272 0.55711 -0.09697
 C897 C 0.64363 1.13592 0.32381
 C898 C 0.62751 1.11700 0.34678
 C899 C 0.63996 1.11900 0.37671
 C900 C 0.66823 1.13949 0.38320
 C901 C 0.68394 1.15822 0.36043
 C902 C 0.67188 1.15691 0.33050
 C903 C 0.62371 1.10093 0.39987
 C904 C 0.59467 1.08123 0.39373
 C905 C 0.58223 1.07880 0.36386
 C906 C 0.59892 1.09647 0.34048
 C907 C 0.55275 1.05945 0.35810
 C908 C 0.53497 1.04392 0.38185
 C909 C 0.54664 1.04702 0.41173
 C910 C 0.57715 1.06497 0.41731
 H911 H 0.63404 1.13447 0.30089
 H912 H 0.67811 1.14123 0.40601
 H913 H 0.70571 1.17382 0.36643
 H914 H 0.63320 1.10282 0.42282
 H915 H 0.58923 1.09482 0.31759
 H916 H 0.54285 1.05715 0.33535
 H917 H 0.51157 1.03021 0.37694
 H918 H 0.58640 1.06772 0.44024
 C919 C 0.82243 0.67952 0.14188
 C920 C 0.83752 0.65508 0.12293
 C921 C 0.83297 0.62035 0.12934
 C922 C 0.81338 0.61065 0.15445
 C923 C 0.79971 0.63506 0.17380
 C924 C 0.80436 0.66957 0.16786
 C925 C 0.84933 0.59585 0.11144
 C926 C 0.87176 0.60558 0.08823
 C927 C 0.87646 0.64028 0.08181
 C928 C 0.85857 0.66479 0.09867
 C929 C 0.90038 0.64990 0.05970
 C930 C 0.92086 0.62552 0.04540
 C931 C 0.91679 0.59109 0.05205
 C932 C 0.89126 0.58119 0.07268
 H933 H 0.82638 0.70617 0.13743
 H934 H 0.80968 0.58417 0.15971
 H935 H 0.78567 0.62699 0.19366
 H936 H 0.84604 0.56926 0.11660
 H937 H 0.86243 0.69139 0.09392
 H938 H 0.90442 0.67634 0.05452
 H939 H 0.94057 0.63361 0.02971
 H940 H 0.88842 0.55468 0.07830
 C941 C 0.34093 1.18579 0.64190
 C942 C 0.35583 1.16189 0.62218
 C943 C 0.35117 1.12700 0.62791
 C944 C 0.33226 1.11654 0.65313
 C945 C 0.31873 1.14030 0.67307
 C946 C 0.32295 1.17493 0.66772
 C947 C 0.36636 1.10295 0.60897
 C948 C 0.38762 1.11304 0.58512
 C949 C 0.39281 1.14771 0.57926
 C950 C 0.37623 1.17204 0.59748
 C951 C 0.41550 1.15721 0.55599
 C952 C 0.43404 1.13257 0.53980
 C953 C 0.42946 1.09809 0.54612
 C954 C 0.40518 1.08870 0.56812
 H955 H 0.34435 1.21258 0.63789
 H956 H 0.32859 1.08992 0.65782
 H957 H 0.30469 1.13165 0.69274
 H958 H 0.36279 1.07626 0.61357
 H959 H 0.38022 1.19870 0.59316
 H960 H 0.41987 1.18366 0.55109
 H961 H 0.45256 1.14048 0.52295
 H962 H 0.40135 1.06223 0.57343
 C963 C 0.84876 0.33326 -0.15728
 C964 C 0.86743 0.35010 -0.13480
 C965 C 0.87295 0.33458 -0.10639
 C966 C 0.85925 0.30249 -0.10090
 C967 C 0.83984 0.28630 -0.12307
 C968 C 0.83441 0.30152 -0.15141
 C969 C 0.89149 0.35161 -0.08385
 C970 C 0.90373 0.38442 -0.08908
 C971 C 0.89744 0.39997 -0.11740
 C972 C 0.87988 0.38261 -0.14011
 C973 C 0.90845 0.43294 -0.12261
 C974 C 0.92539 0.45058 -0.10006
 C975 C 0.93230 0.43560 -0.07183
 C976 C 0.92170 0.40221 -0.06649
 H977 H 0.84434 0.34534 -0.17893
 H978 H 0.86306 0.29014 -0.07930
 H979 H 0.82910 0.26173 -0.11809
 H980 H 0.89584 0.33961 -0.06215
 H981 H 0.87534 0.39469 -0.16177
 H982 H 0.90381 0.44523 -0.14412
 H983 H 0.93366 0.47607 -0.10503
 H984 H 0.92685 0.39046 -0.04483
 C985 C 0.32651 0.81902 0.37351
 C986 C 0.35075 0.83487 0.39249
 C987 C 0.38643 0.82859 0.38821
 C988 C 0.39733 0.80678 0.36525
 C989 C 0.37333 0.79218 0.34596
 C990 C 0.33785 0.79827 0.34968
 C991 C 0.41085 0.84514 0.40614
 C992 C 0.40032 0.86919 0.42745
 C993 C 0.36474 0.87570 0.43182
 C994 C 0.34014 0.85795 0.41480
 C995 C 0.35447 0.90100 0.45214
 C996 C 0.37916 0.92085 0.46664
 C997 C 0.41453 0.91497 0.46197
 C998 C 0.42494 0.88828 0.44314
 H999 H 0.29917 0.82403 0.37631
 H1000 H 0.42453 0.80173 0.36163
 H1001 H 0.38253 0.77609 0.32788
 H1002 H 0.43814 0.84041 0.40254
 H1003 H 0.31289 0.86316 0.41800
 H1004 H 0.32736 0.90645 0.45578
 H1005 H 0.37064 0.94146 0.48092
 H1006 H 0.45219 0.88408 0.43892
 C1007 C 1.18502 1.18715 0.36222
 C1008 C 1.17217 1.16235 0.38190
 C1009 C 1.18320 1.12831 0.37878
 C1010 C 1.20715 1.11973 0.35637
 C1011 C 1.21876 1.14426 0.33627
 C1012 C 1.20746 1.17786 0.33885
 C1013 C 1.16880 1.10309 0.39697
 C1014 C 1.14211 1.11108 0.41707
 C1015 C 1.13127 1.14512 0.42045
 C1016 C 1.14705 1.17065 0.40346
 C1017 C 1.10335 1.15278 0.43939
 C1018 C 1.08490 1.12681 0.45312
 C1019 C 1.09494 1.09299 0.44914
 C1020 C 1.12440 1.08527 0.43217
 H1021 H 1.17619 1.21313 0.36396
 H1022 H 1.21587 1.09384 0.35365
 H1023 H 1.23628 1.13696 0.31834
 H1024 H 1.17691 1.07699 0.39417
 H1025 H 1.13836 1.19663 0.40573
 H1026 H 1.09466 1.17866 0.44226
 H1027 H 1.06206 1.13301 0.46614
 H1028 H 1.13172 1.05905 0.42871
 C1029 C 0.68503 0.68384 -0.14174
 C1030 C 0.66146 0.66821 -0.12221
 C1031 C 0.62562 0.67306 -0.12679
 C1032 C 0.61395 0.69350 -0.15055
 C1033 C 0.63748 0.70784 -0.17048
 C1034 C 0.67303 0.70282 -0.16642
 C1035 C 0.60192 0.65619 -0.10849
 C1036 C 0.61345 0.63311 -0.08670
 C1037 C 0.64920 0.62823 -0.08189
 C1038 C 0.67303 0.64648 -0.09920
 C1039 C 0.66041 0.60395 -0.06088
 C1040 C 0.63648 0.58338 -0.04616
 C1041 C 0.60101 0.58747 -0.05162
 C1042 C 0.58967 0.61330 -0.07102
 H1043 H 0.71251 0.67981 -0.13874
 H1044 H 0.58661 0.69747 -0.15434
 H1045 H 0.62792 0.72275 -0.18926
 H1046 H 0.57447 0.65966 -0.11229
 H1047 H 0.70046 0.64250 -0.09580
 H1048 H 0.68768 0.59988 -0.05681
 H1049 H 0.64572 0.56371 -0.03111
 H1050 H 0.56235 0.61653 -0.07551
 C1051 C 0.82522 1.15739 0.64483
 C1052 C 0.84193 1.13537 0.62454
 C1053 C 0.83962 1.10000 0.62888
 C1054 C 0.82099 1.08728 0.65346
 C1055 C 0.80572 1.10933 0.67414
 C1056 C 0.80777 1.14441 0.67006
 C1057 C 0.85707 1.07790 0.60934
 C1058 C 0.87836 1.09062 0.58647
 C1059 C 0.88113 1.12595 0.58232
 C1060 C 0.86216 1.14808 0.60086
 C1061 C 0.90413 1.13855 0.56066
 C1062 C 0.92537 1.11646 0.54436
 C1063 C 0.92286 1.08138 0.54844
 C1064 C 0.89851 1.06857 0.56886
 H1065 H 0.82718 1.18451 0.64188
 H1066 H 0.81909 1.06029 0.65719
 H1067 H 0.79228 1.09898 0.69347
 H1068 H 0.85536 1.05082 0.61282
 H1069 H 0.86441 1.17517 0.59775
 H1070 H 0.90681 1.16553 0.55730
 H1071 H 0.94435 1.12679 0.52906
 H1072 H 0.89706 1.04153 0.57263
 C1073 C 0.32801 0.65441 0.14554
 C1074 C 0.34464 0.63254 0.12516
 C1075 C 0.34821 0.59786 0.13244
 C1076 C 0.33555 0.58576 0.16001
 C1077 C 0.32019 0.60790 0.18056
 C1078 C 0.31632 0.64234 0.17356
 C1079 C 0.36536 0.57600 0.11254
 C1080 C 0.38063 0.58862 0.08620
 C1081 C 0.37765 0.62338 0.07906
 C1082 C 0.35887 0.64497 0.09821
 C1083 C 0.39496 0.63618 0.05368
 C1084 C 0.41641 0.61508 0.03653
 C1085 C 0.41946 0.58067 0.04366
 C1086 C 0.40069 0.56736 0.06791
 H1087 H 0.32529 0.68098 0.14010
 H1088 H 0.33819 0.55930 0.16596
 H1089 H 0.31107 0.59805 0.20191
 H1090 H 0.36816 0.54944 0.11823
 H1091 H 0.35664 0.67165 0.09282
 H1092 H 0.39321 0.66277 0.04798
 H1093 H 0.43130 0.62571 0.01819
 H1094 H 0.40392 0.54093 0.07391
 C1095 C 1.14894 0.84271 0.65688
 C1096 C 1.13338 0.86330 0.63481
 C1097 C 1.14097 0.85791 0.60402
 C1098 C 1.16410 0.83218 0.59582
 C1099 C 1.18002 0.81218 0.61786
 C1100 C 1.17285 0.81703 0.64884
 C1101 C 1.12574 0.87866 0.58194
 C1102 C 1.10369 0.90532 0.59031
 C1103 C 1.09633 0.91094 0.62113
 C1104 C 1.11085 0.88963 0.64316
 C1105 C 1.07519 0.93828 0.62945
 C1106 C 1.06207 0.96031 0.60752
 C1107 C 1.06907 0.95493 0.57679
 C1108 C 1.08962 0.92702 0.56836
 H1109 H 1.14275 0.84737 0.68038
 H1110 H 1.17023 0.82775 0.57230
 H1111 H 1.19797 0.79282 0.61038
 H1112 H 1.13162 0.87449 0.55830
 H1113 H 1.10519 0.89398 0.66681
 H1114 H 1.06941 0.94308 0.65298
 H1115 H 1.04679 0.98184 0.61466
 H1116 H 1.09558 0.92276 0.54477
 C1117 C 0.65425 0.34643 0.15957
 C1118 C 0.63811 0.36659 0.13740
 C1119 C 0.64478 0.36024 0.10655
 C1120 C 0.66709 0.33387 0.09833
 C1121 C 0.68300 0.31404 0.12039
 C1122 C 0.67699 0.32007 0.15125
 C1123 C 0.62931 0.38047 0.08431
 C1124 C 0.60739 0.40725 0.09241
 C1125 C 0.60034 0.41361 0.12316
 C1126 C 0.61566 0.39316 0.14551
 C1127 C 0.57844 0.44064 0.13096
 C1128 C 0.56426 0.46152 0.10854
 C1129 C 0.57153 0.45564 0.07791
 C1130 C 0.59287 0.42809 0.07010
 H1131 H 0.64924 0.35141 0.18321
 H1132 H 0.67240 0.32866 0.07478
 H1133 H 0.70019 0.29396 0.11314
 H1134 H 0.63467 0.37560 0.06068
 H1135 H 0.61043 0.39812 0.16913
 H1136 H 0.57267 0.44592 0.15440
 H1137 H 0.54805 0.48260 0.11523
 H1138 H 0.59875 0.42313 0.04661
 C1139 C 0.86979 0.84695 0.34085
 C1140 C 0.88817 0.86390 0.36348
 C1141 C 0.88031 0.85790 0.39417
 C1142 C 0.85467 0.83456 0.40169
 C1143 C 0.83617 0.81817 0.37906
 C1144 C 0.84313 0.82449 0.34840
 C1145 C 0.89744 0.87602 0.41680
 C1146 C 0.92170 0.90073 0.40909
 C1147 C 0.92991 0.90637 0.37839
 C1148 C 0.91346 0.88761 0.35583
 C1149 C 0.95353 0.93157 0.37067
 C1150 C 0.96768 0.95209 0.39297
 C1151 C 0.95906 0.94737 0.42348
 C1152 C 0.93679 0.92093 0.43149
 H1153 H 0.87549 0.85219 0.31736
 H1154 H 0.84837 0.82955 0.42509
 H1155 H 0.81600 0.80085 0.38564
 H1156 H 0.89104 0.87169 0.44031
 H1157 H 0.91949 0.89228 0.33230
 H1158 H 0.96020 0.93618 0.34728
 H1159 H 0.98481 0.97225 0.38627
 H1160 H 0.92975 0.91725 0.45494
 C1161 C 0.36546 0.35804 -0.16364
 C1162 C 0.38571 0.37405 -0.14170
 C1163 C 0.38045 0.36665 -0.11081
 C1164 C 0.35530 0.34324 -0.10240
 C1165 C 0.33516 0.32760 -0.12429
 C1166 C 0.33981 0.33489 -0.15513
 C1167 C 0.39993 0.38321 -0.08876
 C1168 C 0.42405 0.40772 -0.09713
 C1169 C 0.42955 0.41497 -0.12802
 C1170 C 0.41067 0.39777 -0.15012
 C1171 C 0.45297 0.44019 -0.13623
 C1172 C 0.46947 0.45919 -0.11407
 C1173 C 0.46353 0.45274 -0.08332
 C1174 C 0.44159 0.42620 -0.07502
 H1175 H 0.36950 0.36388 -0.18728
 H1176 H 0.35099 0.33723 -0.07884
 H1177 H 0.31589 0.30969 -0.11696
 H1178 H 0.39560 0.37773 -0.06507
 H1179 H 0.41471 0.40355 -0.17379
 H1180 H 0.45754 0.44608 -0.15977
 H1181 H 0.48609 0.47965 -0.12099
 H1182 H 0.43652 0.42127 -0.05136
 C1183 C 1.16257 0.36474 -0.15909
 C1184 C 1.14391 0.38132 -0.13607
 C1185 C 1.14546 0.36882 -0.10618
 C1186 C 1.16608 0.34055 -0.09965
 C1187 C 1.18476 0.32448 -0.12248
 C1188 C 1.18309 0.33610 -0.15249
 C1189 C 1.12615 0.38451 -0.08328
 C1190 C 1.10518 0.41263 -0.08978
 C1191 C 1.10420 0.42572 -0.11947
 C1192 C 1.12357 0.41002 -0.14243
 C1193 C 1.08331 0.45394 -0.12579
 C1194 C 1.06266 0.46830 -0.10323
 C1195 C 1.06252 0.45483 -0.07382
 C1196 C 1.08453 0.42733 -0.06718
 H1197 H 1.16121 0.37419 -0.18203
 H1198 H 1.16765 0.33070 -0.07686
 H1199 H 1.20021 0.30253 -0.11662
 H1200 H 1.12708 0.37454 -0.06048
 H1201 H 1.12246 0.41986 -0.16527
 H1202 H 1.08236 0.46450 -0.14836
 H1203 H 1.04611 0.48949 -0.10906
 H1204 H 1.08477 0.41661 -0.04465
 C1205 C 0.66160 0.87188 0.33681
 C1206 C 0.64221 0.88838 0.35921
 C1207 C 0.65293 0.88640 0.38965
 C1208 C 0.68309 0.86856 0.39712
 C1209 C 0.70183 0.85169 0.37481
 C1210 C 0.69107 0.85275 0.34454
 C1211 C 0.63283 0.90139 0.41229
 C1212 C 0.60167 0.91762 0.40501
 C1213 C 0.59108 0.92010 0.37458
 C1214 C 0.61164 0.90578 0.35179
 C1215 C 0.55963 0.93608 0.36759
 C1216 C 0.53834 0.94843 0.39063
 C1217 C 0.54829 0.94526 0.42099
 C1218 C 0.58042 0.93046 0.42789
 H1219 H 0.65290 0.87276 0.31358
 H1220 H 0.69170 0.86692 0.42033
 H1221 H 0.72456 0.83739 0.38136
 H1222 H 0.64090 0.89951 0.43567
 H1223 H 0.60335 0.90731 0.32846
 H1224 H 0.55117 0.93839 0.34439
 H1225 H 0.51388 0.96004 0.38471
 H1226 H 0.58854 0.92799 0.45120
 C1227 C 0.84517 0.68874 -0.14139
 C1228 C 0.85985 0.66569 -0.12071
 C1229 C 0.85314 0.63076 -0.12394
 C1230 C 0.83272 0.61935 -0.14783
 C1231 C 0.81946 0.64219 -0.16881
 C1232 C 0.82545 0.67687 -0.16575
 C1233 C 0.86774 0.60752 -0.10384
 C1234 C 0.89050 0.61831 -0.08143
 C1235 C 0.89799 0.65296 -0.07822
 C1236 C 0.88192 0.67665 -0.09749
 C1237 C 0.92239 0.66294 -0.05655
 C1238 C 0.94028 0.63862 -0.03935
 C1239 C 0.93318 0.60409 -0.04293
 C1240 C 0.90727 0.59446 -0.06330
 H1241 H 0.84996 0.71557 -0.13921
 H1242 H 0.82756 0.59267 -0.15063
 H1243 H 0.80412 0.63280 -0.18738
 H1244 H 0.86251 0.58078 -0.10645
 H1245 H 0.88755 0.70331 -0.09517
 H1246 H 0.92861 0.68938 -0.05375
 H1247 H 0.96024 0.64670 -0.02396
 H1248 H 0.90147 0.56795 -0.06651
 C1249 C 0.33872 1.18075 0.35459
 C1250 C 0.36136 1.16377 0.37422
 C1251 C 0.39739 1.16651 0.36977
 C1252 C 0.41015 1.18560 0.34561
 C1253 C 0.38743 1.20125 0.32554
 C1254 C 0.35172 1.19898 0.32994
 C1255 C 0.42015 1.14922 0.38887
 C1256 C 0.40743 1.12782 0.41138
 C1257 C 0.37148 1.12442 0.41562
 C1258 C 0.34862 1.14312 0.39746
 C1259 C 0.35915 1.10137 0.43716
 C1260 C 0.38225 1.08094 0.45341
 C1261 C 0.41792 1.08423 0.44905
 C1262 C 0.43029 1.10841 0.42865
 H1263 H 0.31106 1.17865 0.35768
 H1264 H 0.43766 1.18774 0.34183
 H1265 H 0.39771 1.21533 0.30662
 H1266 H 0.44776 1.15132 0.38540
 H1267 H 0.32101 1.14059 0.40060
 H1268 H 0.33170 1.09831 0.44066
 H1269 H 0.37233 1.06233 0.46905
 H1270 H 0.45781 1.11066 0.42482
 C1271 C 1.14296 0.64366 0.17752
 C1272 C 1.12587 0.62505 0.15505
 C1273 C 1.13643 0.62815 0.12463
 C1274 C 1.16349 0.64981 0.11710
 C1275 C 1.18024 0.66816 0.13945
 C1276 C 1.17042 0.66527 0.16991
 C1277 C 1.11971 0.60975 0.10208
 C1278 C 1.09207 0.58865 0.10934
 C1279 C 1.08120 0.58547 0.13964
 C1280 C 1.09840 0.60347 0.16240
 C1281 C 1.05284 0.56489 0.14644
 C1282 C 1.03472 0.54868 0.12332
 C1283 C 1.04513 0.55220 0.09313
 C1284 C 1.07443 0.57156 0.08648
 H1285 H 1.13511 0.64100 0.20087
 H1286 H 1.17180 0.65250 0.09388
 H1287 H 1.20124 0.68444 0.13276
 H1288 H 1.12787 0.61229 0.07876
 H1289 H 1.09011 0.60108 0.18567
 H1290 H 1.04410 0.56209 0.16953
 H1291 H 1.01220 0.53391 0.12897
 H1292 H 1.08260 0.57474 0.06325
 C1293 C 0.66276 1.15601 0.65168
 C1294 C 0.63760 1.13889 0.63487
 C1295 C 0.60304 1.13841 0.64527
 C1296 C 0.59398 1.15540 0.67173
 C1297 C 0.61906 1.17179 0.68843
 C1298 C 0.65364 1.17181 0.67891
 C1299 C 0.57802 1.12058 0.62940
 C1300 C 0.58686 1.10315 0.60313
 C1301 C 0.62114 1.10379 0.59225
 C1302 C 0.64640 1.12162 0.60826
 C1303 C 0.62935 1.08672 0.56544
 C1304 C 0.60369 1.06971 0.54943
 C1305 C 0.56965 1.06907 0.56031
 C1306 C 0.56159 1.08547 0.58739
 H1307 H 0.68944 1.15580 0.64436
 H1308 H 0.56761 1.15542 0.67985
 H1309 H 0.61146 1.18412 0.70923
 H1310 H 0.55163 1.12017 0.63757
 H1311 H 0.67278 1.12196 0.60012
 H1312 H 0.65544 1.08691 0.55667
 H1313 H 0.61038 1.05721 0.52849
 H1314 H 0.53531 1.08539 0.59578
 C1315 C 0.82203 0.31920 0.12815
 C1316 C 0.84623 0.33604 0.10974
 C1317 C 0.88172 0.32774 0.11216
 C1318 C 0.89240 0.30286 0.13273
 C1319 C 0.86847 0.28725 0.15160
 C1320 C 0.83322 0.29534 0.14968
 C1321 C 0.90617 0.34529 0.09489
 C1322 C 0.89593 0.37213 0.07611
 C1323 C 0.86052 0.38059 0.07368
 C1324 C 0.83585 0.36205 0.08999
 C1325 C 0.85056 0.40839 0.05592
 C1326 C 0.87545 0.42854 0.04192
 C1327 C 0.91072 0.42068 0.04458
 C1328 C 0.92071 0.39177 0.06100
 H1329 H 0.79491 0.32591 0.12692
 H1330 H 0.91946 0.29626 0.13495
 H1331 H 0.87754 0.26899 0.16809
 H1332 H 0.93334 0.33899 0.09704
 H1333 H 0.80875 0.36877 0.08827
 H1334 H 0.82359 0.41534 0.05379
 H1335 H 0.86719 0.45076 0.02949
 H1336 H 0.94790 0.38587 0.06364
 C1337 C 0.34762 0.82996 0.66109
 C1338 C 0.36623 0.84702 0.63847
 C1339 C 0.36055 0.83933 0.60772
 C1340 C 0.33623 0.81506 0.60000
 C1341 C 0.31715 0.79895 0.62233
 C1342 C 0.32229 0.80603 0.65336
 C1343 C 0.37869 0.85650 0.58505
 C1344 C 0.40167 0.88223 0.59261
 C1345 C 0.40702 0.89032 0.62338
 C1346 C 0.38978 0.87230 0.64607
 C1347 C 0.42892 0.91690 0.63097
 C1348 C 0.44470 0.93579 0.60836
 C1349 C 0.43962 0.92797 0.57780
 C1350 C 0.41862 0.90074 0.56991
 H1351 H 0.35224 0.83620 0.68456
 H1352 H 0.33147 0.80888 0.57657
 H1353 H 0.29832 0.78068 0.61491
 H1354 H 0.37422 0.85045 0.56152
 H1355 H 0.39401 0.87858 0.66958
 H1356 H 0.43331 0.92352 0.65435
 H1357 H 0.46111 0.95663 0.61474
 H1358 H 0.41450 0.89490 0.54630
 C1359 C 0.34566 1.16103 -0.15377
 C1360 C 0.36093 1.14208 -0.13059
 C1361 C 0.36825 1.15767 -0.10268
 C1362 C 0.35972 1.19186 -0.09837
 C1363 C 0.34361 1.21034 -0.12138
 C1364 C 0.33658 1.19508 -0.14924
 C1365 C 0.38343 1.13870 -0.07943
 C1366 C 0.39049 1.10418 -0.08350
 C1367 C 0.38256 1.08844 -0.11122
 C1368 C 0.36822 1.10761 -0.13474
 C1369 C 0.38879 1.05368 -0.11479
 C1370 C 0.40265 1.03464 -0.09106
 C1371 C 0.41097 1.05019 -0.06363
 C1372 C 0.40497 1.08503 -0.06008
 H1373 H 0.33977 1.14890 -0.17505
 H1374 H 0.36503 1.20416 -0.07707
 H1375 H 0.33674 1.23655 -0.11747
 H1376 H 0.38922 1.15064 -0.05804
 H1377 H 0.36224 1.09562 -0.15607
 H1378 H 0.38275 1.04122 -0.13586
 H1379 H 0.40723 1.00784 -0.09424
 H1380 H 0.41111 1.09721 -0.03888
 C1381 C 0.83504 0.65743 0.34499
 C1382 C 0.84722 0.63583 0.36775
 C1383 C 0.83581 0.64034 0.39778
 C1384 C 0.81277 0.66673 0.40453
 C1385 C 0.80098 0.68837 0.38174
 C1386 C 0.81178 0.68381 0.35172
 C1387 C 0.84790 0.61864 0.42056
 C1388 C 0.87198 0.59311 0.41380
 C1389 C 0.88374 0.58895 0.38379
 C1390 C 0.87088 0.61000 0.36090
 C1391 C 0.90901 0.56448 0.37731
 C1392 C 0.92343 0.54514 0.40053
 C1393 C 0.91187 0.54913 0.43027
 C1394 C 0.88560 0.57254 0.43677
 H1395 H 0.84379 0.65367 0.32199
 H1396 H 0.80385 0.67064 0.42744
 H1397 H 0.78297 0.70836 0.38757
 H1398 H 0.83918 0.62208 0.44361
 H1399 H 0.87985 0.60676 0.33789
 H1400 H 0.91843 0.56110 0.35449
 H1401 H 0.94401 0.52739 0.39540
 H1402 H 0.87734 0.57611 0.45993
 C1403 C 0.64562 1.14616 0.15144
 C1404 C 0.62559 1.13034 0.12946
 C1405 C 0.61818 1.14739 0.10215
 C1406 C 0.63168 1.17977 0.09714
 C1407 C 0.65240 1.19508 0.11899
 C1408 C 0.65922 1.17850 0.14639
 C1409 C 0.59780 1.13160 0.08025
 C1410 C 0.58566 1.09866 0.08503
 C1411 C 0.59387 1.08135 0.11206
 C1412 C 0.61334 1.09751 0.13429
 C1413 C 0.58296 1.04793 0.11619
 C1414 C 0.56444 1.03159 0.09356
 C1415 C 0.55575 1.04875 0.06688
 C1416 C 0.56609 1.08242 0.06288
 H1417 H 0.65126 1.13294 0.17234
 H1418 H 0.62643 1.19313 0.07626
 H1419 H 0.66267 1.22001 0.11468
 H1420 H 0.59189 1.14469 0.05934
 H1421 H 0.61946 1.08433 0.15512
 H1422 H 0.58924 1.03427 0.13670
 H1423 H 0.55675 1.00558 0.09691
 H1424 H 0.55991 1.09557 0.04206
 C1425 C 1.13580 0.65931 0.64372
 C1426 C 1.12033 0.64013 0.62107
 C1427 C 1.13646 0.63721 0.59257
 C1428 C 1.16719 0.65461 0.58695
 C1429 C 1.18244 0.67379 0.60970
 C1430 C 1.16727 0.67566 0.63845
 C1431 C 1.12183 0.61663 0.57038
 C1432 C 1.09110 0.59932 0.57628
 C1433 C 1.07444 0.60317 0.60449
 C1434 C 1.08930 0.62338 0.62677
 C1435 C 1.04309 0.58682 0.60992
 C1436 C 1.02825 0.56693 0.58754
 C1437 C 1.04498 0.56247 0.55976
 C1438 C 1.07652 0.57849 0.55428
 H1439 H 1.12364 0.66090 0.66572
 H1440 H 1.17977 0.65285 0.56516
 H1441 H 1.20673 0.68614 0.60511
 H1442 H 1.13437 0.61402 0.54862
 H1443 H 1.07679 0.62595 0.64855
 H1444 H 1.02991 0.58967 0.63134
 H1445 H 1.00377 0.55483 0.59196
 H1446 H 1.08914 0.57552 0.53259
 C1447 C 0.66353 0.85519 -0.16394
 C1448 C 0.64061 0.86533 -0.14106
 C1449 C 0.63672 0.84498 -0.11499
 C1450 C 0.65595 0.81516 -0.11203
 C1451 C 0.67895 0.80551 -0.13458
 C1452 C 0.68299 0.82530 -0.16077
 C1453 C 0.61399 0.85490 -0.09207
 C1454 C 0.59580 0.88545 -0.09436
 C1455 C 0.59986 0.90607 -0.12024
 C1456 C 0.62184 0.89563 -0.14364
 C1457 C 0.58261 0.93727 -0.12183
 C1458 C 0.56261 0.94844 -0.09756
 C1459 C 0.55877 0.92818 -0.07173
 C1460 C 0.57467 0.89632 -0.07058
 H1461 H 0.66636 0.87060 -0.18404
 H1462 H 0.65326 0.79928 -0.09222
 H1463 H 0.69313 0.78204 -0.13169
 H1464 H 0.61112 0.83924 -0.07211
 H1465 H 0.62493 0.91142 -0.16348
 H1466 H 0.58542 0.95345 -0.14141
 H1467 H 0.55048 0.97316 -0.09876
 H1468 H 0.57215 0.88084 -0.05049
 C1469 C 1.15539 0.34023 0.33945
 C1470 C 1.13876 0.35670 0.36342
 C1471 C 1.15612 0.36071 0.39124
 C1472 C 1.18949 0.34749 0.39481
 C1473 C 1.20561 0.33058 0.37102
 C1474 C 1.18887 0.32705 0.34309
 C1475 C 1.13979 0.37762 0.41509
 C1476 C 1.10596 0.38975 0.41178
 C1477 C 1.08827 0.38500 0.38420
 C1478 C 1.10496 0.36894 0.36007
 C1479 C 1.05394 0.39592 0.38140
 C1480 C 1.03712 0.41092 0.40584
 C1481 C 1.05465 0.41603 0.43314
 C1482 C 1.08921 0.40586 0.43587
 H1483 H 1.14215 0.33737 0.31808
 H1484 H 1.20310 0.35019 0.41600
 H1485 H 1.23150 0.32081 0.37431
 H1486 H 1.15320 0.38087 0.43635
 H1487 H 1.09148 0.36553 0.33886
 H1488 H 1.03995 0.39236 0.36051
 H1489 H 1.01040 0.41867 0.40342
 H1490 H 1.10264 0.40940 0.45708
 C1491 C 0.35451 0.81605 0.16776
 C1492 C 0.37138 0.83069 0.14298
 C1493 C 0.37430 0.81258 0.11560
 C1494 C 0.36038 0.78008 0.11355
 C1495 C 0.34264 0.76617 0.13798
 C1496 C 0.33932 0.78406 0.16520
 C1497 C 0.38998 0.82766 0.09044
 C1498 C 0.40150 0.86115 0.09193
 C1499 C 0.39838 0.87928 0.11931
 C1500 C 0.38402 0.86371 0.14478
 C1501 C 0.40862 0.91311 0.12050
 C1502 C 0.42070 0.92923 0.09460
 C1503 C 0.42363 0.91161 0.06724
 C1504 C 0.41481 0.87728 0.06618
 H1505 H 0.35171 0.83024 0.18853
 H1506 H 0.36231 0.76583 0.09277
 H1507 H 0.33116 0.74151 0.13548
 H1508 H 0.39202 0.81381 0.06942
 H1509 H 0.38150 0.87774 0.16568
 H1510 H 0.40641 0.92738 0.14126
 H1511 H 0.42765 0.95566 0.09589
 H1512 H 0.41680 0.86365 0.04505
 C1513 C 0.84759 0.31624 0.66522
 C1514 C 0.86040 0.33403 0.64012
 C1515 C 0.84850 0.32603 0.61084
 C1516 C 0.82494 0.29978 0.60702
 C1517 C 0.81246 0.28218 0.63197
 C1518 C 0.82305 0.29053 0.66141
 C1519 C 0.86015 0.34444 0.58581
 C1520 C 0.88415 0.37040 0.58952
 C1521 C 0.89688 0.37784 0.61866
 C1522 C 0.88463 0.35989 0.64381
 C1523 C 0.92209 0.40279 0.62206
 C1524 C 0.93502 0.41969 0.59680
 C1525 C 0.92211 0.41275 0.56793
 C1526 C 0.89631 0.38846 0.56440
 H1527 H 0.85610 0.32299 0.68769
 H1528 H 0.81580 0.29311 0.58473
 H1529 H 0.79376 0.26246 0.62814
 H1530 H 0.85073 0.33841 0.56344
 H1531 H 0.89412 0.36587 0.66617
 H1532 H 0.93233 0.40869 0.64415
 H1533 H 0.95521 0.43817 0.59974
 H1534 H 0.88692 0.38259 0.54199
 C1535 C 1.17869 1.18096 0.64369
 C1536 C 1.16529 1.15650 0.62409
 C1537 C 1.17016 1.12177 0.63074
 C1538 C 1.18789 1.11208 0.65691
 C1539 C 1.19990 1.13651 0.67680
 C1540 C 1.19532 1.17097 0.67039
 C1541 C 1.15618 1.09721 0.61177
 C1542 C 1.13568 1.10682 0.58719
 C1543 C 1.13029 1.14147 0.58066
 C1544 C 1.14596 1.16612 0.59868
 C1545 C 1.10791 1.15083 0.55716
 C1546 C 1.08965 1.12613 0.54145
 C1547 C 1.09473 1.09179 0.54812
 C1548 C 1.11868 1.08222 0.57023
 H1549 H 1.17504 1.20762 0.63886
 H1550 H 1.19175 1.08561 0.66235
 H1551 H 1.21309 1.12850 0.69717
 H1552 H 1.15984 1.07063 0.61700
 H1553 H 1.14177 1.19270 0.59378
 H1554 H 1.10331 1.17722 0.55191
 H1555 H 1.07100 1.13382 0.52456
 H1556 H 1.12202 1.05570 0.57582
 C1557 C 0.67918 0.68712 0.14070
 C1558 C 0.65642 0.67011 0.12138
 C1559 C 0.62039 0.67448 0.12517
 C1560 C 0.60770 0.69581 0.14781
 C1561 C 0.63039 0.71158 0.16748
 C1562 C 0.66611 0.70709 0.16431
 C1563 C 0.59746 0.65639 0.10720
 C1564 C 0.60989 0.63283 0.08631
 C1565 C 0.64577 0.62846 0.08211
 C1566 C 0.66890 0.64764 0.09933
 C1567 C 0.65773 0.60406 0.06157
 C1568 C 0.63437 0.58319 0.04648
 C1569 C 0.59871 0.58676 0.05141
 C1570 C 0.58676 0.61243 0.07067
 H1571 H 0.70680 0.68340 0.13848
 H1572 H 0.58019 0.69939 0.15096
 H1573 H 0.62003 0.72709 0.18551
 H1574 H 0.56987 0.65954 0.11043
 H1575 H 0.69647 0.64407 0.09646
 H1576 H 0.68514 0.60040 0.05791
 H1577 H 0.64425 0.56375 0.03157
 H1578 H 0.55934 0.61564 0.07465
 C1579 C 1.16398 0.85007 0.33980
 C1580 C 1.14824 0.87095 0.36158
 C1581 C 1.15740 0.86730 0.39230
 C1582 C 1.18202 0.84299 0.40072
 C1583 C 1.19738 0.82227 0.37902
 C1584 C 1.18857 0.82542 0.34834
 C1585 C 1.14180 0.88794 0.41416
 C1586 C 1.11711 0.91228 0.40579
 C1587 C 1.10785 0.91603 0.37513
 C1588 C 1.12345 0.89532 0.35320
 C1589 C 1.08323 0.94058 0.36696
 C1590 C 1.06818 0.96140 0.38889
 C1591 C 1.07726 0.95794 0.41946
 C1592 C 1.10172 0.93310 0.42767
 H1593 H 1.15677 0.85280 0.31629
 H1594 H 1.18936 0.83991 0.42416
 H1595 H 1.21626 0.80370 0.38636
 H1596 H 1.14891 0.88507 0.43770
 H1597 H 1.11634 0.89820 0.32966
 H1598 H 1.07579 0.94385 0.34357
 H1599 H 1.04956 0.98036 0.38187
 H1600 H 1.10913 0.93012 0.45111
 C1601 C 0.66323 0.34582 -0.15553
 C1602 C 0.64573 0.36561 -0.13421
 C1603 C 0.65186 0.36033 -0.10314
 C1604 C 0.67549 0.33528 -0.09402
 C1605 C 0.69279 0.31552 -0.11547
 C1606 C 0.68682 0.32051 -0.14645
 C1607 C 0.63436 0.38024 -0.08179
 C1608 C 0.61111 0.40556 -0.09119
 C1609 C 0.60504 0.41076 -0.12231
 C1610 C 0.62222 0.39062 -0.14359
 C1611 C 0.58233 0.43648 -0.13165
 C1612 C 0.56648 0.45751 -0.11042
 C1613 C 0.57253 0.45282 -0.07946
 C1614 C 0.59447 0.42633 -0.07000
 H1615 H 0.65813 0.35004 -0.17929
 H1616 H 0.68052 0.33089 -0.07028
 H1617 H 0.71068 0.29622 -0.10777
 H1618 H 0.63911 0.37629 -0.05792
 H1619 H 0.61758 0.39467 -0.16747
 H1620 H 0.57742 0.44080 -0.15541
 H1621 H 0.54993 0.47784 -0.11827
 H1622 H 0.59962 0.42261 -0.04618
 C1623 C 0.82076 1.15206 0.35401
 C1624 C 0.83714 1.12976 0.37414
 C1625 C 0.83853 1.09482 0.36749
 C1626 C 0.82360 1.08283 0.34082
 C1627 C 0.80851 1.10537 0.32039
 C1628 C 0.80715 1.14009 0.32673
 C1629 C 0.85610 1.07263 0.38689
 C1630 C 0.87404 1.08518 0.41186
 C1631 C 0.87293 1.12016 0.41841
 C1632 C 0.85361 1.14208 0.40001
 C1633 C 0.89286 1.13290 0.44216
 C1634 C 0.91531 1.11154 0.45797
 C1635 C 0.91676 1.07695 0.45132
 C1636 C 0.89515 1.06365 0.42906
 H1637 H 0.82005 1.17890 0.35885
 H1638 H 0.82451 1.05617 0.33534
 H1639 H 0.79786 1.09568 0.29957
 H1640 H 0.85739 1.04590 0.38162
 H1641 H 0.85297 1.16893 0.40488
 H1642 H 0.89254 1.15964 0.44735
 H1643 H 0.93239 1.12214 0.47471
 H1644 H 0.89706 1.03704 0.42339
 C1645 C 0.32443 0.66128 -0.14760
 C1646 C 0.34223 0.63921 -0.12801
 C1647 C 0.33823 0.60386 -0.13120
 C1648 C 0.31685 0.59122 -0.15396
 C1649 C 0.30043 0.61327 -0.17404
 C1650 C 0.30412 0.64831 -0.17106
 C1651 C 0.35663 0.58166 -0.11236
 C1652 C 0.38031 0.59418 -0.09135
 C1653 C 0.38476 0.62946 -0.08837
 C1654 C 0.36507 0.65177 -0.10621
 C1655 C 0.40986 0.64172 -0.06846
 C1656 C 0.43129 0.61926 -0.05264
 C1657 C 0.42711 0.58422 -0.05561
 C1658 C 0.40090 0.57187 -0.07437
 H1659 H 0.32768 0.68837 -0.14558
 H1660 H 0.31364 0.56424 -0.15680
 H1661 H 0.28486 0.60297 -0.19206
 H1662 H 0.35359 0.55459 -0.11493
 H1663 H 0.36856 0.67882 -0.10399
 H1664 H 0.41377 0.66865 -0.06595
 H1665 H 0.45148 0.62922 -0.03839
 H1666 H 0.39797 0.54483 -0.07719
 C1667 C 0.87227 0.85563 0.66228
 C1668 C 0.89205 0.87143 0.63987
 C1669 C 0.88764 0.86235 0.60927
 C1670 C 0.86380 0.83740 0.60164
 C1671 C 0.84395 0.82207 0.62399
 C1672 C 0.84774 0.83117 0.65450
 C1673 C 0.90645 0.87892 0.58672
 C1674 C 0.92881 0.90524 0.59428
 C1675 C 0.93344 0.91414 0.62490
 C1676 C 0.91548 0.89681 0.64753
 C1677 C 0.95484 0.94124 0.63230
 C1678 C 0.96998 0.96048 0.60954
 C1679 C 0.96494 0.95234 0.57903
 C1680 C 0.94521 0.92395 0.57157
 H1681 H 0.87554 0.86288 0.68567
 H1682 H 0.86014 0.83007 0.57833
 H1683 H 0.82554 0.80307 0.61729
 H1684 H 0.90274 0.87217 0.56325
 H1685 H 0.91881 0.90390 0.67097
 H1686 H 0.95865 0.94846 0.65562
 H1687 H 0.98474 0.98248 0.61582
 H1688 H 0.94079 0.91773 0.54808
 C1689 C 0.35581 0.36090 0.15457
 C1690 C 0.37430 0.37709 0.13168
 C1691 C 0.36418 0.37322 0.10126
 C1692 C 0.33571 0.35299 0.09434
 C1693 C 0.31747 0.33674 0.11735
 C1694 C 0.32732 0.34056 0.14768
 C1695 C 0.38251 0.38985 0.07838
 C1696 C 0.41045 0.41068 0.08567
 C1697 C 0.42057 0.41431 0.11616
 C1698 C 0.40265 0.39724 0.13890
 C1699 C 0.44784 0.43577 0.12355
 C1700 C 0.46400 0.45465 0.10112
 C1701 C 0.45378 0.45173 0.07088
 C1702 C 0.42761 0.42898 0.06313
 H1703 H 0.36398 0.36390 0.17779
 H1704 H 0.32756 0.34973 0.07116
 H1705 H 0.29567 0.32116 0.11138
 H1706 H 0.37464 0.38712 0.05504
 H1707 H 0.41035 0.40020 0.16227
 H1708 H 0.45591 0.43881 0.14678
 H1709 H 0.48403 0.47217 0.10748
 H1710 H 0.41930 0.42700 0.03985
   
