data_POSCAR
  _audit_creation_date              2014-09-24
  _audit_creation_method            'ToBaCCo'
  _symmetry_space_group_name_H-M    'P1'
  _symmetry_Int_Tables_number       1
  _symmetry_cell_setting            triclinic
  loop_
  _symmetry_equiv_pos_as_xyz
 x,y,z
_cell_length_a 48.8063
_cell_length_b 48.3201
_cell_length_c 48.1523
_cell_angle_alpha 89.807400
_cell_angle_beta 89.504900
_cell_angle_gamma 89.993100
loop_
  _atom_site_label
  _atom_site_type_symbol
  _atom_site_fract_x
  _atom_site_fract_y
  _atom_site_fract_z
C1 C 0.11900 0.00099 0.22072
 C2 C 0.13330 0.02841 0.22549
 C3 C 0.14829 0.02946 0.24899
 C4 C 0.14780 0.00230 0.26605
 C5 C 0.14172 -0.02084 0.22174
 C6 C 0.15650 -0.02076 0.24565
 C7 C 0.10218 -0.00423 0.24713
 C8 C 0.11704 -0.00350 0.27095
 H9 H 0.13136 0.04584 0.21140
 H10 H 0.16012 0.00300 0.28532
 H11 H 0.14264 -0.03799 0.20730
 H12 H 0.08023 -0.00738 0.24686
 C13 C 0.38932 -0.00715 0.71162
 C14 C 0.36695 -0.02841 0.71655
 C15 C 0.35349 -0.02572 0.74114
 C16 C 0.36373 -0.00102 0.75879
 C17 C 0.37489 0.02080 0.71448
 C18 C 0.36193 0.02458 0.73933
 C19 C 0.40709 -0.00881 0.73548
 C20 C 0.39329 -0.00543 0.76165
 H21 H 0.36352 -0.04557 0.70254
 H22 H 0.35229 0.00161 0.77865
 H23 H 0.37703 0.03726 0.69929
 H24 H 0.42880 -0.01259 0.73324
 C25 C 0.87998 0.51083 0.22401
 C26 C 0.86219 0.48544 0.22833
 C27 C 0.84952 0.48427 0.25343
 C28 C 0.85555 0.50915 0.27236
 C29 C 0.86135 0.53548 0.22958
 C30 C 0.84866 0.53487 0.25482
 C31 C 0.89979 0.51054 0.24861
 C32 C 0.88712 0.51005 0.27404
 H33 H 0.86104 0.46881 0.21332
 H34 H 0.84485 0.50839 0.29280
 H35 H 0.86061 0.55334 0.21593
 H36 H 0.92179 0.51074 0.24592
 C37 C 0.61376 0.50567 0.73053
 C38 C 0.63540 0.52825 0.73066
 C39 C 0.65369 0.52638 0.75156
 C40 C 0.64927 0.50110 0.77056
 C41 C 0.62973 0.47863 0.73017
 C42 C 0.64806 0.47575 0.75109
 C43 C 0.60084 0.50665 0.75979
 C44 C 0.61945 0.50439 0.78081
 H45 H 0.63409 0.54639 0.71739
 H46 H 0.66465 0.49916 0.78726
 H47 H 0.62514 0.46213 0.71574
 H48 H 0.57910 0.50826 0.76383
 C49 C 0.22521 0.10235 1.00379
 C50 C 0.22659 0.12105 1.02900
 C51 C 0.24842 0.13835 1.02925
 C52 C 0.26730 0.13565 1.00355
 C53 C 0.22640 0.12181 0.97881
 C54 C 0.24851 0.13888 0.97820
 C55 C 0.25296 0.08733 1.00302
 C56 C 0.27506 0.10470 1.00308
 H57 H 0.21207 0.11958 1.04612
 H58 H 0.28486 0.15021 1.00331
 H59 H 0.21331 0.11912 0.96093
 H60 H 0.25521 0.06516 1.00129
 C61 C 0.73707 0.39712 0.99580
 C62 C 0.73681 0.37928 0.97185
 C63 C 0.75804 0.35903 0.97070
 C64 C 0.77657 0.36075 0.99470
 C65 C 0.73743 0.37884 1.01965
 C66 C 0.75918 0.35898 1.01985
 C67 C 0.76436 0.40977 0.99537
 C68 C 0.78660 0.38972 0.99471
 H69 H 0.72196 0.38195 0.95539
 H70 H 0.79270 0.34488 0.99438
 H71 H 0.72365 0.38181 1.03721
 H72 H 0.76794 0.43179 0.99678
 C73 C 0.22342 0.89550 0.49175
 C74 C 0.22657 0.87320 0.46982
 C75 C 0.25027 0.85858 0.47137
 C76 C 0.26897 0.86745 0.49560
 C77 C 0.22668 0.88034 0.51940
 C78 C 0.25052 0.86601 0.52188
 C79 C 0.24929 0.91326 0.48917
 C80 C 0.27318 0.89882 0.49132
 H81 H 0.21201 0.87051 0.45316
 H82 H 0.28828 0.85542 0.49725
 H83 H 0.21248 0.88275 0.53664
 H84 H 0.24854 0.93549 0.48641
 C85 C 0.72470 0.60672 0.49583
 C86 C 0.72954 0.62199 0.52285
 C87 C 0.75341 0.63624 0.52371
 C88 C 0.77083 0.63388 0.49691
 C89 C 0.72738 0.62879 0.47309
 C90 C 0.75166 0.64274 0.47321
 C91 C 0.75002 0.58841 0.49185
 C92 C 0.77429 0.60242 0.49248
 H93 H 0.71499 0.62161 0.54000
 H94 H 0.79039 0.64560 0.49746
 H95 H 0.71355 0.62992 0.45564
 H96 H 0.74860 0.56620 0.48955
 C97 C 0.00145 0.21951 0.11279
 C98 C 0.02789 0.22519 0.12803
 C99 C 0.02783 0.24868 0.14330
 C100 C 0.00050 0.26494 0.14199
 C101 C -0.02089 0.22004 0.13524
 C102 C -0.02221 0.24396 0.15026
 C103 C -0.00382 0.24561 0.09554
 C104 C -0.00420 0.26953 0.11056
 H105 H 0.04553 0.21161 0.12656
 H106 H 0.00050 0.28432 0.15427
 H107 H -0.03642 0.20408 0.13672
 H108 H -0.00618 0.24508 0.07324
 C109 C -0.00616 0.72830 0.40229
 C110 C -0.02922 0.73219 0.38433
 C111 C -0.02839 0.75670 0.36770
 C112 C -0.00332 0.77307 0.37187
 C113 C 0.01884 0.72938 0.38310
 C114 C 0.02082 0.75259 0.36698
 C115 C -0.00413 0.75504 0.41928
 C116 C -0.00220 0.77862 0.40356
 H117 H -0.04660 0.71821 0.38479
 H118 H -0.00181 0.79210 0.35908
 H119 H 0.03427 0.71326 0.38322
 H120 H -0.00343 0.75528 0.44163
 C121 C 0.48813 0.21556 0.90122
 C122 C 0.46373 0.22168 0.88284
 C123 C 0.46555 0.24571 0.86837
 C124 C 0.49239 0.26178 0.87325
 C125 C 0.51301 0.21680 0.88173
 C126 C 0.51555 0.24084 0.86710
 C127 C 0.49127 0.24123 0.91956
 C128 C 0.49391 0.26546 0.90503
 H129 H 0.44597 0.20824 0.88188
 H130 H 0.49403 0.28136 0.86123
 H131 H 0.52846 0.20069 0.88118
 H132 H 0.49277 0.24013 0.94187
 C133 C 0.49865 0.73417 0.62156
 C134 C 0.52495 0.73601 0.63814
 C135 C 0.52856 0.76023 0.65160
 C136 C 0.50490 0.78091 0.64771
 C137 C 0.47562 0.74082 0.64202
 C138 C 0.47870 0.76498 0.65579
 C139 C 0.49962 0.75954 0.60205
 C140 C 0.50298 0.78421 0.61570
 H141 H 0.54057 0.72005 0.63747
 H142 H 0.50727 0.80029 0.65968
 H143 H 0.45699 0.72866 0.64347
 H144 H 0.49781 0.75809 0.57971
 C145 C 0.89684 1.00362 0.77204
 C146 C 0.87416 1.02299 0.77199
 C147 C 0.85859 1.02341 0.74684
 C148 C 0.86836 1.00306 0.72656
 C149 C 0.88420 0.97566 0.76571
 C150 C 0.86910 0.97509 0.74223
 C151 C 0.91365 1.01095 0.74604
 C152 C 0.89890 1.01071 0.72200
 H153 H 0.87119 1.03801 0.78839
 H154 H 0.85662 1.00185 0.70705
 H155 H 0.88606 0.95802 0.77954
 H156 H 0.93532 1.01545 0.74686
 C157 C 0.39341 0.50142 0.28677
 C158 C 0.37562 0.52730 0.28393
 C159 C 0.36372 0.53025 0.25857
 C160 C 0.36994 0.50613 0.23855
 C161 C 0.37468 0.47744 0.27974
 C162 C 0.36238 0.47960 0.25476
 C163 C 0.41371 0.50345 0.26239
 C164 C 0.40156 0.50565 0.23711
 H165 H 0.37537 0.54365 0.29928
 H166 H 0.35984 0.50801 0.21804
 H167 H 0.37232 0.45942 0.29305
 H168 H 0.43569 0.50238 0.26493
 C169 C 0.60437 1.00796 0.25956
 C170 C 0.62635 0.98558 0.25978
 C171 C 0.64400 0.98636 0.23781
 C172 C 0.63857 1.01069 0.21772
 C173 C 0.61886 1.03368 0.25749
 C174 C 0.63779 1.03567 0.23493
 C175 C 0.59044 1.00441 0.23133
 C176 C 0.60830 1.00597 0.20920
 H177 H 0.62558 0.96830 0.27420
 H178 H 0.65324 1.01136 0.20006
 H179 H 0.61548 1.05027 0.27227
 H180 H 0.56883 1.00012 0.22898
 C181 C 0.10950 0.49908 0.77479
 C182 C 0.12757 0.47331 0.77163
 C183 C 0.14169 0.47202 0.74710
 C184 C 0.13645 0.49695 0.72772
 C185 C 0.12878 0.52335 0.77000
 C186 C 0.14282 0.52260 0.74561
 C187 C 0.09111 0.49841 0.74919
 C188 C 0.10496 0.49692 0.72445
 H189 H 0.12764 0.45653 0.78660
 H190 H 0.14806 0.49609 0.70781
 H191 H 0.13061 0.54027 0.78460
 H192 H 0.06901 0.49825 0.75087
 C193 C 0.77392 0.89243 0.00121
 C194 C 0.77212 0.86933 0.02292
 C195 C 0.74894 0.85365 0.02169
 C196 C 0.72995 0.86205 -0.00247
 C197 C 0.77104 0.87799 -0.02650
 C198 C 0.74836 0.86207 -0.02879
 C199 C 0.74726 0.90872 0.00508
 C200 C 0.72412 0.89299 0.00303
 H201 H 0.78633 0.86802 0.04004
 H202 H 0.71133 0.84905 -0.00445
 H203 H 0.78607 0.88016 -0.04308
 H204 H 0.74692 0.93081 0.00853
 C205 C 0.27553 0.39291 0.50770
 C206 C 0.27322 0.36910 0.52876
 C207 C 0.24971 0.35394 0.52660
 C208 C 0.23113 0.36344 0.50260
 C209 C 0.27275 0.37924 0.47945
 C210 C 0.24977 0.36383 0.47656
 C211 C 0.24909 0.40941 0.51167
 C212 C 0.22578 0.39420 0.50891
 H213 H 0.28724 0.36659 0.54589
 H214 H 0.21227 0.35089 0.50009
 H215 H 0.28799 0.38146 0.46309
 H216 H 0.24910 0.43152 0.51517
 C217 C 0.28877 0.61047 -0.00201
 C218 C 0.28382 0.62489 -0.02968
 C219 C 0.25842 0.63610 -0.03234
 C220 C 0.24004 0.63211 -0.00624
 C221 C 0.28241 0.63205 0.01996
 C222 C 0.25695 0.64316 0.01847
 C223 C 0.26535 0.58924 0.00049
 C224 C 0.23971 0.60036 -0.00207
 H225 H 0.29844 0.62411 -0.04674
 H226 H 0.21950 0.64178 -0.00812
 H227 H 0.29602 0.63593 0.03720
 H228 H 0.26911 0.56742 0.00348
 C229 C 0.77564 0.10920 0.49400
 C230 C 0.77340 0.13001 0.47237
 C231 C 0.74745 0.14379 0.47132
 C232 C 0.72910 0.13533 0.49445
 C233 C 0.77028 0.12362 0.51955
 C234 C 0.74485 0.13816 0.52054
 C235 C 0.75215 0.09108 0.48998
 C236 C 0.72607 0.10517 0.49059
 H237 H 0.78760 0.13098 0.45492
 H238 H 0.70942 0.14683 0.49458
 H239 H 0.78465 0.12340 0.53664
 H240 H 0.75452 0.06902 0.48740
 C241 C 1.00616 0.76972 0.89014
 C242 C 1.02986 0.76843 0.86932
 C243 C 1.02886 0.74656 0.85163
 C244 C 1.00321 0.72834 0.85559
 C245 C 0.98050 0.76966 0.87261
 C246 C 0.97860 0.74828 0.85466
 C247 C 1.00649 0.74117 0.90439
 C248 C 1.00473 0.71947 0.88632
 H249 H 1.04821 0.78083 0.87169
 H250 H 1.00208 0.71102 0.84057
 H251 H 0.96440 0.78495 0.87517
 H252 H 1.00924 0.73810 0.92643
 C253 C 0.49335 0.28451 0.40289
 C254 C 0.52010 0.28800 0.38688
 C255 C 0.52458 0.26878 0.36680
 C256 C 0.50052 0.24823 0.36340
 C257 C 0.47120 0.28501 0.38076
 C258 C 0.47441 0.26602 0.36031
 C259 C 0.49370 0.25442 0.41326
 C260 C 0.49735 0.23534 0.39260
 H261 H 0.53536 0.30314 0.39275
 H262 H 0.50374 0.23303 0.34645
 H263 H 0.45252 0.29696 0.38301
 H264 H 0.49117 0.24879 0.43491
 C265 C 0.99430 0.27897 0.62779
 C266 C 0.96642 0.27298 0.64080
 C267 C 0.96502 0.24890 0.65530
 C268 C 0.99231 0.23273 0.65576
 C269 C 1.01458 0.27742 0.65162
 C270 C 1.01390 0.25340 0.66618
 C271 C 1.00041 0.25315 0.61003
 C272 C 0.99933 0.22880 0.62469
 H273 H 0.94879 0.28620 0.63749
 H274 H 0.99123 0.21334 0.66810
 H275 H 1.03081 0.29251 0.65418
 H276 H 1.00400 0.25393 0.58783
 C277 C 0.50213 0.76782 0.12286
 C278 C 0.47581 0.76378 0.13938
 C279 C 0.47391 0.73929 0.15316
 C280 C 0.49967 0.72076 0.14952
 C281 C 0.52497 0.76391 0.14355
 C282 C 0.52428 0.73945 0.15742
 C283 C 0.50383 0.74244 0.10391
 C284 C 0.50203 0.71770 0.11764
 H285 H 0.45910 0.77854 0.13851
 H286 H 0.49865 0.70083 0.16104
 H287 H 0.54171 0.77853 0.14542
 H288 H 0.50583 0.74404 0.08158
 O289 O -0.02172 0.98750 0.92230
 O290 O 0.02064 1.00691 0.91732
 O291 O -0.00795 0.91789 0.97715
 O292 O 0.00552 0.91016 1.02004
 O293 O -0.07647 0.97448 0.99184
 O294 O -0.08007 1.01898 1.01122
 O295 O 0.06280 0.98735 1.05102
 O296 O 0.06760 0.94907 1.02447
 O297 O 0.05421 1.05531 0.99713
 O298 O 0.02568 1.06603 0.95760
 O299 O -0.00257 1.04672 1.06256
 O300 O -0.04007 1.01801 1.07309
 O301 O 0.02626 1.00320 1.07603
 O302 O -0.02171 0.98202 1.08133
 O303 O 0.01177 1.07131 1.02488
 O304 O -0.00873 1.07666 0.97756
 O305 O 0.07731 1.01661 1.01020
 O306 O 0.07872 0.97332 0.98239
 O307 O -0.05864 1.00333 0.94674
 O308 O -0.06597 1.04185 0.97781
 O309 O -0.05378 0.93575 1.00548
 O310 O -0.02340 0.92852 1.04604
 O311 O 0.00482 0.94224 0.93868
 O312 O 0.04630 0.97146 0.93364
 Zr313 Zr 0.00859 0.98329 0.95249
 O314 O 0.03482 1.00816 0.97613
 Zr315 Zr -0.01259 0.94803 1.00806
 O316 O 0.01383 0.97048 1.03374
 Zr317 Zr -0.04574 1.00462 0.98840
 O318 O -0.02170 1.02950 1.01438
 Zr319 Zr 0.04747 0.98542 1.01081
 O320 O 0.02311 0.95949 0.98597
 Zr321 Zr 0.01354 1.04219 0.99256
 O322 O -0.01188 1.01939 0.96568
 Zr323 Zr -0.00649 1.00611 1.04778
 O324 O -0.03409 0.98225 1.02401
 O325 O -0.02635 0.96939 0.97337
 O326 O 0.02816 1.02057 1.02686
 C327 C -0.04639 0.99660 0.92397
 C328 C -0.00077 0.91955 0.95150
 C329 C -0.07574 0.94907 0.99957
 C330 C 0.05125 0.99491 1.07377
 C331 C 0.07614 1.04241 1.00395
 C332 C 0.00443 1.06937 1.05048
 H333 H 0.05067 1.01392 0.96454
 H334 H -0.03294 1.04531 1.02076
 H335 H -0.03828 0.95793 0.96148
 H336 H 0.01987 0.95843 1.04915
 H337 H 0.06324 0.93440 1.01090
 H338 H 0.02411 0.91466 1.02662
 H339 H -0.02428 1.07992 0.99045
 H340 H -0.05430 1.05130 0.96379
 H341 H 0.09657 0.97463 0.99198
 H342 H 0.04252 0.96262 0.91550
 H343 H -0.05175 1.03032 1.06178
 H344 H -0.07953 1.00953 1.02949
 H345 H 0.01321 1.02577 0.92007
 H346 H 0.03982 1.05544 0.94734
 H347 H -0.03891 0.93910 1.05408
 H348 H -0.00822 0.96725 1.08523
 O349 O 0.56006 0.50814 0.56051
 O350 O 0.56328 0.46509 0.54064
 O351 O 0.55214 0.56278 0.48967
 O352 O 0.52345 0.56775 0.45419
 O353 O 0.49805 0.57275 0.56055
 O354 O 0.45872 0.54801 0.57718
 O355 O 0.46869 0.48656 0.43863
 O356 O 0.51193 0.50193 0.42763
 O357 O 0.48019 0.42865 0.50491
 O358 O 0.50316 0.43145 0.55009
 O359 O 0.41884 0.48761 0.50958
 O360 O 0.41749 0.53778 0.52270
 O361 O 0.43357 0.50752 0.46184
 O362 O 0.42815 0.55187 0.48523
 O363 O 0.44102 0.45234 0.53117
 O364 O 0.47335 0.45079 0.57107
 O365 O 0.48853 0.44542 0.46146
 O366 O 0.53510 0.46523 0.45089
 O367 O 0.52469 0.52802 0.58434
 O368 O 0.47906 0.51587 0.59553
 O369 O 0.51085 0.58780 0.51759
 O370 O 0.48709 0.58325 0.47354
 O371 O 0.57428 0.52734 0.51109
 O372 O 0.57221 0.47829 0.49608
 Zr373 Zr 0.54324 0.49907 0.52172
 O374 O 0.51645 0.47002 0.50411
 Zr375 Zr 0.51053 0.55205 0.49318
 O376 O 0.48258 0.52541 0.47407
 Zr377 Zr 0.49217 0.52975 0.55591
 O378 O 0.46316 0.50209 0.53954
 Zr379 Zr 0.50058 0.48657 0.46732
 O380 O 0.52988 0.51444 0.48320
 Zr381 Zr 0.48227 0.46423 0.53008
 O382 O 0.51052 0.49090 0.54933
 Zr383 Zr 0.44949 0.51721 0.50111
 O384 O 0.47604 0.54659 0.51922
 O385 O 0.52593 0.53750 0.53056
 O386 O 0.46661 0.47873 0.49261
 C387 C 0.54919 0.51834 0.58261
 C388 C 0.57394 0.55056 0.49806
 C389 C 0.50458 0.59196 0.54312
 C390 C 0.44426 0.49634 0.44012
 C391 C 0.48215 0.42593 0.47846
 C392 C 0.41937 0.46387 0.52167
 H393 H 0.52628 0.45246 0.50056
 H394 H 0.44793 0.49966 0.55299
 H395 H 0.53902 0.55046 0.53922
 H396 H 0.47675 0.53412 0.45648
 H397 H 0.52996 0.51106 0.42976
 H398 H 0.51641 0.55499 0.43994
 H399 H 0.45776 0.46187 0.57816
 H400 H 0.48603 0.49674 0.59759
 H401 H 0.52909 0.45489 0.43426
 H402 H 0.59092 0.48218 0.50297
 H403 H 0.41473 0.52834 0.54077
 H404 H 0.44821 0.55841 0.56309
 H405 H 0.55064 0.45781 0.55510
 H406 H 0.51864 0.42581 0.53798
 H407 H 0.47150 0.58751 0.48610
 H408 H 0.43780 0.55794 0.46811
 O409 O 0.50169 -0.06094 0.53978
 O410 O 0.54054 -0.03800 0.55115
 O411 O 0.43996 0.00462 0.53993
 O412 O 0.42862 0.04139 0.51579
 O413 O 0.44528 -0.05657 0.47249
 O414 O 0.47404 -0.05919 0.43250
 O415 O 0.51479 0.08112 0.47916
 O416 O 0.49224 0.07907 0.52114
 O417 O 0.57741 0.02330 0.47983
 O418 O 0.58112 -0.02555 0.49216
 O419 O 0.52395 0.02263 0.41193
 O420 O 0.48042 0.01092 0.40261
 O421 O 0.50089 0.06595 0.43688
 O422 O 0.45666 0.03763 0.42486
 O423 O 0.56056 0.00299 0.43319
 O424 O 0.56654 -0.04224 0.45745
 O425 O 0.55522 0.05958 0.49978
 O426 O 0.52856 0.05499 0.54420
 O427 O 0.48828 -0.07828 0.49812
 O428 O 0.50911 -0.07505 0.45149
 O429 O 0.42307 -0.02028 0.49242
 O430 O 0.42305 0.02955 0.47539
 O431 O 0.47483 -0.01767 0.56170
 O432 O 0.52170 0.00147 0.56795
 Zr433 Zr 0.50675 -0.01851 0.53191
 O434 O 0.53477 0.00858 0.51246
 Zr435 Zr 0.45361 0.00969 0.49921
 O436 O 0.47913 0.03922 0.48014
 Zr437 Zr 0.48639 -0.04339 0.47132
 O438 O 0.51230 -0.01601 0.44921
 Zr439 Zr 0.51455 0.04572 0.50367
 O440 O 0.48692 0.01956 0.52501
 Zr441 Zr 0.54668 -0.00670 0.47349
 O442 O 0.52177 -0.03595 0.49473
 Zr443 Zr 0.49339 0.02274 0.44260
 O444 O 0.46583 -0.00641 0.46069
 O445 O 0.47216 -0.02778 0.50882
 O446 O 0.52849 0.03139 0.46523
 C447 C 0.49487 -0.08106 0.52388
 C448 C 0.45096 -0.00641 0.56130
 C449 C 0.42352 -0.04458 0.48162
 C450 C 0.50885 0.08516 0.45361
 C451 C 0.57686 0.04786 0.49008
 C452 C 0.54858 0.01351 0.41200
 H453 H 0.55065 0.01175 0.52467
 H454 H 0.51736 -0.02497 0.43147
 H455 H 0.45982 -0.04059 0.51903
 H456 H 0.46879 0.05663 0.47754
 H457 H 0.48156 0.07138 0.53694
 H458 H 0.44086 0.05729 0.51922
 H459 H 0.55711 -0.04750 0.44015
 H460 H 0.52553 -0.07837 0.46297
 H461 H 0.53646 0.07390 0.54383
 H462 H 0.51680 -0.00984 0.58450
 H463 H 0.48255 -0.00940 0.40163
 H464 H 0.46127 -0.04544 0.42453
 H465 H 0.55163 -0.04640 0.53609
 H466 H 0.58275 -0.01808 0.51117
 H467 H 0.41983 0.01790 0.45886
 H468 H 0.45210 0.05548 0.43379
 O469 O -0.05074 0.44613 1.00352
 O470 O -0.02649 0.43759 0.96315
 O471 O 0.01367 0.44252 1.06626
 O472 O 0.05303 0.46321 1.07414
 O473 O -0.04485 0.50890 1.06709
 O474 O -0.04955 0.55065 1.04049
 O475 O 0.08886 0.51386 0.99214
 O476 O 0.08949 0.47013 1.01253
 O477 O 0.02989 0.51176 0.92974
 O478 O -0.01802 0.49914 0.92700
 O479 O 0.02869 0.57621 0.98913
 O480 O 0.01309 0.58017 1.03727
 O481 O 0.07009 0.55332 1.00960
 O482 O 0.04560 0.56193 1.05449
 O483 O 0.00957 0.55767 0.95062
 O484 O -0.03510 0.53244 0.94436
 O485 O 0.06669 0.49151 0.95007
 O486 O 0.06628 0.44738 0.97501
 O487 O -0.06772 0.48644 1.02088
 O488 O -0.06746 0.53309 1.00610
 O489 O -0.00726 0.48954 1.08683
 O490 O 0.04048 0.50423 1.08682
 O491 O -0.00717 0.42282 1.02919
 O492 O 0.01266 0.42053 0.98117
 Zr493 Zr -0.00826 0.45479 0.99892
 O494 O 0.01781 0.47739 0.97183
 Zr495 Zr 0.02033 0.48360 1.05406
 O496 O 0.04774 0.50669 1.02942
 Zr497 Zr -0.03387 0.51296 1.02484
 O498 O -0.00891 0.53775 0.99899
 Zr499 Zr 0.05499 0.48642 0.99171
 O500 O 0.03010 0.46132 1.01791
 Zr501 Zr 0.00097 0.51627 0.96236
 O502 O -0.02662 0.49251 0.98700
 Zr503 Zr 0.02898 0.54408 1.01823
 O504 O 0.00266 0.52234 1.04560
 O505 O -0.01727 0.47497 1.03590
 O506 O 0.03846 0.52473 0.98074
 C507 C -0.07075 0.46172 1.01159
 C508 C 0.00283 0.42183 1.05387
 C509 C -0.03131 0.50008 1.08812
 C510 C 0.09032 0.53940 0.99975
 C511 C 0.05405 0.50112 0.92889
 C512 C 0.02022 0.57791 0.96408
 H513 H 0.02107 0.46625 0.95493
 H514 H -0.01852 0.55533 0.99517
 H515 H -0.02977 0.46408 1.04801
 H516 H 0.06504 0.50963 1.03953
 H517 H 0.08326 0.45304 1.02207
 H518 H 0.07006 0.46857 1.06427
 H519 H -0.04013 0.54946 0.95457
 H520 H -0.06881 0.52557 0.98707
 H521 H 0.08516 0.44888 0.96734
 H522 H 0.00195 0.40347 0.98502
 H523 H -0.00419 0.58499 1.02782
 H524 H -0.03573 0.55788 1.05352
 H525 H -0.03654 0.45280 0.95391
 H526 H -0.01029 0.48043 0.92412
 H527 H 0.03133 0.52236 1.08919
 H528 H 0.06163 0.55076 1.06009
 O529 O 0.01205 0.41596 0.51142
 O530 O -0.00868 0.41516 0.46874
 O531 O 0.07667 0.47456 0.50323
 O532 O 0.08150 0.51847 0.48858
 O533 O 0.02357 0.48058 0.57362
 O534 O -0.02169 0.49550 0.58110
 O535 O -0.00034 0.55284 0.43964
 O536 O 0.03964 0.52999 0.43020
 O537 O -0.06271 0.49328 0.44585
 O538 O -0.06959 0.45120 0.47236
 O539 O -0.05494 0.55434 0.50767
 O540 O -0.02620 0.56090 0.54713
 O541 O -0.01340 0.57312 0.48026
 O542 O 0.00825 0.57365 0.52806
 O543 O -0.07767 0.51719 0.49055
 O544 O -0.07992 0.46792 0.50909
 O545 O -0.02656 0.51172 0.42217
 O546 O 0.01821 0.48780 0.41588
 O547 O -0.00250 0.43514 0.55213
 O548 O -0.04273 0.46259 0.56431
 O549 O 0.05994 0.49884 0.55013
 O550 O 0.06416 0.54155 0.52258
 O551 O 0.05461 0.43697 0.48593
 O552 O 0.02549 0.43650 0.44377
 Zr553 Zr 0.01331 0.44959 0.48407
 O554 O -0.01394 0.47435 0.46127
 Zr555 Zr 0.04583 0.50420 0.50930
 O556 O 0.02091 0.53126 0.48634
 Zr557 Zr -0.00748 0.47788 0.54354
 O558 O -0.03473 0.50481 0.52302
 Zr559 Zr 0.00578 0.51148 0.45085
 O560 O 0.03418 0.48572 0.47161
 Zr561 Zr -0.04755 0.48627 0.48598
 O562 O -0.02221 0.45826 0.50778
 Zr563 Zr -0.01411 0.54088 0.50997
 O564 O 0.01209 0.51569 0.53417
 O565 O 0.02713 0.46729 0.52078
 O566 O -0.02881 0.52307 0.47371
 C567 C 0.00479 0.41433 0.53704
 C568 C 0.07625 0.44964 0.49403
 C569 C 0.04822 0.48999 0.57244
 C570 C -0.00749 0.57391 0.45417
 C571 C -0.05150 0.50330 0.42379
 C572 C -0.07677 0.54226 0.49933
 H573 H -0.01963 0.46418 0.44449
 H574 H -0.05035 0.50914 0.53546
 H575 H 0.03938 0.45502 0.53153
 H576 H 0.03161 0.54792 0.48123
 H577 H 0.05530 0.51718 0.43245
 H578 H 0.07533 0.52972 0.47264
 H579 H -0.08393 0.47988 0.52525
 H580 H -0.05173 0.44968 0.55133
 H581 H 0.01540 0.49920 0.39898
 H582 H 0.03486 0.41834 0.44533
 H583 H -0.03898 0.54841 0.55712
 H584 H -0.01464 0.51471 0.58136
 H585 H -0.02675 0.41519 0.47823
 H586 H -0.05926 0.44303 0.45663
 H587 H 0.05361 0.54795 0.53899
 H588 H 0.02269 0.57938 0.51469
 O589 O 0.50787 0.90232 0.00358
 O590 O 0.49122 0.90107 -0.04080
 O591 O 0.56926 0.96509 0.00217
 O592 O 0.57218 1.01000 -0.00985
 O593 O 0.50884 0.96553 0.06778
 O594 O 0.46255 0.97761 0.07116
 O595 O 0.49336 1.03975 -0.06618
 O596 O 0.53513 1.01971 -0.07244
 O597 O 0.43381 0.97780 -0.06643
 O598 O 0.42846 0.93319 -0.04342
 O599 O 0.43209 1.03553 -0.00379
 O600 O 0.45735 1.04290 0.03895
 O601 O 0.47506 1.05811 -0.02668
 O602 O 0.49128 1.05947 0.02256
 O603 O 0.41369 0.99662 -0.02225
 O604 O 0.41407 0.94678 -0.00659
 O605 O 0.47116 0.99776 -0.08671
 O606 O 0.51794 0.97670 -0.08943
 O607 O 0.48926 0.91990 0.04336
 O608 O 0.44556 0.94351 0.05156
 O609 O 0.54617 0.98671 0.04886
 O610 O 0.55029 1.03046 0.02261
 O611 O 0.55099 0.92677 -0.01782
 O612 O 0.52571 0.92519 -0.06230
 Zr613 Zr 0.50937 0.93656 -0.02295
 O614 O 0.48281 0.96004 -0.04777
 Zr615 Zr 0.53588 0.99241 0.00668
 O616 O 0.51131 1.01835 -0.01801
 Zr617 Zr 0.48138 0.96195 0.03479
 O618 O 0.45440 0.98745 0.01247
 Zr619 Zr 0.50089 0.99863 -0.05528
 O620 O 0.52888 0.97428 -0.03243
 Zr621 Zr 0.44650 0.96890 -0.02594
 O622 O 0.47144 0.94209 -0.00246
 Zr623 Zr 0.47359 1.02515 0.00220
 O624 O 0.49920 1.00114 0.02825
 O625 O 0.51863 0.95416 0.01531
 O626 O 0.46364 1.00724 -0.03561
 C627 C 0.49915 0.89999 0.02868
 C628 C 0.57117 0.94055 -0.00797
 C629 C 0.53276 0.97637 0.06953
 C630 C 0.48355 1.05994 -0.05200
 C631 C 0.44633 0.98891 -0.08715
 C632 C 0.41188 1.02153 -0.01332
 H633 H 0.47931 0.95013 -0.06533
 H634 H 0.43751 0.99024 0.02357
 H635 H 0.53081 0.94252 0.02681
 H636 H 0.52130 1.03578 -0.02175
 H637 H 0.55135 1.00796 -0.06881
 H638 H 0.56686 1.02049 -0.02661
 H639 H 0.40823 0.95723 0.01007
 H640 H 0.43958 0.92937 0.03808
 H641 H 0.51560 0.98819 -0.10635
 H642 H 0.53615 0.90768 -0.06026
 H643 H 0.44351 1.02995 0.04660
 H644 H 0.46815 0.99725 0.07245
 H645 H 0.47216 0.90021 -0.03368
 H646 H 0.44031 0.92701 -0.05897
 H647 H 0.53761 1.03582 0.03782
 H648 H 0.50741 1.06549 0.01153
 O649 O 0.42959 0.50453 0.02576
 O650 O 0.42851 0.46089 0.00594
 O651 O 0.49128 0.49861 0.08786
 O652 O 0.53572 0.48356 0.08856
 O653 O 0.49278 0.56768 0.03294
 O654 O 0.50577 0.57453 -0.01420
 O655 O 0.56590 0.43645 0.00425
 O656 O 0.54651 0.42695 0.04642
 O657 O 0.50122 0.43894 -0.05359
 O658 O 0.45793 0.46439 -0.05632
 O659 O 0.56043 0.50143 -0.05355
 O660 O 0.56679 0.54388 -0.02339
 O661 O 0.58438 0.47711 -0.01084
 O662 O 0.58640 0.52346 0.00655
 O663 O 0.52134 0.48400 -0.07170
 O664 O 0.47330 0.50004 -0.07022
 O665 O 0.52269 0.41652 -0.01838
 O666 O 0.50374 0.41087 0.02915
 O667 O 0.44695 0.54517 0.00911
 O668 O 0.47140 0.55802 -0.03247
 O669 O 0.51334 0.54520 0.06870
 O670 O 0.55616 0.52006 0.07002
 O671 O 0.45329 0.48071 0.06768
 O672 O 0.45182 0.43799 0.04010
 Zr673 Zr 0.46336 0.47789 0.02553
 O674 O 0.48638 0.45487 -0.00313
 Zr675 Zr 0.51886 0.50463 0.05413
 O676 O 0.54445 0.48250 0.02651
 Zr677 Zr 0.48902 0.53735 0.00177
 O678 O 0.51337 0.51666 -0.02800
 Zr679 Zr 0.52495 0.44610 0.01357
 O680 O 0.50070 0.46654 0.04396
 Zr681 Zr 0.49457 0.47904 -0.03830
 O682 O 0.46884 0.50121 -0.01105
 Zr683 Zr 0.55101 0.50505 -0.01049
 O684 O 0.52781 0.52876 0.01856
 O685 O 0.48107 0.51506 0.03775
 O686 O 0.53294 0.46809 -0.02296
 C687 C 0.42704 0.52975 0.01772
 C688 C 0.46658 0.48915 0.08885
 C689 C 0.50325 0.56697 0.05738
 C690 C 0.58617 0.45135 -0.00427
 C691 C 0.51200 0.41731 -0.04267
 C692 C 0.54588 0.49298 -0.07408
 H693 H 0.47625 0.43774 -0.00757
 H694 H 0.51592 0.52875 -0.04441
 H695 H 0.46939 0.52573 0.05078
 H696 H 0.56186 0.47826 0.03596
 H697 H 0.53526 0.42958 0.06342
 H698 H 0.54949 0.47039 0.08125
 H699 H 0.48328 0.51738 -0.07446
 H700 H 0.45889 0.54462 -0.04131
 H701 H 0.51519 0.39428 0.02555
 H702 H 0.43414 0.43943 0.05034
 H703 H 0.55579 0.55042 -0.03927
 H704 H 0.52497 0.57525 -0.00779
 H705 H 0.42645 0.47065 -0.01202
 H706 H 0.45217 0.44757 -0.04606
 H707 H 0.56189 0.53552 0.05773
 H708 H 0.58989 0.51426 0.02455
 O709 O 0.00078 -0.04463 0.43638
 O710 O -0.03684 -0.01884 0.42580
 O711 O 0.06529 0.01747 0.44229
 O712 O 0.07478 0.05406 0.46802
 O713 O 0.05659 -0.04630 0.50650
 O714 O 0.02691 -0.05346 0.54367
 O715 O -0.01060 0.09190 0.50901
 O716 O 0.01249 0.09368 0.46776
 O717 O -0.07372 0.03426 0.50161
 O718 O -0.07789 -0.01267 0.48524
 O719 O -0.02293 0.02874 0.56977
 O720 O 0.02154 0.01345 0.57909
 O721 O 0.00302 0.07220 0.54960
 O722 O 0.04523 0.04227 0.56090
 O723 O -0.05883 0.01011 0.54664
 O724 O -0.06391 -0.03295 0.51845
 O725 O -0.05136 0.07179 0.48403
 O726 O -0.02276 0.07203 0.44114
 O727 O 0.01341 -0.06561 0.47672
 O728 O -0.00774 -0.06632 0.52329
 O729 O 0.08004 -0.00953 0.48871
 O730 O 0.08070 0.03863 0.50844
 O731 O 0.02997 -0.00191 0.41877
 O732 O -0.01571 0.02103 0.41300
 Zr733 Zr -0.00281 -0.00291 0.44754
 O734 O -0.03067 0.02268 0.46891
 Zr735 Zr 0.05007 0.02126 0.48297
 O736 O 0.02458 0.04919 0.50451
 Zr737 Zr 0.01566 -0.03338 0.50642
 O738 O -0.01020 -0.00795 0.53047
 Zr739 Zr -0.01030 0.05874 0.48116
 O740 O 0.01734 0.03418 0.45773
 Zr741 Zr -0.04363 0.00388 0.50613
 O742 O -0.01888 -0.02348 0.48278
 Zr743 Zr 0.00916 0.02970 0.54035
 O744 O 0.03667 0.00218 0.52001
 O745 O 0.03102 -0.01504 0.47053
 O746 O -0.02530 0.04099 0.51787
 C747 C 0.00669 -0.06616 0.45086
 C748 C 0.05455 0.00751 0.42024
 C749 C 0.07875 -0.03413 0.49882
 C750 C -0.00442 0.09319 0.53485
 C751 C -0.07309 0.05912 0.49231
 C752 C -0.04766 0.01972 0.56864
 H753 H -0.04619 0.02707 0.45658
 H754 H -0.01588 -0.01829 0.54729
 H755 H 0.04333 -0.02752 0.45996
 H756 H 0.03513 0.06609 0.50883
 H757 H 0.02367 0.08761 0.45164
 H758 H 0.06336 0.07092 0.46883
 H759 H -0.05562 -0.03937 0.53601
 H760 H -0.02391 -0.06858 0.51122
 H761 H -0.03055 0.09092 0.44289
 H762 H -0.01066 0.01113 0.39568
 H763 H 0.01547 -0.00607 0.57979
 H764 H 0.03756 -0.03981 0.55442
 H765 H -0.04820 -0.02898 0.43959
 H766 H -0.07898 -0.00357 0.46686
 H767 H 0.08247 0.02640 0.52486
 H768 H 0.05169 0.05962 0.55207
 O769 O 0.66666 0.24825 0.25884
 O770 O 0.67003 0.26558 0.21456
 O771 O 0.72532 0.18092 0.25914
 O772 O 0.76959 0.17426 0.25750
 O773 O 0.72366 0.24406 0.32718
 O774 O 0.73949 0.28892 0.33031
 O775 O 0.80811 0.24933 0.19735
 O776 O 0.78465 0.20983 0.19070
 O777 O 0.75199 0.31473 0.19174
 O778 O 0.71008 0.32715 0.21164
 O779 O 0.80592 0.31234 0.25901
 O780 O 0.81017 0.28824 0.29987
 O781 O 0.82615 0.26627 0.23725
 O782 O 0.82020 0.24938 0.28812
 O783 O 0.77022 0.33524 0.23951
 O784 O 0.71962 0.33856 0.24987
 O785 O 0.76906 0.27543 0.17248
 O786 O 0.74478 0.23015 0.17129
 O787 O 0.68257 0.26660 0.29909
 O788 O 0.71016 0.30941 0.30684
 O789 O 0.74118 0.20377 0.31059
 O790 O 0.78818 0.19666 0.28781
 O791 O 0.68918 0.20309 0.23939
 O792 O 0.69198 0.22876 0.19483
 Zr793 Zr 0.70225 0.24423 0.23462
 O794 O 0.72953 0.26848 0.21098
 Zr795 Zr 0.75277 0.21297 0.26866
 O796 O 0.78211 0.23439 0.24436
 Zr797 Zr 0.72555 0.27083 0.29312
 O798 O 0.75546 0.29459 0.27209
 Zr799 Zr 0.76621 0.24658 0.20570
 O800 O 0.73834 0.22120 0.22813
 Zr801 Zr 0.74068 0.30435 0.23254
 O802 O 0.70983 0.28227 0.25439
 Zr803 Zr 0.79152 0.27173 0.26410
 O804 O 0.76324 0.24946 0.28967
 O805 O 0.71592 0.23364 0.27414
 O806 O 0.77746 0.28350 0.22502
 C807 C 0.66310 0.25769 0.28348
 C808 C 0.70142 0.18134 0.24824
 C809 C 0.73100 0.21881 0.33031
 C810 C 0.82846 0.25658 0.21238
 C811 C 0.76145 0.30089 0.17104
 C812 C 0.79424 0.33440 0.25011
 H813 H 0.72097 0.27277 0.19292
 H814 H 0.75915 0.31124 0.28332
 H815 H 0.70251 0.22230 0.28472
 H816 H 0.79838 0.22242 0.24190
 H817 H 0.77191 0.19454 0.19538
 H818 H 0.77722 0.17661 0.23855
 H819 H 0.72888 0.34354 0.26736
 H820 H 0.69603 0.31525 0.29340
 H821 H 0.75707 0.23086 0.15479
 H822 H 0.67374 0.21973 0.19600
 H823 H 0.79577 0.29842 0.31017
 H824 H 0.75816 0.28157 0.33338
 H825 H 0.66984 0.28463 0.22205
 H826 H 0.70017 0.31407 0.19958
 H827 H 0.79108 0.20738 0.30503
 H828 H 0.82749 0.23416 0.27652
 O829 O 0.75897 0.68934 0.69439
 O830 O 0.79913 0.68402 0.71938
 O831 O 0.69619 0.69918 0.75557
 O832 O 0.68587 0.72741 0.79027
 O833 O 0.70203 0.75655 0.68592
 O834 O 0.73092 0.79489 0.67590
 O835 O 0.76512 0.77518 0.82385
 O836 O 0.74688 0.73302 0.82909
 O837 O 0.83332 0.76072 0.76622
 O838 O 0.83687 0.74245 0.71989
 O839 O 0.77914 0.82998 0.75221
 O840 O 0.73385 0.83533 0.73656
 O841 O 0.75392 0.81357 0.79880
 O842 O 0.71231 0.82156 0.76868
 O843 O 0.81686 0.80512 0.74001
 O844 O 0.82359 0.77489 0.69865
 O845 O 0.80956 0.75204 0.80613
 O846 O 0.78408 0.70731 0.81042
 O847 O 0.74788 0.72759 0.66906
 O848 O 0.76509 0.77348 0.66317
 O849 O 0.67896 0.74536 0.72560
 O850 O 0.67733 0.76552 0.77175
 O851 O 0.73369 0.67484 0.74159
 O852 O 0.77947 0.67323 0.76093
 Zr853 Zr 0.76395 0.70491 0.73470
 O854 O 0.79052 0.72924 0.75849
 Zr855 Zr 0.70946 0.74065 0.75570
 O856 O 0.73377 0.76598 0.78083
 Zr857 Zr 0.74316 0.75951 0.69858
 O858 O 0.76859 0.78630 0.72126
 Zr859 Zr 0.76924 0.74485 0.79308
 O860 O 0.74315 0.71817 0.77082
 Zr861 Zr 0.80271 0.76434 0.73594
 O862 O 0.77869 0.73830 0.71072
 Zr863 Zr 0.74840 0.79979 0.75754
 O864 O 0.72157 0.77587 0.73285
 O865 O 0.72898 0.72519 0.72054
 O866 O 0.78348 0.77973 0.77160
 C867 C 0.75396 0.70176 0.67132
 C868 C 0.70888 0.67641 0.75035
 C869 C 0.67986 0.75216 0.69985
 C870 C 0.75901 0.80095 0.82182
 C871 C 0.83189 0.75637 0.79250
 C872 C 0.80458 0.82796 0.74552
 H873 H 0.80633 0.71779 0.76416
 H874 H 0.77396 0.80198 0.70917
 H875 H 0.71684 0.71313 0.70949
 H876 H 0.72263 0.77174 0.79704
 H877 H 0.73675 0.71595 0.82433
 H878 H 0.69678 0.73147 0.80696
 H879 H 0.81469 0.79150 0.69073
 H880 H 0.78332 0.76454 0.66387
 H881 H 0.79193 0.71149 0.82887
 H882 H 0.77635 0.65495 0.75214
 H883 H 0.74116 0.83463 0.71735
 H884 H 0.71807 0.80524 0.68804
 H885 H 0.80790 0.69628 0.70539
 H886 H 0.83785 0.72455 0.72986
 H887 H 0.67670 0.78249 0.76021
 H888 H 0.70531 0.81367 0.78635
 O889 O 0.24691 0.19825 0.81861
 O890 O 0.20210 0.19162 0.80058
 O891 O 0.29958 0.18430 0.74919
 O892 O 0.30639 0.20251 0.70653
 O893 O 0.30932 0.25819 0.80081
 O894 O 0.28404 0.30167 0.80210
 O895 O 0.22751 0.25013 0.67206
 O896 O 0.24363 0.20620 0.67581
 O897 O 0.16744 0.25569 0.73867
 O898 O 0.17054 0.24811 0.78995
 O899 O 0.22614 0.32048 0.72716
 O900 O 0.27660 0.32342 0.73953
 O901 O 0.24681 0.29112 0.68475
 O902 O 0.28817 0.30460 0.70456
 O903 O 0.18988 0.30274 0.75102
 O904 O 0.18566 0.28534 0.79785
 O905 O 0.18485 0.23413 0.70057
 O906 O 0.20730 0.18867 0.70429
 O907 O 0.26507 0.24003 0.83047
 O908 O 0.25193 0.28664 0.82657
 O909 O 0.32432 0.23181 0.76477
 O910 O 0.32241 0.24298 0.71553
 O911 O 0.26356 0.16930 0.77541
 O912 O 0.21611 0.16719 0.76231
 Zr913 Zr 0.23678 0.20316 0.77637
 O914 O 0.20897 0.22298 0.74973
 Zr915 Zr 0.29000 0.22607 0.73970
 O916 O 0.26436 0.24766 0.71228
 Zr917 Zr 0.26677 0.26263 0.79306
 O918 O 0.23920 0.28504 0.76796
 Zr919 Zr 0.22626 0.22781 0.70986
 O920 O 0.25289 0.20458 0.73551
 Zr921 Zr 0.20211 0.26331 0.76362
 O922 O 0.22827 0.24289 0.79189
 Zr923 Zr 0.25503 0.28748 0.72740
 O924 O 0.28404 0.26719 0.75318
 O925 O 0.27468 0.22248 0.77979
 O926 O 0.21719 0.26793 0.72318
 C927 C 0.25683 0.21540 0.83633
 C928 C 0.28657 0.16545 0.76300
 C929 C 0.32823 0.24511 0.78739
 C930 C 0.23730 0.27431 0.66660
 C931 C 0.16484 0.24414 0.71479
 C932 C 0.20182 0.32233 0.73763
 H933 H 0.19190 0.21199 0.74913
 H934 H 0.23628 0.30358 0.77606
 H935 H 0.28720 0.21213 0.79212
 H936 H 0.27366 0.24840 0.69398
 H937 H 0.25314 0.18986 0.68362
 H938 H 0.29587 0.20724 0.68973
 H939 H 0.19858 0.30041 0.80235
 H940 H 0.23281 0.28061 0.82996
 H941 H 0.19812 0.18871 0.68598
 H942 H 0.21832 0.15215 0.77621
 H943 H 0.26659 0.33182 0.75534
 H944 H 0.29690 0.30608 0.78670
 H945 H 0.19768 0.20732 0.81299
 H946 H 0.16494 0.22978 0.78290
 H947 H 0.32614 0.26168 0.72295
 H948 H 0.29777 0.28906 0.69537
 O949 O 0.18559 0.73537 0.30431
 O950 O 0.20641 0.69284 0.30464
 O951 O 0.25302 0.79237 0.31439
 O952 O 0.28978 0.80576 0.29126
 O953 O 0.19023 0.80666 0.25102
 O954 O 0.18188 0.78762 0.20688
 O955 O 0.32028 0.72793 0.22910
 O956 O 0.32358 0.74073 0.27426
 O957 O 0.25728 0.66965 0.22269
 O958 O 0.21043 0.66688 0.23609
 O959 O 0.25880 0.73910 0.16856
 O960 O 0.24684 0.78658 0.17176
 O961 O 0.30237 0.75323 0.19372
 O962 O 0.27854 0.80091 0.19381
 O963 O 0.23722 0.69931 0.18126
 O964 O 0.19264 0.69151 0.20788
 O965 O 0.29601 0.68470 0.24381
 O966 O 0.29793 0.70206 0.29248
 O967 O 0.16632 0.76022 0.26934
 O968 O 0.16439 0.75004 0.21974
 O969 O 0.22879 0.82277 0.27158
 O970 O 0.27730 0.82238 0.25358
 O971 O 0.23035 0.75354 0.32834
 O972 O 0.24773 0.70539 0.32152
 Zr973 Zr 0.22640 0.72973 0.29194
 O974 O 0.24935 0.70562 0.26384
 Zr975 Zr 0.25579 0.78830 0.27087
 O976 O 0.28138 0.76621 0.24322
 Zr977 Zr 0.19912 0.76561 0.24047
 O978 O 0.22233 0.74415 0.21020
 Zr979 Zr 0.28704 0.72525 0.25673
 O980 O 0.26499 0.74855 0.28662
 Zr981 Zr 0.23062 0.70401 0.22466
 O982 O 0.20546 0.72483 0.25413
 Zr983 Zr 0.26131 0.76223 0.20515
 O984 O 0.23636 0.78635 0.23209
 O985 O 0.21807 0.76986 0.27867
 O986 O 0.26898 0.72175 0.21774
 C987 C 0.16506 0.74733 0.29282
 C988 C 0.24206 0.77685 0.33318
 C989 C 0.20430 0.82597 0.26233
 C990 C 0.32211 0.73983 0.20531
 C991 C 0.28178 0.66600 0.23166
 C992 C 0.24880 0.71519 0.16310
 H993 H 0.25189 0.68697 0.27195
 H994 H 0.21211 0.74396 0.19257
 H995 H 0.20699 0.78055 0.29221
 H996 H 0.29920 0.77580 0.24128
 H997 H 0.31854 0.74820 0.29273
 H998 H 0.30513 0.79268 0.28852
 H999 H 0.18800 0.70452 0.19272
 H1000 H 0.16109 0.73118 0.22713
 H1001 H 0.31576 0.69292 0.28866
 H1002 H 0.23812 0.70667 0.33972
 H1003 H 0.22758 0.78121 0.16857
 H1004 H 0.19638 0.80018 0.19980
 H1005 H 0.19482 0.68695 0.28896
 H1006 H 0.21696 0.66162 0.25476
 H1007 H 0.26635 0.82926 0.23778
 H1008 H 0.29642 0.80266 0.20317
 O1009 O 0.22533 0.73475 0.82042
 O1010 O 0.23228 0.78174 0.81993
 O1011 O 0.17317 0.72337 0.74773
 O1012 O 0.17608 0.72871 0.70246
 O1013 O 0.24348 0.66867 0.76235
 O1014 O 0.29148 0.67420 0.75506
 O1015 O 0.24821 0.79911 0.67958
 O1016 O 0.20259 0.79772 0.69313
 O1017 O 0.29305 0.81598 0.75225
 O1018 O 0.29780 0.79335 0.79730
 O1019 O 0.31504 0.75289 0.69613
 O1020 O 0.30127 0.70339 0.69104
 O1021 O 0.27360 0.76171 0.66666
 O1022 O 0.26801 0.71098 0.66815
 O1023 O 0.32528 0.77649 0.73546
 O1024 O 0.32205 0.76203 0.78551
 O1025 O 0.25787 0.82624 0.72332
 O1026 O 0.20912 0.82018 0.73698
 O1027 O 0.25293 0.69865 0.80835
 O1028 O 0.29941 0.69749 0.79069
 O1029 O 0.20722 0.67930 0.73493
 O1030 O 0.20651 0.70175 0.68833
 O1031 O 0.18284 0.74502 0.78837
 O1032 O 0.19869 0.79408 0.78997
 Zr1033 Zr 0.22361 0.75857 0.78379
 O1034 O 0.24829 0.78709 0.76185
 Zr1035 Zr 0.21123 0.72205 0.72689
 O1036 O 0.23455 0.74966 0.70247
 Zr1037 Zr 0.26452 0.70648 0.76658
 O1038 O 0.29060 0.73279 0.74322
 Zr1039 Zr 0.23537 0.78921 0.72039
 O1040 O 0.20873 0.76253 0.74295
 Zr1041 Zr 0.28896 0.77307 0.75954
 O1042 O 0.26496 0.74605 0.78457
 Zr1043 Zr 0.27562 0.73688 0.70260
 O1044 O 0.25179 0.70752 0.72489
 O1045 O 0.22371 0.71858 0.76791
 O1046 O 0.27620 0.77692 0.71851
 C1047 C 0.23821 0.71222 0.82602
 C1048 C 0.16638 0.73283 0.77171
 C1049 C 0.22181 0.66210 0.74885
 C1050 C 0.26242 0.78529 0.66173
 C1051 C 0.27911 0.83296 0.73739
 C1052 C 0.33105 0.76779 0.71089
 H1053 H 0.24678 0.80529 0.77106
 H1054 H 0.30947 0.72542 0.74326
 H1055 H 0.21211 0.70570 0.77890
 H1056 H 0.22685 0.75036 0.68355
 H1057 H 0.18562 0.79178 0.70286
 H1058 H 0.17865 0.74683 0.69324
 H1059 H 0.33191 0.74637 0.77680
 H1060 H 0.30232 0.71370 0.80283
 H1061 H 0.20973 0.83642 0.72434
 H1062 H 0.18602 0.79056 0.80582
 H1063 H 0.31626 0.70206 0.70467
 H1064 H 0.28877 0.67120 0.73494
 H1065 H 0.25165 0.77805 0.82461
 H1066 H 0.28250 0.80620 0.80133
 H1067 H 0.22148 0.68799 0.68679
 H1068 H 0.25074 0.71725 0.65954
 O1069 O 0.26016 0.27975 0.32774
 O1070 O 0.24306 0.23711 0.33372
 O1071 O 0.32946 0.26369 0.27026
 O1072 O 0.33503 0.24933 0.22722
 O1073 O 0.27392 0.33465 0.25525
 O1074 O 0.22875 0.33820 0.23906
 O1075 O 0.25435 0.19320 0.19925
 O1076 O 0.29442 0.18807 0.22279
 O1077 O 0.19122 0.20319 0.25575
 O1078 O 0.18324 0.23369 0.29650
 O1079 O 0.19832 0.25840 0.18991
 O1080 O 0.22714 0.29829 0.17912
 O1081 O 0.24253 0.23120 0.17391
 O1082 O 0.26083 0.27855 0.16781
 O1083 O 0.17444 0.24793 0.22927
 O1084 O 0.17115 0.26690 0.27590
 O1085 O 0.22932 0.17871 0.24381
 O1086 O 0.27366 0.17789 0.26715
 O1087 O 0.24793 0.31803 0.30301
 O1088 O 0.20811 0.32538 0.27457
 O1089 O 0.31178 0.31012 0.24281
 O1090 O 0.31675 0.27937 0.20186
 O1091 O 0.30582 0.25331 0.30981
 O1092 O 0.27674 0.21094 0.31570
 Zr1093 Zr 0.26476 0.24906 0.29735
 O1094 O 0.23888 0.22272 0.27487
 Zr1095 Zr 0.29847 0.26884 0.24051
 O1096 O 0.27458 0.24255 0.21582
 Zr1097 Zr 0.24381 0.30399 0.26175
 O1098 O 0.21755 0.27970 0.23730
 Zr1099 Zr 0.25984 0.20899 0.23931
 O1100 O 0.28689 0.23329 0.26314
 Zr1101 Zr 0.20493 0.24449 0.25975
 O1102 O 0.22906 0.27029 0.28524
 Zr1103 Zr 0.23913 0.26356 0.20302
 O1104 O 0.26450 0.29103 0.22553
 O1105 O 0.27869 0.28381 0.27576
 O1106 O 0.22475 0.22892 0.22460
 C1107 C 0.25329 0.30534 0.32589
 C1108 C 0.32822 0.25790 0.29630
 C1109 C 0.29920 0.33295 0.24780
 C1110 C 0.24845 0.20537 0.17628
 C1111 C 0.20387 0.18041 0.25039
 C1112 C 0.17588 0.25333 0.20318
 H1113 H 0.23342 0.20704 0.28696
 H1114 H 0.20185 0.29123 0.23156
 H1115 H 0.29057 0.29587 0.28711
 H1116 H 0.28583 0.23610 0.19994
 H1117 H 0.30993 0.19222 0.23522
 H1118 H 0.32971 0.23123 0.21945
 H1119 H 0.16975 0.28435 0.26520
 H1120 H 0.19931 0.31394 0.28923
 H1121 H 0.27229 0.15970 0.25778
 H1122 H 0.28691 0.21476 0.33302
 H1123 H 0.21241 0.30798 0.18944
 H1124 H 0.23645 0.33653 0.22005
 H1125 H 0.22384 0.24299 0.33106
 H1126 H 0.19227 0.21733 0.30477
 H1127 H 0.30632 0.29523 0.19429
 H1128 H 0.27749 0.26709 0.16551
 O1129 O 0.67137 0.77154 0.24672
 O1130 O 0.67475 0.76340 0.29330
 O1131 O 0.73002 0.83650 0.23046
 O1132 O 0.77391 0.84362 0.23868
 O1133 O 0.72910 0.76601 0.17618
 O1134 O 0.74310 0.72003 0.17997
 O1135 O 0.81346 0.77416 0.30488
 O1136 O 0.79221 0.81647 0.30516
 O1137 O 0.75553 0.71358 0.32058
 O1138 O 0.70924 0.70279 0.30221
 O1139 O 0.80720 0.70444 0.25333
 O1140 O 0.81002 0.72375 0.20620
 O1141 O 0.82855 0.74900 0.26783
 O1142 O 0.82616 0.76051 0.21643
 O1143 O 0.77183 0.68648 0.27847
 O1144 O 0.72248 0.68172 0.26878
 O1145 O 0.77356 0.75504 0.33325
 O1146 O 0.75119 0.80098 0.32884
 O1147 O 0.68570 0.74642 0.20940
 O1148 O 0.71231 0.70439 0.20496
 O1149 O 0.75138 0.80581 0.18732
 O1150 O 0.79448 0.81762 0.20978
 O1151 O 0.69475 0.81920 0.25629
 O1152 O 0.69792 0.80211 0.30526
 Zr1153 Zr 0.70724 0.77946 0.26869
 O1154 O 0.73383 0.75809 0.29542
 Zr1155 Zr 0.75844 0.80371 0.23028
 O1156 O 0.78739 0.78447 0.25623
 Zr1157 Zr 0.72897 0.74370 0.21403
 O1158 O 0.75757 0.72168 0.23826
 Zr1159 Zr 0.77147 0.77902 0.29655
 O1160 O 0.74395 0.80207 0.27160
 Zr1161 Zr 0.74295 0.71881 0.27930
 O1162 O 0.71328 0.73870 0.25449
 Zr1163 Zr 0.79435 0.74415 0.24178
 O1164 O 0.76719 0.76424 0.21425
 O1165 O 0.72091 0.78352 0.22772
 O1166 O 0.78032 0.73923 0.28237
 C1167 C 0.66681 0.75773 0.22450
 C1168 C 0.70620 0.83845 0.24183
 C1169 C 0.74070 0.78908 0.16979
 C1170 C 0.83212 0.76100 0.29132
 C1171 C 0.76633 0.72992 0.33839
 C1172 C 0.79578 0.68495 0.26739
 H1173 H 0.72537 0.75700 0.31413
 H1174 H 0.76063 0.70326 0.22992
 H1175 H 0.70782 0.79293 0.21523
 H1176 H 0.80442 0.79553 0.25667
 H1177 H 0.77944 0.83167 0.30049
 H1178 H 0.78551 0.84179 0.25530
 H1179 H 0.73076 0.67470 0.25136
 H1180 H 0.70091 0.69898 0.22120
 H1181 H 0.76395 0.80249 0.34469
 H1182 H 0.68024 0.81190 0.30269
 H1183 H 0.79813 0.70760 0.20263
 H1184 H 0.76220 0.72601 0.17633
 H1185 H 0.67469 0.74314 0.29042
 H1186 H 0.70512 0.71575 0.31754
 H1187 H 0.80050 0.80252 0.19732
 H1188 H 0.83355 0.77713 0.22570
 O1189 O 0.68437 0.23723 0.81169
 O1190 O 0.70717 0.19618 0.81637
 O1191 O 0.74747 0.29867 0.80661
 O1192 O 0.78378 0.30792 0.77981
 O1193 O 0.68126 0.29975 0.74797
 O1194 O 0.67060 0.27332 0.70788
 O1195 O 0.81314 0.22510 0.72713
 O1196 O 0.81929 0.24532 0.76880
 O1197 O 0.75423 0.16289 0.73600
 O1198 O 0.70792 0.16047 0.75337
 O1199 O 0.74496 0.22349 0.67025
 O1200 O 0.73240 0.26963 0.66763
 O1201 O 0.79144 0.24376 0.68981
 O1202 O 0.76409 0.28916 0.68462
 O1203 O 0.73089 0.18427 0.69231
 O1204 O 0.68789 0.17836 0.72195
 O1205 O 0.79292 0.18342 0.75207
 O1206 O 0.79785 0.20919 0.79567
 O1207 O 0.66131 0.25444 0.77451
 O1208 O 0.65614 0.23781 0.72770
 O1209 O 0.72033 0.31998 0.76329
 O1210 O 0.76606 0.32018 0.74097
 O1211 O 0.73137 0.26037 0.82908
 O1212 O 0.74903 0.21238 0.82779
 Zr1213 Zr 0.72453 0.23154 0.79694
 O1214 O 0.74690 0.20469 0.77105
 Zr1215 Zr 0.74881 0.28735 0.76453
 O1216 O 0.77323 0.26274 0.73820
 Zr1217 Zr 0.69154 0.25772 0.74285
 O1218 O 0.71349 0.23259 0.71456
 Zr1219 Zr 0.78253 0.22504 0.75765
 O1220 O 0.76142 0.25129 0.78552
 Zr1221 Zr 0.72564 0.19580 0.73436
 O1222 O 0.70140 0.21989 0.76202
 Zr1223 Zr 0.75064 0.25163 0.70303
 O1224 O 0.72671 0.27859 0.72820
 O1225 O 0.71288 0.26857 0.77831
 O1226 O 0.76211 0.21423 0.72127
 C1227 C 0.66236 0.24553 0.79973
 C1228 C 0.74047 0.28532 0.82867
 C1229 C 0.69523 0.32094 0.75562
 C1230 C 0.81280 0.23388 0.70199
 C1231 C 0.77912 0.16219 0.74452
 C1232 C 0.73784 0.19793 0.67037
 H1233 H 0.75115 0.18778 0.78181
 H1234 H 0.70191 0.22901 0.69823
 H1235 H 0.70216 0.28056 0.79101
 H1236 H 0.79015 0.27292 0.73320
 H1237 H 0.81531 0.25553 0.78617
 H1238 H 0.79997 0.29752 0.77313
 H1239 H 0.68177 0.18826 0.70510
 H1240 H 0.65552 0.21932 0.73658
 H1241 H 0.81613 0.20094 0.79202
 H1242 H 0.74067 0.21572 0.84634
 H1243 H 0.71276 0.26462 0.66821
 H1244 H 0.68330 0.28637 0.69846
 H1245 H 0.69490 0.18751 0.80265
 H1246 H 0.71677 0.15801 0.77161
 H1247 H 0.75393 0.32328 0.72488
 H1248 H 0.78235 0.29360 0.69219
 C1249 C 0.09694 0.98966 1.14746
 C1250 C 0.07268 1.00526 1.14641
 N1251 N 0.06387 1.01896 1.16931
 C1252 C 0.07817 1.01768 1.19332
 C1253 C 0.10218 1.00156 1.19468
 N1254 N 0.11105 0.98810 1.17151
 N1255 N 0.10614 0.97658 1.12432
 C1256 C 0.09210 0.97829 1.10015
 C1257 C 0.06756 0.99356 1.09915
 N1258 N 0.05847 1.00667 1.12241
 H1259 H 0.07099 1.02924 1.21117
 H1260 H 0.09983 0.96748 1.08206
 C1261 C 0.59466 0.51088 0.65613
 C1262 C 0.56663 0.51697 0.65720
 N1263 N 0.55374 0.51889 0.68223
 C1264 C 0.56765 0.51501 0.70632
 C1265 C 0.59587 0.50880 0.70530
 N1266 N 0.60848 0.50703 0.68002
 N1267 N 0.60767 0.50876 0.63124
 C1268 C 0.59375 0.51211 0.60718
 C1269 C 0.56550 0.51782 0.60807
 N1270 N 0.55265 0.52027 0.63319
 H1271 H 0.55667 0.51712 0.72571
 H1272 H 0.60458 0.50988 0.58760
 C1273 C 0.40912 0.00147 0.63727
 C1274 C 0.42898 -0.01927 0.63369
 N1275 N 0.43510 -0.03634 0.65517
 C1276 C 0.42254 -0.03325 0.68025
 C1277 C 0.40364 -0.01153 0.68424
 N1278 N 0.39713 0.00492 0.66236
 N1279 N 0.40231 0.01806 0.61573
 C1280 C 0.41479 0.01514 0.59070
 C1281 C 0.43541 -0.00496 0.58725
 N1282 N 0.44197 -0.02181 0.60886
 H1283 H 0.42743 -0.04738 0.69697
 H1284 H 0.40926 0.02900 0.57396
 C1285 C -0.06749 0.50539 1.16757
 C1286 C -0.08338 0.50894 1.14364
 N1287 N -0.11070 0.51352 1.14620
 C1288 C -0.12285 0.51464 1.17166
 C1289 C -0.10691 0.51128 1.19568
 N1290 N -0.07956 0.50668 1.19290
 N1291 N -0.04032 0.50021 1.16515
 C1292 C -0.02822 0.49834 1.13978
 C1293 C -0.04402 0.50193 1.11571
 N1294 N -0.07129 0.50728 1.11825
 H1295 H -0.14475 0.51789 1.17321
 H1296 H -0.00644 0.49425 1.13851
 C1297 C -0.09674 0.50387 0.34923
 C1298 C -0.06974 0.51378 0.34999
 N1299 N -0.05750 0.52283 0.32630
 C1300 C -0.07087 0.52212 0.30171
 C1301 C -0.09780 0.51159 0.30058
 N1302 N -0.11015 0.50301 0.32461
 N1303 N -0.10892 0.49485 0.37305
 C1304 C -0.09520 0.49504 0.39754
 C1305 C -0.06792 0.50455 0.39826
 N1306 N -0.05600 0.51383 0.37433
 H1307 H -0.06050 0.53005 0.28345
 H1308 H -0.10535 0.48745 0.41613
 C1309 C 0.40480 0.99303 -0.16351
 C1310 C 0.43345 0.99473 -0.16233
 N1311 N 0.44828 0.99663 -0.18610
 C1312 C 0.43588 0.99664 -0.21118
 C1313 C 0.40699 0.99482 -0.21274
 N1314 N 0.39226 0.99336 -0.18857
 N1315 N 0.39005 0.99052 -0.13960
 C1316 C 0.40277 0.98944 -0.11457
 C1317 C 0.43153 0.99116 -0.11344
 N1318 N 0.44610 0.99393 -0.13745
 H1319 H 0.44878 0.99880 -0.22933
 H1320 H 0.39056 0.98727 -0.09582
 C1321 C 0.57557 0.49482 -0.15689
 C1322 C 0.59295 0.50233 -0.13508
 N1323 N 0.61905 0.51032 -0.14109
 C1324 C 0.62845 0.51110 -0.16786
 C1325 C 0.61087 0.50368 -0.18968
 N1326 N 0.58485 0.49578 -0.18340
 N1327 N 0.54960 0.48674 -0.15136
 C1328 C 0.53999 0.48585 -0.12495
 C1329 C 0.55706 0.49354 -0.10274
 N1330 N 0.58334 0.50164 -0.10839
 H1331 H 0.64917 0.51797 -0.17195
 H1332 H 0.51902 0.47932 -0.12149
 C1333 C 0.10092 0.00616 0.34575
 C1334 C 0.07649 -0.00899 0.34852
 N1335 N 0.06695 -0.02361 0.32671
 C1336 C 0.08033 -0.02321 0.30191
 C1337 C 0.10417 -0.00706 0.29855
 N1338 N 0.11417 0.00690 0.32082
 N1339 N 0.11038 0.02070 0.36776
 C1340 C 0.09632 0.02104 0.39230
 C1341 C 0.07141 0.00650 0.39480
 N1342 N 0.06230 -0.00833 0.37279
 H1343 H 0.07217 -0.03518 0.28493
 H1344 H 0.10420 0.03303 0.40941
 C1345 C 0.15088 1.08585 1.00185
 C1346 C 0.15025 1.05738 1.00732
 N1347 N 0.17404 1.04350 1.01146
 C1348 C 0.19856 1.05681 1.01023
 C1349 C 0.19931 1.08540 1.00436
 N1350 N 0.17523 1.09910 1.00063
 N1351 N 0.12716 1.09985 0.99782
 C1352 C 0.10268 1.08654 0.99881
 C1353 C 0.10195 1.05790 1.00407
 N1354 N 0.12586 1.04405 1.00829
 H1355 H 0.21692 1.04511 1.01431
 H1356 H 0.08408 1.09819 0.99532
 C1357 C 0.65081 0.58885 0.48563
 C1358 C 0.64796 0.56546 0.50275
 N1359 N 0.66998 0.55540 0.51643
 C1360 C 0.69484 0.56776 0.51387
 C1361 C 0.69795 0.59115 0.49662
 N1362 N 0.67568 0.60117 0.48297
 N1363 N 0.62850 0.59932 0.47261
 C1364 C 0.60340 0.58748 0.47603
 C1365 C 0.60053 0.56404 0.49322
 N1366 N 0.62302 0.55361 0.50605
 H1367 H 0.71192 0.55974 0.52561
 H1368 H 0.58595 0.59628 0.46546
 C1369 C 0.66351 0.41189 -0.00374
 C1370 C 0.66207 0.44066 -0.00628
 N1371 N 0.68581 0.45551 -0.00760
 C1372 C 0.71088 0.44281 -0.00656
 C1373 C 0.71231 0.41370 -0.00395
 N1374 N 0.68819 0.39942 -0.00266
 N1375 N 0.64026 0.39664 -0.00250
 C1376 C 0.61532 0.40889 -0.00341
 C1377 C 0.61339 0.43786 -0.00561
 N1378 N 0.63699 0.45316 -0.00712
 H1379 H 0.72911 0.45539 -0.00810
 H1380 H 0.59718 0.39604 -0.00216
 C1381 C 0.15223 -0.07910 0.50543
 C1382 C 0.14908 -0.05895 0.48465
 N1383 N 0.16970 -0.05440 0.46611
 C1384 C 0.19350 -0.06891 0.46763
 C1385 C 0.19711 -0.08842 0.48907
 N1386 N 0.17612 -0.09317 0.50724
 N1387 N 0.13135 -0.08436 0.52343
 C1388 C 0.10737 -0.07027 0.52164
 C1389 C 0.10431 -0.04971 0.50119
 N1390 N 0.12532 -0.04452 0.48315
 H1391 H 0.20955 -0.06508 0.45246
 H1392 H 0.09100 -0.07483 0.53627
 C1393 C 0.34771 -0.08727 0.48124
 C1394 C 0.34989 -0.06033 0.49181
 N1395 N 0.32746 -0.04760 0.50247
 C1396 C 0.30275 -0.06042 0.50278
 C1397 C 0.30018 -0.08730 0.49184
 N1398 N 0.32294 -0.10023 0.48155
 N1399 N 0.37039 -0.09987 0.47066
 C1400 C 0.39511 -0.08672 0.47020
 C1401 C 0.39727 -0.05969 0.48082
 N1402 N 0.37445 -0.04730 0.49138
 H1403 H 0.28538 -0.04974 0.51183
 H1404 H 0.41284 -0.09731 0.46175
 C1405 C -0.15312 0.43380 1.00464
 C1406 C -0.13134 0.41525 1.00090
 N1407 N -0.13697 0.38844 0.99483
 C1408 C -0.16329 0.37927 0.99252
 C1409 C -0.18546 0.39786 0.99625
 N1410 N -0.17937 0.42480 1.00204
 N1411 N -0.14777 0.46053 1.01104
 C1412 C -0.12160 0.46965 1.01381
 C1413 C -0.09942 0.45130 1.00980
 N1414 N -0.10496 0.42436 1.00333
 H1415 H -0.16634 0.35784 0.98720
 H1416 H -0.11823 0.49121 1.01875
 C1417 C -0.15157 0.58664 0.50055
 C1418 C -0.14946 0.56077 0.48755
 N1419 N -0.17176 0.54958 0.47535
 C1420 C -0.19628 0.56283 0.47597
 C1421 C -0.19884 0.58842 0.48973
 N1422 N -0.17617 0.59986 0.50140
 N1423 N -0.12910 0.59784 0.51257
 C1424 C -0.10466 0.58425 0.51232
 C1425 C -0.10261 0.55808 0.49966
 N1426 N -0.12520 0.54711 0.48749
 H1427 H -0.21351 0.55337 0.46571
 H1428 H -0.08714 0.59366 0.52216
 C1429 C 0.33290 1.05730 -0.01196
 C1430 C 0.35548 1.07209 -0.00201
 N1431 N 0.35158 1.09768 0.00896
 C1432 C 0.32607 1.10906 0.01053
 C1433 C 0.30336 1.09405 0.00090
 N1434 N 0.30755 1.06851 -0.01016
 N1435 N 0.33654 1.03175 -0.02286
 C1436 C 0.36180 1.02008 -0.02406
 C1437 C 0.38456 1.03454 -0.01366
 N1438 N 0.38080 1.06038 -0.00298
 H1439 H 0.32360 1.12923 0.01988
 H1440 H 0.36395 0.99956 -0.03275
 C1441 C -0.00358 1.14443 1.09444
 C1442 C 0.01021 1.14353 1.06878
 N1443 N 0.02068 1.16715 1.05771
 C1444 C 0.01781 1.19173 1.07105
 C1445 C 0.00325 1.19294 1.09642
 N1446 N -0.00674 1.16900 1.10761
 N1447 N -0.01341 1.12070 1.10588
 C1448 C -0.01035 1.09607 1.09265
 C1449 C 0.00293 1.09515 1.06660
 N1450 N 0.01295 1.11904 1.05537
 H1451 H 0.02704 1.21009 1.06209
 H1452 H -0.01876 1.07755 1.10212
 C1453 C 0.50247 0.67453 0.57191
 C1454 C 0.49710 0.65214 0.58985
 N1455 N 0.49128 0.65686 0.61693
 C1456 C 0.49069 0.68298 0.62701
 C1457 C 0.49590 0.70566 0.60921
 N1458 N 0.50185 0.70081 0.58195
 N1459 N 0.50887 0.66952 0.54490
 C1460 C 0.51007 0.64318 0.53506
 C1461 C 0.50461 0.62073 0.55306
 N1462 N 0.49821 0.62593 0.58005
 H1463 H 0.48682 0.68601 0.64896
 H1464 H 0.51506 0.63986 0.51339
 C1465 C -0.00630 0.65200 0.41467
 C1466 C -0.01152 0.64979 0.44324
 N1467 N -0.01537 0.67310 0.45844
 C1468 C -0.01391 0.69859 0.44642
 C1469 C -0.00801 0.70096 0.41776
 N1470 N -0.00476 0.67733 0.40272
 N1471 N -0.00252 0.62881 0.39934
 C1472 C -0.00343 0.60338 0.41138
 C1473 C -0.00824 0.60100 0.44016
 N1474 N -0.01234 0.62440 0.45537
 H1475 H -0.01771 0.71646 0.45924
 H1476 H -0.00010 0.58528 0.39862
 C1477 C 0.48684 1.13900 -0.08912
 C1478 C 0.47916 1.13595 -0.06116
 N1479 N 0.47397 1.15878 -0.04565
 C1480 C 0.47654 1.18460 -0.05671
 C1481 C 0.48515 1.18778 -0.08458
 N1482 N 0.48954 1.16467 -0.10009
 N1483 N 0.49194 1.11630 -0.10478
 C1484 C 0.49012 1.09054 -0.09360
 C1485 C 0.48302 1.08732 -0.06538
 N1486 N 0.47748 1.11023 -0.04989
 H1487 H 0.47153 1.20218 -0.04387
 H1488 H 0.49465 1.07283 -0.10656
 C1489 C 0.50111 0.34123 -0.08396
 C1490 C 0.51248 0.34226 -0.05732
 N1491 N 0.51820 0.31842 -0.04370
 C1492 C 0.51269 0.29349 -0.05528
 C1493 C 0.50057 0.29223 -0.08175
 N1494 N 0.49546 0.31631 -0.09557
 N1495 N 0.49525 0.36519 -0.09747
 C1496 C 0.49977 0.39013 -0.08529
 C1497 C 0.51048 0.39118 -0.05823
 N1498 N 0.51679 0.36708 -0.04509
 H1499 H 0.51812 0.27502 -0.04390
 H1500 H 0.49436 0.40886 -0.09634
 C1501 C -0.00047 -0.14469 0.41252
 C1502 C 0.00980 -0.14214 0.43953
 N1503 N 0.01682 -0.16517 0.45389
 C1504 C 0.01362 -0.19072 0.44274
 C1505 C 0.00249 -0.19362 0.41592
 N1506 N -0.00393 -0.17029 0.40134
 N1507 N -0.00725 -0.12152 0.39812
 C1508 C -0.00449 -0.09597 0.40961
 C1509 C 0.00530 -0.09337 0.43695
 N1510 N 0.01232 -0.11670 0.45114
 H1511 H 0.02007 -0.20842 0.45478
 H1512 H -0.01037 -0.07795 0.39766
 C1513 C 0.49406 -0.16047 0.56198
 C1514 C 0.50545 -0.13747 0.57527
 N1515 N 0.51650 -0.14049 0.60082
 C1516 C 0.51639 -0.16540 0.61399
 C1517 C 0.50439 -0.18856 0.60119
 N1518 N 0.49373 -0.18545 0.57520
 N1519 N 0.48334 -0.15733 0.53618
 C1520 C 0.48342 -0.13220 0.52315
 C1521 C 0.49456 -0.10901 0.53662
 N1522 N 0.50534 -0.11244 0.56242
 H1523 H 0.52596 -0.16693 0.63406
 H1524 H 0.47466 -0.13033 0.50266
 C1525 C 0.00251 0.34507 1.09680
 C1526 C -0.01027 0.34779 1.07091
 N1527 N -0.02214 0.32537 1.05920
 C1528 C -0.02132 0.30021 1.07188
 C1529 C -0.00769 0.29710 1.09742
 N1530 N 0.00357 0.31987 1.10941
 N1531 N 0.01435 0.36751 1.10853
 C1532 C 0.01424 0.39249 1.09544
 C1533 C 0.00193 0.39524 1.06918
 N1534 N -0.01020 0.37268 1.05767
 H1535 H -0.03121 0.28288 1.06196
 H1536 H 0.02406 0.40991 1.10533
 C1537 C 0.75472 0.34073 0.09306
 C1538 C 0.77254 0.31823 0.09564
 N1539 N 0.78660 0.30949 0.07266
 C1540 C 0.78345 0.32222 0.04737
 C1541 C 0.76468 0.34434 0.04473
 N1542 N 0.75109 0.35264 0.06803
 N1543 N 0.74114 0.35053 0.11551
 C1544 C 0.74420 0.33862 0.14073
 C1545 C 0.76122 0.31527 0.14375
 N1546 N 0.77516 0.30550 0.12094
 H1547 H 0.79487 0.31455 0.02968
 H1548 H 0.73259 0.34689 0.15805
 C1549 C 0.26656 0.81786 0.57993
 C1550 C 0.26215 0.83526 0.60290
 N1551 N 0.25752 0.86259 0.59875
 C1552 C 0.25615 0.87321 0.57268
 C1553 C 0.25882 0.85566 0.54950
 N1554 N 0.26446 0.82833 0.55370
 N1555 N 0.27124 0.79050 0.58430
 C1556 C 0.27121 0.77968 0.61046
 C1557 C 0.26550 0.79685 0.63340
 N1558 N 0.26137 0.82436 0.62894
 H1559 H 0.25168 0.89500 0.56999
 H1560 H 0.27458 0.75771 0.61322
 C1561 C 0.75591 0.65404 0.59802
 C1562 C 0.76279 0.68219 0.59714
 N1563 N 0.76950 0.69410 0.57234
 C1564 C 0.76894 0.67924 0.54829
 C1565 C 0.76061 0.65144 0.54907
 N1566 N 0.75458 0.63956 0.57406
 N1567 N 0.74939 0.64189 0.62262
 C1568 C 0.74915 0.65670 0.64653
 C1569 C 0.75503 0.68516 0.64575
 N1570 N 0.76190 0.69724 0.62097
 H1571 H 0.77338 0.68940 0.52870
 H1572 H 0.74373 0.64648 0.66586
 C1573 C 0.24955 0.15744 0.10326
 C1574 C 0.25581 0.18573 0.10211
 N1575 N 0.26200 0.19763 0.07717
 C1576 C 0.26162 0.18258 0.05325
 C1577 C 0.25407 0.15457 0.05435
 N1578 N 0.24850 0.14275 0.07946
 N1579 N 0.24365 0.14526 0.12801
 C1580 C 0.24350 0.16017 0.15185
 C1581 C 0.24893 0.18871 0.15082
 N1582 N 0.25509 0.20083 0.12588
 H1583 H 0.26584 0.19263 0.03356
 H1584 H 0.23864 0.14995 0.17131
 C1585 C 0.25838 0.18782 0.91965
 C1586 C 0.26222 0.16922 0.89755
 N1587 N 0.26490 0.14182 0.90290
 C1588 C 0.26305 0.13200 0.92927
 C1589 C 0.25753 0.15029 0.95129
 N1590 N 0.25566 0.17793 0.94603
 N1591 N 0.25584 0.21527 0.91413
 C1592 C 0.25645 0.22489 0.88752
 C1593 C 0.25890 0.20611 0.86535
 N1594 N 0.26198 0.17870 0.87101
 H1595 H 0.26434 0.10992 0.93293
 H1596 H 0.25396 0.24683 0.88368
 C1597 C 0.76670 0.69583 0.41925
 C1598 C 0.76950 0.67898 0.39567
 N1599 N 0.76945 0.65108 0.39854
 C1600 C 0.76590 0.63914 0.42385
 C1601 C 0.76152 0.65580 0.44733
 N1602 N 0.76236 0.68389 0.44459
 N1603 N 0.76659 0.72381 0.41606
 C1604 C 0.76843 0.73563 0.39034
 C1605 C 0.76960 0.71868 0.36666
 N1606 N 0.77045 0.69073 0.37010
 H1607 H 0.76513 0.61679 0.42550
 H1608 H 0.76749 0.75793 0.38835
 C1609 C 0.24001 0.80827 0.41510
 C1610 C 0.26211 0.81446 0.39735
 N1611 N 0.28206 0.83191 0.40622
 C1612 C 0.28041 0.84415 0.43168
 C1613 C 0.25734 0.83939 0.44867
 N1614 N 0.23786 0.82126 0.43995
 N1615 N 0.22005 0.79084 0.40646
 C1616 C 0.22089 0.77962 0.38062
 C1617 C 0.24222 0.78681 0.36215
 N1618 N 0.26254 0.80396 0.37112
 H1619 H 0.29585 0.85901 0.43766
 H1620 H 0.20447 0.76607 0.37420
 C1621 C 0.74184 0.33183 0.90240
 C1622 C 0.75936 0.30911 0.89962
 N1623 N 0.77707 0.30320 0.92060
 C1624 C 0.77789 0.31895 0.94421
 C1625 C 0.75978 0.34155 0.94718
 N1626 N 0.74242 0.34698 0.92582
 N1627 N 0.72458 0.33872 0.88161
 C1628 C 0.72396 0.32381 0.85785
 C1629 C 0.74107 0.30070 0.85489
 N1630 N 0.75852 0.29372 0.87589
 H1631 H 0.79211 0.31342 0.96037
 H1632 H 0.71012 0.32982 0.84144
 C1633 C 0.83636 0.40995 0.25925
 C1634 C 0.80764 0.40926 0.25957
 N1635 N 0.79335 0.43330 0.26208
 C1636 C 0.80654 0.45811 0.26337
 C1637 C 0.83523 0.45884 0.26146
 N1638 N 0.84938 0.43465 0.25972
 N1639 N 0.85076 0.38608 0.25659
 C1640 C 0.83772 0.36142 0.25394
 C1641 C 0.80896 0.36068 0.25319
 N1642 N 0.79457 0.38469 0.25628
 H1643 H 0.79477 0.47709 0.26390
 H1644 H 0.84971 0.34268 0.25181
 C1645 C 0.30579 0.91624 0.73334
 C1646 C 0.31280 0.89953 0.75605
 N1647 N 0.32949 0.90993 0.77597
 C1648 C 0.34032 0.93589 0.77361
 C1649 C 0.33483 0.95185 0.74986
 N1650 N 0.31727 0.94163 0.73059
 N1651 N 0.28944 0.90600 0.71319
 C1652 C 0.28004 0.87956 0.71443
 C1653 C 0.28791 0.86222 0.73649
 N1654 N 0.30396 0.87281 0.75701
 H1655 H 0.35484 0.94301 0.78889
 H1656 H 0.26723 0.87194 0.69789
 C1657 C 0.16619 0.90449 0.25866
 C1658 C 0.19427 0.90265 0.26440
 N1659 N 0.20926 0.92636 0.26607
 C1660 C 0.19752 0.95167 0.26167
 C1661 C 0.16968 0.95325 0.25466
 N1662 N 0.15475 0.92952 0.25370
 N1663 N 0.15099 0.88116 0.25674
 C1664 C 0.16265 0.85585 0.25953
 C1665 C 0.19106 0.85355 0.26396
 N1666 N 0.20621 0.87719 0.26672
 H1667 H 0.20995 0.97019 0.26249
 H1668 H 0.14990 0.83767 0.25741
 C1669 C 0.65809 0.39980 0.75087
 C1670 C 0.68387 0.39675 0.76305
 N1671 N 0.69732 0.41959 0.77225
 C1672 C 0.68622 0.44538 0.76951
 C1673 C 0.66072 0.44848 0.75652
 N1674 N 0.64734 0.42540 0.74776
 N1675 N 0.64443 0.37723 0.74170
 C1676 C 0.65553 0.35157 0.74380
 C1677 C 0.68174 0.34828 0.75530
 N1678 N 0.69524 0.37109 0.76482
 H1679 H 0.69753 0.46322 0.77662
 H1680 H 0.64422 0.33403 0.73596
 C1681 C 0.66776 0.60026 0.76079
 C1682 C 0.69631 0.60111 0.75782
 N1683 N 0.71074 0.57703 0.75670
 C1684 C 0.69773 0.55208 0.75751
 C1685 C 0.66904 0.55133 0.75891
 N1686 N 0.65486 0.57551 0.76093
 N1687 N 0.65318 0.62417 0.76142
 C1688 C 0.66586 0.64908 0.75875
 C1689 C 0.69439 0.65006 0.75470
 N1690 N 0.70895 0.62595 0.75466
 H1691 H 0.70946 0.53320 0.75524
 H1692 H 0.65370 0.66780 0.75911
 C1693 C 0.16083 0.10460 0.25347
 C1694 C 0.18891 0.10552 0.25915
 N1695 N 0.20256 0.08157 0.26463
 C1696 C 0.18949 0.05663 0.26392
 C1697 C 0.16173 0.05561 0.25664
 N1698 N 0.14809 0.07977 0.25193
 N1699 N 0.14705 0.12841 0.24812
 C1700 C 0.16018 0.15323 0.24779
 C1701 C 0.18856 0.15420 0.25229
 N1702 N 0.20221 0.13022 0.25809
 H1703 H 0.20100 0.03779 0.26731
 H1704 H 0.14874 0.17187 0.24323
 C1705 C 0.31820 0.08367 0.76201
 C1706 C 0.33461 0.10629 0.75393
 N1707 N 0.36029 0.10173 0.74412
 C1708 C 0.37003 0.07559 0.74116
 C1709 C 0.35317 0.05273 0.74767
 N1710 N 0.32771 0.05736 0.75851
 N1711 N 0.29250 0.08839 0.77185
 C1712 C 0.28230 0.11455 0.77349
 C1713 C 0.29828 0.13720 0.76430
 N1714 N 0.32425 0.13238 0.75498
 H1715 H 0.39051 0.07264 0.73288
 H1716 H 0.26156 0.11749 0.78104
 C1717 C 0.83803 0.60913 0.26634
 C1718 C 0.81068 0.61008 0.27548
 N1719 N 0.79712 0.58600 0.28082
 C1720 C 0.80948 0.56102 0.27653
 C1721 C 0.83626 0.56027 0.26573
 N1722 N 0.84994 0.58441 0.26143
 N1723 N 0.85163 0.63286 0.26041
 C1724 C 0.83888 0.65768 0.26230
 C1725 C 0.81100 0.65882 0.26989
 N1726 N 0.79766 0.63493 0.27688
 H1727 H 0.79805 0.54210 0.27992
 H1728 H 0.85018 0.67624 0.25692
 C1729 C 0.90553 0.24000 0.17471
 C1730 C 0.90332 0.26173 0.19382
 N1731 N 0.92593 0.27741 0.19899
 C1732 C 0.95042 0.27237 0.18582
 C1733 C 0.95252 0.25045 0.16666
 N1734 N 0.92977 0.23497 0.16191
 N1735 N 0.88335 0.22447 0.16871
 C1736 C 0.85876 0.22967 0.18079
 C1737 C 0.85597 0.25141 0.20003
 N1738 N 0.87855 0.26696 0.20635
 H1739 H 0.96793 0.28523 0.19037
 H1740 H 0.84152 0.21670 0.17548
 C1741 C 0.40690 0.78093 0.67070
 C1742 C 0.40588 0.77845 0.69976
 N1743 N 0.42973 0.77629 0.71404
 C1744 C 0.45440 0.77540 0.70049
 C1745 C 0.45517 0.77612 0.67133
 N1746 N 0.43133 0.77936 0.65731
 N1747 N 0.38337 0.78180 0.65604
 C1748 C 0.35872 0.77936 0.66897
 C1749 C 0.35744 0.77537 0.69790
 N1750 N 0.38111 0.77562 0.71281
 H1751 H 0.47295 0.77198 0.71217
 H1752 H 0.34027 0.77952 0.65663
 C1753 C 0.40802 0.23817 0.82031
 C1754 C 0.39213 0.26166 0.82631
 N1755 N 0.40250 0.28141 0.84338
 C1756 C 0.42764 0.27828 0.85526
 C1757 C 0.44277 0.25401 0.85036
 N1758 N 0.43253 0.23474 0.83276
 N1759 N 0.39808 0.21830 0.80344
 C1760 C 0.37276 0.22060 0.79236
 C1761 C 0.35618 0.24357 0.79887
 N1762 N 0.36636 0.26377 0.81571
 H1763 H 0.43492 0.29365 0.86974
 H1764 H 0.36538 0.20417 0.77913
 C1765 C 0.90716 0.74695 0.33157
 C1766 C 0.90107 0.77355 0.32184
 N1767 N 0.91955 0.79427 0.32589
 C1768 C 0.94358 0.78963 0.33963
 C1769 C 0.94904 0.76310 0.35065
 N1770 N 0.93049 0.74263 0.34582
 N1771 N 0.88947 0.72583 0.32720
 C1772 C 0.86560 0.73012 0.31368
 C1773 C 0.85875 0.75684 0.30468
 N1774 N 0.87670 0.77815 0.30885
 H1775 H 0.95737 0.80678 0.34293
 H1776 H 0.85174 0.71293 0.31052
 C1777 C 0.09104 0.74189 0.33911
 C1778 C 0.09340 0.76161 0.31785
 N1779 N 0.07182 0.77885 0.31295
 C1780 C 0.04811 0.77709 0.32831
 C1781 C 0.04579 0.75701 0.34949
 N1782 N 0.06760 0.74012 0.35408
 N1783 N 0.11212 0.72462 0.34456
 C1784 C 0.13577 0.72610 0.32976
 C1785 C 0.13867 0.74577 0.30827
 N1786 N 0.11720 0.76316 0.30270
 H1787 H 0.03130 0.79087 0.32371
 H1788 H 0.15213 0.71186 0.33476
 C1789 C 0.58870 0.23854 0.84625
 C1790 C 0.58928 0.25429 0.82176
 N1791 N 0.56576 0.26655 0.81291
 C1792 C 0.54172 0.26346 0.82734
 C1793 C 0.54106 0.24689 0.85140
 N1794 N 0.56477 0.23507 0.86020
 N1795 N 0.61193 0.22646 0.85553
 C1796 C 0.63587 0.22912 0.84128
 C1797 C 0.63667 0.24426 0.81625
 N1798 N 0.61320 0.25662 0.80708
 H1799 H 0.52325 0.27309 0.81966
 H1800 H 0.65395 0.21892 0.84920
 C1801 C 0.60341 0.76002 0.66029
 C1802 C 0.60589 0.76524 0.68875
 N1803 N 0.58321 0.77202 0.70391
 C1804 C 0.55800 0.77304 0.69197
 C1805 C 0.55535 0.76628 0.66382
 N1806 N 0.57826 0.76023 0.64866
 N1807 N 0.62596 0.75335 0.64502
 C1808 C 0.65099 0.75130 0.65703
 C1809 C 0.65344 0.75538 0.68576
 N1810 N 0.63075 0.76250 0.70090
 H1811 H 0.54009 0.77741 0.70463
 H1812 H 0.66862 0.74579 0.64442
 C1813 C 0.10170 0.25420 0.15826
 C1814 C 0.10164 0.26002 0.18674
 N1815 N 0.07737 0.26523 0.19991
 C1816 C 0.05313 0.26415 0.18598
 C1817 C 0.05312 0.25684 0.15778
 N1818 N 0.07759 0.25236 0.14468
 N1819 N 0.12574 0.24908 0.14488
 C1820 C 0.14987 0.24921 0.15875
 C1821 C 0.14998 0.25405 0.18752
 N1822 N 0.12573 0.25953 0.20083
 H1823 H 0.03404 0.26732 0.19714
 H1824 H 0.16869 0.24490 0.14752
 C1825 C -0.08706 1.00767 0.84779
 C1826 C -0.06130 0.99491 0.84884
 N1827 N -0.04915 0.98602 0.82505
 C1828 C -0.06163 0.98934 0.80014
 C1829 C -0.08732 1.00253 0.79886
 N1830 N -0.09946 1.01108 0.82295
 N1831 N -0.09950 1.01599 0.87166
 C1832 C -0.08721 1.01226 0.89662
 C1833 C -0.06124 0.99970 0.89773
 N1834 N -0.04897 0.99134 0.87368
 H1835 H -0.05185 0.98128 0.78162
 H1836 H -0.09749 1.01932 0.91530
 C1837 C 0.40518 0.50465 0.36324
 C1838 C 0.42785 0.48709 0.36629
 N1839 N 0.43876 0.47432 0.34376
 C1840 C 0.42825 0.47866 0.31812
 C1841 C 0.40631 0.49726 0.31472
 N1842 N 0.39498 0.50937 0.33759
 N1843 N 0.39402 0.51703 0.38591
 C1844 C 0.40500 0.51320 0.41148
 C1845 C 0.42853 0.49662 0.41436
 N1846 N 0.43915 0.48375 0.39163
 H1847 H 0.43692 0.46766 0.30060
 H1848 H 0.39620 0.52401 0.42907
 C1849 C 0.58931 0.00778 0.33507
 C1850 C 0.56118 0.01324 0.33631
 N1851 N 0.54675 0.01558 0.31240
 C1852 C 0.55931 0.01283 0.28718
 C1853 C 0.58761 0.00735 0.28594
 N1854 N 0.60173 0.00519 0.31011
 N1855 N 0.60394 0.00551 0.35877
 C1856 C 0.59155 0.00816 0.38394
 C1857 C 0.56327 0.01344 0.38539
 N1858 N 0.54877 0.01594 0.36144
 H1859 H 0.54745 0.01572 0.26855
 H1860 H 0.60361 0.00585 0.40257
 C1861 C 0.09265 0.49156 0.85051
 C1862 C 0.06972 0.50887 0.85353
 N1863 N 0.05993 0.52251 0.83102
 C1864 C 0.07193 0.51948 0.80560
 C1865 C 0.09446 0.50149 0.80230
 N1866 N 0.10440 0.48827 0.82511
 N1867 N 0.10301 0.47855 0.87307
 C1868 C 0.09137 0.48186 0.89856
 C1869 C 0.06803 0.49878 0.90170
 N1870 N 0.05777 0.51192 0.87895
 H1871 H 0.06411 0.53120 0.78821
 H1872 H 0.10001 0.47094 0.91608
 C1873 C 0.09116 0.49660 0.64832
 C1874 C 0.06446 0.48587 0.64754
 N1875 N 0.05174 0.47840 0.67151
 C1876 C 0.06430 0.48148 0.69635
 C1877 C 0.09090 0.49287 0.69750
 N1878 N 0.10380 0.49983 0.67321
 N1879 N 0.10381 0.50401 0.62419
 C1880 C 0.09086 0.50146 0.59938
 C1881 C 0.06386 0.49112 0.59859
 N1882 N 0.05146 0.48346 0.62286
 H1883 H 0.05357 0.47468 0.71486
 H1884 H 0.10140 0.50785 0.58056
 C1885 C 0.56578 0.98308 0.15011
 C1886 C 0.57973 0.99442 0.12718
 N1887 N 0.60322 1.00888 0.13128
 C1888 C 0.61331 1.01260 0.15731
 C1889 C 0.59907 1.00161 0.18037
 N1890 N 0.57564 0.98704 0.17600
 N1891 N 0.54227 0.96875 0.14625
 C1892 C 0.53176 0.96552 0.12046
 C1893 C 0.54524 0.97740 0.09734
 N1894 N 0.56912 0.99147 0.10132
 H1895 H 0.63176 1.02466 0.15989
 H1896 H 0.51278 0.95421 0.11819
 C1897 C 0.42128 0.49193 0.16403
 C1898 C 0.44774 0.50332 0.16243
 N1899 N 0.45837 0.51596 0.18502
 C1900 C 0.44386 0.51748 0.20920
 C1901 C 0.41740 0.50589 0.21090
 N1902 N 0.40674 0.49355 0.18809
 N1903 N 0.41061 0.47919 0.14158
 C1904 C 0.42509 0.47745 0.11747
 C1905 C 0.45154 0.48909 0.11556
 N1906 N 0.46225 0.50176 0.13825
 H1907 H 0.45286 0.52778 0.22682
 H1908 H 0.41581 0.46729 0.09990
 C1909 C -0.08971 0.01263 0.64546
 C1910 C -0.06461 0.02668 0.64338
 N1911 N -0.05265 0.03654 0.66660
 C1912 C -0.06428 0.03247 0.69199
 C1913 C -0.08892 0.01736 0.69446
 N1914 N -0.10125 0.00822 0.67090
 N1915 N -0.10160 0.00279 0.62209
 C1916 C -0.08925 0.00591 0.59680
 C1917 C -0.06359 0.01915 0.59481
 N1918 N -0.05211 0.02943 0.61828
 H1919 H -0.05421 0.04102 0.70991
 H1920 H -0.09897 -0.00266 0.57863
 C1921 C -0.15186 0.90866 1.00830
 C1922 C -0.15011 0.93518 0.99654
 N1923 N -0.17316 0.94796 0.98756
 C1924 C -0.19797 0.93536 0.98981
 C1925 C -0.19991 0.90889 1.00201
 N1926 N -0.17658 0.89615 1.01063
 N1927 N -0.12873 0.89551 1.01652
 C1928 C -0.10383 0.90778 1.01359
 C1929 C -0.10201 0.93448 1.00197
 N1930 N -0.12532 0.94751 0.99376
 H1931 H -0.21579 0.94562 0.98144
 H1932 H -0.08575 0.89690 1.02053
 C1933 C 0.34567 0.41833 0.52596
 C1934 C 0.34806 0.44184 0.50889
 N1935 N 0.32694 0.44928 0.49239
 C1936 C 0.30350 0.43420 0.49209
 C1937 C 0.30092 0.41061 0.50918
 N1938 N 0.32221 0.40327 0.52576
 N1939 N 0.36713 0.41053 0.54191
 C1940 C 0.39098 0.42506 0.54138
 C1941 C 0.39348 0.44854 0.52413
 N1942 N 0.37179 0.45639 0.50842
 H1943 H 0.28709 0.44032 0.47839
 H1944 H 0.40784 0.41823 0.55415
 C1945 C 0.34692 0.56215 0.01278
 C1946 C 0.36978 0.57888 0.00692
 N1947 N 0.36602 0.60543 -0.00144
 C1948 C 0.34039 0.61596 -0.00440
 C1949 C 0.31739 0.59905 0.00079
 N1950 N 0.32136 0.57254 0.00951
 N1951 N 0.35064 0.53571 0.02143
 C1952 C 0.37623 0.52506 0.02417
 C1953 C 0.39924 0.54153 0.01767
 N1954 N 0.39536 0.56818 0.00930
 H1955 H 0.33791 0.63728 -0.01087
 H1956 H 0.37848 0.50375 0.03076
 C1957 C -0.15046 0.09672 0.48534
 C1958 C -0.14702 0.07224 0.50054
 N1959 N -0.16894 0.06005 0.51297
 C1960 C -0.19436 0.07118 0.51074
 C1961 C -0.19824 0.09544 0.49478
 N1962 N -0.17581 0.10770 0.48288
 N1963 N -0.12836 0.10927 0.47349
 C1964 C -0.10288 0.09819 0.47596
 C1965 C -0.09951 0.07332 0.49075
 N1966 N -0.12176 0.06105 0.50273
 H1967 H -0.21128 0.06143 0.52166
 H1968 H -0.08563 0.10838 0.46603
 C1969 C 0.65209 0.09170 0.49246
 C1970 C 0.65111 0.06378 0.48469
 N1971 N 0.67460 0.05032 0.47828
 C1972 C 0.69922 0.06327 0.47964
 C1973 C 0.70069 0.09134 0.48787
 N1974 N 0.67673 0.10485 0.49374
 N1975 N 0.62842 0.10501 0.49910
 C1976 C 0.60388 0.09158 0.49844
 C1977 C 0.60289 0.06348 0.49073
 N1978 N 0.62669 0.05040 0.48392
 H1979 H 0.71709 0.05150 0.47375
 H1980 H 0.58538 0.10274 0.50388
 C1981 C 0.16533 0.58346 0.99745
 C1982 C 0.16527 0.55444 0.99628
 N1983 N 0.18951 0.54071 0.99561
 C1984 C 0.21378 0.55461 0.99619
 C1985 C 0.21396 0.58382 0.99761
 N1986 N 0.18949 0.59735 0.99804
 N1987 N 0.14125 0.59736 0.99824
 C1988 C 0.11702 0.58357 0.99825
 C1989 C 0.11669 0.55439 0.99749
 N1990 N 0.14100 0.54049 0.99631
 H1991 H 0.23249 0.54275 0.99527
 H1992 H 0.09817 0.59536 0.99905
 C1993 C 0.15211 0.40762 0.49570
 C1994 C 0.14800 0.43242 0.51021
 N1995 N 0.16864 0.44338 0.52521
 C1996 C 0.19354 0.43100 0.52593
 C1997 C 0.19822 0.40665 0.51059
 N1998 N 0.17714 0.39531 0.49612
 N1999 N 0.13113 0.39663 0.48098
 C2000 C 0.10629 0.40945 0.48004
 C2001 C 0.10240 0.43460 0.49418
 N2002 N 0.12345 0.44530 0.50901
 H2003 H 0.20945 0.44022 0.53834
 H2004 H 0.08992 0.40028 0.46816
 C2005 C 0.64944 0.90291 -0.00746
 C2006 C 0.64472 0.92818 0.00606
 N2007 N 0.66557 0.94089 0.01934
 C2008 C 0.69111 0.92975 0.01933
 C2009 C 0.69622 0.90478 0.00512
 N2010 N 0.67501 0.89182 -0.00766
 N2011 N 0.62846 0.89016 -0.02060
 C2012 C 0.60301 0.90162 -0.02096
 C2013 C 0.59830 0.92716 -0.00772
 N2014 N 0.61940 0.93972 0.00556
 H2015 H 0.70712 0.94036 0.03043
 H2016 H 0.58672 0.89099 -0.03169
 C2017 C 0.00789 0.84448 0.90791
 C2018 C 0.00167 0.84453 0.93635
 N2019 N -0.00167 0.82013 0.95001
 C2020 C 0.00075 0.79558 0.93644
 C2021 C 0.00685 0.79544 0.90778
 N2022 N 0.01016 0.82011 0.89439
 N2023 N 0.01087 0.86879 0.89406
 C2024 C 0.00794 0.89332 0.90745
 C2025 C 0.00161 0.89352 0.93601
 N2026 N -0.00133 0.86899 0.94976
 H2027 H -0.00301 0.77670 0.94788
 H2028 H 0.01056 0.91239 0.89588
 C2029 C 0.47261 0.35113 0.43583
 C2030 C 0.48991 0.35240 0.45893
 N2031 N 0.50630 0.33046 0.46487
 C2032 C 0.50660 0.30758 0.44840
 C2033 C 0.48983 0.30662 0.42478
 N2034 N 0.47312 0.32850 0.41941
 N2035 N 0.45720 0.37337 0.42883
 C2036 C 0.45878 0.39721 0.44349
 C2037 C 0.47662 0.39893 0.46612
 N2038 N 0.49159 0.37633 0.47361
 H2039 H 0.52058 0.29082 0.45298
 H2040 H 0.44691 0.41500 0.43700
 C2041 C 0.00349 0.33485 0.57408
 C2042 C -0.00311 0.35860 0.58954
 N2043 N -0.01029 0.35606 0.61665
 C2044 C -0.01124 0.33083 0.62906
 C2045 C -0.00485 0.30688 0.61367
 N2046 N 0.00246 0.30954 0.58643
 N2047 N 0.01080 0.33752 0.54697
 C2048 C 0.01170 0.36284 0.53458
 C2049 C 0.00490 0.38667 0.54998
 N2050 N -0.00232 0.38384 0.57718
 H2051 H -0.01694 0.32938 0.65079
 H2052 H 0.01749 0.36425 0.51287
 C2053 C 0.50451 0.82211 0.06748
 C2054 C 0.50100 0.84634 0.08314
 N2055 N 0.49914 0.84477 0.11119
 C2056 C 0.50028 0.81994 0.12433
 C2057 C 0.50302 0.79552 0.10868
 N2058 N 0.50527 0.79729 0.08056
 N2059 N 0.50664 0.82377 0.03943
 C2060 C 0.50527 0.84863 0.02628
 C2061 C 0.50124 0.87284 0.04193
 N2062 N 0.49927 0.87105 0.07003
 H2063 H 0.49850 0.81912 0.14674
 H2064 H 0.50693 0.84939 0.00386
 C2065 C 0.50635 0.64231 0.10206
 C2066 C 0.49605 0.64134 0.07495
 N2067 N 0.48749 0.66496 0.06253
 C2068 C 0.48905 0.68963 0.07581
 C2069 C 0.49985 0.69093 0.10287
 N2070 N 0.50795 0.66701 0.11545
 N2071 N 0.51491 0.61855 0.11438
 C2072 C 0.51381 0.59394 0.10074
 C2073 C 0.50371 0.59297 0.07342
 N2074 N 0.49497 0.61685 0.06132
 H2075 H 0.48152 0.70790 0.06536
 H2076 H 0.52095 0.57541 0.11107
 C2077 C -0.00594 0.17267 0.57218
 C2078 C 0.00265 0.14938 0.58729
 N2079 N 0.01079 0.15254 0.61398
 C2080 C 0.01046 0.17784 0.62636
 C2081 C 0.00158 0.20122 0.61140
 N2082 N -0.00624 0.19794 0.58450
 N2083 N -0.01415 0.16959 0.54554
 C2084 C -0.01413 0.14431 0.53322
 C2085 C -0.00548 0.12080 0.54819
 N2086 N 0.00274 0.12404 0.57500
 H2087 H 0.01730 0.17960 0.64758
 H2088 H -0.02074 0.14268 0.51190
 C2089 C 0.51084 0.16952 0.42968
 C2090 C 0.50058 0.14960 0.41130
 N2091 N 0.49011 0.15803 0.38660
 C2092 C 0.48928 0.18540 0.37961
 C2093 C 0.49894 0.20535 0.39840
 N2094 N 0.50956 0.19672 0.42294
 N2095 N 0.52153 0.16148 0.45422
 C2096 C 0.52204 0.13442 0.46162
 C2097 C 0.51092 0.11421 0.44386
 N2098 N 0.50063 0.12235 0.41884
 H2099 H 0.48045 0.19152 0.36000
 H2100 H 0.53060 0.12890 0.48154
 C2101 C 0.02179 0.65837 0.92949
 C2102 C 0.00857 0.63678 0.91550
 N2103 N -0.00510 0.64243 0.89168
 C2104 C -0.00630 0.66870 0.88137
 C2105 C 0.00644 0.69042 0.89576
 N2106 N 0.02026 0.68452 0.91946
 N2107 N 0.03546 0.65301 0.95325
 C2108 C 0.03615 0.62708 0.96405
 C2109 C 0.02221 0.60538 0.95070
 N2110 N 0.00891 0.61078 0.92647
 H2111 H -0.01776 0.67262 0.86264
 H2112 H 0.04704 0.62364 0.98325
 C2113 C 0.23772 0.68141 0.90871
 C2114 C 0.24339 0.66395 0.88608
 N2115 N 0.25053 0.63726 0.89078
 C2116 C 0.25313 0.62739 0.91706
 C2117 C 0.24904 0.64511 0.93988
 N2118 N 0.24099 0.67175 0.93515
 N2119 N 0.23060 0.70815 0.90377
 C2120 C 0.22938 0.71832 0.87736
 C2121 C 0.23629 0.70118 0.85472
 N2122 N 0.24289 0.67426 0.85980
 H2123 H 0.25961 0.60618 0.92015
 H2124 H 0.22409 0.73984 0.87415
 C2125 C 0.72670 0.18709 0.41283
 C2126 C 0.73358 0.16975 0.39039
 N2127 N 0.74100 0.14325 0.39546
 C2128 C 0.74301 0.13358 0.42186
 C2129 C 0.73799 0.15133 0.44469
 N2130 N 0.72922 0.17763 0.43946
 N2131 N 0.71960 0.21373 0.40761
 C2132 C 0.71964 0.22396 0.38123
 C2133 C 0.72775 0.20700 0.35875
 N2134 N 0.73418 0.18007 0.36403
 H2135 H 0.74970 0.11245 0.42508
 H2136 H 0.71426 0.24545 0.37801
 C2137 C 0.25024 0.34969 0.40121
 C2138 C 0.24296 0.32165 0.40048
 N2139 N 0.23552 0.30854 0.42442
 C2140 C 0.23562 0.32211 0.44920
 C2141 C 0.24428 0.34979 0.45011
 N2142 N 0.25114 0.36291 0.42594
 N2143 N 0.25730 0.36301 0.37733
 C2144 C 0.25775 0.34943 0.35266
 C2145 C 0.25156 0.32105 0.35194
 N2146 N 0.24414 0.30786 0.37595
 H2147 H 0.23041 0.31103 0.46809
 H2148 H 0.26365 0.36047 0.33394
 C2149 C 0.75157 0.84641 0.89630
 C2150 C 0.74567 0.81805 0.89591
 N2151 N 0.73771 0.80517 0.91984
 C2152 C 0.73608 0.81929 0.94431
 C2153 C 0.74339 0.84737 0.94493
 N2154 N 0.75066 0.86020 0.92072
 N2155 N 0.75930 0.85950 0.87251
 C2156 C 0.76163 0.84544 0.84822
 C2157 C 0.75664 0.81681 0.84779
 N2158 N 0.74859 0.80381 0.87174
 H2159 H 0.73072 0.80837 0.96325
 H2160 H 0.76782 0.85639 0.82955
 C2161 C 0.75642 0.81497 0.08759
 C2162 C 0.72918 0.81158 0.09655
 N2163 N 0.70857 0.81941 0.07934
 C2164 C 0.71401 0.83112 0.05401
 C2165 C 0.74138 0.83564 0.04562
 N2166 N 0.76174 0.82689 0.06267
 N2167 N 0.77725 0.80828 0.10473
 C2168 C 0.77217 0.79884 0.13079
 C2169 C 0.74505 0.79608 0.14034
 N2170 N 0.72396 0.80220 0.12288
 H2171 H 0.69716 0.83819 0.04139
 H2172 H 0.78922 0.79411 0.14424
 C2173 C 0.25439 0.30691 0.58734
 C2174 C 0.22715 0.30619 0.59704
 N2175 N 0.20736 0.31893 0.58196
 C2176 C 0.21366 0.33284 0.55804
 C2177 C 0.24115 0.33472 0.54909
 N2178 N 0.26072 0.32134 0.56397
 N2179 N 0.27439 0.29471 0.60240
 C2180 C 0.26857 0.28236 0.62709
 C2181 C 0.24162 0.28253 0.63752
 N2182 N 0.22133 0.29434 0.62217
 H2183 H 0.19757 0.34360 0.54710
 H2184 H 0.28506 0.27351 0.63912
 C2185 C 0.74642 0.15580 0.59407
 C2186 C 0.72784 0.17771 0.59613
 N2187 N 0.71335 0.18521 0.57317
 C2188 C 0.71704 0.17208 0.54819
 C2189 C 0.73705 0.15115 0.54575
 N2190 N 0.75077 0.14366 0.56918
 N2191 N 0.76036 0.14724 0.61677
 C2192 C 0.75689 0.15993 0.64165
 C2193 C 0.73931 0.18278 0.64382
 N2194 N 0.72500 0.19123 0.62092
 H2195 H 0.70554 0.17896 0.53036
 H2196 H 0.76849 0.15286 0.65938
 C2197 C 0.25930 0.68845 0.07987
 C2198 C 0.23668 0.67916 0.09548
 N2199 N 0.21887 0.66104 0.08370
 C2200 C 0.22315 0.65121 0.05743
 C2201 C 0.24670 0.65934 0.04246
 N2202 N 0.26395 0.67804 0.05415
 N2203 N 0.27725 0.70642 0.09125
 C2204 C 0.27385 0.71546 0.11770
 C2205 C 0.25177 0.70565 0.13398
 N2206 N 0.23350 0.68771 0.12235
 H2207 H 0.20942 0.63578 0.04912
 H2208 H 0.28871 0.72968 0.12617
 C2209 C 0.19108 0.58048 0.75485
 C2210 C 0.18605 0.59653 0.73113
 N2211 N 0.16976 0.58622 0.71083
 C2212 C 0.15760 0.56093 0.71361
 C2213 C 0.16124 0.54566 0.73817
 N2214 N 0.17820 0.55580 0.75803
 N2215 N 0.20734 0.59057 0.77517
 C2216 C 0.21847 0.61628 0.77313
 C2217 C 0.21241 0.63308 0.75009
 N2218 N 0.19647 0.62262 0.72945
 H2219 H 0.14379 0.55370 0.69773
 H2220 H 0.23101 0.62393 0.78988
 C2221 C 0.65710 0.10716 0.24536
 C2222 C 0.68185 0.10939 0.23068
 N2223 N 0.69100 0.08734 0.21565
 C2224 C 0.67671 0.06299 0.21516
 C2225 C 0.65257 0.06038 0.23124
 N2226 N 0.64357 0.08294 0.24549
 N2227 N 0.64712 0.12899 0.25984
 C2228 C 0.66104 0.15320 0.26058
 C2229 C 0.68633 0.15538 0.24680
 N2230 N 0.69627 0.13346 0.23197
 H2231 H 0.68492 0.04574 0.20352
 H2232 H 0.65273 0.17042 0.27227
 C2233 C 0.82120 0.08744 0.75817
 C2234 C 0.80741 0.09142 0.73306
 N2235 N 0.80953 0.07173 0.71302
 C2236 C 0.82521 0.04861 0.71678
 C2237 C 0.83970 0.04498 0.74186
 N2238 N 0.83663 0.06459 0.76184
 N2239 N 0.82013 0.10706 0.77811
 C2240 C 0.80617 0.13088 0.77397
 C2241 C 0.79256 0.13536 0.74877
 N2242 N 0.79313 0.11533 0.72882
 H2243 H 0.82642 0.03379 0.70011
 H2244 H 0.80582 0.14631 0.79022
 C2245 C 0.31672 0.58587 0.23414
 C2246 C 0.33220 0.60954 0.24032
 N2247 N 0.35801 0.60676 0.25002
 C2248 C 0.36891 0.58135 0.25457
 C2249 C 0.35317 0.55749 0.24967
 N2250 N 0.32748 0.56028 0.23904
 N2251 N 0.29066 0.58899 0.22488
 C2252 C 0.27920 0.61461 0.22217
 C2253 C 0.29435 0.63826 0.22953
 N2254 N 0.32065 0.63493 0.23809
 H2255 H 0.38946 0.57977 0.26270
 H2256 H 0.25817 0.61638 0.21547
 C2257 C 0.34517 0.40696 0.24238
 C2258 C 0.31646 0.40785 0.24214
 N2259 N 0.30357 0.43282 0.24174
 C2260 C 0.31813 0.45690 0.24250
 C2261 C 0.34680 0.45589 0.24436
 N2262 N 0.35953 0.43085 0.24394
 N2263 N 0.35824 0.38222 0.24322
 C2264 C 0.34390 0.35817 0.24425
 C2265 C 0.31508 0.35883 0.24513
 N2266 N 0.30202 0.38379 0.24377
 H2267 H 0.30740 0.47648 0.24368
 H2268 H 0.35498 0.33879 0.24515
 C2269 C 0.85165 0.90106 0.74035
 C2270 C 0.82346 0.90179 0.73500
 N2271 N 0.81138 0.92637 0.72868
 C2272 C 0.82611 0.95037 0.72827
 C2273 C 0.85400 0.94976 0.73518
 N2274 N 0.86603 0.92496 0.74070
 N2275 N 0.86394 0.87670 0.74662
 C2276 C 0.84927 0.85288 0.74805
 C2277 C 0.82085 0.85352 0.74365
 N2278 N 0.80860 0.87804 0.73703
 H2279 H 0.81582 0.96982 0.72436
 H2280 H 0.85962 0.83374 0.75319
 C2281 C 0.66071 0.91228 0.23526
 C2282 C 0.68865 0.91228 0.22832
 N2283 N 0.70113 0.93670 0.22172
 C2284 C 0.68702 0.96113 0.22257
 C2285 C 0.65940 0.96105 0.23096
 N2286 N 0.64700 0.93645 0.23653
 N2287 N 0.64801 0.88840 0.24248
 C2288 C 0.66213 0.86433 0.24375
 C2289 C 0.69041 0.86412 0.23787
 N2290 N 0.70301 0.88814 0.22980
 H2291 H 0.69752 0.98040 0.21818
 H2292 H 0.65139 0.84564 0.24984
 C2293 C 0.15728 0.39747 0.74007
 C2294 C 0.18450 0.39754 0.73040
 N2295 N 0.19668 0.42221 0.72426
 C2296 C 0.18304 0.44666 0.72791
 C2297 C 0.15628 0.44647 0.73897
 N2298 N 0.14410 0.42173 0.74445
 N2299 N 0.14473 0.37321 0.74608
 C2300 C 0.15830 0.34888 0.74367
 C2301 C 0.18613 0.34860 0.73548
 N2302 N 0.19853 0.37311 0.72859
 H2303 H 0.19333 0.46603 0.72342
 H2304 H 0.14759 0.32998 0.74906
 C2305 C 0.08474 0.73268 0.80092
 C2306 C 0.10675 0.72828 0.81905
 N2307 N 0.10207 0.72653 0.84676
 C2308 C 0.07649 0.72997 0.85734
 C2309 C 0.05467 0.73629 0.83952
 N2310 N 0.05916 0.73705 0.81156
 N2311 N 0.08972 0.73436 0.77314
 C2312 C 0.11575 0.73258 0.76281
 C2313 C 0.13785 0.72993 0.78117
 N2314 N 0.13266 0.72751 0.80885
 H2315 H 0.07340 0.72930 0.87963
 H2316 H 0.11925 0.73472 0.74068
 C2317 C 0.58219 0.25800 0.31646
 C2318 C 0.60497 0.26274 0.33349
 N2319 N 0.60113 0.26766 0.36089
 C2320 C 0.57554 0.26866 0.37203
 C2321 C 0.55247 0.26496 0.35499
 N2322 N 0.55640 0.25925 0.32753
 N2323 N 0.58628 0.25289 0.28903
 C2324 C 0.61202 0.25247 0.27787
 C2325 C 0.63486 0.25768 0.29484
 N2326 N 0.63060 0.26258 0.32234
 H2327 H 0.57326 0.27254 0.39405
 H2328 H 0.61457 0.24840 0.25591
 C2329 C 0.58320 0.75215 0.20200
 C2330 C 0.60191 0.73224 0.19243
 N2331 N 0.59293 0.71192 0.17521
 C2332 C 0.56640 0.71131 0.16635
 C2333 C 0.54817 0.73234 0.17458
 N2334 N 0.55714 0.75194 0.19258
 N2335 N 0.59185 0.77280 0.21871
 C2336 C 0.61849 0.77471 0.22622
 C2337 C 0.63774 0.75538 0.21615
 N2338 N 0.62887 0.73433 0.19955
 H2339 H 0.56027 0.69601 0.15125
 H2340 H 0.62465 0.79158 0.23952
 C2341 C 0.08554 0.23614 0.68053
 C2342 C 0.08896 0.24772 0.70698
 N2343 N 0.06670 0.25749 0.72099
 C2344 C 0.04133 0.25686 0.70941
 C2345 C 0.03806 0.24607 0.68259
 N2346 N 0.06034 0.23585 0.66890
 N2347 N 0.10774 0.22718 0.66605
 C2348 C 0.13333 0.22944 0.67666
 C2349 C 0.13708 0.24151 0.70296
 N2350 N 0.11461 0.25016 0.71761
 H2351 H 0.02417 0.26613 0.72032
 H2352 H 0.15056 0.22207 0.66449
 C2353 C 0.88996 0.24104 0.66262
 C2354 C 0.88738 0.22734 0.68817
 N2355 N 0.91030 0.21879 0.70161
 C2356 C 0.93577 0.22394 0.69089
 C2357 C 0.93836 0.23891 0.66597
 N2358 N 0.91523 0.24669 0.65235
 N2359 N 0.86723 0.24994 0.64923
 C2360 C 0.84190 0.24639 0.66059
 C2361 C 0.83919 0.23387 0.68687
 N2362 N 0.86212 0.22430 0.69984
 H2363 H 0.95369 0.21761 0.70237
 H2364 H 0.82423 0.25432 0.64972
 C2365 C 0.39895 0.73894 0.16400
 C2366 C 0.39601 0.72629 0.19004
 N2367 N 0.41853 0.71539 0.20259
 C2368 C 0.44395 0.71728 0.19053
 C2369 C 0.44699 0.73123 0.16505
 N2370 N 0.42415 0.74121 0.15239
 N2371 N 0.37690 0.75029 0.15140
 C2372 C 0.35187 0.75009 0.16388
 C2373 C 0.34873 0.73831 0.19046
 N2374 N 0.37097 0.72633 0.20280
 H2375 H 0.46165 0.70934 0.20134
 H2376 H 0.33476 0.75957 0.15332
 C2377 C 0.40191 0.25620 0.34194
 C2378 C 0.40281 0.25610 0.31285
 N2379 N 0.42761 0.25641 0.29962
 C2380 C 0.45147 0.25751 0.31424
 C2381 C 0.45039 0.25895 0.34334
 N2382 N 0.42552 0.25789 0.35631
 N2383 N 0.37745 0.25605 0.35544
 C2384 C 0.35360 0.25609 0.34120
 C2385 C 0.35412 0.25678 0.31199
 N2386 N 0.37888 0.25658 0.29845
 H2387 H 0.47090 0.25869 0.30328
 H2388 H 0.33444 0.25614 0.35268
 C2389 C 0.90531 0.75253 0.83766
 C2390 C 0.90508 0.74536 0.80950
 N2391 N 0.92875 0.73694 0.79695
 C2392 C 0.95276 0.73594 0.81126
 C2393 C 0.95309 0.74428 0.83915
 N2394 N 0.92919 0.75208 0.85159
 N2395 N 0.88185 0.76066 0.85051
 C2396 C 0.85796 0.76207 0.83640
 C2397 C 0.85761 0.75553 0.80801
 N2398 N 0.88126 0.74722 0.79519
 H2399 H 0.97148 0.72995 0.80069
 H2400 H 0.83951 0.76857 0.84718
   
