data_POSCAR
  _audit_creation_date              2014-09-24
  _audit_creation_method            'ToBaCCo'
  _symmetry_space_group_name_H-M    'P1'
  _symmetry_Int_Tables_number       1
  _symmetry_cell_setting            triclinic
  loop_
  _symmetry_equiv_pos_as_xyz
 x,y,z
_cell_length_a 67.4197
_cell_length_b 61.8179
_cell_length_c 63.6917
_cell_angle_alpha 91.165200
_cell_angle_beta 89.718700
_cell_angle_gamma 89.467100
loop_
  _atom_site_label
  _atom_site_type_symbol
  _atom_site_fract_x
  _atom_site_fract_y
  _atom_site_fract_z
C1 C 0.39298 0.34446 0.35474
 C2 C 0.38268 0.33063 0.36812
 C3 C 0.36414 0.33667 0.37685
 C4 C 0.35654 0.35750 0.37310
 C5 C 0.36691 0.37183 0.36027
 C6 C 0.38484 0.36497 0.35089
 H7 H 0.38904 0.31499 0.37167
 H8 H 0.34234 0.36239 0.37973
 H9 H 0.39204 0.37537 0.33978
 C10 C 0.34490 0.83580 -0.16143
 C11 C 0.33139 0.82880 -0.14607
 C12 C 0.31232 0.83805 -0.14405
 C13 C 0.30682 0.85493 -0.15740
 C14 C 0.32000 0.86260 -0.17276
 C15 C 0.33896 0.85288 -0.17437
 H16 H 0.33536 0.81564 -0.13597
 H17 H 0.29181 0.86122 -0.15645
 H18 H 0.34984 0.85990 -0.18463
 C19 C 0.85589 0.35362 -0.15105
 C20 C 0.85042 0.34148 -0.13369
 C21 C 0.83122 0.34259 -0.12531
 C22 C 0.81707 0.35554 -0.13533
 C23 C 0.82147 0.36655 -0.15411
 C24 C 0.84137 0.36576 -0.16152
 H25 H 0.86133 0.33078 -0.12692
 H26 H 0.80275 0.35759 -0.12784
 H27 H 0.84570 0.37390 -0.17565
 C28 C 0.89135 0.80916 0.34797
 C29 C 0.88395 0.82901 0.34113
 C30 C 0.86512 0.83697 0.34744
 C31 C 0.85340 0.82390 0.36045
 C32 C 0.86073 0.80397 0.36778
 C33 C 0.87980 0.79689 0.36149
 H34 H 0.89259 0.83764 0.32970
 H35 H 0.83884 0.82944 0.36546
 H36 H 0.88591 0.78195 0.36739
 C37 C 0.62953 0.68107 0.34169
 C38 C 0.64137 0.68467 0.35955
 C39 C 0.65586 0.66953 0.36542
 C40 C 0.65895 0.65090 0.35280
 C41 C 0.64756 0.64701 0.33476
 C42 C 0.63276 0.66210 0.32945
 H43 H 0.63916 0.69916 0.36913
 H44 H 0.67020 0.63924 0.35716
 H45 H 0.62372 0.65896 0.31577
 C46 C 0.62520 0.14531 -0.15048
 C47 C 0.63378 0.12488 -0.15425
 C48 C 0.65043 0.11775 -0.14299
 C49 C 0.65843 0.13166 -0.12745
 C50 C 0.64964 0.15203 -0.12287
 C51 C 0.63330 0.15882 -0.13486
 H52 H 0.62818 0.11506 -0.16715
 H53 H 0.67073 0.12606 -0.11808
 H54 H 0.62671 0.17464 -0.13200
 C55 C 0.09873 0.63505 -0.16744
 C56 C 0.10784 0.64422 -0.14977
 C57 C 0.12658 0.63691 -0.14314
 C58 C 0.13642 0.62034 -0.15485
 C59 C 0.12734 0.61061 -0.17263
 C60 C 0.10866 0.61866 -0.17880
 H61 H 0.10025 0.65711 -0.14113
 H62 H 0.15053 0.61430 -0.14931
 H63 H 0.10205 0.61303 -0.19334
 C64 C 0.14709 0.16982 0.31538
 C65 C 0.15503 0.14883 0.31233
 C66 C 0.16887 0.14025 0.32646
 C67 C 0.17425 0.15273 0.34418
 C68 C 0.16647 0.17368 0.34768
 C69 C 0.15311 0.18214 0.33300
 H70 H 0.15021 0.13898 0.29910
 H71 H 0.18470 0.14614 0.35523
 H72 H 0.14776 0.19861 0.33500
 C73 C 0.64582 0.31023 0.63516
 C74 C 0.65031 0.33047 0.64422
 C75 C 0.66562 0.34319 0.63612
 C76 C 0.67659 0.33558 0.61862
 C77 C 0.67189 0.31563 0.60904
 C78 C 0.65696 0.30287 0.61776
 H79 H 0.64156 0.33672 0.65733
 H80 H 0.68791 0.34565 0.61182
 H81 H 0.65394 0.28717 0.61069
 C82 C 0.62721 0.85423 1.16213
 C83 C 0.63370 0.85095 1.14106
 C84 C 0.65343 0.85436 1.13532
 C85 C 0.66720 0.86011 1.15059
 C86 C 0.66149 0.86365 1.17158
 C87 C 0.64134 0.86161 1.17709
 H88 H 0.62391 0.84476 1.12902
 H89 H 0.68252 0.86231 1.14585
 H90 H 0.63701 0.86504 1.19320
 C91 C 0.14881 0.36652 1.17118
 C92 C 0.15462 0.35881 1.15110
 C93 C 0.17467 0.35486 1.14603
 C94 C 0.18931 0.36226 1.16001
 C95 C 0.18382 0.37156 1.17949
 C96 C 0.16372 0.37273 1.18536
 H97 H 0.14344 0.35368 1.14001
 H98 H 0.20488 0.35981 1.15638
 H99 H 0.15976 0.37926 1.20075
 C100 C 0.12509 0.83851 0.69331
 C101 C 0.13406 0.85661 0.70285
 C102 C 0.14922 0.86806 0.69298
 C103 C 0.15429 0.86248 0.67214
 C104 C 0.14480 0.84520 0.66157
 C105 C 0.13037 0.83324 0.67238
 H106 H 0.12887 0.86233 0.71809
 H107 H 0.16572 0.87144 0.66424
 H108 H 0.12422 0.81899 0.66486
 C109 C 0.33774 0.68562 0.67909
 C110 C 0.33382 0.70095 0.66359
 C111 C 0.31774 0.69849 0.64980
 C112 C 0.30570 0.68015 0.65152
 C113 C 0.30921 0.66465 0.66696
 C114 C 0.32529 0.66764 0.68065
 H115 H 0.34322 0.71496 0.66239
 H116 H 0.29335 0.67810 0.64093
 H117 H 0.32813 0.65599 0.69271
 C118 C 0.36919 0.17041 1.17377
 C119 C 0.36460 0.15067 1.18352
 C120 C 0.34772 0.13880 1.17784
 C121 C 0.33539 0.14665 1.16203
 C122 C 0.33865 0.16678 1.15301
 C123 C 0.35563 0.17845 1.15880
 H124 H 0.37435 0.14400 1.19516
 H125 H 0.32307 0.13695 1.15664
 H126 H 0.35758 0.19432 1.15234
 C127 C 0.85015 0.66978 1.16612
 C128 C 0.84575 0.68638 1.15186
 C129 C 0.82778 0.68684 1.14076
 C130 C 0.81372 0.67071 1.14442
 C131 C 0.81731 0.65431 1.15881
 C132 C 0.83546 0.65401 1.16955
 H133 H 0.85656 0.69861 1.14854
 H134 H 0.79993 0.67073 1.13584
 H135 H 0.83782 0.64147 1.18082
 C136 C 0.84824 0.19827 0.68924
 C137 C 0.83743 0.18483 0.70267
 C138 C 0.82624 0.16716 0.69492
 C139 C 0.82419 0.16504 0.67291
 C140 C 0.83403 0.17895 0.65918
 C141 C 0.84676 0.19474 0.66747
 H142 H 0.83832 0.18794 0.71934
 H143 H 0.81527 0.15240 0.66606
 H144 H 0.85471 0.20509 0.65687
 C145 C 0.35189 0.36454 0.65241
 C146 C 0.37043 0.35941 0.66108
 C147 C 0.38056 0.34027 0.65537
 C148 C 0.37170 0.32587 0.64099
 C149 C 0.35271 0.33005 0.63283
 C150 C 0.34297 0.34959 0.63854
 H151 H 0.37678 0.37019 0.67279
 H152 H 0.37976 0.31145 0.63594
 H153 H 0.32845 0.35318 0.63225
 C154 C 0.32960 0.84333 0.14178
 C155 C 0.32336 0.83305 0.12303
 C156 C 0.33189 0.81334 0.11618
 C157 C 0.34655 0.80369 0.12850
 C158 C 0.35266 0.81326 0.14756
 C159 C 0.34426 0.83323 0.15398
 H160 H 0.31187 0.84041 0.11366
 H161 H 0.35313 0.78846 0.12326
 H162 H 0.34909 0.84086 0.16850
 C163 C 0.83944 0.37545 0.15469
 C164 C 0.85614 0.37158 0.16722
 C165 C 0.86819 0.35305 0.16383
 C166 C 0.86270 0.33799 0.14800
 C167 C 0.84569 0.34123 0.13569
 C168 C 0.83442 0.36021 0.13903
 H169 H 0.85974 0.38317 0.17953
 H170 H 0.87168 0.32367 0.14518
 H171 H 0.82153 0.36319 0.12942
 C172 C 0.85076 0.89071 0.64505
 C173 C 0.86897 0.88399 0.65350
 C174 C 0.87710 0.86353 0.64861
 C175 C 0.86689 0.84999 0.63453
 C176 C 0.84801 0.85565 0.62708
 C177 C 0.84015 0.87630 0.63198
 H178 H 0.87610 0.89423 0.66514
 H179 H 0.87312 0.83434 0.63011
 H180 H 0.82554 0.88074 0.62642
 C181 C 0.64471 0.63689 0.65624
 C182 C 0.65381 0.65050 0.64179
 C183 C 0.64523 0.67074 0.63707
 C184 C 0.62754 0.67717 0.64748
 C185 C 0.61808 0.66346 0.66161
 C186 C 0.62700 0.64352 0.66609
 H187 H 0.66699 0.64475 0.63358
 H188 H 0.62076 0.69266 0.64423
 H189 H 0.62013 0.63294 0.67731
 C190 C 0.68418 0.12139 0.17848
 C191 C 0.68765 0.13347 0.16025
 C192 C 0.67357 0.14843 0.15309
 C193 C 0.65525 0.15008 0.16347
 C194 C 0.65157 0.13898 0.18205
 C195 C 0.66607 0.12450 0.18941
 H196 H 0.70155 0.13170 0.15185
 H197 H 0.64386 0.16061 0.15730
 H198 H 0.66357 0.11640 0.20408
 C199 C 0.16397 0.60049 0.15693
 C200 C 0.14448 0.60819 0.15945
 C201 C 0.13609 0.62256 0.14527
 C202 C 0.14751 0.62999 0.12851
 C203 C 0.16724 0.62265 0.12562
 C204 C 0.17536 0.60795 0.14003
 H205 H 0.13567 0.60322 0.17276
 H206 H 0.14079 0.64085 0.11741
 H207 H 0.19047 0.60219 0.13803
 C208 C 0.15277 0.16418 0.67384
 C209 C 0.13447 0.17457 0.67776
 C210 C 0.12676 0.18998 0.66393
 C211 C 0.13746 0.19437 0.64543
 C212 C 0.15524 0.18326 0.64073
 C213 C 0.16296 0.16859 0.65518
 H214 H 0.12596 0.17015 0.69143
 H215 H 0.13187 0.20603 0.63442
 H216 H 0.17708 0.16073 0.65181
 C217 C 0.33501 0.66622 0.35774
 C218 C 0.35278 0.66970 0.34678
 C219 C 0.36396 0.68847 0.35044
 C220 C 0.35695 0.70410 0.36511
 C221 C 0.33928 0.70093 0.37649
 C222 C 0.32850 0.68188 0.37260
 H223 H 0.35802 0.65766 0.33545
 H224 H 0.36543 0.71864 0.36778
 H225 H 0.31499 0.67907 0.38127
 C226 C 0.35360 0.14943 0.83441
 C227 C 0.34491 0.15310 0.85429
 C228 C 0.35187 0.16940 0.86795
 C229 C 0.36794 0.18202 0.86170
 C230 C 0.37736 0.17828 0.84221
 C231 C 0.36997 0.16199 0.82866
 H232 H 0.33255 0.14334 0.85918
 H233 H 0.37314 0.19474 0.87216
 H234 H 0.37697 0.15909 0.81356
 C235 C 0.80788 0.63960 0.83094
 C236 C 0.82158 0.64896 0.81722
 C237 C 0.83375 0.66616 0.82405
 C238 C 0.83201 0.67378 0.84501
 C239 C 0.81898 0.66396 0.85906
 C240 C 0.80717 0.64684 0.85194
 H241 H 0.82251 0.64300 0.80116
 H242 H 0.84067 0.68741 0.85048
 H243 H 0.79692 0.63949 0.86277
 C244 C 0.88054 0.11815 0.32570
 C245 C 0.89171 0.13170 0.31294
 C246 C 0.89779 0.15218 0.32024
 C247 C 0.89315 0.15872 0.34097
 C248 C 0.88226 0.14510 0.35410
 C249 C 0.87585 0.12495 0.34623
 H250 H 0.89535 0.12638 0.29707
 H251 H 0.89772 0.17447 0.34679
 H252 H 0.86701 0.11459 0.35601
 C253 C 0.68892 0.34098 0.31893
 C254 C 0.70257 0.33217 0.33299
 C255 C 0.69798 0.31398 0.34481
 C256 C 0.67884 0.30532 0.34324
 C257 C 0.66446 0.31462 0.33011
 C258 C 0.66969 0.33251 0.31790
 H259 H 0.71703 0.33952 0.33444
 H260 H 0.67531 0.29078 0.35160
 H261 H 0.65905 0.33952 0.30726
 C262 C 0.67361 0.84416 0.81110
 C263 C 0.67864 0.83321 0.82948
 C264 C 0.66468 0.82051 0.83990
 C265 C 0.64546 0.81895 0.83175
 C266 C 0.64023 0.82929 0.81313
 C267 C 0.65439 0.84197 0.80293
 H268 H 0.69346 0.83468 0.83576
 H269 H 0.63438 0.80995 0.84018
 H270 H 0.65063 0.84977 0.78839
 C271 C 0.16957 0.35812 0.83057
 C272 C 0.18175 0.35212 0.84727
 C273 C 0.17642 0.33509 0.86049
 C274 C 0.15898 0.32342 0.85607
 C275 C 0.14684 0.32889 0.83898
 C276 C 0.15242 0.34621 0.82642
 H277 H 0.19510 0.36122 0.85032
 H278 H 0.15460 0.31045 0.86620
 H279 H 0.14300 0.35098 0.81360
 C280 C 0.15655 0.84855 0.31639
 C281 C 0.14613 0.83128 0.30704
 C282 C 0.14000 0.81372 0.31900
 C283 C 0.14417 0.81367 0.34054
 C284 C 0.15449 0.83074 0.35019
 C285 C 0.16082 0.84806 0.33800
 H286 H 0.14324 0.83121 0.29033
 H287 H 0.13931 0.80025 0.34989
 H288 H 0.16855 0.86140 0.34548
 O289 O 0.25111 1.00432 0.27212
 O290 O 0.27406 0.96433 0.23503
 O291 O 0.28227 1.00376 0.24716
 O292 O 0.24456 0.96418 0.26151
 O293 O 0.22516 0.97561 0.23617
 O294 O 0.26254 1.01624 0.22254
 O295 O 0.25507 0.97696 0.20986
 O296 O 0.23174 1.01579 0.24674
 Cu297 Cu 0.26495 0.98300 0.25650
 Cu298 Cu 0.24168 0.99724 0.22628
 C299 C 0.23745 1.01686 0.26566
 C300 C 0.26852 0.96408 0.21596
 C301 C 0.27883 1.01682 0.23248
 C302 C 0.22845 0.96303 0.25136
 O303 O 0.26900 0.48572 0.72573
 O304 O 0.22972 0.51881 0.75103
 O305 O 0.23846 0.47824 0.75110
 O306 O 0.25703 0.52603 0.72328
 O307 O 0.23560 0.51950 0.69785
 O308 O 0.21734 0.47260 0.72513
 O309 O 0.20961 0.51116 0.72465
 O310 O 0.24895 0.47767 0.69952
 Cu311 Cu 0.25088 0.50271 0.74023
 Cu312 Cu 0.22690 0.49391 0.70856
 C313 C 0.26573 0.47612 0.70836
 C314 C 0.21280 0.52021 0.74244
 C315 C 0.22367 0.46833 0.74329
 C316 C 0.24877 0.53132 0.70619
 O317 O 0.78123 -0.04125 0.28574
 O318 O 0.75455 0.00036 0.25527
 O319 O 0.74954 -0.04159 0.26174
 O320 O 0.78580 -0.00023 0.27979
 O321 O 0.80483 -0.00799 0.25226
 O322 O 0.76968 -0.04898 0.23513
 O323 O 0.77539 -0.00570 0.22890
 O324 O 0.80196 -0.04625 0.25901
 Cu325 Cu 0.76554 -0.01998 0.27322
 Cu326 Cu 0.78884 -0.02867 0.24054
 C327 C 0.79678 -0.04995 0.27777
 C328 C 0.76116 0.00504 0.23722
 C329 C 0.75411 -0.05290 0.24556
 C330 C 0.80178 0.00237 0.26937
 O331 O 0.72344 0.46988 0.76929
 O332 O 0.69978 0.51033 0.73626
 O333 O 0.70128 0.46968 0.73608
 O334 O 0.72161 0.51249 0.76963
 O335 O 0.74868 0.51348 0.75013
 O336 O 0.72824 0.46965 0.71621
 O337 O 0.72672 0.51167 0.71639
 O338 O 0.75073 0.47076 0.75009
 Cu339 Cu 0.70906 0.49051 0.75515
 Cu340 Cu 0.74146 0.49140 0.73139
 C341 C 0.74090 0.46309 0.76526
 C342 C 0.70889 0.51738 0.72036
 C343 C 0.71082 0.46294 0.72000
 C344 C 0.73827 0.52078 0.76544
 O345 O 0.23412 0.51501 0.27749
 O346 O 0.27179 0.48658 0.30859
 O347 O 0.25889 0.52638 0.30789
 O348 O 0.24667 0.47563 0.28076
 O349 O 0.26838 0.48252 0.25572
 O350 O 0.28140 0.53357 0.28383
 O351 O 0.29423 0.49389 0.28439
 O352 O 0.25676 0.52278 0.25373
 Cu353 Cu 0.25053 0.50057 0.29616
 Cu354 Cu 0.27741 0.50896 0.26697
 C355 C 0.23892 0.52331 0.26009
 C356 C 0.28942 0.48519 0.30154
 C357 C 0.27254 0.53836 0.30100
 C358 C 0.25544 0.47027 0.26378
 O359 O 0.74973 1.01268 0.79176
 O360 O 0.78532 0.99275 0.75131
 O361 O 0.77633 1.03002 0.76818
 O362 O 0.75966 0.97466 0.77569
 O363 O 0.73601 0.97901 0.75220
 O364 O 0.75468 1.03420 0.74269
 O365 O 0.76200 0.99522 0.72716
 O366 O 0.72743 1.01711 0.76685
 Cu367 Cu 0.77001 1.00210 0.77422
 Cu368 Cu 0.74276 1.00700 0.74472
 C369 C 0.73244 1.01826 0.78600
 C370 C 0.77952 0.99022 0.73246
 C371 C 0.76869 1.04153 0.75404
 C372 C 0.74501 0.96737 0.76542
 O373 O 0.70903 0.47885 0.23354
 O374 O 0.72347 0.52844 0.20618
 O375 O 0.73319 0.48828 0.20350
 O376 O 0.69843 0.52012 0.23666
 O377 O 0.72230 0.52629 0.25951
 O378 O 0.75691 0.49327 0.22690
 O379 O 0.74736 0.53384 0.22921
 O380 O 0.73289 0.48475 0.25658
 Cu381 Cu 0.71340 0.50349 0.21788
 Cu382 Cu 0.74200 0.51027 0.24565
 C383 C 0.71931 0.47287 0.24907
 C384 C 0.73830 0.53920 0.21265
 C385 C 0.75091 0.48524 0.20956
 C386 C 0.70454 0.52910 0.25349
 O387 O 0.25559 -0.00080 0.77832
 O388 O 0.22235 0.04366 0.76306
 O389 O 0.22022 0.00132 0.76434
 O390 O 0.25851 0.04116 0.77679
 O391 O 0.27030 0.03783 0.74448
 O392 O 0.23082 -0.00126 0.73153
 O393 O 0.23364 0.04115 0.73053
 O394 O 0.26643 -0.00387 0.74562
 Cu395 Cu 0.23795 0.02182 0.77383
 Cu396 Cu 0.25134 0.01844 0.73469
 C397 C 0.26634 -0.01030 0.76446
 C398 C 0.22240 0.05014 0.74427
 C399 C 0.21944 -0.00742 0.74615
 C400 C 0.27119 0.04599 0.76292
 O401 O 0.22823 0.25563 1.02220
 O402 O 0.26099 0.22317 0.98825
 O403 O 0.25317 0.22488 1.02808
 O404 O 0.23626 0.25552 0.98227
 O405 O 0.25921 0.27988 0.98899
 O406 O 0.27824 0.24727 1.03228
 O407 O 0.28457 0.24752 0.99176
 O408 O 0.25234 0.27849 1.02924
 Cu409 Cu 0.24230 0.23745 1.00446
 Cu410 Cu 0.27106 0.26567 1.01094
 C411 C 0.23465 0.27212 1.03209
 C412 C 0.27832 0.22967 0.98417
 C413 C 0.26856 0.23086 1.03800
 C414 C 0.24451 0.27339 0.97827
 O415 O 0.22959 0.81613 0.48814
 O416 O 0.26196 0.79822 0.53116
 O417 O 0.26508 0.79833 0.49043
 O418 O 0.22705 0.81549 0.52937
 O419 O 0.21394 0.78287 0.52753
 O420 O 0.25076 0.76645 0.48738
 O421 O 0.24926 0.76552 0.52845
 O422 O 0.21547 0.78401 0.48739
 Cu423 Cu 0.24726 0.81035 0.50982
 Cu424 Cu 0.23115 0.77140 0.50743
 C425 C 0.21668 0.80320 0.48085
 C426 C 0.26105 0.77880 0.53720
 C427 C 0.26434 0.77945 0.48224
 C428 C 0.21414 0.80198 0.53519
 O429 O 0.25007 0.73513 -0.04377
 O430 O 0.23730 0.69522 -0.00362
 O431 O 0.22476 0.70332 -0.04142
 O432 O 0.26292 0.72649 -0.00652
 O433 O 0.24081 0.74916 0.00738
 O434 O 0.20259 0.72562 -0.02704
 O435 O 0.21546 0.71811 0.01039
 O436 O 0.22791 0.75776 -0.02996
 Cu437 Cu 0.24594 0.71276 -0.02525
 Cu438 Cu 0.21943 0.73998 -0.00859
 C439 C 0.24140 0.75348 -0.04346
 C440 C 0.22425 0.69985 0.01030
 C441 C 0.20702 0.71026 -0.03983
 C442 C 0.25845 0.74179 0.00632
 O443 O 0.26539 0.26830 0.51977
 O444 O 0.23036 0.25296 0.47822
 O445 O 0.23152 0.24772 0.51879
 O446 O 0.26535 0.27111 0.47881
 O447 O 0.28047 0.23938 0.47579
 O448 O 0.24642 0.21614 0.51350
 O449 O 0.24609 0.22176 0.47335
 O450 O 0.28002 0.23632 0.51667
 Cu451 Cu 0.24668 0.26322 0.49933
 Cu452 Cu 0.26483 0.22531 0.49454
 C453 C 0.27855 0.25491 0.52552
 C454 C 0.23229 0.23490 0.46854
 C455 C 0.23311 0.22761 0.52254
 C456 C 0.27858 0.25889 0.47035
 O457 O 0.73796 0.78536 0.97116
 O458 O 0.77181 0.77588 1.01523
 O459 O 0.76951 0.76206 0.97647
 O460 O 0.73955 0.79934 1.00992
 O461 O 0.72048 0.77228 1.01910
 O462 O 0.75191 0.73471 0.98796
 O463 O 0.75232 0.74984 1.02614
 O464 O 0.72014 0.75733 0.98048
 Cu465 Cu 0.75655 0.78350 0.99230
 Cu466 Cu 0.73430 0.75085 1.00443
 C467 C 0.72353 0.77265 0.96801
 C468 C 0.76780 0.76119 1.02821
 C469 C 0.76587 0.74193 0.97670
 C470 C 0.72477 0.79222 1.02005
 O471 O 0.79283 0.20118 0.46908
 O472 O 0.75368 0.23069 0.49797
 O473 O 0.76484 0.22872 0.45934
 O474 O 0.78117 0.20253 0.50764
 O475 O 0.80167 0.22951 0.51406
 O476 O 0.78580 0.25541 0.46535
 O477 O 0.77425 0.25756 0.50464
 O478 O 0.81352 0.22817 0.47491
 Cu479 Cu 0.77106 0.21306 0.48290
 Cu480 Cu 0.79590 0.24539 0.49042
 C481 C 0.80979 0.20962 0.46706
 C482 C 0.75718 0.24917 0.50609
 C483 C 0.77253 0.24650 0.45414
 C484 C 0.79425 0.21149 0.51905
 O485 O 0.77330 0.23808 -0.01295
 O486 O 0.74260 0.21527 0.02923
 O487 O 0.73999 0.21605 -0.01204
 O488 O 0.77597 0.23631 0.02699
 O489 O 0.75930 0.26721 0.02941
 O490 O 0.72266 0.24636 -0.00829
 O491 O 0.72643 0.24637 0.03212
 O492 O 0.75553 0.26830 -0.01116
 Cu493 Cu 0.75948 0.22318 0.00740
 Cu494 Cu 0.73925 0.26009 0.01067
 C495 C 0.76986 0.25725 -0.01884
 C496 C 0.72950 0.22722 0.03821
 C497 C 0.72501 0.22765 -0.01656
 C498 C 0.77392 0.25537 0.03457
 O499 O 0.73230 0.74325 0.48273
 O500 O 0.76133 0.77310 0.52308
 O501 O 0.76597 0.76368 0.48290
 O502 O 0.72735 0.75272 0.52228
 O503 O 0.74318 0.72289 0.53123
 O504 O 0.78055 0.73266 0.49027
 O505 O 0.77673 0.74257 0.53053
 O506 O 0.74694 0.71287 0.49207
 Cu507 Cu 0.74531 0.76135 0.50196
 Cu508 Cu 0.76360 0.72483 0.51182
 C509 C 0.73445 0.72282 0.48088
 C510 C 0.77381 0.76264 0.53393
 C511 C 0.77951 0.74965 0.47940
 C512 C 0.72857 0.73588 0.53336
 O513 O 0.99619 0.25961 0.26269
 O514 O 1.03233 0.29931 0.24288
 O515 O 0.99386 0.29746 0.24537
 O516 O 1.03512 0.26110 0.26003
 O517 O 1.03474 0.24651 0.22816
 O518 O 0.99161 0.28033 0.21467
 O519 O 1.02924 0.28465 0.21116
 O520 O 0.99590 0.24368 0.23137
 Cu521 Cu 1.01461 0.28082 0.25597
 Cu522 Cu 1.01310 0.26200 0.21826
 C523 C 0.98954 0.24521 0.25012
 C524 C 1.03624 0.29914 0.22333
 C525 C 0.98551 0.29480 0.22764
 C526 C 1.04217 0.24776 0.24644
 O527 O 0.49011 0.25273 0.71912
 O528 O 0.52208 0.21395 0.74622
 O529 O 0.48662 0.22915 0.75164
 O530 O 0.52593 0.23780 0.71272
 O531 O 0.53802 0.26418 0.73253
 O532 O 0.49894 0.25512 0.77189
 O533 O 0.53456 0.24042 0.76566
 O534 O 0.50214 0.27930 0.73876
 Cu535 Cu 0.50514 0.23073 0.73033
 Cu536 Cu 0.51965 0.26249 0.75412
 C537 C 0.49046 0.27260 0.72448
 C538 C 0.53346 0.22043 0.76084
 C539 C 0.48617 0.24049 0.76848
 C540 C 0.53858 0.25259 0.71585
 O541 O -0.03180 0.25650 0.75366
 O542 O 0.01191 0.27023 0.78401
 O543 O -0.02402 0.28037 0.78479
 O544 O 0.00775 0.24956 0.74702
 O545 O 0.00997 0.27852 0.72750
 O546 O -0.01985 0.30963 0.76588
 O547 O 0.01760 0.29815 0.76377
 O548 O -0.02836 0.28541 0.73411
 Cu549 Cu -0.00890 0.26077 0.76839
 Cu550 Cu -0.00455 0.29566 0.74572
 C551 C -0.03829 0.26910 0.73980
 C552 C 0.02207 0.28661 0.77951
 C553 C -0.02740 0.30032 0.78150
 C554 C 0.01427 0.25894 0.73082
 O555 O 0.50388 0.27027 0.26048
 O556 O 0.53646 0.22822 0.23634
 O557 O 0.49971 0.24136 0.23003
 O558 O 0.54064 0.25913 0.26335
 O559 O 0.53130 0.23669 0.28795
 O560 O 0.49018 0.21802 0.25368
 O561 O 0.52693 0.20522 0.26034
 O562 O 0.49387 0.24673 0.28380
 Cu563 Cu 0.52089 0.25192 0.24498
 Cu564 Cu 0.50963 0.22430 0.27377
 C565 C 0.49346 0.26564 0.27645
 C566 C 0.53767 0.20970 0.24464
 C567 C 0.48786 0.22687 0.23597
 C568 C 0.54305 0.25111 0.28131
 O569 O 1.00273 0.76915 0.76147
 O570 O 0.95425 0.74528 0.77239
 O571 O 0.99111 0.73559 0.78053
 O572 O 0.96654 0.78008 0.75288
 O573 O 0.96796 0.76087 0.72324
 O574 O 0.99229 0.71646 0.75084
 O575 O 0.95576 0.72695 0.74229
 O576 O 1.00470 0.75076 0.73143
 Cu577 Cu 0.97825 0.75947 0.76982
 Cu578 Cu 0.98038 0.73685 0.73395
 C579 C 1.01211 0.76390 0.74478
 C580 C 0.94675 0.73198 0.75928
 C581 C 0.99608 0.71856 0.77028
 C582 C 0.96321 0.77806 0.73333
 O583 O 0.50881 0.79559 0.24311
 O584 O 0.47530 0.76283 0.27516
 O585 O 0.51263 0.77264 0.27722
 O586 O 0.47116 0.78428 0.24113
 O587 O 0.47828 0.75391 0.22373
 O588 O 0.52182 0.74512 0.25670
 O589 O 0.48500 0.73342 0.25756
 O590 O 0.51501 0.76700 0.22265
 Cu591 Cu 0.49135 0.78192 0.26098
 Cu592 Cu 0.50101 0.74708 0.23815
 C593 C 0.51727 0.78691 0.22718
 C594 C 0.47451 0.74251 0.27191
 C595 C 0.52426 0.75678 0.27309
 C596 C 0.46710 0.77027 0.22693
 O597 O -0.00500 0.74193 0.24899
 O598 O 0.02281 0.70807 0.21078
 O599 O -0.01514 0.71385 0.21958
 O600 O 0.03196 0.73483 0.24108
 O601 O 0.03253 0.70792 0.26336
 O602 O -0.01409 0.68724 0.24216
 O603 O 0.02281 0.68118 0.23312
 O604 O -0.00504 0.71521 0.27152
 Cu605 Cu 0.00847 0.72729 0.22773
 Cu606 Cu 0.00913 0.69527 0.25484
 C607 C -0.00952 0.73450 0.26678
 C608 C 0.02762 0.68889 0.21549
 C609 C -0.02255 0.69682 0.22719
 C610 C 0.04022 0.72485 0.25600
 O611 O 0.46538 0.77707 0.76368
 O612 O 0.50035 0.74692 0.72857
 O613 O 0.46244 0.74574 0.73638
 O614 O 0.50289 0.78064 0.75370
 O615 O 0.51093 0.75721 0.77799
 O616 O 0.46740 0.72444 0.76330
 O617 O 0.50488 0.72327 0.75370
 O618 O 0.47374 0.75579 0.78965
 Cu619 Cu 0.48220 0.76490 0.74304
 Cu620 Cu 0.49006 0.73796 0.77373
 C621 C 0.46354 0.77139 0.78270
 C622 C 0.50809 0.72951 0.73518
 C623 C 0.45754 0.72959 0.74714
 C624 C 0.51411 0.77476 0.76847
 C625 C 0.43100 0.30937 0.32559
 C626 C 0.44485 0.32455 0.32034
 C627 C 0.44323 0.34613 0.32672
 C628 C 0.42652 0.35237 0.33870
 C629 C 0.41155 0.33719 0.34372
 C630 C 0.41410 0.31527 0.33714
 O631 O 0.43539 0.28967 0.31821
 C632 C 0.45234 0.29249 0.30799
 C633 C 0.45869 0.31357 0.30861
 C634 C 0.47582 0.32017 0.29835
 C635 C 0.48694 0.30434 0.28722
 C636 C 0.48097 0.28239 0.28689
 C637 C 0.46336 0.27646 0.29741
 H638 H 0.45445 0.35775 0.32263
 H639 H 0.42526 0.36908 0.34397
 H640 H 0.40300 0.30321 0.34028
 H641 H 0.48044 0.33689 0.29890
 H642 H 0.50044 0.30905 0.27931
 H643 H 0.45837 0.25986 0.29730
 C644 C 0.39222 0.81607 0.81377
 C645 C 0.40129 0.80660 0.83053
 C646 C 0.39261 0.80614 0.85034
 C647 C 0.37384 0.81590 0.85301
 C648 C 0.36397 0.82602 0.83596
 C649 C 0.37366 0.82590 0.81602
 O650 O 0.40248 0.81391 0.79600
 C651 C 0.41845 0.80284 0.80167
 C652 C 0.41849 0.79800 0.82266
 C653 C 0.43340 0.78570 0.83173
 C654 C 0.44867 0.77775 0.81855
 C655 C 0.44878 0.78218 0.79673
 C656 C 0.43356 0.79528 0.78832
 H657 H 0.40002 0.79849 0.86332
 H658 H 0.36750 0.81610 0.86864
 H659 H 0.36670 0.83227 0.80215
 H660 H 0.43304 0.78191 0.84824
 H661 H 0.46014 0.76770 0.82528
 H662 H 0.43296 0.79864 0.77171
 C663 C -0.09831 0.34228 0.81596
 C664 C -0.08412 0.34213 0.83145
 C665 C -0.08824 0.34798 0.85217
 C666 C -0.10789 0.35347 0.85733
 C667 C -0.12309 0.35255 0.84194
 C668 C -0.11806 0.34759 0.82078
 O669 O -0.09152 0.33486 0.79756
 C670 C -0.07277 0.32971 0.80161
 C671 C -0.06754 0.33364 0.82217
 C672 C -0.04930 0.32730 0.83033
 C673 C -0.03593 0.31639 0.81673
 C674 C -0.04093 0.31254 0.79544
 C675 C -0.05944 0.31959 0.78769
 H676 H -0.07687 0.34760 0.86411
 H677 H -0.11149 0.35741 0.87356
 H678 H -0.12935 0.34625 0.80881
 H679 H -0.04575 0.33002 0.84672
 H680 H -0.02181 0.31082 0.82272
 H681 H -0.06364 0.31645 0.77154
 C682 C -0.06897 0.77314 0.32321
 C683 C -0.05409 0.78791 0.32044
 C684 C -0.05551 0.80923 0.32766
 C685 C -0.07317 0.81576 0.33774
 C686 C -0.08910 0.80110 0.34012
 C687 C -0.08670 0.77931 0.33316
 O688 O -0.06508 0.75405 0.31407
 C689 C -0.04745 0.75689 0.30521
 C690 C -0.04015 0.77739 0.30855
 C691 C -0.02282 0.78455 0.29914
 C692 C -0.01268 0.77003 0.28561
 C693 C -0.01980 0.74878 0.28207
 C694 C -0.03728 0.74198 0.29225
 H695 H -0.04365 0.82058 0.32516
 H696 H -0.07464 0.83240 0.34320
 H697 H -0.09869 0.76785 0.33429
 H698 H -0.01762 0.80091 0.30161
 H699 H 0.00064 0.77535 0.27772
 H700 H -0.04326 0.72602 0.28931
 C701 C 0.59258 0.71379 0.31028
 C702 C 0.58270 0.72501 0.32604
 C703 C 0.58741 0.72283 0.34711
 C704 C 0.60287 0.70845 0.35212
 C705 C 0.61353 0.69679 0.33612
 C706 C 0.60827 0.69984 0.31483
 O707 O 0.58501 0.71700 0.29140
 C708 C 0.57001 0.73054 0.29532
 C709 C 0.56804 0.73615 0.31624
 C710 C 0.55288 0.74968 0.32381
 C711 C 0.53900 0.75738 0.30927
 C712 C 0.54034 0.75115 0.28773
 C713 C 0.55630 0.73780 0.28069
 H714 H 0.57913 0.73143 0.35931
 H715 H 0.60607 0.70604 0.36854
 H716 H 0.61600 0.69151 0.30208
 H717 H 0.55154 0.75379 0.34035
 H718 H 0.52678 0.76743 0.31493
 H719 H 0.55768 0.73262 0.26440
 C720 C 0.59082 0.17947 0.81654
 C721 C 0.57729 0.16417 0.81026
 C722 C 0.57795 0.14295 0.81698
 C723 C 0.59340 0.13714 0.83047
 C724 C 0.60801 0.15240 0.83671
 C725 C 0.60645 0.17399 0.82977
 O726 O 0.58742 0.19875 0.80840
 C727 C 0.57145 0.19550 0.79666
 C728 C 0.56477 0.17456 0.79715
 C729 C 0.54855 0.16746 0.78562
 C730 C 0.53866 0.18262 0.77324
 C731 C 0.54496 0.20446 0.77282
 C732 C 0.56167 0.21093 0.78470
 H733 H 0.56700 0.13126 0.81199
 H734 H 0.59400 0.12069 0.83595
 H735 H 0.61739 0.18602 0.83397
 H736 H 0.54366 0.15085 0.78616
 H737 H 0.52584 0.17744 0.76436
 H738 H 0.56688 0.22744 0.78465
 C739 C 1.05647 0.67165 0.81631
 C740 C 1.04381 0.65673 0.80750
 C741 C 1.04754 0.63460 0.80766
 C742 C 1.06523 0.62759 0.81691
 C743 C 1.07899 0.64270 0.82537
 C744 C 1.07424 0.66506 0.82544
 O745 O 1.05065 0.69195 0.81355
 C746 C 1.03406 0.68978 0.80261
 C747 C 1.02929 0.66855 0.79836
 C748 C 1.01354 0.66264 0.78548
 C749 C 1.00236 0.67931 0.77649
 C750 C 1.00690 0.70127 0.78088
 C751 C 1.02279 0.70656 0.79436
 H752 H 1.03739 0.62317 0.80056
 H753 H 1.06841 0.61040 0.81706
 H754 H 1.08451 0.67705 0.83134
 H755 H 1.01037 0.64583 0.78194
 H756 H 0.99031 0.67518 0.76601
 H757 H 1.02689 0.72323 0.79740
 C758 C 1.10411 0.20147 0.29234
 C759 C 1.10632 0.19642 0.27133
 C760 C 1.12139 0.18287 0.26367
 C761 C 1.13473 0.17420 0.27824
 C762 C 1.13274 0.17900 0.30009
 C763 C 1.11705 0.19286 0.30711
 O764 O 1.08901 0.21489 0.29636
 C765 C 1.08151 0.21840 0.27748
 C766 C 1.09150 0.20742 0.26163
 C767 C 1.08606 0.20873 0.24065
 C768 C 1.06968 0.22193 0.23582
 C769 C 1.05921 0.23364 0.25187
 C770 C 1.06531 0.23176 0.27302
 H771 H 1.12296 0.17927 0.24704
 H772 H 1.14678 0.16405 0.27239
 H773 H 1.11483 0.19674 0.32360
 H774 H 1.09412 0.19992 0.22843
 H775 H 1.06530 0.22316 0.21956
 H776 H 1.05765 0.24037 0.28567
 C777 C 0.60721 0.28653 0.67131
 C778 C 0.59619 0.27463 0.65720
 C779 C 0.60063 0.27345 0.63589
 C780 C 0.61705 0.28508 0.62882
 C781 C 0.62886 0.29739 0.64307
 C782 C 0.62380 0.29788 0.66471
 O783 O 0.59994 0.28636 0.69070
 C784 C 0.58399 0.27409 0.68878
 C785 C 0.58110 0.26638 0.66864
 C786 C 0.56508 0.25350 0.66307
 C787 C 0.55140 0.24853 0.67890
 C788 C 0.55382 0.25669 0.69972
 C789 C 0.57049 0.26954 0.70469
 H790 H 0.59152 0.26430 0.62502
 H791 H 0.62016 0.28491 0.61213
 H792 H 0.63241 0.30690 0.67613
 H793 H 0.56307 0.24769 0.64708
 H794 H 0.53867 0.23878 0.67480
 H795 H 0.57276 0.27606 0.72039
 C796 C 0.58422 0.83447 0.19359
 C797 C 0.56997 0.83309 0.17832
 C798 C 0.57311 0.84001 0.15801
 C799 C 0.59188 0.84813 0.15304
 C800 C 0.60749 0.84883 0.16815
 C801 C 0.60305 0.84240 0.18902
 O802 O 0.57852 0.82615 0.21169
 C803 C 0.56031 0.81925 0.20768
 C804 C 0.55440 0.82300 0.18741
 C805 C 0.53648 0.81559 0.17936
 C806 C 0.52420 0.80379 0.19274
 C807 C 0.52989 0.80003 0.21373
 C808 C 0.54809 0.80803 0.22139
 H809 H 0.56158 0.83896 0.14628
 H810 H 0.59394 0.85399 0.13731
 H811 H 0.61417 0.84177 0.20116
 H812 H 0.53235 0.81831 0.16323
 H813 H 0.51033 0.79750 0.18680
 H814 H 0.55290 0.80486 0.23724
 C815 C 1.10381 0.35243 0.20157
 C816 C 1.08963 0.35460 0.18632
 C817 C 1.09368 0.36301 0.16674
 C818 C 1.11333 0.36854 0.16230
 C819 C 1.12865 0.36556 0.17734
 C820 C 1.12341 0.35845 0.19773
 O821 O 1.09747 0.34150 0.21803
 C822 C 1.07894 0.33653 0.21295
 C823 C 1.07345 0.34424 0.19368
 C824 C 1.05574 0.33869 0.18399
 C825 C 1.04329 0.32437 0.19442
 C826 C 1.04864 0.31602 0.21419
 C827 C 1.06651 0.32260 0.22386
 H828 H 1.08230 0.36425 0.15488
 H829 H 1.11662 0.37466 0.14688
 H830 H 1.13455 0.35507 0.20943
 H831 H 1.05203 0.34443 0.16854
 H832 H 1.02968 0.31933 0.18686
 H833 H 1.07122 0.31585 0.23860
 C834 C 1.08221 0.80349 0.70754
 C835 C 1.08424 0.80350 0.72898
 C836 C 1.09959 0.81378 0.73937
 C837 C 1.11333 0.82489 0.72725
 C838 C 1.11156 0.82590 0.70493
 C839 C 1.09585 0.81436 0.69501
 O840 O 1.06588 0.79351 0.70102
 C841 C 1.05750 0.78719 0.71880
 C842 C 1.06821 0.79296 0.73632
 C843 C 1.06177 0.78922 0.75664
 C844 C 1.04338 0.77927 0.75909
 C845 C 1.03190 0.77316 0.74136
 C846 C 1.03921 0.77690 0.72087
 H847 H 1.10088 0.81342 0.75629
 H848 H 1.12560 0.83230 0.73548
 H849 H 1.09343 0.81489 0.67825
 H850 H 1.07041 0.79420 0.77015
 H851 H 1.03799 0.77646 0.77485
 H852 H 1.03060 0.77275 0.70708
 C853 C 0.38803 0.70044 0.70108
 C854 C 0.38621 0.69360 0.72140
 C855 C 0.36900 0.68428 0.72898
 C856 C 0.35307 0.68186 0.71503
 C857 C 0.35468 0.68843 0.69380
 C858 C 0.37259 0.69780 0.68685
 O859 O 0.40513 0.71006 0.69730
 C860 C 0.41432 0.70926 0.71562
 C861 C 0.40350 0.69917 0.73088
 C862 C 0.41023 0.69709 0.75137
 C863 C 0.42868 0.70619 0.75642
 C864 C 0.43971 0.71739 0.74110
 C865 C 0.43250 0.71858 0.72034
 H866 H 0.36772 0.67946 0.74517
 H867 H 0.33939 0.67525 0.72098
 H868 H 0.37455 0.70292 0.67083
 H869 H 0.40143 0.68915 0.76315
 H870 H 0.43394 0.70533 0.77242
 H871 H 0.44052 0.72712 0.70833
 C872 C 0.41450 0.18985 0.20215
 C873 C 0.42251 0.20304 0.18733
 C874 C 0.41361 0.20648 0.16808
 C875 C 0.39578 0.19577 0.16380
 C876 C 0.38695 0.18175 0.17871
 C877 C 0.39675 0.17906 0.19832
 O878 O 0.42529 0.18886 0.21952
 C879 C 0.44050 0.20167 0.21551
 C880 C 0.43948 0.21072 0.19599
 C881 C 0.45378 0.22470 0.18855
 C882 C 0.46973 0.22967 0.20179
 C883 C 0.47117 0.22065 0.22210
 C884 C 0.45629 0.20633 0.22896
 H885 H 0.42031 0.21685 0.15659
 H886 H 0.38953 0.19783 0.14836
 H887 H 0.39066 0.16946 0.21074
 H888 H 0.45265 0.23163 0.17312
 H889 H 0.48091 0.24064 0.19619
 H890 H 0.45684 0.19924 0.24435
 C891 C -0.10046 0.68532 0.18846
 C892 C -0.09395 0.66569 0.19546
 C893 C -0.10497 0.64697 0.19340
 C894 C -0.12350 0.64846 0.18364
 C895 C -0.13104 0.66862 0.17626
 C896 C -0.11897 0.68733 0.17896
 O897 O -0.08760 0.70115 0.19188
 C898 C -0.07262 0.69121 0.20126
 C899 C -0.07585 0.66949 0.20389
 C900 C -0.06237 0.65599 0.21371
 C901 C -0.04484 0.66527 0.22124
 C902 C -0.04101 0.68762 0.21864
 C903 C -0.05510 0.70075 0.20834
 H904 H -0.09935 0.63161 0.19881
 H905 H -0.13132 0.63346 0.18115
 H906 H -0.12383 0.70331 0.17458
 H907 H -0.06530 0.63897 0.21567
 H908 H -0.03418 0.65499 0.22902
 H909 H -0.05268 0.71787 0.20631
 C910 C -0.10770 0.23297 0.69870
 C911 C -0.11356 0.24365 0.71684
 C912 C -0.13205 0.24087 0.72602
 C913 C -0.14495 0.22616 0.71636
 C914 C -0.13937 0.21460 0.69763
 C915 C -0.12057 0.21877 0.68838
 O916 O -0.08868 0.23594 0.69403
 C917 C -0.08244 0.24877 0.70959
 C918 C -0.09721 0.25407 0.72384
 C919 C -0.09373 0.26555 0.74241
 C920 C -0.07417 0.27146 0.74668
 C921 C -0.05863 0.26595 0.73248
 C922 C -0.06277 0.25471 0.71348
 H923 H -0.13616 0.24920 0.74054
 H924 H -0.15939 0.22398 0.72349
 H925 H -0.11531 0.20979 0.67465
 H926 H -0.10550 0.26896 0.75364
 H927 H -0.07093 0.27941 0.76156
 H928 H -0.05097 0.24955 0.70288
 C929 C 0.33146 0.41630 0.34432
 C930 C 0.34448 0.43301 0.34151
 C931 C 0.36457 0.43127 0.34593
 C932 C 0.37162 0.41135 0.35313
 C933 C 0.35866 0.39352 0.35539
 C934 C 0.33817 0.39629 0.35131
 O935 O 0.31314 0.42096 0.33825
 C936 C 0.31466 0.44098 0.33132
 C937 C 0.33356 0.44904 0.33282
 C938 C 0.33886 0.46896 0.32479
 C939 C 0.32407 0.48097 0.31468
 C940 C 0.30445 0.47307 0.31319
 C941 C 0.29963 0.45292 0.32188
 H942 H 0.37455 0.44462 0.34353
 H943 H 0.38728 0.40968 0.35650
 H944 H 0.32792 0.38298 0.35237
 H945 H 0.35393 0.47475 0.32573
 H946 H 0.32788 0.49633 0.30792
 H947 H 0.28487 0.44629 0.32039
 C948 C 0.29656 -0.08692 0.80685
 C949 C 0.30576 -0.08579 0.78763
 C950 C 0.31918 -0.10133 0.78032
 C951 C 0.32357 -0.11862 0.79347
 C952 C 0.31462 -0.12024 0.81377
 C953 C 0.30058 -0.10404 0.82021
 O954 O 0.28425 -0.07042 0.81078
 C955 C 0.28571 -0.05869 0.79360
 C956 C 0.29868 -0.06740 0.77896
 C957 C 0.30232 -0.05792 0.75973
 C958 C 0.29193 -0.03878 0.75529
 C959 C 0.27829 -0.02951 0.77004
 C960 C 0.27533 -0.03959 0.78959
 H961 H 0.32601 -0.10025 0.76496
 H962 H 0.33354 -0.13103 0.78730
 H963 H 0.29360 -0.10396 0.83554
 H964 H 0.31260 -0.06512 0.74845
 H965 H 0.29437 -0.03136 0.74025
 H966 H 0.26490 -0.03311 0.80112
 C967 C 0.79462 0.40552 0.81106
 C968 C 0.77539 0.39958 0.81479
 C969 C 0.77042 0.38286 0.82788
 C970 C 0.78586 0.37183 0.83779
 C971 C 0.80616 0.37775 0.83497
 C972 C 0.81036 0.39488 0.82092
 O973 O 0.79597 0.42202 0.79801
 C974 C 0.77713 0.42651 0.79351
 C975 C 0.76401 0.41325 0.80350
 C976 C 0.74357 0.41535 0.80166
 C977 C 0.73628 0.43187 0.78901
 C978 C 0.74938 0.44578 0.77831
 C979 C 0.77018 0.44293 0.78050
 H980 H 0.75512 0.37827 0.83025
 H981 H 0.78168 0.35816 0.84707
 H982 H 0.82524 0.40060 0.81827
 H983 H 0.73358 0.40476 0.80982
 H984 H 0.72037 0.43373 0.78746
 H985 H 0.78054 0.45340 0.77269
 C986 C 0.83260 -0.11850 0.32757
 C987 C 0.84681 -0.10362 0.32269
 C988 C 0.86677 -0.10669 0.32676
 C989 C 0.87253 -0.12618 0.33577
 C990 C 0.85844 -0.14256 0.34038
 C991 C 0.83796 -0.13809 0.33677
 O992 O 0.81456 -0.11274 0.32118
 C993 C 0.81758 -0.09389 0.31201
 C994 C 0.83713 -0.08770 0.31253
 C995 C 0.84409 -0.06947 0.30257
 C996 C 0.83037 -0.05713 0.29143
 C997 C 0.81012 -0.06300 0.29066
 C998 C 0.80350 -0.08147 0.30135
 H999 H 0.87764 -0.09463 0.32283
 H1000 H 0.88810 -0.12824 0.33932
 H1001 H 0.82662 -0.15001 0.33945
 H1002 H 0.85962 -0.06522 0.30291
 H1003 H 0.83551 -0.04302 0.28325
 H1004 H 0.78817 -0.08648 0.30057
 C1005 C 0.29007 0.60899 0.68023
 C1006 C 0.27046 0.61102 0.67478
 C1007 C 0.26254 0.62988 0.66665
 C1008 C 0.27534 0.64741 0.66412
 C1009 C 0.29584 0.64569 0.66922
 C1010 C 0.30319 0.62590 0.67718
 O1011 O 0.29437 0.59022 0.68896
 C1012 C 0.27709 0.58014 0.68895
 C1013 C 0.26203 0.59206 0.68019
 C1014 C 0.24269 0.58463 0.67865
 C1015 C 0.23868 0.56415 0.68664
 C1016 C 0.25382 0.55188 0.69638
 C1017 C 0.27333 0.55997 0.69747
 H1018 H 0.24694 0.63126 0.66295
 H1019 H 0.26903 0.66244 0.65873
 H1020 H 0.31866 0.62358 0.68104
 H1021 H 0.23109 0.59431 0.67169
 H1022 H 0.22365 0.55814 0.68588
 H1023 H 0.28514 0.55092 0.70484
 C1024 C 0.31753 1.09368 0.20079
 C1025 C 0.33217 1.07975 0.20727
 C1026 C 0.35225 1.08415 0.20483
 C1027 C 0.35739 1.10362 0.19519
 C1028 C 0.34249 1.11836 0.18849
 C1029 C 0.32227 1.11322 0.19171
 O1030 O 0.29937 1.08629 0.20373
 C1031 C 0.30254 1.06723 0.21230
 C1032 C 0.32233 1.06247 0.21501
 C1033 C 0.32885 1.04328 0.22384
 C1034 C 0.31437 1.02841 0.22998
 C1035 C 0.29391 1.03283 0.22682
 C1036 C 0.28798 1.05258 0.21789
 H1037 H 0.36355 1.07282 0.20978
 H1038 H 0.37293 1.10690 0.19258
 H1039 H 0.31041 1.12408 0.18724
 H1040 H 0.34448 1.03985 0.22588
 H1041 H 0.31909 1.01331 0.23677
 H1042 H 0.27248 1.05646 0.21541
 C1043 C 0.78529 0.61235 0.18496
 C1044 C 0.77417 0.60515 0.16824
 C1045 C 0.77644 0.61312 0.14814
 C1046 C 0.79070 0.62919 0.14517
 C1047 C 0.80222 0.63723 0.16225
 C1048 C 0.79929 0.62859 0.18248
 O1049 O 0.78157 0.60192 0.20254
 C1050 C 0.76779 0.58784 0.19678
 C1051 C 0.76260 0.58925 0.17599
 C1052 C 0.74872 0.57569 0.16662
 C1053 C 0.74008 0.55979 0.17910
 C1054 C 0.74565 0.55758 0.20043
 C1055 C 0.75954 0.57207 0.20939
 H1056 H 0.76780 0.60690 0.13511
 H1057 H 0.79300 0.63501 0.12944
 H1058 H 0.80759 0.63429 0.19595
 H1059 H 0.74492 0.57705 0.15021
 H1060 H 0.72961 0.54875 0.17193
 H1061 H 0.76421 0.57077 0.22557
 C1062 C 0.79618 1.12143 0.71615
 C1063 C 0.80421 1.11988 0.73579
 C1064 C 0.81898 1.13345 0.74307
 C1065 C 0.82596 1.14924 0.72952
 C1066 C 0.81802 1.15169 0.70887
 C1067 C 0.80254 1.13737 0.70248
 O1068 O 0.78329 1.10582 0.71178
 C1069 C 0.78333 1.09415 0.72908
 C1070 C 0.79583 1.10222 0.74426
 C1071 C 0.79911 1.09205 0.76316
 C1072 C 0.78940 1.07250 0.76645
 C1073 C 0.77675 1.06340 0.75088
 C1074 C 0.77338 1.07467 0.73205
 H1075 H 0.82549 1.13141 0.75841
 H1076 H 0.83847 1.15843 0.73512
 H1077 H 0.79532 1.13829 0.68744
 H1078 H 0.80919 1.09865 0.77476
 H1079 H 0.79214 1.06420 0.78097
 H1080 H 0.76411 1.06800 0.71973
 C1081 C 0.67347 0.60040 0.30603
 C1082 C 0.65759 0.58986 0.29721
 C1083 C 0.63812 0.59703 0.30002
 C1084 C 0.63490 0.61579 0.31246
 C1085 C 0.65107 0.62710 0.32164
 C1086 C 0.67064 0.61914 0.31825
 O1087 O 0.69079 0.59116 0.30123
 C1088 C 0.68577 0.57443 0.28908
 C1089 C 0.66564 0.57291 0.28605
 C1090 C 0.65726 0.55703 0.27320
 C1091 C 0.67017 0.54231 0.26286
 C1092 C 0.69102 0.54357 0.26571
 C1093 C 0.69884 0.55977 0.27925
 H1094 H 0.62584 0.58847 0.29294
 H1095 H 0.61980 0.62132 0.31511
 H1096 H 0.68338 0.62747 0.32463
 H1097 H 0.64138 0.55625 0.27089
 H1098 H 0.66395 0.53007 0.25249
 H1099 H 0.71467 0.56144 0.28147
 C1100 C 0.68783 1.07526 0.84271
 C1101 C 0.67548 1.05913 0.83564
 C1102 C 0.65498 1.06067 0.83694
 C1103 C 0.64678 1.07990 0.84521
 C1104 C 0.65903 1.09732 0.85204
 C1105 C 0.67998 1.09437 0.85165
 O1106 O 0.70670 1.07175 0.83741
 C1107 C 0.70618 1.05309 0.82668
 C1108 C 0.68739 1.04470 0.82524
 C1109 C 0.68287 1.02688 0.81255
 C1110 C 0.69825 1.01759 0.80047
 C1111 C 0.71767 1.02608 0.80142
 C1112 C 0.72185 1.04373 0.81512
 H1113 H 0.64558 1.04789 0.83092
 H1114 H 0.63076 1.08124 0.84599
 H1115 H 0.68991 1.10739 0.85591
 H1116 H 0.66784 1.02102 0.81118
 H1117 H 0.69494 1.00425 0.78979
 H1118 H 0.73640 1.05101 0.81540
 C1119 C 0.16516 0.57539 0.79970
 C1120 C 0.15278 0.56214 0.78833
 C1121 C 0.13236 0.56286 0.79038
 C1122 C 0.12419 0.57837 0.80422
 C1123 C 0.13635 0.59337 0.81554
 C1124 C 0.15735 0.59110 0.81370
 O1125 O 0.18421 0.57211 0.79494
 C1126 C 0.18369 0.55655 0.78020
 C1127 C 0.16475 0.55003 0.77556
 C1128 C 0.16054 0.53465 0.76006
 C1129 C 0.17654 0.52539 0.74893
 C1130 C 0.19632 0.53142 0.75359
 C1131 C 0.19993 0.54725 0.76952
 H1132 H 0.12297 0.55193 0.78151
 H1133 H 0.10824 0.57835 0.80615
 H1134 H 0.16736 0.60208 0.82165
 H1135 H 0.14544 0.53001 0.75660
 H1136 H 0.17353 0.51318 0.73696
 H1137 H 0.21486 0.55225 0.77334
 C1138 C 0.19359 1.09231 0.29862
 C1139 C 0.19865 1.07972 0.31536
 C1140 C 0.19359 1.08539 0.33595
 C1141 C 0.18319 1.10496 0.33942
 C1142 C 0.17829 1.11862 0.32245
 C1143 C 0.18346 1.11190 0.30171
 O1144 O 0.19978 1.08410 0.28031
 C1145 C 0.20900 1.06597 0.28560
 C1146 C 0.20889 1.06256 0.30686
 C1147 C 0.21827 1.04481 0.31575
 C1148 C 0.22801 1.02992 0.30213
 C1149 C 0.22794 1.03291 0.28010
 C1150 C 0.21829 1.05127 0.27182
 H1151 H 0.19756 1.07516 0.34889
 H1152 H 0.17903 1.10944 0.35536
 H1153 H 0.18031 1.12193 0.28838
 H1154 H 0.21815 1.04253 0.33256
 H1155 H 0.23530 1.01594 0.30870
 H1156 H 0.21814 1.05416 0.25510
 C1157 C 0.68971 0.39126 0.66301
 C1158 C 0.67325 0.40414 0.66662
 C1159 C 0.65442 0.39871 0.65966
 C1160 C 0.65234 0.37895 0.64885
 C1161 C 0.66891 0.36501 0.64532
 C1162 C 0.68799 0.37148 0.65211
 O1163 O 0.70599 0.39902 0.67207
 C1164 C 0.69957 0.41708 0.68169
 C1165 C 0.67962 0.42081 0.67883
 C1166 C 0.66936 0.43782 0.68857
 C1167 C 0.68005 0.45155 0.70195
 C1168 C 0.70065 0.44824 0.70521
 C1169 C 0.71067 0.43092 0.69467
 H1170 H 0.64170 0.40907 0.66291
 H1171 H 0.63772 0.37423 0.64360
 H1172 H 0.70080 0.36097 0.64993
 H1173 H 0.65359 0.44017 0.68630
 H1174 H 0.67225 0.46480 0.70985
 H1175 H 0.72631 0.42786 0.69716
 C1176 C 0.69035 -0.10685 0.21250
 C1177 C 0.70808 -0.11794 0.21068
 C1178 C 0.71075 -0.13597 0.19765
 C1179 C 0.69471 -0.14251 0.18539
 C1180 C 0.67618 -0.13130 0.18650
 C1181 C 0.67375 -0.11374 0.20107
 O1182 O 0.69194 -0.08839 0.22348
 C1183 C 0.71107 -0.08786 0.22856
 C1184 C 0.72146 -0.10573 0.22116
 C1185 C 0.74194 -0.10768 0.22245
 C1186 C 0.75227 -0.09035 0.23139
 C1187 C 0.74210 -0.07152 0.23882
 C1188 C 0.72112 -0.07042 0.23791
 H1189 H 0.72501 -0.14405 0.19614
 H1190 H 0.69683 -0.15622 0.17471
 H1191 H 0.66014 -0.10431 0.20177
 H1192 H 0.74977 -0.12169 0.21601
 H1193 H 0.76831 -0.09133 0.23201
 H1194 H 0.71310 -0.05594 0.24289
 C1195 C 0.22167 0.40756 0.20520
 C1196 C 0.22309 0.39814 0.22454
 C1197 C 0.21307 0.37935 0.22958
 C1198 C 0.20081 0.37007 0.21418
 C1199 C 0.19895 0.37959 0.19424
 C1200 C 0.20983 0.39834 0.18952
 O1201 O 0.23057 0.42661 0.20440
 C1202 C 0.23769 0.42935 0.22367
 C1203 C 0.23354 0.41234 0.23656
 C1204 C 0.23767 0.41275 0.25792
 C1205 C 0.24598 0.43165 0.26645
 C1206 C 0.25006 0.44957 0.25362
 C1207 C 0.24636 0.44820 0.23180
 H1208 H 0.21399 0.37260 0.24509
 H1209 H 0.19226 0.35591 0.21794
 H1210 H 0.20804 0.40629 0.17464
 H1211 H 0.23381 0.39939 0.26783
 H1212 H 0.24860 0.43264 0.28321
 H1213 H 0.24866 0.46195 0.22184
 C1214 C 0.17615 -0.08009 0.70841
 C1215 C 0.17724 -0.08264 0.72976
 C1216 C 0.17076 -0.10100 0.73971
 C1217 C 0.16236 -0.11731 0.72724
 C1218 C 0.15988 -0.11483 0.70522
 C1219 C 0.16728 -0.09595 0.69564
 O1220 O 0.18421 -0.06171 0.70217
 C1221 C 0.19034 -0.05251 0.72004
 C1222 C 0.18613 -0.06461 0.73734
 C1223 C 0.19097 -0.05819 0.75766
 C1224 C 0.20097 -0.03862 0.76031
 C1225 C 0.20631 -0.02612 0.74273
 C1226 C 0.20072 -0.03309 0.72226
 H1227 H 0.17234 -0.10284 0.75649
 H1228 H 0.15779 -0.13193 0.73490
 H1229 H 0.16586 -0.09344 0.67896
 H1230 H 0.18739 -0.06804 0.77099
 H1231 H 0.20531 -0.03370 0.77603
 H1232 H 0.20469 -0.02398 0.70855
 C1233 C 0.32886 0.31129 0.41595
 C1234 C 0.32978 0.29008 0.40914
 C1235 C 0.34139 0.28306 0.39224
 C1236 C 0.35257 0.29856 0.38183
 C1237 C 0.35224 0.32064 0.38856
 C1238 C 0.34007 0.32703 0.40593
 O1239 O 0.31675 0.31441 0.43233
 C1240 C 0.30995 0.29467 0.43591
 C1241 C 0.31758 0.27928 0.42214
 C1242 C 0.31294 0.25751 0.42312
 C1243 C 0.29999 0.25124 0.43905
 C1244 C 0.29177 0.26668 0.45355
 C1245 C 0.29670 0.28882 0.45181
 H1246 H 0.34169 0.26626 0.38711
 H1247 H 0.36123 0.29333 0.36827
 H1248 H 0.33948 0.34365 0.41161
 H1249 H 0.31922 0.24573 0.41211
 H1250 H 0.29630 0.23427 0.44003
 H1251 H 0.29079 0.30093 0.46272
 C1252 C 0.28420 0.80044 -0.10830
 C1253 C 0.27170 0.81485 -0.09803
 C1254 C 0.27160 0.83689 -0.10205
 C1255 C 0.28495 0.84436 -0.11723
 C1256 C 0.29800 0.82982 -0.12819
 C1257 C 0.29740 0.80746 -0.12362
 O1258 O 0.28251 0.78032 -0.10165
 C1259 C 0.26862 0.78205 -0.08684
 C1260 C 0.26144 0.80281 -0.08407
 C1261 C 0.24711 0.80829 -0.06905
 C1262 C 0.24010 0.79176 -0.05619
 C1263 C 0.24758 0.77026 -0.05842
 C1264 C 0.26193 0.76540 -0.07420
 H1265 H 0.26181 0.84799 -0.09356
 H1266 H 0.28536 0.86155 -0.12011
 H1267 H 0.30688 0.79577 -0.13174
 H1268 H 0.24171 0.82475 -0.06708
 H1269 H 0.22921 0.79588 -0.04418
 H1270 H 0.26808 0.74925 -0.07628
 C1271 C 0.80285 0.30901 -0.08599
 C1272 C 0.81784 0.30362 -0.07247
 C1273 C 0.83699 0.31135 -0.07446
 C1274 C 0.84099 0.32488 -0.09133
 C1275 C 0.82610 0.32987 -0.10633
 C1276 C 0.80663 0.32188 -0.10330
 O1277 O 0.78547 0.30069 -0.08071
 C1278 C 0.78966 0.28968 -0.06357
 C1279 C 0.80935 0.29069 -0.05808
 C1280 C 0.81711 0.27995 -0.04094
 C1281 C 0.80396 0.26796 -0.02875
 C1282 C 0.78348 0.26744 -0.03359
 C1283 C 0.77621 0.27838 -0.05128
 H1284 H 0.84842 0.30733 -0.06327
 H1285 H 0.85576 0.33143 -0.09255
 H1286 H 0.79481 0.32505 -0.11427
 H1287 H 0.83269 0.28089 -0.03703
 H1288 H 0.80954 0.25982 -0.01505
 H1289 H 0.76059 0.27825 -0.05517
 C1290 C 0.82700 0.78731 0.41243
 C1291 C 0.82916 0.76518 0.41119
 C1292 C 0.84045 0.75473 0.39570
 C1293 C 0.85020 0.76762 0.38108
 C1294 C 0.84887 0.79061 0.38238
 C1295 C 0.83682 0.80049 0.39826
 O1296 O 0.81533 0.79396 0.42818
 C1297 C 0.81009 0.77562 0.43711
 C1298 C 0.81831 0.75757 0.42742
 C1299 C 0.81517 0.73673 0.43446
 C1300 C 0.80283 0.73438 0.45207
 C1301 C 0.79371 0.75269 0.46202
 C1302 C 0.79750 0.77364 0.45442
 H1303 H 0.84169 0.73727 0.39486
 H1304 H 0.85882 0.75962 0.36878
 H1305 H 0.83555 0.81789 0.39999
 H1306 H 0.82191 0.72278 0.42665
 H1307 H 0.79998 0.71825 0.45761
 H1308 H 0.79082 0.78792 0.46171
 C1309 C 0.70991 0.29791 0.56824
 C1310 C 0.69752 0.29037 0.55267
 C1311 C 0.67700 0.29183 0.55404
 C1312 C 0.66884 0.30106 0.57241
 C1313 C 0.68120 0.30844 0.58901
 C1314 C 0.70208 0.30730 0.58669
 O1315 O 0.72893 0.29366 0.56425
 C1316 C 0.72847 0.28311 0.54586
 C1317 C 0.70957 0.28065 0.53819
 C1318 C 0.70538 0.26867 0.52008
 C1319 C 0.72134 0.25864 0.50949
 C1320 C 0.74099 0.26094 0.51699
 C1321 C 0.74465 0.27363 0.53528
 H1322 H 0.66759 0.28558 0.54165
 H1323 H 0.65285 0.30202 0.57395
 H1324 H 0.71181 0.31246 0.59926
 H1325 H 0.69032 0.26666 0.51462
 H1326 H 0.71839 0.24896 0.49550
 H1327 H 0.75947 0.27521 0.54157
 C1328 C 0.67217 0.82685 1.08594
 C1329 C 0.68071 0.84407 1.07605
 C1330 C 0.67923 0.86521 1.08385
 C1331 C 0.66898 0.86863 1.10287
 C1332 C 0.66043 0.85106 1.11353
 C1333 C 0.66164 0.82995 1.10470
 O1334 O 0.67683 0.80789 1.07701
 C1335 C 0.68863 0.81323 1.06124
 C1336 C 0.69149 0.83516 1.05994
 C1337 C 0.70457 0.84411 1.04564
 C1338 C 0.71521 0.82987 1.03220
 C1339 C 0.71262 0.80716 1.03334
 C1340 C 0.69890 0.79882 1.04794
 H1341 H 0.68644 0.87843 1.07607
 H1342 H 0.66840 0.88477 1.10981
 H1343 H 0.65588 0.81622 1.11298
 H1344 H 0.70686 0.86140 1.04517
 H1345 H 0.72565 0.83654 1.02117
 H1346 H 0.69685 0.78158 1.04953
 C1347 C 0.20143 0.32834 1.09915
 C1348 C 0.18812 0.31235 1.09419
 C1349 C 0.17074 0.30922 1.10532
 C1350 C 0.16672 0.32325 1.12228
 C1351 C 0.17971 0.34055 1.12758
 C1352 C 0.19750 0.34295 1.11580
 O1353 O 0.21762 0.32748 1.08708
 C1354 C 0.21431 0.31059 1.07430
 C1355 C 0.19638 0.30097 1.07802
 C1356 C 0.18985 0.28288 1.06696
 C1357 C 0.20243 0.27406 1.05148
 C1358 C 0.22130 0.28320 1.04745
 C1359 C 0.22725 0.30194 1.05896
 H1360 H 0.16084 0.29607 1.10142
 H1361 H 0.15361 0.32014 1.13156
 H1362 H 0.20793 0.35566 1.11948
 H1363 H 0.17566 0.27563 1.07031
 H1364 H 0.19755 0.25975 1.04297
 H1365 H 0.24158 0.30922 1.05639
 C1366 C 0.17520 0.83353 0.61216
 C1367 C 0.16098 0.82475 0.59925
 C1368 C 0.14125 0.82295 0.60532
 C1369 C 0.13599 0.83033 0.62560
 C1370 C 0.15046 0.83888 0.63959
 C1371 C 0.17037 0.84063 0.63252
 O1372 O 0.19315 0.83349 0.60347
 C1373 C 0.19021 0.82435 0.58471
 C1374 C 0.17080 0.81853 0.58141
 C1375 C 0.16464 0.80756 0.56334
 C1376 C 0.17911 0.80227 0.54810
 C1377 C 0.19913 0.80841 0.55101
 C1378 C 0.20472 0.81980 0.56949
 H1379 H 0.13029 0.81608 0.59484
 H1380 H 0.12060 0.82928 0.63037
 H1381 H 0.18197 0.84663 0.64270
 H1382 H 0.14935 0.80284 0.56125
 H1383 H 0.17475 0.79345 0.53402
 H1384 H 0.22000 0.82424 0.57224
 C1385 C 0.29885 0.72597 0.60098
 C1386 C 0.30203 0.74734 0.60619
 C1387 C 0.31066 0.75384 0.62503
 C1388 C 0.31606 0.73767 0.63915
 C1389 C 0.31302 0.71540 0.63416
 C1390 C 0.30451 0.70963 0.61452
 O1391 O 0.28936 0.72323 0.58294
 C1392 C 0.28646 0.74332 0.57661
 C1393 C 0.29407 0.75869 0.59018
 C1394 C 0.29219 0.78078 0.58682
 C1395 C 0.28185 0.78727 0.56888
 C1396 C 0.27340 0.77171 0.55494
 C1397 C 0.27598 0.74940 0.55883
 H1398 H 0.31264 0.77079 0.62899
 H1399 H 0.32201 0.74265 0.65421
 H1400 H 0.30206 0.69292 0.60993
 H1401 H 0.29819 0.79259 0.59777
 H1402 H 0.27992 0.80440 0.56622
 H1403 H 0.26966 0.73712 0.54859
 C1404 C 0.31523 0.19475 1.10649
 C1405 C 0.29564 0.18957 1.10951
 C1406 C 0.28908 0.17802 1.12660
 C1407 C 0.30330 0.17122 1.14106
 C1408 C 0.32381 0.17557 1.13804
 C1409 C 0.32974 0.18782 1.12053
 O1410 O 0.31820 0.20617 1.08932
 C1411 C 0.30011 0.20812 1.08134
 C1412 C 0.28582 0.19806 1.09302
 C1413 C 0.26596 0.19756 1.08728
 C1414 C 0.26055 0.20801 1.06880
 C1415 C 0.27488 0.21897 1.05670
 C1416 C 0.29498 0.21899 1.06310
 H1417 H 0.27353 0.17443 1.12879
 H1418 H 0.29825 0.16254 1.15464
 H1419 H 0.34518 0.19141 1.11759
 H1420 H 0.25503 0.18939 1.09668
 H1421 H 0.24511 0.20796 1.06416
 H1422 H 0.30626 0.22711 1.05411
 C1423 C 0.80099 0.72382 1.10339
 C1424 C 0.81650 0.73100 1.09138
 C1425 C 0.83609 0.72514 1.09516
 C1426 C 0.83979 0.71107 1.11177
 C1427 C 0.82401 0.70341 1.12448
 C1428 C 0.80437 0.71050 1.12038
 O1429 O 0.78335 0.72923 1.09594
 C1430 C 0.78778 0.74003 1.07882
 C1431 C 0.80786 0.74186 1.07541
 C1432 C 0.81568 0.75154 1.05768
 C1433 C 0.80225 0.75919 1.04268
 C1434 C 0.78153 0.75652 1.04546
 C1435 C 0.77425 0.74720 1.06401
 H1436 H 0.84801 0.73042 1.08510
 H1437 H 0.85486 0.70548 1.11401
 H1438 H 0.79187 0.70526 1.12962
 H1439 H 0.83153 0.75258 1.05519
 H1440 H 0.80800 0.76610 1.02842
 H1441 H 0.75852 0.74473 1.06643
 C1442 C 0.82270 0.19566 0.60377
 C1443 C 0.81932 0.17592 0.59419
 C1444 C 0.82155 0.15648 0.60457
 C1445 C 0.82719 0.15748 0.62577
 C1446 C 0.83015 0.17773 0.63622
 C1447 C 0.82808 0.19705 0.62481
 O1448 O 0.81938 0.21226 0.59136
 C1449 C 0.81368 0.20281 0.57355
 C1450 C 0.81324 0.18060 0.57447
 C1451 C 0.80666 0.16760 0.55787
 C1452 C 0.80032 0.17795 0.53962
 C1453 C 0.80093 0.20083 0.53826
 C1454 C 0.80784 0.21338 0.55546
 H1455 H 0.81887 0.14111 0.59670
 H1456 H 0.82905 0.14248 0.63404
 H1457 H 0.82975 0.21281 0.63228
 H1458 H 0.80619 0.15017 0.55904
 H1459 H 0.79507 0.16817 0.52652
 H1460 H 0.80817 0.23087 0.55498
 C1461 C 0.68525 0.69562 0.40964
 C1462 C 0.68933 0.67785 0.42156
 C1463 C 0.68281 0.65721 0.41628
 C1464 C 0.67166 0.65474 0.39789
 C1465 C 0.66742 0.67272 0.38504
 C1466 C 0.67430 0.69351 0.39117
 O1467 O 0.69296 0.71377 0.41747
 C1468 C 0.70212 0.70725 0.43468
 C1469 C 0.70038 0.68539 0.43780
 C1470 C 0.70919 0.67497 0.45451
 C1471 C 0.72033 0.68756 0.46858
 C1472 C 0.72234 0.71019 0.46585
 C1473 C 0.71295 0.72019 0.44867
 H1474 H 0.68613 0.64350 0.42601
 H1475 H 0.66618 0.63880 0.39379
 H1476 H 0.67154 0.70755 0.38169
 H1477 H 0.70767 0.65772 0.45655
 H1478 H 0.72733 0.67965 0.48166
 H1479 H 0.71434 0.73736 0.44606
 C1480 C 0.68335 0.17952 -0.08290
 C1481 C 0.66984 0.19241 -0.07220
 C1482 C 0.64975 0.19264 -0.07686
 C1483 C 0.64330 0.17911 -0.09333
 C1484 C 0.65694 0.16596 -0.10515
 C1485 C 0.67733 0.16622 -0.09966
 O1486 O 0.70169 0.18139 -0.07557
 C1487 C 0.69967 0.19584 -0.05994
 C1488 C 0.68048 0.20320 -0.05738
 C1489 C 0.67502 0.21866 -0.04224
 C1490 C 0.68995 0.22684 -0.02913
 C1491 C 0.70981 0.21923 -0.03112
 C1492 C 0.71471 0.20344 -0.04678
 H1493 H 0.63936 0.20269 -0.06796
 H1494 H 0.62757 0.17873 -0.09659
 H1495 H 0.68826 0.15662 -0.10826
 H1496 H 0.65982 0.22426 -0.04061
 H1497 H 0.68595 0.23882 -0.01717
 H1498 H 0.72976 0.19744 -0.04874
 C1499 C 0.16279 0.66231 -0.10451
 C1500 C 0.15000 0.66810 -0.08844
 C1501 C 0.12999 0.66307 -0.08866
 C1502 C 0.12271 0.65199 -0.10637
 C1503 C 0.13532 0.64652 -0.12368
 C1504 C 0.15581 0.65143 -0.12247
 O1505 O 0.18128 0.66878 -0.10109
 C1506 C 0.18003 0.67897 -0.08252
 C1507 C 0.16115 0.67914 -0.07424
 C1508 C 0.15624 0.68960 -0.05537
 C1509 C 0.17145 0.70020 -0.04446
 C1510 C 0.19118 0.69991 -0.05234
 C1511 C 0.19551 0.68908 -0.07169
 H1512 H 0.12027 0.66762 -0.07570
 H1513 H 0.10714 0.64789 -0.10664
 H1514 H 0.16584 0.64765 -0.13539
 H1515 H 0.14122 0.68967 -0.04932
 H1516 H 0.16793 0.70829 -0.02964
 H1517 H 0.21039 0.68872 -0.07817
 C1518 C 0.19620 0.19627 0.39347
 C1519 C 0.18247 0.20999 0.40280
 C1520 C 0.16343 0.21275 0.39495
 C1521 C 0.15831 0.20080 0.37681
 C1522 C 0.17226 0.18662 0.36668
 C1523 C 0.19157 0.18458 0.37522
 O1524 O 0.21330 0.19554 0.40368
 C1525 C 0.21032 0.20913 0.41980
 C1526 C 0.19175 0.21853 0.41992
 C1527 C 0.18561 0.23347 0.43529
 C1528 C 0.19917 0.23891 0.45117
 C1529 C 0.21832 0.22916 0.45158
 C1530 C 0.22390 0.21401 0.43562
 H1531 H 0.15278 0.22346 0.40270
 H1532 H 0.14333 0.20233 0.37096
 H1533 H 0.20280 0.17428 0.36792
 H1534 H 0.17094 0.24072 0.43504
 H1535 H 0.19467 0.25050 0.46329
 H1536 H 0.23845 0.20643 0.43540
 C1537 C 0.31326 0.40664 0.66913
 C1538 C 0.32521 0.42427 0.67249
 C1539 C 0.34547 0.42383 0.66852
 C1540 C 0.35388 0.40431 0.66112
 C1541 C 0.34211 0.38552 0.65823
 C1542 C 0.32136 0.38691 0.66196
 O1543 O 0.29444 0.41042 0.67444
 C1544 C 0.29458 0.43083 0.68143
 C1545 C 0.31311 0.43995 0.68070
 C1546 C 0.31700 0.46062 0.68855
 C1547 C 0.30114 0.47238 0.69759
 C1548 C 0.28185 0.46351 0.69825
 C1549 C 0.27845 0.44252 0.68984
 H1550 H 0.35453 0.43797 0.67124
 H1551 H 0.36966 0.40379 0.65789
 H1552 H 0.31196 0.37290 0.66022
 H1553 H 0.33178 0.46727 0.68813
 H1554 H 0.30385 0.48842 0.70406
 H1555 H 0.26391 0.43526 0.69057
 C1556 C 0.30806 0.88928 0.17545
 C1557 C 0.30319 0.90384 0.16024
 C1558 C 0.30692 0.89996 0.13902
 C1559 C 0.31592 0.88018 0.13319
 C1560 C 0.32078 0.86456 0.14847
 C1561 C 0.31685 0.86939 0.16999
 O1562 O 0.30311 0.89612 0.19471
 C1563 C 0.29489 0.91539 0.19155
 C1564 C 0.29450 0.92079 0.17071
 C1565 C 0.28599 0.93988 0.16374
 C1566 C 0.27748 0.95398 0.17885
 C1567 C 0.27782 0.94894 0.20050
 C1568 C 0.28680 0.92938 0.20693
 H1569 H 0.30304 0.91175 0.12736
 H1570 H 0.31918 0.87712 0.11673
 H1571 H 0.32008 0.85785 0.18208
 H1572 H 0.28572 0.94369 0.14723
 H1573 H 0.27072 0.96890 0.17368
 H1574 H 0.28710 0.92497 0.22329
 C1575 C 0.80936 0.42080 0.18067
 C1576 C 0.80126 0.43033 0.16334
 C1577 C 0.80572 0.42350 0.14293
 C1578 C 0.81885 0.40591 0.14027
 C1579 C 0.82699 0.39527 0.15789
 C1580 C 0.82233 0.40314 0.17841
 O1581 O 0.80275 0.42941 0.19868
 C1582 C 0.79012 0.44462 0.19256
 C1583 C 0.78858 0.44575 0.17108
 C1584 C 0.77531 0.45959 0.16128
 C1585 C 0.76304 0.47272 0.17416
 C1586 C 0.76450 0.47203 0.19634
 C1587 C 0.77840 0.45792 0.20566
 H1588 H 0.79918 0.43129 0.12953
 H1589 H 0.82253 0.40049 0.12445
 H1590 H 0.82796 0.39527 0.19221
 H1591 H 0.77415 0.45993 0.14435
 H1592 H 0.75239 0.48341 0.16690
 H1593 H 0.77950 0.45674 0.22256
 C1594 C 0.81606 0.93156 0.67072
 C1595 C 0.82890 0.94841 0.67425
 C1596 C 0.84818 0.94836 0.66645
 C1597 C 0.85472 0.92988 0.65523
 C1598 C 0.84214 0.91173 0.65239
 C1599 C 0.82229 0.91296 0.65966
 O1600 O 0.79884 0.93418 0.68067
 C1601 C 0.80094 0.95294 0.69087
 C1602 C 0.81914 0.96225 0.68764
 C1603 C 0.82524 0.98075 0.69857
 C1604 C 0.81202 0.99001 0.71340
 C1605 C 0.79309 0.98089 0.71661
 C1606 C 0.78739 0.96226 0.70503
 H1607 H 0.85807 0.96173 0.66956
 H1608 H 0.86991 0.92925 0.64962
 H1609 H 0.81249 0.89923 0.65833
 H1610 H 0.83984 0.98742 0.69621
 H1611 H 0.81646 1.00420 0.72238
 H1612 H 0.77319 0.95470 0.70772
 C1613 C 0.67761 0.59131 0.67481
 C1614 C 0.66484 0.57422 0.67240
 C1615 C 0.64606 0.57633 0.66373
 C1616 C 0.64001 0.59698 0.65763
 C1617 C 0.65267 0.61501 0.66028
 C1618 C 0.67194 0.61206 0.66859
 O1619 O 0.69415 0.58604 0.68490
 C1620 C 0.69167 0.56522 0.68902
 C1621 C 0.67393 0.55730 0.68169
 C1622 C 0.66739 0.53655 0.68575
 C1623 C 0.67950 0.52346 0.69810
 C1624 C 0.69783 0.53115 0.70589
 C1625 C 0.70423 0.55221 0.70102
 H1626 H 0.63618 0.56268 0.66234
 H1627 H 0.62523 0.59912 0.65135
 H1628 H 0.68167 0.62567 0.67124
 H1629 H 0.65317 0.53089 0.68019
 H1630 H 0.67447 0.50741 0.70192
 H1631 H 0.71792 0.55860 0.70731
 C1632 C 0.71014 0.07357 0.20390
 C1633 C 0.72958 0.07812 0.19935
 C1634 C 0.73527 0.09665 0.18907
 C1635 C 0.72029 0.11101 0.18291
 C1636 C 0.69989 0.10643 0.18646
 C1637 C 0.69489 0.08739 0.19740
 O1638 O 0.70808 0.05532 0.21438
 C1639 C 0.72665 0.04817 0.21632
 C1640 C 0.74030 0.06145 0.20713
 C1641 C 0.76050 0.05684 0.20663
 C1642 C 0.76697 0.03780 0.21613
 C1643 C 0.75334 0.02409 0.22628
 C1644 C 0.73285 0.02938 0.22644
 H1645 H 0.75073 0.10007 0.18609
 H1646 H 0.72478 0.12580 0.17553
 H1647 H 0.67962 0.08314 0.20042
 H1648 H 0.77091 0.06749 0.19914
 H1649 H 0.78269 0.03400 0.21605
 H1650 H 0.72215 0.01913 0.23401
 C1651 C 0.19784 0.57194 0.19519
 C1652 C 0.18477 0.55752 0.20366
 C1653 C 0.16543 0.55529 0.19666
 C1654 C 0.15912 0.56884 0.18060
 C1655 C 0.17194 0.58467 0.17215
 C1656 C 0.19178 0.58586 0.17936
 O1657 O 0.21565 0.57120 0.20400
 C1658 C 0.21368 0.55609 0.21840
 C1659 C 0.19500 0.54740 0.21897
 C1660 C 0.18948 0.53180 0.23324
 C1661 C 0.20392 0.52459 0.24732
 C1662 C 0.22350 0.53277 0.24664
 C1663 C 0.22839 0.54885 0.23200
 H1664 H 0.15553 0.54358 0.20336
 H1665 H 0.14410 0.56710 0.17491
 H1666 H 0.20196 0.59774 0.17343
 H1667 H 0.17461 0.52535 0.23347
 H1668 H 0.20002 0.51216 0.25831
 H1669 H 0.24320 0.55542 0.23116
 C1670 C 0.18000 0.11648 0.69731
 C1671 C 0.17694 0.12058 0.71837
 C1672 C 0.16625 0.13845 0.72592
 C1673 C 0.15840 0.15269 0.71116
 C1674 C 0.16113 0.14877 0.68924
 C1675 C 0.17211 0.13025 0.68234
 O1676 O 0.19102 0.09893 0.69344
 C1677 C 0.19498 0.09178 0.71250
 C1678 C 0.18662 0.10438 0.72829
 C1679 C 0.18895 0.09988 0.74944
 C1680 C 0.20047 0.08171 0.75452
 C1681 C 0.20954 0.06860 0.73853
 C1682 C 0.20664 0.07375 0.71719
 H1683 H 0.16424 0.14148 0.74260
 H1684 H 0.15048 0.16695 0.71687
 H1685 H 0.17438 0.12652 0.66582
 H1686 H 0.18223 0.11005 0.76159
 H1687 H 0.20258 0.07811 0.77092
 H1688 H 0.21332 0.06412 0.70460
 C1689 C 0.31103 0.61788 0.33062
 C1690 C 0.30100 0.60909 0.34718
 C1691 C 0.30171 0.61774 0.36745
 C1692 C 0.31314 0.63632 0.37081
 C1693 C 0.32334 0.64615 0.35393
 C1694 C 0.32221 0.63659 0.33351
 O1695 O 0.30889 0.60670 0.31275
 C1696 C 0.29721 0.59053 0.31816
 C1697 C 0.29184 0.59138 0.33903
 C1698 C 0.27968 0.57611 0.34809
 C1699 C 0.27293 0.55910 0.33518
 C1700 C 0.27860 0.55748 0.31368
 C1701 C 0.29086 0.57358 0.30506
 H1702 H 0.29395 0.61028 0.38030
 H1703 H 0.31421 0.64281 0.38666
 H1704 H 0.32959 0.64359 0.32018
 H1705 H 0.27565 0.57715 0.36455
 H1706 H 0.26368 0.54690 0.34212
 H1707 H 0.29549 0.57281 0.28876
 C1708 C 0.31759 0.11225 0.80618
 C1709 C 0.33003 0.10139 0.79234
 C1710 C 0.35030 0.10525 0.79149
 C1711 C 0.35802 0.12091 0.80545
 C1712 C 0.34540 0.13269 0.81968
 C1713 C 0.32481 0.12822 0.81976
 O1714 O 0.29899 0.10553 0.80530
 C1715 C 0.29966 0.09012 0.79053
 C1716 C 0.31824 0.08706 0.78189
 C1717 C 0.32215 0.07161 0.76616
 C1718 C 0.30633 0.05862 0.75932
 C1719 C 0.28723 0.06103 0.76858
 C1720 C 0.28388 0.07716 0.78428
 H1721 H 0.35991 0.09622 0.78076
 H1722 H 0.37386 0.12349 0.80536
 H1723 H 0.31452 0.13691 0.83001
 H1724 H 0.33688 0.06948 0.75956
 H1725 H 0.30909 0.04623 0.74737
 H1726 H 0.26946 0.07938 0.79161
 C1727 C 0.78493 0.59142 0.80250
 C1728 C 0.76603 0.59244 0.81066
 C1729 C 0.75978 0.60842 0.82487
 C1730 C 0.77364 0.62395 0.83112
 C1731 C 0.79348 0.62314 0.82340
 C1732 C 0.79910 0.60664 0.80867
 O1733 O 0.78761 0.57499 0.78894
 C1734 C 0.76999 0.56548 0.78862
 C1735 C 0.75636 0.57552 0.80174
 C1736 C 0.73705 0.56832 0.80407
 C1737 C 0.73147 0.55003 0.79228
 C1738 C 0.74509 0.53943 0.77832
 C1739 C 0.76470 0.54731 0.77653
 H1740 H 0.74473 0.60900 0.83085
 H1741 H 0.76881 0.63675 0.84187
 H1742 H 0.81406 0.60545 0.80249
 H1743 H 0.72663 0.57652 0.81455
 H1744 H 0.71639 0.54437 0.79382
 H1745 H 0.77545 0.53961 0.76606
 C1746 C 0.84657 0.07234 0.31001
 C1747 C 0.85942 0.05963 0.29823
 C1748 C 0.87933 0.06456 0.29554
 C1749 C 0.88627 0.08358 0.30519
 C1750 C 0.87330 0.09723 0.31717
 C1751 C 0.85319 0.09131 0.31984
 O1752 O 0.82805 0.06513 0.30980
 C1753 C 0.82926 0.04750 0.29755
 C1754 C 0.84816 0.04351 0.29009
 C1755 C 0.85278 0.02656 0.27628
 C1756 C 0.83728 0.01317 0.26977
 C1757 C 0.81757 0.01683 0.27713
 C1758 C 0.81355 0.03416 0.29145
 H1759 H 0.88910 0.05431 0.28607
 H1760 H 0.90170 0.08783 0.30315
 H1761 H 0.84286 0.10161 0.32857
 H1762 H 0.86775 0.02389 0.27051
 H1763 H 0.84068 -0.00012 0.25897
 H1764 H 0.79866 0.03747 0.29718
 C1765 C 0.69343 0.39332 0.28915
 C1766 C 0.71175 0.38996 0.28000
 C1767 C 0.72256 0.37091 0.28189
 C1768 C 0.71436 0.35469 0.29410
 C1769 C 0.69578 0.35780 0.30437
 C1770 C 0.68492 0.37727 0.30147
 O1771 O 0.68611 0.41304 0.28584
 C1772 C 0.70021 0.42226 0.27447
 C1773 C 0.71622 0.40875 0.27062
 C1774 C 0.73320 0.41522 0.26015
 C1775 C 0.73378 0.43656 0.25332
 C1776 C 0.71747 0.45080 0.25679
 C1777 C 0.70030 0.44359 0.26735
 H1778 H 0.73696 0.36874 0.27452
 H1779 H 0.72270 0.33979 0.29591
 H1780 H 0.67082 0.38017 0.30929
 H1781 H 0.74569 0.40433 0.25762
 H1782 H 0.74692 0.44204 0.24521
 H1783 H 0.68779 0.45433 0.27036
 C1784 C 0.69716 0.89249 0.78582
 C1785 C 0.71678 0.88618 0.78565
 C1786 C 0.72311 0.86602 0.79237
 C1787 C 0.70867 0.85191 0.79989
 C1788 C 0.68836 0.85824 0.80087
 C1789 C 0.68256 0.87874 0.79331
 O1790 O 0.69441 0.91273 0.77979
 C1791 C 0.71269 0.91938 0.77587
 C1792 C 0.72693 0.90376 0.77931
 C1793 C 0.74714 0.90777 0.77784
 C1794 C 0.75292 0.92878 0.77281
 C1795 C 0.73852 0.94512 0.76910
 C1796 C 0.71811 0.94026 0.77032
 H1797 H 0.73865 0.86147 0.79219
 H1798 H 0.71337 0.83618 0.80528
 H1799 H 0.66730 0.88429 0.79424
 H1800 H 0.75806 0.89534 0.78104
 H1801 H 0.76858 0.93242 0.77200
 H1802 H 0.70686 0.95261 0.76811
 C1803 C 0.19633 0.40067 0.79930
 C1804 C 0.18040 0.41290 0.79301
 C1805 C 0.16103 0.40885 0.79908
 C1806 C 0.15784 0.39119 0.81197
 C1807 C 0.17383 0.37761 0.81812
 C1808 C 0.19346 0.38271 0.81192
 O1809 O 0.21351 0.40749 0.79161
 C1810 C 0.20819 0.42429 0.78012
 C1811 C 0.18804 0.42805 0.78038
 C1812 C 0.17892 0.44406 0.76882
 C1813 C 0.19109 0.45682 0.75642
 C1814 C 0.21194 0.45365 0.75609
 C1815 C 0.22073 0.43727 0.76825
 H1816 H 0.14881 0.41894 0.79407
 H1817 H 0.14282 0.38809 0.81710
 H1818 H 0.20599 0.37270 0.81624
 H1819 H 0.16301 0.44650 0.76918
 H1820 H 0.18429 0.46949 0.74731
 H1821 H 0.23661 0.43452 0.76812
 C1822 C 0.18764 0.89311 0.29380
 C1823 C 0.17508 0.90095 0.27872
 C1824 C 0.15626 0.89261 0.27533
 C1825 C 0.15020 0.87546 0.28792
 C1826 C 0.16296 0.86699 0.30351
 C1827 C 0.18194 0.87611 0.30646
 O1828 O 0.20491 0.90318 0.29448
 C1829 C 0.20322 0.91769 0.27953
 C1830 C 0.18529 0.91703 0.26937
 C1831 C 0.18055 0.93082 0.25309
 C1832 C 0.19487 0.94593 0.24712
 C1833 C 0.21347 0.94696 0.25745
 C1834 C 0.21760 0.93253 0.27389
 H1835 H 0.14658 0.89906 0.26342
 H1836 H 0.13552 0.86890 0.28563
 H1837 H 0.19215 0.86991 0.31800
 H1838 H 0.16634 0.92999 0.24529
 H1839 H 0.19142 0.95683 0.23452
 H1840 H 0.23161 0.93280 0.28212
 C1841 C 0.42307 0.30949 0.67991
 C1842 C 0.43585 0.32607 0.68469
 C1843 C 0.43183 0.34744 0.67970
 C1844 C 0.41384 0.35192 0.66956
 C1845 C 0.40013 0.33515 0.66489
 C1846 C 0.40504 0.31358 0.67008
 O1847 O 0.42955 0.29035 0.68610
 C1848 C 0.44677 0.29493 0.69504
 C1849 C 0.45130 0.31657 0.69473
 C1850 C 0.46835 0.32492 0.70396
 C1851 C 0.48123 0.31034 0.71386
 C1852 C 0.47696 0.28791 0.71409
 C1853 C 0.45947 0.28017 0.70445
 H1854 H 0.44216 0.36023 0.68349
 H1855 H 0.41063 0.36846 0.66538
 H1856 H 0.39491 0.30040 0.66714
 H1857 H 0.47153 0.34204 0.70371
 H1858 H 0.49456 0.31649 0.72119
 H1859 H 0.45565 0.26320 0.70461
 C1860 C 0.39738 0.80207 0.18183
 C1861 C 0.39697 0.77985 0.18203
 C1862 C 0.38217 0.76780 0.17243
 C1863 C 0.36732 0.77907 0.16181
 C1864 C 0.36766 0.80201 0.16058
 C1865 C 0.38283 0.81366 0.17110
 O1866 O 0.41290 0.81028 0.19194
 C1867 C 0.42250 0.79281 0.19852
 C1868 C 0.41339 0.77382 0.19268
 C1869 C 0.42118 0.75356 0.19706
 C1870 C 0.43910 0.75278 0.20804
 C1871 C 0.44869 0.77207 0.21467
 C1872 C 0.44020 0.79243 0.20992
 H1873 H 0.38211 0.75031 0.17301
 H1874 H 0.35559 0.76985 0.15443
 H1875 H 0.38369 0.83111 0.17038
 H1876 H 0.41379 0.73886 0.19209
 H1877 H 0.44534 0.73710 0.21171
 H1878 H 0.44728 0.80739 0.21466
 C1879 C 0.91159 0.32578 0.19105
 C1880 C 0.92150 0.34340 0.19906
 C1881 C 0.91488 0.36450 0.19626
 C1882 C 0.89742 0.36753 0.18468
 C1883 C 0.88657 0.34958 0.17652
 C1884 C 0.89388 0.32836 0.18013
 O1885 O 0.92089 0.30716 0.19435
 C1886 C 0.93701 0.31314 0.20474
 C1887 C 0.93800 0.33513 0.20830
 C1888 C 0.95370 0.34480 0.21896
 C1889 C 0.96905 0.33126 0.22603
 C1890 C 0.96863 0.30866 0.22183
 C1891 C 0.95231 0.29950 0.21114
 H1892 H 0.92316 0.37818 0.20229
 H1893 H 0.89276 0.38396 0.18169
 H1894 H 0.88617 0.31409 0.17464
 H1895 H 0.95417 0.36214 0.22163
 H1896 H 0.98155 0.33839 0.23414
 H1897 H 0.95163 0.28228 0.20779
 C1898 C 0.91109 0.82606 0.67825
 C1899 C 0.92466 0.84039 0.68634
 C1900 C 0.92445 0.86222 0.68149
 C1901 C 0.90940 0.86960 0.66812
 C1902 C 0.89463 0.85527 0.66032
 C1903 C 0.89583 0.83307 0.66540
 O1904 O 0.91370 0.80601 0.68472
 C1905 C 0.92919 0.80769 0.69732
 C1906 C 0.93636 0.82842 0.69912
 C1907 C 0.95191 0.83386 0.71249
 C1908 C 0.96046 0.81721 0.72427
 C1909 C 0.95360 0.79568 0.72204
 C1910 C 0.93778 0.79089 0.70838
 H1911 H 0.93539 0.87321 0.68786
 H1912 H 0.90916 0.88654 0.66415
 H1913 H 0.88471 0.82158 0.66045
 H1914 H 0.95714 0.85032 0.71392
 H1915 H 0.97263 0.82092 0.73473
 H1916 H 0.93216 0.77460 0.70665
 C1917 C 0.61676 0.29241 0.30753
 C1918 C 0.60816 0.28387 0.32512
 C1919 C 0.61679 0.28551 0.34486
 C1920 C 0.63507 0.29616 0.34646
 C1921 C 0.64446 0.30474 0.32843
 C1922 C 0.63494 0.30292 0.30872
 O1923 O 0.60629 0.28905 0.29023
 C1924 C 0.59077 0.27812 0.29701
 C1925 C 0.59117 0.27439 0.31821
 C1926 C 0.57645 0.26277 0.32834
 C1927 C 0.56065 0.25483 0.31611
 C1928 C 0.55983 0.25879 0.29426
 C1929 C 0.57522 0.27059 0.28469
 H1930 H 0.60974 0.27878 0.35854
 H1931 H 0.64192 0.29766 0.36175
 H1932 H 0.64172 0.30888 0.29455
 H1933 H 0.57711 0.25990 0.34503
 H1934 H 0.54901 0.24585 0.32368
 H1935 H 0.57520 0.27376 0.26803
 C1936 C 0.59133 0.80424 0.79798
 C1937 C 0.58191 0.82144 0.78885
 C1938 C 0.59070 0.84158 0.78695
 C1939 C 0.60996 0.84410 0.79492
 C1940 C 0.62001 0.82654 0.80440
 C1941 C 0.61046 0.80630 0.80576
 O1942 O 0.58048 0.78646 0.79822
 C1943 C 0.56380 0.79254 0.78901
 C1944 C 0.56393 0.81377 0.78291
 C1945 C 0.54813 0.82330 0.77251
 C1946 C 0.53163 0.81035 0.76807
 C1947 C 0.53116 0.78839 0.77422
 C1948 C 0.54747 0.77947 0.78502
 H1949 H 0.58297 0.85492 0.77974
 H1950 H 0.61687 0.85979 0.79399
 H1951 H 0.61775 0.79242 0.81252
 H1952 H 0.54859 0.84000 0.76776
 H1953 H 0.51925 0.81741 0.75978
 H1954 H 0.54768 0.76272 0.78968
 C1955 C 0.10064 0.30950 0.81108
 C1956 C 0.08905 0.30377 0.82782
 C1957 C 0.09586 0.30435 0.84841
 C1958 C 0.11524 0.31174 0.85195
 C1959 C 0.12748 0.31811 0.83495
 C1960 C 0.12008 0.31623 0.81415
 O1961 O 0.09114 0.30873 0.79286
 C1962 C 0.07309 0.30239 0.79821
 C1963 C 0.07109 0.29899 0.81941
 C1964 C 0.05347 0.29223 0.82844
 C1965 C 0.03735 0.28853 0.81504
 C1966 C 0.03898 0.29203 0.79313
 C1967 C 0.05708 0.29928 0.78462
 H1968 H 0.08637 0.29999 0.86138
 H1969 H 0.12029 0.31340 0.86799
 H1970 H 0.12893 0.32055 0.80068
 H1971 H 0.05222 0.28967 0.84515
 H1972 H 0.02355 0.28295 0.82171
 H1973 H 0.05879 0.30182 0.76794
 C1974 C 0.10235 0.78198 0.28756
 C1975 C 0.10672 0.76128 0.29371
 C1976 C 0.12220 0.75654 0.30724
 C1977 C 0.13348 0.77388 0.31497
 C1978 C 0.12904 0.79547 0.30923
 C1979 C 0.11340 0.79946 0.29502
 O1980 O 0.08646 0.78309 0.27539
 C1981 C 0.08063 0.76266 0.27390
 C1982 C 0.09251 0.74869 0.28487
 C1983 C 0.08844 0.72678 0.28650
 C1984 C 0.07132 0.71900 0.27657
 C1985 C 0.05879 0.73308 0.26519
 C1986 C 0.06371 0.75520 0.26364
 H1987 H 0.12528 0.74013 0.31196
 H1988 H 0.14555 0.77051 0.32561
 H1989 H 0.10938 0.81575 0.29065
 H1990 H 0.09786 0.71616 0.29547
 H1991 H 0.06774 0.70204 0.27791
 H1992 H 0.05424 0.76643 0.25542
 C1993 C 0.57526 0.69524 0.68649
 C1994 C 0.56170 0.67899 0.68893
 C1995 C 0.56538 0.65773 0.68251
 C1996 C 0.58385 0.65295 0.67325
 C1997 C 0.59838 0.66926 0.67088
 C1998 C 0.59384 0.69081 0.67747
 O1999 O 0.56895 0.71422 0.69424
 C2000 C 0.55107 0.70980 0.70181
 C2001 C 0.54600 0.68842 0.69902
 C2002 C 0.52854 0.67986 0.70689
 C2003 C 0.51589 0.69386 0.71837
 C2004 C 0.52071 0.71596 0.72136
 C2005 C 0.53841 0.72416 0.71274
 H2006 H 0.55445 0.64524 0.68460
 H2007 H 0.58676 0.63649 0.66787
 H2008 H 0.60459 0.70361 0.67617
 H2009 H 0.52507 0.66290 0.70480
 H2010 H 0.50246 0.68749 0.72518
 H2011 H 0.54262 0.74086 0.71537
 C2012 C 0.60782 0.16989 0.20530
 C2013 C 0.59767 0.15377 0.21514
 C2014 C 0.60457 0.13244 0.21529
 C2015 C 0.62248 0.12756 0.20462
 C2016 C 0.63309 0.14398 0.19419
 C2017 C 0.62564 0.16550 0.19496
 O2018 O 0.59893 0.18907 0.20681
 C2019 C 0.58273 0.18507 0.21786
 C2020 C 0.58121 0.16375 0.22345
 C2021 C 0.56547 0.15629 0.23546
 C2022 C 0.55092 0.17145 0.24209
 C2023 C 0.55224 0.19353 0.23647
 C2024 C 0.56835 0.20027 0.22399
 H2025 H 0.59636 0.11996 0.22312
 H2026 H 0.62784 0.11100 0.20414
 H2027 H 0.63348 0.17862 0.18769
 H2028 H 0.56456 0.13949 0.23979
 H2029 H 0.53873 0.16602 0.25171
 H2030 H 0.57000 0.21701 0.21966
 C2031 C 0.09135 0.65566 0.16152
 C2032 C 0.07774 0.63941 0.16400
 C2033 C 0.08168 0.61798 0.15830
 C2034 C 0.10062 0.61294 0.15039
 C2035 C 0.11519 0.62921 0.14849
 C2036 C 0.11029 0.65100 0.15348
 O2037 O 0.08534 0.67448 0.16985
 C2038 C 0.06768 0.66997 0.17793
 C2039 C 0.06240 0.64869 0.17487
 C2040 C 0.04571 0.63981 0.18417
 C2041 C 0.03405 0.65338 0.19726
 C2042 C 0.03911 0.67539 0.20049
 C2043 C 0.05596 0.68390 0.19039
 H2044 H 0.07089 0.60542 0.16082
 H2045 H 0.10438 0.59618 0.14686
 H2046 H 0.12138 0.66353 0.15292
 H2047 H 0.04220 0.62286 0.18206
 H2048 H 0.02125 0.64674 0.20510
 H2049 H 0.06047 0.70047 0.19322
 C2050 C 0.08305 0.21447 0.69406
 C2051 C 0.07083 0.22040 0.67793
 C2052 C 0.07594 0.21706 0.65692
 C2053 C 0.09431 0.20703 0.65238
 C2054 C 0.10738 0.20095 0.66877
 C2055 C 0.10152 0.20501 0.68993
 O2056 O 0.07552 0.21905 0.71294
 C2057 C 0.05815 0.22816 0.70866
 C2058 C 0.05461 0.22955 0.68746
 C2059 C 0.03777 0.23962 0.67952
 C2060 C 0.02422 0.24885 0.69403
 C2061 C 0.02750 0.24737 0.71593
 C2062 C 0.04459 0.23663 0.72333
 H2063 H 0.06603 0.22176 0.64446
 H2064 H 0.09811 0.20373 0.63610
 H2065 H 0.11109 0.20118 0.70295
 H2066 H 0.03541 0.24083 0.66279
 H2067 H 0.01127 0.25733 0.68827
 H2068 H 0.04768 0.23585 0.73997
 C2069 C 0.40676 0.71437 0.32172
 C2070 C 0.41873 0.69663 0.31769
 C2071 C 0.41390 0.67598 0.32412
 C2072 C 0.39597 0.67351 0.33508
 C2073 C 0.38312 0.69151 0.33918
 C2074 C 0.38878 0.71227 0.33238
 O2075 O 0.41399 0.73254 0.31413
 C2076 C 0.43087 0.72610 0.30508
 C2077 C 0.43444 0.70426 0.30672
 C2078 C 0.45093 0.69402 0.29767
 C2079 C 0.46422 0.70679 0.28637
 C2080 C 0.46092 0.72939 0.28457
 C2081 C 0.44404 0.73915 0.29425
 H2082 H 0.42360 0.66226 0.32086
 H2083 H 0.39222 0.65758 0.34051
 H2084 H 0.37931 0.72633 0.33491
 H2085 H 0.45334 0.67676 0.29900
 H2086 H 0.47703 0.69909 0.27900
 H2087 H 0.44093 0.75628 0.29287
 C2088 C 0.41595 0.20688 0.80967
 C2089 C 0.42872 0.21400 0.82503
 C2090 C 0.42559 0.21017 0.84620
 C2091 C 0.40866 0.19848 0.85173
 C2092 C 0.39501 0.19117 0.83618
 C2093 C 0.39879 0.19579 0.81483
 O2094 O 0.42228 0.21080 0.79040
 C2095 C 0.43942 0.22063 0.79365
 C2096 C 0.44398 0.22322 0.81457
 C2097 C 0.46152 0.23266 0.82142
 C2098 C 0.47505 0.23933 0.80604
 C2099 C 0.47094 0.23602 0.78440
 C2100 C 0.45273 0.22680 0.77818
 H2101 H 0.43609 0.21546 0.85799
 H2102 H 0.40656 0.19467 0.86809
 H2103 H 0.38882 0.19079 0.80243
 H2104 H 0.46485 0.23445 0.83797
 H2105 H 0.48902 0.24622 0.81099
 H2106 H 0.44924 0.22400 0.76177
 C2107 C 0.87949 0.69363 0.80259
 C2108 C 0.87510 0.69418 0.78156
 C2109 C 0.85741 0.68637 0.77341
 C2110 C 0.84374 0.67755 0.78751
 C2111 C 0.84808 0.67624 0.80930
 C2112 C 0.86634 0.68454 0.81680
 O2113 O 0.89700 0.70208 0.80719
 C2114 C 0.90385 0.70803 0.78864
 C2115 C 0.89111 0.70339 0.77239
 C2116 C 0.89573 0.70756 0.75154
 C2117 C 0.91422 0.71688 0.74731
 C2118 C 0.92741 0.72218 0.76388
 C2119 C 0.92206 0.71776 0.78485
 H2120 H 0.85416 0.68720 0.75682
 H2121 H 0.82972 0.67195 0.78136
 H2122 H 0.87047 0.68361 0.83315
 H2123 H 0.88556 0.70358 0.73898
 H2124 H 0.91818 0.72019 0.73120
 H2125 H 0.93197 0.72136 0.79776
 C2126 C 0.93476 0.19178 0.29811
 C2127 C 0.92921 0.19140 0.27738
 C2128 C 0.91324 0.17958 0.26989
 C2129 C 0.90269 0.16731 0.28432
 C2130 C 0.90840 0.16672 0.30576
 C2131 C 0.92455 0.17948 0.31278
 O2132 O 0.95050 0.20409 0.30179
 C2133 C 0.95498 0.21151 0.28291
 C2134 C 0.94243 0.20405 0.26747
 C2135 C 0.94467 0.20904 0.24646
 C2136 C 0.96048 0.22236 0.24106
 C2137 C 0.97355 0.23062 0.25664
 C2138 C 0.97068 0.22519 0.27794
 H2139 H 0.90910 0.17973 0.25350
 H2140 H 0.89009 0.15818 0.27871
 H2141 H 0.92940 0.17932 0.32895
 H2142 H 0.93466 0.20280 0.23461
 H2143 H 0.96235 0.22651 0.22474
 H2144 H 0.98047 0.23116 0.29012
 C2145 C 0.32253 0.30465 0.58873
 C2146 C 0.32624 0.28305 0.59185
 C2147 C 0.33799 0.27573 0.60813
 C2148 C 0.34637 0.29130 0.62166
 C2149 C 0.34318 0.31381 0.61858
 C2150 C 0.33094 0.32045 0.60180
 O2151 O 0.31061 0.30818 0.57261
 C2152 C 0.30676 0.28837 0.56538
 C2153 C 0.31606 0.27241 0.57649
 C2154 C 0.31419 0.25051 0.57142
 C2155 C 0.30211 0.24486 0.55428
 C2156 C 0.29203 0.26103 0.54284
 C2157 C 0.29451 0.28311 0.54850
 H2158 H 0.34049 0.25862 0.61046
 H2159 H 0.35518 0.28573 0.63468
 H2160 H 0.32824 0.33737 0.59875
 H2161 H 0.32172 0.23823 0.58036
 H2162 H 0.30032 0.22790 0.55020
 H2163 H 0.28710 0.29586 0.54004
 C2164 C 0.29947 0.78948 0.07335
 C2165 C 0.31356 0.77940 0.06078
 C2166 C 0.33375 0.78051 0.06490
 C2167 C 0.33965 0.79224 0.08286
 C2168 C 0.32541 0.80245 0.09638
 C2169 C 0.30501 0.80122 0.09131
 O2170 O 0.28106 0.78608 0.06685
 C2171 C 0.28358 0.77354 0.04985
 C2172 C 0.30318 0.76891 0.04549
 C2173 C 0.30913 0.75552 0.02877
 C2174 C 0.29427 0.74657 0.01599
 C2175 C 0.27392 0.75122 0.02004
 C2176 C 0.26858 0.76499 0.03725
 H2177 H 0.34456 0.77247 0.05475
 H2178 H 0.35533 0.79328 0.08628
 H2179 H 0.29374 0.80852 0.10140
 H2180 H 0.32464 0.75198 0.02575
 H2181 H 0.29864 0.73612 0.00290
 H2182 H 0.25321 0.76874 0.04090
 C2183 C 0.81384 0.30708 0.09918
 C2184 C 0.82801 0.29490 0.08868
 C2185 C 0.84817 0.29699 0.09266
 C2186 C 0.85393 0.31228 0.10805
 C2187 C 0.83955 0.32488 0.11943
 C2188 C 0.81915 0.32189 0.11487
 O2189 O 0.79556 0.30342 0.09245
 C2190 C 0.79822 0.28854 0.07738
 C2191 C 0.81778 0.28256 0.07457
 C2192 C 0.82382 0.26714 0.05959
 C2193 C 0.80912 0.25770 0.04689
 C2194 C 0.78894 0.26412 0.04911
 C2195 C 0.78346 0.27971 0.06467
 H2196 H 0.85912 0.28751 0.08394
 H2197 H 0.86961 0.31453 0.11070
 H2198 H 0.80760 0.33076 0.12328
 H2199 H 0.83928 0.26265 0.05764
 H2200 H 0.81351 0.24588 0.03492
 H2201 H 0.76817 0.28490 0.06674
 C2202 C 0.81499 0.82499 0.58877
 C2203 C 0.81553 0.80491 0.59767
 C2204 C 0.82546 0.80069 0.61617
 C2205 C 0.83557 0.81778 0.62582
 C2206 C 0.83585 0.83863 0.61682
 C2207 C 0.82504 0.84240 0.59817
 O2208 O 0.80495 0.82515 0.57081
 C2209 C 0.79917 0.80471 0.56840
 C2210 C 0.80539 0.79176 0.58443
 C2211 C 0.80187 0.76970 0.58486
 C2212 C 0.79149 0.76048 0.56803
 C2213 C 0.78469 0.77333 0.55126
 C2214 C 0.78846 0.79588 0.55153
 H2215 H 0.82558 0.78472 0.62284
 H2216 H 0.84337 0.81472 0.64030
 H2217 H 0.82503 0.85809 0.59092
 H2218 H 0.80712 0.75988 0.59761
 H2219 H 0.78864 0.74327 0.56816
 H2220 H 0.78361 0.80605 0.53886
 C2221 C 0.30588 0.73348 0.41386
 C2222 C 0.31957 0.74556 0.42473
 C2223 C 0.33979 0.74419 0.42050
 C2224 C 0.34615 0.72964 0.40455
 C2225 C 0.33230 0.71708 0.39281
 C2226 C 0.31178 0.71949 0.39753
 O2227 O 0.28751 0.73610 0.42111
 C2228 C 0.28963 0.75020 0.43689
 C2229 C 0.30891 0.75674 0.43965
 C2230 C 0.31440 0.77138 0.45542
 C2231 C 0.29943 0.77941 0.46899
 C2232 C 0.27958 0.77231 0.46686
 C2233 C 0.27464 0.75758 0.45048
 H2234 H 0.35036 0.75351 0.42957
 H2235 H 0.36194 0.72780 0.40189
 H2236 H 0.30056 0.71065 0.38894
 H2237 H 0.32966 0.77630 0.45731
 H2238 H 0.30340 0.79060 0.48156
 H2239 H 0.25960 0.75191 0.44847
 C2240 C 0.32853 0.19783 0.91523
 C2241 C 0.32219 0.18038 0.92640
 C2242 C 0.32556 0.15910 0.91978
 C2243 C 0.33577 0.15564 0.90076
 C2244 C 0.34216 0.17335 0.88866
 C2245 C 0.33861 0.19477 0.89621
 O2246 O 0.32306 0.21672 0.92382
 C2247 C 0.31295 0.21106 0.94075
 C2248 C 0.31194 0.18899 0.94298
 C2249 C 0.30094 0.17942 0.95871
 C2250 C 0.29030 0.19316 0.97255
 C2251 C 0.29109 0.21595 0.97059
 C2252 C 0.30286 0.22506 0.95469
 H2253 H 0.32032 0.14564 0.92882
 H2254 H 0.33862 0.13915 0.89544
 H2255 H 0.34289 0.20865 0.88721
 H2256 H 0.30010 0.16202 0.95993
 H2257 H 0.28125 0.18606 0.98465
 H2258 H 0.30329 0.24239 0.95257
 C2259 C 0.80693 0.70073 0.90543
 C2260 C 0.80543 0.68579 0.92108
 C2261 C 0.80984 0.66397 0.91787
 C2262 C 0.81553 0.65714 0.89757
 C2263 C 0.81653 0.67208 0.88097
 C2264 C 0.81269 0.69430 0.88514
 O2265 O 0.80055 0.72031 0.91133
 C2266 C 0.79476 0.71765 0.93106
 C2267 C 0.79737 0.69680 0.93776
 C2268 C 0.79059 0.68992 0.95715
 C2269 C 0.78057 0.70510 0.97010
 C2270 C 0.77772 0.72671 0.96357
 C2271 C 0.78522 0.73313 0.94390
 H2272 H 0.80828 0.65247 0.93035
 H2273 H 0.81845 0.64010 0.89457
 H2274 H 0.81278 0.70594 0.87266
 H2275 H 0.79240 0.67330 0.96186
 H2276 H 0.77481 0.69998 0.98508
 H2277 H 0.78276 0.74935 0.93828
 C2278 C 0.86121 0.17821 0.39953
 C2279 C 0.86126 0.16303 0.41503
 C2280 C 0.86922 0.14237 0.41208
 C2281 C 0.87707 0.13698 0.39221
 C2282 C 0.87658 0.15209 0.37571
 C2283 C 0.86894 0.17320 0.37966
 O2284 O 0.85158 0.19629 0.40502
 C2285 C 0.84529 0.19238 0.42434
 C2286 C 0.85076 0.17220 0.43117
 C2287 C 0.84401 0.16386 0.45000
 C2288 C 0.83090 0.17673 0.46214
 C2289 C 0.82516 0.19755 0.45541
 C2290 C 0.83270 0.20567 0.43646
 H2291 H 0.86887 0.13061 0.42443
 H2292 H 0.88303 0.12084 0.38950
 H2293 H 0.86785 0.18489 0.36728
 H2294 H 0.84807 0.14771 0.45477
 H2295 H 0.82488 0.17038 0.47654
 H2296 H 0.82789 0.22123 0.43072
 C2297 C 0.72344 0.28474 0.38926
 C2298 C 0.74297 0.28631 0.38321
 C2299 C 0.74875 0.29588 0.36466
 C2300 C 0.73381 0.30438 0.35192
 C2301 C 0.71349 0.30376 0.35810
 C2302 C 0.70835 0.29354 0.37707
 O2303 O 0.72113 0.27477 0.40736
 C2304 C 0.73961 0.27009 0.41288
 C2305 C 0.75355 0.27701 0.39875
 C2306 C 0.77386 0.27463 0.40192
 C2307 C 0.78003 0.26469 0.42043
 C2308 C 0.76590 0.25698 0.43494
 C2309 C 0.74541 0.25961 0.43107
 H2310 H 0.76420 0.29664 0.36008
 H2311 H 0.73820 0.31132 0.33716
 H2312 H 0.69314 0.29284 0.38252
 H2313 H 0.78456 0.28046 0.39068
 H2314 H 0.79575 0.26274 0.42339
 H2315 H 0.73438 0.25413 0.44212
 C2316 C 0.68822 0.80660 0.89177
 C2317 C 0.68043 0.78645 0.89500
 C2318 C 0.66752 0.77652 0.88095
 C2319 C 0.66243 0.78784 0.86284
 C2320 C 0.67012 0.80880 0.85921
 C2321 C 0.68318 0.81824 0.87406
 O2322 O 0.70069 0.81288 0.90667
 C2323 C 0.70079 0.79634 0.91959
 C2324 C 0.68856 0.77979 0.91326
 C2325 C 0.68660 0.76083 0.92444
 C2326 C 0.69784 0.75880 0.94281
 C2327 C 0.71085 0.77551 0.94944
 C2328 C 0.71218 0.79460 0.93766
 H2329 H 0.66179 0.76052 0.88368
 H2330 H 0.65278 0.78008 0.85150
 H2331 H 0.68920 0.83423 0.87201
 H2332 H 0.67691 0.74800 0.91913
 H2333 H 0.69671 0.74404 0.95159
 H2334 H 0.72195 0.80765 0.94225
 C2335 C 0.20219 0.30582 0.90489
 C2336 C 0.21135 0.32289 0.91488
 C2337 C 0.20948 0.34407 0.90830
 C2338 C 0.19779 0.34785 0.89060
 C2339 C 0.18849 0.33052 0.87950
 C2340 C 0.19074 0.30914 0.88697
 O2341 O 0.20549 0.28704 0.91412
 C2342 C 0.21703 0.29243 0.93024
 C2343 C 0.22114 0.31417 0.93126
 C2344 C 0.23305 0.32337 0.94671
 C2345 C 0.24099 0.30963 0.96183
 C2346 C 0.23671 0.28718 0.96145
 C2347 C 0.22453 0.27848 0.94534
 H2348 H 0.21657 0.35729 0.91667
 H2349 H 0.19580 0.36442 0.88581
 H2350 H 0.18400 0.29546 0.87900
 H2351 H 0.23610 0.34054 0.94713
 H2352 H 0.25016 0.31660 0.97408
 H2353 H 0.22102 0.26142 0.94459
 C2354 C 0.18157 0.83027 0.40201
 C2355 C 0.16663 0.82352 0.41505
 C2356 C 0.14731 0.82030 0.40824
 C2357 C 0.14329 0.82375 0.38700
 C2358 C 0.15853 0.83011 0.37301
 C2359 C 0.17787 0.83390 0.38079
 O2360 O 0.19917 0.83084 0.41132
 C2361 C 0.19524 0.82416 0.43059
 C2362 C 0.17554 0.81942 0.43361
 C2363 C 0.16840 0.81026 0.45188
 C2364 C 0.18216 0.80554 0.46759
 C2365 C 0.20252 0.81029 0.46490
 C2366 C 0.20914 0.82010 0.44629
 H2367 H 0.13588 0.81473 0.41876
 H2368 H 0.12841 0.82095 0.38130
 H2369 H 0.18988 0.83826 0.37040
 H2370 H 0.15290 0.80621 0.45367
 H2371 H 0.17705 0.79787 0.48175
 H2372 H 0.22472 0.82325 0.44366
 C2373 C 0.68215 0.69695 0.60034
 C2374 C 0.66971 0.70982 0.58886
 C2375 C 0.64935 0.71066 0.59217
 C2376 C 0.64148 0.69774 0.60796
 C2377 C 0.65399 0.68458 0.62050
 C2378 C 0.67473 0.68438 0.61650
 O2379 O 0.70090 0.69758 0.59389
 C2380 C 0.70024 0.71118 0.57803
 C2381 C 0.68153 0.71929 0.57444
 C2382 C 0.67743 0.73362 0.55844
 C2383 C 0.69324 0.73963 0.54544
 C2384 C 0.71258 0.73098 0.54840
 C2385 C 0.71610 0.71667 0.56510
 H2386 H 0.63979 0.72052 0.58258
 H2387 H 0.62554 0.69769 0.60995
 H2388 H 0.68487 0.67473 0.62560
 H2389 H 0.66257 0.73976 0.55591
 H2390 H 0.69027 0.75048 0.53266
 H2391 H 0.73067 0.70977 0.56774
 C2392 C 0.69600 0.17383 0.10456
 C2393 C 0.68844 0.19449 0.10667
 C2394 C 0.67602 0.20101 0.12306
 C2395 C 0.67119 0.18563 0.13802
 C2396 C 0.67849 0.16397 0.13627
 C2397 C 0.69112 0.15807 0.11913
 O2398 O 0.70818 0.17138 0.08818
 C2399 C 0.70825 0.19093 0.07984
 C2400 C 0.69632 0.20557 0.09057
 C2401 C 0.69431 0.22703 0.08490
 C2402 C 0.70512 0.23379 0.06744
 C2403 C 0.71778 0.21918 0.05609
 C2404 C 0.71928 0.19735 0.06241
 H2405 H 0.67058 0.21750 0.12455
 H2406 H 0.66215 0.19088 0.15129
 H2407 H 0.69705 0.14182 0.11721
 H2408 H 0.68485 0.23822 0.09369
 H2409 H 0.70377 0.25054 0.06296
 H2410 H 0.72883 0.18580 0.05417
 C2411 C 0.18840 0.65714 0.08238
 C2412 C 0.20083 0.64247 0.07235
 C2413 C 0.20308 0.62127 0.07890
 C2414 C 0.19204 0.61494 0.09648
 C2415 C 0.17911 0.62977 0.10723
 C2416 C 0.17739 0.65124 0.09996
 O2417 O 0.18815 0.67637 0.07347
 C2418 C 0.20070 0.67379 0.05746
 C2419 C 0.20890 0.65336 0.05608
 C2420 C 0.22234 0.64717 0.04037
 C2421 C 0.22746 0.66264 0.02546
 C2422 C 0.21909 0.68382 0.02642
 C2423 C 0.20553 0.68938 0.04278
 H2424 H 0.21282 0.60994 0.07065
 H2425 H 0.19332 0.59833 0.10142
 H2426 H 0.16784 0.66308 0.10778
 H2427 H 0.22860 0.63099 0.03958
 H2428 H 0.23783 0.65803 0.01308
 H2429 H 0.19883 0.70534 0.04403
 C2430 C 0.18122 0.20701 0.59364
 C2431 C 0.18570 0.18830 0.58250
 C2432 C 0.18035 0.16790 0.58915
 C2433 C 0.17005 0.16664 0.60821
 C2434 C 0.16527 0.18559 0.62018
 C2435 C 0.17070 0.20615 0.61264
 O2436 O 0.18865 0.22459 0.58489
 C2437 C 0.19804 0.21672 0.56791
 C2438 C 0.19658 0.19460 0.56581
 C2439 C 0.20591 0.18272 0.54985
 C2440 C 0.21746 0.19402 0.53553
 C2441 C 0.21953 0.21684 0.53730
 C2442 C 0.20938 0.22843 0.55360
 H2443 H 0.18425 0.15343 0.58015
 H2444 H 0.16587 0.15087 0.61376
 H2445 H 0.16746 0.22083 0.62162
 H2446 H 0.20464 0.16530 0.54868
 H2447 H 0.22499 0.18487 0.52314
 H2448 H 0.21088 0.24577 0.55555
   
