data_POSCAR
  _audit_creation_date              2014-09-24
  _audit_creation_method            'ToBaCCo'
  _symmetry_space_group_name_H-M    'P1'
  _symmetry_Int_Tables_number       1
  _symmetry_cell_setting            triclinic
  loop_
  _symmetry_equiv_pos_as_xyz
 x,y,z
_cell_length_a 52.8661
_cell_length_b 54.4506
_cell_length_c 54.5333
_cell_angle_alpha 89.914500
_cell_angle_beta 89.943600
_cell_angle_gamma 90.040400
loop_
  _atom_site_label
  _atom_site_type_symbol
  _atom_site_fract_x
  _atom_site_fract_y
  _atom_site_fract_z
C1 C 0.35098 0.35559 0.31875
 C2 C 0.37058 0.34284 0.30698
 C3 C 0.38179 0.32212 0.31799
 C4 C 0.37252 0.31392 0.34081
 C5 C 0.35254 0.32617 0.35251
 C6 C 0.34205 0.34734 0.34168
 C7 C 0.33988 0.37622 0.30771
 C8 C 0.32027 0.38912 0.31951
 C9 C 0.31195 0.38106 0.34270
 C10 C 0.32237 0.36005 0.35361
 C11 C 0.31295 0.35124 0.37600
 C12 C 0.32241 0.32942 0.38638
 C13 C 0.34256 0.31726 0.37464
 H14 H 0.37689 0.34898 0.28909
 H15 H 0.38100 0.29815 0.34969
 H16 H 0.34620 0.38186 0.28966
 H17 H 0.29718 0.39099 0.35224
 H18 H 0.29790 0.36119 0.38512
 H19 H 0.34993 0.30029 0.38218
 C20 C 0.35627 0.85784 -0.17747
 C21 C 0.37678 0.84600 -0.18874
 C22 C 0.38675 0.82376 -0.17934
 C23 C 0.37545 0.81395 -0.15789
 C24 C 0.35525 0.82590 -0.14619
 C25 C 0.34570 0.84795 -0.15599
 C26 C 0.34588 0.87917 -0.18785
 C27 C 0.32480 0.89107 -0.17710
 C28 C 0.31533 0.88145 -0.15479
 C29 C 0.32535 0.85996 -0.14446
 C30 C 0.31487 0.85004 -0.12299
 C31 C 0.32374 0.82767 -0.11334
 C32 C 0.34403 0.81576 -0.12513
 H33 H 0.38526 0.85489 -0.20446
 H34 H 0.38144 0.79644 -0.15055
 H35 H 0.35347 0.88530 -0.20523
 H36 H 0.30027 0.89065 -0.14502
 H37 H 0.29958 0.85970 -0.11394
 H38 H 0.35080 0.79828 -0.11826
 C39 C 0.85622 0.35465 -0.18152
 C40 C 0.87781 0.34366 -0.19179
 C41 C 0.88922 0.32282 -0.18086
 C42 C 0.87886 0.31415 -0.15853
 C43 C 0.85709 0.32474 -0.14835
 C44 C 0.84555 0.34488 -0.16002
 C45 C 0.84492 0.37501 -0.19288
 C46 C 0.82245 0.38566 -0.18354
 C47 C 0.81179 0.37511 -0.16212
 C48 C 0.82320 0.35504 -0.15032
 C49 C 0.81219 0.34459 -0.12928
 C50 C 0.82360 0.32446 -0.11739
 C51 C 0.84641 0.31507 -0.12686
 H52 H 0.88451 0.35072 -0.20915
 H53 H 0.88773 0.29927 -0.14859
 H54 H 0.85445 0.38284 -0.20860
 H55 H 0.79399 0.38165 -0.15486
 H56 H 0.79443 0.35184 -0.12252
 H57 H 0.85581 0.29997 -0.11769
 C58 C 0.85185 0.85611 0.31971
 C59 C 0.87216 0.84377 0.30861
 C60 C 0.88314 0.82301 0.31977
 C61 C 0.87313 0.81452 0.34216
 C62 C 0.85248 0.82633 0.35316
 C63 C 0.84199 0.84737 0.34206
 C64 C 0.84094 0.87673 0.30843
 C65 C 0.82023 0.88921 0.31920
 C66 C 0.81101 0.88034 0.34196
 C67 C 0.82146 0.85948 0.35318
 C68 C 0.81137 0.85034 0.37522
 C69 C 0.82109 0.82880 0.38602
 C70 C 0.84188 0.81710 0.37488
 H71 H 0.87915 0.85019 0.29105
 H72 H 0.88149 0.79878 0.35122
 H73 H 0.84810 0.88209 0.29063
 H74 H 0.79601 0.88982 0.35155
 H75 H 0.79575 0.85989 0.38382
 H76 H 0.84939 0.80029 0.38262
 C77 C 0.64690 0.64447 0.32739
 C78 C 0.62538 0.65513 0.31681
 C79 C 0.61638 0.67807 0.32485
 C80 C 0.62867 0.68969 0.34461
 C81 C 0.64974 0.67881 0.35591
 C82 C 0.65913 0.65628 0.34704
 C83 C 0.65676 0.62251 0.31809
 C84 C 0.67943 0.61259 0.32734
 C85 C 0.69110 0.62414 0.34750
 C86 C 0.68094 0.64575 0.35756
 C87 C 0.69256 0.65728 0.37763
 C88 C 0.68309 0.67958 0.38697
 C89 C 0.66187 0.69036 0.37563
 H90 H 0.61586 0.64563 0.30201
 H91 H 0.62226 0.70750 0.35087
 H92 H 0.64697 0.61344 0.30319
 H93 H 0.70860 0.61691 0.35486
 H94 H 0.70882 0.64867 0.38611
 H95 H 0.65487 0.70794 0.38197
 C96 C 0.64504 0.14876 -0.17428
 C97 C 0.62330 0.15940 -0.18455
 C98 C 0.61180 0.17999 -0.17362
 C99 C 0.62199 0.18925 -0.15165
 C100 C 0.64409 0.17919 -0.14157
 C101 C 0.65577 0.15898 -0.15303
 C102 C 0.65641 0.12833 -0.18533
 C103 C 0.67905 0.11804 -0.17601
 C104 C 0.68986 0.12908 -0.15497
 C105 C 0.67839 0.14928 -0.14348
 C106 C 0.68964 0.16037 -0.12295
 C107 C 0.67824 0.18070 -0.11144
 C108 C 0.65506 0.18953 -0.12061
 H109 H 0.61599 0.15214 -0.20161
 H110 H 0.61302 0.20463 -0.14255
 H111 H 0.64676 0.12016 -0.20077
 H112 H 0.70781 0.12281 -0.14782
 H113 H 0.70764 0.15352 -0.11640
 H114 H 0.64567 0.20477 -0.11168
 C115 C 0.14669 0.64899 -0.17368
 C116 C 0.12623 0.66033 -0.18552
 C117 C 0.11702 0.68324 -0.17756
 C118 C 0.12864 0.69463 -0.15729
 C119 C 0.14876 0.68323 -0.14494
 C120 C 0.15776 0.66030 -0.15315
 C121 C 0.15655 0.62677 -0.18250
 C122 C 0.17751 0.61529 -0.17107
 C123 C 0.18748 0.62641 -0.14973
 C124 C 0.17801 0.64880 -0.14096
 C125 C 0.18882 0.66001 -0.12035
 C126 C 0.18035 0.68310 -0.11220
 C127 C 0.16026 0.69459 -0.12472
 H128 H 0.11735 0.65111 -0.20086
 H129 H 0.12228 0.71254 -0.15126
 H130 H 0.14859 0.61949 -0.19923
 H131 H 0.20247 0.61767 -0.13945
 H132 H 0.20396 0.65072 -0.11071
 H133 H 0.15380 0.71257 -0.11902
 C134 C 0.14930 0.14703 0.32588
 C135 C 0.12889 0.15852 0.31409
 C136 C 0.11932 0.18138 0.32228
 C137 C 0.13111 0.19234 0.34284
 C138 C 0.15127 0.18082 0.35499
 C139 C 0.16031 0.15805 0.34655
 C140 C 0.15904 0.12480 0.31694
 C141 C 0.17981 0.11304 0.32838
 C142 C 0.18987 0.12401 0.34979
 C143 C 0.18054 0.14641 0.35866
 C144 C 0.19143 0.15749 0.37934
 C145 C 0.18290 0.18049 0.38767
 C146 C 0.16280 0.19202 0.37526
 H147 H 0.12004 0.14887 0.29905
 H148 H 0.12546 0.21035 0.34912
 H149 H 0.15109 0.11769 0.30013
 H150 H 0.20476 0.11512 0.36007
 H151 H 0.20663 0.14819 0.38889
 H152 H 0.15632 0.20996 0.38112
 C153 C 0.64261 0.35509 0.67379
 C154 C 0.62041 0.34554 0.68417
 C155 C 0.61003 0.32329 0.67571
 C156 C 0.62127 0.31164 0.65540
 C157 C 0.64308 0.32140 0.64439
 C158 C 0.65418 0.34284 0.65402
 C159 C 0.65379 0.37630 0.68344
 C160 C 0.67712 0.38495 0.67442
 C161 C 0.68852 0.37262 0.65457
 C162 C 0.67706 0.35182 0.64415
 C163 C 0.68840 0.33951 0.62439
 C164 C 0.67700 0.31852 0.61405
 C165 C 0.65429 0.30965 0.62428
 H166 H 0.61157 0.35521 0.69926
 H167 H 0.61372 0.29442 0.64870
 H168 H 0.64441 0.38585 0.69830
 H169 H 0.70663 0.37878 0.64757
 H170 H 0.70629 0.34615 0.61731
 H171 H 0.64509 0.29369 0.61650
 C172 C 0.64908 0.85310 1.17501
 C173 C 0.62869 0.84165 1.18689
 C174 C 0.61849 0.81921 1.17827
 C175 C 0.62970 0.80861 1.15717
 C176 C 0.64987 0.82011 1.14491
 C177 C 0.65946 0.84253 1.15374
 C178 C 0.65943 0.87490 1.18435
 C179 C 0.67988 0.88657 1.17255
 C180 C 0.68948 0.87630 1.15075
 C181 C 0.67966 0.85422 1.14148
 C182 C 0.69006 0.84344 1.12040
 C183 C 0.68110 0.82069 1.11173
 C184 C 0.66092 0.80921 1.12419
 H185 H 0.62036 0.85104 1.20237
 H186 H 0.62357 0.79088 1.15053
 H187 H 0.65202 0.88228 1.20134
 H188 H 0.70481 0.88530 1.14108
 H189 H 0.70526 0.85278 1.11083
 H190 H 0.65408 0.79149 1.11808
 C191 C 0.14283 0.35444 1.17330
 C192 C 0.12091 0.34428 1.18378
 C193 C 0.10930 0.32312 1.17368
 C194 C 0.11955 0.31361 1.15168
 C195 C 0.14176 0.32325 1.14143
 C196 C 0.15369 0.34348 1.15246
 C197 C 0.15453 0.37495 1.18392
 C198 C 0.17752 0.38418 1.17458
 C199 C 0.18854 0.37262 1.15410
 C200 C 0.17669 0.35249 1.14289
 C201 C 0.18785 0.34081 1.12266
 C202 C 0.17601 0.32054 1.11146
 C203 C 0.15260 0.31235 1.12068
 H204 H 0.11422 0.35216 1.20076
 H205 H 0.11042 0.29861 1.14218
 H206 H 0.14559 0.38374 1.19948
 H207 H 0.20657 0.37897 1.14708
 H208 H 0.20606 0.34715 1.11608
 H209 H 0.14294 0.29713 1.11198
 C210 C 0.14729 0.85380 0.67318
 C211 C 0.12469 0.84470 0.68314
 C212 C 0.11358 0.82274 0.67439
 C213 C 0.12498 0.81130 0.65385
 C214 C 0.14736 0.82055 0.64342
 C215 C 0.15889 0.84152 0.65351
 C216 C 0.15874 0.87476 0.68310
 C217 C 0.18237 0.88304 0.67447
 C218 C 0.19390 0.87056 0.65482
 C219 C 0.18219 0.85004 0.64413
 C220 C 0.19368 0.83759 0.62456
 C221 C 0.18202 0.81695 0.61386
 C222 C 0.15876 0.80867 0.62345
 H223 H 0.11585 0.85512 0.69768
 H224 H 0.11767 0.79423 0.64664
 H225 H 0.14930 0.88445 0.69783
 H226 H 0.21225 0.87642 0.64815
 H227 H 0.21191 0.84382 0.61794
 H228 H 0.14932 0.79302 0.61532
 C229 C 0.35159 0.64416 0.68158
 C230 C 0.37175 0.65656 0.69283
 C231 C 0.38338 0.67682 0.68131
 C232 C 0.37406 0.68484 0.65848
 C233 C 0.35356 0.67296 0.64729
 C234 C 0.34259 0.65227 0.65863
 C235 C 0.33997 0.62406 0.69314
 C236 C 0.31976 0.61154 0.68186
 C237 C 0.31141 0.61943 0.65865
 C238 C 0.32237 0.63992 0.64720
 C239 C 0.31295 0.64858 0.62478
 C240 C 0.32283 0.67004 0.61393
 C241 C 0.34350 0.68183 0.62519
 H242 H 0.37814 0.65057 0.71073
 H243 H 0.38287 0.70023 0.64919
 H244 H 0.34637 0.61852 0.71118
 H245 H 0.29619 0.60977 0.64951
 H246 H 0.29755 0.63882 0.61604
 H247 H 0.35122 0.69851 0.61733
 C248 C 0.35284 0.14066 1.17905
 C249 C 0.37490 0.15145 1.18855
 C250 C 0.38630 0.17201 1.17703
 C251 C 0.37561 0.18036 1.15477
 C252 C 0.35335 0.17005 1.14544
 C253 C 0.34171 0.15034 1.15775
 C254 C 0.34142 0.12071 1.19103
 C255 C 0.31840 0.11043 1.18257
 C256 C 0.30729 0.12092 1.16136
 C257 C 0.31878 0.14057 1.14894
 C258 C 0.30727 0.15113 1.12823
 C259 C 0.31873 0.17096 1.11587
 C260 C 0.34217 0.17976 1.12429
 H261 H 0.38195 0.14456 1.20584
 H262 H 0.38451 0.19489 1.14432
 H263 H 0.35126 0.11289 1.20656
 H264 H 0.28909 0.11468 1.15480
 H265 H 0.28908 0.14428 1.12216
 H266 H 0.35159 0.19459 1.11465
 C267 C 0.85066 0.64460 1.17889
 C268 C 0.87104 0.65684 1.18996
 C269 C 0.88216 0.67756 1.17882
 C270 C 0.87210 0.68621 1.15652
 C271 C 0.85136 0.67450 1.14554
 C272 C 0.84082 0.65343 1.15659
 C273 C 0.83972 0.62396 1.19011
 C274 C 0.81906 0.61143 1.17930
 C275 C 0.80982 0.62042 1.15662
 C276 C 0.82027 0.64136 1.14548
 C277 C 0.81020 0.65058 1.12348
 C278 C 0.81994 0.67216 1.11275
 C279 C 0.84076 0.68382 1.12388
 H280 H 0.87802 0.65033 1.20747
 H281 H 0.88053 0.70195 1.14749
 H282 H 0.84688 0.61857 1.20789
 H283 H 0.79483 0.61096 1.14701
 H284 H 0.79458 0.64103 1.11487
 H285 H 0.84830 0.70065 1.11618
 C286 C 0.85516 0.14476 0.67553
 C287 C 0.87719 0.15520 0.68536
 C288 C 0.88902 0.17530 0.67379
 C289 C 0.87900 0.18412 0.65155
 C290 C 0.85663 0.17426 0.64187
 C291 C 0.84448 0.15470 0.65405
 C292 C 0.84328 0.12495 0.68728
 C293 C 0.82027 0.11538 0.67842
 C294 C 0.80940 0.12594 0.65731
 C295 C 0.82142 0.14538 0.64499
 C296 C 0.81043 0.15606 0.62412
 C297 C 0.82244 0.17564 0.61180
 C298 C 0.84586 0.18421 0.62060
 H299 H 0.88444 0.14826 0.70260
 H300 H 0.88827 0.19909 0.64199
 H301 H 0.85214 0.11694 0.70330
 H302 H 0.79135 0.11933 0.65062
 H303 H 0.79219 0.14949 0.61790
 H304 H 0.85564 0.19891 0.61111
 C305 C 0.34855 0.35601 0.68213
 C306 C 0.33712 0.37627 0.69347
 C307 C 0.31700 0.38881 0.68210
 C308 C 0.30838 0.38064 0.65907
 C309 C 0.31921 0.36001 0.64781
 C310 C 0.33946 0.34774 0.65931
 C311 C 0.36869 0.34369 0.69348
 C312 C 0.38026 0.32337 0.68214
 C313 C 0.37090 0.31517 0.65942
 C314 C 0.35043 0.32700 0.64814
 C315 C 0.34047 0.31808 0.62608
 C316 C 0.31987 0.32982 0.61467
 C317 C 0.30977 0.35118 0.62545
 H318 H 0.34365 0.38195 0.71141
 H319 H 0.29316 0.39028 0.64989
 H320 H 0.37515 0.34982 0.71130
 H321 H 0.37970 0.29971 0.65030
 H322 H 0.34827 0.30143 0.61830
 H323 H 0.29431 0.36079 0.61662
 C324 C 0.35309 0.85478 0.18136
 C325 C 0.34160 0.87487 0.19300
 C326 C 0.32105 0.88716 0.18206
 C327 C 0.31221 0.87904 0.15910
 C328 C 0.32304 0.85856 0.14760
 C329 C 0.34361 0.84645 0.15870
 C330 C 0.37360 0.84262 0.19228
 C331 C 0.38512 0.82239 0.18071
 C332 C 0.37533 0.81414 0.15816
 C333 C 0.35449 0.82578 0.14730
 C334 C 0.34404 0.81674 0.12546
 C335 C 0.32306 0.82832 0.11451
 C336 C 0.31319 0.84969 0.12544
 H337 H 0.34838 0.88058 0.21085
 H338 H 0.29673 0.88853 0.15019
 H339 H 0.38034 0.84878 0.20999
 H340 H 0.38404 0.79875 0.14884
 H341 H 0.35175 0.80012 0.11755
 H342 H 0.29753 0.85927 0.11694
 C343 C 0.85176 0.35260 0.18071
 C344 C 0.84049 0.37315 0.19170
 C345 C 0.82094 0.38605 0.17981
 C346 C 0.81283 0.37802 0.15657
 C347 C 0.82347 0.35711 0.14566
 C348 C 0.84308 0.34441 0.15771
 C349 C 0.87133 0.33991 0.19257
 C350 C 0.88277 0.31931 0.18158
 C351 C 0.87371 0.31112 0.15873
 C352 C 0.85378 0.32332 0.14692
 C353 C 0.84408 0.31446 0.12469
 C354 C 0.82403 0.32662 0.11278
 C355 C 0.81440 0.34839 0.12313
 H356 H 0.84667 0.37877 0.20978
 H357 H 0.79808 0.38793 0.14697
 H358 H 0.87750 0.34602 0.21049
 H359 H 0.88237 0.29542 0.14990
 H360 H 0.85158 0.29755 0.11721
 H361 H 0.79947 0.35840 0.11389
 C362 C 0.85081 0.85687 0.67991
 C363 C 0.83969 0.87738 0.69112
 C364 C 0.81947 0.88987 0.67986
 C365 C 0.81051 0.88146 0.65703
 C366 C 0.82101 0.86059 0.64592
 C367 C 0.84132 0.84833 0.65733
 C368 C 0.87101 0.84454 0.69116
 C369 C 0.88225 0.82394 0.67997
 C370 C 0.87248 0.81551 0.65749
 C371 C 0.85193 0.82733 0.64632
 C372 C 0.84157 0.81818 0.62452
 C373 C 0.82090 0.82991 0.61321
 C374 C 0.81115 0.85150 0.62383
 H375 H 0.84651 0.88327 0.70889
 H376 H 0.79525 0.89106 0.64789
 H377 H 0.87777 0.85087 0.70880
 H378 H 0.88101 0.79986 0.64846
 H379 H 0.84912 0.80136 0.61687
 H380 H 0.79564 0.86111 0.61508
 C381 C 0.64599 0.64449 0.67318
 C382 C 0.65572 0.62242 0.68240
 C383 C 0.67839 0.61250 0.67314
 C384 C 0.69024 0.62424 0.65312
 C385 C 0.68023 0.64597 0.64316
 C386 C 0.65837 0.65645 0.65364
 C387 C 0.62441 0.65509 0.68372
 C388 C 0.61548 0.67808 0.67571
 C389 C 0.62793 0.68986 0.65608
 C390 C 0.64908 0.67905 0.64483
 C391 C 0.66135 0.69074 0.62520
 C392 C 0.68263 0.68002 0.61389
 C393 C 0.69201 0.65764 0.62319
 H394 H 0.64580 0.61323 0.69719
 H395 H 0.70777 0.61704 0.64579
 H396 H 0.61478 0.64549 0.69843
 H397 H 0.62156 0.70771 0.64985
 H398 H 0.65441 0.70837 0.61892
 H399 H 0.70829 0.64905 0.61473
 C400 C 0.64544 0.14635 0.17204
 C401 C 0.65535 0.12432 0.18116
 C402 C 0.67809 0.11461 0.17185
 C403 C 0.68977 0.12641 0.15179
 C404 C 0.67958 0.14812 0.14193
 C405 C 0.65770 0.15845 0.15251
 C406 C 0.62387 0.15680 0.18269
 C407 C 0.61481 0.17977 0.17478
 C408 C 0.62712 0.19170 0.15518
 C409 C 0.64829 0.18106 0.14384
 C410 C 0.66049 0.19295 0.12431
 C411 C 0.68184 0.18243 0.11297
 C412 C 0.69126 0.15996 0.12205
 H413 H 0.64556 0.11504 0.19598
 H414 H 0.70733 0.11933 0.14441
 H415 H 0.61433 0.14712 0.19741
 H416 H 0.62064 0.20955 0.14907
 H417 H 0.65348 0.21061 0.11815
 H418 H 0.70758 0.15149 0.11352
 C419 C 0.14527 0.64546 0.17271
 C420 C 0.15546 0.62342 0.18166
 C421 C 0.17626 0.61226 0.16999
 C422 C 0.18616 0.62314 0.14858
 C423 C 0.17659 0.64550 0.13981
 C424 C 0.15623 0.65684 0.15205
 C425 C 0.12467 0.65657 0.18450
 C426 C 0.11521 0.67936 0.17641
 C427 C 0.12681 0.69090 0.15617
 C428 C 0.14708 0.67973 0.14386
 C429 C 0.15867 0.69135 0.12379
 C430 C 0.17901 0.68017 0.11137
 C431 C 0.18752 0.65699 0.11934
 H432 H 0.14773 0.61555 0.19831
 H433 H 0.20170 0.61448 0.13894
 H434 H 0.11589 0.64728 0.19989
 H435 H 0.12032 0.70878 0.15013
 H436 H 0.15216 0.70936 0.11821
 H437 H 0.20284 0.64791 0.10977
 C438 C 0.14905 0.14347 0.67242
 C439 C 0.15926 0.12153 0.68155
 C440 C 0.18006 0.11028 0.66996
 C441 C 0.18999 0.12100 0.64847
 C442 C 0.18034 0.14325 0.63946
 C443 C 0.15996 0.15464 0.65162
 C444 C 0.12846 0.15468 0.68415
 C445 C 0.11897 0.17737 0.67581
 C446 C 0.13050 0.18870 0.65544
 C447 C 0.15072 0.17741 0.64321
 C448 C 0.16214 0.18881 0.62297
 C449 C 0.18242 0.17756 0.61057
 C450 C 0.19117 0.15457 0.61883
 H451 H 0.15155 0.11379 0.69827
 H452 H 0.20555 0.11227 0.63893
 H453 H 0.11973 0.14558 0.69967
 H454 H 0.12398 0.20650 0.64922
 H455 H 0.15551 0.20673 0.61721
 H456 H 0.20655 0.14550 0.60931
 C457 C 0.35165 0.64553 0.31836
 C458 C 0.34018 0.62549 0.30663
 C459 C 0.31968 0.61307 0.31756
 C460 C 0.31085 0.62102 0.34059
 C461 C 0.32167 0.64144 0.35220
 C462 C 0.34221 0.65368 0.34112
 C463 C 0.37216 0.65779 0.30748
 C464 C 0.38372 0.67792 0.31920
 C465 C 0.37394 0.68602 0.34182
 C466 C 0.35311 0.67426 0.35265
 C467 C 0.34273 0.68308 0.37462
 C468 C 0.32180 0.67135 0.38557
 C469 C 0.31188 0.65009 0.37448
 H470 H 0.34696 0.61991 0.28873
 H471 H 0.29540 0.61142 0.34950
 H472 H 0.37890 0.65176 0.28972
 H473 H 0.38268 0.70134 0.35122
 H474 H 0.35048 0.69963 0.38266
 H475 H 0.29624 0.64042 0.38297
 C476 C 0.35085 0.14509 0.82255
 C477 C 0.33977 0.12496 0.81071
 C478 C 0.31949 0.11214 0.82153
 C479 C 0.31039 0.11986 0.84455
 C480 C 0.32088 0.14038 0.85631
 C481 C 0.34128 0.15296 0.84534
 C482 C 0.37109 0.15774 0.81172
 C483 C 0.38227 0.17800 0.82352
 C484 C 0.37244 0.18580 0.84619
 C485 C 0.35186 0.17364 0.85697
 C486 C 0.34135 0.18221 0.87894
 C487 C 0.32056 0.17019 0.88978
 C488 C 0.31090 0.14885 0.87860
 H489 H 0.34668 0.11960 0.79279
 H490 H 0.29503 0.11000 0.85331
 H491 H 0.37790 0.15194 0.79390
 H492 H 0.38092 0.20125 0.85562
 H493 H 0.34883 0.19886 0.88703
 H494 H 0.29531 0.13902 0.88700
 C495 C 0.85273 0.64518 0.81919
 C496 C 0.84180 0.62471 0.80771
 C497 C 0.82141 0.61211 0.81864
 C498 C 0.81214 0.62036 0.84144
 C499 C 0.82239 0.64123 0.85277
 C500 C 0.84287 0.65360 0.84168
 C501 C 0.87309 0.65763 0.80826
 C502 C 0.88411 0.67822 0.81967
 C503 C 0.87396 0.68652 0.84206
 C504 C 0.85325 0.67459 0.85292
 C505 C 0.84248 0.68365 0.87460
 C506 C 0.82162 0.67182 0.88558
 C507 C 0.81213 0.65022 0.87476
 H508 H 0.84888 0.61897 0.78998
 H509 H 0.79678 0.61067 0.85037
 H510 H 0.88011 0.65141 0.79067
 H511 H 0.88230 0.70218 0.85126
 H512 H 0.84986 0.70048 0.88239
 H513 H 0.79651 0.64052 0.88325
 C514 C 0.85444 0.14368 0.32346
 C515 C 0.84276 0.12394 0.31148
 C516 C 0.81947 0.11447 0.31983
 C517 C 0.80805 0.12515 0.34062
 C518 C 0.81984 0.14454 0.35317
 C519 C 0.84323 0.15367 0.34466
 C520 C 0.87683 0.15400 0.31417
 C521 C 0.88848 0.17400 0.32603
 C522 C 0.87794 0.18277 0.34804
 C523 C 0.85522 0.17310 0.35712
 C524 C 0.84393 0.18315 0.37805
 C525 C 0.82015 0.17487 0.38624
 C526 C 0.80833 0.15535 0.37373
 H527 H 0.85202 0.11588 0.29570
 H528 H 0.78979 0.11864 0.34690
 H529 H 0.88451 0.14708 0.29710
 H530 H 0.88707 0.19762 0.35786
 H531 H 0.85359 0.19775 0.38775
 H532 H 0.78988 0.14894 0.37957
 C533 C 0.64390 0.35388 0.32421
 C534 C 0.65567 0.37484 0.31451
 C535 C 0.67723 0.38501 0.32577
 C536 C 0.68686 0.37377 0.34709
 C537 C 0.67550 0.35255 0.35680
 C538 C 0.65390 0.34263 0.34537
 C539 C 0.62258 0.34374 0.31276
 C540 C 0.61133 0.32209 0.32180
 C541 C 0.62144 0.31107 0.34301
 C542 C 0.64249 0.32125 0.35489
 C543 C 0.65258 0.31005 0.37587
 C544 C 0.67445 0.31946 0.38722
 C545 C 0.68572 0.34084 0.37749
 H546 H 0.64835 0.38280 0.29774
 H547 H 0.70318 0.38153 0.35626
 H548 H 0.61477 0.35279 0.29676
 H549 H 0.61344 0.29411 0.34996
 H550 H 0.64329 0.29395 0.38335
 H551 H 0.70287 0.34809 0.38556
 C552 C 0.64812 0.85513 0.82351
 C553 C 0.65817 0.87719 0.81446
 C554 C 0.67873 0.88870 0.82618
 C555 C 0.68863 0.87804 0.84769
 C556 C 0.67915 0.85566 0.85664
 C557 C 0.65896 0.84406 0.84438
 C558 C 0.62765 0.84376 0.81173
 C559 C 0.61818 0.82106 0.82008
 C560 C 0.62969 0.80981 0.84050
 C561 C 0.64982 0.82124 0.85280
 C562 C 0.66114 0.81000 0.87319
 C563 C 0.68121 0.82148 0.88573
 C564 C 0.68987 0.84451 0.87740
 H565 H 0.65048 0.88488 0.79772
 H566 H 0.70400 0.88695 0.85735
 H567 H 0.61894 0.85283 0.79620
 H568 H 0.62319 0.79200 0.84676
 H569 H 0.65455 0.79206 0.87899
 H570 H 0.70503 0.85379 0.88702
 C571 C 0.14622 0.35342 0.82726
 C572 C 0.15638 0.37560 0.81866
 C573 C 0.17674 0.38694 0.83084
 C574 C 0.18630 0.37604 0.85236
 C575 C 0.17667 0.35356 0.86087
 C576 C 0.15671 0.34210 0.84815
 C577 C 0.12608 0.34212 0.81494
 C578 C 0.11664 0.31923 0.82277
 C579 C 0.12772 0.30778 0.84327
 C580 C 0.14750 0.31912 0.85608
 C581 C 0.15853 0.30759 0.87643
 C582 C 0.17841 0.31889 0.88933
 C583 C 0.18711 0.34210 0.88157
 H584 H 0.14898 0.38347 0.80189
 H585 H 0.20155 0.38481 0.86231
 H586 H 0.11765 0.35132 0.79933
 H587 H 0.12121 0.28983 0.84912
 H588 H 0.15195 0.28953 0.88185
 H589 H 0.20216 0.35121 0.89151
 C590 C 0.14588 0.85152 0.32727
 C591 C 0.15630 0.87344 0.31826
 C592 C 0.17703 0.88461 0.33003
 C593 C 0.18664 0.87384 0.35158
 C594 C 0.17679 0.85161 0.36046
 C595 C 0.15649 0.84026 0.34814
 C596 C 0.12535 0.84042 0.31538
 C597 C 0.11563 0.81775 0.32356
 C598 C 0.12686 0.80633 0.34404
 C599 C 0.14706 0.81750 0.35646
 C600 C 0.15833 0.80603 0.37677
 C601 C 0.17862 0.81721 0.38924
 C602 C 0.18738 0.84027 0.38113
 H603 H 0.14880 0.88124 0.30149
 H604 H 0.20213 0.88251 0.36127
 H605 H 0.11683 0.84964 0.29984
 H606 H 0.12014 0.78855 0.35018
 H607 H 0.15161 0.78811 0.38249
 H608 H 0.20264 0.84937 0.39076
 O609 O 0.24753 1.02191 0.28912
 O610 O 0.28119 0.97501 0.25315
 O611 O 0.28009 1.02283 0.25386
 O612 O 0.24802 0.97381 0.28849
 O613 O 0.21627 0.97476 0.26224
 O614 O 0.24975 1.02186 0.22611
 O615 O 0.24941 0.97379 0.22697
 O616 O 0.21686 1.02234 0.26169
 Cu617 Cu 0.26730 0.99833 0.27390
 Cu618 Cu 0.23000 0.99816 0.24148
 C619 C 0.22666 1.03045 0.28134
 C620 C 0.27090 0.96616 0.23407
 C621 C 0.27039 1.03076 0.23408
 C622 C 0.22658 0.96604 0.28138
 O623 O 0.24781 0.52487 0.72700
 O624 O 0.21490 0.47741 0.76319
 O625 O 0.21491 0.52491 0.76239
 O626 O 0.24695 0.47669 0.72698
 O627 O 0.27874 0.47702 0.75319
 O628 O 0.24640 0.52508 0.78892
 O629 O 0.24672 0.47688 0.78938
 O630 O 0.27937 0.52452 0.75347
 Cu631 Cu 0.22804 0.50097 0.74216
 Cu632 Cu 0.26590 0.50087 0.77399
 C633 C 0.26918 0.53287 0.73413
 C634 C 0.22532 0.46894 0.78240
 C635 C 0.22517 0.53330 0.78166
 C636 C 0.26826 0.46857 0.73402
 O637 O 0.74936 -0.02338 0.21408
 O638 O 0.78068 0.02644 0.24804
 O639 O 0.78232 -0.02169 0.24933
 O640 O 0.74766 0.02452 0.21286
 O641 O 0.71816 0.02567 0.24152
 O642 O 0.75053 -0.02335 0.27551
 O643 O 0.75114 0.02453 0.27661
 O644 O 0.71747 -0.02224 0.24020
 Cu645 Cu 0.76814 0.00149 0.22836
 Cu646 Cu 0.73122 0.00108 0.26119
 C647 C 0.72793 -0.03117 0.22121
 C648 C 0.77134 0.03395 0.26815
 C649 C 0.77205 -0.03083 0.26837
 C650 C 0.72726 0.03343 0.22138
 O651 O 0.75343 0.47521 0.77641
 O652 O 0.71837 0.52235 0.74192
 O653 O 0.71895 0.47418 0.74266
 O654 O 0.75217 0.52307 0.77591
 O655 O 0.78254 0.52269 0.74811
 O656 O 0.74791 0.47502 0.71348
 O657 O 0.74820 0.52277 0.71355
 O658 O 0.78243 0.47449 0.74728
 Cu659 Cu 0.73272 0.49865 0.76203
 Cu660 Cu 0.76832 0.49881 0.72780
 C661 C 0.77372 0.46647 0.76749
 C662 C 0.72745 0.53086 0.72206
 C663 C 0.72769 0.46617 0.72250
 C664 C 0.77298 0.53132 0.76770
 O665 O 0.24994 0.47743 0.27594
 O666 O 0.21555 0.52288 0.23871
 O667 O 0.21697 0.47511 0.24144
 O668 O 0.24876 0.52545 0.27392
 O669 O 0.28034 0.52410 0.24744
 O670 O 0.24694 0.47554 0.21321
 O671 O 0.24720 0.52366 0.21228
 O672 O 0.28044 0.47650 0.24827
 Cu673 Cu 0.22972 0.50037 0.26025
 Cu674 Cu 0.26677 0.49991 0.22748
 C675 C 0.27084 0.46888 0.26824
 C676 C 0.22571 0.53132 0.21933
 C677 C 0.22656 0.46664 0.22186
 C678 C 0.27007 0.53324 0.26641
 O679 O 0.71627 0.98007 0.75851
 O680 O 0.75068 1.02605 0.72146
 O681 O 0.74931 0.97813 0.72322
 O682 O 0.71739 1.02800 0.75628
 O683 O 0.74687 1.02698 0.78489
 O684 O 0.78117 0.97997 0.74926
 O685 O 0.78010 1.02796 0.75010
 O686 O 0.74813 0.97892 0.78461
 Cu687 Cu 0.73031 1.00298 0.73713
 Cu688 Cu 0.76715 1.00344 0.76998
 C689 C 0.72666 0.97121 0.77758
 C690 C 0.77092 1.03537 0.72990
 C691 C 0.77079 0.97065 0.73043
 C692 C 0.72662 1.03606 0.77620
 O693 O 0.71712 0.47549 0.25867
 O694 O 0.75072 0.52227 0.22233
 O695 O 0.75025 0.47420 0.22333
 O696 O 0.71830 0.52331 0.25765
 O697 O 0.74837 0.52224 0.28569
 O698 O 0.78203 0.47527 0.24952
 O699 O 0.78126 0.52304 0.24987
 O700 O 0.74898 0.47412 0.28477
 Cu701 Cu 0.73100 0.49875 0.23778
 Cu702 Cu 0.76825 0.49869 0.27022
 C703 C 0.72747 0.46652 0.27768
 C704 C 0.77151 0.53099 0.23010
 C705 C 0.77168 0.46643 0.23046
 C706 C 0.72784 0.53118 0.27751
 O707 O 0.25144 -0.02569 0.71463
 O708 O 0.28300 0.02342 0.74980
 O709 O 0.28421 -0.02409 0.75040
 O710 O 0.25100 0.02245 0.71368
 O711 O 0.21875 0.02115 0.73939
 O712 O 0.25320 -0.02359 0.77752
 O713 O 0.25074 0.02421 0.77552
 O714 O 0.22088 -0.02663 0.74225
 Cu715 Cu 0.27051 -0.00098 0.72936
 Cu716 Cu 0.23271 -0.00117 0.76131
 C717 C 0.23101 -0.03491 0.72284
 C718 C 0.27210 0.03232 0.76858
 C719 C 0.27449 -0.03168 0.77033
 C720 C 0.22924 0.02978 0.72026
 O721 O 0.24827 0.27355 0.97662
 O722 O 0.27890 0.24029 1.02705
 O723 O 0.28102 0.23804 0.97936
 O724 O 0.24630 0.27565 1.02423
 O725 O 0.21661 0.24715 1.02602
 O726 O 0.24889 0.21218 0.97770
 O727 O 0.24932 0.21168 1.02555
 O728 O 0.21609 0.24775 0.97822
 Cu729 Cu 0.26678 0.25959 1.00177
 Cu730 Cu 0.22959 0.22694 1.00184
 C731 C 0.22675 0.26657 0.96903
 C732 C 0.26949 0.22029 1.03485
 C733 C 0.27062 0.21899 0.97047
 C734 C 0.22580 0.26744 1.03325
 O735 O 0.25021 0.77297 0.47614
 O736 O 0.28347 0.73800 0.52408
 O737 O 0.28346 0.73789 0.47664
 O738 O 0.25038 0.77360 0.52415
 O739 O 0.22016 0.74562 0.52545
 O740 O 0.25177 0.71146 0.47595
 O741 O 0.25274 0.71050 0.52400
 O742 O 0.21848 0.74664 0.47762
 Cu743 Cu 0.26993 0.75842 0.50024
 Cu744 Cu 0.23269 0.72581 0.50072
 C745 C 0.22869 0.76578 0.46867
 C746 C 0.27375 0.71826 0.53222
 C747 C 0.27308 0.71875 0.46796
 C748 C 0.22991 0.76543 0.53328
 O749 O 0.28426 0.76038 -0.02293
 O750 O 0.25091 0.72512 0.02476
 O751 O 0.25084 0.72552 -0.02343
 O752 O 0.28390 0.76067 0.02449
 O753 O 0.25259 0.78749 0.02485
 O754 O 0.21963 0.75243 -0.02312
 O755 O 0.21963 0.75195 0.02433
 O756 O 0.25306 0.78730 -0.02340
 Cu757 Cu 0.27051 0.74011 0.00078
 Cu758 Cu 0.23320 0.77262 0.00071
 C759 C 0.27424 0.77974 -0.03147
 C760 C 0.22964 0.73249 0.03275
 C761 C 0.22971 0.73307 -0.03161
 C762 C 0.27379 0.78005 0.03293
 O763 O 0.25300 0.22452 0.52395
 O764 O 0.28496 0.26141 0.47664
 O765 O 0.28418 0.26155 0.52403
 O766 O 0.25296 0.22516 0.47583
 O767 O 0.22068 0.25086 0.47617
 O768 O 0.25179 0.28712 0.52428
 O769 O 0.25266 0.28709 0.47614
 O770 O 0.22066 0.25013 0.52354
 Cu771 Cu 0.27195 0.24049 0.50014
 Cu772 Cu 0.23329 0.27149 0.50004
 C773 C 0.23142 0.23101 0.53187
 C774 C 0.27422 0.28047 0.46821
 C775 C 0.27322 0.28050 0.53245
 C776 C 0.23150 0.23187 0.46772
 O777 O 0.75078 0.77664 0.97437
 O778 O 0.78250 0.74031 1.02237
 O779 O 0.78272 0.74026 0.97499
 O780 O 0.75056 0.77659 1.02266
 O781 O 0.71845 0.75068 1.02224
 O782 O 0.75062 0.71431 0.97450
 O783 O 0.75038 0.71439 1.02273
 O784 O 0.71869 0.75070 0.97466
 Cu785 Cu 0.76975 0.76117 0.99858
 Cu786 Cu 0.73139 0.72984 0.99851
 C787 C 0.72939 0.76982 0.96621
 C788 C 0.77179 0.72121 1.03084
 C789 C 0.77214 0.72110 0.96657
 C790 C 0.72912 0.76975 1.03075
 O791 O 0.77968 0.24449 0.52294
 O792 O 0.74365 0.27804 0.47600
 O793 O 0.74469 0.27780 0.52338
 O794 O 0.77848 0.24444 0.47476
 O795 O 0.74979 0.21498 0.47573
 O796 O 0.71593 0.24839 0.52442
 O797 O 0.71492 0.24858 0.47603
 O798 O 0.75097 0.21503 0.52320
 Cu799 Cu 0.76464 0.26403 0.49918
 Cu800 Cu 0.72986 0.22891 0.49990
 C801 C 0.77141 0.22421 0.53127
 C802 C 0.72322 0.26893 0.46786
 C803 C 0.72464 0.26863 0.53237
 C804 C 0.76989 0.22414 0.46682
 O805 O 0.75220 0.22486 0.02426
 O806 O 0.78391 0.25703 -0.02644
 O807 O 0.78574 0.25956 0.02146
 O808 O 0.74983 0.22281 -0.02353
 O809 O 0.72106 0.25212 -0.02531
 O810 O 0.75435 0.28623 0.02287
 O811 O 0.75517 0.28638 -0.02508
 O812 O 0.72077 0.25146 0.02257
 Cu813 Cu 0.77098 0.23828 -0.00106
 Cu814 Cu 0.73481 0.27187 -0.00124
 C815 C 0.73096 0.23251 0.03196
 C816 C 0.77508 0.27720 -0.03438
 C817 C 0.77575 0.27882 0.03037
 C818 C 0.72960 0.23159 -0.03256
 O819 O 0.78378 0.76058 0.47644
 O820 O 0.75224 0.72417 0.52461
 O821 O 0.75229 0.72390 0.47617
 O822 O 0.78374 0.76088 0.52376
 O823 O 0.75135 0.78644 0.52398
 O824 O 0.71990 0.74946 0.47642
 O825 O 0.71987 0.74974 0.52402
 O826 O 0.75138 0.78614 0.47584
 Cu827 Cu 0.77114 0.73966 0.50027
 Cu828 Cu 0.73244 0.77057 0.50005
 C829 C 0.77293 0.77954 0.46787
 C830 C 0.73078 0.73086 0.53271
 C831 C 0.73084 0.73051 0.46798
 C832 C 0.77289 0.77995 0.53203
 O833 O 0.97397 0.24939 0.22231
 O834 O 1.02715 0.21907 0.25375
 O835 O 0.97808 0.21620 0.25649
 O836 O 1.02329 0.25164 0.21931
 O837 O 1.02402 0.28076 0.24741
 O838 O 0.97697 0.24630 0.28354
 O839 O 1.02644 0.24782 0.28222
 O840 O 0.97518 0.27948 0.24937
 Cu841 Cu 1.00059 0.23114 0.23516
 Cu842 Cu 1.00071 0.26647 0.26852
 C843 C 0.96567 0.26975 0.23035
 C844 C 1.03583 0.22824 0.27344
 C845 C 0.96948 0.22539 0.27618
 C846 C 1.03157 0.27211 0.22706
 O847 O 0.52206 0.28257 0.74906
 O848 O 0.47236 0.24978 0.78327
 O849 O 0.52191 0.24995 0.78366
 O850 O 0.47288 0.28321 0.74933
 O851 O 0.47143 0.25317 0.72221
 O852 O 0.52221 0.22092 0.75543
 O853 O 0.47334 0.21987 0.75598
 O854 O 0.52082 0.25403 0.72036
 Cu855 Cu 0.49733 0.26929 0.76917
 Cu856 Cu 0.49707 0.23411 0.73561
 C857 C 0.52975 0.27399 0.72874
 C858 C 0.46442 0.22919 0.77546
 C859 C 0.53055 0.22986 0.77537
 C860 C 0.46346 0.27369 0.73015
 O861 O -0.02103 0.28046 0.75035
 O862 O 0.02695 0.24546 0.71612
 O863 O -0.02230 0.24670 0.71657
 O864 O 0.02825 0.27888 0.74988
 O865 O 0.02593 0.25133 0.77955
 O866 O -0.02119 0.21676 0.74388
 O867 O 0.02807 0.21793 0.74587
 O868 O -0.02322 0.25064 0.77770
 Cu869 Cu 0.00297 0.26578 0.73035
 Cu870 Cu 0.00224 0.23125 0.76461
 C871 C -0.03059 0.27137 0.76973
 C872 C 0.03616 0.22605 0.72546
 C873 C -0.03009 0.22603 0.72432
 C874 C 0.03558 0.27069 0.77051
 O875 O 0.52119 0.25327 0.27967
 O876 O 0.47529 0.21647 0.24483
 O877 O 0.52442 0.21969 0.24588
 O878 O 0.47195 0.25099 0.27751
 O879 O 0.47326 0.28053 0.24977
 O880 O 0.52223 0.24676 0.21580
 O881 O 0.47313 0.24580 0.21694
 O882 O 0.52265 0.28034 0.24952
 Cu883 Cu 0.49828 0.23227 0.26491
 Cu884 Cu 0.49772 0.26624 0.23012
 C885 C 0.53020 0.27277 0.27031
 C886 C 0.46601 0.22504 0.22514
 C887 C 0.53203 0.22770 0.22525
 C888 C 0.46387 0.27132 0.26915
 O889 O 0.97376 0.75367 0.71943
 O890 O 1.02600 0.72233 0.75147
 O891 O 0.97660 0.71982 0.75285
 O892 O 1.02305 0.75520 0.71693
 O893 O 1.02464 0.78299 0.74629
 O894 O 0.97462 0.74987 0.77992
 O895 O 1.02414 0.75000 0.78096
 O896 O 0.97544 0.78374 0.74650
 Cu897 Cu 0.99989 0.73483 0.73235
 Cu898 Cu 0.99975 0.76951 0.76630
 C899 C 0.96585 0.77421 0.72741
 C900 C 1.03383 0.73073 0.77184
 C901 C 0.96711 0.72912 0.77211
 C902 C 1.03215 0.77491 0.72567
 O903 O 0.52772 0.77999 0.24834
 O904 O 0.47598 0.74803 0.28064
 O905 O 0.52535 0.74685 0.28273
 O906 O 0.47831 0.78188 0.24723
 O907 O 0.47663 0.75195 0.22002
 O908 O 0.52707 0.71922 0.25321
 O909 O 0.47775 0.71809 0.25345
 O910 O 0.52616 0.75231 0.21887
 Cu911 Cu 0.50188 0.76709 0.26758
 Cu912 Cu 0.50193 0.73253 0.23352
 C913 C 0.53568 0.77168 0.22797
 C914 C 0.46812 0.72750 0.27259
 C915 C 0.53466 0.72733 0.27377
 C916 C 0.46888 0.77256 0.22796
 O917 O -0.02447 0.78152 0.25274
 O918 O 0.02278 0.74648 0.21765
 O919 O -0.02662 0.74784 0.21913
 O920 O 0.02491 0.77931 0.25202
 O921 O 0.02254 0.75170 0.28161
 O922 O -0.02513 0.71761 0.24610
 O923 O 0.02427 0.71883 0.24725
 O924 O -0.02686 0.75133 0.27970
 Cu925 Cu -0.00081 0.76670 0.23254
 Cu926 Cu -0.00136 0.73195 0.26651
 C927 C -0.03423 0.77212 0.27186
 C928 C 0.03213 0.72704 0.22679
 C929 C -0.03450 0.72719 0.22691
 C930 C 0.03239 0.77095 0.27254
 O931 O 0.52554 0.75336 0.78051
 O932 O 0.47640 0.71864 0.74762
 O933 O 0.52588 0.71947 0.74708
 O934 O 0.47638 0.75336 0.78054
 O935 O 0.47672 0.78184 0.75171
 O936 O 0.52422 0.74670 0.71710
 O937 O 0.47494 0.74753 0.71921
 O938 O 0.52638 0.78066 0.75055
 Cu939 Cu 0.50107 0.73335 0.76683
 Cu940 Cu 0.50059 0.76704 0.73175
 C941 C 0.53467 0.77271 0.77095
 C942 C 0.46690 0.72740 0.72809
 C943 C 0.53348 0.72728 0.72636
 C944 C 0.46805 0.77341 0.77176
 C945 C 0.40573 0.28339 0.30780
 C946 C 0.40304 0.30903 0.30563
 C947 C 0.42086 0.32208 0.29149
 C948 C 0.44053 0.30981 0.27956
 C949 C 0.44320 0.28428 0.28193
 C950 C 0.42575 0.27121 0.29630
 H951 H 0.39215 0.27259 0.31804
 H952 H 0.41984 0.34186 0.28982
 H953 H 0.45389 0.32035 0.26875
 H954 H 0.42724 0.25146 0.29820
 C955 C 0.42289 0.79465 0.82140
 C956 C 0.40725 0.81154 0.80872
 C957 C 0.41268 0.81571 0.78362
 C958 C 0.43266 0.80372 0.77192
 C959 C 0.44769 0.78682 0.78464
 C960 C 0.44260 0.78237 0.80947
 H961 H 0.42074 0.79125 0.84081
 H962 H 0.40098 0.82736 0.77230
 H963 H 0.43586 0.80721 0.75260
 H964 H 0.45411 0.76959 0.81983
 C965 C -0.07437 0.32244 0.79036
 C966 C -0.09015 0.31044 0.80762
 C967 C -0.08517 0.28535 0.81245
 C968 C -0.06567 0.27290 0.80046
 C969 C -0.05061 0.28490 0.78301
 C970 C -0.05508 0.30982 0.77817
 H971 H -0.07615 0.34183 0.78653
 H972 H -0.09697 0.27457 0.82455
 H973 H -0.06285 0.25359 0.80440
 H974 H -0.04347 0.31969 0.76507
 C975 C -0.07698 0.82311 0.29433
 C976 C -0.09524 0.81002 0.30790
 C977 C -0.09275 0.78434 0.30987
 C978 C -0.07258 0.77215 0.29866
 C979 C -0.05473 0.78523 0.28476
 C980 C -0.05712 0.81082 0.28268
 H981 H -0.07788 0.84291 0.29282
 H982 H -0.10665 0.77351 0.31965
 H983 H -0.07134 0.75236 0.30031
 H984 H -0.04349 0.82137 0.27220
 C985 C 0.59170 0.68747 0.28651
 C986 C 0.59483 0.69022 0.31200
 C987 C 0.57751 0.70504 0.32487
 C988 C 0.55792 0.71708 0.31250
 C989 C 0.55489 0.71418 0.28708
 C990 C 0.57183 0.69908 0.27427
 H991 H 0.60494 0.67677 0.27580
 H992 H 0.57897 0.70728 0.34453
 H993 H 0.54500 0.72852 0.32284
 H994 H 0.57013 0.69676 0.25462
 C995 C 0.57243 0.17923 0.80014
 C996 C 0.59009 0.19255 0.81417
 C997 C 0.58744 0.21825 0.81561
 C998 C 0.56779 0.23024 0.80341
 C999 C 0.55067 0.21694 0.78896
 C1000 C 0.55314 0.19134 0.78742
 H1001 H 0.57343 0.15942 0.79896
 H1002 H 0.60093 0.22930 0.82564
 H1003 H 0.56641 0.25004 0.80470
 H1004 H 0.53997 0.18065 0.77660
 C1005 C 1.09236 0.69263 0.78398
 C1006 C 1.09545 0.69528 0.80950
 C1007 C 1.07773 0.70954 0.82248
 C1008 C 1.05775 0.72107 0.81026
 C1009 C 1.05468 0.71821 0.78486
 C1010 C 1.07207 0.70374 0.77187
 H1011 H 1.10585 0.68231 0.77320
 H1012 H 1.07910 0.71162 0.84217
 H1013 H 1.04450 0.73201 0.82074
 H1014 H 1.07032 0.70147 0.75222
 C1015 C 1.09254 0.18758 0.28549
 C1016 C 1.09856 0.19298 0.31019
 C1017 C 1.08314 0.21034 0.32243
 C1018 C 1.06292 0.22178 0.31051
 C1019 C 1.05715 0.21608 0.28610
 C1020 C 1.07210 0.19881 0.27376
 H1021 H 1.10405 0.17543 0.27452
 H1022 H 1.08577 0.21466 0.34159
 H1023 H 1.05151 0.23484 0.32059
 H1024 H 1.06834 0.19431 0.25477
 C1025 C 0.57050 0.29721 0.67650
 C1026 C 0.58852 0.31154 0.68901
 C1027 C 0.58648 0.31372 0.71467
 C1028 C 0.56704 0.30195 0.72742
 C1029 C 0.54953 0.28722 0.71495
 C1030 C 0.55139 0.28495 0.68938
 H1031 H 0.57110 0.29544 0.65675
 H1032 H 0.60029 0.32398 0.72511
 H1033 H 0.56616 0.30379 0.74718
 H1034 H 0.53792 0.27385 0.67933
 C1035 C 0.59226 0.81254 0.21544
 C1036 C 0.59773 0.80764 0.19049
 C1037 C 0.58177 0.79080 0.17818
 C1038 C 0.56166 0.77929 0.19028
 C1039 C 0.55652 0.78439 0.21497
 C1040 C 0.57192 0.80123 0.22735
 H1041 H 0.60416 0.82426 0.22647
 H1042 H 0.58396 0.78692 0.15887
 H1043 H 0.54991 0.76655 0.18015
 H1044 H 0.56867 0.80525 0.24655
 C1045 C 1.07353 0.32331 0.20326
 C1046 C 1.08886 0.31103 0.18586
 C1047 C 1.08385 0.28580 0.18179
 C1048 C 1.06491 0.27348 0.19472
 C1049 C 1.05051 0.28571 0.21245
 C1050 C 1.05485 0.31077 0.21647
 H1051 H 1.07530 0.34279 0.20656
 H1052 H 1.09532 0.27477 0.16967
 H1053 H 1.06216 0.25405 0.19141
 H1054 H 1.04367 0.32078 0.22978
 C1055 C 1.08709 0.81719 0.71150
 C1056 C 1.09232 0.81200 0.68655
 C1057 C 1.07625 0.79502 0.67458
 C1058 C 1.05660 0.78325 0.68716
 C1059 C 1.05204 0.78828 0.71198
 C1060 C 1.06723 0.80564 0.72388
 H1061 H 1.09902 0.82911 0.72228
 H1062 H 1.07818 0.79098 0.65529
 H1063 H 1.04490 0.77021 0.67738
 H1064 H 1.06434 0.80973 0.74311
 C1065 C 0.40820 0.71527 0.69044
 C1066 C 0.40504 0.68974 0.69320
 C1067 C 0.42276 0.67670 0.70742
 C1068 C 0.44283 0.68891 0.71882
 C1069 C 0.44598 0.71433 0.71581
 C1070 C 0.42858 0.72736 0.70139
 H1071 H 0.39470 0.72609 0.68017
 H1072 H 0.42133 0.65699 0.70959
 H1073 H 0.45610 0.67842 0.72974
 H1074 H 0.43038 0.74704 0.69904
 C1075 C 0.42304 0.17304 0.20530
 C1076 C 0.40707 0.18462 0.18798
 C1077 C 0.41188 0.20966 0.18261
 C1078 C 0.43131 0.22248 0.19425
 C1079 C 0.44645 0.21094 0.21187
 C1080 C 0.44227 0.18606 0.21714
 H1081 H 0.42136 0.15372 0.20952
 H1082 H 0.39992 0.22016 0.17045
 H1083 H 0.43391 0.24176 0.18998
 H1084 H 0.45396 0.17656 0.23040
 C1085 C -0.09308 0.71591 0.18873
 C1086 C -0.09597 0.69026 0.19060
 C1087 C -0.07789 0.67688 0.20405
 C1088 C -0.05788 0.68886 0.21577
 C1089 C -0.05512 0.71442 0.21385
 C1090 C -0.07274 0.72780 0.20000
 H1091 H -0.10682 0.72696 0.17901
 H1092 H -0.07905 0.65708 0.20546
 H1093 H -0.04442 0.67809 0.22619
 H1094 H -0.07121 0.74758 0.19846
 C1095 C -0.08656 0.21368 0.68376
 C1096 C -0.08921 0.18801 0.68567
 C1097 C -0.07160 0.17491 0.69996
 C1098 C -0.05235 0.18723 0.71251
 C1099 C -0.04993 0.21284 0.71061
 C1100 C -0.06699 0.22589 0.69585
 H1101 H -0.10003 0.22454 0.67349
 H1102 H -0.07266 0.15512 0.70151
 H1103 H -0.03924 0.17671 0.72359
 H1104 H -0.06568 0.24568 0.69425
 C1105 C 0.32185 0.42641 0.29209
 C1106 C 0.30789 0.41042 0.30725
 C1107 C 0.28176 0.41455 0.31006
 C1108 C 0.26991 0.43399 0.29793
 C1109 C 0.28379 0.44946 0.28232
 C1110 C 0.30987 0.44556 0.27957
 H1111 H 0.34206 0.42417 0.28988
 H1112 H 0.27023 0.40237 0.32110
 H1113 H 0.24971 0.43643 0.30016
 H1114 H 0.32104 0.45737 0.26777
 C1115 C 0.32592 -0.07393 0.79378
 C1116 C 0.31286 -0.08861 0.81110
 C1117 C 0.28711 -0.08298 0.81552
 C1118 C 0.27493 -0.06414 0.80277
 C1119 C 0.28789 -0.05043 0.78500
 C1120 C 0.31356 -0.05532 0.78084
 H1121 H 0.34591 -0.07620 0.79035
 H1122 H 0.27556 -0.09386 0.82776
 H1123 H 0.25503 -0.06090 0.80623
 H1124 H 0.32418 -0.04469 0.76755
 C1125 C 0.79410 0.42198 0.81719
 C1126 C 0.81081 0.40611 0.80452
 C1127 C 0.81538 0.41126 0.77943
 C1128 C 0.80383 0.43113 0.76771
 C1129 C 0.78698 0.44635 0.78042
 C1130 C 0.78225 0.44160 0.80526
 H1131 H 0.79052 0.42003 0.83660
 H1132 H 0.82692 0.39947 0.76813
 H1133 H 0.80752 0.43411 0.74839
 H1134 H 0.76953 0.45324 0.81561
 C1135 C 0.78323 -0.08385 0.31203
 C1136 C 0.80868 -0.09033 0.30723
 C1137 C 0.82198 -0.07603 0.28974
 C1138 C 0.81022 -0.05666 0.27732
 C1139 C 0.78491 -0.05069 0.28211
 C1140 C 0.77166 -0.06434 0.29976
 H1141 H 0.77147 -0.09444 0.32433
 H1142 H 0.84179 -0.07907 0.28592
 H1143 H 0.82106 -0.04625 0.26402
 H1144 H 0.75199 -0.06039 0.30368
 C1145 C 0.32070 0.57449 0.70957
 C1146 C 0.30693 0.59074 0.69459
 C1147 C 0.28064 0.58725 0.69229
 C1148 C 0.26847 0.56810 0.70467
 C1149 C 0.28221 0.55230 0.72002
 C1150 C 0.30844 0.55564 0.72231
 H1151 H 0.34100 0.57624 0.71141
 H1152 H 0.26928 0.59965 0.68137
 H1153 H 0.24818 0.56607 0.70276
 H1154 H 0.31953 0.54356 0.73387
 C1155 C 0.31190 1.08562 0.22019
 C1156 C 0.30666 1.09044 0.19518
 C1157 C 0.28923 1.07469 0.18328
 C1158 C 0.27749 1.05538 0.19584
 C1159 C 0.28304 1.05085 0.22055
 C1160 C 0.30045 1.06606 0.23252
 H1161 H 0.32397 1.09742 0.23095
 H1162 H 0.28505 1.07645 0.16397
 H1163 H 0.26431 1.04373 0.18607
 H1164 H 0.30477 1.06327 0.25174
 C1165 C 0.82101 0.57662 0.20866
 C1166 C 0.80764 0.59081 0.19117
 C1167 C 0.78229 0.58401 0.18628
 C1168 C 0.77086 0.56435 0.19852
 C1169 C 0.78417 0.55091 0.21625
 C1170 C 0.80939 0.55716 0.22108
 H1171 H 0.84078 0.57982 0.21251
 H1172 H 0.77047 0.59445 0.17394
 H1173 H 0.75125 0.56014 0.19458
 H1174 H 0.82027 0.54688 0.23441
 C1175 C 0.80928 1.09250 0.71717
 C1176 C 0.80751 1.09470 0.69150
 C1177 C 0.79347 1.07694 0.67855
 C1178 C 0.78142 1.05769 0.69097
 C1179 C 0.78366 1.05545 0.71651
 C1180 C 0.79778 1.07296 0.72946
 H1181 H 0.81925 1.10609 0.72793
 H1182 H 0.79200 1.07769 0.65877
 H1183 H 0.77069 1.04434 0.68058
 H1184 H 0.79946 1.07186 0.74922
 C1185 C 0.68920 0.58815 0.28941
 C1186 C 0.69147 0.59111 0.31497
 C1187 C 0.70587 0.57381 0.32820
 C1188 C 0.71783 0.55431 0.31611
 C1189 C 0.71516 0.55140 0.29067
 C1190 C 0.70059 0.56839 0.27751
 H1191 H 0.67906 0.60139 0.27836
 H1192 H 0.70780 0.57520 0.34790
 H1193 H 0.72891 0.54135 0.32667
 H1194 H 0.69856 0.56679 0.25781
 C1195 C 0.70753 1.08181 0.82516
 C1196 C 0.69068 1.09746 0.81236
 C1197 C 0.68588 1.09191 0.78744
 C1198 C 0.69714 1.07176 0.77605
 C1199 C 0.71397 1.05663 0.78889
 C1200 C 0.71911 1.06187 0.81354
 H1201 H 0.71137 1.08417 0.84447
 H1202 H 0.67432 1.10358 0.77600
 H1203 H 0.69318 1.06846 0.75685
 H1204 H 0.73187 1.05034 0.82396
 C1205 C 0.21447 0.58792 0.82322
 C1206 C 0.18879 0.59382 0.81871
 C1207 C 0.17511 0.57813 0.80287
 C1208 C 0.18682 0.55831 0.79126
 C1209 C 0.21245 0.55319 0.79535
 C1210 C 0.22601 0.56787 0.81181
 H1211 H 0.22645 0.59943 0.83439
 H1212 H 0.15512 0.58057 0.79958
 H1213 H 0.17573 0.54697 0.77901
 H1214 H 0.24589 0.56446 0.81517
 C1215 C 0.21634 1.08511 0.32285
 C1216 C 0.19082 1.09144 0.31813
 C1217 C 0.17704 1.07601 0.30208
 C1218 C 0.18854 1.05604 0.29051
 C1219 C 0.21400 1.05047 0.29489
 C1220 C 0.22763 1.06490 0.31152
 H1221 H 0.22843 1.09639 0.33415
 H1222 H 0.15713 1.07878 0.29860
 H1223 H 0.17741 1.04491 0.27808
 H1224 H 0.24741 1.06117 0.31508
 C1225 C 0.70475 0.42286 0.67286
 C1226 C 0.68990 0.40620 0.68645
 C1227 C 0.68762 0.40976 0.71192
 C1228 C 0.69948 0.42953 0.72341
 C1229 C 0.71446 0.44593 0.70987
 C1230 C 0.71711 0.44238 0.68450
 H1231 H 0.70667 0.42099 0.65319
 H1232 H 0.67704 0.39701 0.72321
 H1233 H 0.69743 0.43161 0.74306
 H1234 H 0.72850 0.45486 0.67363
 C1235 C 0.67744 -0.07417 0.19704
 C1236 C 0.69190 -0.09128 0.18368
 C1237 C 0.71822 -0.08765 0.18203
 C1238 C 0.72976 -0.06772 0.19364
 C1239 C 0.71537 -0.05120 0.20761
 C1240 C 0.68908 -0.05452 0.20909
 H1241 H 0.65709 -0.07595 0.19830
 H1242 H 0.73012 -0.10062 0.17241
 H1243 H 0.75010 -0.06570 0.19236
 H1244 H 0.67751 -0.04190 0.21954
 C1245 C 0.18843 0.40888 0.21208
 C1246 C 0.19021 0.40549 0.18655
 C1247 C 0.20426 0.42261 0.17271
 C1248 C 0.21632 0.44241 0.18413
 C1249 C 0.21405 0.44585 0.20952
 C1250 C 0.19993 0.42897 0.22335
 H1251 H 0.17846 0.39581 0.22353
 H1252 H 0.20573 0.42093 0.15299
 H1253 H 0.22703 0.45528 0.17307
 H1254 H 0.19823 0.43101 0.24304
 C1255 C 0.19255 -0.09225 0.71205
 C1256 C 0.19521 -0.09585 0.68663
 C1257 C 0.21025 -0.07922 0.67318
 C1258 C 0.22222 -0.05951 0.68491
 C1259 C 0.21895 -0.05577 0.71017
 C1260 C 0.20401 -0.07231 0.72359
 H1261 H 0.18185 -0.10500 0.72321
 H1262 H 0.21250 -0.08118 0.65356
 H1263 H 0.23362 -0.04693 0.67416
 H1264 H 0.20151 -0.07008 0.74318
 C1265 C 0.28403 0.32027 0.41217
 C1266 C 0.31037 0.31859 0.40863
 C1267 C 0.32479 0.30537 0.42583
 C1268 C 0.31308 0.29332 0.44543
 C1269 C 0.28676 0.29465 0.44858
 C1270 C 0.27240 0.30863 0.43206
 H1271 H 0.27218 0.32983 0.39911
 H1272 H 0.34514 0.30413 0.42407
 H1273 H 0.32462 0.28286 0.45809
 H1274 H 0.25204 0.30978 0.43397
 C1275 C 0.28498 0.81869 -0.08796
 C1276 C 0.31126 0.81637 -0.09154
 C1277 C 0.32533 0.80264 -0.07445
 C1278 C 0.31333 0.79097 -0.05477
 C1279 C 0.28710 0.79320 -0.05142
 C1280 C 0.27310 0.80745 -0.06798
 H1281 H 0.27338 0.82863 -0.10095
 H1282 H 0.34563 0.80086 -0.07624
 H1283 H 0.32460 0.78022 -0.04212
 H1284 H 0.25280 0.80923 -0.06597
 C1285 C 0.79737 0.32649 -0.07863
 C1286 C 0.81138 0.31263 -0.09569
 C1287 C 0.81334 0.28709 -0.09206
 C1288 C 0.80198 0.27582 -0.07187
 C1289 C 0.78780 0.28963 -0.05508
 C1290 C 0.78547 0.31506 -0.05869
 H1291 H 0.79573 0.34621 -0.08052
 H1292 H 0.82327 0.27561 -0.10507
 H1293 H 0.80375 0.25611 -0.06974
 H1294 H 0.77471 0.32614 -0.04592
 C1295 C 0.78250 0.81897 0.41142
 C1296 C 0.80891 0.81782 0.40817
 C1297 C 0.82339 0.80503 0.42567
 C1298 C 0.81172 0.79286 0.44522
 C1299 C 0.78535 0.79367 0.44809
 C1300 C 0.77089 0.80724 0.43129
 H1301 H 0.77061 0.82822 0.39816
 H1302 H 0.84379 0.80422 0.42421
 H1303 H 0.82333 0.78276 0.45810
 H1304 H 0.75049 0.80800 0.43300
 C1305 C 0.68695 0.28006 0.59017
 C1306 C 0.68888 0.30574 0.59276
 C1307 C 0.70228 0.31906 0.57480
 C1308 C 0.71381 0.30701 0.55514
 C1309 C 0.71170 0.28145 0.55263
 C1310 C 0.69796 0.26811 0.57018
 H1311 H 0.67735 0.26903 0.60383
 H1312 H 0.70373 0.33886 0.57578
 H1313 H 0.72419 0.31773 0.54173
 H1314 H 0.69637 0.24833 0.56882
 C1315 C 0.67886 0.79423 1.07384
 C1316 C 0.69323 0.80856 1.09017
 C1317 C 0.71946 0.81065 1.08609
 C1318 C 0.73098 0.79860 1.06640
 C1319 C 0.71667 0.78378 1.05058
 C1320 C 0.69048 0.78180 1.05444
 H1321 H 0.65858 0.79259 1.07598
 H1322 H 0.73129 0.82108 1.09848
 H1323 H 0.75125 0.80028 1.06401
 H1324 H 0.67894 0.77067 1.04238
 C1325 C 0.20343 0.31969 1.07354
 C1326 C 0.18848 0.30718 1.09092
 C1327 C 0.18588 0.28154 1.08882
 C1328 C 0.19759 0.26881 1.06978
 C1329 C 0.21273 0.28129 1.05270
 C1330 C 0.21565 0.30682 1.05477
 H1331 H 0.20557 0.33944 1.07429
 H1332 H 0.17518 0.27110 1.10219
 H1333 H 0.19533 0.24906 1.06878
 H1334 H 0.22715 0.31686 1.04171
 C1335 C 0.20870 0.81668 0.57542
 C1336 C 0.19426 0.80382 0.59297
 C1337 C 0.19167 0.77821 0.59042
 C1338 C 0.20288 0.76590 0.57077
 C1339 C 0.21749 0.77876 0.55352
 C1340 C 0.22044 0.80424 0.55608
 H1341 H 0.21075 0.83643 0.57640
 H1342 H 0.18132 0.76749 0.60381
 H1343 H 0.20061 0.74618 0.56939
 H1344 H 0.23151 0.81458 0.54291
 C1345 C 0.32486 0.69414 0.57437
 C1346 C 0.31061 0.68093 0.59180
 C1347 C 0.28423 0.67927 0.58857
 C1348 C 0.27244 0.69070 0.56871
 C1349 C 0.28662 0.70457 0.55193
 C1350 C 0.31295 0.70609 0.55483
 H1351 H 0.34523 0.69541 0.57586
 H1352 H 0.27245 0.66984 0.60181
 H1353 H 0.25207 0.68947 0.56702
 H1354 H 0.32431 0.71651 0.54196
 C1355 C 0.29113 0.16996 1.07807
 C1356 C 0.30591 0.18330 1.09489
 C1357 C 0.30827 0.20886 1.09169
 C1358 C 0.29671 0.22065 1.07198
 C1359 C 0.28196 0.20734 1.05528
 C1360 C 0.27906 0.18192 1.05858
 H1361 H 0.28912 0.15024 1.07976
 H1362 H 0.31877 0.21993 1.10463
 H1363 H 0.29890 0.24035 1.07009
 H1364 H 0.26781 0.17125 1.04587
 C1365 C 0.78138 0.68187 1.08733
 C1366 C 0.80777 0.68317 1.09062
 C1367 C 0.82225 0.69609 1.07315
 C1368 C 0.81058 0.70818 1.05358
 C1369 C 0.78422 0.70717 1.05064
 C1370 C 0.76978 0.69352 1.06742
 H1371 H 0.76948 0.67255 1.10055
 H1372 H 0.84264 0.69702 1.07464
 H1373 H 0.82218 0.71836 1.04072
 H1374 H 0.74939 0.69262 1.06568
 C1375 C 0.81276 0.21328 0.58667
 C1376 C 0.81011 0.18781 0.59040
 C1377 C 0.79510 0.17432 0.57389
 C1378 C 0.78264 0.18609 0.55455
 C1379 C 0.78535 0.21150 0.55098
 C1380 C 0.80076 0.22491 0.56704
 H1381 H 0.82358 0.22446 0.59926
 H1382 H 0.79298 0.15465 0.57583
 H1383 H 0.77097 0.17530 0.54231
 H1384 H 0.80292 0.24459 0.56488
 C1385 C 0.68081 0.70508 0.42543
 C1386 C 0.69538 0.69179 0.40838
 C1387 C 0.72175 0.69062 0.41183
 C1388 C 0.73320 0.70259 0.43161
 C1389 C 0.71863 0.71640 0.44812
 C1390 C 0.69232 0.71745 0.44488
 H1391 H 0.66042 0.70591 0.42384
 H1392 H 0.73370 0.68097 0.39892
 H1393 H 0.75357 0.70168 0.43356
 H1394 H 0.68060 0.72778 0.45748
 C1395 C 0.68895 0.21909 -0.08805
 C1396 C 0.69100 0.19345 -0.09063
 C1397 C 0.70578 0.18038 -0.07355
 C1398 C 0.71842 0.19269 -0.05465
 C1399 C 0.71609 0.21824 -0.05213
 C1400 C 0.70109 0.23126 -0.06889
 H1401 H 0.67841 0.22996 -0.10114
 H1402 H 0.70750 0.16061 -0.07465
 H1403 H 0.72979 0.18222 -0.04186
 H1404 H 0.69925 0.25103 -0.06757
 C1405 C 0.17885 0.71003 -0.07466
 C1406 C 0.19286 0.69539 -0.09102
 C1407 C 0.21906 0.69284 -0.08713
 C1408 C 0.23089 0.70458 -0.06747
 C1409 C 0.21693 0.71955 -0.05151
 C1410 C 0.19079 0.72215 -0.05528
 H1411 H 0.15860 0.71205 -0.07672
 H1412 H 0.23062 0.68221 -0.09959
 H1413 H 0.25113 0.70248 -0.06515
 H1414 H 0.17954 0.73346 -0.04313
 C1415 C 0.18103 0.20708 0.42533
 C1416 C 0.19528 0.19273 0.40893
 C1417 C 0.22154 0.19070 0.41269
 C1418 C 0.23325 0.20289 0.43217
 C1419 C 0.21903 0.21773 0.44805
 C1420 C 0.19280 0.21961 0.44451
 H1421 H 0.16071 0.20863 0.42340
 H1422 H 0.23323 0.18020 0.40022
 H1423 H 0.25354 0.20128 0.43438
 H1424 H 0.18134 0.23073 0.45666
 C1425 C 0.27839 0.41378 0.69255
 C1426 C 0.30464 0.40997 0.69460
 C1427 C 0.31885 0.42618 0.70922
 C1428 C 0.30705 0.44525 0.72196
 C1429 C 0.28085 0.44888 0.71998
 C1430 C 0.26668 0.43316 0.70492
 H1431 H 0.26672 0.40146 0.68188
 H1432 H 0.33916 0.42420 0.71082
 H1433 H 0.31846 0.45727 0.73325
 H1434 H 0.24641 0.43542 0.70324
 C1435 C 0.32228 0.92439 0.20952
 C1436 C 0.30835 0.90796 0.19488
 C1437 C 0.28201 0.91130 0.19296
 C1438 C 0.26998 0.93050 0.20529
 C1439 C 0.28388 0.94654 0.22022
 C1440 C 0.31014 0.94331 0.22223
 H1441 H 0.34261 0.92275 0.21109
 H1442 H 0.27051 0.89876 0.18236
 H1443 H 0.24966 0.93241 0.20361
 H1444 H 0.32134 0.95555 0.23348
 C1445 C 0.78239 0.41150 0.18927
 C1446 C 0.80853 0.40738 0.19199
 C1447 C 0.82251 0.42344 0.20697
 C1448 C 0.81059 0.44270 0.21936
 C1449 C 0.78449 0.44663 0.21670
 C1450 C 0.77057 0.43102 0.20131
 H1451 H 0.77087 0.39929 0.17832
 H1452 H 0.84273 0.42120 0.20913
 H1453 H 0.82183 0.45459 0.23094
 H1454 H 0.75037 0.43348 0.19909
 C1455 C 0.78096 0.91493 0.69029
 C1456 C 0.80721 0.91116 0.69227
 C1457 C 0.82146 0.92757 0.70666
 C1458 C 0.80969 0.94693 0.71906
 C1459 C 0.78350 0.95059 0.71699
 C1460 C 0.76930 0.93453 0.70231
 H1461 H 0.76923 0.90242 0.67990
 H1462 H 0.84176 0.92558 0.70826
 H1463 H 0.82111 0.95915 0.73012
 H1464 H 0.74903 0.93675 0.70058
 C1465 C 0.68779 0.58735 0.71082
 C1466 C 0.69022 0.59076 0.68530
 C1467 C 0.70467 0.57369 0.67189
 C1468 C 0.71673 0.55412 0.68376
 C1469 C 0.71409 0.55085 0.70918
 C1470 C 0.69928 0.56748 0.72252
 H1471 H 0.67754 0.60038 0.72200
 H1472 H 0.70667 0.57536 0.65221
 H1473 H 0.72797 0.54142 0.67305
 H1474 H 0.69726 0.56559 0.74220
 C1475 C 0.70468 0.07597 0.17081
 C1476 C 0.69022 0.09312 0.18412
 C1477 C 0.68801 0.09004 0.20968
 C1478 C 0.69958 0.07033 0.22152
 C1479 C 0.71425 0.05350 0.20828
 C1480 C 0.71681 0.05651 0.18282
 H1481 H 0.70657 0.07746 0.15110
 H1482 H 0.67780 0.10318 0.22078
 H1483 H 0.69762 0.06866 0.24123
 H1484 H 0.72797 0.04367 0.17220
 C1485 C 0.17439 0.57272 0.19420
 C1486 C 0.18860 0.59023 0.18104
 C1487 C 0.21502 0.58724 0.17965
 C1488 C 0.22690 0.56759 0.19138
 C1489 C 0.21276 0.55075 0.20526
 C1490 C 0.18639 0.55338 0.20642
 H1491 H 0.15400 0.57402 0.19525
 H1492 H 0.22675 0.60055 0.17024
 H1493 H 0.24731 0.56611 0.19039
 H1494 H 0.17504 0.54047 0.21682
 C1495 C 0.17805 0.07088 0.69436
 C1496 C 0.19234 0.08832 0.68118
 C1497 C 0.21877 0.08536 0.68001
 C1498 C 0.23058 0.06582 0.69200
 C1499 C 0.21636 0.04907 0.70591
 C1500 C 0.18997 0.05164 0.70682
 H1501 H 0.15764 0.07217 0.69525
 H1502 H 0.23053 0.09861 0.67056
 H1503 H 0.25100 0.06438 0.69117
 H1504 H 0.17855 0.03881 0.71724
 C1505 C 0.32111 0.57586 0.29011
 C1506 C 0.30708 0.59224 0.30472
 C1507 C 0.28077 0.58876 0.30669
 C1508 C 0.26886 0.56937 0.29455
 C1509 C 0.28287 0.55329 0.27975
 C1510 C 0.30910 0.55675 0.27758
 H1511 H 0.34144 0.57764 0.28849
 H1512 H 0.26921 0.60127 0.31727
 H1513 H 0.24856 0.56729 0.29634
 H1514 H 0.32038 0.54448 0.26642
 C1515 C 0.32200 0.07519 0.79390
 C1516 C 0.30745 0.09118 0.80847
 C1517 C 0.28117 0.08730 0.80997
 C1518 C 0.26977 0.06798 0.79727
 C1519 C 0.28430 0.05236 0.78242
 C1520 C 0.31051 0.05614 0.78084
 H1521 H 0.34232 0.07725 0.79268
 H1522 H 0.26926 0.09949 0.82055
 H1523 H 0.24948 0.06558 0.79866
 H1524 H 0.32219 0.04420 0.76972
 C1525 C 0.82354 0.57475 0.79122
 C1526 C 0.80926 0.59091 0.80590
 C1527 C 0.78303 0.58695 0.80792
 C1528 C 0.77147 0.56736 0.79582
 C1529 C 0.78570 0.55151 0.78094
 C1530 C 0.81183 0.55542 0.77866
 H1531 H 0.84382 0.57688 0.78953
 H1532 H 0.77122 0.59926 0.81845
 H1533 H 0.75122 0.56496 0.79766
 H1534 H 0.82326 0.54336 0.76742
 C1535 C 0.79264 0.07605 0.31944
 C1536 C 0.80704 0.09368 0.30664
 C1537 C 0.80956 0.09121 0.28104
 C1538 C 0.79837 0.07155 0.26871
 C1539 C 0.78384 0.05418 0.28151
 C1540 C 0.78093 0.05668 0.30697
 H1541 H 0.79062 0.07697 0.33917
 H1542 H 0.81987 0.10467 0.27037
 H1543 H 0.80060 0.07025 0.24900
 H1544 H 0.76991 0.04345 0.31729
 C1545 C 0.71655 0.40933 0.31573
 C1546 C 0.69005 0.40684 0.31474
 C1547 C 0.67600 0.42497 0.30234
 C1548 C 0.68814 0.44447 0.29050
 C1549 C 0.71457 0.44668 0.29130
 C1550 C 0.72863 0.42918 0.30437
 H1551 H 0.72813 0.39559 0.32465
 H1552 H 0.65556 0.42411 0.30168
 H1553 H 0.67684 0.45789 0.28075
 H1554 H 0.74907 0.43035 0.30506
 C1555 C 0.71700 0.91460 0.81667
 C1556 C 0.69067 0.91102 0.81520
 C1557 C 0.67615 0.92829 0.80207
 C1558 C 0.68776 0.94801 0.79003
 C1559 C 0.71406 0.95125 0.79132
 C1560 C 0.72849 0.93461 0.80511
 H1561 H 0.72896 0.90151 0.82608
 H1562 H 0.65579 0.92654 0.80095
 H1563 H 0.67616 0.96073 0.77970
 H1564 H 0.74886 0.93655 0.80621
 C1565 C 0.17452 0.42672 0.80721
 C1566 C 0.18888 0.40928 0.82023
 C1567 C 0.21525 0.41262 0.82178
 C1568 C 0.22695 0.43252 0.81021
 C1569 C 0.21265 0.44924 0.79638
 C1570 C 0.18631 0.44630 0.79518
 H1571 H 0.15414 0.42514 0.80608
 H1572 H 0.22705 0.39940 0.83118
 H1573 H 0.24733 0.43428 0.81127
 H1574 H 0.17483 0.45913 0.78486
 C1575 C 0.17531 0.92419 0.30598
 C1576 C 0.18947 0.90663 0.31906
 C1577 C 0.21589 0.90963 0.32050
 C1578 C 0.22783 0.92940 0.30892
 C1579 C 0.21372 0.94631 0.29517
 C1580 C 0.18734 0.94364 0.29394
 H1581 H 0.15492 0.92287 0.30490
 H1582 H 0.22755 0.89629 0.32990
 H1583 H 0.24823 0.93093 0.30998
 H1584 H 0.17601 0.95662 0.28366
 C1585 C 0.41977 0.32395 0.70790
 C1586 C 0.40196 0.31064 0.69408
 C1587 C 0.40503 0.28505 0.69187
 C1588 C 0.42535 0.27314 0.70312
 C1589 C 0.44276 0.28645 0.71725
 C1590 C 0.43977 0.31195 0.71957
 H1591 H 0.41841 0.34370 0.70958
 H1592 H 0.39147 0.27407 0.68184
 H1593 H 0.42707 0.25341 0.70128
 H1594 H 0.45307 0.32266 0.73022
 C1595 C 0.42499 0.82297 0.20610
 C1596 C 0.40711 0.80970 0.19230
 C1597 C 0.41032 0.78415 0.18986
 C1598 C 0.43079 0.77224 0.20088
 C1599 C 0.44823 0.78548 0.21505
 C1600 C 0.44515 0.81095 0.21756
 H1601 H 0.42354 0.84270 0.20798
 H1602 H 0.39674 0.77317 0.17987
 H1603 H 0.43254 0.75252 0.19890
 H1604 H 0.45843 0.82161 0.22827
 C1605 C 0.90718 0.28086 0.19191
 C1606 C 0.90416 0.30647 0.19394
 C1607 C 0.92187 0.31979 0.20788
 C1608 C 0.94173 0.30781 0.21978
 C1609 C 0.94472 0.28230 0.21759
 C1610 C 0.92739 0.26895 0.20340
 H1611 H 0.89371 0.26988 0.18177
 H1612 H 0.92060 0.33956 0.20942
 H1613 H 0.95499 0.31857 0.23042
 H1614 H 0.92915 0.24921 0.20162
 C1615 C 0.90694 0.78556 0.68977
 C1616 C 0.90402 0.81119 0.69180
 C1617 C 0.92208 0.82451 0.70530
 C1618 C 0.94218 0.81249 0.71683
 C1619 C 0.94502 0.78697 0.71468
 C1620 C 0.92736 0.77364 0.70086
 H1621 H 0.89320 0.77456 0.68001
 H1622 H 0.92087 0.84428 0.70684
 H1623 H 0.95567 0.82322 0.72725
 H1624 H 0.92896 0.75388 0.69916
 C1625 C 0.57085 0.29753 0.32166
 C1626 C 0.58964 0.31051 0.30867
 C1627 C 0.58795 0.31165 0.28292
 C1628 C 0.56818 0.30001 0.27053
 C1629 C 0.55000 0.28646 0.28354
 C1630 C 0.55145 0.28538 0.30920
 H1631 H 0.57109 0.29670 0.34148
 H1632 H 0.60226 0.32096 0.27217
 H1633 H 0.56760 0.30090 0.25070
 H1634 H 0.53748 0.27523 0.31965
 C1635 C 0.59314 0.81132 0.78192
 C1636 C 0.59639 0.80907 0.80746
 C1637 C 0.57864 0.79517 0.82085
 C1638 C 0.55857 0.78344 0.80899
 C1639 C 0.55541 0.78577 0.78354
 C1640 C 0.57273 0.80002 0.77015
 H1641 H 0.60662 0.82141 0.77086
 H1642 H 0.58008 0.79346 0.84057
 H1643 H 0.54535 0.77271 0.81978
 H1644 H 0.57089 0.80187 0.75046
 C1645 C 0.07739 0.29302 0.82209
 C1646 C 0.09548 0.30715 0.80939
 C1647 C 0.09326 0.30947 0.78377
 C1648 C 0.07348 0.29804 0.77123
 C1649 C 0.05579 0.28361 0.78393
 C1650 C 0.05793 0.28116 0.80946
 H1651 H 0.07811 0.29123 0.84185
 H1652 H 0.10707 0.31973 0.77327
 H1653 H 0.07240 0.29999 0.75149
 H1654 H 0.04439 0.27028 0.81970
 C1655 C 0.09124 0.80843 0.28496
 C1656 C 0.09399 0.80594 0.31053
 C1657 C 0.07588 0.79207 0.32349
 C1658 C 0.05584 0.78072 0.31118
 C1659 C 0.05313 0.78342 0.28571
 C1660 C 0.07091 0.79753 0.27276
 H1661 H 0.10505 0.81844 0.27421
 H1662 H 0.07700 0.79012 0.34321
 H1663 H 0.04230 0.77003 0.32162
 H1664 H 0.06946 0.79963 0.25306
 C1665 C 0.59050 0.68728 0.71394
 C1666 C 0.59380 0.69011 0.68846
 C1667 C 0.57654 0.70489 0.67549
 C1668 C 0.55684 0.71687 0.68776
 C1669 C 0.55367 0.71397 0.71317
 C1670 C 0.57054 0.69886 0.72608
 H1671 H 0.60369 0.67658 0.72471
 H1672 H 0.57813 0.70716 0.65583
 H1673 H 0.54400 0.72831 0.67733
 H1674 H 0.56873 0.69653 0.74573
 C1675 C 0.58991 0.18884 0.21306
 C1676 C 0.59308 0.19160 0.18756
 C1677 C 0.57560 0.20609 0.17456
 C1678 C 0.55575 0.21781 0.18680
 C1679 C 0.55267 0.21494 0.21222
 C1680 C 0.56979 0.20017 0.22519
 H1681 H 0.60327 0.17833 0.22382
 H1682 H 0.57712 0.20828 0.15489
 H1683 H 0.54268 0.22896 0.17633
 H1684 H 0.56800 0.19786 0.24485
 C1685 C 0.07572 0.70531 0.17617
 C1686 C 0.09350 0.69120 0.18926
 C1687 C 0.09040 0.68864 0.21479
 C1688 C 0.07010 0.69978 0.22684
 C1689 C 0.05273 0.71420 0.21377
 C1690 C 0.05573 0.71689 0.18833
 H1691 H 0.07709 0.70729 0.15647
 H1692 H 0.10394 0.67843 0.22563
 H1693 H 0.06840 0.69767 0.24653
 H1694 H 0.04248 0.72779 0.17780
 C1695 C 0.07954 0.20332 0.67521
 C1696 C 0.09729 0.18939 0.68851
 C1697 C 0.09427 0.18727 0.71407
 C1698 C 0.07407 0.19874 0.72597
 C1699 C 0.05675 0.21301 0.71268
 C1700 C 0.05967 0.21523 0.68720
 H1701 H 0.08085 0.20494 0.65546
 H1702 H 0.10778 0.17717 0.72505
 H1703 H 0.07238 0.19696 0.74569
 H1704 H 0.04643 0.22598 0.67651
 C1705 C 0.42369 0.67729 0.29397
 C1706 C 0.40579 0.69059 0.30771
 C1707 C 0.40911 0.71612 0.31025
 C1708 C 0.42973 0.72798 0.29936
 C1709 C 0.44721 0.71470 0.28526
 C1710 C 0.44400 0.68925 0.28266
 H1711 H 0.42216 0.65757 0.29204
 H1712 H 0.39552 0.72711 0.32022
 H1713 H 0.43159 0.74768 0.30141
 H1714 H 0.45732 0.67855 0.27202
 C1715 C 0.42210 0.17813 0.79827
 C1716 C 0.40397 0.19111 0.81200
 C1717 C 0.40659 0.21674 0.81432
 C1718 C 0.42669 0.22904 0.80305
 C1719 C 0.44428 0.21607 0.78881
 C1720 C 0.44186 0.19051 0.78659
 H1721 H 0.42109 0.15835 0.79656
 H1722 H 0.39279 0.22744 0.82435
 H1723 H 0.42802 0.24881 0.80483
 H1724 H 0.45534 0.18006 0.77588
 C1725 C 0.90863 0.71684 0.81022
 C1726 C 0.90593 0.69120 0.80806
 C1727 C 0.92416 0.67813 0.79450
 C1728 C 0.94413 0.69042 0.78296
 C1729 C 0.94669 0.71597 0.78516
 C1730 C 0.92892 0.72903 0.79913
 H1731 H 0.89477 0.72767 0.82002
 H1732 H 0.92312 0.65835 0.79286
 H1733 H 0.95769 0.67989 0.77242
 H1734 H 0.93027 0.74880 0.80086
 C1735 C 0.92842 0.17384 0.30057
 C1736 C 0.91053 0.18679 0.31464
 C1737 C 0.91312 0.21246 0.31675
 C1738 C 0.93281 0.22482 0.30495
 C1739 C 0.95006 0.21194 0.29027
 C1740 C 0.94781 0.18632 0.28829
 H1741 H 0.92741 0.15407 0.29888
 H1742 H 0.89945 0.22323 0.32685
 H1743 H 0.93396 0.24461 0.30655
 H1744 H 0.96103 0.17594 0.27722
 C1745 C 0.28178 0.31989 0.58884
 C1746 C 0.30815 0.31895 0.59233
 C1747 C 0.32298 0.30631 0.57500
 C1748 C 0.31166 0.29406 0.55537
 C1749 C 0.28532 0.29465 0.55228
 C1750 C 0.27054 0.30809 0.56889
 H1751 H 0.26964 0.32899 0.60197
 H1752 H 0.34336 0.30567 0.57668
 H1753 H 0.32351 0.28406 0.54262
 H1754 H 0.25015 0.30869 0.56699
 C1755 C 0.28425 0.81875 0.08948
 C1756 C 0.31068 0.81738 0.09249
 C1757 C 0.32491 0.80447 0.07488
 C1758 C 0.31295 0.79253 0.05538
 C1759 C 0.28658 0.79373 0.05270
 C1760 C 0.27240 0.80731 0.06966
 H1761 H 0.27251 0.82799 0.10286
 H1762 H 0.34530 0.80344 0.07616
 H1763 H 0.32434 0.78236 0.04237
 H1764 H 0.25200 0.80832 0.06812
 C1765 C 0.78590 0.31785 0.08668
 C1766 C 0.81215 0.31577 0.09047
 C1767 C 0.82652 0.30220 0.07346
 C1768 C 0.81482 0.29037 0.05372
 C1769 C 0.78859 0.29232 0.05026
 C1770 C 0.77434 0.30650 0.06669
 H1771 H 0.77402 0.32756 0.09960
 H1772 H 0.84682 0.30058 0.07542
 H1773 H 0.82626 0.27969 0.04118
 H1774 H 0.75403 0.30809 0.06461
 C1775 C 0.78238 0.81999 0.58788
 C1776 C 0.80879 0.81886 0.59113
 C1777 C 0.82330 0.80593 0.57377
 C1778 C 0.81166 0.79357 0.55439
 C1779 C 0.78529 0.79433 0.55155
 C1780 C 0.77081 0.80807 0.56817
 H1781 H 0.77048 0.82935 0.60104
 H1782 H 0.84370 0.80513 0.57525
 H1783 H 0.82329 0.78334 0.54163
 H1784 H 0.75041 0.80880 0.56648
 C1785 C 0.32391 0.69462 0.42550
 C1786 C 0.30955 0.68203 0.40778
 C1787 C 0.28313 0.68071 0.41089
 C1788 C 0.27140 0.69193 0.43091
 C1789 C 0.28572 0.70522 0.44799
 C1790 C 0.31209 0.70633 0.44521
 H1791 H 0.34431 0.69558 0.42412
 H1792 H 0.27130 0.67169 0.39745
 H1793 H 0.25100 0.69100 0.43253
 H1794 H 0.32358 0.71627 0.45830
 C1795 C 0.32216 0.19367 0.92957
 C1796 C 0.30805 0.18088 0.91180
 C1797 C 0.28159 0.17969 0.91448
 C1798 C 0.26956 0.19138 0.93404
 C1799 C 0.28363 0.20497 0.95109
 C1800 C 0.31005 0.20583 0.94883
 H1801 H 0.34259 0.19452 0.92850
 H1802 H 0.26998 0.17049 0.90098
 H1803 H 0.24912 0.19059 0.93528
 H1804 H 0.32135 0.21597 0.96193
 C1805 C 0.82328 0.69581 0.92510
 C1806 C 0.80911 0.68277 0.90756
 C1807 C 0.78267 0.68138 0.91057
 C1808 C 0.77074 0.69313 0.93022
 C1809 C 0.78488 0.70695 0.94704
 C1810 C 0.81128 0.70799 0.94442
 H1811 H 0.84368 0.69680 0.92385
 H1812 H 0.77100 0.67195 0.89728
 H1813 H 0.75033 0.69218 0.93173
 H1814 H 0.82267 0.71828 0.95733
 C1815 C 0.81034 0.21275 0.41084
 C1816 C 0.80745 0.18728 0.40727
 C1817 C 0.79217 0.17402 0.42379
 C1818 C 0.77995 0.18596 0.44317
 C1819 C 0.78313 0.21132 0.44672
 C1820 C 0.79856 0.22454 0.43047
 H1821 H 0.82134 0.22376 0.39819
 H1822 H 0.78980 0.15437 0.42190
 H1823 H 0.76822 0.17531 0.45553
 H1824 H 0.80105 0.24418 0.43258
 C1825 C 0.68464 0.28080 0.41079
 C1826 C 0.68590 0.30658 0.40871
 C1827 C 0.69874 0.31982 0.42705
 C1828 C 0.71066 0.30759 0.44640
 C1829 C 0.70943 0.28192 0.44826
 C1830 C 0.69598 0.26866 0.43052
 H1831 H 0.67549 0.26983 0.39686
 H1832 H 0.69965 0.33967 0.42652
 H1833 H 0.72078 0.31822 0.46001
 H1834 H 0.69505 0.24880 0.43140
 C1835 C 0.67912 0.79448 0.92329
 C1836 C 0.69343 0.80912 0.90711
 C1837 C 0.71964 0.81132 0.91119
 C1838 C 0.73120 0.79906 0.93075
 C1839 C 0.71695 0.78396 0.94643
 C1840 C 0.69078 0.78187 0.94256
 H1841 H 0.65885 0.79276 0.92115
 H1842 H 0.73140 0.82201 0.89892
 H1843 H 0.75145 0.80084 0.93318
 H1844 H 0.67927 0.77054 0.95451
 C1845 C 0.21685 0.30803 0.91420
 C1846 C 0.19061 0.30607 0.91036
 C1847 C 0.17631 0.29124 0.92637
 C1848 C 0.18802 0.27835 0.94541
 C1849 C 0.21420 0.28036 0.94914
 C1850 C 0.22846 0.29549 0.93349
 H1851 H 0.22858 0.31882 0.90198
 H1852 H 0.15602 0.28965 0.92428
 H1853 H 0.17655 0.26698 0.95736
 H1854 H 0.24872 0.29722 0.93582
 C1855 C 0.21753 0.80674 0.41368
 C1856 C 0.19124 0.80453 0.41017
 C1857 C 0.17732 0.78977 0.42656
 C1858 C 0.18943 0.77724 0.44563
 C1859 C 0.21566 0.77955 0.44903
 C1860 C 0.22953 0.79460 0.43300
 H1861 H 0.22903 0.81742 0.40116
 H1862 H 0.15702 0.78797 0.42476
 H1863 H 0.17825 0.76586 0.45783
 H1864 H 0.24982 0.79648 0.43501
 C1865 C 0.68056 0.70575 0.57548
 C1866 C 0.69504 0.69234 0.59253
 C1867 C 0.72141 0.69107 0.58908
 C1868 C 0.73296 0.70302 0.56926
 C1869 C 0.71848 0.71690 0.55272
 C1870 C 0.69217 0.71809 0.55600
 H1871 H 0.66018 0.70667 0.57707
 H1872 H 0.73329 0.68133 0.60198
 H1873 H 0.75332 0.70199 0.56730
 H1874 H 0.68052 0.72848 0.54338
 C1875 C 0.68014 0.20868 0.07485
 C1876 C 0.69440 0.19505 0.09191
 C1877 C 0.72079 0.19374 0.08874
 C1878 C 0.73253 0.20557 0.06903
 C1879 C 0.71828 0.21944 0.05230
 C1880 C 0.69198 0.22096 0.05543
 H1881 H 0.65975 0.20972 0.07630
 H1882 H 0.73252 0.18394 0.10172
 H1883 H 0.75289 0.20433 0.06720
 H1884 H 0.68053 0.23138 0.04266
 C1885 C 0.17807 0.70802 0.07439
 C1886 C 0.19184 0.69299 0.09061
 C1887 C 0.21813 0.69074 0.08714
 C1888 C 0.23029 0.70315 0.06803
 C1889 C 0.21656 0.71851 0.05223
 C1890 C 0.19034 0.72082 0.05557
 H1891 H 0.15776 0.70984 0.07612
 H1892 H 0.22951 0.67982 0.09952
 H1893 H 0.25058 0.70123 0.06602
 H1894 H 0.17926 0.73238 0.04350
 C1895 C 0.22118 0.18857 0.58599
 C1896 C 0.19486 0.19024 0.58953
 C1897 C 0.18065 0.20481 0.57326
 C1898 C 0.19251 0.21793 0.55447
 C1899 C 0.21880 0.21642 0.55118
 C1900 C 0.23298 0.20134 0.56689
 H1901 H 0.23284 0.17792 0.59837
 H1902 H 0.16030 0.20611 0.57503
 H1903 H 0.18109 0.22922 0.54243
 H1904 H 0.25331 0.19998 0.56486
   
