data_POSCAR
  _audit_creation_date              2014-09-24
  _audit_creation_method            'ToBaCCo'
  _symmetry_space_group_name_H-M    'P1'
  _symmetry_Int_Tables_number       1
  _symmetry_cell_setting            triclinic
  loop_
  _symmetry_equiv_pos_as_xyz
 x,y,z
_cell_length_a 53.7843
_cell_length_b 53.8982
_cell_length_c 53.6739
_cell_angle_alpha 89.310600
_cell_angle_beta 89.351300
_cell_angle_gamma 89.381000
loop_
  _atom_site_label
  _atom_site_type_symbol
  _atom_site_fract_x
  _atom_site_fract_y
  _atom_site_fract_z
C1 C 0.11275 -0.00053 0.22575
 C2 C 0.12893 0.02248 0.22696
 C3 C 0.14367 0.02302 0.24733
 C4 C 0.14105 0.00033 0.26484
 C5 C 0.13087 -0.02252 0.22737
 C6 C 0.14564 -0.02213 0.24784
 C7 C 0.09812 -0.00104 0.25044
 C8 C 0.11301 -0.00063 0.27089
 H9 H 0.12802 0.03762 0.21341
 H10 H 0.15321 0.00075 0.28143
 H11 H 0.13103 -0.03778 0.21430
 H12 H 0.07797 -0.00193 0.25165
 C13 C 0.39010 0.00061 0.73114
 C14 C 0.37247 -0.02141 0.73212
 C15 C 0.35754 -0.02193 0.75276
 C16 C 0.36158 -0.00007 0.77064
 C17 C 0.37322 0.02355 0.73327
 C18 C 0.35834 0.02335 0.75403
 C19 C 0.40388 -0.00059 0.75427
 C20 C 0.38813 -0.00091 0.77601
 H21 H 0.37269 -0.03606 0.71836
 H22 H 0.34923 -0.00045 0.78739
 H23 H 0.37449 0.03948 0.72071
 H24 H 0.42402 0.00047 0.75514
 C25 C 0.88751 0.49869 0.22721
 C26 C 0.86987 0.47677 0.22854
 C27 C 0.85497 0.47652 0.24914
 C28 C 0.85894 0.49853 0.26677
 C29 C 0.87087 0.52174 0.22926
 C30 C 0.85603 0.52182 0.25001
 C31 C 0.90200 0.49758 0.25166
 C32 C 0.88698 0.49758 0.27238
 H33 H 0.87005 0.46195 0.21497
 H34 H 0.84663 0.49839 0.28353
 H35 H 0.87236 0.53762 0.21667
 H36 H 0.92216 0.49808 0.25253
 C37 C 0.61298 0.50026 0.72629
 C38 C 0.62955 0.52301 0.72727
 C39 C 0.64463 0.52328 0.74741
 C40 C 0.64194 0.50059 0.76491
 C41 C 0.63079 0.47798 0.72757
 C42 C 0.64589 0.47809 0.74780
 C43 C 0.59876 0.49990 0.75121
 C44 C 0.61398 0.50004 0.77141
 H45 H 0.62853 0.53826 0.71386
 H46 H 0.65438 0.50077 0.78130
 H47 H 0.63043 0.46273 0.71452
 H48 H 0.57862 0.49923 0.75275
 C49 C 0.22619 0.11162 0.99960
 C50 C 0.22685 0.12827 1.02236
 C51 C 0.24717 0.14300 1.02305
 C52 C 0.26516 0.13991 1.00076
 C53 C 0.22832 0.12923 0.97715
 C54 C 0.24874 0.14398 0.97771
 C55 C 0.25082 0.09704 1.00000
 C56 C 0.27119 0.11192 1.00057
 H57 H 0.21304 0.12760 1.03730
 H58 H 0.28170 0.15206 1.00130
 H59 H 0.21563 0.12907 0.96154
 H60 H 0.25205 0.07692 0.99946
 C61 C 0.72844 0.38600 0.99791
 C62 C 0.72993 0.36902 0.97713
 C63 C 0.75178 0.35369 0.97729
 C64 C 0.76817 0.35820 0.99846
 C65 C 0.73028 0.37057 1.02024
 C66 C 0.75223 0.35526 1.02069
 C67 C 0.75135 0.40028 0.99679
 C68 C 0.77336 0.38486 0.99712
 H69 H 0.71681 0.36912 0.96183
 H70 H 0.78508 0.34610 0.99863
 H71 H 0.71772 0.37220 1.03620
 H72 H 0.75191 0.42044 0.99698
 C73 C 0.22906 0.89120 0.49837
 C74 C 0.23115 0.87357 0.47643
 C75 C 0.25204 0.85916 0.47654
 C76 C 0.26919 0.86359 0.49892
 C77 C 0.23116 0.87467 0.52161
 C78 C 0.25219 0.86034 0.52207
 C79 C 0.25316 0.90623 0.49760
 C80 C 0.27419 0.89170 0.49797
 H81 H 0.21777 0.87330 0.46141
 H82 H 0.28618 0.85169 0.49909
 H83 H 0.21827 0.87580 0.53731
 H84 H 0.25357 0.92637 0.49794
 C85 C 0.72494 0.61180 0.50129
 C86 C 0.72576 0.62839 0.52409
 C87 C 0.74616 0.64301 0.52473
 C88 C 0.76405 0.63988 0.50240
 C89 C 0.72708 0.62947 0.47888
 C90 C 0.74757 0.64411 0.47944
 C91 C 0.74948 0.59709 0.50158
 C92 C 0.76993 0.61186 0.50213
 H93 H 0.71196 0.62781 0.53905
 H94 H 0.78067 0.65193 0.50291
 H95 H 0.71425 0.62954 0.46338
 H96 H 0.75060 0.57696 0.50106
 C97 C -0.00073 0.22442 0.11164
 C98 C 0.02172 0.22531 0.12871
 C99 C 0.02226 0.24581 0.14317
 C100 C 0.00009 0.26375 0.13942
 C101 C -0.02340 0.22685 0.12893
 C102 C -0.02302 0.24746 0.14342
 C103 C -0.00005 0.24877 0.09660
 C104 C 0.00034 0.26934 0.11121
 H105 H 0.03667 0.21156 0.12839
 H106 H 0.00048 0.28044 0.15135
 H107 H -0.03898 0.21419 0.12875
 H108 H -0.00032 0.24970 0.07638
 C109 C -0.00174 0.72901 0.38808
 C110 C -0.02253 0.73039 0.37128
 C111 C -0.02253 0.75190 0.35562
 C112 C -0.00153 0.76835 0.35946
 C113 C 0.02155 0.73092 0.37153
 C114 C 0.02181 0.75160 0.35662
 C115 C -0.00251 0.75338 0.40269
 C116 C -0.00231 0.77405 0.38759
 H117 H -0.03771 0.71720 0.37165
 H118 H -0.00147 0.78506 0.34710
 H119 H 0.03733 0.71824 0.37302
 H120 H -0.00192 0.75422 0.42288
 C121 C 0.49875 0.22731 0.88962
 C122 C 0.47656 0.22932 0.87229
 C123 C 0.47671 0.24987 0.85740
 C124 C 0.49932 0.26679 0.86108
 C125 C 0.52166 0.22878 0.87258
 C126 C 0.52211 0.24949 0.85777
 C127 C 0.49859 0.25162 0.90421
 C128 C 0.49897 0.27230 0.88920
 H129 H 0.46143 0.21609 0.87249
 H130 H 0.49946 0.28353 0.84879
 H131 H 0.53726 0.21585 0.87383
 H132 H 0.49944 0.25239 0.92440
 C133 C 0.49993 0.72780 0.61202
 C134 C 0.52236 0.72822 0.62915
 C135 C 0.52320 0.74862 0.64373
 C136 C 0.50136 0.76695 0.64002
 C137 C 0.47727 0.73054 0.62928
 C138 C 0.47797 0.75104 0.64387
 C139 C 0.50106 0.75224 0.59710
 C140 C 0.50177 0.77271 0.61185
 H141 H 0.53705 0.71420 0.62884
 H142 H 0.50200 0.78356 0.65206
 H143 H 0.46150 0.71810 0.62907
 H144 H 0.50086 0.75328 0.57688
 C145 C 0.88803 1.00248 0.77404
 C146 C 0.87112 1.02352 0.77216
 C147 C 0.85510 1.02250 0.75113
 C148 C 0.85881 1.00054 0.73580
 C149 C 0.87159 0.97952 0.77412
 C150 C 0.85632 0.97840 0.75414
 C151 C 0.90216 1.00170 0.74904
 C152 C 0.88677 1.00069 0.72897
 H153 H 0.87179 1.03947 0.78435
 H154 H 0.84624 0.99962 0.71953
 H155 H 0.87270 0.96487 0.78819
 H156 H 0.92229 1.00222 0.74734
 C157 C 0.38854 0.50177 0.27447
 C158 C 0.37073 0.52391 0.27168
 C159 C 0.35588 0.52258 0.25133
 C160 C 0.36007 0.49914 0.23561
 C161 C 0.37200 0.47894 0.27462
 C162 C 0.35717 0.47748 0.25437
 C163 C 0.40307 0.50070 0.24977
 C164 C 0.38811 0.49934 0.22945
 H165 H 0.37072 0.53979 0.28398
 H166 H 0.34786 0.49798 0.21912
 H167 H 0.37284 0.46450 0.28892
 H168 H 0.42323 0.50131 0.24844
 C169 C 0.61249 1.00208 0.27235
 C170 C 0.62829 0.97837 0.27005
 C171 C 0.64276 0.97784 0.24900
 C172 C 0.64025 1.00129 0.23231
 C173 C 0.62983 1.02233 0.27070
 C174 C 0.64503 1.02201 0.24883
 C175 C 0.59746 1.00339 0.24818
 C176 C 0.61208 1.00287 0.22714
 H177 H 0.62673 0.96267 0.28286
 H178 H 0.65223 1.00099 0.21530
 H179 H 0.63012 1.03744 0.28395
 H180 H 0.57727 1.00317 0.24772
 C181 C 0.11119 0.50201 0.76957
 C182 C 0.12809 0.47906 0.76817
 C183 C 0.14303 0.47863 0.74749
 C184 C 0.13996 0.50145 0.73015
 C185 C 0.12863 0.52408 0.76776
 C186 C 0.14365 0.52392 0.74723
 C187 C 0.09683 0.50233 0.74505
 C188 C 0.11194 0.50195 0.72440
 H189 H 0.12675 0.46350 0.78117
 H190 H 0.15233 0.50130 0.71342
 H191 H 0.12848 0.53908 0.78113
 H192 H 0.07668 0.50157 0.74411
 C193 C 0.77429 0.89028 0.00323
 C194 C 0.77153 0.87264 0.02560
 C195 C 0.75131 0.85769 0.02427
 C196 C 0.73571 0.86161 0.00063
 C197 C 0.77463 0.87362 -0.01955
 C198 C 0.75452 0.85869 -0.02098
 C199 C 0.74957 0.90462 0.00193
 C200 C 0.72940 0.88954 0.00060
 H201 H 0.78372 0.87282 0.04161
 H202 H 0.71933 0.84930 -0.00052
 H203 H 0.78893 0.87446 -0.03402
 H204 H 0.74811 0.92473 0.00252
 C205 C 0.27302 0.39086 0.50170
 C206 C 0.27103 0.37251 0.52357
 C207 C 0.25103 0.35728 0.52223
 C208 C 0.23483 0.36167 0.49908
 C209 C 0.27311 0.37491 0.47840
 C210 C 0.25321 0.35969 0.47698
 C211 C 0.24807 0.40484 0.50139
 C212 C 0.22809 0.38950 0.50006
 H213 H 0.28356 0.37242 0.53932
 H214 H 0.21860 0.34916 0.49791
 H215 H 0.28726 0.37615 0.46383
 H216 H 0.24632 0.42489 0.50254
 C217 C 0.27070 0.60658 0.00014
 C218 C 0.26914 0.62405 -0.02245
 C219 C 0.24857 0.63903 -0.02238
 C220 C 0.23142 0.63542 0.00060
 C221 C 0.26912 0.62340 0.02275
 C222 C 0.24870 0.63846 0.02315
 C223 C 0.24615 0.59231 0.00030
 C224 C 0.22556 0.60745 0.00046
 H225 H 0.28205 0.62316 -0.03815
 H226 H 0.21478 0.64781 0.00089
 H227 H 0.28269 0.62294 0.03762
 H228 H 0.24514 0.57223 -0.00082
 C229 C 0.77129 0.11145 0.49948
 C230 C 0.76970 0.12771 0.47771
 C231 C 0.74811 0.14355 0.47795
 C232 C 0.73225 0.14021 0.50018
 C233 C 0.77035 0.12770 0.52087
 C234 C 0.74889 0.14356 0.52139
 C235 C 0.74804 0.09772 0.50023
 C236 C 0.72641 0.11367 0.50058
 H237 H 0.78202 0.12621 0.46156
 H238 H 0.71563 0.15270 0.50057
 H239 H 0.78376 0.12696 0.53592
 H240 H 0.74698 0.07763 0.49913
 C241 C 1.00196 0.77280 0.89050
 C242 C 1.02393 0.77089 0.87226
 C243 C 1.02276 0.75098 0.85691
 C244 C 0.99962 0.73478 0.86107
 C245 C 0.97886 0.77290 0.87427
 C246 C 0.97755 0.75311 0.85894
 C247 C 1.00156 0.74783 0.90449
 C248 C 1.00037 0.72794 0.88901
 H249 H 1.03967 0.78337 0.87239
 H250 H 0.99856 0.71865 0.84844
 H251 H 0.96426 0.78696 0.87550
 H252 H 1.00258 0.74602 0.92463
 C253 C 0.50059 0.27615 0.39019
 C254 C 0.52255 0.27414 0.37192
 C255 C 0.52152 0.25392 0.35692
 C256 C 0.49855 0.23757 0.36145
 C257 C 0.47745 0.27573 0.37402
 C258 C 0.47631 0.25565 0.35904
 C259 C 0.50048 0.25142 0.40459
 C260 C 0.49946 0.23124 0.38950
 H261 H 0.53817 0.28676 0.37179
 H262 H 0.49761 0.22119 0.34913
 H263 H 0.46278 0.28976 0.37491
 H264 H 0.50169 0.24997 0.42475
 C265 C 1.00101 0.27116 0.60932
 C266 C 0.97775 0.26894 0.62580
 C267 C 0.97743 0.24799 0.64029
 C268 C 1.00063 0.23122 0.63721
 C269 C 1.02283 0.26932 0.62715
 C270 C 1.02276 0.24852 0.64172
 C271 C 1.00203 0.24708 0.59435
 C272 C 1.00174 0.22617 0.60902
 H273 H 0.96200 0.28169 0.62457
 H274 H 1.00055 0.21428 0.64922
 H275 H 1.03768 0.28284 0.62752
 H276 H 1.00159 0.24660 0.57413
 C277 C 0.50080 0.76945 0.11009
 C278 C 0.47775 0.76703 0.12682
 C279 C 0.47794 0.74629 0.14160
 C280 C 0.50144 0.72991 0.13855
 C281 C 0.52281 0.76830 0.12773
 C282 C 0.52329 0.74771 0.14258
 C283 C 0.50215 0.74520 0.09546
 C284 C 0.50240 0.72448 0.11041
 H285 H 0.46174 0.77944 0.12551
 H286 H 0.50179 0.71314 0.15079
 H287 H 0.53740 0.78211 0.12774
 H288 H 0.50154 0.74443 0.07526
 O289 O -0.01496 0.92910 0.98869
 O290 O -0.00311 0.92848 1.02953
 O291 O -0.06954 0.98884 0.98558
 O292 O -0.07119 1.02925 0.99172
 O293 O -0.01028 0.98407 0.92912
 O294 O 0.03229 0.99404 0.92901
 O295 O -0.00372 1.05407 1.04719
 O296 O -0.04237 1.03736 1.05048
 O297 O 0.04768 0.99509 1.05498
 O298 O 0.05402 0.95518 1.03509
 O299 O 0.05621 1.04588 0.99535
 O300 O 0.03674 1.05284 0.95603
 O301 O 0.01651 1.06849 1.01248
 O302 O 0.00492 1.06858 0.96710
 O303 O 0.07075 1.01132 1.01537
 O304 O 0.07056 0.96670 1.00380
 O305 O 0.01342 1.01579 1.06937
 O306 O -0.02915 0.99869 1.06874
 O307 O 0.00612 0.94307 0.95427
 O308 O 0.04554 0.96332 0.94831
 O309 O -0.04483 1.00433 0.94339
 O310 O -0.04819 1.04511 0.96424
 O311 O -0.05524 0.95376 1.00493
 O312 O -0.03476 0.95137 1.04589
 Zr313 Zr -0.01742 0.96056 1.01129
 O314 O 0.00526 0.98151 1.03454
 Zr315 Zr -0.03784 1.01091 0.98119
 O316 O -0.01679 1.03395 1.00394
 Zr317 Zr 0.01242 0.98099 0.96065
 O318 O 0.03584 1.00339 0.98177
 Zr319 Zr -0.01056 1.01696 1.03873
 O320 O -0.03465 0.99532 1.01722
 Zr321 Zr 0.03995 0.98769 1.01750
 O322 O 0.01844 0.96397 0.99550
 Zr323 Zr 0.01882 1.03809 0.98815
 O324 O -0.00309 1.01685 0.96393
 O325 O -0.02286 0.97568 0.97584
 O326 O 0.02482 1.02292 1.02351
 C327 C -0.00432 0.92596 0.96743
 C328 C -0.07256 0.96731 0.99549
 C329 C -0.03167 0.99431 0.92610
 C330 C 0.00682 1.07123 1.03427
 C331 C 0.03502 1.00594 1.07214
 C332 C 0.07345 1.03302 1.00578
 H333 H 0.00681 0.97284 1.05080
 H334 H 0.05194 1.00503 0.97289
 H335 H -0.03348 0.96521 0.96539
 H336 H -0.02565 1.05000 1.00584
 H337 H -0.05699 1.02713 1.04665
 H338 H -0.06779 1.03782 1.00747
 H339 H 0.07668 0.97492 0.98837
 H340 H 0.05061 0.95167 0.96176
 H341 H -0.02855 1.00952 1.08353
 H342 H -0.04470 0.93612 1.04388
 H343 H 0.04830 1.03995 0.94967
 H344 H 0.02684 1.01144 0.92623
 H345 H 0.01451 0.92677 1.02427
 H346 H 0.04181 0.94999 1.04800
 H347 H -0.03599 1.04837 0.95067
 H348 H -0.00995 1.07518 0.97590
 O349 O 0.48278 0.43157 0.49027
 O350 O 0.49438 0.43087 0.53128
 O351 O 0.42835 0.49141 0.48694
 O352 O 0.42675 0.53181 0.49341
 O353 O 0.48787 0.48661 0.43094
 O354 O 0.53047 0.49659 0.43105
 O355 O 0.49404 0.55649 0.54912
 O356 O 0.45533 0.53982 0.55223
 O357 O 0.54525 0.49728 0.55704
 O358 O 0.55152 0.45738 0.53722
 O359 O 0.55422 0.54807 0.49755
 O360 O 0.53485 0.55515 0.45809
 O361 O 0.51455 0.57083 0.51453
 O362 O 0.50320 0.57112 0.46920
 O363 O 0.56854 0.51341 0.51756
 O364 O 0.56819 0.46880 0.50595
 O365 O 0.51101 0.51808 0.57134
 O366 O 0.46837 0.50111 0.57050
 O367 O 0.50402 0.44563 0.45599
 O368 O 0.54354 0.46574 0.45032
 O369 O 0.45330 0.50698 0.44503
 O370 O 0.44992 0.54771 0.46594
 O371 O 0.44247 0.45626 0.50629
 O372 O 0.46263 0.45378 0.54743
 Zr373 Zr 0.48024 0.46299 0.51298
 O374 O 0.50284 0.48385 0.53640
 Zr375 Zr 0.46010 0.51347 0.48290
 O376 O 0.48113 0.53641 0.50579
 Zr377 Zr 0.51041 0.48347 0.46255
 O378 O 0.53378 0.50574 0.48383
 Zr379 Zr 0.48714 0.51936 0.54060
 O380 O 0.46310 0.49781 0.51891
 Zr381 Zr 0.53764 0.48993 0.51955
 O382 O 0.51619 0.46633 0.49738
 Zr383 Zr 0.51683 0.54046 0.49018
 O384 O 0.49496 0.51935 0.46581
 O385 O 0.47505 0.47822 0.47755
 O386 O 0.52261 0.52521 0.52554
 C387 C 0.49348 0.42850 0.46902
 C388 C 0.42525 0.46983 0.49672
 C389 C 0.46652 0.49689 0.42781
 C390 C 0.50475 0.57361 0.53626
 C391 C 0.53259 0.50816 0.57417
 C392 C 0.57137 0.53510 0.50800
 H393 H 0.50429 0.47515 0.55266
 H394 H 0.54993 0.50732 0.47502
 H395 H 0.46447 0.46780 0.46701
 H396 H 0.47231 0.55249 0.50767
 H397 H 0.44070 0.52963 0.54828
 H398 H 0.43020 0.54054 0.50906
 H399 H 0.57445 0.47703 0.49058
 H400 H 0.54848 0.45399 0.46374
 H401 H 0.46896 0.51192 0.58531
 H402 H 0.45269 0.43856 0.54532
 H403 H 0.54655 0.54230 0.45187
 H404 H 0.52498 0.51398 0.42823
 H405 H 0.51201 0.42907 0.52604
 H406 H 0.53920 0.45219 0.55002
 H407 H 0.46224 0.55100 0.45249
 H408 H 0.48820 0.57764 0.47784
 O409 O 0.44939 -0.04850 0.49895
 O410 O 0.46914 -0.05288 0.46081
 O411 O 0.50985 -0.05090 0.55133
 O412 O 0.54475 -0.03014 0.55766
 O413 O 0.45327 0.00645 0.55718
 O414 O 0.44503 0.04373 0.53503
 O415 O 0.57076 0.01849 0.48401
 O416 O 0.57443 -0.02104 0.49963
 O417 O 0.51338 0.01691 0.43068
 O418 O 0.47051 0.00326 0.43087
 O419 O 0.51314 0.07258 0.48503
 O420 O 0.50129 0.07444 0.52879
 O421 O 0.55348 0.05252 0.50248
 O422 O 0.53130 0.05815 0.54335
 O423 O 0.49454 0.05577 0.45143
 O424 O 0.45484 0.03226 0.44803
 O425 O 0.54940 0.00068 0.44607
 O426 O 0.55240 -0.04056 0.46677
 O427 O 0.43184 -0.01419 0.51671
 O428 O 0.42899 0.02873 0.50374
 O429 O 0.48894 -0.01050 0.57265
 O430 O 0.53169 0.00518 0.57062
 O431 O 0.49065 -0.06784 0.51808
 O432 O 0.50660 -0.06707 0.47451
 Zr433 Zr 0.48653 -0.03813 0.49252
 O434 O 0.50723 -0.01583 0.46758
 Zr435 Zr 0.51304 -0.01310 0.54168
 O436 O 0.53541 0.00960 0.51869
 Zr437 Zr 0.46104 0.01162 0.51897
 O438 O 0.48119 0.03598 0.49551
 Zr439 Zr 0.54124 -0.00681 0.48382
 O440 O 0.52159 -0.03122 0.50806
 Zr441 Zr 0.48916 0.01838 0.46162
 O442 O 0.46683 -0.00508 0.48419
 Zr443 Zr 0.51630 0.04289 0.51068
 O444 O 0.49472 0.02117 0.53586
 O445 O 0.47881 -0.02192 0.52678
 O446 O 0.52375 0.02714 0.47610
 C447 C 0.43079 -0.03628 0.50797
 C448 C 0.50063 -0.06925 0.53967
 C449 C 0.46672 -0.00195 0.57506
 C450 C 0.57181 0.04066 0.49246
 C451 C 0.53594 0.00931 0.42832
 C452 C 0.50404 0.07395 0.46306
 H453 H 0.50987 -0.02498 0.45189
 H454 H 0.47143 0.05143 0.49308
 H455 H 0.46878 -0.03272 0.53795
 H456 H 0.55138 0.01247 0.52707
 H457 H 0.57003 -0.03677 0.50825
 H458 H 0.55921 -0.02522 0.54727
 H459 H 0.44999 0.04683 0.45809
 H460 H 0.42669 0.02140 0.48711
 H461 H 0.56869 -0.03788 0.45836
 H462 H 0.49779 -0.08294 0.47743
 H463 H 0.48454 0.07765 0.52198
 H464 H 0.45820 0.05132 0.54508
 H465 H 0.45803 -0.03970 0.45413
 H466 H 0.47869 -0.01273 0.42684
 H467 H 0.52217 0.02059 0.57413
 H468 H 0.54629 0.04832 0.54776
 O469 O -0.05010 0.50116 1.05326
 O470 O -0.05733 0.53814 1.03305
 O471 O -0.05372 0.44722 0.99402
 O472 O -0.03335 0.43893 0.95874
 O473 O 0.00629 0.44435 1.04790
 O474 O 0.04377 0.46684 1.05168
 O475 O 0.00942 0.51294 0.92671
 O476 O -0.02958 0.49668 0.92671
 O477 O 0.01012 0.56786 0.98156
 O478 O -0.00220 0.56968 1.02530
 O479 O 0.06740 0.51459 0.98093
 O480 O 0.07148 0.47188 0.99284
 O481 O 0.04537 0.49628 0.94199
 O482 O 0.05375 0.45595 0.96490
 O483 O 0.05023 0.54836 0.99976
 O484 O 0.02746 0.55319 1.04041
 O485 O -0.00790 0.55104 0.94761
 O486 O -0.04893 0.53010 0.94914
 O487 O -0.01401 0.48495 1.06877
 O488 O 0.02844 0.49845 1.06798
 O489 O -0.01187 0.42724 1.01418
 O490 O 0.00267 0.42792 0.96992
 O491 O -0.07111 0.48053 1.01355
 O492 O -0.07258 0.52374 0.99681
 Zr493 Zr -0.04206 0.50654 1.01519
 O494 O -0.02181 0.53115 0.99210
 Zr495 Zr -0.01625 0.45699 0.98868
 O496 O 0.00423 0.47960 0.96384
 Zr497 Zr 0.01015 0.48194 1.03782
 O498 O 0.03247 0.50501 1.01514
 Zr499 Zr -0.01399 0.51382 0.95811
 O500 O -0.03625 0.48984 0.98028
 Zr501 Zr 0.01316 0.53822 1.00729
 O502 O -0.00828 0.51609 1.03205
 Zr503 Zr 0.03823 0.48880 0.98008
 O504 O 0.01874 0.46402 1.00414
 O505 O -0.02406 0.47300 1.02289
 O506 O 0.02066 0.52266 0.97262
 C507 C -0.03640 0.49315 1.07115
 C508 C -0.07220 0.45884 1.00396
 C509 C -0.00244 0.42592 1.03603
 C510 C 0.03194 0.50523 0.92431
 C511 C 0.00142 0.56922 0.95942
 C512 C 0.06855 0.53660 0.98971
 H513 H -0.03162 0.54657 0.98951
 H514 H 0.04829 0.50793 1.02378
 H515 H -0.03411 0.46216 1.03400
 H516 H 0.00656 0.47077 0.94794
 H517 H -0.04478 0.48816 0.93268
 H518 H -0.03117 0.44978 0.94392
 H519 H 0.04258 0.54356 1.04482
 H520 H 0.02043 0.51486 1.07051
 H521 H -0.04746 0.53791 0.93237
 H522 H -0.08799 0.52063 1.00665
 H523 H 0.07433 0.47786 1.00990
 H524 H 0.05039 0.45558 1.03871
 H525 H -0.04353 0.54605 1.04191
 H526 H -0.01869 0.57315 1.01800
 H527 H 0.01830 0.42467 0.97902
 H528 H 0.04348 0.45118 0.95060
 O529 O -0.05402 0.55064 0.50734
 O530 O -0.03297 0.55275 0.54471
 O531 O 0.00325 0.55577 0.45136
 O532 O 0.03736 0.53527 0.43986
 O533 O -0.05250 0.49756 0.44745
 O534 O -0.05819 0.45950 0.46905
 O535 O 0.06944 0.48427 0.51064
 O536 O 0.07127 0.52427 0.49551
 O537 O 0.01631 0.48283 0.56793
 O538 O -0.02679 0.49568 0.57237
 O539 O 0.01325 0.42951 0.51063
 O540 O -0.00039 0.42981 0.46801
 O541 O 0.05219 0.45078 0.49221
 O542 O 0.02847 0.44721 0.45221
 O543 O -0.00332 0.44452 0.54668
 O544 O -0.04301 0.46770 0.55512
 O545 O 0.05040 0.50085 0.55027
 O546 O 0.05052 0.54275 0.53072
 O547 O -0.07158 0.51687 0.48968
 O548 O -0.07258 0.47356 0.50219
 O549 O -0.01866 0.51590 0.42963
 O550 O 0.02497 0.50051 0.42746
 O551 O -0.01412 0.57100 0.48701
 O552 O 0.00338 0.56835 0.52918
 Zr553 Zr -0.01652 0.54004 0.51109
 O554 O 0.00641 0.51709 0.53321
 Zr555 Zr 0.00753 0.51751 0.45852
 O556 O 0.03211 0.49434 0.47860
 Zr557 Zr -0.04205 0.49127 0.48464
 O558 O -0.01967 0.46628 0.50517
 Zr559 Zr 0.03950 0.50935 0.51362
 O560 O 0.01761 0.53430 0.49216
 Zr561 Zr -0.01006 0.48239 0.53916
 O562 O -0.03458 0.50645 0.51961
 Zr563 Zr 0.01455 0.46055 0.48666
 O564 O -0.00933 0.48286 0.46439
 O565 O -0.02581 0.52529 0.47677
 O566 O 0.02369 0.47484 0.52126
 C567 C -0.07264 0.53875 0.49893
 C568 C -0.00533 0.57350 0.46483
 C569 C -0.04065 0.50692 0.42878
 C570 C 0.07056 0.46233 0.50163
 C571 C 0.03862 0.49102 0.56873
 C572 C 0.00548 0.42697 0.53315
 H573 H 0.00976 0.52560 0.54902
 H574 H -0.02884 0.45064 0.50764
 H575 H -0.03661 0.53650 0.46681
 H576 H 0.04767 0.49204 0.46888
 H577 H 0.06599 0.54029 0.48794
 H578 H 0.05247 0.53136 0.44951
 H579 H -0.04849 0.45398 0.54448
 H580 H -0.07426 0.48075 0.51902
 H581 H 0.06740 0.54012 0.53758
 H582 H -0.00624 0.58413 0.52799
 H583 H -0.01678 0.42625 0.47571
 H584 H -0.04577 0.45268 0.45715
 H585 H -0.04355 0.53919 0.55126
 H586 H -0.01951 0.51203 0.57586
 H587 H 0.01551 0.48532 0.42394
 H588 H 0.04331 0.45699 0.44758
 O589 O 0.51309 0.92788 0.01190
 O590 O 0.49818 0.92859 -0.02818
 O591 O 0.57017 0.98328 0.01076
 O592 O 0.57320 1.02359 0.00160
 O593 O 0.51563 0.98265 0.07066
 O594 O 0.47343 0.99529 0.07381
 O595 O 0.50231 1.05404 -0.04777
 O596 O 0.53998 1.03502 -0.05390
 O597 O 0.44821 0.99799 -0.05058
 O598 O 0.44196 0.95846 -0.02906
 O599 O 0.44669 1.04937 0.00810
 O600 O 0.46949 1.05380 0.04655
 O601 O 0.48571 1.06927 -0.01172
 O602 O 0.50058 1.06835 0.03228
 O603 O 0.42928 1.01603 -0.01025
 O604 O 0.42815 0.97130 0.00299
 O605 O 0.48195 1.01693 -0.06793
 O606 O 0.52387 0.99738 -0.07036
 O607 O 0.49561 0.94281 0.04771
 O608 O 0.45761 0.96531 0.05635
 O609 O 0.54973 1.00098 0.05336
 O610 O 0.55345 1.04122 0.03132
 O611 O 0.55296 0.94950 -0.00707
 O612 O 0.52996 0.94969 -0.04687
 Zr613 Zr 0.51523 0.95934 -0.01137
 O614 O 0.49162 0.98191 -0.03317
 Zr615 Zr 0.54007 1.00796 0.01601
 O616 O 0.51814 1.03255 -0.00537
 Zr617 Zr 0.49027 0.98116 0.04108
 O618 O 0.46610 1.00516 0.02139
 Zr619 Zr 0.50846 1.01640 -0.03929
 O620 O 0.53337 0.99301 -0.01936
 Zr621 Zr 0.45861 0.99010 -0.01361
 O622 O 0.48085 0.96488 0.00711
 Zr623 Zr 0.48405 1.03876 0.01310
 O624 O 0.50703 1.01597 0.03584
 O625 O 0.52394 0.97378 0.02324
 O626 O 0.47471 1.02436 -0.02139
 C627 C 0.50428 0.92520 0.03406
 C628 C 0.57145 0.96147 0.00146
 C629 C 0.53762 0.99158 0.07184
 C630 C 0.49355 1.07167 -0.03428
 C631 C 0.45983 1.00831 -0.06889
 C632 C 0.42826 1.03796 -0.00124
 H633 H 0.48846 0.97349 -0.04907
 H634 H 0.45076 1.00779 0.03136
 H635 H 0.53477 0.96258 0.03319
 H636 H 0.52743 1.04806 -0.00825
 H637 H 0.55447 1.02390 -0.05102
 H638 H 0.56848 1.03389 -0.01299
 H639 H 0.42334 0.98017 0.01836
 H640 H 0.45078 0.95452 0.04335
 H641 H 0.52247 1.00840 -0.08522
 H642 H 0.53915 0.93368 -0.04535
 H643 H 0.45679 1.04225 0.05313
 H644 H 0.47971 1.01236 0.07566
 H645 H 0.48110 0.92763 -0.02121
 H646 H 0.45278 0.95269 -0.04289
 H647 H 0.54222 1.04552 0.04540
 H648 H 0.51531 1.07374 0.02252
 O649 O 0.42955 0.50882 0.01328
 O650 O 0.43040 0.46880 -0.00143
 O651 O 0.48455 0.50801 0.07097
 O652 O 0.52488 0.49873 0.07440
 O653 O 0.48454 0.56730 0.01596
 O654 O 0.49756 0.57026 -0.02618
 O655 O 0.55603 0.44914 0.00373
 O656 O 0.53670 0.44338 0.04147
 O657 O 0.50030 0.44625 -0.05078
 O658 O 0.46089 0.46764 -0.05757
 O659 O 0.55192 0.50476 -0.05224
 O660 O 0.55634 0.54299 -0.02942
 O661 O 0.57154 0.48493 -0.01296
 O662 O 0.57057 0.52884 0.00191
 O663 O 0.51866 0.48640 -0.06986
 O664 O 0.47385 0.49956 -0.07136
 O665 O 0.51882 0.42906 -0.01668
 O666 O 0.49902 0.42693 0.02522
 O667 O 0.44473 0.54439 -0.00431
 O668 O 0.46774 0.55272 -0.04229
 O669 O 0.50264 0.55026 0.05037
 O670 O 0.54285 0.52827 0.05458
 O671 O 0.45083 0.49018 0.05353
 O672 O 0.45121 0.45039 0.03074
 Zr673 Zr 0.46105 0.48565 0.01583
 O674 O 0.48387 0.46383 -0.00751
 Zr675 Zr 0.50961 0.51298 0.04099
 O676 O 0.53444 0.49155 0.01935
 Zr677 Zr 0.48323 0.53772 -0.00929
 O678 O 0.50752 0.51799 -0.03317
 Zr679 Zr 0.51827 0.45775 0.00968
 O680 O 0.49463 0.47774 0.03433
 Zr681 Zr 0.49242 0.48313 -0.04064
 O682 O 0.46695 0.50386 -0.01869
 Zr683 Zr 0.54103 0.50976 -0.01487
 O684 O 0.51798 0.53253 0.00781
 O685 O 0.47552 0.52014 0.02448
 O686 O 0.52659 0.47540 -0.02419
 C687 C 0.42697 0.53086 0.00430
 C688 C 0.46265 0.49880 0.07212
 C689 C 0.49332 0.56859 0.03805
 C690 C 0.57382 0.46245 -0.00505
 C691 C 0.51039 0.42803 -0.03892
 C692 C 0.54062 0.49543 -0.07077
 H693 H 0.47541 0.44799 -0.01066
 H694 H 0.51032 0.52786 -0.04856
 H695 H 0.46422 0.53013 0.03517
 H696 H 0.54990 0.48868 0.02878
 H697 H 0.52546 0.44633 0.05590
 H698 H 0.53536 0.48428 0.06983
 H699 H 0.48281 0.51484 -0.07619
 H700 H 0.45683 0.53982 -0.04906
 H701 H 0.51005 0.41211 0.02401
 H702 H 0.43509 0.45196 0.03980
 H703 H 0.54483 0.54961 -0.04217
 H704 H 0.51463 0.57211 -0.01979
 H705 H 0.42956 0.47569 -0.01858
 H706 H 0.45488 0.45404 -0.04661
 H707 H 0.54733 0.54218 0.04324
 H708 H 0.57590 0.51908 0.01668
 O709 O -0.01826 0.06917 0.51465
 O710 O -0.00387 0.07248 0.47430
 O711 O -0.07289 0.01052 0.51070
 O712 O -0.07369 -0.02941 0.50110
 O713 O -0.01815 0.01061 0.56979
 O714 O 0.02447 -0.00148 0.57136
 O715 O -0.00287 -0.05155 0.44731
 O716 O -0.04117 -0.03327 0.44346
 O717 O 0.04944 0.00632 0.44652
 O718 O 0.05354 0.04509 0.46922
 O719 O 0.05392 -0.04824 0.50230
 O720 O 0.03214 -0.05792 0.53976
 O721 O 0.01532 -0.06882 0.48163
 O722 O 0.00060 -0.07176 0.52665
 O723 O 0.06949 -0.01247 0.48584
 O724 O 0.06797 0.03118 0.50060
 O725 O 0.01642 -0.01273 0.42914
 O726 O -0.02618 0.00593 0.42857
 O727 O 0.00050 0.05219 0.54883
 O728 O 0.03934 0.03040 0.55519
 O729 O -0.05152 -0.00796 0.55253
 O730 O -0.05259 -0.04750 0.52901
 O731 O -0.05750 0.04671 0.49493
 O732 O -0.03435 0.05151 0.45497
 Zr733 Zr -0.01922 0.03951 0.48951
 O734 O 0.00516 0.01981 0.46575
 Zr735 Zr -0.04140 -0.01250 0.51480
 O736 O -0.01862 -0.03425 0.49136
 Zr737 Zr 0.00715 0.01470 0.53986
 O738 O 0.03216 -0.00652 0.51815
 Zr739 Zr -0.01009 -0.01491 0.45821
 O740 O -0.03577 0.00562 0.48019
 Zr741 Zr 0.03865 0.01170 0.48390
 O742 O 0.01551 0.03413 0.50667
 Zr743 Zr 0.01592 -0.04033 0.50837
 O744 O -0.00784 -0.02049 0.53315
 O745 O -0.02696 0.02190 0.52339
 O746 O 0.02419 -0.02268 0.47460
 C747 C -0.00912 0.07049 0.53661
 C748 C -0.07537 0.03290 0.50263
 C749 C -0.03989 0.00107 0.57104
 C750 C 0.00698 -0.06983 0.45930
 C751 C 0.03830 -0.00351 0.42814
 C752 C 0.07177 -0.03490 0.49372
 H753 H 0.00786 0.02950 0.45021
 H754 H 0.04764 -0.00912 0.52762
 H755 H -0.03830 0.03192 0.53400
 H756 H -0.02724 -0.04991 0.48788
 H757 H -0.05595 -0.02287 0.44741
 H758 H -0.06892 -0.03719 0.48514
 H759 H 0.07317 0.02170 0.51559
 H760 H 0.04537 0.04292 0.54297
 H761 H -0.02433 -0.00385 0.41312
 H762 H -0.04450 0.06674 0.45770
 H763 H 0.04202 -0.04533 0.54837
 H764 H 0.01812 -0.01862 0.57288
 H765 H 0.01344 0.07327 0.48025
 H766 H 0.04248 0.05106 0.45577
 H767 H -0.04145 -0.05172 0.54304
 H768 H -0.01350 -0.07749 0.51662
 O769 O 0.72547 0.23443 0.31761
 O770 O 0.73575 0.27581 0.31965
 O771 O 0.67790 0.23077 0.25372
 O772 O 0.68003 0.24083 0.21347
 O773 O 0.73864 0.17757 0.26145
 O774 O 0.78210 0.17970 0.25594
 O775 O 0.74863 0.29861 0.19438
 O776 O 0.70809 0.29978 0.20750
 O777 O 0.79220 0.30585 0.25899
 O778 O 0.79499 0.28378 0.29871
 O779 O 0.80866 0.24931 0.20710
 O780 O 0.79127 0.20870 0.19857
 O781 O 0.77130 0.26515 0.18131
 O782 O 0.76179 0.22009 0.17932
 O783 O 0.81863 0.26849 0.24310
 O784 O 0.81451 0.25430 0.28730
 O785 O 0.76002 0.31985 0.23530
 O786 O 0.71574 0.31664 0.24777
 O787 O 0.74901 0.20135 0.30497
 O788 O 0.79079 0.19799 0.28834
 O789 O 0.70601 0.19141 0.23828
 O790 O 0.70560 0.21420 0.19832
 O791 O 0.68772 0.24953 0.29004
 O792 O 0.70561 0.29136 0.29421
 Zr793 Zr 0.72563 0.25816 0.28625
 O794 O 0.74955 0.28307 0.26766
 Zr795 Zr 0.71184 0.22977 0.23372
 O796 O 0.73456 0.25414 0.21289
 Zr797 Zr 0.75947 0.20975 0.26769
 O798 O 0.78444 0.23269 0.24773
 Zr799 Zr 0.73766 0.28836 0.23084
 O800 O 0.71209 0.26511 0.25009
 Zr801 Zr 0.78545 0.26775 0.26434
 O802 O 0.76230 0.24396 0.28576
 Zr803 Zr 0.77105 0.23993 0.21167
 O804 O 0.74777 0.21418 0.23055
 O805 O 0.72328 0.22334 0.27008
 O806 O 0.77404 0.27471 0.22789
 C807 C 0.73625 0.21337 0.32140
 C808 C 0.67232 0.23940 0.27529
 C809 C 0.71873 0.17417 0.24902
 C810 C 0.76144 0.28673 0.17794
 C811 C 0.78012 0.32305 0.24746
 C812 C 0.82397 0.26020 0.22136
 H813 H 0.74943 0.29889 0.27682
 H814 H 0.80101 0.22462 0.24730
 H815 H 0.71214 0.21190 0.27935
 H816 H 0.72753 0.25642 0.19607
 H817 H 0.69250 0.29490 0.21616
 H818 H 0.68457 0.25595 0.20394
 H819 H 0.82200 0.23955 0.27925
 H820 H 0.79414 0.21127 0.30038
 H821 H 0.71697 0.33187 0.23729
 H822 H 0.69440 0.28834 0.30873
 H823 H 0.80313 0.20360 0.21166
 H824 H 0.77920 0.17789 0.23788
 H825 H 0.75301 0.27050 0.32332
 H826 H 0.78182 0.29597 0.30307
 H827 H 0.71906 0.20187 0.19539
 H828 H 0.74693 0.22812 0.17194
 O829 O 0.70322 0.69554 0.75745
 O830 O 0.69860 0.71384 0.79542
 O831 O 0.69445 0.75754 0.70554
 O832 O 0.71345 0.79245 0.69594
 O833 O 0.75619 0.70425 0.69627
 O834 O 0.79434 0.69828 0.71657
 O835 O 0.76089 0.82125 0.76748
 O836 O 0.72103 0.82201 0.75461
 O837 O 0.76584 0.76330 0.82166
 O838 O 0.75593 0.72000 0.82296
 O839 O 0.82001 0.76698 0.76362
 O840 O 0.82135 0.75758 0.72070
 O841 O 0.79568 0.80690 0.74748
 O842 O 0.80160 0.78537 0.70632
 O843 O 0.80577 0.74667 0.79824
 O844 O 0.78439 0.70602 0.80384
 O845 O 0.74608 0.79795 0.80699
 O846 O 0.70422 0.79789 0.78834
 O847 O 0.73829 0.68087 0.73815
 O848 O 0.78165 0.68107 0.74860
 O849 O 0.73593 0.73853 0.68144
 O850 O 0.74863 0.78251 0.68248
 O851 O 0.67997 0.73648 0.73963
 O852 O 0.68144 0.75045 0.78320
 Zr853 Zr 0.71099 0.73317 0.76308
 O854 O 0.73249 0.75504 0.78664
 Zr855 Zr 0.73252 0.76202 0.71233
 O856 O 0.75402 0.78571 0.73397
 Zr857 Zr 0.76162 0.71187 0.73409
 O858 O 0.78512 0.73347 0.75595
 Zr859 Zr 0.73833 0.78978 0.76968
 O860 O 0.71486 0.76876 0.74687
 Zr861 Zr 0.76821 0.73965 0.79081
 O862 O 0.74570 0.71598 0.76973
 Zr863 Zr 0.78895 0.76917 0.74022
 O864 O 0.76822 0.74629 0.71642
 O865 O 0.72651 0.72708 0.72790
 O866 O 0.77392 0.77503 0.77569
 C867 C 0.71670 0.67806 0.74820
 C868 C 0.67704 0.74743 0.71851
 C869 C 0.74644 0.71725 0.67871
 C870 C 0.78251 0.82416 0.75759
 C871 C 0.75621 0.78498 0.82436
 C872 C 0.82298 0.75699 0.78519
 H873 H 0.72367 0.75672 0.80281
 H874 H 0.80130 0.72473 0.75742
 H875 H 0.71597 0.71659 0.71739
 H876 H 0.75528 0.80192 0.72525
 H877 H 0.70546 0.81655 0.74679
 H878 H 0.71539 0.80658 0.70729
 H879 H 0.79878 0.70207 0.79289
 H880 H 0.77484 0.67775 0.76551
 H881 H 0.70578 0.81415 0.79660
 H882 H 0.66606 0.74070 0.78116
 H883 H 0.82489 0.74021 0.72577
 H884 H 0.80057 0.71188 0.70572
 H885 H 0.71300 0.70414 0.80172
 H886 H 0.73905 0.72618 0.82725
 H887 H 0.76428 0.77386 0.67777
 H888 H 0.79093 0.80001 0.70269
 O889 O 0.23008 0.25411 0.67877
 O890 O 0.24485 0.21381 0.68247
 O891 O 0.17799 0.26164 0.73969
 O892 O 0.17795 0.25968 0.78089
 O893 O 0.23515 0.31816 0.72613
 O894 O 0.27807 0.31971 0.73442
 O895 O 0.24926 0.20820 0.80993
 O896 O 0.20965 0.20324 0.79550
 O897 O 0.29845 0.19549 0.75084
 O898 O 0.30318 0.21067 0.70879
 O899 O 0.30633 0.26060 0.79327
 O900 O 0.28428 0.29981 0.79591
 O901 O 0.26877 0.24416 0.81942
 O902 O 0.25456 0.28851 0.81522
 O903 O 0.32061 0.23737 0.76092
 O904 O 0.31785 0.24388 0.71462
 O905 O 0.26514 0.18281 0.77404
 O906 O 0.22206 0.18133 0.75849
 O907 O 0.25024 0.28981 0.68794
 O908 O 0.29075 0.29753 0.70540
 O909 O 0.20162 0.30567 0.74909
 O910 O 0.20037 0.28902 0.79248
 O911 O 0.19201 0.23888 0.70684
 O912 O 0.21455 0.19882 0.70836
 Zr913 Zr 0.23042 0.23438 0.71286
 O914 O 0.25473 0.21388 0.73591
 Zr915 Zr 0.21026 0.26889 0.76016
 O916 O 0.23308 0.24905 0.78524
 Zr917 Zr 0.25882 0.28690 0.72607
 O918 O 0.28384 0.26868 0.75021
 Zr919 Zr 0.24021 0.21305 0.77233
 O920 O 0.21456 0.23173 0.74891
 Zr921 Zr 0.28900 0.23179 0.73886
 O922 O 0.26580 0.25082 0.71316
 Zr923 Zr 0.26821 0.26563 0.78621
 O924 O 0.24456 0.28704 0.76278
 O925 O 0.22397 0.27083 0.72391
 O926 O 0.27518 0.22923 0.77520
 C927 C 0.23928 0.27530 0.67285
 C928 C 0.17468 0.24940 0.71964
 C929 C 0.21390 0.32196 0.73653
 C930 C 0.26036 0.22254 0.82502
 C931 C 0.28665 0.17935 0.76409
 C932 C 0.32368 0.24940 0.78112
 H933 H 0.25668 0.19693 0.72927
 H934 H 0.29957 0.27799 0.75010
 H935 H 0.21246 0.27995 0.71272
 H936 H 0.22494 0.24850 0.80184
 H937 H 0.19452 0.20566 0.78537
 H938 H 0.18243 0.24532 0.79161
 H939 H 0.32372 0.26002 0.72070
 H940 H 0.29541 0.28330 0.69478
 H941 H 0.22339 0.16786 0.77117
 H942 H 0.20428 0.19905 0.69311
 H943 H 0.29598 0.30452 0.78236
 H944 H 0.27294 0.32432 0.75153
 H945 H 0.26193 0.21979 0.67921
 H946 H 0.29043 0.19840 0.70449
 H947 H 0.21245 0.30265 0.79384
 H948 H 0.24012 0.28019 0.82308
 O949 O 0.20959 0.81049 0.24850
 O950 O 0.20330 0.79454 0.20914
 O951 O 0.19540 0.74955 0.29831
 O952 O 0.21010 0.71160 0.30570
 O953 O 0.26297 0.79337 0.30625
 O954 O 0.30112 0.79495 0.28388
 O955 O 0.25390 0.67918 0.23019
 O956 O 0.21444 0.68254 0.24635
 O957 O 0.26332 0.73720 0.17855
 O958 O 0.25819 0.78184 0.17916
 O959 O 0.31785 0.72482 0.23448
 O960 O 0.32046 0.73339 0.27820
 O961 O 0.29020 0.68850 0.24930
 O962 O 0.29853 0.70660 0.29147
 O963 O 0.30531 0.74736 0.20071
 O964 O 0.28901 0.79083 0.19697
 O965 O 0.23985 0.70518 0.19319
 O966 O 0.19889 0.70995 0.21426
 O967 O 0.24620 0.82011 0.26693
 O968 O 0.28885 0.81512 0.25296
 O969 O 0.23923 0.76163 0.32109
 O970 O 0.24680 0.71625 0.31812
 O971 O 0.18278 0.77288 0.26504
 O972 O 0.18182 0.76007 0.22124
 Zr973 Zr 0.21354 0.77260 0.24048
 O974 O 0.23194 0.74878 0.21537
 Zr975 Zr 0.23249 0.73964 0.28961
 O976 O 0.25087 0.71395 0.26632
 Zr977 Zr 0.26656 0.78637 0.26789
 O978 O 0.28708 0.76254 0.24434
 Zr979 Zr 0.23422 0.71305 0.23116
 O980 O 0.21366 0.73629 0.25559
 Zr981 Zr 0.26901 0.75954 0.20999
 O982 O 0.24972 0.78540 0.23277
 Zr983 Zr 0.28718 0.72619 0.25903
 O984 O 0.26958 0.75081 0.28437
 O985 O 0.23024 0.77544 0.27514
 O986 O 0.27097 0.72341 0.22408
 C987 C 0.22456 0.82577 0.25848
 C988 C 0.17907 0.76229 0.28625
 C989 C 0.25201 0.78138 0.32393
 C990 C 0.27557 0.67348 0.23844
 C991 C 0.25123 0.71702 0.17568
 C992 C 0.32144 0.73444 0.21281
 H993 H 0.22265 0.74874 0.19957
 H994 H 0.30409 0.76906 0.24236
 H995 H 0.22117 0.78675 0.28655
 H996 H 0.25065 0.69733 0.27432
 H997 H 0.19965 0.68952 0.25501
 H998 H 0.21106 0.69731 0.29434
 H999 H 0.30353 0.79283 0.20787
 H1000 H 0.28176 0.81971 0.23658
 H1001 H 0.19840 0.69382 0.20558
 H1002 H 0.16792 0.77205 0.22383
 H1003 H 0.32665 0.74964 0.27221
 H1004 H 0.30593 0.78042 0.29427
 H1005 H 0.21840 0.80337 0.20340
 H1006 H 0.24065 0.77806 0.17557
 H1007 H 0.26355 0.72243 0.32210
 H1008 H 0.28645 0.69321 0.29479
 O1009 O 0.24040 0.67925 0.76218
 O1010 O 0.28239 0.68091 0.75492
 O1011 O 0.22846 0.73582 0.81865
 O1012 O 0.23307 0.77645 0.82198
 O1013 O 0.17978 0.73158 0.75443
 O1014 O 0.18389 0.74529 0.71245
 O1015 O 0.29456 0.80725 0.76177
 O1016 O 0.29426 0.78767 0.79965
 O1017 O 0.31059 0.75200 0.70845
 O1018 O 0.29359 0.71121 0.69947
 O1019 O 0.25087 0.80046 0.69590
 O1020 O 0.20989 0.80537 0.71132
 O1021 O 0.26215 0.82158 0.73845
 O1022 O 0.21543 0.81877 0.74533
 O1023 O 0.27344 0.76725 0.68232
 O1024 O 0.26385 0.72227 0.68033
 O1025 O 0.32014 0.77140 0.74448
 O1026 O 0.31579 0.75101 0.78611
 O1027 O 0.20827 0.69331 0.73829
 O1028 O 0.20589 0.71612 0.69944
 O1029 O 0.18918 0.75057 0.79071
 O1030 O 0.20740 0.79230 0.79694
 O1031 O 0.25044 0.70211 0.80520
 O1032 O 0.29381 0.70259 0.78874
 Zr1033 Zr 0.26124 0.71142 0.76832
 O1034 O 0.28614 0.73460 0.74862
 Zr1035 Zr 0.22707 0.75950 0.78729
 O1036 O 0.25118 0.78459 0.76924
 Zr1037 Zr 0.21367 0.73186 0.73436
 O1038 O 0.23651 0.75638 0.71381
 Zr1039 Zr 0.28711 0.76930 0.76587
 O1040 O 0.26379 0.74543 0.78708
 Zr1041 Zr 0.27303 0.74220 0.71265
 O1042 O 0.24963 0.71647 0.73118
 Zr1043 Zr 0.23959 0.79035 0.73236
 O1044 O 0.21379 0.76695 0.75121
 O1045 O 0.22493 0.72498 0.77072
 O1046 O 0.27589 0.77677 0.72937
 C1047 C 0.22071 0.67599 0.74932
 C1048 C 0.23847 0.71434 0.82198
 C1049 C 0.17400 0.74014 0.77596
 C1050 C 0.28236 0.82461 0.75060
 C1051 C 0.32566 0.76318 0.72274
 C1052 C 0.26357 0.78881 0.67926
 H1053 H 0.30284 0.72673 0.74827
 H1054 H 0.22953 0.75862 0.69697
 H1055 H 0.21386 0.71339 0.77990
 H1056 H 0.25132 0.80014 0.77882
 H1057 H 0.28924 0.77620 0.81331
 H1058 H 0.24869 0.78583 0.82025
 H1059 H 0.24899 0.73028 0.67292
 H1060 H 0.22018 0.70517 0.69522
 H1061 H 0.32999 0.76251 0.78726
 H1062 H 0.29118 0.68680 0.79807
 H1063 H 0.20416 0.79217 0.70018
 H1064 H 0.17949 0.76194 0.71886
 H1065 H 0.27981 0.68038 0.73671
 H1066 H 0.30564 0.70630 0.71246
 H1067 H 0.19501 0.79546 0.78374
 H1068 H 0.22223 0.82503 0.76108
 O1069 O 0.19425 0.25561 0.20314
 O1070 O 0.21248 0.29346 0.19822
 O1071 O 0.25652 0.20409 0.19496
 O1072 O 0.29146 0.19480 0.21417
 O1073 O 0.20296 0.19511 0.25682
 O1074 O 0.19683 0.21570 0.29485
 O1075 O 0.31996 0.26669 0.26117
 O1076 O 0.32094 0.25343 0.22135
 O1077 O 0.26177 0.32040 0.26538
 O1078 O 0.21825 0.32128 0.25523
 O1079 O 0.26550 0.26310 0.32019
 O1080 O 0.25603 0.22024 0.32191
 O1081 O 0.30550 0.24698 0.29615
 O1082 O 0.28412 0.20595 0.30241
 O1083 O 0.24517 0.29740 0.30554
 O1084 O 0.20447 0.30266 0.28419
 O1085 O 0.29660 0.30575 0.24581
 O1086 O 0.29671 0.28675 0.20405
 O1087 O 0.17946 0.23662 0.23840
 O1088 O 0.17947 0.24736 0.28172
 O1089 O 0.23742 0.18032 0.23674
 O1090 O 0.28147 0.18170 0.24953
 O1091 O 0.23536 0.23784 0.18012
 O1092 O 0.24924 0.28126 0.18119
 Zr1093 Zr 0.23190 0.26143 0.21096
 O1094 O 0.25369 0.28518 0.23231
 Zr1095 Zr 0.26088 0.21118 0.23305
 O1096 O 0.28449 0.23303 0.25445
 Zr1097 Zr 0.21046 0.23288 0.26190
 O1098 O 0.23197 0.25499 0.28527
 Zr1099 Zr 0.28853 0.26848 0.23841
 O1100 O 0.26759 0.24545 0.21507
 Zr1101 Zr 0.23814 0.28958 0.26800
 O1102 O 0.21455 0.26827 0.24564
 Zr1103 Zr 0.26777 0.23949 0.28933
 O1104 O 0.24499 0.21549 0.26875
 O1105 O 0.22584 0.22649 0.22681
 O1106 O 0.27360 0.27471 0.27395
 C1107 C 0.17670 0.24645 0.21667
 C1108 C 0.24641 0.21683 0.17739
 C1109 C 0.21608 0.17757 0.24726
 C1110 C 0.32280 0.25707 0.28295
 C1111 C 0.28353 0.32310 0.25577
 C1112 C 0.25553 0.28461 0.32291
 H1113 H 0.25536 0.30121 0.22331
 H1114 H 0.22318 0.25658 0.30145
 H1115 H 0.21538 0.21588 0.21633
 H1116 H 0.30076 0.22443 0.25585
 H1117 H 0.31555 0.24547 0.20580
 H1118 H 0.30558 0.20618 0.21602
 H1119 H 0.20044 0.29177 0.29861
 H1120 H 0.17623 0.26419 0.27483
 H1121 H 0.31298 0.29507 0.20557
 H1122 H 0.23950 0.27908 0.16578
 H1123 H 0.23869 0.22545 0.32550
 H1124 H 0.21049 0.20501 0.30122
 H1125 H 0.20270 0.29981 0.21255
 H1126 H 0.22471 0.32562 0.23844
 H1127 H 0.27277 0.17710 0.26525
 H1128 H 0.29880 0.20228 0.29176
 O1129 O 0.79952 0.69572 0.25096
 O1130 O 0.80189 0.70990 0.21054
 O1131 O 0.80736 0.76316 0.29384
 O1132 O 0.78671 0.79848 0.29959
 O1133 O 0.74946 0.70931 0.31218
 O1134 O 0.70987 0.70137 0.29497
 O1135 O 0.73562 0.81818 0.22685
 O1136 O 0.77619 0.82097 0.23822
 O1137 O 0.73028 0.75543 0.18105
 O1138 O 0.74347 0.71246 0.18440
 O1139 O 0.67909 0.76336 0.24006
 O1140 O 0.67990 0.75844 0.28408
 O1141 O 0.70202 0.80522 0.24958
 O1142 O 0.69872 0.78841 0.29372
 O1143 O 0.69307 0.73976 0.20785
 O1144 O 0.71654 0.69934 0.20665
 O1145 O 0.74897 0.79172 0.19063
 O1146 O 0.79219 0.79405 0.20653
 O1147 O 0.76578 0.68252 0.27334
 O1148 O 0.72207 0.68069 0.26468
 O1149 O 0.76870 0.74528 0.32184
 O1150 O 0.75257 0.78845 0.31612
 O1151 O 0.82156 0.73882 0.26223
 O1152 O 0.81773 0.74802 0.21708
 Zr1153 Zr 0.78982 0.73236 0.24054
 O1154 O 0.76637 0.75117 0.21521
 Zr1155 Zr 0.76881 0.76588 0.28818
 O1156 O 0.74528 0.78663 0.26456
 Zr1157 Zr 0.74126 0.71323 0.27416
 O1158 O 0.71591 0.73176 0.25062
 Zr1159 Zr 0.75951 0.78723 0.22799
 O1160 O 0.78485 0.76929 0.25231
 Zr1161 Zr 0.73125 0.73463 0.21454
 O1162 O 0.75565 0.71386 0.23760
 Zr1163 Zr 0.71091 0.76877 0.26184
 O1164 O 0.73367 0.74907 0.28761
 O1165 O 0.77585 0.72977 0.27678
 O1166 O 0.72448 0.77113 0.22540
 C1167 C 0.78723 0.67912 0.26313
 C1168 C 0.82476 0.75194 0.28173
 C1169 C 0.75991 0.72387 0.32750
 C1170 C 0.71402 0.82154 0.23669
 C1171 C 0.73816 0.77722 0.17551
 C1172 C 0.67584 0.75115 0.21998
 H1173 H 0.77436 0.75151 0.19853
 H1174 H 0.70013 0.72254 0.25092
 H1175 H 0.78740 0.72069 0.28796
 H1176 H 0.74352 0.80363 0.27111
 H1177 H 0.79237 0.81654 0.24578
 H1178 H 0.78322 0.81131 0.28677
 H1179 H 0.70264 0.69626 0.21847
 H1180 H 0.72843 0.67566 0.24810
 H1181 H 0.78936 0.80931 0.19641
 H1182 H 0.83365 0.73897 0.21983
 H1183 H 0.67724 0.74052 0.28157
 H1184 H 0.70416 0.71577 0.30487
 H1185 H 0.78756 0.69963 0.20590
 H1186 H 0.75959 0.71900 0.17840
 H1187 H 0.73771 0.77966 0.32254
 H1188 H 0.70897 0.80346 0.29500
 O1189 O 0.69595 0.24901 0.79923
 O1190 O 0.71022 0.20885 0.80186
 O1191 O 0.76337 0.29210 0.80623
 O1192 O 0.79869 0.29762 0.78523
 O1193 O 0.70904 0.30964 0.74836
 O1194 O 0.70089 0.29207 0.70891
 O1195 O 0.81823 0.22492 0.73446
 O1196 O 0.82130 0.23658 0.77493
 O1197 O 0.75550 0.17896 0.73003
 O1198 O 0.71247 0.18226 0.74347
 O1199 O 0.76286 0.23737 0.67807
 O1200 O 0.75772 0.28137 0.67872
 O1201 O 0.80495 0.24723 0.70070
 O1202 O 0.78808 0.29096 0.69697
 O1203 O 0.73940 0.20529 0.69249
 O1204 O 0.69909 0.20414 0.71641
 O1205 O 0.79194 0.18879 0.74845
 O1206 O 0.79449 0.20506 0.79152
 O1207 O 0.68242 0.27099 0.76532
 O1208 O 0.68025 0.26197 0.72168
 O1209 O 0.74519 0.31955 0.76728
 O1210 O 0.78836 0.31387 0.75094
 O1211 O 0.73924 0.26057 0.82091
 O1212 O 0.74857 0.21558 0.81733
 Zr1213 Zr 0.73260 0.23868 0.78931
 O1214 O 0.75132 0.21332 0.76587
 Zr1215 Zr 0.76591 0.28608 0.76761
 O1216 O 0.78656 0.26242 0.74405
 Zr1217 Zr 0.71301 0.27169 0.74050
 O1218 O 0.73144 0.24807 0.71516
 Zr1219 Zr 0.78738 0.22611 0.75862
 O1220 O 0.76955 0.25048 0.78395
 Zr1221 Zr 0.73454 0.21225 0.73079
 O1222 O 0.71386 0.23538 0.75522
 Zr1223 Zr 0.76844 0.25935 0.70976
 O1224 O 0.74885 0.28514 0.73252
 O1225 O 0.72981 0.27465 0.77501
 O1226 O 0.77103 0.22317 0.72364
 C1227 C 0.67920 0.26099 0.78694
 C1228 C 0.75230 0.28013 0.82388
 C1229 C 0.72367 0.32506 0.75857
 C1230 C 0.82142 0.23457 0.71271
 C1231 C 0.77739 0.17356 0.73787
 C1232 C 0.75068 0.21729 0.67502
 H1233 H 0.75176 0.19677 0.77403
 H1234 H 0.72209 0.24820 0.69941
 H1235 H 0.72076 0.28586 0.78654
 H1236 H 0.80356 0.26899 0.74209
 H1237 H 0.81697 0.24423 0.79112
 H1238 H 0.81159 0.28495 0.78158
 H1239 H 0.69585 0.21581 0.70242
 H1240 H 0.67536 0.24545 0.72819
 H1241 H 0.80982 0.19505 0.78870
 H1242 H 0.73963 0.21842 0.83334
 H1243 H 0.73984 0.27847 0.67597
 H1244 H 0.71526 0.30193 0.70300
 H1245 H 0.69990 0.20402 0.78760
 H1246 H 0.71912 0.17648 0.75966
 H1247 H 0.77950 0.32002 0.73599
 H1248 H 0.80306 0.29256 0.70733
 C1249 C 0.09752 0.99959 1.20335
 C1250 C 0.08621 1.00056 1.18415
 C1251 C 0.07419 1.00229 1.16104
 C1252 C 0.06469 1.00389 1.14090
 C1253 C 0.05421 1.00548 1.11703
 C1254 C 0.04547 1.00621 1.09651
 C1255 C 0.59732 0.50069 0.70418
 C1256 C 0.58555 0.50192 0.68527
 C1257 C 0.57295 0.50395 0.66250
 C1258 C 0.56298 0.50577 0.64260
 C1259 C 0.55205 0.50756 0.61894
 C1260 C 0.54307 0.50840 0.59853
 C1261 C 0.40540 0.00074 0.70840
 C1262 C 0.41655 0.00049 0.68884
 C1263 C 0.42826 -0.00009 0.66526
 C1264 C 0.43745 -0.00068 0.64473
 C1265 C 0.44762 -0.00136 0.62045
 C1266 C 0.45621 -0.00178 0.59966
 C1267 C -0.09723 0.49846 1.20448
 C1268 C -0.08610 0.49778 1.18494
 C1269 C -0.07444 0.49663 1.16138
 C1270 C -0.06532 0.49553 1.14086
 C1271 C -0.05526 0.49433 1.11659
 C1272 C -0.04677 0.49356 1.09578
 C1273 C -0.10316 0.49936 0.29716
 C1274 C -0.09446 0.50111 0.31767
 C1275 C -0.08377 0.50320 0.34147
 C1276 C -0.07430 0.50483 0.36164
 C1277 C -0.06284 0.50632 0.38514
 C1278 C -0.05282 0.50702 0.40511
 C1279 C 0.39743 1.00142 -0.20056
 C1280 C 0.40605 1.00358 -0.18005
 C1281 C 0.41661 1.00599 -0.15621
 C1282 C 0.42601 1.00769 -0.13600
 C1283 C 0.43743 1.00901 -0.11246
 C1284 C 0.44749 1.00930 -0.09249
 C1285 C 0.60438 0.49904 -0.20343
 C1286 C 0.59577 0.49816 -0.18262
 C1287 C 0.58506 0.49716 -0.15849
 C1288 C 0.57545 0.49641 -0.13810
 C1289 C 0.56371 0.49574 -0.11444
 C1290 C 0.55333 0.49542 -0.09441
 C1291 C 0.10303 -0.00148 0.29591
 C1292 C 0.09418 -0.00220 0.31663
 C1293 C 0.08325 -0.00298 0.34067
 C1294 C 0.07349 -0.00350 0.36099
 C1295 C 0.06161 -0.00387 0.38459
 C1296 C 0.05113 -0.00390 0.40456
 C1297 C 0.20390 1.09633 0.99954
 C1298 C 0.18485 1.08487 1.00038
 C1299 C 0.16193 1.07261 1.00200
 C1300 C 0.14194 1.06291 1.00353
 C1301 C 0.11822 1.05223 1.00511
 C1302 C 0.09778 1.04342 1.00590
 C1303 C 0.70255 0.59669 0.50128
 C1304 C 0.68338 0.58545 0.50220
 C1305 C 0.66030 0.57352 0.50393
 C1306 C 0.64018 0.56414 0.50557
 C1307 C 0.61631 0.55384 0.50726
 C1308 C 0.59577 0.54529 0.50810
 C1309 C 0.70672 0.40026 -0.00255
 C1310 C 0.68716 0.41138 -0.00319
 C1311 C 0.66362 0.42314 -0.00407
 C1312 C 0.64316 0.43245 -0.00477
 C1313 C 0.61898 0.44285 -0.00535
 C1314 C 0.59830 0.45167 -0.00549
 C1315 C 0.20592 -0.09416 0.49781
 C1316 C 0.18608 -0.08360 0.49701
 C1317 C 0.16222 -0.07254 0.49588
 C1318 C 0.14154 -0.06380 0.49493
 C1319 C 0.11714 -0.05398 0.49403
 C1320 C 0.09632 -0.04552 0.49361
 C1321 C 0.29877 -0.09795 0.49987
 C1322 C 0.31918 -0.08906 0.50167
 C1323 C 0.34299 -0.07836 0.50383
 C1324 C 0.36321 -0.06902 0.50551
 C1325 C 0.38683 -0.05783 0.50710
 C1326 C 0.40693 -0.04810 0.50791
 C1327 C -0.20329 0.39458 0.99861
 C1328 C -0.18291 0.40367 0.99998
 C1329 C -0.15926 0.41485 1.00154
 C1330 C -0.13922 0.42469 1.00270
 C1331 C -0.11583 0.43649 1.00372
 C1332 C -0.09592 0.44667 1.00415
 C1333 C -0.20517 0.60182 0.50186
 C1334 C -0.18450 0.59299 0.50153
 C1335 C -0.16051 0.58218 0.50107
 C1336 C -0.14017 0.57261 0.50062
 C1337 C -0.11652 0.56106 0.50004
 C1338 C -0.09643 0.55097 0.49954
 C1339 C 0.29615 1.10199 0.00021
 C1340 C 0.31683 1.09318 -0.00018
 C1341 C 0.34082 1.08232 -0.00066
 C1342 C 0.36111 1.07264 -0.00101
 C1343 C 0.38468 1.06089 -0.00131
 C1344 C 0.40465 1.05055 -0.00140
 C1345 C -0.00056 1.20194 1.09665
 C1346 C 0.00051 1.18277 1.08542
 C1347 C 0.00240 1.15976 1.07340
 C1348 C 0.00416 1.13973 1.06387
 C1349 C 0.00597 1.11598 1.05334
 C1350 C 0.00689 1.09555 1.04461
 C1351 C 0.49968 0.70530 0.59703
 C1352 C 0.50032 0.68598 0.58601
 C1353 C 0.50166 0.66272 0.57438
 C1354 C 0.50296 0.64248 0.56522
 C1355 C 0.50430 0.61852 0.55509
 C1356 C 0.50495 0.59796 0.54657
 C1357 C -0.00198 0.70634 0.40341
 C1358 C -0.00244 0.68687 0.41461
 C1359 C -0.00316 0.66339 0.42638
 C1360 C -0.00383 0.64295 0.43561
 C1361 C -0.00457 0.61877 0.44581
 C1362 C -0.00504 0.59805 0.45439
 C1363 C 0.49812 1.20460 -0.09519
 C1364 C 0.49718 1.18508 -0.08414
 C1365 C 0.49582 1.16155 -0.07258
 C1366 C 0.49470 1.14107 -0.06351
 C1367 C 0.49367 1.11686 -0.05344
 C1368 C 0.49325 1.09615 -0.04487
 C1369 C 0.50170 0.29689 -0.10094
 C1370 C 0.50416 0.31726 -0.09230
 C1371 C 0.50697 0.34096 -0.08175
 C1372 C 0.50901 0.36107 -0.07240
 C1373 C 0.51069 0.38452 -0.06106
 C1374 C 0.51121 0.40445 -0.05109
 C1375 C -0.00014 -0.20126 0.39740
 C1376 C 0.00188 -0.18081 0.40602
 C1377 C 0.00421 -0.15705 0.41656
 C1378 C 0.00591 -0.13689 0.42591
 C1379 C 0.00732 -0.11340 0.43723
 C1380 C 0.00774 -0.09345 0.44717
 C1381 C 0.50201 -0.20241 0.60169
 C1382 C 0.50207 -0.18171 0.59291
 C1383 C 0.50200 -0.15761 0.58229
 C1384 C 0.50184 -0.13715 0.57295
 C1385 C 0.50152 -0.11333 0.56168
 C1386 C 0.50116 -0.09313 0.55178
 C1387 C 0.00011 0.29410 1.10079
 C1388 C -0.00020 0.31461 1.09159
 C1389 C -0.00066 0.33842 1.08034
 C1390 C -0.00109 0.35860 1.07042
 C1391 C -0.00160 0.38211 1.05854
 C1392 C -0.00201 0.40212 1.04828
 C1393 C 0.75905 0.34356 0.04237
 C1394 C 0.76305 0.33421 0.06253
 C1395 C 0.76558 0.32415 0.08690
 C1396 C 0.76626 0.31594 0.10794
 C1397 C 0.76565 0.30636 0.13264
 C1398 C 0.76417 0.29782 0.15353
 C1399 C 0.25916 0.84740 0.54469
 C1400 C 0.26320 0.83771 0.56465
 C1401 C 0.26609 0.82729 0.58877
 C1402 C 0.26720 0.81879 0.60965
 C1403 C 0.26711 0.80891 0.63420
 C1404 C 0.26601 0.80013 0.65497
 C1405 C 0.75079 0.65775 0.54627
 C1406 C 0.75253 0.66884 0.56548
 C1407 C 0.75256 0.68046 0.58883
 C1408 C 0.75146 0.68947 0.60921
 C1409 C 0.74946 0.69929 0.63335
 C1410 C 0.74777 0.70744 0.65408
 C1411 C 0.25170 0.15769 0.04468
 C1412 C 0.25334 0.16870 0.06396
 C1413 C 0.25324 0.18022 0.08738
 C1414 C 0.25202 0.18917 0.10781
 C1415 C 0.24987 0.19893 0.13199
 C1416 C 0.24801 0.20704 0.15274
 C1417 C 0.25530 0.15952 0.95669
 C1418 C 0.25939 0.17156 0.93806
 C1419 C 0.26259 0.18453 0.91528
 C1420 C 0.26398 0.19466 0.89518
 C1421 C 0.26412 0.20541 0.87108
 C1422 C 0.26304 0.21370 0.85016
 C1423 C 0.75396 0.65999 0.45864
 C1424 C 0.75795 0.67235 0.44021
 C1425 C 0.76108 0.68567 0.41764
 C1426 C 0.76250 0.69602 0.39768
 C1427 C 0.76280 0.70693 0.37366
 C1428 C 0.76200 0.71522 0.35274
 C1429 C 0.25755 0.84347 0.45551
 C1430 C 0.25961 0.83166 0.43661
 C1431 C 0.25977 0.81923 0.41352
 C1432 C 0.25862 0.80961 0.39336
 C1433 C 0.25636 0.79924 0.36939
 C1434 C 0.25423 0.79091 0.34873
 C1435 C 0.75743 0.33959 0.95690
 C1436 C 0.75987 0.32834 0.93766
 C1437 C 0.76028 0.31651 0.91421
 C1438 C 0.75922 0.30734 0.89380
 C1439 C 0.75697 0.29741 0.86959
 C1440 C 0.75475 0.28939 0.84880
 C1441 C 0.83951 0.45530 0.25413
 C1442 C 0.82806 0.43621 0.25570
 C1443 C 0.81620 0.41295 0.25526
 C1444 C 0.80713 0.39266 0.25369
 C1445 C 0.79739 0.36857 0.25115
 C1446 C 0.78946 0.34784 0.24908
 C1447 C 0.34212 0.95675 0.75758
 C1448 C 0.33066 0.93766 0.75912
 C1449 C 0.31874 0.91441 0.75872
 C1450 C 0.30957 0.89415 0.75719
 C1451 C 0.29970 0.87010 0.75466
 C1452 C 0.29170 0.84940 0.75251
 C1453 C 0.16157 0.95706 0.25391
 C1454 C 0.17388 0.93858 0.25754
 C1455 C 0.18707 0.91594 0.26024
 C1456 C 0.19727 0.89595 0.26134
 C1457 C 0.20799 0.87192 0.26138
 C1458 C 0.21611 0.85101 0.26049
 C1459 C 0.66144 0.45692 0.75370
 C1460 C 0.67342 0.43821 0.75727
 C1461 C 0.68627 0.41536 0.75997
 C1462 C 0.69626 0.39525 0.76113
 C1463 C 0.70685 0.37116 0.76128
 C1464 C 0.71500 0.35025 0.76050
 C1465 C 0.65915 0.54492 0.75228
 C1466 C 0.66993 0.56427 0.75413
 C1467 C 0.68112 0.58780 0.75426
 C1468 C 0.68977 0.60831 0.75322
 C1469 C 0.69921 0.63258 0.75126
 C1470 C 0.70709 0.65338 0.74958
 C1471 C 0.15811 0.04470 0.25220
 C1472 C 0.16888 0.06405 0.25400
 C1473 C 0.18012 0.08755 0.25400
 C1474 C 0.18884 0.10802 0.25282
 C1475 C 0.19838 0.13222 0.25068
 C1476 C 0.20636 0.15296 0.24883
 C1477 C 0.34506 0.04557 0.76122
 C1478 C 0.33517 0.06530 0.76536
 C1479 C 0.32466 0.08926 0.76820
 C1480 C 0.31619 0.11004 0.76913
 C1481 C 0.30642 0.13449 0.76866
 C1482 C 0.29778 0.15519 0.76713
 C1483 C 0.84315 0.54426 0.25717
 C1484 C 0.83364 0.56415 0.26140
 C1485 C 0.82357 0.58825 0.26450
 C1486 C 0.81548 0.60916 0.26578
 C1487 C 0.80617 0.63377 0.26592
 C1488 C 0.79791 0.65465 0.26508
 C1489 C 0.95577 0.25421 0.15863
 C1490 C 0.93702 0.25843 0.17042
 C1491 C 0.91413 0.26176 0.18317
 C1492 C 0.89400 0.26329 0.19318
 C1493 C 0.86990 0.26361 0.20392
 C1494 C 0.84903 0.26269 0.21229
 C1495 C 0.45696 0.75794 0.65929
 C1496 C 0.43834 0.76225 0.67126
 C1497 C 0.41559 0.76562 0.68421
 C1498 C 0.39553 0.76711 0.69438
 C1499 C 0.37150 0.76727 0.70525
 C1500 C 0.35067 0.76610 0.71369
 C1501 C 0.45565 0.25519 0.84174
 C1502 C 0.43668 0.25705 0.83006
 C1503 C 0.41350 0.25693 0.81792
 C1504 C 0.39326 0.25558 0.80861
 C1505 C 0.36920 0.25320 0.79861
 C1506 C 0.34849 0.25116 0.79054
 C1507 C 0.95722 0.75718 0.34129
 C1508 C 0.93814 0.75949 0.32983
 C1509 C 0.91487 0.75984 0.31782
 C1510 C 0.89456 0.75877 0.30858
 C1511 C 0.87044 0.75652 0.29869
 C1512 C 0.84966 0.75431 0.29078
 C1513 C 0.04427 0.75845 0.34345
 C1514 C 0.06415 0.76235 0.33366
 C1515 C 0.08823 0.76503 0.32326
 C1516 C 0.10912 0.76594 0.31492
 C1517 C 0.13370 0.76567 0.30536
 C1518 C 0.15458 0.76452 0.29697
 C1519 C 0.54462 0.25616 0.84461
 C1520 C 0.56451 0.26007 0.83482
 C1521 C 0.58856 0.26288 0.82441
 C1522 C 0.60942 0.26398 0.81603
 C1523 C 0.63397 0.26396 0.80639
 C1524 C 0.65479 0.26302 0.79787
 C1525 C 0.54472 0.75298 0.65866
 C1526 C 0.56390 0.75446 0.66988
 C1527 C 0.58720 0.75423 0.68164
 C1528 C 0.60753 0.75294 0.69076
 C1529 C 0.63164 0.75076 0.70066
 C1530 C 0.65236 0.74893 0.70881
 C1531 C 0.04384 0.25064 0.15787
 C1532 C 0.06312 0.25243 0.16885
 C1533 C 0.08657 0.25248 0.18032
 C1534 C 0.10702 0.25138 0.18921
 C1535 C 0.13124 0.24939 0.19890
 C1536 C 0.15201 0.24773 0.20695
 C1537 C -0.09610 1.00287 0.79601
 C1538 C -0.08414 1.00206 0.81481
 C1539 C -0.07134 1.00026 0.83750
 C1540 C -0.06130 0.99840 0.85735
 C1541 C -0.05042 0.99628 0.88102
 C1542 C -0.04166 0.99493 0.90152
 C1543 C 0.40394 0.50263 0.29671
 C1544 C 0.41551 0.50234 0.31575
 C1545 C 0.42786 0.50121 0.33870
 C1546 C 0.43755 0.49990 0.35876
 C1547 C 0.44809 0.49833 0.38261
 C1548 C 0.45664 0.49733 0.40320
 C1549 C 0.59757 0.00290 0.29533
 C1550 C 0.58657 0.00416 0.31493
 C1551 C 0.57491 0.00599 0.33846
 C1552 C 0.56566 0.00753 0.35890
 C1553 C 0.55534 0.00898 0.38307
 C1554 C 0.54660 0.00961 0.40379
 C1555 C 0.09574 0.50258 0.79218
 C1556 C 0.08428 0.50338 0.81155
 C1557 C 0.07208 0.50447 0.83485
 C1558 C 0.06242 0.50530 0.85515
 C1559 C 0.05170 0.50593 0.87919
 C1560 C 0.04273 0.50598 0.89983
 C1561 C 0.10216 0.49932 0.69967
 C1562 C 0.09342 0.49694 0.67925
 C1563 C 0.08260 0.49422 0.65557
 C1564 C 0.07296 0.49225 0.63552
 C1565 C 0.06126 0.49064 0.61215
 C1566 C 0.05102 0.49016 0.59228
 C1567 C 0.60167 1.00065 0.20262
 C1568 C 0.59247 0.99853 0.18237
 C1569 C 0.58125 0.99600 0.15886
 C1570 C 0.57140 0.99406 0.13891
 C1571 C 0.55965 0.99227 0.11558
 C1572 C 0.54956 0.99144 0.09564
 C1573 C 0.39808 0.49886 0.20443
 C1574 C 0.40703 0.49859 0.18375
 C1575 C 0.41813 0.49841 0.15980
 C1576 C 0.42800 0.49836 0.13953
 C1577 C 0.43991 0.49842 0.11596
 C1578 C 0.45025 0.49855 0.09592
 C1579 C -0.10374 0.00050 0.70375
 C1580 C -0.09508 0.00045 0.68293
 C1581 C -0.08423 0.00049 0.65886
 C1582 C -0.07449 0.00058 0.63851
 C1583 C -0.06266 0.00074 0.61489
 C1584 C -0.05233 0.00089 0.59483
 C1585 C -0.20361 0.90577 1.00399
 C1586 C -0.18463 0.91734 1.00346
 C1587 C -0.16172 0.92959 1.00188
 C1588 C -0.14167 0.93912 1.00012
 C1589 C -0.11782 0.94939 0.99796
 C1590 C -0.09720 0.95770 0.99646
 C1591 C 0.29489 0.40667 0.50256
 C1592 C 0.31369 0.41854 0.50229
 C1593 C 0.33641 0.43116 0.50116
 C1594 C 0.35633 0.44101 0.49985
 C1595 C 0.38008 0.45161 0.49827
 C1596 C 0.40064 0.46012 0.49723
 C1597 C 0.29339 0.59125 0.00015
 C1598 C 0.31294 0.58015 0.00057
 C1599 C 0.33656 0.56856 0.00139
 C1600 C 0.35712 0.55951 0.00221
 C1601 C 0.38144 0.54952 0.00317
 C1602 C 0.40228 0.54112 0.00384
 C1603 C -0.20739 0.09662 0.49932
 C1604 C -0.18815 0.08494 0.49956
 C1605 C -0.16494 0.07254 0.50018
 C1606 C -0.14470 0.06279 0.50085
 C1607 C -0.12067 0.05209 0.50166
 C1608 C -0.10000 0.04328 0.50224
 C1609 C 0.70289 0.10452 0.49847
 C1610 C 0.68242 0.09575 0.49655
 C1611 C 0.65873 0.08479 0.49443
 C1612 C 0.63869 0.07501 0.49293
 C1613 C 0.61533 0.06319 0.49178
 C1614 C 0.59546 0.05294 0.49154
 C1615 C 0.20071 0.59784 0.99811
 C1616 C 0.18016 0.58935 0.99595
 C1617 C 0.15626 0.57891 0.99344
 C1618 C 0.13601 0.56966 0.99156
 C1619 C 0.11239 0.55845 0.98992
 C1620 C 0.09233 0.54861 0.98926
 C1621 C 0.20293 0.39889 0.50037
 C1622 C 0.18214 0.40743 0.50073
 C1623 C 0.15809 0.41813 0.50119
 C1624 C 0.13777 0.42775 0.50154
 C1625 C 0.11419 0.43949 0.50181
 C1626 C 0.09421 0.44981 0.50186
 C1627 C 0.70437 0.89923 0.00024
 C1628 C 0.68362 0.90786 0.00012
 C1629 C 0.65955 0.91850 0.00014
 C1630 C 0.63917 0.92797 0.00029
 C1631 C 0.61546 0.93942 0.00060
 C1632 C 0.59532 0.94941 0.00095
 C1633 C 0.00264 0.79472 0.90628
 C1634 C 0.00216 0.81369 0.91786
 C1635 C 0.00077 0.83669 0.92996
 C1636 C -0.00075 0.85682 0.93932
 C1637 C -0.00255 0.88075 0.94943
 C1638 C -0.00372 0.90138 0.95769
 C1639 C 0.50106 0.29824 0.40574
 C1640 C 0.50040 0.31715 0.41742
 C1641 C 0.49880 0.33994 0.42990
 C1642 C 0.49713 0.35985 0.43971
 C1643 C 0.49521 0.38354 0.45039
 C1644 C 0.49400 0.40400 0.45904
 C1645 C 0.00154 0.29406 0.59439
 C1646 C 0.00240 0.31365 0.58342
 C1647 C 0.00365 0.33717 0.57180
 C1648 C 0.00468 0.35761 0.56261
 C1649 C 0.00560 0.38177 0.55237
 C1650 C 0.00591 0.40246 0.54371
 C1651 C 0.50072 0.79217 0.09489
 C1652 C 0.50109 0.81168 0.08376
 C1653 C 0.50186 0.83517 0.07206
 C1654 C 0.50263 0.85563 0.06290
 C1655 C 0.50349 0.87984 0.05280
 C1656 C 0.50404 0.90059 0.04433
 C1657 C 0.50063 0.69985 0.10039
 C1658 C 0.49889 0.67948 0.09154
 C1659 C 0.49677 0.65583 0.08070
 C1660 C 0.49514 0.63577 0.07116
 C1661 C 0.49368 0.61235 0.05972
 C1662 C 0.49305 0.59238 0.04985
 C1663 C -0.00038 0.20171 0.59871
 C1664 C -0.00241 0.18142 0.58976
 C1665 C -0.00483 0.15781 0.57893
 C1666 C -0.00670 0.13774 0.56945
 C1667 C -0.00842 0.11429 0.55813
 C1668 C -0.00922 0.09429 0.54834
 C1669 C 0.50037 0.20623 0.39928
 C1670 C 0.50125 0.18555 0.40807
 C1671 C 0.50230 0.16158 0.41896
 C1672 C 0.50311 0.14130 0.42867
 C1673 C 0.50383 0.11772 0.44042
 C1674 C 0.50414 0.09769 0.45067
 C1675 C 0.00068 0.70273 0.89829
 C1676 C 0.00103 0.68182 0.90654
 C1677 C 0.00145 0.65755 0.91676
 C1678 C 0.00174 0.63701 0.92591
 C1679 C 0.00191 0.61317 0.93713
 C1680 C 0.00184 0.59300 0.94710
 C1681 C 0.24213 0.65316 0.95555
 C1682 C 0.23851 0.66378 0.93598
 C1683 C 0.23603 0.67514 0.91223
 C1684 C 0.23517 0.68424 0.89159
 C1685 C 0.23539 0.69455 0.86722
 C1686 C 0.23642 0.70339 0.84646
 C1687 C 0.74121 0.15583 0.45662
 C1688 C 0.73703 0.16564 0.43672
 C1689 C 0.73416 0.17613 0.41258
 C1690 C 0.73310 0.18458 0.39166
 C1691 C 0.73320 0.19426 0.36700
 C1692 C 0.73419 0.20270 0.34605
 C1693 C 0.24972 0.34495 0.45517
 C1694 C 0.24886 0.33386 0.43588
 C1695 C 0.24963 0.32219 0.41253
 C1696 C 0.25118 0.31307 0.39221
 C1697 C 0.25335 0.30306 0.36813
 C1698 C 0.25486 0.29470 0.34747
 C1699 C 0.75086 0.84410 0.95715
 C1700 C 0.74988 0.83320 0.93776
 C1701 C 0.75057 0.82181 0.91428
 C1702 C 0.75206 0.81295 0.89384
 C1703 C 0.75418 0.80320 0.86967
 C1704 C 0.75563 0.79500 0.84893
 C1705 C 0.74433 0.84180 0.04488
 C1706 C 0.73986 0.82943 0.06320
 C1707 C 0.73626 0.81607 0.08569
 C1708 C 0.73458 0.80564 0.10561
 C1709 C 0.73424 0.79458 0.12957
 C1710 C 0.73531 0.78612 0.15041
 C1711 C 0.24474 0.34074 0.54254
 C1712 C 0.24083 0.32789 0.56066
 C1713 C 0.23779 0.31408 0.58296
 C1714 C 0.23644 0.30340 0.60277
 C1715 C 0.23622 0.29223 0.62668
 C1716 C 0.23709 0.28386 0.64757
 C1717 C 0.74411 0.15768 0.54196
 C1718 C 0.74239 0.16890 0.56128
 C1719 C 0.74271 0.18067 0.58476
 C1720 C 0.74421 0.18980 0.60515
 C1721 C 0.74670 0.19973 0.62934
 C1722 C 0.74883 0.20782 0.65012
 C1723 C 0.24414 0.65423 0.04434
 C1724 C 0.24284 0.66606 0.06329
 C1725 C 0.24346 0.67853 0.08635
 C1726 C 0.24508 0.68821 0.10644
 C1727 C 0.24759 0.69870 0.13034
 C1728 C 0.24963 0.70720 0.15094
 C1729 C 0.15963 0.54474 0.74215
 C1730 C 0.17162 0.56349 0.74041
 C1731 C 0.18412 0.58642 0.74063
 C1732 C 0.19366 0.60650 0.74209
 C1733 C 0.20378 0.63043 0.74467
 C1734 C 0.21175 0.65111 0.74700
 C1735 C 0.65954 0.04200 0.24328
 C1736 C 0.67114 0.06094 0.24094
 C1737 C 0.68321 0.08411 0.24075
 C1738 C 0.69243 0.10436 0.24203
 C1739 C 0.70220 0.12844 0.24451
 C1740 C 0.70994 0.14922 0.24680
 C1741 C 0.84067 0.04247 0.74454
 C1742 C 0.82874 0.06104 0.74007
 C1743 C 0.81580 0.08373 0.73649
 C1744 C 0.80564 0.10373 0.73479
 C1745 C 0.79475 0.12771 0.73434
 C1746 C 0.78634 0.14852 0.73525
 C1747 C 0.33986 0.54308 0.24440
 C1748 C 0.32743 0.56133 0.24008
 C1749 C 0.31403 0.58377 0.23669
 C1750 C 0.30361 0.60364 0.23515
 C1751 C 0.29261 0.62755 0.23487
 C1752 C 0.28425 0.64837 0.23585
 C1753 C 0.34267 0.45560 0.25056
 C1754 C 0.33183 0.43623 0.24950
 C1755 C 0.32046 0.41278 0.25009
 C1756 C 0.31158 0.39239 0.25152
 C1757 C 0.30180 0.36828 0.25361
 C1758 C 0.29357 0.34761 0.25509
 C1759 C 0.84151 0.95670 0.75045
 C1760 C 0.83048 0.93740 0.74961
 C1761 C 0.81899 0.91401 0.75057
 C1762 C 0.81008 0.89364 0.75235
 C1763 C 0.80037 0.86951 0.75484
 C1764 C 0.79228 0.84880 0.75663
 C1765 C 0.65558 0.95533 0.24188
 C1766 C 0.66528 0.93553 0.23760
 C1767 C 0.67578 0.91162 0.23439
 C1768 C 0.68434 0.89089 0.23304
 C1769 C 0.69425 0.86649 0.23296
 C1770 C 0.70296 0.84579 0.23406
 C1771 C 0.15634 0.45623 0.74094
 C1772 C 0.16627 0.43647 0.73709
 C1773 C 0.17685 0.41254 0.73431
 C1774 C 0.18532 0.39177 0.73322
 C1775 C 0.19497 0.36729 0.73329
 C1776 C 0.20335 0.34646 0.73431
 C1777 C 0.04327 0.74475 0.84058
 C1778 C 0.06155 0.74096 0.82794
 C1779 C 0.08402 0.73809 0.81439
 C1780 C 0.10392 0.73689 0.80390
 C1781 C 0.12789 0.73683 0.79289
 C1782 C 0.14877 0.73782 0.78457
 C1783 C 0.54204 0.24747 0.34067
 C1784 C 0.56023 0.24332 0.32800
 C1785 C 0.58255 0.23986 0.31431
 C1786 C 0.60233 0.23806 0.30365
 C1787 C 0.62620 0.23727 0.29242
 C1788 C 0.64705 0.23767 0.28396
 C1789 C 0.54435 0.74317 0.15847
 C1790 C 0.56324 0.74191 0.17037
 C1791 C 0.58626 0.74264 0.18279
 C1792 C 0.60637 0.74442 0.19232
 C1793 C 0.63031 0.74715 0.20251
 C1794 C 0.65098 0.74937 0.21066
 C1795 C 0.04351 0.24328 0.65779
 C1796 C 0.06219 0.24137 0.66992
 C1797 C 0.08506 0.24136 0.68263
 C1798 C 0.10510 0.24264 0.69236
 C1799 C 0.12903 0.24502 0.70264
 C1800 C 0.14974 0.24721 0.71069
 C1801 C 0.95502 0.24082 0.65336
 C1802 C 0.93530 0.23639 0.66325
 C1803 C 0.91144 0.23295 0.67393
 C1804 C 0.89074 0.23139 0.68263
 C1805 C 0.86636 0.23109 0.69268
 C1806 C 0.84566 0.23205 0.70152
 C1807 C 0.45565 0.73892 0.15478
 C1808 C 0.43589 0.73454 0.16462
 C1809 C 0.41191 0.73133 0.17511
 C1810 C 0.39109 0.73008 0.18358
 C1811 C 0.36656 0.73020 0.19331
 C1812 C 0.34576 0.73152 0.20187
 C1813 C 0.45470 0.25186 0.34404
 C1814 C 0.43554 0.25082 0.33273
 C1815 C 0.41231 0.25147 0.32081
 C1816 C 0.39206 0.25294 0.31151
 C1817 C 0.36804 0.25504 0.30135
 C1818 C 0.34740 0.25648 0.29295
 C1819 C 0.95576 0.74964 0.84414
 C1820 C 0.93641 0.74894 0.83313
 C1821 C 0.91297 0.75002 0.82165
 C1822 C 0.89257 0.75186 0.81277
 C1823 C 0.86840 0.75437 0.80307
 C1824 C 0.84765 0.75613 0.79498
   
