data_POSCAR
  _audit_creation_date              2014-09-24
  _audit_creation_method            'ToBaCCo'
  _symmetry_space_group_name_H-M    'P1'
  _symmetry_Int_Tables_number       1
  _symmetry_cell_setting            triclinic
  loop_
  _symmetry_equiv_pos_as_xyz
 x,y,z
_cell_length_a 57.9418
_cell_length_b 58.0847
_cell_length_c 61.5205
_cell_angle_alpha 90.120000
_cell_angle_beta 90.034500
_cell_angle_gamma 90.418300
loop_
  _atom_site_label
  _atom_site_type_symbol
  _atom_site_fract_x
  _atom_site_fract_y
  _atom_site_fract_z
C1 C 0.39635 0.00393 0.25110
 C2 C 0.10414 -0.00194 0.74735
 C3 C 0.60525 0.49446 0.25209
 C4 C 0.89614 0.50269 0.74960
 C5 C 0.25200 0.35523 0.99867
 C6 C 0.75346 0.14586 1.00069
 C7 C 0.25192 0.64379 0.50056
 C8 C 0.75116 0.85570 0.49903
 C9 C 0.00042 0.24675 0.37470
 C10 C 0.00557 0.75017 0.12618
 C11 C 0.50209 0.24652 0.62637
 C12 C 0.49878 0.75221 0.87282
 C13 C -0.24780 0.64533 0.99823
 C14 C -0.25187 0.35451 0.49959
 C15 C 0.24978 -0.14392 0.00073
 C16 C 0.25292 1.14579 0.49756
 C17 C 0.10615 0.50208 0.24834
 C18 C -0.10437 0.99679 0.24840
 C19 C 0.39362 0.50043 -0.24853
 C20 C 0.60649 0.00146 -0.25024
 C21 C -0.00048 0.24985 0.88012
 C22 C 0.49805 0.25800 0.12274
 C23 C -0.00200 0.75603 0.61950
 C24 C 0.50142 0.74549 0.38173
 Zr25 Zr 0.02044 -0.01670 1.02772
 O26 O 0.04174 -0.00254 1.05240
 O27 O 0.02048 -0.05167 1.03541
 O28 O 0.00473 -0.01932 1.05892
 O29 O 0.06414 -0.01882 0.98934
 O30 O -0.03218 -0.00752 1.05269
 O31 O 0.05512 -0.02786 1.02445
 O32 O -0.00225 -0.06813 1.00920
 O33 O -0.01350 -0.02707 1.02057
 O34 O 0.02097 -0.03170 0.99676
 O35 O 0.00069 0.01350 1.02908
 O36 O 0.03454 0.00863 1.00687
 Zr37 Zr -0.02012 0.01356 0.96828
 Zr38 Zr -0.03275 0.00323 1.02026
 Zr39 Zr 0.03325 -0.00638 0.97587
 Zr40 Zr -0.01280 -0.04078 0.98919
 O41 O 0.06029 0.01709 0.96880
 O42 O -0.04325 -0.05687 1.00100
 O43 O -0.00020 -0.01669 0.96664
 O44 O -0.03379 -0.01163 0.98926
 O45 O -0.02086 0.02877 0.99916
 O46 O 0.01380 0.02367 0.97564
 C47 C 0.01078 -0.06902 1.02611
 C48 C 0.06912 -0.02721 1.00810
 C49 C -0.01611 -0.01498 1.06515
 O50 O -0.06144 -0.01882 1.02546
 O51 O -0.06243 0.01888 1.00783
 O52 O -0.05411 0.02664 0.97231
 C53 C -0.06751 0.02725 0.98912
 O54 O 0.03700 0.04483 1.03213
 Zr55 Zr 0.01308 0.03770 1.00675
 O56 O -0.02064 0.04856 0.96070
 O57 O -0.04220 0.03094 1.04073
 O58 O -0.00285 0.06079 1.02878
 O59 O 0.04161 0.05618 0.99381
 O60 O -0.00086 0.06517 0.98885
 C61 C -0.01318 0.06605 0.97147
 O62 O -0.04262 -0.00026 0.94441
 O63 O 0.04458 -0.03491 0.95735
 O64 O -0.00504 0.01406 0.93668
 O65 O 0.03131 0.00045 0.94256
 O66 O 0.00369 -0.06544 0.96914
 O67 O -0.03339 -0.04851 0.96148
 C68 C 0.01524 0.00794 0.93012
 H69 H 0.03088 -0.04546 0.99575
 H70 H -0.04975 -0.01590 0.98501
 H71 H 0.02010 0.03488 0.96505
 H72 H 0.00109 0.02038 1.04381
 H73 H -0.04197 -0.07358 0.99798
 H74 H -0.07162 -0.01099 1.03604
 H75 H -0.05722 0.02678 1.04741
 H76 H 0.00408 0.07624 1.02641
 H77 H -0.00393 -0.08052 0.97175
 H78 H 0.05958 -0.03050 0.95075
 H79 H 0.07061 0.00930 0.95831
 H80 H 0.03940 0.07263 0.99748
 H81 H -0.03868 -0.06474 0.96221
 H82 H -0.04749 0.01275 0.93508
 H83 H 0.04677 -0.01550 1.06171
 H84 H 0.03945 0.06167 1.03334
 Zr85 Zr 0.51957 0.48186 0.53191
 O86 O 0.54094 0.49606 0.55650
 O87 O 0.51952 0.44690 0.53983
 O88 O 0.50388 0.47958 0.56314
 O89 O 0.56328 0.48006 0.49353
 O90 O 0.46687 0.49100 0.55678
 O91 O 0.55428 0.47070 0.52857
 O92 O 0.49696 0.43039 0.51352
 O93 O 0.48564 0.47141 0.52474
 O94 O 0.52015 0.46682 0.50097
 O95 O 0.49970 0.51202 0.53315
 O96 O 0.53356 0.50721 0.51101
 Zr97 Zr 0.47895 0.51190 0.47232
 Zr98 Zr 0.46629 0.50165 0.52432
 Zr99 Zr 0.53233 0.49217 0.48003
 Zr100 Zr 0.48641 0.45763 0.49339
 O101 O 0.55928 0.51573 0.47288
 O102 O 0.45596 0.44149 0.50515
 O103 O 0.49894 0.48170 0.47078
 O104 O 0.46532 0.48672 0.49335
 O105 O 0.47813 0.52716 0.50318
 O106 O 0.51281 0.52216 0.47970
 C107 C 0.50987 0.42952 0.53052
 C108 C 0.56830 0.47157 0.51223
 C109 C 0.48301 0.48385 0.56933
 O110 O 0.43765 0.47952 0.52950
 O111 O 0.43660 0.51729 0.51183
 O112 O 0.44493 0.52485 0.47627
 C113 C 0.43154 0.52555 0.49307
 O114 O 0.53598 0.54348 0.53612
 Zr115 Zr 0.51202 0.53622 0.51080
 O116 O 0.47827 0.54692 0.46473
 O117 O 0.45674 0.52935 0.54476
 O118 O 0.49609 0.55927 0.53287
 O119 O 0.54044 0.55479 0.49776
 O120 O 0.49784 0.56361 0.49296
 C121 C 0.48554 0.56444 0.47557
 O122 O 0.45651 0.49798 0.44845
 O123 O 0.54380 0.46360 0.46163
 O124 O 0.49404 0.51230 0.44070
 O125 O 0.53045 0.49892 0.44673
 O126 O 0.50301 0.43294 0.47346
 O127 O 0.46591 0.44974 0.46565
 C128 C 0.51438 0.50627 0.43421
 H129 H 0.53009 0.45307 0.50000
 H130 H 0.44939 0.48239 0.48910
 H131 H 0.51907 0.53338 0.46909
 H132 H 0.50007 0.51896 0.54785
 H133 H 0.45731 0.42478 0.50221
 H134 H 0.42744 0.48735 0.54007
 H135 H 0.44171 0.52517 0.55141
 H136 H 0.50296 0.57474 0.53048
 H137 H 0.49545 0.41785 0.47610
 H138 H 0.55877 0.46805 0.45501
 H139 H 0.56963 0.50795 0.46241
 H140 H 0.53814 0.57125 0.50137
 H141 H 0.46067 0.43350 0.46641
 H142 H 0.45162 0.51095 0.43908
 H143 H 0.54596 0.48312 0.56584
 H144 H 0.53842 0.56033 0.53726
 Zr145 Zr 0.47963 1.01529 0.53038
 O146 O 0.45792 1.00347 0.55574
 O147 O 0.48070 1.05067 0.53621
 O148 O 0.49553 1.01911 0.56142
 O149 O 0.43595 1.01642 0.49192
 O150 O 0.53202 1.00584 0.55572
 O151 O 0.44534 1.02744 0.52649
 O152 O 0.50386 1.06482 0.50924
 O153 O 0.51390 1.02399 0.52276
 O154 O 0.47954 1.02839 0.49871
 O155 O 0.49831 0.98453 0.53324
 O156 O 0.46457 0.98926 0.51082
 Zr157 Zr 0.51889 0.98004 0.47253
 Zr158 Zr 0.53207 0.99301 0.52391
 Zr159 Zr 0.46634 1.00227 0.47911
 Zr160 Zr 0.51358 1.03586 0.49077
 O161 O 0.43845 0.97938 0.47321
 O162 O 0.54453 1.05155 0.50198
 O163 O 0.50009 1.01087 0.46944
 O164 O 0.53350 1.00599 0.49224
 O165 O 0.51918 0.96666 0.50412
 O166 O 0.48468 0.97160 0.48038
 C167 C 0.49081 1.06715 0.52601
 C168 C 0.43130 1.02617 0.51018
 C169 C 0.51624 1.01448 0.56783
 O170 O 0.56161 1.01423 0.52794
 O171 O 0.56111 0.97547 0.51232
 O172 O 0.55253 0.96633 0.47711
 C173 C 0.56593 0.96612 0.49393
 O174 O 0.46111 0.95476 0.53806
 Zr175 Zr 0.48495 0.95950 0.51218
 O176 O 0.51787 0.94454 0.46678
 O177 O 0.54053 0.96631 0.54582
 O178 O 0.50037 0.93713 0.53511
 O179 O 0.45546 0.94156 0.50040
 O180 O 0.49722 0.93044 0.49550
 C181 C 0.50942 0.92803 0.47822
 O182 O 0.54192 0.99120 0.44794
 O183 O 0.45602 1.03005 0.45918
 O184 O 0.50388 0.97887 0.44087
 O185 O 0.46776 0.99327 0.44625
 O186 O 0.49802 1.05979 0.46939
 O187 O 0.53445 1.04119 0.46280
 C188 C 0.48370 0.98502 0.43410
 H189 H 0.47009 1.04239 0.49697
 H190 H 0.54958 1.00945 0.48780
 H191 H 0.47790 0.96004 0.47034
 H192 H 0.49773 0.97856 0.54829
 H193 H 0.54383 1.06809 0.49816
 H194 H 0.57149 1.00672 0.53896
 H195 H 0.55571 0.97033 0.55228
 H196 H 0.49282 0.92184 0.53361
 H197 H 0.50618 1.07473 0.47122
 H198 H 0.44083 1.02582 0.45285
 H199 H 0.42835 0.98691 0.46238
 H200 H 0.45692 0.92527 0.50493
 H201 H 0.54043 1.05721 0.46283
 H202 H 0.54609 0.97742 0.43927
 H203 H 0.45338 1.01717 0.56434
 H204 H 0.45817 0.93811 0.54019
 Zr205 Zr -0.01733 0.51930 1.02763
 O206 O -0.03937 0.50928 1.05343
 O207 O -0.01432 0.55479 1.03278
 O208 O -0.00125 0.52300 1.05859
 O209 O -0.06128 0.52062 0.98943
 O210 O 0.03475 0.50840 1.05304
 O211 O -0.05134 0.53224 1.02367
 O212 O 0.00952 0.56708 1.00554
 O213 O 0.01717 0.52647 1.01958
 O214 O -0.01719 0.53158 0.99568
 O215 O 0.00022 0.48792 1.03111
 O216 O -0.03338 0.49325 1.00878
 Zr217 Zr 0.02028 0.48107 0.97046
 Zr218 Zr 0.03420 0.49493 1.02146
 Zr219 Zr -0.03140 0.50535 0.97677
 Zr220 Zr 0.01706 0.53745 0.98728
 O221 O -0.06009 0.48332 0.97140
 O222 O 0.04898 0.55217 0.99720
 O223 O 0.00254 0.51243 0.96666
 O224 O 0.03592 0.50699 0.98948
 O225 O 0.02030 0.46853 1.00236
 O226 O -0.01415 0.47405 0.97867
 C227 C -0.00302 0.57042 1.02246
 C228 C -0.06561 0.53079 1.00755
 C229 C 0.01928 0.51773 1.06505
 O230 O 0.06437 0.51537 1.02499
 O231 O 0.06262 0.47627 1.01010
 O232 O 0.05359 0.46662 0.97512
 C233 C 0.06709 0.46644 0.99187
 O234 O -0.03808 0.45966 1.03672
 Zr235 Zr -0.01411 0.46279 1.01073
 O236 O 0.01830 0.44547 0.96583
 O237 O 0.04191 0.46842 1.04382
 O238 O 0.00048 0.44056 1.03427
 O239 O -0.04418 0.44554 0.99936
 O240 O -0.00275 0.43281 0.99488
 C241 C 0.00950 0.42954 0.97775
 O242 O 0.04334 0.49077 0.94536
 O243 O -0.04083 0.53305 0.95636
 O244 O 0.00493 0.47936 0.93897
 O245 O -0.03052 0.49542 0.94414
 O246 O 0.00188 0.56165 0.96593
 O247 O 0.03735 0.54106 0.95870
 C248 C -0.01504 0.48611 0.93214
 H249 H -0.02612 0.54591 0.99381
 H250 H 0.05207 0.50978 0.98486
 H251 H -0.02134 0.46243 0.96895
 H252 H -0.00051 0.48233 1.04629
 H253 H 0.04895 0.56856 0.99277
 H254 H 0.07410 0.50776 1.03607
 H255 H 0.05725 0.47207 1.05014
 H256 H -0.00765 0.42552 1.03319
 H257 H 0.01075 0.57624 0.96727
 H258 H -0.05617 0.52920 0.95014
 H259 H -0.06998 0.49094 0.96046
 H260 H -0.04326 0.42934 1.00427
 H261 H 0.04369 0.55691 0.95795
 H262 H 0.04701 0.47661 0.93704
 H263 H -0.04324 0.52343 1.06169
 H264 H -0.04171 0.44319 1.03920
 Zr265 Zr -0.02166 0.48518 0.46776
 O266 O -0.04429 0.49836 0.44388
 O267 O -0.01937 0.45065 0.45870
 O268 O -0.00634 0.48446 0.43627
 O269 O -0.06405 0.47873 0.50702
 O270 O 0.02963 0.49947 0.44229
 O271 O -0.05561 0.47140 0.47143
 O272 O 0.00555 0.43548 0.48355
 O273 O 0.01312 0.47771 0.47392
 O274 O -0.02028 0.46908 0.49814
 O275 O -0.00417 0.51705 0.46704
 O276 O -0.03686 0.50846 0.48987
 Zr277 Zr 0.01824 0.51701 0.52744
 Zr278 Zr 0.03012 0.50956 0.47492
 Zr279 Zr -0.03358 0.49256 0.52028
 Zr280 Zr 0.01426 0.46280 0.50470
 O281 O -0.06191 0.51326 0.52937
 O282 O 0.04560 0.44992 0.49190
 O283 O 0.00073 0.48498 0.52843
 O284 O 0.03302 0.49373 0.50529
 O285 O 0.01705 0.53333 0.49713
 O286 O -0.01650 0.52422 0.52107
 C287 C -0.00784 0.43400 0.46690
 C288 C -0.06921 0.47077 0.48810
 C289 C 0.01406 0.49063 0.42992
 O290 O 0.06029 0.49041 0.46841
 O291 O 0.05894 0.52728 0.48723
 O292 O 0.05140 0.53254 0.52330
 C293 C 0.06422 0.53491 0.50622
 O294 O -0.04235 0.54535 0.46560
 Zr295 Zr -0.01767 0.53931 0.49048
 O296 O 0.01627 0.55170 0.53621
 O297 O 0.03684 0.53859 0.45511
 O298 O -0.00356 0.56453 0.46933
 O299 O -0.04754 0.55440 0.50421
 O300 O -0.00621 0.56724 0.50957
 C301 C 0.00652 0.56869 0.52665
 O302 O 0.04200 0.50431 0.55056
 O303 O -0.04233 0.46226 0.53759
 O304 O 0.00378 0.51574 0.55927
 O305 O -0.03107 0.49806 0.55380
 O306 O -0.00013 0.43610 0.52399
 O307 O 0.03600 0.45572 0.53168
 C308 C -0.01559 0.50721 0.56608
 H309 H -0.02921 0.45450 0.49875
 H310 H 0.04934 0.49068 0.50904
 H311 H -0.02343 0.53443 0.53215
 H312 H -0.00541 0.52429 0.45254
 H313 H 0.04561 0.43305 0.49426
 H314 H 0.06953 0.49942 0.45782
 H315 H 0.05194 0.53600 0.44798
 H316 H -0.01147 0.57926 0.47238
 H317 H 0.00828 0.42176 0.52050
 H318 H -0.05734 0.46509 0.54481
 H319 H -0.07129 0.50409 0.53972
 H320 H -0.04682 0.57113 0.50112
 H321 H 0.04203 0.43987 0.53039
 H322 H 0.04619 0.51739 0.56023
 H323 H -0.04867 0.48530 0.43428
 H324 H -0.04571 0.56202 0.46484
 Zr325 Zr 0.47983 -0.01262 -0.03002
 O326 O 0.45730 -0.00147 -0.05490
 O327 O 0.48338 -0.04751 -0.03732
 O328 O 0.49572 -0.01433 -0.06120
 O329 O 0.43675 -0.01832 0.00867
 O330 O 0.53118 0.00188 -0.05530
 O331 O 0.44620 -0.02712 -0.02639
 O332 O 0.50816 -0.06073 -0.01136
 O333 O 0.51464 -0.01887 -0.02287
 O334 O 0.48093 -0.02708 0.00110
 O335 O 0.49650 0.01961 -0.03190
 O336 O 0.46353 0.01137 -0.00934
 Zr337 Zr 0.51760 0.02328 0.02882
 Zr338 Zr 0.53080 0.01341 -0.02308
 Zr339 Zr 0.46651 -0.00281 0.02183
 Zr340 Zr 0.51547 -0.03209 0.00862
 O341 O 0.43743 0.01760 0.02922
 O342 O 0.54748 -0.04480 -0.00278
 O343 O 0.50083 -0.00906 0.03097
 O344 O 0.53343 -0.00073 0.00806
 O345 O 0.51666 0.03797 -0.00224
 O346 O 0.48283 0.02927 0.02150
 C347 C 0.49522 -0.06339 -0.02818
 C348 C 0.43224 -0.02735 -0.00998
 C349 C 0.51603 -0.00786 -0.06754
 O350 O 0.56146 -0.00540 -0.02829
 O351 O 0.55902 0.03223 -0.01102
 O352 O 0.55068 0.03900 0.02466
 C353 C 0.56385 0.04071 0.00775
 O354 O 0.45758 0.04668 -0.03535
 Zr355 Zr 0.48193 0.04269 -0.00980
 O356 O 0.51466 0.05842 0.03569
 O357 O 0.53730 0.04167 -0.04392
 O358 O 0.49575 0.06711 -0.03192
 O359 O 0.45143 0.05769 0.00273
 O360 O 0.49229 0.07193 0.00799
 C361 C 0.50473 0.07464 0.02512
 O362 O 0.54114 0.01268 0.05309
 O363 O 0.45817 -0.03231 0.04050
 O364 O 0.50260 0.02287 0.06046
 O365 O 0.46802 0.00462 0.05507
 O366 O 0.50128 -0.05816 0.02879
 O367 O 0.53663 -0.03700 0.03644
 C368 C 0.48320 0.01439 0.06726
 H369 H 0.47239 -0.04184 0.00223
 H370 H 0.54972 -0.00320 0.01225
 H371 H 0.47544 0.03987 0.03198
 H372 H 0.49538 0.02609 -0.04673
 H373 H 0.54791 -0.06149 0.00052
 H374 H 0.57073 0.00332 -0.03907
 H375 H 0.55259 0.03909 -0.05067
 H376 H 0.48733 0.08173 -0.02979
 H377 H 0.51025 -0.07238 0.02627
 H378 H 0.44290 -0.02952 0.04723
 H379 H 0.42801 0.00877 0.03979
 H380 H 0.45174 0.07423 -0.00120
 H381 H 0.54312 -0.05272 0.03612
 H382 H 0.54470 0.02640 0.06217
 H383 H 0.45351 -0.01515 -0.06395
 H384 H 0.45371 0.06317 -0.03692
 Zr385 Zr 0.51943 0.52066 -0.02832
 O386 O 0.54061 0.50608 -0.05268
 O387 O 0.51997 0.55547 -0.03668
 O388 O 0.50381 0.52261 -0.05961
 O389 O 0.56302 0.52331 0.01024
 O390 O 0.46667 0.51114 -0.05322
 O391 O 0.55430 0.53181 -0.02504
 O392 O 0.49740 0.57235 -0.01080
 O393 O 0.48556 0.53103 -0.02148
 O394 O 0.52002 0.53626 0.00238
 O395 O 0.49931 0.49037 -0.02924
 O396 O 0.53313 0.49581 -0.00692
 Zr397 Zr 0.47832 0.49137 0.03145
 Zr398 Zr 0.46595 0.50068 -0.02071
 Zr399 Zr 0.53185 0.51141 0.02383
 Zr400 Zr 0.48631 0.54538 0.00963
 O401 O 0.55845 0.48812 0.03180
 O402 O 0.45614 0.56114 -0.00272
 O403 O 0.49849 0.52176 0.03269
 O404 O 0.46498 0.51613 0.01001
 O405 O 0.47754 0.47561 0.00083
 O406 O 0.51214 0.48126 0.02443
 C407 C 0.51049 0.57298 -0.02769
 C408 C 0.56824 0.53132 -0.00863
 C409 C 0.48287 0.51830 -0.06578
 O410 O 0.43734 0.52235 -0.02617
 O411 O 0.43619 0.48475 -0.00820
 O412 O 0.44429 0.47791 0.02752
 C413 C 0.43102 0.47667 0.01064
 O414 O 0.53545 0.45922 -0.03152
 Zr415 Zr 0.51139 0.46665 -0.00646
 O416 O 0.47722 0.45652 0.03951
 O417 O 0.45640 0.47270 -0.04100
 O418 O 0.49543 0.44311 -0.02828
 O419 O 0.53957 0.44846 0.00703
 O420 O 0.49687 0.43947 0.01169
 C421 C 0.48441 0.43886 0.02899
 O422 O 0.45598 0.50573 0.05498
 O423 O 0.54363 0.54045 0.04163
 O424 O 0.49335 0.49100 0.06308
 O425 O 0.52949 0.50571 0.05731
 O426 O 0.50301 0.57040 0.02941
 O427 O 0.46557 0.55373 0.03698
 C428 C 0.51347 0.49783 0.06973
 H429 H 0.53012 0.55004 0.00319
 H430 H 0.44905 0.52038 0.01412
 H431 H 0.51826 0.47026 0.03524
 H432 H 0.49969 0.48324 -0.04386
 H433 H 0.45765 0.57792 -0.00008
 H434 H 0.42716 0.51431 -0.03672
 H435 H 0.44141 0.47666 -0.04775
 H436 H 0.50220 0.42774 -0.02563
 H437 H 0.49571 0.58545 0.02642
 H438 H 0.55848 0.53617 0.04848
 H439 H 0.56878 0.49621 0.04219
 H440 H 0.53716 0.43194 0.00360
 H441 H 0.46060 0.56996 0.03592
 H442 H 0.45086 0.49291 0.06451
 H443 H 0.54584 0.51888 -0.06217
 H444 H 0.53779 0.44238 -0.03243
 Zr445 Zr 0.02297 1.01811 0.46672
 O446 O 0.04409 1.00565 0.44128
 O447 O 0.02361 1.05355 0.46107
 O448 O 0.00729 1.02223 0.43569
 O449 O 0.06685 1.01785 0.50504
 O450 O -0.02996 1.01074 0.44153
 O451 O 0.05777 1.02912 0.47055
 O452 O 0.00160 1.06835 0.48848
 O453 O -0.01081 1.02803 0.47452
 O454 O 0.02385 1.03104 0.49849
 O455 O 0.00274 0.98805 0.46373
 O456 O 0.03683 0.99150 0.48602
 Zr457 Zr -0.01772 0.98410 0.52443
 Zr458 Zr -0.03053 0.99773 0.47322
 Zr459 Zr 0.03589 1.00443 0.51784
 Zr460 Zr -0.00973 1.03969 0.50663
 O461 O 0.06264 0.98054 0.52330
 O462 O -0.03982 1.05658 0.49551
 O463 O 0.00264 1.01419 0.52772
 O464 O -0.03118 1.01059 0.50500
 O465 O -0.01882 0.97091 0.49275
 O466 O 0.01600 0.97443 0.51641
 C467 C 0.01460 1.07033 0.47162
 C468 C 0.07181 1.02750 0.48680
 C469 C -0.01368 1.01846 0.42934
 O470 O -0.05908 1.01992 0.46962
 O471 O -0.06024 0.98084 0.48477
 O472 O -0.05188 0.97130 0.51986
 C473 C -0.06531 0.97142 0.50306
 O474 O 0.03867 0.95714 0.45869
 Zr475 Zr 0.01495 0.96248 0.48453
 O476 O -0.01878 0.94862 0.52979
 O477 O -0.04041 0.97155 0.45103
 O478 O -0.00138 0.94084 0.46125
 O479 O 0.04327 0.94321 0.49629
 O480 O 0.00074 0.93386 0.50075
 C481 C -0.01159 0.93185 0.51801
 O482 O -0.03997 0.99623 0.54915
 O483 O 0.04771 1.03165 0.53802
 O484 O -0.00259 0.98185 0.55596
 O485 O 0.03410 0.99533 0.55065
 O486 O 0.00698 1.06294 0.52823
 O487 O -0.03031 1.04566 0.53465
 C488 C 0.01787 0.98735 0.56275
 H489 H 0.03398 1.04470 0.50034
 H490 H -0.04705 1.01455 0.50955
 H491 H 0.02216 0.96255 0.52632
 H492 H 0.00297 0.98209 0.44865
 H493 H -0.03824 1.07307 0.49943
 H494 H -0.06937 1.01281 0.45858
 H495 H -0.05543 0.97613 0.44471
 H496 H 0.00543 0.92531 0.46261
 H497 H -0.00044 1.07816 0.52655
 H498 H 0.06269 1.02682 0.54427
 H499 H 0.07314 0.98761 0.53418
 H500 H 0.04086 0.92704 0.49159
 H501 H -0.03559 1.06183 0.53468
 H502 H -0.04492 0.98262 0.55774
 H503 H 0.04926 1.01920 0.43273
 H504 H 0.04093 0.94041 0.45649
 Zr505 Zr 0.73536 0.26606 0.22301
 O506 O 0.75066 0.28985 0.20125
 O507 O 0.70154 0.26411 0.21145
 O508 O 0.73684 0.25239 0.19090
 O509 O 0.72563 0.30612 0.26372
 O510 O 0.75228 0.21677 0.19601
 O511 O 0.72150 0.29961 0.22730
 O512 O 0.68435 0.23758 0.23366
 O513 O 0.72742 0.23099 0.22675
 O514 O 0.71664 0.26280 0.25194
 O515 O 0.76731 0.24911 0.22378
 O516 O 0.75669 0.28025 0.24756
 Zr517 Zr 0.76214 0.22338 0.28271
 Zr518 Zr 0.75921 0.21442 0.22926
 Zr519 Zr 0.73816 0.27507 0.27643
 Zr520 Zr 0.70989 0.22794 0.25620
 O521 O 0.75813 0.30275 0.28889
 O522 O 0.69812 0.19735 0.24077
 O523 O 0.73000 0.24034 0.28218
 O524 O 0.74079 0.20962 0.25814
 O525 O 0.78103 0.22647 0.25383
 O526 O 0.76980 0.25843 0.27875
 C527 C 0.68421 0.25200 0.21780
 C528 C 0.71945 0.31226 0.24452
 C529 C 0.74396 0.23266 0.18392
 O530 O 0.74060 0.18464 0.21955
 O531 O 0.77564 0.18512 0.24137
 O532 O 0.77791 0.19066 0.27805
 C533 C 0.78163 0.17884 0.26056
 O534 O 0.79554 0.28781 0.22672
 Zr535 Zr 0.78753 0.26149 0.24952
 O536 O 0.79612 0.22482 0.29395
 O537 O 0.79008 0.20912 0.21162
 O538 O 0.81452 0.24927 0.22938
 O539 O 0.80154 0.29040 0.26615
 O540 O 0.81388 0.24883 0.26971
 C541 C 0.81395 0.23499 0.28601
 O542 O 0.74725 0.19854 0.30367
 O543 O 0.70633 0.28290 0.29155
 O544 O 0.75882 0.23630 0.31499
 O545 O 0.73992 0.27026 0.31003
 O546 O 0.68165 0.24088 0.27430
 O547 O 0.70050 0.20452 0.28125
 C548 C 0.74884 0.25469 0.32211
 H549 H 0.70204 0.27155 0.25193
 H550 H 0.73743 0.19312 0.26079
 H551 H 0.77908 0.26478 0.29091
 H552 H 0.77576 0.25126 0.20995
 H553 H 0.68106 0.19703 0.24185
 H554 H 0.75056 0.17614 0.20924
 H555 H 0.78814 0.19447 0.20350
 H556 H 0.82896 0.25712 0.23400
 H557 H 0.66757 0.23267 0.26929
 H558 H 0.70863 0.29740 0.29983
 H559 H 0.74804 0.31136 0.29899
 H560 H 0.81852 0.28995 0.26430
 H561 H 0.68471 0.19856 0.27852
 H562 H 0.75949 0.19386 0.31400
 H563 H 0.73842 0.29467 0.19097
 H564 H 0.81222 0.29153 0.22748
 Zr565 Zr 0.76543 0.73034 0.71911
 O566 O 0.75384 0.70789 0.69417
 O567 O 0.80062 0.73329 0.71215
 O568 O 0.76744 0.74597 0.68786
 O569 O 0.76968 0.68729 0.75780
 O570 O 0.75216 0.78159 0.69358
 O571 O 0.77905 0.69665 0.72285
 O572 O 0.81442 0.75754 0.73848
 O573 O 0.77275 0.76497 0.72631
 O574 O 0.77965 0.73120 0.75038
 O575 O 0.73364 0.74749 0.71701
 O576 O 0.74069 0.71445 0.73950
 Zr577 Zr 0.73019 0.76858 0.77767
 Zr578 Zr 0.74087 0.78162 0.72587
 Zr579 Zr 0.75472 0.71716 0.77082
 Zr580 Zr 0.78572 0.76555 0.75798
 O581 O 0.73330 0.68843 0.77770
 O582 O 0.79961 0.79717 0.74658
 O583 O 0.76203 0.75128 0.78008
 O584 O 0.75488 0.78401 0.75715
 O585 O 0.71571 0.76789 0.74647
 O586 O 0.72309 0.73401 0.77026
 C587 C 0.81686 0.74463 0.72164
 C588 C 0.77884 0.68275 0.73924
 C589 C 0.76131 0.76619 0.68138
 O590 O 0.76090 0.81172 0.72072
 O591 O 0.72287 0.81015 0.73787
 O592 O 0.71539 0.80177 0.77341
 C593 C 0.71423 0.81499 0.75655
 O594 O 0.70541 0.70892 0.71337
 Zr595 Zr 0.70988 0.73334 0.73884
 O596 O 0.69481 0.76644 0.78410
 O597 O 0.71275 0.78872 0.70500
 O598 O 0.68607 0.74726 0.71628
 O599 O 0.69361 0.70339 0.75142
 O600 O 0.68074 0.74463 0.75607
 C601 C 0.67829 0.75717 0.77315
 O602 O 0.74139 0.79190 0.80206
 O603 O 0.78376 0.70839 0.78992
 O604 O 0.73001 0.75364 0.80932
 O605 O 0.74683 0.71865 0.80392
 O606 O 0.81120 0.75111 0.77851
 O607 O 0.79104 0.78666 0.78583
 C608 C 0.73763 0.73402 0.81610
 H609 H 0.79418 0.72245 0.75169
 H610 H 0.75784 0.80021 0.76139
 H611 H 0.71210 0.72689 0.78062
 H612 H 0.72715 0.74643 0.70215
 H613 H 0.81631 0.79731 0.75003
 H614 H 0.75251 0.82115 0.70992
 H615 H 0.71586 0.80392 0.69827
 H616 H 0.67115 0.73907 0.71827
 H617 H 0.82573 0.75987 0.77621
 H618 H 0.78044 0.69317 0.79653
 H619 H 0.74171 0.67886 0.78836
 H620 H 0.67708 0.70406 0.74733
 H621 H 0.80692 0.79306 0.78556
 H622 H 0.72769 0.79570 0.81101
 H623 H 0.76750 0.70393 0.68523
 H624 H 0.68880 0.70517 0.71173
 Zr625 Zr 0.23298 0.22868 0.77889
 O626 O 0.24603 0.20617 0.80288
 O627 O 0.19817 0.23056 0.78740
 O628 O 0.23218 0.24382 0.81046
 O629 O 0.22729 0.18628 0.73951
 O630 O 0.24666 0.27994 0.80468
 O631 O 0.21959 0.19469 0.77503
 O632 O 0.18290 0.25507 0.76230
 O633 O 0.22515 0.26330 0.77277
 O634 O 0.21714 0.22989 0.74833
 O635 O 0.26476 0.24644 0.77995
 O636 O 0.25669 0.21373 0.75701
 Zr637 Zr 0.26508 0.26879 0.71966
 Zr638 Zr 0.25694 0.28057 0.77213
 Zr639 Zr 0.24101 0.21683 0.72644
 Zr640 Zr 0.21055 0.26428 0.74178
 O641 O 0.26224 0.18890 0.71743
 O642 O 0.19715 0.29529 0.75473
 O643 O 0.23317 0.25099 0.71831
 O644 O 0.24137 0.28331 0.74158
 O645 O 0.28112 0.26775 0.75016
 O646 O 0.27259 0.23420 0.72597
 C647 C 0.18138 0.24167 0.77887
 C648 C 0.21920 0.18110 0.75835
 C649 C 0.23813 0.26420 0.81697
 O650 O 0.23734 0.31043 0.77854
 O651 O 0.27448 0.30952 0.76006
 O652 O 0.28030 0.30199 0.72406
 C653 C 0.28233 0.31483 0.74119
 O654 O 0.29341 0.20851 0.78154
 Zr655 Zr 0.28743 0.23318 0.75674
 O656 O 0.30001 0.26724 0.71132
 O657 O 0.28583 0.28760 0.79221
 O658 O 0.31236 0.24730 0.77834
 O659 O 0.30304 0.20366 0.74293
 O660 O 0.31554 0.24515 0.73821
 C661 C 0.31707 0.25787 0.72118
 O662 O 0.25239 0.29241 0.69647
 O663 O 0.21090 0.20758 0.70885
 O664 O 0.26404 0.25443 0.68777
 O665 O 0.24639 0.21960 0.69297
 O666 O 0.18427 0.24976 0.72192
 O667 O 0.20355 0.28607 0.71489
 C668 C 0.25545 0.23515 0.68081
 H669 H 0.20265 0.22081 0.74749
 H670 H 0.23819 0.29955 0.73784
 H671 H 0.28299 0.22744 0.71495
 H672 H 0.27193 0.24526 0.79451
 H673 H 0.18026 0.29514 0.75214
 H674 H 0.24618 0.31973 0.78925
 H675 H 0.28302 0.30264 0.79934
 H676 H 0.32720 0.23950 0.77545
 H677 H 0.16974 0.25799 0.72518
 H678 H 0.21400 0.19265 0.70164
 H679 H 0.25326 0.17947 0.70694
 H680 H 0.31977 0.20457 0.74622
 H681 H 0.18761 0.29200 0.71607
 H682 H 0.26556 0.29670 0.68697
 H683 H 0.23286 0.20170 0.81230
 H684 H 0.31012 0.20514 0.78237
 Zr685 Zr 0.27053 0.77175 0.28165
 O686 O 0.25902 0.79350 0.30702
 O687 O 0.30582 0.76958 0.28837
 O688 O 0.27274 0.75570 0.31269
 O689 O 0.27343 0.81562 0.24362
 O690 O 0.25844 0.71957 0.30637
 O691 O 0.28353 0.80594 0.27829
 O692 O 0.31968 0.74624 0.26152
 O693 O 0.27828 0.73746 0.27383
 O694 O 0.28443 0.77186 0.25025
 O695 O 0.23902 0.75361 0.28370
 O696 O 0.24535 0.78726 0.26168
 Zr697 Zr 0.23523 0.73354 0.22276
 Zr698 Zr 0.24666 0.71985 0.27423
 Zr699 Zr 0.25907 0.78549 0.23021
 Zr700 Zr 0.29092 0.73782 0.24206
 O701 O 0.23711 0.81362 0.22374
 O702 O 0.30534 0.70638 0.25278
 O703 O 0.26679 0.75177 0.22036
 O704 O 0.26035 0.71844 0.24281
 O705 O 0.22112 0.73326 0.25409
 O706 O 0.22768 0.76774 0.23076
 C707 C 0.32211 0.75884 0.27859
 C708 C 0.28273 0.82015 0.26214
 C709 C 0.26715 0.73512 0.31883
 O710 O 0.26710 0.69017 0.27859
 O711 O 0.22874 0.69112 0.26193
 O712 O 0.22074 0.70000 0.22661
 C713 C 0.21983 0.68648 0.24327
 O714 O 0.21041 0.79142 0.28813
 Zr715 Zr 0.21484 0.76748 0.26232
 O716 O 0.19974 0.73466 0.21674
 O717 O 0.21897 0.71161 0.29532
 O718 O 0.19147 0.75269 0.28496
 O719 O 0.19793 0.79706 0.25019
 O720 O 0.18567 0.75538 0.24535
 C721 C 0.18321 0.74308 0.22810
 O722 O 0.24656 0.71096 0.19797
 O723 O 0.28786 0.79552 0.21118
 O724 O 0.23439 0.74903 0.19136
 O725 O 0.25107 0.78427 0.19709
 O726 O 0.31599 0.75341 0.22162
 O727 O 0.29628 0.71742 0.21381
 C728 C 0.24183 0.76888 0.18477
 H729 H 0.29880 0.78107 0.24901
 H730 H 0.26347 0.70240 0.23827
 H731 H 0.21647 0.77470 0.22059
 H732 H 0.23265 0.75421 0.29861
 H733 H 0.32202 0.70678 0.24922
 H734 H 0.25897 0.68032 0.28931
 H735 H 0.22237 0.69636 0.30174
 H736 H 0.17646 0.76056 0.28325
 H737 H 0.33067 0.74504 0.22368
 H738 H 0.28423 0.81073 0.20480
 H739 H 0.24530 0.82361 0.21319
 H740 H 0.18146 0.79581 0.25441
 H741 H 0.31227 0.71151 0.21384
 H742 H 0.23284 0.70691 0.18904
 H743 H 0.27274 0.79766 0.31590
 H744 H 0.19380 0.79487 0.28986
 Zr745 Zr 0.23200 0.76838 0.72071
 O746 O 0.24667 0.79068 0.69722
 O747 O 0.19750 0.76705 0.71104
 O748 O 0.23164 0.75324 0.68916
 O749 O 0.22581 0.81082 0.75988
 O750 O 0.24532 0.71706 0.69522
 O751 O 0.21927 0.80247 0.72410
 O752 O 0.18059 0.74273 0.73556
 O753 O 0.22301 0.73387 0.72649
 O754 O 0.21501 0.76735 0.75070
 O755 O 0.26331 0.75025 0.72065
 O756 O 0.25529 0.78307 0.74336
 Zr757 Zr 0.26076 0.72794 0.78091
 Zr758 Zr 0.25428 0.71621 0.72816
 Zr759 Zr 0.23839 0.78016 0.77337
 Zr760 Zr 0.20724 0.73304 0.75696
 O761 O 0.26001 0.80788 0.78298
 O762 O 0.19349 0.70225 0.74346
 O763 O 0.22930 0.74610 0.78122
 O764 O 0.23753 0.71365 0.75818
 O765 O 0.27792 0.72877 0.75097
 O766 O 0.26947 0.76241 0.77486
 C767 C 0.18007 0.75625 0.71902
 C768 C 0.21851 0.81605 0.74077
 C769 C 0.23742 0.73287 0.68276
 O770 O 0.23413 0.68660 0.72109
 O771 O 0.27075 0.68714 0.74080
 O772 O 0.27559 0.69471 0.77695
 C773 C 0.27800 0.68187 0.75989
 O774 O 0.29298 0.78794 0.72017
 Zr775 Zr 0.28547 0.76322 0.74464
 O776 O 0.29532 0.72889 0.79042
 O777 O 0.28369 0.70882 0.70904
 O778 O 0.31075 0.74890 0.72377
 O779 O 0.30154 0.79240 0.75908
 O780 O 0.31254 0.75060 0.76401
 C781 C 0.31302 0.73782 0.78106
 O782 O 0.24638 0.70454 0.80357
 O783 O 0.20796 0.78972 0.79005
 O784 O 0.25943 0.74248 0.81275
 O785 O 0.24264 0.77739 0.80698
 O786 O 0.18061 0.74779 0.77596
 O787 O 0.19867 0.71127 0.78353
 C788 C 0.25115 0.76189 0.81942
 H789 H 0.20074 0.77659 0.75110
 H790 H 0.23382 0.69744 0.76180
 H791 H 0.27969 0.76903 0.78620
 H792 H 0.27101 0.75137 0.70633
 H793 H 0.17653 0.70263 0.74545
 H794 H 0.24311 0.67720 0.71067
 H795 H 0.28074 0.69381 0.70183
 H796 H 0.32570 0.75648 0.72721
 H797 H 0.16601 0.73973 0.77219
 H798 H 0.21120 0.80464 0.79734
 H799 H 0.25092 0.81744 0.79317
 H800 H 0.31834 0.79118 0.75635
 H801 H 0.18265 0.70550 0.78177
 H802 H 0.25905 0.69999 0.81350
 H803 H 0.23401 0.79537 0.68735
 H804 H 0.30980 0.79110 0.71989
 Zr805 Zr 0.26632 0.23158 0.21931
 O806 O 0.25470 0.20951 0.19409
 O807 O 0.30167 0.23385 0.21291
 O808 O 0.26913 0.24741 0.18823
 O809 O 0.26927 0.18821 0.25779
 O810 O 0.25462 0.28335 0.19401
 O811 O 0.27937 0.19765 0.22304
 O812 O 0.31550 0.25759 0.23964
 O813 O 0.27411 0.26605 0.22681
 O814 O 0.28004 0.23200 0.25078
 O815 O 0.23486 0.24929 0.21688
 O816 O 0.24098 0.21597 0.23924
 Zr817 Zr 0.23083 0.27002 0.27761
 Zr818 Zr 0.24252 0.28324 0.22605
 Zr819 Zr 0.25458 0.21823 0.27075
 Zr820 Zr 0.28659 0.26621 0.25864
 O821 O 0.23257 0.18980 0.27712
 O822 O 0.30118 0.29758 0.24741
 O823 O 0.26232 0.25217 0.28032
 O824 O 0.25607 0.28520 0.25752
 O825 O 0.21681 0.26979 0.24622
 O826 O 0.22326 0.23562 0.26989
 C827 C 0.31799 0.24469 0.22279
 C828 C 0.27870 0.18365 0.23936
 C829 C 0.26363 0.26785 0.18183
 O830 O 0.26297 0.31319 0.22153
 O831 O 0.22457 0.31188 0.23790
 O832 O 0.21630 0.30331 0.27325
 C833 C 0.21554 0.31663 0.25643
 O834 O 0.20590 0.21143 0.21247
 Zr835 Zr 0.21051 0.23540 0.23829
 O836 O 0.19539 0.26811 0.28381
 O837 O 0.21501 0.29084 0.20463
 O838 O 0.18724 0.25010 0.21569
 O839 O 0.19368 0.20548 0.25031
 O840 O 0.18132 0.24678 0.25545
 C841 C 0.17886 0.25905 0.27271
 O842 O 0.24192 0.29323 0.30212
 O843 O 0.28314 0.20886 0.29024
 O844 O 0.23033 0.25501 0.30922
 O845 O 0.24617 0.21959 0.30373
 O846 O 0.31146 0.25136 0.27957
 O847 O 0.29183 0.28716 0.28661
 C848 C 0.23736 0.23516 0.31594
 H849 H 0.29438 0.22300 0.25228
 H850 H 0.25918 0.30134 0.26190
 H851 H 0.21205 0.22856 0.28008
 H852 H 0.22861 0.24846 0.20192
 H853 H 0.31784 0.29741 0.25106
 H854 H 0.25494 0.32279 0.21063
 H855 H 0.21847 0.30605 0.19808
 H856 H 0.17214 0.24219 0.21744
 H857 H 0.32616 0.25991 0.27753
 H858 H 0.27947 0.19365 0.29669
 H859 H 0.24064 0.18002 0.28785
 H860 H 0.17721 0.20644 0.24605
 H861 H 0.30775 0.29347 0.28647
 H862 H 0.22815 0.29710 0.31096
 H863 H 0.26841 0.20536 0.18531
 H864 H 0.18924 0.20805 0.21058
 Zr865 Zr 0.73665 0.72423 0.28166
 O866 O 0.75041 0.70123 0.30486
 O867 O 0.70232 0.72654 0.29159
 O868 O 0.73720 0.73912 0.31340
 O869 O 0.72821 0.68267 0.24185
 O870 O 0.75361 0.77443 0.30767
 O871 O 0.72252 0.69049 0.27784
 O872 O 0.68651 0.75198 0.26765
 O873 O 0.72948 0.75914 0.27640
 O874 O 0.71940 0.72635 0.25182
 O875 O 0.76889 0.74113 0.28161
 O876 O 0.75883 0.70910 0.25849
 Zr877 Zr 0.76685 0.76459 0.22172
 Zr878 Zr 0.76166 0.77560 0.27462
 Zr879 Zr 0.74182 0.71317 0.22864
 Zr880 Zr 0.71337 0.76101 0.24613
 O881 O 0.76182 0.68490 0.21816
 O882 O 0.70135 0.79204 0.26021
 O883 O 0.73446 0.74765 0.22144
 O884 O 0.74462 0.77926 0.24487
 O885 O 0.78438 0.76259 0.25143
 O886 O 0.77378 0.72972 0.22716
 C887 C 0.68543 0.73819 0.28397
 C888 C 0.72108 0.67722 0.26096
 C889 C 0.74461 0.75901 0.32001
 O890 O 0.74300 0.80562 0.28265
 O891 O 0.77903 0.80450 0.26217
 O892 O 0.78275 0.79750 0.22583
 C893 C 0.78586 0.81004 0.24300
 O894 O 0.79649 0.70243 0.28137
 Zr895 Zr 0.79002 0.72772 0.25724
 O896 O 0.80134 0.76244 0.21201
 O897 O 0.79189 0.78168 0.29317
 O898 O 0.81634 0.74079 0.27793
 O899 O 0.80413 0.69801 0.24236
 O900 O 0.81748 0.73919 0.23768
 C901 C 0.81856 0.75232 0.22091
 O902 O 0.75358 0.78875 0.19932
 O903 O 0.71061 0.70502 0.21233
 O904 O 0.76430 0.75075 0.18973
 O905 O 0.74568 0.71643 0.19497
 O906 O 0.68585 0.74751 0.22714
 O907 O 0.70556 0.78358 0.22002
 C908 C 0.75485 0.73189 0.18276
 H909 H 0.70469 0.71759 0.25145
 H910 H 0.74163 0.79564 0.24154
 H911 H 0.78348 0.72289 0.21561
 H912 H 0.77671 0.73950 0.29583
 H913 H 0.68436 0.79231 0.25839
 H914 H 0.75266 0.81457 0.29300
 H915 H 0.78986 0.79665 0.30067
 H916 H 0.83081 0.73265 0.27428
 H917 H 0.67168 0.75595 0.23120
 H918 H 0.71296 0.69014 0.20476
 H919 H 0.75207 0.67590 0.20794
 H920 H 0.82101 0.69840 0.24495
 H921 H 0.68982 0.78976 0.22197
 H922 H 0.76637 0.79294 0.18934
 H923 H 0.73759 0.69685 0.31473
 H924 H 0.81313 0.69866 0.28148
 Zr925 Zr 0.76737 0.27284 0.78139
 O926 O 0.75398 0.29460 0.80590
 O927 O 0.80236 0.27194 0.78943
 O928 O 0.76912 0.25732 0.81265
 O929 O 0.77110 0.31604 0.74281
 O930 O 0.75552 0.22090 0.80650
 O931 O 0.77985 0.30718 0.77799
 O932 O 0.81804 0.24851 0.76357
 O933 O 0.77624 0.23861 0.77452
 O934 O 0.78266 0.27268 0.75059
 O935 O 0.73623 0.25402 0.78257
 O936 O 0.74277 0.28741 0.76022
 Zr937 Zr 0.73560 0.23277 0.72189
 Zr938 Zr 0.74502 0.22029 0.77398
 Zr939 Zr 0.75794 0.28536 0.72937
 Zr940 Zr 0.79031 0.23866 0.74331
 O941 O 0.73565 0.31283 0.72154
 O942 O 0.80498 0.20793 0.75547
 O943 O 0.76685 0.25166 0.72044
 O944 O 0.76014 0.21861 0.74317
 O945 O 0.72009 0.23274 0.75263
 O946 O 0.72696 0.26693 0.72900
 C947 C 0.81939 0.26164 0.78041
 C948 C 0.77956 0.32105 0.76158
 C949 C 0.76370 0.23676 0.81893
 O950 O 0.76581 0.19109 0.77960
 O951 O 0.72819 0.19098 0.76154
 O952 O 0.72146 0.19907 0.72581
 C953 C 0.72009 0.18585 0.74267
 O954 O 0.70648 0.29111 0.78528
 Zr955 Zr 0.71270 0.26693 0.76001
 O956 O 0.70045 0.23312 0.71429
 O957 O 0.71667 0.21185 0.79421
 O958 O 0.68869 0.25184 0.78186
 O959 O 0.69572 0.29597 0.74684
 O960 O 0.68462 0.25404 0.74192
 C961 C 0.68324 0.24146 0.72474
 O962 O 0.74860 0.20997 0.69804
 O963 O 0.78730 0.29578 0.71131
 O964 O 0.73569 0.24768 0.69025
 O965 O 0.75158 0.28326 0.69602
 O966 O 0.81581 0.25429 0.72337
 O967 O 0.79748 0.21762 0.71585
 C968 C 0.74310 0.26753 0.68363
 H969 H 0.79686 0.28221 0.74968
 H970 H 0.76378 0.20256 0.73905
 H971 H 0.71609 0.27348 0.71828
 H972 H 0.72925 0.25473 0.79724
 H973 H 0.82180 0.20870 0.75264
 H974 H 0.75746 0.18132 0.79024
 H975 H 0.72013 0.19682 0.80103
 H976 H 0.67355 0.25925 0.77939
 H977 H 0.83062 0.24641 0.72622
 H978 H 0.78360 0.31077 0.70453
 H979 H 0.74408 0.32280 0.71112
 H980 H 0.67910 0.29442 0.75041
 H981 H 0.81356 0.21204 0.71674
 H982 H 0.73540 0.20543 0.68865
 H983 H 0.76714 0.29936 0.81525
 H984 H 0.68971 0.29407 0.78635
 N985 N 0.41223 1.00207 0.30986
 C986 C 0.43530 0.99835 0.30924
 N987 N 0.44607 0.99771 0.28969
 N988 N 0.43406 1.00043 0.27136
 C989 C 0.41085 1.00405 0.27187
 N990 N 0.40024 1.00477 0.29157
 C991 C 0.44768 0.99414 0.32917
 C992 C 0.45639 0.99061 0.34671
 C993 C 0.46416 0.98690 0.36869
 N994 N 0.48692 0.98525 0.37394
 N995 N 0.49348 0.98350 0.39473
 C996 C 0.47745 0.98332 0.41089
 N997 N 0.45480 0.98468 0.40542
 N998 N 0.44828 0.98635 0.38477
 N999 N -0.08754 0.50112 0.80827
 C1000 C -0.06453 0.49711 0.80752
 N1001 N -0.05392 0.49614 0.78790
 N1002 N -0.06605 0.49883 0.76964
 C1003 C -0.08921 0.50274 0.77028
 N1004 N -0.09965 0.50379 0.79004
 C1005 C -0.05201 0.49307 0.82739
 C1006 C -0.04318 0.48977 0.84492
 C1007 C -0.03527 0.48648 0.86690
 N1008 N -0.01252 0.48428 0.87198
 N1009 N -0.00577 0.48299 0.89275
 C1010 C -0.02159 0.48384 0.90906
 N1011 N -0.04425 0.48572 0.90376
 N1012 N -0.05096 0.48693 0.88315
 N1013 N 0.07668 -0.01682 0.80077
 C1014 C 0.06221 0.00115 0.80387
 N1015 N 0.06087 0.01762 0.78836
 N1016 N 0.07361 0.01617 0.77037
 C1017 C 0.08823 -0.00178 0.76717
 N1018 N 0.08944 -0.01828 0.78278
 C1019 C 0.05033 0.00379 0.82430
 C1020 C 0.04193 0.00580 0.84220
 C1021 C 0.03441 0.00752 0.86447
 N1022 N 0.01216 0.01212 0.86996
 N1023 N 0.00576 0.01286 0.89086
 C1024 C 0.02148 0.00905 0.90688
 N1025 N 0.04365 0.00463 0.90117
 N1026 N 0.05000 0.00393 0.88044
 N1027 N 0.55407 0.49874 0.28946
 C1028 C 0.56424 0.49777 0.30929
 N1029 N 0.58737 0.49471 0.31048
 N1030 N 0.60002 0.49302 0.29248
 C1031 C 0.59007 0.49427 0.27249
 N1032 N 0.56675 0.49703 0.27141
 C1033 C 0.55114 0.50062 0.32904
 C1034 C 0.54207 0.50292 0.34661
 C1035 C 0.53419 0.50510 0.36874
 N1036 N 0.54976 0.50275 0.38493
 N1037 N 0.54319 0.50378 0.40558
 C1038 C 0.52077 0.50731 0.41100
 N1039 N 0.50505 0.50991 0.39476
 N1040 N 0.51168 0.50884 0.37393
 N1041 N 0.56259 0.51227 0.20928
 C1042 C 0.56292 0.49410 0.19538
 N1043 N 0.57696 0.47617 0.19980
 N1044 N 0.59015 0.47632 0.21753
 C1045 C 0.59010 0.49451 0.23153
 N1046 N 0.57579 0.51241 0.22708
 C1047 C 0.55030 0.49458 0.17516
 C1048 C 0.54131 0.49497 0.15742
 C1049 C 0.53309 0.49593 0.13531
 N1050 N 0.54719 0.50477 0.11990
 N1051 N 0.54060 0.50527 0.09922
 C1052 C 0.51964 0.49693 0.09301
 N1053 N 0.50537 0.48806 0.10848
 N1054 N 0.51203 0.48753 0.12931
 N1055 N 0.05489 0.99290 0.70786
 C1056 C 0.06603 0.99348 0.68849
 N1057 N 0.08926 0.99643 0.68829
 N1058 N 0.10104 0.99854 0.70680
 C1059 C 0.09005 0.99794 0.72632
 N1060 N 0.06668 0.99501 0.72642
 C1061 C 0.05374 0.99052 0.66826
 C1062 C 0.04509 0.98822 0.65048
 C1063 C 0.03737 0.98612 0.62827
 N1064 N 0.05323 0.98755 0.61221
 N1065 N 0.04674 0.98708 0.59149
 C1066 C 0.02414 0.98504 0.58590
 N1067 N 0.00815 0.98329 0.60201
 N1068 N 0.01468 0.98382 0.62289
 N1069 N -0.06097 0.52116 0.70760
 C1070 C -0.06281 0.50427 0.69244
 N1071 N -0.07761 0.48648 0.69604
 N1072 N -0.09018 0.48557 0.71417
 C1073 C -0.08845 0.50246 0.72944
 N1074 N -0.07353 0.52025 0.72574
 C1075 C -0.05084 0.50607 0.67197
 C1076 C -0.04228 0.50709 0.65408
 C1077 C -0.03448 0.50729 0.63184
 N1078 N -0.04824 0.49783 0.61644
 N1079 N -0.04189 0.49796 0.59569
 C1080 C -0.02152 0.50756 0.58942
 N1081 N -0.00760 0.51708 0.60487
 N1082 N -0.01401 0.51696 0.62578
 N1083 N 0.42272 -0.01026 0.19709
 C1084 C 0.43713 0.00794 0.19389
 N1085 N 0.43880 0.02434 0.20953
 N1086 N 0.42643 0.02259 0.22773
 C1087 C 0.41187 0.00442 0.23102
 N1088 N 0.41034 -0.01201 0.21528
 C1089 C 0.44871 0.01077 0.17332
 C1090 C 0.45691 0.01273 0.15534
 C1091 C 0.46428 0.01409 0.13300
 N1092 N 0.48556 0.02202 0.12720
 N1093 N 0.49184 0.02262 0.10626
 C1094 C 0.47697 0.01533 0.09052
 N1095 N 0.45575 0.00756 0.09653
 N1096 N 0.44952 0.00699 0.11730
 N1097 N 0.29265 0.40045 0.01980
 C1098 C 0.31066 0.39911 0.00581
 N1099 N 0.30932 0.38408 -0.01107
 N1100 N 0.29071 0.37072 -0.01377
 C1101 C 0.27254 0.37196 0.00020
 N1102 N 0.27404 0.38709 0.01710
 C1103 C 0.33099 0.41334 0.00884
 C1104 C 0.34815 0.42522 0.01078
 C1105 C 0.36871 0.43944 0.01181
 N1106 N 0.37465 0.45249 -0.00554
 N1107 N 0.39415 0.46476 -0.00543
 C1108 C 0.40851 0.46459 0.01204
 N1109 N 0.40247 0.45163 0.02957
 N1110 N 0.38289 0.43928 0.02944
 N1111 N -0.19125 0.88147 0.48416
 C1112 C -0.18855 0.89790 0.49971
 N1113 N -0.20588 0.90138 0.51409
 N1114 N -0.22507 0.88860 0.51323
 C1115 C -0.22779 0.87185 0.49790
 N1116 N -0.21046 0.86867 0.48329
 C1117 C -0.16736 0.91110 0.50132
 C1118 C -0.14958 0.92216 0.50262
 C1119 C -0.12839 0.93542 0.50349
 N1120 N -0.11424 0.93468 0.52113
 N1121 N -0.09434 0.94648 0.52139
 C1122 C -0.08794 0.95948 0.50402
 N1123 N -0.10223 0.96022 0.48651
 N1124 N -0.12206 0.94848 0.48625
 N1125 N -0.20972 0.09339 0.99348
 C1126 C -0.18810 0.10232 0.99542
 N1127 N -0.18557 0.12494 1.00040
 N1128 N -0.20399 0.13828 1.00298
 C1129 C -0.22577 0.12953 1.00096
 N1130 N -0.22818 0.10675 0.99607
 C1131 C -0.16802 0.08812 0.99214
 C1132 C -0.15090 0.07650 0.98990
 C1133 C -0.13028 0.06274 0.98850
 N1134 N -0.11593 0.06399 0.97104
 N1135 N -0.09619 0.05219 0.97069
 C1136 C -0.09015 0.03876 0.98783
 N1137 N -0.10468 0.03750 1.00513
 N1138 N -0.12434 0.04920 1.00546
 N1139 N 0.28924 0.59147 0.49490
 C1140 C 0.31074 0.60054 0.49729
 N1141 N 0.31301 0.62324 0.50207
 N1142 N 0.29445 0.63651 0.50402
 C1143 C 0.27279 0.62761 0.50155
 N1144 N 0.27065 0.60476 0.49686
 C1145 C 0.33096 0.58641 0.49462
 C1146 C 0.34815 0.57482 0.49281
 C1147 C 0.36882 0.56111 0.49180
 N1148 N 0.38312 0.56187 0.47428
 N1149 N 0.40286 0.55007 0.47419
 C1150 C 0.40894 0.53711 0.49164
 N1151 N 0.39446 0.53633 0.50901
 N1152 N 0.37480 0.54805 0.50908
 N1153 N 0.19352 0.61909 0.48686
 C1154 C 0.18871 0.60638 0.50483
 N1155 N 0.20466 0.60532 0.52091
 N1156 N 0.22461 0.61676 0.51920
 C1157 C 0.22950 0.62970 0.50132
 N1158 N 0.21349 0.63056 0.48514
 C1159 C 0.16701 0.59409 0.50679
 C1160 C 0.14886 0.58366 0.50802
 C1161 C 0.12731 0.57094 0.50825
 N1162 N 0.11988 0.56048 0.48983
 N1163 N 0.09996 0.54894 0.48954
 C1164 C 0.08660 0.54731 0.50763
 N1165 N 0.09405 0.55775 0.52619
 N1166 N 0.11409 0.56937 0.52648
 N1167 N 0.70598 0.10801 0.02164
 C1168 C 0.68965 0.10968 0.00595
 N1169 N 0.69433 0.12245 -0.01200
 N1170 N 0.71452 0.13344 -0.01405
 C1171 C 0.73090 0.13203 0.00175
 N1172 N 0.72616 0.11899 0.01960
 C1173 C 0.66767 0.09799 0.00824
 C1174 C 0.64925 0.08807 0.00959
 C1175 C 0.62738 0.07593 0.00980
 N1176 N 0.61992 0.06536 -0.00856
 N1177 N 0.59979 0.05421 -0.00888
 C1178 C 0.58622 0.05310 0.00911
 N1179 N 0.59369 0.06369 0.02760
 N1180 N 0.61395 0.07491 0.02792
 N1181 N 0.70648 0.89808 0.48170
 C1182 C 0.68961 0.89513 0.49671
 N1183 N 0.69311 0.88009 0.51324
 N1184 N 0.71265 0.86812 0.51451
 C1185 C 0.72953 0.87077 0.49931
 N1186 N 0.72600 0.88613 0.48296
 C1187 C 0.66819 0.90759 0.49492
 C1188 C 0.65024 0.91808 0.49364
 C1189 C 0.62889 0.93080 0.49301
 N1190 N 0.62240 0.94327 0.51056
 N1191 N 0.60254 0.95468 0.51049
 C1192 C 0.58837 0.95415 0.49288
 N1193 N 0.59491 0.94171 0.47520
 N1194 N 0.61485 0.93025 0.47528
 N1195 N 0.20446 0.39696 1.01138
 C1196 C 0.18944 0.39329 0.99475
 N1197 N 0.19453 0.37713 0.97963
 N1198 N 0.21401 0.36519 0.98100
 C1199 C 0.22934 0.36884 0.99749
 N1200 N 0.22400 0.38498 1.01274
 C1201 C 0.16833 0.40627 0.99309
 C1202 C 0.15058 0.41708 0.99182
 C1203 C 0.12944 0.43011 0.99113
 N1204 N 0.11528 0.42947 0.97349
 N1205 N 0.09552 0.44122 0.97336
 C1206 C 0.08926 0.45402 0.99090
 N1207 N 0.10355 0.45461 1.00843
 N1208 N 0.12323 0.44292 1.00855
 N1209 N -0.00317 0.29115 0.41829
 C1210 C -0.01471 0.30817 0.40812
 N1211 N -0.02171 0.30521 0.38730
 N1212 N -0.01736 0.28559 0.37694
 C1213 C -0.00576 0.26839 0.38706
 N1214 N 0.00121 0.27157 0.40794
 C1215 C -0.01698 0.32985 0.41851
 C1216 C -0.01729 0.34816 0.42744
 C1217 C -0.01594 0.36981 0.43808
 N1218 N -0.02705 0.38827 0.42987
 N1219 N -0.02446 0.40884 0.43912
 C1220 C -0.01055 0.41153 0.45672
 N1221 N 0.00052 0.39298 0.46490
 N1222 N -0.00209 0.37242 0.45565
 N1223 N 0.49869 -0.20844 -0.07909
 C1224 C 0.49075 -0.18874 -0.08795
 N1225 N 0.48523 -0.18818 -0.10931
 N1226 N 0.48750 -0.20691 -0.12153
 C1227 C 0.49539 -0.22683 -0.11278
 N1228 N 0.50095 -0.22718 -0.09130
 C1229 C 0.48985 -0.16826 -0.07543
 C1230 C 0.48970 -0.15045 -0.06567
 C1231 C 0.49011 -0.12869 -0.05520
 N1232 N 0.47800 -0.11104 -0.06370
 N1233 N 0.47959 -0.09016 -0.05496
 C1234 C 0.49348 -0.08631 -0.03755
 N1235 N 0.50556 -0.10406 -0.02902
 N1236 N 0.50397 -0.12497 -0.03779
 N1237 N 0.03390 -0.20900 1.08793
 C1238 C 0.01888 -0.19127 1.08786
 N1239 N -0.00029 -0.19231 1.10034
 N1240 N -0.00443 -0.21062 1.11264
 C1241 C 0.01054 -0.22848 1.11294
 N1242 N 0.02976 -0.22735 1.10026
 C1243 C 0.02264 -0.17169 1.07462
 C1244 C 0.02390 -0.15443 1.06415
 C1245 C 0.02311 -0.13326 1.05281
 N1246 N 0.00949 -0.13128 1.03503
 N1247 N 0.00577 -0.11073 1.02628
 C1248 C 0.01530 -0.09156 1.03527
 N1249 N 0.02908 -0.09364 1.05299
 N1250 N 0.03279 -0.11418 1.06172
 N1251 N 0.49885 0.29232 0.58444
 C1252 C 0.51859 0.30433 0.58789
 N1253 N 0.53330 0.29758 0.60370
 N1254 N 0.52841 0.27910 0.61563
 C1255 C 0.50860 0.26687 0.61222
 N1256 N 0.49395 0.27391 0.59638
 C1257 C 0.52223 0.32529 0.57658
 C1258 C 0.52324 0.34335 0.56733
 C1259 C 0.52203 0.36499 0.55678
 N1260 N 0.53111 0.38403 0.56633
 N1261 N 0.52740 0.40470 0.55782
 C1262 C 0.51424 0.40693 0.53970
 N1263 N 0.50528 0.38780 0.53013
 N1264 N 0.50901 0.36715 0.53863
 N1265 N 0.50332 1.18896 0.59965
 C1266 C 0.48581 1.19058 0.58522
 N1267 N 0.47322 1.21008 0.58432
 N1268 N 0.47829 1.22765 0.59744
 C1269 C 0.49615 1.22631 0.61177
 N1270 N 0.50837 1.20648 0.61272
 C1271 C 0.48124 1.17171 0.57117
 C1272 C 0.47939 1.15461 0.56047
 C1273 C 0.47949 1.13311 0.54951
 N1274 N 0.46875 1.11480 0.55868
 N1275 N 0.47215 1.09375 0.55091
 C1276 C 0.48667 1.09034 0.53395
 N1277 N 0.49723 1.10874 0.52462
 N1278 N 0.49384 1.12982 0.53243
 N1279 N -0.01386 0.71354 1.07996
 C1280 C 0.00066 0.69548 1.08132
 N1281 N 0.01693 0.69510 1.09709
 N1282 N 0.01865 0.71234 1.11123
 C1283 C 0.00396 0.73042 1.11020
 N1284 N -0.01214 0.73082 1.09410
 C1285 C -0.00221 0.67604 1.06759
 C1286 C -0.00421 0.65865 1.05733
 C1287 C -0.00586 0.63694 1.04687
 N1288 N 0.00732 0.63227 1.02927
 N1289 N 0.00788 0.61104 1.02117
 C1290 C -0.00453 0.59386 1.03059
 N1291 N -0.01785 0.59866 1.04811
 N1292 N -0.01843 0.61988 1.05618
 N1293 N 0.53318 0.70470 -0.10275
 C1294 C 0.51801 0.69615 -0.08805
 N1295 N 0.49690 0.70570 -0.08612
 N1296 N 0.49104 0.72341 -0.09848
 C1297 C 0.50605 0.73208 -0.11334
 N1298 N 0.52733 0.72251 -0.11512
 C1299 C 0.52290 0.67588 -0.07615
 C1300 C 0.52457 0.65826 -0.06628
 C1301 C 0.52368 0.63699 -0.05502
 N1302 N 0.51071 0.63521 -0.03679
 N1303 N 0.50671 0.61474 -0.02790
 C1304 C 0.51532 0.59542 -0.03715
 N1305 N 0.52847 0.59727 -0.05532
 N1306 N 0.53244 0.61776 -0.06423
 N1307 N 0.00246 1.20537 0.42056
 C1308 C 0.02365 1.19607 0.41840
 N1309 N 0.03765 1.20325 0.40213
 N1310 N 0.03061 1.21948 0.38845
 C1311 C 0.00918 1.22869 0.39035
 N1312 N -0.00460 1.22149 0.40688
 C1313 C 0.02904 1.17619 0.43069
 C1314 C 0.03090 1.15837 0.44019
 C1315 C 0.02995 1.13640 0.45017
 N1316 N 0.03854 1.11788 0.43960
 N1317 N 0.03387 1.09673 0.44664
 C1318 C 0.02010 1.09348 0.46422
 N1319 N 0.01169 1.11207 0.47489
 N1320 N 0.01639 1.13321 0.46785
 N1321 N 0.73072 0.68858 0.95819
 C1322 C 0.74666 0.68745 0.94213
 N1323 N 0.76493 0.67320 0.94456
 N1324 N 0.76718 0.66045 0.96243
 C1325 C 0.75124 0.66145 0.97863
 N1326 N 0.73299 0.67585 0.97607
 C1327 C 0.74315 0.69927 0.92182
 C1328 C 0.74054 0.70759 0.90398
 C1329 C 0.73833 0.71496 0.88172
 N1330 N 0.74263 0.69957 0.86575
 N1331 N 0.74172 0.70584 0.84502
 C1332 C 0.73637 0.72774 0.83932
 N1333 N 0.73180 0.74324 0.85533
 N1334 N 0.73276 0.73692 0.87623
 N1335 N 0.26605 0.17350 0.44390
 C1336 C 0.24804 0.18811 0.44158
 N1337 N 0.23222 0.18952 0.45772
 N1338 N 0.23433 0.17671 0.47555
 C1339 C 0.25231 0.16196 0.47800
 N1340 N 0.26816 0.16068 0.46175
 C1341 C 0.24450 0.19998 0.42131
 C1342 C 0.24160 0.20838 0.40356
 C1343 C 0.23875 0.21587 0.38142
 N1344 N 0.23474 0.23823 0.37613
 N1345 N 0.23338 0.24465 0.35528
 C1346 C 0.23596 0.22884 0.33912
 N1347 N 0.23971 0.20655 0.34463
 N1348 N 0.24101 0.20019 0.36532
 N1349 N 0.74310 0.33339 0.44224
 C1350 C 0.74660 0.31045 0.44435
 N1351 N 0.74964 0.30154 0.46448
 N1352 N 0.74942 0.31523 0.48191
 C1353 C 0.74595 0.33832 0.47994
 N1354 N 0.74288 0.34707 0.45966
 C1355 C 0.74734 0.29601 0.42531
 C1356 C 0.74753 0.28523 0.40849
 C1357 C 0.74668 0.27462 0.38734
 N1358 N 0.76268 0.25906 0.38073
 N1359 N 0.76294 0.25153 0.36015
 C1360 C 0.74725 0.25946 0.34558
 N1361 N 0.73118 0.27474 0.35245
 N1362 N 0.73087 0.28213 0.37289
 N1363 N 0.24990 0.83817 0.94234
 C1364 C 0.25130 0.81492 0.94357
 N1365 N 0.25157 0.80482 0.96342
 N1366 N 0.25065 0.81762 0.98143
 C1367 C 0.24922 0.84100 0.98031
 N1368 N 0.24897 0.85097 0.96032
 C1369 C 0.25220 0.80141 0.92390
 C1370 C 0.25242 0.79162 0.90653
 C1371 C 0.25159 0.78249 0.88474
 N1372 N 0.26301 0.76306 0.87879
 N1373 N 0.26273 0.75587 0.85809
 C1374 C 0.25107 0.76798 0.84274
 N1375 N 0.23966 0.78724 0.84893
 N1376 N 0.23989 0.79434 0.86947
 N1377 N 0.22941 0.81496 0.04340
 C1378 C 0.24640 0.81626 0.05851
 N1379 N 0.26488 0.83016 0.05470
 N1380 N 0.26636 0.84235 0.03639
 C1381 C 0.24936 0.84113 0.02116
 N1382 N 0.23088 0.82713 0.02510
 C1383 C 0.24399 0.80470 0.07912
 C1384 C 0.24226 0.79637 0.09706
 C1385 C 0.24100 0.78873 0.11932
 N1386 N 0.24667 0.80377 0.13528
 N1387 N 0.24636 0.79724 0.15597
 C1388 C 0.24030 0.77544 0.16163
 N1389 N 0.23442 0.76028 0.14563
 N1390 N 0.23475 0.76686 0.12478
 N1391 N 0.72836 0.31522 0.54390
 C1392 C 0.74682 0.31472 0.55739
 N1393 N 0.76600 0.32706 0.55212
 N1394 N 0.76672 0.33946 0.53389
 C1395 C 0.74818 0.34012 0.52034
 N1396 N 0.72907 0.32760 0.52570
 C1397 C 0.74533 0.30298 0.57795
 C1398 C 0.74414 0.29450 0.59584
 C1399 C 0.74335 0.28679 0.61805
 N1400 N 0.75011 0.30153 0.63387
 N1401 N 0.74966 0.29513 0.65457
 C1402 C 0.74237 0.27374 0.66040
 N1403 N 0.73547 0.25885 0.64453
 N1404 N 0.73592 0.26532 0.62366
 N1405 N 0.23726 0.18887 0.54065
 C1406 C 0.25494 0.18680 0.55498
 N1407 N 0.27162 0.17117 0.55094
 N1408 N 0.27087 0.15826 0.53305
 C1409 C 0.25335 0.16030 0.51844
 N1410 N 0.23652 0.17594 0.52269
 C1411 C 0.25519 0.19945 0.57514
 C1412 C 0.25540 0.20845 0.59286
 C1413 C 0.25501 0.21662 0.61497
 N1414 N 0.24432 0.20357 0.63014
 N1415 N 0.24453 0.20988 0.65090
 C1416 C 0.25545 0.22947 0.65742
 N1417 N 0.26616 0.24272 0.64220
 N1418 N 0.26599 0.23633 0.62128
 N1419 N 0.73618 0.68799 0.04161
 C1420 C 0.75356 0.68552 0.05621
 N1421 N 0.77026 0.66992 0.05215
 N1422 N 0.76979 0.65739 0.03402
 C1423 C 0.75256 0.65980 0.01915
 N1424 N 0.73573 0.67544 0.02341
 C1425 C 0.75350 0.69773 0.07662
 C1426 C 0.75356 0.70641 0.09449
 C1427 C 0.75320 0.71440 0.11667
 N1428 N 0.74178 0.70172 0.13167
 N1429 N 0.74226 0.70773 0.15252
 C1430 C 0.75417 0.72665 0.15929
 N1431 N 0.76556 0.73953 0.14423
 N1432 N 0.76513 0.73344 0.12324
 N1433 N 0.14915 0.54599 0.22924
 C1434 C 0.14690 0.56311 0.24411
 N1435 N 0.13208 0.56004 0.26095
 N1436 N 0.11975 0.54064 0.26275
 C1437 C 0.12187 0.52341 0.24786
 N1438 N 0.13683 0.52660 0.23104
 C1439 C 0.15991 0.58433 0.24202
 C1440 C 0.17077 0.60220 0.24085
 C1441 C 0.18384 0.62351 0.24069
 N1442 N 0.19587 0.62988 0.25862
 N1443 N 0.20747 0.64975 0.25909
 C1444 C 0.20758 0.66409 0.24166
 N1445 N 0.19558 0.65767 0.22359
 N1446 N 0.18391 0.63772 0.22313
 N1447 N 0.64932 0.04501 0.72953
 C1448 C 0.64757 0.06220 0.74438
 N1449 N 0.63314 0.05931 0.76154
 N1450 N 0.62071 0.04002 0.76367
 C1451 C 0.62232 0.02271 0.74881
 N1452 N 0.63689 0.02571 0.73165
 C1453 C 0.66070 0.08334 0.74196
 C1454 C 0.67161 0.10118 0.74060
 C1455 C 0.68468 0.12251 0.74029
 N1456 N 0.69634 0.12924 0.75833
 N1457 N 0.70781 0.14918 0.75871
 C1458 C 0.70817 0.16325 0.74108
 N1459 N 0.69656 0.15647 0.72290
 N1460 N 0.68501 0.13644 0.72253
 N1461 N 0.87834 0.05859 0.25201
 C1462 C 0.85524 0.05716 0.25535
 N1463 N 0.84496 0.03609 0.25532
 N1464 N 0.85741 0.01709 0.25240
 C1465 C 0.88063 0.01839 0.24913
 N1466 N 0.89078 0.03961 0.24909
 C1467 C 0.84185 0.07781 0.25854
 C1468 C 0.83075 0.09530 0.26053
 C1469 C 0.81753 0.11630 0.26138
 N1470 N 0.80771 0.12430 0.24295
 N1471 N 0.79611 0.14398 0.24308
 C1472 C 0.79376 0.15652 0.26162
 N1473 N 0.80353 0.14847 0.28020
 N1474 N 0.81522 0.12868 0.28006
 N1475 N 0.37658 0.56239 0.75461
 C1476 C 0.35333 0.56109 0.75700
 N1477 N 0.34296 0.54007 0.75662
 N1478 N 0.35543 0.52100 0.75421
 C1479 C 0.37879 0.52217 0.75187
 N1480 N 0.38905 0.54334 0.75221
 C1481 C 0.33984 0.58177 0.75962
 C1482 C 0.32850 0.59916 0.76122
 C1483 C 0.31485 0.61991 0.76177
 N1484 N 0.30332 0.62646 0.74369
 N1485 N 0.29132 0.64591 0.74351
 C1486 C 0.29026 0.65965 0.76140
 N1487 N 0.30171 0.65303 0.77963
 N1488 N 0.31380 0.63348 0.77980
 N1489 N 0.35238 0.45583 0.73032
 C1490 C 0.35454 0.43853 0.74493
 N1491 N 0.36878 0.44162 0.76224
 N1492 N 0.38064 0.46124 0.76475
 C1493 C 0.37858 0.47866 0.75012
 N1494 N 0.36423 0.47544 0.73282
 C1495 C 0.34188 0.41717 0.74216
 C1496 C 0.33122 0.39923 0.74047
 C1497 C 0.31828 0.37785 0.73986
 N1498 N 0.31730 0.36450 0.72167
 N1499 N 0.30566 0.34451 0.72171
 C1500 C 0.29460 0.33723 0.73998
 N1501 N 0.29564 0.35073 0.75804
 N1502 N 0.30720 0.37061 0.75799
 N1503 N 0.85417 0.95159 0.22877
 C1504 C 0.85697 0.93447 0.24347
 N1505 N 0.87176 0.93786 0.26032
 N1506 N 0.88352 0.95759 0.26229
 C1507 C 0.88082 0.97485 0.24758
 N1508 N 0.86592 0.97132 0.23074
 C1509 C 0.84443 0.91296 0.24131
 C1510 C 0.83393 0.89487 0.24018
 C1511 C 0.82133 0.87329 0.24022
 N1512 N 0.81888 0.86030 0.22192
 N1513 N 0.80747 0.84020 0.22248
 C1514 C 0.79813 0.83242 0.24140
 N1515 N 0.80064 0.84554 0.25958
 N1516 N 0.81198 0.86554 0.25902
 N1517 N 0.62069 0.93877 0.75235
 C1518 C 0.64398 0.93896 0.75452
 N1519 N 0.65534 0.95948 0.75425
 N1520 N 0.64377 0.97915 0.75214
 C1521 C 0.62037 0.97909 0.75000
 N1522 N 0.60913 0.95841 0.75024
 C1523 C 0.65644 0.91759 0.75681
 C1524 C 0.66681 0.89958 0.75815
 C1525 C 0.67930 0.87810 0.75848
 N1526 N 0.69068 0.87119 0.74043
 N1527 N 0.70185 0.85124 0.74015
 C1528 C 0.70217 0.83734 0.75790
 N1529 N 0.69080 0.84429 0.77609
 N1530 N 0.67956 0.86434 0.77635
 N1531 N 0.12084 0.43948 0.25065
 C1532 C 0.14406 0.43986 0.25338
 N1533 N 0.15523 0.46049 0.25357
 N1534 N 0.14353 0.48007 0.25136
 C1535 C 0.12020 0.47981 0.24866
 N1536 N 0.10914 0.45904 0.24844
 C1537 C 0.15668 0.41861 0.25581
 C1538 C 0.16725 0.40073 0.25731
 C1539 C 0.18004 0.37943 0.25786
 N1540 N 0.19212 0.37282 0.24011
 N1541 N 0.20353 0.35301 0.24002
 C1542 C 0.20339 0.33895 0.25765
 N1543 N 0.19133 0.34559 0.27554
 N1544 N 0.17985 0.36550 0.27562
 N1545 N 0.05961 0.25188 0.85847
 C1546 C 0.05845 0.23661 0.84188
 N1547 N 0.03836 0.22543 0.83770
 N1548 N 0.01983 0.22956 0.84984
 C1549 C 0.02078 0.24512 0.86639
 N1550 N 0.04113 0.25601 0.87056
 C1551 C 0.07814 0.23333 0.82858
 C1552 C 0.09547 0.23219 0.81811
 C1553 C 0.11675 0.23266 0.80673
 N1554 N 0.11942 0.24671 0.78936
 N1555 N 0.14008 0.24946 0.78030
 C1556 C 0.15870 0.23845 0.78853
 N1557 N 0.15592 0.22429 0.80586
 N1558 N 0.13526 0.22155 0.81491
 N1559 N 0.56299 0.74590 0.36421
 C1560 C 0.56263 0.73087 0.34741
 N1561 N 0.54261 0.72029 0.34182
 N1562 N 0.52336 0.72477 0.35276
 C1563 C 0.52345 0.74022 0.36942
 N1564 N 0.54377 0.75040 0.37510
 C1565 C 0.58288 0.72794 0.33482
 C1566 C 0.60042 0.72729 0.32463
 C1567 C 0.62161 0.72851 0.31319
 N1568 N 0.62383 0.74298 0.29609
 N1569 N 0.64426 0.74609 0.28669
 C1570 C 0.66311 0.73499 0.29431
 N1571 N 0.66081 0.72045 0.31142
 N1572 N 0.64037 0.71736 0.32082
 N1573 N 0.54122 0.26202 0.16762
 C1574 C 0.56039 0.26879 0.15678
 N1575 N 0.55926 0.27276 0.13515
 N1576 N 0.53940 0.27000 0.12460
 C1577 C 0.52006 0.26305 0.13533
 N1578 N 0.52137 0.25925 0.15709
 C1579 C 0.58206 0.26868 0.16749
 C1580 C 0.60025 0.26707 0.17650
 C1581 C 0.62161 0.26365 0.18722
 N1582 N 0.64083 0.27501 0.18060
 N1583 N 0.66096 0.27107 0.19024
 C1584 C 0.66244 0.25554 0.20663
 N1585 N 0.64315 0.24416 0.21314
 N1586 N 0.62303 0.24810 0.20351
 N1587 N 0.05821 0.77103 0.63538
 C1588 C 0.05685 0.77158 0.65732
 N1589 N 0.03629 0.76784 0.66714
 N1590 N 0.01755 0.76354 0.65529
 C1591 C 0.01882 0.76257 0.63323
 N1592 N 0.03949 0.76671 0.62352
 C1593 C 0.07739 0.77259 0.66983
 C1594 C 0.09510 0.77175 0.67976
 C1595 C 0.11646 0.76906 0.69071
 N1596 N 0.11802 0.75444 0.70775
 N1597 N 0.13840 0.75023 0.71681
 C1598 C 0.15781 0.76034 0.70889
 N1599 N 0.15616 0.77500 0.69182
 N1600 N 0.13578 0.77919 0.68277
 N1601 N 0.94270 0.76470 0.64897
 C1602 C 0.94131 0.74540 0.66117
 N1603 N 0.95818 0.72947 0.65987
 N1604 N 0.97604 0.73282 0.64663
 C1605 C 0.97742 0.75207 0.63413
 N1606 N 0.96050 0.76804 0.63574
 C1607 C 0.92163 0.74175 0.67445
 C1608 C 0.90419 0.73987 0.68469
 C1609 C 0.88261 0.73911 0.69556
 N1610 N 0.86476 0.72727 0.68665
 N1611 N 0.84375 0.72882 0.69517
 C1612 C 0.83997 0.74246 0.71272
 N1613 N 0.85794 0.75419 0.72170
 N1614 N 0.87895 0.75264 0.71315
 N1615 N 0.45403 0.26329 0.16615
 C1616 C 0.44434 0.24204 0.16639
 N1617 N 0.45212 0.22568 0.15258
 N1618 N 0.46928 0.23047 0.13891
 C1619 C 0.47894 0.25187 0.13843
 N1620 N 0.47113 0.26810 0.15249
 C1621 C 0.42417 0.23816 0.17895
 C1622 C 0.40632 0.23653 0.18860
 C1623 C 0.38436 0.23650 0.19880
 N1624 N 0.36634 0.22554 0.18920
 N1625 N 0.34511 0.22800 0.19701
 C1626 C 0.34127 0.24173 0.21448
 N1627 N 0.35939 0.25258 0.22414
 N1628 N 0.38062 0.25011 0.21631
 N1629 N 0.45430 0.77597 0.35236
 C1630 C 0.44758 0.75980 0.33777
 N1631 N 0.45838 0.73925 0.33727
 N1632 N 0.47562 0.73501 0.35091
 C1633 C 0.48258 0.75114 0.36558
 N1634 N 0.47156 0.77173 0.36600
 C1635 C 0.42749 0.76314 0.32497
 C1636 C 0.40980 0.76473 0.31507
 C1637 C 0.38805 0.76516 0.30446
 N1638 N 0.38435 0.75208 0.28654
 N1639 N 0.36329 0.75029 0.27807
 C1640 C 0.34528 0.76133 0.28745
 N1641 N 0.34909 0.77452 0.30534
 N1642 N 0.37015 0.77631 0.31378
 N1643 N 0.94151 0.27000 0.86330
 C1644 C 0.94339 0.27062 0.84139
 N1645 N 0.96364 0.26502 0.83190
 N1646 N 0.98156 0.25888 0.84405
 C1647 C 0.97969 0.25776 0.86605
 N1648 N 0.95940 0.26384 0.87543
 C1649 C 0.92329 0.27357 0.82853
 C1650 C 0.90569 0.27421 0.81839
 C1651 C 0.88420 0.27298 0.80735
 N1652 N 0.88176 0.25909 0.78978
 N1653 N 0.86104 0.25557 0.78103
 C1654 C 0.84213 0.26561 0.78978
 N1655 N 0.84467 0.27961 0.80732
 N1656 N 0.86538 0.28312 0.81607
 N1657 N 0.56439 1.02392 0.70906
 C1658 C 0.56547 1.00807 0.69291
 N1659 N 0.57940 0.98958 0.69544
 N1660 N 0.59187 0.98703 0.71349
 C1661 C 0.59090 1.00290 0.72976
 N1662 N 0.57684 1.02137 0.72712
 C1663 C 0.55369 1.01175 0.67257
 C1664 C 0.54515 1.01459 0.65484
 C1665 C 0.53711 1.01722 0.63282
 N1666 N 0.55271 1.01705 0.61648
 N1667 N 0.54581 1.01737 0.59587
 C1668 C 0.52303 1.01802 0.59070
 N1669 N 0.50731 1.01859 0.60711
 N1670 N 0.51425 1.01820 0.62785
 N1671 N 0.06500 0.52496 1.20704
 C1672 C 0.06672 0.50948 1.19063
 N1673 N 0.08070 0.49103 1.19318
 N1674 N 0.09263 0.48818 1.21152
 C1675 C 0.09104 0.50369 1.22804
 N1676 N 0.07692 0.52212 1.22537
 C1677 C 0.05552 0.51354 1.17008
 C1678 C 0.04740 0.51672 1.15223
 C1679 C 0.03972 0.51973 1.13015
 N1680 N 0.05544 0.51891 1.11393
 N1681 N 0.04875 0.51953 1.09327
 C1682 C 0.02607 0.52115 1.08793
 N1683 N 0.01025 0.52240 1.10421
 N1684 N 0.01698 0.52171 1.12500
 N1685 N -0.07919 0.00983 1.19358
 C1686 C -0.06430 -0.00786 1.19081
 N1687 N -0.06198 -0.02352 1.20695
 N1688 N -0.07416 -0.02155 1.22523
 C1689 C -0.08918 -0.00387 1.22811
 N1690 N -0.09140 0.01181 1.21185
 C1691 C -0.05274 -0.01104 1.17028
 C1692 C -0.04435 -0.01361 1.15245
 C1693 C -0.03649 -0.01611 1.13035
 N1694 N -0.01370 -0.01758 1.12526
 N1695 N -0.00692 -0.01828 1.10448
 C1696 C -0.02275 -0.01756 1.08817
 N1697 N -0.04547 -0.01637 1.09346
 N1698 N -0.05220 -0.01573 1.11410
 N1699 N 0.42003 0.51285 0.69703
 C1700 C 0.43472 0.49492 0.69463
 N1701 N 0.43661 0.47942 0.71094
 N1702 N 0.42418 0.48173 0.72903
 C1703 C 0.40934 0.49962 0.73155
 N1704 N 0.40758 0.51517 0.71513
 C1705 C 0.44635 0.49120 0.67422
 C1706 C 0.45478 0.48801 0.65649
 C1707 C 0.46269 0.48465 0.63451
 N1708 N 0.48551 0.48360 0.62945
 N1709 N 0.49230 0.48218 0.60871
 C1710 C 0.47644 0.48170 0.59240
 N1711 N 0.45369 0.48244 0.59767
 N1712 N 0.44695 0.48381 0.61828
 N1713 N 0.40910 0.50361 -0.18966
 C1714 C 0.43223 0.50726 -0.19018
 N1715 N 0.44313 0.50769 -0.20967
 N1716 N 0.43120 0.50477 -0.22804
 C1717 C 0.40793 0.50116 -0.22764
 N1718 N 0.39717 0.50071 -0.20800
 C1719 C 0.44466 0.51128 -0.17020
 C1720 C 0.45360 0.51457 -0.15268
 C1721 C 0.46191 0.51796 -0.13081
 N1722 N 0.48482 0.51840 -0.12593
 N1723 N 0.49187 0.51969 -0.10525
 C1724 C 0.47620 0.52058 -0.08881
 N1725 N 0.45339 0.52043 -0.09390
 N1726 N 0.44639 0.51923 -0.11445
 N1727 N -0.05419 1.00589 0.28610
 C1728 C -0.06464 1.00536 0.30581
 N1729 N -0.08760 1.00086 0.30685
 N1730 N -0.09982 0.99728 0.28879
 C1731 C -0.08953 0.99787 0.26893
 N1732 N -0.06642 1.00229 0.26800
 C1733 C -0.05201 1.01034 0.32547
 C1734 C -0.04295 1.01443 0.34278
 C1735 C -0.03449 1.01868 0.36445
 N1736 N -0.04990 1.02160 0.38071
 N1737 N -0.04288 1.02297 0.40125
 C1738 C -0.02013 1.02166 0.40639
 N1739 N -0.00455 1.01922 0.39003
 N1740 N -0.01163 1.01776 0.36938
 N1741 N 0.08911 0.49873 0.30676
 C1742 C 0.06584 0.49640 0.30571
 N1743 N 0.05539 0.49676 0.28598
 N1744 N 0.06789 0.49918 0.26790
 C1745 C 0.09129 0.50151 0.26886
 N1746 N 0.10160 0.50115 0.28872
 C1747 C 0.05279 0.49334 0.32544
 C1748 C 0.04358 0.49104 0.34294
 C1749 C 0.03531 0.48907 0.36494
 N1750 N 0.01258 0.48596 0.36978
 N1751 N 0.00551 0.48556 0.39049
 C1752 C 0.02100 0.48826 0.40696
 N1753 N 0.04364 0.49110 0.40191
 N1754 N 0.05066 0.49144 0.38136
 N1755 N 0.55660 -0.00342 -0.21153
 C1756 C 0.56751 -0.00373 -0.19202
 N1757 N 0.59080 -0.00144 -0.19146
 N1758 N 0.60286 0.00086 -0.20976
 C1759 C 0.59211 0.00116 -0.22941
 N1760 N 0.56868 -0.00111 -0.22987
 C1761 C 0.55488 -0.00668 -0.17202
 C1762 C 0.54589 -0.00885 -0.15440
 C1763 C 0.53767 -0.01058 -0.13236
 N1764 N 0.55289 -0.00737 -0.11595
 N1765 N 0.54580 -0.00742 -0.09541
 C1766 C 0.52322 -0.01079 -0.09037
 N1767 N 0.50789 -0.01433 -0.10682
 N1768 N 0.51502 -0.01423 -0.12751
 N1769 N 0.69568 0.61638 0.01136
 C1770 C 0.69171 0.60372 -0.00685
 N1771 N 0.70756 0.60422 -0.02305
 N1772 N 0.72661 0.61708 -0.02117
 C1773 C 0.73064 0.62997 -0.00302
 N1774 N 0.71475 0.62927 0.01325
 C1775 C 0.67090 0.59004 -0.00900
 C1776 C 0.65336 0.57865 -0.01041
 C1777 C 0.63232 0.56516 -0.01109
 N1778 N 0.62641 0.55194 0.00618
 N1779 N 0.60637 0.54056 0.00643
 C1780 C 0.59147 0.54182 -0.01059
 N1781 N 0.59752 0.55489 -0.02802
 N1782 N 0.61761 0.56634 -0.02827
 N1783 N 0.19638 1.11662 0.51028
 C1784 C 0.19260 1.10407 0.49195
 N1785 N 0.20842 1.10494 0.47576
 N1786 N 0.22731 1.11799 0.47777
 C1787 C 0.23120 1.13073 0.49604
 N1788 N 0.21531 1.12971 0.51230
 C1789 C 0.17214 1.08993 0.48968
 C1790 C 0.15502 1.07801 0.48790
 C1791 C 0.13453 1.06379 0.48648
 N1792 N 0.12920 1.04917 0.50289
 N1793 N 0.10964 1.03698 0.50242
 C1794 C 0.09469 1.03880 0.48549
 N1795 N 0.10017 1.05329 0.46891
 N1796 N 0.11978 1.06553 0.46939
 N1797 N 0.20734 -0.10068 1.02121
 C1798 C 0.19015 -0.10196 1.00629
 N1799 N 0.19239 -0.11665 0.98924
 N1800 N 0.21116 -0.12967 0.98722
 C1801 C 0.22852 -0.12843 1.00211
 N1802 N 0.22610 -0.11368 1.01919
 C1803 C 0.16979 -0.08790 1.00846
 C1804 C 0.15265 -0.07616 1.00984
 C1805 C 0.13208 -0.06224 1.01051
 N1806 N 0.12662 -0.04883 0.99329
 N1807 N 0.10698 -0.03705 0.99304
 C1808 C 0.09203 -0.03809 1.01003
 N1809 N 0.09763 -0.05136 1.02743
 N1810 N 0.11732 -0.06320 1.02766
 N1811 N 0.70765 0.39927 0.52070
 C1812 C 0.68941 0.39739 0.50700
 N1813 N 0.69045 0.38204 0.49037
 N1814 N 0.70903 0.36891 0.48763
 C1815 C 0.72743 0.37070 0.50131
 N1816 N 0.72622 0.38615 0.51796
 C1817 C 0.66915 0.41140 0.51007
 C1818 C 0.65205 0.42308 0.51216
 C1819 C 0.63149 0.43696 0.51351
 N1820 N 0.62607 0.45122 0.49692
 N1821 N 0.60637 0.46289 0.49712
 C1822 C 0.59132 0.46089 0.51396
 N1823 N 0.59688 0.44678 0.53076
 N1824 N 0.61664 0.43504 0.53053
 N1825 N -0.20491 0.39829 0.50959
 C1826 C -0.19072 0.39508 0.49230
 N1827 N -0.19609 0.37845 0.47765
 N1828 N -0.21509 0.36564 0.48006
 C1829 C -0.22959 0.36886 0.49722
 N1830 N -0.22395 0.38546 0.51200
 C1831 C -0.17015 0.40901 0.48962
 C1832 C -0.15284 0.42067 0.48776
 C1833 C -0.13213 0.43465 0.48669
 N1834 N -0.11771 0.43379 0.46927
 N1835 N -0.09796 0.44587 0.46915
 C1836 C -0.09200 0.45924 0.48648
 N1837 N -0.10662 0.46014 0.50373
 N1838 N -0.12628 0.44814 0.50383
 N1839 N 0.29042 -0.09366 -0.00551
 C1840 C 0.31125 -0.10410 -0.00651
 N1841 N 0.31217 -0.12733 -0.00447
 N1842 N 0.29290 -0.13971 -0.00172
 C1843 C 0.27191 -0.12935 -0.00070
 N1844 N 0.27115 -0.10602 -0.00277
 C1845 C 0.33211 -0.09061 -0.00927
 C1846 C 0.34951 -0.07905 -0.01098
 C1847 C 0.37017 -0.06495 -0.01176
 N1848 N 0.38489 -0.06573 -0.02895
 N1849 N 0.40441 -0.05329 -0.02890
 C1850 C 0.40983 -0.03960 -0.01164
 N1851 N 0.39493 -0.03881 0.00540
 N1852 N 0.37549 -0.05117 0.00533
 N1853 N 0.29108 1.09426 0.50375
 C1854 C 0.31249 1.10372 0.50242
 N1855 N 0.31458 1.12658 0.49829
 N1856 N 0.29587 1.13960 0.49590
 C1857 C 0.27430 1.13025 0.49733
 N1858 N 0.27239 1.10727 0.50136
 C1859 C 0.33268 1.08969 0.50558
 C1860 C 0.34954 1.07775 0.50793
 C1861 C 0.36965 1.06335 0.50977
 N1862 N 0.38451 1.06550 0.52678
 N1863 N 0.40378 1.05300 0.52755
 C1864 C 0.40878 1.03786 0.51135
 N1865 N 0.39370 1.03565 0.49453
 N1866 N 0.37450 1.04808 0.49378
 N1867 N -0.20822 0.59468 1.00355
 C1868 C -0.18708 0.60477 1.00227
 N1869 N -0.18567 0.62773 0.99852
 N1870 N -0.20476 0.64025 0.99645
 C1871 C -0.22606 0.63029 0.99781
 N1872 N -0.22731 0.60719 1.00147
 C1873 C -0.16640 0.59132 1.00499
 C1874 C -0.14901 0.58004 1.00691
 C1875 C -0.12826 0.56646 1.00819
 N1876 N -0.11320 0.56887 1.02502
 N1877 N -0.09350 0.55703 1.02536
 C1878 C -0.08822 0.54235 1.00887
 N1879 N -0.10346 0.53992 0.99220
 N1880 N -0.12309 0.55169 0.99188
 N1881 N 0.02668 0.70346 0.59778
 C1882 C 0.00988 0.69450 0.58498
 N1883 N -0.01063 0.70534 0.58343
 N1884 N -0.01423 0.72479 0.59426
 C1885 C 0.00258 0.73407 0.60702
 N1886 N 0.02308 0.72293 0.60862
 C1887 C 0.01314 0.67328 0.57401
 C1888 C 0.01455 0.65518 0.56485
 C1889 C 0.01448 0.63353 0.55415
 N1890 N 0.00232 0.63079 0.53553
 N1891 N 0.00009 0.61006 0.52655
 C1892 C 0.00985 0.59146 0.53604
 N1893 N 0.02219 0.59429 0.55462
 N1894 N 0.02439 0.61504 0.56360
 N1895 N 0.52556 0.20882 0.09376
 C1896 C 0.50859 0.20217 0.07997
 N1897 N 0.48839 0.21370 0.07980
 N1898 N 0.48528 0.23156 0.09300
 C1899 C 0.50223 0.23841 0.10691
 N1900 N 0.52246 0.22666 0.10696
 C1901 C 0.51083 0.18154 0.06778
 C1902 C 0.51185 0.16343 0.05856
 C1903 C 0.51189 0.14125 0.04884
 N1904 N 0.49919 0.13712 0.03076
 N1905 N 0.49717 0.11581 0.02301
 C1906 C 0.50760 0.09802 0.03324
 N1907 N 0.52043 0.10226 0.05127
 N1908 N 0.52245 0.12357 0.05902
 N1909 N -0.00159 0.18976 0.90111
 C1910 C -0.02051 0.18989 0.91397
 N1911 N -0.03307 0.20934 0.91585
 N1912 N -0.02684 0.22817 0.90497
 C1913 C -0.00784 0.22816 0.89196
 N1914 N 0.00464 0.20855 0.89029
 C1915 C -0.02596 0.16992 0.92622
 C1916 C -0.02819 0.15231 0.93605
 C1917 C -0.02789 0.13077 0.94686
 N1918 N -0.03554 0.11163 0.93643
 N1919 N -0.03131 0.09091 0.94459
 C1920 C -0.01898 0.08873 0.96322
 N1921 N -0.01160 0.10794 0.97376
 N1922 N -0.01586 0.12866 0.96561
 N1923 N 0.46618 0.70642 0.41651
 C1924 C 0.47994 0.68776 0.41794
 N1925 N 0.50058 0.68775 0.40769
 N1926 N 0.50736 0.70589 0.39621
 C1927 C 0.49370 0.72468 0.39457
 N1928 N 0.47297 0.72462 0.40498
 C1929 C 0.47349 0.66821 0.43039
 C1930 C 0.47064 0.65074 0.44033
 C1931 C 0.47052 0.62923 0.45121
 N1932 N 0.48232 0.62706 0.47009
 N1933 N 0.48662 0.60633 0.47817
 C1934 C 0.47954 0.58712 0.46742
 N1935 N 0.46742 0.58934 0.44868
 N1936 N 0.46314 0.61009 0.44060
 N1937 N 0.50879 0.78131 0.43186
 C1938 C 0.51536 0.80176 0.42327
 N1939 N 0.51702 0.80403 0.40146
 N1940 N 0.51243 0.78627 0.38851
 C1941 C 0.50578 0.76567 0.39692
 N1942 N 0.50423 0.76348 0.41889
 C1943 C 0.51837 0.82149 0.43662
 C1944 C 0.51979 0.83923 0.44643
 C1945 C 0.51989 0.86132 0.45630
 N1946 N 0.52953 0.87935 0.44566
 N1947 N 0.52660 0.90070 0.45292
 C1948 C 0.51372 0.90462 0.47093
 N1949 N 0.50430 0.88649 0.48170
 N1950 N 0.50722 0.86515 0.47441
 N1951 N 0.01427 0.30746 0.90231
 C1952 C 0.01543 0.30348 0.92393
 N1953 N 0.01131 0.28203 0.93162
 N1954 N 0.00631 0.26494 0.91791
 C1955 C 0.00496 0.26889 0.89615
 N1956 N 0.00923 0.29046 0.88863
 C1957 C 0.01867 0.32243 0.93820
 C1958 C 0.02016 0.33991 0.94842
 C1959 C 0.02031 0.36207 0.95814
 N1960 N 0.03081 0.37970 0.94763
 N1961 N 0.02768 0.40127 0.95417
 C1962 C 0.01370 0.40585 0.97128
 N1963 N 0.00342 0.38813 0.98198
 N1964 N 0.00651 0.36655 0.97538
 N1965 N 0.46412 0.29656 0.08675
 C1966 C 0.47622 0.31650 0.08820
 N1967 N 0.49532 0.31758 0.10082
 N1968 N 0.50226 0.29919 0.11171
 C1969 C 0.49045 0.27898 0.11019
 N1970 N 0.47106 0.27813 0.09771
 C1971 C 0.47022 0.33599 0.07563
 C1972 C 0.46776 0.35330 0.06544
 C1973 C 0.46813 0.37459 0.05421
 N1974 N 0.48024 0.37638 0.03547
 N1975 N 0.48497 0.39695 0.02710
 C1976 C 0.47803 0.41634 0.03742
 N1977 N 0.46559 0.41449 0.05602
 N1978 N 0.46088 0.39391 0.06440
 N1979 N -0.03028 0.78909 0.57515
 C1980 C -0.01790 0.80891 0.57524
 N1981 N -0.00029 0.81162 0.58948
 N1982 N 0.00492 0.79494 0.60331
 C1983 C -0.00728 0.77490 0.60332
 N1984 N -0.02505 0.77236 0.58901
 C1985 C -0.02331 0.82728 0.56105
 C1986 C -0.02591 0.84424 0.55038
 C1987 C -0.02631 0.86578 0.53963
 N1988 N -0.01336 0.86899 0.52156
 N1989 N -0.00925 0.89013 0.51421
 C1990 C -0.01764 0.90869 0.52496
 N1991 N -0.03094 0.90540 0.54282
 N1992 N -0.03506 0.88426 0.55013
 N1993 N 0.23785 0.32739 0.05205
 C1994 C 0.25727 0.31515 0.05604
 N1995 N 0.27450 0.31545 0.04117
 N1996 N 0.27243 0.32767 0.02297
 C1997 C 0.25311 0.34018 0.01895
 N1998 N 0.23576 0.33962 0.03384
 C1999 C 0.26040 0.30384 0.07664
 C2000 C 0.26297 0.29568 0.09454
 C2001 C 0.26538 0.28806 0.11668
 N2002 N 0.26807 0.26547 0.12185
 N2003 N 0.26864 0.25882 0.14265
 C2004 C 0.26658 0.27458 0.15891
 N2005 N 0.26421 0.29711 0.15355
 N2006 N 0.26370 0.30372 0.13288
 N2007 N 0.73842 0.81239 0.54278
 C2008 C 0.75741 0.81420 0.55563
 N2009 N 0.77422 0.82941 0.55017
 N2010 N 0.77219 0.84236 0.53246
 C2011 C 0.75314 0.84089 0.51954
 N2012 N 0.73640 0.82536 0.52497
 C2013 C 0.75904 0.80194 0.57592
 C2014 C 0.76071 0.79343 0.59377
 C2015 C 0.76238 0.78588 0.61600
 N2016 N 0.76659 0.76359 0.62138
 N2017 N 0.76718 0.75712 0.64223
 C2018 C 0.76369 0.77280 0.65834
 N2019 N 0.75976 0.79504 0.65277
 N2020 N 0.75920 0.80146 0.63206
 N2021 N 0.23174 0.68818 0.54020
 C2022 C 0.24682 0.68582 0.55687
 N2023 N 0.26419 0.67042 0.55496
 N2024 N 0.26638 0.65773 0.53701
 C2025 C 0.25129 0.65994 0.52020
 N2026 N 0.23394 0.67550 0.52223
 C2027 C 0.24321 0.69761 0.57720
 C2028 C 0.24045 0.70593 0.59504
 C2029 C 0.23790 0.71340 0.61724
 N2030 N 0.24003 0.69767 0.63327
 N2031 N 0.23908 0.70407 0.65400
 C2032 C 0.23585 0.72644 0.65960
 N2033 N 0.23342 0.74228 0.64351
 N2034 N 0.23443 0.73584 0.62263
 N2035 N 0.76786 0.17234 0.05470
 C2036 C 0.75066 0.18783 0.05719
 N2037 N 0.73489 0.19018 0.04110
 N2038 N 0.73631 0.17744 0.02310
 C2039 C 0.75351 0.16181 0.02048
 N2040 N 0.76927 0.15958 0.03672
 C2041 C 0.74795 0.19968 0.07759
 C2042 C 0.74603 0.20791 0.09554
 C2043 C 0.74463 0.21498 0.11792
 N2044 N 0.73811 0.23654 0.12395
 N2045 N 0.73743 0.24246 0.14498
 C2046 C 0.74324 0.22696 0.16057
 N2047 N 0.74961 0.20549 0.15433
 N2048 N 0.75026 0.19961 0.13347
 N2049 N 0.74138 0.19062 0.95817
 C2050 C 0.75882 0.18718 0.94382
 N2051 N 0.77406 0.17013 0.94764
 N2052 N 0.77221 0.15715 0.96534
 C2053 C 0.75498 0.16054 0.98001
 N2054 N 0.73955 0.17760 0.97597
 C2055 C 0.76041 0.20000 0.92388
 C2056 C 0.76217 0.20890 0.90623
 C2057 C 0.76409 0.21674 0.88414
 N2058 N 0.76224 0.20108 0.86794
 N2059 N 0.76302 0.20767 0.84729
 C2060 C 0.76585 0.23018 0.84195
 N2061 N 0.76803 0.24596 0.85821
 N2062 N 0.76721 0.23932 0.87901
 N2063 N 0.24101 0.68797 0.45714
 C2064 C 0.25883 0.68430 0.44325
 N2065 N 0.27389 0.66724 0.44763
 N2066 N 0.27151 0.65450 0.46545
 C2067 C 0.25392 0.65815 0.47968
 N2068 N 0.23865 0.67519 0.47505
 C2069 C 0.26119 0.69706 0.42329
 C2070 C 0.26370 0.70603 0.40572
 C2071 C 0.26658 0.71416 0.38377
 N2072 N 0.26601 0.69866 0.36735
 N2073 N 0.26733 0.70556 0.34680
 C2074 C 0.26947 0.72823 0.34178
 N2075 N 0.27042 0.74384 0.35828
 N2076 N 0.26905 0.73690 0.37897
 N2077 N 0.72934 0.82469 0.44950
 C2078 C 0.74678 0.81009 0.44491
 N2079 N 0.76578 0.81023 0.45785
 N2080 N 0.76719 0.82446 0.47490
 C2081 C 0.74981 0.83940 0.47942
 N2082 N 0.73076 0.83891 0.46645
 C2083 C 0.74595 0.79669 0.42517
 C2084 C 0.74510 0.78735 0.40759
 C2085 C 0.74461 0.77913 0.38548
 N2086 N 0.75171 0.79354 0.36959
 N2087 N 0.75129 0.78687 0.34893
 C2088 C 0.74366 0.76554 0.34321
 N2089 N 0.73641 0.75097 0.35915
 N2090 N 0.73682 0.75771 0.37998
 N2091 N 0.25427 0.33718 0.94039
 C2092 C 0.24915 0.31440 0.94142
 N2093 N 0.24638 0.30445 0.96118
 N2094 N 0.24842 0.31699 0.97928
 C2095 C 0.25346 0.33994 0.97836
 N2096 N 0.25628 0.34971 0.95846
 C2097 C 0.24537 0.30160 0.92163
 C2098 C 0.24219 0.29262 0.90412
 C2099 C 0.23893 0.28459 0.88216
 N2100 N 0.23687 0.26185 0.87712
 N2101 N 0.23549 0.25503 0.85636
 C2102 C 0.23611 0.27079 0.84003
 N2103 N 0.23788 0.29345 0.84529
 N2104 N 0.23918 0.30022 0.86590
 N2105 N 0.84473 0.46349 0.75583
 C2106 C 0.85471 0.44248 0.75701
 N2107 N 0.87796 0.44098 0.75497
 N2108 N 0.89081 0.45987 0.75208
 C2109 C 0.88093 0.48104 0.75090
 N2110 N 0.85758 0.48239 0.75294
 C2111 C 0.84079 0.42200 0.76006
 C2112 C 0.82911 0.40476 0.76205
 C2113 C 0.81511 0.38412 0.76319
 N2114 N 0.81664 0.36939 0.78028
 N2115 N 0.80467 0.34962 0.78036
 C2116 C 0.79073 0.34394 0.76335
 N2117 N 0.78914 0.35887 0.74644
 N2118 N 0.80104 0.37857 0.74637
 N2119 N 0.37978 0.94171 0.25568
 C2120 C 0.35651 0.94258 0.25786
 N2121 N 0.34598 0.96334 0.25696
 N2122 N 0.35833 0.98260 0.25423
 C2123 C 0.38170 0.98187 0.25207
 N2124 N 0.39213 0.96096 0.25294
 C2125 C 0.34314 0.92172 0.26082
 C2126 C 0.33185 0.90420 0.26275
 C2127 C 0.31820 0.88331 0.26381
 N2128 N 0.30372 0.87795 0.24725
 N2129 N 0.29196 0.85818 0.24729
 C2130 C 0.29411 0.84296 0.26391
 N2131 N 0.30848 0.84842 0.28066
 N2132 N 0.32031 0.86828 0.28061
 N2133 N 0.12145 0.93620 0.74324
 C2134 C 0.14479 0.93760 0.74197
 N2135 N 0.15508 0.95861 0.74318
 N2136 N 0.14245 0.97760 0.74537
 C2137 C 0.11901 0.97634 0.74665
 N2138 N 0.10882 0.95517 0.74544
 C2139 C 0.15847 0.91701 0.73972
 C2140 C 0.16994 0.89970 0.73838
 C2141 C 0.18361 0.87898 0.73795
 N2142 N 0.19606 0.87308 0.75570
 N2143 N 0.20771 0.85340 0.75611
 C2144 C 0.20750 0.83885 0.73878
 N2145 N 0.19518 0.84487 0.72087
 N2146 N 0.18345 0.86461 0.72047
 N2147 N 0.62915 0.43538 0.26168
 C2148 C 0.64655 0.43443 0.24694
 N2149 N 0.65096 0.45317 0.23447
 N2150 N 0.63830 0.47214 0.23655
 C2151 C 0.62082 0.47323 0.25130
 N2152 N 0.61648 0.45435 0.26376
 C2153 C 0.66011 0.41376 0.24459
 C2154 C 0.67141 0.39634 0.24315
 C2155 C 0.68482 0.37544 0.24262
 N2156 N 0.69582 0.36840 0.26083
 N2157 N 0.70731 0.34863 0.26102
 C2158 C 0.70836 0.33509 0.24301
 N2159 N 0.69748 0.34223 0.22465
 N2160 N 0.68592 0.36208 0.22447
 N2161 N 0.63162 0.55271 0.24136
 C2162 C 0.64679 0.55491 0.25807
 N2163 N 0.64896 0.53727 0.27229
 N2164 N 0.63617 0.51823 0.27006
 C2165 C 0.62067 0.51598 0.25351
 N2166 N 0.61881 0.53365 0.23913
 C2167 C 0.66043 0.57568 0.26063
 C2168 C 0.67186 0.59316 0.26226
 C2169 C 0.68553 0.61407 0.26296
 N2170 N 0.68562 0.62811 0.28069
 N2171 N 0.69747 0.64796 0.28055
 C2172 C 0.70965 0.65442 0.26265
 N2173 N 0.70960 0.64020 0.24508
 N2174 N 0.69784 0.62043 0.24523
 N2175 N 0.13080 0.05623 0.73707
 C2176 C 0.14475 0.05893 0.75464
 N2177 N 0.14583 0.04175 0.76948
 N2178 N 0.13331 0.02258 0.76689
 C2179 C 0.11929 0.01971 0.74929
 N2180 N 0.11826 0.03705 0.73447
 C2181 C 0.15834 0.07971 0.75739
 C2182 C 0.16979 0.09717 0.75914
 C2183 C 0.18353 0.11802 0.76000
 N2184 N 0.18285 0.13240 0.77746
 N2185 N 0.19476 0.15222 0.77745
 C2186 C 0.20778 0.15830 0.75996
 N2187 N 0.20850 0.14373 0.74265
 N2188 N 0.19667 0.12399 0.74268
 N2189 N 0.36951 0.06166 0.26155
 C2190 C 0.35512 0.06381 0.24426
 N2191 N 0.35381 0.04639 0.22960
 N2192 N 0.36652 0.02753 0.23209
 C2193 C 0.38097 0.02521 0.24941
 N2194 N 0.38224 0.04278 0.26405
 C2195 C 0.34132 0.08425 0.24154
 C2196 C 0.32964 0.10136 0.23967
 C2197 C 0.31555 0.12176 0.23847
 N2198 N 0.30111 0.12689 0.25506
 N2199 N 0.28889 0.14622 0.25480
 C2200 C 0.29050 0.16120 0.23791
 N2201 N 0.30483 0.15595 0.22113
 N2202 N 0.31711 0.13655 0.22141
 N2203 N 0.87011 0.56079 0.76009
 C2204 C 0.85574 0.56315 0.74281
 N2205 N 0.85430 0.54583 0.72806
 N2206 N 0.86685 0.52685 0.73046
 C2207 C 0.88126 0.52430 0.74778
 N2208 N 0.88268 0.54179 0.76250
 C2209 C 0.84195 0.58362 0.74031
 C2210 C 0.83024 0.60073 0.73866
 C2211 C 0.81609 0.62111 0.73777
 N2212 N 0.80214 0.62628 0.75472
 N2213 N 0.78982 0.64555 0.75469
 C2214 C 0.79084 0.66041 0.73767
 N2215 N 0.80469 0.65513 0.72055
 N2216 N 0.81708 0.63579 0.72060
 N2217 N 0.96175 0.77234 0.16485
 C2218 C 0.94358 0.75815 0.16098
 N2219 N 0.94551 0.74111 0.14609
 N2220 N 0.96505 0.73843 0.13514
 C2221 C 0.98331 0.75274 0.13870
 N2222 N 0.98132 0.76966 0.15389
 C2223 C 0.92267 0.76067 0.17265
 C2224 C 0.90470 0.76159 0.18212
 C2225 C 0.88313 0.76105 0.19296
 N2226 N 0.88062 0.74825 0.21116
 N2227 N 0.85996 0.74571 0.22022
 C2228 C 0.84118 0.75576 0.21124
 N2229 N 0.84377 0.76872 0.19307
 N2230 N 0.86447 0.77124 0.18400
 N2231 N 0.45363 0.27822 0.65247
 C2232 C 0.44321 0.26120 0.66390
 N2233 N 0.45187 0.23965 0.66325
 N2234 N 0.47052 0.23515 0.65146
 C2235 C 0.48102 0.25206 0.63981
 N2236 N 0.47232 0.27374 0.64069
 C2237 C 0.42236 0.26529 0.67533
 C2238 C 0.40432 0.26711 0.68460
 C2239 C 0.38253 0.26718 0.69514
 N2240 N 0.37962 0.25507 0.71372
 N2241 N 0.35870 0.25246 0.72224
 C2242 C 0.34004 0.26170 0.71231
 N2243 N 0.34303 0.27401 0.69378
 N2244 N 0.36398 0.27660 0.68525
 N2245 N 0.43703 0.75097 0.85597
 C2246 C 0.43653 0.73288 0.84211
 N2247 N 0.45608 0.72099 0.83822
 N2248 N 0.47567 0.72710 0.84800
 C2249 C 0.47642 0.74551 0.86171
 N2250 N 0.45659 0.75710 0.86571
 C2251 C 0.41597 0.72801 0.83040
 C2252 C 0.39827 0.72602 0.82055
 C2253 C 0.37701 0.72627 0.80913
 N2254 N 0.37536 0.73844 0.79047
 N2255 N 0.35491 0.74179 0.78127
 C2256 C 0.33547 0.73326 0.79062
 N2257 N 0.33720 0.72086 0.80922
 N2258 N 0.35768 0.71754 0.81843
 N2259 N 0.94018 0.22592 0.36678
 C2260 C 0.93888 0.22377 0.34491
 N2261 N 0.95766 0.22859 0.33263
 N2262 N 0.97728 0.23528 0.34197
 C2263 C 0.97875 0.23757 0.36392
 N2264 N 0.95981 0.23259 0.37613
 C2265 C 0.91713 0.22056 0.33470
 C2266 C 0.89881 0.22009 0.32573
 C2267 C 0.87736 0.22210 0.31478
 N2268 N 0.87597 0.23573 0.29703
 N2269 N 0.85567 0.23975 0.28779
 C2270 C 0.83612 0.23040 0.29616
 N2271 N 0.83755 0.21664 0.31392
 N2272 N 0.85789 0.21265 0.32319
 N2273 N 0.04306 0.24023 0.32991
 C2274 C 0.05255 0.26155 0.32878
 N2275 N 0.04506 0.27827 0.34233
 N2276 N 0.02836 0.27380 0.35656
 C2277 C 0.01875 0.25241 0.35786
 N2278 N 0.02639 0.23575 0.34415
 C2279 C 0.07244 0.26526 0.31575
 C2280 C 0.09018 0.26713 0.30595
 C2281 C 0.11218 0.26768 0.29582
 N2282 N 0.13024 0.27779 0.30618
 N2283 N 0.15155 0.27543 0.29853
 C2284 C 0.15543 0.26267 0.28042
 N2285 N 0.13728 0.25277 0.26996
 N2286 N 0.11597 0.25512 0.27762
 N2287 N 0.54575 0.78149 0.84169
 C2288 C 0.55081 0.76547 0.82648
 N2289 N 0.53877 0.74543 0.82598
 N2290 N 0.52200 0.74155 0.84027
 C2291 C 0.51682 0.75751 0.85567
 N2292 N 0.52898 0.77762 0.85597
 C2293 C 0.57105 0.76788 0.81369
 C2294 C 0.58911 0.76865 0.80431
 C2295 C 0.61141 0.76796 0.79482
 N2296 N 0.61526 0.75465 0.77713
 N2297 N 0.63667 0.75143 0.77003
 C2298 C 0.65485 0.76117 0.78061
 N2299 N 0.65090 0.77461 0.79825
 N2300 N 0.62949 0.77784 0.80532
 N2301 N 0.53795 0.23628 0.67589
 C2302 C 0.55832 0.23010 0.66694
 N2303 N 0.56048 0.22933 0.64507
 N2304 N 0.54265 0.23436 0.63241
 C2305 C 0.52208 0.24048 0.64121
 N2306 N 0.52007 0.24128 0.66323
 C2307 C 0.57822 0.22741 0.68009
 C2308 C 0.59590 0.22671 0.69008
 C2309 C 0.61769 0.22785 0.70054
 N2310 N 0.63647 0.21901 0.69056
 N2311 N 0.65746 0.22306 0.69850
 C2312 C 0.66026 0.23632 0.71649
 N2313 N 0.64139 0.24498 0.72656
 N2314 N 0.62040 0.24093 0.71860
 N2315 N 0.04014 0.72352 0.17032
 C2316 C 0.05805 0.73848 0.17214
 N2317 N 0.05887 0.75735 0.15932
 N2318 N 0.04229 0.76119 0.14491
 C2319 C 0.02441 0.74614 0.14270
 N2320 N 0.02349 0.72739 0.15590
 C2321 C 0.07699 0.73390 0.18603
 C2322 C 0.09438 0.73171 0.19626
 C2323 C 0.11631 0.73133 0.20646
 N2324 N 0.13439 0.72188 0.19584
 N2325 N 0.15580 0.72523 0.20301
 C2326 C 0.15975 0.73843 0.22086
 N2327 N 0.14158 0.74763 0.23163
 N2328 N 0.12018 0.74429 0.22443
   
