data_POSCAR
  _audit_creation_date              2014-09-24
  _audit_creation_method            'ToBaCCo'
  _symmetry_space_group_name_H-M    'P1'
  _symmetry_Int_Tables_number       1
  _symmetry_cell_setting            triclinic
  loop_
  _symmetry_equiv_pos_as_xyz
 x,y,z
_cell_length_a 40.8026
_cell_length_b 27.4676
_cell_length_c 28.6926
_cell_angle_alpha 89.917600
_cell_angle_beta 89.939800
_cell_angle_gamma 89.979000
loop_
  _atom_site_label
  _atom_site_type_symbol
  _atom_site_fract_x
  _atom_site_fract_y
  _atom_site_fract_z
C1 C 0.00139 -0.00011 0.15027
 C2 C 0.00100 0.00008 -0.15496
 C3 C -0.07495 -0.07952 0.07019
 C4 C -0.07483 0.07916 0.07022
 C5 C -0.07502 -0.07916 -0.07363
 C6 C 0.07636 -0.07542 -0.07823
 C7 C 0.07634 0.07507 -0.07817
 C8 C 0.07615 -0.07512 0.07349
 C9 C -0.07497 0.07903 -0.07344
 C10 C 0.07610 0.07481 0.07344
 O11 O -0.04498 -0.08959 -0.08424
 O12 O -0.08396 -0.04664 -0.04371
 O13 O -0.04495 0.08946 -0.08413
 O14 O -0.08392 0.04643 -0.04358
 O15 O 0.04608 0.08556 0.08349
 O16 O 0.08513 0.04425 0.04173
 O17 O 0.00077 0.04152 -0.13388
 O18 O 0.00079 -0.04147 -0.13391
 O19 O 0.00107 0.04139 0.12938
 O20 O 0.00104 -0.04168 0.12956
 O21 O 0.04621 -0.08587 -0.08823
 O22 O 0.08517 -0.04480 -0.04638
 O23 O -0.04486 -0.09018 0.08021
 O24 O -0.08396 -0.04673 0.04049
 O25 O 0.04614 -0.08591 0.08365
 O26 O 0.08515 -0.04464 0.04166
 O27 O 0.04620 0.08557 -0.08824
 O28 O 0.08515 0.04437 -0.04633
 O29 O 0.00170 0.13628 0.06816
 O30 O 0.00228 0.13642 -0.07200
 O31 O 0.00224 -0.13668 -0.07187
 O32 O 0.00174 -0.13669 0.06861
 O33 O -0.02778 -0.06433 -0.00202
 O34 O -0.02779 0.06397 -0.00211
 O35 O 0.02858 -0.06390 -0.00219
 O36 O -0.02922 -0.00020 0.06008
 O37 O -0.08390 0.04639 0.04060
 O38 O -0.04474 0.08981 0.08007
 O39 O 0.03063 -0.00023 0.06007
 O40 O 0.03066 -0.00015 -0.06466
 O41 O 0.02862 0.06352 -0.00229
 O42 O -0.02926 -0.00012 -0.06387
 Zr43 Zr 0.00061 0.06020 0.05828
 Zr44 Zr 0.00060 -0.06051 -0.06269
 Zr45 Zr -0.05567 -0.00018 -0.00176
 Zr46 Zr 0.00059 -0.06063 0.05845
 Zr47 Zr 0.00061 0.06024 -0.06271
 Zr48 Zr 0.05684 -0.00021 -0.00234
 H49 H 0.04189 -0.09404 -0.00226
 H50 H -0.04377 -0.00021 0.08768
 H51 H 0.04192 0.09365 -0.00240
 H52 H -0.04385 -0.00006 -0.09138
 H53 H 0.00323 0.15050 0.03657
 H54 H -0.00617 0.15046 -0.04262
 H55 H 0.00282 -0.15093 0.03703
 H56 H -0.00609 -0.15073 -0.04240
 C57 C 0.25078 0.24963 0.09649
 C58 C 0.25051 0.24957 0.40169
 C59 C 0.17436 0.32923 0.17728
 C60 C 0.17455 0.17033 0.17725
 C61 C 0.17417 0.32891 0.32137
 C62 C 0.32517 0.32556 0.32443
 C63 C 0.32515 0.17398 0.32454
 C64 C 0.32532 0.32565 0.17453
 C65 C 0.17416 0.17071 0.32106
 C66 C 0.32562 0.17368 0.17462
 O67 O 0.20423 0.33923 0.33169
 O68 O 0.16514 0.29645 0.29139
 O69 O 0.20418 0.16026 0.33152
 O70 O 0.16515 0.20324 0.29113
 O71 O 0.29560 0.16324 0.16421
 O72 O 0.33449 0.20482 0.20586
 O73 O 0.25011 0.20807 0.38089
 O74 O 0.25017 0.29115 0.38087
 O75 O 0.25052 0.20819 0.11762
 O76 O 0.25039 0.29112 0.11746
 O77 O 0.29512 0.33599 0.33474
 O78 O 0.33420 0.29459 0.29308
 O79 O 0.20444 0.33976 0.16714
 O80 O 0.16526 0.29644 0.20691
 O81 O 0.29534 0.33613 0.16408
 O82 O 0.33430 0.29457 0.20581
 O83 O 0.29511 0.16349 0.33487
 O84 O 0.33418 0.20494 0.29315
 O85 O 0.25089 0.11335 0.17852
 O86 O 0.25106 0.11315 0.31900
 O87 O 0.25105 0.38630 0.31869
 O88 O 0.25076 0.38605 0.17801
 O89 O 0.22135 0.31389 0.24911
 O90 O 0.22140 0.18569 0.24919
 O91 O 0.27764 0.31333 0.24920
 O92 O 0.21999 0.24971 0.18713
 O93 O 0.16537 0.20313 0.20681
 O94 O 0.20464 0.15973 0.16731
 O95 O 0.28001 0.24974 0.18676
 O96 O 0.27975 0.24971 0.31168
 O97 O 0.27773 0.18606 0.24935
 O98 O 0.21982 0.24974 0.31109
 Zr99 Zr 0.24995 0.18938 0.18875
 Zr100 Zr 0.24966 0.31009 0.30970
 Zr101 Zr 0.19342 0.24982 0.24910
 Zr102 Zr 0.24981 0.31004 0.18860
 Zr103 Zr 0.24967 0.18935 0.30976
 Zr104 Zr 0.30599 0.24971 0.24933
 H105 H 0.29080 0.34359 0.24928
 H106 H 0.20550 0.24975 0.15950
 H107 H 0.29093 0.15583 0.24948
 H108 H 0.20528 0.24972 0.33870
 H109 H 0.25231 0.09897 0.21006
 H110 H 0.24296 0.09922 0.28940
 H111 H 0.25189 0.40049 0.20951
 H112 H 0.24299 0.40022 0.28903
 C113 C 0.49950 -0.00158 0.15215
 C114 C 0.49920 -0.00138 -0.15172
 C115 C 0.57641 0.07677 0.07258
 C116 C 0.57663 -0.08027 0.07327
 C117 C 0.57660 0.07676 -0.07351
 C118 C 0.42516 0.07422 -0.07464
 C119 C 0.42517 -0.07734 -0.07466
 C120 C 0.42526 0.07447 0.07532
 C121 C 0.57653 -0.08001 -0.07347
 C122 C 0.42485 -0.07804 0.07588
 O123 O 0.54636 0.08719 -0.08331
 O124 O 0.58550 0.04462 -0.04291
 O125 O 0.54632 -0.09048 -0.08325
 O126 O 0.58545 -0.04809 -0.04282
 O127 O 0.45506 -0.08850 0.08584
 O128 O 0.41611 -0.04673 0.04448
 O129 O 0.49972 -0.04302 -0.13107
 O130 O 0.49976 0.04011 -0.13101
 O131 O 0.49994 -0.04319 0.13163
 O132 O 0.50004 0.03989 0.13134
 O133 O 0.45522 0.08469 -0.08510
 O134 O 0.41623 0.04316 -0.04322
 O135 O 0.54632 0.08754 0.08252
 O136 O 0.58549 0.04447 0.04247
 O137 O 0.45534 0.08499 0.08539
 O138 O 0.41625 0.04319 0.04428
 O139 O 0.45521 -0.08789 -0.08507
 O140 O 0.41623 -0.04647 -0.04319
 O141 O 0.50032 -0.13842 0.07080
 O142 O 0.49960 -0.13843 -0.06864
 O143 O 0.49958 0.13513 -0.06850
 O144 O 0.50038 0.13477 0.07031
 O145 O 0.52944 0.06246 0.00007
 O146 O 0.52936 -0.06602 0.00024
 O147 O 0.47278 0.06190 0.00025
 O148 O 0.53061 -0.00185 0.06188
 O149 O 0.58549 -0.04810 0.04271
 O150 O 0.54643 -0.09099 0.08307
 O151 O 0.47076 -0.00179 0.06277
 O152 O 0.47074 -0.00167 -0.06177
 O153 O 0.47278 -0.06548 0.00041
 O154 O 0.53054 -0.00171 -0.06164
 Zr155 Zr 0.50079 -0.06232 0.06077
 Zr156 Zr 0.50082 0.05880 -0.06014
 Zr157 Zr 0.55730 -0.00182 -0.00002
 Zr158 Zr 0.50086 0.05866 0.06046
 Zr159 Zr 0.50080 -0.06216 -0.06009
 Zr160 Zr 0.44448 -0.00180 0.00057
 H161 H 0.45959 0.09214 0.00020
 H162 H 0.54502 -0.00180 0.08957
 H163 H 0.45956 -0.09567 0.00043
 H164 H 0.54487 -0.00165 -0.08945
 H165 H 0.49737 -0.15260 0.03943
 H166 H 0.50901 -0.15209 -0.03966
 H167 H 0.49700 0.14897 0.03900
 H168 H 0.50937 0.14862 -0.03976
 C169 C 0.75166 0.24897 0.09871
 C170 C 0.75136 0.24886 0.40256
 C171 C 0.67484 0.32755 0.17774
 C172 C 0.67517 0.17007 0.17794
 C173 C 0.67475 0.32719 0.32333
 C174 C 0.82579 0.32414 0.32642
 C175 C 0.82633 0.17382 0.32675
 C176 C 0.82588 0.32436 0.17478
 C177 C 0.67502 0.17049 0.32324
 C178 C 0.82623 0.17400 0.17465
 O179 O 0.70481 0.33776 0.33354
 O180 O 0.66579 0.29511 0.29297
 O181 O 0.70508 0.15990 0.33354
 O182 O 0.66599 0.20254 0.29286
 O183 O 0.79618 0.16315 0.16480
 O184 O 0.83522 0.20461 0.20634
 O185 O 0.75110 0.20730 0.38191
 O186 O 0.75092 0.29043 0.38180
 O187 O 0.75131 0.20742 0.11942
 O188 O 0.75117 0.29051 0.11933
 O189 O 0.79572 0.33471 0.33648
 O190 O 0.83492 0.29364 0.29470
 O191 O 0.70494 0.33838 0.16786
 O192 O 0.66582 0.29513 0.20784
 O193 O 0.79583 0.33504 0.16483
 O194 O 0.83500 0.29370 0.20641
 O195 O 0.79616 0.16324 0.33670
 O196 O 0.83516 0.20446 0.29481
 O197 O 0.75150 0.11234 0.18064
 O198 O 0.75216 0.11213 0.31945
 O199 O 0.75177 0.38565 0.31906
 O200 O 0.75107 0.38554 0.18032
 O201 O 0.72182 0.31319 0.25049
 O202 O 0.72206 0.18469 0.25063
 O203 O 0.77849 0.31265 0.25051
 O204 O 0.72076 0.24887 0.18869
 O205 O 0.66603 0.20247 0.20792
 O206 O 0.70528 0.15932 0.16815
 O207 O 0.78053 0.24903 0.18840
 O208 O 0.78047 0.24897 0.31271
 O209 O 0.77875 0.18518 0.25064
 O210 O 0.72072 0.24881 0.31218
 Zr211 Zr 0.75064 0.18847 0.19032
 Zr212 Zr 0.75034 0.30934 0.31082
 Zr213 Zr 0.69410 0.24889 0.25043
 Zr214 Zr 0.75040 0.30942 0.19019
 Zr215 Zr 0.75060 0.18842 0.31095
 Zr216 Zr 0.80687 0.24898 0.25057
 H217 H 0.79173 0.34283 0.25058
 H218 H 0.70632 0.24887 0.16102
 H219 H 0.79210 0.15510 0.25075
 H220 H 0.70627 0.24880 0.33987
 H221 H 0.75497 0.09825 0.21197
 H222 H 0.74248 0.09849 0.29069
 H223 H 0.75448 0.39965 0.21162
 H224 H 0.74197 0.39925 0.29032
 C225 C 0.00048 0.50039 0.15166
 C226 C 0.00021 0.50036 -0.15353
 C227 C -0.07565 0.42080 0.07141
 C228 C -0.07582 0.57979 0.07115
 C229 C -0.07594 0.42108 -0.07238
 C230 C 0.07509 0.42547 -0.07634
 C231 C 0.07499 0.57544 -0.07662
 C232 C 0.07527 0.42533 0.07487
 C233 C -0.07596 0.57956 -0.07251
 C234 C 0.07525 0.57586 0.07480
 O235 O -0.04587 0.41079 -0.08287
 O236 O -0.08497 0.45365 -0.04251
 O237 O -0.04592 0.58994 -0.08301
 O238 O -0.08498 0.54696 -0.04261
 O239 O 0.04519 0.58654 0.08487
 O240 O 0.08422 0.54515 0.04317
 O241 O -0.00012 0.54186 -0.13252
 O242 O -0.00007 0.45887 -0.13239
 O243 O 0.00008 0.54194 0.13084
 O244 O 0.00012 0.45888 0.13091
 O245 O 0.04508 0.41485 -0.08657
 O246 O 0.08408 0.45600 -0.04465
 O247 O -0.04556 0.41029 0.08140
 O248 O -0.08481 0.45362 0.04183
 O249 O 0.04526 0.41456 0.08500
 O250 O 0.08424 0.45604 0.04321
 O251 O 0.04497 0.58601 -0.08686
 O252 O 0.08403 0.54501 -0.04479
 O253 O 0.00063 0.63690 0.06980
 O254 O 0.00110 0.63693 -0.07051
 O255 O 0.00128 0.36385 -0.06998
 O256 O 0.00088 0.36401 0.07013
 O257 O -0.02875 0.43626 -0.00054
 O258 O -0.02881 0.56446 -0.00071
 O259 O 0.02765 0.43680 -0.00070
 O260 O -0.03019 0.50041 0.06137
 O261 O -0.08490 0.54694 0.04165
 O262 O -0.04576 0.59042 0.08114
 O263 O 0.02972 0.50049 0.06170
 O264 O 0.02961 0.50043 -0.06302
 O265 O 0.02757 0.56419 -0.00086
 O266 O -0.03031 0.50037 -0.06256
 Zr267 Zr -0.00035 0.56085 0.05973
 Zr268 Zr -0.00042 0.44006 -0.06114
 Zr269 Zr -0.05672 0.50032 -0.00052
 Zr270 Zr -0.00028 0.44006 0.05985
 Zr271 Zr -0.00048 0.56073 -0.06131
 Zr272 Zr 0.05585 0.50054 -0.00070
 H273 H 0.04095 0.40666 -0.00072
 H274 H -0.04474 0.50038 0.08898
 H275 H 0.04082 0.59436 -0.00098
 H276 H -0.04486 0.50035 -0.09012
 H277 H 0.00222 0.65120 0.03824
 H278 H -0.00724 0.65090 -0.04104
 H279 H 0.00260 0.34972 0.03862
 H280 H -0.00728 0.34992 -0.04058
 C281 C 0.25137 0.75088 0.09768
 C282 C 0.25089 0.75130 0.40158
 C283 C 0.17504 0.83057 0.17739
 C284 C 0.17450 0.67191 0.17751
 C285 C 0.17447 0.83039 0.32135
 C286 C 0.32546 0.82671 0.32464
 C287 C 0.32538 0.67498 0.32490
 C288 C 0.32642 0.82674 0.17436
 C289 C 0.17437 0.67208 0.32188
 C290 C 0.32554 0.67471 0.17495
 O291 O 0.20454 0.84073 0.33170
 O292 O 0.16545 0.79786 0.29148
 O293 O 0.20444 0.66175 0.33226
 O294 O 0.16537 0.70457 0.29182
 O295 O 0.29551 0.66428 0.16474
 O296 O 0.33461 0.70585 0.20606
 O297 O 0.25049 0.70973 0.38098
 O298 O 0.25054 0.79282 0.38076
 O299 O 0.25081 0.70938 0.11844
 O300 O 0.25112 0.79244 0.11821
 O301 O 0.29543 0.83727 0.33487
 O302 O 0.33454 0.79570 0.29338
 O303 O 0.20515 0.84111 0.16737
 O304 O 0.16581 0.79789 0.20707
 O305 O 0.29634 0.83739 0.16408
 O306 O 0.33515 0.79558 0.20581
 O307 O 0.29531 0.66468 0.33523
 O308 O 0.33449 0.70593 0.29351
 O309 O 0.25077 0.61454 0.17925
 O310 O 0.25126 0.61452 0.31932
 O311 O 0.25142 0.88778 0.31846
 O312 O 0.25147 0.88752 0.17848
 O313 O 0.22177 0.81522 0.24924
 O314 O 0.22149 0.68690 0.24968
 O315 O 0.27828 0.81472 0.24946
 O316 O 0.22042 0.75119 0.18762
 O317 O 0.16545 0.70471 0.20714
 O318 O 0.20461 0.66124 0.16757
 O319 O 0.28035 0.75085 0.18718
 O320 O 0.28005 0.75106 0.31181
 O321 O 0.27800 0.68737 0.24976
 O322 O 0.22014 0.75121 0.31134
 Zr323 Zr 0.25005 0.69060 0.18935
 Zr324 Zr 0.25002 0.81155 0.30973
 Zr325 Zr 0.19371 0.75115 0.24944
 Zr326 Zr 0.25051 0.81149 0.18898
 Zr327 Zr 0.24991 0.69073 0.31007
 Zr328 Zr 0.30644 0.75093 0.24957
 H329 H 0.29153 0.84489 0.24944
 H330 H 0.20594 0.75118 0.15999
 H331 H 0.29111 0.65705 0.24992
 H332 H 0.20559 0.75127 0.33894
 H333 H 0.25273 0.60022 0.21075
 H334 H 0.24279 0.60059 0.28992
 H335 H 0.25376 0.90190 0.20987
 H336 H 0.24298 0.90160 0.28895
 C337 C 0.49863 0.49997 0.15210
 C338 C 0.49861 0.49985 -0.15178
 C339 C 0.57545 0.57863 0.07247
 C340 C 0.57559 0.42126 0.07289
 C341 C 0.57536 0.57829 -0.07266
 C342 C 0.42437 0.57600 -0.07501
 C343 C 0.42440 0.42398 -0.07464
 C344 C 0.42448 0.57599 0.07499
 C345 C 0.57530 0.42140 -0.07231
 C346 C 0.42451 0.42414 0.07512
 O347 O 0.54531 0.58889 -0.08285
 O348 O 0.58444 0.54616 -0.04237
 O349 O 0.54526 0.41086 -0.08247
 O350 O 0.58441 0.45355 -0.04216
 O351 O 0.45452 0.41354 0.08539
 O352 O 0.41548 0.45528 0.04393
 O353 O 0.49908 0.45832 -0.13100
 O354 O 0.49907 0.54143 -0.13118
 O355 O 0.49912 0.45844 0.13148
 O356 O 0.49910 0.54151 0.13135
 O357 O 0.45442 0.58644 -0.08535
 O358 O 0.41538 0.54494 -0.04363
 O359 O 0.54537 0.58946 0.08237
 O360 O 0.58452 0.54620 0.04252
 O361 O 0.45450 0.58653 0.08517
 O362 O 0.41544 0.54489 0.04385
 O363 O 0.45444 0.41349 -0.08496
 O364 O 0.41540 0.45512 -0.04343
 O365 O 0.49943 0.36346 0.07087
 O366 O 0.49858 0.36328 -0.06877
 O367 O 0.49864 0.63662 -0.06930
 O368 O 0.49935 0.63647 0.07046
 O369 O 0.52845 0.56416 0.00002
 O370 O 0.52847 0.43568 0.00025
 O371 O 0.47193 0.56371 0.00009
 O372 O 0.52975 0.49997 0.06208
 O373 O 0.58460 0.45367 0.04276
 O374 O 0.54549 0.41049 0.08283
 O375 O 0.46992 0.49999 0.06246
 O376 O 0.46983 0.49998 -0.06213
 O377 O 0.47194 0.43633 0.00034
 O378 O 0.52965 0.49992 -0.06156
 Zr379 Zr 0.50002 0.43953 0.06064
 Zr380 Zr 0.49988 0.56038 -0.06029
 Zr381 Zr 0.55628 0.49991 0.00021
 Zr382 Zr 0.49997 0.56040 0.06042
 Zr383 Zr 0.49987 0.43952 -0.06003
 Zr384 Zr 0.44367 0.50005 0.00016
 H385 H 0.45876 0.59397 -0.00003
 H386 H 0.54419 0.49997 0.08976
 H387 H 0.45877 0.40608 0.00031
 H388 H 0.54404 0.49988 -0.08931
 H389 H 0.49660 0.34919 0.03952
 H390 H 0.50748 0.34949 -0.03953
 H391 H 0.49682 0.65076 0.03903
 H392 H 0.50752 0.65041 -0.04010
 C393 C 0.75094 0.75061 0.09774
 C394 C 0.75068 0.75115 0.40158
 C395 C 0.67402 0.82923 0.17642
 C396 C 0.67426 0.67202 0.17730
 C397 C 0.67419 0.82936 0.32218
 C398 C 0.82512 0.82592 0.32525
 C399 C 0.82522 0.67579 0.32573
 C400 C 0.82538 0.82582 0.17356
 C401 C 0.67418 0.67248 0.32268
 C402 C 0.82525 0.67555 0.17406
 O403 O 0.70424 0.83993 0.33234
 O404 O 0.66513 0.79728 0.29191
 O405 O 0.70425 0.66197 0.33288
 O406 O 0.66512 0.70457 0.29227
 O407 O 0.79521 0.66476 0.16415
 O408 O 0.83428 0.70625 0.20559
 O409 O 0.75031 0.70954 0.38101
 O410 O 0.75027 0.79268 0.38075
 O411 O 0.75047 0.70911 0.11854
 O412 O 0.75050 0.79220 0.11826
 O413 O 0.79508 0.83664 0.33532
 O414 O 0.83419 0.79538 0.29356
 O415 O 0.70414 0.84006 0.16651
 O416 O 0.66502 0.79699 0.20673
 O417 O 0.79532 0.83665 0.16356
 O418 O 0.83433 0.79521 0.20533
 O419 O 0.79515 0.66519 0.33587
 O420 O 0.83424 0.70629 0.29385
 O421 O 0.75049 0.61420 0.17981
 O422 O 0.75119 0.61420 0.31868
 O423 O 0.75116 0.88771 0.31777
 O424 O 0.75033 0.88742 0.17910
 O425 O 0.72111 0.81513 0.24938
 O426 O 0.72116 0.68664 0.24981
 O427 O 0.77779 0.81459 0.24936
 O428 O 0.71996 0.75079 0.18776
 O429 O 0.66515 0.70446 0.20722
 O430 O 0.70435 0.66122 0.16744
 O431 O 0.77970 0.75079 0.18739
 O432 O 0.77967 0.75094 0.31171
 O433 O 0.77782 0.68709 0.24979
 O434 O 0.71993 0.75094 0.31125
 Zr435 Zr 0.74973 0.69032 0.18948
 Zr436 Zr 0.74967 0.81139 0.30969
 Zr437 Zr 0.69329 0.75088 0.24953
 Zr438 Zr 0.74969 0.81130 0.18904
 Zr439 Zr 0.74970 0.69049 0.31010
 Zr440 Zr 0.80603 0.75082 0.24956
 H441 H 0.79110 0.84470 0.24936
 H442 H 0.70553 0.75068 0.16008
 H443 H 0.79112 0.65694 0.24995
 H444 H 0.70550 0.75099 0.33897
 H445 H 0.75388 0.60009 0.21115
 H446 H 0.74156 0.60054 0.28990
 H447 H 0.75425 0.90154 0.21027
 H448 H 0.74145 0.90126 0.28894
 C449 C 0.00040 0.00076 0.34717
 C450 C 0.00005 0.00078 0.65214
 C451 C -0.07629 0.08028 0.42730
 C452 C -0.07597 -0.07854 0.42794
 C453 C -0.07619 0.08001 0.57145
 C454 C 0.07480 0.07584 0.57550
 C455 C 0.07481 -0.07404 0.57551
 C456 C 0.07484 0.07600 0.42389
 C457 C -0.07619 -0.07821 0.57148
 C458 C 0.07507 -0.07413 0.42404
 O459 O -0.04617 0.09038 0.58190
 O460 O -0.08521 0.04757 0.54152
 O461 O -0.04615 -0.08858 0.58197
 O462 O -0.08521 -0.04563 0.54158
 O463 O 0.04505 -0.08490 0.41398
 O464 O 0.08399 -0.04349 0.45570
 O465 O -0.00033 -0.04073 0.63132
 O466 O -0.00034 0.04236 0.63129
 O467 O -0.00002 -0.04072 0.36808
 O468 O -0.00007 0.04234 0.36785
 O469 O 0.04476 0.08652 0.58564
 O470 O 0.08381 0.04542 0.54365
 O471 O -0.04619 0.09082 0.41715
 O472 O -0.08528 0.04755 0.45713
 O473 O 0.04484 0.08678 0.41374
 O474 O 0.08383 0.04545 0.45564
 O475 O 0.04478 -0.08470 0.58573
 O476 O 0.08381 -0.04355 0.54367
 O477 O 0.00052 -0.13553 0.42917
 O478 O 0.00094 -0.13568 0.56905
 O479 O 0.00092 0.13753 0.56885
 O480 O 0.00025 0.13742 0.42871
 O481 O -0.02910 0.06513 0.49948
 O482 O -0.02903 -0.06313 0.49964
 O483 O 0.02728 0.06466 0.49950
 O484 O -0.03048 0.00091 0.43749
 O485 O -0.08510 -0.04569 0.45742
 O486 O -0.04590 -0.08914 0.41786
 O487 O 0.02940 0.00099 0.43725
 O488 O 0.02931 0.00093 0.56191
 O489 O 0.02740 -0.06278 0.49971
 O490 O -0.03056 0.00094 0.56143
 Zr491 Zr -0.00054 -0.05946 0.43919
 Zr492 Zr -0.00072 0.06131 0.56004
 Zr493 Zr -0.05698 0.00100 0.49944
 Zr494 Zr -0.00072 0.06136 0.43893
 Zr495 Zr -0.00069 -0.05945 0.56015
 Zr496 Zr 0.05556 0.00096 0.49962
 H497 H 0.04056 0.09479 0.49957
 H498 H -0.04500 0.00087 0.40990
 H499 H 0.04071 -0.09290 0.49981
 H500 H -0.04510 0.00091 0.58903
 H501 H 0.00284 -0.14979 0.46065
 H502 H -0.00773 -0.14953 0.53974
 H503 H 0.00218 0.15168 0.46020
 H504 H -0.00769 0.15144 0.53950
 C505 C 0.25048 0.24903 0.90376
 C506 C 0.25058 0.24909 0.59874
 C507 C 0.17398 0.16954 0.82297
 C508 C 0.17420 0.32858 0.82254
 C509 C 0.17405 0.17010 0.67905
 C510 C 0.32504 0.17326 0.67602
 C511 C 0.32513 0.32488 0.67592
 C512 C 0.32529 0.17280 0.82603
 C513 C 0.17416 0.32836 0.67918
 C514 C 0.32519 0.32495 0.82592
 O515 O 0.20412 0.15964 0.66872
 O516 O 0.16503 0.20256 0.70902
 O517 O 0.20423 0.33868 0.66878
 O518 O 0.16509 0.29574 0.70906
 O519 O 0.29516 0.33543 0.83625
 O520 O 0.33418 0.29381 0.79472
 O521 O 0.25021 0.29060 0.61953
 O522 O 0.25019 0.20752 0.61958
 O523 O 0.25008 0.29051 0.88283
 O524 O 0.25011 0.20748 0.88303
 O525 O 0.29503 0.16280 0.66571
 O526 O 0.33406 0.20414 0.70740
 O527 O 0.20405 0.15900 0.83327
 O528 O 0.16500 0.20237 0.79330
 O529 O 0.29523 0.16234 0.83646
 O530 O 0.33421 0.20396 0.79473
 O531 O 0.29510 0.33529 0.66557
 O532 O 0.33412 0.29388 0.70733
 O533 O 0.25057 0.38528 0.82207
 O534 O 0.25107 0.38559 0.68147
 O535 O 0.25097 0.11242 0.68182
 O536 O 0.25046 0.11252 0.82241
 O537 O 0.22121 0.18485 0.75134
 O538 O 0.22125 0.31306 0.75117
 O539 O 0.27750 0.18534 0.75127
 O540 O 0.21971 0.24895 0.81327
 O541 O 0.16512 0.29567 0.79315
 O542 O 0.20424 0.33908 0.83273
 O543 O 0.27973 0.24889 0.81371
 O544 O 0.27970 0.24897 0.68881
 O545 O 0.27756 0.31260 0.75111
 O546 O 0.21977 0.24905 0.68925
 Zr547 Zr 0.24964 0.30927 0.81167
 Zr548 Zr 0.24957 0.18863 0.69076
 Zr549 Zr 0.19330 0.24899 0.75121
 Zr550 Zr 0.24959 0.18854 0.81191
 Zr551 Zr 0.24964 0.30938 0.69064
 Zr552 Zr 0.30586 0.24895 0.75118
 H553 H 0.29068 0.15509 0.75120
 H554 H 0.20514 0.24899 0.84086
 H555 H 0.29074 0.34284 0.75101
 H556 H 0.20527 0.24912 0.66164
 H557 H 0.25201 0.39973 0.79056
 H558 H 0.24303 0.39951 0.71114
 H559 H 0.25194 0.09813 0.79091
 H560 H 0.24273 0.09853 0.71142
 C561 C 0.49873 -0.00027 0.34817
 C562 C 0.49832 0.00006 0.65206
 C563 C 0.57525 -0.07821 0.42750
 C564 C 0.57540 0.07862 0.42780
 C565 C 0.57495 -0.07859 0.57249
 C566 C 0.42408 -0.07551 0.57479
 C567 C 0.42419 0.07603 0.57505
 C568 C 0.42437 -0.07541 0.42495
 C569 C 0.57507 0.07836 0.57289
 C570 C 0.42435 0.07630 0.42499
 O571 O 0.54490 -0.08943 0.58242
 O572 O 0.58407 -0.04619 0.54252
 O573 O 0.54502 0.08906 0.58301
 O574 O 0.58414 0.04626 0.54263
 O575 O 0.45439 0.08682 0.41474
 O576 O 0.41530 0.04522 0.45625
 O577 O 0.49876 0.04168 0.63140
 O578 O 0.49874 -0.04141 0.63132
 O579 O 0.49914 0.04135 0.36871
 O580 O 0.49911 -0.04175 0.36897
 O581 O 0.45405 -0.08617 0.58512
 O582 O 0.41513 -0.04438 0.54354
 O583 O 0.54521 -0.08883 0.41732
 O584 O 0.58425 -0.04612 0.45778
 O585 O 0.45440 -0.08600 0.41472
 O586 O 0.41532 -0.04437 0.45620
 O587 O 0.45420 0.08649 0.58541
 O588 O 0.41521 0.04515 0.54366
 O589 O 0.49925 0.13666 0.42906
 O590 O 0.49838 0.13685 0.56915
 O591 O 0.49883 -0.13630 0.57074
 O592 O 0.49846 -0.13656 0.43149
 O593 O 0.52820 -0.06412 0.50020
 O594 O 0.52822 0.06441 0.50004
 O595 O 0.47165 -0.06343 0.50009
 O596 O 0.52954 0.00016 0.43829
 O597 O 0.58434 0.04626 0.45791
 O598 O 0.54538 0.08952 0.41769
 O599 O 0.46978 0.00025 0.43771
 O600 O 0.46956 0.00024 0.56232
 O601 O 0.47178 0.06400 0.49995
 O602 O 0.52935 0.00011 0.56195
 Zr603 Zr 0.49984 0.06063 0.43959
 Zr604 Zr 0.49957 -0.06024 0.56044
 Zr605 Zr 0.55597 0.00012 0.50015
 Zr606 Zr 0.49978 -0.06027 0.43988
 Zr607 Zr 0.49964 0.06060 0.56040
 Zr608 Zr 0.44350 0.00037 0.49995
 H609 H 0.45845 -0.09364 0.50001
 H610 H 0.54402 0.00021 0.41063
 H611 H 0.45862 0.09426 0.49998
 H612 H 0.54374 -0.00003 0.58966
 H613 H 0.49710 0.15106 0.46048
 H614 H 0.50721 0.15061 0.53984
 H615 H 0.50775 -0.15020 0.46054
 H616 H 0.49593 -0.15060 0.53942
 C617 C 0.75066 0.24890 0.90271
 C618 C 0.75029 0.24893 0.59885
 C619 C 0.67368 0.16991 0.82416
 C620 C 0.67385 0.32761 0.82323
 C621 C 0.67379 0.17045 0.67837
 C622 C 0.82465 0.17438 0.67472
 C623 C 0.82460 0.32445 0.67471
 C624 C 0.82496 0.17411 0.82593
 C625 C 0.67360 0.32727 0.67826
 C626 C 0.82479 0.32447 0.82603
 O627 O 0.70384 0.15997 0.66807
 O628 O 0.66469 0.20240 0.70877
 O629 O 0.70364 0.33789 0.66799
 O630 O 0.66457 0.29507 0.70860
 O631 O 0.79475 0.33513 0.83616
 O632 O 0.83378 0.29377 0.79444
 O633 O 0.74981 0.29050 0.61948
 O634 O 0.74984 0.20737 0.61962
 O635 O 0.75009 0.29043 0.88197
 O636 O 0.75019 0.20735 0.88213
 O637 O 0.79464 0.16349 0.66478
 O638 O 0.83366 0.20492 0.70640
 O639 O 0.70384 0.15930 0.83396
 O640 O 0.66461 0.20230 0.79400
 O641 O 0.79498 0.16316 0.83623
 O642 O 0.83383 0.20484 0.79429
 O643 O 0.79453 0.33501 0.66461
 O644 O 0.83364 0.29387 0.70645
 O645 O 0.74991 0.38544 0.82107
 O646 O 0.75037 0.38574 0.68182
 O647 O 0.75084 0.11225 0.68241
 O648 O 0.75011 0.11229 0.82119
 O649 O 0.72071 0.18455 0.75105
 O650 O 0.72063 0.31300 0.75086
 O651 O 0.77734 0.18537 0.75082
 O652 O 0.71949 0.24885 0.81284
 O653 O 0.66471 0.29510 0.79347
 O654 O 0.70390 0.33844 0.83303
 O655 O 0.77926 0.24896 0.81293
 O656 O 0.77913 0.24908 0.68854
 O657 O 0.77723 0.31291 0.75061
 O658 O 0.71941 0.24892 0.68929
 Zr659 Zr 0.74926 0.30936 0.81106
 Zr660 Zr 0.74922 0.18855 0.69063
 Zr661 Zr 0.69281 0.24871 0.75114
 Zr662 Zr 0.74928 0.18842 0.81129
 Zr663 Zr 0.74911 0.30945 0.69041
 Zr664 Zr 0.80545 0.24924 0.75058
 H665 H 0.79069 0.15527 0.75066
 H666 H 0.70508 0.24884 0.84058
 H667 H 0.79047 0.34310 0.75046
 H668 H 0.70499 0.24890 0.66161
 H669 H 0.75289 0.39971 0.78970
 H670 H 0.74106 0.39936 0.71086
 H671 H 0.75382 0.09821 0.78994
 H672 H 0.74117 0.09862 0.71124
 C673 C 0.00062 0.50017 0.34847
 C674 C 0.00028 0.50018 0.65345
 C675 C -0.07573 0.57961 0.42873
 C676 C -0.07558 0.42056 0.42911
 C677 C -0.07589 0.57941 0.57245
 C678 C 0.07512 0.57525 0.57646
 C679 C 0.07519 0.42497 0.57676
 C680 C 0.07535 0.57554 0.42498
 C681 C -0.07593 0.42093 0.57282
 C682 C 0.07536 0.42485 0.42505
 O683 O -0.04585 0.58971 0.58293
 O684 O -0.08490 0.54682 0.54266
 O685 O -0.04587 0.41061 0.58332
 O686 O -0.08492 0.45350 0.54288
 O687 O 0.04532 0.41417 0.41511
 O688 O 0.08438 0.45551 0.45668
 O689 O -0.00003 0.45862 0.63267
 O690 O -0.00005 0.54170 0.63251
 O691 O 0.00025 0.45864 0.36932
 O692 O 0.00025 0.54169 0.36920
 O693 O 0.04508 0.58580 0.58667
 O694 O 0.08420 0.54473 0.54475
 O695 O -0.04563 0.59018 0.41867
 O696 O -0.08482 0.54677 0.45837
 O697 O 0.04530 0.58619 0.41495
 O698 O 0.08436 0.54481 0.45664
 O699 O 0.04514 0.41444 0.58699
 O700 O 0.08424 0.45547 0.54491
 O701 O 0.00093 0.36370 0.43043
 O702 O 0.00129 0.36354 0.57044
 O703 O 0.00127 0.63669 0.57005
 O704 O 0.00076 0.63663 0.43009
 O705 O -0.02871 0.56424 0.50071
 O706 O -0.02866 0.43603 0.50091
 O707 O 0.02773 0.56378 0.50075
 O708 O -0.03008 0.50014 0.43878
 O709 O -0.08474 0.45341 0.45860
 O710 O -0.04549 0.41003 0.41907
 O711 O 0.02985 0.50016 0.43843
 O712 O 0.02972 0.50011 0.56308
 O713 O 0.02776 0.43645 0.50096
 O714 O -0.03023 0.50013 0.56270
 Zr715 Zr -0.00017 0.43976 0.44044
 Zr716 Zr -0.00036 0.56047 0.56124
 Zr717 Zr -0.05663 0.50013 0.50070
 Zr718 Zr -0.00023 0.56055 0.44025
 Zr719 Zr -0.00035 0.43976 0.56146
 Zr720 Zr 0.05606 0.50011 0.50075
 H721 H 0.04099 0.59394 0.50077
 H722 H -0.04461 0.50012 0.41121
 H723 H 0.04105 0.40630 0.50104
 H724 H -0.04479 0.50015 0.59029
 H725 H 0.00280 0.34943 0.46197
 H726 H -0.00736 0.34966 0.54114
 H727 H 0.00287 0.65086 0.46156
 H728 H -0.00732 0.65060 0.54068
 C729 C 0.25064 0.75085 0.90181
 C730 C 0.25053 0.75127 0.59790
 C731 C 0.17405 0.67160 0.82151
 C732 C 0.17391 0.83047 0.82204
 C733 C 0.17398 0.67197 0.67825
 C734 C 0.32493 0.67487 0.67479
 C735 C 0.32492 0.82663 0.67483
 C736 C 0.32505 0.67465 0.82479
 C737 C 0.17401 0.83038 0.67804
 C738 C 0.32520 0.82645 0.82479
 O739 O 0.20403 0.66157 0.66785
 O740 O 0.16492 0.70462 0.70801
 O741 O 0.20407 0.84071 0.66761
 O742 O 0.16494 0.79785 0.70796
 O743 O 0.29517 0.83720 0.83506
 O744 O 0.33411 0.79538 0.79350
 O745 O 0.25011 0.79278 0.61861
 O746 O 0.25010 0.70969 0.61861
 O747 O 0.25020 0.79241 0.88117
 O748 O 0.25014 0.70935 0.88116
 O749 O 0.29488 0.66456 0.66449
 O750 O 0.33396 0.70584 0.70610
 O751 O 0.20409 0.66094 0.83161
 O752 O 0.16496 0.70456 0.79209
 O753 O 0.29499 0.66419 0.83505
 O754 O 0.33405 0.70580 0.79353
 O755 O 0.29492 0.83724 0.66453
 O756 O 0.33393 0.79558 0.70612
 O757 O 0.25042 0.88745 0.82061
 O758 O 0.25097 0.88769 0.68047
 O759 O 0.25074 0.61451 0.68025
 O760 O 0.25029 0.61451 0.82089
 O761 O 0.22102 0.68699 0.75000
 O762 O 0.22104 0.81532 0.75001
 O763 O 0.27744 0.68716 0.74989
 O764 O 0.21965 0.75101 0.81196
 O765 O 0.16489 0.79776 0.79234
 O766 O 0.20402 0.84094 0.83213
 O767 O 0.27956 0.75089 0.81227
 O768 O 0.27954 0.75101 0.68762
 O769 O 0.27750 0.81455 0.74991
 O770 O 0.21963 0.75114 0.68813
 Zr771 Zr 0.24951 0.81142 0.81035
 Zr772 Zr 0.24945 0.69068 0.68956
 Zr773 Zr 0.19315 0.75121 0.75007
 Zr774 Zr 0.24949 0.69053 0.81031
 Zr775 Zr 0.24947 0.81148 0.68959
 Zr776 Zr 0.30574 0.75076 0.74989
 H777 H 0.29058 0.65687 0.74983
 H778 H 0.20510 0.75097 0.83956
 H779 H 0.29072 0.84475 0.74984
 H780 H 0.20511 0.75119 0.66054
 H781 H 0.25256 0.90182 0.78915
 H782 H 0.24260 0.90161 0.70995
 H783 H 0.25178 0.60007 0.78942
 H784 H 0.24291 0.60047 0.71001
 C785 C 0.49861 0.49973 0.34817
 C786 C 0.49826 0.49963 0.65204
 C787 C 0.57541 0.42094 0.42772
 C788 C 0.57528 0.57846 0.42759
 C789 C 0.57504 0.42110 0.57310
 C790 C 0.42414 0.42362 0.57527
 C791 C 0.42407 0.57563 0.57501
 C792 C 0.42427 0.42364 0.42506
 C793 C 0.57507 0.57818 0.57292
 C794 C 0.42425 0.57576 0.42506
 O795 O 0.54496 0.41058 0.58321
 O796 O 0.58419 0.45324 0.54280
 O797 O 0.54498 0.58867 0.58303
 O798 O 0.58420 0.54604 0.54268
 O799 O 0.45431 0.58626 0.41487
 O800 O 0.41517 0.54457 0.45624
 O801 O 0.49869 0.54119 0.63130
 O802 O 0.49872 0.45807 0.63140
 O803 O 0.49904 0.54124 0.36883
 O804 O 0.49908 0.45818 0.36887
 O805 O 0.45418 0.41322 0.58559
 O806 O 0.41512 0.45465 0.54388
 O807 O 0.54534 0.41019 0.41776
 O808 O 0.58441 0.45333 0.45774
 O809 O 0.45434 0.41310 0.41493
 O810 O 0.41520 0.45475 0.45625
 O811 O 0.45410 0.58603 0.58534
 O812 O 0.41508 0.54457 0.54373
 O813 O 0.49917 0.63616 0.42953
 O814 O 0.49827 0.63633 0.56892
 O815 O 0.49833 0.36294 0.56922
 O816 O 0.49929 0.36313 0.42979
 O817 O 0.52826 0.43544 0.50019
 O818 O 0.52823 0.56386 0.50007
 O819 O 0.47169 0.43596 0.50010
 O820 O 0.52960 0.49966 0.43827
 O821 O 0.58435 0.54603 0.45763
 O822 O 0.54521 0.58919 0.41765
 O823 O 0.46972 0.49964 0.43775
 O824 O 0.46953 0.49963 0.56230
 O825 O 0.47166 0.56329 0.50000
 O826 O 0.52937 0.49963 0.56186
 Zr827 Zr 0.49978 0.56008 0.43970
 Zr828 Zr 0.49961 0.43921 0.56047
 Zr829 Zr 0.55612 0.49965 0.50015
 Zr830 Zr 0.49983 0.43921 0.43978
 Zr831 Zr 0.49959 0.56006 0.56035
 Zr832 Zr 0.44336 0.49961 0.50002
 H833 H 0.45852 0.40571 0.50020
 H834 H 0.54406 0.49968 0.41059
 H835 H 0.45848 0.59354 0.50003
 H836 H 0.54373 0.49963 0.58961
 H837 H 0.49622 0.65041 0.46087
 H838 H 0.50749 0.65003 0.53982
 H839 H 0.49624 0.34887 0.46115
 H840 H 0.50749 0.34924 0.54011
 C841 C 0.75067 0.75060 0.90180
 C842 C 0.75032 0.75113 0.59793
 C843 C 0.67403 0.67184 0.82249
 C844 C 0.67368 0.82921 0.82317
 C845 C 0.67380 0.67237 0.67741
 C846 C 0.82478 0.67581 0.67400
 C847 C 0.82467 0.82600 0.67392
 C848 C 0.82492 0.67557 0.82529
 C849 C 0.67378 0.82921 0.67759
 C850 C 0.82497 0.82588 0.82517
 O851 O 0.70386 0.66188 0.66712
 O852 O 0.66475 0.70448 0.70774
 O853 O 0.70380 0.83986 0.66727
 O854 O 0.66474 0.79711 0.70793
 O855 O 0.79494 0.83670 0.83539
 O856 O 0.83389 0.79523 0.79352
 O857 O 0.74986 0.79265 0.61866
 O858 O 0.74993 0.70952 0.61863
 O859 O 0.75019 0.79219 0.88117
 O860 O 0.75017 0.70910 0.88112
 O861 O 0.79475 0.66516 0.66389
 O862 O 0.83378 0.70636 0.70568
 O863 O 0.70411 0.66108 0.83233
 O864 O 0.66488 0.70432 0.79261
 O865 O 0.79491 0.66474 0.83538
 O866 O 0.83390 0.70632 0.79367
 O867 O 0.79463 0.83673 0.66389
 O868 O 0.83371 0.79539 0.70560
 O869 O 0.74993 0.88738 0.82017
 O870 O 0.75067 0.88766 0.68119
 O871 O 0.75077 0.61420 0.68105
 O872 O 0.75027 0.61421 0.82025
 O873 O 0.72083 0.68660 0.75002
 O874 O 0.72073 0.81508 0.75009
 O875 O 0.77742 0.68706 0.74981
 O876 O 0.71960 0.75073 0.81192
 O877 O 0.66467 0.79692 0.79301
 O878 O 0.70379 0.84004 0.83293
 O879 O 0.77935 0.75081 0.81207
 O880 O 0.77925 0.75093 0.68767
 O881 O 0.77734 0.81460 0.74988
 O882 O 0.71951 0.75090 0.68836
 Zr883 Zr 0.74930 0.81127 0.81034
 Zr884 Zr 0.74929 0.69047 0.68959
 Zr885 Zr 0.69295 0.75081 0.75022
 Zr886 Zr 0.74942 0.69031 0.81023
 Zr887 Zr 0.74924 0.81136 0.68967
 Zr888 Zr 0.80555 0.75084 0.74975
 H889 H 0.79072 0.65692 0.74971
 H890 H 0.70518 0.75060 0.83965
 H891 H 0.79063 0.84474 0.74973
 H892 H 0.70508 0.75092 0.66070
 H893 H 0.75352 0.90155 0.78888
 H894 H 0.74120 0.90127 0.71013
 H895 H 0.75322 0.60004 0.78887
 H896 H 0.74139 0.60047 0.71004
 N897 N 0.00146 -0.04236 0.22575
 C898 C 0.00158 0.00008 0.20144
 N899 N 0.00146 0.04276 0.22527
 N900 N 0.00119 0.04300 0.27170
 C901 C 0.00101 0.00056 0.29601
 N902 N 0.00119 -0.04212 0.27218
 N903 N 0.25114 0.20688 1.02570
 C904 C 0.25107 0.24952 1.04975
 N905 N 0.25102 0.29199 1.02533
 N906 N 0.25094 0.29181 0.97889
 C907 C 0.25092 0.24918 0.95499
 N908 N 0.25106 0.20672 0.97926
 N909 N 0.13392 0.08921 0.09314
 C910 C 0.10177 0.09930 0.10057
 N911 N 0.09363 0.13203 0.13410
 N912 N 0.11676 0.15418 0.15900
 C913 C 0.14892 0.14421 0.15148
 N914 N 0.15706 0.11134 0.11807
 N915 N 0.38319 0.34222 0.15781
 C916 C 0.35111 0.35132 0.14886
 N917 N 0.34327 0.38441 0.11550
 N918 N 0.36666 0.40762 0.09194
 C919 C 0.39874 0.39852 0.10088
 N920 N 0.40659 0.36543 0.13425
 N921 N 0.34382 0.11463 0.11569
 C922 C 0.35158 0.14784 0.14893
 N923 N 0.38370 0.15687 0.15780
 N924 N 0.40714 0.13355 0.13434
 C925 C 0.39936 0.10033 0.10110
 N926 N 0.36725 0.09130 0.09224
 N927 N 0.15651 0.38849 0.11836
 C928 C 0.14859 0.35546 0.15180
 N929 N 0.11648 0.34551 0.15976
 N930 N 0.09317 0.36780 0.13525
 C931 C 0.10108 0.40070 0.10170
 N932 N 0.13319 0.41077 0.09382
 N933 N 0.34309 0.11561 0.38407
 C934 C 0.35095 0.14854 0.35054
 N935 N 0.38305 0.15772 0.34171
 N936 N 0.40643 0.13476 0.36552
 C937 C 0.39856 0.10183 0.39905
 N938 N 0.36646 0.09265 0.40788
 N939 N 0.15645 0.38780 0.38069
 C940 C 0.14841 0.35501 0.34719
 N941 N 0.11625 0.34523 0.33952
 N942 N 0.09305 0.36749 0.36435
 C943 C 0.10110 0.40017 0.39795
 N944 N 0.13325 0.41004 0.40554
 N945 N 0.11626 0.15489 0.33848
 C946 C 0.14832 0.14482 0.34658
 N947 N 0.15613 0.11206 0.38028
 N948 N 0.13272 0.09014 0.40496
 C949 C 0.10066 0.10034 0.39697
 N950 N 0.09285 0.13295 0.36315
 N951 N 0.38311 0.34204 0.34177
 C952 C 0.35097 0.35112 0.35046
 N953 N 0.34304 0.38405 0.38389
 N954 N 0.36635 0.40710 0.40772
 C955 C 0.39849 0.39802 0.39904
 N956 N 0.40643 0.36508 0.36560
 N957 N 0.49863 -0.04368 0.22730
 C958 C 0.49883 -0.00128 0.20301
 N959 N 0.49871 0.04148 0.22664
 N960 N 0.49850 0.04184 0.27301
 C961 C 0.49838 -0.00056 0.29730
 N962 N 0.49842 -0.04332 0.27367
 N963 N 0.75195 0.20638 1.02396
 C964 C 0.75199 0.24897 1.04784
 N965 N 0.75182 0.29154 1.02381
 N966 N 0.75155 0.29152 0.97745
 C967 C 0.75141 0.24893 0.95356
 N968 N 0.75167 0.20636 0.97759
 N969 N 0.63426 0.09084 0.09235
 C970 C 0.60217 0.10183 0.09917
 N971 N 0.59415 0.13463 0.13269
 N972 N 0.61735 0.15593 0.15818
 C973 C 0.64945 0.14494 0.15136
 N974 N 0.65747 0.11214 0.11783
 N975 N -0.11633 0.33911 0.15523
 C976 C -0.14847 0.34909 0.14771
 N977 N -0.15660 0.38197 0.11425
 N978 N -0.13344 0.40436 0.08947
 C979 C -0.10129 0.39450 0.09708
 N980 N -0.09316 0.36149 0.13042
 N981 N 0.90739 0.13796 0.12966
 C982 C 0.89939 0.10512 0.09617
 N983 N 0.86725 0.09498 0.08873
 N984 N 0.84402 0.11692 0.11375
 C985 C 0.85201 0.14963 0.14734
 N986 N 0.88415 0.15989 0.15470
 N987 N 0.65685 0.38564 0.11765
 C988 C 0.64898 0.35271 0.15121
 N989 N 0.61689 0.34174 0.15825
 N990 N 0.59358 0.36315 0.13295
 C991 C 0.60145 0.39609 0.09939
 N992 N 0.63354 0.40705 0.09235
 N993 N -0.15775 0.11887 0.38544
 C994 C -0.15003 0.15146 0.35139
 N995 N -0.11783 0.16112 0.34319
 N996 N -0.09443 0.13898 0.36776
 C997 C -0.10222 0.10637 0.40164
 N998 N -0.13434 0.09671 0.40996
 N999 N 0.65670 0.38504 0.38339
 C1000 C 0.64886 0.35227 0.34979
 N1001 N 0.61679 0.34147 0.34258
 N1002 N 0.59344 0.36291 0.36779
 C1003 C 0.60128 0.39570 0.40138
 N1004 N 0.63336 0.40648 0.40858
 N1005 N 0.61713 0.15689 0.34223
 C1006 C 0.64913 0.14574 0.34966
 N1007 N 0.65680 0.11321 0.38360
 N1008 N 0.63333 0.09228 0.40892
 C1009 C 0.60133 0.10342 0.40149
 N1010 N 0.59366 0.13596 0.36756
 N1011 N -0.11639 0.33888 0.34570
 C1012 C -0.14854 0.34880 0.35339
 N1013 N -0.15661 0.38164 0.38685
 N1014 N -0.13341 0.40404 0.41143
 C1015 C -0.10126 0.39423 0.40364
 N1016 N -0.09319 0.36125 0.37031
 N1017 N 0.00093 0.45774 0.22687
 C1018 C 0.00087 0.50034 0.20280
 N1019 N 0.00091 0.54287 0.22684
 N1020 N 0.00096 0.54281 0.27326
 C1021 C 0.00096 0.50021 0.29734
 N1022 N 0.00097 0.45768 0.27329
 N1023 N 0.25154 0.70823 1.02299
 C1024 C 0.25172 0.75083 1.04686
 N1025 N 0.25175 0.79341 1.02285
 N1026 N 0.25154 0.79340 0.97650
 C1027 C 0.25127 0.75081 0.95262
 N1028 N 0.25133 0.70822 0.97663
 N1029 N 0.13325 0.59051 0.09391
 C1030 C 0.10111 0.60059 0.10166
 N1031 N 0.09321 0.63352 0.13513
 N1032 N 0.11652 0.65578 0.15967
 C1033 C 0.14866 0.64580 0.15184
 N1034 N 0.15657 0.61275 0.11847
 N1035 N 0.36881 0.90811 0.09096
 C1036 C 0.40099 0.89872 0.09969
 N1037 N 0.40841 0.86547 0.13331
 N1038 N 0.38478 0.84271 0.15703
 C1039 C 0.35268 0.85220 0.14825
 N1040 N 0.34519 0.88534 0.11469
 N1041 N 0.34331 0.61588 0.11589
 C1042 C 0.35127 0.64894 0.14915
 N1043 N 0.38339 0.65797 0.15783
 N1044 N 0.40670 0.63473 0.13413
 C1045 C 0.39874 0.60167 0.10086
 N1046 N 0.36662 0.59264 0.09218
 N1047 N 0.09396 0.86814 0.13446
 C1048 C 0.10191 0.90067 0.10062
 N1049 N 0.13400 0.91095 0.09291
 N1050 N 0.15730 0.88915 0.11788
 C1051 C 0.14934 0.85648 0.15160
 N1052 N 0.11725 0.84634 0.15940
 N1053 N 0.34310 0.61612 0.38425
 C1054 C 0.35110 0.64917 0.35087
 N1055 N 0.38325 0.65803 0.34209
 N1056 N 0.40652 0.63467 0.36579
 C1057 C 0.39851 0.60161 0.39916
 N1058 N 0.36637 0.59275 0.40794
 N1059 N 0.15643 -0.11073 0.38049
 C1060 C 0.14861 -0.14356 0.34693
 N1061 N 0.11651 -0.15348 0.33892
 N1062 N 0.09313 -0.13135 0.36349
 C1063 C 0.10095 -0.09865 0.39715
 N1064 N 0.13305 -0.08861 0.40507
 N1065 N 0.11641 0.65561 0.33975
 C1066 C 0.14856 0.64591 0.34763
 N1067 N 0.15655 0.61298 0.38115
 N1068 N 0.13329 0.59058 0.40581
 C1069 C 0.10114 0.60038 0.39800
 N1070 N 0.09315 0.63319 0.36439
 N1071 N 0.38329 -0.15690 0.34186
 C1072 C 0.35118 -0.14779 0.35059
 N1073 N 0.34322 -0.11484 0.38398
 N1074 N 0.36652 -0.09178 0.40775
 C1075 C 0.39864 -0.10089 0.39901
 N1076 N 0.40660 -0.13385 0.36563
 N1077 N 0.49805 0.45732 0.22696
 C1078 C 0.49808 0.49993 0.20298
 N1079 N 0.49803 0.54248 0.22694
 N1080 N 0.49803 0.54242 0.27331
 C1081 C 0.49809 0.49980 0.29729
 N1082 N 0.49805 0.45725 0.27333
 N1083 N 0.75140 0.70796 1.02301
 C1084 C 0.75142 0.75055 1.04690
 N1085 N 0.75146 0.79313 1.02289
 N1086 N 0.75138 0.79313 0.97653
 C1087 C 0.75127 0.75055 0.95264
 N1088 N 0.75133 0.70796 0.97664
 N1089 N 0.63327 0.59268 0.09203
 C1090 C 0.60120 0.60374 0.09890
 N1091 N 0.59322 0.63663 0.13235
 N1092 N 0.61646 0.65795 0.15773
 C1093 C 0.64853 0.64689 0.15086
 N1094 N 0.65651 0.61400 0.11741
 N1095 N 0.86702 0.90480 0.08800
 C1096 C 0.89911 0.89457 0.09591
 N1097 N 0.90684 0.86167 0.12954
 N1098 N 0.88340 0.83980 0.15428
 C1099 C 0.85132 0.85015 0.14646
 N1100 N 0.84358 0.88291 0.11271
 N1101 N 0.90638 0.63897 0.13000
 C1102 C 0.89842 0.60593 0.09669
 N1103 N 0.86631 0.59588 0.08901
 N1104 N 0.84303 0.61809 0.11368
 C1105 C 0.85099 0.65098 0.14710
 N1106 N 0.88310 0.66116 0.15468
 N1107 N 0.59261 0.86418 0.13144
 C1108 C 0.60029 0.89705 0.09762
 N1109 N 0.63244 0.90784 0.09038
 N1110 N 0.65583 0.88670 0.11577
 C1111 C 0.64807 0.85409 0.14966
 N1112 N 0.61601 0.84305 0.15682
 N1113 N -0.15694 0.61834 0.38639
 C1114 C -0.14898 0.65117 0.35278
 N1115 N -0.11685 0.66113 0.34497
 N1116 N -0.09357 0.63883 0.36961
 C1117 C -0.10152 0.60586 0.40311
 N1118 N -0.13366 0.59602 0.41100
 N1119 N 0.65636 -0.11327 0.38253
 C1120 C 0.64843 -0.14575 0.34874
 N1121 N 0.61638 -0.15665 0.34164
 N1122 N 0.59310 -0.13555 0.36716
 C1123 C 0.60102 -0.10308 0.40095
 N1124 N 0.63307 -0.09216 0.40806
 N1125 N 0.61631 0.65808 0.34218
 C1126 C 0.64841 0.64734 0.34925
 N1127 N 0.65638 0.61455 0.38287
 N1128 N 0.63314 0.59303 0.40822
 C1129 C 0.60105 0.60376 0.40114
 N1130 N 0.59307 0.63656 0.36754
 N1131 N -0.11703 -0.15978 0.34445
 C1132 C -0.14914 -0.14963 0.35221
 N1133 N -0.15711 -0.11684 0.38574
 N1134 N -0.13382 -0.09468 0.41034
 C1135 C -0.10171 -0.10470 0.40249
 N1136 N -0.09375 -0.13764 0.36908
 N1137 N 0.00097 -0.04222 0.77391
 C1138 C 0.00105 0.00023 0.79826
 N1139 N 0.00095 0.04288 0.77409
 N1140 N 0.00070 0.04306 0.72763
 C1141 C 0.00054 0.00062 0.70344
 N1142 N 0.00072 -0.04201 0.72746
 N1143 N 0.25092 0.20683 0.47695
 C1144 C 0.25089 0.24945 0.45291
 N1145 N 0.25096 0.29195 0.47704
 N1146 N 0.25099 0.29181 0.52347
 C1147 C 0.25095 0.24919 0.54752
 N1148 N 0.25095 0.20670 0.52339
 N1149 N 0.13273 0.08993 0.59472
 C1150 C 0.10063 0.10008 0.60260
 N1151 N 0.09276 0.13256 0.63647
 N1152 N 0.11611 0.15438 0.66127
 C1153 C 0.14821 0.14433 0.65330
 N1154 N 0.15608 0.11173 0.61953
 N1155 N 0.38305 0.34173 0.65864
 C1156 C 0.35091 0.35059 0.64988
 N1157 N 0.34294 0.38352 0.61638
 N1158 N 0.36622 0.40676 0.59255
 C1159 C 0.39837 0.39790 0.60131
 N1160 N 0.40634 0.36497 0.63481
 N1161 N 0.34294 0.11516 0.61634
 C1162 C 0.35083 0.14788 0.64994
 N1163 N 0.38293 0.15698 0.65867
 N1164 N 0.40628 0.13413 0.63471
 C1165 C 0.39839 0.10141 0.60111
 N1166 N 0.36629 0.09231 0.59238
 N1167 N 0.15636 0.38755 0.62015
 C1168 C 0.14839 0.35466 0.65369
 N1169 N 0.11625 0.34502 0.66180
 N1170 N 0.09298 0.36747 0.63731
 C1171 C 0.10095 0.40023 0.60365
 N1172 N 0.13309 0.40999 0.59564
 N1173 N 0.40686 0.13296 0.86607
 C1174 C 0.39918 0.09987 0.89957
 N1175 N 0.36709 0.09078 0.90868
 N1176 N 0.34358 0.11393 0.88522
 C1177 C 0.35127 0.14704 0.85173
 N1178 N 0.38336 0.15612 0.84262
 N1179 N 0.09299 0.36783 0.86364
 C1180 C 0.10087 0.40078 0.89703
 N1181 N 0.13296 0.41067 0.90509
 N1182 N 0.15632 0.38814 0.88086
 C1183 C 0.14843 0.35504 0.84761
 N1184 N 0.11635 0.34528 0.83944
 N1185 N 0.13218 0.08802 0.90604
 C1186 C 0.10003 0.09761 0.89754
 N1187 N 0.09243 0.13038 0.86364
 N1188 N 0.11594 0.15280 0.83953
 C1189 C 0.14801 0.14323 0.84818
 N1190 N 0.15568 0.11042 0.88189
 N1191 N 0.36645 0.40719 0.90846
 C1192 C 0.39858 0.39822 0.89959
 N1193 N 0.40648 0.36511 0.86629
 N1194 N 0.38314 0.34180 0.84277
 C1195 C 0.35101 0.35076 0.85165
 N1196 N 0.34311 0.38387 0.88494
 N1197 N 0.49823 -0.04344 0.77313
 C1198 C 0.49843 -0.00106 0.79735
 N1199 N 0.49827 0.04171 0.77360
 N1200 N 0.49803 0.04211 0.72722
 C1201 C 0.49793 -0.00027 0.70300
 N1202 N 0.49800 -0.04304 0.72675
 N1203 N 0.75150 0.20630 0.47759
 C1204 C 0.75157 0.24887 0.45352
 N1205 N 0.75139 0.29145 0.47744
 N1206 N 0.75109 0.29147 0.52383
 C1207 C 0.75095 0.24891 0.54790
 N1208 N 0.75120 0.20632 0.52398
 N1209 N 0.63284 0.09220 0.59238
 C1210 C 0.60078 0.10313 0.59949
 N1211 N 0.59279 0.13553 0.63335
 N1212 N 0.61603 0.15654 0.65893
 C1213 C 0.64808 0.14562 0.65181
 N1214 N 0.65607 0.11322 0.61795
 N1215 N -0.11744 0.33934 0.65608
 C1216 C -0.14954 0.34918 0.64790
 N1217 N -0.15735 0.38201 0.61424
 N1218 N -0.13394 0.40442 0.58992
 C1219 C -0.10183 0.39469 0.59820
 N1220 N -0.09403 0.36174 0.63174
 N1221 N 0.90586 0.13854 0.63068
 C1222 C 0.89800 0.10586 0.59703
 N1223 N 0.86593 0.09579 0.58909
 N1224 N 0.84257 0.11767 0.61386
 C1225 C 0.85043 0.15020 0.64762
 N1226 N 0.88250 0.16040 0.65546
 N1227 N 0.65596 0.38512 0.61810
 C1228 C 0.64789 0.35242 0.65176
 N1229 N 0.61579 0.34172 0.65881
 N1230 N 0.59262 0.36322 0.63335
 C1231 C 0.60070 0.39591 0.59969
 N1232 N 0.63280 0.40661 0.59265
 N1233 N 0.90657 0.13799 0.86792
 C1234 C 0.89904 0.10502 0.90155
 N1235 N 0.86705 0.09488 0.91020
 N1236 N 0.84343 0.11693 0.88612
 C1237 C 0.85096 0.14975 0.85237
 N1238 N 0.88295 0.16003 0.84382
 N1239 N 0.59293 0.36344 0.86791
 C1240 C 0.60096 0.39627 0.90133
 N1241 N 0.63302 0.40715 0.90828
 N1242 N 0.65624 0.38569 0.88294
 C1243 C 0.64820 0.35285 0.84952
 N1244 N 0.61614 0.34197 0.84258
 N1245 N 0.63243 0.08967 0.90949
 C1246 C 0.60020 0.09989 0.90221
 N1247 N 0.59236 0.13295 0.86863
 N1248 N 0.61565 0.15481 0.84353
 C1249 C 0.64780 0.14439 0.85075
 N1250 N 0.65571 0.11154 0.88437
 N1251 N 0.86610 0.40456 0.91050
 C1252 C 0.89822 0.39482 0.90230
 N1253 N 0.90610 0.36184 0.86887
 N1254 N 0.88274 0.33942 0.84457
 C1255 C 0.85063 0.34926 0.85268
 N1256 N 0.84275 0.38212 0.88622
 N1257 N 0.00058 0.45776 0.77548
 C1258 C 0.00050 0.50033 0.79966
 N1259 N 0.00053 0.54285 0.77529
 N1260 N 0.00056 0.54279 0.72882
 C1261 C 0.00057 0.50023 0.70480
 N1262 N 0.00061 0.45772 0.72902
 N1263 N 0.25122 0.70875 0.47660
 C1264 C 0.25125 0.75133 0.45255
 N1265 N 0.25124 0.79390 0.47649
 N1266 N 0.25114 0.79389 0.52288
 C1267 C 0.25104 0.75131 0.54693
 N1268 N 0.25112 0.70874 0.52298
 N1269 N 0.13296 0.59024 0.59518
 C1270 C 0.10084 0.60001 0.60320
 N1271 N 0.09284 0.63284 0.63670
 N1272 N 0.11611 0.65535 0.66105
 C1273 C 0.14824 0.64569 0.65293
 N1274 N 0.15623 0.61273 0.61955
 N1275 N 0.36621 0.90819 0.59177
 C1276 C 0.39829 0.89898 0.60060
 N1277 N 0.40614 0.86595 0.63402
 N1278 N 0.38276 0.84289 0.65775
 C1279 C 0.35069 0.85210 0.64893
 N1280 N 0.34283 0.88513 0.61550
 N1281 N 0.34280 0.61604 0.61557
 C1282 C 0.35072 0.64904 0.64893
 N1283 N 0.38286 0.65782 0.65779
 N1284 N 0.40618 0.63445 0.63419
 C1285 C 0.39825 0.60145 0.60084
 N1286 N 0.36612 0.59266 0.59197
 N1287 N 0.09275 0.86882 0.63619
 C1288 C 0.10062 0.90148 0.60241
 N1289 N 0.13272 0.91143 0.59432
 N1290 N 0.15607 0.88926 0.61887
 C1291 C 0.14820 0.85647 0.65254
 N1292 N 0.11610 0.84664 0.66073
 N1293 N 0.40638 0.63471 0.86556
 C1294 C 0.39851 0.60168 0.89902
 N1295 N 0.36638 0.59265 0.90785
 N1296 N 0.34302 0.61583 0.88415
 C1297 C 0.35089 0.64888 0.85069
 N1298 N 0.38302 0.65790 0.84186
 N1299 N 0.09239 0.86946 0.86341
 C1300 C 0.10005 0.90208 0.89734
 N1301 N 0.13223 0.91161 0.90565
 N1302 N 0.15568 0.88932 0.88130
 C1303 C 0.14795 0.85667 0.84754
 N1304 N 0.11585 0.84715 0.83910
 N1305 N 0.13282 0.58994 0.90458
 C1306 C 0.10074 0.59999 0.89658
 N1307 N 0.09286 0.63287 0.86305
 N1308 N 0.11621 0.65523 0.83865
 C1309 C 0.14829 0.64532 0.84675
 N1310 N 0.15618 0.61227 0.88015
 N1311 N 0.36712 0.90699 0.90824
 C1312 C 0.39918 0.89751 0.89933
 N1313 N 0.40681 0.86469 0.86565
 N1314 N 0.38327 0.84215 0.84184
 C1315 C 0.35120 0.85164 0.85076
 N1316 N 0.34357 0.88446 0.88443
 N1317 N 0.49792 0.45718 0.77343
 C1318 C 0.49801 0.49979 0.79730
 N1319 N 0.49790 0.54234 0.77322
 N1320 N 0.49779 0.54228 0.72684
 C1321 C 0.49778 0.49967 0.70296
 N1322 N 0.49781 0.45712 0.72705
 N1323 N 0.75107 0.70862 0.47662
 C1324 C 0.75104 0.75119 0.45256
 N1325 N 0.75099 0.79377 0.47651
 N1326 N 0.75089 0.79376 0.52290
 C1327 C 0.75084 0.75118 0.54696
 N1328 N 0.75097 0.70862 0.52301
 N1329 N 0.63289 0.59286 0.59217
 C1330 C 0.60078 0.60343 0.59936
 N1331 N 0.59274 0.63612 0.63297
 N1332 N 0.61594 0.65771 0.65822
 C1333 C 0.64805 0.64714 0.65102
 N1334 N 0.65609 0.61444 0.61742
 N1335 N 0.86591 0.90555 0.58882
 C1336 C 0.89801 0.89568 0.59692
 N1337 N 0.90588 0.86278 0.63046
 N1338 N 0.88253 0.84054 0.65500
 C1339 C 0.85044 0.85054 0.64701
 N1340 N 0.84256 0.88330 0.61334
 N1341 N 0.90609 0.63863 0.63112
 C1342 C 0.89827 0.60568 0.59768
 N1343 N 0.86618 0.59595 0.58943
 N1344 N 0.84278 0.61837 0.61371
 C1345 C 0.85061 0.65117 0.64727
 N1346 N 0.88270 0.66102 0.65541
 N1347 N 0.59272 0.86389 0.63271
 C1348 C 0.60065 0.89648 0.59892
 N1349 N 0.63267 0.90761 0.59182
 N1350 N 0.65595 0.88659 0.61734
 C1351 C 0.64803 0.85401 0.65113
 N1352 N 0.61601 0.84287 0.65824
 N1353 N 0.90614 0.63867 0.86857
 C1354 C 0.89824 0.60570 0.90207
 N1355 N 0.86615 0.59580 0.91016
 N1356 N 0.84281 0.61810 0.88568
 C1357 C 0.85071 0.65094 0.85207
 N1358 N 0.88281 0.66096 0.84408
 N1359 N 0.59236 0.86461 0.86825
 C1360 C 0.60013 0.89730 0.90207
 N1361 N 0.63231 0.90785 0.90925
 N1362 N 0.65563 0.88662 0.88380
 C1363 C 0.64778 0.85415 0.84994
 N1364 N 0.61569 0.84338 0.84282
 N1365 N 0.63313 0.59242 0.90787
 C1366 C 0.60106 0.60333 0.90085
 N1367 N 0.59307 0.63611 0.86727
 N1368 N 0.61630 0.65751 0.84187
 C1369 C 0.64836 0.64661 0.84888
 N1370 N 0.65637 0.61381 0.88245
 N1371 N 0.86694 0.90502 0.90967
 C1372 C 0.89897 0.89493 0.90118
 N1373 N 0.90656 0.86207 0.86754
 N1374 N 0.88299 0.84008 0.84334
 C1375 C 0.85096 0.85028 0.85174
 N1376 N 0.84337 0.88302 0.88548
   
