data_POSCAR
  _audit_creation_date              2014-09-24
  _audit_creation_method            'ToBaCCo'
  _symmetry_space_group_name_H-M    'P1'
  _symmetry_Int_Tables_number       1
  _symmetry_cell_setting            triclinic
  loop_
  _symmetry_equiv_pos_as_xyz
 x,y,z
_cell_length_a 59.8137
_cell_length_b 59.8025
_cell_length_c 59.6596
_cell_angle_alpha 89.974400
_cell_angle_beta 89.993400
_cell_angle_gamma 89.994800
loop_
  _atom_site_label
  _atom_site_type_symbol
  _atom_site_fract_x
  _atom_site_fract_y
  _atom_site_fract_z
C1 C 0.35797 1.35854 0.32956
 C2 C 0.36725 1.33934 0.33966
 C3 C 0.35768 1.32979 0.35887
 C4 C 0.33858 1.33957 0.36832
 C5 C 0.32868 1.35877 0.35881
 C6 C 0.33879 1.36808 0.33955
 H7 H 0.38118 1.33076 0.33195
 H8 H 0.33112 1.33152 0.38271
 H9 H 0.33269 1.38389 0.33330
 C10 C 0.35833 0.85857 0.83040
 C11 C 0.36774 0.83929 0.83989
 C12 C 0.35827 0.82942 0.85897
 C13 C 0.33920 0.83913 0.86867
 C14 C 0.32924 0.85853 0.85952
 C15 C 0.33926 0.86809 0.84032
 H16 H 0.38204 0.83151 0.83193
 H17 H 0.33289 0.83193 0.88405
 H18 H 0.33192 0.88256 0.83234
 C19 C 0.85761 1.35800 0.82961
 C20 C 0.86715 1.33899 0.83947
 C21 C 0.85778 1.32946 0.85878
 C22 C 0.83867 1.33926 0.86834
 C23 C 0.82858 1.35840 0.85879
 C24 C 0.83852 1.36759 0.83937
 H25 H 0.88148 1.33112 0.83165
 H26 H 0.83136 1.33125 0.88284
 H27 H 0.83216 1.38294 0.83218
 C28 C 0.85805 0.85817 0.32970
 C29 C 0.86748 0.83906 0.33961
 C30 C 0.85788 0.82940 0.35880
 C31 C 0.83868 0.83919 0.36815
 C32 C 0.82898 0.85829 0.35849
 C33 C 0.83883 0.86771 0.33930
 H34 H 0.88222 0.83154 0.33224
 H35 H 0.83148 0.83212 0.38323
 H36 H 0.83106 0.88202 0.33135
 C37 C 0.64151 0.64196 0.32932
 C38 C 0.66074 0.63262 0.33945
 C39 C 0.67046 0.64228 0.35857
 C40 C 0.66080 0.66152 0.36788
 C41 C 0.64172 0.67118 0.35829
 C42 C 0.63218 0.66130 0.33921
 H43 H 0.66921 0.61859 0.33180
 H44 H 0.66829 0.66911 0.38255
 H45 H 0.61679 0.66833 0.33283
 C46 C 0.64269 0.14188 0.82985
 C47 C 0.66181 0.13239 0.83970
 C48 C 0.67183 0.14192 0.85891
 C49 C 0.66182 0.16127 0.86812
 C50 C 0.64270 0.17094 0.85847
 C51 C 0.63323 0.16109 0.83939
 H52 H 0.66918 0.11796 0.83168
 H53 H 0.66813 0.16845 0.88350
 H54 H 0.61889 0.16885 0.83147
 C55 C 1.14196 0.64124 0.82947
 C56 C 1.16119 0.63197 0.83926
 C57 C 1.17096 0.64170 0.85832
 C58 C 1.16112 0.66087 0.86770
 C59 C 1.14186 0.67039 0.85815
 C60 C 1.13237 0.66041 0.83908
 H61 H 1.16839 0.61690 0.83223
 H62 H 1.16892 0.66886 0.88199
 H63 H 1.11760 0.66771 0.83156
 C64 C 1.14228 0.14210 0.32869
 C65 C 1.16147 0.13274 0.33887
 C66 C 1.17139 0.14229 0.35814
 C67 C 1.16147 0.16168 0.36722
 C68 C 1.14244 0.17132 0.35750
 C69 C 1.13297 0.16145 0.33845
 H70 H 1.16992 0.11913 0.33055
 H71 H 1.16813 0.16927 0.38225
 H72 H 1.11762 0.16850 0.33199
 C73 C 0.64195 1.35811 0.67022
 C74 C 0.66111 1.36769 0.66054
 C75 C 0.67120 1.35834 0.64126
 C76 C 0.66123 1.33909 0.63183
 C77 C 0.64211 1.32931 0.64133
 C78 C 0.63256 1.33897 0.66046
 H79 H 0.66880 1.38166 0.66908
 H80 H 0.66758 1.33206 0.61640
 H81 H 0.61785 1.33145 0.66791
 C82 C 0.64232 0.85797 1.17078
 C83 C 0.66146 0.86755 1.16107
 C84 C 0.67131 0.85813 1.14191
 C85 C 0.66167 0.83896 1.13233
 C86 C 0.64251 0.82914 1.14177
 C87 C 0.63293 0.83880 1.16096
 H88 H 0.66850 0.88262 1.16824
 H89 H 0.66923 0.83155 1.11760
 H90 H 0.61858 0.83093 1.16874
 C91 C 1.14144 1.35810 1.17062
 C92 C 1.13229 1.33873 1.16060
 C93 C 1.14202 1.32903 1.14151
 C94 C 1.16112 1.33883 1.13212
 C95 C 1.17063 1.35803 1.14160
 C96 C 1.16070 1.36757 1.16068
 H97 H 1.11726 1.33119 1.16723
 H98 H 1.16841 1.33167 1.11712
 H99 H 1.16905 1.38161 1.16844
 C100 C 1.14159 0.85798 0.66971
 C101 C 1.16076 0.86757 0.66008
 C102 C 1.17095 0.85820 0.64088
 C103 C 1.16108 0.83888 0.63147
 C104 C 1.14194 0.82908 0.64092
 C105 C 1.13229 0.83878 0.65998
 H106 H 1.16839 0.88157 0.66863
 H107 H 1.16753 0.83181 0.61609
 H108 H 1.11758 0.83124 0.66741
 C109 C 0.35784 0.64171 0.67038
 C110 C 0.36736 0.66093 0.66077
 C111 C 0.35791 0.67082 0.64162
 C112 C 0.33878 0.66115 0.63201
 C113 C 0.32900 0.64194 0.64137
 C114 C 0.33870 0.63230 0.66052
 H115 H 0.38170 0.66868 0.66868
 H116 H 0.33168 0.66839 0.61696
 H117 H 0.33120 0.61755 0.66790
 C118 C 0.35870 0.14141 1.17058
 C119 C 0.36788 0.16079 1.16058
 C120 C 0.35825 0.17047 1.14143
 C121 C 0.33921 0.16065 1.13195
 C122 C 0.32967 0.14144 1.14141
 C123 C 0.33950 0.13192 1.16056
 H124 H 0.38287 0.16835 1.16729
 H125 H 0.33199 0.16779 1.11691
 H126 H 0.33111 0.11789 1.16830
 C127 C 0.85854 0.64184 1.17040
 C128 C 0.83926 0.63235 1.16051
 C129 C 0.82935 0.64182 1.14138
 C130 C 0.83888 0.66098 1.13180
 C131 C 0.85800 0.67079 1.14113
 C132 C 0.86771 0.66116 1.16027
 H133 H 0.83090 0.61836 1.16835
 H134 H 0.83161 0.66808 1.11677
 H135 H 0.88275 0.66870 1.16686
 C136 C 0.85803 0.14155 0.67079
 C137 C 0.83870 0.13227 0.66084
 C138 C 0.82859 0.14185 0.64169
 C139 C 0.83858 0.16108 0.63234
 C140 C 0.85781 0.17060 0.64178
 C141 C 0.86741 0.16076 0.66082
 H142 H 0.83250 0.11648 0.66701
 H143 H 0.83078 0.16970 0.61845
 H144 H 0.88183 0.16880 0.66818
 C145 C 1.35757 0.35798 0.67050
 C146 C 1.36717 0.33881 0.66086
 C147 C 1.35779 0.32864 0.64164
 C148 C 1.33849 0.33855 0.63223
 C149 C 1.32869 0.35767 0.64169
 C150 C 1.33838 0.36730 0.66077
 H151 H 1.38117 0.33117 0.66938
 H152 H 1.33143 0.33214 0.61683
 H153 H 1.33084 0.38201 0.66819
 C154 C 1.35776 0.85757 1.17115
 C155 C 1.33862 0.86686 1.16132
 C156 C 1.32905 0.85727 1.14217
 C157 C 1.33896 0.83818 1.13270
 C158 C 1.35827 0.82834 1.14220
 C159 C 1.36747 0.83847 1.16152
 H160 H 1.33135 0.88187 1.16842
 H161 H 1.33059 0.83034 1.11869
 H162 H 1.38254 0.83193 1.16907
 C163 C 0.85802 0.35779 1.16997
 C164 C 0.83881 0.36705 1.16022
 C165 C 0.82916 0.35739 1.14114
 C166 C 0.83902 0.33827 1.13170
 C167 C 0.85835 0.32844 1.14113
 C168 C 0.86767 0.33865 1.16035
 H169 H 0.83123 0.38175 1.16762
 H170 H 0.83198 0.33183 1.11632
 H171 H 0.88169 0.33106 1.16890
 C172 C 0.85828 0.85860 0.66986
 C173 C 0.86773 0.83934 0.66027
 C174 C 0.85825 0.82950 0.64112
 C175 C 0.83917 0.83926 0.63148
 C176 C 0.82946 0.85850 0.64083
 C177 C 0.83918 0.86809 0.65997
 H178 H 0.88204 0.83153 0.66819
 H179 H 0.83205 0.83207 0.61643
 H180 H 0.83173 0.88287 0.66734
 C181 C 0.64181 0.64143 0.67016
 C182 C 0.63216 0.66066 0.66071
 C183 C 0.64143 0.67066 0.64153
 C184 C 0.66055 0.66112 0.63174
 C185 C 0.67044 0.64189 0.64095
 C186 C 0.66092 0.63214 0.66012
 H187 H 0.61749 0.66798 0.66842
 H188 H 0.66787 0.66880 0.61702
 H189 H 0.66852 0.61738 0.66739
 C190 C 0.64210 1.14160 1.17003
 C191 C 0.63248 1.16073 1.16034
 C192 C 0.64191 1.17094 1.14116
 C193 C 0.66130 1.16114 1.13186
 C194 C 0.67114 1.14204 1.14137
 C195 C 0.66139 1.13236 1.16040
 H196 H 0.61841 1.16831 1.16881
 H197 H 0.66841 1.16759 1.11649
 H198 H 0.66894 1.11768 1.16787
 C199 C 0.14215 0.64192 1.17070
 C200 C 0.13264 0.66115 1.16071
 C201 C 0.14204 0.67126 1.14146
 C202 C 0.16138 0.66146 1.13216
 C203 C 0.17118 0.64243 1.14169
 C204 C 0.16151 0.63278 1.16077
 H205 H 0.11905 0.66950 1.16917
 H206 H 0.16847 0.66788 1.11677
 H207 H 0.16905 0.61778 1.16748
 C208 C 0.14114 1.14192 0.66954
 C209 C 0.13155 1.16094 0.65959
 C210 C 0.14105 1.17094 0.64033
 C211 C 0.16045 1.16100 0.63119
 C212 C 0.17022 1.14198 0.64094
 C213 C 0.16041 1.13254 0.66006
 H214 H 0.11708 1.16827 0.66757
 H215 H 0.16762 1.16729 0.61579
 H216 H 0.16825 1.11828 0.66806
 C217 C 1.35824 0.64226 0.33006
 C218 C 1.36789 0.66132 0.33983
 C219 C 1.35868 0.67131 0.35920
 C220 C 1.33946 0.66132 0.36870
 C221 C 1.32960 0.64225 0.35912
 C222 C 1.33915 0.63282 0.33985
 H223 H 1.38328 0.66759 0.33270
 H224 H 1.33144 0.66868 0.38315
 H225 H 1.33124 0.61853 0.33201
 C226 C 1.35869 1.14200 0.83031
 C227 C 1.33966 1.13250 0.84016
 C228 C 1.33013 1.14192 0.85944
 C229 C 1.33995 1.16103 0.86898
 C230 C 1.35911 1.17107 0.85942
 C231 C 1.36831 1.16108 0.84005
 H232 H 1.33177 1.11818 0.83236
 H233 H 1.33195 1.16838 0.88345
 H234 H 1.38367 1.16740 0.83287
 C235 C 0.85779 0.64171 0.82969
 C236 C 0.86730 0.66096 0.83925
 C237 C 0.85788 0.67082 0.85842
 C238 C 0.83880 0.66111 0.86811
 C239 C 0.82904 0.64189 0.85879
 C240 C 0.83870 0.63227 0.83962
 H241 H 0.88160 0.66873 0.83129
 H242 H 0.83173 0.66832 0.88317
 H243 H 0.83120 0.61750 0.83228
 C244 C 0.85769 1.14186 0.32938
 C245 C 0.86719 1.16109 0.33899
 C246 C 0.85768 1.17099 0.35810
 C247 C 0.83853 1.16133 0.36767
 C248 C 0.82876 1.14213 0.35831
 C249 C 0.83851 1.13247 0.33921
 H250 H 0.88156 1.16882 0.33110
 H251 H 0.83139 1.16857 0.38270
 H252 H 0.83102 1.11772 0.33184
 C253 C 0.64166 0.35821 0.32957
 C254 C 0.66100 0.36737 0.33952
 C255 C 0.67065 0.35774 0.35862
 C256 C 0.66086 0.33869 0.36814
 C257 C 0.64154 0.32888 0.35882
 C258 C 0.63217 0.33898 0.33955
 H259 H 0.66853 0.38237 0.33281
 H260 H 0.66794 0.33227 0.38353
 H261 H 0.61860 0.33062 0.33106
 C262 C 0.64196 0.85799 0.82987
 C263 C 0.63260 0.83880 0.83971
 C264 C 0.64226 0.82908 0.85883
 C265 C 0.66145 0.83887 0.86819
 C266 C 0.67108 0.85804 0.85860
 C267 C 0.66117 0.86752 0.83948
 H268 H 0.61786 0.83129 0.83233
 H269 H 0.66870 0.83176 0.88323
 H270 H 0.66890 0.88189 0.83158
 C271 C 0.14161 0.35834 0.82880
 C272 C 0.16077 0.36795 0.83877
 C273 C 0.17079 0.35842 0.85782
 C274 C 0.16145 0.33909 0.86727
 C275 C 0.14242 0.32917 0.85785
 C276 C 0.13261 0.33890 0.83881
 H277 H 0.16863 0.38247 0.83139
 H278 H 0.16948 0.33130 0.88155
 H279 H 0.11726 0.33167 0.83256
 C280 C 0.14153 0.85827 0.32916
 C281 C 0.16069 0.86782 0.33921
 C282 C 0.17061 0.85824 0.35828
 C283 C 0.16118 0.83892 0.36768
 C284 C 0.14215 0.82908 0.35818
 C285 C 0.13243 0.83886 0.33913
 H286 H 0.16861 0.88232 0.33187
 H287 H 0.16914 0.83109 0.38198
 H288 H 0.11707 0.83169 0.33283
 O289 O 0.97854 0.91937 0.88796
 O290 O 0.97847 0.89342 0.86170
 C291 C 0.97090 0.91161 0.86968
 C292 C 0.95267 0.92361 0.85794
 C293 C 0.94495 0.91621 0.83698
 H294 H 0.95275 0.90199 0.82887
 O295 O 1.02249 1.08097 0.88831
 O296 O 1.02264 1.10701 0.86212
 C297 C 1.03018 1.08878 0.87007
 C298 C 1.04841 1.07679 0.85834
 C299 C 1.05610 1.08417 0.83734
 H300 H 1.04828 1.09838 0.82921
 O301 O 0.88913 0.97859 0.91862
 O302 O 0.86300 0.97869 0.89254
 C303 C 0.87090 0.97102 0.91076
 C304 C 0.85913 0.95275 0.92267
 C305 C 0.83820 0.94513 0.91520
 H306 H 0.83014 0.95302 0.90098
 O307 O 1.11189 1.02161 0.91895
 O308 O 1.13808 1.02160 0.89293
 C309 C 1.13013 1.02921 0.91115
 C310 C 1.14188 1.04743 0.92315
 C311 C 1.16284 1.05507 0.91575
 H312 H 1.17094 1.04723 0.90153
 O313 O 0.91940 0.88876 0.97766
 O314 O 0.89333 0.86268 0.97757
 C315 C 0.91155 0.87058 0.96997
 C316 C 0.92347 0.85886 0.95165
 C317 C 0.91603 0.83794 0.94394
 H318 H 0.90182 0.82986 0.95179
 O319 O 1.08144 1.11115 0.97819
 O320 O 1.10751 1.13723 0.97826
 C321 C 1.08932 1.12937 0.97059
 C322 C 1.07746 1.14117 0.95228
 C323 C 1.08498 1.16208 0.94463
 H324 H 1.09920 1.17010 0.95254
 O325 O 0.91989 1.02220 0.88803
 O326 O 0.89391 1.02235 0.86180
 C327 C 0.91210 1.02990 0.86979
 C328 C 0.92406 1.04820 0.85809
 C329 C 0.91667 1.05593 0.83712
 H330 H 0.90248 1.04810 0.82898
 O331 O 1.08120 0.97813 0.88815
 O332 O 1.10725 0.97806 0.86199
 C333 C 1.08904 0.97049 0.86990
 C334 C 1.07709 0.95226 0.85812
 C335 C 1.08452 0.94460 0.83714
 H336 H 1.09873 0.95244 0.82905
 O337 O 1.02202 0.88853 0.91863
 O338 O 1.02202 0.86243 0.89252
 C339 C 1.02962 0.87030 0.91078
 C340 C 1.04782 0.85850 0.92277
 C341 C 1.05548 0.83757 0.91532
 H342 H 1.04767 0.82952 0.90105
 O343 O 0.97892 1.11171 0.91895
 O344 O 0.97901 1.13790 0.89292
 C345 C 0.97134 1.12995 0.91113
 C346 C 0.95307 1.14168 0.92307
 C347 C 0.94536 1.16260 0.91560
 H348 H 0.95320 1.17069 0.90136
 O349 O 0.88935 1.08110 0.97796
 O350 O 0.86325 1.10715 0.97795
 C351 C 0.87117 1.08896 0.97030
 C352 C 0.85944 1.07708 0.95196
 C353 C 0.83849 1.08449 0.94432
 H354 H 0.83039 1.09864 0.95225
 O355 O 1.11136 0.91883 0.97803
 O356 O 1.13746 0.89277 0.97798
 C357 C 1.12957 0.91100 0.97038
 C358 C 1.14135 0.92298 0.95214
 C359 C 1.16235 0.91564 0.94458
 H360 H 1.17044 0.90146 0.95249
 O361 O 0.97888 1.08115 0.88821
 O362 O 0.97897 1.10719 0.86202
 C363 C 0.97129 1.08901 0.86995
 C364 C 0.95301 1.07713 0.85817
 C365 C 0.94534 1.08461 0.83719
 H366 H 0.95320 1.09882 0.82911
 O367 O 1.02215 0.91924 0.88802
 O368 O 1.02214 0.89330 0.86176
 C369 C 1.02979 0.91145 0.86976
 C370 C 1.04810 0.92337 0.85805
 C371 C 1.05580 0.91597 0.83707
 H372 H 1.04793 0.90181 0.82893
 O373 O 1.11166 0.97799 0.91899
 O374 O 1.13787 0.97793 0.89299
 C375 C 1.12986 0.97031 0.91119
 C376 C 1.14150 0.95200 0.92318
 C377 C 1.16250 0.94439 0.91589
 H378 H 1.17070 0.95231 0.90176
 O379 O 0.88927 1.02221 0.91872
 O380 O 0.86314 1.02237 0.89265
 C381 C 0.87108 1.02991 0.91089
 C382 C 0.85940 1.04818 0.92290
 C383 C 0.83845 1.05586 0.91553
 H384 H 0.83031 1.04802 0.90132
 O385 O 0.91996 1.11173 0.97805
 O386 O 0.89401 1.13793 0.97805
 C387 C 0.91218 1.12997 0.97041
 C388 C 0.92413 1.14169 0.95209
 C389 C 0.91669 1.16260 0.94436
 H390 H 0.90249 1.17070 0.95222
 O391 O 1.08075 0.88821 0.97795
 O392 O 1.10669 0.86200 0.97791
 C393 C 1.08854 0.87000 0.97027
 C394 C 1.07664 0.85835 0.95190
 C395 C 1.08403 0.83742 0.94419
 H396 H 1.09816 0.82927 0.95210
 O397 O 1.08125 1.02175 0.88829
 O398 O 1.10729 1.02174 0.86211
 C399 C 1.08911 1.02940 0.87005
 C400 C 1.07725 1.04773 0.85832
 C401 C 1.08467 1.05538 0.83733
 H402 H 1.09881 1.04747 0.82919
 O403 O 0.91978 0.97856 0.88795
 O404 O 0.89380 0.97866 0.86173
 C405 C 0.91195 0.97097 0.86968
 C406 C 0.92382 0.95266 0.85794
 C407 C 0.91637 0.94499 0.83697
 H408 H 0.90220 0.95287 0.82886
 O409 O 1.02254 1.11157 0.91901
 O410 O 1.02270 1.13776 0.89299
 C411 C 1.03026 1.12976 0.91121
 C412 C 1.04856 1.14138 0.92322
 C413 C 1.05636 1.16229 0.91583
 H414 H 1.04858 1.17045 0.90161
 O415 O 0.97842 0.88869 0.91860
 O416 O 0.97836 0.86259 0.89250
 C417 C 0.97075 0.87051 0.91073
 C418 C 0.95244 0.85883 0.92266
 C419 C 0.94473 0.83791 0.91521
 H420 H 0.95259 0.82981 0.90100
 O421 O 1.11196 1.08044 0.97816
 O422 O 1.13817 1.10637 0.97822
 C423 C 1.13020 1.08823 0.97054
 C424 C 1.14191 1.07631 0.95221
 C425 C 1.16286 1.08369 0.94456
 H426 H 1.17098 1.09784 0.95246
 O427 O 0.88890 0.91950 0.97766
 O428 O 0.86269 0.89357 0.97756
 C429 C 0.87068 0.91175 0.96997
 C430 C 0.85903 0.92375 0.95165
 C431 C 0.83810 0.91640 0.94391
 H432 H 0.82996 0.90221 0.95175
 Cu433 Cu 1.00029 0.90656 0.90592
 Cu434 Cu 1.00024 0.87532 0.87449
 Cu435 Cu 1.00069 1.09374 0.90623
 Cu436 Cu 1.00085 1.12509 0.87489
 Cu437 Cu 0.90712 1.00038 0.90594
 Cu438 Cu 0.87585 1.00053 0.87455
 Cu439 Cu 1.09389 0.99988 0.90620
 Cu440 Cu 1.12525 0.99983 0.87488
 C441 C 0.94213 0.94199 0.86817
 H442 H 0.94778 0.94760 0.88448
 C443 C 0.92692 0.92688 0.82653
 C444 C 1.05897 1.05842 0.86858
 H445 H 1.05334 1.05282 0.88490
 C446 C 1.07411 1.07348 0.82687
 C447 C 0.86930 0.94208 0.94105
 H448 H 0.88558 0.94765 0.94672
 C449 C 0.82772 0.92707 0.92581
 C450 C 1.13166 1.05802 0.94153
 H451 H 1.11537 1.05243 0.94714
 C452 C 1.17329 1.07309 0.92644
 C453 C 0.94183 0.86905 0.94103
 H454 H 0.94747 0.88531 0.94668
 C455 C 0.92665 0.82751 0.92583
 C456 C 1.05909 1.13107 0.94160
 H457 H 1.05339 1.11481 0.94720
 C458 C 1.07445 1.17260 0.92652
 C459 C 0.94239 1.05877 0.86836
 H460 H 0.94800 1.05310 0.88467
 C461 C 0.92729 1.07402 0.82671
 C462 C 1.05873 0.94167 0.86833
 H463 H 1.05309 0.94727 0.88464
 C464 C 1.07389 0.92657 0.82665
 C465 C 1.05838 0.86864 0.94121
 H466 H 1.05278 0.88492 0.94686
 C467 C 1.07347 0.82706 0.92602
 C468 C 0.94247 1.13148 0.94147
 H469 H 0.94810 1.11522 0.94714
 C470 C 0.92729 1.17303 0.92623
 C471 C 0.86965 1.05877 0.94127
 H472 H 0.88594 1.05315 0.94685
 C473 C 0.82803 1.07390 0.92623
 C474 C 1.13117 0.94132 0.94146
 H475 H 1.11484 0.94689 0.94699
 C476 C 1.17289 0.92633 0.92658
 O477 O 1.02176 0.91897 1.11151
 O478 O 1.02168 0.89294 1.13771
 C479 C 1.02935 0.91112 1.12977
 C480 C 1.04764 0.92300 1.14154
 C481 C 1.05523 0.91561 1.16257
 H482 H 1.04730 0.90148 1.17071
 O483 O 0.97866 1.08047 1.11173
 O484 O 0.97869 1.10643 1.13797
 C485 C 0.97102 1.08829 1.12998
 C486 C 0.95266 1.07643 1.14166
 C487 C 0.94491 1.08389 1.16260
 H488 H 0.95278 1.09805 1.17074
 O489 O 0.88892 1.02193 1.08070
 O490 O 0.86270 1.02196 1.10670
 C491 C 0.87071 1.02959 1.08850
 C492 C 0.85907 1.04793 1.07655
 C493 C 0.83814 1.05563 1.08395
 H494 H 0.82998 1.04776 1.09813
 O495 O 1.11165 0.97759 1.08089
 O496 O 1.13778 0.97742 1.10696
 C497 C 1.12982 0.96986 1.08873
 C498 C 1.14146 0.95155 1.07676
 C499 C 1.16235 0.94375 1.08420
 H500 H 1.17048 0.95154 1.09843
 O501 O 1.08067 0.88817 1.02169
 O502 O 1.10661 0.86196 1.02170
 C503 C 1.08844 0.86994 1.02934
 C504 C 1.07650 0.85825 1.04768
 C505 C 1.08388 0.83732 1.05542
 H506 H 1.09805 0.82919 1.04756
 O507 O 0.91995 1.11155 1.02180
 O508 O 0.89401 1.13776 1.02185
 C509 C 0.91216 1.12976 1.02949
 C510 C 0.92408 1.14137 1.04789
 C511 C 0.91670 1.16229 1.05564
 H512 H 0.90256 1.17046 1.04776
 O513 O 0.91934 0.97817 1.11141
 O514 O 0.89328 0.97817 1.13756
 C515 C 0.91146 0.97052 1.12964
 C516 C 0.92332 0.95220 1.14139
 C517 C 0.91584 0.94452 1.16235
 H518 H 0.90165 0.95240 1.17045
 O519 O 1.08118 1.02130 1.11159
 O520 O 1.10717 1.02120 1.13780
 C521 C 1.08902 1.02889 1.12985
 C522 C 1.07715 1.04719 1.14162
 C523 C 1.08467 1.05487 1.16256
 H524 H 1.09888 1.04701 1.17063
 O525 O 0.97815 0.88852 1.08071
 O526 O 0.97800 0.86233 1.10674
 C527 C 0.97045 0.87031 1.08850
 C528 C 0.95221 0.85865 1.07646
 C529 C 0.94450 0.83770 1.08380
 H530 H 0.95230 0.82955 1.09803
 O531 O 1.02236 1.11100 1.08107
 O532 O 1.02245 1.13712 1.10715
 C533 C 1.03003 1.12919 1.08891
 C534 C 1.04831 1.14089 1.07694
 C535 C 1.05595 1.16185 1.08432
 H536 H 1.04807 1.16997 1.09852
 O537 O 0.88882 0.91941 1.02139
 O538 O 0.86261 0.89348 1.02135
 C539 C 0.87058 0.91163 1.02901
 C540 C 0.85887 0.92355 1.04734
 C541 C 0.83794 0.91612 1.05503
 H542 H 0.82985 0.90194 1.04714
 O543 O 1.11194 1.08033 1.02188
 O544 O 1.13814 1.10627 1.02199
 C545 C 1.13016 1.08808 1.02956
 C546 C 1.14184 1.07605 1.04785
 C547 C 1.16279 1.08338 1.05555
 H548 H 1.17093 1.09757 1.04772
 O549 O 1.02229 1.08037 1.11176
 O550 O 1.02239 1.10633 1.13800
 C551 C 1.02996 1.08815 1.13001
 C552 C 1.04825 1.07618 1.14171
 C553 C 1.05603 1.08360 1.16265
 H554 H 1.04824 1.09781 1.17078
 O555 O 0.97815 0.91905 1.11148
 O556 O 0.97800 0.89301 1.13767
 C557 C 0.97045 0.91122 1.12971
 C558 C 0.95218 0.92318 1.14143
 C559 C 0.94444 0.91576 1.16239
 H560 H 0.95223 0.90154 1.17052
 O561 O 1.11177 1.02121 1.08087
 O562 O 1.13791 1.02110 1.10694
 C563 C 1.13000 1.02877 1.08872
 C564 C 1.14177 1.04702 1.07678
 C565 C 1.16272 1.05462 1.08423
 H566 H 1.17080 1.04670 1.09843
 O567 O 0.88882 0.97830 1.08063
 O568 O 0.86261 0.97828 1.10663
 C569 C 0.87058 0.97068 1.08841
 C570 C 0.85886 0.95244 1.07640
 C571 C 0.83793 0.94474 1.08382
 H572 H 0.82984 0.95255 1.09806
 O573 O 1.08135 1.11099 1.02192
 O574 O 1.10741 1.13708 1.02204
 C575 C 1.08920 1.12917 1.02962
 C576 C 1.07726 1.14088 1.04793
 C577 C 1.08463 1.16183 1.05558
 H578 H 1.09880 1.16995 1.04768
 O579 O 0.91937 0.88873 1.02139
 O580 O 0.89331 0.86265 1.02135
 C581 C 0.91150 0.87053 1.02901
 C582 C 0.92337 0.85876 1.04734
 C583 C 0.91592 0.83780 1.05495
 H584 H 0.90177 0.82973 1.04701
 O585 O 1.08096 0.97770 1.11151
 O586 O 1.10694 0.97754 1.13774
 C587 C 1.08872 0.97002 1.12977
 C588 C 1.07669 0.95182 1.14152
 C589 C 1.08401 0.94418 1.16255
 H590 H 1.09820 0.95200 1.17069
 O591 O 0.91945 1.02179 1.11148
 O592 O 0.89338 1.02184 1.13762
 C593 C 0.91161 1.02941 1.12973
 C594 C 0.92357 1.04763 1.14153
 C595 C 0.91608 1.05536 1.16247
 H596 H 0.90181 1.04758 1.17052
 O597 O 0.97876 1.11115 1.08109
 O598 O 0.97879 1.13726 1.10718
 C599 C 0.97117 1.12938 1.08894
 C600 C 0.95295 1.14118 1.07698
 C601 C 0.94530 1.16211 1.08446
 H602 H 0.95314 1.17013 1.09873
 O603 O 1.02175 0.88836 1.08083
 O604 O 1.02166 0.86217 1.10688
 C605 C 1.02932 0.87011 1.08866
 C606 C 1.04757 0.85835 1.07672
 C607 C 1.05522 0.83741 1.08419
 H608 H 1.04736 0.82935 1.09843
 O609 O 1.11140 0.91867 1.02174
 O610 O 1.13748 0.89260 1.02174
 C611 C 1.12959 0.91079 1.02939
 C612 C 1.14134 0.92265 1.04772
 C613 C 1.16223 0.91512 1.05541
 H614 H 1.17026 0.90091 1.04752
 O615 O 0.88921 1.08106 1.02169
 O616 O 0.86312 1.10712 1.02172
 C617 C 0.87100 1.08890 1.02933
 C618 C 0.85921 1.07695 1.04760
 C619 C 0.83828 1.08439 1.05526
 H620 H 0.83023 1.09862 1.04740
 Cu621 Cu 0.99996 0.90633 1.09353
 Cu622 Cu 0.99982 0.87499 1.12488
 Cu623 Cu 1.00051 1.09314 1.09380
 Cu624 Cu 1.00059 1.12440 1.12521
 Cu625 Cu 0.90674 0.90670 0.99953
 Cu626 Cu 0.87536 0.87548 0.99945
 Cu627 Cu 1.09344 0.90608 0.99986
 Cu628 Cu 1.12467 0.87470 0.99982
 Cu629 Cu 0.90722 1.09375 0.99987
 Cu630 Cu 0.87599 1.12512 0.99989
 Cu631 Cu 1.09406 1.09313 1.00003
 Cu632 Cu 1.12543 1.12435 1.00014
 Cu633 Cu 0.90674 1.00005 1.09345
 Cu634 Cu 0.87536 1.00007 1.12475
 Cu635 Cu 1.09379 0.99946 1.09360
 Cu636 Cu 1.12507 0.99930 1.12499
 C637 C 1.05835 0.94126 1.13127
 H638 H 1.05280 0.94686 1.11492
 C639 C 1.07330 0.92619 1.17303
 C640 C 0.94201 1.05814 1.13138
 H641 H 0.94769 1.05249 1.11510
 C642 C 0.92673 1.07337 1.17297
 C643 C 0.86936 1.05856 1.05822
 H644 H 0.88563 1.05292 1.05261
 C645 C 0.82778 1.07375 1.07332
 C646 C 1.13121 0.94102 1.05837
 H647 H 1.11496 0.94672 1.05273
 C648 C 1.17270 0.92565 1.07353
 C649 C 1.05818 0.86852 1.05831
 H650 H 1.05259 0.88479 1.05265
 C651 C 1.07326 0.82694 1.07356
 C652 C 0.94236 1.13106 1.05853
 H653 H 0.94795 1.11480 1.05286
 C654 C 0.92730 1.17263 1.07381
 C655 C 0.94165 0.94156 1.13118
 H656 H 0.94732 0.94719 1.11488
 C657 C 0.92638 0.92642 1.17281
 C658 C 1.05879 1.05782 1.13144
 H659 H 1.05310 1.05219 1.11516
 C660 C 1.07413 1.07296 1.17304
 C661 C 0.94166 0.86894 1.05807
 H662 H 0.94730 0.88523 1.05250
 C663 C 0.92648 0.82731 1.07307
 C664 C 1.05894 1.13065 1.05859
 H665 H 1.05335 1.11436 1.05299
 C666 C 1.07399 1.17228 1.07366
 C667 C 0.86908 0.94186 1.05801
 H668 H 0.88536 0.94749 1.05238
 C669 C 0.82751 0.92669 1.07315
 C670 C 1.13158 1.05772 1.05844
 H671 H 1.11529 1.05216 1.05280
 C672 C 1.17320 1.07268 1.07363
 O673 O 0.97806 0.41937 0.38794
 O674 O 0.97803 0.39338 0.36173
 C675 C 0.97042 0.41156 0.36969
 C676 C 0.95213 0.42348 0.35795
 C677 C 0.94441 0.41602 0.33701
 H678 H 0.95225 0.40181 0.32891
 O679 O 1.02181 0.58086 0.38802
 O680 O 1.02185 0.60693 0.36186
 C681 C 1.02945 0.58873 0.36979
 C682 C 1.04774 0.57682 0.35803
 C683 C 1.05545 0.58430 0.33708
 H684 H 1.04761 0.59851 0.32899
 O685 O 0.88848 0.47835 0.41866
 O686 O 0.86234 0.47836 0.39259
 C687 C 0.87027 0.47074 0.41082
 C688 C 0.85853 0.45248 0.42280
 C689 C 0.83757 0.44485 0.41539
 H690 H 0.82948 0.45271 0.40117
 O691 O 1.11138 0.52187 0.41868
 O692 O 1.13755 0.52187 0.39264
 C693 C 1.12961 0.52948 0.41086
 C694 C 1.14134 0.54772 0.42285
 C695 C 1.16227 0.55542 0.41543
 H696 H 1.17036 0.54761 0.40118
 O697 O 0.91900 0.38873 0.47782
 O698 O 0.89297 0.36261 0.47772
 C699 C 0.91117 0.37054 0.47012
 C700 C 0.92312 0.35885 0.45179
 C701 C 0.91571 0.33793 0.44406
 H702 H 0.90151 0.32983 0.45191
 O703 O 1.08076 0.61115 0.47796
 O704 O 1.10676 0.63730 0.47799
 C705 C 1.08858 0.62938 0.47034
 C706 C 1.07668 0.64114 0.45203
 C707 C 1.08414 0.66207 0.44439
 H708 H 1.09834 0.67012 0.45229
 O709 O 0.91916 0.52196 0.38799
 O710 O 0.89318 0.52203 0.36177
 C711 C 0.91136 0.52962 0.36974
 C712 C 0.92331 0.54791 0.35801
 C713 C 0.91591 0.55561 0.33704
 H714 H 0.90173 0.54777 0.32890
 O715 O 1.08071 0.47831 0.38799
 O716 O 1.10673 0.47825 0.36180
 C717 C 1.08853 0.47066 0.36974
 C718 C 1.07659 0.45240 0.35800
 C719 C 1.08401 0.44471 0.33703
 H720 H 1.09821 0.45255 0.32892
 O721 O 1.02165 0.38869 0.41863
 O722 O 1.02167 0.36256 0.39257
 C723 C 1.02928 0.37048 0.41079
 C724 C 1.04754 0.35875 0.42276
 C725 C 1.05526 0.33784 0.41529
 H726 H 1.04745 0.32977 0.40104
 O727 O 0.97821 0.61142 0.41879
 O728 O 0.97820 0.63764 0.39279
 C729 C 0.97058 0.62966 0.41100
 C730 C 0.95233 0.64136 0.42300
 C731 C 0.94470 0.66235 0.41564
 H732 H 0.95258 0.67049 0.40145
 O733 O 0.88848 0.58082 0.47787
 O734 O 0.86236 0.60685 0.47784
 C735 C 0.87028 0.58867 0.47020
 C736 C 0.85858 0.57678 0.45185
 C737 C 0.83766 0.58423 0.44415
 H738 H 0.82957 0.59840 0.45204
 O739 O 1.11110 0.41925 0.47789
 O740 O 1.13724 0.39324 0.47788
 C741 C 1.12932 0.41144 0.47026
 C742 C 1.14108 0.42339 0.45198
 C743 C 1.16206 0.41602 0.44439
 H744 H 1.17016 0.40186 0.45231
 O745 O 0.97819 0.58087 0.38804
 O746 O 0.97817 0.60694 0.36188
 C747 C 0.97055 0.58874 0.36980
 C748 C 0.95227 0.57684 0.35804
 C749 C 0.94460 0.58428 0.33706
 H750 H 0.95246 0.59847 0.32895
 O751 O 1.02168 0.41937 0.38798
 O752 O 1.02170 0.39339 0.36176
 C753 C 1.02932 0.41156 0.36973
 C754 C 1.04762 0.42348 0.35799
 C755 C 1.05531 0.41606 0.33702
 H756 H 1.04745 0.40188 0.32890
 O757 O 1.11126 0.47826 0.41873
 O758 O 1.13744 0.47820 0.39270
 C759 C 1.12947 0.47060 0.41093
 C760 C 1.14115 0.45233 0.42294
 C761 C 1.16213 0.44469 0.41561
 H762 H 1.17029 0.45256 0.40143
 O763 O 0.88849 0.52197 0.41864
 O764 O 0.86236 0.52204 0.39257
 C765 C 0.87029 0.52963 0.41080
 C766 C 0.85858 0.54790 0.42278
 C767 C 0.83767 0.55561 0.41534
 H768 H 0.82957 0.54780 0.40110
 O769 O 0.91919 0.61134 0.47793
 O770 O 0.89321 0.63752 0.47789
 C771 C 0.91140 0.62957 0.47028
 C772 C 0.92337 0.64131 0.45200
 C773 C 0.91601 0.66229 0.44438
 H774 H 0.90185 0.67040 0.45228
 O775 O 1.08052 0.38860 0.47781
 O776 O 1.10651 0.36244 0.47779
 C777 C 1.08835 0.37040 0.47015
 C778 C 1.07645 0.35871 0.45180
 C779 C 1.08390 0.33781 0.44407
 H780 H 1.09809 0.32971 0.45194
 O781 O 1.08076 0.52193 0.38800
 O782 O 1.10677 0.52194 0.36180
 C783 C 1.08859 0.52957 0.36975
 C784 C 1.07669 0.54788 0.35801
 C785 C 1.08414 0.55562 0.33706
 H786 H 1.09834 0.54780 0.32895
 O787 O 0.91908 0.47833 0.38794
 O788 O 0.89309 0.47834 0.36172
 C789 C 0.91126 0.47071 0.36968
 C790 C 0.92318 0.45242 0.35794
 C791 C 0.91572 0.44468 0.33700
 H792 H 0.90151 0.45251 0.32890
 O793 O 1.02182 0.61139 0.41879
 O794 O 1.02187 0.63761 0.39279
 C795 C 1.02948 0.62962 0.41100
 C796 C 1.04777 0.64127 0.42299
 C797 C 1.05551 0.66220 0.41560
 H798 H 1.04770 0.67035 0.40138
 O799 O 0.97803 0.38879 0.41868
 O800 O 0.97800 0.36265 0.39262
 C801 C 0.97039 0.37059 0.41085
 C802 C 0.95209 0.35888 0.42280
 C803 C 0.94442 0.33796 0.41534
 H804 H 0.95228 0.32987 0.40112
 O805 O 1.11143 0.58059 0.47795
 O806 O 1.13757 0.60660 0.47798
 C807 C 1.12964 0.58843 0.47031
 C808 C 1.14136 0.57656 0.45196
 C809 C 1.16229 0.58400 0.44427
 H810 H 1.17039 0.59815 0.45219
 O811 O 0.88839 0.41936 0.47784
 O812 O 0.86221 0.39340 0.47775
 C813 C 0.87018 0.41158 0.47016
 C814 C 0.85849 0.42355 0.45184
 C815 C 0.83754 0.41619 0.44418
 H816 H 0.82942 0.40202 0.45207
 Cu817 Cu 0.99986 0.40666 0.40592
 Cu818 Cu 0.99985 0.37537 0.37454
 Cu819 Cu 1.00000 0.59353 0.40602
 Cu820 Cu 1.00002 0.62491 0.37471
 Cu821 Cu 0.90641 0.50015 0.40592
 Cu822 Cu 0.87512 0.50020 0.37453
 Cu823 Cu 1.09342 0.50010 0.40596
 Cu824 Cu 1.12474 0.50006 0.37461
 C825 C 0.94154 0.44183 0.36817
 H826 H 0.94720 0.44749 0.38446
 C827 C 0.92632 0.42660 0.32657
 C828 C 1.05834 0.55846 0.36825
 H829 H 1.05269 0.55279 0.38454
 C830 C 1.07354 0.57372 0.32663
 C831 C 0.86874 0.44186 0.44118
 H832 H 0.88503 0.44744 0.44680
 C833 C 0.82712 0.42681 0.42607
 C834 C 1.13114 0.55827 0.44127
 H835 H 1.11487 0.55263 0.44690
 C836 C 1.17271 0.57344 0.42612
 C837 C 0.94147 0.36908 0.44118
 H838 H 0.94709 0.38534 0.44683
 C839 C 0.92634 0.32752 0.42595
 C840 C 1.05833 0.63099 0.44136
 H841 H 1.05268 0.61471 0.44697
 C842 C 1.07358 0.67256 0.42629
 C843 C 0.94164 0.55850 0.36827
 H844 H 0.94725 0.55285 0.38459
 C845 C 0.92654 0.57368 0.32659
 C846 C 1.05823 0.44181 0.36823
 H847 H 1.05261 0.44743 0.38454
 C848 C 1.07339 0.42666 0.32657
 C849 C 1.05812 0.36893 0.44117
 H850 H 1.05247 0.38519 0.44683
 C851 C 1.07332 0.32741 0.42593
 C852 C 0.94168 0.63109 0.44133
 H853 H 0.94726 0.61478 0.44691
 C854 C 0.92666 0.67277 0.42632
 C855 C 0.86879 0.55846 0.44118
 H856 H 0.88506 0.55282 0.44682
 C857 C 0.82724 0.57366 0.42601
 C858 C 1.13087 0.44170 0.44128
 H859 H 1.11456 0.44729 0.44683
 C860 C 1.17255 0.42666 0.42633
 O861 O 1.02140 0.41898 0.61135
 O862 O 1.02144 0.39295 0.63754
 C863 C 1.02904 0.41114 0.62960
 C864 C 1.04731 0.42307 0.64135
 C865 C 1.05495 0.41566 0.66235
 H866 H 1.04709 0.40148 0.67047
 O867 O 0.97793 0.58070 0.61147
 O868 O 0.97795 0.60670 0.63767
 C869 C 0.97031 0.58853 0.62972
 C870 C 0.95202 0.57663 0.64148
 C871 C 0.94432 0.58408 0.66243
 H872 H 0.95216 0.59829 0.67053
 O873 O 0.88842 0.52178 0.58081
 O874 O 0.86224 0.52182 0.60685
 C875 C 0.87020 0.52943 0.58863
 C876 C 0.85851 0.54771 0.57664
 C877 C 0.83756 0.55539 0.58402
 H878 H 0.82943 0.54755 0.59823
 O879 O 1.11109 0.47800 0.58078
 O880 O 1.13719 0.47790 0.60688
 C881 C 1.12928 0.47033 0.58863
 C882 C 1.14099 0.45208 0.57666
 C883 C 1.16192 0.44439 0.58409
 H884 H 1.17002 0.45223 0.59832
 O885 O 1.08041 0.38858 0.52153
 O886 O 1.10639 0.36240 0.52156
 C887 C 1.08820 0.37034 0.52917
 C888 C 1.07621 0.35857 0.54742
 C889 C 1.08354 0.33757 0.55500
 H890 H 1.09769 0.32945 0.54709
 O891 O 0.91906 0.61139 0.52165
 O892 O 0.89309 0.63756 0.52166
 C893 C 0.91126 0.62961 0.52930
 C894 C 0.92319 0.64131 0.54762
 C895 C 0.91580 0.66226 0.55532
 H896 H 0.90162 0.67038 0.54745
 O897 O 0.91897 0.47812 0.61152
 O898 O 0.89296 0.47808 0.63772
 C899 C 0.91114 0.47046 0.62977
 C900 C 0.92303 0.45213 0.64148
 C901 C 0.91560 0.44439 0.66244
 H902 H 0.90142 0.45224 0.67058
 O903 O 1.08046 0.52159 0.61146
 O904 O 1.10641 0.52155 0.63771
 C905 C 1.08825 0.52919 0.62973
 C906 C 1.07631 0.54744 0.64148
 C907 C 1.08368 0.55507 0.66249
 H908 H 1.09784 0.54718 0.67063
 O909 O 0.97775 0.38840 0.58069
 O910 O 0.97772 0.36222 0.60673
 C911 C 0.97010 0.37019 0.58852
 C912 C 0.95180 0.35852 0.57657
 C913 C 0.94401 0.33763 0.58403
 H914 H 0.95180 0.32951 0.59828
 O915 O 1.02161 0.61121 0.58075
 O916 O 1.02168 0.63737 0.60680
 C917 C 1.02928 0.62941 0.58858
 C918 C 1.04757 0.64110 0.57661
 C919 C 1.05522 0.66205 0.58399
 H920 H 1.04734 0.67019 0.59818
 O921 O 0.88836 0.41928 0.52158
 O922 O 0.86218 0.39332 0.52154
 C923 C 0.87014 0.41148 0.52921
 C924 C 0.85844 0.42339 0.54756
 C925 C 0.83750 0.41599 0.55526
 H926 H 0.82938 0.40182 0.54738
 O927 O 1.11135 0.58050 0.52168
 O928 O 1.13749 0.60651 0.52177
 C929 C 1.12954 0.58831 0.52938
 C930 C 1.14122 0.57637 0.54771
 C931 C 1.16215 0.58377 0.55543
 H932 H 1.17028 0.59793 0.54755
 O933 O 1.02153 0.58060 0.61146
 O934 O 1.02160 0.60660 0.63766
 C935 C 1.02917 0.58840 0.62972
 C936 C 1.04740 0.57642 0.64147
 C937 C 1.05504 0.58378 0.66248
 H938 H 1.04719 0.59796 0.67061
 O939 O 0.97779 0.41903 0.61136
 O940 O 0.97778 0.39300 0.63756
 C941 C 0.97017 0.41120 0.62962
 C942 C 0.95192 0.42313 0.64140
 C943 C 0.94423 0.41566 0.66236
 H944 H 0.95205 0.40143 0.67043
 O945 O 1.11116 0.52160 0.58084
 O946 O 1.13727 0.52157 0.60695
 C947 C 1.12937 0.52920 0.58871
 C948 C 1.14114 0.54746 0.57677
 C949 C 1.16207 0.55511 0.58422
 H950 H 1.17013 0.54726 0.59847
 O951 O 0.88842 0.47817 0.58078
 O952 O 0.86225 0.47814 0.60682
 C953 C 0.87020 0.47054 0.58860
 C954 C 0.85847 0.45229 0.57661
 C955 C 0.83754 0.44463 0.58404
 H956 H 0.82945 0.45247 0.59827
 O957 O 1.08073 0.61111 0.52168
 O958 O 1.10672 0.63727 0.52176
 C959 C 1.08852 0.62932 0.52935
 C960 C 1.07655 0.64105 0.54764
 C961 C 1.08393 0.66200 0.55529
 H962 H 1.09812 0.67010 0.54741
 O963 O 0.91889 0.38858 0.52156
 O964 O 0.89286 0.36247 0.52151
 C965 C 0.91103 0.37036 0.52918
 C966 C 0.92290 0.35860 0.54751
 C967 C 0.91538 0.33772 0.55524
 H968 H 0.90117 0.32967 0.54737
 O969 O 1.08042 0.47797 0.61141
 O970 O 1.10638 0.47788 0.63767
 C971 C 1.08820 0.47030 0.62967
 C972 C 1.07624 0.45202 0.64139
 C973 C 1.08361 0.44435 0.66239
 H974 H 1.09778 0.45221 0.67053
 O975 O 0.91900 0.52175 0.61154
 O976 O 0.89298 0.52178 0.63773
 C977 C 0.91117 0.52939 0.62978
 C978 C 0.92308 0.54768 0.64151
 C979 C 0.91564 0.55540 0.66247
 H980 H 0.90144 0.54757 0.67059
 O981 O 0.97799 0.61131 0.58076
 O982 O 0.97801 0.63746 0.60681
 C983 C 0.97039 0.62953 0.58858
 C984 C 0.95214 0.64127 0.57662
 C985 C 0.94449 0.66222 0.58405
 H986 H 0.95236 0.67030 0.59827
 O987 O 1.02136 0.38843 0.58060
 O988 O 1.02140 0.36224 0.60663
 C989 C 1.02899 0.37020 0.58841
 C990 C 1.04724 0.35850 0.57641
 C991 C 1.05483 0.33749 0.58373
 H992 H 1.04693 0.32933 0.59789
 O993 O 1.11110 0.41912 0.52161
 O994 O 1.13723 0.39310 0.52165
 C995 C 1.12930 0.41128 0.52928
 C996 C 1.14100 0.42318 0.54762
 C997 C 1.16193 0.41575 0.55531
 H998 H 1.17003 0.40158 0.54742
 O999 O 0.88850 0.58072 0.52161
 O1000 O 0.86237 0.60675 0.52163
 C1001 C 0.87029 0.58855 0.52926
 C1002 C 0.85855 0.57662 0.54758
 C1003 C 0.83761 0.58404 0.55522
 H1004 H 0.82952 0.59821 0.54731
 Cu1005 Cu 0.99957 0.40632 0.59339
 Cu1006 Cu 0.99959 0.37497 0.62474
 Cu1007 Cu 0.99976 0.59335 0.59350
 Cu1008 Cu 0.99982 0.62466 0.62486
 Cu1009 Cu 0.90627 0.40659 0.49971
 Cu1010 Cu 0.87493 0.37533 0.49962
 Cu1011 Cu 1.09318 0.40650 0.49972
 Cu1012 Cu 1.12446 0.37517 0.49972
 Cu1013 Cu 0.90641 0.59346 0.49977
 Cu1014 Cu 0.87514 0.62479 0.49975
 Cu1015 Cu 1.09347 0.59323 0.49981
 Cu1016 Cu 1.12475 0.62454 0.49988
 Cu1017 Cu 0.90631 0.49996 0.59356
 Cu1018 Cu 0.87499 0.49995 0.62491
 Cu1019 Cu 1.09318 0.49980 0.59350
 Cu1020 Cu 1.12443 0.49972 0.62494
 C1021 C 1.05794 0.44141 0.63111
 H1022 H 1.05235 0.44702 0.61478
 C1023 C 1.07298 0.42629 0.67283
 C1024 C 0.94143 0.55827 0.63127
 H1025 H 0.94707 0.55262 0.61497
 C1026 C 0.92624 0.57349 0.67289
 C1027 C 0.86876 0.55830 0.55826
 H1028 H 0.88504 0.55268 0.55266
 C1029 C 0.82715 0.57344 0.57332
 C1030 C 1.13078 0.44149 0.55827
 H1031 H 1.11451 0.44712 0.55264
 C1032 C 1.17235 0.42635 0.57342
 C1033 C 1.05791 0.36879 0.55810
 H1034 H 1.05236 0.38513 0.55255
 C1035 C 1.07286 0.32706 0.57303
 C1036 C 0.94151 0.63107 0.55825
 H1037 H 0.94711 0.61479 0.55262
 C1038 C 0.92644 0.67267 0.57342
 C1039 C 0.94135 0.44152 0.63121
 H1040 H 0.94699 0.44718 0.61491
 C1041 C 0.92619 0.42627 0.67284
 C1042 C 1.05801 0.55810 0.63122
 H1043 H 1.05242 0.55252 0.61488
 C1044 C 1.07306 0.57312 0.67295
 C1045 C 0.94126 0.36875 0.55815
 H1046 H 0.94696 0.38499 0.55249
 C1047 C 0.92592 0.32726 0.57338
 C1048 C 1.05821 0.63084 0.55827
 H1049 H 1.05262 0.61454 0.55268
 C1050 C 1.07328 0.67247 0.57334
 C1051 C 0.86868 0.44170 0.55822
 H1052 H 0.88495 0.44731 0.55258
 C1053 C 0.82709 0.42660 0.57339
 C1054 C 1.13097 0.55807 0.55836
 H1055 H 1.11469 0.55247 0.55271
 C1056 C 1.17254 0.57315 0.57356
 O1057 O 0.47787 0.91926 0.38893
 O1058 O 0.47779 0.89322 0.36277
 C1059 C 0.47018 0.91140 0.37072
 C1060 C 0.45186 0.92330 0.35901
 C1061 C 0.44419 0.91587 0.33804
 H1062 H 0.45206 0.90170 0.32991
 O1063 O 0.52113 1.08098 0.38820
 O1064 O 0.52102 1.10696 0.36195
 C1065 C 0.52870 1.08880 0.36991
 C1066 C 0.54698 1.07690 0.35813
 C1067 C 0.55468 1.08438 0.33717
 H1068 H 0.54683 1.09859 0.32908
 O1069 O 0.38809 0.97813 0.41966
 O1070 O 0.36191 0.97800 0.39364
 C1071 C 0.36990 0.97043 0.41186
 C1072 C 0.35827 0.95210 0.42386
 C1073 C 0.33738 0.94431 0.41645
 H1074 H 0.32923 0.95212 0.40223
 O1075 O 0.61077 1.02215 0.41878
 O1076 O 0.63687 1.02220 0.39266
 C1077 C 0.62896 1.02981 0.41090
 C1078 C 0.64068 1.04808 0.42284
 C1079 C 0.66163 1.05572 0.41542
 H1080 H 0.66972 1.04785 0.40120
 O1081 O 0.41915 0.88864 0.47882
 O1082 O 0.39324 0.86240 0.47894
 C1083 C 0.41138 0.87038 0.47125
 C1084 C 0.42331 0.85864 0.45295
 C1085 C 0.41595 0.83766 0.44535
 H1086 H 0.40181 0.82954 0.45329
 O1087 O 0.58026 1.11173 0.47793
 O1088 O 0.60619 1.13795 0.47776
 C1089 C 0.58801 1.12995 0.47021
 C1090 C 0.57601 1.14162 0.45189
 C1091 C 0.58336 1.16256 0.44415
 H1092 H 0.59754 1.17070 0.45199
 O1093 O 0.41858 1.02176 0.38881
 O1094 O 0.39255 1.02167 0.36263
 C1095 C 0.41073 1.02933 0.37053
 C1096 C 0.42262 1.04759 0.35870
 C1097 C 0.41519 1.05516 0.33768
 H1098 H 0.40102 1.04725 0.32960
 O1099 O 0.58020 0.97843 0.38822
 O1100 O 0.60614 0.97841 0.36194
 C1101 C 0.58800 0.97076 0.36997
 C1102 C 0.57611 0.95240 0.35834
 C1103 C 0.58354 0.94460 0.33741
 H1104 H 0.59771 0.95243 0.32923
 O1105 O 0.52165 0.88875 0.41949
 O1106 O 0.52163 0.86254 0.39349
 C1107 C 0.52929 0.87054 0.41167
 C1108 C 0.54764 0.85889 0.42359
 C1109 C 0.55535 0.83797 0.41618
 H1110 H 0.54748 0.82981 0.40201
 O1111 O 0.47754 1.11155 0.41900
 O1112 O 0.47738 1.13766 0.39289
 C1113 C 0.46984 1.12973 0.41116
 C1114 C 0.45159 1.14144 0.42316
 C1115 C 0.44386 1.16236 0.41573
 H1116 H 0.45166 1.17046 0.40147
 O1117 O 0.38815 1.08090 0.47843
 O1118 O 0.36198 1.10687 0.47847
 C1119 C 0.36991 1.08870 0.47082
 C1120 C 0.35816 1.07675 0.45253
 C1121 C 0.33727 1.08422 0.44477
 H1122 H 0.32922 1.09847 0.45258
 O1123 O 0.61134 0.91975 0.47816
 O1124 O 0.63756 0.89382 0.47811
 C1125 C 0.62954 0.91196 0.47045
 C1126 C 0.64115 0.92388 0.45204
 C1127 C 0.66207 0.91651 0.44428
 H1128 H 0.67024 0.90237 0.45217
 O1129 O 0.47752 1.08080 0.38845
 O1130 O 0.47735 1.10676 0.36218
 C1131 C 0.46980 1.08857 0.37020
 C1132 C 0.45153 1.07657 0.35854
 C1133 C 0.44383 1.08387 0.33753
 H1134 H 0.45167 1.09803 0.32933
 O1135 O 0.52147 0.91926 0.38868
 O1136 O 0.52145 0.89321 0.36253
 C1137 C 0.52906 0.91142 0.37041
 C1138 C 0.54727 0.92335 0.35856
 C1139 C 0.55496 0.91582 0.33763
 H1140 H 0.54716 0.90155 0.32962
 O1141 O 0.61091 0.97854 0.41881
 O1142 O 0.63700 0.97854 0.39268
 C1143 C 0.62913 0.97094 0.41095
 C1144 C 0.64094 0.95273 0.42292
 C1145 C 0.66186 0.94510 0.41543
 H1146 H 0.66988 0.95293 0.40115
 O1147 O 0.38801 1.02178 0.41956
 O1148 O 0.36184 1.02170 0.39353
 C1149 C 0.36979 1.02938 0.41172
 C1150 C 0.35810 1.04772 0.42361
 C1151 C 0.33721 1.05545 0.41612
 H1152 H 0.32911 1.04759 0.40191
 O1153 O 0.41877 1.11153 0.47831
 O1154 O 0.39274 1.13765 0.47836
 C1155 C 0.41090 1.12973 0.47067
 C1156 C 0.42275 1.14145 0.45229
 C1157 C 0.41529 1.16236 0.44458
 H1158 H 0.40113 1.17046 0.45250
 O1159 O 0.58081 0.88905 0.47836
 O1160 O 0.60688 0.86298 0.47831
 C1161 C 0.58865 0.87084 0.47072
 C1162 C 0.57669 0.85905 0.45249
 C1163 C 0.58414 0.83812 0.44482
 H1164 H 0.59838 0.83008 0.45267
 O1165 O 0.58014 1.02207 0.38811
 O1166 O 0.60608 1.02211 0.36184
 C1167 C 0.58791 1.02971 0.36983
 C1168 C 0.57594 1.04798 0.35810
 C1169 C 0.58337 1.05572 0.33714
 H1170 H 0.59758 1.04790 0.32902
 O1171 O 0.41871 0.97814 0.38897
 O1172 O 0.39268 0.97800 0.36279
 C1173 C 0.41089 0.97045 0.37074
 C1174 C 0.42285 0.95218 0.35902
 C1175 C 0.41545 0.94449 0.33805
 H1176 H 0.40124 0.95231 0.32993
 O1177 O 0.52116 1.11156 0.41892
 O1178 O 0.52105 1.13769 0.39282
 C1179 C 0.52873 1.12978 0.41104
 C1180 C 0.54701 1.14154 0.42294
 C1181 C 0.55463 1.16248 0.41546
 H1182 H 0.54673 1.17056 0.40125
 O1183 O 0.47803 0.88861 0.41961
 O1184 O 0.47796 0.86241 0.39360
 C1185 C 0.47040 0.87037 0.41183
 C1186 C 0.45219 0.85863 0.42388
 C1187 C 0.44457 0.83765 0.41654
 H1188 H 0.45242 0.82952 0.40234
 O1189 O 0.61088 1.08111 0.47793
 O1190 O 0.63696 1.10718 0.47775
 C1191 C 0.62905 1.08896 0.47019
 C1192 C 0.64073 1.07701 0.45186
 C1193 C 0.66167 1.08439 0.44417
 H1194 H 0.66980 1.09855 0.45205
 O1195 O 0.38844 0.91917 0.47880
 O1196 O 0.36238 0.89309 0.47890
 C1197 C 0.37024 0.91128 0.47120
 C1198 C 0.35845 0.92315 0.45288
 C1199 C 0.33755 0.91562 0.44520
 H1200 H 0.32954 0.90139 0.45309
 Cu1201 Cu 0.49976 0.90657 0.40678
 Cu1202 Cu 0.49970 0.87522 0.37547
 Cu1203 Cu 0.49935 1.09362 0.40626
 Cu1204 Cu 0.49918 1.12488 0.37483
 Cu1205 Cu 0.40595 0.99997 0.40686
 Cu1206 Cu 0.37462 0.99983 0.37553
 Cu1207 Cu 0.59290 1.00029 0.40609
 Cu1208 Cu 0.62413 1.00032 0.37464
 C1209 C 0.44122 0.94161 0.36925
 H1210 H 0.44684 0.94725 0.38556
 C1211 C 0.42610 0.92645 0.32759
 C1212 C 0.55760 1.05855 0.36834
 H1213 H 0.55197 1.05288 0.38464
 C1214 C 0.57276 1.07380 0.32671
 C1215 C 0.36856 0.94154 0.44223
 H1216 H 0.38480 0.94725 0.44785
 C1217 C 0.32705 0.92619 0.42710
 C1218 C 0.63048 1.05870 0.44122
 H1219 H 0.61420 1.05311 0.44686
 C1220 C 0.67209 1.07375 0.42607
 C1221 C 0.44159 0.86888 0.44224
 H1222 H 0.44717 0.88519 0.44780
 C1223 C 0.42656 0.82720 0.42727
 C1224 C 0.55768 1.13135 0.44131
 H1225 H 0.55211 1.11507 0.44697
 C1226 C 0.57269 1.17296 0.42606
 C1227 C 0.44094 1.05827 0.36889
 H1228 H 0.44658 1.05273 0.38523
 C1229 C 0.42579 1.07319 0.32713
 C1230 C 0.55782 0.94179 0.36866
 H1231 H 0.55218 0.94750 0.38494
 C1232 C 0.57298 0.92643 0.32709
 C1233 C 0.55829 0.86919 0.44189
 H1234 H 0.55264 0.88546 0.44750
 C1235 C 0.57349 0.82761 0.42679
 C1236 C 0.44106 1.13123 0.44159
 H1237 H 0.44671 1.11497 0.44723
 C1238 C 0.42583 1.17279 0.42642
 C1239 C 0.36833 1.05835 0.44197
 H1240 H 0.38457 1.05268 0.44765
 C1241 C 0.32683 1.07359 0.42668
 C1242 C 0.63083 0.94215 0.44138
 H1243 H 0.61456 0.94774 0.44706
 C1244 C 0.67239 0.92710 0.42610
 O1245 O 0.52214 0.91970 0.61195
 O1246 O 0.52231 0.89372 0.63820
 C1247 C 0.52986 0.91191 0.63019
 C1248 C 0.54815 0.92388 0.64186
 C1249 C 0.55592 0.91646 0.66281
 H1250 H 0.54813 0.90225 0.67095
 O1251 O 0.47813 1.08099 0.61189
 O1252 O 0.47808 1.10703 0.63805
 C1253 C 0.47051 1.08881 0.63015
 C1254 C 0.45230 1.07684 0.64195
 C1255 C 0.44465 1.08423 0.66295
 H1256 H 0.45249 1.09843 0.67105
 O1257 O 0.38861 1.02187 0.58140
 O1258 O 0.36252 1.02191 0.60752
 C1259 C 0.37041 1.02950 0.58926
 C1260 C 0.35865 1.04775 0.57729
 C1261 C 0.33769 1.05535 0.58472
 H1262 H 0.32962 1.04748 0.59895
 O1263 O 0.61152 0.97891 0.58096
 O1264 O 0.63775 0.97895 0.60693
 C1265 C 0.62978 0.97132 0.58873
 C1266 C 0.64150 0.95309 0.57673
 C1267 C 0.66249 0.94549 0.58407
 H1268 H 0.67063 0.95337 0.59824
 O1269 O 0.58097 0.88913 0.52207
 O1270 O 0.60704 0.86305 0.52208
 C1271 C 0.58886 0.87095 0.52974
 C1272 C 0.57699 0.85921 0.54809
 C1273 C 0.58442 0.83826 0.55575
 H1274 H 0.59859 0.83017 0.54784
 O1275 O 0.41888 1.11155 0.52205
 O1276 O 0.39284 1.13766 0.52216
 C1277 C 0.41106 1.12975 0.52974
 C1278 C 0.42301 1.14146 0.54804
 C1279 C 0.41560 1.16239 0.55575
 H1280 H 0.40140 1.17049 0.54790
 O1281 O 0.41932 0.97830 0.61209
 O1282 O 0.39338 0.97826 0.63836
 C1283 C 0.41156 0.97067 0.63037
 C1284 C 0.42356 0.95243 0.64212
 C1285 C 0.41616 0.94470 0.66309
 H1286 H 0.40193 0.95248 0.67121
 O1287 O 0.58090 1.02244 0.61175
 O1288 O 0.60697 1.02254 0.63788
 C1289 C 0.58874 1.03010 0.62997
 C1290 C 0.57680 1.04835 0.64173
 C1291 C 0.58427 1.05611 0.66266
 H1292 H 0.59851 1.04832 0.67074
 O1293 O 0.47850 0.88893 0.58144
 O1294 O 0.47861 0.86281 0.60754
 C1295 C 0.47092 0.87071 0.58933
 C1296 C 0.45262 0.85896 0.57746
 C1297 C 0.44500 0.83802 0.58496
 H1298 H 0.45292 0.82995 0.59916
 O1299 O 0.52157 1.11166 0.58101
 O1300 O 0.52159 1.13786 0.60701
 C1301 C 0.52917 1.12991 0.58878
 C1302 C 0.54737 1.14166 0.57673
 C1303 C 0.55502 1.16261 0.58410
 H1304 H 0.54721 1.17071 0.59835
 O1305 O 0.38853 0.91926 0.52252
 O1306 O 0.36245 0.89319 0.52267
 C1307 C 0.37035 0.91141 0.53023
 C1308 C 0.35864 0.92337 0.54852
 C1309 C 0.33768 0.91602 0.55619
 H1310 H 0.32956 0.90185 0.54832
 O1311 O 0.61112 1.08131 0.52167
 O1312 O 0.63718 1.10739 0.52154
 C1313 C 0.62932 1.08921 0.52925
 C1314 C 0.64111 1.07738 0.54760
 C1315 C 0.66201 1.08492 0.55526
 H1316 H 0.67004 1.09911 0.54733
 O1317 O 0.52175 1.08117 0.61183
 O1318 O 0.52175 1.10721 0.63799
 C1319 C 0.52940 1.08904 0.63005
 C1320 C 0.54776 1.07720 0.64177
 C1321 C 0.55549 1.08469 0.66270
 H1322 H 0.54762 1.09887 0.67081
 O1323 O 0.47852 0.91957 0.61209
 O1324 O 0.47863 0.89359 0.63834
 C1325 C 0.47094 0.91174 0.63037
 C1326 C 0.45263 0.92361 0.64212
 C1327 C 0.44497 0.91614 0.66310
 H1328 H 0.45287 0.90198 0.67122
 O1329 O 0.61143 1.02253 0.58097
 O1330 O 0.63765 1.02263 0.60695
 C1331 C 0.62964 1.03022 0.58874
 C1332 C 0.64126 1.04852 0.57672
 C1333 C 0.66216 1.05632 0.58411
 H1334 H 0.67031 1.04854 0.59835
 O1335 O 0.38859 0.97826 0.58151
 O1336 O 0.36249 0.97824 0.60764
 C1337 C 0.37039 0.97062 0.58940
 C1338 C 0.35865 0.95235 0.57748
 C1339 C 0.33769 0.94474 0.58489
 H1340 H 0.32959 0.95264 0.59908
 O1341 O 0.58032 1.11175 0.52166
 O1342 O 0.60624 1.13797 0.52155
 C1343 C 0.58810 1.12999 0.52925
 C1344 C 0.57620 1.14170 0.54759
 C1345 C 0.58359 1.16265 0.55523
 H1346 H 0.59773 1.17078 0.54730
 O1347 O 0.41927 0.88876 0.52254
 O1348 O 0.39335 0.86254 0.52271
 C1349 C 0.41153 0.87054 0.53027
 C1350 C 0.42355 0.85888 0.54857
 C1351 C 0.41620 0.83795 0.55634
 H1352 H 0.40200 0.82982 0.54854
 O1353 O 0.58101 0.97882 0.61175
 O1354 O 0.60708 0.97885 0.63789
 C1355 C 0.58890 0.97119 0.62999
 C1356 C 0.57704 0.95287 0.64177
 C1357 C 0.58456 0.94518 0.66271
 H1358 H 0.59876 0.95304 0.67078
 O1359 O 0.41926 1.02191 0.61204
 O1360 O 0.39333 1.02193 0.63832
 C1361 C 0.41148 1.02955 0.63031
 C1362 C 0.42342 1.04783 0.64202
 C1363 C 0.41605 1.05548 0.66302
 H1364 H 0.40190 1.04759 0.67118
 O1365 O 0.47796 1.11158 0.58115
 O1366 O 0.47793 1.13777 0.60716
 C1367 C 0.47030 1.12979 0.58896
 C1368 C 0.45200 1.14147 0.57701
 C1369 C 0.44432 1.16240 0.58445
 H1370 H 0.45219 1.17051 0.59865
 O1371 O 0.52212 0.88903 0.58131
 O1372 O 0.52228 0.86290 0.60741
 C1373 C 0.52983 0.87084 0.58915
 C1374 C 0.54809 0.85916 0.57715
 C1375 C 0.55578 0.83821 0.58454
 H1376 H 0.54794 0.83008 0.59876
 O1377 O 0.61146 0.91987 0.52189
 O1378 O 0.63769 0.89395 0.52189
 C1379 C 0.62972 0.91212 0.52950
 C1380 C 0.64147 0.92413 0.54774
 C1381 C 0.66246 0.91680 0.55534
 H1382 H 0.67057 0.90263 0.54745
 O1383 O 0.38836 1.08084 0.52216
 O1384 O 0.36217 1.10679 0.52226
 C1385 C 0.37016 1.08862 0.52987
 C1386 C 0.35852 1.07666 0.54823
 C1387 C 0.33757 1.08400 0.55593
 H1388 H 0.32941 1.09815 0.54803
 Cu1389 Cu 0.50031 0.90691 0.59408
 Cu1390 Cu 0.50048 0.87564 0.62550
 Cu1391 Cu 0.49985 1.09373 0.59387
 Cu1392 Cu 0.49984 1.12510 0.62517
 Cu1393 Cu 0.40644 0.90657 0.50066
 Cu1394 Cu 0.37524 0.87517 0.50082
 Cu1395 Cu 0.59353 0.90705 0.50012
 Cu1396 Cu 0.62493 0.87584 0.50010
 Cu1397 Cu 0.40615 1.09361 0.50023
 Cu1398 Cu 0.37481 1.12486 0.50032
 Cu1399 Cu 0.59305 1.09386 0.49981
 Cu1400 Cu 0.62426 1.12525 0.49963
 Cu1401 Cu 0.40654 1.00008 0.59414
 Cu1402 Cu 0.37532 1.00009 0.62560
 Cu1403 Cu 0.59360 1.00067 0.59376
 Cu1404 Cu 0.62499 1.00074 0.62503
 C1405 C 0.55869 0.94224 0.63159
 H1406 H 0.55299 0.94787 0.61530
 C1407 C 0.57401 0.92709 0.67320
 C1408 C 0.44170 1.05848 0.63173
 H1409 H 0.44729 1.05288 0.61540
 C1410 C 0.42664 1.07356 0.67345
 C1411 C 0.36882 1.05838 0.55889
 H1412 H 0.38511 1.05281 0.55325
 C1413 C 0.32719 1.07336 0.57405
 C1414 C 0.63123 0.94243 0.55841
 H1415 H 0.61491 0.94798 0.55285
 C1416 C 0.67293 0.92746 0.57338
 C1417 C 0.55867 0.86941 0.55877
 H1418 H 0.55304 0.88569 0.55317
 C1419 C 0.57383 0.82780 0.57386
 C1420 C 0.44137 1.13125 0.55866
 H1421 H 0.44699 1.11498 0.55302
 C1422 C 0.42624 1.17282 0.57384
 C1423 C 0.44194 0.94190 0.63188
 H1424 H 0.44755 0.94756 0.61557
 C1425 C 0.42685 0.92667 0.67355
 C1426 C 0.55839 1.05888 0.63154
 H1427 H 0.55272 1.05320 0.61526
 C1428 C 0.57363 1.07416 0.67311
 C1429 C 0.44191 0.86914 0.55911
 H1430 H 0.44748 0.88542 0.55342
 C1431 C 0.42691 0.82756 0.57442
 C1432 C 0.55793 1.13145 0.55832
 H1433 H 0.55233 1.11515 0.55273
 C1434 C 0.57302 1.17307 0.57337
 C1435 C 0.36888 0.94170 0.55914
 H1436 H 0.38517 0.94727 0.55352
 C1437 C 0.32724 0.92669 0.57426
 C1438 C 0.63099 1.05904 0.55831
 H1439 H 0.61474 1.05332 0.55271
 C1440 C 0.67251 1.07440 0.57340
 O1441 O 0.47808 0.41930 0.88834
 O1442 O 0.47797 0.39329 0.86215
 C1443 C 0.47040 0.41149 0.87011
 C1444 C 0.45210 0.42343 0.85839
 C1445 C 0.44433 0.41597 0.83747
 H1446 H 0.45214 0.40175 0.82936
 O1447 O 0.52202 0.58064 0.88854
 O1448 O 0.52212 0.60667 0.86235
 C1449 C 0.52969 0.58846 0.87030
 C1450 C 0.54795 0.57650 0.85857
 C1451 C 0.55565 0.58390 0.83758
 H1452 H 0.54782 0.59810 0.82945
 O1453 O 0.38852 0.47834 0.91914
 O1454 O 0.36235 0.47843 0.89310
 C1455 C 0.37028 0.47077 0.91131
 C1456 C 0.35853 0.45249 0.92326
 C1457 C 0.33763 0.44479 0.91577
 H1458 H 0.32957 0.45262 0.90152
 O1459 O 0.61138 0.52149 0.91939
 O1460 O 0.63759 0.52152 0.89338
 C1461 C 0.62961 0.52912 0.91160
 C1462 C 0.64132 0.54736 0.92361
 C1463 C 0.66228 0.55500 0.91622
 H1464 H 0.67040 0.54715 0.90201
 O1465 O 0.41905 0.38889 0.97832
 O1466 O 0.39304 0.36275 0.97829
 C1467 C 0.41123 0.37068 0.97067
 C1468 C 0.42318 0.35894 0.95238
 C1469 C 0.41586 0.33793 0.94484
 H1470 H 0.40172 0.32981 0.95279
 O1471 O 0.58086 0.61118 0.97859
 O1472 O 0.60692 0.63726 0.97855
 C1473 C 0.58873 0.62936 0.97092
 C1474 C 0.57685 0.64109 0.95257
 C1475 C 0.58429 0.66203 0.94490
 H1476 H 0.59845 0.67012 0.95282
 O1477 O 0.41927 0.52191 0.88850
 O1478 O 0.39325 0.52207 0.86230
 C1479 C 0.41146 0.52961 0.87026
 C1480 C 0.42344 0.54788 0.85853
 C1481 C 0.41602 0.55562 0.83757
 H1482 H 0.40180 0.54783 0.82946
 O1483 O 0.58081 0.47795 0.88855
 O1484 O 0.60688 0.47792 0.86240
 C1485 C 0.58866 0.47033 0.87030
 C1486 C 0.57673 0.45209 0.85851
 C1487 C 0.58421 0.44438 0.83757
 H1488 H 0.59846 0.45219 0.82951
 O1489 O 0.52165 0.38857 0.91902
 O1490 O 0.52159 0.36242 0.89296
 C1491 C 0.52923 0.37033 0.91118
 C1492 C 0.54748 0.35856 0.92314
 C1493 C 0.55518 0.33766 0.91563
 H1494 H 0.54736 0.32963 0.90135
 O1495 O 0.47847 0.61133 0.91924
 O1496 O 0.47851 0.63751 0.89320
 C1497 C 0.47088 0.62957 0.91142
 C1498 C 0.45265 0.64133 0.92340
 C1499 C 0.44500 0.66227 0.91595
 H1500 H 0.45285 0.67034 0.90171
 O1501 O 0.38897 0.58091 0.97846
 O1502 O 0.36286 0.60695 0.97845
 C1503 C 0.37077 0.58876 0.97081
 C1504 C 0.35901 0.57687 0.95250
 C1505 C 0.33808 0.58435 0.94486
 H1506 H 0.33003 0.59854 0.95277
 O1507 O 0.61113 0.41879 0.97837
 O1508 O 0.63725 0.39275 0.97834
 C1509 C 0.62935 0.41096 0.97074
 C1510 C 0.64112 0.42292 0.95247
 C1511 C 0.66209 0.41552 0.94486
 H1512 H 0.67016 0.40133 0.95275
 O1513 O 0.47840 0.58074 0.88853
 O1514 O 0.47844 0.60677 0.86233
 C1515 C 0.47078 0.58860 0.87028
 C1516 C 0.45247 0.57674 0.85854
 C1517 C 0.44478 0.58422 0.83758
 H1518 H 0.45266 0.59841 0.82947
 O1519 O 0.52171 0.41922 0.88835
 O1520 O 0.52167 0.39322 0.86214
 C1521 C 0.52934 0.41138 0.87010
 C1522 C 0.54769 0.42325 0.85840
 C1523 C 0.55544 0.41580 0.83745
 H1524 H 0.54758 0.40163 0.82931
 O1525 O 0.61135 0.47786 0.91931
 O1526 O 0.63757 0.47784 0.89332
 C1527 C 0.62958 0.47022 0.91152
 C1528 C 0.64124 0.45191 0.92349
 C1529 C 0.66220 0.44425 0.91614
 H1530 H 0.67036 0.45213 0.90196
 O1531 O 0.38870 0.52196 0.91924
 O1532 O 0.36253 0.52212 0.89321
 C1533 C 0.37051 0.52968 0.91144
 C1534 C 0.35888 0.54797 0.92345
 C1535 C 0.33795 0.55573 0.91607
 H1536 H 0.32980 0.54792 0.90185
 O1537 O 0.41962 0.61149 0.97847
 O1538 O 0.39366 0.63768 0.97845
 C1539 C 0.41183 0.62972 0.97081
 C1540 C 0.42376 0.64141 0.95246
 C1541 C 0.41637 0.66235 0.94475
 H1542 H 0.40221 0.67048 0.95263
 O1543 O 0.58045 0.38825 0.97829
 O1544 O 0.60641 0.36206 0.97824
 C1545 C 0.58825 0.37005 0.97060
 C1546 C 0.57635 0.35841 0.95222
 C1547 C 0.58378 0.33752 0.94444
 H1548 H 0.59796 0.32939 0.95230
 O1549 O 0.58087 0.52157 0.88859
 O1550 O 0.60693 0.52159 0.86244
 C1551 C 0.58873 0.52922 0.87036
 C1552 C 0.57684 0.54751 0.85860
 C1553 C 0.58428 0.55518 0.83762
 H1554 H 0.59846 0.54730 0.82951
 O1555 O 0.41914 0.47829 0.88845
 O1556 O 0.39313 0.47838 0.86226
 C1557 C 0.41129 0.47070 0.87020
 C1558 C 0.42317 0.45239 0.85844
 C1559 C 0.41566 0.44466 0.83751
 H1560 H 0.40144 0.45250 0.82943
 O1561 O 0.52207 0.61122 0.91927
 O1562 O 0.52217 0.63740 0.89323
 C1563 C 0.52974 0.62943 0.91146
 C1564 C 0.54800 0.64112 0.92347
 C1565 C 0.55570 0.66206 0.91606
 H1566 H 0.54789 0.67017 0.90182
 O1567 O 0.47804 0.38876 0.91912
 O1568 O 0.47793 0.36259 0.89309
 C1569 C 0.47037 0.37055 0.91132
 C1570 C 0.45211 0.35887 0.92335
 C1571 C 0.44451 0.33786 0.91606
 H1572 H 0.45239 0.32970 0.90190
 O1573 O 0.61139 0.58047 0.97860
 O1574 O 0.63760 0.60640 0.97857
 C1575 C 0.62962 0.58824 0.97094
 C1576 C 0.64132 0.57628 0.95264
 C1577 C 0.66228 0.58365 0.94498
 H1578 H 0.67040 0.59782 0.95287
 O1579 O 0.38837 0.41945 0.97832
 O1580 O 0.36222 0.39346 0.97829
 C1581 C 0.37016 0.41164 0.97065
 C1582 C 0.35848 0.42357 0.95231
 C1583 C 0.33758 0.41612 0.94456
 H1584 H 0.32948 0.40193 0.95242
 Cu1585 Cu 0.49988 0.40657 0.90631
 Cu1586 Cu 0.49978 0.37526 0.87495
 Cu1587 Cu 0.50023 0.59337 0.90650
 Cu1588 Cu 0.50032 0.62471 0.87515
 Cu1589 Cu 0.40651 0.50011 0.90644
 Cu1590 Cu 0.37520 0.50027 0.87509
 Cu1591 Cu 0.59349 0.49971 0.90656
 Cu1592 Cu 0.62487 0.49972 0.87526
 C1593 C 0.44154 0.44179 0.86863
 H1594 H 0.44723 0.44745 0.88490
 C1595 C 0.42623 0.42656 0.82706
 C1596 C 0.55852 0.55815 0.86883
 H1597 H 0.55288 0.55254 0.88514
 C1598 C 0.57370 0.57325 0.82714
 C1599 C 0.36870 0.44190 0.94168
 H1600 H 0.38495 0.44754 0.94736
 C1601 C 0.32719 0.42671 0.92641
 C1602 C 0.63109 0.55797 0.94197
 H1603 H 0.61479 0.55238 0.94757
 C1604 C 0.67272 0.57303 0.92689
 C1605 C 0.44147 0.36917 0.94166
 H1606 H 0.44703 0.38550 0.94719
 C1607 C 0.42651 0.32743 0.92680
 C1608 C 0.55855 0.63088 0.94188
 H1609 H 0.55291 0.61461 0.94749
 C1610 C 0.57373 0.67247 0.92677
 C1611 C 0.44182 0.55841 0.86876
 H1612 H 0.44744 0.55274 0.88506
 C1613 C 0.42667 0.57368 0.82713
 C1614 C 0.55831 0.44155 0.86867
 H1615 H 0.55264 0.44719 0.88496
 C1616 C 0.57359 0.42635 0.82707
 C1617 C 0.55804 0.36868 0.94158
 H1618 H 0.55241 0.38493 0.94728
 C1619 C 0.57322 0.32718 0.92626
 C1620 C 0.44205 0.63115 0.94181
 H1621 H 0.44765 0.61486 0.94745
 C1622 C 0.42698 0.67274 0.92661
 C1623 C 0.36916 0.55853 0.94182
 H1624 H 0.38543 0.55286 0.94741
 C1625 C 0.32759 0.57380 0.92676
 C1626 C 0.63095 0.44127 0.94182
 H1627 H 0.61465 0.44688 0.94739
 C1628 C 0.67259 0.42617 0.92681
 O1629 O 0.52168 0.41887 1.11192
 O1630 O 0.52162 0.39282 1.13810
 C1631 C 0.52928 0.41100 1.13017
 C1632 C 0.54757 0.42288 1.14194
 C1633 C 0.55522 0.41542 1.16292
 H1634 H 0.54735 0.40123 1.17102
 O1635 O 0.47835 0.58069 1.11215
 O1636 O 0.47836 0.60664 1.13840
 C1637 C 0.47072 0.58848 1.13042
 C1638 C 0.45242 0.57656 1.14214
 C1639 C 0.44469 0.58399 1.16310
 H1640 H 0.45251 0.59819 1.17122
 O1641 O 0.38882 0.52183 1.08134
 O1642 O 0.36264 0.52190 1.10738
 C1643 C 0.37061 0.52951 1.08916
 C1644 C 0.35895 0.54781 1.07718
 C1645 C 0.33801 0.55550 1.08456
 H1646 H 0.32987 0.54765 1.09877
 O1647 O 0.61122 0.47773 1.08126
 O1648 O 0.63739 0.47760 1.10729
 C1649 C 0.62942 0.47004 1.08906
 C1650 C 0.64108 0.45175 1.07707
 C1651 C 0.66203 0.44407 1.08443
 H1652 H 0.67018 0.45191 1.09862
 O1653 O 0.58044 0.38813 1.02203
 O1654 O 0.60640 0.36194 1.02204
 C1655 C 0.58823 0.36989 1.02967
 C1656 C 0.57629 0.35818 1.04799
 C1657 C 0.58367 0.33723 1.05568
 H1658 H 0.59783 0.32910 1.04779
 O1659 O 0.41960 0.61147 1.02221
 O1660 O 0.39363 0.63765 1.02224
 C1661 C 0.41179 0.62968 1.02988
 C1662 C 0.42370 0.64136 1.04824
 C1663 C 0.41626 0.66228 1.05595
 H1664 H 0.40209 0.67039 1.04805
 O1665 O 0.41927 0.47810 1.11205
 O1666 O 0.39325 0.47810 1.13824
 C1667 C 0.41142 0.47045 1.13029
 C1668 C 0.42330 0.45212 1.14201
 C1669 C 0.41588 0.44441 1.16298
 H1670 H 0.40171 0.45228 1.17112
 O1671 O 0.58073 0.52138 1.11203
 O1672 O 0.60675 0.52131 1.13822
 C1673 C 0.58858 0.52898 1.13028
 C1674 C 0.57672 0.54728 1.14204
 C1675 C 0.58419 0.55493 1.16301
 H1676 H 0.59837 0.54703 1.17111
 O1677 O 0.47800 0.38847 1.08115
 O1678 O 0.47789 0.36226 1.10717
 C1679 C 0.47031 0.37027 1.08895
 C1680 C 0.45203 0.35862 1.07695
 C1681 C 0.44438 0.33765 1.08428
 H1682 H 0.45224 0.32947 1.09845
 O1683 O 0.52202 0.61128 1.08150
 O1684 O 0.52209 0.63740 1.10759
 C1685 C 0.52969 0.62947 1.08936
 C1686 C 0.54799 0.64116 1.07740
 C1687 C 0.55574 0.66206 1.08485
 H1688 H 0.54792 0.67016 1.09909
 O1689 O 0.38843 0.41946 1.02206
 O1690 O 0.36226 0.39349 1.02208
 C1691 C 0.37022 0.41165 1.02972
 C1692 C 0.35855 0.42356 1.04808
 C1693 C 0.33761 0.41618 1.05578
 H1694 H 0.32947 0.40203 1.04789
 O1695 O 0.61140 0.58047 1.02232
 O1696 O 0.63762 0.60639 1.02234
 C1697 C 0.62964 0.58823 1.02997
 C1698 C 0.64133 0.57624 1.04827
 C1699 C 0.66227 0.58361 1.05598
 H1700 H 0.67038 0.59781 1.04814
 O1701 O 0.52196 0.58057 1.11211
 O1702 O 0.52204 0.60652 1.13836
 C1703 C 0.52962 0.58833 1.13037
 C1704 C 0.54787 0.57633 1.14209
 C1705 C 0.55561 0.58371 1.16306
 H1706 H 0.54783 0.59793 1.17119
 O1707 O 0.47808 0.41898 1.11193
 O1708 O 0.47796 0.39293 1.13811
 C1709 C 0.47041 0.41115 1.13018
 C1710 C 0.45218 0.42311 1.14194
 C1711 C 0.44450 0.41567 1.16291
 H1712 H 0.45232 0.40145 1.17101
 O1713 O 0.61135 0.52135 1.08134
 O1714 O 0.63752 0.52128 1.10738
 C1715 C 0.62958 0.52894 1.08917
 C1716 C 0.64131 0.54723 1.07723
 C1717 C 0.66225 0.55486 1.08468
 H1718 H 0.67034 0.54697 1.09888
 O1719 O 0.38866 0.47822 1.08134
 O1720 O 0.36249 0.47823 1.10739
 C1721 C 0.37042 0.47063 1.08915
 C1722 C 0.35865 0.45242 1.07716
 C1723 C 0.33771 0.44478 1.08460
 H1724 H 0.32965 0.45261 1.09885
 O1725 O 0.58089 0.61120 1.02234
 O1726 O 0.60696 0.63728 1.02235
 C1727 C 0.58876 0.62939 1.03000
 C1728 C 0.57689 0.64112 1.04834
 C1729 C 0.58437 0.66202 1.05605
 H1730 H 0.59857 0.67009 1.04817
 O1731 O 0.41898 0.38877 1.02204
 O1732 O 0.39296 0.36264 1.02204
 C1733 C 0.41115 0.37055 1.02967
 C1734 C 0.42309 0.35877 1.04795
 C1735 C 0.41569 0.33779 1.05554
 H1736 H 0.40152 0.32971 1.04763
 O1737 O 0.58067 0.47776 1.11202
 O1738 O 0.60669 0.47763 1.13821
 C1739 C 0.58849 0.47007 1.13026
 C1740 C 0.57654 0.45179 1.14198
 C1741 C 0.58393 0.44407 1.16296
 H1742 H 0.59812 0.45190 1.17110
 O1743 O 0.41937 0.52173 1.11209
 O1744 O 0.39334 0.52179 1.13828
 C1745 C 0.41154 0.52937 1.13034
 C1746 C 0.42347 0.54762 1.14210
 C1747 C 0.41601 0.55531 1.16305
 H1748 H 0.40179 0.54748 1.17114
 O1749 O 0.47841 0.61133 1.08147
 O1750 O 0.47841 0.63744 1.10755
 C1751 C 0.47080 0.62954 1.08931
 C1752 C 0.45255 0.64129 1.07734
 C1753 C 0.44485 0.66221 1.08479
 H1754 H 0.45265 0.67028 1.09905
 O1755 O 0.52160 0.38827 1.08122
 O1756 O 0.52154 0.36207 1.10725
 C1757 C 0.52918 0.37001 1.08903
 C1758 C 0.54740 0.35825 1.07705
 C1759 C 0.55503 0.33729 1.08448
 H1760 H 0.54719 0.32921 1.09872
 O1761 O 0.61104 0.41876 1.02209
 O1762 O 0.63715 0.39272 1.02211
 C1763 C 0.62924 0.41091 1.02974
 C1764 C 0.64098 0.42282 1.04805
 C1765 C 0.66194 0.41540 1.05567
 H1766 H 0.67002 0.40123 1.04777
 O1767 O 0.38898 0.58086 1.02219
 O1768 O 0.36287 0.60690 1.02222
 C1769 C 0.37078 0.58869 1.02984
 C1770 C 0.35904 0.57676 1.04815
 C1771 C 0.33809 0.58419 1.05580
 H1772 H 0.33002 0.59838 1.04791
 Cu1773 Cu 0.49985 0.40626 1.09395
 Cu1774 Cu 0.49974 0.37489 1.12528
 Cu1775 Cu 0.50018 0.59337 1.09420
 Cu1776 Cu 0.50023 0.62462 1.12561
 Cu1777 Cu 0.40631 0.40675 1.00019
 Cu1778 Cu 0.37499 0.37547 1.00017
 Cu1779 Cu 0.59316 0.40609 1.00020
 Cu1780 Cu 0.62442 0.37474 1.00018
 Cu1781 Cu 0.40690 0.59358 1.00033
 Cu1782 Cu 0.37564 0.62492 1.00034
 Cu1783 Cu 0.59352 0.59323 1.00047
 Cu1784 Cu 0.62490 0.62445 1.00045
 Cu1785 Cu 0.40664 0.49996 1.09410
 Cu1786 Cu 0.37531 0.50001 1.12545
 Cu1787 Cu 0.59338 0.49956 1.09405
 Cu1788 Cu 0.62471 0.49944 1.12540
 C1789 C 0.55820 0.44122 1.13172
 H1790 H 0.55260 0.44687 1.11541
 C1791 C 0.57329 0.42601 1.17339
 C1792 C 0.44184 0.55822 1.13189
 H1793 H 0.44749 0.55259 1.11559
 C1794 C 0.42659 0.57338 1.17351
 C1795 C 0.36922 0.55842 1.05882
 H1796 H 0.38550 0.55279 1.05321
 C1797 C 0.32762 0.57357 1.07389
 C1798 C 0.63080 0.44115 1.05872
 H1799 H 0.61451 0.44678 1.05314
 C1800 C 0.67242 0.42601 1.07374
 C1801 C 0.55800 0.36844 1.05866
 H1802 H 0.55241 0.38474 1.05303
 C1803 C 0.57305 0.32682 1.07381
 C1804 C 0.44200 0.63112 1.05890
 H1805 H 0.44763 0.61486 1.05325
 C1806 C 0.42681 0.67267 1.07411
 C1807 C 0.44161 0.44149 1.13174
 H1808 H 0.44724 0.44713 1.11543
 C1809 C 0.42647 0.42630 1.17340
 C1810 C 0.55841 0.55796 1.13183
 H1811 H 0.55274 0.55237 1.11553
 C1812 C 0.57366 0.57303 1.17348
 C1813 C 0.44141 0.36894 1.05863
 H1814 H 0.44702 0.38525 1.05307
 C1815 C 0.42633 0.32727 1.07359
 C1816 C 0.55854 0.63094 1.05899
 H1817 H 0.55287 0.61469 1.05334
 C1818 C 0.57381 0.67246 1.07419
 C1819 C 0.36882 0.44184 1.05874
 H1820 H 0.38510 0.44744 1.05310
 C1821 C 0.32723 0.42677 1.07393
 C1822 C 0.63110 0.55789 1.05888
 H1823 H 0.61482 0.55230 1.05323
 C1824 C 0.67269 0.57294 1.07407
 C1825 C 1.11159 1.13644 1.27409
 C1826 C 1.11455 1.11376 1.26943
 C1827 C 1.12649 1.10034 1.28440
 C1828 C 1.13556 1.10957 1.30392
 C1829 C 1.13285 1.13255 1.30896
 C1830 C 1.12057 1.14576 1.29358
 C1831 C 1.10559 1.10440 1.24910
 C1832 C 1.09817 1.09684 1.23192
 C1833 C 1.08962 1.08828 1.21161
 C1834 C 1.08246 1.08118 1.19412
 H1835 H 1.10254 1.14705 1.26248
 H1836 H 1.12875 1.08268 1.28102
 H1837 H 1.14396 1.09831 1.31534
 H1838 H 1.11860 1.16359 1.29584
 C1839 C 1.09976 0.62013 0.78689
 C1840 C 1.11380 0.61289 0.76959
 C1841 C 1.13701 0.61466 0.77195
 C1842 C 1.14616 0.62374 0.79148
 C1843 C 1.13219 0.63118 0.80894
 C1844 C 1.10888 0.62922 0.80645
 C1845 C 1.10448 0.60397 0.74924
 C1846 C 1.09692 0.59665 0.73202
 C1847 C 1.08834 0.58827 0.71166
 C1848 C 1.08125 0.58127 0.69411
 H1849 H 1.08177 0.61880 0.78524
 H1850 H 1.14803 0.60920 0.75862
 H1851 H 1.16415 0.62531 0.79277
 H1852 H 1.09772 0.63456 0.81970
 C1853 C 0.63778 1.11610 0.77193
 C1854 C 0.61458 1.11415 0.76962
 C1855 C 0.60054 1.12110 0.78705
 C1856 C 0.60966 1.13004 0.80669
 C1857 C 0.63297 1.13210 0.80914
 C1858 C 0.64693 1.12502 0.79154
 C1859 C 0.60525 1.10527 0.74925
 C1860 C 0.59767 1.09794 0.73203
 C1861 C 0.58905 1.08950 0.71171
 C1862 C 0.58190 1.08243 0.69420
 H1863 H 0.64880 1.11088 0.75850
 H1864 H 0.58256 1.11965 0.78545
 H1865 H 0.59852 1.13516 0.82004
 H1866 H 0.66491 1.12672 0.79277
 C1867 C 0.62591 0.60028 1.28489
 C1868 C 0.61379 0.61367 1.27005
 C1869 C 0.61060 0.63629 1.27485
 C1870 C 0.61957 0.64558 1.29436
 C1871 C 0.63205 0.63241 1.30962
 C1872 C 0.63496 0.60948 1.30443
 C1873 C 0.60488 0.60434 1.24968
 C1874 C 0.59752 0.59680 1.23246
 C1875 C 0.58904 0.58827 1.21212
 C1876 C 0.58193 0.58121 1.19460
 H1877 H 0.62834 0.58267 1.28140
 H1878 H 0.60141 0.64687 1.26334
 H1879 H 0.61743 0.66337 1.29672
 H1880 H 0.64352 0.59823 1.31573
 C1881 C 0.87874 0.90012 1.28662
 C1882 C 0.88608 0.88597 1.26944
 C1883 C 0.88440 0.86278 1.27201
 C1884 C 0.87538 0.85374 1.29162
 C1885 C 0.86790 0.86780 1.30898
 C1886 C 0.86969 0.89111 1.30627
 C1887 C 0.89506 0.89518 1.24905
 C1888 C 0.90247 0.90266 1.23182
 C1889 C 0.91099 0.91116 1.21147
 C1890 C 0.91810 0.91822 1.19393
 H1891 H 0.87998 0.91811 1.28481
 H1892 H 0.88993 0.85168 1.25877
 H1893 H 0.87391 0.83575 1.29306
 H1894 H 0.86429 0.90235 1.31942
 C1895 C 0.86245 0.38412 0.77183
 C1896 C 0.88565 0.38582 0.76936
 C1897 C 0.89974 0.37852 0.78661
 C1898 C 0.89067 0.36952 0.80625
 C1899 C 0.86735 0.36772 0.80887
 C1900 C 0.85335 0.37514 0.79144
 C1901 C 0.89491 0.39483 0.74900
 C1902 C 0.90240 0.40228 0.73179
 C1903 C 0.91091 0.41084 0.71146
 C1904 C 0.91797 0.41798 0.69395
 H1905 H 0.85139 0.38962 0.75855
 H1906 H 0.91773 0.37978 0.78487
 H1907 H 0.90186 0.36417 0.81947
 H1908 H 0.83536 0.37368 0.79282
 C1909 C 0.40037 0.87939 0.78751
 C1910 C 0.38629 0.88643 0.77015
 C1911 C 0.36309 0.88450 0.77253
 C1912 C 0.35400 0.87552 0.79214
 C1913 C 0.36800 0.86836 0.80968
 C1914 C 0.39130 0.87039 0.80715
 C1915 C 0.39555 0.89540 0.74977
 C1916 C 0.40307 0.90279 0.73255
 C1917 C 0.41159 0.91129 0.71220
 C1918 C 0.41866 0.91839 0.69467
 H1919 H 0.41836 0.88082 0.78585
 H1920 H 0.35204 0.88980 0.75915
 H1921 H 0.33602 0.87384 0.79343
 H1922 H 0.40248 0.86520 0.82045
 C1923 C 0.36345 0.38927 1.27495
 C1924 C 0.38605 0.38609 1.27007
 C1925 C 0.39948 0.37397 1.28488
 C1926 C 0.39035 0.36495 1.30448
 C1927 C 0.36746 0.36791 1.30977
 C1928 C 0.35423 0.38034 1.29452
 C1929 C 0.39531 0.39502 1.24968
 C1930 C 0.40278 0.40241 1.23244
 C1931 C 0.41125 0.41093 1.21207
 C1932 C 0.41828 0.41805 1.19453
 H1933 H 0.35283 0.39845 1.26347
 H1934 H 0.41708 0.37153 1.28132
 H1935 H 0.40163 0.35639 1.31576
 H1936 H 0.33644 0.38247 1.29696
 C1937 C 0.89978 1.12552 0.71504
 C1938 C 0.88634 1.11360 0.72999
 C1939 C 0.86368 1.11058 0.72526
 C1940 C 0.85440 1.11956 0.70573
 C1941 C 0.86762 1.13190 0.69041
 C1942 C 0.89059 1.13458 0.69549
 C1943 C 0.89567 1.10480 0.75041
 C1944 C 0.90327 1.09757 0.76766
 C1945 C 0.91192 1.08924 0.78803
 C1946 C 0.91906 1.08225 0.80558
 H1947 H 0.91742 1.12781 0.71846
 H1948 H 0.85306 1.10153 0.73685
 H1949 H 0.83658 1.11758 0.70340
 H1950 H 0.90189 1.14297 0.68412
 C1951 C 0.88960 0.63668 0.22485
 C1952 C 0.88656 0.61407 0.22981
 C1953 C 0.87451 0.60053 0.21506
 C1954 C 0.86538 0.60957 0.19548
 C1955 C 0.86813 0.63249 0.19015
 C1956 C 0.88056 0.64582 0.20529
 C1957 C 0.89550 0.60490 0.25024
 C1958 C 0.90286 0.59744 0.26750
 C1959 C 0.91130 0.58895 0.28789
 C1960 C 0.91835 0.58189 0.30545
 H1961 H 0.89874 0.64738 0.23629
 H1962 H 0.87219 0.58292 0.21867
 H1963 H 0.85688 0.59820 0.18426
 H1964 H 0.88257 0.66361 0.20283
 C1965 C 0.37442 1.09998 0.21522
 C1966 C 0.38632 1.11348 0.23011
 C1967 C 0.38938 1.13611 0.22524
 C1968 C 0.38048 1.14530 0.20564
 C1969 C 0.36818 1.13200 0.19035
 C1970 C 0.36544 1.10906 0.19559
 C1971 C 0.39509 1.10427 0.25059
 C1972 C 0.40231 1.09679 0.26790
 C1973 C 0.41062 1.08830 0.28834
 C1974 C 0.41760 1.08128 0.30594
 H1975 H 0.37209 1.08235 0.21875
 H1976 H 0.39841 1.14679 0.23679
 H1977 H 0.38250 1.16310 0.20325
 H1978 H 0.35705 1.09772 0.18426
 C1979 C 0.39996 0.62104 0.71329
 C1980 C 0.38588 0.61372 0.73054
 C1981 C 0.36268 0.61535 0.72806
 C1982 C 0.35355 0.62433 0.70846
 C1983 C 0.36755 0.63182 0.69105
 C1984 C 0.39087 0.63004 0.69366
 C1985 C 0.39518 0.60481 0.75093
 C1986 C 0.40274 0.59747 0.76815
 C1987 C 0.41133 0.58902 0.78850
 C1988 C 0.41845 0.58195 0.80602
 H1989 H 0.41795 0.61983 0.71503
 H1990 H 0.35163 0.60983 0.74135
 H1991 H 0.33556 0.62578 0.70710
 H1992 H 0.40205 0.63545 0.68046
 C1993 C 1.11555 0.86271 0.72754
 C1994 C 1.11367 0.88590 0.72994
 C1995 C 1.12072 0.90000 0.71259
 C1996 C 1.12970 0.89094 0.69294
 C1997 C 1.13172 0.86764 0.69041
 C1998 C 1.12450 0.85361 0.70792
 C1999 C 1.10481 0.89517 0.75035
 C2000 C 1.09751 0.90271 0.76760
 C2001 C 1.08912 0.91128 0.78797
 C2002 C 1.08210 0.91837 0.80551
 H2003 H 1.11024 0.85164 0.74091
 H2004 H 1.11932 0.91799 0.71427
 H2005 H 1.13490 0.90214 0.67966
 H2006 H 1.12615 0.83563 0.70661
 C2007 C 1.12544 0.39958 0.21509
 C2008 C 1.11341 0.38609 0.22991
 C2009 C 1.11039 0.36346 0.22507
 C2010 C 1.11943 0.35425 0.20554
 C2011 C 1.13184 0.36753 0.19032
 C2012 C 1.13456 0.39047 0.19554
 C2013 C 1.10447 0.39533 0.25030
 C2014 C 1.09712 0.40284 0.26754
 C2015 C 1.08867 0.41137 0.28790
 C2016 C 1.08161 0.41845 0.30544
 H2017 H 1.12774 0.41721 0.21860
 H2018 H 1.10127 0.35279 0.23656
 H2019 H 1.11743 0.33645 0.20318
 H2020 H 1.14304 0.40180 0.18426
 C2021 C 0.63715 0.88434 0.22840
 C2022 C 0.61393 0.88585 0.23082
 C2023 C 0.59994 0.87835 0.21358
 C2024 C 0.60913 0.86934 0.19401
 C2025 C 0.63247 0.86772 0.19144
 C2026 C 0.64637 0.87535 0.20886
 C2027 C 0.60455 0.89486 0.25111
 C2028 C 0.59696 0.90231 0.26827
 C2029 C 0.58836 0.91089 0.28855
 C2030 C 0.58124 0.91807 0.30602
 H2031 H 0.64813 0.89000 0.24168
 H2032 H 0.58194 0.87947 0.21527
 H2033 H 0.59801 0.86383 0.18079
 H2034 H 0.66438 0.87403 0.20753
 C2035 C 0.61589 0.36269 0.72805
 C2036 C 0.61399 0.38588 0.73051
 C2037 C 0.62111 0.40003 0.71323
 C2038 C 0.63015 0.39103 0.69358
 C2039 C 0.63215 0.36773 0.69097
 C2040 C 0.62490 0.35366 0.70843
 C2041 C 0.60498 0.39508 0.75089
 C2042 C 0.59755 0.40255 0.76812
 C2043 C 0.58901 0.41106 0.78845
 C2044 C 0.58188 0.41812 0.80597
 H2045 H 0.61053 0.35159 0.74136
 H2046 H 0.61970 0.41801 0.71496
 H2047 H 0.63538 0.40227 0.68034
 H2048 H 0.62653 0.33568 0.70707
 C2049 C 1.28693 1.09920 1.12081
 C2050 C 1.26962 1.11325 1.11366
 C2051 C 1.27197 1.13645 1.11544
 C2052 C 1.29153 1.14562 1.12437
 C2053 C 1.30902 1.13166 1.13166
 C2054 C 1.30652 1.10834 1.12976
 C2055 C 1.24930 1.10393 1.10476
 C2056 C 1.23211 1.09639 1.09741
 C2057 C 1.21180 1.08786 1.08895
 C2058 C 1.19429 1.08082 1.08188
 H2059 H 1.28529 1.08121 1.11949
 H2060 H 1.25863 1.14747 1.11005
 H2061 H 1.29281 1.16361 1.12591
 H2062 H 1.31978 1.09718 1.13502
 C2063 C 1.28629 0.59982 0.62049
 C2064 C 1.26902 0.61390 0.61331
 C2065 C 1.27145 0.63710 0.61505
 C2066 C 1.29101 0.64622 0.62402
 C2067 C 1.30843 0.63222 0.63141
 C2068 C 1.30588 0.60890 0.62949
 C2069 C 1.24867 0.60460 0.60445
 C2070 C 1.23146 0.59704 0.59717
 C2071 C 1.21113 0.58845 0.58880
 C2072 C 1.19362 0.58135 0.58178
 H2073 H 1.28460 0.58182 0.61919
 H2074 H 1.25815 0.64815 0.60962
 H2075 H 1.29234 0.66421 0.62556
 H2076 H 1.31909 0.59771 0.63479
 C2077 C 0.77408 1.11114 0.63641
 C2078 C 0.76907 1.11444 0.61380
 C2079 C 0.78377 1.12659 0.60029
 C2080 C 0.80338 1.13554 0.60936
 C2081 C 0.80879 1.13250 0.63227
 C2082 C 0.79367 1.12001 0.64557
 C2083 C 0.74865 1.10559 0.60459
 C2084 C 0.73142 1.09827 0.59711
 C2085 C 0.71108 1.08981 0.58861
 C2086 C 0.69358 1.08271 0.58157
 H2087 H 0.76269 1.10193 0.64710
 H2088 H 0.78011 1.12911 0.58268
 H2089 H 0.81456 1.14413 0.59800
 H2090 H 0.79623 1.11779 0.66338
 C2091 C 0.78647 0.59957 1.12109
 C2092 C 0.76916 0.61361 1.11394
 C2093 C 0.77155 0.63682 1.11562
 C2094 C 0.79114 0.64599 1.12446
 C2095 C 0.80864 0.63204 1.13176
 C2096 C 0.80610 0.60871 1.12996
 C2097 C 0.74881 0.60428 1.10509
 C2098 C 0.73161 0.59673 1.09779
 C2099 C 0.71129 0.58819 1.08936
 C2100 C 0.69378 0.58112 1.08231
 H2101 H 0.78480 0.58158 1.11984
 H2102 H 0.75821 0.64784 1.11023
 H2103 H 0.79246 0.66399 1.12593
 H2104 H 0.81937 0.59756 1.13521
 C2105 C 1.28473 0.89985 0.87558
 C2106 C 1.26990 0.88625 0.88744
 C2107 C 1.27479 0.86362 0.89041
 C2108 C 1.29436 0.85452 0.88144
 C2109 C 1.30957 0.86791 0.86915
 C2110 C 1.30433 0.89086 0.86653
 C2111 C 1.24943 0.89537 0.89621
 C2112 C 1.23212 0.90279 0.90340
 C2113 C 1.21168 0.91122 0.91165
 C2114 C 1.19408 0.91822 0.91854
 H2115 H 1.28118 0.91748 0.87334
 H2116 H 1.26329 0.85287 0.89940
 H2117 H 1.29680 0.83671 0.88337
 H2118 H 1.31560 0.90228 0.85819
 C2119 C 1.27431 0.38972 0.36379
 C2120 C 1.26934 0.38677 0.38646
 C2121 C 1.28406 0.37483 0.40013
 C2122 C 1.30364 0.36571 0.39116
 C2123 C 1.30898 0.36836 0.36819
 C2124 C 1.29386 0.38068 0.35473
 C2125 C 1.24892 0.39570 0.39555
 C2126 C 1.23166 0.40304 0.40292
 C2127 C 1.21127 0.41147 0.41129
 C2128 C 1.19370 0.41850 0.41824
 H2129 H 1.26289 0.39877 0.35299
 H2130 H 1.28045 0.37259 0.41779
 H2131 H 1.31484 0.35730 0.40263
 H2132 H 1.29637 0.38261 0.33688
 C2133 C 0.77134 0.86327 0.38459
 C2134 C 0.76882 0.88649 0.38604
 C2135 C 0.78601 0.90054 0.37861
 C2136 C 0.80563 0.89141 0.36971
 C2137 C 0.80829 0.86808 0.36815
 C2138 C 0.79092 0.85411 0.37572
 C2139 C 0.74848 0.89580 0.39492
 C2140 C 0.73128 0.90334 0.40226
 C2141 C 0.71097 0.91187 0.41072
 C2142 C 0.69347 0.91893 0.41782
 H2143 H 0.75810 0.85224 0.39020
 H2144 H 0.78425 0.91854 0.37968
 H2145 H 0.81880 0.90258 0.36425
 H2146 H 0.79233 0.83611 0.37444
 C2147 C 0.77414 0.38922 0.86395
 C2148 C 0.76928 0.38629 0.88664
 C2149 C 0.78408 0.37439 0.90025
 C2150 C 0.80364 0.36530 0.89121
 C2151 C 0.80889 0.36794 0.86821
 C2152 C 0.79368 0.38022 0.85481
 C2153 C 0.74887 0.39519 0.89581
 C2154 C 0.73163 0.40252 0.90324
 C2155 C 0.71126 0.41095 0.91168
 C2156 C 0.69372 0.41798 0.91868
 H2157 H 0.76266 0.39824 0.85319
 H2158 H 0.78054 0.37216 0.91793
 H2159 H 0.81490 0.35694 0.90264
 H2160 H 0.79609 0.38215 0.83695
 C2161 C 0.72873 0.88468 1.13711
 C2162 C 0.73121 0.88639 1.11385
 C2163 C 0.71404 0.87905 1.09971
 C2164 C 0.69450 0.86994 1.10879
 C2165 C 0.69188 0.86808 1.13217
 C2166 C 0.70921 0.87560 1.14622
 C2167 C 0.75151 0.89541 1.10457
 C2168 C 0.76868 0.90283 1.09704
 C2169 C 0.78896 0.91134 1.08848
 C2170 C 0.80644 0.91844 1.08139
 H2171 H 0.74195 0.89023 1.14821
 H2172 H 0.71578 0.88032 1.08168
 H2173 H 0.68135 0.86454 1.09756
 H2174 H 0.70783 0.87411 1.16426
 C2175 C 0.71585 0.39975 0.62576
 C2176 C 0.73056 0.38630 0.61357
 C2177 C 0.72562 0.36372 0.61035
 C2178 C 0.70609 0.35453 0.61931
 C2179 C 0.69095 0.36778 0.63184
 C2180 C 0.69629 0.39066 0.63481
 C2181 C 0.75093 0.39551 0.60464
 C2182 C 0.76815 0.40296 0.59724
 C2183 C 0.78848 0.41141 0.58873
 C2184 C 0.80599 0.41843 0.58163
 H2185 H 0.71945 0.41733 0.62823
 H2186 H 0.73703 0.35308 0.60111
 H2187 H 0.70362 0.33676 0.61714
 H2188 H 0.68510 0.40196 0.64342
 C2189 C 0.22556 0.86369 0.61033
 C2190 C 0.23042 0.88628 0.61359
 C2191 C 0.21556 0.89971 0.62561
 C2192 C 0.19595 0.89058 0.63449
 C2193 C 0.19071 0.86768 0.63153
 C2194 C 0.20598 0.85446 0.61914
 C2195 C 0.25087 0.89554 0.60488
 C2196 C 0.26814 0.90304 0.59768
 C2197 C 0.28854 0.91154 0.58939
 C2198 C 0.30610 0.91857 0.58242
 H2199 H 0.23709 0.85307 0.60122
 H2200 H 0.21910 0.91731 0.62808
 H2201 H 0.18465 0.90187 0.64297
 H2202 H 0.20356 0.83668 0.61696
 C2203 C 0.21346 0.40023 1.12106
 C2204 C 0.23079 0.38617 1.11398
 C2205 C 0.22842 0.36297 1.11580
 C2206 C 0.20884 0.35382 1.12470
 C2207 C 0.19133 0.36780 1.13192
 C2208 C 0.19385 0.39111 1.12998
 C2209 C 0.25113 0.39547 1.10507
 C2210 C 0.26832 0.40300 1.09772
 C2211 C 0.28864 0.41153 1.08925
 C2212 C 0.30614 0.41859 1.08217
 H2213 H 0.21512 0.41822 1.11970
 H2214 H 0.24177 0.35194 1.11046
 H2215 H 0.20754 0.33583 1.12627
 H2216 H 0.18057 0.40228 1.13518
 C2217 C 0.71640 1.10061 0.87489
 C2218 C 0.73120 1.11420 0.88681
 C2219 C 0.72627 1.13682 0.88981
 C2220 C 0.70670 1.14592 0.88084
 C2221 C 0.69152 1.13254 0.86851
 C2222 C 0.69680 1.10961 0.86584
 C2223 C 0.75165 1.10506 0.89562
 C2224 C 0.76893 1.09761 0.90286
 C2225 C 0.78933 1.08913 0.91116
 C2226 C 0.80689 1.08208 0.91811
 H2227 H 0.71997 1.08300 0.87261
 H2228 H 0.73774 1.14755 0.89885
 H2229 H 0.70423 1.16372 0.88281
 H2230 H 0.68556 1.09820 0.85746
 C2231 C 0.72828 0.63759 0.38439
 C2232 C 0.73068 0.61440 0.38634
 C2233 C 0.71334 0.60029 0.37941
 C2234 C 0.69370 0.60934 0.37048
 C2235 C 0.69115 0.63264 0.36839
 C2236 C 0.70866 0.64667 0.37549
 C2237 C 0.75107 0.60514 0.39517
 C2238 C 0.76830 0.59760 0.40244
 C2239 C 0.78864 0.58902 0.41080
 C2240 C 0.80615 0.58190 0.41781
 H2241 H 0.74163 0.64867 0.38961
 H2242 H 0.71502 0.58231 0.38086
 H2243 H 0.68042 0.59813 0.36537
 H2244 H 0.70735 0.66465 0.37379
 C2245 C 0.21566 1.10080 0.37447
 C2246 C 0.23054 1.11435 0.38632
 C2247 C 0.22581 1.13704 0.38911
 C2248 C 0.20634 1.14624 0.38001
 C2249 C 0.19107 1.13290 0.36777
 C2250 C 0.19616 1.10990 0.36529
 C2251 C 0.25087 1.10510 0.39532
 C2252 C 0.26805 1.09757 0.40274
 C2253 C 0.28833 1.08899 0.41126
 C2254 C 0.30579 1.08187 0.41838
 H2255 H 0.21908 1.08314 0.37235
 H2256 H 0.23735 1.14775 0.39809
 H2257 H 0.20404 1.16408 0.38182
 H2258 H 0.18482 1.09854 0.35696
 C2259 C 0.22859 0.61561 0.86314
 C2260 C 0.23118 0.61418 0.88640
 C2261 C 0.21408 0.62167 0.90054
 C2262 C 0.19445 0.63060 0.89145
 C2263 C 0.19170 0.63211 0.86808
 C2264 C 0.20900 0.62451 0.85402
 C2265 C 0.25152 0.60521 0.89566
 C2266 C 0.26871 0.59779 0.90313
 C2267 C 0.28901 0.58924 0.91159
 C2268 C 0.30651 0.58209 0.91861
 H2269 H 0.24176 0.60995 0.85204
 H2270 H 0.21591 0.62062 0.91858
 H2271 H 0.18134 0.63609 0.90269
 H2272 H 0.20752 0.62576 0.83598
 C2273 C 1.13748 1.27130 1.11557
 C2274 C 1.11432 1.26896 1.11334
 C2275 C 1.10016 1.28634 1.12006
 C2276 C 1.10912 1.30596 1.12910
 C2277 C 1.13240 1.30842 1.13153
 C2278 C 1.14648 1.29089 1.12459
 C2279 C 1.10513 1.24856 1.10445
 C2280 C 1.09767 1.23132 1.09715
 C2281 C 1.08918 1.21096 1.08879
 C2282 C 1.08214 1.19341 1.08180
 H2283 H 1.14859 1.25791 1.11050
 H2284 H 1.08220 1.28471 1.11836
 H2285 H 1.09788 1.31927 1.13402
 H2286 H 1.16444 1.29218 1.12651
 C2287 C 1.13712 0.77147 0.61474
 C2288 C 1.11392 0.76906 0.61293
 C2289 C 1.09983 0.78636 0.62002
 C2290 C 1.10890 0.80596 0.62900
 C2291 C 1.13221 0.80849 0.63099
 C2292 C 1.14622 0.79104 0.62370
 C2293 C 1.10464 0.74869 0.60409
 C2294 C 1.09710 0.73146 0.59682
 C2295 C 1.08855 0.71112 0.58848
 C2296 C 1.08146 0.69359 0.58150
 H2297 H 1.14817 0.75815 0.60939
 H2298 H 1.08185 0.78467 0.61866
 H2299 H 1.09771 0.81920 0.63422
 H2300 H 1.16420 0.79237 0.62530
 C2301 C 0.63706 1.27181 0.61496
 C2302 C 0.61385 1.26947 0.61319
 C2303 C 0.59983 1.28677 0.62040
 C2304 C 0.60897 1.30631 0.62944
 C2305 C 0.63229 1.30877 0.63138
 C2306 C 0.64623 1.29132 0.62398
 C2307 C 0.60451 1.24916 0.60429
 C2308 C 0.59693 1.23198 0.59697
 C2309 C 0.58834 1.21167 0.58857
 C2310 C 0.58123 1.19417 0.58155
 H2311 H 0.64807 1.25849 0.60951
 H2312 H 0.58184 1.28513 0.61908
 H2313 H 0.59782 1.31955 0.63475
 H2314 H 0.66423 1.29260 0.62552
 C2315 C 0.63782 0.77147 1.11562
 C2316 C 0.61462 0.76895 1.11397
 C2317 C 0.60050 0.78617 1.12120
 C2318 C 0.60955 0.80580 1.13014
 C2319 C 0.63286 0.80846 1.13195
 C2320 C 0.64689 0.79107 1.12454
 C2321 C 0.60536 0.74856 1.10511
 C2322 C 0.59781 0.73135 1.09782
 C2323 C 0.58922 0.71102 1.08943
 C2324 C 0.58208 0.69353 1.08241
 H2325 H 0.64889 0.75820 1.11017
 H2326 H 0.58252 0.78440 1.11997
 H2327 H 0.59833 0.81898 1.13547
 H2328 H 0.66488 0.79247 1.12602
 C2329 C 0.90010 1.28681 0.87942
 C2330 C 0.88612 1.26939 0.88644
 C2331 C 0.86291 1.27166 0.88461
 C2332 C 0.85368 1.29123 0.87573
 C2333 C 0.86758 1.30882 0.86856
 C2334 C 0.89090 1.30640 0.87052
 C2335 C 0.89553 1.24905 0.89527
 C2336 C 0.90317 1.23187 0.90254
 C2337 C 0.91185 1.21157 0.91093
 C2338 C 0.91902 1.19409 0.91797
 H2339 H 0.91809 1.28523 0.88078
 H2340 H 0.85194 1.25824 0.88990
 H2341 H 0.83569 1.29244 0.87411
 H2342 H 0.90200 1.31974 0.86533
 C2343 C 0.90003 0.78670 0.37969
 C2344 C 0.88596 0.76943 0.38689
 C2345 C 0.86276 0.77187 0.38518
 C2346 C 0.85363 0.79143 0.37620
 C2347 C 0.86762 0.80884 0.36879
 C2348 C 0.89093 0.80629 0.37069
 C2349 C 0.89526 0.74906 0.39570
 C2350 C 0.90282 0.73182 0.40293
 C2351 C 0.91140 0.71146 0.41123
 C2352 C 0.91849 0.69391 0.41819
 H2353 H 0.91802 0.78500 0.38096
 H2354 H 0.85172 0.75856 0.39062
 H2355 H 0.83564 0.79276 0.37468
 H2356 H 0.90211 0.81951 0.36537
 C2357 C 0.39950 1.28679 0.37981
 C2358 C 0.38534 1.26940 0.38653
 C2359 C 0.36217 1.27178 0.38434
 C2360 C 0.35316 1.29143 0.37544
 C2361 C 0.36724 1.30901 0.36860
 C2362 C 0.39052 1.30648 0.37089
 C2363 C 0.39453 1.24899 0.39541
 C2364 C 0.40200 1.23175 0.40273
 C2365 C 0.41052 1.21140 0.41116
 C2366 C 0.41760 1.19388 0.41821
 H2367 H 0.41746 1.28513 0.38144
 H2368 H 0.35106 1.25838 0.38939
 H2369 H 0.33520 1.29273 0.37356
 H2370 H 0.40175 1.31980 0.36594
 C2371 C 0.36321 0.77170 0.88495
 C2372 C 0.38642 0.76922 0.88653
 C2373 C 0.40048 0.78645 0.87922
 C2374 C 0.39137 0.80608 0.87030
 C2375 C 0.36805 0.80871 0.86862
 C2376 C 0.35408 0.79129 0.87606
 C2377 C 0.39571 0.74887 0.89544
 C2378 C 0.40323 0.73167 0.90280
 C2379 C 0.41175 0.71135 0.91127
 C2380 C 0.41880 0.69384 0.91836
 H2381 H 0.35218 0.75843 0.89047
 H2382 H 0.41847 0.78471 0.88039
 H2383 H 0.40255 0.81928 0.86494
 H2384 H 0.33608 0.79268 0.87469
 C2385 C 1.12120 0.71353 0.90003
 C2386 C 1.11377 0.73057 0.88576
 C2387 C 1.11540 0.72791 0.86252
 C2388 C 1.12445 0.70832 0.85355
 C2389 C 1.13201 0.69110 0.86773
 C2390 C 1.13027 0.69391 0.89108
 C2391 C 1.10474 0.75093 0.89490
 C2392 C 1.09730 0.76814 0.90232
 C2393 C 1.08878 0.78847 0.91077
 C2394 C 1.08168 0.80597 0.91780
 H2395 H 1.12000 0.71541 0.91805
 H2396 H 1.10980 0.74104 0.85133
 H2397 H 1.12588 0.70681 0.83552
 H2398 H 1.13574 0.68085 0.90241
 C2399 C 1.11620 0.22890 0.36212
 C2400 C 1.11391 0.23118 0.38535
 C2401 C 1.12075 0.21383 0.39953
 C2402 C 1.12995 0.19430 0.39053
 C2403 C 1.13241 0.19189 0.36719
 C2404 C 1.12538 0.20939 0.35309
 C2405 C 1.10480 0.25147 0.39456
 C2406 C 1.09731 0.26863 0.40205
 C2407 C 1.08874 0.28889 0.41058
 C2408 C 1.08160 0.30636 0.41768
 H2409 H 1.11104 0.24226 0.35100
 H2410 H 1.11902 0.21542 0.41754
 H2411 H 1.13495 0.18100 0.40178
 H2412 H 1.12730 0.20813 0.33508
 C2413 C 0.61540 0.72872 0.36302
 C2414 C 0.61365 0.73120 0.38627
 C2415 C 0.62090 0.71400 0.40043
 C2416 C 0.62995 0.69442 0.39138
 C2417 C 0.63184 0.69180 0.36802
 C2418 C 0.62442 0.70916 0.35393
 C2419 C 0.60468 0.75153 0.39552
 C2420 C 0.59730 0.76872 0.40302
 C2421 C 0.58881 0.78903 0.41153
 C2422 C 0.58173 0.80653 0.41860
 H2423 H 0.60993 0.74196 0.35190
 H2424 H 0.61960 0.71574 0.41846
 H2425 H 0.63528 0.68124 0.40263
 H2426 H 0.62594 0.70777 0.33590
 C2427 C 0.60030 0.21367 0.87882
 C2428 C 0.61428 0.23096 0.88613
 C2429 C 0.63749 0.22858 0.88455
 C2430 C 0.64673 0.20904 0.87565
 C2431 C 0.63283 0.19158 0.86819
 C2432 C 0.60950 0.19409 0.86989
 C2433 C 0.60488 0.25126 0.89502
 C2434 C 0.59725 0.26841 0.90237
 C2435 C 0.58861 0.28868 0.91084
 C2436 C 0.58147 0.30614 0.91795
 H2437 H 0.58230 0.21532 0.87999
 H2438 H 0.64847 0.24190 0.89007
 H2439 H 0.66473 0.20774 0.87427
 H2440 H 0.59838 0.18085 0.86452
 C2441 C 0.89994 0.71333 1.11952
 C2442 C 0.88582 0.73073 1.11273
 C2443 C 0.86265 0.72842 1.11495
 C2444 C 0.85361 0.70887 1.12403
 C2445 C 0.86766 0.69134 1.13105
 C2446 C 0.89094 0.69375 1.12862
 C2447 C 0.89505 0.75109 1.10382
 C2448 C 0.90257 0.76832 1.09652
 C2449 C 0.91114 0.78866 1.08816
 C2450 C 0.91824 0.80619 1.08119
 H2451 H 0.91791 0.71493 1.11784
 H2452 H 0.85157 0.74182 1.10983
 H2453 H 0.83565 0.70761 1.12594
 H2454 H 0.90215 0.68043 1.13360
 C2455 C 0.88336 0.22853 0.63719
 C2456 C 0.88545 0.23093 0.61395
 C2457 C 0.87856 0.21360 0.59978
 C2458 C 0.86961 0.19395 0.60880
 C2459 C 0.86746 0.19139 0.63215
 C2460 C 0.87443 0.20891 0.64625
 C2461 C 0.89444 0.25128 0.60473
 C2462 C 0.90187 0.26846 0.59724
 C2463 C 0.91043 0.28875 0.58872
 C2464 C 0.91759 0.30622 0.58163
 H2465 H 0.88853 0.24188 0.64832
 H2466 H 0.88011 0.21527 0.58176
 H2467 H 0.86456 0.18067 0.59756
 H2468 H 0.87266 0.20759 0.66426
 C2469 C 0.36296 0.72854 0.61564
 C2470 C 0.38617 0.73102 0.61418
 C2471 C 0.40019 0.71377 0.62152
 C2472 C 0.39104 0.69413 0.63036
 C2473 C 0.36771 0.69151 0.63195
 C2474 C 0.35377 0.70893 0.62446
 C2475 C 0.39552 0.75140 0.60539
 C2476 C 0.40309 0.76861 0.59813
 C2477 C 0.41167 0.78895 0.58974
 C2478 C 0.41875 0.80646 0.58269
 H2479 H 0.35195 0.74183 0.61010
 H2480 H 0.41819 0.71551 0.62044
 H2481 H 0.40219 0.68092 0.63576
 H2482 H 0.33577 0.70755 0.62576
 C2483 C 0.36281 0.22818 1.11540
 C2484 C 0.38598 0.23056 1.11326
 C2485 C 0.40014 0.21321 1.12010
 C2486 C 0.39116 0.19359 1.12915
 C2487 C 0.36788 0.19110 1.13147
 C2488 C 0.35380 0.20859 1.12443
 C2489 C 0.39517 0.25095 1.10436
 C2490 C 0.40263 0.26819 1.09705
 C2491 C 0.41111 0.28857 1.08868
 C2492 C 0.41815 0.30612 1.08170
 H2493 H 0.35170 0.24154 1.11024
 H2494 H 0.41811 0.21487 1.11848
 H2495 H 0.40240 0.18030 1.13416
 H2496 H 0.33584 0.20727 1.12626
 C2497 C 1.12063 1.09990 0.71262
 C2498 C 1.11364 1.11400 0.72997
 C2499 C 1.11546 1.13720 0.72752
 C2500 C 1.12429 1.14629 0.70784
 C2501 C 1.13142 1.13227 0.69031
 C2502 C 1.12949 1.10896 0.69290
 C2503 C 1.10486 1.10474 0.75043
 C2504 C 1.09762 1.09723 0.76771
 C2505 C 1.08928 1.08870 0.78812
 C2506 C 1.08229 1.08164 0.80570
 H2507 H 1.11929 1.08191 0.71433
 H2508 H 1.11019 1.14827 0.74089
 H2509 H 1.12590 1.16428 0.70649
 H2510 H 1.13466 1.09776 0.67962
 C2511 C 1.10064 0.62578 0.21510
 C2512 C 1.11417 0.61394 0.23004
 C2513 C 1.13686 0.61112 0.22531
 C2514 C 1.14607 0.62016 0.20579
 C2515 C 1.13274 0.63237 0.19044
 C2516 C 1.10975 0.63490 0.19555
 C2517 C 1.10492 0.60498 0.25043
 C2518 C 1.09741 0.59759 0.26766
 C2519 C 1.08887 0.58909 0.28800
 C2520 C 1.08177 0.58199 0.30552
 H2521 H 1.08298 0.62792 0.21853
 H2522 H 1.14755 0.60215 0.23690
 H2523 H 1.16390 0.61832 0.20349
 H2524 H 1.09841 0.64322 0.18416
 C2525 C 0.63709 1.11556 0.22787
 C2526 C 0.61389 1.11365 0.23015
 C2527 C 0.59988 1.12065 0.21272
 C2528 C 0.60903 1.12962 0.19310
 C2529 C 0.63235 1.13169 0.19068
 C2530 C 0.64628 1.12451 0.20828
 C2531 C 0.60451 1.10479 0.25053
 C2532 C 0.59687 1.09750 0.26775
 C2533 C 0.58820 1.08911 0.28809
 C2534 C 0.58103 1.08206 0.30560
 H2535 H 0.64809 1.11028 0.24130
 H2536 H 0.58189 1.11922 0.21430
 H2537 H 0.59790 1.13479 0.17976
 H2538 H 0.66426 1.12618 0.20706
 C2539 C 0.63738 0.61491 0.72779
 C2540 C 0.61419 0.61309 0.73035
 C2541 C 0.60001 0.62029 0.71314
 C2542 C 0.60896 0.62938 0.69349
 C2543 C 0.63225 0.63138 0.69081
 C2544 C 0.64636 0.62398 0.70817
 C2545 C 0.60502 0.60416 0.75078
 C2546 C 0.59754 0.59683 0.76805
 C2547 C 0.58901 0.58844 0.78843
 C2548 C 0.58192 0.58143 0.80599
 H2549 H 0.64851 0.60947 0.74104
 H2550 H 0.58203 0.61893 0.71494
 H2551 H 0.59768 0.63469 0.68033
 H2552 H 0.66434 0.62558 0.70674
 C2553 C 0.90035 0.87923 0.71282
 C2554 C 0.88625 0.88664 0.73001
 C2555 C 0.86305 0.88503 0.72749
 C2556 C 0.85395 0.87600 0.70791
 C2557 C 0.86797 0.86845 0.69055
 C2558 C 0.89128 0.87017 0.69321
 C2559 C 0.89551 0.89564 0.75036
 C2560 C 0.90302 0.90305 0.76757
 C2561 C 0.91156 0.91156 0.78790
 C2562 C 0.91866 0.91865 0.80542
 H2563 H 0.91834 0.88041 0.71459
 H2564 H 0.85198 0.89062 0.74073
 H2565 H 0.83596 0.87459 0.70651
 H2566 H 0.90249 0.86471 0.68005
 C2567 C 0.86259 0.38404 0.22771
 C2568 C 0.88577 0.38605 0.23012
 C2569 C 0.89992 0.37897 0.21283
 C2570 C 0.89092 0.36984 0.19322
 C2571 C 0.86763 0.36771 0.19067
 C2572 C 0.85356 0.37494 0.20813
 C2573 C 0.89498 0.39513 0.25047
 C2574 C 0.90246 0.40260 0.26767
 C2575 C 0.91098 0.41117 0.28798
 C2576 C 0.91807 0.41831 0.30548
 H2577 H 0.85149 0.38937 0.24103
 H2578 H 0.91789 0.38047 0.21452
 H2579 H 0.90215 0.36464 0.17998
 H2580 H 0.83559 0.37321 0.20681
 C2581 C 0.36243 0.88388 0.22880
 C2582 C 0.38559 0.88617 0.23106
 C2583 C 0.39971 0.87936 0.21364
 C2584 C 0.39070 0.87016 0.19408
 C2585 C 0.36743 0.86768 0.19171
 C2586 C 0.35339 0.87471 0.20927
 C2587 C 0.39482 0.89522 0.25140
 C2588 C 0.40231 0.90264 0.26861
 C2589 C 0.41083 0.91114 0.28894
 C2590 C 0.41790 0.91822 0.30647
 H2591 H 0.35135 0.88902 0.24222
 H2592 H 0.41768 0.88109 0.21521
 H2593 H 0.40191 0.86517 0.18073
 H2594 H 0.33543 0.87275 0.20804
 C2595 C 0.39957 0.37900 0.71334
 C2596 C 0.38546 0.38612 0.73065
 C2597 C 0.36227 0.38418 0.72825
 C2598 C 0.35320 0.37512 0.70868
 C2599 C 0.36723 0.36785 0.69120
 C2600 C 0.39053 0.36991 0.69374
 C2601 C 0.39471 0.39516 0.75099
 C2602 C 0.40223 0.40260 0.76818
 C2603 C 0.41080 0.41115 0.78849
 C2604 C 0.41793 0.41828 0.80598
 H2605 H 0.41755 0.38043 0.71502
 H2606 H 0.35120 0.38955 0.74158
 H2607 H 0.33522 0.37346 0.70737
 H2608 H 0.40173 0.36467 0.68048
 C2609 C 1.12521 0.89968 1.28470
 C2610 C 1.11330 0.88609 1.26989
 C2611 C 1.11046 0.86344 1.27475
 C2612 C 1.11957 0.85431 1.29427
 C2613 C 1.13186 0.86769 1.30949
 C2614 C 1.13440 0.89065 1.30426
 C2615 C 1.10431 0.89524 1.24948
 C2616 C 1.09693 0.90264 1.23221
 C2617 C 1.08846 0.91105 1.21181
 C2618 C 1.08143 0.91804 1.19422
 H2619 H 1.12737 0.91733 1.28117
 H2620 H 1.10144 0.85270 1.26325
 H2621 H 1.11773 0.83648 1.29667
 H2622 H 1.14277 0.90206 1.31553
 C2623 C 1.11036 0.36343 0.77447
 C2624 C 1.11315 0.38609 0.76960
 C2625 C 1.12506 0.39971 0.78438
 C2626 C 1.13431 0.39070 0.80392
 C2627 C 1.13185 0.36773 0.80916
 C2628 C 1.11954 0.35432 0.79398
 C2629 C 1.10412 0.39522 0.74919
 C2630 C 1.09671 0.40264 0.73194
 C2631 C 1.08822 0.41109 0.71156
 C2632 C 1.08116 0.41811 0.69399
 H2633 H 1.10134 0.35267 0.76300
 H2634 H 1.12717 0.41735 0.78084
 H2635 H 1.14268 0.40213 0.81517
 H2636 H 1.11773 0.33649 0.79639
 C2637 C 0.62127 0.90019 0.78703
 C2638 C 0.61398 0.88614 0.76975
 C2639 C 0.61563 0.86293 0.77220
 C2640 C 0.62459 0.85377 0.79179
 C2641 C 0.63206 0.86773 0.80923
 C2642 C 0.63027 0.89106 0.80665
 C2643 C 0.60510 0.89548 0.74937
 C2644 C 0.59778 0.90308 0.73215
 C2645 C 0.58936 0.91171 0.71182
 C2646 C 0.58229 0.91885 0.69430
 H2647 H 0.62006 0.91818 0.78532
 H2648 H 0.61012 0.85190 0.75889
 H2649 H 0.62606 0.83577 0.79312
 H2650 H 0.63565 0.90222 0.81987
 C2651 C 0.63642 0.38893 1.27491
 C2652 C 0.61375 0.38607 1.27015
 C2653 C 0.60021 0.37426 1.28510
 C2654 C 0.60929 0.36519 1.30469
 C2655 C 0.63227 0.36774 1.30981
 C2656 C 0.64561 0.37994 1.29447
 C2657 C 0.60453 0.39496 1.24973
 C2658 C 0.59703 0.40229 1.23247
 C2659 C 0.58852 0.41072 1.21209
 C2660 C 0.58146 0.41777 1.19453
 H2661 H 0.64713 0.39788 1.26332
 H2662 H 0.58255 0.37210 1.28165
 H2663 H 0.59794 0.35688 1.31608
 H2664 H 0.66344 0.38180 1.29679
 C2665 C 0.89986 1.12106 1.28659
 C2666 C 0.88580 1.11370 1.26935
 C2667 C 0.86260 1.11539 1.27178
 C2668 C 0.85345 1.12444 1.29133
 C2669 C 0.86742 1.13195 1.30874
 C2670 C 0.89074 1.13014 1.30617
 C2671 C 0.89512 1.10470 1.24902
 C2672 C 0.90269 1.09728 1.23184
 C2673 C 0.91130 1.08876 1.21154
 C2674 C 0.91844 1.08165 1.19404
 H2675 H 0.91785 1.11981 1.28490
 H2676 H 0.85157 1.10984 1.25849
 H2677 H 0.83546 1.12592 1.29265
 H2678 H 0.90191 1.13555 1.31938
 C2679 C 0.86246 0.61529 0.77204
 C2680 C 0.88565 0.61367 0.76949
 C2681 C 0.89978 0.62105 0.78666
 C2682 C 0.89075 0.63009 0.80629
 C2683 C 0.86744 0.63184 0.80900
 C2684 C 0.85340 0.62431 0.79165
 C2685 C 0.89489 0.60470 0.74910
 C2686 C 0.90239 0.59732 0.73187
 C2687 C 0.91092 0.58883 0.71153
 C2688 C 0.91801 0.58174 0.69400
 H2689 H 0.85137 0.60973 0.75881
 H2690 H 0.91777 0.61985 0.78486
 H2691 H 0.90198 0.63553 0.81944
 H2692 H 0.83541 0.62574 0.79308
 C2693 C 0.38476 1.13714 0.77254
 C2694 C 0.38644 1.11393 0.77008
 C2695 C 0.37914 1.09984 0.78733
 C2696 C 0.37015 1.10892 0.80697
 C2697 C 0.36838 1.13224 0.80958
 C2698 C 0.37580 1.14624 0.79214
 C2699 C 0.39542 1.10468 0.74972
 C2700 C 0.40283 1.09721 0.73249
 C2701 C 0.41135 1.08875 0.71214
 C2702 C 0.41844 1.08173 0.69459
 H2703 H 0.39026 1.14820 0.75925
 H2704 H 0.38038 1.08185 0.78560
 H2705 H 0.36480 1.09773 0.82019
 H2706 H 0.37436 1.16424 0.79352
 C2707 C 0.38451 0.63728 1.27237
 C2708 C 0.38610 0.61407 1.26992
 C2709 C 0.37868 0.60001 1.28715
 C2710 C 0.36966 0.60913 1.30676
 C2711 C 0.36797 0.63246 1.30936
 C2712 C 0.37552 0.64643 1.29194
 C2713 C 0.39512 0.60476 1.24960
 C2714 C 0.40257 0.59723 1.23241
 C2715 C 0.41114 0.58869 1.21211
 C2716 C 0.41830 0.58161 1.19461
 H2717 H 0.39011 0.64831 1.25910
 H2718 H 0.37985 0.58201 1.28543
 H2719 H 0.36422 0.59797 1.31996
 H2720 H 0.37415 0.66443 1.29331
 C2721 C 1.12236 1.28610 0.90016
 C2722 C 1.11500 1.26892 0.88604
 C2723 C 1.11655 1.27144 0.86278
 C2724 C 1.12543 1.29103 0.85363
 C2725 C 1.13289 1.30841 0.86765
 C2726 C 1.13127 1.30573 0.89103
 C2727 C 1.10602 1.24860 0.89534
 C2728 C 1.09857 1.23143 0.90283
 C2729 C 1.08998 1.21114 0.91132
 C2730 C 1.08280 1.19366 0.91835
 H2731 H 1.12121 1.28434 0.91819
 H2732 H 1.11100 1.25820 0.85170
 H2733 H 1.12676 1.29245 0.83558
 H2734 H 1.13665 1.31891 0.90224
 C2735 C 1.12176 0.78600 0.40031
 C2736 C 1.11439 0.76888 0.38612
 C2737 C 1.11608 0.77143 0.36288
 C2738 C 1.12508 0.79100 0.35381
 C2739 C 1.13253 0.80833 0.36791
 C2740 C 1.13079 0.80561 0.39127
 C2741 C 1.10529 0.74858 0.39532
 C2742 C 1.09776 0.73141 0.40274
 C2743 C 1.08910 0.71112 0.41114
 C2744 C 1.08189 0.69364 0.41813
 H2745 H 1.12051 0.78420 0.41834
 H2746 H 1.11052 0.75824 0.35174
 H2747 H 1.12650 0.79246 0.33577
 H2748 H 1.13617 0.81875 0.40254
 C2749 C 0.59990 1.28452 0.37447
 C2750 C 0.61333 1.26958 0.38640
 C2751 C 0.63598 1.27431 0.38947
 C2752 C 0.64525 1.29384 0.38058
 C2753 C 0.63203 1.30917 0.36826
 C2754 C 0.60907 1.30408 0.36550
 C2755 C 0.60402 1.24918 0.39518
 C2756 C 0.59647 1.23195 0.40243
 C2757 C 0.58791 1.21160 0.41079
 C2758 C 0.58084 1.19407 0.41782
 H2759 H 0.58226 1.28109 0.37214
 H2760 H 0.64660 1.26273 0.39852
 H2761 H 0.66306 1.29617 0.38262
 H2762 H 0.59779 1.31546 0.35710
 C2763 C 0.60025 0.78626 0.87977
 C2764 C 0.61437 0.76902 0.88695
 C2765 C 0.63756 0.77149 0.88516
 C2766 C 0.64662 0.79107 0.87615
 C2767 C 0.63258 0.80847 0.86878
 C2768 C 0.60928 0.80587 0.87074
 C2769 C 0.60512 0.74865 0.89585
 C2770 C 0.59761 0.73143 0.90317
 C2771 C 0.58905 0.71109 0.91157
 C2772 C 0.58196 0.69358 0.91858
 H2773 H 0.58226 0.78454 0.88111
 H2774 H 0.64864 0.75822 0.89057
 H2775 H 0.66461 0.79244 0.87457
 H2776 H 0.59806 0.81907 0.86546
 C2777 C 0.86402 1.27392 1.11047
 C2778 C 0.88663 1.26912 1.11371
 C2779 C 0.90000 1.28397 1.12580
 C2780 C 0.89080 1.30353 1.13475
 C2781 C 0.86789 1.30871 1.13178
 C2782 C 0.85473 1.29344 1.11933
 C2783 C 0.89596 1.24875 1.10489
 C2784 C 0.90351 1.23154 1.09759
 C2785 C 0.91205 1.21122 1.08916
 C2786 C 0.91912 1.19371 1.08208
 H2787 H 0.85344 1.26240 1.10130
 H2788 H 0.91761 1.28049 1.12827
 H2789 H 0.90205 1.31483 1.14327
 H2790 H 0.83694 1.29581 1.11716
 C2791 C 0.86295 0.77182 0.61504
 C2792 C 0.88614 0.76923 0.61351
 C2793 C 0.90028 0.78636 0.62090
 C2794 C 0.89125 0.80601 0.62983
 C2795 C 0.86794 0.80876 0.63146
 C2796 C 0.85389 0.79144 0.62394
 C2797 C 0.89535 0.74885 0.60458
 C2798 C 0.90281 0.73163 0.59721
 C2799 C 0.91126 0.71130 0.58873
 C2800 C 0.91828 0.69378 0.58165
 H2801 H 0.85186 0.75863 0.60946
 H2802 H 0.91826 0.78453 0.61977
 H2803 H 0.90248 0.81914 0.63525
 H2804 H 0.83589 0.79291 0.62528
 C2805 C 0.39928 1.28407 0.62614
 C2806 C 0.38584 1.26930 0.61402
 C2807 C 0.36324 1.27417 0.61085
 C2808 C 0.35402 1.29369 0.61980
 C2809 C 0.36725 1.30890 0.63225
 C2810 C 0.39015 1.30363 0.63517
 C2811 C 0.39509 1.24894 0.60510
 C2812 C 0.40256 1.23174 0.59771
 C2813 C 0.41103 1.21142 0.58920
 C2814 C 0.41806 1.19391 0.58209
 H2815 H 0.41688 1.28053 0.62857
 H2816 H 0.35261 1.26271 0.60167
 H2817 H 0.33623 1.29611 0.61767
 H2818 H 0.40145 1.31487 0.64372
 C2819 C 0.38946 0.77407 1.13710
 C2820 C 0.38642 0.76909 1.11445
 C2821 C 0.37428 0.78374 1.10087
 C2822 C 0.36510 0.80326 1.10990
 C2823 C 0.36787 0.80863 1.13285
 C2824 C 0.38036 0.79357 1.14623
 C2825 C 0.39545 0.74874 1.10529
 C2826 C 0.40289 0.73154 1.09785
 C2827 C 0.41144 0.71123 1.08939
 C2828 C 0.41856 0.69374 1.08233
 H2829 H 0.39866 0.76271 1.14784
 H2830 H 0.37195 0.78011 1.08323
 H2831 H 0.35654 0.81441 1.09850
 H2832 H 0.38239 0.79605 1.16406
 C2833 C 0.86279 0.72851 0.88445
 C2834 C 0.88600 0.73105 0.88590
 C2835 C 0.90007 0.71386 0.87849
 C2836 C 0.89096 0.69423 0.86961
 C2837 C 0.86764 0.69154 0.86805
 C2838 C 0.85366 0.70891 0.87559
 C2839 C 0.89529 0.75140 0.89477
 C2840 C 0.90282 0.76861 0.90209
 C2841 C 0.91135 0.78893 0.91054
 C2842 C 0.91843 0.80643 0.91760
 H2843 H 0.85175 0.74174 0.89004
 H2844 H 0.91806 0.71565 0.87957
 H2845 H 0.90215 0.68106 0.86417
 H2846 H 0.83566 0.70748 0.87431
 C2847 C 0.86258 0.22866 0.38414
 C2848 C 0.88578 0.23114 0.38575
 C2849 C 0.89985 0.21393 0.37842
 C2850 C 0.89076 0.19432 0.36948
 C2851 C 0.86744 0.19169 0.36777
 C2852 C 0.85345 0.20909 0.37522
 C2853 C 0.89506 0.25147 0.39469
 C2854 C 0.90257 0.26866 0.40208
 C2855 C 0.91108 0.28896 0.41058
 C2856 C 0.91814 0.30645 0.41769
 H2857 H 0.85153 0.24192 0.38966
 H2858 H 0.91784 0.21567 0.37961
 H2859 H 0.90194 0.18113 0.36411
 H2860 H 0.83545 0.20771 0.37382
 C2861 C 0.38971 0.72562 0.36442
 C2862 C 0.38670 0.73052 0.38710
 C2863 C 0.37470 0.71577 0.40068
 C2864 C 0.36558 0.69623 0.39163
 C2865 C 0.36828 0.69096 0.36864
 C2866 C 0.38067 0.70611 0.35527
 C2867 C 0.39562 0.75091 0.39627
 C2868 C 0.40295 0.76815 0.40371
 C2869 C 0.41137 0.78852 0.41215
 C2870 C 0.41840 0.80606 0.41915
 H2871 H 0.39880 0.73706 0.35368
 H2872 H 0.37242 0.71933 0.41834
 H2873 H 0.35714 0.68501 0.40304
 H2874 H 0.38265 0.70368 0.33743
 C2875 C 0.37506 0.21569 0.90075
 C2876 C 0.38695 0.23047 0.88708
 C2877 C 0.38991 0.22553 0.86441
 C2878 C 0.38093 0.20596 0.85534
 C2879 C 0.36866 0.19078 0.86879
 C2880 C 0.36601 0.19609 0.89177
 C2881 C 0.39579 0.25092 0.89617
 C2882 C 0.40307 0.26821 0.90352
 C2883 C 0.41143 0.28864 0.91186
 C2884 C 0.41840 0.30624 0.91877
 H2885 H 0.37282 0.21929 0.91841
 H2886 H 0.39891 0.23699 0.85362
 H2887 H 0.38286 0.20349 0.83749
 H2888 H 0.35765 0.18486 0.90323
 C2889 C 1.13653 0.72577 1.11070
 C2890 C 1.11387 0.73049 1.11369
 C2891 C 1.10041 0.71558 1.12564
 C2892 C 1.10958 0.69606 1.13469
 C2893 C 1.13254 0.69096 1.13199
 C2894 C 1.14579 0.70628 1.11967
 C2895 C 1.10457 0.75084 1.10478
 C2896 C 1.09704 0.76804 1.09741
 C2897 C 1.08851 0.78835 1.08893
 C2898 C 1.08144 0.80585 1.08183
 H2899 H 1.14716 0.73733 1.10164
 H2900 H 1.08276 0.71901 1.12791
 H2901 H 1.09829 0.68470 1.14311
 H2902 H 1.16361 0.70396 1.11769
 C2903 C 1.09958 0.21531 0.62423
 C2904 C 1.11313 0.23016 0.61231
 C2905 C 1.13576 0.22531 0.60931
 C2906 C 1.14492 0.20578 0.61831
 C2907 C 1.13160 0.19056 0.63067
 C2908 C 1.10864 0.19575 0.63331
 C2909 C 1.10394 0.25060 0.60351
 C2910 C 1.09648 0.26788 0.59630
 C2911 C 1.08800 0.28830 0.58803
 C2912 C 1.08098 0.30588 0.58111
 H2913 H 1.08196 0.21883 0.62650
 H2914 H 1.14646 0.23682 0.60027
 H2915 H 1.16273 0.20338 0.61636
 H2916 H 1.09727 0.18447 0.64170
 C2917 C 0.61530 0.72835 0.63732
 C2918 C 0.61341 0.73097 0.61409
 C2919 C 0.62043 0.71380 0.59980
 C2920 C 0.62942 0.69411 0.60869
 C2921 C 0.63149 0.69136 0.63203
 C2922 C 0.62427 0.70868 0.64625
 C2923 C 0.60457 0.75143 0.60498
 C2924 C 0.59732 0.76871 0.59754
 C2925 C 0.58898 0.78911 0.58906
 C2926 C 0.58200 0.80666 0.58202
 H2927 H 0.61001 0.74157 0.64854
 H2928 H 0.61902 0.71564 0.58179
 H2929 H 0.63459 0.68097 0.59734
 H2930 H 0.62593 0.70720 0.66426
 C2931 C 0.63632 0.22548 1.11046
 C2932 C 0.61369 0.23025 1.11358
 C2933 C 0.60027 0.21535 1.12559
 C2934 C 0.60945 0.19580 1.13458
 C2935 C 0.63238 0.19065 1.13174
 C2936 C 0.64559 0.20595 1.11936
 C2937 C 0.60438 0.25062 1.10476
 C2938 C 0.59684 0.26785 1.09747
 C2939 C 0.58830 0.28819 1.08907
 C2940 C 0.58123 0.30571 1.08203
 H2941 H 0.64693 0.23703 1.10136
 H2942 H 0.58265 0.21881 1.12797
 H2943 H 0.59817 0.18447 1.14304
 H2944 H 0.66340 0.20361 1.11728
 C2945 C 1.27228 1.13704 0.88511
 C2946 C 1.26993 1.11383 0.88700
 C2947 C 1.28732 1.09978 0.88006
 C2948 C 1.30696 1.10890 0.87120
 C2949 C 1.30945 1.13221 0.86919
 C2950 C 1.29189 1.14618 0.87628
 C2951 C 1.24954 1.10451 0.89576
 C2952 C 1.23230 1.09695 0.90299
 C2953 C 1.21195 1.08837 0.91130
 C2954 C 1.19441 1.08127 0.91828
 H2955 H 1.25888 1.14806 0.89033
 H2956 H 1.28568 1.08179 0.88146
 H2957 H 1.32027 1.09774 0.86608
 H2958 H 1.29315 1.16417 0.87461
 C2959 C 1.28668 0.60017 0.37965
 C2960 C 1.26931 0.61425 0.38660
 C2961 C 1.27171 0.63745 0.38474
 C2962 C 1.29134 0.64657 0.37592
 C2963 C 1.30888 0.63257 0.36883
 C2964 C 1.30634 0.60926 0.37081
 C2965 C 1.24891 0.60495 0.39537
 C2966 C 1.23167 0.59739 0.40261
 C2967 C 1.21133 0.58880 0.41094
 C2968 C 1.19381 0.58168 0.41794
 H2969 H 1.28501 0.58218 0.38103
 H2970 H 1.25833 0.64850 0.38997
 H2971 H 1.29264 0.66455 0.37428
 H2972 H 1.31963 0.59808 0.36568
 C2973 C 0.77115 1.13742 0.38451
 C2974 C 0.76869 1.11422 0.38633
 C2975 C 0.78595 1.10010 0.37921
 C2976 C 0.80556 1.10914 0.37021
 C2977 C 0.80815 1.13245 0.36823
 C2978 C 0.79074 1.14649 0.37554
 C2979 C 0.74832 1.10498 0.39519
 C2980 C 0.73109 1.09748 0.40249
 C2981 C 0.71073 1.08896 0.41086
 C2982 C 0.69320 1.08191 0.41788
 H2983 H 0.75786 1.14850 0.38988
 H2984 H 0.78423 1.08212 0.38057
 H2985 H 0.81878 1.09792 0.36498
 H2986 H 0.79210 1.16447 0.37394
 C2987 C 0.78644 0.59971 0.87985
 C2988 C 0.76918 0.61378 0.88706
 C2989 C 0.77157 0.63698 0.88527
 C2990 C 0.79109 0.64612 0.87623
 C2991 C 0.80851 0.63214 0.86881
 C2992 C 0.80599 0.60882 0.87078
 C2993 C 0.74885 0.60447 0.89597
 C2994 C 0.73166 0.59691 0.90329
 C2995 C 0.71134 0.58833 0.91169
 C2996 C 0.69383 0.58123 0.91870
 H2997 H 0.78477 0.58172 0.88119
 H2998 H 0.75827 0.64802 0.89072
 H2999 H 0.79239 0.66411 0.87465
 H3000 H 0.81921 0.59764 0.86547
 C3001 C 1.28614 0.87770 1.09992
 C3002 C 1.26890 0.88492 1.11405
 C3003 C 1.27132 0.88315 1.13730
 C3004 C 1.29088 0.87419 1.14643
 C3005 C 1.30832 0.86687 1.13240
 C3006 C 1.30573 0.86871 1.10903
 C3007 C 1.24861 0.89397 1.10477
 C3008 C 1.23146 0.90146 1.09728
 C3009 C 1.21120 0.91009 1.08879
 C3010 C 1.19374 0.91730 1.08174
 H3011 H 1.28443 0.87901 1.08189
 H3012 H 1.25805 0.88860 1.14839
 H3013 H 1.29224 0.87270 1.16447
 H3014 H 1.31895 0.86343 1.09781
 C3015 C 1.27115 0.36251 0.61537
 C3016 C 1.26875 0.38571 0.61350
 C3017 C 1.28601 0.39980 0.62066
 C3018 C 1.30558 0.39073 0.62973
 C3019 C 1.30810 0.36741 0.63174
 C3020 C 1.29068 0.35341 0.62441
 C3021 C 1.24843 0.39498 0.60454
 C3022 C 1.23124 0.40250 0.59717
 C3023 C 1.21093 0.41105 0.58871
 C3024 C 1.19344 0.41813 0.58164
 H3025 H 1.25785 0.35145 0.60996
 H3026 H 1.28434 0.41778 0.61926
 H3027 H 1.31880 0.40192 0.63499
 H3028 H 1.29201 0.33542 0.62602
 C3029 C 0.77191 0.86350 0.61456
 C3030 C 0.76955 0.88671 0.61280
 C3031 C 0.78686 0.90075 0.61994
 C3032 C 0.80643 0.89161 0.62893
 C3033 C 0.80892 0.86829 0.63087
 C3034 C 0.79146 0.85433 0.62352
 C3035 C 0.74919 0.89606 0.60399
 C3036 C 0.73197 0.90364 0.59676
 C3037 C 0.71162 0.91222 0.58846
 C3038 C 0.69407 0.91930 0.58151
 H3039 H 0.75858 0.85249 0.60917
 H3040 H 0.78521 0.91874 0.61863
 H3041 H 0.81968 0.90277 0.63420
 H3042 H 0.79274 0.83634 0.62508
 C3043 C 0.78636 0.39945 1.12023
 C3044 C 0.76909 0.38533 1.11314
 C3045 C 0.77155 0.36213 1.11493
 C3046 C 0.79114 0.35306 1.12388
 C3047 C 0.80856 0.36709 1.13119
 C3048 C 0.80598 0.39040 1.12920
 C3049 C 0.74869 0.39459 1.10433
 C3050 C 0.73145 0.40213 1.09710
 C3051 C 0.71109 0.41070 1.08881
 C3052 C 0.69355 0.41780 1.08186
 H3053 H 0.78464 0.41743 1.11888
 H3054 H 0.75825 0.35106 1.10957
 H3055 H 0.79251 0.33507 1.12547
 H3056 H 0.81920 0.40161 1.13443
 C3057 C 0.72878 1.13742 1.11520
 C3058 C 0.73127 1.11423 1.11335
 C3059 C 0.71404 1.10008 1.12048
 C3060 C 0.69442 1.10908 1.12951
 C3061 C 0.69180 1.13238 1.13151
 C3062 C 0.70919 1.14645 1.12421
 C3063 C 0.75164 1.10503 1.10440
 C3064 C 0.76885 1.09756 1.09703
 C3065 C 0.78918 1.08905 1.08857
 C3066 C 0.80669 1.08197 1.08152
 H3067 H 0.74205 1.14853 1.10982
 H3068 H 0.71578 1.08210 1.11910
 H3069 H 0.68123 1.09783 1.13474
 H3070 H 0.70780 1.16443 1.12580
 C3071 C 0.72803 0.63733 0.61463
 C3072 C 0.73049 0.61414 0.61272
 C3073 C 0.71320 0.59999 0.61974
 C3074 C 0.69359 0.60900 0.62876
 C3075 C 0.69102 0.63229 0.63088
 C3076 C 0.70844 0.64637 0.62363
 C3077 C 0.75089 0.60491 0.60391
 C3078 C 0.76814 0.59737 0.59669
 C3079 C 0.78850 0.58877 0.58840
 C3080 C 0.80603 0.58166 0.58146
 H3081 H 0.74134 0.64843 0.60934
 H3082 H 0.71492 0.58202 0.61831
 H3083 H 0.68037 0.59775 0.63395
 H3084 H 0.70710 0.66434 0.62533
 C3085 C 0.21330 1.09979 0.62091
 C3086 C 0.23051 1.11386 0.61360
 C3087 C 0.22797 1.13708 0.61505
 C3088 C 0.20833 1.14621 0.62384
 C3089 C 0.19095 1.13222 0.63131
 C3090 C 0.19363 1.10889 0.62973
 C3091 C 0.25091 1.10457 0.60483
 C3092 C 0.26816 1.09705 0.59760
 C3093 C 0.28852 1.08853 0.58925
 C3094 C 0.30607 1.08149 0.58225
 H3095 H 0.21509 1.08179 0.61984
 H3096 H 0.24123 1.14812 0.60952
 H3097 H 0.20690 1.16421 0.62513
 H3098 H 0.18045 1.09770 0.63512
 C3099 C 0.22887 0.63757 1.11570
 C3100 C 0.23111 0.61438 1.11353
 C3101 C 0.21367 0.60031 1.12030
 C3102 C 0.19409 0.60939 1.12932
 C3103 C 0.19174 0.63268 1.13170
 C3104 C 0.20932 0.64667 1.12471
 C3105 C 0.25147 0.60508 1.10466
 C3106 C 0.26867 0.59752 1.09738
 C3107 C 0.28900 0.58892 1.08903
 C3108 C 0.30652 0.58180 1.08205
 H3109 H 0.24230 0.64860 1.11059
 H3110 H 0.21522 0.58234 1.11865
 H3111 H 0.18073 0.59822 1.13429
 H3112 H 0.20809 0.66465 1.12657
 C3113 C 0.71397 0.90034 0.87874
 C3114 C 0.73124 0.88632 0.88604
 C3115 C 0.72879 0.86310 0.88453
 C3116 C 0.70920 0.85391 0.87571
 C3117 C 0.69176 0.86785 0.86826
 C3118 C 0.69435 0.89119 0.86990
 C3119 C 0.75159 0.89568 0.89485
 C3120 C 0.76880 0.90325 0.90212
 C3121 C 0.78912 0.91183 0.91051
 C3122 C 0.80663 0.91890 0.91755
 H3123 H 0.71568 0.91835 0.87986
 H3124 H 0.74209 0.85210 0.89005
 H3125 H 0.70785 0.83591 0.87437
 H3126 H 0.68112 0.90233 0.86453
 C3127 C 0.72835 0.36271 0.38456
 C3128 C 0.73057 0.38590 0.38668
 C3129 C 0.71309 0.39994 0.37993
 C3130 C 0.69351 0.39082 0.37096
 C3131 C 0.69119 0.36752 0.36862
 C3132 C 0.70879 0.35356 0.37561
 C3133 C 0.75093 0.39525 0.39547
 C3134 C 0.76815 0.40286 0.40267
 C3135 C 0.78849 0.41149 0.41096
 C3136 C 0.80601 0.41862 0.41791
 H3137 H 0.74180 0.35170 0.38967
 H3138 H 0.71462 0.41792 0.38154
 H3139 H 0.68013 0.40197 0.36599
 H3140 H 0.70759 0.33558 0.37378
 C3141 C 0.21343 0.87889 0.40047
 C3142 C 0.23072 0.88601 0.38636
 C3143 C 0.22832 0.88419 0.36310
 C3144 C 0.20875 0.87526 0.35396
 C3145 C 0.19128 0.86801 0.36800
 C3146 C 0.19383 0.86993 0.39137
 C3147 C 0.25105 0.89492 0.39566
 C3148 C 0.26823 0.90228 0.40322
 C3149 C 0.28852 0.91077 0.41179
 C3150 C 0.30600 0.91788 0.41889
 H3151 H 0.21511 0.88023 0.41850
 H3152 H 0.24164 0.88955 0.35202
 H3153 H 0.20744 0.87367 0.33593
 H3154 H 0.18059 0.86468 0.40257
 C3155 C 0.21365 0.37928 0.89986
 C3156 C 0.23088 0.38645 0.88568
 C3157 C 0.22842 0.38460 0.86243
 C3158 C 0.20886 0.37558 0.85337
 C3159 C 0.19145 0.36828 0.86746
 C3160 C 0.19406 0.37024 0.89082
 C3161 C 0.25121 0.39544 0.89493
 C3162 C 0.26838 0.40285 0.90244
 C3163 C 0.28867 0.41136 0.91101
 C3164 C 0.30614 0.41846 0.91813
 H3165 H 0.21538 0.38065 0.91788
 H3166 H 0.24169 0.38999 0.85131
 H3167 H 0.20750 0.37396 0.83534
 H3168 H 0.18088 0.36495 0.90207
   
