data_POSCAR
  _audit_creation_date              2014-09-24
  _audit_creation_method            'ToBaCCo'
  _symmetry_space_group_name_H-M    'P1'
  _symmetry_Int_Tables_number       1
  _symmetry_cell_setting            triclinic
  loop_
  _symmetry_equiv_pos_as_xyz
 x,y,z
_cell_length_a 66.1249
_cell_length_b 67.4777
_cell_length_c 65.8141
_cell_angle_alpha 89.956600
_cell_angle_beta 89.543200
_cell_angle_gamma 89.338300
loop_
  _atom_site_label
  _atom_site_type_symbol
  _atom_site_fract_x
  _atom_site_fract_y
  _atom_site_fract_z
N1 N 0.36523 1.33860 0.30321
 N2 N 0.35284 1.35384 0.30543
 C3 C 0.35823 1.36808 0.29205
 C4 C 0.37492 1.36114 0.28111
 C5 C 0.37885 1.34251 0.28860
 H6 H 0.35078 1.38235 0.29061
 H7 H 0.39099 1.33261 0.28391
 Cu8 Cu 0.33131 1.35324 0.32601
 Cu9 Cu 0.36419 1.31516 0.31994
 Cu10 Cu 0.32850 1.31447 0.35840
 N11 N 0.31121 1.35246 0.34797
 N12 N 0.31034 1.33718 0.36036
 C13 C 0.29524 1.34001 0.37385
 C14 C 0.28607 1.35801 0.36983
 C15 C 0.29659 1.36565 0.35328
 H16 H 0.29113 1.32969 0.38572
 H17 H 0.29379 1.37958 0.34563
 N18 N 0.34814 1.29284 0.35381
 N19 N 0.36108 1.29277 0.33846
 C20 C 0.37287 1.27646 0.33958
 C21 C 0.36733 1.26595 0.35659
 C22 C 0.35155 1.27663 0.36531
 H23 H 0.38544 1.27303 0.32954
 H24 H 0.34358 1.27322 0.37926
 H25 H 0.33378 1.31720 0.32773
 H26 H 0.35198 1.32971 0.34504
 N27 N 0.36578 0.84438 0.81136
 N28 N 0.35150 0.85809 0.81215
 C29 C 0.35703 0.87333 0.80004
 C30 C 0.37590 0.86879 0.79174
 C31 C 0.38095 0.85049 0.79934
 H32 H 0.34816 0.88667 0.79758
 H33 H 0.39446 0.84196 0.79579
 Cu34 Cu 0.32756 0.85460 0.82959
 Cu35 Cu 0.36353 0.81896 0.82442
 Cu36 Cu 0.32467 0.81304 0.85867
 N37 N 0.30699 0.85151 0.85099
 N38 N 0.30622 0.83536 0.86218
 C39 C 0.29091 0.83701 0.87563
 C40 C 0.28148 0.85510 0.87289
 C41 C 0.29205 0.86404 0.85710
 H42 H 0.28683 0.82583 0.88666
 H43 H 0.28913 0.87850 0.85059
 N44 N 0.34481 0.79208 0.85281
 N45 N 0.35909 0.79416 0.83890
 C46 C 0.37060 0.77763 0.83827
 C47 C 0.36352 0.76471 0.85274
 C48 C 0.34712 0.77423 0.86173
 H49 H 0.38392 0.77552 0.82884
 H50 H 0.33789 0.76875 0.87410
 H51 H 0.33219 0.81870 0.82898
 H52 H 0.34762 0.83107 0.84908
 N53 N 0.86561 1.33846 0.79789
 N54 N 0.85458 1.35469 0.79961
 C55 C 0.86036 1.36815 0.78568
 C56 C 0.87753 1.35999 0.77307
 C57 C 0.87929 1.34016 0.78275
 H58 H 0.85378 1.38278 0.78411
 H59 H 0.89039 1.32893 0.77875
 Cu60 Cu 0.83354 1.35657 0.82033
 Cu61 Cu 0.86354 1.31680 0.81722
 Cu62 Cu 0.82818 1.32154 0.85647
 N63 N 0.81266 1.35873 0.84108
 N64 N 0.81040 1.34511 0.85522
 C65 C 0.79430 1.35010 0.86702
 C66 C 0.78620 1.36777 0.85974
 C67 C 0.79818 1.37270 0.84335
 H68 H 0.78874 1.34138 0.87963
 H69 H 0.79622 1.38548 0.83366
 N70 N 0.84759 1.29885 0.85418
 N71 N 0.85973 1.29660 0.83829
 C72 C 0.87065 1.27984 0.84046
 C73 C 0.86559 1.27123 0.85867
 C74 C 0.85087 1.28358 0.86714
 H75 H 0.88229 1.27468 0.83006
 H76 H 0.84328 1.28168 0.88162
 H77 H 0.83320 1.32082 0.82582
 H78 H 0.85245 1.33357 0.84154
 N79 N 0.84864 0.83595 0.29610
 N80 N 0.83039 0.84255 0.29171
 C81 C 0.83108 0.85314 0.27447
 C82 C 0.85083 0.85359 0.26777
 C83 C 0.86170 0.84236 0.28173
 H84 H 0.81833 0.86106 0.26802
 H85 H 0.87783 0.83954 0.28184
 Cu86 Cu 0.80794 0.84043 0.31041
 Cu87 Cu 0.85364 0.82023 0.32066
 Cu88 Cu 0.81665 0.82476 0.35781
 N89 N 0.78993 0.84736 0.33256
 N90 N 0.79380 0.84191 0.35131
 C91 C 0.78016 0.85048 0.36389
 C92 C 0.76719 0.86199 0.35227
 C93 C 0.77372 0.85955 0.33249
 H94 H 0.78008 0.84881 0.38022
 H95 H 0.76775 0.86687 0.31915
 N96 N 0.84083 0.80797 0.36111
 N97 N 0.85498 0.80597 0.34696
 C98 C 0.86838 0.79198 0.35300
 C99 C 0.86219 0.78493 0.37181
 C100 C 0.84479 0.79541 0.37645
 H101 H 0.88101 0.78664 0.34394
 H102 H 0.83515 0.79325 0.38960
 H103 H 0.82422 0.81362 0.32878
 H104 H 0.83407 0.83878 0.33562
 N105 N 0.64090 0.65342 0.30682
 N106 N 0.65568 0.64031 0.30860
 C107 C 0.65366 0.62616 0.29446
 C108 C 0.63672 0.63040 0.28317
 C109 C 0.62883 0.64785 0.29140
 H110 H 0.66397 0.61377 0.29226
 H111 H 0.61554 0.65596 0.28648
 Cu112 Cu 0.67701 0.64306 0.32839
 Cu113 Cu 0.63908 0.67648 0.32517
 Cu114 Cu 0.68579 0.68836 0.34542
 N115 N 0.69791 0.64771 0.34836
 N116 N 0.70171 0.66578 0.35455
 C117 C 0.71781 0.66537 0.36689
 C118 C 0.72437 0.64597 0.36866
 C119 C 0.71144 0.63509 0.35665
 H120 H 0.72438 0.67827 0.37388
 H121 H 0.71213 0.61934 0.35369
 N122 N 0.66283 0.70700 0.34462
 N123 N 0.64454 0.70234 0.33844
 C124 C 0.63166 0.71732 0.34344
 C125 C 0.64262 0.73195 0.35315
 C126 C 0.66222 0.72494 0.35339
 H127 H 0.61555 0.71731 0.34074
 H128 H 0.67488 0.73183 0.36079
 H129 H 0.66896 0.67781 0.32075
 H130 H 0.66123 0.67035 0.34696
 N131 N 0.63489 0.16143 0.80634
 N132 N 0.64867 0.14763 0.80287
 C133 C 0.64269 0.13621 0.78735
 C134 C 0.62412 0.14329 0.78071
 C135 C 0.61965 0.15929 0.79311
 H136 H 0.65124 0.12371 0.78150
 H137 H 0.60629 0.16867 0.79251
 Cu138 Cu 0.67318 0.14538 0.81881
 Cu139 Cu 0.63786 0.18109 0.82763
 Cu140 Cu 0.67946 0.17596 0.85871
 N141 N 0.69491 0.14152 0.83815
 N142 N 0.69723 0.15348 0.85367
 C143 C 0.71304 0.14720 0.86475
 C144 C 0.72106 0.13036 0.85567
 C145 C 0.70924 0.12720 0.83881
 H146 H 0.71817 0.15438 0.87841
 H147 H 0.71083 0.11520 0.82801
 N148 N 0.65979 0.19774 0.86152
 N149 N 0.64365 0.19951 0.84996
 C150 C 0.63276 0.21542 0.85612
 C151 C 0.64262 0.22400 0.87229
 C152 C 0.65969 0.21252 0.87523
 H153 H 0.61879 0.22042 0.84930
 H154 H 0.67102 0.21467 0.88674
 H155 H 0.66898 0.17989 0.82928
 H156 H 0.65462 0.16230 0.84587
 N157 N 1.13495 0.66306 0.80347
 N158 N 1.14677 0.64737 0.80158
 C159 C 1.14100 0.63690 0.78526
 C160 C 1.12469 0.64663 0.77651
 C161 C 1.12130 0.66315 0.78842
 H162 H 1.14815 0.62329 0.78016
 H163 H 1.10964 0.67432 0.78633
 Cu164 Cu 1.16852 0.64216 0.82062
 Cu165 Cu 1.13777 0.68190 0.82549
 Cu166 Cu 1.17668 0.67346 0.85947
 N167 N 1.19081 0.63810 0.83930
 N168 N 1.19384 0.65033 0.85449
 C169 C 1.21007 0.64409 0.86502
 C170 C 1.21761 0.62704 0.85590
 C171 C 1.20506 0.62369 0.83963
 H172 H 1.21589 0.65151 0.87825
 H173 H 1.20629 0.61161 0.82889
 N174 N 1.15767 0.69605 0.86183
 N175 N 1.14298 0.69928 0.84875
 C176 C 1.13252 0.71560 0.85437
 C177 C 1.14102 0.72301 0.87188
 C178 C 1.15692 0.71029 0.87618
 H179 H 1.11958 0.72149 0.84638
 H180 H 1.16708 0.71133 0.88892
 H181 H 1.16852 0.67718 0.82952
 H182 H 1.15106 0.66252 0.84600
 N183 N 1.14567 0.16234 0.29578
 N184 N 1.15219 0.14432 0.29982
 C185 C 1.14365 0.13150 0.28696
 C186 C 1.13104 0.14215 0.27415
 C187 C 1.13286 0.16169 0.28002
 H188 H 1.14627 0.11566 0.28716
 H189 H 1.12502 0.17441 0.27372
 Cu190 Cu 1.17085 0.13921 0.32175
 Cu191 Cu 1.15359 0.18477 0.31228
 Cu192 Cu 1.17230 0.17221 0.35974
 N193 N 1.19166 0.13786 0.34219
 N194 N 1.19218 0.15032 0.35754
 C195 C 1.20783 0.14524 0.36964
 C196 C 1.21760 0.12887 0.36109
 C197 C 1.20691 0.12468 0.34378
 H198 H 1.21186 0.15299 0.38339
 H199 H 1.21000 0.11282 0.33314
 N200 N 1.15893 0.19804 0.35391
 N201 N 1.15335 0.20315 0.33539
 C202 C 1.14430 0.22106 0.33600
 C203 C 1.14379 0.22750 0.35585
 C204 C 1.15332 0.21262 0.36692
 H205 H 1.13725 0.22823 0.32315
 H206 H 1.15536 0.21209 0.38321
 H207 H 1.17778 0.17397 0.32965
 H208 H 1.15152 0.16648 0.33650
 N209 N 0.64780 1.34567 0.68913
 N210 N 0.66331 1.35771 0.68862
 C211 C 0.66185 1.37053 0.70419
 C212 C 0.64442 1.36659 0.71499
 C213 C 0.63573 1.35070 0.70502
 H214 H 0.67262 1.38201 0.70744
 H215 H 0.62188 1.34324 0.70908
 Cu216 Cu 0.68386 1.35607 0.66745
 Cu217 Cu 0.64491 1.32461 0.66871
 Cu218 Cu 0.68991 1.31311 0.64335
 N219 N 0.70386 1.35303 0.64584
 N220 N 0.70643 1.33587 0.63670
 C221 C 0.72198 1.33709 0.62349
 C222 C 0.72942 1.35609 0.62423
 C223 C 0.71761 1.36586 0.63863
 H224 H 0.72760 1.32498 0.61419
 H225 H 0.71924 1.38092 0.64388
 N226 N 0.66661 1.29537 0.64403
 N227 N 0.64910 1.29983 0.65278
 C228 C 0.63595 1.28513 0.64886
 C229 C 0.64584 1.27093 0.63703
 C230 C 0.66515 1.27792 0.63439
 H231 H 0.62041 1.28488 0.65407
 H232 H 0.67712 1.27106 0.62547
 H233 H 0.67503 1.32109 0.67061
 H234 H 0.66614 1.33233 0.64633
 N235 N 0.63211 0.83958 1.18707
 N236 N 0.64670 0.85247 1.18934
 C237 C 0.64198 0.86465 1.20494
 C238 C 0.62335 0.85914 1.21279
 C239 C 0.61752 0.84325 1.20101
 H240 H 0.65134 0.87668 1.21002
 H241 H 0.60374 0.83488 1.20257
 Cu242 Cu 0.67014 0.85246 1.17107
 Cu243 Cu 0.63336 0.81895 1.16616
 Cu244 Cu 0.68268 0.80809 1.15194
 N245 N 0.69461 0.84875 1.15461
 N246 N 0.69957 0.83107 1.14768
 C247 C 0.71677 0.83219 1.13679
 C248 C 0.72284 0.85165 1.13650
 C249 C 0.70850 0.86187 1.14807
 H250 H 0.72394 0.81984 1.12899
 H251 H 0.70800 0.87759 1.15124
 N252 N 0.66034 0.78962 1.14797
 N253 N 0.64129 0.79409 1.15220
 C254 C 0.62947 0.77944 1.14527
 C255 C 0.64183 0.76518 1.13620
 C256 C 0.66123 0.77209 1.13832
 H257 H 0.61315 0.77941 1.14644
 H258 H 0.67492 0.76531 1.13231
 H259 H 0.66228 0.81726 1.17469
 H260 H 0.65852 0.82657 1.14827
 N261 N 1.13711 1.33209 1.19015
 N262 N 1.15022 1.34626 1.19311
 C263 C 1.14443 1.35693 1.20941
 C264 C 1.12677 1.34895 1.21707
 C265 C 1.12257 1.33318 1.20453
 H266 H 1.15236 1.36968 1.21501
 H267 H 1.10969 1.32347 1.20563
 Cu268 Cu 1.17297 1.35007 1.17486
 Cu269 Cu 1.13968 1.31373 1.16761
 Cu270 Cu 1.18014 1.32009 1.13440
 N271 N 1.19552 1.35346 1.15633
 N272 N 1.19807 1.34215 1.14022
 C273 C 1.21418 1.34859 1.12953
 C274 C 1.22202 1.36478 1.13962
 C275 C 1.20990 1.36736 1.15651
 H276 H 1.21960 1.34209 1.11546
 H277 H 1.21123 1.37887 1.16781
 N278 N 1.16016 1.29870 1.13142
 N279 N 1.14470 1.29660 1.14402
 C280 C 1.13373 1.28101 1.13817
 C281 C 1.14269 1.27281 1.12109
 C282 C 1.15947 1.28429 1.11725
 H283 H 1.12044 1.27575 1.14604
 H284 H 1.17033 1.28223 1.10504
 H285 H 1.17092 1.31569 1.16389
 H286 H 1.15511 1.33274 1.14806
 N287 N 1.12861 0.84728 0.68988
 N288 N 1.14565 0.85488 0.69620
 C289 C 1.14319 0.86137 0.71535
 C290 C 1.12349 0.85769 0.72131
 C291 C 1.11462 0.84875 0.70480
 H292 H 1.15493 0.86807 0.72424
 H293 H 1.09918 0.84370 0.70373
 Cu294 Cu 1.16954 0.85525 0.67900
 Cu295 Cu 1.12643 0.83620 0.66271
 Cu296 Cu 1.17244 0.82398 0.63970
 N297 N 1.19088 0.85743 0.65886
 N298 N 1.19239 0.84513 0.64340
 C299 C 1.20901 0.84975 0.63238
 C300 C 1.21822 0.86581 0.64159
 C301 C 1.20631 0.87018 0.65830
 H302 H 1.21402 0.84194 0.61887
 H303 H 1.20870 0.88187 0.66923
 N304 N 1.14670 0.81062 0.63307
 N305 N 1.12918 0.81643 0.64095
 C306 C 1.11450 0.80460 0.63419
 C307 C 1.12307 0.79042 0.62170
 C308 C 1.14357 0.79467 0.62115
 H309 H 1.09885 0.80545 0.63906
 H310 H 1.15536 0.78650 0.61321
 H311 H 1.15502 0.82458 0.66652
 H312 H 1.15300 0.84516 0.64765
 N313 N 0.35476 0.65506 0.69241
 N314 N 0.34077 0.64167 0.68933
 C315 C 0.34284 0.62705 0.70309
 C316 C 0.35878 0.63143 0.71561
 C317 C 0.36610 0.64937 0.70844
 H318 H 0.33326 0.61421 0.70422
 H319 H 0.37851 0.65774 0.71449
 Cu320 Cu 0.32044 0.64454 0.66824
 Cu321 Cu 0.35628 0.67921 0.67568
 Cu322 Cu 0.32306 0.68225 0.63549
 N323 N 0.30117 0.64739 0.64608
 N324 N 0.30225 0.66261 0.63370
 C325 C 0.28737 0.66167 0.62002
 C326 C 0.27646 0.64485 0.62375
 C327 C 0.28554 0.63597 0.64041
 H328 H 0.28479 0.67227 0.60796
 H329 H 0.28110 0.62240 0.64785
 N330 N 0.34488 0.70098 0.63934
 N331 N 0.35789 0.70028 0.65444
 C332 C 0.37053 0.71587 0.65249
 C333 C 0.36482 0.72663 0.63539
 C334 C 0.34867 0.71674 0.62761
 H335 H 0.38257 0.71936 0.66287
 H336 H 0.34012 0.72106 0.61437
 H337 H 0.32659 0.68019 0.66677
 H338 H 0.34490 0.66533 0.65109
 N339 N 0.35736 0.15326 1.19276
 N340 N 0.34304 0.13989 1.19169
 C341 C 0.34546 0.12657 1.20669
 C342 C 0.36217 0.13158 1.21784
 C343 C 0.36948 0.14865 1.20861
 H344 H 0.33564 0.11416 1.20957
 H345 H 0.38240 0.15720 1.21321
 Cu346 Cu 0.32205 0.14145 1.17130
 Cu347 Cu 0.35820 0.17601 1.17366
 Cu348 Cu 0.31789 0.17962 1.13991
 N349 N 0.29940 0.14336 1.15271
 N350 N 0.29776 0.15885 1.14071
 C351 C 0.28105 0.15716 1.12938
 C352 C 0.27173 0.13965 1.13444
 C353 C 0.28371 0.13120 1.14939
 H354 H 0.27614 0.16772 1.11803
 H355 H 0.28119 0.11735 1.15721
 N356 N 0.33959 0.19917 1.14100
 N357 N 0.35548 0.19776 1.15300
 C358 C 0.36798 0.21303 1.14868
 C359 C 0.35923 0.22443 1.13339
 C360 C 0.34137 0.21522 1.12909
 H361 H 0.38223 0.21569 1.15608
 H362 H 0.33065 0.21980 1.11765
 H363 H 0.32757 0.17700 1.16992
 H364 H 0.34265 0.16331 1.15039
 N365 N 0.85086 0.66212 1.19953
 N366 N 0.83341 0.65353 1.20301
 C367 C 0.83482 0.64189 1.21947
 C368 C 0.85423 0.64283 1.22668
 C369 C 0.86417 0.65588 1.21375
 H370 H 0.82275 0.63279 1.22535
 H371 H 0.87975 0.66050 1.21462
 Cu372 Cu 0.81065 0.65618 1.18494
 Cu373 Cu 0.85363 0.68096 1.17673
 Cu374 Cu 0.82275 0.66758 1.13688
 N375 N 0.79260 0.65049 1.16284
 N376 N 0.79772 0.65414 1.14389
 C377 C 0.78370 0.64647 1.13154
 C378 C 0.76907 0.63754 1.14353
 C379 C 0.77515 0.64048 1.16329
 H380 H 0.78450 0.64690 1.11513
 H381 H 0.76802 0.63478 1.17690
 N382 N 0.84452 0.68718 1.13401
 N383 N 0.85581 0.69308 1.14929
 C384 C 0.86682 0.70875 1.14310
 C385 C 0.86217 0.71275 1.12294
 C386 C 0.84816 0.69870 1.11774
 H387 H 0.87685 0.71701 1.15275
 H388 H 0.84020 0.69779 1.10348
 H389 H 0.82431 0.68267 1.16432
 H390 H 0.83962 0.65920 1.16223
 N391 N 0.85997 0.16013 0.68976
 N392 N 0.84560 0.14683 0.68897
 C393 C 0.84789 0.13336 0.70389
 C394 C 0.86556 0.13781 0.71620
 C395 C 0.87247 0.15597 0.70533
 H396 H 0.83784 0.12110 0.70658
 H397 H 0.88538 0.16478 0.70937
 Cu398 Cu 0.82434 0.14864 0.66879
 Cu399 Cu 0.86102 0.18261 0.67067
 Cu400 Cu 0.82151 0.18638 0.63625
 N401 N 0.80247 0.15050 0.64926
 N402 N 0.80126 0.16580 0.63696
 C403 C 0.78494 0.16398 0.62510
 C404 C 0.77546 0.14657 0.63011
 C405 C 0.78690 0.13832 0.64556
 H406 H 0.78047 0.17436 0.61339
 H407 H 0.78410 0.12457 0.65347
 N408 N 0.84340 0.20567 0.63759
 N409 N 0.85891 0.20417 0.65006
 C410 C 0.87174 0.21919 0.64604
 C411 C 0.86367 0.23052 0.63039
 C412 C 0.84581 0.22155 0.62556
 H413 H 0.88584 0.22163 0.65379
 H414 H 0.83555 0.22613 0.61369
 H415 H 0.83040 0.18409 0.66644
 H416 H 0.84549 0.16958 0.64748
 N417 N 1.35201 0.35548 0.69535
 N418 N 1.36388 0.33989 0.69291
 C419 C 1.37868 0.34040 0.70685
 C420 C 1.37594 0.35724 0.71847
 C421 C 1.35885 0.36646 0.71082
 H422 H 1.39063 0.32943 0.70844
 H423 H 1.35174 0.37999 0.71620
 Cu424 Cu 1.35898 0.32089 0.67142
 Cu425 Cu 1.32843 0.36032 0.67858
 Cu426 Cu 1.31858 0.32575 0.64102
 N427 N 1.35349 0.30176 0.65022
 N428 N 1.33747 0.30346 0.63862
 C429 C 1.33741 0.28836 0.62525
 C430 C 1.35444 0.27675 0.62850
 C431 C 1.36430 0.28567 0.64451
 H432 H 1.32608 0.28621 0.61372
 H433 H 1.37824 0.28088 0.65153
 N434 N 1.30145 0.34942 0.64591
 N435 N 1.30531 0.36261 0.66013
 C436 C 1.29146 0.37734 0.65918
 C437 C 1.27832 0.37330 0.64364
 C438 C 1.28502 0.35546 0.63552
 H439 H 1.29111 0.39030 0.66883
 H440 H 1.27870 0.34763 0.62280
 H441 H 1.32347 0.33090 0.67143
 H442 H 1.33894 0.34542 0.65296
 N443 N 1.35600 0.85699 1.19578
 N444 N 1.36822 0.84158 1.19386
 C445 C 1.38301 0.84293 1.20780
 C446 C 1.37991 0.86015 1.21890
 C447 C 1.36261 0.86870 1.21082
 H448 H 1.39516 0.83225 1.20975
 H449 H 1.35512 0.88224 1.21560
 Cu450 Cu 1.36350 0.82140 1.17317
 Cu451 Cu 1.33209 0.86071 1.17911
 Cu452 Cu 1.32333 0.82539 1.14224
 N453 N 1.35887 0.80223 1.15146
 N454 N 1.34282 0.80370 1.13986
 C455 C 1.34303 0.78877 1.12633
 C456 C 1.36021 0.77740 1.12938
 C457 C 1.36999 0.78633 1.14551
 H458 H 1.33171 0.78653 1.11481
 H459 H 1.38405 0.78168 1.15239
 N460 N 1.30529 0.84840 1.14681
 N461 N 1.30866 0.86192 1.16082
 C462 C 1.29391 0.87584 1.16000
 C463 C 1.28071 0.87089 1.14474
 C464 C 1.28835 0.85339 1.13668
 H465 H 1.29284 0.88874 1.16970
 H466 H 1.28214 0.84494 1.12432
 H467 H 1.32783 0.83115 1.17276
 H468 H 1.34340 0.84552 1.15421
 N469 N 0.83981 0.36164 1.19321
 N470 N 0.85131 0.34679 1.19926
 C471 C 0.86248 0.35264 1.21509
 C472 C 0.85773 0.37232 1.21913
 C473 C 0.84328 0.37752 1.20498
 H474 H 0.87334 0.34325 1.22278
 H475 H 0.83594 0.39184 1.20332
 Cu476 Cu 0.85152 0.32143 1.18546
 Cu477 Cu 0.82122 0.35916 1.17064
 Cu478 Cu 0.82696 0.31726 1.14104
 N479 N 0.85804 0.30050 1.16626
 N480 N 0.84869 0.29917 1.14878
 C481 C 0.85656 0.28386 1.13820
 C482 C 0.87165 0.27509 1.14972
 C483 C 0.87216 0.28601 1.16745
 H484 H 0.85162 0.27956 1.12325
 H485 H 0.88218 0.28371 1.18017
 N486 N 0.80592 0.33748 1.13602
 N487 N 0.80392 0.35361 1.14722
 C488 C 0.78837 0.36456 1.14017
 C489 C 0.78020 0.35481 1.12374
 C490 C 0.79160 0.33768 1.12158
 H491 H 0.78317 0.37839 1.14675
 H492 H 0.78954 0.32622 1.11033
 H493 H 0.81916 0.32841 1.16942
 H494 H 0.84115 0.34006 1.15584
 N495 N 0.84304 0.85282 0.69979
 N496 N 0.85318 0.83631 0.70335
 C497 C 0.86494 0.83869 0.71967
 C498 C 0.86224 0.85769 0.72678
 C499 C 0.84816 0.86638 0.71389
 H500 H 0.87515 0.82752 0.72566
 H501 H 0.84218 0.88134 0.71462
 Cu502 Cu 0.85186 0.81339 0.68593
 Cu503 Cu 0.82405 0.85491 0.67705
 Cu504 Cu 0.82777 0.81708 0.64169
 N505 N 0.85753 0.79518 0.66389
 N506 N 0.84833 0.79691 0.64637
 C507 C 0.85565 0.78305 0.63353
 C508 C 0.87029 0.77210 0.64362
 C509 C 0.87104 0.78014 0.66287
 H510 H 0.85074 0.78128 0.61803
 H511 H 0.88097 0.77565 0.67507
 N512 N 0.80789 0.83868 0.63961
 N513 N 0.80639 0.85338 0.65280
 C514 C 0.79086 0.86536 0.64725
 C515 C 0.78229 0.85758 0.62986
 C516 C 0.79342 0.84076 0.62554
 H517 H 0.78580 0.87834 0.65557
 H518 H 0.79084 0.83057 0.61318
 H519 H 0.82015 0.82533 0.67189
 H520 H 0.84291 0.83738 0.66024
 N521 N 0.67009 0.64694 0.70936
 N522 N 0.65316 0.65719 0.70807
 C523 C 0.64123 0.65274 0.72411
 C524 C 0.65146 0.63903 0.73596
 C525 C 0.66970 0.63581 0.72626
 H526 H 0.62621 0.65876 0.72682
 H527 H 0.68139 0.62539 0.73063
 Cu528 Cu 0.64823 0.67478 0.68517
 Cu529 Cu 0.69071 0.64758 0.68844
 Cu530 Cu 0.67955 0.67371 0.64449
 N531 N 0.64392 0.69213 0.66200
 N532 N 0.65606 0.69169 0.64606
 C533 C 0.64999 0.70532 0.63237
 C534 C 0.63174 0.71616 0.64010
 C535 C 0.62929 0.70595 0.65959
 H536 H 0.65761 0.70809 0.61809
 H537 H 0.61757 0.70928 0.67069
 N538 N 0.70264 0.65482 0.64656
 N539 N 0.70698 0.64551 0.66364
 C540 C 0.72329 0.63383 0.66074
 C541 C 0.72961 0.63572 0.64092
 C542 C 0.71623 0.64915 0.63219
 H543 H 0.72980 0.62410 0.67205
 H544 H 0.71644 0.65443 0.61668
 H545 H 0.68372 0.67514 0.67490
 H546 H 0.66992 0.65306 0.66537
 N547 N 0.63886 1.14206 1.19441
 N548 N 0.62403 1.15442 1.19014
 C549 C 0.61052 1.15458 1.20550
 C550 C 0.61723 1.14149 1.22015
 C551 C 0.63529 1.13370 1.21261
 H552 H 0.59687 1.16358 1.20598
 H553 H 0.64515 1.12285 1.21964
 Cu554 Cu 0.62410 1.16935 1.16522
 Cu555 Cu 0.66119 1.13755 1.17560
 Cu556 Cu 0.66791 1.17465 1.13941
 N557 N 0.62820 1.19109 1.14687
 N558 N 0.64542 1.19397 1.13724
 C559 C 0.64427 1.21159 1.12746
 C560 C 0.62531 1.21990 1.13147
 C561 C 0.61564 1.20647 1.14370
 H562 H 0.65643 1.21807 1.11873
 H563 H 0.60083 1.20822 1.15061
 N564 N 0.68822 1.15314 1.14445
 N565 N 0.68553 1.13950 1.15861
 C566 C 0.70151 1.12706 1.15876
 C567 C 0.71484 1.13275 1.14381
 C568 C 0.70605 1.14938 1.13491
 H569 H 0.70316 1.11441 1.16872
 H570 H 0.71209 1.15798 1.12245
 H571 H 0.66050 1.16733 1.16891
 H572 H 0.65145 1.15075 1.14833
 N573 N 0.16506 0.66111 1.20347
 N574 N 0.14644 0.66610 1.19856
 C575 C 0.13358 0.65862 1.21251
 C576 C 0.14495 0.64849 1.22693
 C577 C 0.16480 0.65077 1.22092
 H578 H 0.11729 0.65983 1.21169
 H579 H 0.17799 0.64398 1.22779
 Cu580 Cu 0.14100 0.68055 1.17347
 Cu581 Cu 0.18774 0.66462 1.18484
 Cu582 Cu 0.17279 0.67018 1.13508
 N583 N 0.13987 0.69541 1.14803
 N584 N 0.15210 0.69083 1.13285
 C585 C 0.14857 0.70317 1.11721
 C586 C 0.13345 0.71635 1.12289
 C587 C 0.12815 0.71099 1.14261
 H588 H 0.15686 0.70295 1.10296
 H589 H 0.11698 0.71797 1.15240
 N590 N 0.19896 0.65856 1.14265
 N591 N 0.20539 0.65807 1.16157
 C592 C 0.22371 0.64921 1.16199
 C593 C 0.22881 0.64356 1.14246
 C594 C 0.21286 0.64987 1.13050
 H595 H 0.23198 0.64574 1.17568
 H596 H 0.21118 0.64794 1.11430
 H597 H 0.17626 0.68322 1.16224
 H598 H 0.16746 0.65707 1.16357
 N599 N 0.15251 1.15043 0.70161
 N600 N 0.14335 1.16744 0.70542
 C601 C 0.13099 1.16549 0.72154
 C602 C 0.13228 1.14622 0.72833
 C603 C 0.14617 1.13694 0.71539
 H604 H 0.12128 1.17714 0.72755
 H605 H 0.15113 1.12162 0.71576
 Cu606 Cu 0.14650 1.19032 0.68819
 Cu607 Cu 0.17187 1.14767 0.67888
 Cu608 Cu 0.17453 1.18803 0.64607
 N609 N 0.14211 1.20869 0.66610
 N610 N 0.15276 1.20751 0.64921
 C611 C 0.14650 1.22179 0.63634
 C612 C 0.13099 1.23242 0.64581
 C613 C 0.12865 1.22370 0.66465
 H614 H 0.15294 1.22428 0.62142
 H615 H 0.11790 1.22791 0.67640
 N616 N 0.19139 1.16405 0.64272
 N617 N 0.19055 1.14857 0.65501
 C618 C 0.20474 1.13517 0.64900
 C619 C 0.21483 1.14271 0.63217
 C620 C 0.20593 1.16093 0.62865
 H621 H 0.20788 1.12130 0.65665
 H622 H 0.21015 1.17137 0.61694
 H623 H 0.17880 1.17693 0.67554
 H624 H 0.15663 1.16797 0.66100
 N625 N 1.35334 0.64977 0.30724
 N626 N 1.36716 0.66352 0.30906
 C627 C 1.38009 0.66234 0.29322
 C628 C 1.37417 0.64701 0.28083
 C629 C 1.35706 0.63934 0.29013
 H630 H 1.39308 0.67172 0.29099
 H631 H 1.34809 0.62702 0.28506
 Cu632 Cu 1.36727 0.68137 0.33220
 Cu633 Cu 1.33180 0.64662 0.32754
 Cu634 Cu 1.34375 0.66671 0.37446
 N635 N 1.36538 0.69852 0.35590
 N636 N 1.35678 0.69230 0.37276
 C637 C 1.35850 0.70625 0.38721
 C638 C 1.36848 0.72221 0.37888
 C639 C 1.37262 0.71685 0.35890
 H640 H 1.35278 0.70490 0.40259
 H641 H 1.38057 0.72535 0.34750
 N642 N 1.32278 0.64673 0.37082
 N643 N 1.31730 0.63984 0.35295
 C644 C 1.30083 0.62846 0.35551
 C645 C 1.29583 0.62836 0.37601
 C646 C 1.31011 0.63994 0.38520
 H647 H 1.29288 0.62124 0.34334
 H648 H 1.31054 0.64403 0.40107
 H649 H 1.33438 0.67196 0.34564
 H650 H 1.35345 0.65153 0.34811
 N651 N 1.34893 1.14753 0.80553
 N652 N 1.36118 1.16257 0.80765
 C653 C 1.37568 1.16150 0.79317
 C654 C 1.37230 1.14489 0.78146
 C655 C 1.35517 1.13640 0.78973
 H656 H 1.38792 1.17186 0.79136
 H657 H 1.34777 1.12308 0.78478
 Cu658 Cu 1.35715 1.18176 0.82939
 Cu659 Cu 1.32612 1.14298 0.82355
 Cu660 Cu 1.31922 1.17559 0.86343
 N661 N 1.35342 1.19934 0.85254
 N662 N 1.33852 1.19697 0.86563
 C663 C 1.33953 1.21107 0.88002
 C664 C 1.35596 1.22283 0.87580
 C665 C 1.36448 1.21500 0.85823
 H666 H 1.32920 1.21261 0.89275
 H667 H 1.37769 1.22022 0.85020
 N668 N 1.30126 1.15301 0.85864
 N669 N 1.30385 1.14065 0.84329
 C670 C 1.28970 1.12648 0.84384
 C671 C 1.27614 1.12941 0.86145
 C672 C 1.28529 1.14748 0.87003
 H673 H 1.28867 1.11448 0.83305
 H674 H 1.28011 1.15506 0.88359
 H675 H 1.32180 1.17215 0.83243
 H676 H 1.33896 1.15658 0.84849
 N677 N 0.84980 0.64584 0.80486
 N678 N 0.86304 0.65996 0.80781
 C679 C 0.87754 0.65880 0.79340
 C680 C 0.87338 0.64319 0.78068
 C681 C 0.85562 0.63518 0.78837
 H682 H 0.89014 0.66879 0.79197
 H683 H 0.84736 0.62283 0.78227
 Cu684 Cu 0.86025 0.67935 0.82952
 Cu685 Cu 0.82556 0.64332 0.82221
 Cu686 Cu 0.81848 0.67994 0.85855
 N687 N 0.85574 0.69951 0.85029
 N688 N 0.83907 0.69980 0.86126
 C689 C 0.83955 0.71504 0.87436
 C690 C 0.85746 0.72488 0.87151
 C691 C 0.86746 0.71470 0.85608
 H692 H 0.82786 0.71862 0.88538
 H693 H 0.88211 0.71802 0.84961
 N694 N 0.79909 0.65881 0.85417
 N695 N 0.80197 0.64401 0.84131
 C696 C 0.78636 0.63130 0.84338
 C697 C 0.77316 0.63886 0.85805
 C698 C 0.78166 0.65621 0.86435
 H699 H 0.78456 0.61784 0.83472
 H700 H 0.77565 0.66601 0.87595
 H701 H 0.82409 0.67304 0.82790
 H702 H 0.83709 0.65712 0.84715
 N703 N 0.84673 1.14595 0.31337
 N704 N 0.86040 1.15992 0.31456
 C705 C 0.87512 1.15628 0.30078
 C706 C 0.87051 1.13921 0.29037
 C707 C 0.85237 1.13295 0.29876
 H708 H 0.88809 1.16557 0.29813
 H709 H 0.84366 1.12023 0.29427
 Cu710 Cu 0.85734 1.18211 0.33322
 Cu711 Cu 0.82203 1.14648 0.33004
 Cu712 Cu 0.81504 1.18760 0.36104
 N713 N 0.85382 1.20416 0.35204
 N714 N 0.83670 1.20660 0.36205
 C715 C 0.83796 1.22259 0.37409
 C716 C 0.85688 1.23056 0.37169
 C717 C 0.86665 1.21856 0.35752
 H718 H 0.82628 1.22764 0.38453
 H719 H 0.88196 1.21999 0.35190
 N720 N 0.79495 1.16671 0.35849
 N721 N 0.79800 1.15030 0.34793
 C722 C 0.78249 1.13790 0.35163
 C723 C 0.76918 1.14720 0.36504
 C724 C 0.77747 1.16536 0.36888
 H725 H 0.78110 1.12321 0.34528
 H726 H 0.77158 1.17638 0.37934
 H727 H 0.82100 1.17674 0.33190
 H728 H 0.83323 1.16326 0.35345
 N729 N 0.64726 0.35874 0.30879
 N730 N 0.63117 0.34905 0.31478
 C731 C 0.61631 0.35146 0.30121
 C732 C 0.62334 0.36340 0.28579
 C733 C 0.64311 0.36788 0.29103
 H734 H 0.60155 0.34478 0.30234
 H735 H 0.65364 0.37702 0.28271
 Cu736 Cu 0.63143 0.33319 0.33897
 Cu737 Cu 0.67183 0.35884 0.32526
 Cu738 Cu 0.67233 0.32781 0.36793
 N739 N 0.63487 0.31037 0.35608
 N740 N 0.65060 0.30774 0.36792
 C741 C 0.64810 0.29055 0.37832
 C742 C 0.62994 0.28216 0.37211
 C743 C 0.62222 0.29514 0.35801
 H744 H 0.65862 0.28464 0.38934
 H745 H 0.60819 0.29370 0.34982
 N746 N 0.69507 0.34604 0.36081
 N747 N 0.69491 0.35706 0.34416
 C748 C 0.71165 0.36818 0.34362
 C749 C 0.72291 0.36435 0.36072
 C750 C 0.71202 0.35015 0.37138
 H751 H 0.71508 0.37905 0.33206
 H752 H 0.71591 0.34365 0.38587
 H753 H 0.66800 0.33069 0.33762
 H754 H 0.65934 0.35208 0.35333
 N755 N 0.64440 0.86184 0.81772
 N756 N 0.62828 0.85143 0.82215
 C757 C 0.61355 0.85563 0.80891
 C758 C 0.62070 0.86933 0.79526
 C759 C 0.64039 0.87311 0.80123
 H760 H 0.59895 0.84856 0.80866
 H761 H 0.65105 0.88295 0.79400
 Cu762 Cu 0.62833 0.83140 0.84291
 Cu763 Cu 0.66907 0.85923 0.83397
 Cu764 Cu 0.67156 0.81761 0.86511
 N765 N 0.63115 0.80583 0.85551
 N766 N 0.64814 0.79997 0.86396
 C767 C 0.64576 0.78133 0.87099
 C768 C 0.62624 0.77543 0.86650
 C769 C 0.61750 0.79132 0.85671
 H770 H 0.65729 0.77282 0.87876
 H771 H 0.60233 0.79219 0.85071
 N772 N 0.69325 0.83767 0.86379
 N773 N 0.69227 0.85354 0.85203
 C774 C 0.70846 0.86496 0.85560
 C775 C 0.72018 0.85582 0.87032
 C776 C 0.71015 0.83855 0.87505
 H777 H 0.71123 0.87906 0.84838
 H778 H 0.71453 0.82778 0.88641
 H779 H 0.66443 0.82914 0.83704
 H780 H 0.65768 0.84489 0.85958
 N781 N 0.14906 0.35906 0.80981
 N782 N 0.13325 0.34754 0.81177
 C783 C 0.12028 0.35116 0.79659
 C784 C 0.12813 0.36582 0.78439
 C785 C 0.14651 0.37059 0.79317
 H786 H 0.10602 0.34374 0.79456
 H787 H 0.15712 0.38159 0.78795
 Cu788 Cu 0.13045 0.32898 0.83402
 Cu789 Cu 0.17145 0.35778 0.82941
 Cu790 Cu 0.16932 0.31931 0.86463
 N791 N 0.13081 0.30558 0.85108
 N792 N 0.14613 0.30168 0.86308
 C793 C 0.14232 0.28492 0.87354
 C794 C 0.12353 0.27805 0.86770
 C795 C 0.11673 0.29150 0.85341
 H796 H 0.15234 0.27851 0.88473
 H797 H 0.10249 0.29116 0.84544
 N798 N 0.19142 0.33871 0.86387
 N799 N 0.19234 0.35349 0.85071
 C800 C 0.20881 0.36443 0.85487
 C801 C 0.21859 0.35606 0.87145
 C802 C 0.20715 0.33986 0.87665
 H803 H 0.21318 0.37761 0.84668
 H804 H 0.20998 0.32984 0.88916
 H805 H 0.16716 0.32803 0.83436
 H806 H 0.15638 0.34547 0.85372
 N807 N 0.16312 0.85190 0.29779
 N808 N 0.14686 0.84155 0.30185
 C809 C 0.13402 0.84318 0.28606
 C810 C 0.14299 0.85510 0.27144
 C811 C 0.16139 0.86019 0.27934
 H812 H 0.11927 0.83647 0.28541
 H813 H 0.17227 0.87007 0.27251
 Cu814 Cu 0.14416 0.82739 0.32763
 Cu815 Cu 0.18388 0.85664 0.31766
 Cu816 Cu 0.18230 0.82932 0.36184
 N817 N 0.14632 0.80862 0.35011
 N818 N 0.16113 0.80943 0.36332
 C819 C 0.15924 0.79442 0.37667
 C820 C 0.14239 0.78359 0.37161
 C821 C 0.13449 0.79305 0.35465
 H822 H 0.16956 0.79139 0.38898
 H823 H 0.12144 0.78877 0.34597
 N824 N 0.20261 0.85008 0.35677
 N825 N 0.20351 0.85985 0.33943
 C826 C 0.21874 0.87284 0.34012
 C827 C 0.22786 0.87132 0.35876
 C828 C 0.21733 0.85671 0.36905
 H829 H 0.22267 0.88311 0.32815
 H830 H 0.22006 0.85138 0.38429
 H831 H 0.18061 0.82862 0.33088
 H832 H 0.16754 0.84988 0.34410
 O833 O 1.06763 1.00925 1.10592
 O834 O 1.09044 1.00720 1.13011
 C835 C 1.07437 1.01491 1.12296
 C836 C 1.06383 1.03109 1.13420
 C837 C 1.07134 1.03774 1.15287
 H838 H 1.08443 1.03049 1.15950
 O839 O 0.92027 0.97722 1.10109
 O840 O 0.89644 0.97628 1.12469
 C841 C 0.91296 0.96963 1.11715
 C842 C 0.92379 0.95277 1.12681
 C843 C 0.91793 0.94565 1.14606
 H844 H 0.90555 0.95277 1.15420
 O845 O 1.01586 1.09154 1.08269
 O846 O 1.01605 1.11373 1.10728
 C847 C 1.02297 1.10718 1.09048
 C848 C 1.03967 1.11760 1.08002
 C849 C 1.04640 1.13602 1.08710
 H850 H 1.03908 1.14288 1.10014
 O851 O 0.97219 0.89644 1.06912
 O852 O 0.97139 0.87259 1.09202
 C853 C 0.96462 0.88048 1.07591
 C854 C 0.94722 0.87132 1.06564
 C855 C 0.93831 0.85441 1.07399
 H856 H 0.94490 0.84756 1.08733
 O857 O 1.09757 1.06550 1.02847
 O858 O 1.12155 1.08786 1.03028
 C859 C 1.11390 1.07168 1.03622
 C860 C 1.12378 1.06020 1.05268
 C861 C 1.14211 1.06655 1.06104
 H862 H 1.14954 1.07933 1.05462
 O863 O 0.89233 0.92912 1.01790
 O864 O 0.86805 0.90710 1.01606
 C865 C 0.87547 0.92252 1.02411
 C866 C 0.86488 0.93262 1.04127
 C867 C 0.84605 0.92593 1.04850
 H868 H 0.83872 0.91373 1.04098
 O869 O 0.97511 1.06496 1.10896
 O870 O 0.97525 1.08692 1.13374
 C871 C 0.96794 1.07152 1.12566
 C872 C 0.95049 1.06142 1.13527
 C873 C 0.94246 1.06791 1.15403
 H874 H 0.94993 1.07975 1.16191
 O875 O 1.01249 0.92066 1.09828
 O876 O 1.01132 0.89650 1.12085
 C877 C 1.01882 0.91262 1.11457
 C878 C 1.03539 0.92171 1.12615
 C879 C 1.04168 0.91329 1.14459
 H880 H 1.03387 0.90057 1.15076
 O881 O 1.09587 0.97159 1.07642
 O882 O 1.11882 0.96959 1.10049
 C883 C 1.11206 0.96400 1.08343
 C884 C 1.12273 0.94812 1.07186
 C885 C 1.14137 0.94036 1.07852
 H886 H 1.14842 0.94691 1.09162
 O887 O 0.89370 1.01812 1.07577
 O888 O 0.86951 1.01773 1.09901
 C889 C 0.87730 1.02518 1.08304
 C890 C 0.86774 1.04250 1.07287
 C891 C 0.84903 1.05046 1.07956
 H892 H 0.84103 1.04344 1.09198
 O893 O 0.92660 1.09764 1.02624
 O894 O 0.90368 1.12164 1.02686
 C895 C 0.91970 1.11367 1.03379
 C896 C 0.93011 1.12290 1.05112
 C897 C 0.92422 1.14175 1.05799
 H898 H 0.91241 1.14987 1.05011
 O899 O 1.06860 0.89631 1.01795
 O900 O 1.09134 0.87216 1.01713
 C901 C 1.07494 0.87952 1.02414
 C902 C 1.06321 0.86880 1.03993
 C903 C 1.06944 0.84995 1.04685
 H904 H 1.08259 0.84282 1.04006
 O905 O 0.92033 1.01572 1.10427
 O906 O 0.89628 1.01492 1.12765
 C907 C 0.91296 1.02167 1.12114
 C908 C 0.92362 1.03700 1.13297
 C909 C 0.91584 1.04363 1.15173
 H910 H 0.90230 1.03695 1.15793
 O911 O 1.06720 0.97064 1.10338
 O912 O 1.09000 0.96845 1.12757
 C913 C 1.07373 0.96257 1.11952
 C914 C 1.06247 0.94587 1.12857
 C915 C 1.06882 0.93699 1.14682
 H916 H 1.08168 0.94288 1.15480
 O917 O 1.01200 0.89549 1.06844
 O918 O 1.01089 0.87147 1.09115
 C919 C 1.01836 0.87888 1.07504
 C920 C 1.03516 0.86843 1.06438
 C921 C 1.04138 0.84952 1.07079
 H922 H 1.03319 0.84214 1.08290
 O923 O 0.97662 1.09290 1.08209
 O924 O 0.97671 1.11509 1.10668
 C925 C 0.97010 1.10906 1.08972
 C926 C 0.95447 1.12064 1.07877
 C927 C 0.94820 1.13951 1.08561
 H928 H 0.95534 1.14592 1.09875
 O929 O 0.89797 1.07184 1.02443
 O930 O 0.87505 1.09585 1.02494
 C931 C 0.88149 1.07917 1.03128
 C932 C 0.86989 1.06859 1.04716
 C933 C 0.85108 1.07602 1.05371
 H934 H 0.84469 1.08908 1.04647
 O935 O 1.09649 0.92287 1.01982
 O936 O 1.11943 0.89890 1.01888
 C937 C 1.11255 0.91491 1.02661
 C938 C 1.12295 0.92412 1.04404
 C939 C 1.14153 0.91655 1.05093
 H940 H 1.14867 0.90421 1.04302
 O941 O 0.97313 0.92338 1.09720
 O942 O 0.97233 0.89947 1.12006
 C943 C 0.96608 0.91619 1.11358
 C944 C 0.95016 0.92706 1.12507
 C945 C 0.94442 0.92054 1.14446
 H946 H 0.95219 0.90800 1.15129
 O947 O 1.01463 1.06280 1.10868
 O948 O 1.01499 1.08481 1.13341
 C949 C 1.02162 1.06881 1.12545
 C950 C 1.03811 1.05745 1.13538
 C951 C 1.04587 1.06383 1.15402
 H952 H 1.03880 1.07631 1.16167
 O953 O 0.89269 0.97952 1.07342
 O954 O 0.86863 0.97893 1.09679
 C955 C 0.87594 0.97289 1.07997
 C956 C 0.86515 0.95753 1.06831
 C957 C 0.84618 0.95093 1.07497
 H958 H 0.83900 0.95774 1.08813
 O959 O 1.09592 1.01018 1.07864
 O960 O 1.11886 1.00826 1.10272
 C961 C 1.11217 1.01619 1.08655
 C962 C 1.12300 1.03300 1.07718
 C963 C 1.14131 1.03954 1.08531
 H964 H 1.14796 1.03179 1.09809
 O965 O 0.91841 0.90014 1.01738
 O966 O 0.89428 0.87796 1.01570
 C967 C 0.91061 0.88401 1.02346
 C968 C 0.92051 0.87277 1.04018
 C969 C 0.91174 0.85565 1.04882
 H970 H 0.89770 0.85007 1.04286
 O971 O 1.06960 1.09275 1.02879
 O972 O 1.09356 1.11515 1.03052
 C973 C 1.07675 1.10830 1.03666
 C974 C 1.06574 1.11821 1.05353
 C975 C 1.07209 1.13667 1.06066
 H976 H 1.08423 1.14409 1.05276
 Cu977 Cu 1.07937 0.99058 1.08869
 Cu978 Cu 1.10681 0.98817 1.11767
 Cu979 Cu 0.90912 0.99773 1.08631
 Cu980 Cu 0.88028 0.99683 1.11435
 Cu981 Cu 0.99550 1.07581 1.09319
 Cu982 Cu 0.99579 1.10229 1.12284
 Cu983 Cu 0.99258 0.91135 1.08090
 Cu984 Cu 0.99135 0.88256 1.10821
 C985 C 1.04709 1.04097 1.12565
 H986 H 1.04142 1.03619 1.11108
 C987 C 1.06269 1.05426 1.16268
 C988 C 0.93997 0.94335 1.11646
 H989 H 0.94431 0.94838 1.10143
 C990 C 0.92827 0.92953 1.15491
 C991 C 1.04942 1.10885 1.06318
 H992 H 1.04460 1.09449 1.05784
 C993 C 1.06270 1.14557 1.07764
 C994 C 0.93839 0.88024 1.04862
 H995 H 0.94510 0.89351 1.04237
 C996 C 0.92064 0.84646 1.06588
 C997 C 1.11442 1.04335 1.06078
 H998 H 1.10014 1.03857 1.05464
 C999 C 1.15083 1.05642 1.07756
 C1000 C 0.87425 0.94847 1.05128
 H1001 H 0.88897 0.95341 1.04618
 C1002 C 0.83668 0.93504 1.06542
 C1003 C 0.94103 1.04588 1.12499
 H1004 H 0.94692 1.04102 1.11039
 C1005 C 0.92497 1.05916 1.16234
 C1006 C 1.04572 0.93811 1.11837
 H1007 H 1.04101 0.94454 1.10406
 C1008 C 1.05850 0.92060 1.15483
 C1009 C 1.11376 0.94000 1.05453
 H1010 H 1.09927 0.94572 1.04949
 C1011 C 1.15081 0.92442 1.06822
 C1012 C 0.87797 1.05170 1.05664
 H1013 H 0.89257 1.04602 1.05166
 C1014 C 0.84065 1.06730 1.06995
 C1015 C 0.94537 1.11253 1.06147
 H1016 H 0.94985 1.09788 1.05631
 C1017 C 0.93303 1.15013 1.07522
 C1018 C 1.04600 0.87784 1.04877
 H1019 H 1.04135 0.89253 1.04390
 C1020 C 1.05858 0.84029 1.06237
 O1021 O 1.07139 0.98131 0.90228
 O1022 O 1.09558 0.98173 0.87902
 C1023 C 1.07884 0.97510 0.88561
 C1024 C 1.06835 0.95947 0.87418
 C1025 C 1.07673 0.95199 0.85608
 H1026 H 1.09041 0.95836 0.84984
 O1027 O 0.92649 1.02521 0.90065
 O1028 O 0.90337 1.02748 0.87678
 C1029 C 0.91980 1.03332 0.88454
 C1030 C 0.93114 1.04992 0.87510
 C1031 C 0.92525 1.05813 0.85629
 H1032 H 0.91264 1.05185 0.84826
 O1033 O 0.98158 1.10187 0.93327
 O1034 O 0.98253 1.12615 0.91086
 C1035 C 0.97508 1.11852 0.92689
 C1036 C 0.95831 1.12863 0.93804
 C1037 C 0.95100 1.14742 0.93198
 H1038 H 0.95825 1.15503 0.91946
 O1039 O 1.01520 0.90350 0.92471
 O1040 O 1.01525 0.88112 0.90030
 C1041 C 1.02192 0.88737 0.91714
 C1042 C 1.03806 0.87606 0.92769
 C1043 C 1.04452 0.85755 0.92020
 H1044 H 1.03717 0.85118 0.90711
 O1045 O 1.09811 0.92407 0.98016
 O1046 O 1.12101 0.90008 0.97902
 C1047 C 1.11444 0.91679 0.97288
 C1048 C 1.12542 0.92782 0.95675
 C1049 C 1.14425 0.92109 0.94907
 H1050 H 1.15120 0.90803 0.95563
 O1051 O 0.89928 1.07349 0.98485
 O1052 O 0.87624 1.09738 0.98554
 C1053 C 0.88313 1.08130 0.97806
 C1054 C 0.87250 1.07178 0.96102
 C1055 C 0.85373 1.07919 0.95445
 H1056 H 0.84669 1.09165 0.96225
 O1057 O 1.02079 1.07461 0.90462
 O1058 O 1.02204 1.09860 0.88191
 C1059 C 1.02828 1.08192 0.88847
 C1060 C 1.04472 1.07096 0.87767
 C1061 C 1.05223 1.07746 0.85872
 H1062 H 1.04538 1.09028 0.85157
 O1063 O 0.97716 0.93257 0.89663
 O1064 O 0.97726 0.91031 0.87212
 C1065 C 0.97052 0.92639 0.87972
 C1066 C 0.95437 0.93781 0.86926
 C1067 C 0.94657 0.93152 0.85051
 H1068 H 0.95313 0.91866 0.84306
 O1069 O 1.09911 1.01757 0.93240
 O1070 O 1.12321 1.01842 0.90906
 C1071 C 1.11576 1.02437 0.92587
 C1072 C 1.12623 1.03971 0.93776
 C1073 C 1.14513 1.04688 0.93143
 H1074 H 1.15252 1.04048 0.91822
 O1075 O 0.89797 0.98523 0.92584
 O1076 O 0.87476 0.98747 0.90206
 C1077 C 0.88154 0.97934 0.91811
 C1078 C 0.87046 0.96254 0.92754
 C1079 C 0.85240 0.95578 0.91893
 H1080 H 0.84624 0.96322 0.90571
 O1081 O 1.07193 1.09531 0.98912
 O1082 O 1.09607 1.11749 0.99097
 C1083 C 1.07984 1.11138 0.98306
 C1084 C 1.07054 1.12273 0.96616
 C1085 C 1.07962 1.14010 0.95890
 H1086 H 1.09297 1.14568 0.96630
 O1087 O 0.92118 0.90313 0.97797
 O1088 O 0.89732 0.88067 0.97598
 C1089 C 0.91417 0.88758 0.96995
 C1090 C 0.92553 0.87786 0.95310
 C1091 C 0.91966 0.85928 0.94565
 H1092 H 0.90726 0.85172 0.95295
 O1093 O 0.92616 0.98654 0.89832
 O1094 O 0.90302 0.98876 0.87446
 C1095 C 0.91917 0.98103 0.88135
 C1096 C 0.92948 0.96487 0.87000
 C1097 C 0.92210 0.95859 0.85119
 H1098 H 0.90938 0.96632 0.84439
 O1099 O 1.07225 1.01989 0.90396
 O1100 O 1.09629 1.02023 0.88054
 C1101 C 1.07980 1.02709 0.88777
 C1102 C 1.06963 1.04391 0.87742
 C1103 C 1.07669 1.05042 0.85846
 H1104 H 1.08915 1.04260 0.85109
 O1105 O 0.97578 0.90539 0.92456
 O1106 O 0.97595 0.88301 0.90016
 C1107 C 0.96887 0.88965 0.91687
 C1108 C 0.95226 0.87904 0.92725
 C1109 C 0.94625 0.86048 0.92013
 H1110 H 0.95412 0.85378 0.90731
 O1111 O 1.02106 1.10012 0.93398
 O1112 O 1.02229 1.12428 0.91145
 C1113 C 1.02870 1.11619 0.92766
 C1114 C 1.04563 1.12514 0.93899
 C1115 C 1.05501 1.14248 0.93188
 H1116 H 1.04944 1.14948 0.91822
 O1117 O 0.89382 0.93072 0.97808
 O1118 O 0.86970 0.90855 0.97597
 C1119 C 0.87768 0.92461 0.96994
 C1120 C 0.86852 0.93591 0.95284
 C1121 C 0.85048 0.92946 0.94393
 H1122 H 0.84272 0.91693 0.95047
 O1123 O 1.09820 1.06657 0.98885
 O1124 O 1.12236 1.08875 0.99072
 C1125 C 1.11506 1.07325 0.98278
 C1126 C 1.12595 1.06334 0.96585
 C1127 C 1.14492 1.07012 0.95949
 H1128 H 1.15205 1.08212 0.96759
 O1129 O 1.01665 0.93171 0.89826
 O1130 O 1.01691 0.90938 0.87381
 C1131 C 1.02411 0.92487 0.88183
 C1132 C 1.04177 0.93467 0.87244
 C1133 C 1.05069 0.92706 0.85458
 H1134 H 1.04401 0.91450 0.84705
 O1135 O 0.98135 1.07555 0.90474
 O1136 O 0.98248 1.09963 0.88211
 C1137 C 0.97498 1.08348 0.88847
 C1138 C 0.95836 1.07413 0.87707
 C1139 C 0.95248 1.08182 0.85821
 H1140 H 0.96060 1.09420 0.85171
 O1141 O 0.89875 1.02387 0.92865
 O1142 O 0.87548 1.02613 0.90492
 C1143 C 0.88253 1.03155 0.92191
 C1144 C 0.87214 1.04738 0.93366
 C1145 C 0.85334 1.05492 0.92735
 H1146 H 0.84595 1.04812 0.91458
 O1147 O 1.09893 0.97895 0.92995
 O1148 O 1.12313 0.97986 0.90672
 C1149 C 1.11552 0.97227 0.92265
 C1150 C 1.12582 0.95517 0.93239
 C1151 C 1.14462 0.94837 0.92505
 H1152 H 1.15191 0.95618 0.91265
 O1153 O 1.06861 0.89928 0.97852
 O1154 O 1.09128 0.87506 0.97749
 C1155 C 1.07518 0.88319 0.97083
 C1156 C 1.06423 0.87410 0.95370
 C1157 C 1.07052 0.85566 0.94588
 H1158 H 1.08283 0.84771 0.95308
 O1159 O 0.92759 1.09981 0.98657
 O1160 O 0.90453 1.12368 0.98739
 C1161 C 0.92100 1.11651 0.98040
 C1162 C 0.93217 1.12755 0.96451
 C1163 C 0.92542 1.14643 0.95854
 H1164 H 0.91255 1.15325 0.96622
 Cu1165 Cu 1.08302 0.99939 0.91952
 Cu1166 Cu 1.11197 1.00015 0.89149
 Cu1167 Cu 0.91467 1.00502 0.91572
 Cu1168 Cu 0.88682 1.00769 0.88719
 Cu1169 Cu 1.08189 1.07782 1.00865
 Cu1170 Cu 1.11077 1.10456 1.01082
 Cu1171 Cu 1.08074 0.91305 0.99923
 Cu1172 Cu 1.10806 0.88414 0.99802
 Cu1173 Cu 0.91519 1.08329 1.00543
 Cu1174 Cu 0.88759 1.11206 1.00623
 Cu1175 Cu 0.90879 0.91798 0.99811
 Cu1176 Cu 0.87987 0.89141 0.99568
 Cu1177 Cu 1.00112 1.08567 0.92142
 Cu1178 Cu 1.00243 1.11461 0.89434
 Cu1179 Cu 0.99612 0.92059 0.91342
 Cu1180 Cu 0.99629 0.89374 0.88411
 C1181 C 1.05071 0.95090 0.88210
 H1182 H 1.04425 0.95651 0.89617
 C1183 C 1.06823 0.93562 0.84645
 C1184 C 0.94775 1.05805 0.88530
 H1185 H 0.95217 1.05213 0.89992
 C1186 C 0.93593 1.07412 0.84776
 C1187 C 0.94877 1.11889 0.95437
 H1188 H 0.95392 1.10424 0.95885
 C1189 C 0.93445 1.15634 0.94219
 C1190 C 1.04791 0.88416 0.94456
 H1191 H 1.04320 0.89856 0.95025
 C1192 C 1.06087 0.84741 0.92898
 C1193 C 1.11645 0.94491 0.94834
 H1194 H 1.10181 0.94999 0.95386
 C1195 C 1.15395 0.93134 0.93309
 C1196 C 0.88152 1.05579 0.95061
 H1197 H 0.89617 1.05023 0.95536
 C1198 C 0.84417 1.07103 0.93751
 C1199 C 1.05350 1.05411 0.88680
 H1200 H 1.04812 1.04920 0.90153
 C1201 C 1.06830 1.06719 0.84903
 C1202 C 0.94579 0.95457 0.87875
 H1203 H 0.95139 0.95925 0.89338
 C1204 C 0.93031 0.94182 0.84147
 C1205 C 1.11681 1.04797 0.95504
 H1206 H 1.10203 1.04284 0.95974
 C1207 C 1.15445 1.06222 0.94218
 C1208 C 0.87836 0.95252 0.94455
 H1209 H 0.89243 0.95739 0.95109
 C1210 C 0.84246 0.93913 0.92678
 C1211 C 1.05340 1.11553 0.95626
 H1212 H 1.04651 1.10199 0.96162
 C1213 C 1.07201 1.15013 0.94185
 C1214 C 0.94194 0.88757 0.94386
 H1215 H 0.94638 0.90202 0.94928
 C1216 C 0.92997 0.85053 0.92907
 O1217 O 1.07639 0.52539 0.59356
 O1218 O 1.10057 0.52704 0.61637
 C1219 C 1.08363 0.53299 0.60953
 C1220 C 1.07244 0.54914 0.62004
 C1221 C 1.07867 0.55570 0.63917
 H1222 H 1.09138 0.54847 0.64652
 O1223 O 0.93309 0.48815 0.59548
 O1224 O 0.90954 0.48859 0.61939
 C1225 C 0.92625 0.48191 0.61235
 C1226 C 0.93756 0.46641 0.62368
 C1227 C 0.93068 0.46023 0.64284
 H1228 H 0.91740 0.46725 0.64954
 O1229 O 1.02360 0.60516 0.56497
 O1230 O 1.02355 0.62905 0.58779
 C1231 C 1.03072 0.62134 0.57161
 C1232 C 1.04792 0.63076 0.56066
 C1233 C 1.05730 0.64781 0.56845
 H1234 H 1.05158 0.65455 0.58230
 O1235 O 0.98830 0.40772 0.57262
 O1236 O 0.98871 0.38535 0.59706
 C1237 C 0.98160 0.39183 0.58044
 C1238 C 0.96507 0.38093 0.57047
 C1239 C 0.95871 0.36274 0.57846
 H1240 H 0.96639 0.35647 0.59151
 O1241 O 1.10298 0.57562 0.50844
 O1242 O 1.12676 0.59825 0.50728
 C1243 C 1.11963 0.58238 0.51476
 C1244 C 1.13040 0.57190 0.53133
 C1245 C 1.14984 0.57775 0.53730
 H1246 H 1.15737 0.58961 0.52927
 O1247 O 0.90566 0.43094 0.51799
 O1248 O 0.88264 0.40762 0.51994
 C1249 C 0.88943 0.42424 0.52563
 C1250 C 0.87871 0.43563 0.54170
 C1251 C 0.85998 0.42923 0.54928
 H1252 H 0.85288 0.41657 0.54238
 O1253 O 0.98338 0.57975 0.59366
 O1254 O 0.98292 0.60357 0.61656
 C1255 C 0.97605 0.58734 0.60987
 C1256 C 0.95911 0.57722 0.62056
 C1257 C 0.95115 0.58430 0.63924
 H1258 H 0.95785 0.59709 0.64629
 O1259 O 1.02795 0.43476 0.59974
 O1260 O 1.02822 0.41235 0.62412
 C1261 C 1.03511 0.42810 0.61634
 C1262 C 1.05208 0.43855 0.62611
 C1263 C 1.06138 0.43115 0.64383
 H1264 H 1.05562 0.41781 0.65076
 O1265 O 1.10500 0.48626 0.56683
 O1266 O 1.12933 0.48791 0.58949
 C1267 C 1.12197 0.48029 0.57357
 C1268 C 1.13298 0.46411 0.56292
 C1269 C 1.15181 0.45720 0.56998
 H1270 H 1.15869 0.46420 0.58296
 O1271 O 0.90365 0.52493 0.56658
 O1272 O 0.87994 0.52550 0.59034
 C1273 C 0.88694 0.53167 0.57347
 C1274 C 0.87594 0.54717 0.56186
 C1275 C 0.85632 0.55345 0.56759
 H1276 H 0.84880 0.54628 0.58022
 O1277 O 0.93092 0.60221 0.51025
 O1278 O 0.90680 0.62506 0.50995
 C1279 C 0.92349 0.61843 0.51682
 C1280 C 0.93414 0.62947 0.53289
 C1281 C 0.92693 0.64809 0.53930
 H1282 H 0.91382 0.65471 0.53205
 O1283 O 1.07970 0.40691 0.51540
 O1284 O 1.10396 0.38421 0.51612
 C1285 C 1.08736 0.39128 0.52303
 C1286 C 1.07706 0.38144 0.54033
 C1287 C 1.08392 0.36293 0.54731
 H1288 H 1.09654 0.35562 0.53970
 O1289 O 0.93131 0.52688 0.59422
 O1290 O 0.90769 0.52722 0.61806
 C1291 C 0.92390 0.53410 0.61052
 C1292 C 0.93390 0.55094 0.62068
 C1293 C 0.92642 0.55802 0.63931
 H1294 H 0.91372 0.55068 0.64647
 O1295 O 1.07860 0.48679 0.59605
 O1296 O 1.10293 0.48851 0.61868
 C1297 C 1.08663 0.48092 0.61251
 C1298 C 1.07729 0.46459 0.62413
 C1299 C 1.08634 0.45716 0.64183
 H1300 H 1.09980 0.46413 0.64763
 O1301 O 1.02778 0.40853 0.57104
 O1302 O 1.02823 0.38595 0.59527
 C1303 C 1.03491 0.39257 0.57841
 C1304 C 1.05147 0.38196 0.56741
 C1305 C 1.05855 0.36339 0.57414
 H1306 H 1.05115 0.35639 0.58693
 O1307 O 0.98411 0.60457 0.56369
 O1308 O 0.98372 0.62863 0.58634
 C1309 C 0.97703 0.62097 0.57009
 C1310 C 0.96036 0.63079 0.55887
 C1311 C 0.95290 0.64940 0.56504
 H1312 H 0.96031 0.65709 0.57726
 O1313 O 0.90330 0.57531 0.51129
 O1314 O 0.87906 0.59804 0.51078
 C1315 C 0.88657 0.58215 0.51800
 C1316 C 0.87589 0.57172 0.53457
 C1317 C 0.85629 0.57760 0.54030
 H1318 H 0.84875 0.58950 0.53214
 O1319 O 1.10688 0.43410 0.51331
 O1320 O 1.13124 0.41151 0.51386
 C1321 C 1.12362 0.42773 0.52021
 C1322 C 1.13395 0.43883 0.53637
 C1323 C 1.15292 0.43245 0.54333
 H1324 H 1.16054 0.41998 0.53608
 O1325 O 0.98844 0.43676 0.59836
 O1326 O 0.98854 0.41452 0.62292
 C1327 C 0.98149 0.43043 0.61512
 C1328 C 0.96458 0.44134 0.62520
 C1329 C 0.95751 0.43550 0.64446
 H1330 H 0.96544 0.42378 0.65238
 O1331 O 1.02286 0.57812 0.59288
 O1332 O 1.02265 0.60180 0.61595
 C1333 C 1.02960 0.58539 0.60921
 C1334 C 1.04608 0.57484 0.62001
 C1335 C 1.05264 0.58131 0.63913
 H1336 H 1.04484 0.59356 0.64647
 O1337 O 0.90474 0.48625 0.56857
 O1338 O 0.88113 0.48690 0.59242
 C1339 C 0.88848 0.47952 0.57620
 C1340 C 0.87827 0.46262 0.56643
 C1341 C 0.85957 0.45594 0.57387
 H1342 H 0.85224 0.46354 0.58648
 O1343 O 1.10333 0.52466 0.56456
 O1344 O 1.12760 0.52622 0.58729
 C1345 C 1.11989 0.53183 0.57059
 C1346 C 1.13036 0.54702 0.55835
 C1347 C 1.14989 0.55272 0.56369
 H1348 H 1.15744 0.54552 0.57631
 O1349 O 0.93395 0.40412 0.51966
 O1350 O 0.91106 0.38067 0.52150
 C1351 C 0.92733 0.38835 0.52778
 C1352 C 0.93844 0.37914 0.54498
 C1353 C 0.93222 0.36094 0.55335
 H1354 H 0.91970 0.35331 0.54655
 O1355 O 1.07539 0.60304 0.50910
 O1356 O 1.09905 0.62577 0.50796
 C1357 C 1.08291 0.61898 0.51579
 C1358 C 1.07335 0.62937 0.53335
 C1359 C 1.08254 0.64617 0.54154
 H1360 H 1.09614 0.65194 0.53451
 Cu1361 Cu 1.08833 0.50560 0.57802
 Cu1362 Cu 1.11752 0.50772 0.60526
 Cu1363 Cu 0.92052 0.50652 0.57879
 Cu1364 Cu 0.89225 0.50710 0.60747
 Cu1365 Cu 1.00352 0.58955 0.57657
 Cu1366 Cu 1.00318 0.61819 0.60391
 Cu1367 Cu 1.00814 0.42419 0.58307
 Cu1368 Cu 1.00840 0.39732 0.61227
 C1369 C 1.05600 0.55866 0.61067
 H1370 H 1.05129 0.55380 0.59577
 C1371 C 1.06903 0.57180 0.64875
 C1372 C 0.95460 0.45695 0.61501
 H1373 H 0.95975 0.46136 0.60003
 C1374 C 0.94035 0.44471 0.65326
 C1375 C 1.05599 0.62183 0.54295
 H1376 H 1.04910 0.60861 0.53695
 C1377 C 1.07470 0.65552 0.55894
 C1378 C 0.95495 0.38896 0.55363
 H1379 H 0.95964 0.40312 0.54755
 C1380 C 0.94228 0.35268 0.57022
 C1381 C 1.12080 0.55645 0.54195
 H1382 H 1.10564 0.55214 0.53785
 C1383 C 1.15959 0.56814 0.55352
 C1384 C 0.88766 0.45243 0.55027
 H1385 H 0.90225 0.45727 0.54469
 C1386 C 0.85043 0.43915 0.56557
 C1387 C 0.95034 0.56050 0.61152
 H1388 H 0.95605 0.55512 0.59705
 C1389 C 0.93473 0.57466 0.64873
 C1390 C 1.06003 0.45540 0.61664
 H1391 H 1.05316 0.46098 0.60285
 C1392 C 1.07855 0.44050 0.65189
 C1393 C 1.12422 0.45486 0.54606
 H1394 H 1.10949 0.45975 0.54084
 C1395 C 1.16176 0.44128 0.56026
 C1396 C 0.88551 0.55635 0.54527
 H1397 H 0.90074 0.55190 0.54098
 C1398 C 0.84646 0.56875 0.55683
 C1399 C 0.95097 0.62099 0.54267
 H1400 H 0.95640 0.60646 0.53806
 C1401 C 0.93598 0.65800 0.55552
 C1402 C 1.06075 0.39080 0.55040
 H1403 H 1.05557 0.40522 0.54526
 C1404 C 1.07492 0.35385 0.56424
 O1405 O 1.07469 0.48142 0.39206
 O1406 O 1.09770 0.48054 0.36761
 C1407 C 1.08154 0.47403 0.37564
 C1408 C 1.07091 0.45734 0.36612
 C1409 C 1.07705 0.45022 0.34701
 H1410 H 1.08924 0.45740 0.33885
 O1411 O 0.92874 0.51733 0.39358
 O1412 O 0.90510 0.51641 0.37018
 C1413 C 0.92130 0.52378 0.37703
 C1414 C 0.93141 0.54030 0.36604
 C1415 C 0.92415 0.54715 0.34714
 H1416 H 0.91136 0.54004 0.34016
 O1417 O 0.98215 0.59999 0.41711
 O1418 O 0.98145 0.62213 0.39243
 C1419 C 0.97513 0.61592 0.40950
 C1420 C 0.95912 0.62707 0.42042
 C1421 C 0.95310 0.64599 0.41387
 H1422 H 0.96077 0.65273 0.40104
 O1423 O 1.02601 0.40006 0.42441
 O1424 O 1.02631 0.37619 0.40154
 C1425 C 1.03335 0.38386 0.41757
 C1426 C 1.05047 0.37427 0.42833
 C1427 C 1.05778 0.35531 0.42281
 H1428 H 1.05043 0.34721 0.41082
 O1429 O 1.10616 0.43226 0.47369
 O1430 O 1.13055 0.40971 0.47423
 C1431 C 1.12273 0.42532 0.46666
 C1432 C 1.13263 0.43534 0.44922
 C1433 C 1.15162 0.42887 0.44183
 H1434 H 1.15939 0.41695 0.44961
 O1435 O 0.90365 0.57363 0.47188
 O1436 O 0.87950 0.59643 0.47138
 C1437 C 0.88689 0.58004 0.46510
 C1438 C 0.87601 0.56841 0.44962
 C1439 C 0.85672 0.57444 0.44312
 H1440 H 0.84950 0.58719 0.45017
 O1441 O 1.02073 0.57124 0.38923
 O1442 O 1.01975 0.59330 0.36449
 C1443 C 1.02694 0.57746 0.37209
 C1444 C 1.04317 0.56658 0.36118
 C1445 C 1.04951 0.57287 0.34189
 H1446 H 1.04177 0.58513 0.33451
 O1447 O 0.98482 0.42600 0.39778
 O1448 O 0.98505 0.40226 0.37476
 C1449 C 0.97786 0.41849 0.38162
 C1450 C 0.96106 0.42858 0.37082
 C1451 C 0.95408 0.42103 0.35233
 H1452 H 0.96131 0.40800 0.34577
 O1453 O 1.10200 0.52135 0.41725
 O1454 O 1.12509 0.52058 0.39288
 C1455 C 1.11807 0.52800 0.40926
 C1456 C 1.12838 0.54491 0.41877
 C1457 C 1.14605 0.55246 0.40998
 H1458 H 1.15254 0.54544 0.39659
 O1459 O 0.90221 0.47849 0.42260
 O1460 O 0.87843 0.47734 0.39937
 C1461 C 0.88599 0.47099 0.41588
 C1462 C 0.87638 0.45436 0.42723
 C1463 C 0.85803 0.44589 0.42081
 H1464 H 0.85035 0.45199 0.40774
 O1465 O 1.07451 0.60242 0.46916
 O1466 O 1.09791 0.62540 0.46793
 C1467 C 1.08145 0.61825 0.46149
 C1468 C 1.07056 0.62787 0.44439
 C1469 C 1.07684 0.64620 0.43647
 H1470 H 1.08905 0.65383 0.44382
 O1471 O 0.93363 0.40144 0.48008
 O1472 O 0.91075 0.37798 0.48185
 C1473 C 0.92696 0.38482 0.47428
 C1474 C 0.93798 0.37376 0.45814
 C1475 C 0.93168 0.35490 0.45186
 H1476 H 0.91914 0.34793 0.45961
 O1477 O 0.93077 0.47857 0.39551
 O1478 O 0.90719 0.47744 0.37205
 C1479 C 0.92382 0.47110 0.37937
 C1480 C 0.93482 0.45439 0.36950
 C1481 C 0.92809 0.44659 0.35099
 H1482 H 0.91555 0.45376 0.34343
 O1483 O 1.07488 0.51991 0.38924
 O1484 O 1.09792 0.51905 0.36483
 C1485 C 1.08154 0.52602 0.37220
 C1486 C 1.07030 0.54177 0.36126
 C1487 C 1.07687 0.54866 0.34213
 H1488 H 1.09000 0.54197 0.33484
 O1489 O 0.98666 0.39994 0.42668
 O1490 O 0.98688 0.37609 0.40377
 C1491 C 0.98020 0.38346 0.42031
 C1492 C 0.96429 0.37311 0.43191
 C1493 C 0.95802 0.35423 0.42602
 H1494 H 0.96550 0.34680 0.41339
 O1495 O 1.02156 0.59928 0.41622
 O1496 O 1.02076 0.62137 0.39152
 C1497 C 1.02811 0.61511 0.40817
 C1498 C 1.04462 0.62614 0.41815
 C1499 C 1.05113 0.64444 0.41044
 H1500 H 1.04372 0.65078 0.39728
 O1501 O 0.90557 0.42853 0.47838
 O1502 O 0.88259 0.40518 0.48032
 C1503 C 0.88925 0.42092 0.47216
 C1504 C 0.87814 0.43015 0.45497
 C1505 C 0.85974 0.42223 0.44857
 H1506 H 0.85337 0.40978 0.45672
 O1507 O 1.10255 0.57531 0.46881
 O1508 O 1.12606 0.59820 0.46759
 C1509 C 1.11881 0.58205 0.46116
 C1510 C 1.12894 0.57129 0.44418
 C1511 C 1.14680 0.57856 0.43523
 H1512 H 1.15354 0.59189 0.44114
 O1513 O 1.02405 0.42728 0.39674
 O1514 O 1.02431 0.40356 0.37369
 C1515 C 1.03063 0.42011 0.38011
 C1516 C 1.04611 0.43091 0.36836
 C1517 C 1.05243 0.42400 0.34922
 H1518 H 1.04506 0.41132 0.34266
 O1519 O 0.98136 0.57077 0.39154
 O1520 O 0.98048 0.59285 0.36683
 C1521 C 0.97394 0.57701 0.37495
 C1522 C 0.95733 0.56603 0.36511
 C1523 C 0.95018 0.57218 0.34611
 H1524 H 0.95719 0.58457 0.33841
 O1525 O 0.90219 0.51738 0.42258
 O1526 O 0.87833 0.51645 0.39940
 C1527 C 0.88561 0.52387 0.41549
 C1528 C 0.87518 0.54074 0.42565
 C1529 C 0.85594 0.54706 0.41931
 H1530 H 0.84828 0.53908 0.40740
 O1531 O 1.10348 0.48272 0.41841
 O1532 O 1.12662 0.48192 0.39409
 C1533 C 1.11995 0.47581 0.41110
 C1534 C 1.13120 0.46018 0.42221
 C1535 C 1.15018 0.45360 0.41514
 H1536 H 1.15687 0.46049 0.40185
 O1537 O 1.07970 0.40427 0.47591
 O1538 O 1.10401 0.38162 0.47667
 C1539 C 1.08722 0.38788 0.46982
 C1540 C 1.07657 0.37627 0.45426
 C1541 C 1.08343 0.35725 0.44888
 H1542 H 1.09625 0.35071 0.45669
 O1543 O 0.92972 0.60213 0.47072
 O1544 O 0.90573 0.62510 0.47036
 C1545 C 0.92233 0.61811 0.46353
 C1546 C 0.93307 0.62825 0.44678
 C1547 C 0.92713 0.64724 0.44007
 H1548 H 0.91496 0.65492 0.44794
 Cu1549 Cu 1.08643 0.50144 0.40666
 Cu1550 Cu 1.11420 0.50038 0.37744
 Cu1551 Cu 0.91828 0.49802 0.41087
 Cu1552 Cu 0.88990 0.49682 0.38292
 Cu1553 Cu 1.08648 0.58686 0.48895
 Cu1554 Cu 1.11474 0.61426 0.48760
 Cu1555 Cu 1.09070 0.42167 0.49445
 Cu1556 Cu 1.11991 0.39451 0.49530
 Cu1557 Cu 0.91936 0.58607 0.49102
 Cu1558 Cu 0.89035 0.61346 0.49058
 Cu1559 Cu 0.92202 0.41856 0.49883
 Cu1560 Cu 0.89443 0.39054 0.50109
 Cu1561 Cu 1.00156 0.58312 0.40603
 Cu1562 Cu 1.00051 0.60959 0.37631
 Cu1563 Cu 1.00539 0.41564 0.41377
 Cu1564 Cu 1.00563 0.38713 0.38612
 C1565 C 1.05532 0.44768 0.37664
 H1566 H 1.05075 0.45289 0.39157
 C1567 C 1.06812 0.43342 0.33860
 C1568 C 0.94804 0.54990 0.37485
 H1569 H 0.95351 0.54507 0.38952
 C1570 C 0.93360 0.56304 0.33712
 C1571 C 0.94917 0.61843 0.43695
 H1572 H 0.95364 0.60369 0.44185
 C1573 C 0.93710 0.65621 0.42347
 C1574 C 1.05996 0.38453 0.44410
 H1575 H 1.05468 0.39926 0.44819
 C1576 C 1.07429 0.34671 0.43314
 C1577 C 1.12262 0.45107 0.43934
 H1578 H 1.10785 0.45593 0.44469
 C1579 C 1.16045 0.43789 0.42465
 C1580 C 0.88505 0.55147 0.44089
 H1581 H 0.90006 0.54691 0.44560
 C1582 C 0.84672 0.56400 0.42776
 C1583 C 1.05340 0.55082 0.37059
 H1584 H 1.04860 0.54602 0.38556
 C1585 C 1.06647 0.56427 0.33244
 C1586 C 0.95142 0.44537 0.37922
 H1587 H 0.95653 0.45112 0.39363
 C1588 C 0.93754 0.42976 0.34240
 C1589 C 1.12002 0.55431 0.43597
 H1590 H 1.10616 0.54873 0.44260
 C1591 C 1.15543 0.56912 0.41812
 C1592 C 0.88621 0.44632 0.44434
 H1593 H 0.90046 0.45242 0.44918
 C1594 C 0.84960 0.42976 0.43152
 C1595 C 1.05437 0.61808 0.43519
 H1596 H 1.04963 0.60385 0.44103
 C1597 C 1.06727 0.65458 0.41936
 C1598 C 0.95437 0.38265 0.44814
 H1599 H 0.95903 0.39736 0.45256
 C1600 C 0.94162 0.34512 0.43568
 O1601 O 0.57274 1.01563 0.60314
 O1602 O 0.59629 1.01504 0.62670
 C1603 C 0.57976 1.02197 0.61979
 C1604 C 0.56884 1.03788 0.63095
 C1605 C 0.57599 1.04462 0.64971
 H1606 H 0.58927 1.03774 0.65638
 O1607 O 0.42568 0.97616 0.60182
 O1608 O 0.40224 0.97555 0.62582
 C1609 C 0.41877 0.96903 0.61830
 C1610 C 0.42950 0.95260 0.62872
 C1611 C 0.42098 0.94454 0.64635
 H1612 H 0.40710 0.95086 0.65254
 O1613 O 0.51845 1.09614 0.57901
 O1614 O 0.51758 1.11798 0.60392
 C1615 C 0.52492 1.11192 0.58711
 C1616 C 0.54161 1.12294 0.57722
 C1617 C 0.54790 1.14122 0.58499
 H1618 H 0.53995 1.14775 0.59785
 O1619 O 0.48282 0.89929 0.57479
 O1620 O 0.48261 0.87546 0.59776
 C1621 C 0.47615 0.88288 0.58122
 C1622 C 0.46037 0.87255 0.56964
 C1623 C 0.45435 0.85355 0.57547
 H1624 H 0.46185 0.84606 0.58795
 O1625 O 0.60089 1.07126 0.52582
 O1626 O 0.62455 1.09400 0.52676
 C1627 C 0.61740 1.07765 0.53288
 C1628 C 0.62805 1.06617 0.54872
 C1629 C 0.64674 1.07249 0.55622
 H1630 H 0.65388 1.08529 0.54950
 O1631 O 0.40172 0.92635 0.52113
 O1632 O 0.37884 0.90290 0.51938
 C1633 C 0.38523 0.91877 0.52725
 C1634 C 0.37364 0.92818 0.54405
 C1635 C 0.35521 0.92026 0.55063
 H1636 H 0.34910 0.90754 0.54284
 O1637 O 0.47907 1.06685 0.60474
 O1638 O 0.47838 1.08866 0.62968
 C1639 C 0.47176 1.07295 0.62154
 C1640 C 0.45492 1.06218 0.63145
 C1641 C 0.44731 1.06869 0.65030
 H1642 H 0.45479 1.08065 0.65805
 O1643 O 0.52107 0.92520 0.60426
 O1644 O 0.52118 0.90161 0.62744
 C1645 C 0.52803 0.91783 0.62055
 C1646 C 0.54479 0.92800 0.63091
 C1647 C 0.55348 0.92024 0.64877
 H1648 H 0.54739 0.90692 0.65549
 O1649 O 0.60045 0.97730 0.57427
 O1650 O 0.62407 0.97675 0.59775
 C1651 C 0.61689 0.97027 0.58120
 C1652 C 0.62757 0.95406 0.57025
 C1653 C 0.64679 0.94782 0.57651
 H1654 H 0.65408 0.95544 0.58891
 O1655 O 0.39618 1.01537 0.57612
 O1656 O 0.37276 1.01431 0.60013
 C1657 C 0.37963 1.02173 0.58379
 C1658 C 0.36869 1.03841 0.57403
 C1659 C 0.34987 1.04502 0.58157
 H1660 H 0.34282 1.03724 0.59413
 O1661 O 0.42398 1.09628 0.52810
 O1662 O 0.40053 1.11980 0.52857
 C1663 C 0.41688 1.11238 0.53536
 C1664 C 0.42767 1.12237 0.55199
 C1665 C 0.42109 1.14094 0.55927
 H1666 H 0.40848 1.14825 0.55196
 O1667 O 0.57248 0.89839 0.51992
 O1668 O 0.59623 0.87520 0.51890
 C1669 C 0.57976 0.88207 0.52627
 C1670 C 0.56938 0.87139 0.54293
 C1671 C 0.57590 0.85238 0.54867
 H1672 H 0.58798 0.84510 0.54019
 O1673 O 0.42487 1.01479 0.60272
 O1674 O 0.40153 1.01414 0.62682
 C1675 C 0.41784 1.02113 0.61952
 C1676 C 0.42851 1.03708 0.63044
 C1677 C 0.42113 1.04394 0.64926
 H1678 H 0.40790 1.03721 0.65606
 O1679 O 0.57340 0.97704 0.60296
 O1680 O 0.59709 0.97662 0.62637
 C1681 C 0.58068 0.97006 0.61932
 C1682 C 0.57047 0.95368 0.62999
 C1683 C 0.57884 0.94586 0.64777
 H1684 H 0.59222 0.95253 0.65413
 O1685 O 0.52189 0.89834 0.57612
 O1686 O 0.52186 0.87456 0.59912
 C1687 C 0.52875 0.88188 0.58270
 C1688 C 0.54496 0.87142 0.57106
 C1689 C 0.55196 0.85244 0.57682
 H1690 H 0.54512 0.84510 0.58974
 O1691 O 0.47887 1.09584 0.57908
 O1692 O 0.47813 1.11771 0.60398
 C1693 C 0.47147 1.11143 0.58715
 C1694 C 0.45455 1.12198 0.57716
 C1695 C 0.44769 1.14044 0.58439
 H1696 H 0.45530 1.14734 0.59704
 O1697 O 0.39594 1.06979 0.52642
 O1698 O 0.37238 1.09318 0.52706
 C1699 C 0.37933 1.07670 0.53342
 C1700 C 0.36850 1.06557 0.54951
 C1701 C 0.34966 1.07210 0.55729
 H1702 H 0.34243 1.08498 0.55063
 O1703 O 0.60074 0.92462 0.52122
 O1704 O 0.62465 0.90158 0.52034
 C1705 C 0.61731 0.91748 0.52785
 C1706 C 0.62781 0.92784 0.54459
 C1707 C 0.64707 0.92159 0.55132
 H1708 H 0.65463 0.90924 0.54390
 O1709 O 0.48145 0.92484 0.60396
 O1710 O 0.48118 0.90131 0.62721
 C1711 C 0.47403 0.91743 0.62010
 C1712 C 0.45640 0.92740 0.63006
 C1713 C 0.44754 0.91959 0.64791
 H1714 H 0.45400 0.90649 0.65496
 O1715 O 0.51859 1.06758 0.60536
 O1716 O 0.51785 1.08939 0.63031
 C1717 C 0.52521 1.07379 0.62224
 C1718 C 0.54212 1.06315 0.63221
 C1719 C 0.54951 1.06971 0.65096
 H1720 H 0.54189 1.08183 0.65869
 O1721 O 0.39722 0.97663 0.57505
 O1722 O 0.37376 0.97552 0.59901
 C1723 C 0.38109 0.96925 0.58227
 C1724 C 0.37142 0.95278 0.57119
 C1725 C 0.35300 0.94452 0.57778
 H1726 H 0.34524 0.95092 0.59076
 O1727 O 0.60124 1.01604 0.57586
 O1728 O 0.62476 1.01525 0.59943
 C1729 C 0.61765 1.02247 0.58317
 C1730 C 0.62823 1.03899 0.57313
 C1731 C 0.64692 1.04545 0.58043
 H1732 H 0.65409 1.03770 0.59294
 O1733 O 0.43075 0.90007 0.52050
 O1734 O 0.40784 0.87666 0.51894
 C1735 C 0.42384 0.88361 0.52667
 C1736 C 0.43437 0.87286 0.54334
 C1737 C 0.42798 0.85406 0.55003
 H1738 H 0.41532 0.84691 0.54284
 O1739 O 0.57316 1.09872 0.52720
 O1740 O 0.59665 1.12161 0.52833
 C1741 C 0.58013 1.11446 0.53491
 C1742 C 0.56894 1.12413 0.55196
 C1743 C 0.57519 1.14233 0.56013
 H1744 H 0.58800 1.14981 0.55342
 Cu1745 Cu 0.58460 0.99660 0.58664
 Cu1746 Cu 0.61293 0.99585 0.61490
 Cu1747 Cu 0.41323 0.99584 0.58642
 Cu1748 Cu 0.38526 0.99481 0.61539
 Cu1749 Cu 0.49886 1.07944 0.58952
 Cu1750 Cu 0.49791 1.10559 0.61950
 Cu1751 Cu 0.50190 0.91437 0.58761
 Cu1752 Cu 0.50165 0.88593 0.61530
 C1753 C 0.55180 1.04714 0.62239
 H1754 H 0.54638 1.04222 0.60777
 C1755 C 0.56663 1.06068 0.65966
 C1756 C 0.44731 0.94407 0.62073
 H1757 H 0.45371 0.95002 0.60684
 C1758 C 0.42971 0.92815 0.65600
 C1759 C 0.55209 1.11466 0.56060
 H1760 H 0.54740 1.10048 0.55467
 C1761 C 0.56473 1.15094 0.57673
 C1762 C 0.45059 0.88194 0.55332
 H1763 H 0.45527 0.89662 0.54875
 C1764 C 0.43815 0.84437 0.56597
 C1765 C 0.61900 1.04933 0.55716
 H1766 H 0.60442 1.04460 0.55171
 C1767 C 0.65613 1.06232 0.57231
 C1768 C 0.38147 0.94454 0.55425
 H1769 H 0.39580 0.95054 0.54929
 C1770 C 0.34478 0.92815 0.56748
 C1771 C 0.44549 1.04627 0.62166
 H1772 H 0.45107 1.04136 0.60696
 C1773 C 0.43020 1.05992 0.65910
 C1774 C 0.55329 0.94488 0.62183
 H1775 H 0.54700 0.95076 0.60789
 C1776 C 0.57058 0.92923 0.65726
 C1777 C 0.61827 0.94412 0.55418
 H1778 H 0.60333 0.94885 0.54940
 C1779 C 0.65662 0.93160 0.56736
 C1780 C 0.37773 1.04865 0.55791
 H1781 H 0.39239 1.04375 0.55228
 C1782 C 0.34027 1.06192 0.57348
 C1783 C 0.44449 1.11310 0.56093
 H1784 H 0.44952 1.09869 0.55551
 C1785 C 0.43093 1.15001 0.57565
 C1786 C 0.55376 0.88068 0.55406
 H1787 H 0.54878 0.89543 0.54974
 C1788 C 0.56748 0.84286 0.56562
 O1789 O 0.57563 0.98300 0.40090
 O1790 O 0.59996 0.98436 0.37785
 C1791 C 0.58350 0.97707 0.38422
 C1792 C 0.57375 0.96109 0.37251
 C1793 C 0.58257 0.95368 0.35451
 H1794 H 0.59625 0.96032 0.34860
 O1795 O 0.42838 1.02469 0.40183
 O1796 O 0.40489 1.02546 0.37827
 C1797 C 0.42109 1.03228 0.38577
 C1798 C 0.43143 1.04955 0.37630
 C1799 C 0.42456 1.05815 0.35799
 H1800 H 0.41189 1.05161 0.35032
 O1801 O 0.48150 1.10117 0.43662
 O1802 O 0.48117 1.12539 0.41411
 C1803 C 0.47439 1.11757 0.43038
 C1804 C 0.45757 1.12722 0.44177
 C1805 C 0.45053 1.14610 0.43607
 H1806 H 0.45836 1.15406 0.42416
 O1807 O 0.52268 0.90511 0.42458
 O1808 O 0.52252 0.88259 0.40031
 C1809 C 0.52926 0.88889 0.41713
 C1810 C 0.54511 0.87735 0.42788
 C1811 C 0.55105 0.85860 0.42070
 H1812 H 0.54355 0.85229 0.40767
 O1813 O 0.60027 0.92737 0.48195
 O1814 O 0.62426 0.90439 0.48094
 C1815 C 0.61702 0.92092 0.47496
 C1816 C 0.62797 0.93255 0.45944
 C1817 C 0.64747 0.92681 0.45316
 H1818 H 0.65481 0.91409 0.46011
 O1819 O 0.39772 1.07102 0.48673
 O1820 O 0.37412 1.09438 0.48728
 C1821 C 0.38153 1.07855 0.47971
 C1822 C 0.37154 1.06913 0.46221
 C1823 C 0.35294 1.07651 0.45526
 H1824 H 0.34555 1.08864 0.46328
 O1825 O 0.52050 1.07498 0.40703
 O1826 O 0.52055 1.09895 0.38424
 C1827 C 0.52740 1.08243 0.39075
 C1828 C 0.54398 1.07203 0.37972
 C1829 C 0.55137 1.07948 0.36121
 H1830 H 0.54400 1.09226 0.35458
 O1831 O 0.48357 0.93368 0.39731
 O1832 O 0.48369 0.91136 0.37286
 C1833 C 0.47667 0.92728 0.38062
 C1834 C 0.45981 0.93807 0.37056
 C1835 C 0.45236 0.93155 0.35178
 H1836 H 0.45996 0.91938 0.34412
 O1837 O 0.60127 1.02070 0.43175
 O1838 O 0.62549 1.02167 0.40855
 C1839 C 0.61786 1.02774 0.42520
 C1840 C 0.62823 1.04353 0.43657
 C1841 C 0.64730 1.04993 0.43003
 H1842 H 0.65477 1.04266 0.41729
 O1843 O 0.40242 0.98425 0.42858
 O1844 O 0.37859 0.98456 0.40535
 C1845 C 0.38615 0.97732 0.42153
 C1846 C 0.37623 0.96047 0.43216
 C1847 C 0.35712 0.95376 0.42603
 H1848 H 0.34931 0.96125 0.41378
 O1849 O 0.57316 1.10009 0.48757
 O1850 O 0.59682 1.12283 0.48857
 C1851 C 0.58048 1.11629 0.48126
 C1852 C 0.57042 1.12730 0.46468
 C1853 C 0.57883 1.14488 0.45740
 H1854 H 0.59205 1.15081 0.46477
 O1855 O 0.43134 0.90180 0.48049
 O1856 O 0.40836 0.87843 0.47903
 C1857 C 0.42460 0.88608 0.47248
 C1858 C 0.43522 0.87700 0.45485
 C1859 C 0.42836 0.85907 0.44665
 H1860 H 0.41619 0.85137 0.45421
 O1861 O 0.42927 0.98587 0.39976
 O1862 O 0.40568 0.98639 0.37629
 C1863 C 0.42228 0.97953 0.38307
 C1864 C 0.43322 0.96358 0.37180
 C1865 C 0.42598 0.95677 0.35308
 H1866 H 0.41274 0.96375 0.34646
 O1867 O 0.57322 1.02154 0.40448
 O1868 O 0.59741 1.02289 0.38126
 C1869 C 0.58064 1.02919 0.38852
 C1870 C 0.56995 1.04596 0.37867
 C1871 C 0.57712 1.05363 0.36023
 H1872 H 0.59011 1.04676 0.35283
 O1873 O 0.48343 0.90572 0.42438
 O1874 O 0.48334 0.88335 0.39996
 C1875 C 0.47656 0.88987 0.41683
 C1876 C 0.46034 0.87904 0.42755
 C1877 C 0.45326 0.86113 0.41963
 H1878 H 0.46002 0.85506 0.40589
 O1879 O 0.52104 1.10305 0.43389
 O1880 O 0.52081 1.12713 0.41125
 C1881 C 0.52802 1.11938 0.42722
 C1882 C 0.54509 1.12894 0.43791
 C1883 C 0.55398 1.14656 0.43056
 H1884 H 0.54783 1.15364 0.41720
 O1885 O 0.40415 0.92967 0.48170
 O1886 O 0.38106 0.90641 0.48009
 C1887 C 0.38798 0.92301 0.47418
 C1888 C 0.37720 0.93435 0.45813
 C1889 C 0.35801 0.92830 0.45203
 H1890 H 0.35092 0.91583 0.45953
 O1891 O 0.60084 1.07280 0.48637
 O1892 O 0.62463 1.09542 0.48717
 C1893 C 0.61738 1.07969 0.47963
 C1894 C 0.62798 1.06935 0.46266
 C1895 C 0.64687 1.07590 0.45543
 H1896 H 0.65408 1.08839 0.46258
 O1897 O 0.52324 0.93239 0.39683
 O1898 O 0.52344 0.90996 0.37250
 C1899 C 0.53048 0.92563 0.38025
 C1900 C 0.54773 0.93583 0.37046
 C1901 C 0.55679 0.92848 0.35250
 H1902 H 0.55062 0.91542 0.34550
 O1903 O 0.48100 1.07690 0.40599
 O1904 O 0.48100 1.10104 0.38341
 C1905 C 0.47405 1.08471 0.38983
 C1906 C 0.45746 1.07502 0.37855
 C1907 C 0.45048 1.08321 0.36026
 H1908 H 0.45772 1.09629 0.35418
 O1909 O 0.40009 1.02297 0.42926
 O1910 O 0.37643 1.02347 0.40586
 C1911 C 0.38339 1.02975 0.42256
 C1912 C 0.37237 1.04547 0.43409
 C1913 C 0.35373 1.05321 0.42723
 H1914 H 0.34697 1.04696 0.41382
 O1915 O 0.60094 0.98202 0.43083
 O1916 O 0.62533 0.98316 0.40781
 C1917 C 0.61776 0.97572 0.42388
 C1918 C 0.62833 0.95927 0.43438
 C1919 C 0.64780 0.95322 0.42818
 H1920 H 0.65547 0.96124 0.41621
 O1921 O 0.57379 0.89958 0.48000
 O1922 O 0.59747 0.87634 0.47883
 C1923 C 0.58117 0.88390 0.47204
 C1924 C 0.57078 0.87482 0.45442
 C1925 C 0.57695 0.85625 0.44653
 H1926 H 0.58919 0.84808 0.45362
 O1927 O 0.42562 1.09753 0.48881
 O1928 O 0.40214 1.12103 0.48926
 C1929 C 0.41891 1.11414 0.48260
 C1930 C 0.43045 1.12543 0.46719
 C1931 C 0.42375 1.14434 0.46131
 H1932 H 0.41046 1.15089 0.46848
 Cu1933 Cu 0.58532 1.00164 0.41926
 Cu1934 Cu 0.61446 1.00317 0.39156
 Cu1935 Cu 0.41739 1.00444 0.41713
 Cu1936 Cu 0.38907 1.00496 0.38909
 Cu1937 Cu 0.58463 1.08346 0.50672
 Cu1938 Cu 0.61301 1.11080 0.50782
 Cu1939 Cu 0.58437 0.91469 0.50089
 Cu1940 Cu 0.61296 0.88696 0.49961
 Cu1941 Cu 0.41308 1.08122 0.50754
 Cu1942 Cu 0.38487 1.10942 0.50804
 Cu1943 Cu 0.41938 0.91671 0.50122
 Cu1944 Cu 0.39179 0.88874 0.49912
 Cu1945 Cu 0.50105 1.08671 0.42314
 Cu1946 Cu 0.50082 1.11550 0.39601
 Cu1947 Cu 0.50325 0.92158 0.41311
 Cu1948 Cu 0.50323 0.89462 0.38391
 C1949 C 0.55618 0.95228 0.38010
 H1950 H 0.54946 0.95782 0.39407
 C1951 C 0.57420 0.93745 0.34427
 C1952 C 0.44797 1.05810 0.38632
 H1953 H 0.45321 1.05184 0.40052
 C1954 C 0.43410 1.07507 0.34982
 C1955 C 0.44752 1.11703 0.45748
 H1956 H 0.45258 1.10228 0.46171
 C1957 C 0.43342 1.15457 0.44557
 C1958 C 0.55486 0.88521 0.44491
 H1959 H 0.55031 0.89970 0.45050
 C1960 C 0.56699 0.84806 0.42971
 C1961 C 0.61858 0.94892 0.45011
 H1962 H 0.60340 0.95326 0.45471
 C1963 C 0.65733 0.93685 0.43739
 C1964 C 0.38105 1.05351 0.45165
 H1965 H 0.39556 1.04795 0.45681
 C1966 C 0.34397 1.06888 0.43774
 C1967 C 0.55327 1.05515 0.38825
 H1968 H 0.54787 1.04950 0.40269
 C1969 C 0.56811 1.07045 0.35149
 C1970 C 0.45024 0.95420 0.38034
 H1971 H 0.45568 0.95909 0.39496
 C1972 C 0.43525 0.94065 0.34303
 C1973 C 0.61879 1.05313 0.45307
 H1974 H 0.60402 1.04828 0.45812
 C1975 C 0.65655 1.06619 0.43908
 C1976 C 0.38613 0.95063 0.44830
 H1977 H 0.40101 0.95535 0.45291
 C1978 C 0.34796 0.93768 0.43598
 C1979 C 0.55343 1.11957 0.45504
 H1980 H 0.54706 1.10584 0.46054
 C1981 C 0.57100 1.15460 0.44034
 C1982 C 0.45131 0.88683 0.44526
 H1983 H 0.45645 0.90081 0.45129
 C1984 C 0.43716 0.85118 0.42887
 O1985 O 0.47971 0.42924 0.89785
 O1986 O 0.47947 0.40588 0.87444
 C1987 C 0.47269 0.42221 0.88152
 C1988 C 0.45619 0.43297 0.87098
 C1989 C 0.44958 0.42672 0.85183
 H1990 H 0.45741 0.41456 0.84438
 O1991 O 0.51882 0.56737 0.89795
 O1992 O 0.51939 0.59063 0.87440
 C1993 C 0.52583 0.57417 0.88139
 C1994 C 0.54207 0.56323 0.87040
 C1995 C 0.54868 0.56996 0.85136
 H1996 H 0.54128 0.58261 0.84433
 O1997 O 0.39818 0.48093 0.92610
 O1998 O 0.37444 0.48119 0.90276
 C1999 C 0.38188 0.47403 0.91899
 C2000 C 0.37183 0.45709 0.92925
 C2001 C 0.35329 0.45015 0.92205
 H2002 H 0.34594 0.45774 0.90955
 O2003 O 0.60120 0.51445 0.92362
 O2004 O 0.62478 0.51445 0.89973
 C2005 C 0.61759 0.52117 0.91637
 C2006 C 0.62816 0.53733 0.92705
 C2007 C 0.64704 0.54368 0.91997
 H2008 H 0.65425 0.53618 0.90723
 O2009 O 0.42737 0.39978 0.97953
 O2010 O 0.40421 0.37653 0.97963
 C2011 C 0.42062 0.38358 0.97273
 C2012 C 0.43161 0.37334 0.95609
 C2013 C 0.42530 0.35475 0.94909
 H2014 H 0.41307 0.34738 0.95688
 O2015 O 0.57316 0.59353 0.97863
 O2016 O 0.59638 0.61673 0.97855
 C2017 C 0.57993 0.60980 0.97189
 C2018 C 0.56905 0.62050 0.95565
 C2019 C 0.57582 0.63906 0.94916
 H2020 H 0.58839 0.64596 0.95678
 O2021 O 0.42450 0.52032 0.89780
 O2022 O 0.40092 0.52061 0.87431
 C2023 C 0.41728 0.52734 0.88139
 C2024 C 0.42801 0.54370 0.87085
 C2025 C 0.42117 0.55158 0.85219
 H2026 H 0.40806 0.54532 0.84497
 O2027 O 0.57439 0.47607 0.89524
 O2028 O 0.59773 0.47604 0.87114
 C2029 C 0.58135 0.46939 0.87850
 C2030 C 0.57028 0.45347 0.86794
 C2031 C 0.57684 0.44590 0.84899
 H2032 H 0.58987 0.45229 0.84155
 O2033 O 0.51920 0.40235 0.92568
 O2034 O 0.51921 0.37881 0.90244
 C2035 C 0.52608 0.38604 0.91882
 C2036 C 0.54247 0.37557 0.92979
 C2037 C 0.54887 0.35666 0.92353
 H2038 H 0.54141 0.34952 0.91093
 O2039 O 0.48043 0.59625 0.92612
 O2040 O 0.48097 0.61962 0.90267
 C2041 C 0.47399 0.61273 0.91925
 C2042 C 0.45790 0.62365 0.93047
 C2043 C 0.45116 0.64242 0.92390
 H2044 H 0.45835 0.64937 0.91094
 O2045 O 0.39907 0.57220 0.98011
 O2046 O 0.37584 0.59593 0.97999
 C2047 C 0.38278 0.57960 0.97314
 C2048 C 0.37199 0.56929 0.95667
 C2049 C 0.35327 0.57652 0.94986
 H2050 H 0.34643 0.58942 0.95707
 O2051 O 0.60135 0.42754 0.97907
 O2052 O 0.62452 0.40378 0.97968
 C2053 C 0.61777 0.41992 0.97238
 C2054 C 0.62875 0.42947 0.95541
 C2055 C 0.64782 0.42238 0.94923
 H2056 H 0.65505 0.41046 0.95762
 O2057 O 0.47932 0.56975 0.89774
 O2058 O 0.47998 0.59303 0.87422
 C2059 C 0.47254 0.57719 0.88137
 C2060 C 0.45546 0.56770 0.87085
 C2061 C 0.44875 0.57501 0.85211
 H2062 H 0.45666 0.58716 0.84491
 O2063 O 0.51926 0.42746 0.89600
 O2064 O 0.51885 0.40402 0.87266
 C2065 C 0.52599 0.42002 0.87948
 C2066 C 0.54278 0.42965 0.86844
 C2067 C 0.54932 0.42243 0.84949
 H2068 H 0.54136 0.41029 0.84249
 O2069 O 0.60187 0.47589 0.92306
 O2070 O 0.62549 0.47564 0.89923
 C2071 C 0.61839 0.46901 0.91588
 C2072 C 0.62900 0.45298 0.92715
 C2073 C 0.64796 0.44533 0.92080
 H2074 H 0.65538 0.45149 0.90754
 O2075 O 0.39779 0.51985 0.92676
 O2076 O 0.37406 0.52022 0.90341
 C2077 C 0.38134 0.52688 0.91984
 C2078 C 0.37110 0.54347 0.93067
 C2079 C 0.35239 0.55101 0.92398
 H2080 H 0.34489 0.54382 0.91150
 O2081 O 0.42783 0.59789 0.98073
 O2082 O 0.40472 0.62173 0.98059
 C2083 C 0.42118 0.61425 0.97387
 C2084 C 0.43236 0.62440 0.95747
 C2085 C 0.42610 0.64323 0.95096
 H2086 H 0.41360 0.65070 0.95861
 O2087 O 0.57257 0.40183 0.97919
 O2088 O 0.59570 0.37802 0.97942
 C2089 C 0.57944 0.38546 0.97239
 C2090 C 0.56860 0.37523 0.95587
 C2091 C 0.57483 0.35628 0.94932
 H2092 H 0.58711 0.34880 0.95705
 O2093 O 0.57319 0.51456 0.89648
 O2094 O 0.59650 0.51485 0.87234
 C2095 C 0.58001 0.52152 0.87992
 C2096 C 0.56881 0.53783 0.86973
 C2097 C 0.57539 0.54507 0.85082
 H2098 H 0.58828 0.53820 0.84327
 O2099 O 0.42604 0.48170 0.89837
 O2100 O 0.40250 0.48182 0.87482
 C2101 C 0.41905 0.47505 0.88186
 C2102 C 0.43004 0.45888 0.87111
 C2103 C 0.42360 0.45238 0.85202
 H2104 H 0.41087 0.45967 0.84477
 O2105 O 0.51981 0.59521 0.92510
 O2106 O 0.52036 0.61854 0.90162
 C2107 C 0.52708 0.61119 0.91803
 C2108 C 0.54370 0.62108 0.92887
 C2109 C 0.55109 0.63950 0.92221
 H2110 H 0.54420 0.64686 0.90935
 O2111 O 0.47993 0.40113 0.92495
 O2112 O 0.47999 0.37777 0.90153
 C2113 C 0.47328 0.38484 0.91813
 C2114 C 0.45732 0.37413 0.92934
 C2115 C 0.45091 0.35553 0.92259
 H2116 H 0.45813 0.34872 0.90946
 O2117 O 0.60177 0.56695 0.97734
 O2118 O 0.62509 0.59004 0.97695
 C2119 C 0.61800 0.57402 0.96994
 C2120 C 0.62836 0.56356 0.95279
 C2121 C 0.64709 0.57008 0.94499
 H2122 H 0.65444 0.58268 0.95179
 O2123 O 0.39905 0.42657 0.97837
 O2124 O 0.37573 0.40348 0.97833
 C2125 C 0.38282 0.41954 0.97121
 C2126 C 0.37237 0.43010 0.95427
 C2127 C 0.35393 0.42318 0.94645
 H2128 H 0.34695 0.41027 0.95315
 Cu2129 Cu 0.49947 0.41745 0.91339
 Cu2130 Cu 0.49934 0.38930 0.88543
 Cu2131 Cu 0.49954 0.57981 0.91409
 Cu2132 Cu 0.50026 0.60774 0.88583
 Cu2133 Cu 0.41395 0.50075 0.91459
 Cu2134 Cu 0.38554 0.50093 0.88655
 Cu2135 Cu 0.58534 0.49512 0.91197
 Cu2136 Cu 0.61350 0.49531 0.88319
 C2137 C 0.44642 0.44916 0.88042
 H2138 H 0.45126 0.45388 0.89532
 C2139 C 0.43312 0.43622 0.84235
 C2140 C 0.55205 0.54697 0.87938
 H2141 H 0.54717 0.54184 0.89421
 C2142 C 0.56546 0.56125 0.84170
 C2143 C 0.38115 0.44707 0.94550
 H2144 H 0.39550 0.45230 0.95108
 C2145 C 0.34432 0.43318 0.93030
 C2146 C 0.61907 0.54716 0.94364
 H2147 H 0.60446 0.54231 0.94914
 C2148 C 0.65649 0.56008 0.92859
 C2149 C 0.44773 0.38282 0.94622
 H2150 H 0.45244 0.39731 0.95130
 C2151 C 0.43481 0.34583 0.93217
 C2152 C 0.55278 0.61173 0.94564
 H2153 H 0.54755 0.59733 0.95056
 C2154 C 0.56721 0.64850 0.93235
 C2155 C 0.44515 0.55194 0.87997
 H2156 H 0.45029 0.54632 0.89448
 C2157 C 0.43160 0.56726 0.84273
 C2158 C 0.55320 0.44527 0.87740
 H2159 H 0.54827 0.45071 0.89213
 C2160 C 0.56638 0.43025 0.83970
 C2161 C 0.55232 0.38470 0.94608
 H2162 H 0.54758 0.39941 0.95085
 C2163 C 0.56510 0.34699 0.93302
 C2164 C 0.44845 0.61482 0.94734
 H2165 H 0.45319 0.60016 0.95220
 C2166 C 0.43515 0.65218 0.93407
 C2167 C 0.38070 0.55265 0.94711
 H2168 H 0.39529 0.54715 0.95213
 C2169 C 0.34346 0.56767 0.93344
 C2170 C 0.61962 0.44490 0.94447
 H2171 H 0.60482 0.45030 0.94920
 C2172 C 0.65745 0.43001 0.93191
 O2173 O 0.51897 0.42836 1.10156
 O2174 O 0.51891 0.40520 1.12521
 C2175 C 0.52594 0.42119 1.11799
 C2176 C 0.54288 0.43121 1.12834
 C2177 C 0.55172 0.42290 1.14586
 H2178 H 0.54569 0.40935 1.15209
 O2179 O 0.47849 0.56917 1.10017
 O2180 O 0.47818 0.59269 1.12341
 C2181 C 0.47111 0.57667 1.11633
 C2182 C 0.45373 0.56697 1.12651
 C2183 C 0.44569 0.57442 1.14487
 H2184 H 0.45307 0.58672 1.15210
 O2185 O 0.39648 0.51862 1.07123
 O2186 O 0.37254 0.51872 1.09476
 C2187 C 0.37989 0.52545 1.07830
 C2188 C 0.36957 0.54189 1.06759
 C2189 C 0.35046 0.54890 1.07400
 H2190 H 0.34265 0.54141 1.08624
 O2191 O 0.59950 0.47988 1.07382
 O2192 O 0.62332 0.47939 1.09710
 C2193 C 0.61596 0.47279 1.08067
 C2194 C 0.62642 0.45649 1.06959
 C2195 C 0.64536 0.44952 1.07608
 H2196 H 0.65254 0.45642 1.08898
 O2197 O 0.57214 0.40180 1.01882
 O2198 O 0.59531 0.37802 1.01888
 C2199 C 0.57888 0.38543 1.02570
 C2200 C 0.56802 0.37503 1.04219
 C2201 C 0.57472 0.35624 1.04839
 H2202 H 0.58713 0.34897 1.04040
 O2203 O 0.42604 0.59872 1.02024
 O2204 O 0.40290 0.62252 1.02016
 C2205 C 0.41911 0.61505 1.02716
 C2206 C 0.42997 0.62512 1.04376
 C2207 C 0.42366 0.64388 1.05101
 H2208 H 0.41106 0.65140 1.04386
 O2209 O 0.42490 0.48036 1.09889
 O2210 O 0.40113 0.48053 1.12260
 C2211 C 0.41784 0.47389 1.11557
 C2212 C 0.42895 0.45831 1.12683
 C2213 C 0.42240 0.45273 1.14623
 H2214 H 0.40952 0.46030 1.15310
 O2215 O 0.57305 0.51914 1.10237
 O2216 O 0.59653 0.51883 1.12596
 C2217 C 0.58011 0.52581 1.11889
 C2218 C 0.56896 0.54199 1.12954
 C2219 C 0.57521 0.54939 1.14851
 H2220 H 0.58832 0.54299 1.15589
 O2221 O 0.47956 0.40196 1.07325
 O2222 O 0.47959 0.37884 1.09694
 C2223 C 0.47273 0.38585 1.08039
 C2224 C 0.45635 0.37527 1.06972
 C2225 C 0.45017 0.35668 1.07676
 H2226 H 0.45790 0.34989 1.08951
 O2227 O 0.51908 0.59425 1.07199
 O2228 O 0.51916 0.61773 1.09527
 C2229 C 0.52623 0.61023 1.07890
 C2230 C 0.54319 0.62004 1.06812
 C2231 C 0.54979 0.63861 1.07467
 H2232 H 0.54205 0.64599 1.08717
 O2233 O 0.39876 0.42784 1.01798
 O2234 O 0.37538 0.40479 1.01807
 C2235 C 0.38221 0.42106 1.02473
 C2236 C 0.37110 0.43185 1.04092
 C2237 C 0.35193 0.42555 1.04713
 H2238 H 0.34491 0.41324 1.03943
 O2239 O 0.60205 0.56613 1.01711
 O2240 O 0.62542 0.58919 1.01673
 C2241 C 0.61848 0.57309 1.02375
 C2242 C 0.62911 0.56288 1.04045
 C2243 C 0.64828 0.56906 1.04653
 H2244 H 0.65590 0.58066 1.03815
 O2245 O 0.51809 0.56911 1.10179
 O2246 O 0.51765 0.59256 1.12512
 C2247 C 0.52463 0.57628 1.11832
 C2248 C 0.54113 0.56610 1.12936
 C2249 C 0.54712 0.57286 1.14848
 H2250 H 0.53883 0.58491 1.15575
 O2251 O 0.47941 0.42876 1.10144
 O2252 O 0.47918 0.40583 1.12532
 C2253 C 0.47229 0.42196 1.11797
 C2254 C 0.45544 0.43280 1.12825
 C2255 C 0.44849 0.42723 1.14770
 H2256 H 0.45605 0.41521 1.15552
 O2257 O 0.60045 0.51826 1.07388
 O2258 O 0.62418 0.51793 1.09724
 C2259 C 0.61716 0.52450 1.08060
 C2260 C 0.62826 0.53967 1.06889
 C2261 C 0.64732 0.54633 1.07509
 H2262 H 0.65436 0.53996 1.08842
 O2263 O 0.39697 0.47998 1.07146
 O2264 O 0.37306 0.47998 1.09502
 C2265 C 0.38051 0.47320 1.07854
 C2266 C 0.37027 0.45701 1.06760
 C2267 C 0.35117 0.45021 1.07392
 H2268 H 0.34348 0.45730 1.08658
 O2269 O 0.57410 0.59328 1.01830
 O2270 O 0.59735 0.61644 1.01819
 C2271 C 0.58107 0.60932 1.02540
 C2272 C 0.57021 0.61959 1.04236
 C2273 C 0.57679 0.63809 1.04953
 H2274 H 0.58960 0.64516 1.04234
 O2275 O 0.42615 0.40014 1.01929
 O2276 O 0.40300 0.37689 1.01956
 C2277 C 0.41916 0.38415 1.02665
 C2278 C 0.42988 0.37429 1.04385
 C2279 C 0.42367 0.35573 1.05152
 H2280 H 0.41119 0.34819 1.04447
 O2281 O 0.57177 0.48057 1.10155
 O2282 O 0.59541 0.48000 1.12500
 C2283 C 0.57894 0.47350 1.11787
 C2284 C 0.56858 0.45697 1.12822
 C2285 C 0.57699 0.44860 1.14573
 H2286 H 0.59042 0.45504 1.15222
 O2287 O 0.42404 0.51889 1.09883
 O2288 O 0.40020 0.51909 1.12247
 C2289 C 0.41667 0.52580 1.11528
 C2290 C 0.42713 0.54208 1.12589
 C2291 C 0.41937 0.54971 1.14423
 H2292 H 0.40597 0.54324 1.15096
 O2293 O 0.47954 0.59687 1.07289
 O2294 O 0.47984 0.62036 1.09617
 C2295 C 0.47296 0.61335 1.07979
 C2296 C 0.45667 0.62425 1.06913
 C2297 C 0.45034 0.64299 1.07602
 H2298 H 0.45808 0.64981 1.08864
 O2299 O 0.51908 0.40137 1.07366
 O2300 O 0.51917 0.37810 1.09720
 C2301 C 0.52613 0.38520 1.08069
 C2302 C 0.54282 0.37493 1.06960
 C2303 C 0.55036 0.35637 1.07610
 H2304 H 0.54376 0.34913 1.08923
 O2305 O 0.60013 0.42842 1.01889
 O2306 O 0.62330 0.40466 1.01932
 C2307 C 0.61628 0.42101 1.02611
 C2308 C 0.62667 0.43124 1.04293
 C2309 C 0.64566 0.42449 1.04968
 H2310 H 0.65312 0.41239 1.04176
 O2311 O 0.39869 0.57153 1.01952
 O2312 O 0.37539 0.59520 1.01942
 C2313 C 0.38211 0.57875 1.02613
 C2314 C 0.37079 0.56806 1.04204
 C2315 C 0.35168 0.57482 1.04848
 H2316 H 0.34486 0.58770 1.04131
 Cu2317 Cu 0.49927 0.41744 1.08517
 Cu2318 Cu 0.49914 0.38968 1.11354
 Cu2319 Cu 0.49878 0.57996 1.08442
 Cu2320 Cu 0.49874 0.60816 1.11230
 Cu2321 Cu 0.41517 0.41583 0.99877
 Cu2322 Cu 0.38726 0.38809 0.99894
 Cu2323 Cu 0.58427 0.41734 0.99895
 Cu2324 Cu 0.61204 0.38875 0.99939
 Cu2325 Cu 0.41526 0.58273 1.00022
 Cu2326 Cu 0.38739 0.61126 1.00000
 Cu2327 Cu 0.58550 0.57762 0.99786
 Cu2328 Cu 0.61339 0.60542 0.99757
 Cu2329 Cu 0.41293 0.49943 1.08267
 Cu2330 Cu 0.38434 0.49952 1.11110
 Cu2331 Cu 0.58379 0.49967 1.08561
 Cu2332 Cu 0.61220 0.49900 1.11375
 C2333 C 0.55134 0.44836 1.11977
 H2334 H 0.54497 0.45459 1.10603
 C2335 C 0.56885 0.43158 1.15461
 C2336 C 0.44439 0.55073 1.11724
 H2337 H 0.45029 0.54508 1.10295
 C2338 C 0.42835 0.56596 1.15376
 C2339 C 0.37950 0.55147 1.05150
 H2340 H 0.39438 0.54636 1.04673
 C2341 C 0.34151 0.56549 1.06455
 C2342 C 0.61724 0.44734 1.05291
 H2343 H 0.60249 0.45246 1.04798
 C2344 C 0.65501 0.43347 1.06639
 C2345 C 0.55184 0.38414 1.05263
 H2346 H 0.54663 0.39868 1.04785
 C2347 C 0.56627 0.34699 1.06539
 C2348 C 0.44654 0.61553 1.05289
 H2349 H 0.45128 0.60096 1.04768
 C2350 C 0.43381 0.65288 1.06727
 C2351 C 0.44561 0.44845 1.11803
 H2352 H 0.45059 0.45263 1.10292
 C2353 C 0.43189 0.43724 1.15680
 C2354 C 0.55190 0.55050 1.12019
 H2355 H 0.54727 0.54532 1.10538
 C2356 C 0.56419 0.56483 1.15808
 C2357 C 0.44627 0.38387 1.05312
 H2358 H 0.45096 0.39827 1.04769
 C2359 C 0.43386 0.34684 1.06802
 C2360 C 0.55337 0.61069 1.05181
 H2361 H 0.54840 0.59631 1.04671
 C2362 C 0.56660 0.64764 1.06570
 C2363 C 0.38005 0.44774 1.05104
 H2364 H 0.39496 0.45255 1.04637
 C2365 C 0.34198 0.43441 1.06369
 C2366 C 0.61937 0.54798 1.05151
 H2367 H 0.60447 0.54329 1.04692
 C2368 C 0.65736 0.56110 1.06391
 C2369 C 1.11779 1.13465 1.25811
 C2370 C 1.11655 1.11447 1.25386
 C2371 C 1.10436 1.10619 1.23725
 C2372 C 1.10946 1.08726 1.22997
 C2373 C 1.09882 1.07890 1.21398
 C2374 C 1.08252 1.08922 1.20511
 C2375 C 1.07724 1.10808 1.21258
 C2376 C 1.08795 1.11649 1.22858
 C2377 C 1.07134 1.08130 1.18755
 C2378 C 1.07199 1.06141 1.18162
 H2379 H 1.12589 1.10418 1.26234
 H2380 H 1.12206 1.07906 1.23642
 H2381 H 1.10389 1.06464 1.20840
 H2382 H 1.06479 1.11637 1.20600
 H2383 H 1.08319 1.13089 1.23413
 H2384 H 1.06268 1.09185 1.17871
 H2385 H 1.10925 1.14540 1.24938
 H2386 H 1.08066 1.05075 1.19029
 C2387 C 1.11301 0.64105 0.75851
 C2388 C 1.11679 0.62347 0.74797
 C2389 C 1.10565 0.61727 0.72966
 C2390 C 1.11390 0.60188 0.71782
 C2391 C 1.10402 0.59534 0.70047
 C2392 C 1.08546 0.60392 0.69470
 C2393 C 1.07724 0.61942 0.70640
 C2394 C 1.08711 0.62596 0.72383
 C2395 C 1.07482 0.59743 0.67623
 C2396 C 1.07687 0.57821 0.66862
 H2397 H 1.12899 0.61387 0.75301
 H2398 H 1.12819 0.59500 0.72188
 H2399 H 1.11124 0.58385 0.69143
 H2400 H 1.06300 0.62633 0.70218
 H2401 H 1.07995 0.63758 0.73270
 H2402 H 1.06540 0.60821 0.66850
 H2403 H 1.10140 0.65131 0.75353
 H2404 H 1.08580 0.56750 0.67702
 C2405 C 0.61212 1.13622 0.76499
 C2406 C 0.61784 1.11988 0.75313
 C2407 C 0.60592 1.11183 0.73609
 C2408 C 0.61280 1.09424 0.72687
 C2409 C 0.60250 1.08609 0.71051
 C2410 C 0.58491 1.09533 0.70304
 C2411 C 0.57810 1.11303 0.71207
 C2412 C 0.58842 1.12122 0.72846
 C2413 C 0.57398 1.08755 0.68526
 C2414 C 0.57550 1.06785 0.67881
 H2415 H 0.63190 1.11225 0.75648
 H2416 H 0.62636 1.08681 0.73221
 H2417 H 0.60877 1.07287 0.70353
 H2418 H 0.56475 1.12059 0.70640
 H2419 H 0.58268 1.13496 0.73475
 H2420 H 0.56473 1.09795 0.67682
 H2421 H 0.59796 1.14386 0.76229
 H2422 H 0.58459 1.05741 0.68735
 C2423 C 0.62993 0.61833 1.26590
 C2424 C 0.61351 0.62321 1.25363
 C2425 C 0.60756 0.61096 1.23590
 C2426 C 0.58783 0.61273 1.22839
 C2427 C 0.58172 0.60150 1.21169
 C2428 C 0.59528 0.58814 1.20206
 C2429 C 0.61513 0.58672 1.20932
 C2430 C 0.62124 0.59797 1.22598
 C2431 C 0.58971 0.57634 1.18388
 C2432 C 0.56976 0.57320 1.17801
 H2433 H 0.60433 0.63609 1.25747
 H2434 H 0.57708 0.62286 1.23547
 H2435 H 0.56651 0.60377 1.20622
 H2436 H 0.62602 0.57691 1.20200
 H2437 H 0.63683 0.59668 1.23067
 H2438 H 0.60183 0.57041 1.17445
 H2439 H 0.63844 0.60484 1.26300
 H2440 H 0.55750 0.57887 1.18736
 C2441 C 0.85747 0.86467 1.25121
 C2442 C 0.87776 0.86718 1.24599
 C2443 C 0.88394 0.88050 1.22921
 C2444 C 0.90282 0.88972 1.23000
 C2445 C 0.90884 0.90272 1.21459
 C2446 C 0.89614 0.90652 1.19794
 C2447 C 0.87727 0.89734 1.19719
 C2448 C 0.87129 0.88431 1.21252
 C2449 C 0.90228 0.91939 1.18083
 C2450 C 0.92241 0.92119 1.17480
 H2451 H 0.88943 0.86062 1.25538
 H2452 H 0.91280 0.88709 1.24272
 H2453 H 0.92333 0.90989 1.21589
 H2454 H 0.86731 0.89989 1.18443
 H2455 H 0.85691 0.87702 1.21099
 H2456 H 0.89055 0.92526 1.17104
 H2457 H 0.84599 0.87264 1.24275
 H2458 H 0.93401 0.91338 1.18324
 C2459 C 0.89075 0.36893 0.75527
 C2460 C 0.88878 0.38846 0.74897
 C2461 C 0.90141 0.39652 0.73239
 C2462 C 0.90077 0.41692 0.72842
 C2463 C 0.91214 0.42492 0.71250
 C2464 C 0.92415 0.41254 0.69995
 C2465 C 0.92519 0.39220 0.70432
 C2466 C 0.91396 0.38424 0.72034
 C2467 C 0.93544 0.42001 0.68201
 C2468 C 0.93153 0.43837 0.67295
 H2469 H 0.87807 0.39823 0.75667
 H2470 H 0.89143 0.42671 0.73766
 H2471 H 0.91141 0.44077 0.71028
 H2472 H 0.93446 0.38234 0.69507
 H2473 H 0.91489 0.36843 0.72306
 H2474 H 0.94581 0.40974 0.67470
 H2475 H 0.88341 0.36505 0.76456
 H2476 H 0.91999 0.44795 0.67943
 C2477 C 0.38838 0.87961 0.77703
 C2478 C 0.38011 0.89093 0.76146
 C2479 C 0.39232 0.89644 0.74342
 C2480 C 0.38306 0.89693 0.72436
 C2481 C 0.39439 0.90078 0.70683
 C2482 C 0.41523 0.90474 0.70806
 C2483 C 0.42451 0.90424 0.72713
 C2484 C 0.41317 0.90024 0.74468
 C2485 C 0.42735 0.90995 0.68980
 C2486 C 0.41853 0.91991 0.67353
 H2487 H 0.36384 0.89299 0.76095
 H2488 H 0.36710 0.89380 0.72296
 H2489 H 0.38679 0.90038 0.69235
 H2490 H 0.44049 0.90729 0.72850
 H2491 H 0.42073 0.90032 0.75920
 H2492 H 0.44362 0.90794 0.69014
 H2493 H 0.40425 0.87556 0.77636
 H2494 H 0.40265 0.92388 0.67463
 C2495 C 0.38630 0.37009 1.26587
 C2496 C 0.38206 0.38870 1.25770
 C2497 C 0.39429 0.39657 1.24067
 C2498 C 0.38487 0.40818 1.22578
 C2499 C 0.39574 0.41443 1.20869
 C2500 C 0.41638 0.40947 1.20639
 C2501 C 0.42590 0.39825 1.22154
 C2502 C 0.41505 0.39202 1.23862
 C2503 C 0.42800 0.41502 1.18799
 C2504 C 0.42322 0.43200 1.17689
 H2505 H 0.36859 0.39677 1.26246
 H2506 H 0.36891 0.41180 1.22700
 H2507 H 0.38771 0.42256 1.19704
 H2508 H 0.44178 0.39431 1.22014
 H2509 H 0.42294 0.38360 1.25016
 H2510 H 0.44046 0.40550 1.18338
 H2511 H 0.39886 0.36154 1.25968
 H2512 H 0.41165 0.44187 1.18296
 C2513 C 0.87326 1.12497 0.73635
 C2514 C 0.88958 1.12970 0.74847
 C2515 C 0.89508 1.11763 0.76649
 C2516 C 0.91158 1.12326 0.77832
 C2517 C 0.91706 1.11231 0.79552
 C2518 C 0.90620 1.09531 0.80120
 C2519 C 0.88953 1.08982 0.78950
 C2520 C 0.88405 1.10077 0.77228
 C2521 C 0.91134 1.08356 0.81961
 C2522 C 0.93068 1.08338 0.82803
 H2523 H 0.89842 1.14268 0.74478
 H2524 H 0.92018 1.13629 0.77436
 H2525 H 0.92952 1.11756 0.80451
 H2526 H 0.88076 1.07695 0.79364
 H2527 H 0.87115 1.09604 0.76358
 H2528 H 0.89947 1.07501 0.82669
 H2529 H 0.87091 1.13283 0.72621
 H2530 H 0.94254 1.09149 0.82040
 C2531 C 0.86146 0.63150 0.24436
 C2532 C 0.88162 0.62618 0.24748
 C2533 C 0.88772 0.61251 0.26413
 C2534 C 0.90531 0.60082 0.26191
 C2535 C 0.91127 0.58767 0.27729
 C2536 C 0.89982 0.58611 0.29534
 C2537 C 0.88212 0.59757 0.29744
 C2538 C 0.87623 0.61078 0.28216
 C2539 C 0.90633 0.57339 0.31254
 C2540 C 0.92671 0.57073 0.31726
 H2541 H 0.89288 0.63064 0.23640
 H2542 H 0.91434 0.60171 0.24814
 H2543 H 0.92476 0.57869 0.27498
 H2544 H 0.87313 0.59675 0.31125
 H2545 H 0.86289 0.61988 0.28477
 H2546 H 0.89498 0.56865 0.32341
 H2547 H 0.84989 0.62529 0.25408
 H2548 H 0.93795 0.57760 0.30758
 C2549 C 0.36924 1.12036 0.23578
 C2550 C 0.38600 1.12527 0.24745
 C2551 C 0.39235 1.11361 0.26565
 C2552 C 0.40461 1.12257 0.28026
 C2553 C 0.41062 1.11221 0.29772
 C2554 C 0.40470 1.09243 0.30088
 C2555 C 0.39252 1.08345 0.28625
 C2556 C 0.38657 1.09378 0.26878
 C2557 C 0.41050 1.08097 0.31937
 C2558 C 0.42774 1.08520 0.33071
 H2559 H 0.39421 1.13860 0.24370
 H2560 H 0.40931 1.13779 0.27832
 H2561 H 0.41950 1.11995 0.30884
 H2562 H 0.38775 1.06826 0.28824
 H2563 H 0.37769 1.08598 0.25771
 H2564 H 0.40114 1.06860 0.32363
 H2565 H 0.36018 1.10779 0.24013
 H2566 H 0.43742 1.09693 0.32529
 C2567 C 0.36530 0.61914 0.73301
 C2568 C 0.38062 0.62447 0.74634
 C2569 C 0.38675 0.61219 0.76414
 C2570 C 0.40550 0.61571 0.77321
 C2571 C 0.41184 0.60467 0.79006
 C2572 C 0.39953 0.58971 0.79831
 C2573 C 0.38058 0.58649 0.78953
 C2574 C 0.37423 0.59755 0.77267
 C2575 C 0.40549 0.57797 0.81655
 C2576 C 0.42550 0.57607 0.82302
 H2577 H 0.38887 0.63794 0.74335
 H2578 H 0.41531 0.62711 0.76724
 H2579 H 0.42619 0.60833 0.79676
 H2580 H 0.37060 0.57538 0.79578
 H2581 H 0.35935 0.59475 0.76672
 H2582 H 0.39364 0.57094 0.82530
 H2583 H 0.35755 0.60527 0.73511
 H2584 H 0.43738 0.58273 0.81405
 C2585 C 1.11372 0.86241 0.74086
 C2586 C 1.12234 0.87570 0.75439
 C2587 C 1.11200 0.88297 0.77292
 C2588 C 1.11748 0.90145 0.78074
 C2589 C 1.10732 0.90946 0.79753
 C2590 C 1.09145 0.89905 0.80690
 C2591 C 1.08675 0.88007 0.79977
 C2592 C 1.09690 0.87207 0.78291
 C2593 C 1.07990 0.90731 0.82432
 C2594 C 1.07834 0.92761 0.82816
 H2595 H 1.13637 0.88273 0.75017
 H2596 H 1.12942 0.90992 0.77358
 H2597 H 1.11212 0.92369 0.80315
 H2598 H 1.07497 0.87155 0.80709
 H2599 H 1.09289 0.85740 0.77784
 H2600 H 1.07222 0.89704 0.83431
 H2601 H 1.09897 0.85633 0.74391
 H2602 H 1.08589 0.93806 0.81830
 C2603 C 1.11443 0.35582 0.23440
 C2604 C 1.11953 0.37265 0.24544
 C2605 C 1.10768 0.38078 0.26273
 C2606 C 1.11418 0.39853 0.27147
 C2607 C 1.10379 0.40690 0.28790
 C2608 C 1.08650 0.39772 0.29590
 C2609 C 1.08007 0.37987 0.28737
 C2610 C 1.09047 0.37146 0.27088
 C2611 C 1.07560 0.40579 0.31377
 C2612 C 1.07608 0.42580 0.31908
 H2613 H 1.13294 0.38065 0.24103
 H2614 H 1.12750 0.40591 0.26567
 H2615 H 1.10974 0.42024 0.29457
 H2616 H 1.06694 0.37239 0.29347
 H2617 H 1.08496 0.35768 0.26487
 H2618 H 1.06745 0.39540 0.32319
 H2619 H 1.10105 0.34747 0.23802
 H2620 H 1.08394 0.43615 0.30936
 C2621 C 0.61165 0.86792 0.22983
 C2622 C 0.61946 0.88251 0.24255
 C2623 C 0.60820 0.89116 0.26013
 C2624 C 0.61912 0.90008 0.27580
 C2625 C 0.60917 0.90832 0.29270
 C2626 C 0.58791 0.90813 0.29417
 C2627 C 0.57698 0.89933 0.27841
 C2628 C 0.58695 0.89102 0.26154
 C2629 C 0.57666 0.91632 0.31204
 C2630 C 0.58491 0.92972 0.32587
 H2631 H 0.63494 0.88710 0.24022
 H2632 H 0.63549 0.90042 0.27512
 H2633 H 0.61830 0.91442 0.30467
 H2634 H 0.56062 0.89897 0.27909
 H2635 H 0.57791 0.88480 0.24956
 H2636 H 0.56102 0.91212 0.31376
 H2637 H 0.59676 0.86207 0.23277
 H2638 H 0.59983 0.93546 0.32283
 C2639 C 0.63765 0.37749 0.73326
 C2640 C 0.61848 0.37564 0.74200
 C2641 C 0.61196 0.38752 0.75991
 C2642 C 0.59145 0.39255 0.76238
 C2643 C 0.58487 0.40391 0.77901
 C2644 C 0.59867 0.41012 0.79386
 C2645 C 0.61919 0.40509 0.79134
 C2646 C 0.62578 0.39385 0.77464
 C2647 C 0.59230 0.42157 0.81218
 C2648 C 0.57257 0.42139 0.81994
 H2649 H 0.60750 0.36628 0.73471
 H2650 H 0.58051 0.38793 0.75122
 H2651 H 0.56902 0.40794 0.77995
 H2652 H 0.63015 0.40960 0.80253
 H2653 H 0.64164 0.38984 0.77355
 H2654 H 0.60397 0.42877 0.82082
 H2655 H 0.64799 0.38823 0.73938
 H2656 H 0.56141 0.41253 0.81233
 C2657 C 1.25316 1.13218 1.12516
 C2658 C 1.24604 1.11307 1.12845
 C2659 C 1.22788 1.10545 1.11817
 C2660 C 1.22634 1.08504 1.11457
 C2661 C 1.20959 1.07743 1.10448
 C2662 C 1.19381 1.09012 1.09811
 C2663 C 1.19529 1.11050 1.10193
 C2664 C 1.21206 1.11810 1.11193
 C2665 C 1.17576 1.08288 1.08727
 C2666 C 1.16970 1.06311 1.08727
 H2667 H 1.25480 1.10291 1.13771
 H2668 H 1.23833 1.07499 1.11923
 H2669 H 1.20935 1.06170 1.10145
 H2670 H 1.18335 1.12061 1.09728
 H2671 H 1.21241 1.13385 1.11497
 H2672 H 1.16612 1.09391 1.08017
 H2673 H 1.24552 1.14186 1.11451
 H2674 H 1.17796 1.05234 1.09621
 C2675 C 1.25920 0.63856 0.61159
 C2676 C 1.25125 0.61959 0.61252
 C2677 C 1.23476 0.61304 0.59907
 C2678 C 1.22347 0.59647 0.60477
 C2679 C 1.20768 0.58993 0.59261
 C2680 C 1.20302 0.59974 0.57432
 C2681 C 1.21431 0.61626 0.56856
 C2682 C 1.23020 0.62272 0.58064
 C2683 C 1.18587 0.59361 0.56163
 C2684 C 1.17958 0.57401 0.56103
 H2685 H 1.25704 0.60925 0.62371
 H2686 H 1.22664 0.58875 0.61885
 H2687 H 1.19885 0.57752 0.59789
 H2688 H 1.21096 0.62405 0.55457
 H2689 H 1.23892 0.63513 0.57524
 H2690 H 1.17763 0.60492 0.55335
 H2691 H 1.25307 0.64938 0.60115
 H2692 H 1.18845 0.56281 0.56883
 C2693 C 0.75723 1.13896 0.62035
 C2694 C 0.75033 1.11975 0.62344
 C2695 C 0.73251 1.11199 0.61276
 C2696 C 0.73143 1.09162 0.60880
 C2697 C 0.71494 1.08387 0.59842
 C2698 C 0.69897 1.09638 0.59217
 C2699 C 0.70004 1.11673 0.59627
 C2700 C 0.71656 1.12447 0.60654
 C2701 C 0.68104 1.08894 0.58132
 C2702 C 0.67525 1.06911 0.58138
 H2703 H 0.75903 1.10965 0.63282
 H2704 H 0.74357 1.08172 0.61343
 H2705 H 0.71503 1.06818 0.59514
 H2706 H 0.68794 1.12669 0.59169
 H2707 H 0.71660 1.14018 0.60983
 H2708 H 0.67116 1.09988 0.57442
 H2709 H 0.74974 1.14856 0.60953
 H2710 H 0.68382 1.05840 0.59011
 C2711 C 0.75170 0.62565 1.13731
 C2712 C 0.74780 0.62133 1.11702
 C2713 C 0.73109 0.60847 1.11052
 C2714 C 0.72394 0.61032 1.09062
 C2715 C 0.70818 0.59853 1.08382
 C2716 C 0.69942 0.58430 1.09675
 C2717 C 0.70668 0.58235 1.11662
 C2718 C 0.72244 0.59420 1.12344
 C2719 C 0.68204 0.57216 1.09043
 C2720 C 0.67700 0.56914 1.07013
 H2721 H 0.75700 0.62807 1.10529
 H2722 H 0.73035 0.62120 1.08039
 H2723 H 0.70266 0.60108 1.06862
 H2724 H 0.70018 0.57156 1.12689
 H2725 H 0.72791 0.59190 1.13870
 H2726 H 0.67243 0.56613 1.10225
 H2727 H 0.74196 0.62003 1.14921
 H2728 H 0.68669 0.57480 1.05821
 C2729 C 1.26388 0.86223 0.88480
 C2730 C 1.25434 0.88052 0.88169
 C2731 C 1.23627 0.88718 0.89355
 C2732 C 1.22358 0.90190 0.88536
 C2733 C 1.20622 0.90830 0.89585
 C2734 C 1.20127 0.90028 0.91500
 C2735 C 1.21400 0.88564 0.92325
 C2736 C 1.23140 0.87928 0.91279
 C2737 C 1.18268 0.90634 0.92631
 C2738 C 1.17360 0.92500 0.92391
 H2739 H 1.25966 0.88991 0.86946
 H2740 H 1.22692 0.90822 0.87059
 H2741 H 1.19650 0.91917 0.88864
 H2742 H 1.21056 0.87923 0.93796
 H2743 H 1.24103 0.86836 0.92001
 H2744 H 1.17627 0.89578 0.93683
 H2745 H 1.25799 0.85216 0.89611
 H2746 H 1.18099 0.93557 0.91406
 C2747 C 1.26962 0.36582 0.38067
 C2748 C 1.26040 0.38403 0.37629
 C2749 C 1.24260 0.39172 0.38782
 C2750 C 1.22987 0.40580 0.37861
 C2751 C 1.21264 0.41300 0.38876
 C2752 C 1.20791 0.40640 0.40851
 C2753 C 1.22073 0.39247 0.41780
 C2754 C 1.23800 0.38535 0.40770
 C2755 C 1.18939 0.41308 0.41944
 C2756 C 1.18012 0.43142 0.41576
 H2757 H 1.26564 0.39251 0.36335
 H2758 H 1.23304 0.41096 0.36333
 H2759 H 1.20283 0.42329 0.38083
 H2760 H 1.21743 0.38719 0.43301
 H2761 H 1.24772 0.37504 0.41568
 H2762 H 1.18309 0.40313 0.43063
 H2763 H 1.26364 0.35679 0.39283
 H2764 H 1.18720 0.44139 0.40504
 C2765 C 0.75078 0.87531 0.35898
 C2766 C 0.74720 0.87952 0.37943
 C2767 C 0.73112 0.89327 0.38656
 C2768 C 0.73232 0.90100 0.40629
 C2769 C 0.71706 0.91346 0.41391
 C2770 C 0.70019 0.91823 0.40193
 C2771 C 0.69921 0.91093 0.38206
 C2772 C 0.71440 0.89840 0.37447
 C2773 C 0.68300 0.93002 0.40993
 C2774 C 0.67715 0.92926 0.43030
 H2775 H 0.75711 0.87309 0.39073
 H2776 H 0.74508 0.89735 0.41586
 H2777 H 0.71852 0.91928 0.42913
 H2778 H 0.68630 0.91438 0.37260
 H2779 H 0.71257 0.89241 0.35939
 H2780 H 0.67304 0.93702 0.39902
 H2781 H 0.74211 0.88268 0.34729
 H2782 H 0.68585 0.92026 0.44077
 C2783 C 0.76828 0.37927 0.86641
 C2784 C 0.75536 0.37348 0.88211
 C2785 C 0.73708 0.38520 0.88809
 C2786 C 0.72881 0.38268 0.90759
 C2787 C 0.71161 0.39345 0.91374
 C2788 C 0.70226 0.40709 0.90044
 C2789 C 0.71024 0.40922 0.88077
 C2790 C 0.72740 0.39842 0.87462
 C2791 C 0.68376 0.41860 0.90614
 C2792 C 0.67740 0.42144 0.92622
 H2793 H 0.75911 0.36035 0.89082
 H2794 H 0.73569 0.37234 0.91815
 H2795 H 0.70558 0.39065 0.92876
 H2796 H 0.70314 0.41926 0.87007
 H2797 H 0.73271 0.40023 0.85916
 H2798 H 0.67461 0.42468 0.89401
 H2799 H 0.76540 0.39305 0.85849
 H2800 H 0.68651 0.41562 0.93846
 C2801 C 0.74043 0.85902 1.12505
 C2802 C 0.74472 0.87908 1.12272
 C2803 C 0.76193 0.88625 1.11018
 C2804 C 0.76143 0.90575 1.10278
 C2805 C 0.77736 0.91302 1.09090
 C2806 C 0.79430 0.90094 1.08639
 C2807 C 0.79474 0.88141 1.09366
 C2808 C 0.77887 0.87417 1.10557
 C2809 C 0.81186 0.90823 1.07450
 C2810 C 0.81721 0.92817 1.07395
 H2811 H 0.73450 0.88997 1.12935
 H2812 H 0.74858 0.91536 1.10604
 H2813 H 0.77621 0.92800 1.08514
 H2814 H 0.80764 0.87182 1.09048
 H2815 H 0.78022 0.85924 1.11142
 H2816 H 0.82215 0.89733 1.06797
 H2817 H 0.74959 0.84799 1.11727
 H2818 H 0.80825 0.93883 1.08250
 C2819 C 0.74700 0.36339 0.61277
 C2820 C 0.75276 0.38320 0.61304
 C2821 C 0.77106 0.39046 0.60242
 C2822 C 0.77221 0.41059 0.59721
 C2823 C 0.78945 0.41801 0.58754
 C2824 C 0.80606 0.40544 0.58323
 C2825 C 0.80484 0.38530 0.58833
 C2826 C 0.78762 0.37788 0.59796
 C2827 C 0.82476 0.41266 0.57335
 C2828 C 0.83101 0.43234 0.57433
 H2829 H 0.74320 0.39397 0.62077
 H2830 H 0.75966 0.42058 0.60048
 H2831 H 0.78958 0.43350 0.58329
 H2832 H 0.81742 0.37531 0.58518
 H2833 H 0.78760 0.36241 0.60226
 H2834 H 0.83472 0.40165 0.56655
 H2835 H 0.75534 0.35275 0.60362
 H2836 H 0.82227 0.44283 0.58330
 C2837 C 0.23656 0.87671 0.63577
 C2838 C 0.24714 0.87366 0.61761
 C2839 C 0.26473 0.88587 0.61140
 C2840 C 0.27839 0.87835 0.59684
 C2841 C 0.29507 0.88944 0.59055
 C2842 C 0.29830 0.90852 0.59850
 C2843 C 0.28464 0.91605 0.61303
 C2844 C 0.26794 0.90498 0.61929
 C2845 C 0.31604 0.92055 0.59248
 C2846 C 0.32568 0.91836 0.57364
 H2847 H 0.24264 0.86171 0.60771
 H2848 H 0.27631 0.86372 0.59047
 H2849 H 0.30559 0.88280 0.57981
 H2850 H 0.28675 0.93069 0.61938
 H2851 H 0.25748 0.91167 0.63002
 H2852 H 0.32133 0.93142 0.60319
 H2853 H 0.24168 0.88773 0.64642
 H2854 H 0.31930 0.90814 0.56283
 C2855 C 0.23910 0.37747 1.13408
 C2856 C 0.24908 0.37609 1.11542
 C2857 C 0.26588 0.38920 1.10927
 C2858 C 0.27780 0.38367 1.09246
 C2859 C 0.29381 0.39547 1.08602
 C2860 C 0.29813 0.41327 1.09614
 C2861 C 0.28630 0.41883 1.11299
 C2862 C 0.27019 0.40706 1.11940
 C2863 C 0.31539 0.42569 1.08994
 C2864 C 0.32230 0.42620 1.06989
 H2865 H 0.24466 0.36462 1.10490
 H2866 H 0.27488 0.37002 1.08441
 H2867 H 0.30303 0.39033 1.07339
 H2868 H 0.28938 0.43244 1.12106
 H2869 H 0.26114 0.41225 1.13209
 H2870 H 0.32307 0.43401 1.10155
 H2871 H 0.24359 0.38828 1.14520
 H2872 H 0.31392 0.41835 1.05841
 C2873 C 0.73830 1.11806 0.86228
 C2874 C 0.74818 1.12161 0.88056
 C2875 C 0.76585 1.11013 0.88801
 C2876 C 0.77588 1.11714 0.90524
 C2877 C 0.79272 1.10708 0.91289
 C2878 C 0.79983 1.08961 0.90351
 C2879 C 0.78988 1.08259 0.88626
 C2880 C 0.77297 1.09262 0.87863
 C2881 C 0.81804 1.07893 0.91071
 C2882 C 0.82487 1.08001 0.93071
 H2883 H 0.74294 1.13381 0.88995
 H2884 H 0.77081 1.13063 0.91271
 H2885 H 0.80037 1.11337 0.92578
 H2886 H 0.79517 1.06921 0.87872
 H2887 H 0.76565 1.08645 0.86551
 H2888 H 0.82632 1.07014 0.89965
 H2889 H 0.74310 1.10616 0.85234
 H2890 H 0.81632 1.08864 0.94172
 C2891 C 0.74213 0.63917 0.38013
 C2892 C 0.74778 0.61924 0.38141
 C2893 C 0.76625 0.61225 0.39191
 C2894 C 0.76761 0.59235 0.39797
 C2895 C 0.78503 0.58503 0.40739
 C2896 C 0.80158 0.59750 0.41069
 C2897 C 0.80015 0.61744 0.40480
 C2898 C 0.78276 0.62474 0.39537
 C2899 C 0.82050 0.59038 0.42020
 C2900 C 0.82682 0.57056 0.41997
 H2901 H 0.73808 0.60818 0.37485
 H2902 H 0.75509 0.58244 0.39549
 H2903 H 0.78534 0.56970 0.41220
 H2904 H 0.81270 0.62733 0.40716
 H2905 H 0.78261 0.64002 0.39043
 H2906 H 0.83065 0.60149 0.42595
 H2907 H 0.75076 0.65034 0.38786
 H2908 H 0.81786 0.55973 0.41206
 C2909 C 0.23558 1.11764 0.36778
 C2910 C 0.24547 1.12097 0.38606
 C2911 C 0.26352 1.10927 0.39250
 C2912 C 0.27608 1.11702 0.40755
 C2913 C 0.29331 1.10657 0.41390
 C2914 C 0.29825 1.08795 0.40545
 C2915 C 0.28576 1.08020 0.39039
 C2916 C 0.26845 1.09057 0.38415
 C2917 C 0.31653 1.07659 0.41166
 C2918 C 0.32467 1.07817 0.43110
 H2919 H 0.24026 1.13300 0.39572
 H2920 H 0.27271 1.13135 0.41425
 H2921 H 0.30292 1.11335 0.42509
 H2922 H 0.28924 1.06591 0.38362
 H2923 H 0.25893 1.08363 0.37303
 H2924 H 0.32338 1.06666 0.40064
 H2925 H 0.24120 1.10639 0.35745
 H2926 H 0.31686 1.08755 0.44203
 C2927 C 0.23516 0.61474 0.86176
 C2928 C 0.24657 0.61890 0.87895
 C2929 C 0.26443 0.60718 0.88562
 C2930 C 0.27620 0.61482 0.90137
 C2931 C 0.29309 0.60443 0.90844
 C2932 C 0.29852 0.58596 0.90002
 C2933 C 0.28695 0.57836 0.88412
 C2934 C 0.26997 0.58875 0.87706
 C2935 C 0.31653 0.57473 0.90699
 C2936 C 0.32413 0.57661 0.92663
 H2937 H 0.24245 0.63173 0.88798
 H2938 H 0.27240 0.62903 0.90815
 H2939 H 0.30205 0.61117 0.92019
 H2940 H 0.29094 0.56423 0.87729
 H2941 H 0.26129 0.58209 0.86510
 H2942 H 0.32392 0.56491 0.89621
 H2943 H 0.23901 0.60235 0.85206
 H2944 H 0.31614 0.58605 0.93737
 C2945 C 1.13630 1.25505 1.10998
 C2946 C 1.11714 1.24706 1.11314
 C2947 C 1.11025 1.22825 1.10420
 C2948 C 1.08942 1.22464 1.10361
 C2949 C 1.08217 1.20667 1.09634
 C2950 C 1.09572 1.19172 1.08980
 C2951 C 1.11657 1.19543 1.09015
 C2952 C 1.12381 1.21347 1.09736
 C2953 C 1.08879 1.17233 1.08219
 C2954 C 1.06940 1.16490 1.08565
 H2955 H 1.10634 1.25516 1.12247
 H2956 H 1.07866 1.23580 1.10881
 H2957 H 1.06599 1.20472 1.09576
 H2958 H 1.12732 1.18420 1.08512
 H2959 H 1.13999 1.21551 1.09802
 H2960 H 1.09991 1.16314 1.07443
 H2961 H 1.14674 1.24843 1.09915
 H2962 H 1.05900 1.17288 1.09552
 C2963 C 1.11197 0.77371 0.61292
 C2964 C 1.12135 0.75734 0.60377
 C2965 C 1.10987 0.73983 0.59680
 C2966 C 1.11983 0.72140 0.59527
 C2967 C 1.10936 0.70449 0.58925
 C2968 C 1.08867 0.70572 0.58443
 C2969 C 1.07875 0.72415 0.58583
 C2970 C 1.08923 0.74106 0.59175
 C2971 C 1.07707 0.68813 0.57798
 C2972 C 1.08604 0.67246 0.56729
 H2973 H 1.13771 0.75666 0.60306
 H2974 H 1.13569 0.72002 0.59908
 H2975 H 1.11743 0.69046 0.58876
 H2976 H 1.06290 0.72553 0.58200
 H2977 H 1.08111 0.75505 0.59206
 H2978 H 1.06080 0.68842 0.58004
 H2979 H 1.09576 0.77384 0.61523
 H2980 H 1.10188 0.67347 0.56317
 C2981 C 0.63838 1.25245 0.62798
 C2982 C 0.61821 1.24659 0.62852
 C2983 C 0.61122 1.22839 0.61810
 C2984 C 0.59102 1.22721 0.61185
 C2985 C 0.58415 1.21048 0.60147
 C2986 C 0.59735 1.19442 0.59735
 C2987 C 0.61747 1.19554 0.60379
 C2988 C 0.62431 1.21220 0.61420
 C2989 C 0.59086 1.17644 0.58628
 C2990 C 0.57085 1.17001 0.58592
 H2991 H 0.60703 1.25625 0.63560
 H2992 H 0.58061 1.23943 0.61466
 H2993 H 0.56864 1.21039 0.59637
 H2994 H 0.62792 1.18336 0.60095
 H2995 H 0.63979 1.21215 0.61934
 H2996 H 0.60256 1.16703 0.57971
 H2997 H 0.64936 1.24368 0.61954
 H2998 H 0.55948 1.17819 0.59447
 C2999 C 0.63640 0.74706 1.12512
 C3000 C 0.61649 0.74210 1.12070
 C3001 C 0.61099 0.72451 1.10846
 C3002 C 0.59176 0.72395 1.09963
 C3003 C 0.58584 0.70759 1.08819
 C3004 C 0.59900 0.69125 1.08551
 C3005 C 0.61834 0.69189 1.09407
 C3006 C 0.62424 0.70823 1.10557
 C3007 C 0.59289 0.67324 1.07433
 C3008 C 0.57282 0.66710 1.07372
 H3009 H 0.60442 0.75207 1.12549
 H3010 H 0.58128 0.73629 1.10151
 H3011 H 0.57101 0.70789 1.08136
 H3012 H 0.62874 0.67948 1.09227
 H3013 H 0.63901 0.70773 1.11248
 H3014 H 0.60467 0.66345 1.06853
 H3015 H 0.64878 0.73805 1.11936
 H3016 H 0.56141 0.67577 1.08170
 C3017 C 0.87561 1.25333 0.86666
 C3018 C 0.87619 1.24831 0.88717
 C3019 C 0.88916 1.23183 0.89479
 C3020 C 0.88410 1.22248 0.91314
 C3021 C 0.89585 1.20666 0.92045
 C3022 C 0.91315 1.20005 0.90966
 C3023 C 0.91839 1.20966 0.89152
 C3024 C 0.90669 1.22547 0.88424
 C3025 C 0.92538 1.18264 0.91620
 C3026 C 0.92562 1.17572 0.93618
 H3027 H 0.86690 1.25658 0.89791
 H3028 H 0.87077 1.22715 0.92161
 H3029 H 0.89091 1.19937 0.93422
 H3030 H 0.93165 1.20494 0.88295
 H3031 H 0.91165 1.23274 0.87046
 H3032 H 0.93401 1.17475 0.90466
 H3033 H 0.88406 1.24452 0.85574
 H3034 H 0.91736 1.18390 0.94774
 C3035 C 0.87011 0.76815 0.38371
 C3036 C 0.88766 0.75769 0.37847
 C3037 C 0.89414 0.73964 0.38954
 C3038 C 0.91475 0.73462 0.39024
 C3039 C 0.92124 0.71743 0.40024
 C3040 C 0.90713 0.70461 0.40936
 C3041 C 0.88653 0.70976 0.40874
 C3042 C 0.88006 0.72701 0.39888
 C3043 C 0.91314 0.68577 0.41940
 C3044 C 0.93150 0.67604 0.41542
 H3045 H 0.89719 0.76310 0.36627
 H3046 H 0.92587 0.74414 0.38318
 H3047 H 0.93731 0.71444 0.40087
 H3048 H 0.87533 0.70018 0.41557
 H3049 H 0.86400 0.73011 0.39817
 H3050 H 0.90193 0.67864 0.42885
 H3051 H 0.86155 0.76385 0.39705
 H3052 H 0.94182 0.68245 0.40450
 C3053 C 0.37818 1.24857 0.36444
 C3054 C 0.37635 1.24241 0.38454
 C3055 C 0.38932 1.22670 0.39332
 C3056 C 0.38266 1.21683 0.41083
 C3057 C 0.39445 1.20180 0.41947
 C3058 C 0.41329 1.19657 0.41084
 C3059 C 0.42007 1.20660 0.39350
 C3060 C 0.40834 1.22167 0.38492
 C3061 C 0.42560 1.17996 0.41870
 C3062 C 0.42445 1.17354 0.43880
 H3063 H 0.36504 1.24932 0.39428
 H3064 H 0.36811 1.22051 0.41762
 H3065 H 0.38844 1.19398 0.43249
 H3066 H 0.43455 1.20282 0.38662
 H3067 H 0.41440 1.22942 0.37189
 H3068 H 0.43527 1.17220 0.40795
 H3069 H 0.38877 1.24128 0.35424
 H3070 H 0.41499 1.18160 0.44953
 C3071 C 0.37348 0.74606 0.85852
 C3072 C 0.37240 0.73880 0.87827
 C3073 C 0.38598 0.72280 0.88531
 C3074 C 0.39324 0.72343 0.90522
 C3075 C 0.40663 0.70886 0.91220
 C3076 C 0.41257 0.69303 0.89948
 C3077 C 0.40539 0.69251 0.87949
 C3078 C 0.39217 0.70722 0.87245
 C3079 C 0.42556 0.67652 0.90670
 C3080 C 0.42675 0.67133 0.92717
 H3081 H 0.36343 0.74678 0.88949
 H3082 H 0.38885 0.73546 0.91529
 H3083 H 0.41234 0.71023 0.92747
 H3084 H 0.40970 0.68047 0.86941
 H3085 H 0.38656 0.70620 0.85709
 H3086 H 0.43215 0.66666 0.89542
 H3087 H 0.38415 0.73957 0.84781
 H3088 H 0.41843 0.67998 0.93833
 C3089 C 1.13460 0.74043 0.88385
 C3090 C 1.11818 0.75230 0.87809
 C3091 C 1.11066 0.76985 0.88948
 C3092 C 1.09214 0.77839 0.88366
 C3093 C 1.08440 0.79512 0.89358
 C3094 C 1.09503 0.80369 0.90972
 C3095 C 1.11368 0.79534 0.91539
 C3096 C 1.12145 0.77858 0.90542
 C3097 C 1.08768 0.82176 0.92032
 C3098 C 1.06758 0.82838 0.91993
 H3099 H 1.10995 0.74833 0.86459
 H3100 H 1.08364 0.77215 0.87124
 H3101 H 1.07037 0.80144 0.88815
 H3102 H 1.12231 0.80184 0.92756
 H3103 H 1.13599 0.77286 0.91014
 H3104 H 1.09873 0.83027 0.92851
 H3105 H 1.14288 0.74353 0.89754
 H3106 H 1.05642 0.82004 0.91176
 C3107 C 1.13283 0.24539 0.36287
 C3108 C 1.12937 0.24978 0.38329
 C3109 C 1.11688 0.26703 0.38990
 C3110 C 1.12059 0.27568 0.40882
 C3111 C 1.10956 0.29237 0.41524
 C3112 C 1.09424 0.30060 0.40294
 C3113 C 1.09023 0.29161 0.38420
 C3114 C 1.10128 0.27492 0.37780
 C3115 C 1.08291 0.31896 0.40857
 C3116 C 1.08256 0.32683 0.42818
 H3117 H 1.13658 0.24075 0.39481
 H3118 H 1.13243 0.26980 0.41848
 H3119 H 1.11363 0.29895 0.42956
 H3120 H 1.07851 0.29754 0.37444
 H3121 H 1.09742 0.26819 0.36345
 H3122 H 1.07517 0.32689 0.39657
 H3123 H 1.12681 0.25514 0.35128
 H3124 H 1.09005 0.31896 0.44033
 C3125 C 0.63595 0.75038 0.36330
 C3126 C 0.61585 0.75504 0.36804
 C3127 C 0.61002 0.77252 0.38069
 C3128 C 0.59127 0.77267 0.39086
 C3129 C 0.58553 0.78863 0.40332
 C3130 C 0.59841 0.80491 0.40575
 C3131 C 0.61713 0.80477 0.39561
 C3132 C 0.62280 0.78892 0.38304
 C3133 C 0.59270 0.82235 0.41837
 C3134 C 0.57266 0.82857 0.42096
 H3135 H 0.60419 0.74473 0.36376
 H3136 H 0.58114 0.76026 0.38938
 H3137 H 0.57114 0.78801 0.41122
 H3138 H 0.62726 0.81718 0.39709
 H3139 H 0.63709 0.78985 0.37504
 H3140 H 0.60464 0.83190 0.42363
 H3141 H 0.64787 0.75967 0.36891
 H3142 H 0.56084 0.82034 0.41359
 C3143 C 0.63666 0.24149 0.88427
 C3144 C 0.61732 0.24980 0.88322
 C3145 C 0.61097 0.26721 0.89535
 C3146 C 0.59042 0.26977 0.90015
 C3147 C 0.58374 0.28635 0.91105
 C3148 C 0.59749 0.30099 0.91698
 C3149 C 0.61810 0.29824 0.91249
 C3150 C 0.62481 0.28157 0.90169
 C3151 C 0.59085 0.31940 0.92737
 C3152 C 0.57137 0.32730 0.92524
 H3153 H 0.60603 0.24266 0.87403
 H3154 H 0.57951 0.25883 0.89553
 H3155 H 0.56783 0.28754 0.91483
 H3156 H 0.62899 0.30928 0.91690
 H3157 H 0.64071 0.28031 0.89787
 H3158 H 0.60223 0.32795 0.93503
 H3159 H 0.64753 0.24726 0.89487
 H3160 H 0.56075 0.31974 0.91562
 C3161 C 0.86857 0.72925 1.10968
 C3162 C 0.87807 0.74615 1.11697
 C3163 C 0.88263 0.76372 1.10410
 C3164 C 0.88524 0.78211 1.11361
 C3165 C 0.88992 0.79898 1.10224
 C3166 C 0.89249 0.79785 1.08100
 C3167 C 0.88944 0.77957 1.07139
 C3168 C 0.88469 0.76264 1.08279
 C3169 C 0.89896 0.81530 1.06881
 C3170 C 0.91151 0.82965 1.07709
 H3171 H 0.88101 0.74718 1.13309
 H3172 H 0.88357 0.78345 1.12994
 H3173 H 0.89144 0.81292 1.11017
 H3174 H 0.89131 0.77826 1.05508
 H3175 H 0.88318 0.74872 1.07487
 H3176 H 0.89559 0.81575 1.05274
 H3177 H 0.86404 0.72859 1.09395
 H3178 H 0.91656 0.82752 1.09255
 C3179 C 0.87153 0.24805 0.61978
 C3180 C 0.89066 0.25594 0.62279
 C3181 C 0.89802 0.27312 0.61080
 C3182 C 0.91280 0.28544 0.61903
 C3183 C 0.91950 0.30211 0.60833
 C3184 C 0.91169 0.30664 0.58899
 C3185 C 0.89717 0.29414 0.58065
 C3186 C 0.89056 0.27746 0.59128
 C3187 C 0.91767 0.32460 0.57749
 C3188 C 0.93629 0.33378 0.58005
 H3189 H 0.90016 0.24991 0.63466
 H3190 H 0.91885 0.28242 0.63398
 H3191 H 0.93033 0.31165 0.61554
 H3192 H 0.89099 0.29722 0.56577
 H3193 H 0.87975 0.26796 0.58400
 H3194 H 0.90698 0.33048 0.56665
 H3195 H 0.86149 0.25491 0.60888
 H3196 H 0.94701 0.32714 0.59046
 C3197 C 0.37218 0.74521 0.62654
 C3198 C 0.38994 0.75475 0.63171
 C3199 C 0.39612 0.77276 0.62040
 C3200 C 0.41660 0.77604 0.61617
 C3201 C 0.42245 0.79200 0.60389
 C3202 C 0.40781 0.80505 0.59567
 C3203 C 0.38743 0.80223 0.60075
 C3204 C 0.38163 0.78635 0.61299
 C3205 C 0.41310 0.82227 0.58266
 C3206 C 0.43201 0.82485 0.57363
 H3207 H 0.40015 0.74800 0.64255
 H3208 H 0.42807 0.76598 0.62195
 H3209 H 0.43841 0.79400 0.60112
 H3210 H 0.37588 0.81229 0.59510
 H3211 H 0.36573 0.78472 0.61659
 H3212 H 0.40182 0.83390 0.58075
 H3213 H 0.36331 0.75112 0.61412
 H3214 H 0.44376 0.81373 0.57531
 C3215 C 0.36609 0.24239 1.12271
 C3216 C 0.38552 0.25013 1.12366
 C3217 C 0.39173 0.26752 1.11119
 C3218 C 0.40787 0.27920 1.11763
 C3219 C 0.41377 0.29589 1.10645
 C3220 C 0.40378 0.30114 1.08833
 C3221 C 0.38779 0.28934 1.08179
 C3222 C 0.38196 0.27263 1.09290
 C3223 C 0.40913 0.31913 1.07645
 C3224 C 0.42839 0.32737 1.07691
 H3225 H 0.39628 0.24366 1.13415
 H3226 H 0.41570 0.27564 1.13158
 H3227 H 0.42579 0.30488 1.11239
 H3228 H 0.37987 0.29298 1.06790
 H3229 H 0.36995 0.26368 1.08689
 H3230 H 0.39749 0.32604 1.06730
 H3231 H 0.35500 0.24956 1.11312
 H3232 H 0.44001 0.31978 1.08553
 C3233 C 1.12102 1.13873 0.74457
 C3234 C 1.12195 1.11911 0.75123
 C3235 C 1.10963 1.11198 0.76867
 C3236 C 1.11658 1.09569 0.77997
 C3237 C 1.10573 1.08906 0.79696
 C3238 C 1.08745 1.09845 0.80282
 C3239 C 1.08036 1.11455 0.79134
 C3240 C 1.09118 1.12114 0.77434
 C3241 C 1.07599 1.09241 0.82125
 C3242 C 1.07713 1.07327 0.82923
 H3243 H 1.13274 1.10893 0.74428
 H3244 H 1.13071 1.08836 0.77595
 H3245 H 1.11206 1.07697 0.80573
 H3246 H 1.06633 1.12201 0.79549
 H3247 H 1.08489 1.13329 0.76564
 H3248 H 1.06661 1.10351 0.82867
 H3249 H 1.11119 1.14913 0.75248
 H3250 H 1.08602 1.06222 0.82112
 C3251 C 1.13865 0.63656 0.24302
 C3252 C 1.11846 0.63193 0.24685
 C3253 C 1.11247 0.61744 0.26264
 C3254 C 1.09449 0.60690 0.26022
 C3255 C 1.08844 0.59301 0.27475
 C3256 C 1.10016 0.58961 0.29220
 C3257 C 1.11823 0.60000 0.29451
 C3258 C 1.12427 0.61389 0.27999
 C3259 C 1.09363 0.57603 0.30860
 C3260 C 1.07328 0.57273 0.31292
 H3261 H 1.10681 0.63769 0.23691
 H3262 H 1.08519 0.60928 0.24694
 H3263 H 1.07466 0.58492 0.27219
 H3264 H 1.12745 0.59775 0.30786
 H3265 H 1.13794 0.62209 0.28270
 H3266 H 1.10490 0.57092 0.31932
 H3267 H 1.15037 0.62956 0.25200
 H3268 H 1.06187 0.57974 0.30357
 C3269 C 0.60724 1.13732 0.23832
 C3270 C 0.61467 1.12358 0.25233
 C3271 C 0.60392 1.11784 0.27120
 C3272 C 0.61403 1.10531 0.28488
 C3273 C 0.60436 1.09869 0.30247
 C3274 C 0.58428 1.10442 0.30668
 C3275 C 0.57430 1.11737 0.29341
 C3276 C 0.58390 1.12390 0.27570
 C3277 C 0.57356 1.09718 0.32487
 C3278 C 0.57710 1.07818 0.33250
 H3279 H 0.62912 1.11641 0.24938
 H3280 H 0.62947 1.10053 0.28192
 H3281 H 0.61271 1.08924 0.31281
 H3282 H 0.55885 1.12205 0.29649
 H3283 H 0.57533 1.13333 0.26562
 H3284 H 0.56244 1.10694 0.33180
 H3285 H 0.59322 1.14520 0.24122
 H3286 H 0.58773 1.06860 0.32450
 C3287 C 0.64430 0.62826 0.75393
 C3288 C 0.62380 0.62659 0.75846
 C3289 C 0.61624 0.61267 0.77395
 C3290 C 0.59710 0.60438 0.77143
 C3291 C 0.58966 0.59073 0.78548
 C3292 C 0.60117 0.58542 0.80257
 C3293 C 0.62036 0.59366 0.80504
 C3294 C 0.62780 0.60727 0.79096
 C3295 C 0.59343 0.57193 0.81841
 C3296 C 0.57285 0.57025 0.82270
 H3297 H 0.61287 0.63391 0.74878
 H3298 H 0.58800 0.60822 0.75836
 H3299 H 0.57503 0.58426 0.78278
 H3300 H 0.62944 0.58986 0.81814
 H3301 H 0.64242 0.61375 0.79364
 H3302 H 0.60427 0.56541 0.82878
 H3303 H 0.65533 0.61956 0.76222
 H3304 H 0.56202 0.57859 0.81377
 C3305 C 0.87297 0.86587 0.74429
 C3306 C 0.87249 0.88582 0.74973
 C3307 C 0.88435 0.89340 0.76706
 C3308 C 0.89063 0.91319 0.76700
 C3309 C 0.90230 0.92056 0.78291
 C3310 C 0.90768 0.90828 0.79937
 C3311 C 0.90122 0.88857 0.79948
 C3312 C 0.88957 0.88122 0.78363
 C3313 C 0.91986 0.91536 0.81669
 C3314 C 0.92098 0.93526 0.82227
 H3315 H 0.86435 0.89631 0.74030
 H3316 H 0.88681 0.92287 0.75444
 H3317 H 0.90731 0.93574 0.78202
 H3318 H 0.90499 0.87884 0.81203
 H3319 H 0.88449 0.86608 0.78462
 H3320 H 0.92649 0.90426 0.82657
 H3321 H 0.88258 0.85564 0.75254
 H3322 H 0.91254 0.94623 0.81373
 C3323 C 0.86548 0.38474 0.23404
 C3324 C 0.88008 0.37835 0.24791
 C3325 C 0.88822 0.39066 0.26454
 C3326 C 0.90340 0.38238 0.27680
 C3327 C 0.91119 0.39294 0.29312
 C3328 C 0.90405 0.41218 0.29748
 C3329 C 0.88887 0.42051 0.28531
 C3330 C 0.88106 0.40995 0.26894
 C3331 C 0.91132 0.42344 0.31517
 C3332 C 0.93054 0.42047 0.32336
 H3333 H 0.88589 0.36334 0.24677
 H3334 H 0.90908 0.36751 0.27392
 H3335 H 0.92236 0.38571 0.30258
 H3336 H 0.88302 0.43525 0.28850
 H3337 H 0.86931 0.41700 0.26014
 H3338 H 0.90101 0.43418 0.32183
 H3339 H 0.85969 0.39976 0.23452
 H3340 H 0.94080 0.41007 0.31600
 C3341 C 0.39177 0.86691 0.23494
 C3342 C 0.38814 0.88514 0.24453
 C3343 C 0.39986 0.89249 0.26204
 C3344 C 0.39998 0.91294 0.26588
 C3345 C 0.40997 0.92053 0.28277
 C3346 C 0.41976 0.90772 0.29654
 C3347 C 0.41989 0.88726 0.29250
 C3348 C 0.41002 0.87969 0.27549
 C3349 C 0.42989 0.91498 0.31516
 C3350 C 0.42638 0.93378 0.32361
 H3351 H 0.37659 0.89499 0.23860
 H3352 H 0.39232 0.92314 0.25572
 H3353 H 0.40997 0.93641 0.28479
 H3354 H 0.42735 0.87703 0.30278
 H3355 H 0.40992 0.86381 0.27330
 H3356 H 0.43933 0.90447 0.32321
 H3357 H 0.40440 0.85773 0.23969
 H3358 H 0.41543 0.94357 0.31660
 C3359 C 0.38854 0.36355 0.73552
 C3360 C 0.38690 0.38258 0.74361
 C3361 C 0.39859 0.38933 0.76126
 C3362 C 0.40169 0.40969 0.76377
 C3363 C 0.41173 0.41679 0.78080
 C3364 C 0.41852 0.40362 0.79593
 C3365 C 0.41580 0.38320 0.79319
 C3366 C 0.40586 0.37609 0.77608
 C3367 C 0.42819 0.41058 0.81477
 C3368 C 0.42526 0.42968 0.82250
 H3369 H 0.37709 0.39333 0.73629
 H3370 H 0.39631 0.42015 0.75248
 H3371 H 0.41415 0.43257 0.78193
 H3372 H 0.42094 0.37275 0.80460
 H3373 H 0.40336 0.36032 0.77488
 H3374 H 0.43627 0.39966 0.82371
 H3375 H 0.39968 0.35316 0.74129
 H3376 H 0.41526 0.43986 0.81464
 C3377 C 1.13506 0.86269 1.25213
 C3378 C 1.11465 0.86247 1.24705
 C3379 C 1.10690 0.87330 1.22907
 C3380 C 1.08711 0.88101 1.22947
 C3381 C 1.07984 0.89242 1.21327
 C3382 C 1.09222 0.89612 1.19622
 C3383 C 1.11187 0.88811 1.19569
 C3384 C 1.11909 0.87666 1.21181
 C3385 C 1.08532 0.90838 1.17889
 C3386 C 1.06502 0.91048 1.17364
 H3387 H 1.10389 0.85613 1.25763
 H3388 H 1.07743 0.87866 1.24259
 H3389 H 1.06475 0.89869 1.21443
 H3390 H 1.12165 0.89061 1.18267
 H3391 H 1.13420 0.87044 1.21063
 H3392 H 1.09675 0.91442 1.16884
 H3393 H 1.14561 0.87065 1.24259
 H3394 H 1.05370 0.90244 1.18216
 C3395 C 1.11779 0.37407 0.76643
 C3396 C 1.12562 0.38891 0.75396
 C3397 C 1.11433 0.39690 0.73620
 C3398 C 1.12504 0.40525 0.71987
 C3399 C 1.11483 0.41254 0.70279
 C3400 C 1.09355 0.41194 0.70182
 C3401 C 1.08287 0.40376 0.71824
 C3402 C 1.09306 0.39647 0.73528
 C3403 C 1.08202 0.41920 0.68390
 C3404 C 1.08967 0.43290 0.66994
 H3405 H 1.14076 0.39419 0.75669
 H3406 H 1.14140 0.40579 0.72017
 H3407 H 1.12374 0.41823 0.69029
 H3408 H 1.06651 0.40314 0.71798
 H3409 H 1.08414 0.39078 0.74778
 H3410 H 1.06657 0.41434 0.68244
 H3411 H 1.10333 0.36770 0.76281
 H3412 H 1.10435 0.43918 0.67276
 C3413 C 0.60918 0.87657 0.77773
 C3414 C 0.61758 0.88752 0.76194
 C3415 C 0.60590 0.89286 0.74356
 C3416 C 0.61632 0.89623 0.72529
 C3417 C 0.60578 0.90094 0.70759
 C3418 C 0.58454 0.90272 0.70789
 C3419 C 0.57409 0.89918 0.72610
 C3420 C 0.58463 0.89450 0.74382
 C3421 C 0.57304 0.90867 0.68963
 C3422 C 0.58137 0.92129 0.67515
 H3423 H 0.63353 0.89093 0.76229
 H3424 H 0.63266 0.89496 0.72464
 H3425 H 0.61433 0.90299 0.69367
 H3426 H 0.55776 0.90051 0.72673
 H3427 H 0.57603 0.89256 0.75770
 H3428 H 0.55728 0.90467 0.68869
 H3429 H 0.59372 0.87166 0.77670
 H3430 H 0.59639 0.92692 0.67779
 C3431 C 0.61207 0.36917 1.26895
 C3432 C 0.61954 0.38115 1.25340
 C3433 C 0.60710 0.38739 1.23584
 C3434 C 0.61690 0.39318 1.21787
 C3435 C 0.60575 0.39956 1.20111
 C3436 C 0.58449 0.40058 1.20211
 C3437 C 0.57465 0.39447 1.21992
 C3438 C 0.58580 0.38812 1.23672
 C3439 C 0.57236 0.40822 1.18494
 C3440 C 0.57984 0.42284 1.17202
 H3441 H 0.63523 0.38556 1.25361
 H3442 H 0.63326 0.39269 1.21676
 H3443 H 0.61384 0.40356 1.18738
 H3444 H 0.55830 0.39513 1.22104
 H3445 H 0.57763 0.38433 1.25043
 H3446 H 0.55688 0.40343 1.18361
 H3447 H 0.59682 0.36363 1.26802
 H3448 H 0.59453 0.42893 1.17533
 C3449 C 0.88247 1.13083 1.27335
 C3450 C 0.87699 1.11378 1.26280
 C3451 C 0.88845 1.10582 1.24499
 C3452 C 0.87901 1.09217 1.23218
 C3453 C 0.88902 1.08463 1.21498
 C3454 C 0.90889 1.09047 1.21029
 C3455 C 0.91840 1.10398 1.22317
 C3456 C 0.90843 1.11144 1.24041
 C3457 C 0.91980 1.08354 1.19175
 C3458 C 0.91538 1.06583 1.18174
 H3459 H 0.86318 1.10638 1.26718
 H3460 H 0.86365 1.08757 1.23529
 H3461 H 0.88091 1.07469 1.20518
 H3462 H 0.93369 1.10872 1.21993
 H3463 H 0.91660 1.12145 1.25006
 H3464 H 0.93178 1.09285 1.18611
 H3465 H 0.89568 1.13901 1.26872
 H3466 H 0.90382 1.05643 1.18814
 C3467 C 0.88567 0.63768 0.76265
 C3468 C 0.88126 0.62187 0.74981
 C3469 C 0.89350 0.61654 0.73142
 C3470 C 0.88538 0.60324 0.71736
 C3471 C 0.89626 0.59767 0.69991
 C3472 C 0.91574 0.60512 0.69613
 C3473 C 0.92383 0.61858 0.71003
 C3474 C 0.91297 0.62410 0.72756
 C3475 C 0.92763 0.59943 0.67769
 C3476 C 0.92532 0.58102 0.66831
 H3477 H 0.86786 0.61330 0.75302
 H3478 H 0.87042 0.59724 0.71978
 H3479 H 0.88915 0.58779 0.68925
 H3480 H 0.93875 0.62459 0.70748
 H3481 H 0.92015 0.63406 0.73803
 H3482 H 0.93849 0.60984 0.67174
 H3483 H 0.89848 0.64697 0.75939
 H3484 H 0.91521 0.57057 0.67548
 C3485 C 0.38463 1.13787 0.76412
 C3486 C 0.38037 1.12011 0.75422
 C3487 C 0.39176 1.11200 0.73657
 C3488 C 0.38444 1.09480 0.72732
 C3489 C 0.39439 1.08644 0.71059
 C3490 C 0.41208 1.09505 0.70279
 C3491 C 0.41937 1.11232 0.71190
 C3492 C 0.40941 1.12070 0.72869
 C3493 C 0.42272 1.08700 0.68470
 C3494 C 0.42109 1.06734 0.67827
 H3495 H 0.36769 1.11152 0.75956
 H3496 H 0.37080 1.08787 0.73294
 H3497 H 0.38783 1.07355 0.70360
 H3498 H 0.43288 1.11932 0.70604
 H3499 H 0.41572 1.13387 0.73530
 H3500 H 0.43195 1.09719 0.67609
 H3501 H 0.39710 1.14699 0.75933
 H3502 H 0.41191 1.05715 0.68692
 C3503 C 0.38483 0.64042 1.26224
 C3504 C 0.37965 0.62330 1.25167
 C3505 C 0.39077 0.61582 1.23347
 C3506 C 0.38172 0.60125 1.22148
 C3507 C 0.39171 0.59350 1.20438
 C3508 C 0.41115 0.60006 1.19900
 C3509 C 0.42016 0.61473 1.21086
 C3510 C 0.41021 0.62242 1.22801
 C3511 C 0.42212 0.59244 1.18083
 C3512 C 0.41884 0.57359 1.17276
 H3513 H 0.36666 0.61500 1.25682
 H3514 H 0.36676 0.59592 1.22525
 H3515 H 0.38395 0.58270 1.19526
 H3516 H 0.43510 0.62007 1.20701
 H3517 H 0.41805 0.63325 1.23698
 H3518 H 0.43318 0.60205 1.17392
 H3519 H 0.39723 0.64944 1.25705
 H3520 H 0.40816 0.56401 1.18035
 C3521 C 1.11283 1.26162 0.87468
 C3522 C 1.12038 1.24829 0.88909
 C3523 C 1.10863 1.23126 0.89688
 C3524 C 1.11903 1.21473 0.90468
 C3525 C 1.10847 1.19845 0.91232
 C3526 C 1.08717 1.19853 0.91266
 C3527 C 1.07678 1.21507 0.90486
 C3528 C 1.08734 1.23132 0.89717
 C3529 C 1.07536 1.18152 0.92049
 C3530 C 1.08317 1.16766 0.93425
 H3531 H 1.13576 1.24979 0.89433
 H3532 H 1.13541 1.21428 0.90462
 H3533 H 1.11710 1.18577 0.91758
 H3534 H 1.06039 1.21554 0.90493
 H3535 H 1.07875 1.24401 0.89185
 H3536 H 1.05970 1.18061 0.91602
 H3537 H 1.09804 1.25919 0.86828
 H3538 H 1.09805 1.17006 0.94045
 C3539 C 1.13578 0.76648 0.38156
 C3540 C 1.11840 0.75621 0.37605
 C3541 C 1.11179 0.73768 0.38621
 C3542 C 1.09133 0.73245 0.38545
 C3543 C 1.08455 0.71493 0.39451
 C3544 C 1.09824 0.70198 0.40426
 C3545 C 1.11872 0.70726 0.40502
 C3546 C 1.12546 0.72483 0.39605
 C3547 C 1.09193 0.68306 0.41395
 C3548 C 1.07341 0.67386 0.41033
 H3549 H 1.10872 0.76228 0.36435
 H3550 H 1.08047 0.74207 0.37796
 H3551 H 1.06857 0.71186 0.39396
 H3552 H 1.12963 0.69761 0.41238
 H3553 H 1.14144 0.72802 0.39651
 H3554 H 1.10294 0.67562 0.42341
 H3555 H 1.14459 0.76126 0.39432
 H3556 H 1.06320 0.68038 0.39940
 C3557 C 0.61995 1.26492 0.37795
 C3558 C 0.62603 1.25182 0.39319
 C3559 C 0.61346 1.23449 0.39910
 C3560 C 0.62259 1.21815 0.40868
 C3561 C 0.61117 1.20158 0.41416
 C3562 C 0.59023 1.20108 0.41035
 C3563 C 0.58109 1.21737 0.40079
 C3564 C 0.59244 1.23399 0.39549
 C3565 C 0.57763 1.18385 0.41617
 C3566 C 0.58201 1.17249 0.43333
 H3567 H 0.64042 1.25394 0.40057
 H3568 H 0.63867 1.21809 0.41170
 H3569 H 0.61886 1.18908 0.42108
 H3570 H 0.56501 1.21742 0.39778
 H3571 H 0.58448 1.24648 0.38892
 H3572 H 0.56422 1.18094 0.40743
 H3573 H 0.60622 1.26180 0.36979
 H3574 H 0.59462 1.17709 0.44252
 C3575 C 0.61590 0.75674 0.87093
 C3576 C 0.62499 0.74078 0.88079
 C3577 C 0.61343 0.72294 0.88637
 C3578 C 0.61821 0.71287 0.90434
 C3579 C 0.60677 0.69671 0.91068
 C3580 C 0.59031 0.69022 0.89907
 C3581 C 0.58618 0.69969 0.88057
 C3582 C 0.59757 0.71595 0.87429
 C3583 C 0.57779 0.67321 0.90551
 C3584 C 0.57595 0.66752 0.92582
 H3585 H 0.64037 0.74206 0.88603
 H3586 H 0.63059 0.71777 0.91370
 H3587 H 0.61110 0.68924 0.92454
 H3588 H 0.57398 0.69463 0.87107
 H3589 H 0.59400 0.72294 0.85993
 H3590 H 0.57017 0.66482 0.89389
 H3591 H 0.60010 0.75595 0.86693
 H3592 H 0.58305 0.67634 0.93742
 C3593 C 0.88451 1.25778 1.14467
 C3594 C 0.88287 1.24797 1.12611
 C3595 C 0.89441 1.22986 1.12044
 C3596 C 0.88747 1.21871 1.10400
 C3597 C 0.89766 1.20153 1.09785
 C3598 C 0.91532 1.19522 1.10785
 C3599 C 0.92223 1.20622 1.12443
 C3600 C 0.91198 1.22350 1.13062
 C3601 C 0.92621 1.17689 1.10164
 C3602 C 0.92569 1.16992 1.08169
 H3603 H 0.87182 1.25331 1.11532
 H3604 H 0.87391 1.22319 1.09598
 H3605 H 0.89136 1.19305 1.08554
 H3606 H 0.93573 1.20158 1.13243
 H3607 H 0.91806 1.23184 1.14312
 H3608 H 0.93438 1.16869 1.11315
 H3609 H 0.89493 1.25253 1.15608
 H3610 H 0.91815 1.17885 1.07030
 C3611 C 0.88296 0.75571 0.63588
 C3612 C 0.88216 0.74951 0.61571
 C3613 C 0.89439 0.73289 0.60736
 C3614 C 0.88819 0.72412 0.58918
 C3615 C 0.89905 0.70824 0.58078
 C3616 C 0.91658 0.70094 0.59033
 C3617 C 0.92289 0.70981 0.60843
 C3618 C 0.91202 0.72573 0.61683
 C3619 C 0.92795 0.68351 0.58253
 C3620 C 0.92694 0.67698 0.56244
 H3621 H 0.87148 0.75663 0.60561
 H3622 H 0.87463 0.72934 0.58162
 H3623 H 0.89326 0.70148 0.56716
 H3624 H 0.93632 0.70443 0.61609
 H3625 H 0.91766 0.73238 0.63056
 H3626 H 0.93702 0.67531 0.59333
 H3627 H 0.89289 0.74838 0.64655
 H3628 H 0.91801 0.68525 0.55158
 C3629 C 0.36020 1.25989 0.61752
 C3630 C 0.37863 1.25009 0.62069
 C3631 C 0.38510 1.23215 0.60945
 C3632 C 0.40585 1.22805 0.60748
 C3633 C 0.41268 1.21081 0.59780
 C3634 C 0.39881 1.19702 0.59028
 C3635 C 0.37803 1.20133 0.59191
 C3636 C 0.37120 1.21869 0.60145
 C3637 C 0.40537 1.17810 0.58076
 C3638 C 0.42438 1.16944 0.58406
 H3639 H 0.38940 1.25625 0.63117
 H3640 H 0.41685 1.23827 0.61342
 H3641 H 0.42882 1.20852 0.59621
 H3642 H 0.36702 1.19101 0.58615
 H3643 H 0.35507 1.22119 0.60305
 H3644 H 0.39421 1.17014 0.57219
 H3645 H 0.35018 1.25476 0.60576
 H3646 H 0.43464 1.17649 0.59445
 C3647 C 0.36587 0.76076 1.11796
 C3648 C 0.38426 0.75066 1.12037
 C3649 C 0.39019 0.73327 1.10784
 C3650 C 0.41078 0.72948 1.10413
 C3651 C 0.41700 0.71299 1.09275
 C3652 C 0.40272 0.69956 1.08522
 C3653 C 0.38209 0.70353 1.08871
 C3654 C 0.37586 0.72015 1.09994
 C3655 C 0.40874 0.68122 1.07407
 C3656 C 0.42790 0.67246 1.07586
 H3657 H 0.39529 0.75634 1.13087
 H3658 H 0.42210 0.73943 1.10993
 H3659 H 0.43300 0.71101 1.08984
 H3660 H 0.37075 0.69349 1.08309
 H3661 H 0.35986 0.72237 1.10284
 H3662 H 0.39713 0.67352 1.06581
 H3663 H 0.35565 0.75602 1.10619
 H3664 H 0.43876 0.67929 1.08576
 C3665 C 0.86379 0.74228 0.88313
 C3666 C 0.88214 0.75172 0.87979
 C3667 C 0.88822 0.76950 0.89129
 C3668 C 0.90232 0.78235 0.88252
 C3669 C 0.90815 0.79949 0.89270
 C3670 C 0.90018 0.80395 0.91208
 C3671 C 0.88617 0.79106 0.92091
 C3672 C 0.88036 0.77390 0.91075
 C3673 C 0.90569 0.82219 0.92305
 C3674 C 0.92440 0.83117 0.92031
 H3675 H 0.89196 0.74659 0.86761
 H3676 H 0.90855 0.77933 0.86755
 H3677 H 0.91850 0.80940 0.88510
 H3678 H 0.87985 0.79419 0.93583
 H3679 H 0.86995 0.76406 0.91834
 H3680 H 0.89465 0.82845 0.93349
 H3681 H 0.85323 0.74800 0.89437
 H3682 H 0.93543 0.82407 0.91040
 C3683 C 0.86453 0.24751 0.38319
 C3684 C 0.88469 0.25325 0.38259
 C3685 C 0.89249 0.26986 0.39485
 C3686 C 0.91040 0.27904 0.38861
 C3687 C 0.91805 0.29500 0.39951
 C3688 C 0.90805 0.30193 0.41714
 C3689 C 0.89028 0.29260 0.42352
 C3690 C 0.88264 0.27661 0.41263
 C3691 C 0.91510 0.31944 0.42847
 C3692 C 0.93511 0.32573 0.42784
 H3693 H 0.89507 0.24574 0.37229
 H3694 H 0.91828 0.27412 0.37499
 H3695 H 0.93144 0.30216 0.39369
 H3696 H 0.88230 0.29765 0.43703
 H3697 H 0.86917 0.26955 0.41839
 H3698 H 0.90393 0.32788 0.43703
 H3699 H 0.85372 0.25548 0.39260
 H3700 H 0.94628 0.31694 0.41966
 C3701 C 0.37334 0.73955 0.38919
 C3702 C 0.38324 0.75537 0.37990
 C3703 C 0.38954 0.77342 0.39088
 C3704 C 0.40410 0.78556 0.38177
 C3705 C 0.41100 0.80242 0.39171
 C3706 C 0.40345 0.80750 0.41107
 C3707 C 0.38831 0.79584 0.41986
 C3708 C 0.38141 0.77894 0.40993
 C3709 C 0.41059 0.82514 0.42210
 C3710 C 0.42996 0.83277 0.41925
 H3711 H 0.38750 0.75422 0.36403
 H3712 H 0.41029 0.78192 0.36693
 H3713 H 0.42201 0.81154 0.38402
 H3714 H 0.38195 0.79970 0.43457
 H3715 H 0.36962 0.77048 0.41720
 H3716 H 0.40026 0.83200 0.43287
 H3717 H 0.36947 0.74025 0.40516
 H3718 H 0.44022 0.82540 0.40873
 C3719 C 0.36251 0.23989 0.88788
 C3720 C 0.38010 0.25025 0.88327
 C3721 C 0.38720 0.26767 0.89478
 C3722 C 0.40285 0.27896 0.88633
 C3723 C 0.41010 0.29558 0.89644
 C3724 C 0.40196 0.30117 0.91542
 C3725 C 0.38628 0.28997 0.92388
 C3726 C 0.37905 0.27329 0.91379
 C3727 C 0.40888 0.31900 0.92628
 C3728 C 0.42825 0.32669 0.92363
 H3729 H 0.38901 0.24568 0.87019
 H3730 H 0.40935 0.27506 0.87169
 H3731 H 0.42171 0.30421 0.88906
 H3732 H 0.37970 0.29405 0.93843
 H3733 H 0.36726 0.26490 0.92113
 H3734 H 0.39821 0.32622 0.93645
 H3735 H 0.35294 0.24427 0.90050
 H3736 H 0.43889 0.31892 0.91383
 C3737 C 1.12631 0.73200 1.11095
 C3738 C 1.11128 0.74534 1.11739
 C3739 C 1.10456 0.76264 1.10515
 C3740 C 1.08599 0.77180 1.10994
 C3741 C 1.07928 0.78844 1.09915
 C3742 C 1.09106 0.79630 1.08321
 C3743 C 1.10979 0.78737 1.07865
 C3744 C 1.11651 0.77072 1.08945
 C3745 C 1.08482 0.81437 1.07192
 C3746 C 1.06472 0.82075 1.07060
 H3747 H 1.10373 0.74287 1.13181
 H3748 H 1.07666 0.76614 1.12219
 H3749 H 1.06514 0.79532 1.10377
 H3750 H 1.11933 0.79336 1.06673
 H3751 H 1.13125 0.76463 1.08569
 H3752 H 1.09658 0.82307 1.06483
 H3753 H 1.13294 0.73358 1.09598
 H3754 H 1.05296 0.81184 1.07739
 C3755 C 1.11993 0.24868 0.63872
 C3756 C 1.12242 0.25658 0.61928
 C3757 C 1.11115 0.27432 0.61223
 C3758 C 1.10789 0.27686 0.59136
 C3759 C 1.09772 0.29367 0.58412
 C3760 C 1.09098 0.30854 0.59765
 C3761 C 1.09407 0.30588 0.61854
 C3762 C 1.10414 0.28902 0.62578
 C3763 C 1.08088 0.32700 0.59063
 C3764 C 1.08317 0.33444 0.57095
 H3765 H 1.13235 0.24916 0.60848
 H3766 H 1.11309 0.26571 0.58064
 H3767 H 1.09509 0.29479 0.56797
 H3768 H 1.08904 0.31708 0.62929
 H3769 H 1.10684 0.28785 0.64193
 H3770 H 1.07293 0.33582 0.60192
 H3771 H 1.10870 0.25511 0.64888
 H3772 H 1.09295 0.32662 0.56035
 C3773 C 0.61762 0.73488 0.63150
 C3774 C 0.62161 0.74522 0.61373
 C3775 C 0.60941 0.76277 0.60771
 C3776 C 0.61473 0.77312 0.59003
 C3777 C 0.60396 0.79013 0.58426
 C3778 C 0.58745 0.79708 0.59600
 C3779 C 0.58221 0.78678 0.61376
 C3780 C 0.59298 0.76974 0.61954
 C3781 C 0.57617 0.81548 0.59070
 C3782 C 0.57557 0.82300 0.57094
 H3783 H 0.63443 0.74073 0.60435
 H3784 H 0.62746 0.76822 0.58080
 H3785 H 0.60906 0.79802 0.57090
 H3786 H 0.56973 0.79194 0.62321
 H3787 H 0.58853 0.76219 0.63336
 H3788 H 0.56852 0.82345 0.60285
 H3789 H 0.62579 0.72527 0.63447
 H3790 H 0.58275 0.81464 0.55881
 C3791 C 0.61656 0.23928 1.12608
 C3792 C 0.62570 0.25303 1.11333
 C3793 C 0.61517 0.27185 1.10826
 C3794 C 0.61734 0.27994 1.08877
 C3795 C 0.60612 0.29673 1.08314
 C3796 C 0.59253 0.30580 1.09700
 C3797 C 0.59130 0.29837 1.11685
 C3798 C 0.60246 0.28156 1.12244
 C3799 C 0.58001 0.32332 1.09146
 C3800 C 0.57487 0.32767 1.07146
 H3801 H 0.63977 0.24923 1.10566
 H3802 H 0.62735 0.27296 1.07773
 H3803 H 0.60829 0.30257 1.06799
 H3804 H 0.58141 0.30540 1.12797
 H3805 H 0.60106 0.27616 1.13787
 H3806 H 0.57492 0.33321 1.10347
 H3807 H 0.60164 0.24255 1.13218
 H3808 H 0.57962 0.31775 1.05939
 C3809 C 1.25673 1.11573 0.86908
 C3810 C 1.24633 1.11974 0.88699
 C3811 C 1.22938 1.10739 0.89401
 C3812 C 1.21993 1.11191 0.91259
 C3813 C 1.20386 1.10055 0.91971
 C3814 C 1.19700 1.08430 0.90840
 C3815 C 1.20627 1.07993 0.88968
 C3816 C 1.22239 1.09129 0.88256
 C3817 C 1.17961 1.07235 0.91519
 C3818 C 1.17378 1.07093 0.93555
 H3819 H 1.25095 1.13216 0.89626
 H3820 H 1.22491 1.12435 0.92158
 H3821 H 1.19660 1.10492 0.93381
 H3822 H 1.20108 1.06766 0.88057
 H3823 H 1.22929 1.08747 0.86809
 H3824 H 1.17091 1.06494 0.90366
 H3825 H 1.26661 1.12311 0.86563
 H3826 H 1.18277 1.07800 0.94707
 C3827 C 1.27833 0.61971 0.38651
 C3828 C 1.26223 0.61112 0.37636
 C3829 C 1.24364 0.60456 0.38703
 C3830 C 1.22560 0.60328 0.37607
 C3831 C 1.20763 0.59775 0.38575
 C3832 C 1.20743 0.59319 0.40662
 C3833 C 1.22545 0.59439 0.41756
 C3834 C 1.24343 0.59980 0.40787
 C3835 C 1.18875 0.58715 0.41733
 C3836 C 1.17356 0.57674 0.40758
 H3837 H 1.26253 0.61060 0.35992
 H3838 H 1.22532 0.60689 0.36003
 H3839 H 1.19389 0.59742 0.37694
 H3840 H 1.22569 0.59082 0.43361
 H3841 H 1.25709 0.59994 0.41677
 H3842 H 1.18783 0.58933 0.43361
 H3843 H 1.27763 0.62165 0.40280
 H3844 H 1.17584 0.57244 0.39187
 C3845 C 0.75072 1.13988 0.37492
 C3846 C 0.74611 1.11986 0.37653
 C3847 C 0.72914 1.11291 0.38943
 C3848 C 0.73048 1.09419 0.39862
 C3849 C 0.71507 1.08755 0.41153
 C3850 C 0.69780 1.09946 0.41525
 C3851 C 0.69645 1.11815 0.40600
 C3852 C 0.71184 1.12476 0.39310
 C3853 C 0.68079 1.09275 0.42822
 C3854 C 0.67605 1.07279 0.43050
 H3855 H 0.75640 1.10896 0.36999
 H3856 H 0.74369 1.08483 0.39612
 H3857 H 0.71690 1.07325 0.41875
 H3858 H 0.68326 1.12753 0.40848
 H3859 H 0.70997 1.13905 0.38586
 H3860 H 0.67022 1.10384 0.43393
 H3861 H 0.74166 1.15070 0.38315
 H3862 H 0.68531 1.06174 0.42283
 C3863 C 0.75396 0.63135 0.86626
 C3864 C 0.74868 0.61143 0.86667
 C3865 C 0.73097 0.60462 0.87873
 C3866 C 0.73156 0.58589 0.88797
 C3867 C 0.71565 0.57970 0.90056
 C3868 C 0.69863 0.59206 0.90390
 C3869 C 0.69795 0.61067 0.89443
 C3870 C 0.71382 0.61683 0.88185
 C3871 C 0.68126 0.58601 0.91687
 C3872 C 0.67607 0.56622 0.91971
 H3873 H 0.75900 0.60052 0.86020
 H3874 H 0.74461 0.57623 0.88589
 H3875 H 0.71697 0.56541 0.90793
 H3876 H 0.68497 0.62041 0.89658
 H3877 H 0.71252 0.63114 0.87452
 H3878 H 0.67093 0.59744 0.92229
 H3879 H 0.74479 0.64192 0.87472
 H3880 H 0.68513 0.55481 0.91235
 C3881 C 1.26260 0.88233 1.13869
 C3882 C 1.25050 0.87670 1.12241
 C3883 C 1.23212 0.88760 1.11555
 C3884 C 1.22123 0.87980 1.09923
 C3885 C 1.20377 0.88931 1.09214
 C3886 C 1.19683 0.90702 1.10119
 C3887 C 1.20756 0.91477 1.11762
 C3888 C 1.22506 0.90527 1.12469
 C3889 C 1.17810 0.91732 1.09447
 C3890 C 1.17023 0.91539 1.07492
 H3891 H 1.25468 0.86344 1.11408
 H3892 H 1.22615 0.86614 1.09198
 H3893 H 1.19558 0.88244 1.07992
 H3894 H 1.20243 0.92830 1.12496
 H3895 H 1.23280 0.91195 1.13728
 H3896 H 1.17048 0.92673 1.10546
 H3897 H 1.25906 0.89547 1.14741
 H3898 H 1.17831 0.90626 1.06398
 C3899 C 1.26154 0.38619 0.63701
 C3900 C 1.24960 0.38160 0.62034
 C3901 C 1.23332 0.39470 0.61252
 C3902 C 1.22617 0.39130 0.59285
 C3903 C 1.21078 0.40313 0.58475
 C3904 C 1.20220 0.41876 0.59618
 C3905 C 1.20905 0.42193 0.61601
 C3906 C 1.22446 0.41006 0.62414
 C3907 C 1.18529 0.43110 0.58839
 C3908 C 1.18099 0.43288 0.56774
 H3909 H 1.25291 0.36815 0.61193
 H3910 H 1.23248 0.37937 0.58369
 H3911 H 1.20539 0.39954 0.56975
 H3912 H 1.20239 0.43358 0.62529
 H3913 H 1.22901 0.41281 0.63960
 H3914 H 1.17546 0.43833 0.59940
 H3915 H 1.25925 0.39995 0.64513
 H3916 H 1.19094 0.42600 0.55662
 C3917 C 0.76440 0.86412 0.61842
 C3918 C 0.75506 0.88255 0.62096
 C3919 C 0.73728 0.88857 0.60878
 C3920 C 0.73444 0.90859 0.60378
 C3921 C 0.71783 0.91467 0.59221
 C3922 C 0.70339 0.90083 0.58580
 C3923 C 0.70636 0.88078 0.59072
 C3924 C 0.72305 0.87470 0.60215
 C3925 C 0.68493 0.90674 0.57445
 C3926 C 0.67677 0.92589 0.57529
 H3927 H 0.76172 0.89328 0.63107
 H3928 H 0.74528 0.91952 0.60860
 H3929 H 0.71657 0.93017 0.58825
 H3930 H 0.69551 0.86981 0.58604
 H3931 H 0.72452 0.85919 0.60613
 H3932 H 0.67643 0.89520 0.56709
 H3933 H 0.75897 0.85417 0.60684
 H3934 H 0.68433 0.93690 0.58433
 C3935 C 0.76278 0.36082 1.11132
 C3936 C 0.75442 0.37985 1.11257
 C3937 C 0.73659 0.38646 1.10088
 C3938 C 0.73372 0.40681 1.09755
 C3939 C 0.71660 0.41385 1.08747
 C3940 C 0.70171 0.40064 1.08088
 C3941 C 0.70479 0.38023 1.08383
 C3942 C 0.72202 0.37317 1.09381
 C3943 C 0.68278 0.40762 1.07119
 C3944 C 0.67481 0.42666 1.07426
 H3945 H 0.76170 0.39074 1.12201
 H3946 H 0.74479 0.41733 1.10279
 H3947 H 0.71522 0.42963 1.08485
 H3948 H 0.69359 0.36974 1.07884
 H3949 H 0.72352 0.35740 1.09647
 H3950 H 0.67405 0.39683 1.06300
 H3951 H 0.75694 0.35021 1.10060
 H3952 H 0.68251 0.43663 1.08439
 C3953 C 0.73373 1.12201 1.13886
 C3954 C 0.74448 1.12456 1.12077
 C3955 C 0.76223 1.11203 1.11494
 C3956 C 0.77502 1.11854 1.09927
 C3957 C 0.79167 1.10706 1.09302
 C3958 C 0.79578 1.08860 1.10219
 C3959 C 0.78314 1.08213 1.11797
 C3960 C 0.76642 1.09356 1.12416
 C3961 C 0.81339 1.07617 1.09597
 C3962 C 0.82125 1.07666 1.07625
 H3963 H 0.73969 1.13614 1.11041
 H3964 H 0.77222 1.13267 1.09191
 H3965 H 0.80146 1.11289 1.08126
 H3966 H 0.78602 1.06801 1.12531
 H3967 H 0.75674 1.08756 1.13587
 H3968 H 0.82028 1.06662 1.10725
 H3969 H 0.73866 1.11107 1.14978
 H3970 H 0.81361 1.08574 1.06505
 C3971 C 0.74680 0.62474 0.63206
 C3972 C 0.75076 0.62346 0.61130
 C3973 C 0.76729 0.61067 0.60322
 C3974 C 0.77695 0.61581 0.58497
 C3975 C 0.79337 0.60457 0.57769
 C3976 C 0.80022 0.58773 0.58842
 C3977 C 0.79012 0.58227 0.60631
 C3978 C 0.77372 0.59347 0.61356
 C3979 C 0.81854 0.57637 0.58222
 C3980 C 0.82613 0.57642 0.56241
 H3981 H 0.74202 0.63242 0.60082
 H3982 H 0.77220 0.62891 0.57668
 H3983 H 0.80102 0.60961 0.56409
 H3984 H 0.79500 0.56932 0.61478
 H3985 H 0.76614 0.58855 0.62726
 H3986 H 0.82662 0.56837 0.59393
 H3987 H 0.75641 0.61678 0.64259
 H3988 H 0.81767 0.58400 0.55067
 C3989 C 0.23233 1.13469 0.62072
 C3990 C 0.24102 1.11608 0.62426
 C3991 C 0.25925 1.10890 0.61303
 C3992 C 0.26255 1.08846 0.61064
 C3993 C 0.27966 1.08125 0.60020
 C3994 C 0.29411 1.09442 0.59224
 C3995 C 0.29077 1.11486 0.59468
 C3996 C 0.27364 1.12204 0.60501
 C3997 C 0.31276 1.08762 0.58138
 C3998 C 0.32064 1.06833 0.58263
 H3999 H 0.23387 1.10618 0.63501
 H4000 H 0.25171 1.07802 0.61666
 H4001 H 0.28125 1.06541 0.59829
 H4002 H 0.30162 1.12537 0.58880
 H4003 H 0.27199 1.13789 0.60703
 H4004 H 0.32136 1.09874 0.57336
 H4005 H 0.23841 1.14396 0.60878
 H4006 H 0.31304 1.05768 0.59221
 C4007 C 0.24649 0.63146 1.13657
 C4008 C 0.24723 0.62112 1.11824
 C4009 C 0.26416 0.60791 1.11195
 C4010 C 0.26515 0.60170 1.09163
 C4011 C 0.28110 0.58971 1.08475
 C4012 C 0.29652 0.58375 1.09810
 C4013 C 0.29505 0.58913 1.11863
 C4014 C 0.27905 0.60110 1.12554
 C4015 C 0.31447 0.57239 1.09103
 C4016 C 0.32181 0.57383 1.07116
 H4017 H 0.23482 0.62290 1.10774
 H4018 H 0.25364 0.60634 1.08095
 H4019 H 0.28125 0.58517 1.06899
 H4020 H 0.30654 0.58440 1.12928
 H4021 H 0.27851 0.60483 1.14149
 H4022 H 0.32340 0.56469 1.10233
 H4023 H 0.25862 0.63022 1.14740
 H4024 H 0.31405 0.58347 1.06055
 C4025 C 0.73881 0.86289 0.88004
 C4026 C 0.74641 0.88191 0.87690
 C4027 C 0.76461 0.88954 0.88730
 C4028 C 0.76697 0.91011 0.88925
 C4029 C 0.78384 0.91790 0.89904
 C4030 C 0.79897 0.90522 0.90684
 C4031 C 0.79664 0.88466 0.90475
 C4032 C 0.77975 0.87688 0.89503
 C4033 C 0.81712 0.91265 0.91752
 C4034 C 0.82380 0.93225 0.91663
 H4035 H 0.73807 0.89209 0.86731
 H4036 H 0.75555 0.92021 0.88343
 H4037 H 0.78470 0.93380 0.90068
 H4038 H 0.80805 0.87453 0.91054
 H4039 H 0.77883 0.86098 0.89336
 H4040 H 0.82623 0.90179 0.92550
 H4041 H 0.74606 0.85302 0.89077
 H4042 H 0.81606 0.94275 0.90691
 C4043 C 0.74169 0.37490 0.36587
 C4044 C 0.75124 0.37386 0.38472
 C4045 C 0.76930 0.38590 0.38997
 C4046 C 0.78126 0.38013 0.40653
 C4047 C 0.79823 0.39110 0.41207
 C4048 C 0.80356 0.40838 0.40132
 C4049 C 0.79163 0.41414 0.38475
 C4050 C 0.77463 0.40319 0.37922
 C4051 C 0.82168 0.42028 0.40655
 C4052 C 0.83028 0.42011 0.42592
 H4053 H 0.74547 0.36366 0.39601
 H4054 H 0.77761 0.36692 0.41510
 H4055 H 0.80731 0.38568 0.42453
 H4056 H 0.79533 0.42733 0.37616
 H4057 H 0.76562 0.40863 0.36674
 H4058 H 0.82831 0.42937 0.39476
 H4059 H 0.74785 0.38431 0.35412
 H4060 H 0.82299 0.41151 0.43769
 C4061 C 0.24485 0.88355 0.36539
 C4062 C 0.25251 0.88312 0.38504
 C4063 C 0.26960 0.89561 0.39152
 C4064 C 0.28085 0.88976 0.40850
 C4065 C 0.29733 0.90086 0.41488
 C4066 C 0.30276 0.91832 0.40454
 C4067 C 0.29145 0.92427 0.38764
 C4068 C 0.27491 0.91318 0.38129
 C4069 C 0.32063 0.92999 0.41046
 C4070 C 0.32802 0.92985 0.43025
 H4071 H 0.24635 0.87267 0.39587
 H4072 H 0.27712 0.87631 0.41664
 H4073 H 0.30606 0.89536 0.42755
 H4074 H 0.29533 0.93763 0.37941
 H4075 H 0.26630 0.91861 0.36852
 H4076 H 0.32835 0.93839 0.39880
 H4077 H 0.25150 0.89315 0.35407
 H4078 H 0.31971 0.92197 0.44188
 C4079 C 0.23680 0.36251 0.88241
 C4080 C 0.24784 0.37934 0.87723
 C4081 C 0.26593 0.38611 0.88860
 C4082 C 0.27291 0.40542 0.88532
 C4083 C 0.28984 0.41248 0.89558
 C4084 C 0.30030 0.40035 0.90954
 C4085 C 0.29353 0.38091 0.91255
 C4086 C 0.27661 0.37383 0.90225
 C4087 C 0.31869 0.40699 0.92053
 C4088 C 0.32480 0.42675 0.92159
 H4089 H 0.24262 0.38840 0.86471
 H4090 H 0.26522 0.41515 0.87471
 H4091 H 0.29474 0.42732 0.89211
 H4092 H 0.30142 0.37107 0.92290
 H4093 H 0.27231 0.35865 0.90486
 H4094 H 0.32798 0.39571 0.92770
 H4095 H 0.24112 0.35372 0.89542
 H4096 H 0.31567 0.43815 0.91454
   
