data_POSCAR
  _audit_creation_date              2014-09-24
  _audit_creation_method            'ToBaCCo'
  _symmetry_space_group_name_H-M    'P1'
  _symmetry_Int_Tables_number       1
  _symmetry_cell_setting            triclinic
  loop_
  _symmetry_equiv_pos_as_xyz
 x,y,z
_cell_length_a 32.7847
_cell_length_b 32.7847
_cell_length_c 32.5880
_cell_angle_alpha 89.403200
_cell_angle_beta 89.538300
_cell_angle_gamma 89.839600
loop_
  _atom_site_label
  _atom_site_type_symbol
  _atom_site_fract_x
  _atom_site_fract_y
  _atom_site_fract_z
N1 N 0.35403 1.35795 0.34457
 N2 N 0.33990 0.84026 0.83995
 N3 N 0.84156 1.31796 0.82893
 N4 N 0.83844 0.84785 0.35758
 N5 N 0.66454 0.67496 0.33290
 N6 N 0.67105 0.16214 0.83216
 N7 N 1.16229 0.64631 0.84237
 N8 N 1.16892 0.17620 0.32801
 N9 N 0.67245 1.33027 0.66953
 N10 N 0.65868 0.84824 1.15296
 N11 N 1.16430 1.33829 1.16887
 N12 N 1.16407 0.84815 0.66563
 N13 N 0.32572 0.64355 0.65629
 N14 N 0.35552 0.17338 1.16900
 N15 N 0.85422 0.65707 1.15105
 N16 N 0.83023 0.14538 0.65348
 N17 N 1.34282 0.32238 0.66584
 N18 N 1.32887 0.84023 1.16206
 N19 N 0.82803 0.33846 1.17161
 N20 N 0.84207 0.83639 0.67029
 N21 N 0.65376 0.64796 0.66074
 N22 N 0.66164 1.16912 1.16103
 N23 N 0.15048 0.66308 1.16075
 N24 N 0.16536 1.15422 0.64014
 N25 N 1.32494 0.66921 0.32523
 N26 N 1.34199 1.16280 0.84654
 N27 N 0.84705 0.65101 0.84340
 N28 N 0.83103 1.16535 0.32950
 N29 N 0.66560 0.36555 0.34566
 N30 N 0.64162 0.83553 0.84094
 N31 N 0.14747 0.31687 0.84379
 N32 N 0.15899 0.85088 0.33772
 O33 O 1.13737 1.06279 1.18839
 O34 O 1.16443 1.05210 1.24856
 C35 C 1.14463 1.07439 1.22433
 C36 C 1.13380 1.11493 1.23843
 C37 C 1.16127 1.13612 1.26274
 H38 H 1.19308 1.12958 1.25843
 O39 O 0.85812 0.97360 1.20944
 O40 O 0.80865 0.97858 1.25542
 C41 C 0.84118 0.96118 1.24332
 C42 C 0.85915 0.92466 1.26562
 C43 C 0.84686 0.90917 1.30514
 H44 H 0.82813 0.92929 1.32319
 O45 O 1.03588 1.22472 1.12091
 O46 O 1.02756 1.27722 1.16113
 C47 C 1.04507 1.26068 1.13150
 C48 C 1.08054 1.28149 1.11441
 C49 C 1.09965 1.31143 1.13809
 H50 H 1.08172 1.32610 1.16154
 O51 O 0.96695 0.81135 1.14674
 O52 O 0.96665 0.76546 1.19645
 C53 C 0.95423 0.77732 1.16188
 C54 C 0.92375 0.75312 1.13955
 C55 C 0.91225 0.71247 1.15062
 H56 H 0.93252 0.69637 1.17091
 O57 O 1.20304 1.14650 1.05638
 O58 O 1.23738 1.20315 1.05416
 C59 C 1.23081 1.16925 1.07129
 C60 C 1.25507 1.15530 1.10787
 C61 C 1.28826 1.17653 1.12607
 H62 H 1.29302 1.20765 1.11631
 O63 O 0.80365 0.87094 1.03720
 O64 O 0.75669 0.82475 1.04418
 C65 C 0.76951 0.85949 1.05185
 C66 C 0.74561 0.88329 1.08137
 C67 C 0.70714 0.86960 1.09524
 H68 H 0.68907 0.85374 1.07315
 O69 O 0.96479 1.16859 1.18819
 O70 O 0.95465 1.22265 1.22637
 C71 C 0.94691 1.18545 1.21852
 C72 C 0.91497 1.16112 1.24147
 C73 C 0.89653 1.16999 1.28053
 H74 H 0.91594 1.18510 1.30176
 O75 O 1.03361 0.87821 1.20796
 O76 O 1.03204 0.83031 1.25486
 C77 C 1.04238 0.86531 1.24403
 C78 C 1.06835 0.88885 1.27149
 C79 C 1.08975 0.86962 1.30441
 H80 H 1.07217 0.85232 1.32661
 O81 O 1.19548 0.97581 1.15134
 O82 O 1.22810 0.96792 1.20960
 C83 C 1.22086 0.95600 1.17295
 C84 C 1.24061 0.91947 1.15311
 C85 C 1.27155 0.89429 1.17083
 H86 H 1.27800 0.89792 1.20305
 O87 O 0.80052 1.04128 1.13780
 O88 O 0.77593 1.06532 1.19477
 C89 C 0.77654 1.06584 1.15680
 C90 C 0.74568 1.09124 1.13680
 C91 C 0.72436 1.12331 1.15744
 H92 H 0.73257 1.13146 1.18843
 O93 O 0.82874 1.18658 1.05073
 O94 O 0.77589 1.22686 1.05038
 C95 C 0.81011 1.21737 1.06572
 C96 C 0.83167 1.24357 1.09779
 C97 C 0.81475 1.27605 1.12298
 H98 H 0.78223 1.28182 1.12248
 O99 O 1.15138 0.80486 1.03897
 O100 O 1.21088 0.77628 1.05131
 C101 C 1.17380 0.78200 1.06102
 C102 C 1.15475 0.76370 1.09792
 C103 C 1.16716 0.72657 1.11677
 H104 H 1.19719 0.71520 1.10935
 O105 O 0.86468 1.05643 1.18376
 O106 O 0.83161 1.04751 1.24143
 C107 C 0.85469 1.06873 1.21918
 C108 C 0.86587 1.10843 1.23445
 C109 C 0.83990 1.12901 1.26199
 H110 H 0.80755 1.12483 1.25924
 O111 O 1.13469 0.97721 1.20141
 O112 O 1.17418 0.97514 1.25571
 C113 C 1.14598 0.96057 1.23514
 C114 C 1.12726 0.92448 1.25229
 C115 C 1.15086 0.89456 1.27314
 H116 H 1.18309 0.89243 1.26617
 O117 O 1.04813 0.82512 1.14453
 O118 O 1.04100 0.77382 1.18596
 C119 C 1.05903 0.78939 1.15629
 C120 C 1.09356 0.76523 1.13887
 C121 C 1.10146 0.72395 1.15092
 H122 H 1.07696 0.70780 1.16602
 O123 O 0.95520 1.21503 1.12415
 O124 O 0.95425 1.26700 1.16613
 C125 C 0.93878 1.24761 1.13709
 C126 C 0.89862 1.26139 1.12364
 C127 C 0.88278 1.29659 1.14157
 H128 H 0.90349 1.31872 1.15426
 O129 O 0.77549 1.12220 1.04097
 O130 O 0.72564 1.16657 1.03506
 C131 C 0.73887 1.13324 1.04847
 C132 C 0.71250 1.10983 1.07610
 C133 C 0.68277 1.13254 1.09752
 H134 H 0.65984 1.14942 1.08062
 O135 O 1.19017 0.86945 1.04346
 O136 O 1.25017 0.84791 1.02594
 C137 C 1.22816 0.86734 1.05049
 C138 C 1.24667 0.88150 1.08942
 C139 C 1.28221 0.86250 1.10463
 H140 H 1.29952 0.84382 1.08371
 O141 O 0.95552 0.86928 1.20119
 O142 O 0.96203 0.82229 1.24838
 C143 C 0.94352 0.85313 1.23535
 C144 C 0.90856 0.87001 1.26030
 C145 C 0.89528 0.85404 1.29949
 H146 H 0.91495 0.83163 1.31307
 O147 O 1.04244 1.17554 1.18314
 O148 O 1.04091 1.22786 1.22425
 C149 C 1.05622 1.19381 1.21441
 C150 C 1.08971 1.17337 1.23843
 C151 C 1.11315 1.18995 1.27174
 H152 H 1.10436 1.21915 1.28420
 O153 O 0.81392 0.96322 1.14675
 O154 O 0.76258 0.98231 1.18400
 C155 C 0.77755 0.95728 1.15910
 C156 C 0.75233 0.92408 1.14101
 C157 C 0.71876 0.90195 1.16011
 H158 H 0.71326 0.90638 1.19243
 O159 O 1.20762 1.05139 1.15732
 O160 O 1.23755 1.05750 1.21684
 C161 C 1.23438 1.06870 1.17969
 C162 C 1.25891 1.10343 1.16117
 C163 C 1.29383 1.12336 1.17798
 H164 H 1.30509 1.11181 1.20684
 O165 O 0.86121 0.81034 1.04058
 O166 O 0.81822 0.75994 1.04536
 C167 C 0.85136 0.77538 1.05495
 C168 C 0.87586 0.75244 1.08482
 C169 C 0.86635 0.71140 1.09471
 H170 H 0.85034 0.69459 1.07179
 O171 O 1.15173 1.20868 1.04559
 O172 O 1.19886 1.25591 1.03242
 C173 C 1.16556 1.24520 1.04975
 C174 C 1.14193 1.27329 1.07531
 C175 C 1.16018 1.30465 1.09756
 H176 H 1.18782 1.31652 1.08464
 Cu177 Cu 1.16319 1.01691 1.16955
 Cu178 Cu 1.20400 1.01516 1.23691
 Cu179 Cu 0.84163 1.00863 1.16446
 Cu180 Cu 0.79115 1.01879 1.21874
 Cu181 Cu 1.00011 1.19072 1.14907
 Cu182 Cu 0.99581 1.25304 1.19834
 Cu183 Cu 1.00151 0.85182 1.16866
 Cu184 Cu 1.00558 0.79778 1.22014
 C185 C 1.09829 1.13346 1.22638
 H186 H 1.07875 1.11726 1.20541
 C187 C 1.14833 1.16799 1.28781
 C188 C 0.88863 0.90334 1.24379
 H189 H 0.89764 0.91385 1.21344
 C190 C 0.85991 0.86962 1.32121
 C191 C 1.10157 1.26320 1.08286
 H192 H 1.08729 1.23871 1.06610
 C193 C 1.14183 1.31919 1.13447
 C194 C 0.90379 0.77300 1.10781
 H195 H 0.90994 0.80481 1.10079
 C196 C 0.87749 0.69300 1.13272
 C197 C 1.24346 1.11825 1.12449
 H198 H 1.21877 1.10215 1.11005
 C199 C 1.31327 1.15794 1.15745
 C200 C 0.76543 0.91291 1.10230
 H201 H 0.79305 0.92564 1.08892
 C202 C 0.69416 0.87359 1.13676
 C203 C 0.90172 1.12621 1.22204
 H204 H 0.91850 1.11317 1.19654
 C205 C 0.85577 1.15529 1.29141
 C206 C 1.08562 0.92242 1.25297
 H207 H 1.06781 0.94244 1.23328
 C208 C 1.13335 0.87128 1.30560
 C209 C 1.22681 0.90995 1.11352
 H210 H 1.20044 0.92520 1.10059
 C211 C 1.29419 0.86551 1.14630
 C212 C 0.73413 1.08086 1.09764
 H213 H 0.75126 1.05790 1.08098
 C214 C 0.68947 1.14163 1.13897
 C215 C 0.87354 1.23574 1.10160
 H216 H 0.88727 1.20941 1.08713
 C217 C 0.84117 1.30209 1.14749
 C218 C 1.12024 0.78406 1.11234
 H219 H 1.11328 0.81474 1.10167
 C220 C 1.13994 0.70431 1.14323
 O221 O 1.13107 0.96119 0.81285
 O222 O 1.18218 0.95655 0.77060
 C223 C 1.14922 0.94308 0.78372
 C224 C 1.13318 0.90751 0.76272
 C225 C 1.15699 0.88562 0.73371
 H226 H 1.18956 0.88615 0.73690
 O227 O 0.84701 1.03473 0.81189
 O228 O 0.80159 1.02666 0.76354
 C229 C 0.83074 1.04711 0.77805
 C230 C 0.84664 1.08434 0.75515
 C231 C 0.82606 1.10384 0.72182
 H232 H 0.79433 1.09645 0.71780
 O233 O 0.95057 1.16996 0.85461
 O234 O 0.97106 1.23061 0.83758
 C235 C 0.94498 1.20842 0.85496
 C236 C 0.90617 1.22817 0.86895
 C237 C 0.89390 1.26509 0.84987
 H238 H 0.91605 1.28092 0.83107
 O239 O 1.04504 0.79637 0.86840
 O240 O 1.03652 0.74994 0.82121
 C241 C 1.05656 0.76312 0.85157
 C242 C 1.09404 0.74125 0.86708
 C243 C 1.10602 0.70153 0.85442
 H244 H 1.08360 0.68432 0.83808
 O245 O 1.19882 0.86299 0.95683
 O246 O 1.24938 0.81844 0.95599
 C247 C 1.23058 0.84776 0.94020
 C248 C 1.24733 0.86449 0.90344
 C249 C 1.27223 0.84061 0.87797
 H250 H 1.27163 0.80787 0.88178
 O251 O 0.78425 1.12492 0.96715
 O252 O 0.73217 1.16708 0.96799
 C253 C 0.74936 1.13611 0.95426
 C254 C 0.72919 1.11616 0.92098
 C255 C 0.69884 1.13708 0.89931
 H256 H 0.68323 1.16124 0.91515
 O257 O 1.03506 1.13362 0.78516
 O258 O 1.04055 1.19441 0.75684
 C259 C 1.05332 1.15761 0.75954
 C260 C 1.09024 1.14100 0.73542
 C261 C 1.11245 1.15988 0.70170
 H262 H 1.10461 1.19096 0.69380
 O263 O 0.96500 0.85781 0.81632
 O264 O 0.94045 0.80031 0.79850
 C265 C 0.94019 0.83774 0.79462
 C266 C 0.91252 0.85624 0.76446
 C267 C 0.89170 0.83378 0.73316
 H268 H 0.89930 0.80200 0.72913
 O269 O 1.18798 1.04738 0.85863
 O270 O 1.23327 1.04577 0.80972
 C271 C 1.22016 1.06186 0.84178
 C272 C 1.24404 1.09520 0.86073
 C273 C 1.27811 1.11570 0.84164
 H274 H 1.28332 1.11084 0.80932
 O275 O 0.79041 0.95366 0.87235
 O276 O 0.77444 0.93031 0.81337
 C277 C 0.76912 0.92924 0.85091
 C278 C 0.73826 0.90019 0.86767
 C279 C 0.70729 0.88117 0.84350
 H280 H 0.70482 0.89045 0.81181
 O281 O 1.12975 1.18517 0.97853
 O282 O 1.17602 1.23117 0.96642
 C283 C 1.14116 1.21753 0.96005
 C284 C 1.11792 1.23680 0.92706
 C285 C 1.12963 1.27490 0.90899
 H286 H 1.13963 1.29866 0.92923
 O287 O 0.85031 0.80076 0.96156
 O288 O 0.80471 0.75294 0.97383
 C289 C 0.83543 0.76582 0.95334
 C290 C 0.85698 0.74050 0.92164
 C291 C 0.83882 0.71072 0.89557
 H292 H 0.80602 0.70850 0.89569
 O293 O 0.85638 0.95165 0.81389
 O294 O 0.81968 0.96218 0.75865
 C295 C 0.84851 0.94448 0.77634
 C296 C 0.86744 0.91104 0.75525
 C297 C 0.84364 0.88678 0.72940
 H298 H 0.81108 0.89069 0.73141
 O299 O 1.14228 1.03956 0.79179
 O300 O 1.19043 1.03365 0.74447
 C301 C 1.15744 1.04991 0.75659
 C302 C 1.13804 1.08370 0.73237
 C303 C 1.15419 1.09856 0.69480
 H304 H 1.17496 1.07863 0.67892
 O305 O 0.96288 0.79139 0.87694
 O306 O 0.97081 0.74060 0.83426
 C307 C 0.95477 0.75451 0.86641
 C308 C 0.92103 0.73100 0.88584
 C309 C 0.90566 0.69544 0.86745
 H310 H 0.92702 0.67749 0.84996
 O311 O 1.03830 1.16902 0.85574
 O312 O 1.04129 1.22372 0.81631
 C313 C 1.05615 1.20146 0.84380
 C314 C 1.09198 1.21668 0.86336
 C315 C 1.11650 1.24625 0.84332
 H316 H 1.12006 1.24473 0.81038
 O317 O 0.78962 0.84798 0.96145
 O318 O 0.74301 0.80144 0.97592
 C319 C 0.75507 0.83137 0.95390
 C320 C 0.73066 0.84934 0.91943
 C321 C 0.70218 0.82855 0.89400
 H322 H 0.69884 0.79629 0.89905
 O323 O 1.19674 1.14015 0.96925
 O324 O 1.25102 1.17528 0.98035
 C325 C 1.23378 1.14855 0.96012
 C326 C 1.25439 1.13246 0.92275
 C327 C 1.29156 1.14856 0.90631
 H328 H 1.30954 1.16665 0.92674
 O329 O 1.04185 0.84934 0.81598
 O330 O 1.02100 0.81528 0.76344
 C331 C 1.04496 0.84145 0.77761
 C332 C 1.07758 0.86270 0.75185
 C333 C 1.09663 0.85031 0.71345
 H334 H 1.07795 0.83290 0.69299
 O335 O 0.95933 1.12779 0.78943
 O336 O 0.94805 1.18974 0.76562
 C337 C 0.93809 1.15208 0.76779
 C338 C 0.90031 1.13542 0.74859
 C339 C 0.88072 1.15264 0.71374
 H340 H 0.89352 1.18045 0.70161
 O341 O 0.79666 1.03100 0.86466
 O342 O 0.74722 1.01221 0.82461
 C343 C 0.76052 1.03549 0.85160
 C344 C 0.73519 1.06833 0.86766
 C345 C 0.70694 1.09113 0.84360
 H346 H 0.69759 1.07682 0.81607
 O347 O 1.19751 0.96484 0.85562
 O348 O 1.25016 0.97712 0.81572
 C349 C 1.23406 0.95673 0.84383
 C350 C 1.25549 0.92079 0.85926
 C351 C 1.28352 0.89749 0.83528
 H352 H 1.28821 0.90702 0.80387
 O353 O 1.15027 0.79896 0.96357
 O354 O 1.20843 0.76552 0.96122
 C355 C 1.17154 0.76978 0.94845
 C356 C 1.15203 0.74400 0.91410
 C357 C 1.16388 0.70406 0.89987
 H358 H 1.18597 0.68872 0.91842
 O359 O 0.83630 1.18033 0.96530
 O360 O 0.78362 1.22048 0.95544
 C361 C 0.81913 1.20849 0.94435
 C362 C 0.84198 1.22706 0.90784
 C363 C 0.82791 1.26121 0.88364
 H364 H 0.79740 1.27267 0.88902
 Cu365 Cu 1.15939 1.00411 0.83562
 Cu366 Cu 1.21311 0.99949 0.78320
 Cu367 Cu 0.83002 0.98999 0.84710
 Cu368 Cu 0.78130 0.98058 0.79207
 Cu369 Cu 1.16694 1.16211 1.01446
 Cu370 Cu 1.21687 1.21455 1.00053
 Cu371 Cu 1.16769 0.84059 0.99907
 Cu372 Cu 1.23391 0.79956 1.00372
 Cu373 Cu 0.81259 1.15081 1.00867
 Cu374 Cu 0.75242 1.20200 1.00273
 Cu375 Cu 0.83158 0.83856 0.99948
 Cu376 Cu 0.77989 0.78428 1.01565
 Cu377 Cu 0.99614 1.14502 0.82719
 Cu378 Cu 0.99534 1.21426 0.79002
 Cu379 Cu 1.00089 0.82939 0.85205
 Cu380 Cu 0.99079 0.77880 0.79909
 C381 C 1.09396 0.89596 0.77112
 H382 H 1.07730 0.91092 0.79565
 C383 C 1.13906 0.86147 0.70312
 C384 C 0.88381 1.10033 0.76709
 H385 H 0.89926 1.08619 0.79285
 C386 C 0.84546 1.13399 0.69584
 C387 C 0.88019 1.20971 0.89766
 H388 H 0.89052 1.18210 0.91292
 C389 C 0.85395 1.28113 0.85360
 C390 C 1.11837 0.76197 0.89497
 H391 H 1.10972 0.79272 0.90326
 C392 C 1.14468 0.68371 0.86488
 C393 C 1.24156 0.90519 0.89576
 H394 H 1.22231 0.92338 0.91579
 C395 C 1.29939 0.85940 0.85042
 C396 C 0.74570 1.08120 0.90611
 H397 H 0.76865 1.06509 0.92387
 C398 C 0.69147 1.12969 0.85748
 C399 C 1.10506 1.10371 0.75014
 H400 H 1.09168 1.09044 0.77764
 C401 C 1.14412 1.13800 0.67861
 C402 C 0.90406 0.89691 0.76945
 H403 H 0.92102 0.91485 0.79129
 C404 C 0.85969 0.85251 0.70957
 C405 C 1.23272 1.10482 0.90035
 H406 H 1.20580 1.09100 0.91405
 C407 C 1.30439 1.14218 0.86441
 C408 C 0.74275 0.88827 0.90775
 H409 H 0.76322 0.90555 0.92689
 C410 C 0.68222 0.84877 0.85981
 C411 C 1.09454 1.21063 0.90489
 H412 H 1.07986 1.18460 0.91953
 C413 C 1.13117 1.27990 0.86527
 C414 C 0.89799 0.75008 0.91555
 H415 H 0.91169 0.77506 0.93201
 C416 C 0.86340 0.68519 0.86909
 O417 O 0.95924 0.33528 0.31339
 O418 O 0.95092 0.27934 0.27787
 C419 C 0.93967 0.31592 0.28601
 C420 C 0.90371 0.33787 0.26574
 C421 C 0.88043 0.32419 0.23104
 H422 H 0.88673 0.29389 0.21996
 O423 O 1.03449 0.64447 0.31229
 O424 O 1.03070 0.69492 0.26778
 C425 C 1.04661 0.66186 0.27904
 C426 C 1.07670 0.64237 0.25187
 C427 C 1.10187 0.66410 0.22330
 H428 H 1.10387 0.69686 0.22601
 O429 O 0.79819 0.47688 0.37094
 O430 O 0.74919 0.48369 0.32583
 C431 C 0.76030 0.47333 0.36116
 C432 C 0.73077 0.45246 0.38869
 C433 C 0.69653 0.43240 0.37149
 H434 H 0.67235 0.45079 0.35855
 O435 O 1.18109 0.54028 0.33743
 O436 O 1.21673 0.54494 0.28023
 C437 C 1.20917 0.55755 0.31653
 C438 C 1.23283 0.59156 0.33644
 C439 C 1.26963 0.60942 0.32046
 H440 H 1.28157 0.59402 0.29450
 O441 O 0.83721 0.30472 0.46396
 O442 O 0.77730 0.27649 0.45730
 C443 C 0.81427 0.27920 0.44582
 C444 C 0.83303 0.25318 0.41228
 C445 C 0.81397 0.22395 0.38492
 H446 H 0.78240 0.21582 0.38988
 O447 O 1.14550 0.70407 0.46329
 O448 O 1.20565 0.73246 0.45404
 C449 C 1.16748 0.73067 0.44529
 C450 C 1.14704 0.75556 0.41168
 C451 C 1.15834 0.79522 0.39688
 H452 H 1.17676 0.81295 0.41715
 O453 O 0.86444 0.54066 0.30502
 O454 O 0.82527 0.52328 0.25439
 C455 C 0.85316 0.54562 0.26791
 C456 C 0.87089 0.57970 0.24288
 C457 C 0.85087 0.60032 0.20948
 H458 H 0.82177 0.58850 0.20072
 O459 O 1.12188 0.45329 0.30141
 O460 O 1.15547 0.46074 0.24373
 C461 C 1.13002 0.44182 0.26541
 C462 C 1.11578 0.40353 0.24905
 C463 C 1.13358 0.39002 0.21263
 H464 H 1.14622 0.41183 0.19090
 O465 O 1.03256 0.28215 0.38063
 O466 O 1.02922 0.22830 0.34188
 C467 C 1.04519 0.24682 0.37084
 C468 C 1.08425 0.23149 0.38626
 C469 C 1.10569 0.20132 0.36397
 H470 H 1.08867 0.17754 0.34902
 O471 O 0.95500 0.69628 0.37701
 O472 O 0.95014 0.74052 0.32760
 C473 C 0.93767 0.72744 0.36098
 C474 C 0.90405 0.75026 0.38032
 C475 C 0.88083 0.78078 0.35902
 H476 H 0.88146 0.78032 0.32598
 O477 O 0.79849 0.63985 0.46883
 O478 O 0.75099 0.68640 0.47611
 C479 C 0.76556 0.65686 0.45574
 C480 C 0.74710 0.64312 0.41523
 C481 C 0.70993 0.65770 0.39708
 H482 H 0.68895 0.67260 0.41765
 O483 O 1.20524 0.38060 0.45310
 O484 O 1.25940 0.34189 0.45821
 C485 C 1.24226 0.37275 0.44332
 C486 C 1.26321 0.39293 0.40876
 C487 C 1.30227 0.37952 0.39707
 H488 H 1.32184 0.36705 0.42058
 O489 O 0.95458 0.64351 0.31393
 O490 O 0.96005 0.68930 0.26523
 C491 C 0.94393 0.65749 0.27862
 C492 C 0.91351 0.63751 0.25227
 C493 C 0.89176 0.65881 0.22096
 H494 H 0.89317 0.69164 0.22114
 O495 O 1.03776 0.33363 0.31658
 O496 O 1.04168 0.27913 0.27878
 C497 C 1.05503 0.31439 0.28737
 C498 C 1.08837 0.33633 0.26283
 C499 C 1.11457 0.32097 0.23027
 H500 H 1.11407 0.28883 0.22301
 O501 O 1.19165 0.46251 0.33463
 O502 O 1.22828 0.45764 0.27838
 C503 C 1.22248 0.44740 0.31573
 C504 C 1.25125 0.42010 0.34032
 C505 C 1.28785 0.39943 0.32664
 H506 H 1.29566 0.40049 0.29433
 O507 O 0.81478 0.55343 0.35467
 O508 O 0.76661 0.54502 0.30933
 C509 C 0.78200 0.56638 0.33746
 C510 C 0.75986 0.60346 0.35372
 C511 C 0.72887 0.62624 0.33251
 H512 H 0.72944 0.62424 0.29961
 O513 O 0.85483 0.69416 0.47585
 O514 O 0.81424 0.74248 0.49609
 C515 C 0.84327 0.73143 0.47296
 C516 C 0.86278 0.75895 0.44006
 C517 C 0.84907 0.79783 0.42332
 H518 H 0.83568 0.81803 0.44549
 O519 O 1.14825 0.31594 0.45517
 O520 O 1.20518 0.29700 0.42754
 C521 C 1.16733 0.29542 0.42804
 C522 C 1.14678 0.26520 0.40194
 C523 C 1.16758 0.24001 0.37289
 H524 H 1.19927 0.24602 0.36552
 O525 O 1.12015 0.53297 0.28416
 O526 O 1.16095 0.53395 0.23024
 C527 C 1.12931 0.54614 0.24823
 C528 C 1.10697 0.58009 0.22978
 C529 C 1.12302 0.59984 0.19480
 H530 H 1.13912 0.58150 0.17253
 O531 O 0.86807 0.45956 0.31307
 O532 O 0.80896 0.44278 0.29125
 C533 C 0.84622 0.43549 0.29212
 C534 C 0.86163 0.39941 0.26826
 C535 C 0.84360 0.38857 0.23030
 H536 H 0.82549 0.41195 0.21621
 O537 O 1.04029 0.70058 0.36526
 O538 O 1.03169 0.75032 0.32105
 C539 C 1.05286 0.73427 0.34887
 C540 C 1.09213 0.75440 0.36182
 C541 C 1.11122 0.78767 0.34046
 H542 H 1.10048 0.79422 0.30991
 O543 O 0.95001 0.29367 0.37488
 O544 O 0.95476 0.23771 0.33842
 C545 C 0.93536 0.26020 0.36274
 C546 C 0.89363 0.24868 0.37145
 C547 C 0.87107 0.22984 0.34095
 H548 H 0.87934 0.23551 0.30938
 O549 O 1.19046 0.63745 0.45202
 O550 O 1.24979 0.66647 0.45886
 C551 C 1.22684 0.64353 0.43930
 C552 C 1.24250 0.62860 0.39938
 C553 C 1.27995 0.64365 0.38387
 H554 H 1.29970 0.65832 0.40534
 O555 O 0.80314 0.37543 0.46488
 O556 O 0.74679 0.33920 0.46200
 C557 C 0.76948 0.36690 0.44835
 C558 C 0.75368 0.38988 0.41478
 C559 C 0.73175 0.36980 0.38396
 H560 H 0.73936 0.33862 0.37643
 Cu561 Cu 0.99677 0.31545 0.35169
 Cu562 Cu 0.99619 0.25183 0.30493
 Cu563 Cu 0.99565 0.66569 0.34923
 Cu564 Cu 0.99056 0.71952 0.29835
 Cu565 Cu 0.84229 0.50367 0.34280
 Cu566 Cu 0.79041 0.49523 0.29080
 Cu567 Cu 1.14909 0.49802 0.31969
 Cu568 Cu 1.19372 0.49780 0.25424
 C569 C 0.89211 0.37484 0.28422
 H570 H 0.90624 0.38460 0.31240
 C571 C 0.85018 0.35006 0.21080
 C572 C 1.07989 0.60044 0.25477
 H573 H 1.06428 0.58398 0.27927
 C574 C 1.12429 0.64290 0.19225
 C575 C 0.75029 0.43148 0.41947
 H576 H 0.76980 0.44726 0.44084
 C577 C 0.69723 0.38894 0.36736
 C578 C 1.21862 0.60430 0.37484
 H579 H 1.18971 0.59347 0.38697
 C580 C 1.29168 0.64105 0.34200
 C581 C 0.87493 0.25927 0.40743
 H582 H 0.89268 0.27592 0.42960
 C583 C 0.83753 0.20585 0.35116
 C584 C 1.11228 0.73767 0.39509
 H585 H 1.10057 0.70946 0.40804
 C586 C 1.14338 0.81171 0.35825
 C587 C 0.90547 0.59698 0.25937
 H588 H 0.92262 0.58079 0.28280
 C589 C 0.86602 0.63844 0.19253
 C590 C 1.09308 0.37730 0.27329
 H591 H 1.07873 0.38963 0.30054
 C592 C 1.13953 0.34896 0.20557
 C593 C 1.10575 0.25882 0.40959
 H594 H 1.08918 0.27924 0.42977
 C595 C 1.14788 0.20543 0.35553
 C596 C 0.89506 0.74063 0.42030
 H597 H 0.91122 0.71560 0.43499
 C598 C 0.85636 0.81009 0.38004
 C599 C 0.76958 0.61449 0.39349
 H600 H 0.79529 0.59981 0.40823
 C601 C 0.70037 0.65272 0.35367
 C602 C 1.23972 0.41487 0.38143
 H603 H 1.21048 0.42592 0.39237
 C604 C 1.31454 0.37835 0.35565
 O605 O 1.03284 0.32012 0.68443
 O606 O 1.03613 0.26384 0.72113
 C607 C 1.04693 0.30091 0.71582
 C608 C 1.07774 0.32302 0.74325
 C609 C 1.09202 0.31175 0.78391
 H610 H 1.07314 0.29062 0.80057
 O611 O 0.96618 0.64936 0.69019
 O612 O 0.97858 0.68931 0.74170
 C613 C 0.95705 0.66188 0.72627
 C614 C 0.92456 0.64124 0.75159
 C615 C 0.89880 0.65981 0.78234
 H616 H 0.89923 0.69264 0.78537
 O617 O 0.81548 0.53597 0.66827
 O618 O 0.77909 0.53686 0.72452
 C619 C 0.78529 0.55090 0.68833
 C620 C 0.75749 0.58243 0.66588
 C621 C 0.72040 0.60364 0.67947
 H622 H 0.71219 0.60173 0.71164
 O623 O 1.19128 0.43676 0.65055
 O624 O 1.23160 0.43320 0.70424
 C625 C 1.22196 0.42063 0.66936
 C626 C 1.24734 0.38945 0.64908
 C627 C 1.27766 0.36584 0.66921
 H628 H 1.27842 0.36627 0.70232
 O629 O 1.15743 0.31520 0.53490
 O630 O 1.19403 0.26590 0.50952
 C631 C 1.16897 0.27803 0.53647
 C632 C 1.14992 0.24878 0.56694
 C633 C 1.17016 0.21652 0.58952
 H634 H 1.20295 0.21376 0.58705
 O635 O 0.85841 0.68719 0.55360
 O636 O 0.80128 0.71412 0.57368
 C637 C 0.83881 0.71059 0.57804
 C638 C 0.85971 0.73704 0.60813
 C639 C 0.83976 0.76769 0.63200
 H640 H 0.80686 0.76702 0.63422
 O641 O 0.88131 0.45076 0.70640
 O642 O 0.84356 0.44987 0.76234
 C643 C 0.87115 0.43415 0.74043
 C644 C 0.88597 0.39330 0.75282
 C645 C 0.87133 0.37600 0.78942
 H646 H 0.85952 0.39634 0.81259
 O647 O 1.12950 0.51667 0.70335
 O648 O 1.18601 0.52594 0.73586
 C649 C 1.15039 0.53663 0.72955
 C650 C 1.13523 0.57266 0.75212
 C651 C 1.15840 0.59274 0.78311
 H652 H 1.18866 0.58124 0.78785
 O653 O 0.95419 0.27658 0.61675
 O654 O 0.96179 0.21879 0.64977
 C655 C 0.94292 0.24007 0.62432
 C656 C 0.90355 0.22463 0.61031
 C657 C 0.88744 0.18814 0.62641
 H658 H 0.90817 0.16482 0.63745
 O659 O 1.05839 0.69586 0.63927
 O660 O 1.04736 0.74923 0.67730
 C661 C 1.06852 0.73144 0.65121
 C662 C 1.10545 0.75222 0.63724
 C663 C 1.12502 0.78102 0.66199
 H664 H 1.11662 0.78163 0.69394
 O665 O 0.80024 0.37133 0.54692
 O666 O 0.73970 0.34618 0.53555
 C667 C 0.76288 0.36759 0.55665
 C668 C 0.74720 0.38093 0.59647
 C669 C 0.71234 0.36192 0.61253
 H670 H 0.69158 0.34767 0.59152
 O671 O 1.18331 0.63141 0.53922
 O672 O 1.24082 0.66511 0.53824
 C673 C 1.21745 0.63957 0.55482
 C674 C 1.23208 0.62017 0.59200
 C675 C 1.25911 0.64132 0.61750
 H676 H 1.25536 0.67383 0.62020
 O677 O 1.04355 0.63563 0.69298
 O678 O 1.05865 0.68913 0.72834
 C679 C 1.06356 0.65237 0.72153
 C680 C 1.09275 0.63057 0.74729
 C681 C 1.11555 0.65062 0.77838
 H682 H 1.11266 0.68326 0.78058
 O683 O 0.95647 0.32451 0.67612
 O684 O 0.95047 0.26725 0.71136
 C685 C 0.93953 0.30418 0.70484
 C686 C 0.90981 0.32627 0.73185
 C687 C 0.88704 0.30823 0.76481
 H688 H 0.88578 0.27534 0.76754
 O689 O 1.18598 0.51497 0.63866
 O690 O 1.23525 0.50761 0.68272
 C691 C 1.22182 0.52458 0.65061
 C692 C 1.24462 0.55910 0.62997
 C693 C 1.28231 0.57699 0.64352
 H694 H 1.30384 0.55687 0.65833
 O695 O 0.81635 0.45649 0.66523
 O696 O 0.78255 0.44760 0.72289
 C697 C 0.78875 0.43783 0.68571
 C698 C 0.76326 0.40688 0.66370
 C699 C 0.73177 0.38138 0.68111
 H700 H 0.72697 0.38096 0.71400
 O701 O 1.15610 0.70353 0.53722
 O702 O 1.21535 0.73390 0.54147
 C703 C 1.17883 0.73027 0.55408
 C704 C 1.16065 0.75485 0.58896
 C705 C 1.17852 0.78760 0.61238
 H706 H 1.20908 0.79696 0.60428
 O707 O 0.83788 0.30369 0.54321
 O708 O 0.77842 0.27406 0.54854
 C709 C 0.81544 0.27647 0.55980
 C710 C 0.83626 0.24652 0.58880
 C711 C 0.81898 0.21353 0.61281
 H712 H 0.78617 0.21005 0.61420
 O713 O 1.12647 0.43140 0.69034
 O714 O 1.16767 0.43748 0.74168
 C715 C 1.14023 0.41775 0.72422
 C716 C 1.12596 0.37889 0.74351
 C717 C 1.14725 0.35963 0.77629
 H718 H 1.17881 0.36765 0.77958
 O719 O 0.88307 0.53190 0.71247
 O720 O 0.84763 0.52392 0.76915
 C721 C 0.87560 0.54118 0.74946
 C722 C 0.89394 0.57669 0.76812
 C723 C 0.87559 0.59294 0.80350
 H724 H 0.85909 0.57277 0.82414
 O725 O 0.97542 0.70575 0.63527
 O726 O 0.97697 0.75026 0.68503
 C727 C 0.96170 0.73828 0.65193
 C728 C 0.92392 0.75757 0.63590
 C729 C 0.90565 0.79353 0.65201
 H730 H 0.92548 0.81552 0.66604
 O731 O 1.03605 0.28023 0.61156
 O732 O 1.03752 0.22671 0.65224
 C733 C 1.05094 0.24592 0.62148
 C734 C 1.08726 0.23002 0.60104
 C735 C 1.10482 0.19363 0.61542
 H736 H 1.08533 0.17131 0.63021
 O737 O 1.21223 0.36391 0.53338
 O738 O 1.25923 0.31701 0.52312
 C739 C 1.24515 0.34591 0.54459
 C740 C 1.26334 0.35713 0.58484
 C741 C 1.29790 0.33850 0.60310
 H742 H 1.31730 0.32121 0.58286
 O743 O 0.80497 0.62462 0.55309
 O744 O 0.75013 0.66116 0.54521
 C745 C 0.76786 0.63197 0.56249
 C746 C 0.74702 0.61266 0.59813
 C747 C 0.70703 0.62445 0.60912
 H748 H 0.68694 0.63409 0.58484
 Cu749 Cu 0.99621 0.30538 0.64208
 Cu750 Cu 0.99592 0.23973 0.68633
 Cu751 Cu 1.01131 0.66667 0.65718
 Cu752 Cu 1.01703 0.71907 0.71067
 Cu753 Cu 0.82570 0.34277 0.50485
 Cu754 Cu 0.75543 0.30498 0.50342
 Cu755 Cu 1.17462 0.35078 0.49257
 Cu756 Cu 1.22916 0.30025 0.47752
 Cu757 Cu 0.83419 0.65452 0.51259
 Cu758 Cu 0.77867 0.70385 0.52402
 Cu759 Cu 1.16410 0.66356 0.49694
 Cu760 Cu 1.23355 0.70146 0.49723
 Cu761 Cu 0.85341 0.49498 0.68253
 Cu762 Cu 0.80935 0.49152 0.74923
 Cu763 Cu 1.15132 0.47695 0.66549
 Cu764 Cu 1.20079 0.47697 0.71875
 C765 C 1.09290 0.35933 0.72665
 H766 H 1.07991 0.37214 0.69890
 C767 C 1.12895 0.32936 0.80218
 C768 C 0.92023 0.59998 0.74445
 H769 H 0.93625 0.58591 0.71898
 C770 C 0.87346 0.63511 0.80955
 C771 C 0.77054 0.59089 0.62572
 H772 H 0.80041 0.58108 0.61533
 C773 C 0.69381 0.62618 0.65043
 C774 C 1.24124 0.38491 0.60755
 H775 H 1.21729 0.40238 0.59282
 C776 C 1.30655 0.34247 0.64641
 C777 C 1.10890 0.25561 0.57491
 H778 H 1.09387 0.28220 0.56187
 C779 C 1.14720 0.18820 0.61533
 C780 C 0.90143 0.73319 0.61024
 H781 H 0.91614 0.70823 0.59429
 C782 C 0.86227 0.79975 0.65116
 C783 C 0.90613 0.36858 0.72496
 H784 H 0.91882 0.38269 0.69751
 C785 C 0.86696 0.33347 0.79447
 C786 C 1.10002 0.59033 0.73830
 H787 H 1.08216 0.57520 0.71512
 C788 C 1.14461 0.62954 0.80286
 C789 C 0.87844 0.25174 0.59035
 H790 H 0.89281 0.27829 0.57658
 C791 C 0.84520 0.18317 0.63236
 C792 C 1.12169 0.74209 0.60008
 H793 H 1.10492 0.72038 0.58194
 C794 C 1.15622 0.80655 0.64653
 C795 C 0.77158 0.40371 0.62166
 H796 H 0.79771 0.41883 0.60784
 C797 C 0.70602 0.35730 0.65492
 C798 C 1.22348 0.57976 0.59958
 H799 H 1.19904 0.56513 0.58306
 C800 C 1.29016 0.62062 0.63852
 O801 O 0.45442 0.83932 0.30623
 O802 O 0.44852 0.78296 0.27141
 C803 C 0.43638 0.81913 0.27875
 C804 C 0.40295 0.84083 0.25541
 C805 C 0.37909 0.82565 0.22207
 H806 H 0.38108 0.79361 0.21469
 O807 O 0.54812 1.16093 0.31816
 O808 O 0.52636 1.19559 0.26536
 C809 C 0.55136 1.17001 0.28000
 C810 C 0.58437 1.15043 0.25381
 C811 C 0.60125 1.16693 0.21616
 H812 H 0.58384 1.19088 0.20191
 O813 O 0.30752 0.97400 0.34144
 O814 O 0.27330 0.96790 0.28404
 C815 C 0.27807 0.95829 0.32194
 C816 C 0.25370 0.92562 0.34421
 C817 C 0.21401 0.91051 0.33403
 H818 H 0.19549 0.93151 0.31702
 O819 O 0.68556 1.04002 0.34832
 O820 O 0.73598 1.01917 0.31002
 C821 C 0.72242 1.04442 0.33545
 C822 C 0.74858 1.07841 0.35131
 C823 C 0.78249 1.09858 0.33081
 H824 H 0.79184 1.08459 0.30292
 O825 O 0.33911 0.80178 0.46104
 O826 O 0.27991 0.77142 0.45282
 C827 C 0.31722 0.77604 0.44208
 C828 C 0.33775 0.75214 0.40850
 C829 C 0.31834 0.72590 0.37980
 H830 H 0.28536 0.72492 0.37893
 O831 O 0.65732 1.20382 0.45462
 O832 O 0.71414 1.23887 0.45289
 C833 C 0.67790 1.23380 0.44011
 C834 C 0.65830 1.26113 0.40749
 C835 C 0.67030 1.30162 0.39585
 H836 H 0.69416 1.31359 0.41402
 O837 O 0.38349 1.03859 0.28897
 O838 O 0.34214 1.04484 0.23699
 C839 C 0.37460 1.05420 0.25430
 C840 C 0.39732 1.08879 0.23744
 C841 C 0.38214 1.10965 0.20262
 H842 H 0.36880 1.09226 0.17809
 O843 O 0.62515 0.95426 0.30345
 O844 O 0.66089 0.96598 0.24799
 C845 C 0.63370 0.94593 0.26602
 C846 C 0.61831 0.90937 0.24483
 C847 C 0.63477 0.89875 0.20618
 H848 H 0.64867 0.92253 0.18781
 O849 O 0.53574 0.79806 0.36855
 O850 O 0.52849 0.74017 0.33606
 C851 C 0.54734 0.76229 0.36041
 C852 C 0.58620 0.74767 0.37316
 C853 C 0.61137 0.72982 0.34370
 H854 H 0.60748 0.74122 0.31278
 O855 O 0.47066 1.21993 0.37793
 O856 O 0.47592 1.27018 0.33295
 C857 C 0.46251 1.25686 0.36675
 C858 C 0.43146 1.28122 0.38840
 C859 C 0.41456 1.31624 0.36959
 H860 H 0.43500 1.33493 0.35153
 O861 O 0.31659 1.14519 0.44396
 O862 O 0.26721 1.18911 0.45572
 C863 C 0.28335 1.16216 0.43291
 C864 C 0.26391 1.15010 0.39367
 C865 C 0.22600 1.16613 0.38070
 H866 H 0.21155 1.18711 0.40130
 O867 O 0.69219 0.87081 0.47163
 O868 O 0.74756 0.83576 0.48394
 C869 C 0.73005 0.86399 0.46525
 C870 C 0.75161 0.88016 0.42979
 C871 C 0.78024 0.85483 0.40966
 H872 H 0.78018 0.82328 0.41865
 O873 O 0.46925 1.15241 0.31988
 O874 O 0.44328 1.20934 0.30029
 C875 C 0.44297 1.17163 0.29862
 C876 C 0.41729 1.15152 0.26764
 C877 C 0.39312 1.17299 0.23791
 H878 H 0.38852 1.20553 0.24090
 O879 O 0.53261 0.83919 0.30404
 O880 O 0.54150 0.78290 0.26969
 C881 C 0.55211 0.81977 0.27610
 C882 C 0.58555 0.84286 0.25137
 C883 C 0.60887 0.82994 0.21539
 H884 H 0.60588 0.79869 0.20558
 O885 O 0.68522 0.96406 0.36347
 O886 O 0.71147 0.94145 0.30697
 C887 C 0.71034 0.94068 0.34505
 C888 C 0.73928 0.91419 0.36717
 C889 C 0.77070 0.89025 0.34774
 H890 H 0.77314 0.89111 0.31465
 O891 O 0.31583 1.04960 0.33731
 O892 O 0.28084 1.05545 0.28041
 C893 C 0.28786 1.06759 0.31676
 C894 C 0.26510 1.10329 0.33622
 C895 C 0.22506 1.11749 0.32573
 H896 H 0.20773 1.09649 0.30801
 O897 O 0.36111 1.20013 0.45271
 O898 O 0.32210 1.24767 0.47831
 C899 C 0.34878 1.23720 0.45235
 C900 C 0.36864 1.26762 0.42391
 C901 C 0.34873 1.29789 0.39840
 H902 H 0.31582 1.29979 0.39942
 O903 O 0.63886 0.80598 0.46880
 O904 O 0.69865 0.79088 0.44472
 C905 C 0.66118 0.78778 0.44251
 C906 C 0.64440 0.76120 0.41163
 C907 C 0.66843 0.73579 0.38489
 H908 H 0.70116 0.73447 0.38859
 O909 O 0.62820 1.03956 0.30062
 O910 O 0.67772 1.03599 0.25511
 C911 C 0.64622 1.05410 0.26875
 C912 C 0.63151 1.09326 0.24947
 C913 C 0.64976 1.11110 0.21402
 H914 H 0.67282 1.09266 0.19997
 O915 O 0.36858 0.95720 0.29830
 O916 O 0.34065 0.97002 0.23898
 C917 C 0.36172 0.94735 0.26135
 C918 C 0.37314 0.90759 0.24458
 C919 C 0.35621 0.89454 0.20754
 H920 H 0.34300 0.91706 0.18719
 O921 O 0.55000 1.21414 0.36727
 O922 O 0.53985 1.26084 0.31960
 C923 C 0.56074 1.24747 0.34962
 C924 C 0.59874 1.26838 0.36384
 C925 C 0.60996 1.30934 0.35416
 H926 H 0.58698 1.32830 0.34007
 O927 O 0.45330 0.78824 0.36965
 O928 O 0.45752 0.73433 0.33051
 C929 C 0.44080 0.75290 0.35966
 C930 C 0.40292 0.73549 0.37694
 C931 C 0.38497 0.70193 0.35791
 H932 H 0.40437 0.68051 0.34192
 O933 O 0.70219 1.13667 0.45209
 O934 O 0.75676 1.17532 0.45373
 C935 C 0.73792 1.14556 0.43970
 C936 C 0.75747 1.12328 0.40729
 C937 C 0.79458 1.13708 0.39105
 H938 H 0.81447 1.15432 0.41048
 O939 O 0.30636 0.86746 0.45113
 O940 O 0.24786 0.83578 0.45544
 C941 C 0.27183 0.85864 0.43602
 C942 C 0.25783 0.87290 0.39561
 C943 C 0.22772 0.85083 0.37453
 H944 H 0.22721 0.81836 0.37934
 Cu945 Cu 0.49263 0.82079 0.34219
 Cu946 Cu 0.49497 0.75660 0.29653
 Cu947 Cu 0.50645 1.18079 0.35319
 Cu948 Cu 0.49421 1.23146 0.29865
 Cu949 Cu 0.34953 1.00587 0.32119
 Cu950 Cu 0.30590 1.00856 0.25581
 Cu951 Cu 0.64863 0.99767 0.33462
 Cu952 Cu 0.69908 0.98807 0.27959
 C953 C 0.39596 0.88096 0.26784
 H954 H 0.40931 0.89259 0.29565
 C955 C 0.35377 0.85301 0.19781
 C956 C 0.60026 1.11408 0.26924
 H957 H 0.58736 1.10119 0.29719
 C958 C 0.63781 1.15019 0.19700
 C959 C 0.27235 0.90862 0.37875
 H960 H 0.29887 0.92252 0.39241
 C961 C 0.19952 0.87060 0.34846
 C962 C 0.73575 1.09334 0.38845
 H963 H 0.70834 1.08165 0.40319
 C964 C 0.80333 1.13352 0.34930
 C965 C 0.37990 0.75825 0.40410
 H966 H 0.39516 0.78217 0.42070
 C967 C 0.34237 0.69934 0.35396
 C968 C 0.62445 1.24492 0.38839
 H969 H 0.61671 1.21334 0.39457
 C970 C 0.64924 1.32575 0.36447
 C971 C 0.42018 1.10959 0.26566
 H972 H 0.43543 1.09278 0.28998
 C973 C 0.37716 1.15236 0.20300
 C974 C 0.59369 0.88200 0.26609
 H975 H 0.58094 0.89175 0.29516
 C976 C 0.63502 0.85838 0.19181
 C977 C 0.60250 0.76135 0.40865
 H978 H 0.58333 0.77804 0.43001
 C979 C 0.64876 0.71270 0.35369
 C980 C 0.41015 1.26147 0.41913
 H981 H 0.42503 1.23689 0.43590
 C982 C 0.37202 1.32460 0.37115
 C983 C 0.28401 1.12149 0.36943
 H984 H 0.31414 1.11120 0.37827
 C985 C 0.20658 1.15375 0.34371
 C986 C 0.73476 0.91254 0.40928
 H987 H 0.71206 0.93114 0.42473
 C988 C 0.79779 0.86502 0.37162
 O989 O 0.53271 0.85288 0.68437
 O990 O 0.54943 0.79698 0.71588
 C991 C 0.55500 0.83412 0.71062
 C992 C 0.58487 0.85476 0.73769
 C993 C 0.60627 0.83433 0.77025
 H994 H 0.60641 0.80137 0.77082
 O995 O 0.45972 1.16728 0.69027
 O996 O 0.45980 1.21990 0.73057
 C997 C 0.44500 1.18542 0.72154
 C998 C 0.41251 1.16320 0.74744
 C999 C 0.39047 1.17727 0.78343
 H1000 H 0.39484 1.20844 0.79299
 O1001 O 0.31926 1.04122 0.63486
 O1002 O 0.29180 1.06454 0.69041
 C1003 C 0.29401 1.06518 0.65229
 C1004 C 0.26487 1.09059 0.62884
 C1005 C 0.23313 1.11458 0.64716
 H1006 H 0.23211 1.11747 0.68020
 O1007 O 0.68695 0.95180 0.65210
 O1008 O 0.73583 0.96385 0.69569
 C1009 C 0.72196 0.94226 0.66725
 C1010 C 0.74545 0.90568 0.65186
 C1011 C 0.78666 0.89519 0.66193
 H1012 H 0.80409 0.91917 0.67558
 O1013 O 0.64369 0.80062 0.54718
 O1014 O 0.68239 0.75330 0.52083
 C1015 C 0.65584 0.76360 0.54683
 C1016 C 0.63760 0.73379 0.57637
 C1017 C 0.65925 0.70393 0.60091
 H1018 H 0.69081 0.69846 0.59358
 O1019 O 0.37002 1.19111 0.53123
 O1020 O 0.31137 1.20591 0.55716
 C1021 C 0.34908 1.20916 0.55868
 C1022 C 0.36754 1.23821 0.58777
 C1023 C 0.34547 1.26042 0.61852
 H1024 H 0.31337 1.25441 0.62363
 O1025 O 0.37416 0.96784 0.70200
 O1026 O 0.32330 0.97086 0.74633
 C1027 C 0.35622 0.95395 0.73422
 C1028 C 0.37274 0.91613 0.75449
 C1029 C 0.36126 0.90188 0.79413
 H1030 H 0.34896 0.92424 0.81483
 O1031 O 0.64034 1.05266 0.68188
 O1032 O 0.66926 1.04154 0.74032
 C1033 C 0.65035 1.06510 0.71741
 C1034 C 0.64140 1.10594 0.73400
 C1035 C 0.66611 1.12322 0.76478
 H1036 H 0.69737 1.11331 0.76642
 O1037 O 0.45244 0.78949 0.63153
 O1038 O 0.45637 0.74351 0.68074
 C1039 C 0.43836 0.75689 0.64878
 C1040 C 0.39933 0.73699 0.63258
 C1041 C 0.38520 0.69685 0.64353
 H1042 H 0.40772 0.67697 0.65698
 O1043 O 0.54611 1.20792 0.62911
 O1044 O 0.54384 1.26249 0.66780
 C1045 C 0.55999 1.24252 0.63923
 C1046 C 0.59831 1.25799 0.62277
 C1047 C 0.61476 1.29299 0.63979
 H1048 H 0.59447 1.31412 0.65503
 O1049 O 0.29508 0.87239 0.53659
 O1050 O 0.23871 0.83756 0.53366
 C1051 C 0.25881 0.86560 0.54899
 C1052 C 0.24110 0.88634 0.58470
 C1053 C 0.20384 0.87283 0.60250
 H1054 H 0.18286 0.85671 0.58321
 O1055 O 0.69997 1.12952 0.52956
 O1056 O 0.75694 1.16326 0.52248
 C1057 C 0.73732 1.13473 0.53810
 C1058 C 0.75841 1.11156 0.56931
 C1059 C 0.79286 1.12882 0.58816
 H1060 H 0.80876 1.15262 0.57176
 O1061 O 0.54016 1.16349 0.69274
 O1062 O 0.54969 1.22020 0.72630
 C1063 C 0.55998 1.18358 0.71910
 C1064 C 0.59534 1.16286 0.73951
 C1065 C 0.61743 1.17713 0.77446
 H1066 H 0.60765 1.20552 0.78773
 O1067 O 0.45406 0.84717 0.68364
 O1068 O 0.46964 0.80824 0.73564
 C1069 C 0.44778 0.83621 0.72089
 C1070 C 0.41551 0.85639 0.74679
 C1071 C 0.39962 0.84024 0.78482
 H1072 H 0.41478 0.81373 0.79672
 O1073 O 0.69328 1.02254 0.63033
 O1074 O 0.72990 1.03557 0.68435
 C1075 C 0.72463 1.03827 0.64650
 C1076 C 0.75307 1.06320 0.62310
 C1077 C 0.78805 1.07990 0.64191
 H1078 H 0.80149 1.06207 0.66604
 O1079 O 0.31896 0.96413 0.64891
 O1080 O 0.26794 0.98459 0.68634
 C1081 C 0.28176 0.95974 0.66078
 C1082 C 0.25446 0.92715 0.64355
 C1083 C 0.21928 0.90902 0.66379
 H1084 H 0.21179 0.92236 0.69252
 O1085 O 0.66007 1.19630 0.53578
 O1086 O 0.71852 1.22729 0.54370
 C1087 C 0.68227 1.22080 0.55570
 C1088 C 0.66307 1.24297 0.59077
 C1089 C 0.68178 1.27330 0.61574
 H1090 H 0.71439 1.27807 0.61367
 O1091 O 0.34175 0.80212 0.53879
 O1092 O 0.28334 0.76989 0.54199
 C1093 C 0.32013 0.77347 0.55463
 C1094 C 0.33935 0.74578 0.58829
 C1095 C 0.32503 0.70615 0.60192
 H1096 H 0.30111 0.69438 0.58352
 O1097 O 0.62355 0.96786 0.70212
 O1098 O 0.67197 0.96413 0.74761
 C1099 C 0.63765 0.95274 0.73552
 C1100 C 0.61744 0.91727 0.75607
 C1101 C 0.63076 0.89920 0.79390
 H1102 H 0.64504 0.91894 0.81581
 O1103 O 0.37551 1.05164 0.69735
 O1104 O 0.33847 1.03946 0.75179
 C1105 C 0.36558 1.06005 0.73456
 C1106 C 0.37923 1.09738 0.75563
 C1107 C 0.36146 1.10961 0.79341
 H1108 H 0.34560 1.08691 0.81159
 O1109 O 0.46941 1.21434 0.62422
 O1110 O 0.47320 1.26836 0.66311
 C1111 C 0.46003 1.25100 0.63191
 C1112 C 0.42817 1.27135 0.60921
 C1113 C 0.40587 1.30024 0.63132
 H1114 H 0.42185 1.32363 0.64802
 O1115 O 0.53807 0.79237 0.62766
 O1116 O 0.52910 0.74066 0.66959
 C1117 C 0.54828 0.75685 0.64061
 C1118 C 0.58420 0.73510 0.62543
 C1119 C 0.60843 0.71104 0.65208
 H1120 H 0.60485 0.71545 0.68467
 O1121 O 0.69369 0.85455 0.55259
 O1122 O 0.74200 0.80850 0.54436
 C1123 C 0.72650 0.83725 0.56489
 C1124 C 0.74666 0.85219 0.60212
 C1125 C 0.78651 0.84038 0.61415
 H1126 H 0.80279 0.82024 0.59395
 O1127 O 0.30613 1.12988 0.52400
 O1128 O 0.25272 1.16975 0.51761
 C1129 C 0.26817 1.13745 0.53113
 C1130 C 0.24513 1.11493 0.56281
 C1131 C 0.20881 1.13176 0.57946
 H1132 H 0.18811 1.14692 0.55864
 Cu1133 Cu 0.49523 0.82521 0.64942
 Cu1134 Cu 0.50141 0.77268 0.70349
 Cu1135 Cu 0.50268 1.18225 0.65539
 Cu1136 Cu 0.50410 1.24672 0.70224
 Cu1137 Cu 0.32536 0.84129 0.49910
 Cu1138 Cu 0.25773 0.80151 0.49768
 Cu1139 Cu 0.66029 0.84006 0.50897
 Cu1140 Cu 0.71757 0.79210 0.49598
 Cu1141 Cu 0.34478 1.15931 0.49082
 Cu1142 Cu 0.28963 1.20808 0.50550
 Cu1143 Cu 0.67317 1.16322 0.49238
 Cu1144 Cu 0.73996 1.20586 0.49454
 Cu1145 Cu 0.35455 1.00745 0.66520
 Cu1146 Cu 0.30260 1.01696 0.71777
 Cu1147 Cu 0.65305 0.99868 0.66252
 Cu1148 Cu 0.70159 1.00370 0.71922
 C1149 C 0.59070 0.89596 0.73167
 H1150 H 0.57722 0.91063 0.70505
 C1151 C 0.62626 0.85625 0.80223
 C1152 C 0.40452 1.12367 0.73423
 H1153 H 0.41804 1.11257 0.70604
 C1154 C 0.36352 1.15032 0.80738
 C1155 C 0.26835 1.08917 0.58664
 H1156 H 0.29382 1.07317 0.57264
 C1157 C 0.20193 1.13309 0.62261
 C1158 C 0.72547 0.88119 0.62448
 H1159 H 0.69395 0.88783 0.61713
 C1160 C 0.80544 0.85683 0.64968
 C1161 C 0.59751 0.74270 0.58622
 H1162 H 0.57957 0.76258 0.56648
 C1163 C 0.64062 0.68629 0.63753
 C1164 C 0.40846 1.24681 0.58163
 H1165 H 0.42666 1.22843 0.56086
 C1166 C 0.36473 1.29338 0.63969
 C1167 C 0.39931 0.89247 0.73139
 H1168 H 0.40887 0.90319 0.70127
 C1169 C 0.36693 0.86020 0.80705
 C1170 C 0.60670 1.12580 0.72199
 H1171 H 0.58910 1.11224 0.69768
 C1172 C 0.65171 1.15440 0.79098
 C1173 C 0.37510 0.76054 0.60620
 H1174 H 0.38527 0.79101 0.59817
 C1175 C 0.34456 0.68179 0.63453
 C1176 C 0.62204 1.23378 0.59793
 H1177 H 0.60797 1.20754 0.58395
 C1178 C 0.65693 1.29832 0.64215
 C1179 C 0.26544 0.91343 0.60519
 H1180 H 0.29329 0.92433 0.59069
 C1181 C 0.19512 0.87675 0.64495
 C1182 C 0.73932 1.07847 0.58635
 H1183 H 0.71154 1.06702 0.57278
 C1184 C 0.80460 1.11767 0.62829
 O1185 O 0.46455 0.32890 0.81612
 O1186 O 0.46006 0.27114 0.78379
 C1187 C 0.44669 0.30714 0.78946
 C1188 C 0.41095 0.32580 0.76565
 C1189 C 0.39260 0.31147 0.72799
 H1190 H 0.40247 0.28245 0.71592
 O1191 O 0.52331 0.63083 0.80510
 O1192 O 0.51483 0.67554 0.75558
 C1193 C 0.53437 0.64555 0.77017
 C1194 C 0.57006 0.62769 0.74710
 C1195 C 0.58765 0.64448 0.71009
 H1196 H 0.56873 0.66681 0.69557
 O1197 O 0.29040 0.44024 0.86059
 O1198 O 0.24687 0.43777 0.80949
 C1199 C 0.25666 0.42699 0.84526
 C1200 C 0.23073 0.39756 0.86856
 C1201 C 0.19450 0.37997 0.85318
 H1202 H 0.17668 0.39914 0.83327
 O1203 O 0.69755 0.52898 0.84184
 O1204 O 0.73140 0.53554 0.78398
 C1205 C 0.72479 0.54744 0.82053
 C1206 C 0.74768 0.58225 0.84077
 C1207 C 0.78506 0.60210 0.82730
 H1208 H 0.79617 0.59597 0.79667
 O1209 O 0.36334 0.31162 0.96279
 O1210 O 0.31317 0.26885 0.96396
 C1211 C 0.34578 0.28034 0.94837
 C1212 C 0.36464 0.25299 0.91836
 C1213 C 0.34247 0.22604 0.89245
 H1214 H 0.30973 0.22940 0.88993
 O1215 O 0.62837 0.69040 0.95996
 O1216 O 0.67655 0.73324 0.94357
 C1217 C 0.64020 0.72234 0.94091
 C1218 C 0.61402 0.74630 0.91297
 C1219 C 0.62482 0.78633 0.90085
 H1220 H 0.63996 0.80437 0.92345
 O1221 O 0.35088 0.51813 0.80281
 O1222 O 0.29479 0.52472 0.76809
 C1223 C 0.33006 0.53656 0.77487
 C1224 C 0.34648 0.57105 0.75016
 C1225 C 0.32372 0.59384 0.72019
 H1226 H 0.29183 0.58662 0.71715
 O1227 O 0.63262 0.44691 0.80155
 O1228 O 0.66660 0.45451 0.74379
 C1229 C 0.64024 0.43615 0.76504
 C1230 C 0.62436 0.39857 0.74798
 C1231 C 0.64238 0.38436 0.71199
 H1232 H 0.65691 0.40597 0.69135
 O1233 O 0.55201 0.29112 0.87673
 O1234 O 0.54513 0.23237 0.84578
 C1235 C 0.56456 0.25527 0.86940
 C1236 C 0.60513 0.24134 0.88132
 C1237 C 0.61948 0.20533 0.86409
 H1238 H 0.59801 0.18262 0.85382
 O1239 O 0.44297 0.68465 0.86700
 O1240 O 0.42375 0.71034 0.80898
 C1241 C 0.41935 0.70807 0.84668
 C1242 C 0.38862 0.73518 0.86521
 C1243 C 0.37180 0.76879 0.84311
 H1244 H 0.37385 0.76853 0.81013
 O1245 O 0.30097 0.63428 0.96037
 O1246 O 0.25138 0.67888 0.95245
 C1247 C 0.27250 0.64975 0.93895
 C1248 C 0.26071 0.63121 0.90057
 C1249 C 0.23167 0.64963 0.87489
 H1250 H 0.23177 0.68245 0.87162
 O1251 O 0.72556 0.37543 0.95185
 O1252 O 0.78026 0.33790 0.96169
 C1253 C 0.76199 0.36560 0.94257
 C1254 C 0.78049 0.37945 0.90442
 C1255 C 0.81021 0.35449 0.88680
 H1256 H 0.83084 0.33784 0.90663
 O1257 O 0.44065 0.62795 0.80413
 O1258 O 0.44959 0.66795 0.75034
 C1259 C 0.43208 0.63845 0.76722
 C1260 C 0.39874 0.62021 0.74541
 C1261 C 0.37572 0.64337 0.71692
 H1262 H 0.38166 0.67559 0.71517
 O1263 O 0.54343 0.32969 0.81294
 O1264 O 0.55258 0.27269 0.77955
 C1265 C 0.56277 0.30957 0.78576
 C1266 C 0.59526 0.33187 0.76127
 C1267 C 0.62110 0.31576 0.72935
 H1268 H 0.62057 0.28338 0.72322
 O1269 O 0.70099 0.44815 0.83899
 O1270 O 0.73391 0.44417 0.78047
 C1271 C 0.72901 0.43186 0.81714
 C1272 C 0.75785 0.40230 0.83786
 C1273 C 0.78357 0.37157 0.81953
 H1274 H 0.78352 0.36779 0.78658
 O1275 O 0.30204 0.51885 0.86748
 O1276 O 0.25188 0.51119 0.82467
 C1277 C 0.26669 0.52943 0.85491
 C1278 C 0.24629 0.56658 0.87140
 C1279 C 0.20747 0.58254 0.85905
 H1280 H 0.18459 0.56108 0.84951
 O1281 O 0.34264 0.70016 0.97651
 O1282 O 0.28545 0.73385 0.96537
 C1283 C 0.32377 0.72935 0.95820
 C1284 C 0.34659 0.75139 0.92353
 C1285 C 0.33955 0.79128 0.90563
 H1286 H 0.32455 0.81342 0.92482
 O1287 O 0.67732 0.31402 0.94986
 O1288 O 0.73259 0.27660 0.94711
 C1289 C 0.69696 0.28478 0.93341
 C1290 C 0.67400 0.25902 0.90208
 C1291 C 0.68898 0.22634 0.87622
 H1292 H 0.72137 0.22000 0.87478
 O1293 O 0.63151 0.52662 0.79787
 O1294 O 0.66848 0.52458 0.74154
 C1295 C 0.63934 0.53901 0.76159
 C1296 C 0.61793 0.57276 0.74244
 C1297 C 0.63306 0.58828 0.70489
 H1298 H 0.65321 0.56945 0.68688
 O1299 O 0.36295 0.43603 0.81715
 O1300 O 0.31585 0.43516 0.77118
 C1301 C 0.34869 0.42109 0.78447
 C1302 C 0.36713 0.38578 0.76249
 C1303 C 0.35364 0.37442 0.72294
 H1304 H 0.33655 0.39685 0.70583
 O1305 O 0.52121 0.68618 0.85606
 O1306 O 0.50643 0.73686 0.81481
 C1307 C 0.52845 0.72230 0.84291
 C1308 C 0.56317 0.74589 0.86050
 C1309 C 0.57947 0.78359 0.84420
 H1310 H 0.56260 0.79767 0.81973
 O1311 O 0.47186 0.27788 0.88173
 O1312 O 0.47621 0.22260 0.84466
 C1313 C 0.46151 0.24130 0.87445
 C1314 C 0.42668 0.22340 0.89517
 C1315 C 0.40560 0.19189 0.87554
 H1316 H 0.42283 0.16921 0.85877
 O1317 O 0.69175 0.63251 0.94948
 O1318 O 0.74315 0.67392 0.94949
 C1319 C 0.72726 0.64228 0.93651
 C1320 C 0.75011 0.62101 0.90360
 C1321 C 0.79077 0.63232 0.89438
 H1322 H 0.80823 0.64554 0.91873
 O1323 O 0.29320 0.35027 0.96579
 O1324 O 0.24639 0.30563 0.98379
 C1325 C 0.25816 0.33368 0.95947
 C1326 C 0.23373 0.34703 0.92239
 C1327 C 0.20558 0.32279 0.89914
 H1328 H 0.20348 0.29099 0.90749
 Cu1329 Cu 0.50587 0.31187 0.85165
 Cu1330 Cu 0.50807 0.24620 0.80750
 Cu1331 Cu 0.48043 0.65060 0.83884
 Cu1332 Cu 0.47209 0.70293 0.78393
 Cu1333 Cu 0.33265 0.47784 0.84236
 Cu1334 Cu 0.28265 0.47595 0.79022
 Cu1335 Cu 0.66205 0.48772 0.82637
 Cu1336 Cu 0.70515 0.48964 0.75870
 C1337 C 0.39546 0.36172 0.78263
 H1338 H 0.40568 0.37155 0.81247
 C1339 C 0.36233 0.33562 0.70565
 C1340 C 0.58760 0.59291 0.76374
 H1341 H 0.57687 0.58054 0.79284
 C1342 C 0.62491 0.62802 0.69161
 C1343 C 0.24548 0.38415 0.90576
 H1344 H 0.26929 0.40159 0.92029
 C1345 C 0.18187 0.33973 0.86505
 C1346 C 0.72973 0.59559 0.87740
 H1347 H 0.69908 0.58629 0.88589
 C1348 C 0.80779 0.62890 0.85448
 C1349 C 0.40626 0.24933 0.92105
 H1350 H 0.42341 0.27055 0.93954
 C1351 C 0.36294 0.19344 0.87174
 C1352 C 0.58301 0.72692 0.89311
 H1353 H 0.57461 0.69650 0.90332
 C1354 C 0.61555 0.80242 0.86137
 C1355 C 0.38576 0.58252 0.75843
 H1356 H 0.40408 0.56516 0.78005
 C1357 C 0.34193 0.62676 0.69659
 C1358 C 0.60028 0.37294 0.77159
 H1359 H 0.58583 0.38548 0.79870
 C1360 C 0.64632 0.34283 0.70453
 C1361 C 0.63198 0.26751 0.90025
 H1362 H 0.61926 0.29455 0.91430
 C1363 C 0.66045 0.19987 0.85484
 C1364 C 0.37590 0.72714 0.90468
 H1365 H 0.38627 0.69900 0.91898
 C1366 C 0.35148 0.80125 0.86311
 C1367 C 0.27033 0.59069 0.89568
 H1368 H 0.29638 0.57774 0.91150
 C1369 C 0.19988 0.62608 0.85868
 C1370 C 0.75813 0.40573 0.88040
 H1371 H 0.73778 0.42671 0.89599
 C1372 C 0.81041 0.34667 0.84488
 O1373 O 0.55644 0.37944 1.19248
 O1374 O 0.55199 0.33608 1.24394
 C1375 C 0.56728 0.36737 1.22814
 C1376 C 0.59916 0.38740 1.25136
 C1377 C 0.62116 0.36536 1.28146
 H1378 H 0.61683 0.33288 1.28296
 O1379 O 0.46044 0.67158 1.18577
 O1380 O 0.45221 0.72847 1.21940
 C1381 C 0.44136 0.69194 1.21306
 C1382 C 0.40599 0.67170 1.23532
 C1383 C 0.38106 0.68783 1.26841
 H1384 H 0.38943 0.71681 1.28128
 O1385 O 0.29686 0.53998 1.15709
 O1386 O 0.26251 0.54713 1.21482
 C1387 C 0.26756 0.55648 1.17708
 C1388 C 0.24087 0.58628 1.15407
 C1389 C 0.21039 0.61275 1.17099
 H1390 H 0.20498 0.61209 1.20380
 O1391 O 0.69313 0.47049 1.13887
 O1392 O 0.74166 0.47791 1.18371
 C1393 C 0.72511 0.45700 1.15661
 C1394 C 0.74662 0.42030 1.14227
 C1395 C 0.77117 0.39391 1.16733
 H1396 H 0.76624 0.39421 1.20014
 O1397 O 0.67125 0.31460 1.03098
 O1398 O 0.72734 0.28046 1.04187
 C1399 C 0.69043 0.28749 1.05154
 C1400 C 0.66877 0.26572 1.08700
 C1401 C 0.67973 0.22740 1.10701
 H1402 H 0.70553 0.21076 1.09512
 O1403 O 0.33726 0.68963 1.04802
 O1404 O 0.27880 0.72194 1.05262
 C1405 C 0.31538 0.71688 1.06466
 C1406 C 0.33633 0.74439 1.09418
 C1407 C 0.31851 0.77682 1.11718
 H1408 H 0.28565 0.77992 1.11839
 O1409 O 0.37424 0.47566 1.20650
 O1410 O 0.34010 0.48377 1.26374
 C1411 C 0.36904 0.46801 1.24452
 C1412 C 0.39145 0.43532 1.26528
 C1413 C 0.37531 0.41829 1.30175
 H1414 H 0.35648 0.43729 1.32114
 O1415 O 0.64325 0.56481 1.17875
 O1416 O 0.69618 0.57251 1.21745
 C1417 C 0.66138 0.58350 1.20728
 C1418 C 0.64370 0.61787 1.23011
 C1419 C 0.65627 0.62581 1.27110
 H1420 H 0.67317 0.60205 1.28619
 O1421 O 0.47967 0.31602 1.13910
 O1422 O 0.48894 0.26827 1.18543
 C1423 C 0.46993 0.28145 1.15476
 C1424 C 0.43509 0.25779 1.13828
 C1425 C 0.41592 0.22451 1.15976
 H1426 H 0.43040 0.21468 1.18753
 O1427 O 0.53677 0.72066 1.11771
 O1428 O 0.53178 0.77527 1.15574
 C1429 C 0.54748 0.75689 1.12605
 C1430 C 0.58247 0.77627 1.10604
 C1431 C 0.59960 0.81064 1.12437
 H1432 H 0.57991 0.83078 1.14162
 O1433 O 0.30980 0.35561 1.05452
 O1434 O 0.26479 0.30591 1.05792
 C1435 C 0.28050 0.33747 1.07363
 C1436 C 0.26463 0.35316 1.11386
 C1437 C 0.23459 0.33204 1.13674
 H1438 H 0.22956 0.30012 1.13052
 O1439 O 0.70398 0.64711 1.03253
 O1440 O 0.75035 0.69388 1.01833
 C1441 C 0.73837 0.66379 1.04033
 C1442 C 0.76454 0.64401 1.07265
 C1443 C 0.79146 0.66334 1.10127
 H1444 H 0.79076 0.69621 1.10308
 O1445 O 0.54104 0.67150 1.18211
 O1446 O 0.54428 0.72736 1.21831
 C1447 C 0.55777 0.69151 1.21074
 C1448 C 0.59426 0.67218 1.23274
 C1449 C 0.60608 0.67813 1.27465
 H1450 H 0.58124 0.68952 1.29276
 O1451 O 0.47549 0.37093 1.19499
 O1452 O 0.48159 0.32438 1.24351
 C1453 C 0.46322 0.35497 1.22903
 C1454 C 0.42938 0.37394 1.25283
 C1455 C 0.40587 0.35368 1.28420
 H1456 H 0.40939 0.32106 1.28825
 O1457 O 0.71049 0.55001 1.12410
 O1458 O 0.76009 0.54437 1.16819
 C1459 C 0.74792 0.55588 1.13385
 C1460 C 0.77589 0.58123 1.10864
 C1461 C 0.81221 0.59682 1.12553
 H1462 H 0.83310 0.57524 1.13909
 O1463 O 0.30904 0.46313 1.15788
 O1464 O 0.27698 0.45913 1.21709
 C1465 C 0.28322 0.44510 1.18109
 C1466 C 0.26183 0.40736 1.16488
 C1467 C 0.22486 0.38946 1.18116
 H1468 H 0.21057 0.40418 1.20693
 O1469 O 0.65112 0.69922 1.03367
 O1470 O 0.69424 0.74793 1.01625
 C1471 C 0.66602 0.73473 1.03998
 C1472 C 0.64632 0.76081 1.07252
 C1473 C 0.66585 0.78881 1.09993
 H1474 H 0.69873 0.78996 1.10050
 O1475 O 0.37267 0.30802 1.03605
 O1476 O 0.32404 0.26559 1.05154
 C1477 C 0.36001 0.27663 1.05572
 C1478 C 0.38401 0.25413 1.08647
 C1479 C 0.36861 0.21771 1.10469
 H1480 H 0.34854 0.19967 1.08637
 O1481 O 0.64869 0.48651 1.19631
 O1482 O 0.69561 0.49511 1.24322
 C1483 C 0.66384 0.47723 1.23141
 C1484 C 0.64609 0.44271 1.25570
 C1485 C 0.66706 0.42101 1.28750
 H1486 H 0.69678 0.43197 1.29571
 O1487 O 0.36260 0.55696 1.18811
 O1488 O 0.32658 0.55528 1.24522
 C1489 C 0.34997 0.57377 1.22071
 C1490 C 0.35964 0.61546 1.23143
 C1491 C 0.33189 0.63686 1.25585
 H1492 H 0.29989 0.63234 1.25106
 O1493 O 0.45658 0.71581 1.12097
 O1494 O 0.46114 0.77220 1.15616
 C1495 C 0.44332 0.75112 1.13001
 C1496 C 0.40334 0.76548 1.11635
 C1497 C 0.38658 0.80106 1.13278
 H1498 H 0.40685 0.82341 1.14574
 O1499 O 0.56122 0.32490 1.13373
 O1500 O 0.56812 0.28619 1.18765
 C1501 C 0.58011 0.29680 1.15307
 C1502 C 0.61541 0.27406 1.13735
 C1503 C 0.63052 0.24020 1.15994
 H1504 H 0.62275 0.23775 1.19184
 O1505 O 0.72097 0.37637 1.03127
 O1506 O 0.77633 0.33845 1.03068
 C1507 C 0.75602 0.36741 1.04523
 C1508 C 0.77043 0.38601 1.08265
 C1509 C 0.80128 0.36697 1.10551
 H1510 H 0.82308 0.34839 1.08907
 O1511 O 0.29077 0.62927 1.04795
 O1512 O 0.23376 0.65172 1.02349
 C1513 C 0.25219 0.63167 1.05022
 C1514 C 0.23002 0.61755 1.08729
 C1515 C 0.19546 0.63856 1.10234
 H1516 H 0.17754 0.65644 1.08101
 Cu1517 Cu 0.51775 0.35359 1.15904
 Cu1518 Cu 0.52414 0.30040 1.21494
 Cu1519 Cu 0.49921 0.68923 1.14749
 Cu1520 Cu 0.49764 0.75404 1.19287
 Cu1521 Cu 0.33651 0.34059 1.00438
 Cu1522 Cu 0.29014 0.28336 1.01270
 Cu1523 Cu 0.69323 0.34939 0.99066
 Cu1524 Cu 0.75700 0.30181 0.99532
 Cu1525 Cu 0.32207 0.65595 1.00774
 Cu1526 Cu 0.25699 0.69834 1.00381
 Cu1527 Cu 0.66445 0.66035 0.99324
 Cu1528 Cu 0.71662 0.71344 0.97592
 Cu1529 Cu 0.34083 0.50736 1.17251
 Cu1530 Cu 0.29813 0.50893 1.24026
 Cu1531 Cu 0.66869 0.52018 1.15298
 Cu1532 Cu 0.72337 0.52688 1.20501
 C1533 C 0.60988 0.42684 1.24123
 H1534 H 0.59261 0.44306 1.21795
 C1535 C 0.65081 0.38407 1.30588
 C1536 C 0.39657 0.63266 1.22137
 H1537 H 0.41672 0.61616 1.20085
 C1538 C 0.34537 0.66545 1.28364
 C1539 C 0.24973 0.58984 1.11222
 H1540 H 0.27449 0.57262 1.09852
 C1541 C 0.18588 0.63893 1.14488
 C1542 C 0.74579 0.41479 1.10050
 H1543 H 0.72473 0.43219 1.08162
 C1544 C 0.80075 0.36717 1.14896
 C1545 C 0.63400 0.28584 1.10118
 H1546 H 0.62277 0.31305 1.08578
 C1547 C 0.65715 0.21160 1.14272
 C1548 C 0.37854 0.73850 1.09647
 H1549 H 0.39292 0.71196 1.08305
 C1550 C 0.34418 0.80585 1.13739
 C1551 C 0.42046 0.41425 1.24312
 H1552 H 0.43464 0.42896 1.21671
 C1553 C 0.37862 0.37621 1.31041
 C1554 C 0.61551 0.64280 1.21083
 H1555 H 0.60800 0.63704 1.17906
 C1556 C 0.64308 0.66047 1.29336
 C1557 C 0.41772 0.27269 1.10255
 H1558 H 0.42950 0.30005 1.08778
 C1559 C 0.37947 0.20503 1.14489
 C1560 C 0.60467 0.75432 1.07769
 H1561 H 0.58953 0.73011 1.06131
 C1562 C 0.64196 0.81580 1.12593
 C1563 C 0.27862 0.39016 1.12906
 H1564 H 0.30372 0.40509 1.11325
 C1565 C 0.20762 0.35301 1.16333
 C1566 C 0.75818 0.60233 1.07698
 H1567 H 0.73464 0.58715 1.05966
 C1568 C 0.81959 0.63945 1.12637
   
