data_POSCAR
  _audit_creation_date              2014-09-24
  _audit_creation_method            'ToBaCCo'
  _symmetry_space_group_name_H-M    'P1'
  _symmetry_Int_Tables_number       1
  _symmetry_cell_setting            triclinic
  loop_
  _symmetry_equiv_pos_as_xyz
 x,y,z
_cell_length_a 64.0280
_cell_length_b 63.8436
_cell_length_c 64.6837
_cell_angle_alpha 89.829800
_cell_angle_beta 89.895100
_cell_angle_gamma 89.921300
loop_
  _atom_site_label
  _atom_site_type_symbol
  _atom_site_fract_x
  _atom_site_fract_y
  _atom_site_fract_z
N1 N 0.37963 0.32138 0.33714
 N2 N 0.37834 0.33505 0.32195
 C3 C 0.39268 0.33025 0.30745
 C4 C 0.40359 0.31285 0.31408
 C5 C 0.39488 0.30752 0.33288
 H6 H 0.39431 0.33801 0.29266
 H7 H 0.39837 0.29373 0.34199
 Cu8 Cu 0.35663 0.35632 0.32175
 Cu9 Cu 0.35935 0.32043 0.35956
 Cu10 Cu 0.32021 0.35813 0.35908
 N11 N 0.33497 0.37766 0.32168
 N12 N 0.32095 0.37851 0.33654
 C13 C 0.30704 0.39371 0.33212
 C14 C 0.31276 0.40286 0.31360
 C15 C 0.33038 0.39221 0.30728
 H16 H 0.29312 0.39702 0.34102
 H17 H 0.33851 0.39423 0.29274
 N18 N 0.32227 0.33611 0.38047
 N19 N 0.33733 0.32194 0.38076
 C20 C 0.33322 0.30783 0.39573
 C21 C 0.31487 0.31346 0.40536
 C22 C 0.30821 0.33131 0.39526
 H23 H 0.34200 0.29360 0.39841
 H24 H 0.29350 0.33929 0.39762
 H25 H 0.33479 0.33400 0.34343
 H26 H 0.35169 0.35190 0.35883
 N27 N 0.38084 0.82287 -0.16361
 N28 N 0.37900 0.83608 -0.17915
 C29 C 0.39245 0.83062 -0.19422
 C30 C 0.40354 0.81334 -0.18755
 C31 C 0.39576 0.80871 -0.16813
 H32 H 0.39360 0.83813 -0.20919
 H33 H 0.39987 0.79548 -0.15846
 Cu34 Cu 0.35825 0.85821 -0.17824
 Cu35 Cu 0.36255 0.82412 -0.13940
 Cu36 Cu 0.31992 0.85799 -0.14331
 N37 N 0.33634 0.87917 -0.17925
 N38 N 0.32124 0.87893 -0.16543
 C39 C 0.30715 0.89381 -0.17028
 C40 C 0.31392 0.90397 -0.18794
 C41 C 0.33231 0.89413 -0.19342
 H42 H 0.29257 0.89636 -0.16219
 H43 H 0.34137 0.89689 -0.20729
 N44 N 0.32211 0.83585 -0.12201
 N45 N 0.33851 0.82338 -0.12019
 C46 C 0.33478 0.80929 -0.10507
 C47 C 0.31518 0.81316 -0.09704
 C48 C 0.30755 0.82998 -0.10810
 H49 H 0.34498 0.79640 -0.10106
 H50 H 0.29214 0.83678 -0.10669
 H51 H 0.33788 0.83462 -0.15701
 H52 H 0.35134 0.85478 -0.14114
 N53 N 0.87857 0.32146 -0.16507
 N54 N 0.87785 0.33561 -0.17986
 C55 C 0.89265 0.33126 -0.19403
 C56 C 0.90331 0.31363 -0.18764
 C57 C 0.89389 0.30765 -0.16934
 H58 H 0.89481 0.33951 -0.20849
 H59 H 0.89715 0.29363 -0.16048
 Cu60 Cu 0.85646 0.35718 -0.18019
 Cu61 Cu 0.85797 0.32057 -0.14280
 Cu62 Cu 0.82021 0.35962 -0.14266
 N63 N 0.83532 0.37901 -0.17992
 N64 N 0.82139 0.38013 -0.16500
 C65 C 0.80777 0.39561 -0.16932
 C66 C 0.81366 0.40477 -0.18779
 C67 C 0.83101 0.39373 -0.19424
 H68 H 0.79386 0.39905 -0.16043
 H69 H 0.83906 0.39553 -0.20885
 N70 N 0.82154 0.33739 -0.12149
 N71 N 0.83578 0.32240 -0.12163
 C72 C 0.83108 0.30835 -0.10675
 C73 C 0.81322 0.31493 -0.09670
 C74 C 0.80747 0.33324 -0.10651
 H75 H 0.83923 0.29372 -0.10421
 H76 H 0.79329 0.34204 -0.10383
 H77 H 0.83400 0.33525 -0.15868
 H78 H 0.85165 0.35227 -0.14312
 N79 N 0.87845 0.82198 0.33549
 N80 N 0.87761 0.83635 0.32090
 C81 C 0.89230 0.83217 0.30655
 C82 C 0.90302 0.81444 0.31263
 C83 C 0.89372 0.80822 0.33091
 H84 H 0.89436 0.84064 0.29219
 H85 H 0.89704 0.79409 0.33957
 Cu86 Cu 0.85609 0.85785 0.32119
 Cu87 Cu 0.85818 0.82081 0.35805
 Cu88 Cu 0.82047 0.85992 0.35918
 N89 N 0.83465 0.87943 0.32166
 N90 N 0.82114 0.88049 0.33696
 C91 C 0.80714 0.89569 0.33292
 C92 C 0.81222 0.90462 0.31414
 C93 C 0.82961 0.89386 0.30729
 H94 H 0.79344 0.89896 0.34217
 H95 H 0.83719 0.89563 0.29243
 N96 N 0.82223 0.83762 0.38016
 N97 N 0.83627 0.82246 0.37953
 C98 C 0.83159 0.80819 0.39420
 C99 C 0.81398 0.81485 0.40462
 C100 C 0.80836 0.83342 0.39528
 H101 H 0.83952 0.79337 0.39631
 H102 H 0.79430 0.84231 0.39828
 H103 H 0.83400 0.83555 0.34266
 H104 H 0.85185 0.85236 0.35820
 N105 N 0.62117 0.67982 0.33788
 N106 N 0.62174 0.66599 0.32286
 C107 C 0.60707 0.67094 0.30876
 C108 C 0.59665 0.68859 0.31547
 C109 C 0.60604 0.69394 0.33390
 H110 H 0.60481 0.66303 0.29418
 H111 H 0.60296 0.70778 0.34301
 Cu112 Cu 0.64286 0.64407 0.32237
 Cu113 Cu 0.64186 0.68013 0.35996
 Cu114 Cu 0.67935 0.64078 0.35940
 N115 N 0.66389 0.62206 0.32208
 N116 N 0.67787 0.62060 0.33689
 C117 C 0.69141 0.60515 0.33228
 C118 C 0.68551 0.59643 0.31370
 C119 C 0.66815 0.60762 0.30753
 H120 H 0.70532 0.60146 0.34104
 H121 H 0.66004 0.60607 0.29297
 N122 N 0.67829 0.66272 0.38076
 N123 N 0.66412 0.67777 0.38090
 C124 C 0.66907 0.69168 0.39572
 C125 C 0.68702 0.68494 0.40545
 C126 C 0.69257 0.66668 0.39552
 H127 H 0.66109 0.70637 0.39837
 H128 H 0.70678 0.65785 0.39791
 H129 H 0.66567 0.66554 0.34372
 H130 H 0.64806 0.64846 0.35939
 N131 N 0.62163 0.17832 -0.16405
 N132 N 0.62298 0.16481 -0.17930
 C133 C 0.60825 0.16929 -0.19346
 C134 C 0.59700 0.18634 -0.18667
 C135 C 0.60597 0.19186 -0.16806
 H136 H 0.60650 0.16151 -0.20818
 H137 H 0.60226 0.20549 -0.15887
 Cu138 Cu 0.64474 0.14365 -0.18041
 Cu139 Cu 0.64214 0.17920 -0.14181
 Cu140 Cu 0.68212 0.14274 -0.14415
 N141 N 0.66509 0.12108 -0.17887
 N142 N 0.67958 0.12059 -0.16451
 C143 C 0.69283 0.10470 -0.16846
 C144 C 0.68610 0.09460 -0.18608
 C145 C 0.66861 0.10550 -0.19241
 H146 H 0.70720 0.10175 -0.16016
 H147 H 0.66013 0.10320 -0.20666
 N148 N 0.68005 0.16375 -0.12208
 N149 N 0.66470 0.17755 -0.12104
 C150 C 0.66873 0.19102 -0.10553
 C151 C 0.68730 0.18522 -0.09629
 C152 C 0.69413 0.16803 -0.10725
 H153 H 0.65966 0.20488 -0.10210
 H154 H 0.70896 0.16014 -0.10535
 H155 H 0.66593 0.16697 -0.15896
 H156 H 0.65029 0.14786 -0.14347
 N157 N 0.12069 0.67891 -0.16288
 N158 N 0.12197 0.66508 -0.17785
 C159 C 0.10751 0.66968 -0.19229
 C160 C 0.09653 0.68710 -0.18584
 C161 C 0.10535 0.69266 -0.16722
 H162 H 0.10580 0.66172 -0.20693
 H163 H 0.10179 0.70648 -0.15824
 Cu164 Cu 0.14375 0.64375 -0.17779
 Cu165 Cu 0.14094 0.68007 -0.14050
 Cu166 Cu 0.17980 0.64213 -0.14019
 N167 N 0.16535 0.62225 -0.17733
 N168 N 0.17919 0.62150 -0.16234
 C169 C 0.19311 0.60621 -0.16637
 C170 C 0.18762 0.59686 -0.18477
 C171 C 0.17009 0.60750 -0.19144
 H172 H 0.20693 0.60300 -0.15731
 H173 H 0.16213 0.60532 -0.20600
 N174 N 0.17776 0.66439 -0.11918
 N175 N 0.16287 0.67873 -0.11922
 C176 C 0.16698 0.69294 -0.10442
 C177 C 0.18519 0.68720 -0.09458
 C178 C 0.19173 0.66919 -0.10439
 H179 H 0.15829 0.70725 -0.10196
 H180 H 0.20635 0.66108 -0.10186
 H181 H 0.16551 0.66618 -0.15634
 H182 H 0.14830 0.64859 -0.14076
 N183 N 0.12041 0.17902 0.33763
 N184 N 0.12193 0.16549 0.32241
 C185 C 0.10766 0.17034 0.30787
 C186 C 0.09658 0.18763 0.31451
 C187 C 0.10508 0.19280 0.33337
 H188 H 0.10612 0.16265 0.29308
 H189 H 0.10138 0.20643 0.34257
 Cu190 Cu 0.14375 0.14421 0.32228
 Cu191 Cu 0.14048 0.17992 0.36016
 Cu192 Cu 0.17930 0.14197 0.36033
 N193 N 0.16528 0.12264 0.32278
 N194 N 0.17883 0.12155 0.33801
 C195 C 0.19269 0.10620 0.33402
 C196 C 0.18754 0.09723 0.31534
 C197 C 0.17021 0.10810 0.30851
 H198 H 0.20630 0.10272 0.34331
 H199 H 0.16252 0.10622 0.29377
 N200 N 0.17715 0.16402 0.38152
 N201 N 0.16227 0.17837 0.38152
 C202 C 0.16641 0.19255 0.39632
 C203 C 0.18459 0.18676 0.40617
 C204 C 0.19111 0.16875 0.39635
 H205 H 0.15779 0.20692 0.39874
 H206 H 0.20572 0.16063 0.39888
 H207 H 0.16518 0.16633 0.34436
 H208 H 0.14782 0.14844 0.35944
 N209 N 0.62046 0.32210 0.66425
 N210 N 0.62064 0.33695 0.67829
 C211 C 0.60593 0.33282 0.69263
 C212 C 0.59587 0.31460 0.68708
 C213 C 0.60558 0.30807 0.66915
 H214 H 0.60352 0.34161 0.70670
 H215 H 0.60288 0.29353 0.66105
 Cu216 Cu 0.64177 0.35865 0.67748
 Cu217 Cu 0.64133 0.32054 0.64222
 Cu218 Cu 0.68009 0.35872 0.64233
 N219 N 0.66366 0.37957 0.67832
 N220 N 0.67863 0.37958 0.66436
 C221 C 0.69271 0.39439 0.66927
 C222 C 0.68606 0.40423 0.68709
 C223 C 0.66775 0.39432 0.69258
 H224 H 0.70728 0.39702 0.66120
 H225 H 0.65881 0.39687 0.70655
 N226 N 0.67865 0.33620 0.62145
 N227 N 0.66388 0.32176 0.62138
 C228 C 0.66824 0.30765 0.60653
 C229 C 0.68644 0.31358 0.59673
 C230 C 0.69275 0.33159 0.60664
 H231 H 0.65958 0.29340 0.60383
 H232 H 0.70718 0.33996 0.60400
 H233 H 0.66490 0.33527 0.65848
 H234 H 0.64873 0.35194 0.64108
 N235 N 0.62187 0.82108 1.16307
 N236 N 0.62299 0.83464 1.17830
 C237 C 0.60855 0.82970 1.19268
 C238 C 0.59774 0.81233 1.18595
 C239 C 0.60661 0.80718 1.16718
 H240 H 0.60665 0.83746 1.20740
 H241 H 0.60307 0.79361 1.15787
 Cu242 Cu 0.64437 0.85629 1.17854
 Cu243 Cu 0.64203 0.82074 1.14044
 Cu244 Cu 0.67966 0.85977 1.14027
 N245 N 0.66550 0.87817 1.17826
 N246 N 0.67887 0.87977 1.16287
 C247 C 0.69258 0.89514 1.16701
 C248 C 0.68752 0.90359 1.18595
 C249 C 0.67038 0.89244 1.19277
 H250 H 0.70610 0.89891 1.15766
 H251 H 0.66283 0.89390 1.20766
 N252 N 0.67804 0.83805 1.11883
 N253 N 0.66382 0.82308 1.11896
 C254 C 0.66853 0.80914 1.10407
 C255 C 0.68639 0.81575 1.09406
 C256 C 0.69211 0.83399 1.10386
 H257 H 0.66054 0.79444 1.10165
 H258 H 0.70639 0.84265 1.10134
 H259 H 0.66632 0.83486 1.15616
 H260 H 0.64830 0.85229 1.14132
 N261 N 0.12084 0.32100 1.16211
 N262 N 0.12156 0.33453 1.17739
 C263 C 0.10701 0.32938 1.19156
 C264 C 0.09652 0.31189 1.18465
 C265 C 0.10571 0.30689 1.16599
 H266 H 0.10488 0.33700 1.20632
 H267 H 0.10254 0.29324 1.15667
 Cu268 Cu 0.14276 0.35630 1.17809
 Cu269 Cu 0.14148 0.32087 1.13993
 Cu270 Cu 0.17922 0.35987 1.14093
 N271 N 0.16386 0.37816 1.17857
 N272 N 0.17781 0.37974 1.16370
 C273 C 0.19135 0.39510 1.16838
 C274 C 0.18548 0.40363 1.18709
 C275 C 0.16814 0.39243 1.19325
 H276 H 0.20521 0.39888 1.15956
 H277 H 0.16002 0.39388 1.20785
 N278 N 0.17806 0.33822 1.11930
 N279 N 0.16373 0.32336 1.11895
 C280 C 0.16863 0.30957 1.10398
 C281 C 0.18673 0.31617 1.09441
 C282 C 0.19241 0.33423 1.10456
 H283 H 0.16056 0.29499 1.10120
 H284 H 0.20678 0.34284 1.10238
 H285 H 0.16542 0.33496 1.15631
 H286 H 0.14789 0.35244 1.14099
 N287 N 0.12138 0.82120 0.66284
 N288 N 0.12206 0.83483 0.67803
 C289 C 0.10736 0.82985 0.69212
 C290 C 0.09683 0.81237 0.68525
 C291 C 0.10618 0.80717 0.66673
 H292 H 0.10516 0.83759 0.70682
 H293 H 0.10305 0.79343 0.65751
 Cu294 Cu 0.14339 0.85648 0.67878
 Cu295 Cu 0.14210 0.82084 0.64074
 Cu296 Cu 0.18028 0.85935 0.64196
 N297 N 0.16457 0.87828 0.67917
 N298 N 0.17882 0.87946 0.66455
 C299 C 0.19237 0.89483 0.66920
 C300 C 0.18617 0.90384 0.68759
 C301 C 0.16864 0.89285 0.69364
 H302 H 0.20641 0.89838 0.66055
 H303 H 0.16025 0.89464 0.70805
 N304 N 0.17909 0.83762 0.62038
 N305 N 0.16449 0.82303 0.61987
 C306 C 0.16915 0.80930 0.60477
 C307 C 0.18736 0.81565 0.59524
 C308 C 0.19337 0.83350 0.60559
 H309 H 0.16079 0.79491 0.60183
 H310 H 0.20781 0.84198 0.60338
 H311 H 0.16595 0.83471 0.65730
 H312 H 0.14885 0.85241 0.64174
 N313 N 0.37837 0.67882 0.66433
 N314 N 0.37804 0.66397 0.67847
 C315 C 0.39296 0.66785 0.69261
 C316 C 0.40334 0.68587 0.68681
 C317 C 0.39357 0.69257 0.66896
 H318 H 0.39536 0.65902 0.70670
 H319 H 0.39654 0.70699 0.66066
 Cu320 Cu 0.35629 0.64278 0.67825
 Cu321 Cu 0.35778 0.68033 0.64212
 Cu322 Cu 0.32384 0.63802 0.63804
 N323 N 0.33453 0.62159 0.67807
 N324 N 0.32195 0.61968 0.66213
 C325 C 0.30781 0.60464 0.66618
 C326 C 0.31169 0.59688 0.68574
 C327 C 0.32863 0.60800 0.69292
 H328 H 0.29503 0.60044 0.65611
 H329 H 0.33556 0.60676 0.70812
 N330 N 0.32350 0.66202 0.61879
 N331 N 0.33596 0.67837 0.62069
 C332 C 0.33021 0.69310 0.60688
 C333 C 0.31348 0.68560 0.59576
 C334 C 0.30952 0.66593 0.60370
 H335 H 0.33696 0.70857 0.60564
 H336 H 0.29657 0.65586 0.59975
 H337 H 0.33390 0.66295 0.65563
 H338 H 0.35462 0.64872 0.64096
 N339 N 0.37853 0.17907 1.16334
 N340 N 0.37832 0.16450 1.17777
 C341 C 0.39324 0.16883 1.19178
 C342 C 0.40342 0.18685 1.18562
 C343 C 0.39361 0.19305 1.16765
 H344 H 0.39572 0.16032 1.20605
 H345 H 0.39641 0.20734 1.15908
 Cu346 Cu 0.35677 0.14302 1.17824
 Cu347 Cu 0.35775 0.18022 1.14141
 Cu348 Cu 0.32432 0.13772 1.13776
 N349 N 0.33495 0.12183 1.17798
 N350 N 0.32249 0.11967 1.16198
 C351 C 0.30832 0.10467 1.16613
 C352 C 0.31205 0.09718 1.18581
 C353 C 0.32897 0.10840 1.19294
 H354 H 0.29558 0.10036 1.15605
 H355 H 0.33581 0.10737 1.20819
 N356 N 0.32350 0.16162 1.11847
 N357 N 0.33582 0.17808 1.12023
 C358 C 0.32982 0.19276 1.10648
 C359 C 0.31302 0.18513 1.09556
 C360 C 0.30933 0.16541 1.10353
 H361 H 0.33645 0.20827 1.10517
 H362 H 0.29644 0.15520 1.09971
 H363 H 0.33420 0.16279 1.15544
 H364 H 0.35518 0.14856 1.14092
 N365 N 0.87847 0.67917 1.16436
 N366 N 0.87866 0.66403 1.17820
 C367 C 0.89352 0.66803 1.19234
 C368 C 0.90336 0.68642 1.18681
 C369 C 0.89334 0.69321 1.16913
 H370 H 0.89621 0.65897 1.20624
 H371 H 0.89601 0.70778 1.16099
 Cu372 Cu 0.85791 0.64204 1.17716
 Cu373 Cu 0.85758 0.68065 1.14235
 Cu374 Cu 0.82447 0.63747 1.13813
 N375 N 0.83574 0.62145 1.17819
 N376 N 0.82282 0.61942 1.16254
 C377 C 0.80868 0.60452 1.16711
 C378 C 0.81295 0.59703 1.18670
 C379 C 0.83007 0.60817 1.19338
 H380 H 0.79569 0.60021 1.15733
 H381 H 0.83739 0.60710 1.20841
 N382 N 0.82354 0.66168 1.11906
 N383 N 0.83567 0.67829 1.12102
 C384 C 0.82969 0.69291 1.10719
 C385 C 0.81307 0.68514 1.09610
 C386 C 0.80951 0.66536 1.10396
 H387 H 0.83627 0.70845 1.10585
 H388 H 0.79680 0.65502 1.09994
 H389 H 0.83444 0.66220 1.15578
 H390 H 0.85500 0.64916 1.13998
 N391 N 0.87850 0.17929 0.66506
 N392 N 0.87959 0.16349 0.67809
 C393 C 0.89531 0.16689 0.69144
 C394 C 0.90460 0.18569 0.68634
 C395 C 0.89348 0.19325 0.66967
 H396 H 0.89868 0.15733 0.70486
 H397 H 0.89521 0.20845 0.66244
 Cu398 Cu 0.85844 0.14175 0.67841
 Cu399 Cu 0.85561 0.18228 0.64562
 Cu400 Cu 0.82492 0.13814 0.63865
 N401 N 0.83515 0.12238 0.67899
 N402 N 0.82245 0.12039 0.66317
 C403 C 0.80811 0.10561 0.66762
 C404 C 0.81203 0.09819 0.68733
 C405 C 0.82914 0.10924 0.69417
 H406 H 0.79536 0.10118 0.65760
 H407 H 0.83639 0.10805 0.70921
 N408 N 0.82413 0.16259 0.61988
 N409 N 0.83549 0.17955 0.62290
 C410 C 0.82992 0.19429 0.60905
 C411 C 0.81435 0.18625 0.59676
 C412 C 0.81097 0.16615 0.60400
 H413 H 0.83595 0.21009 0.60857
 H414 H 0.79890 0.15548 0.59900
 H415 H 0.83344 0.16159 0.65789
 H416 H 0.85505 0.15078 0.64172
 N417 N 0.32162 0.37908 0.66420
 N418 N 0.33567 0.37764 0.67895
 C419 C 0.33147 0.39209 0.69352
 C420 C 0.31409 0.40329 0.68740
 C421 C 0.30810 0.39454 0.66886
 H422 H 0.33967 0.39365 0.70804
 H423 H 0.29419 0.39827 0.66012
 Cu424 Cu 0.35679 0.35572 0.67844
 Cu425 Cu 0.32015 0.35905 0.64155
 Cu426 Cu 0.35795 0.32001 0.64055
 N427 N 0.37796 0.33385 0.67781
 N428 N 0.37864 0.32020 0.66263
 C429 C 0.39378 0.30607 0.66650
 C430 C 0.40306 0.31119 0.68504
 C431 C 0.39258 0.32875 0.69191
 H432 H 0.39694 0.29236 0.65723
 H433 H 0.39476 0.33649 0.70660
 N434 N 0.33567 0.32241 0.61967
 N435 N 0.32129 0.33727 0.62002
 C436 C 0.30704 0.33330 0.60524
 C437 C 0.31283 0.31524 0.59508
 C438 C 0.33088 0.30863 0.60469
 H439 H 0.29271 0.34198 0.60297
 H440 H 0.33904 0.29408 0.60187
 H441 H 0.33402 0.33427 0.65700
 H442 H 0.35143 0.35163 0.64141
 N443 N 0.32163 0.88037 0.16357
 N444 N 0.33645 0.87999 0.17762
 C445 C 0.33232 0.89460 0.19205
 C446 C 0.31414 0.90480 0.18656
 C447 C 0.30763 0.89528 0.16856
 H448 H 0.34110 0.89684 0.20615
 H449 H 0.29313 0.89811 0.16046
 Cu450 Cu 0.35812 0.85871 0.17667
 Cu451 Cu 0.31999 0.85966 0.14147
 Cu452 Cu 0.35803 0.82067 0.14128
 N453 N 0.37919 0.83681 0.17713
 N454 N 0.37909 0.82191 0.16313
 C455 C 0.39397 0.80776 0.16783
 C456 C 0.40399 0.81428 0.18557
 C457 C 0.39411 0.83261 0.19121
 H458 H 0.39651 0.79320 0.15969
 H459 H 0.39679 0.84145 0.20520
 N460 N 0.33541 0.82232 0.12055
 N461 N 0.32110 0.83725 0.12050
 C462 C 0.30702 0.83315 0.10559
 C463 C 0.31282 0.81490 0.09578
 C464 C 0.33073 0.80833 0.10571
 H465 H 0.29290 0.84202 0.10284
 H466 H 0.33900 0.79382 0.10301
 H467 H 0.33473 0.83583 0.15756
 H468 H 0.35131 0.85219 0.14021
 N469 N 0.82015 0.37863 0.16238
 N470 N 0.83389 0.37803 0.17746
 C471 C 0.82893 0.39274 0.19153
 C472 C 0.81136 0.40321 0.18475
 C473 C 0.80606 0.39380 0.16632
 H474 H 0.83678 0.39499 0.20615
 H475 H 0.79227 0.39689 0.15717
 Cu476 Cu 0.85570 0.35684 0.17807
 Cu477 Cu 0.81990 0.35790 0.14029
 Cu478 Cu 0.85885 0.31999 0.14133
 N479 N 0.87755 0.33568 0.17859
 N480 N 0.87891 0.32150 0.16395
 C481 C 0.89435 0.30797 0.16865
 C482 C 0.90317 0.31411 0.18712
 C483 C 0.89203 0.33157 0.19314
 H484 H 0.89805 0.29398 0.15999
 H485 H 0.89366 0.33989 0.20759
 N486 N 0.83708 0.32113 0.11978
 N487 N 0.82227 0.33555 0.11940
 C488 C 0.80859 0.33082 0.10433
 C489 C 0.81523 0.31276 0.09467
 C490 C 0.83318 0.30690 0.10493
 H491 H 0.79410 0.33903 0.10145
 H492 H 0.84189 0.29258 0.10261
 H493 H 0.83418 0.33401 0.15676
 H494 H 0.85146 0.35140 0.14106
 N495 N 0.82053 0.87907 0.66241
 N496 N 0.83419 0.87830 0.67756
 C497 C 0.82914 0.89282 0.69178
 C498 C 0.81160 0.90335 0.68502
 C499 C 0.80643 0.89419 0.66644
 H500 H 0.83691 0.89492 0.70645
 H501 H 0.79268 0.89737 0.65725
 Cu502 Cu 0.85600 0.85709 0.67805
 Cu503 Cu 0.82030 0.85853 0.64019
 Cu504 Cu 0.85927 0.82065 0.64092
 N505 N 0.87789 0.83597 0.67836
 N506 N 0.87933 0.82200 0.66352
 C507 C 0.89477 0.80844 0.66808
 C508 C 0.90347 0.81428 0.68669
 C509 C 0.89230 0.83165 0.69292
 H510 H 0.89850 0.79457 0.65924
 H511 H 0.89384 0.83973 0.70750
 N512 N 0.83749 0.82193 0.61943
 N513 N 0.82265 0.83632 0.61918
 C514 C 0.80882 0.83153 0.60427
 C515 C 0.81540 0.81348 0.59457
 C516 C 0.83348 0.80769 0.60463
 H517 H 0.79424 0.83965 0.60158
 H518 H 0.84217 0.79336 0.60227
 H519 H 0.83455 0.83447 0.65647
 H520 H 0.85187 0.85203 0.64098
 N521 N 0.67904 0.62188 0.66286
 N522 N 0.66547 0.62289 0.67812
 C523 C 0.67048 0.60841 0.69247
 C524 C 0.68790 0.59768 0.68568
 C525 C 0.69302 0.60664 0.66692
 H526 H 0.66277 0.60648 0.70724
 H527 H 0.70665 0.60324 0.65762
 Cu528 Cu 0.64380 0.64429 0.67846
 Cu529 Cu 0.67945 0.64230 0.64042
 Cu530 Cu 0.64047 0.68012 0.64056
 N531 N 0.62197 0.66552 0.67844
 N532 N 0.62042 0.67910 0.66319
 C533 C 0.60504 0.69281 0.66746
 C534 C 0.59652 0.68753 0.68635
 C535 C 0.60768 0.67028 0.69302
 H536 H 0.60128 0.70645 0.65823
 H537 H 0.60618 0.66254 0.70784
 N538 N 0.66228 0.67865 0.61912
 N539 N 0.67721 0.66435 0.61914
 C540 C 0.69119 0.66917 0.60430
 C541 C 0.68462 0.68716 0.59441
 C542 C 0.66640 0.69288 0.60425
 H543 H 0.70585 0.66113 0.60181
 H544 H 0.65774 0.70722 0.60179
 H545 H 0.66524 0.66658 0.65635
 H546 H 0.64798 0.64871 0.64130
 N547 N 0.67918 0.12133 0.16368
 N548 N 0.66497 0.12211 0.17836
 C549 C 0.66941 0.10756 0.19281
 C550 C 0.68712 0.09695 0.18668
 C551 C 0.69307 0.10617 0.16826
 H552 H 0.66112 0.10551 0.20726
 H553 H 0.70713 0.10291 0.15954
 Cu554 Cu 0.64335 0.14341 0.17814
 Cu555 Cu 0.68009 0.14176 0.14119
 Cu556 Cu 0.64119 0.17978 0.14073
 N557 N 0.62176 0.16475 0.17800
 N558 N 0.62072 0.17872 0.16306
 C559 C 0.60542 0.19251 0.16741
 C560 C 0.59644 0.18679 0.18598
 C561 C 0.60727 0.16929 0.19242
 H562 H 0.60198 0.20643 0.15846
 H563 H 0.60545 0.16126 0.20706
 N564 N 0.66336 0.17822 0.11959
 N565 N 0.67826 0.16388 0.11985
 C566 C 0.69235 0.16852 0.10503
 C567 C 0.68586 0.18640 0.09487
 C568 C 0.66757 0.19224 0.10455
 H569 H 0.70696 0.16036 0.10265
 H570 H 0.65885 0.20648 0.10175
 H571 H 0.66550 0.16590 0.15691
 H572 H 0.64859 0.14837 0.14116
 N573 N 0.17791 0.62080 0.16268
 N574 N 0.16477 0.62275 0.17822
 C575 C 0.16963 0.60851 0.19286
 C576 C 0.18653 0.59701 0.18600
 C577 C 0.19146 0.60523 0.16688
 H578 H 0.16223 0.60728 0.20785
 H579 H 0.20483 0.60121 0.15745
 Cu580 Cu 0.14376 0.64482 0.17855
 Cu581 Cu 0.17896 0.64076 0.13991
 Cu582 Cu 0.14404 0.68216 0.14211
 N583 N 0.12208 0.66627 0.17743
 N584 N 0.12200 0.68060 0.16279
 C585 C 0.10656 0.69442 0.16652
 C586 C 0.09636 0.68833 0.18436
 C587 C 0.10669 0.67056 0.19100
 H588 H 0.10388 0.70865 0.15781
 H589 H 0.10398 0.66223 0.20534
 N590 N 0.16490 0.67916 0.11992
 N591 N 0.17790 0.66312 0.11885
 C592 C 0.19162 0.66657 0.10339
 C593 C 0.18693 0.68556 0.09432
 C594 C 0.17001 0.69318 0.10517
 H595 H 0.20507 0.65689 0.10006
 H596 H 0.16298 0.70847 0.10333
 H597 H 0.16760 0.66524 0.15694
 H598 H 0.14804 0.65024 0.14157
 N599 N 0.17708 0.11936 0.66178
 N600 N 0.16517 0.12200 0.67816
 C601 C 0.17148 0.10880 0.69318
 C602 C 0.18803 0.09720 0.68568
 C603 C 0.19117 0.10418 0.66570
 H604 H 0.16513 0.10822 0.70868
 H605 H 0.20345 0.09942 0.65521
 Cu606 Cu 0.14367 0.14357 0.67855
 Cu607 Cu 0.17457 0.13714 0.63731
 Cu608 Cu 0.14579 0.18273 0.64461
 N609 N 0.12165 0.16461 0.67753
 N610 N 0.12257 0.17992 0.66390
 C611 C 0.10732 0.19385 0.66789
 C612 C 0.09612 0.18680 0.68475
 C613 C 0.10572 0.16833 0.69065
 H614 H 0.10556 0.20879 0.66016
 H615 H 0.10236 0.15927 0.70441
 N616 N 0.16564 0.17902 0.62168
 N617 N 0.17627 0.16155 0.61860
 C618 C 0.18981 0.16460 0.60290
 C619 C 0.18747 0.18489 0.59588
 C620 C 0.17203 0.19356 0.60800
 H621 H 0.20152 0.15343 0.59799
 H622 H 0.16676 0.20966 0.60763
 H623 H 0.16822 0.16186 0.65621
 H624 H 0.14533 0.15148 0.64168
 N625 N 0.32022 0.62141 0.33655
 N626 N 0.33462 0.62151 0.32202
 C627 C 0.33002 0.60671 0.30796
 C628 C 0.31202 0.59664 0.31424
 C629 C 0.30609 0.60645 0.33231
 H630 H 0.33838 0.60417 0.29365
 H631 H 0.29192 0.60369 0.34101
 Cu632 Cu 0.35640 0.64264 0.32213
 Cu633 Cu 0.31940 0.64231 0.35853
 Cu634 Cu 0.36150 0.67678 0.36075
 N635 N 0.37745 0.66449 0.32094
 N636 N 0.37958 0.67769 0.33636
 C637 C 0.39470 0.69157 0.33165
 C638 C 0.40230 0.68680 0.31223
 C639 C 0.39094 0.66969 0.30577
 H640 H 0.39914 0.70469 0.34121
 H641 H 0.39199 0.66210 0.29089
 N642 N 0.33795 0.67745 0.38056
 N643 N 0.32186 0.66455 0.37950
 C644 C 0.30754 0.67030 0.39366
 C645 C 0.31501 0.68747 0.40416
 C646 C 0.33423 0.69172 0.39544
 H647 H 0.29232 0.66323 0.39557
 H648 H 0.34412 0.70500 0.39880
 H649 H 0.33634 0.66595 0.34395
 H650 H 0.35081 0.64599 0.35939
 N651 N 0.32104 0.12150 0.83782
 N652 N 0.33449 0.12268 0.82246
 C653 C 0.32922 0.10858 0.80793
 C654 C 0.31175 0.09790 0.81470
 C655 C 0.30688 0.10651 0.83366
 H656 H 0.33700 0.10665 0.79320
 H657 H 0.29352 0.10283 0.84325
 Cu658 Cu 0.35670 0.14354 0.82262
 Cu659 Cu 0.32221 0.14043 0.86138
 Cu660 Cu 0.35989 0.17945 0.86030
 N661 N 0.37894 0.16431 0.82291
 N662 N 0.38033 0.17797 0.83804
 C663 C 0.39572 0.19165 0.83376
 C664 C 0.40434 0.18634 0.81496
 C665 C 0.39334 0.16900 0.80841
 H666 H 0.39931 0.20536 0.84285
 H667 H 0.39489 0.16129 0.79362
 N668 N 0.33774 0.17806 0.88143
 N669 N 0.32308 0.16352 0.88154
 C670 C 0.30877 0.16839 0.89606
 C671 C 0.31496 0.18660 0.90569
 C672 C 0.33326 0.19238 0.89602
 H673 H 0.29430 0.16006 0.89861
 H674 H 0.34185 0.20671 0.89856
 H675 H 0.33539 0.16527 0.84501
 H676 H 0.35392 0.14837 0.85986
 N677 N 0.82068 0.62097 0.83782
 N678 N 0.83425 0.62170 0.82254
 C679 C 0.82910 0.60719 0.80838
 C680 C 0.81158 0.59674 0.81530
 C681 C 0.80654 0.60590 0.83395
 H682 H 0.83676 0.60508 0.79362
 H683 H 0.79285 0.60277 0.84325
 Cu684 Cu 0.85603 0.64286 0.82180
 Cu685 Cu 0.82051 0.64159 0.85997
 Cu686 Cu 0.85948 0.67934 0.85885
 N687 N 0.87792 0.66392 0.82129
 N688 N 0.87946 0.67788 0.83612
 C689 C 0.89489 0.69138 0.83142
 C690 C 0.90348 0.68550 0.81274
 C691 C 0.89226 0.66818 0.80660
 H692 H 0.89868 0.70523 0.84023
 H693 H 0.89373 0.66008 0.79201
 N694 N 0.83778 0.67820 0.88051
 N695 N 0.82294 0.66385 0.88089
 C696 C 0.80917 0.66871 0.89589
 C697 C 0.81579 0.68675 0.90552
 C698 C 0.83383 0.69247 0.89532
 H699 H 0.79460 0.66063 0.89870
 H700 H 0.84253 0.70678 0.89760
 H701 H 0.83466 0.66554 0.84352
 H702 H 0.85204 0.64795 0.85889
 N703 N 0.82189 0.11998 0.33660
 N704 N 0.83680 0.12015 0.32259
 C705 C 0.83272 0.10548 0.30825
 C706 C 0.81447 0.09545 0.31376
 C707 C 0.80786 0.10513 0.33167
 H708 H 0.84156 0.10312 0.29419
 H709 H 0.79328 0.10248 0.33972
 Cu710 Cu 0.85851 0.14127 0.32343
 Cu711 Cu 0.82017 0.14093 0.35850
 Cu712 Cu 0.85827 0.17979 0.35825
 N713 N 0.87942 0.16319 0.32250
 N714 N 0.87931 0.17825 0.33634
 C715 C 0.89408 0.19238 0.33136
 C716 C 0.90401 0.18571 0.31359
 C717 C 0.89422 0.16729 0.30823
 H718 H 0.89661 0.20703 0.33932
 H719 H 0.89684 0.15831 0.29431
 N720 N 0.83563 0.17842 0.37905
 N721 N 0.82123 0.16361 0.37919
 C722 C 0.80710 0.16796 0.39404
 C723 C 0.81299 0.18620 0.40377
 C724 C 0.83099 0.19253 0.39383
 H725 H 0.79290 0.15924 0.39683
 H726 H 0.83938 0.20696 0.39647
 H727 H 0.83501 0.16450 0.34213
 H728 H 0.85148 0.14835 0.35975
 N729 N 0.67839 0.37901 0.33708
 N730 N 0.66482 0.37788 0.32188
 C731 C 0.66976 0.39227 0.30742
 C732 C 0.68712 0.40307 0.31409
 C733 C 0.69229 0.39424 0.33287
 H734 H 0.66207 0.39406 0.29265
 H735 H 0.70594 0.39769 0.34206
 Cu736 Cu 0.64336 0.35638 0.32170
 Cu737 Cu 0.67903 0.35861 0.35950
 Cu738 Cu 0.64089 0.31999 0.35913
 N739 N 0.62184 0.33494 0.32163
 N740 N 0.62070 0.32095 0.33656
 C741 C 0.60544 0.30719 0.33214
 C742 C 0.59655 0.31295 0.31354
 C743 C 0.60742 0.33046 0.30717
 H744 H 0.60193 0.29329 0.34109
 H745 H 0.60562 0.33858 0.29259
 N746 N 0.66279 0.32171 0.38053
 N747 N 0.67717 0.33652 0.38074
 C748 C 0.69111 0.33218 0.39572
 C749 C 0.68515 0.31392 0.40547
 C750 C 0.66729 0.30756 0.39537
 H751 H 0.70540 0.34075 0.39840
 H752 H 0.65911 0.29294 0.39776
 H753 H 0.66528 0.33421 0.34344
 H754 H 0.64764 0.35151 0.35880
 N755 N 0.67872 0.87819 0.83745
 N756 N 0.66503 0.87734 0.82234
 C757 C 0.67001 0.89183 0.80798
 C758 C 0.68754 0.90243 0.81461
 C759 C 0.69274 0.89334 0.83329
 H760 H 0.66218 0.89389 0.79331
 H761 H 0.70644 0.89664 0.84247
 Cu762 Cu 0.64321 0.85609 0.82222
 Cu763 Cu 0.67919 0.85766 0.85985
 Cu764 Cu 0.64007 0.82005 0.85992
 N765 N 0.62130 0.83493 0.82229
 N766 N 0.61985 0.82125 0.83747
 C767 C 0.60449 0.80756 0.83322
 C768 C 0.59585 0.81297 0.81443
 C769 C 0.60695 0.83027 0.80780
 H770 H 0.60085 0.79384 0.84236
 H771 H 0.60538 0.83809 0.79303
 N772 N 0.66203 0.82129 0.88118
 N773 N 0.67698 0.83552 0.88110
 C774 C 0.69100 0.83059 0.89585
 C775 C 0.68446 0.81258 0.90572
 C776 C 0.66618 0.80699 0.89598
 H777 H 0.70564 0.83861 0.89833
 H778 H 0.65748 0.79269 0.89848
 H779 H 0.66479 0.83358 0.84398
 H780 H 0.64773 0.85146 0.85932
 N781 N 0.17800 0.37816 0.83607
 N782 N 0.16393 0.37714 0.82132
 C783 C 0.16830 0.39169 0.80683
 C784 C 0.18582 0.40253 0.81300
 C785 C 0.19172 0.39345 0.83150
 H786 H 0.16008 0.39360 0.79236
 H787 H 0.20565 0.39690 0.84028
 Cu788 Cu 0.14253 0.35559 0.82169
 Cu789 Cu 0.17902 0.35793 0.85874
 Cu790 Cu 0.14037 0.31984 0.85965
 N791 N 0.12113 0.33404 0.82206
 N792 N 0.12003 0.32046 0.83734
 C793 C 0.10493 0.30644 0.83328
 C794 C 0.09616 0.31154 0.81447
 C795 C 0.10685 0.32899 0.80766
 H796 H 0.10157 0.29272 0.84254
 H797 H 0.10509 0.33664 0.79283
 N798 N 0.16239 0.32171 0.88075
 N799 N 0.17728 0.33601 0.88029
 C800 C 0.19140 0.33145 0.89506
 C801 C 0.18493 0.31366 0.90538
 C802 C 0.16663 0.30779 0.89586
 H803 H 0.20603 0.33957 0.89726
 H804 H 0.15798 0.29355 0.89875
 H805 H 0.16473 0.33355 0.84328
 H806 H 0.14763 0.35130 0.85872
 N807 N 0.17808 0.87835 0.33577
 N808 N 0.16407 0.87718 0.32097
 C809 C 0.16842 0.89170 0.30644
 C810 C 0.18586 0.90267 0.31262
 C811 C 0.19173 0.89371 0.33118
 H812 H 0.16022 0.89353 0.29195
 H813 H 0.20559 0.89729 0.34002
 Cu814 Cu 0.14273 0.85555 0.32132
 Cu815 Cu 0.17914 0.85816 0.35847
 Cu816 Cu 0.14060 0.81993 0.35944
 N817 N 0.12132 0.83399 0.32183
 N818 N 0.12019 0.82047 0.33717
 C819 C 0.10501 0.80650 0.33317
 C820 C 0.09623 0.81155 0.31435
 C821 C 0.10698 0.82895 0.30748
 H822 H 0.10156 0.79286 0.34252
 H823 H 0.10518 0.83659 0.29265
 N824 N 0.16268 0.82186 0.38050
 N825 N 0.17749 0.83625 0.38004
 C826 C 0.19166 0.83175 0.39478
 C827 C 0.18532 0.81390 0.40508
 C828 C 0.16705 0.80793 0.39556
 H829 H 0.20626 0.83993 0.39696
 H830 H 0.15849 0.79363 0.39844
 H831 H 0.16496 0.83369 0.34309
 H832 H 0.14776 0.85145 0.35842
 C833 C 0.24973 1.05660 0.25067
 C834 C 0.26153 1.04585 0.23600
 C835 C 0.26088 1.02392 0.23544
 C836 C 0.24952 1.01231 0.25041
 C837 C 0.23814 1.02376 0.26545
 C838 C 0.23772 1.04573 0.26515
 C839 C 0.24956 0.98859 0.25031
 C840 C 0.23490 0.97691 0.26207
 C841 C 0.23535 0.95494 0.26232
 C842 C 0.24954 0.94430 0.24978
 C843 C 0.26386 0.95527 0.23764
 C844 C 0.26432 0.97720 0.23843
 H845 H 0.24984 1.07358 0.25079
 H846 H 0.26929 1.01630 0.22315
 H847 H 0.22955 1.01599 0.27755
 H848 H 0.22289 0.98450 0.27100
 H849 H 0.24953 0.92732 0.24955
 H850 H 0.27642 0.98499 0.22979
 C851 C 0.24955 0.55604 0.75050
 C852 C 0.26147 0.54530 0.73591
 C853 C 0.26097 0.52336 0.73544
 C854 C 0.24957 0.51174 0.75038
 C855 C 0.23806 0.52321 0.76532
 C856 C 0.23755 0.54516 0.76497
 C857 C 0.24970 0.48801 0.75035
 C858 C 0.23520 0.47636 0.76235
 C859 C 0.23576 0.45441 0.76281
 C860 C 0.24994 0.44370 0.75033
 C861 C 0.26402 0.45461 0.73787
 C862 C 0.26433 0.47656 0.73835
 H863 H 0.24957 0.57302 0.75057
 H864 H 0.26956 0.51576 0.72327
 H865 H 0.22946 0.51548 0.77744
 H866 H 0.22322 0.48395 0.77130
 H867 H 0.25003 0.42672 0.75032
 H868 H 0.27622 0.48429 0.72939
 C869 C 0.74987 -0.05618 0.25030
 C870 C 0.76199 -0.04542 0.26463
 C871 C 0.76157 -0.02350 0.26498
 C872 C 0.75020 -0.01190 0.25005
 C873 C 0.73862 -0.02336 0.23525
 C874 C 0.73792 -0.04529 0.23583
 C875 C 0.75042 0.01179 0.24996
 C876 C 0.73595 0.02347 0.23802
 C877 C 0.73657 0.04540 0.23752
 C878 C 0.75067 0.05607 0.25004
 C879 C 0.76473 0.04510 0.26244
 C880 C 0.76510 0.02317 0.26185
 H881 H 0.74977 -0.07317 0.25038
 H882 H 0.77018 -0.01589 0.27707
 H883 H 0.73009 -0.01564 0.22310
 H884 H 0.72395 0.01593 0.22913
 H885 H 0.75074 0.07306 0.25011
 H886 H 0.77703 0.01539 0.27070
 C887 C 0.74988 0.44443 0.75021
 C888 C 0.76406 0.45522 0.76255
 C889 C 0.76444 0.47716 0.76206
 C890 C 0.74966 0.48870 0.75037
 C891 C 0.73498 0.47721 0.73858
 C892 C 0.73557 0.45527 0.73797
 C893 C 0.74958 0.51237 0.75045
 C894 C 0.73838 0.52398 0.73538
 C895 C 0.73784 0.54592 0.73587
 C896 C 0.74962 0.55663 0.75052
 C897 C 0.76134 0.54572 0.76516
 C898 C 0.76074 0.52379 0.76559
 H899 H 0.74998 0.42744 0.75015
 H900 H 0.77650 0.48485 0.77077
 H901 H 0.72290 0.48494 0.72988
 H902 H 0.73003 0.51634 0.72311
 H903 H 0.74967 0.57361 0.75053
 H904 H 0.76904 0.51601 0.77787
 C905 C 0.24893 0.44382 0.25057
 C906 C 0.26282 0.45454 0.26326
 C907 C 0.26330 0.47649 0.26280
 C908 C 0.24913 0.48815 0.25043
 C909 C 0.23483 0.47665 0.23818
 C910 C 0.23513 0.45471 0.23783
 C911 C 0.24924 0.51192 0.25030
 C912 C 0.23732 0.52353 0.23575
 C913 C 0.23689 0.54548 0.23608
 C914 C 0.24927 0.55626 0.25018
 C915 C 0.26168 0.54541 0.26429
 C916 C 0.26124 0.52347 0.26473
 H917 H 0.24888 0.42683 0.25059
 H918 H 0.27500 0.48401 0.27207
 H919 H 0.22317 0.48430 0.22888
 H920 H 0.22829 0.51597 0.22395
 H921 H 0.24926 0.57324 0.25016
 H922 H 0.27031 0.51585 0.27654
 C923 C 0.74896 1.05607 0.75039
 C924 C 0.76274 1.04550 0.73738
 C925 C 0.76332 1.02353 0.73762
 C926 C 0.74918 1.01175 0.74995
 C927 C 0.73483 1.02310 0.76234
 C928 C 0.73517 1.04502 0.76303
 C929 C 0.74935 0.98801 0.74993
 C930 C 0.73794 0.97630 0.76484
 C931 C 0.73755 0.95435 0.76438
 C932 C 0.74961 0.94370 0.74986
 C933 C 0.76152 0.95465 0.73538
 C934 C 0.76092 0.97659 0.73502
 H935 H 0.74889 1.07305 0.75063
 H936 H 0.77504 1.01608 0.72824
 H937 H 0.72312 1.01532 0.77147
 H938 H 0.72928 0.98381 0.77700
 H939 H 0.74971 0.92671 0.74982
 H940 H 0.76955 0.98434 0.72294
 C941 C 0.74890 0.55626 0.24978
 C942 C 0.76269 0.54555 0.23689
 C943 C 0.76313 0.52361 0.23719
 C944 C 0.74893 0.51194 0.24948
 C945 C 0.73466 0.52340 0.26191
 C946 C 0.73507 0.54535 0.26250
 C947 C 0.74903 0.48820 0.24937
 C948 C 0.73749 0.47653 0.26415
 C949 C 0.73708 0.45460 0.26367
 C950 C 0.74919 0.44389 0.24923
 C951 C 0.76125 0.45480 0.23486
 C952 C 0.76070 0.47675 0.23451
 H953 H 0.74892 0.57325 0.24991
 H954 H 0.77486 0.51608 0.22789
 H955 H 0.72296 0.51571 0.27114
 H956 H 0.72873 0.48406 0.27623
 H957 H 0.74924 0.42691 0.24920
 H958 H 0.76944 0.48445 0.22249
 C959 C 0.25043 -0.05580 0.75022
 C960 C 0.26483 -0.04505 0.76234
 C961 C 0.26546 -0.02311 0.76166
 C962 C 0.25079 -0.01151 0.74987
 C963 C 0.23599 -0.02297 0.73818
 C964 C 0.23626 -0.04493 0.73785
 C965 C 0.25089 0.01220 0.74982
 C966 C 0.23964 0.02378 0.73476
 C967 C 0.23898 0.04572 0.73526
 C968 C 0.25069 0.05648 0.74993
 C969 C 0.26257 0.04564 0.76451
 C970 C 0.26215 0.02369 0.76489
 H971 H 0.25030 -0.07278 0.75037
 H972 H 0.27757 -0.01547 0.77033
 H973 H 0.22402 -0.01520 0.72935
 H974 H 0.23126 0.01611 0.72252
 H975 H 0.25056 0.07346 0.75000
 H976 H 0.27059 0.01595 0.77710
 C977 C 0.24995 0.25026 1.05572
 C978 C 0.23800 0.26498 1.04498
 C979 C 0.23862 0.26542 1.02333
 C980 C 0.24997 0.25021 1.01202
 C981 C 0.26124 0.23495 1.02342
 C982 C 0.26182 0.23543 1.04508
 C983 C 0.25004 0.25028 0.98864
 C984 C 0.26502 0.23863 0.97733
 C985 C 0.26454 0.23800 0.95568
 C986 C 0.25010 0.25024 0.94495
 C987 C 0.23565 0.26254 0.95557
 C988 C 0.23514 0.26197 0.97724
 H989 H 0.24996 0.25031 1.07248
 H990 H 0.23024 0.27781 1.01565
 H991 H 0.26964 0.22255 1.01580
 H992 H 0.27723 0.23002 0.98500
 H993 H 0.25010 0.25018 0.92818
 H994 H 0.22291 0.27063 0.98484
 C995 C 0.25038 0.75031 0.55552
 C996 C 0.23804 0.76471 0.54485
 C997 C 0.23852 0.76511 0.52317
 C998 C 0.25035 0.75028 0.51177
 C999 C 0.26211 0.73539 0.52319
 C1000 C 0.26259 0.73580 0.54486
 C1001 C 0.25047 0.75039 0.48833
 C1002 C 0.26531 0.73860 0.47690
 C1003 C 0.26501 0.73832 0.45521
 C1004 C 0.25063 0.75071 0.44458
 C1005 C 0.23624 0.76300 0.45528
 C1006 C 0.23574 0.76234 0.47694
 H1007 H 0.25044 0.75036 0.57229
 H1008 H 0.22968 0.77723 0.51560
 H1009 H 0.27098 0.72330 0.51563
 H1010 H 0.27730 0.72960 0.48446
 H1011 H 0.25066 0.75081 0.42781
 H1012 H 0.22361 0.77113 0.48450
 C1013 C 0.25090 0.75032 -0.05597
 C1014 C 0.26565 0.76226 -0.04542
 C1015 C 0.26627 0.76164 -0.02374
 C1016 C 0.25127 0.75012 -0.01225
 C1017 C 0.23610 0.73874 -0.02352
 C1018 C 0.23638 0.73825 -0.04518
 C1019 C 0.25131 0.75000 0.01115
 C1020 C 0.23968 0.73494 0.02247
 C1021 C 0.23882 0.73542 0.04411
 C1022 C 0.25075 0.75002 0.05486
 C1023 C 0.26305 0.76454 0.04429
 C1024 C 0.26283 0.76497 0.02259
 H1025 H 0.25074 0.75040 -0.07273
 H1026 H 0.27855 0.77020 -0.01618
 H1027 H 0.22382 0.73025 -0.01582
 H1028 H 0.23122 0.72264 0.01483
 H1029 H 0.25046 0.75006 0.07162
 H1030 H 0.27161 0.77714 0.01499
 C1031 C 0.25000 0.24991 0.44501
 C1032 C 0.26466 0.26192 0.45560
 C1033 C 0.26540 0.26109 0.47724
 C1034 C 0.25053 0.24942 0.48870
 C1035 C 0.23536 0.23804 0.47746
 C1036 C 0.23557 0.23770 0.45580
 C1037 C 0.25079 0.24919 0.51205
 C1038 C 0.23974 0.23376 0.52342
 C1039 C 0.23916 0.23416 0.54506
 C1040 C 0.25083 0.24905 0.55573
 C1041 C 0.26258 0.26394 0.54505
 C1042 C 0.26199 0.26445 0.52338
 H1043 H 0.24981 0.25008 0.42825
 H1044 H 0.27774 0.26954 0.48482
 H1045 H 0.22320 0.22943 0.48523
 H1046 H 0.23146 0.22132 0.51577
 H1047 H 0.25074 0.24906 0.57250
 H1048 H 0.27022 0.27695 0.51571
 C1049 C 0.74972 0.74970 1.05579
 C1050 C 0.73772 0.76429 1.04495
 C1051 C 0.73836 0.76458 1.02329
 C1052 C 0.74979 0.74934 1.01209
 C1053 C 0.76116 0.73425 1.02359
 C1054 C 0.76170 0.73488 1.04525
 C1055 C 0.74990 0.74928 0.98872
 C1056 C 0.76510 0.73788 0.97743
 C1057 C 0.76486 0.73750 0.95575
 C1058 C 0.75031 0.74963 0.94502
 C1059 C 0.73548 0.76147 0.95565
 C1060 C 0.73482 0.76070 0.97729
 H1061 H 0.74972 0.74986 1.07255
 H1062 H 0.72995 0.77689 1.01551
 H1063 H 0.76969 0.72189 1.01605
 H1064 H 0.77732 0.72931 0.98514
 H1065 H 0.75049 0.74979 0.92826
 H1066 H 0.72237 0.76903 0.98489
 C1067 C 0.75006 0.24938 0.55619
 C1068 C 0.73638 0.26257 0.54564
 C1069 C 0.73602 0.26238 0.52396
 C1070 C 0.74969 0.24933 0.51236
 C1071 C 0.76346 0.23619 0.52375
 C1072 C 0.76346 0.23606 0.54544
 C1073 C 0.74960 0.24947 0.48881
 C1074 C 0.76251 0.23570 0.47718
 C1075 C 0.76261 0.23608 0.45548
 C1076 C 0.74950 0.24988 0.44497
 C1077 C 0.73641 0.26343 0.45577
 C1078 C 0.73663 0.26341 0.47745
 H1079 H 0.75025 0.24944 0.57296
 H1080 H 0.72489 0.27255 0.51664
 H1081 H 0.77444 0.22598 0.51627
 H1082 H 0.77264 0.22449 0.48448
 H1083 H 0.74945 0.25004 0.42821
 H1084 H 0.72655 0.27450 0.48494
 C1085 C 0.74992 0.25023 -0.05629
 C1086 C 0.76234 0.26455 -0.04572
 C1087 C 0.76198 0.26489 -0.02404
 C1088 C 0.75021 0.25006 -0.01254
 C1089 C 0.73827 0.23532 -0.02387
 C1090 C 0.73761 0.23584 -0.04554
 C1091 C 0.75041 0.24992 0.01092
 C1092 C 0.73572 0.23799 0.02242
 C1093 C 0.73635 0.23726 0.04409
 C1094 C 0.75081 0.24948 0.05468
 C1095 C 0.76504 0.26197 0.04395
 C1096 C 0.76527 0.26170 0.02226
 H1097 H 0.74983 0.25027 -0.07306
 H1098 H 0.77094 0.27690 -0.01653
 H1099 H 0.72949 0.22318 -0.01625
 H1100 H 0.72355 0.22925 0.01494
 H1101 H 0.75096 0.24931 0.07145
 H1102 H 0.77722 0.27069 0.01463
 C1103 C 0.75060 0.74988 0.44442
 C1104 C 0.76276 0.76443 0.45501
 C1105 C 0.76212 0.76502 0.47666
 C1106 C 0.75046 0.75014 0.48814
 C1107 C 0.73891 0.73508 0.47687
 C1108 C 0.73840 0.73542 0.45520
 C1109 C 0.75034 0.75031 0.51154
 C1110 C 0.73524 0.73888 0.52294
 C1111 C 0.73562 0.73835 0.54460
 C1112 C 0.75016 0.75042 0.55526
 C1113 C 0.76477 0.76250 0.54455
 C1114 C 0.76531 0.76188 0.52289
 H1115 H 0.75064 0.74981 0.42766
 H1116 H 0.77072 0.77729 0.48420
 H1117 H 0.73026 0.72289 0.48458
 H1118 H 0.72300 0.73035 0.51533
 H1119 H 0.75010 0.75043 0.57203
 H1120 H 0.77760 0.77041 0.51524
 C1121 C 1.05593 0.24929 0.24920
 C1122 C 1.04515 0.23752 0.26392
 C1123 C 1.02329 0.23824 0.26452
 C1124 C 1.01178 0.24966 0.24953
 C1125 C 1.02326 0.26096 0.23441
 C1126 C 1.04515 0.26132 0.23469
 C1127 C 0.98814 0.24981 0.24971
 C1128 C 0.97661 0.26465 0.23801
 C1129 C 0.95471 0.26437 0.23779
 C1130 C 0.94398 0.25019 0.25032
 C1131 C 0.95481 0.23572 0.26242
 C1132 C 0.97667 0.23508 0.26160
 H1133 H 1.07286 0.24917 0.24909
 H1134 H 1.01563 0.22989 0.27686
 H1135 H 1.01557 0.26956 0.22228
 H1136 H 0.98427 0.27664 0.22907
 H1137 H 0.92705 0.25034 0.25056
 H1138 H 0.98437 0.22288 0.27023
 C1139 C 0.55591 0.25031 0.75045
 C1140 C 0.54522 0.23604 0.76288
 C1141 C 0.52335 0.23531 0.76223
 C1142 C 0.51176 0.24985 0.75020
 C1143 C 0.52317 0.26468 0.73839
 C1144 C 0.54505 0.26444 0.73799
 C1145 C 0.48813 0.24953 0.74997
 C1146 C 0.47661 0.26073 0.73482
 C1147 C 0.45471 0.26094 0.73508
 C1148 C 0.44399 0.24883 0.74958
 C1149 C 0.45483 0.23710 0.76426
 C1150 C 0.47667 0.23802 0.76492
 H1151 H 0.57285 0.25047 0.75049
 H1152 H 0.51578 0.22316 0.77103
 H1153 H 0.51541 0.27660 0.72945
 H1154 H 0.48426 0.26937 0.72268
 H1155 H 0.42705 0.24858 0.74946
 H1156 H 0.48435 0.22972 0.77726
 C1157 C -0.05576 0.24935 0.74982
 C1158 C -0.04508 0.26345 0.76233
 C1159 C -0.02318 0.26379 0.76204
 C1160 C -0.01162 0.24907 0.75026
 C1161 C -0.02304 0.23439 0.73845
 C1162 C -0.04486 0.23503 0.73765
 C1163 C 0.01199 0.24900 0.75022
 C1164 C 0.02345 0.23754 0.73525
 C1165 C 0.04531 0.23688 0.73565
 C1166 C 0.05614 0.24885 0.75006
 C1167 C 0.04538 0.26089 0.76454
 C1168 C 0.02351 0.26042 0.76507
 H1169 H -0.07270 0.24947 0.74958
 H1170 H -0.01556 0.27574 0.77096
 H1171 H -0.01535 0.22223 0.72981
 H1172 H 0.01578 0.22912 0.72306
 H1173 H 0.07308 0.24881 0.75000
 H1174 H 0.01585 0.26903 0.77719
 C1175 C 0.44368 0.24961 0.24992
 C1176 C 0.45443 0.26221 0.26384
 C1177 C 0.47630 0.26190 0.26415
 C1178 C 0.48793 0.24957 0.25001
 C1179 C 0.47641 0.23716 0.23585
 C1180 C 0.45450 0.23691 0.23606
 C1181 C 0.51167 0.24971 0.25000
 C1182 C 0.52332 0.23606 0.23709
 C1183 C 0.54519 0.23648 0.23676
 C1184 C 0.55591 0.25000 0.24982
 C1185 C 0.54508 0.26339 0.26301
 C1186 C 0.52318 0.26351 0.26286
 H1187 H 0.42674 0.24966 0.24987
 H1188 H 0.48376 0.27142 0.27561
 H1189 H 0.48395 0.22758 0.22444
 H1190 H 0.51589 0.22484 0.22722
 H1191 H 0.57285 0.25010 0.24974
 H1192 H 0.51564 0.27464 0.27281
 C1193 C 1.05598 0.74960 0.74940
 C1194 C 1.04521 0.73734 0.76372
 C1195 C 1.02332 0.73784 0.76416
 C1196 C 1.01179 0.74965 0.74946
 C1197 C 1.02333 0.76141 0.73471
 C1198 C 1.04521 0.76186 0.73509
 C1199 C 0.98811 0.74971 0.74951
 C1200 C 0.97659 0.76432 0.73750
 C1201 C 0.95470 0.76394 0.73708
 C1202 C 0.94391 0.74979 0.74958
 C1203 C 0.95468 0.73562 0.76206
 C1204 C 0.97657 0.73516 0.76157
 H1205 H 1.07292 0.74960 0.74940
 H1206 H 1.01570 0.72900 0.77616
 H1207 H 1.01572 0.77029 0.72273
 H1208 H 0.98421 0.77626 0.72848
 H1209 H 0.92698 0.74982 0.74960
 H1210 H 0.98418 0.72321 0.77058
 C1211 C 0.55607 0.75076 0.25071
 C1212 C 0.54517 0.73870 0.26510
 C1213 C 0.52327 0.73908 0.26525
 C1214 C 0.51189 0.75054 0.25016
 C1215 C 0.52357 0.76205 0.23532
 C1216 C 0.54545 0.76266 0.23601
 C1217 C 0.48821 0.75045 0.24986
 C1218 C 0.47683 0.76489 0.23753
 C1219 C 0.45497 0.76429 0.23661
 C1220 C 0.44404 0.75010 0.24894
 C1221 C 0.45463 0.73624 0.26190
 C1222 C 0.47654 0.73596 0.26188
 H1223 H 0.57301 0.75083 0.25091
 H1224 H 0.51552 0.73037 0.27728
 H1225 H 0.51608 0.77058 0.22303
 H1226 H 0.48456 0.77687 0.22863
 H1227 H 0.42711 0.74997 0.24857
 H1228 H 0.48406 0.72420 0.27122
 C1229 C -0.05631 0.75034 0.24982
 C1230 C -0.04550 0.76442 0.26227
 C1231 C -0.02360 0.76470 0.26182
 C1232 C -0.01215 0.74999 0.24991
 C1233 C -0.02369 0.73541 0.23806
 C1234 C -0.04555 0.73604 0.23750
 C1235 C 0.01148 0.74988 0.24977
 C1236 C 0.02290 0.73860 0.23461
 C1237 C 0.04478 0.73805 0.23488
 C1238 C 0.05563 0.74986 0.24942
 C1239 C 0.04492 0.76162 0.26415
 C1240 C 0.02305 0.76108 0.26476
 H1241 H -0.07324 0.75048 0.24974
 H1242 H -0.01589 0.77661 0.27072
 H1243 H -0.01606 0.72334 0.22926
 H1244 H 0.01518 0.73022 0.22241
 H1245 H 0.07257 0.74987 0.24928
 H1246 H 0.01543 0.76946 0.27707
 C1247 C 0.44336 0.74951 0.75034
 C1248 C 0.45402 0.76346 0.76305
 C1249 C 0.47591 0.76391 0.76270
 C1250 C 0.48757 0.74962 0.75050
 C1251 C 0.47614 0.73522 0.73826
 C1252 C 0.45425 0.73556 0.73776
 C1253 C 0.51127 0.74979 0.75050
 C1254 C 0.52292 0.73793 0.73597
 C1255 C 0.54481 0.73769 0.73630
 C1256 C 0.55547 0.75020 0.75037
 C1257 C 0.54460 0.76250 0.76453
 C1258 C 0.52271 0.76185 0.76500
 H1259 H 0.42642 0.74950 0.75026
 H1260 H 0.48339 0.77570 0.77190
 H1261 H 0.48381 0.72351 0.72906
 H1262 H 0.51543 0.72879 0.72420
 H1263 H 0.57241 0.75035 0.75031
 H1264 H 0.51506 0.77081 0.77685
 C1265 C 0.45015 0.29098 0.29497
 C1266 C 0.43509 0.30818 0.28690
 C1267 C 0.41802 0.29978 0.30142
 C1268 C 0.43284 0.28278 0.30970
 C1269 C 0.41003 0.28494 0.28454
 C1270 C 0.42725 0.29316 0.26986
 C1271 C 0.44211 0.27610 0.27805
 C1272 C 0.42501 0.26777 0.29264
 H1273 H 0.46665 0.29364 0.29945
 H1274 H 0.43905 0.32496 0.28466
 H1275 H 0.43503 0.27863 0.32623
 H1276 H 0.39339 0.28259 0.28038
 H1277 H 0.42505 0.29733 0.25333
 H1278 H 0.42097 0.25102 0.29490
 C1279 C 0.44952 0.79285 0.79360
 C1280 C 0.43397 0.80963 0.78555
 C1281 C 0.41728 0.80098 0.80039
 C1282 C 0.43261 0.78445 0.80868
 C1283 C 0.40939 0.78580 0.78378
 C1284 C 0.42624 0.79422 0.76876
 C1285 C 0.44160 0.77762 0.77694
 C1286 C 0.42488 0.76909 0.79189
 H1287 H 0.46604 0.79589 0.79779
 H1288 H 0.43756 0.82645 0.78307
 H1289 H 0.43515 0.78050 0.82521
 H1290 H 0.39276 0.78297 0.77986
 H1291 H 0.42376 0.79815 0.75221
 H1292 H 0.42125 0.75228 0.79441
 C1293 C -0.04967 0.29378 0.79198
 C1294 C -0.06611 0.30967 0.78391
 C1295 C -0.08198 0.30093 0.79957
 C1296 C -0.06577 0.28526 0.80784
 C1297 C -0.08977 0.28489 0.78371
 C1298 C -0.07377 0.29344 0.76788
 C1299 C -0.05752 0.27772 0.77608
 C1300 C -0.07343 0.26907 0.79182
 H1301 H -0.03315 0.29756 0.79549
 H1302 H -0.06324 0.32653 0.78078
 H1303 H -0.06262 0.28199 0.82441
 H1304 H -0.10642 0.28136 0.78046
 H1305 H -0.07697 0.29671 0.75132
 H1306 H -0.07638 0.25223 0.79496
 C1307 C -0.07373 0.77004 0.29184
 C1308 C -0.06605 0.78617 0.30791
 C1309 C -0.08226 0.80188 0.29970
 C1310 C -0.09007 0.78590 0.28379
 C1311 C -0.06638 0.81066 0.28407
 C1312 C -0.04995 0.79472 0.29207
 C1313 C -0.05783 0.77871 0.27612
 C1314 C -0.07406 0.79449 0.26799
 H1315 H -0.07667 0.75319 0.29496
 H1316 H -0.06291 0.78284 0.32447
 H1317 H -0.10670 0.78237 0.28051
 H1318 H -0.06350 0.82753 0.28102
 H1319 H -0.03341 0.79845 0.29560
 H1320 H -0.07723 0.79782 0.25144
 C1321 C 0.57223 0.70794 0.27157
 C1322 C 0.58964 0.71634 0.28580
 C1323 C 0.58191 0.70168 0.30306
 C1324 C 0.56462 0.69313 0.28898
 C1325 C 0.56718 0.71878 0.31131
 C1326 C 0.57477 0.73360 0.29386
 C1327 C 0.55746 0.72511 0.27970
 C1328 C 0.54965 0.71043 0.29699
 H1329 H 0.57423 0.70357 0.25508
 H1330 H 0.60621 0.71866 0.28130
 H1331 H 0.56063 0.67634 0.28706
 H1332 H 0.56523 0.72310 0.32781
 H1333 H 0.57883 0.75038 0.29578
 H1334 H 0.53318 0.70790 0.30170
 C1335 C 0.57383 0.20612 0.76887
 C1336 C 0.58990 0.21485 0.78441
 C1337 C 0.58217 0.19903 0.80064
 C1338 C 0.56622 0.19011 0.78525
 C1339 C 0.56600 0.21481 0.80875
 C1340 C 0.57360 0.23079 0.79236
 C1341 C 0.55764 0.22196 0.77689
 C1342 C 0.54983 0.20611 0.79316
 H1343 H 0.57693 0.20262 0.75235
 H1344 H 0.60652 0.21837 0.78094
 H1345 H 0.56334 0.17321 0.78248
 H1346 H 0.56294 0.21830 0.82528
 H1347 H 0.57655 0.24768 0.79517
 H1348 H 0.53331 0.20240 0.79686
 C1349 C 1.07262 0.70669 0.76994
 C1350 C 1.08974 0.71504 0.78455
 C1351 C 1.08191 0.70005 0.80148
 C1352 C 1.06492 0.69153 0.78703
 C1353 C 1.06688 0.71688 0.80975
 C1354 C 1.07458 0.73203 0.79263
 C1355 C 1.05756 0.72358 0.77811
 C1356 C 1.04967 0.70855 0.79507
 H1357 H 1.07492 0.70260 0.75342
 H1358 H 1.10636 0.71758 0.78033
 H1359 H 1.06113 0.67472 0.78482
 H1360 H 1.06463 0.72095 0.82628
 H1361 H 1.07845 0.74881 0.79486
 H1362 H 1.03316 0.70576 0.79955
 C1363 C 1.04971 0.20982 0.29623
 C1364 C 1.06421 0.19207 0.28836
 C1365 C 1.08190 0.20061 0.30194
 C1366 C 1.06763 0.21817 0.31005
 C1367 C 1.08959 0.21473 0.28424
 C1368 C 1.07178 0.20635 0.27049
 C1369 C 1.05749 0.22397 0.27849
 C1370 C 1.07519 0.23244 0.29216
 H1371 H 1.03329 0.20770 0.30131
 H1372 H 1.05989 0.17530 0.28690
 H1373 H 1.06604 0.22291 0.32648
 H1374 H 1.10613 0.21664 0.27940
 H1375 H 1.07339 0.20158 0.25407
 H1376 H 1.07958 0.24919 0.29365
 C1377 C 0.57401 0.29402 0.73207
 C1378 C 0.58942 0.28550 0.71567
 C1379 C 0.58143 0.30202 0.70027
 C1380 C 0.56616 0.31074 0.71650
 C1381 C 0.56472 0.28684 0.69225
 C1382 C 0.57258 0.27017 0.70781
 C1383 C 0.55729 0.27878 0.72411
 C1384 C 0.54924 0.29533 0.70867
 H1385 H 0.57770 0.29688 0.74858
 H1386 H 0.60607 0.28157 0.71842
 H1387 H 0.56368 0.32758 0.71992
 H1388 H 0.56109 0.28398 0.67573
 H1389 H 0.57513 0.25334 0.70434
 H1390 H 0.53270 0.29951 0.70566
 C1391 C 0.57571 0.76759 0.20787
 C1392 C 0.56843 0.78210 0.19005
 C1393 C 0.58281 0.79941 0.19834
 C1394 C 0.59023 0.78506 0.21597
 C1395 C 0.56511 0.80807 0.21194
 C1396 C 0.55049 0.79057 0.20389
 C1397 C 0.55798 0.77618 0.22155
 C1398 C 0.57241 0.79356 0.22972
 H1399 H 0.57995 0.75081 0.20627
 H1400 H 0.56691 0.77751 0.17359
 H1401 H 0.60671 0.78289 0.22086
 H1402 H 0.56094 0.82487 0.21353
 H1403 H 0.53411 0.79294 0.19879
 H1404 H 0.57395 0.79818 0.24618
 C1405 C 1.07183 0.29239 0.22839
 C1406 C 1.08960 0.28420 0.21440
 C1407 C 1.08186 0.29863 0.19697
 C1408 C 1.06420 0.30698 0.21081
 C1409 C 1.06759 0.28125 0.18865
 C1410 C 1.07519 0.26665 0.20627
 C1411 C 1.05751 0.27493 0.22018
 C1412 C 1.04970 0.28940 0.20273
 H1413 H 1.07350 0.29686 0.24487
 H1414 H 1.10616 0.28220 0.21910
 H1415 H 1.05986 0.32371 0.21260
 H1416 H 1.06597 0.27681 0.17216
 H1417 H 1.07962 0.24993 0.20449
 H1418 H 1.03326 0.29164 0.19779
 C1419 C 1.04981 0.79054 0.70361
 C1420 C 1.06478 0.80768 0.71179
 C1421 C 1.08208 0.79923 0.69758
 C1422 C 1.06735 0.78229 0.68917
 C1423 C 1.08977 0.78435 0.71466
 C1424 C 1.07234 0.79264 0.72902
 C1425 C 1.05758 0.77562 0.72072
 C1426 C 1.07490 0.76724 0.70644
 H1427 H 1.03336 0.79321 0.69894
 H1428 H 1.06081 0.82447 0.71390
 H1429 H 1.06542 0.77816 0.67262
 H1430 H 1.10633 0.78191 0.71911
 H1431 H 1.07431 0.79681 0.74556
 H1432 H 1.07893 0.75047 0.70432
 C1433 C 0.42612 0.73015 0.70809
 C1434 C 0.43403 0.71426 0.69185
 C1435 C 0.41795 0.69832 0.69987
 C1436 C 0.40992 0.71406 0.71596
 C1437 C 0.43385 0.68948 0.71542
 C1438 C 0.45015 0.70564 0.70760
 C1439 C 0.44204 0.72142 0.72373
 C1440 C 0.42594 0.70542 0.73167
 H1441 H 0.42300 0.74700 0.70516
 H1442 H 0.43722 0.71778 0.67533
 H1443 H 0.39323 0.71740 0.71927
 H1444 H 0.43691 0.67260 0.71828
 H1445 H 0.46672 0.70206 0.70401
 H1446 H 0.42274 0.70186 0.74818
 C1447 C 0.42683 0.20648 0.22995
 C1448 C 0.41005 0.21493 0.21494
 C1449 C 0.41800 0.19969 0.19834
 C1450 C 0.43465 0.19107 0.21319
 C1451 C 0.43334 0.21625 0.19008
 C1452 C 0.42552 0.23164 0.20686
 C1453 C 0.44220 0.22310 0.22178
 C1454 C 0.45021 0.20783 0.20515
 H1455 H 0.42423 0.20255 0.24648
 H1456 H 0.39339 0.21773 0.21884
 H1457 H 0.43825 0.17424 0.21568
 H1458 H 0.43588 0.22015 0.17353
 H1459 H 0.42187 0.24846 0.20435
 H1460 H 0.46674 0.20476 0.20096
 C1461 C -0.07324 0.73064 0.20750
 C1462 C -0.06544 0.71416 0.19178
 C1463 C -0.08207 0.69885 0.19988
 C1464 C -0.09000 0.71518 0.21543
 C1465 C -0.06669 0.68999 0.21591
 C1466 C -0.04985 0.70552 0.20802
 C1467 C -0.05785 0.72188 0.22362
 C1468 C -0.07449 0.70650 0.23164
 H1469 H -0.07586 0.74750 0.20413
 H1470 H -0.06188 0.71721 0.17524
 H1471 H -0.10666 0.71902 0.21834
 H1472 H -0.06411 0.67311 0.21923
 H1473 H -0.03331 0.70143 0.20483
 H1474 H -0.07808 0.70344 0.24817
 C1475 C -0.07394 0.20580 0.73139
 C1476 C -0.08897 0.21454 0.71480
 C1477 C -0.08088 0.19799 0.69954
 C1478 C -0.06598 0.18907 0.71597
 C1479 C -0.06392 0.21305 0.69168
 C1480 C -0.07187 0.22973 0.70711
 C1481 C -0.05696 0.22091 0.72362
 C1482 C -0.04879 0.20435 0.70832
 H1483 H -0.07792 0.20292 0.74787
 H1484 H -0.10563 0.21865 0.71731
 H1485 H -0.06368 0.17219 0.71943
 H1486 H -0.06000 0.21593 0.67519
 H1487 H -0.07417 0.24661 0.70359
 H1488 H -0.03224 0.20004 0.70549
 C1489 C 0.26824 0.42548 0.29231
 C1490 C 0.28470 0.40973 0.28428
 C1491 C 0.30001 0.41755 0.30080
 C1492 C 0.28370 0.43315 0.30900
 C1493 C 0.30872 0.43411 0.28581
 C1494 C 0.29322 0.42643 0.26912
 C1495 C 0.27687 0.44207 0.27723
 C1496 C 0.29220 0.44994 0.29380
 H1497 H 0.25145 0.42201 0.29489
 H1498 H 0.28171 0.39306 0.28050
 H1499 H 0.27987 0.43576 0.32554
 H1500 H 0.32553 0.43750 0.28328
 H1501 H 0.29705 0.42378 0.25258
 H1502 H 0.29540 0.46650 0.29787
 C1503 C 0.27042 -0.07281 0.79245
 C1504 C 0.28554 -0.08984 0.78440
 C1505 C 0.30212 -0.08207 0.79968
 C1506 C 0.28716 -0.06519 0.80792
 C1507 C 0.31091 -0.06678 0.78346
 C1508 C 0.29412 -0.07439 0.76800
 C1509 C 0.27907 -0.05749 0.77613
 C1510 C 0.29569 -0.04967 0.79146
 H1511 H 0.25363 -0.07518 0.79605
 H1512 H 0.28144 -0.10648 0.78158
 H1513 H 0.28439 -0.06157 0.82447
 H1514 H 0.32770 -0.06440 0.77989
 H1515 H 0.29688 -0.07800 0.75144
 H1516 H 0.29998 -0.03313 0.79451
 C1517 C 0.76978 0.42684 0.79205
 C1518 C 0.78575 0.41060 0.78403
 C1519 C 0.80156 0.41858 0.79998
 C1520 C 0.78576 0.43467 0.80819
 C1521 C 0.81025 0.43458 0.78440
 C1522 C 0.79421 0.42676 0.76826
 C1523 C 0.77833 0.44288 0.77637
 C1524 C 0.79419 0.45090 0.79238
 H1525 H 0.75299 0.42377 0.79509
 H1526 H 0.78235 0.39389 0.78073
 H1527 H 0.78236 0.43779 0.82473
 H1528 H 0.82705 0.43762 0.78141
 H1529 H 0.79759 0.42366 0.75172
 H1530 H 0.79778 0.46750 0.79594
 C1531 C 0.79037 -0.04965 0.29604
 C1532 C 0.78237 -0.06726 0.31060
 C1533 C 0.79956 -0.08180 0.30224
 C1534 C 0.80777 -0.06442 0.28794
 C1535 C 0.78496 -0.08988 0.28524
 C1536 C 0.76758 -0.07517 0.29338
 C1537 C 0.77571 -0.05775 0.27899
 C1538 C 0.79298 -0.07234 0.27076
 H1539 H 0.79273 -0.03310 0.30065
 H1540 H 0.77811 -0.06524 0.32712
 H1541 H 0.82444 -0.06015 0.28579
 H1542 H 0.78288 -0.10656 0.28092
 H1543 H 0.75092 -0.07948 0.29550
 H1544 H 0.79723 -0.07434 0.25424
 C1545 C 0.26665 0.57561 0.70767
 C1546 C 0.28435 0.58990 0.71568
 C1547 C 0.29845 0.58218 0.69803
 C1548 C 0.28092 0.56803 0.68983
 C1549 C 0.30685 0.56431 0.71166
 C1550 C 0.29259 0.57192 0.72946
 C1551 C 0.27499 0.55773 0.72139
 C1552 C 0.28912 0.54994 0.70370
 H1553 H 0.24999 0.58015 0.70612
 H1554 H 0.28251 0.60648 0.72048
 H1555 H 0.27625 0.56653 0.67338
 H1556 H 0.32354 0.55985 0.71319
 H1557 H 0.29731 0.57345 0.74589
 H1558 H 0.29122 0.53348 0.69863
 C1559 C 0.28920 1.05039 0.20377
 C1560 C 0.28110 1.06855 0.18993
 C1561 C 0.29872 1.08258 0.19815
 C1562 C 0.30701 1.06465 0.21174
 C1563 C 0.28466 1.09036 0.21581
 C1564 C 0.26688 1.07618 0.20779
 C1565 C 0.27511 1.05823 0.22147
 C1566 C 0.29280 1.07230 0.22956
 H1567 H 0.29119 1.03392 0.19866
 H1568 H 0.27640 1.06710 0.17349
 H1569 H 0.32367 1.06007 0.21326
 H1570 H 0.28291 1.10694 0.22064
 H1571 H 0.25024 1.08081 0.20625
 H1572 H 0.29754 1.07377 0.24599
 C1573 C 0.76823 0.57530 0.20856
 C1574 C 0.78536 0.59025 0.21657
 C1575 C 0.79999 0.58244 0.19938
 C1576 C 0.78302 0.56763 0.19122
 C1577 C 0.80857 0.56515 0.21363
 C1578 C 0.79374 0.57283 0.23099
 C1579 C 0.77673 0.55800 0.22290
 C1580 C 0.79138 0.55013 0.20568
 H1581 H 0.75149 0.57938 0.20655
 H1582 H 0.78297 0.60689 0.22091
 H1583 H 0.77870 0.56562 0.17473
 H1584 H 0.82533 0.56115 0.21557
 H1585 H 0.79806 0.57483 0.24748
 H1586 H 0.79397 0.53360 0.20105
 C1587 C 0.76763 1.07515 0.70881
 C1588 C 0.78422 1.09068 0.71685
 C1589 C 0.79922 1.08325 0.69982
 C1590 C 0.78279 1.06786 0.69161
 C1591 C 0.80821 1.06631 0.71424
 C1592 C 0.79303 1.07362 0.73144
 C1593 C 0.77655 1.05820 0.72333
 C1594 C 0.79157 1.05070 0.70625
 H1595 H 0.75079 1.07867 0.70666
 H1596 H 0.78123 1.10726 0.72107
 H1597 H 0.77866 1.06563 0.67510
 H1598 H 0.82507 1.06286 0.71632
 H1599 H 0.79718 1.07588 0.74793
 H1600 H 0.79471 1.03422 0.70178
 C1601 C 0.72981 0.57403 0.29177
 C1602 C 0.71327 0.58985 0.28402
 C1603 C 0.69810 0.58183 0.30067
 C1604 C 0.71449 0.56614 0.30859
 C1605 C 0.68928 0.56544 0.28569
 C1606 C 0.70464 0.57333 0.26886
 C1607 C 0.72108 0.55761 0.27669
 C1608 C 0.70588 0.54953 0.29339
 H1609 H 0.74662 0.57747 0.29418
 H1610 H 0.71624 0.60657 0.28030
 H1611 H 0.71847 0.56333 0.32506
 H1612 H 0.67245 0.56207 0.28335
 H1613 H 0.70067 0.57617 0.25239
 H1614 H 0.70275 0.53291 0.29740
 C1615 C 0.70543 1.04874 0.79341
 C1616 C 0.71399 1.06470 0.80931
 C1617 C 0.69807 1.08090 0.80149
 C1618 C 0.68927 1.06517 0.78583
 C1619 C 0.71373 1.08920 0.78543
 C1620 C 0.72981 1.07284 0.79306
 C1621 C 0.72113 1.05708 0.77730
 C1622 C 0.70514 1.07331 0.76959
 H1623 H 0.70189 1.03207 0.79683
 H1624 H 0.71753 1.06130 0.82578
 H1625 H 0.67245 1.06214 0.78301
 H1626 H 0.71705 1.10597 0.78229
 H1627 H 0.74662 1.07591 0.79590
 H1628 H 0.70160 1.07674 0.75313
 C1629 C 0.23242 0.57474 0.79376
 C1630 C 0.21533 0.58978 0.78565
 C1631 C 0.20058 0.58203 0.80279
 C1632 C 0.21751 0.56712 0.81109
 C1633 C 0.19204 0.56480 0.78859
 C1634 C 0.20694 0.57244 0.77130
 C1635 C 0.22395 0.55750 0.77948
 C1636 C 0.20917 0.54966 0.79665
 H1637 H 0.24916 0.57870 0.79580
 H1638 H 0.21776 0.60641 0.78121
 H1639 H 0.22173 0.56505 0.82761
 H1640 H 0.17528 0.56088 0.78657
 H1641 H 0.20267 0.57453 0.75480
 H1642 H 0.20653 0.53313 0.80130
 C1643 C 0.20954 1.05018 0.29697
 C1644 C 0.21776 1.06783 0.31124
 C1645 C 0.20061 1.08248 0.30294
 C1646 C 0.19219 1.06506 0.28890
 C1647 C 0.21518 1.09028 0.28567
 C1648 C 0.23249 1.07550 0.29378
 C1649 C 0.22414 1.05806 0.27967
 C1650 C 0.20691 1.07275 0.27148
 H1651 H 0.20712 1.03365 0.30175
 H1652 H 0.22209 1.06591 0.32775
 H1653 H 0.17547 1.06093 0.28698
 H1654 H 0.21738 1.10691 0.28111
 H1655 H 0.24919 1.07969 0.29571
 H1656 H 0.20255 1.07469 0.25498
 C1657 C 0.70615 0.42619 0.73206
 C1658 C 0.68964 0.43404 0.71636
 C1659 C 0.69850 0.41873 0.70026
 C1660 C 0.71481 0.41074 0.71579
 C1661 C 0.71372 0.43549 0.69223
 C1662 C 0.70508 0.45102 0.70853
 C1663 C 0.72142 0.44296 0.72410
 C1664 C 0.73018 0.42762 0.70792
 H1665 H 0.70312 0.42250 0.74857
 H1666 H 0.67281 0.43654 0.71968
 H1667 H 0.71871 0.39403 0.71865
 H1668 H 0.71674 0.43913 0.67571
 H1669 H 0.70094 0.46761 0.70541
 H1670 H 0.74700 0.42507 0.70456
 C1671 C 0.70988 -0.04960 0.20402
 C1672 C 0.71800 -0.06755 0.19002
 C1673 C 0.70056 -0.08180 0.19839
 C1674 C 0.69225 -0.06408 0.21216
 C1675 C 0.71484 -0.08966 0.21583
 C1676 C 0.73243 -0.07528 0.20764
 C1677 C 0.72420 -0.05754 0.22149
 C1678 C 0.70670 -0.07181 0.22976
 H1679 H 0.70774 -0.03310 0.19902
 H1680 H 0.72253 -0.06589 0.17352
 H1681 H 0.67557 -0.05966 0.21392
 H1682 H 0.71676 -0.10627 0.22059
 H1683 H 0.74910 -0.07975 0.20587
 H1684 H 0.70216 -0.07346 0.24626
 C1685 C 0.22975 0.42591 0.20879
 C1686 C 0.21321 0.41020 0.21671
 C1687 C 0.19803 0.41820 0.20009
 C1688 C 0.21443 0.43378 0.19201
 C1689 C 0.18925 0.43470 0.21503
 C1690 C 0.20462 0.42684 0.23182
 C1691 C 0.22107 0.44244 0.22382
 C1692 C 0.20586 0.45050 0.20716
 H1693 H 0.24656 0.42239 0.20631
 H1694 H 0.21615 0.39349 0.22051
 H1695 H 0.21838 0.43650 0.17551
 H1696 H 0.17243 0.43816 0.21744
 H1697 H 0.20069 0.42412 0.24833
 H1698 H 0.20273 0.46710 0.20307
 C1699 C 0.20575 -0.04922 0.70838
 C1700 C 0.21420 -0.06517 0.69237
 C1701 C 0.19869 -0.08155 0.70060
 C1702 C 0.19001 -0.06583 0.71641
 C1703 C 0.21482 -0.08953 0.71632
 C1704 C 0.23048 -0.07302 0.70824
 C1705 C 0.22191 -0.05726 0.72414
 C1706 C 0.20635 -0.07367 0.73231
 H1707 H 0.20189 -0.03262 0.70498
 H1708 H 0.21735 -0.06181 0.67581
 H1709 H 0.17321 -0.06303 0.71963
 H1710 H 0.21845 -0.10625 0.71945
 H1711 H 0.24726 -0.07591 0.70497
 H1712 H 0.20321 -0.07708 0.74886
 C1713 C 0.29387 0.26786 0.42646
 C1714 C 0.28544 0.28492 0.41164
 C1715 C 0.30222 0.30007 0.41958
 C1716 C 0.31085 0.28317 0.43425
 C1717 C 0.28739 0.30815 0.43648
 C1718 C 0.27046 0.29283 0.42868
 C1719 C 0.27899 0.27587 0.44339
 C1720 C 0.29581 0.29106 0.45138
 H1721 H 0.29645 0.25115 0.42247
 H1722 H 0.28127 0.28253 0.39517
 H1723 H 0.32762 0.27934 0.43641
 H1724 H 0.28481 0.32486 0.44041
 H1725 H 0.25369 0.29668 0.42647
 H1726 H 0.30024 0.29373 0.46773
 C1727 C 0.29395 0.76776 -0.07549
 C1728 C 0.28544 0.78534 -0.08967
 C1729 C 0.30310 0.79976 -0.08230
 C1730 C 0.31179 0.78234 -0.06826
 C1731 C 0.28934 0.80805 -0.06462
 C1732 C 0.27154 0.79347 -0.07188
 C1733 C 0.28011 0.77598 -0.05780
 C1734 C 0.29780 0.79043 -0.05034
 H1735 H 0.29577 0.75105 -0.07984
 H1736 H 0.28044 0.78334 -0.10596
 H1737 H 0.32850 0.77790 -0.06689
 H1738 H 0.28752 0.82478 -0.06034
 H1739 H 0.25484 0.79796 -0.07328
 H1740 H 0.30300 0.79264 -0.03415
 C1741 C 0.79284 0.27038 -0.07306
 C1742 C 0.78474 0.28549 -0.08995
 C1743 C 0.80004 0.30225 -0.08223
 C1744 C 0.80830 0.28729 -0.06547
 C1745 C 0.78346 0.31091 -0.06728
 C1746 C 0.76800 0.29396 -0.07486
 C1747 C 0.77620 0.27895 -0.05806
 C1748 C 0.79153 0.29574 -0.05030
 H1749 H 0.79659 0.25357 -0.07537
 H1750 H 0.78207 0.28137 -0.10640
 H1751 H 0.82501 0.28461 -0.06176
 H1752 H 0.77972 0.32773 -0.06503
 H1753 H 0.75130 0.29663 -0.07864
 H1754 H 0.79445 0.30011 -0.03397
 C1755 C 0.79345 0.77025 0.42795
 C1756 C 0.78550 0.78537 0.41099
 C1757 C 0.80073 0.80211 0.41889
 C1758 C 0.80883 0.78715 0.43571
 C1759 C 0.78400 0.81076 0.43368
 C1760 C 0.76862 0.79383 0.42593
 C1761 C 0.77666 0.77881 0.44277
 C1762 C 0.79192 0.79559 0.45072
 H1763 H 0.79720 0.75343 0.42566
 H1764 H 0.78300 0.78128 0.39451
 H1765 H 0.82551 0.78448 0.43956
 H1766 H 0.78025 0.82758 0.43592
 H1767 H 0.75195 0.79650 0.42201
 H1768 H 0.79469 0.79996 0.46707
 C1769 C 0.73098 0.29278 0.57355
 C1770 C 0.71461 0.30893 0.56600
 C1771 C 0.69918 0.30054 0.58225
 C1772 C 0.71539 0.28457 0.58995
 C1773 C 0.69048 0.28459 0.56674
 C1774 C 0.70611 0.29277 0.55026
 C1775 C 0.72236 0.27676 0.55800
 C1776 C 0.70687 0.26845 0.57430
 H1777 H 0.74777 0.29606 0.57627
 H1778 H 0.71769 0.32572 0.56275
 H1779 H 0.71911 0.28131 0.60640
 H1780 H 0.67368 0.28133 0.56410
 H1781 H 0.70212 0.29632 0.53394
 H1782 H 0.70377 0.25168 0.57763
 C1783 C 0.73191 0.79402 1.07366
 C1784 C 0.71688 0.81116 1.06547
 C1785 C 0.69981 0.80289 1.08010
 C1786 C 0.71468 0.78594 1.08843
 C1787 C 0.69176 0.78794 1.06335
 C1788 C 0.70901 0.79600 1.04850
 C1789 C 0.72391 0.77901 1.05687
 C1790 C 0.70678 0.77084 1.07155
 H1791 H 0.74855 0.79643 1.07780
 H1792 H 0.72089 0.82791 1.06310
 H1793 H 0.71685 0.78194 1.10500
 H1794 H 0.67511 0.78555 1.05928
 H1795 H 0.70652 0.80033 1.03206
 H1796 H 0.70273 0.75412 1.07401
 C1797 C 0.20921 0.29656 1.04874
 C1798 C 0.19210 0.28841 1.06370
 C1799 C 0.20019 0.30340 1.08040
 C1800 C 0.21711 0.31176 1.06566
 C1801 C 0.21518 0.28652 1.08863
 C1802 C 0.20725 0.27139 1.07180
 C1803 C 0.22424 0.27965 1.05701
 C1804 C 0.23228 0.29468 1.07374
 H1805 H 0.20657 0.30088 1.03232
 H1806 H 0.17543 0.28592 1.05972
 H1807 H 0.22101 0.32853 1.06327
 H1808 H 0.21749 0.28250 1.10518
 H1809 H 0.20330 0.25464 1.07425
 H1810 H 0.24894 0.29716 1.07777
 C1811 C 0.23253 0.79487 0.57310
 C1812 C 0.21657 0.81134 0.56529
 C1813 C 0.20052 0.80288 0.58092
 C1814 C 0.21631 0.78660 0.58887
 C1815 C 0.19215 0.78728 0.56490
 C1816 C 0.20839 0.79553 0.54905
 C1817 C 0.22422 0.77922 0.55704
 C1818 C 0.20809 0.77086 0.57271
 H1819 H 0.24926 0.79789 0.57637
 H1820 H 0.21991 0.82815 0.56238
 H1821 H 0.21943 0.78303 0.60538
 H1822 H 0.17541 0.78425 0.56168
 H1823 H 0.20495 0.79934 0.53265
 H1824 H 0.20469 0.75408 0.57571
 C1825 C 0.26814 0.70688 0.57442
 C1826 C 0.28303 0.68933 0.56690
 C1827 C 0.30010 0.69792 0.58125
 C1828 C 0.28538 0.71528 0.58891
 C1829 C 0.30837 0.71223 0.56395
 C1830 C 0.29111 0.70388 0.54937
 C1831 C 0.27636 0.72127 0.55710
 C1832 C 0.29349 0.72974 0.57149
 H1833 H 0.25145 0.70477 0.57861
 H1834 H 0.27885 0.67257 0.56513
 H1835 H 0.28311 0.71985 0.60531
 H1836 H 0.32508 0.71432 0.55982
 H1837 H 0.29360 0.69905 0.53309
 H1838 H 0.29772 0.74649 0.57330
 C1839 C 0.28983 0.20307 1.04941
 C1840 C 0.30754 0.21135 1.06349
 C1841 C 0.29946 0.19737 1.08115
 C1842 C 0.28194 0.18886 1.06729
 C1843 C 0.28515 0.21504 1.08891
 C1844 C 0.29309 0.22916 1.07114
 C1845 C 0.27550 0.22077 1.05724
 C1846 C 0.26747 0.20672 1.07491
 H1847 H 0.29189 0.19799 1.03314
 H1848 H 0.32417 0.21315 1.05896
 H1849 H 0.27751 0.17213 1.06581
 H1850 H 0.28334 0.21988 1.10528
 H1851 H 0.29759 0.24587 1.07262
 H1852 H 0.25086 0.20490 1.07948
 C1853 C 0.76749 0.70653 1.07536
 C1854 C 0.78197 0.68861 1.06789
 C1855 C 0.79950 0.69728 1.08162
 C1856 C 0.78520 0.71501 1.08923
 C1857 C 0.80753 0.71108 1.06381
 C1858 C 0.78980 0.70264 1.04984
 C1859 C 0.77547 0.72040 1.05753
 C1860 C 0.79307 0.72896 1.07130
 H1861 H 0.75089 0.70474 1.08000
 H1862 H 0.77752 0.67187 1.06658
 H1863 H 0.78342 0.72000 1.10557
 H1864 H 0.82415 0.71287 1.05922
 H1865 H 0.79182 0.69740 1.03362
 H1866 H 0.79755 0.74569 1.07263
 C1867 C 0.79308 0.20508 0.54996
 C1868 C 0.80965 0.21349 0.56528
 C1869 C 0.80121 0.19850 0.58196
 C1870 C 0.78486 0.18986 0.56686
 C1871 C 0.78581 0.21529 0.58956
 C1872 C 0.79407 0.23042 0.57277
 C1873 C 0.77765 0.22190 0.55765
 C1874 C 0.76930 0.20682 0.57434
 H1875 H 0.79621 0.20077 0.53363
 H1876 H 0.82641 0.21613 0.56172
 H1877 H 0.78118 0.17305 0.56455
 H1878 H 0.78289 0.21938 0.60598
 H1879 H 0.79779 0.24723 0.57512
 H1880 H 0.75256 0.20416 0.57799
 C1881 C 0.73255 0.70596 0.42630
 C1882 C 0.71727 0.68895 0.43426
 C1883 C 0.70044 0.69755 0.41957
 C1884 C 0.71556 0.71437 0.41147
 C1885 C 0.69237 0.71248 0.43639
 C1886 C 0.70938 0.70408 0.45130
 C1887 C 0.72454 0.72093 0.44315
 C1888 C 0.70765 0.72944 0.42842
 H1889 H 0.74921 0.70336 0.42226
 H1890 H 0.72108 0.67213 0.43652
 H1891 H 0.71797 0.71851 0.39496
 H1892 H 0.67570 0.71509 0.44038
 H1893 H 0.70670 0.69968 0.46769
 H1894 H 0.70380 0.74624 0.42609
 C1895 C 0.73207 0.20609 -0.07405
 C1896 C 0.71629 0.18942 -0.06637
 C1897 C 0.70010 0.19803 -0.08175
 C1898 C 0.71573 0.21452 -0.08955
 C1899 C 0.69166 0.21331 -0.06541
 C1900 C 0.70806 0.20492 -0.04981
 C1901 C 0.72373 0.22143 -0.05769
 C1902 C 0.70746 0.22995 -0.07309
 H1903 H 0.74882 0.20318 -0.07749
 H1904 H 0.71978 0.17258 -0.06376
 H1905 H 0.71878 0.21840 -0.10602
 H1906 H 0.67491 0.21620 -0.06202
 H1907 H 0.70478 0.20082 -0.03344
 H1908 H 0.70392 0.24676 -0.07576
 C1909 C 0.20663 0.73270 -0.07385
 C1910 C 0.21474 0.71566 -0.08881
 C1911 C 0.19798 0.70057 -0.08056
 C1912 C 0.18967 0.71744 -0.06575
 C1913 C 0.21301 0.69233 -0.06392
 C1914 C 0.22992 0.70758 -0.07204
 C1915 C 0.22172 0.72451 -0.05718
 C1916 C 0.20492 0.70938 -0.04889
 H1917 H 0.20409 0.74943 -0.07784
 H1918 H 0.21866 0.71810 -0.10537
 H1919 H 0.17296 0.72135 -0.06330
 H1920 H 0.21555 0.67558 -0.05999
 H1921 H 0.24662 0.70362 -0.07457
 H1922 H 0.20070 0.70664 -0.03246
 C1923 C 0.20596 0.23220 0.42703
 C1924 C 0.21415 0.21519 0.41208
 C1925 C 0.19736 0.20008 0.42023
 C1926 C 0.18897 0.21692 0.43502
 C1927 C 0.21231 0.19181 0.43692
 C1928 C 0.22925 0.20708 0.42891
 C1929 C 0.22096 0.22398 0.44375
 C1930 C 0.20414 0.20884 0.45194
 H1931 H 0.20344 0.24895 0.42307
 H1932 H 0.21816 0.21767 0.39555
 H1933 H 0.17224 0.22084 0.43739
 H1934 H 0.21484 0.17506 0.44082
 H1935 H 0.24596 0.20315 0.42646
 H1936 H 0.19983 0.20609 0.46835
 C1937 C 0.29395 0.45031 0.70768
 C1938 C 0.31021 0.43417 0.71565
 C1939 C 0.30153 0.41796 0.70039
 C1940 C 0.28550 0.43388 0.69221
 C1941 C 0.28591 0.41003 0.71666
 C1942 C 0.29439 0.42637 0.73210
 C1943 C 0.27830 0.44231 0.72399
 C1944 C 0.26974 0.42607 0.70864
 H1945 H 0.29736 0.46692 0.70384
 H1946 H 0.32702 0.43734 0.71838
 H1947 H 0.28193 0.43683 0.67567
 H1948 H 0.28269 0.39332 0.72024
 H1949 H 0.29795 0.42340 0.74864
 H1950 H 0.25295 0.42283 0.70583
 C1951 C 0.29461 0.95137 0.20827
 C1952 C 0.31015 0.93444 0.21604
 C1953 C 0.30154 0.91917 0.19982
 C1954 C 0.28623 0.93589 0.19185
 C1955 C 0.28518 0.91098 0.21525
 C1956 C 0.29359 0.92639 0.23164
 C1957 C 0.27822 0.94312 0.22373
 C1958 C 0.26972 0.92783 0.20743
 H1959 H 0.29864 0.96800 0.20524
 H1960 H 0.32693 0.93701 0.21943
 H1961 H 0.28329 0.93962 0.17533
 H1962 H 0.28139 0.89424 0.21801
 H1963 H 0.29653 0.92262 0.24814
 H1964 H 0.25295 0.92520 0.20399
 C1965 C 0.79190 0.42756 0.22861
 C1966 C 0.78354 0.41022 0.21424
 C1967 C 0.79831 0.41798 0.19712
 C1968 C 0.80683 0.43521 0.21134
 C1969 C 0.78140 0.43288 0.18879
 C1970 C 0.76647 0.42525 0.20610
 C1971 C 0.77490 0.44249 0.22039
 C1972 C 0.78971 0.45034 0.20325
 H1973 H 0.79614 0.42547 0.24512
 H1974 H 0.78112 0.39359 0.21868
 H1975 H 0.82358 0.43912 0.21340
 H1976 H 0.77722 0.43494 0.17227
 H1977 H 0.74973 0.42128 0.20404
 H1978 H 0.79237 0.46687 0.19862
 C1979 C 0.78958 0.95032 0.70343
 C1980 C 0.80700 0.93548 0.71140
 C1981 C 0.79851 0.91803 0.69743
 C1982 C 0.78130 0.93265 0.68922
 C1983 C 0.78408 0.91021 0.71481
 C1984 C 0.79241 0.92777 0.72892
 C1985 C 0.77512 0.94241 0.72083
 C1986 C 0.76670 0.92496 0.70678
 H1987 H 0.79196 0.96685 0.69862
 H1988 H 0.82373 0.93961 0.71320
 H1989 H 0.77686 0.93452 0.67274
 H1990 H 0.78191 0.89359 0.71940
 H1991 H 0.79689 0.92588 0.74539
 H1992 H 0.74998 0.92078 0.70498
 C1993 C 0.70693 0.57279 0.72951
 C1994 C 0.71523 0.59061 0.71555
 C1995 C 0.70096 0.58292 0.69808
 C1996 C 0.69250 0.56523 0.71189
 C1997 C 0.71834 0.56854 0.68982
 C1998 C 0.73277 0.57609 0.70748
 C1999 C 0.72437 0.55838 0.72136
 C2000 C 0.71007 0.55062 0.70386
 H2001 H 0.70234 0.57445 0.74599
 H2002 H 0.71723 0.60719 0.72027
 H2003 H 0.67579 0.56094 0.71362
 H2004 H 0.72291 0.56691 0.67334
 H2005 H 0.74947 0.58043 0.70575
 H2006 H 0.70785 0.53415 0.69891
 C2007 C 0.73139 0.07412 0.20819
 C2008 C 0.71580 0.06640 0.19165
 C2009 C 0.69972 0.08232 0.19966
 C2010 C 0.71516 0.09018 0.21604
 C2011 C 0.69082 0.06609 0.21491
 C2012 C 0.70712 0.04994 0.20710
 C2013 C 0.72258 0.05787 0.22352
 C2014 C 0.70646 0.07382 0.23146
 H2015 H 0.74822 0.07732 0.20554
 H2016 H 0.71955 0.06351 0.17514
 H2017 H 0.71837 0.10687 0.21958
 H2018 H 0.67398 0.06295 0.21751
 H2019 H 0.70369 0.03337 0.20327
 H2020 H 0.70271 0.07672 0.24796
 C2021 C 0.23143 0.57514 0.20735
 C2022 C 0.21647 0.56746 0.19019
 C2023 C 0.19953 0.58230 0.19855
 C2024 C 0.21433 0.59012 0.21552
 C2025 C 0.19111 0.56506 0.21292
 C2026 C 0.20825 0.54999 0.20479
 C2027 C 0.22309 0.55787 0.22179
 C2028 C 0.20608 0.57274 0.23005
 H2029 H 0.24815 0.57917 0.20514
 H2030 H 0.22063 0.56539 0.17366
 H2031 H 0.21671 0.60676 0.21982
 H2032 H 0.17438 0.56110 0.21510
 H2033 H 0.20562 0.53346 0.20022
 H2034 H 0.20191 0.57482 0.24658
 C2035 C 0.20747 0.07192 0.72909
 C2036 C 0.21543 0.09023 0.71557
 C2037 C 0.20151 0.08256 0.69782
 C2038 C 0.19340 0.06436 0.71119
 C2039 C 0.21933 0.06879 0.68942
 C2040 C 0.23341 0.07632 0.70736
 C2041 C 0.22534 0.05812 0.72082
 C2042 C 0.21140 0.05037 0.70303
 H2043 H 0.20268 0.07311 0.74555
 H2044 H 0.21698 0.10675 0.72065
 H2045 H 0.17679 0.05962 0.71267
 H2046 H 0.22410 0.06761 0.67296
 H2047 H 0.25000 0.08113 0.70587
 H2048 H 0.20965 0.03396 0.69771
 C2049 C 0.29064 0.54974 0.29525
 C2050 C 0.30751 0.56508 0.28705
 C2051 C 0.29907 0.58204 0.30166
 C2052 C 0.28240 0.56694 0.31009
 C2053 C 0.28398 0.58997 0.28493
 C2054 C 0.29225 0.57287 0.27016
 C2055 C 0.27551 0.55774 0.27850
 C2056 C 0.26715 0.57473 0.29318
 H2057 H 0.29353 0.53318 0.29965
 H2058 H 0.32426 0.56127 0.28463
 H2059 H 0.27850 0.56462 0.32666
 H2060 H 0.28140 0.60666 0.28080
 H2061 H 0.29621 0.57523 0.25360
 H2062 H 0.25042 0.57860 0.29561
 C2063 C 0.29028 0.05048 0.79672
 C2064 C 0.30765 0.06535 0.78869
 C2065 C 0.29887 0.08293 0.80239
 C2066 C 0.28170 0.06829 0.81066
 C2067 C 0.28454 0.09042 0.78482
 C2068 C 0.29317 0.07273 0.77098
 C2069 C 0.27592 0.05807 0.77913
 C2070 C 0.26721 0.07565 0.79291
 H2071 H 0.29274 0.03402 0.80171
 H2072 H 0.32443 0.06129 0.78703
 H2073 H 0.27709 0.06657 0.82713
 H2074 H 0.28223 0.10696 0.77998
 H2075 H 0.29782 0.07444 0.75452
 H2076 H 0.25043 0.07973 0.79457
 C2077 C 0.79243 0.57220 0.77157
 C2078 C 0.78422 0.59004 0.78546
 C2079 C 0.79838 0.58215 0.80299
 C2080 C 0.80675 0.56443 0.78924
 C2081 C 0.78088 0.56792 0.81125
 C2082 C 0.76656 0.57568 0.79353
 C2083 C 0.77486 0.55794 0.77971
 C2084 C 0.78905 0.54997 0.79727
 H2085 H 0.79709 0.57385 0.75510
 H2086 H 0.78235 0.60666 0.78069
 H2087 H 0.82343 0.55999 0.78758
 H2088 H 0.77627 0.56629 0.82773
 H2089 H 0.74988 0.58017 0.79520
 H2090 H 0.79115 0.53346 0.80226
 C2091 C 0.79436 0.07390 0.26862
 C2092 C 0.78576 0.08935 0.28492
 C2093 C 0.80194 0.08114 0.30049
 C2094 C 0.81073 0.06582 0.28436
 C2095 C 0.78654 0.06449 0.30838
 C2096 C 0.77021 0.07257 0.29265
 C2097 C 0.77890 0.05723 0.27644
 C2098 C 0.79511 0.04895 0.29205
 H2099 H 0.79749 0.07763 0.25213
 H2100 H 0.78201 0.10610 0.28212
 H2101 H 0.82755 0.06319 0.28110
 H2102 H 0.78341 0.06079 0.32487
 H2103 H 0.75340 0.07524 0.29595
 H2104 H 0.79910 0.03232 0.29513
 C2105 C 0.70641 0.42740 0.27000
 C2106 C 0.71476 0.40990 0.28432
 C2107 C 0.70014 0.41770 0.30152
 C2108 C 0.69162 0.43506 0.28735
 C2109 C 0.71719 0.43241 0.30974
 C2110 C 0.73197 0.42476 0.29235
 C2111 C 0.72352 0.44214 0.27812
 C2112 C 0.70886 0.45000 0.29535
 H2113 H 0.70208 0.42542 0.25351
 H2114 H 0.71707 0.39327 0.27990
 H2115 H 0.67487 0.43910 0.28540
 H2116 H 0.72149 0.43434 0.32624
 H2117 H 0.74870 0.42065 0.29431
 H2118 H 0.70628 0.46650 0.30004
 C2119 C 0.70688 0.92712 0.77065
 C2120 C 0.71522 0.90953 0.78487
 C2121 C 0.70059 0.91720 0.80213
 C2122 C 0.69209 0.93467 0.78806
 C2123 C 0.71765 0.93187 0.81042
 C2124 C 0.73244 0.92433 0.79298
 C2125 C 0.72400 0.94182 0.77885
 C2126 C 0.70934 0.94956 0.79613
 H2127 H 0.70254 0.92525 0.75415
 H2128 H 0.71753 0.89293 0.78033
 H2129 H 0.67535 0.93877 0.78611
 H2130 H 0.72197 0.93371 0.82693
 H2131 H 0.74917 0.92019 0.79492
 H2132 H 0.70680 0.96605 0.80092
 C2133 C 0.20544 0.42616 0.76845
 C2134 C 0.21397 0.40955 0.78370
 C2135 C 0.19842 0.41729 0.80012
 C2136 C 0.18970 0.43377 0.78504
 C2137 C 0.21450 0.43302 0.80838
 C2138 C 0.23019 0.42541 0.79181
 C2139 C 0.22157 0.44192 0.77664
 C2140 C 0.20600 0.44973 0.79309
 H2141 H 0.20181 0.42348 0.75190
 H2142 H 0.21715 0.39289 0.77996
 H2143 H 0.17289 0.43705 0.78240
 H2144 H 0.21814 0.43569 0.82493
 H2145 H 0.24699 0.42205 0.79451
 H2146 H 0.20263 0.46628 0.79710
 C2147 C 0.20515 0.92650 0.26802
 C2148 C 0.21386 0.90992 0.28321
 C2149 C 0.19835 0.91754 0.29973
 C2150 C 0.18945 0.93398 0.28471
 C2151 C 0.21438 0.93336 0.30791
 C2152 C 0.23002 0.92588 0.29125
 C2153 C 0.22122 0.94235 0.27614
 C2154 C 0.20569 0.95004 0.29270
 H2155 H 0.20143 0.92380 0.25149
 H2156 H 0.21714 0.89329 0.27943
 H2157 H 0.17260 0.93715 0.28217
 H2158 H 0.21812 0.93604 0.32445
 H2159 H 0.24685 0.92263 0.29385
 H2160 H 0.20223 0.96656 0.29672
 C2161 C 0.42468 0.26608 0.70673
 C2162 C 0.41015 0.28360 0.71484
 C2163 C 0.41780 0.29800 0.69733
 C2164 C 0.43219 0.28063 0.68903
 C2165 C 0.43541 0.30646 0.71108
 C2166 C 0.42788 0.29191 0.72873
 C2167 C 0.44230 0.27447 0.72055
 C2168 C 0.45003 0.28890 0.70301
 H2169 H 0.42037 0.24933 0.70503
 H2170 H 0.39362 0.28155 0.71961
 H2171 H 0.43384 0.27613 0.67254
 H2172 H 0.43966 0.32322 0.71278
 H2173 H 0.42619 0.29646 0.74520
 H2174 H 0.46646 0.29117 0.69801
 C2175 C 0.42755 0.76983 0.20625
 C2176 C 0.41065 0.78518 0.21408
 C2177 C 0.41859 0.80166 0.19861
 C2178 C 0.43538 0.78646 0.19061
 C2179 C 0.43380 0.81043 0.21478
 C2180 C 0.42598 0.79377 0.23041
 C2181 C 0.44278 0.77850 0.22251
 C2182 C 0.45081 0.79500 0.20700
 H2183 H 0.42509 0.75298 0.20284
 H2184 H 0.39400 0.78122 0.21689
 H2185 H 0.43907 0.78354 0.17409
 H2186 H 0.43625 0.82728 0.21816
 H2187 H 0.42225 0.79670 0.24692
 H2188 H 0.46735 0.79917 0.20395
 C2189 C 0.92640 0.26986 0.20838
 C2190 C 0.91005 0.28576 0.21632
 C2191 C 0.91785 0.30165 0.20019
 C2192 C 0.93407 0.28589 0.19210
 C2193 C 0.93372 0.31053 0.21566
 C2194 C 0.92606 0.29444 0.23196
 C2195 C 0.94230 0.27863 0.22395
 C2196 C 0.95016 0.29455 0.20778
 H2197 H 0.92346 0.25299 0.20549
 H2198 H 0.89342 0.28223 0.21969
 H2199 H 0.93722 0.28245 0.17558
 H2200 H 0.93657 0.32742 0.21849
 H2201 H 0.92288 0.29787 0.24848
 H2202 H 0.96669 0.29829 0.20414
 C2203 C 0.92607 0.76969 0.70794
 C2204 C 0.91017 0.78599 0.71598
 C2205 C 0.91807 0.80160 0.69963
 C2206 C 0.93384 0.78545 0.69144
 C2207 C 0.93433 0.81026 0.71482
 C2208 C 0.92656 0.79445 0.73134
 C2209 C 0.94236 0.77825 0.72322
 C2210 C 0.95033 0.79389 0.70684
 H2211 H 0.92274 0.75287 0.70520
 H2212 H 0.89351 0.78284 0.71960
 H2213 H 0.93669 0.78183 0.67490
 H2214 H 0.93756 0.82711 0.71750
 H2215 H 0.92368 0.79806 0.74788
 H2216 H 0.96687 0.79724 0.70293
 C2217 C 0.57411 0.26853 0.29193
 C2218 C 0.58963 0.28522 0.28394
 C2219 C 0.58185 0.30030 0.30075
 C2220 C 0.56646 0.28375 0.30890
 C2221 C 0.56517 0.30918 0.28606
 C2222 C 0.57283 0.29391 0.26908
 C2223 C 0.55741 0.27731 0.27715
 C2224 C 0.54955 0.29242 0.29400
 H2225 H 0.57769 0.25166 0.29425
 H2226 H 0.60625 0.28234 0.27991
 H2227 H 0.56398 0.27966 0.32542
 H2228 H 0.56166 0.32605 0.28377
 H2229 H 0.57532 0.29800 0.25257
 H2230 H 0.53304 0.29550 0.29828
 C2231 C 0.57163 0.79348 0.77042
 C2232 C 0.56394 0.80847 0.78760
 C2233 C 0.58120 0.80002 0.80187
 C2234 C 0.58900 0.78520 0.78484
 C2235 C 0.56645 0.78300 0.81029
 C2236 C 0.54898 0.79125 0.79581
 C2237 C 0.55686 0.77639 0.77876
 C2238 C 0.57413 0.76803 0.79310
 H2239 H 0.57365 0.79769 0.75387
 H2240 H 0.55993 0.82525 0.78543
 H2241 H 0.60559 0.78280 0.78041
 H2242 H 0.56442 0.77880 0.82684
 H2243 H 0.53249 0.79386 0.80045
 H2244 H 0.57820 0.75126 0.79528
 C2245 C 0.07525 0.26632 0.79289
 C2246 C 0.08969 0.28390 0.78472
 C2247 C 0.08175 0.29831 0.80202
 C2248 C 0.06747 0.28089 0.81039
 C2249 C 0.06419 0.30663 0.78807
 C2250 C 0.07199 0.29205 0.77061
 C2251 C 0.05767 0.27457 0.77888
 C2252 C 0.04968 0.28901 0.79622
 H2253 H 0.07968 0.24961 0.79478
 H2254 H 0.10628 0.28194 0.78010
 H2255 H 0.06573 0.27644 0.82690
 H2256 H 0.05984 0.32336 0.78619
 H2257 H 0.07375 0.29652 0.75410
 H2258 H 0.03321 0.29125 0.80112
 C2259 C 0.07505 0.76661 0.29235
 C2260 C 0.08937 0.78435 0.28432
 C2261 C 0.08162 0.79845 0.30195
 C2262 C 0.06745 0.78087 0.31018
 C2263 C 0.06389 0.80697 0.28833
 C2264 C 0.07151 0.79271 0.27054
 C2265 C 0.05730 0.77506 0.27865
 C2266 C 0.04948 0.78920 0.29632
 H2267 H 0.07951 0.74987 0.29391
 H2268 H 0.10591 0.78247 0.27948
 H2269 H 0.06589 0.77612 0.32663
 H2270 H 0.05949 0.82372 0.28677
 H2271 H 0.07310 0.79748 0.25409
 H2272 H 0.03306 0.79131 0.30141
 C2273 C 0.54953 0.70907 0.70499
 C2274 C 0.56698 0.71741 0.69050
 C2275 C 0.58181 0.70046 0.69890
 C2276 C 0.56459 0.69192 0.71318
 C2277 C 0.58948 0.71530 0.71592
 C2278 C 0.57451 0.73241 0.70769
 C2279 C 0.55727 0.72395 0.72204
 C2280 C 0.57213 0.70693 0.73036
 H2281 H 0.53308 0.70637 0.70033
 H2282 H 0.56497 0.72160 0.67395
 H2283 H 0.56071 0.67511 0.71533
 H2284 H 0.60605 0.71775 0.72032
 H2285 H 0.57847 0.74919 0.70552
 H2286 H 0.57415 0.70272 0.74690
 C2287 C 0.57315 0.20612 0.23055
 C2288 C 0.56540 0.19074 0.21378
 C2289 C 0.58188 0.19956 0.19882
 C2290 C 0.58977 0.21476 0.21542
 C2291 C 0.56635 0.21602 0.19075
 C2292 C 0.54964 0.20739 0.20592
 C2293 C 0.55758 0.22263 0.22257
 C2294 C 0.57409 0.23137 0.20753
 H2295 H 0.57584 0.20216 0.24705
 H2296 H 0.56201 0.17386 0.21621
 H2297 H 0.60642 0.21769 0.21919
 H2298 H 0.56371 0.21998 0.17424
 H2299 H 0.53312 0.20422 0.20184
 H2300 H 0.57756 0.24823 0.20507
 C2301 C 0.04927 0.71008 0.20287
 C2302 C 0.06690 0.71850 0.18860
 C2303 C 0.08152 0.70126 0.19680
 C2304 C 0.06414 0.69264 0.21083
 C2305 C 0.08922 0.71573 0.21412
 C2306 C 0.07446 0.73312 0.20611
 C2307 C 0.05706 0.72457 0.22023
 C2308 C 0.07172 0.70725 0.22830
 H2309 H 0.03281 0.70766 0.19812
 H2310 H 0.06505 0.72299 0.17211
 H2311 H 0.06007 0.67584 0.21266
 H2312 H 0.10578 0.71795 0.21866
 H2313 H 0.07858 0.74991 0.20426
 H2314 H 0.07361 0.70271 0.24477
 C2315 C 0.07248 0.20614 0.72918
 C2316 C 0.06458 0.19114 0.71215
 C2317 C 0.08155 0.19964 0.69756
 C2318 C 0.08958 0.21447 0.71444
 C2319 C 0.06662 0.21663 0.68942
 C2320 C 0.04942 0.20834 0.70423
 C2321 C 0.05752 0.22320 0.72113
 C2322 C 0.07451 0.23162 0.70648
 H2323 H 0.07478 0.20193 0.74568
 H2324 H 0.06066 0.17436 0.71438
 H2325 H 0.10623 0.21685 0.71855
 H2326 H 0.06436 0.22080 0.67290
 H2327 H 0.03289 0.20569 0.69987
 H2328 H 0.07848 0.24839 0.70425
 C2329 C 0.42661 0.70570 0.26779
 C2330 C 0.43399 0.69042 0.28494
 C2331 C 0.41719 0.69940 0.29945
 C2332 C 0.40968 0.71449 0.28247
 C2333 C 0.43258 0.71587 0.30760
 C2334 C 0.44961 0.70711 0.29288
 C2335 C 0.44203 0.72222 0.27586
 C2336 C 0.42520 0.73111 0.29047
 H2337 H 0.42425 0.70159 0.25130
 H2338 H 0.43743 0.67352 0.28282
 H2339 H 0.39311 0.71747 0.27834
 H2340 H 0.43493 0.71999 0.32409
 H2341 H 0.46606 0.70395 0.29727
 H2342 H 0.42167 0.74799 0.29266
 C2343 C 0.42863 0.20556 0.77072
 C2344 C 0.43647 0.19128 0.78847
 C2345 C 0.41868 0.19950 0.80221
 C2346 C 0.41070 0.21361 0.78462
 C2347 C 0.43265 0.21723 0.81032
 C2348 C 0.45067 0.20920 0.79637
 C2349 C 0.44263 0.22334 0.77875
 C2350 C 0.42481 0.23149 0.79255
 H2351 H 0.42707 0.20090 0.75428
 H2352 H 0.44105 0.17459 0.78687
 H2353 H 0.39413 0.21530 0.77986
 H2354 H 0.43418 0.22192 0.82676
 H2355 H 0.46713 0.20726 0.80139
 H2356 H 0.42013 0.24815 0.79413
 C2357 C 0.92662 0.70512 0.76795
 C2358 C 0.93440 0.68939 0.78453
 C2359 C 0.91806 0.69812 0.79969
 C2360 C 0.91015 0.71364 0.78328
 C2361 C 0.93375 0.71432 0.80779
 C2362 C 0.95031 0.70582 0.79243
 C2363 C 0.94234 0.72137 0.77598
 C2364 C 0.92597 0.72999 0.79123
 H2365 H 0.92381 0.70144 0.75142
 H2366 H 0.93769 0.67253 0.78193
 H2367 H 0.89349 0.71676 0.77965
 H2368 H 0.93654 0.71803 0.82431
 H2369 H 0.96685 0.70249 0.79635
 H2370 H 0.92258 0.74683 0.79389
 C2371 C 0.92544 0.20655 0.26850
 C2372 C 0.93328 0.18950 0.28371
 C2373 C 0.91847 0.19824 0.30033
 C2374 C 0.91048 0.21510 0.28529
 C2375 C 0.93557 0.21303 0.30824
 C2376 C 0.95061 0.20451 0.29142
 C2377 C 0.94257 0.22140 0.27635
 C2378 C 0.92772 0.23004 0.29304
 H2379 H 0.92140 0.20397 0.25203
 H2380 H 0.93543 0.17267 0.28001
 H2381 H 0.89385 0.21935 0.28288
 H2382 H 0.93957 0.21559 0.32473
 H2383 H 0.96713 0.20000 0.29408
 H2384 H 0.92552 0.24686 0.29677
 C2385 C 0.29307 0.27052 0.57192
 C2386 C 0.30799 0.28783 0.56404
 C2387 C 0.29958 0.30252 0.58089
 C2388 C 0.28481 0.28536 0.58891
 C2389 C 0.28260 0.31083 0.56621
 C2390 C 0.29084 0.29592 0.54913
 C2391 C 0.27604 0.27871 0.55719
 C2392 C 0.26766 0.29345 0.57407
 H2393 H 0.29727 0.25380 0.57423
 H2394 H 0.32471 0.28558 0.56006
 H2395 H 0.28247 0.28113 0.60541
 H2396 H 0.27843 0.32756 0.56399
 H2397 H 0.29345 0.30041 0.53274
 H2398 H 0.25095 0.29567 0.57811
 C2399 C 0.29176 0.79612 0.04910
 C2400 C 0.28333 0.81100 0.06612
 C2401 C 0.29986 0.80236 0.08113
 C2402 C 0.30848 0.78771 0.06434
 C2403 C 0.28470 0.78532 0.08866
 C2404 C 0.26801 0.79376 0.07351
 C2405 C 0.27657 0.77905 0.05669
 C2406 C 0.29316 0.77052 0.07174
 H2407 H 0.29477 0.80070 0.03280
 H2408 H 0.27940 0.82780 0.06397
 H2409 H 0.32527 0.78528 0.06074
 H2410 H 0.28189 0.78096 0.10505
 H2411 H 0.25123 0.79616 0.07717
 H2412 H 0.29710 0.75373 0.07397
 C2413 C 0.79484 0.26746 0.07248
 C2414 C 0.81136 0.28341 0.06481
 C2415 C 0.80271 0.29955 0.08023
 C2416 C 0.78639 0.28376 0.08804
 C2417 C 0.78737 0.30795 0.06393
 C2418 C 0.79581 0.29162 0.04829
 C2419 C 0.77945 0.27580 0.05616
 C2420 C 0.77091 0.29201 0.07162
 H2421 H 0.79783 0.25067 0.07590
 H2422 H 0.82816 0.28001 0.06217
 H2423 H 0.78260 0.28064 0.10452
 H2424 H 0.78436 0.32474 0.06057
 H2425 H 0.79981 0.29500 0.03192
 H2426 H 0.75413 0.29545 0.07435
 C2427 C 0.79581 0.79178 0.54860
 C2428 C 0.78753 0.80847 0.56393
 C2429 C 0.80272 0.80016 0.58040
 C2430 C 0.81122 0.78366 0.56530
 C2431 C 0.78619 0.78471 0.58844
 C2432 C 0.77086 0.79285 0.57184
 C2433 C 0.77926 0.77628 0.55669
 C2434 C 0.79449 0.76803 0.57319
 H2435 H 0.79992 0.79484 0.53220
 H2436 H 0.78472 0.82523 0.56029
 H2437 H 0.82799 0.78002 0.56276
 H2438 H 0.78233 0.78193 0.60496
 H2439 H 0.75411 0.79653 0.57447
 H2440 H 0.79727 0.75127 0.57689
 C2441 C 0.29648 0.70936 0.45063
 C2442 C 0.28811 0.69251 0.43557
 C2443 C 0.30280 0.70093 0.41867
 C2444 C 0.31139 0.71759 0.43349
 C2445 C 0.28584 0.71613 0.41102
 C2446 C 0.27102 0.70786 0.42804
 C2447 C 0.27950 0.72459 0.44292
 C2448 C 0.29424 0.73297 0.42599
 H2449 H 0.30097 0.70642 0.46694
 H2450 H 0.28567 0.67571 0.43933
 H2451 H 0.32814 0.72147 0.43560
 H2452 H 0.28159 0.71881 0.39459
 H2453 H 0.25429 0.70393 0.42584
 H2454 H 0.29666 0.74975 0.42216
 C2455 C 0.29577 0.20880 0.95161
 C2456 C 0.28738 0.19176 0.93677
 C2457 C 0.30215 0.19988 0.91982
 C2458 C 0.31075 0.21673 0.93444
 C2459 C 0.28531 0.21506 0.91187
 C2460 C 0.27039 0.20710 0.92896
 C2461 C 0.27891 0.22401 0.94360
 C2462 C 0.29373 0.23207 0.92662
 H2463 H 0.30026 0.20607 0.96796
 H2464 H 0.28484 0.17502 0.94072
 H2465 H 0.32752 0.22055 0.93651
 H2466 H 0.28104 0.21754 0.89541
 H2467 H 0.25362 0.20328 0.92686
 H2468 H 0.29626 0.24879 0.92261
 C2469 C 0.79631 0.70851 0.95163
 C2470 C 0.78813 0.69169 0.93643
 C2471 C 0.80315 0.70007 0.91980
 C2472 C 0.81154 0.71669 0.93477
 C2473 C 0.78640 0.71535 0.91185
 C2474 C 0.77125 0.70712 0.92861
 C2475 C 0.77953 0.72383 0.94362
 C2476 C 0.79459 0.73215 0.92697
 H2477 H 0.80053 0.70555 0.96801
 H2478 H 0.78556 0.67491 0.94015
 H2479 H 0.82828 0.72048 0.93715
 H2480 H 0.78241 0.71805 0.89536
 H2481 H 0.75453 0.70328 0.92616
 H2482 H 0.79716 0.74892 0.92320
 C2483 C 0.79236 0.20540 0.45052
 C2484 C 0.78404 0.19008 0.43389
 C2485 C 0.80008 0.19886 0.41842
 C2486 C 0.80860 0.21397 0.43482
 C2487 C 0.78436 0.21543 0.41096
 C2488 C 0.76817 0.20683 0.42657
 C2489 C 0.77661 0.22200 0.44300
 C2490 C 0.79271 0.23069 0.42749
 H2491 H 0.79580 0.20111 0.46680
 H2492 H 0.78057 0.17323 0.43636
 H2493 H 0.82538 0.21682 0.43803
 H2494 H 0.78116 0.21947 0.39456
 H2495 H 0.75140 0.20398 0.42327
 H2496 H 0.79617 0.24754 0.42495
 C2497 C 0.73033 0.29345 0.42756
 C2498 C 0.71429 0.28502 0.41181
 C2499 C 0.69826 0.30104 0.41975
 C2500 C 0.71414 0.30966 0.43535
 C2501 C 0.69005 0.28527 0.43580
 C2502 C 0.70625 0.26910 0.42800
 C2503 C 0.72220 0.27763 0.44365
 C2504 C 0.70613 0.29368 0.45163
 H2505 H 0.74704 0.29673 0.42427
 H2506 H 0.71755 0.28156 0.39531
 H2507 H 0.71728 0.32650 0.43821
 H2508 H 0.67333 0.28201 0.43901
 H2509 H 0.70312 0.25227 0.42507
 H2510 H 0.70262 0.29742 0.46801
 C2511 C 0.72910 0.79249 0.92895
 C2512 C 0.71441 0.78444 0.91181
 C2513 C 0.69722 0.79916 0.91983
 C2514 C 0.71176 0.80737 0.93685
 C2515 C 0.68890 0.78196 0.93433
 C2516 C 0.70628 0.76706 0.92646
 C2517 C 0.72088 0.77522 0.94350
 C2518 C 0.70366 0.78998 0.95157
 H2519 H 0.74578 0.79671 0.92682
 H2520 H 0.71873 0.78227 0.89532
 H2521 H 0.71393 0.82409 0.94095
 H2522 H 0.67221 0.77775 0.93642
 H2523 H 0.70413 0.75035 0.92231
 H2524 H 0.69905 0.79242 0.96793
 C2525 C 0.20475 0.29203 0.95141
 C2526 C 0.21302 0.30868 0.93596
 C2527 C 0.19776 0.30044 0.91960
 C2528 C 0.18928 0.28397 0.93483
 C2529 C 0.21422 0.28490 0.91159
 C2530 C 0.22964 0.29298 0.92809
 C2531 C 0.22125 0.27645 0.94337
 C2532 C 0.20594 0.26827 0.92697
 H2533 H 0.20069 0.29512 0.96781
 H2534 H 0.21584 0.32544 0.93948
 H2535 H 0.17252 0.28040 0.93747
 H2536 H 0.21800 0.28211 0.89507
 H2537 H 0.24638 0.29657 0.92538
 H2538 H 0.20312 0.25152 0.92337
 C2539 C 0.23016 0.79317 0.42751
 C2540 C 0.21447 0.78499 0.41132
 C2541 C 0.19824 0.80078 0.41930
 C2542 C 0.21377 0.80913 0.43536
 C2543 C 0.18981 0.78461 0.43488
 C2544 C 0.20624 0.76866 0.42703
 C2545 C 0.22182 0.77694 0.44312
 C2546 C 0.20556 0.79277 0.45115
 H2547 H 0.24690 0.79658 0.42456
 H2548 H 0.21803 0.78190 0.39480
 H2549 H 0.21679 0.82591 0.43859
 H2550 H 0.17306 0.78123 0.43776
 H2551 H 0.20323 0.75188 0.42373
 H2552 H 0.20175 0.79614 0.46755
 C2553 C 0.70428 0.70941 0.54860
 C2554 C 0.71245 0.69237 0.56368
 C2555 C 0.69740 0.70056 0.58033
 C2556 C 0.68903 0.71742 0.56548
 C2557 C 0.71412 0.71570 0.58844
 C2558 C 0.72931 0.70767 0.57165
 C2559 C 0.72104 0.72458 0.55674
 C2560 C 0.70595 0.73272 0.57343
 H2561 H 0.70004 0.70665 0.53221
 H2562 H 0.71504 0.67563 0.55985
 H2563 H 0.67229 0.72127 0.56310
 H2564 H 0.71805 0.71814 0.60496
 H2565 H 0.74603 0.70378 0.57411
 H2566 H 0.70337 0.74945 0.57733
 C2567 C 0.70677 0.23165 0.07288
 C2568 C 0.69005 0.21598 0.06523
 C2569 C 0.69860 0.19954 0.08046
 C2570 C 0.71512 0.21505 0.08825
 C2571 C 0.71376 0.19118 0.06398
 C2572 C 0.70543 0.20781 0.04853
 C2573 C 0.72199 0.22336 0.05637
 C2574 C 0.73044 0.20685 0.07164
 H2575 H 0.70397 0.24842 0.07643
 H2576 H 0.67328 0.21959 0.06273
 H2577 H 0.71902 0.21791 0.10472
 H2578 H 0.71657 0.17440 0.06050
 H2579 H 0.70130 0.20468 0.03218
 H2580 H 0.74720 0.20321 0.07420
 C2581 C 0.20996 0.70386 0.04819
 C2582 C 0.21766 0.68909 0.06570
 C2583 C 0.20051 0.69783 0.07994
 C2584 C 0.19261 0.71237 0.06267
 C2585 C 0.21534 0.71492 0.08785
 C2586 C 0.23266 0.70638 0.07346
 C2587 C 0.22482 0.72098 0.05616
 C2588 C 0.20760 0.72960 0.07045
 H2589 H 0.20761 0.69917 0.03186
 H2590 H 0.22165 0.67228 0.06387
 H2591 H 0.17598 0.71474 0.05842
 H2592 H 0.21743 0.71937 0.10429
 H2593 H 0.24926 0.70400 0.07778
 H2594 H 0.20356 0.74640 0.07234
 C2595 C 0.21113 0.20185 0.54952
 C2596 C 0.21884 0.18780 0.56761
 C2597 C 0.20125 0.19660 0.58128
 C2598 C 0.19334 0.21041 0.56343
 C2599 C 0.21556 0.21427 0.58888
 C2600 C 0.23331 0.20568 0.57507
 C2601 C 0.22545 0.21956 0.55722
 C2602 C 0.20779 0.22821 0.57094
 H2603 H 0.20922 0.19660 0.53329
 H2604 H 0.22323 0.17103 0.56637
 H2605 H 0.17675 0.21226 0.55883
 H2606 H 0.21726 0.21931 0.60521
 H2607 H 0.24989 0.20383 0.57974
 H2608 H 0.20333 0.24497 0.57222
   
