data_POSCAR
  _audit_creation_date              2014-09-24
  _audit_creation_method            'ToBaCCo'
  _symmetry_space_group_name_H-M    'P1'
  _symmetry_Int_Tables_number       1
  _symmetry_cell_setting            triclinic
  loop_
  _symmetry_equiv_pos_as_xyz
 x,y,z
_cell_length_a 52.6392
_cell_length_b 52.6301
_cell_length_c 38.0790
_cell_angle_alpha 90.046600
_cell_angle_beta 90.019800
_cell_angle_gamma 89.994300
loop_
  _atom_site_label
  _atom_site_type_symbol
  _atom_site_fract_x
  _atom_site_fract_y
  _atom_site_fract_z
Zr1 Zr -0.04481 0.00222 -0.00247
 O2 O -0.07348 -0.01751 -0.03044
 O3 O -0.06636 0.02516 0.03135
 O4 O -0.06574 -0.02222 0.03053
 O5 O -0.03528 0.04775 -0.06673
 O6 O -0.03532 -0.04503 0.05935
 O7 O -0.06569 0.02652 -0.03562
 O8 O -0.03635 0.04553 0.06423
 O9 O -0.02363 0.00079 0.04403
 O10 O -0.02311 0.03547 -0.00121
 O11 O -0.02317 -0.03126 -0.00606
 O12 O -0.02345 0.00213 -0.04943
 Zr13 Zr 0.04381 0.00090 -0.00422
 Zr14 Zr -0.00062 -0.03148 0.03924
 Zr15 Zr -0.00048 0.03464 -0.04606
 Zr16 Zr -0.00106 0.03336 0.04391
 O17 O 0.00057 0.03273 -0.10155
 O18 O -0.00078 0.02552 0.09852
 O19 O 0.02238 0.03474 -0.00082
 O20 O 0.02214 0.00108 0.04221
 O21 O 0.02238 -0.03258 -0.00557
 O22 O 0.02229 0.00236 -0.05035
 C23 C -0.05952 0.04067 0.05569
 C24 C -0.05857 0.04271 -0.05897
 C25 C -0.05859 -0.03940 0.05249
 O26 O 0.00120 -0.02965 0.09469
 O27 O 0.03401 -0.04732 0.05611
 O28 O 0.06459 -0.02514 0.02669
 C29 C 0.05731 -0.04244 0.04841
 O30 O -0.03384 -0.04326 -0.07517
 Zr31 Zr 0.00002 -0.03021 -0.05066
 O32 O 0.06535 -0.02242 -0.03752
 O33 O -0.00244 -0.07138 0.03283
 O34 O -0.00116 -0.07022 -0.04423
 O35 O 0.00224 -0.02407 -0.10561
 O36 O 0.03527 -0.04497 -0.06744
 C37 C 0.05845 -0.03961 -0.05957
 O38 O 0.07245 0.01949 0.02524
 O39 O -0.00148 0.07460 -0.03997
 O40 O 0.06477 0.02685 -0.03505
 O41 O 0.03426 0.05062 -0.06224
 O42 O -0.00233 0.07350 0.03943
 O43 O 0.03278 0.04965 0.06446
 C44 C 0.05756 0.04500 -0.05547
 H45 H -0.03351 0.05114 -0.00092
 H46 H 0.03320 0.00078 0.06324
 H47 H 0.03288 0.00315 -0.07180
 H48 H -0.03424 -0.04644 -0.00730
 H49 H -0.00541 0.04144 0.11089
 H50 H 0.00038 -0.04738 0.10335
 H51 H -0.00171 -0.07891 0.05666
 H52 H 0.00336 -0.07799 -0.06710
 H53 H -0.00652 0.08044 0.06294
 H54 H -0.00207 0.08196 -0.06391
 H55 H 0.00118 0.05048 -0.11016
 H56 H 0.00647 -0.04057 -0.11671
 H57 H 0.02859 0.06025 0.08515
 H58 H 0.08908 0.01343 0.01625
 H59 H -0.09012 -0.01137 -0.02160
 H60 H -0.02968 -0.05704 -0.09193
 Zr61 Zr 0.54380 0.50090 0.49582
 O62 O 0.57240 0.51961 0.52519
 O63 O 0.56537 0.47744 0.46274
 O64 O 0.56454 0.47498 0.52698
 O65 O 0.53435 0.55037 0.43735
 O66 O 0.53392 0.45294 0.55654
 O67 O 0.56481 0.52669 0.46482
 O68 O 0.53532 0.45480 0.43290
 O69 O 0.52236 0.46742 0.49469
 O70 O 0.52233 0.50217 0.44963
 O71 O 0.52207 0.50128 0.54220
 O72 O 0.52238 0.53476 0.49889
 Zr73 Zr 0.45518 0.50225 0.49735
 Zr74 Zr 0.49932 0.46871 0.53944
 Zr75 Zr 0.49958 0.53448 0.45359
 Zr76 Zr 0.50006 0.46961 0.44953
 O77 O 0.49858 0.57446 0.45937
 O78 O 0.49888 0.42963 0.45629
 O79 O 0.47660 0.50195 0.45044
 O80 O 0.47681 0.46874 0.49408
 O81 O 0.47631 0.50101 0.54391
 O82 O 0.47688 0.53551 0.49839
 C83 C 0.55849 0.46020 0.44078
 C84 C 0.55764 0.54475 0.44422
 C85 C 0.55723 0.45779 0.54884
 O86 O 0.49749 0.42878 0.53335
 O87 O 0.46458 0.45525 0.55957
 O88 O 0.43421 0.47796 0.53049
 C89 C 0.44132 0.46087 0.55261
 O90 O 0.53271 0.54996 0.56403
 Zr91 Zr 0.49889 0.53357 0.54357
 O92 O 0.43359 0.52533 0.53094
 O93 O 0.50105 0.47079 0.59487
 O94 O 0.49913 0.52599 0.59825
 O95 O 0.49759 0.57370 0.53876
 O96 O 0.46358 0.54581 0.56375
 C97 C 0.44041 0.54091 0.55521
 O98 O 0.42654 0.48241 0.46948
 O99 O 0.50070 0.53235 0.39812
 O100 O 0.43435 0.52639 0.46392
 O101 O 0.46479 0.54749 0.43271
 O102 O 0.50232 0.47551 0.39453
 O103 O 0.46622 0.45644 0.42507
 C104 C 0.44150 0.54246 0.44044
 H105 H 0.53295 0.50287 0.42820
 H106 H 0.46574 0.45356 0.49294
 H107 H 0.46648 0.55118 0.49853
 H108 H 0.53311 0.50107 0.56325
 H109 H 0.50344 0.42176 0.43349
 H110 H 0.49819 0.42136 0.55724
 H111 H 0.50022 0.45309 0.60368
 H112 H 0.49450 0.54196 0.61047
 H113 H 0.50655 0.45896 0.38357
 H114 H 0.50132 0.55006 0.38938
 H115 H 0.49801 0.58172 0.43538
 H116 H 0.49339 0.58073 0.56221
 H117 H 0.47039 0.44258 0.40846
 H118 H 0.40989 0.48859 0.47824
 H119 H 0.58904 0.51350 0.51630
 H120 H 0.52851 0.56067 0.58461
 Zr121 Zr 0.54476 -0.00244 0.49864
 O122 O 0.57361 0.01714 0.47092
 O123 O 0.56611 -0.02556 0.53250
 O124 O 0.56569 0.02201 0.53177
 O125 O 0.53515 -0.04788 0.43411
 O126 O 0.53526 0.04491 0.56046
 O127 O 0.56559 -0.02681 0.46545
 O128 O 0.53591 -0.04587 0.56505
 O129 O 0.52346 -0.00093 0.54502
 O130 O 0.52289 -0.03559 0.49964
 O131 O 0.52324 0.03112 0.49501
 O132 O 0.52348 -0.00222 0.45156
 Zr133 Zr 0.45607 -0.00071 0.49636
 Zr134 Zr 0.50056 0.03144 0.54018
 Zr135 Zr 0.50035 -0.03462 0.45467
 Zr136 Zr 0.50073 -0.03340 0.54464
 O137 O 0.49944 -0.03266 0.39919
 O138 O 0.50043 -0.02557 0.59927
 O139 O 0.47738 -0.03463 0.49979
 O140 O 0.47766 -0.00103 0.54290
 O141 O 0.47768 0.03266 0.49525
 O142 O 0.47771 -0.00225 0.45035
 C143 C 0.55914 -0.04112 0.55668
 C144 C 0.55845 -0.04294 0.44198
 C145 C 0.55854 0.03925 0.55369
 O146 O 0.49864 0.02956 0.59561
 O147 O 0.46597 0.04743 0.55695
 O148 O 0.43534 0.02543 0.52728
 C149 C 0.44266 0.04268 0.54911
 O150 O 0.53410 0.04312 0.42598
 Zr151 Zr 0.50013 0.03021 0.45028
 O152 O 0.43473 0.02277 0.46301
 O153 O 0.50254 0.07133 0.53389
 O154 O 0.50153 0.07021 0.45684
 O155 O 0.49800 0.02407 0.39531
 O156 O 0.46500 0.04520 0.43338
 C157 C 0.44177 0.03996 0.44109
 O158 O 0.42726 -0.01917 0.52558
 O159 O 0.50118 -0.07459 0.46062
 O160 O 0.43509 -0.02661 0.46533
 O161 O 0.46559 -0.05049 0.43827
 O162 O 0.50173 -0.07355 0.53997
 O163 O 0.46678 -0.04951 0.56506
 C164 C 0.44228 -0.04480 0.44492
 H165 H 0.53320 -0.05131 0.49992
 H166 H 0.46655 -0.00069 0.56388
 H167 H 0.46716 -0.00298 0.42885
 H168 H 0.53436 0.04626 0.49386
 H169 H 0.50496 -0.04150 0.61162
 H170 H 0.49951 0.04728 0.60435
 H171 H 0.50178 0.07885 0.55774
 H172 H 0.49710 0.07802 0.43397
 H173 H 0.50585 -0.08055 0.56345
 H174 H 0.50181 -0.08194 0.43667
 H175 H 0.49876 -0.05040 0.39050
 H176 H 0.49385 0.04060 0.38422
 H177 H 0.47090 -0.06014 0.58574
 H178 H 0.41069 -0.01302 0.51650
 H179 H 0.59019 0.01091 0.47986
 H180 H 0.53004 0.05689 0.40919
 Zr181 Zr -0.04401 0.49934 -0.00689
 O182 O -0.07290 0.48092 0.02224
 O183 O -0.06531 0.52297 -0.04011
 O184 O -0.06469 0.52543 0.02418
 O185 O -0.03463 0.44960 -0.06501
 O186 O -0.03400 0.54735 0.05386
 O187 O -0.06504 0.47348 -0.03792
 O188 O -0.03503 0.54540 -0.06957
 O189 O -0.02234 0.53267 -0.00792
 O190 O -0.02242 0.49781 -0.05292
 O191 O -0.02242 0.49892 0.03965
 O192 O -0.02278 0.46537 -0.00354
 Zr193 Zr 0.04465 0.49741 -0.00465
 Zr194 Zr 0.00056 0.53134 0.03699
 Zr195 Zr 0.00018 0.46540 -0.04866
 Zr196 Zr 0.00008 0.53022 -0.05291
 O197 O 0.00091 0.42541 -0.04288
 O198 O 0.00167 0.57021 -0.04633
 O199 O 0.02338 0.49774 -0.05173
 O200 O 0.02321 0.53102 -0.00820
 O201 O 0.02337 0.49891 0.04175
 O202 O 0.02271 0.46431 -0.00370
 C203 C -0.05834 0.54032 -0.06189
 C204 C -0.05799 0.45522 -0.05839
 C205 C -0.05733 0.54263 0.04607
 O206 O 0.00260 0.57123 0.03077
 O207 O 0.03529 0.54471 0.05727
 O208 O 0.06567 0.52178 0.02851
 C209 C 0.05856 0.53901 0.05048
 O210 O -0.03341 0.45043 0.06168
 Zr211 Zr 0.00057 0.46650 0.04131
 O212 O 0.06597 0.47423 0.02918
 O213 O -0.00134 0.52941 0.09242
 O214 O 0.00028 0.47426 0.09596
 O215 O 0.00150 0.42635 0.03655
 O216 O 0.03573 0.45395 0.06169
 C217 C 0.05896 0.45866 0.05333
 O218 O 0.07355 0.51692 -0.03238
 O219 O -0.00074 0.46745 -0.10413
 O220 O 0.06541 0.47296 -0.03783
 O221 O 0.03496 0.45205 -0.06920
 O222 O -0.00221 0.52416 -0.10789
 O223 O 0.03407 0.54302 -0.07729
 C224 C 0.05833 0.45677 -0.06132
 H225 H -0.03300 0.49713 -0.07440
 H226 H 0.03437 0.54614 -0.00933
 H227 H 0.03298 0.44856 -0.00345
 H228 H -0.03352 0.49925 0.06063
 H229 H -0.00276 0.57805 -0.06917
 H230 H 0.00186 0.57873 0.05463
 H231 H -0.00042 0.54712 0.10119
 H232 H 0.00478 0.45830 0.10827
 H233 H -0.00635 0.54071 -0.11890
 H234 H -0.00147 0.44973 -0.11287
 H235 H 0.00152 0.41811 -0.06687
 H236 H 0.00560 0.41931 0.06001
 H237 H 0.03002 0.55677 -0.09412
 H238 H 0.09011 0.51063 -0.02347
 H239 H -0.08944 0.48712 0.01315
 H240 H -0.02932 0.43976 0.08233
 Zr241 Zr 0.04500 0.50219 0.50239
 O242 O 0.07371 0.48235 0.53008
 O243 O 0.06651 0.52533 0.46881
 O244 O 0.06593 0.47792 0.46911
 O245 O 0.03546 0.54735 0.56723
 O246 O 0.03552 0.45524 0.44004
 O247 O 0.06586 0.52631 0.53582
 O248 O 0.03645 0.54583 0.43621
 O249 O 0.02380 0.50097 0.45589
 O250 O 0.02327 0.53543 0.50155
 O251 O 0.02340 0.46867 0.50561
 O252 O 0.02367 0.50183 0.54937
 Zr253 Zr -0.04360 0.50077 0.50422
 Zr254 Zr 0.00082 0.46865 0.46033
 Zr255 Zr 0.00066 0.53434 0.54642
 Zr256 Zr 0.00119 0.53352 0.45644
 O257 O -0.00037 0.53215 0.60188
 O258 O 0.00087 0.52597 0.40173
 O259 O -0.02222 0.53464 0.50120
 O260 O -0.02197 0.50121 0.45777
 O261 O -0.02214 0.46730 0.50516
 O262 O -0.02206 0.50201 0.55035
 C263 C 0.05963 0.54094 0.44465
 C264 C 0.05874 0.54236 0.55939
 C265 C 0.05879 0.46084 0.44697
 O266 O -0.00102 0.47078 0.40491
 O267 O -0.03379 0.45287 0.44331
 O268 O -0.06437 0.47485 0.47307
 C269 C -0.05709 0.45768 0.45113
 O270 O 0.03413 0.45631 0.57454
 Zr271 Zr 0.00024 0.46946 0.55024
 O272 O -0.06510 0.47727 0.53730
 O273 O 0.00270 0.42872 0.46625
 O274 O 0.00145 0.42949 0.54333
 O275 O -0.00193 0.47533 0.60527
 O276 O -0.03499 0.45461 0.56692
 C277 C -0.05817 0.46000 0.55916
 O278 O -0.07228 0.51946 0.47500
 O279 O 0.00163 0.57433 0.54081
 O280 O -0.06457 0.52652 0.53534
 O281 O -0.03410 0.55021 0.56280
 O282 O 0.00243 0.57364 0.46140
 O283 O -0.03269 0.54988 0.43614
 C284 C -0.05739 0.54458 0.55596
 H285 H 0.03365 0.55111 0.50144
 H286 H -0.03305 0.50100 0.43675
 H287 H -0.03264 0.50269 0.57182
 H288 H 0.03449 0.45349 0.50666
 H289 H 0.00547 0.54196 0.38955
 H290 H -0.00019 0.45309 0.39603
 H291 H 0.00195 0.42132 0.44233
 H292 H -0.00306 0.42160 0.56611
 H293 H 0.00658 0.58070 0.43797
 H294 H 0.00222 0.58156 0.56484
 H295 H -0.00100 0.54986 0.61070
 H296 H -0.00614 0.45877 0.61618
 H297 H -0.02853 0.56060 0.41557
 H298 H -0.08889 0.51334 0.48393
 H299 H 0.09034 0.48855 0.52129
 H300 H 0.02999 0.44244 0.59114
 Zr301 Zr 0.45645 0.00068 0.00418
 O302 O 0.42780 0.01938 -0.02509
 O303 O 0.43492 -0.02289 0.03712
 O304 O 0.43576 -0.02522 -0.02709
 O305 O 0.46581 0.05007 0.06289
 O306 O 0.46640 -0.04714 -0.05682
 O307 O 0.43540 0.02639 0.03528
 O308 O 0.46501 -0.04556 0.06678
 O309 O 0.47795 -0.03277 0.00511
 O310 O 0.47790 0.00189 0.05038
 O311 O 0.47816 0.00119 -0.04221
 O312 O 0.47781 0.03457 0.00130
 Zr313 Zr 0.54505 0.00219 0.00262
 Zr314 Zr 0.50098 -0.03135 -0.03965
 Zr315 Zr 0.50061 0.03424 0.04660
 Zr316 Zr 0.50024 -0.03063 0.05027
 O317 O 0.50155 0.07424 0.04110
 O318 O 0.50153 -0.07059 0.04329
 O319 O 0.52365 0.00176 0.04954
 O320 O 0.52348 -0.03136 0.00571
 O321 O 0.52394 0.00100 -0.04395
 O322 O 0.52328 0.03540 0.00180
 C323 C 0.44183 -0.04019 0.05894
 C324 C 0.44253 0.04444 0.05595
 C325 C 0.44309 -0.04236 -0.04904
 O326 O 0.50286 -0.07129 -0.03381
 O327 O 0.53573 -0.04476 -0.05979
 O328 O 0.56606 -0.02204 -0.03061
 C329 C 0.55899 -0.03914 -0.05276
 O330 O 0.46743 0.04984 -0.06382
 Zr331 Zr 0.50129 0.03352 -0.04339
 O332 O 0.56659 0.02543 -0.03079
 O333 O 0.49926 -0.02916 -0.09507
 O334 O 0.50113 0.02603 -0.09811
 O335 O 0.50242 0.07365 -0.03834
 O336 O 0.53657 0.04596 -0.06341
 C337 C 0.55974 0.04111 -0.05488
 O338 O 0.57374 -0.01765 0.03035
 O339 O 0.49948 0.03198 0.10205
 O340 O 0.56583 0.02627 0.03619
 O341 O 0.53536 0.04727 0.06755
 O342 O 0.49795 -0.02483 0.10531
 O343 O 0.53411 -0.04376 0.07467
 C344 C 0.55866 0.04229 0.05976
 H345 H 0.46728 0.00253 0.07181
 H346 H 0.53458 -0.04652 0.00678
 H347 H 0.53364 0.05110 0.00177
 H348 H 0.46712 0.00100 -0.06326
 H349 H 0.49700 -0.07852 0.06605
 H350 H 0.50216 -0.07866 -0.05775
 H351 H 0.50012 -0.04683 -0.10398
 H352 H 0.50573 0.04203 -0.11024
 H353 H 0.49375 -0.04141 0.11616
 H354 H 0.49882 0.04968 0.11091
 H355 H 0.50209 0.08145 0.06514
 H356 H 0.50660 0.08075 -0.06174
 H357 H 0.52997 -0.05765 0.09123
 H358 H 0.59038 -0.01141 0.02163
 H359 H 0.41118 0.01323 -0.01623
 H360 H 0.47162 0.06057 -0.08437
 Zr361 Zr 0.45513 0.49776 0.00272
 O362 O 0.42654 0.51751 0.03080
 O363 O 0.43349 0.47492 -0.03112
 O364 O 0.43420 0.52227 -0.03019
 O365 O 0.46466 0.45208 0.06680
 O366 O 0.46461 0.54506 -0.05903
 O367 O 0.43426 0.47344 0.03581
 O368 O 0.46341 0.45453 -0.06411
 O369 O 0.47625 0.49923 -0.04382
 O370 O 0.47678 0.46448 0.00133
 O371 O 0.47681 0.53122 0.00634
 O372 O 0.47654 0.49776 0.04965
 Zr373 Zr 0.54374 0.49896 0.00431
 Zr374 Zr 0.49932 0.53146 -0.03900
 Zr375 Zr 0.49947 0.46522 0.04616
 Zr376 Zr 0.49877 0.46662 -0.04382
 O377 O 0.50056 0.46706 0.10164
 O378 O 0.49897 0.47454 -0.09841
 O379 O 0.52226 0.46516 0.00087
 O380 O 0.52201 0.49886 -0.04209
 O381 O 0.52235 0.53247 0.00579
 O382 O 0.52228 0.49747 0.05047
 C383 C 0.44026 0.45943 -0.05551
 C384 C 0.44137 0.45718 0.05908
 C385 C 0.44134 0.53945 -0.05213
 O386 O 0.50108 0.52970 -0.09445
 O387 O 0.53395 0.54730 -0.05585
 O388 O 0.56453 0.52501 -0.02653
 C389 C 0.55726 0.54237 -0.04818
 O390 O 0.46623 0.54311 0.07550
 Zr391 Zr 0.50005 0.53007 0.05090
 O392 O 0.56535 0.52223 0.03761
 O393 O 0.49752 0.57136 -0.03249
 O394 O 0.49888 0.57008 0.04460
 O395 O 0.50237 0.52387 0.10584
 O396 O 0.53534 0.54478 0.06763
 C397 C 0.55850 0.53940 0.05969
 O398 O 0.57230 0.48034 -0.02523
 O399 O 0.49845 0.42527 0.03996
 O400 O 0.56471 0.47299 0.03508
 O401 O 0.53422 0.44920 0.06227
 O402 O 0.49745 0.42647 -0.03946
 O403 O 0.53255 0.45031 -0.06447
 C404 C 0.55752 0.45483 0.05548
 H405 H 0.46636 0.44882 0.00101
 H406 H 0.53305 0.49918 -0.06313
 H407 H 0.53290 0.49665 0.07191
 H408 H 0.46576 0.54641 0.00764
 H409 H 0.49430 0.45865 -0.11081
 H410 H 0.50026 0.54745 -0.10307
 H411 H 0.49824 0.57891 -0.05630
 H412 H 0.50344 0.57782 0.06749
 H413 H 0.49322 0.41958 -0.06298
 H414 H 0.49788 0.41788 0.06388
 H415 H 0.50116 0.44930 0.11021
 H416 H 0.50662 0.54036 0.11696
 H417 H 0.52833 0.43976 -0.08521
 H418 H 0.58895 0.48637 -0.01628
 H419 H 0.40988 0.51141 0.02197
 H420 H 0.47042 0.55686 0.09231
 Zr421 Zr 0.04374 -0.00084 0.50443
 O422 O 0.07238 -0.01940 0.47497
 O423 O 0.06528 0.02256 0.53766
 O424 O 0.06445 0.02522 0.47346
 O425 O 0.03437 -0.05052 0.56255
 O426 O 0.03379 0.04732 0.44404
 O427 O 0.06479 -0.02670 0.53527
 O428 O 0.03519 0.04508 0.56758
 O429 O 0.02225 0.03260 0.50577
 O430 O 0.02229 -0.00230 0.55060
 O431 O 0.02202 -0.00111 0.45803
 O432 O 0.02237 -0.03471 0.50113
 Zr433 Zr -0.04487 -0.00233 0.50283
 Zr434 Zr -0.00078 0.03142 0.46099
 Zr435 Zr -0.00043 -0.03463 0.54641
 Zr436 Zr -0.00005 0.03023 0.55089
 O437 O -0.00134 -0.07460 0.54039
 O438 O -0.00134 0.07022 0.54442
 O439 O -0.02346 -0.00215 0.54976
 O440 O -0.02329 0.03119 0.50633
 O441 O -0.02375 -0.00089 0.45629
 O442 O -0.02311 -0.03555 0.50158
 C443 C 0.05837 0.03976 0.55968
 C444 C 0.05764 -0.04485 0.55572
 C445 C 0.05711 0.04249 0.45172
 O446 O -0.00269 0.07132 0.46734
 O447 O -0.03553 0.04489 0.44093
 O448 O -0.06588 0.02206 0.46984
 C449 C -0.05878 0.03923 0.44785
 O450 O 0.03273 -0.04967 0.43586
 Zr451 Zr -0.00112 -0.03342 0.45643
 O452 O -0.06642 -0.02534 0.46907
 O453 O 0.00096 0.02954 0.40555
 O454 O -0.00094 -0.02563 0.40181
 O455 O -0.00229 -0.07357 0.46097
 O456 O -0.03641 -0.04569 0.43619
 C457 C -0.05958 -0.04087 0.44475
 O458 O -0.07354 0.01736 0.53081
 O459 O 0.00068 -0.03266 0.60189
 O460 O -0.06567 -0.02664 0.53605
 O461 O -0.03519 -0.04781 0.56714
 O462 O 0.00227 0.02413 0.60585
 O463 O -0.03390 0.04323 0.57543
 C464 C -0.05849 -0.04281 0.55941
 H465 H 0.03291 -0.00305 0.57203
 H466 H -0.03439 0.04635 0.50756
 H467 H -0.03347 -0.05124 0.50133
 H468 H 0.03306 -0.00080 0.43699
 H469 H 0.00320 0.07802 0.56727
 H470 H -0.00200 0.07883 0.44350
 H471 H 0.00009 0.04726 0.39685
 H472 H -0.00554 -0.04157 0.38947
 H473 H 0.00648 0.04066 0.61692
 H474 H 0.00134 -0.05040 0.61053
 H475 H -0.00189 -0.08193 0.56434
 H476 H -0.00649 -0.08053 0.43748
 H477 H -0.02975 0.05701 0.59219
 H478 H -0.09018 0.01119 0.52199
 H479 H 0.08901 -0.01330 0.48391
 H480 H 0.02854 -0.06028 0.41517
 Zr481 Zr 0.75227 0.20513 0.25292
 O482 O 0.73251 0.17649 0.28085
 O483 O 0.77532 0.18351 0.21932
 O484 O 0.72795 0.18408 0.21987
 O485 O 0.79761 0.21487 0.31745
 O486 O 0.70516 0.21439 0.19080
 O487 O 0.77647 0.18437 0.28631
 O488 O 0.79570 0.21347 0.18644
 O489 O 0.75091 0.22618 0.20634
 O490 O 0.78549 0.22686 0.25178
 O491 O 0.71875 0.22672 0.25624
 O492 O 0.75204 0.22660 0.29981
 Zr493 Zr 0.75080 0.29374 0.25435
 Zr494 Zr 0.71860 0.24916 0.21087
 Zr495 Zr 0.78452 0.24961 0.29655
 Zr496 Zr 0.78344 0.24880 0.20658
 O497 O 0.78250 0.25082 0.35202
 O498 O 0.77574 0.24894 0.15192
 O499 O 0.78468 0.27235 0.25123
 O500 O 0.75113 0.27196 0.20800
 O501 O 0.71736 0.27226 0.25560
 O502 O 0.75220 0.27234 0.30057
 C503 C 0.79086 0.19031 0.19503
 C504 C 0.79259 0.19156 0.30975
 C505 C 0.71081 0.19114 0.19779
 O506 O 0.72056 0.25084 0.15543
 O507 O 0.70274 0.28372 0.19379
 O508 O 0.72479 0.31441 0.22327
 C509 C 0.70755 0.30705 0.20147
 O510 O 0.70660 0.21620 0.32530
 Zr511 Zr 0.71967 0.25003 0.30077
 O512 O 0.72741 0.31534 0.28749
 O513 O 0.67869 0.24728 0.21704
 O514 O 0.67969 0.24879 0.29411
 O515 O 0.72569 0.25237 0.35575
 O516 O 0.70486 0.28530 0.31739
 C517 C 0.71021 0.30847 0.30949
 O518 O 0.76940 0.32234 0.22489
 O519 O 0.82449 0.24863 0.29070
 O520 O 0.77664 0.31482 0.28522
 O521 O 0.80041 0.28443 0.31267
 O522 O 0.82357 0.24759 0.21129
 O523 O 0.79973 0.28262 0.18603
 C524 C 0.79476 0.30770 0.30576
 H525 H 0.80117 0.21648 0.25162
 H526 H 0.75085 0.28297 0.18693
 H527 H 0.75293 0.28299 0.32199
 H528 H 0.70359 0.21563 0.25744
 H529 H 0.79169 0.24430 0.13966
 H530 H 0.70285 0.24996 0.14666
 H531 H 0.67122 0.24794 0.19316
 H532 H 0.67186 0.25337 0.31692
 H533 H 0.83056 0.24336 0.18784
 H534 H 0.83179 0.24812 0.31468
 H535 H 0.80023 0.25148 0.36073
 H536 H 0.70916 0.25660 0.36675
 H537 H 0.81038 0.27840 0.16541
 H538 H 0.76329 0.33898 0.23379
 H539 H 0.73870 0.15984 0.27210
 H540 H 0.69277 0.22039 0.34196
 Zr541 Zr 0.74821 0.79455 0.75341
 O542 O 0.76806 0.82336 0.78095
 O543 O 0.72486 0.81598 0.71993
 O544 O 0.77236 0.81549 0.72000
 O545 O 0.70327 0.78501 0.81849
 O546 O 0.79502 0.78507 0.69091
 O547 O 0.72415 0.81541 0.78690
 O548 O 0.70425 0.78582 0.68758
 O549 O 0.74931 0.77329 0.70694
 O550 O 0.71503 0.77273 0.75281
 O551 O 0.78178 0.77300 0.75653
 O552 O 0.74879 0.77327 0.80044
 Zr553 Zr 0.74983 0.70591 0.75544
 Zr554 Zr 0.78169 0.75037 0.71129
 Zr555 Zr 0.71633 0.75019 0.79772
 Zr556 Zr 0.71682 0.75061 0.70772
 O557 O 0.71876 0.74924 0.85317
 O558 O 0.72421 0.75032 0.65298
 O559 O 0.71592 0.72725 0.75254
 O560 O 0.74917 0.72750 0.70895
 O561 O 0.78324 0.72746 0.75615
 O562 O 0.74870 0.72749 0.80154
 C563 C 0.70910 0.80904 0.69595
 C564 C 0.70817 0.80830 0.81053
 C565 C 0.78941 0.80835 0.69783
 O566 O 0.77937 0.74846 0.65588
 O567 O 0.79748 0.71576 0.69425
 O568 O 0.77568 0.68516 0.72416
 C569 C 0.79276 0.69246 0.70213
 O570 O 0.79431 0.78382 0.82546
 Zr571 Zr 0.78119 0.74987 0.80121
 O572 O 0.77355 0.68448 0.78838
 O573 O 0.82163 0.75231 0.71702
 O574 O 0.82113 0.75126 0.79413
 O575 O 0.77551 0.74766 0.85626
 O576 O 0.79631 0.71469 0.81773
 C577 C 0.79096 0.69147 0.81002
 O578 O 0.73112 0.67713 0.72637
 O579 O 0.67632 0.75108 0.79238
 O580 O 0.72415 0.68493 0.78667
 O581 O 0.70053 0.71543 0.81419
 O582 O 0.67672 0.75167 0.71292
 O583 O 0.70051 0.71667 0.68748
 C584 C 0.70612 0.69213 0.80731
 H585 H 0.69932 0.78307 0.75276
 H586 H 0.74934 0.71640 0.68795
 H587 H 0.74812 0.71692 0.82301
 H588 H 0.79693 0.78412 0.75750
 H589 H 0.70818 0.75487 0.64087
 H590 H 0.79702 0.74932 0.64691
 H591 H 0.82895 0.75154 0.69306
 H592 H 0.82912 0.74680 0.81688
 H593 H 0.66955 0.75579 0.68953
 H594 H 0.66918 0.75170 0.81644
 H595 H 0.70110 0.74858 0.86210
 H596 H 0.79212 0.74348 0.86709
 H597 H 0.68973 0.72080 0.66693
 H598 H 0.73731 0.66054 0.73531
 H599 H 0.76179 0.83996 0.77216
 H600 H 0.80819 0.77972 0.84207
 Zr601 Zr 0.25143 0.29554 0.74735
 O602 O 0.23174 0.32414 0.71923
 O603 O 0.27430 0.31720 0.78117
 O604 O 0.22680 0.31651 0.78017
 O605 O 0.29712 0.28590 0.68327
 O606 O 0.20398 0.28609 0.80894
 O607 O 0.27577 0.31637 0.71420
 O608 O 0.29465 0.28727 0.81416
 O609 O 0.24992 0.27446 0.79390
 O610 O 0.28470 0.27387 0.74877
 O611 O 0.21800 0.27382 0.74368
 O612 O 0.25148 0.27405 0.70045
 Zr613 Zr 0.25028 0.20687 0.74582
 Zr614 Zr 0.21771 0.25136 0.78904
 Zr615 Zr 0.28401 0.25112 0.70398
 Zr616 Zr 0.28253 0.25191 0.79394
 O617 O 0.28222 0.24997 0.64849
 O618 O 0.27456 0.25179 0.84852
 O619 O 0.28405 0.22837 0.74929
 O620 O 0.25031 0.22866 0.79219
 O621 O 0.21677 0.22826 0.74429
 O622 O 0.25179 0.22829 0.69964
 C623 C 0.28980 0.31042 0.80553
 C624 C 0.29203 0.30921 0.69094
 C625 C 0.20954 0.30937 0.80204
 O626 O 0.21943 0.24973 0.84450
 O627 O 0.20193 0.21673 0.80600
 O628 O 0.22423 0.18611 0.77674
 C629 C 0.20689 0.19342 0.79840
 O630 O 0.20616 0.28431 0.67448
 Zr631 Zr 0.21920 0.25052 0.69916
 O632 O 0.22704 0.18522 0.71252
 O633 O 0.17783 0.25305 0.78245
 O634 O 0.17918 0.25168 0.70542
 O635 O 0.22547 0.24817 0.64423
 O636 O 0.20452 0.21521 0.68244
 C637 C 0.20989 0.19205 0.69041
 O638 O 0.26887 0.17832 0.77539
 O639 O 0.32395 0.25219 0.71022
 O640 O 0.27631 0.18587 0.71509
 O641 O 0.30010 0.21636 0.68791
 O642 O 0.32267 0.25320 0.78959
 O643 O 0.29880 0.21814 0.81469
 C644 C 0.29449 0.19305 0.69470
 H645 H 0.30036 0.28428 0.74908
 H646 H 0.24998 0.21765 0.81325
 H647 H 0.25264 0.21765 0.67822
 H648 H 0.20280 0.28486 0.74234
 H649 H 0.29043 0.25647 0.86094
 H650 H 0.20168 0.25052 0.85310
 H651 H 0.17025 0.25236 0.80626
 H652 H 0.17147 0.24709 0.68254
 H653 H 0.32956 0.25744 0.81311
 H654 H 0.33136 0.25274 0.68631
 H655 H 0.29999 0.24936 0.63994
 H656 H 0.20900 0.24388 0.63309
 H657 H 0.30934 0.22240 0.83542
 H658 H 0.26285 0.16166 0.76644
 H659 H 0.23784 0.34081 0.72807
 H660 H 0.19243 0.28009 0.65768
 Zr661 Zr 0.24771 0.70488 0.24667
 O662 O 0.26734 0.67613 0.21871
 O663 O 0.22468 0.68341 0.28042
 O664 O 0.27209 0.68385 0.27968
 O665 O 0.20224 0.71461 0.18229
 O666 O 0.29497 0.71420 0.30861
 O667 O 0.22335 0.68410 0.21340
 O668 O 0.20442 0.71351 0.31329
 O669 O 0.24922 0.72606 0.29319
 O670 O 0.21456 0.72672 0.24788
 O671 O 0.28128 0.72640 0.24320
 O672 O 0.24793 0.72626 0.19973
 Zr673 Zr 0.24941 0.79353 0.24506
 Zr674 Zr 0.28158 0.74896 0.28853
 Zr675 Zr 0.21551 0.74936 0.20305
 Zr676 Zr 0.21674 0.74876 0.29302
 O677 O 0.21746 0.75042 0.14757
 O678 O 0.22455 0.74899 0.34766
 O679 O 0.21550 0.77222 0.24833
 O680 O 0.24910 0.77184 0.29146
 O681 O 0.28280 0.77196 0.24375
 O682 O 0.24788 0.77202 0.19890
 C683 C 0.20920 0.69032 0.30475
 C684 C 0.20720 0.69128 0.19001
 C685 C 0.28928 0.69094 0.30169
 O686 O 0.27972 0.75075 0.34398
 O687 O 0.29755 0.78353 0.30554
 O688 O 0.27551 0.81421 0.27611
 C689 C 0.29276 0.80686 0.29789
 O690 O 0.29330 0.71571 0.17412
 Zr691 Zr 0.28035 0.74962 0.19863
 O692 O 0.27283 0.81498 0.21183
 O693 O 0.32147 0.74697 0.28220
 O694 O 0.32034 0.74826 0.20516
 O695 O 0.27423 0.75188 0.14367
 O696 O 0.29525 0.78481 0.18191
 C697 C 0.28998 0.80802 0.18980
 O698 O 0.23092 0.82225 0.27449
 O699 O 0.17555 0.74854 0.20904
 O700 O 0.22356 0.81460 0.21420
 O701 O 0.19968 0.78419 0.18689
 O702 O 0.17660 0.74766 0.28844
 O703 O 0.20057 0.78267 0.31356
 C704 C 0.20540 0.80747 0.19372
 H705 H 0.19885 0.71638 0.24811
 H706 H 0.24944 0.78290 0.31250
 H707 H 0.24714 0.78262 0.17746
 H708 H 0.29641 0.71527 0.24198
 H709 H 0.20861 0.74444 0.35998
 H710 H 0.29744 0.74985 0.35269
 H711 H 0.32898 0.74766 0.30605
 H712 H 0.32814 0.75277 0.18231
 H713 H 0.16964 0.74349 0.31192
 H714 H 0.16820 0.74799 0.18509
 H715 H 0.19972 0.75112 0.13891
 H716 H 0.29075 0.75605 0.13261
 H717 H 0.18995 0.77852 0.33423
 H718 H 0.23705 0.83885 0.26554
 H719 H 0.26113 0.65951 0.22753
 H720 H 0.30708 0.71982 0.15737
 Zr721 Zr 0.25082 0.79382 0.75427
 O722 O 0.26942 0.82243 0.72483
 O723 O 0.22742 0.81542 0.78740
 O724 O 0.22482 0.81451 0.72319
 O725 O 0.30044 0.78447 0.81255
 O726 O 0.20274 0.78384 0.69370
 O727 O 0.27667 0.81488 0.78513
 O728 O 0.20485 0.78538 0.81727
 O729 O 0.21737 0.77236 0.75550
 O730 O 0.25221 0.77241 0.80047
 O731 O 0.25113 0.77205 0.70789
 O732 O 0.28468 0.77243 0.75112
 Zr733 Zr 0.25226 0.70521 0.75277
 Zr734 Zr 0.21859 0.74927 0.71075
 Zr735 Zr 0.28452 0.74967 0.79643
 Zr736 Zr 0.21967 0.75010 0.80066
 O737 O 0.32449 0.74867 0.79058
 O738 O 0.17969 0.74886 0.79401
 O739 O 0.25203 0.72666 0.79968
 O740 O 0.21874 0.72681 0.75612
 O741 O 0.25089 0.72628 0.70621
 O742 O 0.28548 0.72693 0.75164
 C743 C 0.21020 0.80855 0.80937
 C744 C 0.29480 0.80774 0.80565
 C745 C 0.20758 0.80716 0.70139
 O746 O 0.17868 0.74739 0.71694
 O747 O 0.20515 0.71450 0.69066
 O748 O 0.22793 0.68417 0.71970
 C749 C 0.21080 0.69125 0.69762
 O750 O 0.29973 0.78272 0.68594
 Zr751 Zr 0.28343 0.74889 0.70645
 O752 O 0.27529 0.68360 0.71914
 O753 O 0.22054 0.75096 0.65531
 O754 O 0.27573 0.74907 0.65179
 O755 O 0.32356 0.74765 0.71115
 O756 O 0.29566 0.71357 0.68626
 C757 C 0.29081 0.69041 0.69483
 O758 O 0.23250 0.67657 0.78070
 O759 O 0.28250 0.75087 0.85190
 O760 O 0.27648 0.68443 0.78613
 O761 O 0.29760 0.71492 0.81730
 O762 O 0.22570 0.75245 0.85564
 O763 O 0.20660 0.71628 0.82518
 C764 C 0.29259 0.69161 0.80957
 H765 H 0.25295 0.78306 0.82189
 H766 H 0.20358 0.71572 0.75730
 H767 H 0.30116 0.71655 0.75146
 H768 H 0.25086 0.78307 0.68684
 H769 H 0.17186 0.75343 0.81683
 H770 H 0.17121 0.74807 0.69306
 H771 H 0.20283 0.75010 0.64655
 H772 H 0.29167 0.74444 0.63953
 H773 H 0.20917 0.75669 0.86663
 H774 H 0.30023 0.75152 0.86061
 H775 H 0.33179 0.74815 0.81456
 H776 H 0.33055 0.74343 0.68769
 H777 H 0.19279 0.72046 0.84186
 H778 H 0.23868 0.65991 0.77193
 H779 H 0.26332 0.83907 0.73373
 H780 H 0.31039 0.77850 0.66532
 Zr781 Zr 0.24907 0.20594 0.25398
 O782 O 0.23047 0.17710 0.22492
 O783 O 0.27270 0.18462 0.28716
 O784 O 0.27503 0.18516 0.22293
 O785 O 0.19961 0.21553 0.31244
 O786 O 0.29688 0.21573 0.19299
 O787 O 0.22335 0.18500 0.28519
 O788 O 0.29530 0.21492 0.31656
 O789 O 0.28245 0.22754 0.25478
 O790 O 0.24779 0.22763 0.29998
 O791 O 0.24851 0.22745 0.20740
 O792 O 0.21514 0.22724 0.25081
 Zr793 Zr 0.24735 0.29458 0.25160
 Zr794 Zr 0.28099 0.25035 0.20982
 Zr795 Zr 0.21540 0.25027 0.29591
 Zr796 Zr 0.28025 0.25005 0.29974
 O797 O 0.17540 0.25113 0.29031
 O798 O 0.32021 0.25141 0.29284
 O799 O 0.24783 0.27340 0.29871
 O800 O 0.28093 0.27308 0.25498
 O801 O 0.24861 0.27323 0.20522
 O802 O 0.21420 0.27274 0.25091
 C803 C 0.29000 0.19168 0.30893
 C804 C 0.20526 0.19222 0.30573
 C805 C 0.29216 0.19244 0.20095
 O806 O 0.32092 0.25234 0.21574
 O807 O 0.29436 0.28503 0.18940
 O808 O 0.27158 0.31548 0.21825
 C809 C 0.28871 0.30832 0.19622
 O810 O 0.19991 0.21653 0.18572
 Zr811 Zr 0.21614 0.25051 0.20592
 O812 O 0.22408 0.31592 0.21792
 O813 O 0.27882 0.24835 0.15441
 O814 O 0.22366 0.25010 0.15122
 O815 O 0.17602 0.25157 0.21091
 O816 O 0.20361 0.28568 0.18555
 C817 C 0.20842 0.30892 0.19385
 O818 O 0.26710 0.32348 0.27912
 O819 O 0.21765 0.24941 0.35137
 O820 O 0.22321 0.31548 0.28495
 O821 O 0.20230 0.28511 0.31654
 O822 O 0.27442 0.24799 0.35477
 O823 O 0.29329 0.28406 0.32389
 C824 C 0.20723 0.30839 0.30858
 H825 H 0.24716 0.21711 0.32150
 H826 H 0.29607 0.28422 0.25598
 H827 H 0.19848 0.28307 0.25075
 H828 H 0.24874 0.21630 0.18644
 H829 H 0.32814 0.24701 0.31565
 H830 H 0.32831 0.25153 0.19183
 H831 H 0.29649 0.24920 0.14553
 H832 H 0.20766 0.25462 0.13901
 H833 H 0.29100 0.24386 0.36571
 H834 H 0.19995 0.24876 0.36020
 H835 H 0.16819 0.25179 0.31433
 H836 H 0.16891 0.25564 0.18748
 H837 H 0.30716 0.28002 0.34055
 H838 H 0.26083 0.34005 0.27022
 H839 H 0.23665 0.16053 0.23395
 H840 H 0.18916 0.22060 0.16513
 Zr841 Zr 0.75102 0.70599 0.24550
 O842 O 0.76969 0.67737 0.27484
 O843 O 0.72765 0.68443 0.21227
 O844 O 0.72503 0.68518 0.27648
 O845 O 0.80060 0.71559 0.18724
 O846 O 0.70288 0.71577 0.30603
 O847 O 0.77691 0.68504 0.21448
 O848 O 0.70502 0.71449 0.18250
 O849 O 0.71752 0.72741 0.24432
 O850 O 0.75236 0.72752 0.19940
 O851 O 0.75125 0.72768 0.29196
 O852 O 0.78482 0.72746 0.24880
 Zr853 Zr 0.75223 0.79466 0.24740
 Zr854 Zr 0.71866 0.75041 0.28916
 Zr855 Zr 0.78461 0.75032 0.20359
 Zr856 Zr 0.71978 0.74976 0.19926
 O857 O 0.82458 0.75134 0.20954
 O858 O 0.67979 0.75092 0.20585
 O859 O 0.75208 0.77328 0.20040
 O860 O 0.71877 0.77297 0.24389
 O861 O 0.75090 0.77347 0.29386
 O862 O 0.78550 0.77297 0.24848
 C863 C 0.71041 0.69132 0.19032
 C864 C 0.79501 0.69227 0.19396
 C865 C 0.70776 0.69247 0.29827
 O866 O 0.67875 0.75219 0.28290
 O867 O 0.70508 0.78510 0.30937
 O868 O 0.72777 0.81557 0.28051
 C869 C 0.71064 0.80839 0.30253
 O870 O 0.79984 0.71709 0.31403
 Zr871 Zr 0.78349 0.75091 0.29356
 O872 O 0.77522 0.81623 0.28115
 O873 O 0.72060 0.74860 0.34459
 O874 O 0.77575 0.75064 0.34821
 O875 O 0.82362 0.75221 0.28891
 O876 O 0.79569 0.78622 0.31388
 C877 C 0.79079 0.80939 0.30540
 O878 O 0.73244 0.82332 0.21955
 O879 O 0.78260 0.74930 0.14811
 O880 O 0.77645 0.81555 0.21416
 O881 O 0.79766 0.78515 0.18293
 O882 O 0.72583 0.74754 0.14428
 O883 O 0.70665 0.78361 0.17484
 C884 C 0.79260 0.80843 0.19073
 H885 H 0.75312 0.71693 0.17793
 H886 H 0.70358 0.78403 0.24272
 H887 H 0.80116 0.78338 0.24872
 H888 H 0.75099 0.71661 0.31297
 H889 H 0.67198 0.74639 0.18301
 H890 H 0.67127 0.75145 0.30676
 H891 H 0.70289 0.74940 0.35333
 H892 H 0.79168 0.75529 0.36052
 H893 H 0.70931 0.74328 0.13324
 H894 H 0.80034 0.74870 0.13942
 H895 H 0.83189 0.75196 0.18558
 H896 H 0.83060 0.75640 0.31239
 H897 H 0.69284 0.77944 0.15813
 H898 H 0.73857 0.83996 0.22841
 H899 H 0.76363 0.66073 0.26585
 H900 H 0.81049 0.72129 0.33468
 Zr901 Zr 0.74941 0.29446 0.74662
 O902 O 0.73098 0.32322 0.77603
 O903 O 0.77277 0.31585 0.71322
 O904 O 0.77560 0.31520 0.77744
 O905 O 0.69958 0.28501 0.68866
 O906 O 0.79770 0.28458 0.80692
 O907 O 0.72351 0.31547 0.71576
 O908 O 0.79514 0.28563 0.68335
 O909 O 0.78280 0.27289 0.74526
 O910 O 0.74780 0.27286 0.70054
 O911 O 0.74920 0.27286 0.79310
 O912 O 0.71551 0.27315 0.75009
 Zr913 Zr 0.74774 0.20583 0.74854
 Zr914 Zr 0.78168 0.24998 0.79014
 Zr915 Zr 0.71544 0.25022 0.70489
 Zr916 Zr 0.78027 0.25046 0.70024
 O917 O 0.67549 0.24941 0.71102
 O918 O 0.82028 0.24912 0.70662
 O919 O 0.74786 0.22711 0.70153
 O920 O 0.78129 0.22734 0.74489
 O921 O 0.74933 0.22707 0.79499
 O922 O 0.71457 0.22766 0.74980
 C923 C 0.78989 0.30884 0.69117
 C924 C 0.70531 0.30830 0.69537
 C925 C 0.79291 0.30790 0.79915
 O926 O 0.82155 0.24796 0.78369
 O927 O 0.79511 0.21524 0.81030
 O928 O 0.77214 0.18486 0.78156
 C929 C 0.78938 0.19197 0.80348
 O930 O 0.70073 0.28371 0.81539
 Zr931 Zr 0.71685 0.24977 0.79487
 O932 O 0.72476 0.18441 0.78241
 O933 O 0.77992 0.25189 0.84558
 O934 O 0.72477 0.25005 0.84946
 O935 O 0.67669 0.24870 0.79043
 O936 O 0.70452 0.21454 0.81524
 C937 C 0.70929 0.19133 0.80673
 O938 O 0.76733 0.17704 0.72062
 O939 O 0.71728 0.25117 0.64940
 O940 O 0.72332 0.18497 0.71543
 O941 O 0.70213 0.21542 0.68431
 O942 O 0.77406 0.25263 0.64528
 O943 O 0.79316 0.21650 0.67580
 C944 C 0.70712 0.19211 0.69208
 H945 H 0.74702 0.28343 0.67906
 H946 H 0.79643 0.21620 0.74365
 H947 H 0.69887 0.21732 0.75012
 H948 H 0.74958 0.28395 0.81410
 H949 H 0.82803 0.25358 0.68373
 H950 H 0.82911 0.24870 0.80751
 H951 H 0.79766 0.25100 0.85423
 H952 H 0.70886 0.24551 0.86186
 H953 H 0.79057 0.25677 0.63416
 H954 H 0.69953 0.25185 0.64080
 H955 H 0.66810 0.24881 0.68710
 H956 H 0.66977 0.24457 0.81395
 H957 H 0.80692 0.22058 0.65899
 H958 H 0.76114 0.16043 0.72951
 H959 H 0.73709 0.33981 0.76700
 H960 H 0.69017 0.27959 0.83614
 N961 N 0.11922 0.43244 0.91478
 C962 C 0.11271 0.41447 0.89089
 N963 N 0.08787 0.41129 0.88256
 N964 N 0.07006 0.42550 0.89779
 C965 C 0.07641 0.44341 0.92204
 N966 N 0.10140 0.44669 0.93004
 C967 C 0.13160 0.39795 0.87600
 C968 C 0.14678 0.38324 0.86372
 C969 C 0.16393 0.36472 0.84929
 N970 N 0.18250 0.37162 0.82650
 N971 N 0.19749 0.35407 0.81196
 C972 C 0.19437 0.32906 0.81973
 N973 N 0.17585 0.32230 0.84271
 N974 N 0.16091 0.33981 0.85723
 N975 N 0.37892 0.56794 0.41511
 C976 C 0.38538 0.58567 0.39089
 N977 N 0.41019 0.58869 0.38230
 N978 N 0.42802 0.57454 0.39757
 C979 C 0.42165 0.55686 0.42198
 N980 N 0.39675 0.55375 0.43039
 C981 C 0.36651 0.60215 0.37601
 C982 C 0.35137 0.61687 0.36375
 C983 C 0.33434 0.63542 0.34931
 N984 N 0.33745 0.66031 0.35733
 N985 N 0.32266 0.67789 0.34270
 C986 C 0.30422 0.67121 0.31954
 N987 N 0.30100 0.64621 0.31170
 N988 N 0.31583 0.62860 0.32635
 N989 N 0.87897 0.93143 0.58440
 C990 C 0.88548 0.91359 0.60847
 N991 N 0.91029 0.91059 0.61707
 N992 N 0.92809 0.92487 0.60196
 C993 C 0.92168 0.94265 0.57770
 N994 N 0.89678 0.94573 0.56929
 C995 C 0.86663 0.89704 0.62326
 C996 C 0.85149 0.88230 0.63549
 C997 C 0.83443 0.86377 0.64995
 N998 N 0.83745 0.83887 0.64189
 N999 N 0.82267 0.82133 0.65658
 C1000 C 0.80431 0.82805 0.67984
 N1001 N 0.80118 0.85305 0.68771
 N1002 N 0.81601 0.87063 0.67300
 N1003 N 0.62121 0.06786 0.08495
 C1004 C 0.61474 0.08559 0.10920
 N1005 N 0.58995 0.08858 0.11789
 N1006 N 0.57212 0.07437 0.10268
 C1007 C 0.57849 0.05669 0.07823
 N1008 N 0.60337 0.05363 0.06973
 C1009 C 0.63359 0.10215 0.12396
 C1010 C 0.64873 0.11692 0.13610
 C1011 C 0.66576 0.13551 0.15041
 N1012 N 0.68428 0.12876 0.17337
 N1013 N 0.69911 0.14641 0.18793
 C1014 C 0.69589 0.17138 0.18000
 N1015 N 0.67743 0.17800 0.15683
 N1016 N 0.66264 0.16038 0.14228
 N1017 N 0.87890 0.06588 0.42336
 C1018 C 0.88571 0.08440 0.40046
 N1019 N 0.91058 0.08749 0.39241
 N1020 N 0.92816 0.07267 0.40696
 C1021 C 0.92149 0.05420 0.43006
 N1022 N 0.89651 0.05101 0.43793
 C1023 C 0.86715 0.10147 0.38612
 C1024 C 0.85242 0.11662 0.37394
 C1025 C 0.83591 0.13549 0.35915
 N1026 N 0.83897 0.16030 0.36771
 N1027 N 0.82478 0.17813 0.35250
 C1028 C 0.80702 0.17174 0.32817
 N1029 N 0.80388 0.14683 0.31980
 N1030 N 0.81810 0.12900 0.33501
 N1031 N 0.37896 0.43448 0.57744
 C1032 C 0.38574 0.41601 0.60045
 N1033 N 0.41063 0.41286 0.60844
 N1034 N 0.42824 0.42756 0.59373
 C1035 C 0.42158 0.44597 0.57052
 N1036 N 0.39659 0.44923 0.56272
 C1037 C 0.36714 0.39905 0.61494
 C1038 C 0.35234 0.38398 0.62718
 C1039 C 0.33573 0.36518 0.64194
 N1040 N 0.33872 0.34035 0.63336
 N1041 N 0.32440 0.32258 0.64845
 C1042 C 0.30659 0.32902 0.67267
 N1043 N 0.30353 0.35394 0.68107
 N1044 N 0.31787 0.37172 0.66597
 N1045 N 0.62135 0.93419 0.92305
 C1046 C 0.61460 0.91566 0.90009
 N1047 N 0.58974 0.91259 0.89185
 N1048 N 0.57213 0.92744 0.90629
 C1049 C 0.57875 0.94591 0.92947
 N1050 N 0.60370 0.94908 0.93751
 C1051 C 0.63319 0.89854 0.88593
 C1052 C 0.64799 0.88336 0.87393
 C1053 C 0.66462 0.86448 0.85937
 N1054 N 0.68235 0.87089 0.83513
 N1055 N 0.69667 0.85303 0.82012
 C1056 C 0.69370 0.82817 0.82883
 N1057 N 0.67602 0.82187 0.85327
 N1058 N 0.66173 0.83972 0.86828
 N1059 N 0.12082 0.56572 0.07549
 C1060 C 0.11393 0.58422 0.09842
 N1061 N 0.08901 0.58728 0.10631
 N1062 N 0.07150 0.57245 0.09157
 C1063 C 0.07826 0.55400 0.06843
 N1064 N 0.10328 0.55084 0.06073
 C1065 C 0.13244 0.60129 0.11305
 C1066 C 0.14714 0.61643 0.12546
 C1067 C 0.16364 0.63528 0.14048
 N1068 N 0.18142 0.62875 0.16464
 N1069 N 0.19569 0.64654 0.17993
 C1070 C 0.19264 0.67147 0.17161
 N1071 N 0.17490 0.67790 0.14727
 N1072 N 0.16066 0.66012 0.13199
 N1073 N 0.37915 0.93349 0.08154
 C1074 C 0.38553 0.91491 0.10457
 N1075 N 0.41028 0.91152 0.11316
 N1076 N 0.42817 0.92618 0.09906
 C1077 C 0.42190 0.94472 0.07587
 N1078 N 0.39706 0.94818 0.06743
 C1079 C 0.36667 0.89807 0.11834
 C1080 C 0.35162 0.88305 0.12991
 C1081 C 0.33476 0.86422 0.14375
 N1082 N 0.33805 0.83947 0.13508
 N1083 N 0.32342 0.82161 0.14931
 C1084 C 0.30501 0.82791 0.17270
 N1085 N 0.30166 0.85276 0.18120
 N1086 N 0.31632 0.87064 0.16696
 N1087 N 0.62122 0.43408 0.41797
 C1088 C 0.61487 0.41558 0.39477
 N1089 N 0.59014 0.41218 0.38612
 N1090 N 0.57222 0.42675 0.40034
 C1091 C 0.57845 0.44522 0.42372
 N1092 N 0.60328 0.44869 0.43220
 C1093 C 0.63376 0.39878 0.38093
 C1094 C 0.64880 0.38374 0.36934
 C1095 C 0.66561 0.36487 0.35551
 N1096 N 0.68405 0.37120 0.33226
 N1097 N 0.69866 0.35326 0.31803
 C1098 C 0.69524 0.32843 0.32655
 N1099 N 0.67684 0.32222 0.34997
 N1100 N 0.66226 0.34014 0.36420
 N1101 N 0.88076 0.56542 0.91626
 C1102 C 0.88728 0.58437 0.89393
 N1103 N 0.91209 0.58798 0.88594
 N1104 N 0.92991 0.57322 0.90003
 C1105 C 0.92358 0.55431 0.92271
 N1106 N 0.89860 0.55061 0.93036
 C1107 C 0.86844 0.60133 0.88022
 C1108 C 0.85337 0.61642 0.86877
 C1109 C 0.83640 0.63528 0.85513
 N1110 N 0.83980 0.66006 0.86363
 N1111 N 0.82498 0.67790 0.84972
 C1112 C 0.80624 0.67158 0.82681
 N1113 N 0.80278 0.64671 0.81848
 N1114 N 0.81764 0.62884 0.83240
 N1115 N 0.12104 0.06613 0.58229
 C1116 C 0.11467 0.08462 0.60549
 N1117 N 0.08994 0.08791 0.61424
 N1118 N 0.07206 0.07324 0.60010
 C1119 C 0.07830 0.05480 0.57672
 N1120 N 0.10313 0.05143 0.56814
 C1121 C 0.13352 0.10151 0.61923
 C1122 C 0.14854 0.11661 0.63074
 C1123 C 0.16535 0.13553 0.64449
 N1124 N 0.18379 0.12926 0.66779
 N1125 N 0.19839 0.14723 0.68196
 C1126 C 0.19497 0.17204 0.67333
 N1127 N 0.17656 0.17820 0.64986
 N1128 N 0.16200 0.16024 0.63569
 N1129 N 0.12105 0.43421 0.42222
 C1130 C 0.11421 0.41576 0.39918
 N1131 N 0.08932 0.41272 0.39110
 N1132 N 0.07177 0.42753 0.40577
 C1133 C 0.07848 0.44592 0.42902
 N1134 N 0.10347 0.44906 0.43690
 C1135 C 0.13273 0.39868 0.38477
 C1136 C 0.14744 0.38351 0.37256
 C1137 C 0.16394 0.36461 0.35778
 N1138 N 0.18161 0.37101 0.33344
 N1139 N 0.19582 0.35314 0.31827
 C1140 C 0.19281 0.32827 0.32691
 N1141 N 0.17519 0.32197 0.35145
 N1142 N 0.16101 0.33984 0.36661
 N1143 N 0.37904 0.56606 0.92321
 C1144 C 0.38587 0.58462 0.90037
 N1145 N 0.41076 0.58776 0.89243
 N1146 N 0.42833 0.57295 0.90703
 C1147 C 0.42164 0.55445 0.93007
 N1148 N 0.39664 0.55121 0.93782
 C1149 C 0.36731 0.60165 0.88596
 C1150 C 0.35256 0.61677 0.87374
 C1151 C 0.33601 0.63560 0.85893
 N1152 N 0.33901 0.66042 0.86753
 N1153 N 0.32478 0.67822 0.85233
 C1154 C 0.30705 0.67180 0.82798
 N1155 N 0.30398 0.64689 0.81957
 N1156 N 0.31823 0.62909 0.83477
 N1157 N 0.62075 0.06615 0.57853
 C1158 C 0.61382 0.08470 0.60137
 N1159 N 0.58891 0.08772 0.60926
 N1160 N 0.57142 0.07281 0.59463
 C1161 C 0.57821 0.05432 0.57158
 N1162 N 0.60323 0.05119 0.56387
 C1163 C 0.63231 0.10185 0.61585
 C1164 C 0.64699 0.11706 0.62814
 C1165 C 0.66350 0.13597 0.64301
 N1166 N 0.68136 0.12951 0.66709
 N1167 N 0.69564 0.14734 0.68223
 C1168 C 0.69253 0.17225 0.67383
 N1169 N 0.67472 0.17861 0.64957
 N1170 N 0.66046 0.16078 0.63444
 N1171 N 0.87911 0.93406 0.07731
 C1172 C 0.88595 0.91552 0.10018
 N1173 N 0.91085 0.91236 0.10807
 N1174 N 0.92842 0.92714 0.09341
 C1175 C 0.92171 0.94562 0.07035
 N1176 N 0.89671 0.94888 0.06264
 C1177 C 0.86739 0.89850 0.11464
 C1178 C 0.85264 0.88338 0.12687
 C1179 C 0.83608 0.86453 0.14165
 N1180 N 0.83906 0.83973 0.13295
 N1181 N 0.82481 0.82192 0.14807
 C1182 C 0.80708 0.82829 0.17244
 N1183 N 0.80404 0.85319 0.18095
 N1184 N 0.81831 0.87101 0.16583
 N1185 N 0.87887 0.06852 0.91624
 C1186 C 0.88535 0.08635 0.89217
 N1187 N 0.91014 0.08933 0.88349
 N1188 N 0.92795 0.07503 0.89853
 C1189 C 0.92158 0.05724 0.92279
 N1190 N 0.89670 0.05419 0.93129
 C1191 C 0.86650 0.10297 0.87751
 C1192 C 0.85139 0.11777 0.86537
 C1193 C 0.83438 0.13638 0.85101
 N1194 N 0.83763 0.16127 0.85892
 N1195 N 0.82287 0.17889 0.84432
 C1196 C 0.80431 0.17223 0.82132
 N1197 N 0.80096 0.14723 0.81361
 N1198 N 0.81576 0.12959 0.82822
 N1199 N 0.12131 0.56798 0.58441
 C1200 C 0.11486 0.58570 0.60871
 N1201 N 0.09008 0.58865 0.61746
 N1202 N 0.07225 0.57443 0.60228
 C1203 C 0.07860 0.55677 0.57779
 N1204 N 0.10347 0.55374 0.56922
 C1205 C 0.13371 0.60225 0.62347
 C1206 C 0.14884 0.61703 0.63565
 C1207 C 0.16584 0.63563 0.65003
 N1208 N 0.18434 0.62887 0.67301
 N1209 N 0.19914 0.64652 0.68764
 C1210 C 0.19589 0.67149 0.67977
 N1211 N 0.17745 0.67812 0.65658
 N1212 N 0.16270 0.66050 0.64197
 N1213 N 0.62097 0.93116 0.41693
 C1214 C 0.61445 0.91344 0.39267
 N1215 N 0.58964 0.91054 0.38400
 N1216 N 0.57186 0.92480 0.39923
 C1217 C 0.57828 0.94248 0.42367
 N1218 N 0.60318 0.94546 0.43216
 C1219 C 0.63329 0.89692 0.37768
 C1220 C 0.64841 0.88221 0.36527
 C1221 C 0.66544 0.86370 0.35060
 N1222 N 0.68390 0.87062 0.32765
 N1223 N 0.69875 0.85308 0.31284
 C1224 C 0.69562 0.82805 0.32049
 N1225 N 0.67722 0.82127 0.34365
 N1226 N 0.66241 0.83877 0.35844
 N1227 N 0.37875 0.43150 0.08377
 C1228 C 0.38518 0.41355 0.10770
 N1229 N 0.40997 0.41044 0.11632
 N1230 N 0.42783 0.42473 0.10137
 C1231 C 0.42150 0.44264 0.07725
 N1232 N 0.39661 0.44582 0.06881
 C1233 C 0.36627 0.39698 0.12230
 C1234 C 0.35107 0.38224 0.13438
 C1235 C 0.33394 0.36371 0.14867
 N1236 N 0.33699 0.33881 0.14065
 N1237 N 0.32214 0.32127 0.15521
 C1238 C 0.30367 0.32800 0.17830
 N1239 N 0.30051 0.35301 0.18612
 N1240 N 0.31540 0.37058 0.17154
 N1241 N 0.62124 0.56562 0.08225
 C1242 C 0.61493 0.58408 0.10552
 N1243 N 0.59022 0.58740 0.11433
 N1244 N 0.57229 0.57279 0.10019
 C1245 C 0.57848 0.55436 0.07675
 N1246 N 0.60329 0.55097 0.06811
 C1247 C 0.63382 0.60094 0.11923
 C1248 C 0.64887 0.61601 0.13072
 C1249 C 0.66572 0.63490 0.14445
 N1250 N 0.68425 0.62858 0.16758
 N1251 N 0.69890 0.64652 0.18174
 C1252 C 0.69543 0.67135 0.17326
 N1253 N 0.67693 0.67756 0.14995
 N1254 N 0.66232 0.65964 0.13580
 N1255 N 0.12114 0.93421 0.91760
 C1256 C 0.11478 0.91575 0.89435
 N1257 N 0.09005 0.91241 0.88565
 N1258 N 0.07215 0.92701 0.89988
 C1259 C 0.07839 0.94543 0.92331
 N1260 N 0.10322 0.94884 0.93183
 C1261 C 0.13365 0.89891 0.88054
 C1262 C 0.14868 0.88385 0.86899
 C1263 C 0.16551 0.86496 0.85521
 N1264 N 0.18399 0.87129 0.83202
 N1265 N 0.19863 0.85334 0.81786
 C1266 C 0.19521 0.82852 0.82639
 N1267 N 0.17676 0.82231 0.84975
 N1268 N 0.16215 0.84024 0.86391
 N1269 N 0.37926 0.06651 0.41789
 C1270 C 0.38578 0.08499 0.39480
 N1271 N 0.41057 0.08824 0.38635
 N1272 N 0.42835 0.07354 0.40066
 C1273 C 0.42195 0.05509 0.42392
 N1274 N 0.39706 0.05177 0.43220
 C1275 C 0.36700 0.10187 0.38078
 C1276 C 0.35199 0.11689 0.36904
 C1277 C 0.33512 0.13569 0.35504
 N1278 N 0.33847 0.16049 0.36339
 N1279 N 0.32375 0.17828 0.34913
 C1280 C 0.30518 0.17186 0.32602
 N1281 N 0.30177 0.14696 0.31784
 N1282 N 0.31652 0.12915 0.33210
 N1283 N 0.87913 0.43392 0.58216
 C1284 C 0.88551 0.41538 0.60523
 N1285 N 0.91026 0.41192 0.61372
 N1286 N 0.92816 0.42649 0.59946
 C1287 C 0.92190 0.44500 0.57622
 N1288 N 0.89705 0.44852 0.56790
 C1289 C 0.86662 0.39862 0.61917
 C1290 C 0.85156 0.38366 0.63085
 C1291 C 0.83468 0.36490 0.64480
 N1292 N 0.83790 0.34013 0.63618
 N1293 N 0.82326 0.32232 0.65051
 C1294 C 0.80491 0.32869 0.67396
 N1295 N 0.80162 0.35356 0.68240
 N1296 N 0.81630 0.37139 0.66807
 N1297 N 0.91310 0.59060 0.10334
 C1298 C 0.88806 0.58760 0.09626
 N1299 N 0.88080 0.56967 0.07265
 N1300 N 0.89811 0.55517 0.05668
 C1301 C 0.92325 0.55819 0.06373
 N1302 N 0.93038 0.57615 0.08740
 C1303 C 0.86975 0.60396 0.11285
 C1304 C 0.85535 0.61861 0.12696
 C1305 C 0.83931 0.63716 0.14365
 N1306 N 0.82041 0.63005 0.16582
 N1307 N 0.80617 0.64753 0.18187
 C1308 C 0.81042 0.67270 0.17637
 N1309 N 0.82934 0.67967 0.15414
 N1310 N 0.84354 0.66223 0.13812
 N1311 N 0.61921 0.43108 0.57534
 C1312 C 0.61206 0.41314 0.59893
 N1313 N 0.58704 0.41004 0.60607
 N1314 N 0.56969 0.42440 0.59019
 C1315 C 0.57671 0.44237 0.56653
 N1316 N 0.60182 0.44550 0.55943
 C1317 C 0.63044 0.39681 0.61533
 C1318 C 0.64490 0.38215 0.62924
 C1319 C 0.66097 0.36357 0.64566
 N1320 N 0.65665 0.33852 0.64003
 N1321 N 0.67087 0.32102 0.65585
 C1322 C 0.68991 0.32792 0.67795
 N1323 N 0.69426 0.35306 0.68355
 N1324 N 0.67999 0.37060 0.66770
 N1325 N 0.11907 0.06937 0.42551
 C1326 C 0.11191 0.08743 0.40208
 N1327 N 0.08688 0.09055 0.39496
 N1328 N 0.06954 0.07609 0.41069
 C1329 C 0.07658 0.05802 0.43419
 N1330 N 0.10169 0.05487 0.44128
 C1331 C 0.13028 0.10381 0.38578
 C1332 C 0.14477 0.11848 0.37194
 C1333 C 0.16090 0.13704 0.35556
 N1334 N 0.15671 0.16209 0.36133
 N1335 N 0.17096 0.17956 0.34550
 C1336 C 0.18990 0.17263 0.32326
 N1337 N 0.19412 0.14748 0.31754
 N1338 N 0.17982 0.12997 0.33339
 N1339 N 0.41325 0.90985 0.89377
 C1340 C 0.38825 0.91287 0.90110
 N1341 N 0.38112 0.93080 0.92478
 N1342 N 0.39853 0.94526 0.94059
 C1343 C 0.42362 0.94221 0.93330
 N1344 N 0.43062 0.92427 0.90956
 C1345 C 0.36987 0.89647 0.88487
 C1346 C 0.35538 0.88176 0.87113
 C1347 C 0.33925 0.86314 0.85491
 N1348 N 0.32029 0.87010 0.83275
 N1349 N 0.30597 0.85251 0.81706
 C1350 C 0.31022 0.82740 0.82295
 N1351 N 0.32920 0.82057 0.84517
 N1352 N 0.34347 0.83811 0.86083
 N1353 N 0.11999 0.92980 0.58308
 C1354 C 0.11301 0.91083 0.60519
 N1355 N 0.08799 0.90654 0.61098
 N1356 N 0.07045 0.92076 0.59524
 C1357 C 0.07729 0.93976 0.57307
 N1358 N 0.10241 0.94407 0.56731
 C1359 C 0.13164 0.89475 0.62150
 C1360 C 0.14634 0.88029 0.63530
 C1361 C 0.16274 0.86194 0.65158
 N1362 N 0.15965 0.83691 0.64441
 N1363 N 0.17408 0.81957 0.66019
 C1364 C 0.19210 0.82662 0.68378
 N1365 N 0.19523 0.85174 0.69092
 N1366 N 0.18074 0.86911 0.67510
 N1367 N 0.61998 0.57000 0.41666
 C1368 C 0.61301 0.58888 0.39440
 N1369 N 0.58797 0.59314 0.38857
 N1370 N 0.57044 0.57899 0.40442
 C1371 C 0.57729 0.56009 0.42675
 N1372 N 0.60241 0.55580 0.43254
 C1373 C 0.63164 0.60491 0.37798
 C1374 C 0.64637 0.61933 0.36414
 C1375 C 0.66279 0.63767 0.34786
 N1376 N 0.65975 0.66270 0.35508
 N1377 N 0.67422 0.68003 0.33936
 C1378 C 0.69225 0.67298 0.31579
 N1379 N 0.69533 0.64786 0.30861
 N1380 N 0.68081 0.63049 0.32436
 N1381 N 0.41210 0.09287 0.11151
 C1382 C 0.38708 0.08865 0.10550
 N1383 N 0.38015 0.06976 0.08317
 N1384 N 0.39776 0.05552 0.06741
 C1385 C 0.42286 0.05977 0.07338
 N1386 N 0.42967 0.07867 0.09577
 C1387 C 0.36843 0.10473 0.12174
 C1388 C 0.35367 0.11919 0.13546
 C1389 C 0.33720 0.13757 0.15159
 N1390 N 0.31930 0.13045 0.17527
 N1391 N 0.30475 0.14786 0.19094
 C1392 C 0.30769 0.17294 0.18348
 N1393 N 0.32560 0.17992 0.15973
 N1394 N 0.34010 0.16255 0.14409
 N1395 N 0.91317 0.40746 0.88855
 C1396 C 0.88816 0.41194 0.89415
 N1397 N 0.88126 0.43122 0.91584
 N1398 N 0.89889 0.44558 0.93139
 C1399 C 0.92405 0.44111 0.92589
 N1400 N 0.93076 0.42176 0.90406
 C1401 C 0.86946 0.39576 0.87805
 C1402 C 0.85468 0.38122 0.86441
 C1403 C 0.83818 0.36281 0.84831
 N1404 N 0.84124 0.33779 0.85556
 N1405 N 0.82669 0.32042 0.83999
 C1406 C 0.80855 0.32741 0.81654
 N1407 N 0.80546 0.35252 0.80932
 N1408 N 0.82006 0.36992 0.82492
 N1409 N 0.62234 0.06721 0.92162
 C1410 C 0.61603 0.08452 0.89675
 N1411 N 0.59139 0.08693 0.88700
 N1412 N 0.57353 0.07260 0.90183
 C1413 C 0.57972 0.05537 0.92692
 N1414 N 0.60447 0.05285 0.93646
 C1415 C 0.63477 0.10129 0.88243
 C1416 C 0.64970 0.11628 0.87042
 C1417 C 0.66637 0.13505 0.85594
 N1418 N 0.66392 0.15972 0.86559
 N1419 N 0.67810 0.17759 0.85050
 C1420 C 0.69520 0.17138 0.82524
 N1421 N 0.69776 0.14661 0.81581
 N1422 N 0.68356 0.12873 0.83091
 N1423 N 0.40861 0.58615 0.61411
 C1424 C 0.38397 0.58365 0.60442
 N1425 N 0.37772 0.56649 0.57930
 N1426 N 0.39565 0.55234 0.56417
 C1427 C 0.42040 0.55495 0.57365
 N1428 N 0.42653 0.57204 0.59900
 C1429 C 0.36517 0.60027 0.61896
 C1430 C 0.35023 0.61520 0.63110
 C1431 C 0.33358 0.63397 0.64563
 N1432 N 0.31649 0.62772 0.67079
 N1433 N 0.30232 0.64564 0.68591
 C1434 C 0.30485 0.67039 0.67638
 N1435 N 0.32187 0.67652 0.65099
 N1436 N 0.33600 0.65861 0.63588
 N1437 N 0.12139 0.43249 0.07778
 C1438 C 0.11491 0.41531 0.10274
 N1439 N 0.09021 0.41300 0.11221
 N1440 N 0.07246 0.42729 0.09703
 C1441 C 0.07882 0.44440 0.07186
 N1442 N 0.10363 0.44681 0.06260
 C1443 C 0.13357 0.39858 0.11747
 C1444 C 0.14845 0.38365 0.12978
 C1445 C 0.16513 0.36495 0.14451
 N1446 N 0.16268 0.34022 0.13512
 N1447 N 0.17694 0.32245 0.15029
 C1448 C 0.19415 0.32879 0.17537
 N1449 N 0.19671 0.35362 0.18454
 N1450 N 0.18241 0.37141 0.16937
 N1451 N 0.90868 0.91380 0.38588
 C1452 C 0.88404 0.91622 0.39563
 N1453 N 0.87777 0.93338 0.42075
 N1454 N 0.89567 0.94758 0.43583
 C1455 C 0.92042 0.94505 0.42630
 N1456 N 0.92657 0.92798 0.40096
 C1457 C 0.86527 0.89954 0.38113
 C1458 C 0.85032 0.88459 0.36904
 C1459 C 0.83366 0.86581 0.35454
 N1460 N 0.83613 0.84116 0.36422
 N1461 N 0.82196 0.82325 0.34914
 C1462 C 0.80485 0.82940 0.32387
 N1463 N 0.80226 0.85416 0.31441
 N1464 N 0.81646 0.87208 0.32949
 N1465 N 0.91233 0.59302 0.61166
 C1466 C 0.88730 0.58878 0.60580
 N1467 N 0.88031 0.56989 0.58352
 N1468 N 0.89787 0.55566 0.56765
 C1469 C 0.92299 0.55992 0.57347
 N1470 N 0.92986 0.57883 0.59582
 C1471 C 0.86869 0.60484 0.62218
 C1472 C 0.85398 0.61928 0.63602
 C1473 C 0.83757 0.63764 0.65230
 N1474 N 0.81974 0.63050 0.67605
 N1475 N 0.80525 0.64789 0.69187
 C1476 C 0.80820 0.67298 0.68450
 N1477 N 0.82606 0.67999 0.66067
 N1478 N 0.84049 0.66264 0.64489
 N1479 N 0.61982 0.42949 0.08300
 C1480 C 0.61283 0.41050 0.10506
 N1481 N 0.58779 0.40618 0.11075
 N1482 N 0.57027 0.42039 0.09496
 C1483 C 0.57714 0.43941 0.07284
 N1484 N 0.60226 0.44375 0.06718
 C1485 C 0.63144 0.39445 0.12145
 C1486 C 0.64617 0.38003 0.13531
 C1487 C 0.66259 0.36172 0.15163
 N1488 N 0.65955 0.33668 0.14448
 N1489 N 0.67402 0.31938 0.16028
 C1490 C 0.69204 0.32647 0.18385
 N1491 N 0.69511 0.35160 0.19096
 N1492 N 0.68059 0.36894 0.17514
 N1493 N 0.41224 0.90641 0.38944
 C1494 C 0.38717 0.91063 0.39500
 N1495 N 0.38006 0.92964 0.41703
 N1496 N 0.39754 0.94399 0.43294
 C1497 C 0.42270 0.93974 0.42741
 N1498 N 0.42967 0.92070 0.40532
 C1499 C 0.36864 0.89448 0.37847
 C1500 C 0.35401 0.87999 0.36448
 C1501 C 0.33766 0.86162 0.34798
 N1502 N 0.34078 0.83657 0.35497
 N1503 N 0.32635 0.81925 0.33908
 C1504 C 0.30830 0.82632 0.31554
 N1505 N 0.30516 0.85146 0.30857
 N1506 N 0.31964 0.86882 0.32450
 N1507 N 0.11979 0.07053 0.91697
 C1508 C 0.11271 0.08950 0.89490
 N1509 N 0.08766 0.09372 0.88921
 N1510 N 0.07020 0.07944 0.90500
 C1511 C 0.07714 0.06045 0.92713
 N1512 N 0.10229 0.05621 0.93279
 C1513 C 0.13125 0.10563 0.87849
 C1514 C 0.14588 0.12013 0.86461
 C1515 C 0.16219 0.13854 0.84825
 N1516 N 0.15893 0.16357 0.85523
 N1517 N 0.17330 0.18094 0.83942
 C1518 C 0.19143 0.17392 0.81598
 N1519 N 0.19472 0.14880 0.80902
 N1520 N 0.18029 0.13139 0.82486
 N1521 N 0.11932 0.93070 0.07450
 C1522 C 0.11218 0.91265 0.09795
 N1523 N 0.08717 0.90953 0.10511
 N1524 N 0.06981 0.92398 0.08941
 C1525 C 0.07681 0.94206 0.06591
 N1526 N 0.10191 0.94521 0.05877
 C1527 C 0.13057 0.89624 0.11417
 C1528 C 0.14504 0.88152 0.12795
 C1529 C 0.16112 0.86288 0.14424
 N1530 N 0.15681 0.83785 0.13843
 N1531 N 0.17102 0.82030 0.15416
 C1532 C 0.19003 0.82714 0.17636
 N1533 N 0.19436 0.85226 0.18214
 N1534 N 0.18010 0.86985 0.16637
 N1535 N 0.91301 0.40987 0.39404
 C1536 C 0.88802 0.41290 0.40140
 N1537 N 0.88091 0.43084 0.42507
 N1538 N 0.89833 0.44531 0.44085
 C1539 C 0.92342 0.44224 0.43354
 N1540 N 0.93039 0.42429 0.40980
 C1541 C 0.86964 0.39650 0.38518
 C1542 C 0.85516 0.38178 0.37142
 C1543 C 0.83907 0.36314 0.35516
 N1544 N 0.82013 0.37008 0.33297
 N1545 N 0.80586 0.35248 0.31723
 C1546 C 0.81014 0.32737 0.32310
 N1547 N 0.82910 0.32055 0.34536
 N1548 N 0.84332 0.33812 0.36107
 N1549 N 0.41297 0.09090 0.60586
 C1550 C 0.38795 0.08793 0.59863
 N1551 N 0.38074 0.06992 0.57511
 N1552 N 0.39808 0.05531 0.55938
 C1553 C 0.42320 0.05831 0.56659
 N1554 N 0.43027 0.07635 0.59016
 C1555 C 0.36961 0.10441 0.61493
 C1556 C 0.35516 0.11915 0.62878
 C1557 C 0.33905 0.13776 0.64519
 N1558 N 0.32004 0.13074 0.66721
 N1559 N 0.30571 0.14828 0.68300
 C1560 C 0.30999 0.17342 0.67736
 N1561 N 0.32903 0.18032 0.65528
 N1562 N 0.34331 0.16282 0.63952
 N1563 N 0.61934 0.56913 0.92595
 C1564 C 0.61226 0.58730 0.90262
 N1565 N 0.58726 0.59052 0.89545
 N1566 N 0.56985 0.57607 0.91103
 C1567 C 0.57679 0.55788 0.93442
 N1568 N 0.60188 0.55463 0.94156
 C1569 C 0.63072 0.60368 0.88652
 C1570 C 0.64530 0.61836 0.87286
 C1571 C 0.66154 0.63692 0.85670
 N1572 N 0.65749 0.66196 0.86274
 N1573 N 0.67182 0.67944 0.84708
 C1574 C 0.69071 0.67253 0.82475
 N1575 N 0.69479 0.64739 0.81875
 N1576 N 0.68041 0.62987 0.83444
 N1577 N 0.40823 0.41438 0.88550
 C1578 C 0.38360 0.41696 0.89524
 N1579 N 0.37745 0.43413 0.92040
 N1580 N 0.39545 0.44819 0.93551
 C1581 C 0.42018 0.44550 0.92599
 N1582 N 0.42622 0.42841 0.90060
 C1583 C 0.36472 0.40040 0.88077
 C1584 C 0.34967 0.38553 0.86874
 C1585 C 0.33288 0.36680 0.85438
 N1586 N 0.33514 0.34219 0.86431
 N1587 N 0.32089 0.32431 0.84935
 C1588 C 0.30388 0.33045 0.82394
 N1589 N 0.30149 0.35517 0.81422
 N1590 N 0.31578 0.37307 0.82919
 N1591 N 0.90873 0.08587 0.11471
 C1592 C 0.88408 0.08343 0.10498
 N1593 N 0.87781 0.06630 0.07982
 N1594 N 0.89573 0.05214 0.06469
 C1595 C 0.92048 0.05469 0.07420
 N1596 N 0.92663 0.07174 0.09959
 C1597 C 0.86531 0.10009 0.11948
 C1598 C 0.85037 0.11504 0.13158
 C1599 C 0.83372 0.13384 0.14604
 N1600 N 0.81657 0.12760 0.17116
 N1601 N 0.80239 0.14554 0.18620
 C1602 C 0.80493 0.17028 0.17664
 N1603 N 0.82199 0.17639 0.15131
 N1604 N 0.83615 0.15847 0.13627
 N1605 N 0.62163 0.93280 0.58100
 C1606 C 0.61520 0.91558 0.60592
 N1607 N 0.59051 0.91322 0.61543
 N1608 N 0.57272 0.92750 0.60032
 C1609 C 0.57903 0.94465 0.57517
 N1610 N 0.60383 0.94712 0.56588
 C1611 C 0.63390 0.89884 0.62053
 C1612 C 0.64884 0.88390 0.63270
 C1613 C 0.66558 0.86517 0.64722
 N1614 N 0.66312 0.84047 0.63772
 N1615 N 0.67746 0.82267 0.65267
 C1616 C 0.69477 0.82896 0.67766
 N1617 N 0.69733 0.85376 0.68696
 N1618 N 0.68295 0.87158 0.67199
 N1619 N 0.12226 0.56663 0.42047
 C1620 C 0.11594 0.58384 0.39547
 N1621 N 0.09128 0.58633 0.38589
 N1622 N 0.07341 0.57218 0.40100
 C1623 C 0.07960 0.55505 0.42622
 N1624 N 0.10438 0.55244 0.43558
 C1625 C 0.13471 0.60046 0.38089
 C1626 C 0.14964 0.61536 0.36871
 C1627 C 0.16631 0.63409 0.35410
 N1628 N 0.16394 0.65875 0.36379
 N1629 N 0.17810 0.67660 0.34863
 C1630 C 0.19511 0.67037 0.32325
 N1631 N 0.19759 0.64560 0.31378
 N1632 N 0.18339 0.62774 0.32895
   
