data_POSCAR
  _audit_creation_date              2014-09-24
  _audit_creation_method            'ToBaCCo'
  _symmetry_space_group_name_H-M    'P1'
  _symmetry_Int_Tables_number       1
  _symmetry_cell_setting            triclinic
  loop_
  _symmetry_equiv_pos_as_xyz
 x,y,z
_cell_length_a 55.2457
_cell_length_b 59.3970
_cell_length_c 60.3785
_cell_angle_alpha 90.033400
_cell_angle_beta 90.049100
_cell_angle_gamma 89.775800
loop_
  _atom_site_label
  _atom_site_type_symbol
  _atom_site_fract_x
  _atom_site_fract_y
  _atom_site_fract_z
C1 C 0.30557 0.30801 -0.01724
 C2 C 0.30622 0.30726 0.00540
 C3 C 0.29104 0.32247 0.01935
 C4 C 0.32304 0.29207 0.01770
 C5 C 0.32048 0.29255 -0.03120
 C6 C 0.29094 0.32516 -0.02940
 C7 C 0.30220 0.33552 0.03579
 C8 C 0.28859 0.35016 0.04890
 C9 C 0.26344 0.35218 0.04588
 C10 C 0.25217 0.33886 0.02960
 C11 C 0.26582 0.32397 0.01660
 C12 C 0.34792 0.29135 0.01285
 C13 C 0.36342 0.27726 0.02485
 C14 C 0.35450 0.26439 0.04253
 C15 C 0.32980 0.26558 0.04780
 C16 C 0.31419 0.27915 0.03538
 C17 C 0.32045 0.26914 -0.02797
 C18 C 0.33570 0.25519 -0.04047
 C19 C 0.35090 0.26426 -0.05702
 C20 C 0.34986 0.28772 -0.06079
 C21 C 0.33500 0.30159 -0.04799
 C22 C 0.27628 0.31843 -0.04722
 C23 C 0.26317 0.33433 -0.05939
 C24 C 0.26414 0.35722 -0.05370
 C25 C 0.27879 0.36402 -0.03594
 C26 C 0.29250 0.34820 -0.02422
 H27 H 0.32160 0.33460 0.03826
 H28 H 0.29790 0.36014 0.06124
 H29 H 0.23280 0.33987 0.02698
 H30 H 0.25676 0.31374 0.00429
 H31 H 0.35539 0.30179 -0.00013
 H32 H 0.38249 0.27688 0.02073
 H33 H 0.29514 0.27964 0.03962
 H34 H 0.30890 0.26169 -0.01550
 H35 H 0.33548 0.23729 -0.03706
 H36 H 0.36093 0.29567 -0.07333
 H37 H 0.33522 0.31958 -0.05093
 H38 H 0.27504 0.30082 -0.05174
 H39 H 0.25201 0.32871 -0.07306
 H40 H 0.28014 0.38164 -0.03151
 H41 H 0.30442 0.35397 -0.01117
 H42 H 0.32251 0.25582 0.06138
 C43 C 0.70004 0.69627 -0.00587
 C44 C 0.69860 0.69688 0.01662
 C45 C 0.71277 0.68114 0.03084
 C46 C 0.68051 0.71132 0.02786
 C47 C 0.68459 0.71082 -0.02018
 C48 C 0.71477 0.67897 -0.01730
 C49 C 0.70069 0.66752 0.04623
 C50 C 0.71343 0.65173 0.05882
 C51 C 0.73858 0.64913 0.05629
 C52 C 0.75079 0.66318 0.04128
 C53 C 0.73803 0.67918 0.02883
 C54 C 0.65590 0.70574 0.02706
 C55 C 0.63887 0.71894 0.03823
 C56 C 0.64616 0.73821 0.04992
 C57 C 0.67080 0.74397 0.05038
 C58 C 0.68792 0.73039 0.03971
 C59 C 0.68427 0.73435 -0.01779
 C60 C 0.66889 0.74759 -0.03089
 C61 C 0.65389 0.73755 -0.04692
 C62 C 0.65479 0.71406 -0.04965
 C63 C 0.66992 0.70087 -0.03642
 C64 C 0.73534 0.68524 -0.02935
 C65 C 0.74867 0.66902 -0.04094
 C66 C 0.74113 0.64646 -0.04117
 C67 C 0.72049 0.64027 -0.02907
 C68 C 0.70755 0.65637 -0.01704
 H69 H 0.68124 0.66867 0.04813
 H70 H 0.70342 0.64123 0.07022
 H71 H 0.77019 0.66180 0.03911
 H72 H 0.74783 0.68987 0.01746
 H73 H 0.64998 0.69098 0.01803
 H74 H 0.61997 0.71420 0.03759
 H75 H 0.70690 0.73482 0.04049
 H76 H 0.69588 0.74246 -0.00577
 H77 H 0.66881 0.76566 -0.02853
 H78 H 0.64348 0.70575 -0.06179
 H79 H 0.66981 0.68278 -0.03862
 H80 H 0.74100 0.70267 -0.02977
 H81 H 0.76441 0.67422 -0.05027
 H82 H 0.71436 0.62297 -0.02894
 H83 H 0.69157 0.65136 -0.00793
 H84 H 0.67686 0.75866 0.05942
 C85 C 0.69380 0.31136 1.00760
 C86 C 0.69456 0.31200 0.98508
 C87 C 0.70843 0.32956 0.97329
 C88 C 0.67963 0.29670 0.97121
 C89 C 0.67676 0.29636 1.01932
 C90 C 0.70808 0.32711 1.02157
 C91 C 0.70058 0.35203 0.97369
 C92 C 0.71316 0.36845 0.96185
 C93 C 0.73405 0.36269 0.94982
 C94 C 0.74204 0.34020 0.94972
 C95 C 0.72908 0.32369 0.96109
 C96 C 0.66400 0.30578 0.95519
 C97 C 0.64907 0.29179 0.94265
 C98 C 0.64937 0.26835 0.94592
 C99 C 0.66544 0.25920 0.96162
 C100 C 0.68061 0.27323 0.97397
 C101 C 0.68551 0.27796 1.03148
 C102 C 0.66945 0.26401 1.04287
 C103 C 0.64452 0.26875 1.04283
 C104 C 0.63586 0.28735 1.03080
 C105 C 0.65184 0.30091 1.01892
 C106 C 0.73322 0.32926 1.01900
 C107 C 0.74622 0.34460 1.03192
 C108 C 0.73440 0.35785 1.04805
 C109 C 0.70926 0.35512 1.05091
 C110 C 0.69632 0.34000 1.03781
 H111 H 0.68455 0.35675 0.98293
 H112 H 0.70668 0.38568 0.96224
 H113 H 0.75799 0.33532 0.94044
 H114 H 0.73523 0.30636 0.96056
 H115 H 0.66294 0.32381 0.95269
 H116 H 0.63693 0.29941 0.93071
 H117 H 0.69300 0.26578 0.98580
 H118 H 0.70474 0.27436 1.03200
 H119 H 0.67657 0.24986 1.05217
 H120 H 0.61671 0.29130 1.03047
 H121 H 0.64488 0.31518 1.00970
 H122 H 0.74281 0.31905 1.00700
 H123 H 0.76554 0.34594 1.02928
 H124 H 0.69935 0.36484 1.06310
 H125 H 0.67696 0.33862 1.04018
 H126 H 0.66633 0.24120 0.96434
 C127 C 0.30812 0.68584 1.01634
 C128 C 0.31044 0.68531 0.99384
 C129 C 0.29641 0.66899 0.98028
 C130 C 0.32738 0.70020 0.98153
 C131 C 0.32125 0.70221 1.03064
 C132 C 0.29366 0.66850 1.02791
 C133 C 0.30859 0.65405 0.96612
 C134 C 0.29564 0.63891 0.95298
 C135 C 0.27020 0.63842 0.95378
 C136 C 0.25803 0.65354 0.96787
 C137 C 0.27101 0.66882 0.98083
 C138 C 0.35175 0.70246 0.98789
 C139 C 0.36733 0.71637 0.97589
 C140 C 0.35910 0.72752 0.95679
 C141 C 0.33497 0.72474 0.95007
 C142 C 0.31924 0.71136 0.96240
 C143 C 0.33424 0.69434 1.04907
 C144 C 0.34775 0.70907 1.06208
 C145 C 0.34888 0.73218 1.05692
 C146 C 0.33513 0.74019 1.03885
 C147 C 0.32122 0.72541 1.02605
 C148 C 0.27117 0.67404 1.03713
 C149 C 0.25756 0.65767 1.04807
 C150 C 0.26667 0.63561 1.05076
 C151 C 0.28951 0.63034 1.04166
 C152 C 0.30268 0.64655 1.03010
 H153 H 0.32818 0.65405 0.96532
 H154 H 0.30558 0.62752 0.94231
 H155 H 0.23846 0.65378 0.96870
 H156 H 0.26123 0.68066 0.99114
 H157 H 0.35875 0.69340 1.00208
 H158 H 0.38597 0.71798 0.98121
 H159 H 0.30063 0.70970 0.95699
 H160 H 0.33449 0.67659 1.05313
 H161 H 0.35783 0.70208 1.07586
 H162 H 0.33516 0.75786 1.03444
 H163 H 0.31081 0.73201 1.01229
 H164 H 0.26406 0.69099 1.03560
 H165 H 0.24016 0.66252 1.05486
 H166 H 0.29720 0.61362 1.04320
 H167 H 0.32011 0.64210 1.02312
 H168 H 0.32818 0.73315 0.93540
 C169 C -0.01383 0.31660 0.32097
 C170 C 0.01081 0.31490 0.31970
 C171 C 0.02460 0.30106 0.33581
 C172 C 0.02545 0.32777 0.30338
 C173 C -0.02792 0.33306 0.30740
 C174 C -0.02786 0.30204 0.33637
 C175 C 0.02564 0.30738 0.35818
 C176 C 0.03917 0.29465 0.37323
 C177 C 0.05143 0.27514 0.36622
 C178 C 0.05022 0.26878 0.34383
 C179 C 0.03722 0.28187 0.32866
 C180 C 0.04517 0.34054 0.31082
 C181 C 0.05830 0.35381 0.29611
 C182 C 0.05200 0.35471 0.27357
 C183 C 0.03273 0.34135 0.26595
 C184 C 0.01976 0.32779 0.28068
 C185 C -0.04911 0.32614 0.29653
 C186 C -0.06227 0.34119 0.28338
 C187 C -0.05425 0.36347 0.28034
 C188 C -0.03332 0.37049 0.29174
 C189 C -0.02073 0.35565 0.30554
 C190 C -0.02506 0.27854 0.33605
 C191 C -0.03778 0.26504 0.35093
 C192 C -0.05419 0.27465 0.36614
 C193 C -0.05757 0.29820 0.36582
 C194 C -0.04447 0.31170 0.35117
 H195 H 0.01615 0.32228 0.36387
 H196 H 0.03977 0.29985 0.39042
 H197 H 0.05964 0.25390 0.33801
 H198 H 0.03670 0.27690 0.31141
 H199 H 0.05001 0.34075 0.32821
 H200 H 0.07304 0.36384 0.30256
 H201 H 0.00496 0.31767 0.27447
 H202 H -0.05529 0.30892 0.29796
 H203 H -0.07834 0.33507 0.27507
 H204 H -0.02676 0.38759 0.29031
 H205 H -0.00512 0.36176 0.31454
 H206 H -0.01298 0.27062 0.32426
 H207 H -0.03481 0.24702 0.35031
 H208 H -0.07005 0.30636 0.37711
 H209 H -0.04711 0.32978 0.35154
 H210 H 0.02759 0.34146 0.24864
 C211 C -0.01138 0.68478 0.68023
 C212 C 0.01320 0.68685 0.68135
 C213 C 0.02652 0.70087 0.66517
 C214 C 0.02829 0.67425 0.69759
 C215 C -0.02504 0.66844 0.69415
 C216 C -0.02586 0.69880 0.66458
 C217 C 0.02780 0.69442 0.64285
 C218 C 0.04097 0.70731 0.62776
 C219 C 0.05261 0.72709 0.63470
 C220 C 0.05113 0.73359 0.65704
 C221 C 0.03850 0.72035 0.67223
 C222 C 0.04816 0.66164 0.69002
 C223 C 0.06172 0.64855 0.70465
 C224 C 0.05569 0.64768 0.72724
 C225 C 0.03631 0.66093 0.73500
 C226 C 0.02291 0.67432 0.72034
 C227 C -0.04624 0.67542 0.70501
 C228 C -0.05921 0.66046 0.71828
 C229 C -0.05100 0.63820 0.72144
 C230 C -0.02997 0.63114 0.71015
 C231 C -0.01753 0.64591 0.69625
 C232 C -0.02387 0.72235 0.66457
 C233 C -0.03702 0.73532 0.64945
 C234 C -0.05306 0.72508 0.63435
 C235 C -0.05561 0.70147 0.63501
 C236 C -0.04209 0.68852 0.64990
 H237 H 0.01880 0.67929 0.63722
 H238 H 0.04179 0.70201 0.61061
 H239 H 0.06008 0.74868 0.66280
 H240 H 0.03778 0.72542 0.68946
 H241 H 0.05278 0.66139 0.67259
 H242 H 0.07654 0.63859 0.69810
 H243 H 0.00800 0.68433 0.72664
 H244 H -0.05264 0.69260 0.70342
 H245 H -0.07533 0.66663 0.72652
 H246 H -0.02324 0.61406 0.71171
 H247 H -0.00187 0.63977 0.68731
 H248 H -0.01208 0.73072 0.67627
 H249 H -0.03469 0.75341 0.64980
 H250 H -0.06777 0.69285 0.62381
 H251 H -0.04409 0.67039 0.64980
 H252 H 0.03138 0.66082 0.75235
 C253 C 1.01586 0.68008 0.31720
 C254 C 0.99108 0.67970 0.31685
 C255 C 0.97621 0.69522 0.33072
 C256 C 0.97735 0.66324 0.30311
 C257 C 1.03058 0.66599 0.30176
 C258 C 1.02954 0.69415 0.33340
 C259 C 0.95800 0.68635 0.34431
 C260 C 0.94427 0.70045 0.35792
 C261 C 0.94849 0.72377 0.35832
 C262 C 0.96639 0.73273 0.34435
 C263 C 0.97994 0.71861 0.33049
 C264 C 0.98303 0.64014 0.30347
 C265 C 0.97019 0.62502 0.29025
 C266 C 0.95076 0.63256 0.27718
 C267 C 0.94442 0.65545 0.27750
 C268 C 0.95773 0.67068 0.29020
 C269 C 1.02608 0.66595 0.27885
 C270 C 1.03887 0.65142 0.26483
 C271 C 1.05695 0.63696 0.27331
 C272 C 1.06220 0.63796 0.29615
 C273 C 1.04910 0.65222 0.31016
 C274 C 1.04922 0.70709 0.32622
 C275 C 1.06196 0.72064 0.34110
 C276 C 1.05493 0.72200 0.36350
 C277 C 1.03550 0.70859 0.37072
 C278 C 1.02343 0.69440 0.35599
 H279 H 0.95470 0.66839 0.34468
 H280 H 0.93064 0.69297 0.36845
 H281 H 0.96992 0.75065 0.34410
 H282 H 0.99354 0.72588 0.31978
 H283 H 0.99746 0.63382 0.31392
 H284 H 0.97516 0.60737 0.29053
 H285 H 0.95280 0.68835 0.28985
 H286 H 1.01230 0.67687 0.27189
 H287 H 1.03443 0.65150 0.24736
 H288 H 1.07603 0.62733 0.30344
 H289 H 1.05306 0.65210 0.32774
 H290 H 1.05456 0.70694 0.30896
 H291 H 1.07687 0.73055 0.33481
 H292 H 1.02980 0.70869 0.38788
 H293 H 1.00906 0.68380 0.36222
 H294 H 0.92950 0.66165 0.26755
 C295 C 1.00769 0.31951 0.68279
 C296 C 0.98310 0.31791 0.68440
 C297 C 0.96861 0.30151 0.67135
 C298 C 0.96921 0.33394 0.69827
 C299 C 1.02146 0.33532 0.69720
 C300 C 1.02200 0.30608 0.66652
 C301 C 0.94875 0.30923 0.65895
 C302 C 0.93570 0.29449 0.64555
 C303 C 0.94224 0.27164 0.64415
 C304 C 0.96165 0.26372 0.65712
 C305 C 0.97454 0.27848 0.67081
 C306 C 0.96752 0.35666 0.69217
 C307 C 0.95416 0.37173 0.70511
 C308 C 0.94276 0.36435 0.72456
 C309 C 0.94456 0.34158 0.73065
 C310 C 0.95738 0.32640 0.71738
 C311 C 1.01933 0.33445 0.72036
 C312 C 1.03188 0.34969 0.73371
 C313 C 1.04727 0.36580 0.72418
 C314 C 1.04991 0.36621 0.70101
 C315 C 1.03710 0.35114 0.68767
 C316 C 1.04335 0.29523 0.67333
 C317 C 1.05682 0.28227 0.65843
 C318 C 1.04895 0.27942 0.63640
 C319 C 1.02782 0.29079 0.62950
 C320 C 1.01489 0.30441 0.64423
 H321 H 0.94371 0.32686 0.65913
 H322 H 0.92085 0.30118 0.63583
 H323 H 0.96697 0.24617 0.65660
 H324 H 0.98945 0.27204 0.68061
 H325 H 0.97644 0.36264 0.67734
 H326 H 0.95311 0.38922 0.70013
 H327 H 0.95845 0.30885 0.72217
 H328 H 1.00793 0.32194 0.72812
 H329 H 1.02969 0.34872 0.75150
 H330 H 1.06164 0.37838 0.69314
 H331 H 1.03916 0.35198 0.66985
 H332 H 1.04945 0.29653 0.69034
 H333 H 1.07302 0.27397 0.66446
 H334 H 1.02137 0.28950 0.61261
 H335 H 0.99913 0.31343 0.63824
 H336 H 0.93580 0.33549 0.74551
 C337 C 0.30758 -0.00506 0.31112
 C338 C 0.30752 0.01783 0.31145
 C339 C 0.32289 0.03123 0.29619
 C340 C 0.29417 0.03039 0.32875
 C341 C 0.29308 -0.01859 0.32698
 C342 C 0.32418 -0.01766 0.29642
 C343 C 0.33954 0.04667 0.30489
 C344 C 0.35480 0.05875 0.29086
 C345 C 0.35381 0.05559 0.26780
 C346 C 0.33676 0.04048 0.25905
 C347 C 0.32126 0.02860 0.27311
 C348 C 0.30258 0.03042 0.35066
 C349 C 0.29024 0.04263 0.36692
 C350 C 0.26903 0.05457 0.36158
 C351 C 0.26054 0.05431 0.33963
 C352 C 0.27326 0.04258 0.32325
 C353 C 0.26790 -0.01574 0.32877
 C354 C 0.25463 -0.02849 0.34397
 C355 C 0.26626 -0.04458 0.35740
 C356 C 0.29140 -0.04759 0.35529
 C357 C 0.30463 -0.03474 0.34028
 C358 C 0.31533 -0.02822 0.27735
 C359 C 0.33098 -0.04032 0.26356
 C360 C 0.35564 -0.04287 0.26915
 C361 C 0.36425 -0.03239 0.28857
 C362 C 0.34873 -0.01963 0.30186
 H363 H 0.34111 0.04905 0.32261
 H364 H 0.36770 0.07025 0.29816
 H365 H 0.33532 0.03789 0.24135
 H366 H 0.30806 0.01730 0.26598
 H367 H 0.31879 0.02113 0.35508
 H368 H 0.29709 0.04250 0.38374
 H369 H 0.26666 0.04275 0.30636
 H370 H 0.25851 -0.00375 0.31832
 H371 H 0.23525 -0.02589 0.34505
 H372 H 0.30098 -0.05977 0.36539
 H373 H 0.32401 -0.03726 0.33928
 H374 H 0.29634 -0.02687 0.27305
 H375 H 0.32355 -0.04814 0.24886
 H376 H 0.38307 -0.03376 0.29345
 H377 H 0.35574 -0.01158 0.31662
 H378 H 0.24431 0.06351 0.33509
 C379 C 0.68950 -0.01624 0.68768
 C380 C 0.69213 0.00659 0.68843
 C381 C 0.67917 0.02117 0.70466
 C382 C 0.70659 0.01844 0.67139
 C383 C 0.70334 -0.03003 0.67138
 C384 C 0.67238 -0.02863 0.70232
 C385 C 0.66596 0.03980 0.69693
 C386 C 0.65259 0.05311 0.71151
 C387 C 0.65196 0.04807 0.73424
 C388 C 0.66574 0.02980 0.74215
 C389 C 0.67948 0.01662 0.72752
 C390 C 0.69840 0.01944 0.64942
 C391 C 0.71142 0.03148 0.63358
 C392 C 0.73308 0.04233 0.63937
 C393 C 0.74144 0.04097 0.66132
 C394 C 0.72807 0.02940 0.67730
 C395 C 0.72871 -0.02908 0.67045
 C396 C 0.74144 -0.04168 0.65471
 C397 C 0.72907 -0.05584 0.63988
 C398 C 0.70371 -0.05722 0.64128
 C399 C 0.69099 -0.04442 0.65686
 C400 C 0.68004 -0.04852 0.71277
 C401 C 0.66423 -0.06070 0.72620
 C402 C 0.64042 -0.05302 0.72993
 C403 C 0.63272 -0.03314 0.71925
 C404 C 0.64832 -0.02145 0.70517
 H405 H 0.66544 0.04376 0.67943
 H406 H 0.64221 0.06703 0.70481
 H407 H 0.66583 0.02562 0.75960
 H408 H 0.68996 0.00263 0.73395
 H409 H 0.68172 0.01120 0.64469
 H410 H 0.70463 0.03222 0.61676
 H411 H 0.73451 0.02885 0.69424
 H412 H 0.73866 -0.01855 0.68189
 H413 H 0.76098 -0.04042 0.65425
 H414 H 0.69361 -0.06796 0.63014
 H415 H 0.67143 -0.04552 0.65741
 H416 H 0.69839 -0.05462 0.71060
 H417 H 0.67096 -0.07590 0.73399
 H418 H 0.61444 -0.02682 0.72130
 H419 H 0.64155 -0.00674 0.69654
 H420 H 0.75799 0.04933 0.66623
 C421 C 0.30713 1.00781 0.69174
 C422 C 0.30624 0.98492 0.69099
 C423 C 0.32088 0.97058 0.70617
 C424 C 0.29242 0.97318 0.67347
 C425 C 0.29272 1.02213 0.67636
 C426 C 0.32445 1.01953 0.70643
 C427 C 0.33613 0.95387 0.69738
 C428 C 0.35050 0.94066 0.71131
 C429 C 0.35003 0.94390 0.73437
 C430 C 0.33439 0.96034 0.74321
 C431 C 0.31978 0.97339 0.72925
 C432 C 0.30051 0.97365 0.65147
 C433 C 0.28801 0.96186 0.63506
 C434 C 0.26694 0.94983 0.64035
 C435 C 0.25870 0.94967 0.66236
 C436 C 0.27159 0.96098 0.67888
 C437 C 0.26751 1.01975 0.67452
 C438 C 0.25437 1.03290 0.65946
 C439 C 0.26614 1.04897 0.64624
 C440 C 0.29129 1.05169 0.64856
 C441 C 0.30441 1.03842 0.66342
 C442 C 0.31606 1.03191 0.72465
 C443 C 0.33240 1.04329 0.73831
 C444 C 0.35727 1.04304 0.73344
 C445 C 0.36557 1.03080 0.71502
 C446 C 0.34930 1.01891 0.70176
 H447 H 0.33726 0.95130 0.67966
 H448 H 0.36233 0.92817 0.70393
 H449 H 0.33338 0.96309 0.76092
 H450 H 0.30765 0.98573 0.73647
 H451 H 0.31669 0.98289 0.64712
 H452 H 0.29467 0.96229 0.61821
 H453 H 0.26525 0.96040 0.69584
 H454 H 0.25800 1.00771 0.68473
 H455 H 0.23499 1.03053 0.65827
 H456 H 0.30096 1.06389 0.63865
 H457 H 0.32382 1.04063 0.66455
 H458 H 0.29689 1.03261 0.72834
 H459 H 0.32557 1.05275 0.75232
 H460 H 0.38466 1.03031 0.71098
 H461 H 0.35599 1.00952 0.68763
 H462 H 0.24261 0.94039 0.66687
 C463 C 0.69367 1.01438 0.30954
 C464 C 0.69123 0.99153 0.30949
 C465 C 0.67445 0.97950 0.29424
 C466 C 0.70482 0.97732 0.32556
 C467 C 0.70797 1.02574 0.32702
 C468 C 0.68075 1.02931 0.29364
 C469 C 0.65013 0.98618 0.29184
 C470 C 0.63468 0.97449 0.27757
 C471 C 0.64298 0.95538 0.26612
 C472 C 0.66706 0.94832 0.26900
 C473 C 0.68266 0.96035 0.28280
 C474 C 0.69222 0.96282 0.33975
 C475 C 0.70474 0.94942 0.35497
 C476 C 0.73014 0.95030 0.35631
 C477 C 0.74273 0.96462 0.34184
 C478 C 0.73020 0.97782 0.32646
 C479 C 0.73052 1.03512 0.32202
 C480 C 0.74387 1.04613 0.33843
 C481 C 0.73443 1.04875 0.35999
 C482 C 0.71157 1.03940 0.36474
 C483 C 0.69867 1.02776 0.34850
 C484 C 0.66715 1.04756 0.30171
 C485 C 0.65371 1.06104 0.28732
 C486 C 0.65345 1.05656 0.26447
 C487 C 0.66770 1.03875 0.25625
 C488 C 0.68147 1.02541 0.27068
 H489 H 0.64306 1.00037 0.30110
 H490 H 0.61608 0.98006 0.27592
 H491 H 0.67391 0.93363 0.26038
 H492 H 0.70123 0.95470 0.28456
 H493 H 0.67265 0.96206 0.33918
 H494 H 0.69448 0.93857 0.36585
 H495 H 0.74031 0.98838 0.31520
 H496 H 0.73785 1.03373 0.30544
 H497 H 0.76129 1.05308 0.33399
 H498 H 0.70364 1.04086 0.38108
 H499 H 0.68120 1.02065 0.35253
 H500 H 0.66631 1.05103 0.31929
 H501 H 0.64297 1.07461 0.29424
 H502 H 0.66809 1.03501 0.23870
 H503 H 0.69227 1.01176 0.26400
 H504 H 0.76230 0.96549 0.34225
 O505 O 0.86898 0.83387 0.47456
 O506 O 0.83694 0.86564 0.51817
 O507 O 0.86869 0.83323 0.51779
 O508 O 0.83715 0.86632 0.47495
 O509 O 0.80749 0.84148 0.47463
 O510 O 0.83939 0.80803 0.51696
 O511 O 0.80750 0.84057 0.51766
 O512 O 0.83936 0.80898 0.47401
 Cu513 Cu 0.85590 0.85228 0.49641
 Cu514 Cu 0.82047 0.82227 0.49576
 C515 C 0.85961 0.81598 0.46691
 C516 C 0.81677 0.85849 0.52533
 C517 C 0.85946 0.81496 0.52459
 C518 C 0.81691 0.85957 0.46757
 O519 O 0.15950 0.13274 0.52640
 O520 O 0.13042 0.16559 0.48187
 O521 O 0.16149 0.13306 0.48301
 O522 O 0.12817 0.16615 0.52470
 O523 O 0.15893 0.18970 0.52723
 O524 O 0.19124 0.15779 0.48410
 O525 O 0.15958 0.19085 0.48418
 O526 O 0.18989 0.15680 0.52701
 Cu527 Cu 0.14193 0.14684 0.50399
 Cu528 Cu 0.17793 0.17624 0.50571
 C529 C 0.17977 0.13907 0.53412
 C530 C 0.13991 0.18396 0.47567
 C531 C 0.18192 0.13996 0.47629
 C532 C 0.13789 0.18356 0.53302
 O533 O 0.13002 0.83748 0.51957
 O534 O 0.15891 0.87078 0.47548
 O535 O 0.12837 0.83695 0.47667
 O536 O 0.16047 0.87035 0.51887
 O537 O 0.19072 0.84592 0.51807
 O538 O 0.15971 0.81382 0.47443
 O539 O 0.18982 0.84707 0.47521
 O540 O 0.15972 0.81253 0.51752
 Cu541 Cu 0.14140 0.85639 0.49763
 Cu542 Cu 0.17805 0.82740 0.49627
 C543 C 0.13981 0.81920 0.52582
 C544 C 0.17942 0.86471 0.46803
 C545 C 0.13863 0.81973 0.46837
 C546 C 0.18099 0.86367 0.52577
 O547 O 0.87112 0.16134 0.52397
 O548 O 0.84117 0.12923 0.47944
 O549 O 0.87133 0.16270 0.48071
 O550 O 0.84076 0.12799 0.52279
 O551 O 0.80993 0.15182 0.52290
 O552 O 0.84077 0.18679 0.48140
 O553 O 0.81035 0.15305 0.48028
 O554 O 0.84034 0.18519 0.52447
 Cu555 Cu 0.85919 0.14291 0.50167
 Cu556 Cu 0.82233 0.17168 0.50227
 C557 C 0.86076 0.17873 0.53180
 C558 C 0.82056 0.13559 0.47246
 C559 C 0.86127 0.18070 0.47397
 C560 C 0.82005 0.13396 0.52988
 O561 O 0.47430 0.86855 0.84422
 O562 O 0.52515 0.84135 0.87369
 O563 O 0.52110 0.87124 0.84198
 O564 O 0.47826 0.83844 0.87573
 O565 O 0.47735 0.81223 0.84977
 O566 O 0.52335 0.84313 0.81807
 O567 O 0.52442 0.81340 0.84954
 O568 O 0.47626 0.84226 0.81837
 Cu569 Cu 0.49963 0.85763 0.86144
 Cu570 Cu 0.50038 0.82503 0.83143
 C571 C 0.46699 0.86025 0.82602
 C572 C 0.53314 0.82252 0.86679
 C573 C 0.52968 0.86262 0.82439
 C574 C 0.47037 0.81984 0.86835
 O575 O 0.52549 0.15861 0.12474
 O576 O 0.47864 0.12798 0.15623
 O577 O 0.47857 0.15766 0.12401
 O578 O 0.52604 0.12876 0.15615
 O579 O 0.52585 0.15667 0.18035
 O580 O 0.47621 0.18409 0.14970
 O581 O 0.47890 0.15486 0.18154
 O582 O 0.52297 0.18663 0.14874
 Cu583 Cu 0.50221 0.14042 0.13783
 Cu584 Cu 0.50093 0.17328 0.16760
 C585 C 0.53178 0.17808 0.13123
 C586 C 0.47104 0.13617 0.17441
 C587 C 0.46935 0.17578 0.13138
 C588 C 0.53423 0.13795 0.17358
 O589 O 0.52617 0.12505 0.84213
 O590 O 0.47750 0.15605 0.87119
 O591 O 0.47885 0.12448 0.84122
 O592 O 0.52485 0.15687 0.87199
 O593 O 0.52434 0.18278 0.84575
 O594 O 0.47971 0.14986 0.81449
 O595 O 0.47744 0.18156 0.84457
 O596 O 0.52643 0.15119 0.81611
 Cu597 Cu 0.50183 0.13802 0.85931
 Cu598 Cu 0.50191 0.16894 0.82761
 C599 C 0.53456 0.13292 0.82415
 C600 C 0.46925 0.17412 0.86279
 C601 C 0.47172 0.13158 0.82246
 C602 C 0.53233 0.17540 0.86408
 O603 O 0.47198 0.84409 0.12880
 O604 O 0.51877 0.87668 0.15828
 O605 O 0.51939 0.84539 0.12762
 O606 O 0.47182 0.87511 0.15911
 O607 O 0.47556 0.85010 0.18600
 O608 O 0.51943 0.81822 0.15259
 O609 O 0.52231 0.84931 0.18286
 O610 O 0.47274 0.81877 0.15558
 Cu611 Cu 0.49538 0.86293 0.14078
 Cu612 Cu 0.49765 0.83146 0.17185
 C613 C 0.46420 0.82599 0.13738
 C614 C 0.52854 0.86846 0.17555
 C615 C 0.52710 0.82650 0.13456
 C616 C 0.46608 0.86791 0.17818
 O617 O 0.84118 0.48354 0.86889
 O618 O 0.87343 0.52546 0.83513
 O619 O 0.84396 0.52758 0.86922
 O620 O 0.87044 0.48196 0.83565
 O621 O 0.84016 0.48508 0.81188
 O622 O 0.81198 0.52825 0.84722
 O623 O 0.84135 0.52889 0.81350
 O624 O 0.81035 0.48493 0.84558
 Cu625 Cu 0.86037 0.50458 0.85459
 Cu626 Cu 0.82285 0.50698 0.82720
 C627 C 0.82037 0.47693 0.86281
 C628 C 0.86285 0.53430 0.81858
 C629 C 0.82319 0.53529 0.86419
 C630 C 0.85995 0.47599 0.81790
 O631 O 0.12648 0.51713 0.16288
 O632 O 0.15585 0.47285 0.12921
 O633 O 0.12544 0.47308 0.16229
 O634 O 0.15677 0.51692 0.12996
 O635 O 0.18775 0.51509 0.15307
 O636 O 0.15593 0.47244 0.18599
 O637 O 0.18615 0.47162 0.15308
 O638 O 0.15726 0.51618 0.18624
 Cu639 Cu 0.13804 0.49509 0.14372
 Cu640 Cu 0.17480 0.49378 0.17198
 C641 C 0.13694 0.52420 0.18028
 C642 C 0.17603 0.46472 0.13548
 C643 C 0.13539 0.46537 0.17970
 C644 C 0.17771 0.52326 0.13594
 O645 O 0.87161 0.47577 0.16497
 O646 O 0.84171 0.52036 0.13225
 O647 O 0.87225 0.51892 0.16517
 O648 O 0.84134 0.47610 0.13148
 O649 O 0.81045 0.47663 0.15469
 O650 O 0.84148 0.51925 0.18855
 O651 O 0.81108 0.52036 0.15575
 O652 O 0.84048 0.47533 0.18793
 Cu653 Cu 0.85970 0.49772 0.14595
 Cu654 Cu 0.82278 0.49787 0.17405
 C655 C 0.86123 0.46820 0.18217
 C656 C 0.82139 0.52810 0.13861
 C657 C 0.86224 0.52619 0.18269
 C658 C 0.82064 0.46908 0.13735
 O659 O 0.12587 0.48195 0.83506
 O660 O 0.15854 0.52437 0.86810
 O661 O 0.12735 0.52598 0.83590
 O662 O 0.15716 0.48076 0.86769
 O663 O 0.18624 0.47903 0.84263
 O664 O 0.15778 0.52576 0.81216
 O665 O 0.18900 0.52278 0.84445
 O666 O 0.15531 0.48218 0.81033
 Cu667 Cu 0.13916 0.50328 0.85409
 Cu668 Cu 0.17509 0.50238 0.82497
 C669 C 0.13494 0.47503 0.81695
 C670 C 0.17946 0.53059 0.86199
 C671 C 0.13765 0.53370 0.81873
 C672 C 0.17673 0.47218 0.86052
 C673 C 0.22435 0.39862 0.08444
 N674 N 0.21385 0.38871 0.06659
 N675 N 0.22611 0.37377 0.05443
 C676 C 0.24935 0.36825 0.05961
 N677 N 0.25972 0.37818 0.07751
 N678 N 0.24747 0.39301 0.08969
 C679 C 0.21129 0.41543 0.09778
 N680 N 0.22179 0.42414 0.11621
 N681 N 0.21042 0.43970 0.12823
 C682 C 0.18813 0.44723 0.12225
 N683 N 0.17756 0.43852 0.10383
 N684 N 0.18893 0.42287 0.09182
 C685 C 0.77508 0.59836 0.09156
 N686 N 0.78641 0.60960 0.07499
 N687 N 0.77496 0.62590 0.06393
 C688 C 0.75173 0.63154 0.06897
 N689 N 0.74051 0.62028 0.08561
 N690 N 0.75196 0.60407 0.09670
 C691 C 0.78737 0.58017 0.10371
 N692 N 0.77626 0.57013 0.12111
 N693 N 0.78714 0.55355 0.13215
 C694 C 0.80952 0.54630 0.12617
 N695 N 0.82068 0.55630 0.10873
 N696 N 0.80980 0.57296 0.09771
 C697 C 0.77112 0.41156 0.91326
 N698 N 0.74683 0.41313 0.91627
 N699 N 0.73510 0.39771 0.92808
 C700 C 0.74717 0.37999 0.93712
 N701 N 0.77147 0.37838 0.93401
 N702 N 0.78325 0.39396 0.92242
 C703 C 0.78397 0.42854 0.90019
 N704 N 0.80830 0.43102 0.90215
 N705 N 0.81991 0.44653 0.89032
 C706 C 0.80764 0.45991 0.87591
 N707 N 0.78334 0.45733 0.87385
 N708 N 0.77170 0.44201 0.88587
 C709 C 0.23132 0.59281 0.91438
 N710 N 0.25527 0.59626 0.91084
 N711 N 0.26760 0.61070 0.92336
 C712 C 0.25646 0.62233 0.93988
 N713 N 0.23246 0.61887 0.94335
 N714 N 0.22014 0.60436 0.93089
 C715 C 0.21777 0.57678 0.90066
 N716 N 0.19445 0.57164 0.90555
 N717 N 0.18223 0.55695 0.89321
 C718 C 0.19285 0.54693 0.87547
 N719 N 0.21614 0.55212 0.87053
 N720 N 0.22839 0.56675 0.88292
 C721 C 0.09076 0.23632 0.41176
 N722 N 0.08911 0.25900 0.41419
 N723 N 0.07654 0.27133 0.39975
 C724 C 0.06540 0.26149 0.38219
 N725 N 0.06724 0.23882 0.37968
 N726 N 0.07955 0.22645 0.39428
 C727 C 0.10403 0.22265 0.42799
 N728 N 0.09954 0.20028 0.42990
 N729 N 0.11107 0.18795 0.44505
 C730 C 0.12774 0.19747 0.45863
 N731 N 0.13241 0.21980 0.45659
 N732 N 0.12066 0.23219 0.44162
 C733 C 0.09118 0.76629 0.58925
 N734 N 0.07959 0.77607 0.60659
 N735 N 0.06749 0.76358 0.62115
 C736 C 0.06626 0.74088 0.61872
 N737 N 0.07777 0.73113 0.60129
 N738 N 0.09012 0.74359 0.58689
 C739 C 0.10427 0.78009 0.57310
 N740 N 0.12124 0.77074 0.55965
 N741 N 0.13288 0.78327 0.54480
 C742 C 0.12773 0.80553 0.54270
 N743 N 0.11071 0.81486 0.55610
 N744 N 0.09930 0.80239 0.57113
 C745 C 0.90953 0.76462 0.40261
 N746 N 0.90214 0.74336 0.39805
 N747 N 0.91441 0.73052 0.38385
 C748 C 0.93449 0.73844 0.37353
 N749 N 0.94176 0.75981 0.37798
 N750 N 0.92954 0.77264 0.39228
 C751 C 0.89631 0.77838 0.41885
 N752 N 0.90499 0.79865 0.42551
 N753 N 0.89326 0.81073 0.44074
 C754 C 0.87238 0.80301 0.44979
 N755 N 0.86365 0.78281 0.44303
 N756 N 0.87543 0.77071 0.42788
 C757 C 0.90636 0.23000 0.59862
 N758 N 0.92716 0.22296 0.60846
 N759 N 0.93837 0.23597 0.62324
 C760 C 0.92923 0.25653 0.62868
 N761 N 0.90834 0.26341 0.61889
 N762 N 0.89710 0.25040 0.60419
 C763 C 0.89432 0.21620 0.58171
 N764 N 0.87303 0.22313 0.57271
 N765 N 0.86230 0.21109 0.55693
 C766 C 0.87251 0.19170 0.54947
 N767 N 0.89379 0.18471 0.55849
 N768 N 0.90450 0.19675 0.57434
 C769 C 0.40252 0.09001 0.22673
 N770 N 0.38979 0.07224 0.21879
 N771 N 0.37412 0.06142 0.23174
 C772 C 0.37067 0.06790 0.25311
 N773 N 0.38344 0.08570 0.26095
 N774 N 0.39899 0.09657 0.24801
 C775 C 0.42005 0.10196 0.21277
 N776 N 0.43080 0.12094 0.22039
 N777 N 0.44693 0.13180 0.20806
 C778 C 0.45303 0.12404 0.18766
 N779 N 0.44231 0.10503 0.17998
 N780 N 0.42606 0.09419 0.19231
 C781 C 0.60552 0.08545 0.77536
 N782 N 0.61143 0.09295 0.75486
 N783 N 0.62649 0.08124 0.74206
 C784 C 0.63635 0.06157 0.74922
 N785 N 0.63065 0.05417 0.76987
 N786 N 0.61548 0.06587 0.78270
 C787 C 0.58787 0.09804 0.78876
 N788 N 0.57986 0.08996 0.80848
 N789 N 0.56303 0.10114 0.81996
 C790 C 0.55367 0.12077 0.81212
 N791 N 0.56183 0.12886 0.79251
 N792 N 0.57857 0.11770 0.78104
 C793 C 0.39691 0.90653 0.77511
 N794 N 0.38493 0.92474 0.78325
 N795 N 0.36978 0.93644 0.77043
 C796 C 0.36610 0.93045 0.74896
 N797 N 0.37805 0.91216 0.74092
 N798 N 0.39311 0.90042 0.75374
 C799 C 0.41432 0.89404 0.78885
 N800 N 0.42522 0.87519 0.78087
 N801 N 0.44170 0.86426 0.79289
 C802 C 0.44797 0.87179 0.81333
 N803 N 0.43699 0.89058 0.82138
 N804 N 0.42043 0.90149 0.80937
 C805 C 0.59600 0.91867 0.22534
 N806 N 0.61464 0.90830 0.23592
 N807 N 0.62969 0.92003 0.24869
 C808 C 0.62651 0.94253 0.25159
 N809 N 0.60780 0.95288 0.24105
 N810 N 0.59289 0.94118 0.22807
 C811 C 0.57910 0.90558 0.21171
 N812 N 0.56432 0.91594 0.19687
 N813 N 0.54857 0.90405 0.18495
 C814 C 0.54688 0.88141 0.18762
 N815 N 0.56166 0.87107 0.20246
 N816 N 0.57759 0.88292 0.21418
 C817 C 0.39830 0.22499 0.90825
 N818 N 0.38443 0.21591 0.92447
 N819 N 0.36870 0.22865 0.93566
 C820 C 0.36632 0.25104 0.93123
 N821 N 0.38027 0.25994 0.91489
 N822 N 0.39584 0.24720 0.90361
 C823 C 0.41612 0.21129 0.89613
 N824 N 0.42211 0.19023 0.90306
 N825 N 0.43893 0.17827 0.89239
 C826 C 0.45025 0.18689 0.87433
 N827 N 0.44411 0.20786 0.86734
 N828 N 0.42743 0.21985 0.87807
 C829 C 0.60499 0.77563 0.91505
 N830 N 0.61007 0.75394 0.90971
 N831 N 0.62576 0.74200 0.92168
 C832 C 0.63709 0.75126 0.93944
 N833 N 0.63214 0.77307 0.94467
 N834 N 0.61635 0.78502 0.93273
 C835 C 0.58697 0.78834 0.90218
 N836 N 0.57979 0.80927 0.90854
 N837 N 0.56279 0.82032 0.89717
 C838 C 0.55243 0.81085 0.87902
 N839 N 0.55973 0.79000 0.87262
 N840 N 0.57666 0.77895 0.88401
 C841 C 0.39448 0.77374 0.09237
 N842 N 0.39127 0.75199 0.09843
 N843 N 0.37636 0.73872 0.08711
 C844 C 0.36390 0.74662 0.06929
 N845 N 0.36696 0.76855 0.06341
 N846 N 0.38201 0.78182 0.07467
 C847 C 0.41182 0.78789 0.10443
 N848 N 0.41805 0.80857 0.09676
 N849 N 0.43458 0.82085 0.10734
 C850 C 0.44540 0.81293 0.12601
 N851 N 0.43901 0.79235 0.13374
 N852 N 0.42259 0.78005 0.12313
 C853 C 0.59689 0.22940 0.08018
 N854 N 0.59277 0.25175 0.07738
 N855 N 0.60780 0.26418 0.06530
 C856 C 0.62767 0.25478 0.05578
 N857 N 0.63185 0.23242 0.05868
 N858 N 0.61664 0.21991 0.07054
 C859 C 0.58028 0.21586 0.09359
 N860 N 0.57936 0.19314 0.09126
 N861 N 0.56391 0.18101 0.10325
 C862 C 0.54910 0.19117 0.11819
 N863 N 0.55019 0.21386 0.12062
 N864 N 0.56540 0.22600 0.10845
 C865 C 0.22798 0.08773 0.59956
 N866 N 0.25121 0.09273 0.60489
 N867 N 0.26321 0.08048 0.61977
 C868 C 0.25247 0.06277 0.63000
 N869 N 0.22915 0.05785 0.62471
 N870 N 0.21714 0.07007 0.60975
 C871 C 0.21508 0.10114 0.58282
 N872 N 0.19258 0.09528 0.57583
 N873 N 0.18122 0.10736 0.56035
 C874 C 0.19194 0.12576 0.55136
 N875 N 0.21437 0.13163 0.55842
 N876 N 0.22574 0.11953 0.57383
 C877 C 0.77168 0.08462 0.40754
 N878 N 0.74845 0.07824 0.41103
 N879 N 0.73657 0.06639 0.39580
 C880 C 0.74728 0.06073 0.37630
 N881 N 0.77057 0.06724 0.37286
 N882 N 0.78259 0.07880 0.38824
 C883 C 0.78455 0.09789 0.42428
 N884 N 0.80909 0.09733 0.42562
 N885 N 0.82064 0.10927 0.44104
 C886 C 0.80806 0.12247 0.45539
 N887 N 0.78356 0.12316 0.45391
 N888 N 0.77200 0.11097 0.43873
 C889 C 0.76689 0.90723 0.59161
 N890 N 0.74336 0.90263 0.59610
 N891 N 0.73139 0.91433 0.61144
 C892 C 0.74249 0.93101 0.62298
 N893 N 0.76609 0.93551 0.61851
 N894 N 0.77804 0.92388 0.60309
 C895 C 0.77998 0.89448 0.57451
 N896 N 0.80265 0.90055 0.56831
 N897 N 0.81439 0.88909 0.55263
 C898 C 0.80392 0.87110 0.54266
 N899 N 0.78128 0.86499 0.54891
 N900 N 0.76951 0.87650 0.56451
 C901 C 0.22777 0.91669 0.40357
 N902 N 0.25110 0.91170 0.39852
 N903 N 0.26320 0.92398 0.38384
 C904 C 0.25247 0.94173 0.37354
 N905 N 0.22905 0.94666 0.37854
 N906 N 0.21693 0.93440 0.39331
 C907 C 0.21479 0.90315 0.42004
 N908 N 0.19211 0.90885 0.42676
 N909 N 0.18071 0.89660 0.44201
 C910 C 0.19158 0.87820 0.45102
 N911 N 0.21419 0.87250 0.44423
 N912 N 0.22559 0.88476 0.42906
 C913 C 0.08457 0.41210 0.76409
 N914 N 0.09104 0.40888 0.74263
 N915 N 0.07919 0.39420 0.72998
 C916 C 0.06049 0.38207 0.73830
 N917 N 0.05410 0.38528 0.75982
 N918 N 0.06587 0.40005 0.77245
 C919 C 0.09763 0.42839 0.77795
 N920 N 0.08952 0.43375 0.79854
 N921 N 0.10136 0.44863 0.81099
 C922 C 0.12179 0.45861 0.80335
 N923 N 0.12991 0.45319 0.78281
 N924 N 0.11802 0.43841 0.77032
 C925 C 0.09189 0.59087 0.23310
 N926 N 0.09849 0.59339 0.25460
 N927 N 0.08732 0.60836 0.26750
 C928 C 0.06918 0.62157 0.25944
 N929 N 0.06278 0.61911 0.23780
 N930 N 0.07384 0.60402 0.22492
 C931 C 0.10382 0.57387 0.21912
 N932 N 0.09481 0.56861 0.19883
 N933 N 0.10535 0.55281 0.18642
 C934 C 0.12538 0.54178 0.19379
 N935 N 0.13445 0.54713 0.21402
 N936 N 0.12382 0.56282 0.22648
 C937 C 0.90972 0.40671 0.23806
 N938 N 0.89960 0.38686 0.24405
 N939 N 0.91127 0.37285 0.25763
 C940 C 0.93332 0.37830 0.26609
 N941 N 0.94324 0.39834 0.26018
 N942 N 0.93176 0.41218 0.24632
 C943 C 0.89704 0.42212 0.22300
 N944 N 0.90972 0.43653 0.21004
 N945 N 0.89826 0.45084 0.19662
 C946 C 0.87371 0.45147 0.19593
 N947 N 0.86102 0.43713 0.20897
 N948 N 0.87249 0.42256 0.22212
 C949 C 0.91269 0.59503 0.76328
 N950 N 0.90272 0.61506 0.75742
 N951 N 0.91450 0.62904 0.74401
 C952 C 0.93655 0.62341 0.73560
 N953 N 0.94635 0.60321 0.74140
 N954 N 0.93475 0.58937 0.75509
 C955 C 0.89976 0.57963 0.77808
 N956 N 0.91211 0.56432 0.79042
 N957 N 0.90034 0.55017 0.80368
 C958 C 0.87581 0.55062 0.80483
 N959 N 0.86346 0.56587 0.79242
 N960 N 0.87524 0.58026 0.77942
 C961 C 0.77723 0.59911 0.91934
 N962 N 0.75309 0.59743 0.92305
 N963 N 0.74174 0.61232 0.93588
 C964 C 0.75404 0.62961 0.94529
 N965 N 0.77821 0.63133 0.94151
 N966 N 0.78963 0.61626 0.92887
 C967 C 0.78946 0.58278 0.90493
 N968 N 0.81382 0.57975 0.90591
 N969 N 0.82469 0.56461 0.89294
 C970 C 0.81159 0.55222 0.87834
 N971 N 0.78728 0.55540 0.87727
 N972 N 0.77640 0.57031 0.89041
 C973 C 0.22519 0.40509 0.90980
 N974 N 0.22807 0.40753 0.93200
 N975 N 0.24052 0.39232 0.94362
 C976 C 0.25025 0.37398 0.93350
 N977 N 0.24717 0.37146 0.91132
 N978 N 0.23501 0.38682 0.89966
 C979 C 0.21211 0.42215 0.89691
 N980 N 0.21615 0.42433 0.87485
 N981 N 0.20480 0.44025 0.86322
 C982 C 0.18874 0.45432 0.87319
 N983 N 0.18451 0.45199 0.89521
 N984 N 0.19611 0.43627 0.90690
 C985 C 0.22831 0.58794 0.08577
 N986 N 0.25153 0.58397 0.07961
 N987 N 0.26378 0.59925 0.06807
 C988 C 0.25345 0.61929 0.06250
 N989 N 0.23017 0.62321 0.06881
 N990 N 0.21778 0.60779 0.08007
 C991 C 0.21501 0.57116 0.09872
 N992 N 0.19045 0.57045 0.09824
 N993 N 0.17850 0.55508 0.10996
 C994 C 0.19069 0.54012 0.12285
 N995 N 0.21523 0.54095 0.12344
 N996 N 0.22718 0.55608 0.11147
 C997 C 0.77170 0.40415 0.08586
 N998 N 0.74780 0.40045 0.08932
 N999 N 0.73583 0.38550 0.07712
 C1000 C 0.74725 0.37351 0.06100
 N1001 N 0.77126 0.37721 0.05765
 N1002 N 0.78324 0.39226 0.06979
 C1003 C 0.78467 0.42084 0.09927
 N1004 N 0.80783 0.42662 0.09444
 N1005 N 0.81935 0.44200 0.10655
 C1006 C 0.80814 0.45208 0.12397
 N1007 N 0.78502 0.44623 0.12881
 N1008 N 0.77348 0.43095 0.11666
 C1009 C 0.90918 0.76325 0.58871
 N1010 N 0.90509 0.74082 0.59054
 N1011 N 0.91727 0.72851 0.60527
 C1012 C 0.93390 0.73812 0.61890
 N1013 N 0.93780 0.76065 0.61707
 N1014 N 0.92576 0.77294 0.60224
 C1015 C 0.89607 0.77677 0.57222
 N1016 N 0.90314 0.79812 0.56760
 N1017 N 0.89147 0.81029 0.55241
 C1018 C 0.87220 0.80161 0.54142
 N1019 N 0.86505 0.78030 0.54612
 N1020 N 0.87684 0.76807 0.56119
 C1021 C 0.90931 0.23482 0.41101
 N1022 N 0.92631 0.22578 0.39743
 N1023 N 0.93793 0.23861 0.38284
 C1024 C 0.93320 0.26105 0.38133
 N1025 N 0.91616 0.27002 0.39502
 N1026 N 0.90439 0.25717 0.40950
 C1027 C 0.89664 0.22069 0.42721
 N1028 N 0.87693 0.22863 0.43817
 N1029 N 0.86554 0.21583 0.45295
 C1030 C 0.87358 0.19468 0.45744
 N1031 N 0.89333 0.18676 0.44653
 N1032 N 0.90460 0.19950 0.43162
 C1033 C 0.08642 0.23803 0.59345
 N1034 N 0.06425 0.24615 0.58792
 N1035 N 0.05227 0.25971 0.60170
 C1036 C 0.06182 0.26544 0.62169
 N1037 N 0.08399 0.25711 0.62718
 N1038 N 0.09614 0.24383 0.61327
 C1039 C 0.09977 0.22342 0.57813
 N1040 N 0.12432 0.22276 0.57852
 N1041 N 0.13649 0.20996 0.56419
 C1042 C 0.12451 0.19706 0.54924
 N1043 N 0.09995 0.19751 0.54902
 N1044 N 0.08779 0.21059 0.56311
 C1045 C 0.08992 0.76468 0.40680
 N1046 N 0.06885 0.75468 0.41266
 N1047 N 0.05769 0.74074 0.39875
 C1048 C 0.06694 0.73648 0.37829
 N1049 N 0.08797 0.74672 0.37245
 N1050 N 0.09936 0.76037 0.38650
 C1051 C 0.10249 0.77957 0.42234
 N1052 N 0.12696 0.78135 0.42183
 N1053 N 0.13848 0.79427 0.43645
 C1054 C 0.12589 0.80619 0.45181
 N1055 N 0.10139 0.80463 0.45215
 N1056 N 0.08990 0.79141 0.43777
 C1057 C 0.59435 0.91175 0.77089
 N1058 N 0.58829 0.93263 0.76362
 N1059 N 0.60308 0.94395 0.75027
 C1060 C 0.62469 0.93500 0.74392
 N1061 N 0.63074 0.91413 0.75144
 N1062 N 0.61579 0.90266 0.76450
 C1063 C 0.57785 0.89903 0.78515
 N1064 N 0.57830 0.87619 0.78512
 N1065 N 0.56295 0.86458 0.79767
 C1066 C 0.54691 0.87541 0.81099
 N1067 N 0.54664 0.89827 0.81120
 N1068 N 0.56172 0.90988 0.79838
 C1069 C 0.40141 0.91888 0.23033
 N1070 N 0.37904 0.92460 0.22290
 N1071 N 0.36420 0.93686 0.23547
 C1072 C 0.37127 0.94421 0.25581
 N1073 N 0.39381 0.93858 0.26305
 N1074 N 0.40851 0.92602 0.25064
 C1075 C 0.41774 0.90522 0.21669
 N1076 N 0.43477 0.89196 0.22636
 N1077 N 0.44987 0.87973 0.21404
 C1078 C 0.44871 0.88060 0.19161
 N1079 N 0.43175 0.89395 0.18191
 N1080 N 0.41638 0.90590 0.19425
 C1081 C 0.60620 0.09325 0.22359
 N1082 N 0.61695 0.07414 0.21603
 N1083 N 0.63240 0.06272 0.22881
 C1084 C 0.63760 0.06993 0.24963
 N1085 N 0.62694 0.08917 0.25704
 N1086 N 0.61159 0.10062 0.24426
 C1087 C 0.58823 0.10529 0.21008
 N1088 N 0.57820 0.12478 0.21752
 N1089 N 0.56118 0.13531 0.20577
 C1090 C 0.55349 0.12669 0.18619
 N1091 N 0.56357 0.10724 0.17869
 N1092 N 0.58065 0.09674 0.19042
 C1093 C 0.40579 0.08033 0.77202
 N1094 N 0.40937 0.07784 0.74992
 N1095 N 0.39406 0.06577 0.73773
 C1096 C 0.37443 0.05597 0.74713
 N1097 N 0.37079 0.05857 0.76924
 N1098 N 0.38628 0.07040 0.78149
 C1099 C 0.42269 0.09372 0.78530
 N1100 N 0.42433 0.09081 0.80757
 N1101 N 0.43999 0.10283 0.81948
 C1102 C 0.45430 0.11839 0.80957
 N1103 N 0.45250 0.12140 0.78735
 N1104 N 0.43710 0.10919 0.77542
 C1105 C 0.59528 0.77660 0.08498
 N1106 N 0.61466 0.78665 0.07541
 N1107 N 0.63091 0.77446 0.06427
 C1108 C 0.62817 0.75184 0.06206
 N1109 N 0.60867 0.74188 0.07150
 N1110 N 0.59261 0.75401 0.08286
 C1111 C 0.57764 0.78977 0.09776
 N1112 N 0.56336 0.77944 0.11291
 N1113 N 0.54740 0.79125 0.12470
 C1114 C 0.54491 0.81376 0.12159
 N1115 N 0.55907 0.82410 0.10633
 N1116 N 0.57529 0.81233 0.09472
 C1117 C 0.40158 0.22449 0.08030
 N1118 N 0.38229 0.23482 0.08987
 N1119 N 0.36716 0.24729 0.07779
 C1120 C 0.37096 0.25015 0.05575
 N1121 N 0.39032 0.23988 0.04620
 N1122 N 0.40528 0.22717 0.05823
 C1123 C 0.41852 0.21117 0.09369
 N1124 N 0.43337 0.19579 0.08402
 N1125 N 0.44920 0.18413 0.09614
 C1126 C 0.45094 0.18763 0.11830
 N1127 N 0.43611 0.20303 0.12796
 N1128 N 0.42006 0.21448 0.11589
 C1129 C 0.60099 0.22751 0.91056
 N1130 N 0.61314 0.21920 0.92833
 N1131 N 0.62874 0.23205 0.93943
 C1132 C 0.63269 0.25373 0.93323
 N1133 N 0.62053 0.26195 0.91541
 N1134 N 0.60504 0.24909 0.90426
 C1135 C 0.58345 0.21365 0.89844
 N1136 N 0.57291 0.22166 0.87971
 N1137 N 0.55672 0.20938 0.86877
 C1138 C 0.55036 0.18867 0.87620
 N1139 N 0.56089 0.18063 0.89495
 N1140 N 0.57718 0.19289 0.90586
 C1141 C 0.40588 0.76774 0.91936
 N1142 N 0.40872 0.76600 0.94164
 N1143 N 0.39395 0.75311 0.95355
 C1144 C 0.37562 0.74169 0.94367
 N1145 N 0.37273 0.74356 0.92140
 N1146 N 0.38767 0.75623 0.90946
 C1147 C 0.42236 0.78158 0.90612
 N1148 N 0.42436 0.77819 0.88396
 N1149 N 0.43962 0.79044 0.87192
 C1150 C 0.45318 0.80674 0.88156
 N1151 N 0.45104 0.81027 0.90369
 N1152 N 0.43600 0.79783 0.91578
 C1153 C 0.76749 0.91117 0.40317
 N1154 N 0.77888 0.92805 0.39225
 N1155 N 0.76706 0.94039 0.37729
 C1156 C 0.74337 0.93640 0.37274
 N1157 N 0.73202 0.91951 0.38372
 N1158 N 0.74385 0.90710 0.39860
 C1159 C 0.78044 0.89766 0.41977
 N1160 N 0.76975 0.87946 0.42913
 N1161 N 0.78142 0.86726 0.44429
 C1162 C 0.80417 0.87287 0.45070
 N1163 N 0.81486 0.89108 0.44135
 N1164 N 0.80322 0.90323 0.42612
 C1165 C 0.23006 0.91357 0.59139
 N1166 N 0.21780 0.92297 0.60855
 N1167 N 0.22952 0.93446 0.62417
 C1168 C 0.25389 0.93720 0.62305
 N1169 N 0.26610 0.92792 0.60577
 N1170 N 0.25442 0.91620 0.59030
 C1171 C 0.21726 0.90063 0.57434
 N1172 N 0.22948 0.88590 0.56124
 N1173 N 0.21788 0.87402 0.54585
 C1174 C 0.19368 0.87664 0.54283
 N1175 N 0.18147 0.89147 0.55584
 N1176 N 0.19303 0.90316 0.57141
 C1177 C 0.23188 0.09085 0.41049
 N1178 N 0.21969 0.08130 0.39339
 N1179 N 0.23151 0.06987 0.37776
 C1180 C 0.25593 0.06733 0.37880
 N1181 N 0.26808 0.07678 0.39599
 N1182 N 0.25630 0.08845 0.41147
 C1183 C 0.21890 0.10359 0.42760
 N1184 N 0.23086 0.11838 0.44077
 N1185 N 0.21905 0.13007 0.45622
 C1186 C 0.19492 0.12717 0.45924
 N1187 N 0.18299 0.11227 0.44617
 N1188 N 0.19475 0.10078 0.43054
 C1189 C 0.77079 0.08045 0.59243
 N1190 N 0.74641 0.07818 0.59110
 N1191 N 0.73449 0.06584 0.60589
 C1192 C 0.74648 0.05551 0.62272
 N1193 N 0.77089 0.05786 0.62409
 N1194 N 0.78285 0.07000 0.60914
 C1195 C 0.78375 0.09428 0.57621
 N1196 N 0.80803 0.09201 0.57336
 N1197 N 0.81965 0.10456 0.55851
 C1198 C 0.80744 0.12001 0.54620
 N1199 N 0.78321 0.12235 0.54916
 N1200 N 0.77156 0.10963 0.56380
 C1201 C 0.91258 0.58756 0.23696
 N1202 N 0.90104 0.60519 0.24668
 N1203 N 0.91319 0.61955 0.25944
 C1204 C 0.93725 0.61663 0.26318
 N1205 N 0.94872 0.59889 0.25357
 N1206 N 0.93664 0.58470 0.24059
 C1207 C 0.89935 0.57187 0.22270
 N1208 N 0.91141 0.55891 0.20781
 N1209 N 0.89949 0.54458 0.19486
 C1210 C 0.87510 0.54250 0.19652
 N1211 N 0.86302 0.55538 0.21148
 N1212 N 0.87492 0.56994 0.22424
 C1213 C 0.90521 0.41042 0.76435
 N1214 N 0.90575 0.41300 0.74202
 N1215 N 0.91767 0.39832 0.72936
 C1216 C 0.92926 0.38040 0.73853
 N1217 N 0.92851 0.37773 0.76086
 N1218 N 0.91683 0.39255 0.77355
 C1219 C 0.89286 0.42701 0.77836
 N1220 N 0.89853 0.42879 0.80016
 N1221 N 0.88794 0.44436 0.81277
 C1222 C 0.87107 0.45851 0.80410
 N1223 N 0.86521 0.45659 0.78235
 N1224 N 0.87603 0.44120 0.76966
 C1225 C 0.09238 0.60212 0.76855
 N1226 N 0.07166 0.61226 0.77552
 N1227 N 0.06024 0.62711 0.76262
 C1228 C 0.06906 0.63233 0.74226
 N1229 N 0.08989 0.62227 0.73545
 N1230 N 0.10134 0.60751 0.74835
 C1231 C 0.10448 0.58496 0.78214
 N1232 N 0.12555 0.57549 0.77519
 N1233 N 0.13620 0.55931 0.78698
 C1234 C 0.12612 0.55193 0.80612
 N1235 N 0.10509 0.56144 0.81314
 N1236 N 0.09445 0.57768 0.80136
 C1237 C 0.08830 0.39977 0.23172
 N1238 N 0.09736 0.39455 0.25197
 N1239 N 0.08597 0.38002 0.26506
 C1240 C 0.06511 0.37003 0.25842
 N1241 N 0.05617 0.37512 0.23804
 N1242 N 0.06752 0.38973 0.22494
 C1243 C 0.10061 0.41643 0.21778
 N1244 N 0.09071 0.42353 0.19839
 N1245 N 0.10176 0.43911 0.18617
 C1246 C 0.12312 0.44809 0.19290
 N1247 N 0.13302 0.44091 0.21222
 N1248 N 0.12196 0.42541 0.22445
   
