data_POSCAR
  _audit_creation_date              2014-09-24
  _audit_creation_method            'ToBaCCo'
  _symmetry_space_group_name_H-M    'P1'
  _symmetry_Int_Tables_number       1
  _symmetry_cell_setting            triclinic
  loop_
  _symmetry_equiv_pos_as_xyz
 x,y,z
_cell_length_a 63.2682
_cell_length_b 63.2900
_cell_length_c 63.0151
_cell_angle_alpha 89.979700
_cell_angle_beta 90.003400
_cell_angle_gamma 89.983800
loop_
  _atom_site_label
  _atom_site_type_symbol
  _atom_site_fract_x
  _atom_site_fract_y
  _atom_site_fract_z
C1 C 0.33947 1.36701 0.34066
 C2 C 0.34853 1.37602 0.32245
 C3 C 0.36667 1.36713 0.31281
 C4 C 0.37562 1.34892 0.32226
 C5 C 0.36668 1.33976 0.34044
 C6 C 0.34851 1.34879 0.34963
 C7 C 0.32133 1.37593 0.34985
 C8 C 0.31172 1.36682 0.36795
 C9 C 0.32114 1.34851 0.37673
 C10 C 0.33928 1.33950 0.36771
 C11 C 0.34831 1.32124 0.37650
 C12 C 0.36635 1.31200 0.36736
 C13 C 0.37547 1.32142 0.34935
 H14 H 0.34168 1.39048 0.31638
 H15 H 0.38898 1.34105 0.31503
 H16 H 0.31424 1.38942 0.34206
 H17 H 0.31492 1.34148 0.39108
 H18 H 0.34132 1.31423 0.39055
 H19 H 0.38921 1.31423 0.34201
 C20 C 0.33929 0.86684 0.84028
 C21 C 0.34846 0.87569 0.82207
 C22 C 0.36647 0.86654 0.81279
 C23 C 0.37546 0.84846 0.82213
 C24 C 0.36652 0.83949 0.84040
 C25 C 0.34834 0.84871 0.84951
 C26 C 0.32114 0.87585 0.84929
 C27 C 0.31152 0.86699 0.86751
 C28 C 0.32097 0.84885 0.87662
 C29 C 0.33914 0.83970 0.86774
 C30 C 0.34806 0.82144 0.87667
 C31 C 0.36609 0.81205 0.86762
 C32 C 0.37527 0.82126 0.84952
 H33 H 0.34159 0.88977 0.81512
 H34 H 0.38918 0.84113 0.81492
 H35 H 0.31507 0.89024 0.84231
 H36 H 0.31375 0.84102 0.89005
 H37 H 0.34104 0.81459 0.89077
 H38 H 0.38898 0.81397 0.84225
 C39 C 0.83941 1.36702 0.84029
 C40 C 0.84844 1.37604 0.82209
 C41 C 0.86662 1.36718 0.81249
 C42 C 0.87562 1.34900 0.82197
 C43 C 0.86673 1.33984 0.84017
 C44 C 0.84853 1.34883 0.84935
 C45 C 0.82124 1.37587 0.84948
 C46 C 0.81195 1.36667 0.86753
 C47 C 0.82119 1.34854 0.87649
 C48 C 0.83936 1.33954 0.86750
 C49 C 0.84840 1.32130 0.87629
 C50 C 0.86645 1.31210 0.86713
 C51 C 0.87556 1.32153 0.84911
 H52 H 0.84152 1.39045 0.81599
 H53 H 0.88901 1.34116 0.81475
 H54 H 0.81403 1.38966 0.84229
 H55 H 0.81428 1.34147 0.89054
 H56 H 0.84142 1.31430 0.89034
 H57 H 0.88930 1.31437 0.84178
 C58 C 0.83951 0.86682 0.33981
 C59 C 0.84866 0.87579 0.32166
 C60 C 0.86687 0.86689 0.31216
 C61 C 0.87583 0.84875 0.32176
 C62 C 0.86684 0.83966 0.33996
 C63 C 0.84859 0.84869 0.34901
 C64 C 0.82131 0.87571 0.34885
 C65 C 0.81189 0.86661 0.36687
 C66 C 0.82108 0.84853 0.37600
 C67 C 0.83932 0.83949 0.36716
 C68 C 0.84829 0.82126 0.37605
 C69 C 0.86640 0.81202 0.36703
 C70 C 0.87562 0.82139 0.34903
 H71 H 0.84179 0.89019 0.31548
 H72 H 0.88927 0.84090 0.31465
 H73 H 0.81447 0.88980 0.34187
 H74 H 0.81377 0.84122 0.38971
 H75 H 0.84123 0.81431 0.39009
 H76 H 0.88940 0.81420 0.34180
 C77 C 0.66022 0.63317 0.34033
 C78 C 0.65105 0.62429 0.32213
 C79 C 0.63285 0.63329 0.31267
 C80 C 0.62399 0.65145 0.32230
 C81 C 0.63302 0.66047 0.34049
 C82 C 0.65122 0.65135 0.34952
 C83 C 0.67855 0.62435 0.34924
 C84 C 0.68800 0.63346 0.36726
 C85 C 0.67878 0.65149 0.37643
 C86 C 0.66052 0.66051 0.36767
 C87 C 0.65153 0.67867 0.37667
 C88 C 0.63338 0.68791 0.36773
 C89 C 0.62417 0.67862 0.34969
 H90 H 0.65889 0.61091 0.31490
 H91 H 0.60957 0.65836 0.31621
 H92 H 0.68572 0.61062 0.34190
 H93 H 0.68580 0.65846 0.39048
 H94 H 0.65861 0.68558 0.39071
 H95 H 0.61036 0.68583 0.34251
 C96 C 0.66065 0.13360 0.83981
 C97 C 0.65137 0.12467 0.82168
 C98 C 0.63331 0.13381 0.81245
 C99 C 0.62442 0.15194 0.82173
 C100 C 0.63350 0.16101 0.83987
 C101 C 0.65167 0.15180 0.84897
 C102 C 0.67886 0.12465 0.84877
 C103 C 0.68857 0.13359 0.86690
 C104 C 0.67916 0.15178 0.87595
 C105 C 0.66094 0.16088 0.86713
 C106 C 0.65206 0.17921 0.87598
 C107 C 0.63402 0.18857 0.86692
 C108 C 0.62478 0.17926 0.84892
 H109 H 0.65851 0.11087 0.81443
 H110 H 0.61036 0.15896 0.81488
 H111 H 0.68490 0.11022 0.84184
 H112 H 0.68644 0.15968 0.88931
 H113 H 0.65944 0.18645 0.88970
 H114 H 0.61071 0.18619 0.84199
 C115 C 1.16080 0.63320 0.84055
 C116 C 1.15180 0.62429 0.82227
 C117 C 1.13384 0.63339 0.81280
 C118 C 1.12479 0.65152 0.82196
 C119 C 1.13362 0.66061 0.84022
 C120 C 1.15174 0.65146 0.84951
 C121 C 1.17890 0.62426 0.84976
 C122 C 1.18843 0.63330 0.86793
 C123 C 1.17899 0.65159 0.87672
 C124 C 1.16089 0.66067 0.86765
 C125 C 1.15184 0.67891 0.87646
 C126 C 1.13385 0.68821 0.86726
 C127 C 1.12480 0.67890 0.84915
 H128 H 1.15871 0.61016 0.81546
 H129 H 1.11112 0.65881 0.81462
 H130 H 1.18599 0.61079 0.84194
 H131 H 1.18516 0.65856 0.89112
 H132 H 1.15877 0.68586 0.89056
 H133 H 1.11111 0.68612 0.84176
 C134 C 1.16077 0.13327 0.34006
 C135 C 1.15174 0.12431 0.32182
 C136 C 1.13362 0.13323 0.31216
 C137 C 1.12466 0.15143 0.32162
 C138 C 1.13357 0.16054 0.33984
 C139 C 1.15173 0.15148 0.34904
 C140 C 1.17888 0.12432 0.34927
 C141 C 1.18846 0.13337 0.36741
 C142 C 1.17904 0.15166 0.37620
 C143 C 1.16092 0.16071 0.36716
 C144 C 1.15188 0.17895 0.37598
 C145 C 1.13386 0.18822 0.36683
 C146 C 1.12477 0.17886 0.34877
 H147 H 1.15859 0.10987 0.31573
 H148 H 1.11131 0.15932 0.31439
 H149 H 1.18598 0.11085 0.34146
 H150 H 1.18523 0.15865 0.39058
 H151 H 1.15885 0.18591 0.39006
 H152 H 1.11105 0.18607 0.34143
 C153 C 0.66105 1.36626 0.66010
 C154 C 0.65194 1.37504 0.67840
 C155 C 0.63390 1.36590 0.68766
 C156 C 0.62490 1.34786 0.67829
 C157 C 0.63384 1.33889 0.66003
 C158 C 0.65203 1.34808 0.65094
 C159 C 0.67926 1.37519 0.65110
 C160 C 0.68890 1.36626 0.63292
 C161 C 0.67945 1.34809 0.62391
 C162 C 0.66127 1.33899 0.63278
 C163 C 0.65223 1.32085 0.62375
 C164 C 0.63414 1.31155 0.63274
 C165 C 0.62500 1.32074 0.65086
 H166 H 0.65914 1.38878 0.68569
 H167 H 0.61083 1.34086 0.68515
 H168 H 0.68634 1.38858 0.65907
 H169 H 0.68568 1.34122 0.60948
 H170 H 0.65923 1.31400 0.60964
 H171 H 0.61125 1.31350 0.65810
 C172 C 0.66045 0.86664 1.16004
 C173 C 0.65128 0.87553 1.17824
 C174 C 0.63311 0.86652 1.18772
 C175 C 0.62426 0.84835 1.17812
 C176 C 0.63328 0.83933 1.15992
 C177 C 0.65146 0.84846 1.15086
 C178 C 0.67875 0.87548 1.15109
 C179 C 0.68818 0.86639 1.13306
 C180 C 0.67898 0.84834 1.12391
 C181 C 0.66075 0.83930 1.13270
 C182 C 0.65175 0.82114 1.12371
 C183 C 0.63362 0.81190 1.13267
 C184 C 0.62443 0.82118 1.15072
 H185 H 0.65912 0.88892 1.18546
 H186 H 0.60985 0.84144 1.18422
 H187 H 0.68591 0.88922 1.15842
 H188 H 0.68598 0.84137 1.10985
 H189 H 0.65882 0.81424 1.10966
 H190 H 0.61064 0.81397 1.15792
 C191 C 1.16057 1.36670 1.15957
 C192 C 1.15145 1.37548 1.17786
 C193 C 1.13340 1.36634 1.18711
 C194 C 1.12440 1.34831 1.17773
 C195 C 1.13335 1.33934 1.15948
 C196 C 1.15155 1.34853 1.15040
 C197 C 1.17879 1.37563 1.15060
 C198 C 1.18845 1.36668 1.13244
 C199 C 1.17900 1.34852 1.12340
 C200 C 1.16080 1.33944 1.13225
 C201 C 1.15177 1.32130 1.12322
 C202 C 1.13368 1.31199 1.13220
 C203 C 1.12452 1.32119 1.15031
 H204 H 1.15865 1.38921 1.18517
 H205 H 1.11033 1.34131 1.18458
 H206 H 1.18588 1.38901 1.15858
 H207 H 1.18525 1.34165 1.10899
 H208 H 1.15879 1.31444 1.10912
 H209 H 1.11077 1.31395 1.15754
 C210 C 1.16069 0.86662 0.65968
 C211 C 1.15157 0.87542 0.67796
 C212 C 1.13352 0.86628 0.68722
 C213 C 1.12452 0.84824 0.67786
 C214 C 1.13348 0.83926 0.65962
 C215 C 1.15168 0.84844 0.65053
 C216 C 1.17892 0.87554 0.65070
 C217 C 1.18858 0.86657 0.63255
 C218 C 1.17913 0.84840 0.62354
 C219 C 1.16094 0.83933 0.63239
 C220 C 1.15191 0.82117 0.62338
 C221 C 1.13381 0.81187 0.63237
 C222 C 1.12465 0.82109 0.65047
 H223 H 1.15877 0.88916 0.68525
 H224 H 1.11045 0.84125 0.68471
 H225 H 1.18599 0.88893 0.65866
 H226 H 1.18538 0.84151 0.60913
 H227 H 1.15893 0.81430 0.60929
 H228 H 1.11090 0.81386 0.65770
 C229 C 0.33975 0.63277 0.65923
 C230 C 0.34871 0.62384 0.67750
 C231 C 0.36669 0.63289 0.68696
 C232 C 0.37580 0.65099 0.67778
 C233 C 0.36702 0.66011 0.65950
 C234 C 0.34889 0.65101 0.65020
 C235 C 0.32163 0.62392 0.65000
 C236 C 0.31240 0.63309 0.63190
 C237 C 0.32167 0.65121 0.62294
 C238 C 0.33980 0.66025 0.63199
 C239 C 0.34884 0.67849 0.62322
 C240 C 0.36683 0.68775 0.63247
 C241 C 0.37587 0.67839 0.65057
 H242 H 0.34174 0.60974 0.68431
 H243 H 0.38948 0.65824 0.68513
 H244 H 0.31440 0.61014 0.65721
 H245 H 0.31481 0.65825 0.60885
 H246 H 0.34192 0.68546 0.60912
 H247 H 0.38955 0.68559 0.65798
 C248 C 0.33955 0.13303 1.15969
 C249 C 0.34854 0.12399 1.17789
 C250 C 0.36670 0.13282 1.18755
 C251 C 0.37572 0.15101 1.17811
 C252 C 0.36686 0.16020 1.15990
 C253 C 0.34869 0.15122 1.15067
 C254 C 0.32140 0.12420 1.15045
 C255 C 0.31214 0.13343 1.13240
 C256 C 0.32139 0.15157 1.12348
 C257 C 0.33954 0.16054 1.13252
 C258 C 0.34859 0.17879 1.12377
 C259 C 0.36663 0.18798 1.13298
 C260 C 0.37571 0.17852 1.15100
 H261 H 0.34162 0.10957 1.18396
 H262 H 0.38910 0.15883 1.18536
 H263 H 0.31418 0.11041 1.15762
 H264 H 0.31450 0.15866 1.10943
 H265 H 0.34164 0.18582 1.10972
 H266 H 0.38944 0.18566 1.15837
 C267 C 0.83961 0.63311 1.15933
 C268 C 0.84863 0.62416 1.17757
 C269 C 0.86666 0.63319 1.18696
 C270 C 0.87575 0.65129 1.17774
 C271 C 0.86691 0.66042 1.15950
 C272 C 0.84874 0.65134 1.15027
 C273 C 0.82144 0.62428 1.15017
 C274 C 0.81217 0.63346 1.13210
 C275 C 0.82143 0.65157 1.12311
 C276 C 0.83959 0.66059 1.13209
 C277 C 0.84862 0.67882 1.12329
 C278 C 0.86665 0.68806 1.13247
 C279 C 0.87575 0.67869 1.15054
 H280 H 0.84167 0.61007 1.18441
 H281 H 0.88947 0.65853 1.18505
 H282 H 0.81423 0.61051 1.15740
 H283 H 0.81452 0.65862 1.10904
 H284 H 0.84166 0.68579 1.10922
 H285 H 0.88946 0.68587 1.15789
 C286 C 0.83911 0.13330 0.65969
 C287 C 0.84816 0.12431 0.67792
 C288 C 0.86630 0.13320 0.68755
 C289 C 0.87526 0.15139 0.67808
 C290 C 0.86634 0.16053 0.65988
 C291 C 0.84816 0.15150 0.65069
 C292 C 0.82098 0.12438 0.65049
 C293 C 0.81138 0.13346 0.63237
 C294 C 0.82081 0.15175 0.62357
 C295 C 0.83895 0.16077 0.63259
 C296 C 0.84799 0.17900 0.62376
 C297 C 0.86603 0.18824 0.63290
 C298 C 0.87514 0.17884 0.65094
 H299 H 0.84130 0.10987 0.68401
 H300 H 0.88863 0.15926 0.68530
 H301 H 0.81388 0.11091 0.65831
 H302 H 0.81460 0.15876 0.60920
 H303 H 0.84101 0.18599 0.60970
 H304 H 0.88888 0.18602 0.65826
 C305 C 1.36660 0.33877 0.66031
 C306 C 1.37559 0.34780 0.67853
 C307 C 1.36672 0.36595 0.68816
 C308 C 1.34853 0.37492 0.67870
 C309 C 1.33937 0.36602 0.66050
 C310 C 1.34839 0.34784 0.65132
 C311 C 1.37551 0.32063 0.65111
 C312 C 1.36641 0.31106 0.63298
 C313 C 1.34813 0.32051 0.62419
 C314 C 1.33912 0.33866 0.63322
 C315 C 1.32089 0.34772 0.62439
 C316 C 1.31166 0.36576 0.63353
 C317 C 1.32106 0.37485 0.65156
 H318 H 1.39003 0.34092 0.68463
 H319 H 1.34067 0.38830 0.68592
 H320 H 1.38897 0.31351 0.65892
 H321 H 1.34112 0.31433 0.60982
 H322 H 1.31390 0.34076 0.61033
 H323 H 1.31389 0.38859 0.65889
 C324 C 1.36692 0.83924 1.15939
 C325 C 1.37584 0.84823 1.17766
 C326 C 1.36678 0.86622 1.18709
 C327 C 1.34867 0.87530 1.17790
 C328 C 1.33956 0.86647 1.15965
 C329 C 1.34868 0.84832 1.15040
 C330 C 1.37583 0.82111 1.15022
 C331 C 1.36675 0.81157 1.13207
 C332 C 1.34849 0.82104 1.12324
 C333 C 1.33945 0.83917 1.13227
 C334 C 1.32122 0.84824 1.12344
 C335 C 1.31195 0.86625 1.13261
 C336 C 1.32128 0.87531 1.15070
 H337 H 1.38996 0.84130 1.18450
 H338 H 1.34140 0.88899 1.18522
 H339 H 1.38928 0.81399 1.15806
 H340 H 1.34150 0.81487 1.10885
 H341 H 1.31426 0.84131 1.10935
 H342 H 1.31408 0.88901 1.15806
 C343 C 0.86726 0.33942 1.15926
 C344 C 0.87620 0.34841 1.17753
 C345 C 0.86715 0.36639 1.18698
 C346 C 0.84902 0.37547 1.17782
 C347 C 0.83989 0.36664 1.15958
 C348 C 0.84900 0.34850 1.15031
 C349 C 0.87616 0.32130 1.15007
 C350 C 0.86706 0.31177 1.13192
 C351 C 0.84878 0.32124 1.12313
 C352 C 0.83975 0.33936 1.13218
 C353 C 0.82150 0.34843 1.12338
 C354 C 0.81224 0.36644 1.13257
 C355 C 0.82160 0.37549 1.15065
 H356 H 0.89033 0.34148 1.18433
 H357 H 0.84176 0.38915 1.18515
 H358 H 0.88962 0.31418 1.15788
 H359 H 0.84177 0.31507 1.10874
 H360 H 0.81452 0.34151 1.10930
 H361 H 0.81440 0.38918 1.15804
 C362 C 0.86721 0.83957 0.65934
 C363 C 0.87615 0.84859 0.67758
 C364 C 0.86711 0.86661 0.68696
 C365 C 0.84902 0.87571 0.67774
 C366 C 0.83989 0.86688 0.65950
 C367 C 0.84898 0.84871 0.65028
 C368 C 0.87606 0.82141 0.65019
 C369 C 0.86687 0.81215 0.63212
 C370 C 0.84876 0.82141 0.62312
 C371 C 0.83974 0.83957 0.63210
 C372 C 0.82151 0.84861 0.62329
 C373 C 0.81225 0.86664 0.63246
 C374 C 0.82162 0.87572 0.65053
 H375 H 0.89025 0.84162 0.68443
 H376 H 0.84177 0.88942 0.68504
 H377 H 0.88983 0.81419 0.65742
 H378 H 0.84172 0.81452 0.60905
 H379 H 0.81454 0.84166 0.60922
 H380 H 0.81443 0.88943 0.65788
 C381 C 0.63321 0.66019 0.65967
 C382 C 0.62437 0.65105 0.67791
 C383 C 0.63347 0.63295 0.68712
 C384 C 0.65151 0.62393 0.67773
 C385 C 0.66053 0.63289 0.65950
 C386 C 0.65138 0.65111 0.65044
 C387 C 0.62435 0.67845 0.65071
 C388 C 0.63344 0.68784 0.63265
 C389 C 0.65148 0.67860 0.62347
 C390 C 0.66053 0.66037 0.63227
 C391 C 0.67869 0.65136 0.62328
 C392 C 0.68797 0.63325 0.63227
 C393 C 0.67871 0.62406 0.65034
 H394 H 0.61065 0.65828 0.68521
 H395 H 0.65848 0.60984 0.68458
 H396 H 0.61063 0.68563 0.65807
 H397 H 0.65844 0.68558 0.60940
 H398 H 0.68559 0.65841 0.60922
 H399 H 0.68593 0.61029 0.65756
 C400 C 0.63297 1.16070 1.15941
 C401 C 0.62404 1.15167 1.17766
 C402 C 0.63310 1.13367 1.18708
 C403 C 0.65122 1.12462 1.17790
 C404 C 0.66034 1.13348 1.15966
 C405 C 0.65122 1.15164 1.15043
 C406 C 0.62406 1.17884 1.15025
 C407 C 0.63315 1.18842 1.13212
 C408 C 0.65142 1.17897 1.12329
 C409 C 0.66046 1.16083 1.13231
 C410 C 0.67870 1.15178 1.12349
 C411 C 0.68797 1.13376 1.13264
 C412 C 0.67862 1.12466 1.15071
 H413 H 0.60991 1.15858 1.18449
 H414 H 0.65849 1.11091 1.18520
 H415 H 0.61061 1.18594 1.15809
 H416 H 0.65842 1.18517 1.10892
 H417 H 0.68567 1.15874 1.10941
 H418 H 0.68583 1.11095 1.15807
 C419 C 0.13302 0.66076 1.15971
 C420 C 0.12404 0.65172 1.17794
 C421 C 0.13292 0.63355 1.18755
 C422 C 0.15109 0.62458 1.17806
 C423 C 0.16023 0.63350 1.15986
 C424 C 0.15121 0.65170 1.15069
 C425 C 0.12412 0.67892 1.15054
 C426 C 0.13320 0.68852 1.13241
 C427 C 0.15147 0.67907 1.12359
 C428 C 0.16047 0.66090 1.13259
 C429 C 0.17869 0.65184 1.12375
 C430 C 0.18792 0.63378 1.13287
 C431 C 0.17852 0.62467 1.15090
 H432 H 0.10962 0.65860 1.18406
 H433 H 0.15895 0.61119 1.18526
 H434 H 0.11067 0.68604 1.15837
 H435 H 0.15848 0.68527 1.10922
 H436 H 0.18568 0.65882 1.10969
 H437 H 0.18569 0.61092 1.15822
 C438 C 0.13286 1.16025 0.65949
 C439 C 0.12385 1.15122 0.67769
 C440 C 0.13271 1.13304 0.68730
 C441 C 0.15088 1.12403 0.67781
 C442 C 0.16003 1.13292 0.65960
 C443 C 0.15104 1.15112 0.65043
 C444 C 0.12401 1.17842 0.65031
 C445 C 0.13321 1.18772 0.63227
 C446 C 0.15134 1.17848 0.62330
 C447 C 0.16032 1.16030 0.63228
 C448 C 0.17856 1.15127 0.62348
 C449 C 0.18777 1.13322 0.63264
 C450 C 0.17834 1.12410 0.65066
 H451 H 0.10944 1.15813 0.68380
 H452 H 0.15872 1.11064 0.68502
 H453 H 0.11023 1.18564 0.65752
 H454 H 0.15840 1.18539 0.60925
 H455 H 0.18556 1.15825 0.60944
 H456 H 0.18551 1.11035 0.65799
 C457 C 1.36692 0.66056 0.34044
 C458 C 1.37578 0.65145 0.32217
 C459 C 1.36675 0.63333 0.31264
 C460 C 1.34858 0.62447 0.32224
 C461 C 1.33958 0.63345 0.34046
 C462 C 1.34873 0.65160 0.34955
 C463 C 1.37580 0.67883 0.34941
 C464 C 1.36680 0.68851 0.36753
 C465 C 1.34863 0.67906 0.37653
 C466 C 1.33958 0.66086 0.36768
 C467 C 1.32144 0.65182 0.37670
 C468 C 1.31218 0.63371 0.36773
 C469 C 1.32143 0.62458 0.34964
 H470 H 1.38918 0.65927 0.31496
 H471 H 1.34165 0.61008 0.31612
 H472 H 1.38920 0.68592 0.34146
 H473 H 1.34171 0.68530 0.39093
 H474 H 1.31454 0.65883 0.39078
 H475 H 1.31421 0.61081 0.34242
 C476 C 1.36694 1.16107 0.84039
 C477 C 1.37588 1.15208 0.82212
 C478 C 1.36683 1.13409 0.81268
 C479 C 1.34870 1.12503 0.82184
 C480 C 1.33958 1.13385 0.84009
 C481 C 1.34869 1.15199 0.84936
 C482 C 1.37584 1.17918 0.84959
 C483 C 1.36676 1.18871 0.86775
 C484 C 1.34849 1.17924 0.87655
 C485 C 1.33945 1.16112 0.86749
 C486 C 1.32122 1.15205 0.87631
 C487 C 1.31196 1.13405 0.86712
 C488 C 1.32130 1.12501 0.84902
 H489 H 1.39000 1.15900 0.81531
 H490 H 1.34144 1.11134 0.81452
 H491 H 1.38930 1.18629 0.84177
 H492 H 1.34150 1.18539 0.89095
 H493 H 1.31425 1.15897 0.89040
 H494 H 1.31411 1.11131 0.84164
 C495 C 0.86638 0.66081 0.84005
 C496 C 0.87521 0.65168 0.82181
 C497 C 0.86612 0.63358 0.81262
 C498 C 0.84809 0.62455 0.82202
 C499 C 0.83908 0.63350 0.84025
 C500 C 0.84822 0.65173 0.84930
 C501 C 0.87523 0.67907 0.84901
 C502 C 0.86615 0.68844 0.86708
 C503 C 0.84813 0.67920 0.87627
 C504 C 0.83908 0.66097 0.86748
 C505 C 0.82093 0.65194 0.87649
 C506 C 0.81167 0.63383 0.86751
 C507 C 0.82093 0.62465 0.84944
 H508 H 0.88892 0.65892 0.81450
 H509 H 0.84113 0.61046 0.81519
 H510 H 0.88894 0.68626 0.84164
 H511 H 0.84118 0.68616 0.89035
 H512 H 0.81404 0.65898 0.89056
 H513 H 0.81372 0.61088 0.84222
 C514 C 0.86667 1.16089 0.33996
 C515 C 0.87569 1.15187 0.32177
 C516 C 0.86686 1.13369 0.31217
 C517 C 0.84868 1.12468 0.32165
 C518 C 0.83951 1.13357 0.33985
 C519 C 0.84849 1.15176 0.34902
 C520 C 0.87551 1.17905 0.34915
 C521 C 0.86631 1.18833 0.36720
 C522 C 0.84817 1.17909 0.37616
 C523 C 0.83919 1.16092 0.36717
 C524 C 0.82096 1.15187 0.37596
 C525 C 0.81177 1.13382 0.36681
 C526 C 0.82121 1.12472 0.34879
 H527 H 0.89010 1.15879 0.31567
 H528 H 0.84086 1.11128 0.31444
 H529 H 0.88930 1.18627 0.34196
 H530 H 0.84111 1.18599 0.39021
 H531 H 0.81396 1.15884 0.39001
 H532 H 0.81406 1.11097 0.34146
 C533 C 0.63321 0.33948 0.34050
 C534 C 0.62420 0.34853 0.32231
 C535 C 0.63305 0.36672 0.31273
 C536 C 0.65122 0.37571 0.32224
 C537 C 0.66038 0.36679 0.34044
 C538 C 0.65139 0.34858 0.34958
 C539 C 0.62436 0.32130 0.34966
 C540 C 0.63355 0.31198 0.36770
 C541 C 0.65168 0.32120 0.37668
 C542 C 0.66067 0.33938 0.36773
 C543 C 0.67891 0.34841 0.37654
 C544 C 0.68810 0.36648 0.36741
 C545 C 0.67867 0.37561 0.34940
 H546 H 0.60979 0.34163 0.31619
 H547 H 0.65906 0.38911 0.31505
 H548 H 0.61058 0.31411 0.34244
 H549 H 0.65874 0.31426 0.39072
 H550 H 0.68591 0.34141 0.39058
 H551 H 0.68583 0.38937 0.34209
 C552 C 0.63286 0.83959 0.84074
 C553 C 0.62394 0.84858 0.82248
 C554 C 0.63298 0.86660 0.81308
 C555 C 0.65106 0.87570 0.82231
 C556 C 0.66016 0.86689 0.84058
 C557 C 0.65107 0.84873 0.84982
 C558 C 0.62401 0.82144 0.84991
 C559 C 0.63317 0.81219 0.86802
 C560 C 0.65127 0.82146 0.87702
 C561 C 0.66029 0.83961 0.86803
 C562 C 0.67851 0.84867 0.87685
 C563 C 0.68776 0.86669 0.86766
 C564 C 0.67841 0.87575 0.84956
 H565 H 0.60986 0.84161 0.81562
 H566 H 0.65831 0.88941 0.81500
 H567 H 0.61025 0.81422 0.84267
 H568 H 0.65829 0.81458 0.89111
 H569 H 0.68546 0.84173 0.89094
 H570 H 0.68561 0.88945 0.84219
 C571 C 0.13297 0.33939 0.84084
 C572 C 0.12408 0.34839 0.82255
 C573 C 0.13319 0.36635 0.81310
 C574 C 0.15130 0.37540 0.82230
 C575 C 0.16038 0.36656 0.84057
 C576 C 0.15122 0.34844 0.84984
 C577 C 0.12403 0.32128 0.85002
 C578 C 0.13307 0.31173 0.86819
 C579 C 0.15134 0.32117 0.87703
 C580 C 0.16041 0.33928 0.86799
 C581 C 0.17865 0.34831 0.87683
 C582 C 0.18796 0.36630 0.86765
 C583 C 0.17865 0.37537 0.84954
 H584 H 0.10996 0.34148 0.81571
 H585 H 0.15859 0.38907 0.81498
 H586 H 0.11058 0.31419 0.84217
 H587 H 0.15830 0.31499 0.89144
 H588 H 0.18558 0.34137 0.89094
 H589 H 0.18589 0.38905 0.84217
 C590 C 0.13327 0.83908 0.33972
 C591 C 0.12414 0.84827 0.32164
 C592 C 0.13293 0.86651 0.31212
 C593 C 0.15112 0.87546 0.32159
 C594 C 0.16035 0.86643 0.33969
 C595 C 0.15139 0.84819 0.34880
 C596 C 0.12444 0.82087 0.34880
 C597 C 0.13352 0.81122 0.36689
 C598 C 0.15171 0.82072 0.37583
 C599 C 0.16064 0.83898 0.36693
 C600 C 0.17895 0.84797 0.37569
 C601 C 0.18814 0.86606 0.36658
 C602 C 0.17865 0.87523 0.34862
 H603 H 0.10971 0.84140 0.31554
 H604 H 0.15892 0.88890 0.31443
 H605 H 0.10999 0.81475 0.34197
 H606 H 0.15972 0.81350 0.38916
 H607 H 0.18631 0.84064 0.38937
 H608 H 0.18545 0.88935 0.34167
 O609 O 1.07640 1.02075 1.10572
 O610 O 1.10100 1.02075 1.13051
 C611 C 1.08381 1.02797 1.12299
 C612 C 1.07255 1.04525 1.13411
 C613 C 1.07958 1.05252 1.15397
 H614 H 1.09299 1.04510 1.16165
 O615 O 0.92371 0.97957 1.10574
 O616 O 0.89914 0.97953 1.13056
 C617 C 0.91633 0.97234 1.12302
 C618 C 0.92763 0.95507 1.13413
 C619 C 0.92069 0.94784 1.15403
 H620 H 0.90731 0.95528 1.16176
 O621 O 1.02064 1.10530 1.07661
 O622 O 1.02069 1.13006 1.10123
 C623 C 1.02787 1.12252 1.08398
 C624 C 1.04512 1.13357 1.07261
 C625 C 1.05232 1.15341 1.07953
 H626 H 1.04487 1.16112 1.09295
 O627 O 0.97941 0.89487 1.07659
 O628 O 0.97937 0.87016 1.10127
 C629 C 0.97218 0.87767 1.08400
 C630 C 0.95492 0.86661 1.07266
 C631 C 0.94773 0.84678 1.07962
 H632 H 0.95519 0.83909 1.09305
 O633 O 1.10531 1.07628 1.02053
 O634 O 1.13002 1.10086 1.02055
 C635 C 1.12253 1.08367 1.02777
 C636 C 1.13362 1.07239 1.04510
 C637 C 1.15347 1.07931 1.05228
 H638 H 1.16115 1.09266 1.04475
 O639 O 0.89469 0.92390 1.02068
 O640 O 0.86997 0.89934 1.02071
 C641 C 0.87748 0.91652 1.02794
 C642 C 0.86642 0.92778 1.04530
 C643 C 0.84663 0.92079 1.05258
 H644 H 0.83896 0.90741 1.04512
 O645 O 0.97941 1.07646 1.10575
 O646 O 0.97939 1.10107 1.13052
 C647 C 0.97219 1.08388 1.12301
 C648 C 0.95491 1.07262 1.13415
 C649 C 0.94766 1.07963 1.15401
 H650 H 0.95509 1.09303 1.16169
 O651 O 1.02066 0.92376 1.10564
 O652 O 1.02067 0.89919 1.13047
 C653 C 1.02786 0.91637 1.12294
 C654 C 1.04511 0.92767 1.13408
 C655 C 1.05230 0.92072 1.15398
 H656 H 1.04487 0.90732 1.16168
 O657 O 1.10524 0.97947 1.07665
 O658 O 1.12999 0.97941 1.10130
 C659 C 1.12246 0.97223 1.08406
 C660 C 1.13350 0.95494 1.07273
 C661 C 1.15332 0.94771 1.07972
 H662 H 1.16101 0.95515 1.09315
 O663 O 0.89477 1.02079 1.07667
 O664 O 0.87004 1.02082 1.10134
 C665 C 0.87755 1.02801 1.08408
 C666 C 0.86647 1.04527 1.07273
 C667 C 0.84666 1.05250 1.07972
 H668 H 0.83898 1.04506 1.09317
 O669 O 0.92371 1.10538 1.02057
 O670 O 0.89916 1.13013 1.02060
 C671 C 0.91635 1.12261 1.02781
 C672 C 0.92766 1.13368 1.04512
 C673 C 0.92077 1.15355 1.05227
 H674 H 0.90742 1.16125 1.04474
 O675 O 1.07627 0.89473 1.02064
 O676 O 1.10085 0.87001 1.02066
 C677 C 1.08366 0.87751 1.02787
 C678 C 1.07238 0.86642 1.04520
 C679 C 1.07931 0.84658 1.05241
 H680 H 1.09267 0.83889 1.04490
 O681 O 0.92367 1.02079 1.10577
 O682 O 0.89909 1.02081 1.13059
 C683 C 0.91628 1.02800 1.12305
 C684 C 0.92755 1.04528 1.13416
 C685 C 0.92055 1.05253 1.15403
 H686 H 0.90714 1.04511 1.16172
 O687 O 1.07632 0.97954 1.10571
 O688 O 1.10092 0.97948 1.13052
 C689 C 1.08372 0.97231 1.12299
 C690 C 1.07243 0.95505 1.13411
 C691 C 1.07937 0.94785 1.15402
 H692 H 1.09274 0.95531 1.16174
 O693 O 1.02064 0.89477 1.07664
 O694 O 1.02064 0.87006 1.10132
 C695 C 1.02783 0.87755 1.08406
 C696 C 1.04506 0.86644 1.07271
 C697 C 1.05225 0.84660 1.07967
 H698 H 1.04480 0.83893 1.09311
 O699 O 0.97942 1.10535 1.07663
 O700 O 0.97941 1.13011 1.10125
 C701 C 0.97222 1.12259 1.08401
 C702 C 0.95499 1.13368 1.07263
 C703 C 0.94784 1.15354 1.07953
 H704 H 0.95530 1.16124 1.09294
 O705 O 0.89475 1.07647 1.02061
 O706 O 0.87006 1.10108 1.02066
 C707 C 0.87755 1.08388 1.02788
 C708 C 0.86648 1.07261 1.04523
 C709 C 0.84666 1.07958 1.05248
 H710 H 0.83899 1.09296 1.04498
 O711 O 1.10517 0.92370 1.02068
 O712 O 1.12989 0.89912 1.02072
 C713 C 1.12238 0.91631 1.02794
 C714 C 1.13346 0.92758 1.04528
 C715 C 1.15328 0.92060 1.05252
 H716 H 1.16094 0.90721 1.04504
 O717 O 0.97944 0.92378 1.10565
 O718 O 0.97940 0.89921 1.13048
 C719 C 0.97222 0.91640 1.12294
 C720 C 0.95498 0.92770 1.13408
 C721 C 0.94779 0.92073 1.15398
 H722 H 0.95525 0.90733 1.16167
 O723 O 1.02065 1.07644 1.10574
 O724 O 1.02069 1.10105 1.13051
 C725 C 1.02788 1.08386 1.12301
 C726 C 1.04518 1.07260 1.13412
 C727 C 1.05245 1.07961 1.15398
 H728 H 1.04502 1.09301 1.16166
 O729 O 0.89474 0.97958 1.07670
 O730 O 0.87002 0.97954 1.10138
 C731 C 0.87753 0.97236 1.08412
 C732 C 0.86645 0.95510 1.07279
 C733 C 0.84665 0.94786 1.07982
 H734 H 0.83900 0.95529 1.09329
 O735 O 1.10530 1.02068 1.07661
 O736 O 1.13005 1.02068 1.10126
 C737 C 1.12254 1.02787 1.08400
 C738 C 1.13363 1.04509 1.07262
 C739 C 1.15348 1.05226 1.07955
 H740 H 1.16117 1.04482 1.09299
 O741 O 0.92364 0.89496 1.02063
 O742 O 0.89906 0.87026 1.02066
 C743 C 0.91626 0.87775 1.02787
 C744 C 0.92756 0.86665 1.04519
 C745 C 0.92062 0.84682 1.05240
 H746 H 0.90724 0.83915 1.04491
 O747 O 1.07636 1.10521 1.02055
 O748 O 1.10092 1.12993 1.02056
 C749 C 1.08374 1.12243 1.02779
 C750 C 1.07245 1.13352 1.04511
 C751 C 1.07939 1.15336 1.05228
 H752 H 1.09276 1.16102 1.04476
 Cu753 Cu 1.08835 1.00012 1.08871
 Cu754 Cu 1.11797 1.00008 1.11839
 Cu755 Cu 0.91169 1.00018 1.08875
 Cu756 Cu 0.88210 1.00018 1.11846
 Cu757 Cu 1.00002 1.08842 1.08872
 Cu758 Cu 1.00005 1.11805 1.11836
 Cu759 Cu 1.00004 0.91176 1.08866
 Cu760 Cu 1.00002 0.88218 1.11837
 C761 C 1.05521 1.05527 1.12443
 H762 H 1.04988 1.04996 1.10899
 C763 C 1.06954 1.06958 1.16387
 C764 C 0.94492 0.94502 1.12439
 H765 H 0.95019 0.95031 1.10892
 C766 C 0.93076 0.93078 1.16392
 C767 C 1.05516 1.12386 1.05525
 H768 H 1.04990 1.10844 1.05000
 C769 C 1.06934 1.16327 1.06937
 C770 C 0.94486 0.87631 1.05530
 H771 H 0.95012 0.89173 1.05002
 C772 C 0.93069 0.83692 1.06950
 C773 C 1.12394 1.05513 1.05525
 H774 H 1.10851 1.04988 1.04999
 C775 C 1.16337 1.06926 1.06939
 C776 C 0.87610 0.94508 1.05539
 H777 H 0.89149 0.95038 1.05006
 C778 C 0.83678 0.93082 1.06973
 C779 C 0.94488 1.05530 1.12446
 H780 H 0.95019 1.04998 1.10901
 C781 C 0.93059 1.06960 1.16392
 C782 C 1.05515 0.94498 1.12437
 H783 H 1.04988 0.95026 1.10889
 C784 C 1.06932 0.93080 1.16392
 C785 C 1.12380 0.94490 1.05536
 H786 H 1.10840 0.95019 1.05006
 C787 C 1.16317 0.93065 1.06962
 C788 C 0.87615 1.05531 1.05534
 H789 H 0.89155 1.05002 1.05004
 C790 C 0.83678 1.06954 1.06960
 C791 C 0.94492 1.12398 1.05528
 H792 H 0.95015 1.10854 1.05004
 C793 C 0.93084 1.16345 1.06936
 C794 C 1.05511 0.87611 1.05533
 H795 H 1.04985 0.89153 1.05005
 C796 C 1.06926 0.83671 1.06953
 O797 O 1.07643 0.97943 0.89416
 O798 O 1.10102 0.97937 0.86936
 C799 C 1.08382 0.97220 0.87689
 C800 C 1.07253 0.95495 0.86577
 C801 C 1.07955 0.94768 0.84592
 H802 H 1.09298 0.95507 0.83824
 O803 O 0.92351 1.02088 0.89411
 O804 O 0.89892 1.02089 0.86931
 C805 C 0.91612 1.02808 0.87682
 C806 C 0.92741 1.04532 0.86567
 C807 C 0.92041 1.05258 0.84580
 H808 H 0.90698 1.04518 0.83813
 O809 O 0.97938 1.10528 0.92312
 O810 O 0.97938 1.13001 0.89846
 C811 C 0.97218 1.12250 0.91571
 C812 C 0.95492 1.13359 0.92706
 C813 C 0.94772 1.15341 0.92006
 H814 H 0.95516 1.16107 0.90661
 O815 O 1.02057 0.89490 0.92321
 O816 O 1.02056 0.87019 0.89854
 C817 C 1.02777 0.87768 0.91580
 C818 C 1.04504 0.86659 0.92712
 C819 C 1.05228 0.84679 0.92010
 H820 H 1.04485 0.83914 0.90665
 O821 O 1.10521 0.92372 0.97929
 O822 O 1.12994 0.89915 0.97928
 C823 C 1.12244 0.91635 0.97206
 C824 C 1.13356 0.92764 0.95476
 C825 C 1.15341 0.92071 0.94762
 H826 H 1.16108 0.90735 0.95515
 O827 O 0.89467 1.07651 0.97921
 O828 O 0.86998 1.10112 0.97921
 C829 C 0.87745 1.08393 0.97198
 C830 C 0.86635 1.07269 0.95464
 C831 C 0.84654 1.07970 0.94741
 H832 H 0.83889 1.09308 0.95491
 O833 O 1.02060 1.07633 0.89406
 O834 O 1.02067 1.10092 0.86926
 C835 C 1.02784 1.08373 0.87679
 C836 C 1.04512 1.07243 0.86568
 C837 C 1.05233 1.07937 0.84577
 H838 H 1.04487 1.09275 0.83805
 O839 O 0.97935 0.92391 0.89418
 O840 O 0.97929 0.89935 0.86937
 C841 C 0.97211 0.91654 0.87690
 C842 C 0.95484 0.92783 0.86579
 C843 C 0.94761 0.92087 0.84590
 H844 H 0.95506 0.90749 0.83820
 O845 O 1.10538 1.02065 0.92318
 O846 O 1.13011 1.02066 0.89851
 C847 C 1.12260 1.02786 0.91576
 C848 C 1.13366 1.04513 0.92708
 C849 C 1.15346 1.05238 0.92006
 H850 H 1.16114 1.04495 0.90661
 O851 O 0.89461 0.97969 0.92325
 O852 O 0.86987 0.97965 0.89859
 C853 C 0.87739 0.97247 0.91586
 C854 C 0.86632 0.95523 0.92722
 C855 C 0.84648 0.94804 0.92027
 H856 H 0.83878 0.95548 0.90684
 O857 O 1.07632 1.10520 0.97915
 O858 O 1.10088 1.12993 0.97913
 C859 C 1.08369 1.12243 0.97191
 C860 C 1.07238 1.13352 0.95460
 C861 C 1.07926 1.15340 0.94747
 H862 H 1.09260 1.16109 0.95501
 O863 O 0.92360 0.89499 0.97923
 O864 O 0.89901 0.87030 0.97921
 C865 C 0.91620 0.87779 0.97198
 C866 C 0.92747 0.86672 0.95463
 C867 C 0.92048 0.84692 0.94738
 H868 H 0.90709 0.83926 0.95486
 O869 O 0.92355 0.97967 0.89419
 O870 O 0.89896 0.97962 0.86938
 C871 C 0.91616 0.97244 0.87692
 C872 C 0.92745 0.95518 0.86580
 C873 C 0.92048 0.94796 0.84591
 H874 H 0.90708 0.95539 0.83821
 O875 O 1.07640 1.02064 0.89416
 O876 O 1.10098 1.02064 0.86934
 C877 C 1.08379 1.02784 0.87687
 C878 C 1.07250 1.04509 0.86572
 C879 C 1.07945 1.05228 0.84581
 H880 H 1.09284 1.04483 0.83812
 O881 O 0.97934 0.89495 0.92323
 O882 O 0.97928 0.87025 0.89856
 C883 C 0.97210 0.87775 0.91582
 C884 C 0.95482 0.86670 0.92715
 C885 C 0.94759 0.84690 0.92016
 H886 H 0.95502 0.83923 0.90671
 O887 O 1.02060 1.10527 0.92311
 O888 O 1.02065 1.13001 0.89846
 C889 C 1.02782 1.12249 0.91572
 C890 C 1.04505 1.13356 0.92710
 C891 C 1.05219 1.15344 0.92022
 H892 H 1.04472 1.16116 0.90681
 O893 O 0.89467 0.92395 0.97927
 O894 O 0.86994 0.89940 0.97926
 C895 C 0.87744 0.91659 0.97204
 C896 C 0.86634 0.92789 0.95471
 C897 C 0.84651 0.92095 0.94751
 H898 H 0.83883 0.90758 0.95501
 O899 O 1.10534 1.07633 0.97913
 O900 O 1.13003 1.10092 0.97910
 C901 C 1.12254 1.08373 0.97188
 C902 C 1.13363 1.07247 0.95454
 C903 C 1.15343 1.07947 0.94728
 H904 H 1.16108 1.09287 0.95475
 O905 O 1.02060 0.92383 0.89414
 O906 O 1.02059 0.89926 0.86933
 C907 C 1.02781 0.91643 0.87686
 C908 C 1.04511 0.92766 0.86575
 C909 C 1.05238 0.92064 0.84589
 H910 H 1.04493 0.90726 0.83820
 O911 O 0.97936 1.07642 0.89400
 O912 O 0.97937 1.10101 0.86920
 C913 C 0.97215 1.08383 0.87673
 C914 C 0.95484 1.07260 0.86562
 C915 C 0.94759 1.07961 0.84575
 H916 H 0.95504 1.09299 0.83804
 O917 O 0.89459 1.02090 0.92319
 O918 O 0.86985 1.02093 0.89854
 C919 C 0.87736 1.02812 0.91579
 C920 C 0.86630 1.04539 0.92713
 C921 C 0.84649 1.05265 0.92014
 H922 H 0.83881 1.04525 0.90669
 O923 O 1.10533 0.97944 0.92327
 O924 O 1.13007 0.97938 0.89862
 C925 C 1.12255 0.97222 0.91588
 C926 C 1.13362 0.95497 0.92726
 C927 C 1.15348 0.94778 0.92036
 H928 H 1.16120 0.95523 0.90694
 O929 O 1.07626 0.89481 0.97924
 O930 O 1.10085 0.87009 0.97921
 C931 C 1.08366 0.87761 0.97197
 C932 C 1.07239 0.86656 0.95461
 C933 C 1.07938 0.84676 0.94734
 H934 H 1.09277 0.83909 0.95482
 O935 O 0.92368 1.10536 0.97917
 O936 O 0.89914 1.13011 0.97916
 C937 C 0.91631 1.12258 0.97192
 C938 C 0.92759 1.13363 0.95456
 C939 C 0.92064 1.15345 0.94731
 H940 H 0.90727 1.16114 0.95480
 Cu941 Cu 1.08843 1.00005 0.91116
 Cu942 Cu 1.11803 1.00001 0.88147
 Cu943 Cu 0.91153 1.00029 0.91116
 Cu944 Cu 0.88192 1.00027 0.88147
 Cu945 Cu 1.08837 1.08829 0.99984
 Cu946 Cu 1.11794 1.11789 0.99984
 Cu947 Cu 1.08826 0.91170 0.99996
 Cu948 Cu 1.11786 0.88212 0.99996
 Cu949 Cu 0.91166 1.08846 0.99989
 Cu950 Cu 0.88211 1.11809 0.99991
 Cu951 Cu 0.91161 0.91191 0.99995
 Cu952 Cu 0.88202 0.88235 0.99996
 Cu953 Cu 0.99998 1.08836 0.91104
 Cu954 Cu 1.00002 1.11796 0.88135
 Cu955 Cu 0.99997 0.91186 0.91116
 Cu956 Cu 0.99992 0.88229 0.88146
 C957 C 1.05517 0.94496 0.87545
 H958 H 1.04985 0.95029 0.89089
 C959 C 1.06948 0.93064 0.83601
 C960 C 0.94477 1.05531 0.87534
 H961 H 0.95009 1.05000 0.89079
 C962 C 0.93048 1.06961 0.83587
 C963 C 0.94488 1.12393 0.94445
 H964 H 0.95015 1.10853 0.94976
 C965 C 0.93069 1.16330 0.93017
 C966 C 1.05508 0.87623 0.94452
 H967 H 1.04978 0.89162 0.94985
 C968 C 1.06934 0.83691 0.93020
 C969 C 1.12389 0.94492 0.94461
 H970 H 1.10845 0.95018 0.94985
 C971 C 1.16334 0.93076 0.93053
 C972 C 0.87599 1.05539 0.94452
 H973 H 0.89139 1.05007 0.94982
 C974 C 0.83664 1.06970 0.93027
 C975 C 1.05518 1.05515 0.87542
 H976 H 1.04991 1.04988 0.89090
 C977 C 1.06938 1.06931 0.83587
 C978 C 0.94478 0.94513 0.87551
 H979 H 0.95007 0.95041 0.89097
 C980 C 0.93054 0.93092 0.83600
 C981 C 1.12399 1.05516 0.94446
 H982 H 1.10860 1.04985 0.94978
 C983 C 1.16331 1.06944 0.93015
 C984 C 0.87602 0.94517 0.94459
 H985 H 0.89144 0.95043 0.94986
 C986 C 0.83661 0.93101 0.93040
 C987 C 1.05513 1.12383 0.94444
 H988 H 1.04991 1.10838 0.94967
 C989 C 1.06918 1.16332 0.93040
 C990 C 0.94479 0.87638 0.94454
 H991 H 0.95009 0.89177 0.94984
 C992 C 0.93053 0.83705 0.93026
 O993 O 0.97956 0.42366 0.39419
 O994 O 0.97952 0.39907 0.36940
 C995 C 0.97234 0.41627 0.37691
 C996 C 0.95510 0.42757 0.36575
 C997 C 0.94787 0.42058 0.34588
 H998 H 0.95529 0.40716 0.33820
 O999 O 1.02091 0.57645 0.39420
 O1000 O 1.02097 0.60102 0.36938
 C1001 C 1.02814 0.58383 0.37692
 C1002 C 1.04540 0.57253 0.36580
 C1003 C 1.05265 0.57950 0.34592
 H1004 H 1.04523 0.59291 0.33823
 O1005 O 0.89498 0.47947 0.42316
 O1006 O 0.87027 0.47947 0.39848
 C1007 C 0.87776 0.47228 0.41575
 C1008 C 0.86665 0.45504 0.42710
 C1009 C 0.84683 0.44785 0.42009
 H1010 H 0.83918 0.45528 0.40663
 O1011 O 1.10542 0.52054 0.42328
 O1012 O 1.13019 0.52055 0.39866
 C1013 C 1.12266 0.52774 0.41590
 C1014 C 1.13373 0.54497 0.42727
 C1015 C 1.15358 0.55216 0.42034
 H1016 H 1.16128 0.54472 0.40691
 O1017 O 0.92374 0.39487 0.47933
 O1018 O 0.89915 0.37018 0.47927
 C1019 C 0.91636 0.37767 0.47207
 C1020 C 0.92765 0.36658 0.45475
 C1021 C 0.92068 0.34677 0.44753
 H1022 H 0.90729 0.33911 0.45502
 O1023 O 1.07649 0.60519 0.47930
 O1024 O 1.10112 0.62985 0.47934
 C1025 C 1.08393 0.62240 0.47208
 C1026 C 1.07269 0.63352 0.45474
 C1027 C 1.07973 0.65332 0.44753
 H1028 H 1.09312 0.66094 0.45505
 O1029 O 0.92396 0.52069 0.39412
 O1030 O 0.89940 0.52074 0.36929
 C1031 C 0.91658 0.52792 0.37684
 C1032 C 0.92787 0.54520 0.36574
 C1033 C 0.92091 0.55244 0.34585
 H1034 H 0.90752 0.54500 0.33813
 O1035 O 1.07649 0.47936 0.39420
 O1036 O 1.10111 0.47930 0.36942
 C1037 C 1.08391 0.47213 0.37693
 C1038 C 1.07264 0.45486 0.36582
 C1039 C 1.07964 0.44761 0.34596
 H1040 H 1.09304 0.45503 0.33826
 O1041 O 1.02075 0.39472 0.42330
 O1042 O 1.02077 0.36998 0.39866
 C1043 C 1.02797 0.37750 0.41591
 C1044 C 1.04524 0.36642 0.42725
 C1045 C 1.05249 0.34664 0.42023
 H1046 H 1.04507 0.33898 0.40677
 O1047 O 0.97966 0.60540 0.42321
 O1048 O 0.97966 0.63013 0.39854
 C1049 C 0.97244 0.62262 0.41578
 C1050 C 0.95515 0.63367 0.42710
 C1051 C 0.94790 0.65347 0.42009
 H1052 H 0.95534 0.66116 0.40665
 O1053 O 0.89494 0.57636 0.47910
 O1054 O 0.87021 0.60092 0.47908
 C1055 C 0.87772 0.58375 0.47186
 C1056 C 0.86664 0.57247 0.45452
 C1057 C 0.84681 0.57942 0.44729
 H1058 H 0.83913 0.59279 0.45478
 O1059 O 1.10533 0.42368 0.47940
 O1060 O 1.13004 0.39910 0.47941
 C1061 C 1.12255 0.41629 0.47218
 C1062 C 1.13366 0.42758 0.45486
 C1063 C 1.15352 0.42065 0.44770
 H1064 H 1.16120 0.40730 0.45524
 O1065 O 0.97969 0.57645 0.39419
 O1066 O 0.97968 0.60103 0.36936
 C1067 C 0.97248 0.58384 0.37690
 C1068 C 0.95522 0.57256 0.36576
 C1069 C 0.94800 0.57955 0.34588
 H1070 H 0.95543 0.59295 0.33818
 O1071 O 1.02078 0.42365 0.39423
 O1072 O 1.02080 0.39906 0.36944
 C1073 C 1.02800 0.41624 0.37696
 C1074 C 1.04528 0.42751 0.36584
 C1075 C 1.05254 0.42050 0.34597
 H1076 H 1.04511 0.40710 0.33829
 O1077 O 1.10539 0.47934 0.42331
 O1078 O 1.13015 0.47929 0.39869
 C1079 C 1.12262 0.47212 0.41594
 C1080 C 1.13369 0.45488 0.42733
 C1081 C 1.15355 0.44770 0.42042
 H1082 H 1.16126 0.45514 0.40700
 O1083 O 0.89496 0.52068 0.42312
 O1084 O 0.87025 0.52073 0.39844
 C1085 C 0.87775 0.52790 0.41570
 C1086 C 0.86666 0.54515 0.42704
 C1087 C 0.84683 0.55235 0.42006
 H1088 H 0.83915 0.54490 0.40662
 O1089 O 0.92387 0.60530 0.47910
 O1090 O 0.89929 0.63001 0.47909
 C1091 C 0.91648 0.62252 0.47187
 C1092 C 0.92776 0.63362 0.45454
 C1093 C 0.92076 0.65341 0.44728
 H1094 H 0.90735 0.66106 0.45475
 O1095 O 1.07644 0.39470 0.47934
 O1096 O 1.10101 0.36998 0.47934
 C1097 C 1.08384 0.37749 0.47210
 C1098 C 1.07258 0.36642 0.45474
 C1099 C 1.07958 0.34663 0.44747
 H1100 H 1.09298 0.33897 0.45494
 O1101 O 1.07653 0.52059 0.39418
 O1102 O 1.10114 0.52059 0.36940
 C1103 C 1.08395 0.52781 0.37691
 C1104 C 1.07271 0.54511 0.36579
 C1105 C 1.07970 0.55233 0.34591
 H1106 H 1.09308 0.54487 0.33821
 O1107 O 0.92390 0.47946 0.39408
 O1108 O 0.89934 0.47946 0.36925
 C1109 C 0.91651 0.47225 0.37680
 C1110 C 0.92778 0.45497 0.36570
 C1111 C 0.92080 0.44773 0.34582
 H1112 H 0.90742 0.45518 0.33810
 O1113 O 1.02089 0.60539 0.42325
 O1114 O 1.02096 0.63011 0.39858
 C1115 C 1.02813 0.62259 0.41585
 C1116 C 1.04540 0.63363 0.42721
 C1117 C 1.05268 0.65343 0.42024
 H1118 H 1.04529 0.66113 0.40679
 O1119 O 0.97952 0.39479 0.42332
 O1120 O 0.97948 0.37005 0.39868
 C1121 C 0.97229 0.37758 0.41593
 C1122 C 0.95501 0.36653 0.42728
 C1123 C 0.94779 0.34672 0.42031
 H1124 H 0.95523 0.33903 0.40688
 O1125 O 1.10537 0.57619 0.47931
 O1126 O 1.13013 0.60071 0.47934
 C1127 C 1.12261 0.58355 0.47210
 C1128 C 1.13371 0.57227 0.45478
 C1129 C 1.15355 0.57920 0.44760
 H1130 H 1.16123 0.59256 0.45511
 O1131 O 0.89482 0.42383 0.47929
 O1132 O 0.87009 0.39929 0.47923
 C1133 C 0.87762 0.41646 0.47201
 C1134 C 0.86658 0.42775 0.45464
 C1135 C 0.84676 0.42080 0.44738
 H1136 H 0.83906 0.40745 0.45488
 Cu1137 Cu 1.00015 0.41167 0.41123
 Cu1138 Cu 1.00014 0.38206 0.38156
 Cu1139 Cu 1.00029 0.58847 0.41119
 Cu1140 Cu 1.00032 0.61805 0.38148
 Cu1141 Cu 0.91191 0.50007 0.41109
 Cu1142 Cu 0.88234 0.50010 0.38137
 Cu1143 Cu 1.08849 0.49996 0.41121
 Cu1144 Cu 1.11813 0.49993 0.38155
 C1145 C 0.94508 0.44491 0.37543
 H1146 H 0.95037 0.45021 0.39088
 C1147 C 0.93083 0.43065 0.33594
 C1148 C 1.05541 0.55518 0.37550
 H1149 H 1.05010 0.54989 0.39096
 C1150 C 1.06969 0.56942 0.33601
 C1151 C 0.87629 0.44501 0.44451
 H1152 H 0.89170 0.45027 0.44983
 C1153 C 0.83692 0.43084 0.43022
 C1154 C 1.12403 0.55501 0.44464
 H1155 H 1.10860 0.54975 0.44989
 C1156 C 1.16345 0.56916 0.43049
 C1157 C 0.94497 0.37623 0.44465
 H1158 H 0.95025 0.39163 0.44993
 C1159 C 0.93074 0.33687 0.43043
 C1160 C 1.05539 0.62391 0.44461
 H1161 H 1.05006 0.60852 0.44989
 C1162 C 1.06974 0.66324 0.43040
 C1163 C 0.94518 0.55524 0.37546
 H1164 H 0.95046 0.54994 0.39092
 C1165 C 0.93095 0.56950 0.33595
 C1166 C 1.05531 0.44483 0.37553
 H1167 H 1.05000 0.45014 0.39097
 C1168 C 1.06961 0.43054 0.33606
 C1169 C 1.05526 0.37608 0.44465
 H1170 H 1.04995 0.39147 0.44997
 C1171 C 1.06955 0.33677 0.43033
 C1172 C 0.94510 0.62398 0.44447
 H1173 H 0.95041 0.60859 0.44978
 C1174 C 0.93081 0.66331 0.43017
 C1175 C 0.87633 0.55519 0.44441
 H1176 H 0.89175 0.54992 0.44971
 C1177 C 0.83694 0.56937 0.43017
 C1178 C 1.12397 0.44484 0.44469
 H1179 H 1.10853 0.45009 0.44993
 C1180 C 1.16343 0.43070 0.43060
 O1181 O 1.02059 0.42360 0.60588
 O1182 O 1.02061 0.39900 0.63068
 C1183 C 1.02781 0.41619 0.62316
 C1184 C 1.04508 0.42745 0.63429
 C1185 C 1.05232 0.42045 0.65417
 H1186 H 1.04489 0.40705 0.66186
 O1187 O 0.97947 0.57631 0.60577
 O1188 O 0.97942 0.60092 0.63055
 C1189 C 0.97223 0.58373 0.62303
 C1190 C 0.95494 0.57248 0.63415
 C1191 C 0.94766 0.57951 0.65399
 H1192 H 0.95508 0.59292 0.66167
 O1193 O 0.89488 0.52060 0.57662
 O1194 O 0.87011 0.52069 0.60124
 C1195 C 0.87765 0.52784 0.58398
 C1196 C 0.86660 0.54508 0.57258
 C1197 C 0.84674 0.55225 0.57948
 H1198 H 0.83902 0.54481 0.59290
 O1199 O 1.10528 0.47923 0.57687
 O1200 O 1.13000 0.47919 0.60154
 C1201 C 1.12249 0.47200 0.58429
 C1202 C 1.13356 0.45472 0.57297
 C1203 C 1.15333 0.44744 0.58003
 H1204 H 1.16098 0.45484 0.59350
 O1205 O 1.07630 0.39474 0.52074
 O1206 O 1.10086 0.37001 0.52079
 C1207 C 1.08366 0.37752 0.52798
 C1208 C 1.07234 0.36643 0.54528
 C1209 C 1.07923 0.34657 0.55245
 H1210 H 1.09259 0.33887 0.54493
 O1211 O 0.92389 0.60524 0.52050
 O1212 O 0.89931 0.62996 0.52054
 C1213 C 0.91651 0.62245 0.52775
 C1214 C 0.92779 0.63352 0.54508
 C1215 C 0.92088 0.65338 0.55224
 H1216 H 0.90754 0.66108 0.54470
 O1217 O 0.92371 0.47939 0.60582
 O1218 O 0.89909 0.47942 0.63060
 C1219 C 0.91629 0.47220 0.62310
 C1220 C 0.92754 0.45493 0.63425
 C1221 C 0.92055 0.44771 0.65414
 H1222 H 0.90716 0.45516 0.66183
 O1223 O 1.07639 0.52051 0.60589
 O1224 O 1.10098 0.52053 0.63070
 C1225 C 1.08379 0.52774 0.62316
 C1226 C 1.07253 0.54503 0.63426
 C1227 C 1.07955 0.55231 0.65411
 H1228 H 1.09295 0.54489 0.66181
 O1229 O 0.97933 0.39475 0.57680
 O1230 O 0.97929 0.37000 0.60145
 C1231 C 0.97210 0.37753 0.58420
 C1232 C 0.95483 0.36649 0.57285
 C1233 C 0.94756 0.34670 0.57985
 H1234 H 0.95497 0.33902 0.59331
 O1235 O 1.02074 0.60518 0.57672
 O1236 O 1.02075 0.62993 0.60135
 C1237 C 1.02795 0.62240 0.58411
 C1238 C 1.04521 0.63346 0.57276
 C1239 C 1.05242 0.65329 0.57970
 H1240 H 1.04497 0.66099 0.59312
 O1241 O 0.89474 0.42378 0.52071
 O1242 O 0.87000 0.39923 0.52069
 C1243 C 0.87751 0.41640 0.52794
 C1244 C 0.86644 0.42765 0.54530
 C1245 C 0.84664 0.42066 0.55257
 H1246 H 0.83897 0.40728 0.54509
 O1247 O 1.10533 0.57613 0.52071
 O1248 O 1.13009 0.60065 0.52077
 C1249 C 1.12256 0.58347 0.52797
 C1250 C 1.13363 0.57214 0.54527
 C1251 C 1.15351 0.57900 0.55241
 H1252 H 1.16123 0.59233 0.54487
 O1253 O 1.02070 0.57627 0.60580
 O1254 O 1.02072 0.60087 0.63058
 C1255 C 1.02791 0.58368 0.62308
 C1256 C 1.04518 0.57241 0.63422
 C1257 C 1.05245 0.57943 0.65407
 H1258 H 1.04503 0.59285 0.66174
 O1259 O 0.97936 0.42365 0.60587
 O1260 O 0.97932 0.39905 0.63067
 C1261 C 0.97214 0.41625 0.62315
 C1262 C 0.95488 0.42754 0.63427
 C1263 C 0.94764 0.42057 0.65416
 H1264 H 0.95507 0.40717 0.66186
 O1265 O 1.10528 0.52043 0.57679
 O1266 O 1.13002 0.52045 0.60144
 C1267 C 1.12252 0.52763 0.58418
 C1268 C 1.13362 0.54483 0.57279
 C1269 C 1.15351 0.55194 0.57968
 H1270 H 1.16121 0.54447 0.59309
 O1271 O 0.89478 0.47939 0.57675
 O1272 O 0.87002 0.47942 0.60138
 C1273 C 0.87754 0.47221 0.58414
 C1274 C 0.86646 0.45495 0.57281
 C1275 C 0.84666 0.44771 0.57983
 H1276 H 0.83901 0.45512 0.59330
 O1277 O 1.07644 0.60513 0.52070
 O1278 O 1.10106 0.62979 0.52077
 C1279 C 1.08385 0.62232 0.52796
 C1280 C 1.07256 0.63341 0.54528
 C1281 C 1.07951 0.65324 0.55247
 H1282 H 1.09289 0.66090 0.54496
 O1283 O 0.92367 0.39483 0.52074
 O1284 O 0.89908 0.37015 0.52072
 C1285 C 0.91626 0.37763 0.52797
 C1286 C 0.92751 0.36654 0.54534
 C1287 C 0.92049 0.34675 0.55259
 H1288 H 0.90710 0.33910 0.54510
 O1289 O 1.07632 0.47929 0.60591
 O1290 O 1.10090 0.47925 0.63072
 C1291 C 1.08371 0.47207 0.62319
 C1292 C 1.07243 0.45481 0.63431
 C1293 C 1.07942 0.44756 0.65419
 H1294 H 1.09281 0.45499 0.66189
 O1295 O 0.92371 0.52061 0.60579
 O1296 O 0.89909 0.52070 0.63056
 C1297 C 0.91630 0.52787 0.62305
 C1298 C 0.92757 0.54515 0.63416
 C1299 C 0.92054 0.55243 0.65400
 H1300 H 0.90712 0.54502 0.66169
 O1301 O 0.97952 0.60519 0.57664
 O1302 O 0.97948 0.62994 0.60127
 C1303 C 0.97231 0.62242 0.58401
 C1304 C 0.95509 0.63351 0.57261
 C1305 C 0.94793 0.65337 0.57952
 H1306 H 0.95538 0.66106 0.59295
 O1307 O 1.02056 0.39474 0.57676
 O1308 O 1.02058 0.36998 0.60140
 C1309 C 1.02776 0.37750 0.58414
 C1310 C 1.04500 0.36642 0.57277
 C1311 C 1.05214 0.34655 0.57968
 H1312 H 1.04467 0.33885 0.59310
 O1313 O 1.10533 0.42359 0.52081
 O1314 O 1.13003 0.39899 0.52087
 C1315 C 1.12253 0.41617 0.52809
 C1316 C 1.13358 0.42741 0.54547
 C1317 C 1.15335 0.42038 0.55278
 H1318 H 1.16102 0.40699 0.54531
 O1319 O 0.89496 0.57631 0.52050
 O1320 O 0.87023 0.60088 0.52053
 C1321 C 0.87774 0.58369 0.52774
 C1322 C 0.86664 0.57239 0.54506
 C1323 C 0.84678 0.57932 0.55222
 H1324 H 0.83910 0.59267 0.54468
 Cu1325 Cu 0.99996 0.41165 0.58886
 Cu1326 Cu 0.99995 0.38203 0.61853
 Cu1327 Cu 1.00011 0.58827 0.58877
 Cu1328 Cu 1.00009 0.61789 0.61842
 Cu1329 Cu 0.91171 0.41179 0.50002
 Cu1330 Cu 0.88210 0.38224 0.49997
 Cu1331 Cu 1.08839 0.41164 0.50007
 Cu1332 Cu 1.11796 0.38204 0.50010
 Cu1333 Cu 0.91188 0.58834 0.49980
 Cu1334 Cu 0.88228 0.61792 0.49981
 Cu1335 Cu 1.08844 0.58820 0.50000
 Cu1336 Cu 1.11808 0.61772 0.50006
 Cu1337 Cu 0.91174 0.49999 0.58878
 Cu1338 Cu 0.88210 0.50007 0.61843
 Cu1339 Cu 1.08835 0.49987 0.58890
 Cu1340 Cu 1.11795 0.49986 0.61859
 C1341 C 1.05511 0.44477 0.62460
 H1342 H 1.04982 0.45008 0.60914
 C1343 C 1.06937 0.43049 0.66409
 C1344 C 0.94491 0.55515 0.62446
 H1345 H 0.95024 0.54982 0.60903
 C1346 C 0.93057 0.56950 0.66389
 C1347 C 0.87632 0.55512 0.55522
 H1348 H 0.89176 0.54987 0.54999
 C1349 C 0.83686 0.56926 0.56931
 C1350 C 1.12391 0.44473 0.55555
 H1351 H 1.10854 0.45006 0.55020
 C1352 C 1.16320 0.43038 0.56994
 C1353 C 1.05507 0.37613 0.55542
 H1354 H 1.04985 0.39157 0.55018
 C1355 C 1.06915 0.33666 0.56953
 C1356 C 0.94504 0.62382 0.55525
 H1357 H 0.95028 0.60838 0.55001
 C1358 C 0.93094 0.66327 0.56934
 C1359 C 0.94485 0.44486 0.62456
 H1360 H 0.95016 0.45015 0.60910
 C1361 C 0.93059 0.43064 0.66406
 C1362 C 1.05520 0.55506 0.62455
 H1363 H 1.04988 0.54973 0.60911
 C1364 C 1.06952 0.56940 0.66398
 C1365 C 0.94482 0.37617 0.55545
 H1366 H 0.95014 0.39156 0.55013
 C1367 C 0.93051 0.33686 0.56974
 C1368 C 1.05527 0.62375 0.55540
 H1369 H 1.04999 0.60834 0.55014
 C1370 C 1.06945 0.66315 0.56956
 C1371 C 0.87611 0.44495 0.55540
 H1372 H 0.89150 0.45025 0.55007
 C1373 C 0.83679 0.43067 0.56973
 C1374 C 1.12391 0.55491 0.55544
 H1375 H 1.10845 0.54971 0.55021
 C1376 C 1.16342 0.56892 0.56950
 O1377 O 0.57638 1.02064 0.60556
 O1378 O 0.60096 1.02069 0.63037
 C1379 C 0.58376 1.02786 0.62284
 C1380 C 0.57245 1.04511 0.63395
 C1381 C 0.57941 1.05232 0.65385
 H1382 H 0.59281 1.04488 0.66155
 O1383 O 0.42372 0.97939 0.60582
 O1384 O 0.39915 0.97936 0.63065
 C1385 C 0.41635 0.97218 0.62312
 C1386 C 0.42766 0.95494 0.63424
 C1387 C 0.42071 0.94769 0.65413
 H1388 H 0.40730 0.95511 0.66184
 O1389 O 0.52056 1.10528 0.57650
 O1390 O 0.52061 1.13000 0.60116
 C1391 C 0.52779 1.12249 0.58390
 C1392 C 0.54507 1.13353 0.57256
 C1393 C 0.55233 1.15333 0.57954
 H1394 H 0.54491 1.16101 0.59299
 O1395 O 0.47947 0.89476 0.57674
 O1396 O 0.47947 0.87006 0.60144
 C1397 C 0.47227 0.87755 0.58418
 C1398 C 0.45502 0.86645 0.57285
 C1399 C 0.44787 0.84662 0.57983
 H1400 H 0.45534 0.83895 0.59326
 O1401 O 0.60529 1.07626 0.52051
 O1402 O 0.62998 1.10084 0.52048
 C1403 C 0.62251 1.08366 0.52773
 C1404 C 0.63361 1.07240 0.54506
 C1405 C 0.65344 1.07937 0.55226
 H1406 H 0.66110 1.09274 0.54475
 O1407 O 0.39472 0.92359 0.52078
 O1408 O 0.37004 0.89900 0.52087
 C1409 C 0.37753 0.91620 0.52806
 C1410 C 0.36647 0.92748 0.54541
 C1411 C 0.34665 0.92053 0.55266
 H1412 H 0.33897 0.90716 0.54518
 O1413 O 0.47933 1.07639 0.60562
 O1414 O 0.47933 1.10097 0.63041
 C1415 C 0.47212 1.08379 0.62290
 C1416 C 0.45485 1.07253 0.63404
 C1417 C 0.44759 1.07956 0.65389
 H1418 H 0.45501 1.09299 0.66155
 O1419 O 0.52072 0.92370 0.60574
 O1420 O 0.52078 0.89914 0.63058
 C1421 C 0.52796 0.91632 0.62303
 C1422 C 0.54523 0.92761 0.63412
 C1423 C 0.55246 0.92066 0.65402
 H1424 H 0.54503 0.90728 0.66174
 O1425 O 0.60534 0.97942 0.57656
 O1426 O 0.63008 0.97941 0.60122
 C1427 C 0.62256 0.97221 0.58397
 C1428 C 0.63363 0.95494 0.57265
 C1429 C 0.65347 0.94775 0.57961
 H1430 H 0.66117 0.95522 0.59302
 O1431 O 0.39472 1.02054 0.57671
 O1432 O 0.37000 1.02057 0.60139
 C1433 C 0.37749 1.02775 0.58412
 C1434 C 0.36639 1.04499 0.57276
 C1435 C 0.34656 1.05217 0.57974
 H1436 H 0.33889 1.04471 0.59318
 O1437 O 0.42353 1.10522 0.52062
 O1438 O 0.39894 1.12992 0.52063
 C1439 C 0.41614 1.12243 0.52785
 C1440 C 0.42743 1.13353 0.54516
 C1441 C 0.42045 1.15334 0.55240
 H1442 H 0.40704 1.16099 0.54493
 O1443 O 0.57634 0.89468 0.52074
 O1444 O 0.60091 0.86996 0.52074
 C1445 C 0.58373 0.87747 0.52798
 C1446 C 0.57246 0.86639 0.54531
 C1447 C 0.57940 0.84656 0.55253
 H1448 H 0.59276 0.83887 0.54503
 O1449 O 0.42366 1.02061 0.60576
 O1450 O 0.39909 1.02064 0.63059
 C1451 C 0.41626 1.02785 0.62303
 C1452 C 0.42752 1.04515 0.63411
 C1453 C 0.42051 1.05244 0.65396
 H1454 H 0.40711 1.04502 0.66167
 O1455 O 0.57645 0.97943 0.60565
 O1456 O 0.60103 0.97943 0.63046
 C1457 C 0.58385 0.97223 0.62294
 C1458 C 0.57258 0.95497 0.63408
 C1459 C 0.57956 0.94777 0.65398
 H1460 H 0.59295 0.95522 0.66167
 O1461 O 0.52069 0.89472 0.57674
 O1462 O 0.52074 0.87002 0.60144
 C1463 C 0.52790 0.87751 0.58416
 C1464 C 0.54514 0.86641 0.57281
 C1465 C 0.55232 0.84658 0.57978
 H1466 H 0.54488 0.83891 0.59323
 O1467 O 0.47932 1.10530 0.57652
 O1468 O 0.47932 1.13003 0.60117
 C1469 C 0.47211 1.12251 0.58393
 C1470 C 0.45483 1.13358 0.57260
 C1471 C 0.44759 1.15338 0.57959
 H1472 H 0.45504 1.16107 0.59302
 O1473 O 0.39464 1.07624 0.52068
 O1474 O 0.36990 1.10080 0.52070
 C1475 C 0.37742 1.08362 0.52793
 C1476 C 0.36636 1.07233 0.54528
 C1477 C 0.34653 1.07926 0.55250
 H1478 H 0.33883 1.09263 0.54501
 O1479 O 0.60525 0.92364 0.52070
 O1480 O 0.62997 0.89906 0.52072
 C1481 C 0.62248 0.91625 0.52793
 C1482 C 0.63359 0.92755 0.54523
 C1483 C 0.65342 0.92061 0.55244
 H1484 H 0.66109 0.90722 0.54497
 O1485 O 0.47950 0.92370 0.60579
 O1486 O 0.47950 0.89914 0.63063
 C1487 C 0.47230 0.91632 0.62309
 C1488 C 0.45505 0.92761 0.63422
 C1489 C 0.44785 0.92062 0.65411
 H1490 H 0.45530 0.90722 0.66180
 O1491 O 0.52056 1.07634 0.60556
 O1492 O 0.52061 1.10092 0.63037
 C1493 C 0.52779 1.08373 0.62284
 C1494 C 0.54506 1.07244 0.63396
 C1495 C 0.55228 1.07940 0.65385
 H1496 H 0.54483 1.09278 0.66156
 O1497 O 0.39476 0.97933 0.57676
 O1498 O 0.37005 0.97930 0.60145
 C1499 C 0.37756 0.97210 0.58419
 C1500 C 0.36648 0.95483 0.57288
 C1501 C 0.34666 0.94763 0.57987
 H1502 H 0.33899 0.95508 0.59331
 O1503 O 0.60537 1.02063 0.57655
 O1504 O 0.63010 1.02068 0.60121
 C1505 C 0.62259 1.02785 0.58395
 C1506 C 0.63365 1.04510 0.57258
 C1507 C 0.65348 1.05232 0.57954
 H1508 H 0.66117 1.04489 0.59298
 O1509 O 0.42369 0.89468 0.52076
 O1510 O 0.39915 0.86994 0.52085
 C1511 C 0.41634 0.87746 0.52804
 C1512 C 0.42766 0.86641 0.54537
 C1513 C 0.42076 0.84657 0.55260
 H1514 H 0.40740 0.83887 0.54512
 O1515 O 0.57631 1.10517 0.52051
 O1516 O 0.60087 1.12989 0.52049
 C1517 C 0.58369 1.12239 0.52774
 C1518 C 0.57242 1.13348 0.54507
 C1519 C 0.57942 1.15327 0.55231
 H1520 H 0.59282 1.16091 0.54482
 Cu1521 Cu 0.58842 1.00003 0.58860
 Cu1522 Cu 0.61802 1.00006 0.61831
 Cu1523 Cu 0.41168 0.99997 0.58879
 Cu1524 Cu 0.38210 0.99996 0.61851
 Cu1525 Cu 0.49994 1.08837 0.58858
 Cu1526 Cu 0.49997 1.11796 0.61826
 Cu1527 Cu 0.50009 0.91168 0.58878
 Cu1528 Cu 0.50012 0.88212 0.61852
 C1529 C 0.55513 1.05515 0.62424
 H1530 H 0.54985 1.04987 0.60877
 C1531 C 0.56934 1.06935 0.66376
 C1532 C 0.44498 0.94491 0.62452
 H1533 H 0.45026 0.95021 0.60905
 C1534 C 0.43079 0.93064 0.66403
 C1535 C 0.55510 1.12384 0.55517
 H1536 H 0.54979 1.10845 0.54988
 C1537 C 0.56939 1.16316 0.56943
 C1538 C 0.44494 0.87612 0.55547
 H1539 H 0.45018 0.89154 0.55018
 C1540 C 0.43085 0.83671 0.56971
 C1541 C 0.62396 1.05512 0.55520
 H1542 H 0.60854 1.04984 0.54993
 C1543 C 0.66334 1.06934 0.56939
 C1544 C 0.37615 0.94478 0.55550
 H1545 H 0.39156 0.95005 0.55019
 C1546 C 0.33678 0.93060 0.56978
 C1547 C 0.44484 1.05518 0.62439
 H1548 H 0.45015 1.04984 0.60895
 C1549 C 0.43053 1.06953 0.66382
 C1550 C 0.55526 0.94491 0.62439
 H1551 H 0.54997 0.95019 0.60892
 C1552 C 0.56952 0.93073 0.66391
 C1553 C 0.62392 0.94486 0.55531
 H1554 H 0.60850 0.95013 0.55004
 C1555 C 0.66333 0.93070 0.56952
 C1556 C 0.37606 1.05504 0.55539
 H1557 H 0.39148 1.04979 0.55010
 C1558 C 0.33666 1.06919 0.56962
 C1559 C 0.44477 1.12389 0.55524
 H1560 H 0.45006 1.10849 0.54994
 C1561 C 0.43051 1.16323 0.56950
 C1562 C 0.55518 0.87608 0.55543
 H1563 H 0.54992 0.89150 0.55015
 C1564 C 0.56934 0.83669 0.56965
 O1565 O 0.57631 0.97927 0.39417
 O1566 O 0.60088 0.97922 0.36935
 C1567 C 0.58369 0.97204 0.37689
 C1568 C 0.57240 0.95478 0.36578
 C1569 C 0.57940 0.94753 0.34591
 H1570 H 0.59280 0.95495 0.33821
 O1571 O 0.42338 1.02044 0.39429
 O1572 O 0.39879 1.02048 0.36949
 C1573 C 0.41599 1.02766 0.37701
 C1574 C 0.42728 1.04491 0.36587
 C1575 C 0.42030 1.05213 0.34597
 H1576 H 0.40690 1.04470 0.33829
 O1577 O 0.47923 1.10509 0.42319
 O1578 O 0.47917 1.12979 0.39849
 C1579 C 0.47199 1.12230 0.41576
 C1580 C 0.45474 1.13338 0.42710
 C1581 C 0.44752 1.15320 0.42011
 H1582 H 0.45496 1.16086 0.40666
 O1583 O 0.52051 0.89474 0.42331
 O1584 O 0.52054 0.87000 0.39867
 C1585 C 0.52772 0.87752 0.41592
 C1586 C 0.54497 0.86645 0.42729
 C1587 C 0.55214 0.84659 0.42037
 H1588 H 0.54468 0.83890 0.40696
 O1589 O 0.60522 0.92363 0.47931
 O1590 O 0.62994 0.89905 0.47928
 C1591 C 0.62243 0.91624 0.47206
 C1592 C 0.63351 0.92752 0.45473
 C1593 C 0.65334 0.92056 0.44753
 H1594 H 0.66102 0.90719 0.45504
 O1595 O 0.39457 1.07622 0.47928
 O1596 O 0.36984 1.10078 0.47925
 C1597 C 0.37734 1.08359 0.47205
 C1598 C 0.36623 1.07228 0.45475
 C1599 C 0.34640 1.07923 0.44755
 H1600 H 0.33873 1.09262 0.45503
 O1601 O 0.52045 1.07615 0.39412
 O1602 O 0.52045 1.10071 0.36928
 C1603 C 0.52766 1.08353 0.37683
 C1604 C 0.54495 1.07227 0.36571
 C1605 C 0.55219 1.07926 0.34584
 H1606 H 0.54475 1.09266 0.33814
 O1607 O 0.47926 0.92363 0.39421
 O1608 O 0.47924 0.89904 0.36942
 C1609 C 0.47203 0.91623 0.37694
 C1610 C 0.45473 0.92748 0.36583
 C1611 C 0.44749 0.92049 0.34596
 H1612 H 0.45494 0.90712 0.33826
 O1613 O 0.60525 1.02051 0.42317
 O1614 O 0.62996 1.02051 0.39849
 C1615 C 0.62246 1.02772 0.41574
 C1616 C 0.63353 1.04500 0.42704
 C1617 C 0.65333 1.05224 0.42001
 H1618 H 0.66099 1.04480 0.40656
 O1619 O 0.39447 0.97920 0.42336
 O1620 O 0.36973 0.97917 0.39870
 C1621 C 0.37725 0.97197 0.41595
 C1622 C 0.36622 0.95468 0.42729
 C1623 C 0.34644 0.94737 0.42028
 H1624 H 0.33876 0.95476 0.40681
 O1625 O 0.57625 1.10512 0.47912
 O1626 O 0.60079 1.12986 0.47904
 C1627 C 0.58360 1.12233 0.47185
 C1628 C 0.57228 1.13340 0.45453
 C1629 C 0.57919 1.15324 0.44732
 H1630 H 0.59255 1.16093 0.45481
 O1631 O 0.42363 0.89466 0.47936
 O1632 O 0.39909 0.86991 0.47940
 C1633 C 0.41626 0.87743 0.47213
 C1634 C 0.42753 0.86637 0.45478
 C1635 C 0.42058 0.84655 0.44755
 H1636 H 0.40722 0.83886 0.45506
 O1637 O 0.42340 0.97923 0.39429
 O1638 O 0.39880 0.97921 0.36948
 C1639 C 0.41601 0.97202 0.37700
 C1640 C 0.42731 0.95478 0.36587
 C1641 C 0.42031 0.94754 0.34599
 H1642 H 0.40689 0.95495 0.33831
 O1643 O 0.57627 1.02048 0.39416
 O1644 O 0.60084 1.02049 0.36933
 C1645 C 0.58365 1.02769 0.37686
 C1646 C 0.57235 1.04494 0.36573
 C1647 C 0.57934 1.05219 0.34586
 H1648 H 0.59275 1.04477 0.33817
 O1649 O 0.47928 0.89471 0.42329
 O1650 O 0.47927 0.86997 0.39864
 C1651 C 0.47208 0.87749 0.41590
 C1652 C 0.45484 0.86640 0.42726
 C1653 C 0.44764 0.84658 0.42029
 H1654 H 0.45508 0.83892 0.40684
 O1655 O 0.52045 1.10509 0.42317
 O1656 O 0.52045 1.12980 0.39848
 C1657 C 0.52765 1.12231 0.41574
 C1658 C 0.54491 1.13339 0.42707
 C1659 C 0.55207 1.15323 0.42010
 H1660 H 0.54460 1.16092 0.40667
 O1661 O 0.39463 0.92354 0.47937
 O1662 O 0.36995 0.89894 0.47942
 C1663 C 0.37742 0.91612 0.47216
 C1664 C 0.36630 0.92736 0.45480
 C1665 C 0.34653 0.92030 0.44754
 H1666 H 0.33891 0.90689 0.45502
 O1667 O 0.60526 1.07624 0.47911
 O1668 O 0.62994 1.10084 0.47903
 C1669 C 0.62245 1.08364 0.47183
 C1670 C 0.63353 1.07236 0.45449
 C1671 C 0.65332 1.07935 0.44720
 H1672 H 0.66098 1.09275 0.45466
 O1673 O 0.52050 0.92361 0.39418
 O1674 O 0.52054 0.89902 0.36939
 C1675 C 0.52773 0.91621 0.37690
 C1676 C 0.54502 0.92746 0.36578
 C1677 C 0.55226 0.92046 0.34591
 H1678 H 0.54482 0.90707 0.33822
 O1679 O 0.47921 1.07612 0.39418
 O1680 O 0.47916 1.10067 0.36934
 C1681 C 0.47197 1.08350 0.37690
 C1682 C 0.45468 1.07222 0.36581
 C1683 C 0.44745 1.07918 0.34591
 H1684 H 0.45491 1.09254 0.33818
 O1685 O 0.39446 1.02043 0.42337
 O1686 O 0.36972 1.02046 0.39872
 C1687 C 0.37724 1.02765 0.41597
 C1688 C 0.36618 1.04491 0.42731
 C1689 C 0.34634 1.05211 0.42036
 H1690 H 0.33863 1.04466 0.40695
 O1691 O 0.60524 0.97930 0.42325
 O1692 O 0.62996 0.97924 0.39857
 C1693 C 0.62245 0.97207 0.41584
 C1694 C 0.63353 0.95483 0.42721
 C1695 C 0.65337 0.94762 0.42026
 H1696 H 0.66105 0.95504 0.40682
 O1697 O 0.57625 0.89474 0.47934
 O1698 O 0.60082 0.87002 0.47930
 C1699 C 0.58362 0.87753 0.47210
 C1700 C 0.57231 0.86645 0.45478
 C1701 C 0.57923 0.84660 0.44761
 H1702 H 0.59259 0.83891 0.45513
 O1703 O 0.42353 1.10514 0.47922
 O1704 O 0.39894 1.12985 0.47918
 C1705 C 0.41613 1.12234 0.47195
 C1706 C 0.42740 1.13340 0.45460
 C1707 C 0.42044 1.15321 0.44735
 H1708 H 0.40706 1.16090 0.45484
 Cu1709 Cu 0.58830 0.99989 0.41116
 Cu1710 Cu 0.61789 0.99986 0.38145
 Cu1711 Cu 0.41139 0.99982 0.41130
 Cu1712 Cu 0.38178 0.99983 0.38162
 Cu1713 Cu 0.58832 1.08823 0.49982
 Cu1714 Cu 0.61787 1.11784 0.49975
 Cu1715 Cu 0.58830 0.91164 0.50003
 Cu1716 Cu 0.61789 0.88205 0.50001
 Cu1717 Cu 0.41153 1.08824 0.49995
 Cu1718 Cu 0.38193 1.11781 0.49994
 Cu1719 Cu 0.41163 0.91158 0.50006
 Cu1720 Cu 0.38208 0.88197 0.50014
 Cu1721 Cu 0.49984 1.08815 0.41113
 Cu1722 Cu 0.49980 1.11771 0.38140
 Cu1723 Cu 0.49989 0.91164 0.41121
 Cu1724 Cu 0.49990 0.88203 0.38154
 C1725 C 0.55507 0.94477 0.37548
 H1726 H 0.54977 0.95008 0.39093
 C1727 C 0.56934 0.93049 0.33600
 C1728 C 0.44461 1.05494 0.37555
 H1729 H 0.44991 1.04966 0.39102
 C1730 C 0.43038 1.06915 0.33603
 C1731 C 0.44469 1.12371 0.44449
 H1732 H 0.44997 1.10831 0.44980
 C1733 C 0.43049 1.16308 0.43022
 C1734 C 0.55504 0.87614 0.44465
 H1735 H 0.54979 0.89158 0.44989
 C1736 C 0.56915 0.83671 0.43053
 C1737 C 0.62384 0.94480 0.44460
 H1738 H 0.60842 0.95008 0.44987
 C1739 C 0.66324 0.93059 0.43041
 C1740 C 0.37589 1.05498 0.44466
 H1741 H 0.39132 1.04971 0.44993
 C1742 C 0.33648 1.06916 0.43047
 C1743 C 0.55501 1.05496 0.37543
 H1744 H 0.54971 1.04965 0.39088
 C1745 C 0.56927 1.06924 0.33594
 C1746 C 0.44466 0.94477 0.37555
 H1747 H 0.44997 0.95007 0.39100
 C1748 C 0.43039 0.93051 0.33607
 C1749 C 0.62387 1.05504 0.44443
 H1750 H 0.60848 1.04974 0.44976
 C1751 C 0.66319 1.06930 0.43008
 C1752 C 0.37591 0.94469 0.44470
 H1753 H 0.39128 0.95004 0.45002
 C1754 C 0.33663 0.93029 0.43039
 C1755 C 0.55499 1.12371 0.44443
 H1756 H 0.54975 1.10829 0.44971
 C1757 C 0.56910 1.16312 0.43022
 C1758 C 0.44480 0.87606 0.44465
 H1759 H 0.45007 0.89147 0.44994
 C1760 C 0.43062 0.83669 0.43042
 O1761 O 0.47937 0.42354 0.89444
 O1762 O 0.47936 0.39890 0.86970
 C1763 C 0.47214 0.41610 0.87719
 C1764 C 0.45482 0.42732 0.86607
 C1765 C 0.44754 0.42027 0.84623
 H1766 H 0.45497 0.40686 0.83856
 O1767 O 0.52035 0.57637 0.89437
 O1768 O 0.52034 0.60095 0.86955
 C1769 C 0.52755 0.58377 0.87708
 C1770 C 0.54482 0.57250 0.86594
 C1771 C 0.55204 0.57949 0.84606
 H1772 H 0.54460 0.59290 0.83837
 O1773 O 0.39470 0.47921 0.92353
 O1774 O 0.36994 0.47915 0.89889
 C1775 C 0.37747 0.47198 0.91615
 C1776 C 0.36642 0.45474 0.92753
 C1777 C 0.34660 0.44750 0.92057
 H1778 H 0.33891 0.45491 0.90712
 O1779 O 0.60501 0.52067 0.92335
 O1780 O 0.62975 0.52073 0.89869
 C1781 C 0.62223 0.52790 0.91595
 C1782 C 0.63328 0.54516 0.92730
 C1783 C 0.65312 0.55237 0.92034
 H1784 H 0.66081 0.54494 0.90691
 O1785 O 0.42377 0.39474 0.97970
 O1786 O 0.39923 0.37000 0.97972
 C1787 C 0.41640 0.37751 0.97248
 C1788 C 0.42769 0.36642 0.95515
 C1789 C 0.42074 0.34659 0.94796
 H1790 H 0.40737 0.33892 0.95548
 O1791 O 0.57602 0.60526 0.97945
 O1792 O 0.60058 0.62998 0.97939
 C1793 C 0.58338 0.62248 0.97220
 C1794 C 0.57206 0.63357 0.95489
 C1795 C 0.57896 0.65342 0.94772
 H1796 H 0.59232 0.66111 0.95523
 O1797 O 0.42355 0.52042 0.89439
 O1798 O 0.39895 0.52042 0.86960
 C1799 C 0.41614 0.52763 0.87711
 C1800 C 0.42739 0.54491 0.86598
 C1801 C 0.42042 0.55211 0.84607
 H1802 H 0.40705 0.54463 0.83836
 O1803 O 0.57619 0.47939 0.89429
 O1804 O 0.60078 0.47939 0.86949
 C1805 C 0.58361 0.47216 0.87703
 C1806 C 0.57239 0.45484 0.86594
 C1807 C 0.57947 0.44752 0.84612
 H1808 H 0.59288 0.45495 0.83843
 O1809 O 0.52068 0.39474 0.92356
 O1810 O 0.52073 0.36996 0.89897
 C1811 C 0.52793 0.37752 0.91620
 C1812 C 0.54523 0.36652 0.92756
 C1813 C 0.55255 0.34673 0.92059
 H1814 H 0.54516 0.33902 0.90714
 O1815 O 0.47907 0.60524 0.92342
 O1816 O 0.47900 0.62997 0.89875
 C1817 C 0.47182 0.62244 0.91601
 C1818 C 0.45454 0.63349 0.92736
 C1819 C 0.44729 0.65330 0.92039
 H1820 H 0.45470 0.66099 0.90695
 O1821 O 0.39460 0.57608 0.97954
 O1822 O 0.36983 0.60061 0.97951
 C1823 C 0.37736 0.58344 0.97229
 C1824 C 0.36629 0.57215 0.95497
 C1825 C 0.34644 0.57907 0.94777
 H1826 H 0.33875 0.59242 0.95529
 O1827 O 0.60527 0.42395 0.97960
 O1828 O 0.63003 0.39941 0.97959
 C1829 C 0.62249 0.41658 0.97235
 C1830 C 0.63354 0.42785 0.95499
 C1831 C 0.65338 0.42092 0.94778
 H1832 H 0.66109 0.40759 0.95532
 O1833 O 0.47913 0.57628 0.89441
 O1834 O 0.47905 0.60085 0.86958
 C1835 C 0.47190 0.58365 0.87712
 C1836 C 0.45467 0.57233 0.86599
 C1837 C 0.44746 0.57927 0.84609
 H1838 H 0.45487 0.59268 0.83838
 O1839 O 0.52061 0.42358 0.89440
 O1840 O 0.52066 0.39895 0.86966
 C1841 C 0.52783 0.41616 0.87714
 C1842 C 0.54510 0.42742 0.86599
 C1843 C 0.55242 0.42036 0.84617
 H1844 H 0.54505 0.40690 0.83853
 O1845 O 0.60508 0.47947 0.92340
 O1846 O 0.62982 0.47948 0.89875
 C1847 C 0.62233 0.47229 0.91602
 C1848 C 0.63345 0.45510 0.92741
 C1849 C 0.65330 0.44792 0.92045
 H1850 H 0.66095 0.45534 0.90699
 O1851 O 0.39464 0.52041 0.92348
 O1852 O 0.36988 0.52042 0.89884
 C1853 C 0.37740 0.52761 0.91609
 C1854 C 0.36631 0.54485 0.92745
 C1855 C 0.34646 0.55203 0.92051
 H1856 H 0.33877 0.54459 0.90707
 O1857 O 0.42343 0.60513 0.97948
 O1858 O 0.39880 0.62979 0.97946
 C1859 C 0.41599 0.62232 0.97223
 C1860 C 0.42723 0.63342 0.95488
 C1861 C 0.42023 0.65323 0.94766
 H1862 H 0.40684 0.66088 0.95517
 O1863 O 0.57639 0.39496 0.97963
 O1864 O 0.60101 0.37029 0.97962
 C1865 C 0.58381 0.37776 0.97239
 C1866 C 0.57256 0.36664 0.95507
 C1867 C 0.57962 0.34686 0.94785
 H1868 H 0.59303 0.33925 0.95534
 O1869 O 0.57607 0.52062 0.89429
 O1870 O 0.60066 0.52068 0.86949
 C1871 C 0.58346 0.52785 0.87702
 C1872 C 0.57216 0.54512 0.86591
 C1873 C 0.57913 0.55237 0.84602
 H1874 H 0.59252 0.54493 0.83831
 O1875 O 0.42357 0.47919 0.89440
 O1876 O 0.39896 0.47913 0.86962
 C1877 C 0.41616 0.47195 0.87714
 C1878 C 0.42743 0.45466 0.86604
 C1879 C 0.42040 0.44735 0.84620
 H1880 H 0.40697 0.45475 0.83852
 O1881 O 0.52030 0.60527 0.92345
 O1882 O 0.52028 0.63000 0.89879
 C1883 C 0.52748 0.62249 0.91605
 C1884 C 0.54472 0.63358 0.92741
 C1885 C 0.55187 0.65344 0.92048
 H1886 H 0.54440 0.66114 0.90706
 O1887 O 0.47945 0.39469 0.92360
 O1888 O 0.47944 0.36990 0.89901
 C1889 C 0.47225 0.37745 0.91625
 C1890 C 0.45501 0.36639 0.92764
 C1891 C 0.44780 0.34655 0.92070
 H1892 H 0.45524 0.33886 0.90727
 O1893 O 0.60498 0.57633 0.97941
 O1894 O 0.62968 0.60092 0.97935
 C1895 C 0.62218 0.58373 0.97214
 C1896 C 0.63326 0.57246 0.95481
 C1897 C 0.65309 0.57942 0.94760
 H1898 H 0.66076 0.59278 0.95511
 O1899 O 0.39477 0.42362 0.97967
 O1900 O 0.37008 0.39903 0.97969
 C1901 C 0.37756 0.41621 0.97244
 C1902 C 0.36646 0.42745 0.95508
 C1903 C 0.34664 0.42047 0.94787
 H1904 H 0.33898 0.40710 0.95539
 Cu1905 Cu 0.50002 0.41161 0.91146
 Cu1906 Cu 0.50005 0.38194 0.88185
 Cu1907 Cu 0.49972 0.58833 0.91139
 Cu1908 Cu 0.49966 0.61792 0.88168
 Cu1909 Cu 0.41159 0.49981 0.91141
 Cu1910 Cu 0.38195 0.49978 0.88175
 Cu1911 Cu 0.58812 0.50003 0.91130
 Cu1912 Cu 0.61773 0.50007 0.88162
 C1913 C 0.44479 0.44466 0.87574
 H1914 H 0.45012 0.45001 0.89116
 C1915 C 0.43044 0.43027 0.83633
 C1916 C 0.55486 0.55517 0.87563
 H1917 H 0.54957 0.54987 0.89109
 C1918 C 0.56908 0.56944 0.83613
 C1919 C 0.37611 0.44473 0.94493
 H1920 H 0.39152 0.45003 0.95021
 C1921 C 0.33674 0.43048 0.93073
 C1922 C 0.62359 0.55518 0.94468
 H1923 H 0.60817 0.54991 0.94996
 C1924 C 0.66298 0.56939 0.93048
 C1925 C 0.44497 0.37609 0.94501
 H1926 H 0.45024 0.39150 0.95026
 C1927 C 0.43078 0.33669 0.93086
 C1928 C 0.55479 0.62388 0.94476
 H1929 H 0.54956 0.60844 0.95001
 C1930 C 0.56888 0.66332 0.93063
 C1931 C 0.44466 0.55500 0.87570
 H1932 H 0.44995 0.54974 0.89118
 C1933 C 0.43044 0.56918 0.83616
 C1934 C 0.55507 0.44481 0.87564
 H1935 H 0.54971 0.45017 0.89105
 C1936 C 0.56950 0.43039 0.83627
 C1937 C 0.55522 0.37624 0.94495
 H1938 H 0.54987 0.39162 0.95024
 C1939 C 0.56963 0.33694 0.93072
 C1940 C 0.44454 0.62378 0.94475
 H1941 H 0.44985 0.60839 0.95004
 C1942 C 0.43024 0.66314 0.93053
 C1943 C 0.37600 0.55489 0.94483
 H1944 H 0.39143 0.54963 0.95010
 C1945 C 0.33656 0.56903 0.93066
 C1946 C 0.62380 0.44508 0.94483
 H1947 H 0.60838 0.45033 0.95010
 C1948 C 0.66323 0.43095 0.93063
 O1949 O 0.52070 0.42379 1.10620
 O1950 O 0.52079 0.39919 1.13100
 C1951 C 0.52795 0.41639 1.12348
 C1952 C 0.54521 0.42768 1.13459
 C1953 C 0.55247 0.42072 1.15447
 H1954 H 0.54505 0.40732 1.16218
 O1955 O 0.47928 0.57639 1.10608
 O1956 O 0.47923 0.60101 1.13083
 C1957 C 0.47205 0.58380 1.12334
 C1958 C 0.45480 0.57253 1.13450
 C1959 C 0.44756 0.57955 1.15436
 H1960 H 0.45499 0.59296 1.16203
 O1961 O 0.39471 0.52057 1.07712
 O1962 O 0.36998 0.52059 1.10177
 C1963 C 0.37748 0.52777 1.08451
 C1964 C 0.36637 0.54500 1.07314
 C1965 C 0.34655 0.55221 1.08013
 H1966 H 0.33890 0.54480 1.09360
 O1967 O 0.60527 0.47954 1.07706
 O1968 O 0.63003 0.47957 1.10169
 C1969 C 0.62251 0.47236 1.08445
 C1970 C 0.63361 0.45512 1.07310
 C1971 C 0.65344 0.44792 1.08008
 H1972 H 0.66111 0.45535 1.09353
 O1973 O 0.57638 0.39499 1.02103
 O1974 O 0.60098 0.37031 1.02105
 C1975 C 0.58378 0.37779 1.02827
 C1976 C 0.57251 0.36668 1.04559
 C1977 C 0.57942 0.34682 1.05273
 H1978 H 0.59277 0.33913 1.04518
 O1979 O 0.42352 0.60509 1.02088
 O1980 O 0.39890 0.62977 1.02090
 C1981 C 0.41612 0.62230 1.02811
 C1982 C 0.42741 0.63342 1.04541
 C1983 C 0.42048 0.65328 1.05254
 H1984 H 0.40712 0.66095 1.04500
 O1985 O 0.42369 0.47941 1.10623
 O1986 O 0.39910 0.47936 1.13104
 C1987 C 0.41631 0.47218 1.12351
 C1988 C 0.42761 0.45493 1.13464
 C1989 C 0.42064 0.44768 1.15453
 H1990 H 0.40723 0.45511 1.16223
 O1991 O 0.57630 0.52075 1.10609
 O1992 O 0.60092 0.52083 1.13087
 C1993 C 0.58371 0.52799 1.12335
 C1994 C 0.57241 0.54525 1.13446
 C1995 C 0.57938 0.55248 1.15434
 H1996 H 0.59278 0.54505 1.16205
 O1997 O 0.47949 0.39485 1.07715
 O1998 O 0.47952 0.37011 1.10180
 C1999 C 0.47230 0.37762 1.08455
 C2000 C 0.45506 0.36653 1.07322
 C2001 C 0.44787 0.34671 1.08021
 H2002 H 0.45533 0.33905 1.09366
 O2003 O 0.52046 0.60529 1.07694
 O2004 O 0.52047 0.63006 1.10155
 C2005 C 0.52766 0.62253 1.08431
 C2006 C 0.54490 0.63359 1.07293
 C2007 C 0.55211 0.65342 1.07987
 H2008 H 0.54469 0.66111 1.09331
 O2009 O 0.39481 0.42368 1.02108
 O2010 O 0.37012 0.39910 1.02115
 C2011 C 0.37761 0.41629 1.02835
 C2012 C 0.36652 0.42757 1.04568
 C2013 C 0.34669 0.42063 1.05288
 H2014 H 0.33901 0.40728 1.04538
 O2015 O 0.60504 0.57633 1.02082
 O2016 O 0.62974 0.60091 1.02079
 C2017 C 0.62226 0.58373 1.02803
 C2018 C 0.63339 0.57246 1.04535
 C2019 C 0.65325 0.57938 1.05247
 H2020 H 0.66093 0.59272 1.04491
 O2021 O 0.52051 0.57641 1.10605
 O2022 O 0.52052 0.60102 1.13081
 C2023 C 0.52773 0.58383 1.12331
 C2024 C 0.54502 0.57258 1.13444
 C2025 C 0.55223 0.57956 1.15433
 H2026 H 0.54477 0.59294 1.16203
 O2027 O 0.47948 0.42375 1.10623
 O2028 O 0.47950 0.39916 1.13103
 C2029 C 0.47228 0.41634 1.12351
 C2030 C 0.45500 0.42760 1.13464
 C2031 C 0.44778 0.42060 1.15453
 H2032 H 0.45523 0.40722 1.16223
 O2033 O 0.60518 0.52073 1.07696
 O2034 O 0.62995 0.52082 1.10159
 C2035 C 0.62240 0.52797 1.08432
 C2036 C 0.63345 0.54519 1.07291
 C2037 C 0.65332 0.55236 1.07978
 H2038 H 0.66105 0.54493 1.09320
 O2039 O 0.39479 0.47937 1.07714
 O2040 O 0.37004 0.47932 1.10179
 C2041 C 0.37757 0.47214 1.08454
 C2042 C 0.36651 0.45489 1.07318
 C2043 C 0.34667 0.44770 1.08013
 H2044 H 0.33897 0.45514 1.09356
 O2045 O 0.57608 0.60526 1.02084
 O2046 O 0.60065 0.62998 1.02082
 C2047 C 0.58347 0.62248 1.02807
 C2048 C 0.57221 0.63356 1.04541
 C2049 C 0.57917 0.65339 1.05260
 H2050 H 0.59253 0.66105 1.04508
 O2051 O 0.42378 0.39476 1.02110
 O2052 O 0.39923 0.37003 1.02117
 C2053 C 0.41641 0.37755 1.02838
 C2054 C 0.42771 0.36649 1.04573
 C2055 C 0.42078 0.34667 1.05297
 H2056 H 0.40741 0.33898 1.04549
 O2057 O 0.57636 0.47953 1.10613
 O2058 O 0.60097 0.47956 1.13092
 C2059 C 0.58378 0.47234 1.12342
 C2060 C 0.57253 0.45507 1.13456
 C2061 C 0.57954 0.44785 1.15444
 H2062 H 0.59293 0.45531 1.16213
 O2063 O 0.42363 0.52063 1.10620
 O2064 O 0.39904 0.52064 1.13101
 C2065 C 0.41622 0.52785 1.12347
 C2066 C 0.42748 0.54515 1.13456
 C2067 C 0.42048 0.55242 1.15443
 H2068 H 0.40710 0.54498 1.16215
 O2069 O 0.47924 0.60523 1.07692
 O2070 O 0.47919 0.63000 1.10152
 C2071 C 0.47201 0.62246 1.08429
 C2072 C 0.45475 0.63350 1.07290
 C2073 C 0.44757 0.65336 1.07978
 H2074 H 0.45503 0.66109 1.09318
 O2075 O 0.52071 0.39490 1.07711
 O2076 O 0.52079 0.37015 1.10176
 C2077 C 0.52795 0.37768 1.08449
 C2078 C 0.54519 0.36663 1.07311
 C2079 C 0.55236 0.34676 1.07999
 H2080 H 0.54491 0.33903 1.09340
 O2081 O 0.60533 0.42392 1.02101
 O2082 O 0.63007 0.39937 1.02104
 C2083 C 0.62255 0.41654 1.02826
 C2084 C 0.63363 0.42782 1.04560
 C2085 C 0.65346 0.42087 1.05282
 H2086 H 0.66114 0.40751 1.04532
 O2087 O 0.39458 0.57616 1.02095
 O2088 O 0.36982 0.60070 1.02097
 C2089 C 0.37736 0.58353 1.02821
 C2090 C 0.36632 0.57227 1.04558
 C2091 C 0.34650 0.57924 1.05282
 H2092 H 0.33880 0.59259 1.04531
 Cu2093 Cu 0.50009 0.41179 1.08920
 Cu2094 Cu 0.50016 0.38217 1.11889
 Cu2095 Cu 0.49987 0.58836 1.08903
 Cu2096 Cu 0.49985 0.61800 1.11866
 Cu2097 Cu 0.41174 0.41166 1.00038
 Cu2098 Cu 0.38219 0.38206 1.00044
 Cu2099 Cu 0.58838 0.41192 1.00032
 Cu2100 Cu 0.61800 0.38237 1.00033
 Cu2101 Cu 0.41150 0.58816 1.00021
 Cu2102 Cu 0.38186 0.61769 1.00021
 Cu2103 Cu 0.58807 0.58833 1.00014
 Cu2104 Cu 0.61764 0.61792 1.00008
 Cu2105 Cu 0.41167 0.50000 1.08921
 Cu2106 Cu 0.38206 0.49997 1.11889
 Cu2107 Cu 0.58831 0.50013 1.08909
 Cu2108 Cu 0.61795 0.50020 1.11875
 C2109 C 0.55523 0.44500 1.12487
 H2110 H 0.54992 0.45029 1.10941
 C2111 C 0.56952 0.43079 1.16437
 C2112 C 0.44478 0.55519 1.12483
 H2113 H 0.45008 0.54987 1.10939
 C2114 C 0.43052 0.56950 1.16430
 C2115 C 0.37602 0.55500 1.05572
 H2116 H 0.39143 0.54972 1.05041
 C2117 C 0.33665 0.56922 1.06998
 C2118 C 0.62393 0.44509 1.05572
 H2119 H 0.60852 0.45036 1.05043
 C2120 C 0.66333 0.43090 1.06995
 C2121 C 0.55524 0.37636 1.05576
 H2122 H 0.55000 0.39180 1.05053
 C2123 C 0.56937 0.33689 1.06981
 C2124 C 0.44469 0.62376 1.05557
 H2125 H 0.44995 0.60832 1.05035
 C2126 C 0.43055 0.66322 1.06961
 C2127 C 0.44493 0.44490 1.12494
 H2128 H 0.45022 0.45020 1.10948
 C2129 C 0.43071 0.43064 1.16444
 C2130 C 0.55508 0.55528 1.12474
 H2131 H 0.54980 0.54998 1.10928
 C2132 C 0.56930 0.56952 1.16425
 C2133 C 0.44500 0.37619 1.05583
 H2134 H 0.45025 0.39160 1.05052
 C2135 C 0.43085 0.33681 1.07010
 C2136 C 0.55493 0.62390 1.05555
 H2137 H 0.54965 0.60849 1.05029
 C2138 C 0.56914 0.66328 1.06972
 C2139 C 0.37620 0.44485 1.05581
 H2140 H 0.39162 0.45011 1.05054
 C2141 C 0.33679 0.43068 1.06999
 C2142 C 0.62372 0.55521 1.05554
 H2143 H 0.60827 0.54996 1.05033
 C2144 C 0.66319 0.56934 1.06957
 C2145 C 1.09474 1.11855 1.26957
 C2146 C 1.10756 1.10714 1.25565
 C2147 C 1.12889 1.10413 1.26045
 C2148 C 1.13745 1.11256 1.27906
 C2149 C 1.12482 1.12432 1.29337
 C2150 C 1.10321 1.12706 1.28820
 C2151 C 1.09895 1.09878 1.23624
 C2152 C 1.09194 1.09189 1.21986
 C2153 C 1.08394 1.08396 1.20053
 C2154 C 1.07728 1.07732 1.18390
 H2155 H 1.07813 1.12084 1.26608
 H2156 H 1.13902 1.09548 1.24966
 H2157 H 1.15424 1.11055 1.28150
 H2158 H 1.09243 1.13509 1.29879
 C2159 C 1.12961 0.60863 0.75812
 C2160 C 1.10768 0.60713 0.75561
 C2161 C 1.09427 0.61406 0.77185
 C2162 C 1.10274 0.62253 0.79050
 C2163 C 1.12477 0.62416 0.79314
 C2164 C 1.13811 0.61708 0.77675
 C2165 C 1.09902 0.59872 0.73626
 C2166 C 1.09197 0.59179 0.71991
 C2167 C 1.08394 0.58383 0.70061
 C2168 C 1.07727 0.57717 0.68399
 H2169 H 1.14013 0.60340 0.74562
 H2170 H 1.07727 0.61295 0.77008
 H2171 H 1.09208 0.62762 0.80293
 H2172 H 1.15511 0.61839 0.77818
 C2173 C 0.60861 1.12941 0.75777
 C2174 C 0.60690 1.10749 0.75543
 C2175 C 0.61363 1.09413 0.77180
 C2176 C 0.62214 1.10266 0.79040
 C2177 C 0.62399 1.12468 0.79287
 C2178 C 0.61709 1.13796 0.77635
 C2179 C 0.59850 1.09878 0.73610
 C2180 C 0.59159 1.09171 0.71976
 C2181 C 0.58366 1.08370 0.70045
 C2182 C 0.57704 1.07705 0.68380
 H2183 H 0.60352 1.13989 0.74516
 H2184 H 0.61236 1.07714 0.77016
 H2185 H 0.62710 1.09205 0.80294
 H2186 H 0.61858 1.15495 0.77764
 C2187 C 0.60375 0.62865 1.26096
 C2188 C 0.60670 0.60732 1.25616
 C2189 C 0.61806 0.59446 1.27011
 C2190 C 0.62657 0.60290 1.28875
 C2191 C 0.62390 0.62452 1.29390
 C2192 C 0.61219 0.63718 1.27956
 C2193 C 0.59835 0.59875 1.23674
 C2194 C 0.59148 0.59177 1.22034
 C2195 C 0.58359 0.58382 1.20098
 C2196 C 0.57699 0.57721 1.18431
 H2197 H 0.59514 0.63881 1.25014
 H2198 H 0.62030 0.57785 1.26662
 H2199 H 0.63457 0.59211 1.29935
 H2200 H 0.61023 0.65397 1.28199
 C2201 C 0.90587 0.88165 1.26972
 C2202 C 0.89305 0.89298 1.25571
 C2203 C 0.87168 0.89585 1.26039
 C2204 C 0.86308 0.88740 1.27896
 C2205 C 0.87571 0.87576 1.29338
 C2206 C 0.89736 0.87312 1.28832
 C2207 C 0.90168 0.90140 1.23634
 C2208 C 0.90865 0.90836 1.21997
 C2209 C 0.91655 0.91636 1.20064
 C2210 C 0.92311 0.92304 1.18398
 H2211 H 0.92251 0.87945 1.26631
 H2212 H 0.86155 0.90443 1.24952
 H2213 H 0.84626 0.88931 1.28130
 H2214 H 0.90812 0.86515 1.29898
 C2215 C 0.87132 0.39625 0.76075
 C2216 C 0.89266 0.39330 0.75597
 C2217 C 0.90551 0.38196 0.76995
 C2218 C 0.89704 0.37346 0.78858
 C2219 C 0.87541 0.37612 0.79371
 C2220 C 0.86276 0.38783 0.77936
 C2221 C 0.90126 0.40163 0.73655
 C2222 C 0.90826 0.40848 0.72014
 C2223 C 0.91624 0.41636 0.70078
 C2224 C 0.92288 0.42295 0.68412
 H2225 H 0.86117 0.40485 0.74991
 H2226 H 0.92213 0.37972 0.76647
 H2227 H 0.90783 0.36548 0.79920
 H2228 H 0.84596 0.38979 0.78177
 C2229 C 0.40618 0.88580 0.77193
 C2230 C 0.39281 0.89266 0.75562
 C2231 C 0.37089 0.89105 0.75802
 C2232 C 0.36234 0.88261 0.77662
 C2233 C 0.37562 0.87565 0.79311
 C2234 C 0.39766 0.87734 0.79057
 C2235 C 0.40151 0.90113 0.73631
 C2236 C 0.40853 0.90813 0.71998
 C2237 C 0.41649 0.91617 0.70069
 C2238 C 0.42310 0.92288 0.68406
 H2239 H 0.42318 0.88699 0.77025
 H2240 H 0.36040 0.89622 0.74545
 H2241 H 0.34533 0.88123 0.77797
 H2242 H 0.40827 0.87232 0.80307
 C2243 C 0.37143 0.39626 1.26112
 C2244 C 0.39277 0.39325 1.25633
 C2245 C 0.40558 0.38185 1.27028
 C2246 C 0.39710 0.37335 1.28890
 C2247 C 0.37548 0.37608 1.29405
 C2248 C 0.36286 0.38784 1.27972
 C2249 C 0.40138 0.40158 1.23691
 C2250 C 0.40839 0.40844 1.22051
 C2251 C 0.41638 0.41632 1.20116
 C2252 C 0.42301 0.42293 1.18450
 H2253 H 0.36130 0.40491 1.25030
 H2254 H 0.42220 0.37957 1.26679
 H2255 H 0.40787 0.36532 1.29951
 H2256 H 0.34607 0.38985 1.28215
 C2257 C 0.87108 1.10409 0.73926
 C2258 C 0.89242 1.10708 0.74405
 C2259 C 0.90523 1.11847 0.73009
 C2260 C 0.89674 1.12697 0.71146
 C2261 C 0.87511 1.12426 0.70632
 C2262 C 0.86250 1.11252 0.72066
 C2263 C 0.90104 1.09874 0.76346
 C2264 C 0.90807 1.09187 0.77985
 C2265 C 0.91609 1.08396 0.79919
 C2266 C 0.92275 1.07734 0.81583
 H2267 H 0.86095 1.09545 0.75009
 H2268 H 0.92184 1.12074 0.73356
 H2269 H 0.90751 1.13499 0.70085
 H2270 H 0.84570 1.11052 0.71824
 C2271 C 0.87094 0.60857 0.24170
 C2272 C 0.89286 0.60699 0.24417
 C2273 C 0.90626 0.61382 0.22788
 C2274 C 0.89777 0.62225 0.20921
 C2275 C 0.87575 0.62396 0.20661
 C2276 C 0.86242 0.61698 0.22306
 C2277 C 0.90153 0.59864 0.26355
 C2278 C 0.90858 0.59175 0.27992
 C2279 C 0.91660 0.58384 0.29925
 C2280 C 0.92325 0.57722 0.31590
 H2281 H 0.86042 0.60342 0.25425
 H2282 H 0.92326 0.61265 0.22962
 H2283 H 0.90842 0.62727 0.19674
 H2284 H 0.84542 0.61836 0.22167
 C2285 C 0.40550 1.11796 0.23015
 C2286 C 0.39263 1.10660 0.24408
 C2287 C 0.37129 1.10368 0.23925
 C2288 C 0.36277 1.11214 0.22064
 C2289 C 0.37545 1.12385 0.20633
 C2290 C 0.39708 1.12649 0.21151
 C2291 C 0.40118 1.09823 0.26351
 C2292 C 0.40814 1.09135 0.27992
 C2293 C 0.41608 1.08344 0.29928
 C2294 C 0.42269 1.07683 0.31596
 H2295 H 0.42212 1.12018 0.23367
 H2296 H 0.36112 1.09507 0.25005
 H2297 H 0.34598 1.11020 0.21819
 H2298 H 0.40789 1.13449 0.20093
 C2299 C 0.37073 0.60824 0.74171
 C2300 C 0.39264 0.60666 0.74427
 C2301 C 0.40611 0.61350 0.72804
 C2302 C 0.39771 0.62196 0.70935
 C2303 C 0.37569 0.62367 0.70666
 C2304 C 0.36230 0.61668 0.72304
 C2305 C 0.40123 0.59828 0.76367
 C2306 C 0.40821 0.59138 0.78006
 C2307 C 0.41615 0.58346 0.79942
 C2308 C 0.42276 0.57685 0.81609
 H2309 H 0.36016 0.60308 0.75421
 H2310 H 0.42310 0.61233 0.72985
 H2311 H 0.40841 0.62699 0.69692
 H2312 H 0.34530 0.61806 0.72157
 C2313 C 1.11401 0.90585 0.72809
 C2314 C 1.10722 0.89245 0.74439
 C2315 C 1.10888 0.87054 0.74196
 C2316 C 1.11733 0.86203 0.72334
 C2317 C 1.12427 0.87536 0.70687
 C2318 C 1.12249 0.89738 0.70944
 C2319 C 1.09881 0.90112 0.76374
 C2320 C 1.09187 0.90817 0.78008
 C2321 C 1.08390 0.91621 0.79938
 C2322 C 1.07724 0.92288 0.81600
 H2323 H 1.11278 0.92284 0.72979
 H2324 H 1.10375 0.86002 0.75452
 H2325 H 1.11877 0.84504 0.72197
 H2326 H 1.12748 0.90802 0.69695
 C2327 C 1.11395 0.40586 0.22805
 C2328 C 1.10718 0.39244 0.24434
 C2329 C 1.10882 0.37053 0.24188
 C2330 C 1.11724 0.36205 0.22324
 C2331 C 1.12417 0.37539 0.20678
 C2332 C 1.12240 0.39741 0.20938
 C2333 C 1.09880 0.40109 0.26372
 C2334 C 1.09190 0.40813 0.28008
 C2335 C 1.08397 0.41615 0.29940
 C2336 C 1.07734 0.42281 0.31604
 H2337 H 1.11273 0.42285 0.22978
 H2338 H 1.10371 0.36001 0.25443
 H2339 H 1.11867 0.34506 0.22184
 H2340 H 1.12737 0.40807 0.19690
 C2341 C 0.60399 0.87122 0.23943
 C2342 C 0.60691 0.89256 0.24420
 C2343 C 0.61827 0.90540 0.23024
 C2344 C 0.62680 0.89693 0.21162
 C2345 C 0.62416 0.87531 0.20650
 C2346 C 0.61245 0.86266 0.22084
 C2347 C 0.59853 0.90115 0.26360
 C2348 C 0.59163 0.90815 0.27998
 C2349 C 0.58369 0.91613 0.29932
 C2350 C 0.57706 0.92276 0.31596
 H2351 H 0.59539 0.86107 0.25026
 H2352 H 0.62049 0.92202 0.23371
 H2353 H 0.63479 0.90772 0.20101
 H2354 H 0.61051 0.84587 0.21843
 C2355 C 0.61435 0.40547 0.72851
 C2356 C 0.60753 0.39208 0.74480
 C2357 C 0.60919 0.37017 0.74238
 C2358 C 0.61767 0.36166 0.72377
 C2359 C 0.62464 0.37497 0.70731
 C2360 C 0.62286 0.39699 0.70988
 C2361 C 0.59905 0.40075 0.76413
 C2362 C 0.59207 0.40782 0.78045
 C2363 C 0.58403 0.41588 0.79971
 C2364 C 0.57732 0.42259 0.81629
 H2365 H 0.61311 0.42246 0.73021
 H2366 H 0.60404 0.35965 0.75493
 H2367 H 0.61911 0.34466 0.72241
 H2368 H 0.62786 0.40764 0.69740
 C2369 C 1.25747 1.12920 1.10800
 C2370 C 1.25506 1.10729 1.10630
 C2371 C 1.27139 1.09389 1.11289
 C2372 C 1.29003 1.10236 1.12126
 C2373 C 1.29255 1.12437 1.12313
 C2374 C 1.27607 1.13770 1.11635
 C2375 C 1.23570 1.09862 1.09807
 C2376 C 1.21934 1.09157 1.09131
 C2377 C 1.20002 1.08356 1.08354
 C2378 C 1.18339 1.07692 1.07702
 H2379 H 1.24489 1.13972 1.10303
 H2380 H 1.26970 1.07690 1.11161
 H2381 H 1.30252 1.09171 1.12612
 H2382 H 1.27742 1.15469 1.11786
 C2383 C 1.25772 0.62881 0.60756
 C2384 C 1.25530 0.60689 0.60596
 C2385 C 1.27163 0.59350 0.61257
 C2386 C 1.29029 0.60200 0.62087
 C2387 C 1.29283 0.62402 0.62265
 C2388 C 1.27635 0.63733 0.61584
 C2389 C 1.23590 0.59820 0.59784
 C2390 C 1.21951 0.59114 0.59117
 C2391 C 1.20015 0.58313 0.58351
 C2392 C 1.18348 0.57652 0.57707
 H2393 H 1.24514 0.63931 0.60257
 H2394 H 1.26993 0.57651 0.61137
 H2395 H 1.30278 0.59136 0.62576
 H2396 H 1.27771 0.65432 0.61728
 C2397 C 0.75966 1.12873 0.60353
 C2398 C 0.75503 1.10735 0.60639
 C2399 C 0.76911 1.09449 0.61756
 C2400 C 0.78769 1.10298 0.62600
 C2401 C 0.79267 1.12465 0.62345
 C2402 C 0.77823 1.13731 0.61189
 C2403 C 0.73565 1.09872 0.59815
 C2404 C 0.71928 1.09169 0.59137
 C2405 C 0.69997 1.08368 0.58358
 C2406 C 0.68335 1.07704 0.57704
 H2407 H 0.74876 1.13888 0.59505
 H2408 H 0.76575 1.07784 0.61972
 H2409 H 0.79839 1.09218 0.63385
 H2410 H 0.78054 1.15413 0.61002
 C2411 C 0.77134 0.59392 1.11279
 C2412 C 0.75501 0.60733 1.10618
 C2413 C 0.75745 0.62924 1.10782
 C2414 C 0.77609 0.63774 1.11611
 C2415 C 0.79256 0.62441 1.12290
 C2416 C 0.79000 0.60239 1.12110
 C2417 C 0.73563 0.59867 1.09802
 C2418 C 0.71924 0.59162 1.09131
 C2419 C 0.69990 0.58362 1.08360
 C2420 C 0.68324 0.57700 1.07714
 H2421 H 0.76962 0.57694 1.11156
 H2422 H 0.74488 0.63976 1.10284
 H2423 H 0.77746 0.65473 1.11757
 H2424 H 0.80249 0.59174 1.12597
 C2425 C 1.25994 0.89600 0.87187
 C2426 C 1.25509 0.89314 0.89328
 C2427 C 1.26893 0.88183 0.90629
 C2428 C 1.28753 0.87329 0.89791
 C2429 C 1.29275 0.87590 0.87621
 C2430 C 1.27851 0.88754 0.86340
 C2431 C 1.23571 0.90155 0.90177
 C2432 C 1.21934 0.90848 0.90864
 C2433 C 1.20002 0.91645 0.91644
 C2434 C 1.18338 0.92308 0.92294
 H2435 H 1.24920 0.90457 0.86159
 H2436 H 1.26538 0.87965 0.92297
 H2437 H 1.29805 0.86533 0.90882
 H2438 H 1.28098 0.88944 0.84653
 C2439 C 1.25994 0.37149 0.39669
 C2440 C 1.25530 0.39287 0.39385
 C2441 C 1.26939 0.40575 0.38274
 C2442 C 1.28800 0.39729 0.37434
 C2443 C 1.29299 0.37561 0.37686
 C2444 C 1.27853 0.36293 0.38835
 C2445 C 1.23588 0.40147 0.40205
 C2446 C 1.21949 0.40847 0.40878
 C2447 C 1.20013 0.41644 0.41652
 C2448 C 1.18348 0.42305 0.42301
 H2449 H 1.24902 0.36131 0.40511
 H2450 H 1.26602 0.42240 0.38060
 H2451 H 1.29871 0.40810 0.36653
 H2452 H 1.28085 0.34611 0.39020
 C2453 C 0.77089 0.88593 0.40638
 C2454 C 0.75476 0.89279 0.39281
 C2455 C 0.75733 0.89118 0.37082
 C2456 C 0.77593 0.88273 0.36240
 C2457 C 0.79223 0.87576 0.37588
 C2458 C 0.78951 0.87746 0.39798
 C2459 C 0.73544 0.90124 0.40138
 C2460 C 0.71912 0.90821 0.40832
 C2461 C 0.69984 0.91621 0.41620
 C2462 C 0.68323 0.92288 0.42276
 H2463 H 0.76906 0.88713 0.42343
 H2464 H 0.74491 0.89635 0.36018
 H2465 H 0.77742 0.88135 0.34534
 H2466 H 0.80187 0.87244 0.40875
 C2467 C 0.77120 0.40626 0.88698
 C2468 C 0.75487 0.39287 0.89359
 C2469 C 0.75727 0.37096 0.89189
 C2470 C 0.77588 0.36244 0.88355
 C2471 C 0.79235 0.37575 0.87676
 C2472 C 0.78983 0.39777 0.87861
 C2473 C 0.73552 0.40156 0.90183
 C2474 C 0.71917 0.40862 0.90862
 C2475 C 0.69986 0.41664 0.91642
 C2476 C 0.68324 0.42328 0.92297
 H2477 H 0.76951 0.42325 0.88824
 H2478 H 0.74469 0.36046 0.89688
 H2479 H 0.77722 0.34545 0.88206
 H2480 H 0.80233 0.40840 0.87374
 C2481 C 0.72902 0.90604 1.11392
 C2482 C 0.74534 0.89266 1.10724
 C2483 C 0.74294 0.87075 1.10887
 C2484 C 0.72433 0.86221 1.11719
 C2485 C 0.70784 0.87550 1.12401
 C2486 C 0.71039 0.89753 1.12226
 C2487 C 0.76466 0.90136 1.09892
 C2488 C 0.78098 0.90842 1.09205
 C2489 C 0.80023 0.91645 1.08413
 C2490 C 0.81681 0.92310 1.07749
 H2491 H 0.73071 0.92303 1.11271
 H2492 H 0.75550 0.86025 1.10383
 H2493 H 0.72297 0.84521 1.11860
 H2494 H 0.69789 0.90815 1.12715
 C2495 C 0.73127 0.40528 0.61847
 C2496 C 0.74529 0.39252 0.60714
 C2497 C 0.74063 0.37117 0.60412
 C2498 C 0.72207 0.36254 0.61246
 C2499 C 0.70765 0.37511 0.62412
 C2500 C 0.71268 0.39675 0.62688
 C2501 C 0.76464 0.40120 0.59885
 C2502 C 0.78097 0.40825 0.59200
 C2503 C 0.80024 0.41628 0.58410
 C2504 C 0.81682 0.42294 0.57747
 H2505 H 0.73466 0.42191 0.62076
 H2506 H 0.75150 0.36107 0.59553
 H2507 H 0.71973 0.34574 0.61044
 H2508 H 0.70203 0.40748 0.63484
 C2509 C 0.23103 0.90552 0.61816
 C2510 C 0.24508 0.89272 0.60690
 C2511 C 0.24039 0.87137 0.60390
 C2512 C 0.22179 0.86278 0.61218
 C2513 C 0.20736 0.87540 0.62378
 C2514 C 0.21241 0.89703 0.62652
 C2515 C 0.26447 0.90135 0.59868
 C2516 C 0.28084 0.90836 0.59189
 C2517 C 0.30015 0.91633 0.58405
 C2518 C 0.31678 0.92293 0.57748
 H2519 H 0.23444 0.92215 0.62044
 H2520 H 0.25128 0.86125 0.59536
 H2521 H 0.21944 0.84598 0.61019
 H2522 H 0.20174 0.90779 0.63444
 C2523 C 0.23094 0.40563 1.11813
 C2524 C 0.24498 0.39282 1.10687
 C2525 C 0.24029 0.37149 1.10383
 C2526 C 0.22167 0.36290 1.11208
 C2527 C 0.20724 0.37551 1.12369
 C2528 C 0.21230 0.39713 1.12646
 C2529 C 0.26439 0.40145 1.09870
 C2530 C 0.28078 0.40846 1.09195
 C2531 C 0.30012 0.41643 1.08417
 C2532 C 0.31676 0.42303 1.07764
 H2533 H 0.23435 0.42224 1.12044
 H2534 H 0.25118 0.36137 1.09529
 H2535 H 0.21931 0.34611 1.11006
 H2536 H 0.20163 0.40789 1.13437
 C2537 C 0.73126 1.11890 0.90566
 C2538 C 0.74504 1.10748 0.89270
 C2539 C 0.74012 1.10450 0.87131
 C2540 C 0.72154 1.11295 0.86284
 C2541 C 0.70736 1.12470 0.87561
 C2542 C 0.71265 1.12742 0.89727
 C2543 C 0.76441 1.09906 0.90121
 C2544 C 0.78076 1.09211 0.90813
 C2545 C 0.80005 1.08412 0.91602
 C2546 C 0.81666 1.07745 0.92259
 H2547 H 0.73485 1.12116 0.92232
 H2548 H 0.75081 1.09585 0.86106
 H2549 H 0.71901 1.11096 0.84599
 H2550 H 0.70218 1.13546 0.90816
 C2551 C 0.74283 0.62920 0.39130
 C2552 C 0.74528 0.60729 0.39293
 C2553 C 0.72898 0.59389 0.38630
 C2554 C 0.71030 0.60236 0.37801
 C2555 C 0.70770 0.62438 0.37627
 C2556 C 0.72417 0.63770 0.38304
 C2557 C 0.76465 0.59864 0.40120
 C2558 C 0.78100 0.59162 0.40803
 C2559 C 0.80031 0.58365 0.41589
 C2560 C 0.81693 0.57704 0.42248
 H2561 H 0.75538 0.63972 0.39631
 H2562 H 0.73071 0.57690 0.38752
 H2563 H 0.69781 0.59171 0.37316
 H2564 H 0.72277 0.65470 0.38162
 C2565 C 0.23071 1.09435 0.38224
 C2566 C 0.24478 1.10718 0.39343
 C2567 C 0.24015 1.12856 0.39629
 C2568 C 0.22160 1.13717 0.38792
 C2569 C 0.20716 1.12453 0.37635
 C2570 C 0.21214 1.10286 0.37379
 C2571 C 0.26416 1.09854 0.40168
 C2572 C 0.28052 1.09150 0.40847
 C2573 C 0.29984 1.08349 0.41627
 C2574 C 0.31646 1.07685 0.42281
 H2575 H 0.23407 1.07770 0.38008
 H2576 H 0.25106 1.13870 0.40478
 H2577 H 0.21929 1.15399 0.38979
 H2578 H 0.20145 1.09208 0.36593
 C2579 C 0.24012 0.62846 0.89682
 C2580 C 0.24476 0.60709 0.89391
 C2581 C 0.23069 0.59427 0.88272
 C2582 C 0.21210 0.60278 0.87430
 C2583 C 0.20712 0.62445 0.87688
 C2584 C 0.22155 0.63707 0.88848
 C2585 C 0.26417 0.59844 0.90209
 C2586 C 0.28055 0.59138 0.90881
 C2587 C 0.29989 0.58335 0.91654
 C2588 C 0.31653 0.57670 0.92303
 H2589 H 0.25103 0.63859 0.90531
 H2590 H 0.23405 0.57762 0.88051
 H2591 H 0.20141 0.59201 0.86643
 H2592 H 0.21923 0.65388 0.89038
 C2593 C 1.12941 1.25737 1.10775
 C2594 C 1.10749 1.25493 1.10616
 C2595 C 1.09409 1.27123 1.11283
 C2596 C 1.10258 1.28986 1.12118
 C2597 C 1.12461 1.29241 1.12294
 C2598 C 1.13793 1.27598 1.11607
 C2599 C 1.09880 1.23557 1.09796
 C2600 C 1.09172 1.21922 1.09122
 C2601 C 1.08368 1.19991 1.08348
 C2602 C 1.07703 1.18328 1.07699
 H2603 H 1.13992 1.24482 1.10271
 H2604 H 1.07710 1.26951 1.11164
 H2605 H 1.09193 1.30232 1.12611
 H2606 H 1.15493 1.27735 1.11750
 C2607 C 1.09422 0.77110 0.61303
 C2608 C 1.10762 0.75480 0.60637
 C2609 C 1.12954 0.75724 0.60796
 C2610 C 1.13806 0.77585 0.61627
 C2611 C 1.12474 0.79229 0.62313
 C2612 C 1.10271 0.78973 0.62136
 C2613 C 1.09893 0.73544 0.59818
 C2614 C 1.09185 0.71908 0.59144
 C2615 C 1.08380 0.69977 0.58370
 C2616 C 1.07714 0.68315 0.57720
 H2617 H 1.07723 0.76939 0.61184
 H2618 H 1.14005 0.74468 0.60293
 H2619 H 1.15506 0.77721 0.61770
 H2620 H 1.09207 0.80221 0.62628
 C2621 C 0.62975 1.25699 0.60815
 C2622 C 0.60782 1.25459 0.60657
 C2623 C 0.59446 1.27088 0.61332
 C2624 C 0.60299 1.28947 0.62171
 C2625 C 0.62502 1.29200 0.62346
 C2626 C 0.63831 1.27556 0.61652
 C2627 C 0.59909 1.23527 0.59831
 C2628 C 0.59197 1.21896 0.59151
 C2629 C 0.58386 1.19970 0.58369
 C2630 C 0.57715 1.18312 0.57713
 H2631 H 0.64024 1.24444 0.60305
 H2632 H 0.57746 1.26920 0.61214
 H2633 H 0.59237 1.30194 0.62669
 H2634 H 0.65532 1.27690 0.61793
 C2635 C 0.62929 0.75725 1.10830
 C2636 C 0.60737 0.75486 1.10664
 C2637 C 0.59399 0.77120 1.11325
 C2638 C 0.60250 0.78982 1.12160
 C2639 C 0.62453 0.79232 1.12343
 C2640 C 0.63783 0.77584 1.11663
 C2641 C 0.59866 0.73552 1.09842
 C2642 C 0.59157 0.71918 1.09166
 C2643 C 0.58351 0.69989 1.08388
 C2644 C 0.57684 0.68328 1.07736
 H2645 H 0.63979 0.74467 1.10331
 H2646 H 0.57700 0.76953 1.11200
 H2647 H 0.59187 0.80232 1.12647
 H2648 H 0.65483 0.77717 1.11812
 C2649 C 0.90607 1.27118 0.88622
 C2650 C 0.89267 1.25487 0.89287
 C2651 C 0.87075 1.25731 0.89124
 C2652 C 0.86223 1.27594 0.88296
 C2653 C 0.87555 1.29242 0.87617
 C2654 C 0.89758 1.28984 0.87791
 C2655 C 0.90135 1.23553 0.90115
 C2656 C 0.90839 1.21919 0.90798
 C2657 C 0.91638 1.19990 0.91586
 C2658 C 0.92301 1.18329 0.92246
 H2659 H 0.92306 1.26947 0.88743
 H2660 H 0.86024 1.24475 0.89626
 H2661 H 0.84523 1.27733 0.88154
 H2662 H 0.90822 1.30233 0.87304
 C2663 C 0.90598 0.77118 0.38636
 C2664 C 0.89259 0.75486 0.39297
 C2665 C 0.87067 0.75728 0.39128
 C2666 C 0.86215 0.77591 0.38297
 C2667 C 0.87548 0.79238 0.37619
 C2668 C 0.89750 0.78983 0.37802
 C2669 C 0.90127 0.73550 0.40123
 C2670 C 0.90835 0.71916 0.40804
 C2671 C 0.91640 0.69988 0.41588
 C2672 C 0.92308 0.68329 0.42246
 H2673 H 0.92298 0.76948 0.38762
 H2674 H 0.86015 0.74471 0.39627
 H2675 H 0.84516 0.77727 0.38149
 H2676 H 0.90815 0.80232 0.37317
 C2677 C 0.40591 1.27101 0.38642
 C2678 C 0.39249 1.25472 0.39305
 C2679 C 0.37057 1.25719 0.39143
 C2680 C 0.36208 1.27584 0.38317
 C2681 C 0.37541 1.29230 0.37640
 C2682 C 0.39744 1.28969 0.37814
 C2683 C 0.40115 1.23535 0.40129
 C2684 C 0.40818 1.21899 0.40810
 C2685 C 0.41618 1.19969 0.41594
 C2686 C 0.42281 1.18308 0.42252
 H2687 H 0.42290 1.26928 0.38763
 H2688 H 0.36005 1.24464 0.39644
 H2689 H 0.34508 1.27725 0.38176
 H2690 H 0.40810 1.30217 0.37328
 C2691 C 0.37018 0.75738 0.89206
 C2692 C 0.39210 0.75483 0.89361
 C2693 C 0.40555 0.77107 0.88689
 C2694 C 0.39712 0.78974 0.87855
 C2695 C 0.37510 0.79241 0.87684
 C2696 C 0.36172 0.77603 0.88374
 C2697 C 0.40074 0.73544 0.90182
 C2698 C 0.40779 0.71907 0.90858
 C2699 C 0.41583 0.69976 0.91635
 C2700 C 0.42251 0.68314 0.92288
 H2701 H 0.35963 0.74488 0.89713
 H2702 H 0.42254 0.76928 0.88805
 H2703 H 0.40780 0.80216 0.87360
 H2704 H 0.34472 0.77748 0.88236
 C2705 C 1.09419 0.72914 0.88623
 C2706 C 1.10757 0.74540 0.89300
 C2707 C 1.12950 0.74292 0.89152
 C2708 C 1.13804 0.72430 0.88325
 C2709 C 1.12474 0.70787 0.87633
 C2710 C 1.10270 0.71049 0.87794
 C2711 C 1.09887 0.76475 0.90124
 C2712 C 1.09179 0.78108 0.90805
 C2713 C 1.08373 0.80036 0.91589
 C2714 C 1.07706 0.81694 0.92248
 H2715 H 1.07719 0.73088 0.88734
 H2716 H 1.14000 0.75545 0.89664
 H2717 H 1.15505 0.72289 0.88194
 H2718 H 1.09207 0.69803 0.87297
 C2719 C 1.09427 0.22911 0.38600
 C2720 C 1.10768 0.24537 0.39274
 C2721 C 1.12960 0.24291 0.39113
 C2722 C 1.13811 0.22431 0.38279
 C2723 C 1.12478 0.20788 0.37591
 C2724 C 1.10275 0.21048 0.37763
 C2725 C 1.09901 0.26469 0.40109
 C2726 C 1.09196 0.28100 0.40799
 C2727 C 1.08395 0.30025 0.41593
 C2728 C 1.07729 0.31682 0.42257
 H2729 H 1.07728 0.23084 0.38720
 H2730 H 1.14012 0.25543 0.39622
 H2731 H 1.15511 0.22291 0.38139
 H2732 H 1.09210 0.19803 0.37269
 C2733 C 0.62911 0.74259 0.39202
 C2734 C 0.60719 0.74499 0.39372
 C2735 C 0.59379 0.72866 0.38716
 C2736 C 0.60228 0.71002 0.37882
 C2737 C 0.62430 0.70750 0.37696
 C2738 C 0.63763 0.72398 0.38371
 C2739 C 0.59851 0.76436 0.40192
 C2740 C 0.59145 0.78072 0.40866
 C2741 C 0.58343 0.80004 0.41641
 C2742 C 0.57681 0.81668 0.42291
 H2743 H 0.63962 0.75517 0.39697
 H2744 H 0.57680 0.73035 0.38843
 H2745 H 0.59164 0.69752 0.37398
 H2746 H 0.65462 0.72263 0.38220
 C2747 C 0.60962 0.24319 0.87102
 C2748 C 0.60800 0.24571 0.89302
 C2749 C 0.61487 0.22955 0.90654
 C2750 C 0.62334 0.21094 0.89810
 C2751 C 0.62501 0.20827 0.87599
 C2752 C 0.61806 0.22462 0.86255
 C2753 C 0.59946 0.26496 0.90162
 C2754 C 0.59239 0.28124 0.90858
 C2755 C 0.58426 0.30045 0.91647
 C2756 C 0.57748 0.31700 0.92304
 H2757 H 0.60445 0.25564 0.86041
 H2758 H 0.61367 0.23133 0.92360
 H2759 H 0.62834 0.19855 0.90883
 H2760 H 0.61943 0.22316 0.84548
 C2761 C 0.90622 0.72901 1.11339
 C2762 C 0.89280 0.74529 1.10670
 C2763 C 0.87088 0.74282 1.10829
 C2764 C 0.86238 0.72418 1.11658
 C2765 C 0.87572 0.70774 1.12341
 C2766 C 0.89775 0.71035 1.12171
 C2767 C 0.90145 0.76464 1.09843
 C2768 C 0.90846 0.78099 1.09161
 C2769 C 0.91643 0.80029 1.08376
 C2770 C 0.92303 0.81691 1.07718
 H2771 H 0.92321 0.73075 1.11221
 H2772 H 0.86035 0.75535 1.10324
 H2773 H 0.84538 0.72278 1.11797
 H2774 H 0.90841 0.69788 1.12662
 C2775 C 0.90566 0.22910 0.61376
 C2776 C 0.89227 0.24540 0.60707
 C2777 C 0.87035 0.24298 0.60867
 C2778 C 0.86182 0.22436 0.61698
 C2779 C 0.87513 0.20789 0.62382
 C2780 C 0.89716 0.21046 0.62209
 C2781 C 0.90096 0.26473 0.59878
 C2782 C 0.90804 0.28106 0.59194
 C2783 C 0.91608 0.30032 0.58406
 C2784 C 0.92276 0.31690 0.57746
 H2785 H 0.92266 0.23080 0.61256
 H2786 H 0.85984 0.25553 0.60362
 H2787 H 0.84482 0.22299 0.61838
 H2788 H 0.90780 0.19797 0.62699
 C2789 C 0.40642 0.72875 0.61356
 C2790 C 0.39301 0.74502 0.60683
 C2791 C 0.37108 0.74252 0.60832
 C2792 C 0.36258 0.72387 0.61657
 C2793 C 0.37591 0.70744 0.62345
 C2794 C 0.39794 0.71008 0.62183
 C2795 C 0.40166 0.76439 0.59860
 C2796 C 0.40868 0.78075 0.59180
 C2797 C 0.41664 0.80006 0.58397
 C2798 C 0.42322 0.81669 0.57740
 H2799 H 0.42341 0.73051 0.61245
 H2800 H 0.36056 0.75505 0.60324
 H2801 H 0.34557 0.72245 0.61789
 H2802 H 0.40859 0.69762 0.62678
 C2803 C 0.37095 0.24279 1.10894
 C2804 C 0.39287 0.24523 1.10735
 C2805 C 0.40626 0.22891 1.11401
 C2806 C 0.39776 0.21025 1.12228
 C2807 C 0.37573 0.20767 1.12398
 C2808 C 0.36242 0.22416 1.11719
 C2809 C 0.40155 0.26458 1.09909
 C2810 C 0.40859 0.28092 1.09227
 C2811 C 0.41657 0.30021 1.08441
 C2812 C 0.42319 0.31682 1.07781
 H2813 H 0.36044 0.25536 1.10391
 H2814 H 0.42326 0.23062 1.11282
 H2815 H 0.40840 0.19775 1.12716
 H2816 H 0.34542 0.22278 1.11858
 C2817 C 1.10371 1.12837 0.73907
 C2818 C 1.10665 1.10704 0.74385
 C2819 C 1.11796 1.09419 0.72988
 C2820 C 1.12644 1.10263 0.71123
 C2821 C 1.12379 1.12426 0.70609
 C2822 C 1.11211 1.13692 0.72045
 C2823 C 1.09834 1.09846 0.76330
 C2824 C 1.09150 1.09149 0.77972
 C2825 C 1.08363 1.08356 0.79910
 C2826 C 1.07705 1.07696 0.81579
 H2827 H 1.09513 1.13853 0.74991
 H2828 H 1.12019 1.07757 0.73336
 H2829 H 1.13440 1.09184 0.70061
 H2830 H 1.11016 1.15371 0.71803
 C2831 C 1.11824 0.59463 0.23008
 C2832 C 1.10691 0.60744 0.24408
 C2833 C 1.10392 0.62878 0.23932
 C2834 C 1.11230 0.63736 0.22069
 C2835 C 1.12400 0.62474 0.20632
 C2836 C 1.12670 0.60311 0.21144
 C2837 C 1.09863 0.59882 0.26351
 C2838 C 1.09181 0.59178 0.27992
 C2839 C 1.08397 0.58377 0.29928
 C2840 C 1.07739 0.57712 0.31595
 H2841 H 1.12050 0.57801 0.23354
 H2842 H 1.09532 0.63890 0.25016
 H2843 H 1.11031 0.65415 0.21829
 H2844 H 1.13467 0.59234 0.20081
 C2845 C 0.61374 1.09405 0.22798
 C2846 C 0.60686 1.10744 0.24425
 C2847 C 0.60839 1.12935 0.24178
 C2848 C 0.61682 1.13788 0.22316
 C2849 C 0.62386 1.12457 0.20673
 C2850 C 0.62220 1.10255 0.20933
 C2851 C 0.59847 1.09875 0.26361
 C2852 C 0.59157 1.09168 0.27997
 C2853 C 0.58364 1.08365 0.29928
 C2854 C 0.57700 1.07698 0.31591
 H2855 H 0.61260 1.07706 0.22972
 H2856 H 0.60319 1.13986 0.25431
 H2857 H 0.61817 1.15488 0.22176
 H2858 H 0.62726 1.09191 0.19687
 C2859 C 0.59386 0.61361 0.72803
 C2860 C 0.60725 0.60680 0.74433
 C2861 C 0.62917 0.60835 0.74188
 C2862 C 0.63770 0.61674 0.72323
 C2863 C 0.62438 0.62371 0.70677
 C2864 C 0.60235 0.62202 0.70936
 C2865 C 0.59856 0.59848 0.76372
 C2866 C 0.59149 0.59163 0.78010
 C2867 C 0.58346 0.58375 0.79943
 C2868 C 0.57680 0.57715 0.81608
 H2869 H 0.57686 0.61245 0.72976
 H2870 H 0.63968 0.60321 0.75443
 H2871 H 0.65470 0.61811 0.72184
 H2872 H 0.59171 0.62703 0.69687
 C2873 C 0.88643 0.90620 0.72788
 C2874 C 0.89324 0.89281 0.74418
 C2875 C 0.89169 0.87089 0.74172
 C2876 C 0.88331 0.86238 0.72308
 C2877 C 0.87634 0.87570 0.70661
 C2878 C 0.87803 0.89772 0.70920
 C2879 C 0.90155 0.90149 0.76357
 C2880 C 0.90839 0.90854 0.77995
 C2881 C 0.91626 0.91656 0.79929
 C2882 C 0.92285 0.92322 0.81594
 H2883 H 0.88758 0.92319 0.72961
 H2884 H 0.89682 0.86038 0.75428
 H2885 H 0.88194 0.84538 0.72169
 H2886 H 0.87302 0.90836 0.69672
 C2887 C 0.88650 0.40594 0.22792
 C2888 C 0.89338 0.39253 0.24418
 C2889 C 0.89187 0.37061 0.24168
 C2890 C 0.88345 0.36212 0.22304
 C2891 C 0.87640 0.37545 0.20663
 C2892 C 0.87805 0.39747 0.20926
 C2893 C 0.90173 0.40119 0.26356
 C2894 C 0.90861 0.40824 0.27993
 C2895 C 0.91651 0.41626 0.29926
 C2896 C 0.92312 0.42292 0.31590
 H2897 H 0.88762 0.42293 0.22968
 H2898 H 0.89707 0.36009 0.25421
 H2899 H 0.88211 0.34512 0.22162
 H2900 H 0.87299 0.40813 0.19681
 C2901 C 0.39143 0.87046 0.24183
 C2902 C 0.39295 0.89238 0.24432
 C2903 C 0.38609 0.90578 0.22804
 C2904 C 0.37766 0.89731 0.20937
 C2905 C 0.37601 0.87529 0.20675
 C2906 C 0.38303 0.86196 0.22318
 C2907 C 0.40129 0.90104 0.26370
 C2908 C 0.40816 0.90810 0.28007
 C2909 C 0.41606 0.91612 0.29940
 C2910 C 0.42267 0.92279 0.31604
 H2911 H 0.39661 0.85994 0.25436
 H2912 H 0.38722 0.92277 0.22980
 H2913 H 0.37262 0.90796 0.19691
 H2914 H 0.38169 0.84496 0.22177
 C2915 C 0.39587 0.37073 0.73985
 C2916 C 0.39289 0.39206 0.74462
 C2917 C 0.38150 0.40487 0.73066
 C2918 C 0.37298 0.39638 0.71204
 C2919 C 0.37568 0.37476 0.70692
 C2920 C 0.38743 0.36215 0.72126
 C2921 C 0.40125 0.40069 0.76401
 C2922 C 0.40814 0.40774 0.78038
 C2923 C 0.41606 0.41579 0.79970
 C2924 C 0.42269 0.42249 0.81632
 H2925 H 0.40452 0.36060 0.75068
 H2926 H 0.37923 0.42148 0.73412
 H2927 H 0.36496 0.40715 0.70143
 H2928 H 0.38942 0.34535 0.71886
 C2929 C 1.10376 0.87145 1.26046
 C2930 C 1.10667 0.89281 1.25579
 C2931 C 1.11800 0.90560 1.26981
 C2932 C 1.12654 0.89705 1.28839
 C2933 C 1.12392 0.87539 1.29341
 C2934 C 1.11223 0.86281 1.27902
 C2935 C 1.09833 0.90147 1.23640
 C2936 C 1.09147 0.90850 1.22002
 C2937 C 1.08359 0.91649 1.20066
 C2938 C 1.07700 0.92311 1.18399
 H2939 H 1.09518 0.86134 1.24959
 H2940 H 1.12021 0.92223 1.26641
 H2941 H 1.13452 0.90779 1.29905
 H2942 H 1.11031 0.84599 1.28134
 C2943 C 1.11388 0.40588 0.77208
 C2944 C 1.10700 0.39246 0.75584
 C2945 C 1.10853 0.37055 0.75837
 C2946 C 1.11695 0.36206 0.77701
 C2947 C 1.12399 0.37541 0.79342
 C2948 C 1.12233 0.39742 0.79076
 C2949 C 1.09861 0.40110 0.73647
 C2950 C 1.09169 0.40813 0.72010
 C2951 C 1.08374 0.41612 0.70077
 C2952 C 1.07710 0.42277 0.68413
 H2953 H 1.11275 0.42287 0.77030
 H2954 H 1.10333 0.36002 0.74586
 H2955 H 1.11829 0.34507 0.77846
 H2956 H 1.12739 0.40809 0.80319
 C2957 C 0.61366 0.90614 0.77207
 C2958 C 0.60688 0.89273 0.75579
 C2959 C 0.60846 0.87081 0.75828
 C2960 C 0.61684 0.86232 0.77695
 C2961 C 0.62378 0.87566 0.79339
 C2962 C 0.62207 0.89767 0.79077
 C2963 C 0.59856 0.90138 0.73639
 C2964 C 0.59171 0.90841 0.71999
 C2965 C 0.58382 0.91641 0.70064
 C2966 C 0.57722 0.92304 0.68398
 H2967 H 0.61249 0.92313 0.77032
 H2968 H 0.60334 0.86029 0.74574
 H2969 H 0.61822 0.84533 0.77837
 H2970 H 0.62706 0.90833 0.80324
 C2971 C 0.61826 0.40567 1.27024
 C2972 C 0.60694 0.39285 1.25625
 C2973 C 0.60401 0.37151 1.26099
 C2974 C 0.61244 0.36292 1.27959
 C2975 C 0.62412 0.37554 1.29397
 C2976 C 0.62676 0.39718 1.28887
 C2977 C 0.59861 0.40148 1.23683
 C2978 C 0.59175 0.40849 1.22044
 C2979 C 0.58385 0.41647 1.20109
 C2980 C 0.57724 0.42310 1.18443
 H2981 H 0.62049 0.42230 1.26680
 H2982 H 0.59543 0.36137 1.25013
 H2983 H 0.61049 0.34612 1.28197
 H2984 H 0.63473 0.40795 1.29951
 C2985 C 0.89598 1.12896 1.26046
 C2986 C 0.89306 1.10762 1.25571
 C2987 C 0.88171 1.09478 1.26968
 C2988 C 0.87318 1.10326 1.28830
 C2989 C 0.87582 1.12489 1.29341
 C2990 C 0.88753 1.13752 1.27905
 C2991 C 0.90142 1.09900 1.23631
 C2992 C 0.90831 1.09199 1.21993
 C2993 C 0.91623 1.08399 1.20060
 C2994 C 0.92286 1.07733 1.18395
 H2995 H 0.90458 1.13910 1.24963
 H2996 H 0.87949 1.07816 1.26623
 H2997 H 0.86520 1.09248 1.29892
 H2998 H 0.88947 1.15432 1.28145
 C2999 C 0.90573 0.61414 0.77175
 C3000 C 0.89233 0.60728 0.75547
 C3001 C 0.87041 0.60886 0.75793
 C3002 C 0.86189 0.61732 0.77654
 C3003 C 0.87521 0.62433 0.79297
 C3004 C 0.89724 0.62262 0.79039
 C3005 C 0.90102 0.59885 0.73613
 C3006 C 0.90808 0.59192 0.71979
 C3007 C 0.91613 0.58394 0.70051
 C3008 C 0.92281 0.57727 0.68389
 H3009 H 0.92273 0.61296 0.77003
 H3010 H 0.85990 0.60368 0.74539
 H3011 H 0.84489 0.61870 0.77793
 H3012 H 0.90788 0.62766 0.80285
 C3013 C 0.38616 1.09449 0.77177
 C3014 C 0.39305 1.10788 0.75549
 C3015 C 0.39155 1.12980 0.75797
 C3016 C 0.38314 1.13832 0.77660
 C3017 C 0.37608 1.12501 0.79303
 C3018 C 0.37773 1.10299 0.79042
 C3019 C 0.40140 1.09918 0.73612
 C3020 C 0.40827 1.09210 0.71976
 C3021 C 0.41618 1.08402 0.70046
 C3022 C 0.42280 1.07731 0.68384
 H3023 H 0.38728 1.07750 0.77002
 H3024 H 0.39676 1.14030 0.74544
 H3025 H 0.38181 1.15532 0.77801
 H3026 H 0.37266 1.09234 0.80288
 C3027 C 0.37137 0.60433 1.26087
 C3028 C 0.39272 0.60721 1.25610
 C3029 C 0.40559 0.61852 1.27006
 C3030 C 0.39714 0.62704 1.28869
 C3031 C 0.37551 0.62442 1.29383
 C3032 C 0.36283 0.61277 1.27948
 C3033 C 0.40129 0.59881 1.23670
 C3034 C 0.40826 0.59188 1.22031
 C3035 C 0.41621 0.58391 1.20098
 C3036 C 0.42282 0.57725 1.18433
 H3037 H 0.36119 0.59575 1.25005
 H3038 H 0.42222 0.62071 1.26658
 H3039 H 0.40795 0.63499 1.29931
 H3040 H 0.34603 0.61086 1.28189
 C3041 C 1.12832 1.25998 0.89695
 C3042 C 1.10696 1.25531 0.89399
 C3043 C 1.09411 1.26939 0.88282
 C3044 C 1.10259 1.28801 0.87447
 C3045 C 1.12425 1.29302 0.87709
 C3046 C 1.13690 1.27858 0.88867
 C3047 C 1.09835 1.23587 0.90210
 C3048 C 1.09135 1.21945 0.90876
 C3049 C 1.08338 1.20007 0.91641
 C3050 C 1.07678 1.18340 0.92284
 H3051 H 1.13848 1.24907 0.90543
 H3052 H 1.07747 1.26600 0.88059
 H3053 H 1.09180 1.29870 0.86661
 H3054 H 1.15371 1.28092 0.89060
 C3055 C 1.11913 0.76853 0.40574
 C3056 C 1.10767 0.75473 0.39284
 C3057 C 1.10462 0.75961 0.37146
 C3058 C 1.11301 0.77818 0.36293
 C3059 C 1.12476 0.79240 0.37564
 C3060 C 1.12760 0.78713 0.39730
 C3061 C 1.09926 0.73540 0.40141
 C3062 C 1.09228 0.71907 0.40833
 C3063 C 1.08424 0.69980 0.41619
 C3064 C 1.07752 0.68321 0.42274
 H3065 H 1.12146 0.76497 0.42240
 H3066 H 1.09595 0.74891 0.36125
 H3067 H 1.11096 0.78068 0.34608
 H3068 H 1.13567 0.79763 0.40814
 C3069 C 0.62920 1.25724 0.39190
 C3070 C 0.60728 1.25484 0.39353
 C3071 C 0.59391 1.27121 0.38697
 C3072 C 0.60242 1.28986 0.37869
 C3073 C 0.62445 1.29238 0.37689
 C3074 C 0.63775 1.27587 0.38365
 C3075 C 0.59856 1.23547 0.40167
 C3076 C 0.59146 1.21910 0.40837
 C3077 C 0.58341 1.19978 0.41608
 C3078 C 0.57676 1.18314 0.42257
 H3079 H 0.63969 1.24464 0.39686
 H3080 H 0.57691 1.26953 0.38819
 H3081 H 0.59179 1.30238 0.37385
 H3082 H 0.65475 1.27721 0.38219
 C3083 C 0.62887 0.75752 0.89236
 C3084 C 0.60694 0.75508 0.89395
 C3085 C 0.59355 0.77140 0.88730
 C3086 C 0.60205 0.79005 0.87899
 C3087 C 0.62408 0.79260 0.87724
 C3088 C 0.63740 0.77614 0.88408
 C3089 C 0.59825 0.73571 0.90210
 C3090 C 0.59118 0.71933 0.90881
 C3091 C 0.58315 0.70000 0.91653
 C3092 C 0.57652 0.68336 0.92301
 H3093 H 0.63937 0.74495 0.89738
 H3094 H 0.57656 0.76969 0.88848
 H3095 H 0.59141 0.80253 0.87408
 H3096 H 0.65440 0.77751 0.88266
 C3097 C 0.90596 1.26940 1.11716
 C3098 C 0.89308 1.25536 1.10600
 C3099 C 0.87171 1.26005 1.10311
 C3100 C 0.86316 1.27865 1.11144
 C3101 C 0.87585 1.29305 1.12299
 C3102 C 0.89751 1.28802 1.12556
 C3103 C 0.90166 1.23593 1.09783
 C3104 C 0.90866 1.21953 1.09113
 C3105 C 0.91662 1.20017 1.08342
 C3106 C 0.92322 1.18350 1.07695
 H3107 H 0.92261 1.26599 1.11935
 H3108 H 0.86153 1.24917 1.09465
 H3109 H 0.84635 1.28101 1.10955
 H3110 H 0.90833 1.29868 1.13341
 C3111 C 0.90643 0.77132 0.61277
 C3112 C 0.89301 0.75502 0.60616
 C3113 C 0.87109 0.75747 0.60781
 C3114 C 0.86260 0.77609 0.61612
 C3115 C 0.87593 0.79254 0.62292
 C3116 C 0.89796 0.78997 0.62111
 C3117 C 0.90167 0.73565 0.59795
 C3118 C 0.90871 0.71928 0.59120
 C3119 C 0.91669 0.69995 0.58344
 C3120 C 0.92330 0.68331 0.57695
 H3121 H 0.92342 0.76960 0.61154
 H3122 H 0.86057 0.74491 0.60281
 H3123 H 0.84560 0.77747 0.61759
 H3124 H 0.90861 0.80244 0.62599
 C3125 C 0.37112 1.25942 0.60405
 C3126 C 0.39251 1.25477 0.60687
 C3127 C 0.40537 1.26879 0.61808
 C3128 C 0.39689 1.28735 0.62658
 C3129 C 0.37522 1.29236 0.62404
 C3130 C 0.36255 1.27796 0.61247
 C3131 C 0.40113 1.23542 0.59855
 C3132 C 0.40815 1.21908 0.59169
 C3133 C 0.41615 1.19980 0.58381
 C3134 C 0.42280 1.18321 0.57721
 H3135 H 0.36095 1.24855 0.59555
 H3136 H 0.42203 1.26541 0.62022
 H3137 H 0.40770 1.29801 0.63445
 H3138 H 0.34572 1.28028 0.61061
 C3139 C 0.40565 0.76917 1.11737
 C3140 C 0.39277 0.75514 1.10620
 C3141 C 0.37141 0.75984 1.10328
 C3142 C 0.36286 0.77844 1.11160
 C3143 C 0.37554 0.79284 1.12316
 C3144 C 0.39720 0.78779 1.12576
 C3145 C 0.40135 0.73571 1.09803
 C3146 C 0.40834 0.71930 1.09133
 C3147 C 0.41630 0.69994 1.08362
 C3148 C 0.42291 0.68327 1.07717
 H3149 H 0.42229 0.76576 1.11957
 H3150 H 0.36123 0.74896 1.09481
 H3151 H 0.34605 0.78080 1.10969
 H3152 H 0.40801 0.79845 1.13362
 C3153 C 0.87048 0.74315 0.89133
 C3154 C 0.89240 0.74559 0.89289
 C3155 C 0.90579 0.72931 0.88616
 C3156 C 0.89729 0.71067 0.87783
 C3157 C 0.87526 0.70809 0.87615
 C3158 C 0.86195 0.72454 0.88302
 C3159 C 0.90109 0.76491 0.90119
 C3160 C 0.90815 0.78123 0.90804
 C3161 C 0.91616 0.80050 0.91593
 C3162 C 0.92281 0.81708 0.92254
 H3163 H 0.85997 0.75569 0.89641
 H3164 H 0.92279 0.73102 0.88733
 H3165 H 0.90793 0.69820 0.87290
 H3166 H 0.84494 0.72316 0.88165
 C3167 C 0.87060 0.24297 0.39161
 C3168 C 0.89253 0.24536 0.39330
 C3169 C 0.90591 0.22904 0.38667
 C3170 C 0.89742 0.21043 0.37829
 C3171 C 0.87539 0.20791 0.37645
 C3172 C 0.86208 0.22438 0.38325
 C3173 C 0.90122 0.26469 0.40157
 C3174 C 0.90830 0.28102 0.40837
 C3175 C 0.91635 0.30029 0.41619
 C3176 C 0.92302 0.31689 0.42275
 H3177 H 0.86010 0.25554 0.39662
 H3178 H 0.92291 0.23071 0.38794
 H3179 H 0.90805 0.19793 0.37341
 H3180 H 0.84508 0.22305 0.38176
 C3181 C 0.37150 0.74032 0.39616
 C3182 C 0.39285 0.74502 0.39319
 C3183 C 0.40570 0.73100 0.38195
 C3184 C 0.39723 0.71237 0.37357
 C3185 C 0.37559 0.70730 0.37628
 C3186 C 0.36294 0.72172 0.38786
 C3187 C 0.40145 0.76440 0.40145
 C3188 C 0.40844 0.78076 0.40827
 C3189 C 0.41637 0.80007 0.41614
 C3190 C 0.42296 0.81669 0.42273
 H3191 H 0.36134 0.75118 0.40468
 H3192 H 0.42233 0.73441 0.37970
 H3193 H 0.40802 0.70172 0.36568
 H3194 H 0.34613 0.71936 0.38983
 C3195 C 0.37147 0.24034 0.89670
 C3196 C 0.39284 0.24501 0.89383
 C3197 C 0.40570 0.23099 0.88261
 C3198 C 0.39723 0.21242 0.87414
 C3199 C 0.37557 0.20740 0.87671
 C3200 C 0.36290 0.22179 0.88831
 C3201 C 0.40145 0.26439 0.90209
 C3202 C 0.40846 0.28075 0.90888
 C3203 C 0.41646 0.30006 0.91668
 C3204 C 0.42309 0.31668 0.92321
 H3205 H 0.36130 0.25121 0.90521
 H3206 H 0.42235 0.23439 0.88043
 H3207 H 0.40803 0.20177 0.86625
 H3208 H 0.34608 0.21945 0.89020
 C3209 C 1.09427 0.73088 1.11767
 C3210 C 1.10714 0.74493 1.10650
 C3211 C 1.12851 0.74026 1.10362
 C3212 C 1.13708 0.72167 1.11197
 C3213 C 1.12440 0.70725 1.12351
 C3214 C 1.10274 0.71227 1.12609
 C3215 C 1.09853 0.76434 1.09827
 C3216 C 1.09152 0.78072 1.09151
 C3217 C 1.08354 0.80005 1.08372
 C3218 C 1.07692 0.81668 1.07719
 H3219 H 1.07762 0.73427 1.11985
 H3220 H 1.13868 0.75115 1.09515
 H3221 H 1.15389 0.71933 1.11008
 H3222 H 1.09193 0.70160 1.13394
 C3223 C 1.09366 0.22855 0.61290
 C3224 C 1.10707 0.24487 0.60633
 C3225 C 1.12899 0.24244 0.60801
 C3226 C 1.13749 0.22381 0.61631
 C3227 C 1.12415 0.20734 0.62307
 C3228 C 1.10213 0.20989 0.62123
 C3229 C 1.09841 0.26425 0.59813
 C3230 C 1.09137 0.28063 0.59139
 C3231 C 1.08338 0.29997 0.58364
 C3232 C 1.07678 0.31662 0.57714
 H3233 H 1.07667 0.23027 0.61164
 H3234 H 1.13951 0.25501 0.60305
 H3235 H 1.15448 0.22243 0.61780
 H3236 H 1.09148 0.19741 0.62607
 C3237 C 0.59385 0.72878 0.61357
 C3238 C 0.60726 0.74506 0.60688
 C3239 C 0.62918 0.74259 0.60848
 C3240 C 0.63769 0.72396 0.61677
 C3241 C 0.62436 0.70751 0.62359
 C3242 C 0.60233 0.71011 0.62188
 C3243 C 0.59860 0.76441 0.59861
 C3244 C 0.59158 0.78076 0.59178
 C3245 C 0.58361 0.80006 0.58392
 C3246 C 0.57700 0.81668 0.57734
 H3247 H 0.57686 0.73051 0.61238
 H3248 H 0.63970 0.75513 0.60343
 H3249 H 0.65469 0.72256 0.61816
 H3250 H 0.59168 0.69764 0.62679
 C3251 C 0.59425 0.23083 1.11745
 C3252 C 0.60713 0.24490 1.10632
 C3253 C 0.62850 0.24021 1.10341
 C3254 C 0.63704 0.22159 1.11170
 C3255 C 0.62436 0.20716 1.12323
 C3256 C 0.60270 0.21220 1.12582
 C3257 C 0.59855 0.26435 1.09818
 C3258 C 0.59156 0.28077 1.09150
 C3259 C 0.58360 0.30014 1.08382
 C3260 C 0.57700 0.31682 1.07737
 H3261 H 0.57761 0.23424 1.11965
 H3262 H 0.63867 0.25111 1.09496
 H3263 H 0.65386 0.21924 1.10980
 H3264 H 0.59188 0.20152 1.13365
 C3265 C 1.25723 1.12965 0.89139
 C3266 C 1.25480 1.10773 0.89290
 C3267 C 1.27110 1.09437 0.88615
 C3268 C 1.28974 1.10289 0.87784
 C3269 C 1.29231 1.12492 0.87620
 C3270 C 1.27585 1.13820 0.88311
 C3271 C 1.23546 1.09901 0.90116
 C3272 C 1.21914 1.09191 0.90798
 C3273 C 1.19987 1.08385 0.91583
 C3274 C 1.18328 1.07717 0.92243
 H3275 H 1.24468 1.14013 0.89649
 H3276 H 1.26939 1.07737 0.88727
 H3277 H 1.30221 1.09228 0.87288
 H3278 H 1.27723 1.15521 0.88177
 C3279 C 1.25752 0.62933 0.39212
 C3280 C 1.25512 0.60741 0.39373
 C3281 C 1.27147 0.59405 0.38708
 C3282 C 1.29009 0.60258 0.37875
 C3283 C 1.29260 0.62460 0.37697
 C3284 C 1.27612 0.63789 0.38381
 C3285 C 1.23577 0.59868 0.40191
 C3286 C 1.21941 0.59158 0.40863
 C3287 C 1.20010 0.58352 0.41637
 C3288 C 1.18347 0.57685 0.42286
 H3289 H 1.24493 0.63981 0.39714
 H3290 H 1.26979 0.57706 0.38829
 H3291 H 1.30260 0.59196 0.37385
 H3292 H 1.27745 0.65488 0.38237
 C3293 C 0.77095 1.09415 0.38594
 C3294 C 0.75462 1.10751 0.39261
 C3295 C 0.75701 1.12943 0.39098
 C3296 C 0.77562 1.13798 0.38268
 C3297 C 0.79211 1.12469 0.37587
 C3298 C 0.78958 1.10267 0.37761
 C3299 C 0.73530 1.09880 0.40092
 C3300 C 0.71898 1.09173 0.40778
 C3301 C 0.69973 1.08369 0.41569
 C3302 C 0.68315 1.07703 0.42232
 H3303 H 0.76927 1.07715 0.38716
 H3304 H 0.74443 1.13991 0.39601
 H3305 H 0.77696 1.15497 0.38126
 H3306 H 0.80209 1.09205 0.37273
 C3307 C 0.77094 0.59421 0.88692
 C3308 C 0.75461 0.60758 0.89356
 C3309 C 0.75701 0.62950 0.89192
 C3310 C 0.77562 0.63804 0.88359
 C3311 C 0.79209 0.62474 0.87676
 C3312 C 0.78957 0.60272 0.87857
 C3313 C 0.73526 0.59888 0.90178
 C3314 C 0.71891 0.59180 0.90854
 C3315 C 0.69961 0.58374 0.91631
 C3316 C 0.68299 0.57708 0.92283
 H3317 H 0.76926 0.57722 0.88815
 H3318 H 0.74444 0.64000 0.89693
 H3319 H 0.77696 0.65503 0.88213
 H3320 H 0.80207 0.59209 0.87367
 C3321 C 1.27104 0.90588 1.11354
 C3322 C 1.25475 0.89250 1.10681
 C3323 C 1.25721 0.87059 1.10835
 C3324 C 1.27584 0.86205 1.11664
 C3325 C 1.29229 0.87535 1.12352
 C3326 C 1.28969 0.89738 1.12186
 C3327 C 1.23540 0.90120 1.09856
 C3328 C 1.21906 0.90826 1.09174
 C3329 C 1.19977 0.91629 1.08390
 C3330 C 1.18316 0.92294 1.07732
 H3331 H 1.26931 0.92288 1.11240
 H3332 H 1.24467 0.86009 1.10327
 H3333 H 1.27724 0.84505 1.11800
 H3334 H 1.30216 0.90801 1.12680
 C3335 C 1.27085 0.40543 0.61432
 C3336 C 1.25454 0.39207 0.60760
 C3337 C 1.25694 0.37016 0.60923
 C3338 C 1.27554 0.36160 0.61758
 C3339 C 1.29201 0.37489 0.62443
 C3340 C 1.28947 0.39691 0.62269
 C3341 C 1.23524 0.40079 0.59924
 C3342 C 1.21894 0.40787 0.59234
 C3343 C 1.19970 0.41593 0.58439
 C3344 C 1.18314 0.42262 0.57773
 H3345 H 1.26917 0.42243 0.61310
 H3346 H 1.24439 0.35967 0.60416
 H3347 H 1.27689 0.34461 0.61899
 H3348 H 1.30196 0.40753 0.62761
 C3349 C 0.77129 0.90620 0.61338
 C3350 C 0.75501 0.89280 0.60670
 C3351 C 0.75748 0.87089 0.60828
 C3352 C 0.77613 0.86238 0.61657
 C3353 C 0.79257 0.87571 0.62340
 C3354 C 0.78996 0.89773 0.62169
 C3355 C 0.73565 0.90145 0.59843
 C3356 C 0.71929 0.90847 0.59161
 C3357 C 0.69998 0.91644 0.58377
 C3358 C 0.68335 0.92304 0.57719
 H3359 H 0.76955 0.92319 0.61220
 H3360 H 0.74495 0.86037 0.60324
 H3361 H 0.77754 0.84539 0.61796
 H3362 H 0.80243 0.90838 0.62660
 C3363 C 0.75746 0.37081 1.10842
 C3364 C 0.75500 0.39273 1.10692
 C3365 C 0.77130 0.40610 1.11363
 C3366 C 0.78997 0.39758 1.12189
 C3367 C 0.79257 0.37556 1.12352
 C3368 C 0.77611 0.36227 1.11666
 C3369 C 0.73563 0.40144 1.09873
 C3370 C 0.71927 0.40852 1.09196
 C3371 C 0.69996 0.41656 1.08417
 C3372 C 0.68334 0.42321 1.07762
 H3373 H 0.74491 0.36032 1.10335
 H3374 H 0.76957 0.42310 1.11251
 H3375 H 0.80245 0.40821 1.12682
 H3376 H 0.77750 0.34526 1.11799
 C3377 C 0.72891 1.09418 1.11355
 C3378 C 0.74519 1.10758 1.10684
 C3379 C 0.74272 1.12950 1.10841
 C3380 C 0.72408 1.13800 1.11670
 C3381 C 0.70764 1.12468 1.12356
 C3382 C 0.71025 1.10266 1.12187
 C3383 C 0.76454 1.09892 1.09857
 C3384 C 0.78089 1.09188 1.09175
 C3385 C 0.80018 1.08387 1.08389
 C3386 C 0.81679 1.07723 1.07730
 H3387 H 0.73065 1.07719 1.11237
 H3388 H 0.75525 1.14001 1.10334
 H3389 H 0.72268 1.15500 1.11808
 H3390 H 0.69779 1.09201 1.12679
 C3391 C 0.72881 0.59374 0.61287
 C3392 C 0.74511 0.60716 0.60624
 C3393 C 0.74266 0.62907 0.60791
 C3394 C 0.72403 0.63755 0.61625
 C3395 C 0.70759 0.62421 0.62306
 C3396 C 0.71017 0.60220 0.62123
 C3397 C 0.76448 0.59852 0.59799
 C3398 C 0.78085 0.59150 0.59122
 C3399 C 0.80018 0.58352 0.58343
 C3400 C 0.81682 0.57691 0.57692
 H3401 H 0.73054 0.57676 0.61162
 H3402 H 0.75521 0.63960 0.60291
 H3403 H 0.72265 0.65454 0.61773
 H3404 H 0.69770 0.59154 0.62611
 C3405 C 0.24258 1.12897 0.60855
 C3406 C 0.24502 1.10706 0.60690
 C3407 C 0.22872 1.09365 0.61354
 C3408 C 0.21005 1.10212 0.62185
 C3409 C 0.20746 1.12414 0.62361
 C3410 C 0.22394 1.13747 0.61684
 C3411 C 0.26438 1.09841 0.59862
 C3412 C 0.28073 1.09140 0.59178
 C3413 C 0.30003 1.08344 0.58391
 C3414 C 0.31665 1.07684 0.57732
 H3415 H 0.25513 1.13949 0.60354
 H3416 H 0.23044 1.07667 0.61231
 H3417 H 0.19756 1.09147 0.62671
 H3418 H 0.22255 1.15446 0.61827
 C3419 C 0.22876 0.59411 1.11376
 C3420 C 0.24509 0.60747 1.10710
 C3421 C 0.24268 0.62939 1.10870
 C3422 C 0.22406 0.63794 1.11697
 C3423 C 0.20756 0.62466 1.12378
 C3424 C 0.21011 0.60263 1.12205
 C3425 C 0.26444 0.59875 1.09887
 C3426 C 0.28078 0.59166 1.09208
 C3427 C 0.30006 0.58360 1.08426
 C3428 C 0.31666 0.57693 1.07769
 H3429 H 0.23044 0.57711 1.11257
 H3430 H 0.25526 0.63987 1.10367
 H3431 H 0.22270 0.65494 1.11837
 H3432 H 0.19760 0.59202 1.12694
 C3433 C 0.72866 0.90632 0.88667
 C3434 C 0.74496 0.89295 0.89339
 C3435 C 0.74251 0.87103 0.89187
 C3436 C 0.72388 0.86249 0.88361
 C3437 C 0.70742 0.87579 0.87673
 C3438 C 0.71000 0.89782 0.87838
 C3439 C 0.76431 0.90164 0.90161
 C3440 C 0.78067 0.90870 0.90839
 C3441 C 0.79997 0.91671 0.91619
 C3442 C 0.81660 0.92334 0.92274
 H3443 H 0.73038 0.92332 0.88780
 H3444 H 0.75506 0.86053 0.89695
 H3445 H 0.72249 0.84549 0.88227
 H3446 H 0.69752 0.90845 0.87344
 C3447 C 0.72897 0.40611 0.38649
 C3448 C 0.74532 0.39273 0.39311
 C3449 C 0.74291 0.37082 0.39150
 C3450 C 0.72427 0.36228 0.38325
 C3451 C 0.70777 0.37558 0.37647
 C3452 C 0.71031 0.39760 0.37822
 C3453 C 0.76468 0.40143 0.40133
 C3454 C 0.78102 0.40850 0.40812
 C3455 C 0.80032 0.41652 0.41595
 C3456 C 0.81693 0.42316 0.42252
 H3457 H 0.73066 0.42310 0.38770
 H3458 H 0.75549 0.36032 0.39650
 H3459 H 0.72291 0.34529 0.38183
 H3460 H 0.69780 0.40823 0.37336
 C3461 C 0.22921 0.88528 0.40608
 C3462 C 0.24530 0.89222 0.39252
 C3463 C 0.24268 0.89070 0.37053
 C3464 C 0.22408 0.88226 0.36210
 C3465 C 0.20781 0.87520 0.37558
 C3466 C 0.21058 0.87681 0.39768
 C3467 C 0.26460 0.90070 0.40110
 C3468 C 0.28090 0.90770 0.40808
 C3469 C 0.30014 0.91576 0.41603
 C3470 C 0.31669 0.92248 0.42265
 H3471 H 0.23106 0.88641 0.42314
 H3472 H 0.25507 0.89594 0.35988
 H3473 H 0.22255 0.88095 0.34503
 H3474 H 0.19826 0.87173 0.40846
 C3475 C 0.24266 0.37053 0.89199
 C3476 C 0.24516 0.39244 0.89351
 C3477 C 0.22891 0.40585 0.88673
 C3478 C 0.21025 0.39739 0.87840
 C3479 C 0.20762 0.37537 0.87675
 C3480 C 0.22403 0.36203 0.88367
 C3481 C 0.26451 0.40109 0.90179
 C3482 C 0.28085 0.40813 0.90862
 C3483 C 0.30014 0.41613 0.91647
 C3484 C 0.31675 0.42277 0.92305
 H3485 H 0.25518 0.36000 0.89710
 H3486 H 0.23066 0.42284 0.88787
 H3487 H 0.19781 0.40804 0.87342
 H3488 H 0.22261 0.34503 0.88233
   
