data_POSCAR
  _audit_creation_date              2014-09-24
  _audit_creation_method            'ToBaCCo'
  _symmetry_space_group_name_H-M    'P1'
  _symmetry_Int_Tables_number       1
  _symmetry_cell_setting            triclinic
  loop_
  _symmetry_equiv_pos_as_xyz
 x,y,z
_cell_length_a 85.6224
_cell_length_b 85.6978
_cell_length_c 81.0189
_cell_angle_alpha 89.601600
_cell_angle_beta 89.409700
_cell_angle_gamma 89.513000
loop_
  _atom_site_label
  _atom_site_type_symbol
  _atom_site_fract_x
  _atom_site_fract_y
  _atom_site_fract_z
C1 C 0.33869 0.39935 0.88926
 C2 C 0.33786 0.39115 0.90441
 C3 C 0.35039 0.39149 0.91500
 C4 C 0.36378 0.39991 0.91083
 C5 C 0.36488 0.40761 0.89588
 C6 C 0.35222 0.40731 0.88495
 C7 C 0.32786 0.40258 0.87714
 N8 N 0.33457 0.41204 0.86558
 C9 C 0.34946 0.41493 0.87023
 C10 C 0.37853 0.41612 0.89613
 N11 N 0.38540 0.41414 0.91114
 C12 C 0.37647 0.40397 0.92001
 C13 C 0.34625 0.38365 0.92915
 N14 N 0.33148 0.37823 0.92761
 C15 C 0.32622 0.38283 0.91246
 H16 H 0.31593 0.39852 0.87683
 H17 H 0.35749 0.42249 0.86365
 H18 H 0.38224 0.42429 0.88666
 H19 H 0.37866 0.40004 0.93250
 H20 H 0.35345 0.38242 0.93999
 H21 H 0.31481 0.38035 0.90757
 C22 C 0.40484 0.85922 0.41207
 C23 C 0.39328 0.84815 0.41550
 C24 C 0.38969 0.83699 0.40392
 C25 C 0.39758 0.83687 0.38863
 C26 C 0.40898 0.84788 0.38527
 C27 C 0.41257 0.85917 0.39706
 C28 C 0.41256 0.86931 0.42215
 N29 N 0.42499 0.87546 0.41376
 C30 C 0.42484 0.86938 0.39824
 C31 C 0.41697 0.84306 0.37139
 N32 N 0.41078 0.82942 0.36626
 C33 C 0.39881 0.82563 0.37660
 C34 C 0.38000 0.82635 0.41161
 N35 N 0.37760 0.83083 0.42752
 C36 C 0.38572 0.84416 0.42994
 H37 H 0.40948 0.87145 0.43491
 H38 H 0.43380 0.87098 0.38888
 H39 H 0.42746 0.84830 0.36633
 H40 H 0.39267 0.81463 0.37649
 H41 H 0.37549 0.81584 0.40613
 H42 H 0.38690 0.85001 0.44165
 C43 C 0.90301 0.89599 0.83545
 C44 C 0.88937 0.90451 0.83917
 C45 C 0.88883 0.91380 0.85302
 C46 C 0.90187 0.91478 0.86321
 C47 C 0.91539 0.90659 0.85948
 C48 C 0.91593 0.89702 0.84545
 C49 C 0.90772 0.88864 0.82123
 N50 N 0.92324 0.88501 0.82211
 C51 C 0.92824 0.89017 0.83707
 C52 C 0.92712 0.91295 0.86881
 N53 N 0.92112 0.92506 0.87779
 C54 C 0.90556 0.92587 0.87458
 C55 C 0.87662 0.92412 0.85109
 N56 N 0.86979 0.92161 0.83629
 C57 C 0.87734 0.90932 0.82912
 H58 H 0.90016 0.88660 0.81090
 H59 H 0.94015 0.89002 0.84135
 H60 H 0.93939 0.91010 0.86745
 H61 H 0.89739 0.93447 0.87929
 H62 H 0.87444 0.93415 0.85885
 H63 H 0.87545 0.90524 0.81670
 C64 C 0.41004 -0.10617 0.32199
 C65 C 0.39797 -0.09506 0.32190
 C66 C 0.39631 -0.08466 0.33475
 C67 C 0.40670 -0.08540 0.34804
 C68 C 0.41875 -0.09634 0.34805
 C69 C 0.42040 -0.10684 0.33487
 C70 C 0.41492 -0.11679 0.31044
 N71 N 0.42821 -0.12409 0.31573
 C72 C 0.43151 -0.11799 0.33086
 C73 C 0.42777 -0.09340 0.36165
 N74 N 0.42142 -0.08109 0.36990
 C75 C 0.40852 -0.07617 0.36170
 C76 C 0.38445 -0.07441 0.33057
 N77 N 0.37890 -0.07843 0.31552
 C78 C 0.38714 -0.09107 0.31019
 H79 H 0.40904 -0.11865 0.29890
 H80 H 0.44155 -0.12080 0.33832
 H81 H 0.43838 -0.09952 0.36508
 H82 H 0.40142 -0.06613 0.36500
 H83 H 0.38035 -0.06462 0.33784
 H84 H 0.38585 -0.09659 0.29831
 C85 C 0.83562 0.35204 0.35297
 C86 C 0.83596 0.36581 0.34334
 C87 C 0.84779 0.36790 0.33168
 C88 C 0.85917 0.35617 0.32918
 C89 C 0.85884 0.34285 0.33875
 C90 C 0.84720 0.34084 0.35078
 C91 C 0.82549 0.34628 0.36494
 N92 N 0.83093 0.33210 0.37009
 C93 C 0.84415 0.32874 0.36146
 C94 C 0.87032 0.33298 0.33300
 N95 N 0.87771 0.33974 0.31984
 C96 C 0.87096 0.35411 0.31760
 C97 C 0.84521 0.38213 0.32416
 N98 N 0.83212 0.38873 0.33082
 C99 C 0.82630 0.37881 0.34249
 H100 H 0.81503 0.35200 0.36956
 H101 H 0.85097 0.31810 0.36274
 H102 H 0.87239 0.32136 0.33778
 H103 H 0.87379 0.36231 0.30786
 H104 H 0.85224 0.38724 0.31438
 H105 H 0.81592 0.38098 0.34990
 C106 C -0.15470 0.85917 0.83720
 C107 C -0.14020 0.85174 0.83943
 C108 C -0.13905 0.83907 0.85008
 C109 C -0.15222 0.83392 0.85883
 C110 C -0.16640 0.84131 0.85675
 C111 C -0.16767 0.85402 0.84582
 C112 C -0.15985 0.86972 0.82554
 N113 N -0.17571 0.87117 0.82674
 C114 C -0.18044 0.86158 0.83933
 C115 C -0.17743 0.83249 0.86489
 N116 N -0.17035 0.81977 0.87194
 C117 C -0.15482 0.82074 0.86815
 C118 C -0.12493 0.83191 0.84702
 N119 N -0.11744 0.83997 0.83492
 C120 C -0.12658 0.85218 0.83026
 H121 H -0.15234 0.87544 0.81662
 H122 H -0.19237 0.85915 0.84289
 H123 H -0.18976 0.83522 0.86509
 H124 H -0.14589 0.81222 0.87113
 H125 H -0.12109 0.82076 0.85194
 H126 H -0.12428 0.85966 0.81969
 C127 C 0.90674 0.36472 0.39787
 C128 C 0.90818 0.35034 0.38973
 C129 C 0.89708 0.33897 0.39238
 C130 C 0.88459 0.34161 0.40328
 C131 C 0.88301 0.35578 0.41112
 C132 C 0.89398 0.36757 0.40809
 C133 C 0.91695 0.37689 0.39988
 N134 N 0.91051 0.38726 0.41072
 C135 C 0.89634 0.38167 0.41557
 C136 C 0.87161 0.35402 0.42310
 N137 N 0.86634 0.33908 0.42278
 C138 C 0.87412 0.33154 0.41044
 C139 C 0.90209 0.32575 0.38443
 N140 N 0.91593 0.32873 0.37676
 C141 C 0.91979 0.34378 0.38002
 H142 H 0.92842 0.37784 0.39424
 H143 H 0.88896 0.38666 0.42514
 H144 H 0.86843 0.36264 0.43227
 H145 H 0.87302 0.31933 0.40743
 H146 H 0.89630 0.31458 0.38481
 H147 H 0.93028 0.34957 0.37577
 C148 C 0.42495 0.41203 0.84060
 C149 C 0.42424 0.39964 0.82937
 C150 C 0.41101 0.39771 0.81998
 C151 C 0.39847 0.40823 0.82141
 C152 C 0.39930 0.42047 0.83229
 C153 C 0.41255 0.42232 0.84197
 C154 C 0.43677 0.41781 0.85014
 N155 N 0.43186 0.43146 0.85721
 C156 C 0.41696 0.43416 0.85212
 C157 C 0.38718 0.43049 0.82889
 N158 N 0.37896 0.42476 0.81604
 C159 C 0.38571 0.41095 0.81160
 C160 C 0.41424 0.38622 0.80872
 N161 N 0.42919 0.38114 0.81081
 C162 C 0.43534 0.38929 0.82354
 H163 H 0.44834 0.41274 0.85100
 H164 H 0.40958 0.44395 0.85546
 H165 H 0.38554 0.44187 0.83435
 H166 H 0.38237 0.40383 0.80128
 H167 H 0.40631 0.38227 0.79936
 H168 H 0.44731 0.38851 0.82764
 C169 C 0.83903 0.88854 0.90712
 C170 C 0.83815 0.90034 0.89506
 C171 C 0.84798 0.91314 0.89573
 C172 C 0.85916 0.91405 0.90832
 C173 C 0.86015 0.90216 0.91980
 C174 C 0.85010 0.88944 0.91924
 C175 C 0.82913 0.87654 0.91153
 N176 N 0.83388 0.87024 0.92621
 C177 C 0.84693 0.87806 0.93071
 C178 C 0.87029 0.90664 0.93170
 N179 N 0.87573 0.92119 0.92814
 C180 C 0.86903 0.92570 0.91356
 C181 C 0.84337 0.92335 0.88342
 N182 N 0.83128 0.91687 0.87525
 C183 C 0.82800 0.90287 0.88229
 H184 H 0.81880 0.87334 0.90483
 H185 H 0.85286 0.87693 0.94238
 H186 H 0.87291 0.89964 0.94245
 H187 H 0.87026 0.93696 0.90763
 H188 H 0.84846 0.93457 0.88055
 H189 H 0.81875 0.89518 0.87847
 C190 C 0.32918 0.85121 0.32894
 C191 C 0.32891 0.84149 0.34292
 C192 C 0.33878 0.82867 0.34375
 C193 C 0.34920 0.82555 0.33070
 C194 C 0.34958 0.83523 0.31696
 C195 C 0.33939 0.84816 0.31606
 C196 C 0.32019 0.86383 0.32444
 N197 N 0.32451 0.86874 0.30899
 C198 C 0.33641 0.85909 0.30391
 C199 C 0.36039 0.82896 0.30608
 N200 N 0.36648 0.81571 0.31289
 C201 C 0.35968 0.81359 0.32795
 C202 C 0.33518 0.82071 0.35808
 N203 N 0.32340 0.82843 0.36600
 C204 C 0.31954 0.84120 0.35684
 H205 H 0.31115 0.86887 0.33218
 H206 H 0.34231 0.85943 0.29207
 H207 H 0.36328 0.83348 0.29393
 H208 H 0.36216 0.80403 0.33636
 H209 H 0.34054 0.80993 0.36229
 H210 H 0.31015 0.84930 0.35974
 C211 C 0.83236 0.39380 0.40212
 C212 C 0.83310 0.40706 0.39200
 C213 C 0.84159 0.41987 0.39675
 C214 C 0.85012 0.41925 0.41151
 C215 C 0.84952 0.40606 0.42137
 C216 C 0.84026 0.39342 0.41687
 C217 C 0.82213 0.38155 0.40227
 N218 N 0.82337 0.37385 0.41690
 C219 C 0.83451 0.38104 0.42589
 C220 C 0.85782 0.40905 0.43538
 N221 N 0.86373 0.42376 0.43442
 C222 C 0.85874 0.43012 0.41985
 C223 C 0.83710 0.43211 0.38665
 N224 N 0.82598 0.42707 0.37602
 C225 C 0.82386 0.41160 0.37913
 H226 H 0.81327 0.37944 0.39313
 H227 H 0.83721 0.37851 0.43863
 H228 H 0.85897 0.40102 0.44566
 H229 H 0.86138 0.44167 0.41521
 H230 H 0.84059 0.44409 0.38825
 H231 H 0.81526 0.40420 0.37359
 C232 C 0.89619 0.86633 -0.08381
 C233 C 0.88586 0.85371 -0.08483
 C234 C 0.88668 0.84377 -0.09827
 C235 C 0.89819 0.84598 -0.11055
 C236 C 0.90806 0.85854 -0.10968
 C237 C 0.90696 0.86885 -0.09640
 C238 C 0.89899 0.87732 -0.07180
 N239 N 0.91096 0.88646 -0.07708
 C240 C 0.91587 0.88137 -0.09206
 C241 C 0.91923 0.85679 -0.12183
 N242 N 0.91684 0.84312 -0.12992
 C243 C 0.90369 0.83663 -0.12315
 C244 C 0.87540 0.83256 -0.09595
 N245 N 0.86789 0.83540 -0.08144
 C246 C 0.87429 0.84816 -0.07444
 H247 H 0.89295 0.87848 -0.06007
 H248 H 0.92555 0.88621 -0.09907
 H249 H 0.92923 0.86431 -0.12329
 H250 H 0.89881 0.82548 -0.12629
 H251 H 0.87283 0.82304 -0.10418
 H252 H 0.87069 0.85310 -0.06274
 C253 C 0.33820 0.36439 0.85408
 C254 C 0.33975 0.35347 0.86675
 C255 C 0.35149 0.34234 0.86616
 C256 C 0.36251 0.34274 0.85323
 C257 C 0.36134 0.35402 0.84089
 C258 C 0.34871 0.36464 0.84104
 C259 C 0.32543 0.37302 0.84966
 N260 N 0.32755 0.37848 0.83407
 C261 C 0.34196 0.37365 0.82877
 C262 C 0.37272 0.35065 0.82926
 N263 N 0.38062 0.33767 0.83423
 C264 C 0.37431 0.33263 0.84871
 C265 C 0.34810 0.33141 0.87825
 N266 N 0.33483 0.33605 0.88616
 C267 C 0.32965 0.34946 0.87924
 H268 H 0.31459 0.37350 0.85661
 H269 H 0.34665 0.37530 0.81644
 H270 H 0.37467 0.35676 0.81769
 H271 H 0.37773 0.32209 0.85519
 H272 H 0.35424 0.32055 0.88050
 H273 H 0.31881 0.35533 0.88249
 C274 C 0.14526 0.59465 0.57384
 C275 C 0.15565 0.60646 0.57831
 C276 C 0.16661 0.60350 0.59036
 C277 C 0.16782 0.58870 0.59754
 C278 C 0.15795 0.57691 0.59290
 C279 C 0.14638 0.57999 0.58112
 C280 C 0.13360 0.59398 0.56230
 N281 N 0.12748 0.57938 0.56248
 C282 C 0.13537 0.57074 0.57387
 C283 C 0.16355 0.56330 0.60003
 N284 N 0.17664 0.56668 0.60867
 C285 C 0.17911 0.58226 0.60736
 C286 C 0.17638 0.61604 0.59092
 N287 N 0.17188 0.62655 0.57932
 C288 C 0.15915 0.62087 0.57152
 H289 H 0.12998 0.60346 0.55426
 H290 H 0.13313 0.55865 0.57696
 H291 H 0.15912 0.55169 0.59800
 H292 H 0.18885 0.58846 0.61252
 H293 H 0.18692 0.61681 0.59815
 H294 H 0.15357 0.62630 0.56099
 C295 C 0.60271 0.64715 0.07617
 C296 C 0.59263 0.63485 0.08001
 C297 C 0.58553 0.63401 0.09537
 C298 C 0.58843 0.64555 0.10715
 C299 C 0.59813 0.65793 0.10322
 C300 C 0.60537 0.65868 0.08761
 C301 C 0.61048 0.65123 0.06188
 N302 N 0.61790 0.66498 0.06429
 C303 C 0.61471 0.66964 0.08002
 C304 C 0.59734 0.66824 0.11620
 N305 N 0.58761 0.66228 0.12795
 C306 C 0.58216 0.64841 0.12255
 C307 C 0.57506 0.62189 0.09490
 N308 N 0.57556 0.61547 0.07957
 C309 C 0.58643 0.62330 0.07049
 H310 H 0.61042 0.64477 0.05045
 H311 H 0.61882 0.68021 0.08562
 H312 H 0.60302 0.67946 0.11685
 H313 H 0.57359 0.64133 0.12898
 H314 H 0.56700 0.61868 0.10470
 H315 H 0.58928 0.62123 0.05765
 C316 C 0.65312 0.16248 0.64324
 C317 C 0.64376 0.16458 0.65741
 C318 C 0.64365 0.15334 0.66981
 C319 C 0.65279 0.13972 0.66812
 C320 C 0.66147 0.13753 0.65384
 C321 C 0.66174 0.14892 0.64151
 C322 C 0.65772 0.17236 0.63057
 N323 N 0.66897 0.16501 0.62142
 C324 C 0.67130 0.15060 0.62800
 C325 C 0.67022 0.12426 0.65576
 N326 N 0.66730 0.11824 0.67095
 C327 C 0.65667 0.12760 0.67874
 C328 C 0.63432 0.15898 0.68240
 N329 N 0.62862 0.17327 0.67794
 C330 C 0.63447 0.17675 0.66267
 H331 H 0.65383 0.18429 0.62878
 H332 H 0.68032 0.14243 0.62418
 H333 H 0.67885 0.11978 0.64710
 H334 H 0.65256 0.12601 0.69132
 H335 H 0.63212 0.15314 0.69406
 H336 H 0.63204 0.18727 0.65569
 C337 C 1.10930 0.10181 0.16287
 C338 C 1.09598 0.11137 0.16485
 C339 C 1.08434 0.11116 0.15311
 C340 C 1.08578 0.10150 0.13930
 C341 C 1.09900 0.09249 0.13716
 C342 C 1.11078 0.09258 0.14901
 C343 C 1.12106 0.09732 0.17349
 N344 N 1.12950 0.08554 0.16640
 C345 C 1.12326 0.08273 0.15138
 C346 C 1.09636 0.08268 0.12421
 N347 N 1.08163 0.08518 0.11844
 C348 C 1.07514 0.09682 0.12775
 C349 C 1.07202 0.11986 0.15906
 N350 N 1.07578 0.12543 0.17415
 C351 C 1.09044 0.12028 0.17779
 H352 H 1.12271 0.10171 0.18583
 H353 H 1.12661 0.07325 0.14329
 H354 H 1.10424 0.07339 0.12049
 H355 H 1.06335 0.10131 0.12680
 H356 H 1.06098 0.12167 0.15293
 H357 H 1.09636 0.12221 0.18932
 C358 C 0.10321 0.13524 1.08796
 C359 C 0.11087 0.14941 1.08541
 C360 C 0.10637 0.16255 1.09411
 C361 C 0.09435 0.16149 1.10605
 C362 C 0.08690 0.14743 1.10868
 C363 C 0.09107 0.13432 1.09927
 C364 C 0.10273 0.12211 1.07833
 N365 N 0.09031 0.11342 1.08315
 C366 C 0.08320 0.12074 1.09606
 C367 C 0.07494 0.15004 1.11978
 N368 N 0.07478 0.16538 1.12418
 C369 C 0.08660 0.17247 1.11556
 C370 C 0.11374 0.17508 1.08665
 N371 N 0.12247 0.16983 1.07360
 C372 C 0.12085 0.15407 1.07306
 H373 H 0.10965 0.12008 1.06727
 H374 H 0.07211 0.11739 1.10147
 H375 H 0.06662 0.14132 1.12371
 H376 H 0.08966 0.18466 1.11620
 H377 H 0.11184 0.18719 1.08980
 H378 H 0.12595 0.14639 1.06392
 C379 C 0.14751 0.66409 0.66872
 C380 C 0.15916 0.66518 0.65649
 C381 C 0.16947 0.65285 0.65385
 C382 C 0.16800 0.63908 0.66332
 C383 C 0.15629 0.63802 0.67518
 C384 C 0.14607 0.65059 0.67795
 C385 C 0.13634 0.67445 0.67442
 N386 N 0.12816 0.66751 0.68689
 C387 C 0.13404 0.65287 0.68907
 C388 C 0.15750 0.62360 0.68253
 N389 N 0.16966 0.61572 0.67553
 C390 C 0.17623 0.62513 0.66379
 C391 C 0.17967 0.65749 0.64146
 N392 N 0.17563 0.67217 0.63651
 C393 C 0.16312 0.67692 0.64566
 H394 H 0.13433 0.68617 0.66981
 H395 H 0.13013 0.64460 0.69836
 H396 H 0.15021 0.61929 0.69254
 H397 H 0.18617 0.62203 0.65609
 H398 H 0.18919 0.65065 0.63629
 H399 H 0.15743 0.68822 0.64463
 C400 C 1.14221 0.14152 0.16321
 C401 C 1.13060 0.15283 0.16018
 C402 C 1.13179 0.16236 0.14637
 C403 C 1.14473 0.16107 0.13576
 C404 C 1.15620 0.15005 0.13875
 C405 C 1.15487 0.14010 0.15252
 C406 C 1.14556 0.13275 0.17704
 N407 N 1.15990 0.12600 0.17508
 C408 C 1.16559 0.13045 0.16005
 C409 C 1.16894 0.15400 0.12909
 N410 N 1.16567 0.16746 0.12065
 C411 C 1.15067 0.17154 0.12450
 C412 C 1.12124 0.17434 0.14833
 N413 N 1.11375 0.17259 0.16305
 C414 C 1.11931 0.15935 0.17035
 H415 H 1.13851 0.13231 0.18819
 H416 H 1.17704 0.12755 0.15515
 H417 H 1.18031 0.14848 0.12989
 H418 H 1.14458 0.18192 0.12032
 H419 H 1.12042 0.18457 0.14045
 H420 H 1.11636 0.15546 0.18273
 C421 C 0.63917 1.08273 0.58843
 C422 C 0.65206 1.08126 0.59881
 C423 C 0.66412 1.09196 0.59801
 C424 C 0.66319 1.10458 0.58668
 C425 C 0.65004 1.10621 0.57704
 C426 C 0.63815 1.09522 0.57775
 C427 C 0.62776 1.07234 0.58407
 N428 N 0.62007 1.07819 0.57074
 C429 C 0.62622 1.09234 0.56705
 C430 C 0.65252 1.11809 0.56608
 N431 N 0.66704 1.12397 0.56832
 C432 C 0.67369 1.11569 0.58099
 C433 C 0.67558 1.08648 0.60861
 N434 N 0.67058 1.07293 0.61577
 C435 C 0.65631 1.06966 0.60958
 H436 H 0.62615 1.06082 0.58932
 H437 H 0.62352 1.09924 0.55619
 H438 H 0.64463 1.12115 0.55621
 H439 H 0.68539 1.11728 0.58557
 H440 H 0.68668 1.09196 0.61090
 H441 H 0.64959 1.05931 0.61234
 C442 C 0.60019 0.58310 0.13993
 C443 C 0.61112 0.58755 0.15179
 C444 C 0.60739 0.59916 0.16304
 C445 C 0.59281 0.60675 0.16225
 C446 C 0.58224 0.60261 0.15028
 C447 C 0.58589 0.59061 0.13923
 C448 C 0.59961 0.57066 0.12925
 N449 N 0.58522 0.57037 0.12224
 C450 C 0.57686 0.58269 0.12823
 C451 C 0.56875 0.61104 0.15301
 N452 N 0.57080 0.62013 0.16643
 C453 C 0.58547 0.61759 0.17219
 C454 C 0.61943 0.59975 0.17422
 N455 N 0.63036 0.58894 0.16985
 C456 C 0.62542 0.58147 0.15616
 H457 H 0.60863 0.56187 0.12766
 H458 H 0.56479 0.58534 0.12552
 H459 H 0.55805 0.61026 0.14607
 H460 H 0.59039 0.62318 0.18287
 H461 H 0.62004 0.60720 0.18493
 H462 H 0.63148 0.57183 0.15028
 C463 C 0.63538 0.64529 0.15744
 C464 C 0.64829 0.63522 0.15533
 C465 C 0.65728 0.63605 0.14103
 C466 C 0.65361 0.64701 0.12870
 C467 C 0.64073 0.65669 0.13062
 C468 C 0.63154 0.65574 0.14498
 C469 C 0.62773 0.65032 0.17159
 N470 N 0.61962 0.66360 0.16800
 C471 C 0.62168 0.66670 0.15169
 C472 C 0.64255 0.66898 0.11977
 N473 N 0.65632 0.66726 0.11153
 C474 C 0.66299 0.65366 0.11671
 C475 C 0.67090 0.62789 0.14391
 N476 N 0.67052 0.62212 0.15956
 C477 C 0.65667 0.62649 0.16657
 H478 H 0.62958 0.64580 0.18393
 H479 H 0.61759 0.67712 0.14542
 H480 H 0.63542 0.67947 0.11965
 H481 H 0.67462 0.64968 0.11339
 H482 H 0.68094 0.62747 0.13570
 H483 H 0.65325 0.62434 0.17928
 C484 C 0.14629 0.09219 1.07240
 C485 C 0.15192 0.10727 1.07512
 C486 C 0.16009 0.11038 1.08934
 C487 C 0.16310 0.09842 1.10074
 C488 C 0.15768 0.08352 1.09804
 C489 C 0.14902 0.08040 1.08381
 C490 C 0.13831 0.08575 1.05954
 N491 N 0.13595 0.07036 1.06284
 C492 C 0.14255 0.06698 1.07766
 C493 C 0.16374 0.07409 1.11032
 N494 N 0.17283 0.08293 1.12025
 C495 C 0.17236 0.09784 1.11444
 C496 C 0.16525 0.12550 1.08820
 N497 N 0.16062 0.13153 1.07353
 C498 C 0.15249 0.12052 1.06538
 H499 H 0.13414 0.09199 1.04877
 H500 H 0.14273 0.05560 1.08352
 H501 H 0.16202 0.06165 1.11157
 H502 H 0.17900 0.10748 1.11920
 H503 H 0.17271 0.13136 1.09687
 H504 H 0.14800 0.12183 1.05299
 C505 C 0.60351 0.16246 0.59218
 C506 C 0.59253 0.16167 0.60499
 C507 C 0.58141 0.15014 0.60521
 C508 C 0.58139 0.13899 0.59260
 C509 C 0.59224 0.13976 0.57972
 C510 C 0.60347 0.15174 0.57949
 C511 C 0.61535 0.17270 0.58922
 N512 N 0.62278 0.16866 0.57502
 C513 C 0.61559 0.15585 0.56884
 C514 C 0.58938 0.12723 0.56954
 N515 N 0.57731 0.11895 0.57611
 C516 C 0.57238 0.12606 0.59015
 C517 C 0.57196 0.15274 0.61887
 N518 N 0.57734 0.16549 0.62687
 C519 C 0.58995 0.17094 0.61848
 H520 H 0.61823 0.18260 0.59682
 H521 H 0.61901 0.14990 0.55761
 H522 H 0.59588 0.12407 0.55851
 H523 H 0.56303 0.12195 0.59811
 H524 H 0.56190 0.14599 0.62263
 H525 H 0.59647 0.18124 0.62169
 C526 C 0.08308 0.57279 0.69235
 C527 C 0.07252 0.58527 0.69333
 C528 C 0.06192 0.58784 0.68093
 C529 C 0.06157 0.57771 0.66741
 C530 C 0.07201 0.56531 0.66640
 C531 C 0.08299 0.56290 0.67897
 C532 C 0.09519 0.56834 0.70227
 N533 N 0.10275 0.55601 0.69526
 C534 C 0.09525 0.55252 0.68100
 C535 C 0.06899 0.55762 0.65190
 N536 N 0.05695 0.56502 0.64416
 C537 C 0.05244 0.57735 0.65360
 C538 C 0.05392 0.60138 0.68470
 N539 N 0.05944 0.60712 0.69917
 C540 C 0.07079 0.59713 0.70449
 H541 H 0.09832 0.57387 0.71371
 H542 H 0.09880 0.54354 0.67238
 H543 H 0.07519 0.54746 0.64732
 H544 H 0.04294 0.58534 0.65085
 H545 H 0.04516 0.60684 0.67703
 H546 H 0.07758 0.59831 0.71556
 C547 C 0.63818 0.58492 0.09429
 C548 C 0.65009 0.58304 0.10581
 C549 C 0.66159 0.59416 0.10714
 C550 C 0.66116 0.60754 0.09700
 C551 C 0.64913 0.60952 0.08585
 C552 C 0.63765 0.59804 0.08435
 C553 C 0.62725 0.57471 0.08861
 N554 N 0.62017 0.58116 0.07524
 C555 C 0.62634 0.59558 0.07271
 C556 C 0.65221 0.62277 0.07681
 N557 N 0.66587 0.62884 0.08204
 C558 C 0.67151 0.61959 0.09433
 C559 C 0.67237 0.58839 0.11817
 N560 N 0.66764 0.57408 0.12356
 C561 C 0.65402 0.57076 0.11595
 H562 H 0.62540 0.56303 0.09330
 H563 H 0.62379 0.60317 0.06233
 H564 H 0.64534 0.62734 0.06670
 H565 H 0.68242 0.62136 0.10066
 H566 H 0.68297 0.59415 0.12176
 H567 H 0.64764 0.55997 0.11720
 C568 C 0.08593 0.67946 0.58994
 C569 C 0.10004 0.67730 0.58115
 C570 C 0.10098 0.66609 0.56896
 C571 C 0.08800 0.65699 0.56526
 C572 C 0.07418 0.65915 0.57382
 C573 C 0.07314 0.67042 0.58620
 C574 C 0.08139 0.68916 0.60270
 N575 N 0.06624 0.68606 0.60676
 C576 C 0.06116 0.67470 0.59658
 C577 C 0.06361 0.64875 0.56774
 N578 N 0.07070 0.64026 0.55564
 C579 C 0.08566 0.64528 0.55405
 C580 C 0.11564 0.66674 0.56211
 N581 N 0.12379 0.67811 0.56972
 C582 C 0.11433 0.68463 0.58146
 H583 H 0.08872 0.69747 0.60887
 H584 H 0.04955 0.66981 0.59666
 H585 H 0.05157 0.64762 0.57172
 H586 H 0.09434 0.64059 0.54559
 H587 H 0.11978 0.65987 0.55178
 H588 H 0.11748 0.69415 0.58943
 C589 C 0.59054 1.07646 0.65331
 C590 C 0.60393 1.07800 0.66312
 C591 C 0.60392 1.08896 0.67556
 C592 C 0.59074 1.09820 0.67865
 C593 C 0.57766 1.09667 0.66919
 C594 C 0.57761 1.08585 0.65631
 C595 C 0.58642 1.06614 0.64113
 N596 N 0.57133 1.06910 0.63655
 C597 C 0.56602 1.08121 0.64597
 C598 C 0.56610 1.10573 0.67631
 N599 N 0.57183 1.11269 0.69010
 C600 C 0.58707 1.10809 0.69134
 C601 C 0.61736 1.08704 0.68429
 N602 N 0.62580 1.07514 0.67764
 C603 C 0.61767 1.06949 0.66462
 H604 H 0.59403 1.05719 0.63614
 H605 H 0.55430 1.08597 0.64615
 H606 H 0.55422 1.10633 0.67200
 H607 H 0.59506 1.11100 0.70105
 H608 H 0.62018 1.09321 0.69547
 H609 H 0.62113 1.05957 0.65720
 C610 C 0.40721 0.36138 0.90505
 C611 C 0.40818 0.35110 0.89163
 C612 C 0.39770 0.33900 0.89059
 C613 C 0.38620 0.33701 0.90274
 C614 C 0.38500 0.34720 0.91580
 C615 C 0.39567 0.35954 0.91698
 C616 C 0.41760 0.37211 0.91090
 N617 N 0.41291 0.37683 0.92625
 C618 C 0.39928 0.36928 0.92982
 C619 C 0.37421 0.34093 0.92673
 N620 N 0.36905 0.32711 0.92063
 C621 C 0.37655 0.32471 0.90601
 C622 C 0.40288 0.32918 0.87841
 N623 N 0.41633 0.33489 0.87190
 C624 C 0.41966 0.34837 0.87985
 H625 H 0.42817 0.37551 0.90450
 H626 H 0.39312 0.36949 0.94153
 H627 H 0.37087 0.34590 0.93849
 H628 H 0.37595 0.31427 0.89864
 H629 H 0.39778 0.31807 0.87534
 H630 H 0.43032 0.35492 0.87823
 C631 C 0.91073 0.40472 0.35412
 C632 C 0.90900 0.39218 0.34330
 C633 C 0.89993 0.39391 0.32935
 C634 C 0.89204 0.40803 0.32641
 C635 C 0.89355 0.42028 0.33723
 C636 C 0.90312 0.41867 0.35112
 C637 C 0.92137 0.40730 0.36634
 N638 N 0.92074 0.42262 0.37082
 C639 C 0.90926 0.42951 0.36164
 C640 C 0.88596 0.43292 0.33041
 N641 N 0.87976 0.42872 0.31567
 C642 C 0.88361 0.41344 0.31319
 C643 C 0.90297 0.38123 0.31941
 N644 N 0.91349 0.37186 0.32713
 C645 C 0.91716 0.37839 0.34177
 H646 H 0.92956 0.39860 0.37069
 H647 H 0.90648 0.44183 0.36119
 H648 H 0.88530 0.44435 0.33590
 H649 H 0.88089 0.40663 0.30244
 H650 H 0.89877 0.37953 0.30700
 H651 H 0.92620 0.37413 0.34994
 C652 C 0.30547 0.93507 0.43381
 C653 C 0.30680 0.92418 0.44665
 C654 C 0.32037 0.92310 0.45567
 C655 C 0.33288 0.93307 0.45187
 C656 C 0.33152 0.94381 0.43916
 C657 C 0.31766 0.94489 0.43013
 C658 C 0.29387 0.93803 0.42264
 N659 N 0.29860 0.94954 0.41207
 C660 C 0.31324 0.95380 0.41675
 C661 C 0.34548 0.95149 0.43780
 N662 N 0.35550 0.94582 0.44944
 C663 C 0.34771 0.93449 0.45808
 C664 C 0.31843 0.91094 0.46676
 N665 N 0.30401 0.90471 0.46459
 C666 C 0.29691 0.91281 0.45225
 H667 H 0.28276 0.93214 0.42253
 H668 H 0.32063 0.96222 0.41056
 H669 H 0.34781 0.96077 0.42905
 H670 H 0.35241 0.92732 0.46789
 H671 H 0.32697 0.90685 0.47557
 H672 H 0.28559 0.91024 0.44716
 O673 O 0.28814 0.47289 0.74528
 O674 O 0.28219 0.50034 0.74336
 O675 O 0.25046 0.45567 0.77497
 O676 O 0.22249 0.45714 0.77240
 O677 O 0.26544 0.43157 0.73204
 O678 O 0.26028 0.43491 0.70300
 O679 O 0.20434 0.49367 0.73163
 O680 O 0.21229 0.49463 0.76067
 O681 O 0.24249 0.51253 0.70602
 O682 O 0.26974 0.50608 0.70308
 O683 O 0.21939 0.47228 0.69032
 O684 O 0.22267 0.44380 0.69747
 O685 O 0.20198 0.47335 0.71400
 O686 O 0.20800 0.44483 0.71760
 O687 O 0.23767 0.49108 0.68670
 O688 O 0.26788 0.48715 0.68807
 O689 O 0.22448 0.51364 0.72683
 O690 O 0.22993 0.51026 0.75772
 O691 O 0.28630 0.45252 0.72754
 O692 O 0.27737 0.45266 0.69886
 O693 O 0.24874 0.43314 0.75406
 O694 O 0.22049 0.43878 0.75504
 O695 O 0.26994 0.47329 0.77071
 O696 O 0.26631 0.50118 0.76366
 Zr697 Zr 0.26559 0.48246 0.74683
 O698 O 0.25063 0.49668 0.73271
 Zr699 Zr 0.23841 0.45546 0.75236
 O700 O 0.22199 0.46857 0.73883
 Zr701 Zr 0.26277 0.45326 0.72005
 O702 O 0.24730 0.46600 0.70495
 Zr703 Zr 0.22743 0.49244 0.73999
 O704 O 0.24256 0.47945 0.75553
 Zr705 Zr 0.25173 0.48986 0.70784
 O706 O 0.26839 0.47709 0.72160
 Zr707 Zr 0.22432 0.46295 0.71372
 O708 O 0.23960 0.44851 0.72750
 O709 O 0.26132 0.45887 0.74487
 O710 O 0.22864 0.48676 0.71518
 C711 C 0.29386 0.46091 0.73783
 C712 C 0.26285 0.46284 0.77944
 C713 C 0.25962 0.42628 0.74565
 C714 C 0.19662 0.48558 0.72125
 C715 C 0.23146 0.51940 0.71404
 C716 C 0.22533 0.48380 0.68231
 H717 H 0.25353 0.50773 0.73408
 H718 H 0.24850 0.46278 0.69332
 H719 H 0.26881 0.45268 0.75145
 H720 H 0.21135 0.46645 0.74309
 H721 H 0.20619 0.48490 0.76159
 H722 H 0.22339 0.46788 0.77669
 H723 H 0.26327 0.48008 0.67987
 H724 H 0.28300 0.46270 0.69852
 H725 H 0.23806 0.51749 0.75365
 H726 H 0.25696 0.50021 0.77088
 H727 H 0.23039 0.44528 0.68844
 H728 H 0.24995 0.43022 0.70528
 H729 H 0.28643 0.49911 0.73203
 H730 H 0.27088 0.51245 0.71312
 H731 H 0.22079 0.43234 0.74494
 H732 H 0.20201 0.44721 0.72779
 O733 O 0.25409 -0.00326 0.30123
 O734 O 0.22630 -0.00141 0.29713
 O735 O 0.26951 -0.02999 0.25977
 O736 O 0.26788 -0.02812 0.23200
 O737 O 0.29363 0.01069 0.27427
 O738 O 0.28941 0.03821 0.26877
 O739 O 0.22863 0.00963 0.21383
 O740 O 0.22954 -0.01656 0.22219
 O741 O 0.21098 0.03418 0.25538
 O742 O 0.21866 0.03549 0.28466
 O743 O 0.24982 0.05074 0.22957
 O744 O 0.27791 0.04420 0.22928
 O745 O 0.24655 0.02900 0.21119
 O746 O 0.27635 0.02491 0.21430
 O747 O 0.23140 0.05285 0.24986
 O748 O 0.23638 0.05108 0.28102
 O749 O 0.21020 0.01554 0.23557
 O750 O 0.21303 -0.01384 0.24353
 O751 O 0.27314 0.01488 0.29782
 O752 O 0.27286 0.04160 0.28813
 O753 O 0.29173 -0.00976 0.25666
 O754 O 0.28439 -0.00902 0.22688
 O755 O 0.25210 -0.02708 0.28095
 O756 O 0.22464 -0.02030 0.28081
 Zr757 Zr 0.24313 -0.00427 0.27809
 O758 O 0.22769 0.00885 0.26332
 Zr759 Zr 0.26887 -0.00832 0.24738
 O760 O 0.25446 0.00441 0.23106
 Zr761 Zr 0.27156 0.02172 0.27294
 O762 O 0.25748 0.03595 0.25776
 Zr763 Zr 0.23099 0.00249 0.23852
 O764 O 0.24519 -0.01201 0.25351
 Zr765 Zr 0.23391 0.03248 0.26419
 O766 O 0.24808 0.01963 0.28067
 Zr767 Zr 0.25943 0.02831 0.23322
 O768 O 0.27516 0.01538 0.24815
 O769 O 0.26651 -0.00189 0.27192
 O770 O 0.23607 0.02607 0.23961
 C771 C 0.26559 0.00481 0.30655
 C772 C 0.26241 -0.03500 0.27283
 C773 C 0.29911 -0.00174 0.26740
 C774 C 0.23499 0.02100 0.20593
 C775 C 0.20447 0.02747 0.24315
 C776 C 0.23824 0.05774 0.23665
 H777 H 0.21681 0.00723 0.26709
 H778 H 0.26049 0.04700 0.25883
 H779 H 0.27313 -0.00822 0.27937
 H780 H 0.25598 0.00065 0.21964
 H781 H 0.23462 -0.02556 0.22775
 H782 H 0.26072 -0.02550 0.22287
 H783 H 0.24398 0.05855 0.27627
 H784 H 0.26274 0.04235 0.29410
 H785 H 0.20464 -0.00858 0.24994
 H786 H 0.22418 -0.02614 0.27034
 H787 H 0.27817 0.05120 0.23892
 H788 H 0.29395 0.03592 0.25776
 H789 H 0.22755 0.00932 0.30134
 H790 H 0.21162 0.02639 0.28512
 H791 H 0.29099 0.00039 0.22748
 H792 H 0.27249 0.01675 0.20684
 O793 O 0.50717 0.70589 0.23203
 O794 O 0.48196 0.71865 0.22753
 O795 O 0.54004 0.74101 0.22144
 O796 O 0.54521 0.76538 0.22979
 O797 O 0.54313 0.71248 0.26425
 O798 O 0.53136 0.71479 0.29181
 O799 O 0.49898 0.78837 0.26168
 O800 O 0.51018 0.78647 0.23389
 O801 O 0.46639 0.75550 0.26794
 O802 O 0.46498 0.72717 0.26506
 O803 O 0.50243 0.76117 0.30234
 O804 O 0.52967 0.75219 0.30405
 O805 O 0.51186 0.78183 0.28516
 O806 O 0.53899 0.76885 0.28825
 O807 O 0.47951 0.75118 0.29354
 O808 O 0.47709 0.72138 0.28645
 O809 O 0.47650 0.77509 0.25220
 O810 O 0.48925 0.77376 0.22438
 O811 O 0.51814 0.69909 0.25657
 O812 O 0.51011 0.70326 0.28519
 O813 O 0.55325 0.73203 0.24837
 O814 O 0.55426 0.76080 0.25500
 O815 O 0.51823 0.72782 0.21386
 O816 O 0.49109 0.73721 0.21245
 Zr817 Zr 0.50272 0.73010 0.23417
 O818 O 0.48821 0.74643 0.24631
 Zr819 Zr 0.53497 0.74849 0.24560
 O820 O 0.52187 0.76592 0.25791
 Zr821 Zr 0.52014 0.72020 0.26934
 O822 O 0.50665 0.73628 0.28304
 Zr823 Zr 0.49967 0.76801 0.24728
 O824 O 0.51355 0.75216 0.23340
 Zr825 Zr 0.48519 0.73984 0.27118
 O826 O 0.49796 0.72230 0.25844
 Zr827 Zr 0.51762 0.75812 0.28218
 O828 O 0.53220 0.74147 0.27041
 O829 O 0.52419 0.72699 0.24508
 O830 O 0.49586 0.76138 0.27157
 C831 C 0.51376 0.69596 0.24183
 C832 C 0.53228 0.73260 0.21139
 C833 C 0.55397 0.71835 0.25505
 C834 C 0.50364 0.79129 0.27640
 C835 C 0.46543 0.76893 0.26082
 C836 C 0.48763 0.75917 0.30369
 H837 H 0.47811 0.74721 0.24057
 H838 H 0.50518 0.73249 0.29449
 H839 H 0.53042 0.71926 0.23884
 H840 H 0.52734 0.77603 0.25764
 H841 H 0.51645 0.78160 0.22494
 H842 H 0.54086 0.77567 0.23296
 H843 H 0.48098 0.72308 0.29774
 H844 H 0.49948 0.70135 0.28102
 H845 H 0.48016 0.76689 0.22290
 H846 H 0.49618 0.74694 0.20865
 H847 H 0.52503 0.74249 0.30849
 H848 H 0.53957 0.72272 0.29325
 H849 H 0.47873 0.71234 0.23724
 H850 H 0.46269 0.72948 0.25336
 H851 H 0.55718 0.75569 0.26553
 H852 H 0.54016 0.77830 0.28128
 O853 O 0.00100 0.72131 0.72290
 O854 O -0.02537 0.73115 0.72088
 O855 O 0.02804 0.76139 0.70976
 O856 O 0.02966 0.78636 0.71864
 O857 O 0.04029 0.73320 0.75085
 O858 O 0.03128 0.73215 0.77909
 O859 O -0.01305 0.80197 0.75553
 O860 O -0.00830 0.80101 0.72685
 O861 O -0.04146 0.76213 0.76504
 O862 O -0.03810 0.73386 0.75987
 O863 O -0.00627 0.77565 0.79389
 O864 O 0.02344 0.76658 0.79425
 O865 O 0.00304 0.79665 0.77705
 O866 O 0.02942 0.78628 0.78018
 O867 O -0.02528 0.75797 0.78908
 O868 O -0.02421 0.72971 0.77982
 O869 O -0.03512 0.78525 0.75286
 O870 O -0.02786 0.78472 0.72124
 O871 O 0.01636 0.71572 0.74499
 O872 O 0.01172 0.71778 0.77455
 O873 O 0.04560 0.75458 0.73499
 O874 O 0.04260 0.78265 0.74179
 O875 O 0.00763 0.74547 0.70422
 O876 O -0.02012 0.75075 0.70611
 Zr877 Zr -0.00562 0.74481 0.72619
 O878 O -0.02110 0.75816 0.74077
 Zr879 Zr 0.02450 0.76748 0.73469
 O880 O 0.01035 0.78208 0.74951
 Zr881 Zr 0.01694 0.73660 0.75848
 O882 O 0.00255 0.74975 0.77456
 Zr883 Zr -0.01300 0.78123 0.74177
 O884 O 0.00157 0.76828 0.72546
 Zr885 Zr -0.02022 0.74991 0.76520
 O886 O -0.00626 0.73530 0.75024
 Zr887 Zr 0.00957 0.77318 0.77380
 O888 O 0.02533 0.75963 0.75935
 O889 O 0.01728 0.74447 0.73421
 O890 O -0.01327 0.77307 0.76581
 C891 C 0.00967 0.71201 0.73142
 C892 C 0.02051 0.75221 0.70025
 C893 C 0.04934 0.74132 0.74143
 C894 C -0.00638 0.80565 0.76911
 C895 C -0.04433 0.77642 0.76134
 C896 C -0.01935 0.76905 0.79748
 H897 H -0.03176 0.75764 0.73625
 H898 H 0.00293 0.74546 0.78590
 H899 H 0.02396 0.73782 0.72709
 H900 H 0.01442 0.79284 0.74902
 H901 H -0.00243 0.79719 0.71707
 H902 H 0.02346 0.79543 0.72250
 H903 H -0.01760 0.73030 0.78973
 H904 H 0.00107 0.71434 0.77176
 H905 H -0.03818 0.78019 0.72390
 H906 H -0.01767 0.76167 0.70308
 H907 H 0.01665 0.76124 0.80243
 H908 H 0.03696 0.74193 0.78120
 H909 H -0.02700 0.72414 0.73049
 H910 H -0.04326 0.73745 0.74964
 H911 H 0.04701 0.77835 0.75213
 H912 H 0.03157 0.79350 0.77088
 O913 O -0.03556 0.00332 -0.03005
 O914 O -0.02592 0.02766 -0.03319
 O915 O 0.00309 -0.02732 -0.03581
 O916 O 0.02811 -0.02974 -0.02273
 O917 O -0.02940 -0.03456 0.00315
 O918 O -0.03387 -0.02500 0.02851
 O919 O 0.04250 0.01269 0.00948
 O920 O 0.04271 0.00874 -0.01984
 O921 O 0.00407 0.04475 0.01511
 O922 O -0.02185 0.04480 0.00548
 O923 O 0.01203 0.01033 0.04651
 O924 O 0.00189 -0.01626 0.04928
 O925 O 0.03420 -0.00060 0.03228
 O926 O 0.02213 -0.02684 0.03515
 O927 O -0.00403 0.03037 0.03889
 O928 O -0.03125 0.03047 0.02658
 O929 O 0.02753 0.03607 0.00541
 O930 O 0.02841 0.02782 -0.02655
 O931 O -0.04408 -0.01037 -0.00754
 O932 O -0.04436 -0.00185 0.02234
 O933 O -0.00757 -0.04231 -0.01107
 O934 O 0.01983 -0.04185 -0.00110
 O935 O -0.01056 -0.00602 -0.04476
 O936 O -0.00223 0.02203 -0.04357
 Zr937 Zr -0.01235 0.00877 -0.02413
 O938 O 0.00042 0.02401 -0.00914
 Zr939 Zr 0.00720 -0.02262 -0.01079
 O940 O 0.02145 -0.00873 0.00401
 Zr941 Zr -0.02511 -0.01110 0.00889
 O942 O -0.01221 0.00265 0.02528
 Zr943 Zr 0.02268 0.01418 -0.00547
 O944 O 0.01042 -0.00046 -0.02181
 Zr945 Zr -0.00985 0.02487 0.01449
 O946 O -0.02398 0.01158 -0.00122
 Zr947 Zr 0.01072 -0.00607 0.02730
 O948 O -0.00294 -0.02138 0.01301
 O949 O -0.01492 -0.01340 -0.01425
 O950 O 0.01265 0.01619 0.01766
 C951 C -0.04583 -0.00488 -0.02228
 C952 C -0.00476 -0.01981 -0.04677
 C953 C -0.02153 -0.04445 -0.00549
 C954 C 0.04460 0.00703 0.02403
 C955 C 0.01887 0.04614 0.01305
 C956 C 0.00595 0.02399 0.04859
 H957 H 0.00104 0.03455 -0.01415
 H958 H -0.01732 0.00313 0.03627
 H959 H -0.02120 -0.02001 -0.02152
 H960 H 0.03189 -0.01371 0.00468
 H961 H 0.04555 -0.00220 -0.01722
 H962 H 0.03100 -0.02118 -0.03041
 H963 H -0.03179 0.02458 0.03711
 H964 H -0.04823 0.00735 0.01611
 H965 H 0.02573 0.03883 -0.02411
 H966 H 0.00758 0.01664 -0.04685
 H967 H -0.00446 -0.02528 0.04590
 H968 H -0.02929 -0.02103 0.03879
 H969 H -0.02213 0.03722 -0.02783
 H970 H -0.03039 0.04095 -0.00152
 H971 H 0.01431 -0.04515 0.00912
 H972 H 0.03066 -0.02909 0.02716
 O973 O -0.04808 0.50401 0.47837
 O974 O -0.04292 0.53110 0.48392
 O975 O -0.00940 0.48996 0.44891
 O976 O 0.01719 0.49226 0.45061
 O977 O -0.02455 0.46199 0.48726
 O978 O -0.01988 0.46167 0.51701
 O979 O 0.03446 0.52484 0.49785
 O980 O 0.02888 0.52607 0.46887
 O981 O -0.00371 0.53927 0.52367
 O982 O -0.03186 0.53279 0.52398
 O983 O 0.01847 0.49749 0.53596
 O984 O 0.01779 0.47083 0.52537
 O985 O 0.03706 0.50250 0.51292
 O986 O 0.03223 0.47411 0.50551
 O987 O -0.00019 0.51603 0.54063
 O988 O -0.02972 0.51289 0.53778
 O989 O 0.01354 0.54351 0.50265
 O990 O 0.00950 0.54342 0.47237
 O991 O -0.04605 0.48210 0.49430
 O992 O -0.03774 0.47845 0.52277
 O993 O -0.00636 0.46563 0.46685
 O994 O 0.02150 0.47213 0.46837
 O995 O -0.02894 0.50755 0.45398
 O996 O -0.02664 0.53436 0.46408
 Zr997 Zr -0.02570 0.51393 0.47883
 O998 O -0.01155 0.52669 0.49482
 Zr999 Zr 0.00259 0.48800 0.47137
 O1000 O 0.01821 0.49981 0.48679
 Zr1001 Zr -0.02267 0.48193 0.50227
 O1002 O -0.00811 0.49321 0.51918
 Zr1003 Zr 0.01197 0.52354 0.48789
 O1004 O -0.00231 0.51216 0.47058
 Zr1005 Zr -0.01314 0.51725 0.51876
 O1006 O -0.02898 0.50575 0.50322
 Zr1007 Zr 0.01526 0.49145 0.51109
 O1008 O 0.00086 0.47837 0.49531
 O1009 O -0.02067 0.49030 0.47839
 O1010 O 0.01023 0.51520 0.51196
 C1011 C -0.05369 0.49141 0.48471
 C1012 C -0.02193 0.49738 0.44483
 C1013 C -0.01746 0.45794 0.47383
 C1014 C 0.04210 0.51570 0.50755
 C1015 C 0.00687 0.54737 0.51632
 C1016 C 0.01181 0.50794 0.54496
 H1017 H -0.01475 0.53779 0.49458
 H1018 H -0.00956 0.48867 0.53032
 H1019 H -0.02786 0.48474 0.47109
 H1020 H 0.02908 0.49851 0.48277
 H1021 H 0.02386 0.52278 0.45852
 H1022 H 0.02694 0.49693 0.45465
 H1023 H -0.02600 0.50384 0.54434
 H1024 H -0.04317 0.48853 0.52466
 H1025 H 0.00002 0.54922 0.47587
 H1026 H -0.01707 0.53433 0.45712
 H1027 H 0.00820 0.46966 0.53216
 H1028 H -0.00973 0.45693 0.51377
 H1029 H -0.04717 0.52864 0.49504
 H1030 H -0.03170 0.54113 0.51548
 H1031 H 0.02074 0.46442 0.47749
 H1032 H 0.03913 0.47824 0.49667
 O1033 O 0.51522 0.02458 0.52220
 O1034 O 0.48744 0.01931 0.52415
 O1035 O 0.53704 -0.01548 0.54125
 O1036 O 0.53634 -0.04151 0.53702
 O1037 O 0.55201 0.00468 0.49649
 O1038 O 0.54340 0.00234 0.46799
 O1039 O 0.49078 -0.05687 0.50207
 O1040 O 0.49851 -0.05371 0.53025
 O1041 O 0.46832 -0.01836 0.48628
 O1042 O 0.47315 0.00976 0.48589
 O1043 O 0.50642 -0.03600 0.45802
 O1044 O 0.53434 -0.03586 0.46044
 O1045 O 0.50605 -0.05615 0.47897
 O1046 O 0.53643 -0.05196 0.47956
 O1047 O 0.48563 -0.01972 0.46199
 O1048 O 0.48856 0.01007 0.46629
 O1049 O 0.47112 -0.03682 0.50634
 O1050 O 0.48064 -0.03498 0.53506
 O1051 O 0.53022 0.02545 0.49880
 O1052 O 0.52522 0.01942 0.47006
 O1053 O 0.55516 -0.01457 0.51576
 O1054 O 0.54962 -0.04293 0.51297
 O1055 O 0.51795 0.00299 0.54412
 O1056 O 0.48947 0.00127 0.54228
 Zr1057 Zr 0.50522 0.00215 0.52204
 O1058 O 0.48877 -0.01160 0.50986
 Zr1059 Zr 0.53304 -0.02500 0.51780
 O1060 O 0.51764 -0.04020 0.50580
 Zr1061 Zr 0.52863 0.00274 0.48905
 O1062 O 0.51343 -0.01134 0.47548
 Zr1063 Zr 0.49460 -0.03526 0.51328
 O1064 O 0.51014 -0.02156 0.52708
 Zr1065 Zr 0.49045 -0.00794 0.48420
 O1066 O 0.50547 0.00755 0.49660
 Zr1067 Zr 0.51829 -0.03499 0.48043
 O1068 O 0.53497 -0.02089 0.49219
 O1069 O 0.52798 -0.00152 0.51424
 O1070 O 0.49530 -0.03138 0.48796
 C1071 C 0.52479 0.03144 0.51224
 C1072 C 0.53023 -0.00432 0.54917
 C1073 C 0.55998 -0.00259 0.50759
 C1074 C 0.49544 -0.06239 0.48815
 C1075 C 0.46310 -0.02959 0.49533
 C1076 C 0.49323 -0.03013 0.45372
 H1077 H 0.47820 -0.00908 0.51413
 H1078 H 0.51451 -0.00884 0.46360
 H1079 H 0.53518 0.00522 0.52033
 H1080 H 0.52036 -0.05125 0.50802
 H1081 H 0.50479 -0.04936 0.53930
 H1082 H 0.53058 -0.05103 0.53405
 H1083 H 0.49489 0.00700 0.45654
 H1084 H 0.51487 0.02428 0.47217
 H1085 H 0.47344 -0.02592 0.53442
 H1086 H 0.49155 -0.00872 0.54811
 H1087 H 0.53391 -0.02557 0.45485
 H1088 H 0.54963 -0.00743 0.46868
 H1089 H 0.48691 0.02466 0.51330
 H1090 H 0.46908 0.00969 0.49735
 H1091 H 0.55455 -0.04052 0.50215
 H1092 H 0.53306 -0.06115 0.48610
 O1093 O 0.54866 0.50901 0.00108
 O1094 O 0.54566 0.50529 -0.02834
 O1095 O 0.50741 0.52946 0.01767
 O1096 O 0.48124 0.52489 0.01451
 O1097 O 0.52656 0.49147 0.04272
 O1098 O 0.52528 0.46333 0.03902
 O1099 O 0.47008 0.48191 -0.02614
 O1100 O 0.47180 0.51025 -0.02356
 O1101 O 0.51134 0.46518 -0.04354
 O1102 O 0.53872 0.46698 -0.03573
 O1103 O 0.48805 0.44685 -0.00352
 O1104 O 0.49060 0.45250 0.02791
 O1105 O 0.46828 0.46627 -0.00340
 O1106 O 0.47249 0.46887 0.02663
 O1107 O 0.50794 0.44638 -0.02229
 O1108 O 0.53746 0.45132 -0.01571
 O1109 O 0.49123 0.48259 -0.04552
 O1110 O 0.49264 0.51000 -0.04318
 O1111 O 0.54866 0.49050 0.02144
 O1112 O 0.54386 0.46242 0.02103
 O1113 O 0.50668 0.50926 0.04088
 O1114 O 0.47894 0.50552 0.03337
 O1115 O 0.52676 0.52928 -0.00187
 O1116 O 0.52763 0.52147 -0.03156
 Zr1117 Zr 0.52717 0.50625 -0.01088
 O1118 O 0.51501 0.49120 -0.02645
 Zr1119 Zr 0.49810 0.50682 0.01669
 O1120 O 0.48444 0.49199 0.00212
 Zr1121 Zr 0.52651 0.48007 0.01978
 O1122 O 0.51406 0.46388 0.00562
 Zr1123 Zr 0.49089 0.49443 -0.02287
 O1124 O 0.50301 0.51104 -0.00861
 Zr1125 Zr 0.51931 0.46791 -0.01940
 O1126 O 0.53316 0.48292 -0.00516
 Zr1127 Zr 0.49003 0.46868 0.00803
 O1128 O 0.50239 0.48354 0.02394
 O1129 O 0.52188 0.50319 0.01388
 O1130 O 0.49546 0.47143 -0.01679
 C1131 C 0.55473 0.50218 0.01371
 C1132 C 0.51880 0.53587 0.00974
 C1133 C 0.51830 0.50289 0.04842
 C1134 C 0.46328 0.47136 -0.01735
 C1135 C 0.49972 0.47133 -0.05117
 C1136 C 0.49539 0.44073 -0.01583
 H1137 H 0.51808 0.49331 -0.03805
 H1138 H 0.51663 0.45306 0.00899
 H1139 H 0.52787 0.51039 0.02078
 H1140 H 0.47319 0.49428 0.00377
 H1141 H 0.47572 0.52033 -0.01949
 H1142 H 0.47234 0.52065 0.00832
 H1143 H 0.53311 0.44238 -0.00945
 H1144 H 0.54979 0.46292 0.01050
 H1145 H 0.49606 0.52011 -0.03875
 H1146 H 0.51897 0.52907 -0.03012
 H1147 H 0.49733 0.44359 0.02463
 H1148 H 0.51457 0.46404 0.04369
 H1149 H 0.55144 0.49544 -0.02619
 H1150 H 0.53844 0.47661 -0.04252
 H1151 H 0.48081 0.49633 0.04058
 H1152 H 0.46572 0.47808 0.02460
 O1153 O 0.78995 0.25233 0.47683
 O1154 O 0.78699 0.22658 0.47411
 O1155 O 0.74926 0.27030 0.45108
 O1156 O 0.72188 0.26723 0.45512
 O1157 O 0.76316 0.29176 0.49614
 O1158 O 0.76306 0.28636 0.52315
 O1159 O 0.70806 0.22576 0.49184
 O1160 O 0.71565 0.22654 0.46366
 O1161 O 0.74843 0.20788 0.51575
 O1162 O 0.77451 0.21440 0.51589
 O1163 O 0.72443 0.24684 0.53648
 O1164 O 0.72267 0.27307 0.53098
 O1165 O 0.70641 0.24161 0.51418
 O1166 O 0.70765 0.27212 0.50891
 O1167 O 0.74276 0.22743 0.53648
 O1168 O 0.77250 0.23387 0.53388
 O1169 O 0.72956 0.20740 0.49621
 O1170 O 0.73592 0.21296 0.46448
 O1171 O 0.78662 0.27196 0.49537
 O1172 O 0.77898 0.26708 0.52552
 O1173 O 0.74719 0.29074 0.47385
 O1174 O 0.71899 0.28323 0.47501
 O1175 O 0.77034 0.25396 0.45243
 O1176 O 0.76774 0.22433 0.45751
 Zr1177 Zr 0.76780 0.24221 0.47540
 O1178 O 0.75479 0.22592 0.48939
 Zr1179 Zr 0.73838 0.26779 0.47432
 O1180 O 0.72362 0.25226 0.48721
 Zr1181 Zr 0.76388 0.26874 0.50504
 O1182 O 0.74976 0.25418 0.51973
 Zr1183 Zr 0.73112 0.22907 0.48362
 O1184 O 0.74426 0.24452 0.46846
 Zr1185 Zr 0.75611 0.23096 0.51471
 O1186 O 0.77127 0.24557 0.50091
 Zr1187 Zr 0.72629 0.25602 0.51257
 O1188 O 0.74007 0.27260 0.49973
 O1189 O 0.76184 0.26526 0.47990
 O1190 O 0.73269 0.23293 0.50877
 C1191 C 0.79465 0.26452 0.48439
 C1192 C 0.76211 0.26465 0.44525
 C1193 C 0.75694 0.29778 0.48319
 C1194 C 0.70123 0.23060 0.50504
 C1195 C 0.73704 0.20132 0.50842
 C1196 C 0.73104 0.23481 0.54291
 H1197 H 0.75847 0.21517 0.48713
 H1198 H 0.75099 0.25685 0.53150
 H1199 H 0.76848 0.27260 0.47361
 H1200 H 0.71269 0.25382 0.48371
 H1201 H 0.71007 0.23662 0.46236
 H1202 H 0.72334 0.25706 0.44958
 H1203 H 0.76733 0.23957 0.54302
 H1204 H 0.78687 0.25894 0.52290
 H1205 H 0.74178 0.20404 0.46927
 H1206 H 0.75969 0.22719 0.44931
 H1207 H 0.72792 0.28265 0.52700
 H1208 H 0.75401 0.28401 0.53039
 H1209 H 0.78519 0.21852 0.48269
 H1210 H 0.78367 0.21929 0.51046
 H1211 H 0.71983 0.28930 0.48532
 H1212 H 0.69905 0.26667 0.50335
 O1213 O 0.78678 0.75528 -0.02257
 O1214 O 0.78390 0.72692 -0.01827
 O1215 O 0.74496 0.76914 -0.04473
 O1216 O 0.71895 0.76745 -0.03932
 O1217 O 0.76325 0.79378 -0.00410
 O1218 O 0.76140 0.78979 0.02571
 O1219 O 0.70639 0.72923 0.00315
 O1220 O 0.71137 0.72925 -0.02560
 O1221 O 0.74852 0.71161 0.02407
 O1222 O 0.77620 0.71916 0.02130
 O1223 O 0.72463 0.74797 0.04249
 O1224 O 0.72714 0.77821 0.03724
 O1225 O 0.70504 0.74914 0.02156
 O1226 O 0.70921 0.77725 0.02003
 O1227 O 0.74607 0.73223 0.04399
 O1228 O 0.77497 0.73738 0.03774
 O1229 O 0.72712 0.71112 0.00769
 O1230 O 0.73172 0.71263 -0.02446
 O1231 O 0.78587 0.77407 -0.00273
 O1232 O 0.78028 0.77345 0.02673
 O1233 O 0.74464 0.79165 -0.02380
 O1234 O 0.71664 0.78455 -0.01914
 O1235 O 0.76536 0.75193 -0.04406
 O1236 O 0.76610 0.72456 -0.03649
 Zr1237 Zr 0.76535 0.74331 -0.01968
 O1238 O 0.75295 0.72800 -0.00395
 Zr1239 Zr 0.73585 0.76888 -0.02054
 O1240 O 0.72209 0.75473 -0.00500
 Zr1241 Zr 0.76344 0.77194 0.00793
 O1242 O 0.75091 0.75799 0.02491
 Zr1243 Zr 0.72883 0.73120 -0.00748
 O1244 O 0.74125 0.74517 -0.02478
 Zr1245 Zr 0.75670 0.73448 0.02064
 O1246 O 0.77067 0.74854 0.00500
 Zr1247 Zr 0.72696 0.75993 0.01976
 O1248 O 0.73937 0.77549 0.00412
 O1249 O 0.75959 0.76658 -0.01660
 O1250 O 0.73281 0.73665 0.01688
 C1251 C 0.79249 0.76707 -0.01495
 C1252 C 0.75691 0.76234 -0.05133
 C1253 C 0.75582 0.79894 -0.01677
 C1254 C 0.69935 0.73706 0.01456
 C1255 C 0.73575 0.70546 0.01923
 C1256 C 0.73285 0.73722 0.04951
 H1257 H 0.75621 0.71709 -0.00598
 H1258 H 0.75317 0.76110 0.03635
 H1259 H 0.76567 0.77316 -0.02432
 H1260 H 0.71094 0.75635 -0.00764
 H1261 H 0.71569 0.73399 -0.03584
 H1262 H 0.71084 0.76014 -0.03539
 H1263 H 0.77150 0.74509 0.04606
 H1264 H 0.78635 0.76358 0.02644
 H1265 H 0.73744 0.70402 -0.01893
 H1266 H 0.75546 0.72376 -0.04105
 H1267 H 0.73297 0.77454 0.04702
 H1268 H 0.75067 0.79407 0.02482
 H1269 H 0.78962 0.72925 -0.00803
 H1270 H 0.77570 0.71240 0.01148
 H1271 H 0.71858 0.79158 -0.00975
 H1272 H 0.70340 0.77628 0.00960
 O1273 O 1.05257 0.24228 0.25370
 O1274 O 1.04762 0.24805 0.28250
 O1275 O 1.01624 0.21349 0.23958
 O1276 O 0.98788 0.21498 0.24275
 O1277 O 1.02697 0.25244 0.20946
 O1278 O 1.02401 0.27863 0.21012
 O1279 O 0.96895 0.25641 0.27797
 O1280 O 0.97785 0.22902 0.28072
 O1281 O 1.00608 0.28280 0.29342
 O1282 O 1.03324 0.28556 0.28563
 O1283 O 0.98254 0.29427 0.24894
 O1284 O 0.98456 0.28523 0.22159
 O1285 O 0.96609 0.27319 0.25636
 O1286 O 0.96977 0.26398 0.22593
 O1287 O 0.99955 0.29849 0.26984
 O1288 O 1.02997 0.29821 0.26374
 O1289 O 0.98946 0.26249 0.29720
 O1290 O 0.99607 0.23320 0.29625
 O1291 O 1.04918 0.25689 0.23040
 O1292 O 1.03965 0.28515 0.23016
 O1293 O 1.01197 0.23097 0.21406
 O1294 O 0.98425 0.22966 0.22158
 O1295 O 1.03501 0.21914 0.25830
 O1296 O 1.03234 0.22868 0.28678
 Zr1297 Zr 1.03040 0.24236 0.26507
 O1298 O 1.01521 0.25642 0.27917
 Zr1299 Zr 1.00264 0.23419 0.23803
 O1300 O 0.98599 0.24770 0.25110
 Zr1301 Zr 1.02575 0.26487 0.23180
 O1302 O 1.00991 0.27982 0.24422
 Zr1303 Zr 0.99225 0.24855 0.27609
 O1304 O 1.00769 0.23327 0.26343
 Zr1305 Zr 1.01510 0.27927 0.26952
 O1306 O 1.03208 0.26564 0.25685
 Zr1307 Zr 0.98717 0.27094 0.24277
 O1308 O 1.00266 0.25715 0.22835
 O1309 O 1.02527 0.24203 0.24012
 O1310 O 0.99239 0.27143 0.26770
 C1311 C 1.05722 0.24756 0.23962
 C1312 C 1.02882 0.21018 0.24756
 C1313 C 1.02141 0.23918 0.20513
 C1314 C 0.96128 0.26690 0.26993
 C1315 C 0.99547 0.27549 0.30163
 C1316 C 0.98762 0.30222 0.26110
 H1317 H 1.01842 0.25614 0.29086
 H1318 H 1.01043 0.29051 0.23959
 H1319 H 1.03245 0.23538 0.23362
 H1320 H 0.97542 0.24338 0.24972
 H1321 H 0.97145 0.22736 0.27081
 H1322 H 0.98978 0.21171 0.25430
 H1323 H 1.02412 0.30566 0.25671
 H1324 H 1.04690 0.28479 0.23960
 H1325 H 1.00390 0.23799 0.30349
 H1326 H 1.02338 0.22146 0.28689
 H1327 H 0.99005 0.27981 0.21243
 H1328 H 1.01568 0.28647 0.21212
 H1329 H 1.05161 0.25847 0.27931
 H1330 H 1.03512 0.27655 0.29306
 H1331 H 0.98329 0.23899 0.21439
 H1332 H 0.96180 0.25788 0.23202
 O1333 O 0.75372 1.04215 0.72387
 O1334 O 0.78223 1.04060 0.72669
 O1335 O 0.74167 1.00347 0.69642
 O1336 O 0.74758 0.97712 0.69708
 O1337 O 0.71734 1.01394 0.73932
 O1338 O 0.72206 1.00845 0.76873
 O1339 O 0.78777 0.96223 0.73785
 O1340 O 0.78417 0.96898 0.70922
 O1341 O 0.80007 0.99819 0.76408
 O1342 O 0.79231 1.02813 0.76233
 O1343 O 0.76560 0.97446 0.78015
 O1344 O 0.73627 0.97328 0.77412
 O1345 O 0.76855 0.95726 0.75668
 O1346 O 0.73953 0.95837 0.75472
 O1347 O 0.77923 0.99677 0.78423
 O1348 O 0.77560 1.02460 0.78080
 O1349 O 0.80424 0.98417 0.74073
 O1350 O 0.79968 0.99005 0.71087
 O1351 O 0.73538 1.03753 0.74392
 O1352 O 0.73636 1.02831 0.77198
 O1353 O 0.72049 0.99718 0.71779
 O1354 O 0.73026 0.97044 0.71735
 O1355 O 0.75820 1.02403 0.69902
 O1356 O 0.78555 1.02577 0.70592
 Zr1357 Zr 0.76726 1.02147 0.72301
 O1358 O 0.78389 1.00827 0.73625
 Zr1359 Zr 0.74420 0.99069 0.71857
 O1360 O 0.75976 0.97609 0.73165
 Zr1361 Zr 0.73931 1.01416 0.75089
 O1362 O 0.75466 1.00078 0.76542
 Zr1363 Zr 0.78250 0.98480 0.72909
 O1364 O 0.76725 0.99832 0.71429
 Zr1365 Zr 0.77769 1.00833 0.76138
 O1366 O 0.76206 1.02313 0.74847
 Zr1367 Zr 0.75468 0.97759 0.75709
 O1368 O 0.73783 0.99065 0.74377
 O1369 O 0.74452 1.01379 0.72589
 O1370 O 0.77740 0.98518 0.75420
 C1371 C 0.74166 1.04604 0.73260
 C1372 C 0.74778 1.01632 0.69123
 C1373 C 0.71241 1.00697 0.72634
 C1374 C 0.78134 0.95370 0.74909
 C1375 C 0.80819 0.98871 0.75515
 C1376 C 0.77464 0.98314 0.78867
 H1377 H 0.79446 1.01254 0.73447
 H1378 H 0.75151 1.00161 0.77716
 H1379 H 0.73716 1.02031 0.71951
 H1380 H 0.75921 0.96524 0.72764
 H1381 H 0.77922 0.97417 0.69962
 H1382 H 0.75364 0.96771 0.70024
 H1383 H 0.76559 1.02250 0.78657
 H1384 H 0.74560 1.03515 0.77237
 H1385 H 0.80571 0.99914 0.71460
 H1386 H 0.78682 1.01614 0.69934
 H1387 H 0.73718 0.98081 0.78325
 H1388 H 0.71832 0.99789 0.76598
 H1389 H 0.78013 1.04436 0.73802
 H1390 H 0.80239 1.02546 0.75693
 H1391 H 0.72445 0.96969 0.72795
 H1392 H 0.74216 0.95311 0.74421
 O1393 O 0.77376 0.48189 0.26748
 O1394 O 0.76984 0.48439 0.23759
 O1395 O 0.79736 0.52217 0.28072
 O1396 O 0.79419 0.54834 0.27778
 O1397 O 0.75764 0.50690 0.30744
 O1398 O 0.72948 0.51046 0.30344
 O1399 O 0.75206 0.56154 0.23546
 O1400 O 0.78036 0.55817 0.23913
 O1401 O 0.73311 0.52255 0.22020
 O1402 O 0.73228 0.49525 0.22906
 O1403 O 0.71507 0.54660 0.26172
 O1404 O 0.72211 0.54682 0.29131
 O1405 O 0.73594 0.56505 0.25763
 O1406 O 0.74025 0.56217 0.28863
 O1407 O 0.71441 0.52820 0.24162
 O1408 O 0.71680 0.49829 0.24883
 O1409 O 0.75286 0.53994 0.21718
 O1410 O 0.78125 0.53757 0.22199
 O1411 O 0.75483 0.48407 0.28737
 O1412 O 0.72750 0.49140 0.28673
 O1413 O 0.77755 0.52420 0.30449
 O1414 O 0.77466 0.55223 0.29638
 O1415 O 0.79541 0.50202 0.26271
 O1416 O 0.78802 0.50092 0.23389
 Zr1417 Zr 0.77237 0.50318 0.25409
 O1418 O 0.75851 0.51637 0.23778
 Zr1419 Zr 0.77513 0.53290 0.28022
 O1420 O 0.76144 0.54753 0.26495
 Zr1421 Zr 0.74632 0.50710 0.28451
 O1422 O 0.73124 0.52061 0.26965
 Zr1423 Zr 0.76361 0.54020 0.24034
 O1424 O 0.77895 0.52686 0.25526
 Zr1425 Zr 0.73488 0.51464 0.24478
 O1426 O 0.74860 0.49968 0.25984
 Zr1427 Zr 0.73777 0.54414 0.27113
 O1428 O 0.75156 0.53084 0.28765
 O1429 O 0.76977 0.50944 0.27851
 O1430 O 0.74019 0.53805 0.24646
 C1431 C 0.76611 0.47671 0.28015
 C1432 C 0.80288 0.50997 0.27344
 C1433 C 0.77018 0.51346 0.31249
 C1434 C 0.74127 0.56903 0.24335
 C1435 C 0.74083 0.53277 0.21184
 C1436 C 0.70878 0.54016 0.24920
 H1437 H 0.76035 0.51266 0.22640
 H1438 H 0.72026 0.51905 0.27311
 H1439 H 0.77665 0.50298 0.28552
 H1440 H 0.76447 0.55857 0.26600
 H1441 H 0.78993 0.55395 0.24434
 H1442 H 0.79046 0.55772 0.27177
 H1443 H 0.70832 0.50351 0.25513
 H1444 H 0.72701 0.48578 0.27612
 H1445 H 0.77921 0.52780 0.21597
 H1446 H 0.79404 0.51072 0.23331
 H1447 H 0.71502 0.53777 0.29140
 H1448 H 0.73155 0.52080 0.30828
 H1449 H 0.75973 0.47943 0.24036
 H1450 H 0.74223 0.49397 0.22288
 H1451 H 0.76549 0.55092 0.30379
 H1452 H 0.74855 0.56925 0.28461
 O1453 O 0.48817 0.19636 0.73702
 O1454 O 0.46189 0.20728 0.73723
 O1455 O 0.51613 0.23197 0.71766
 O1456 O 0.51931 0.25808 0.72247
 O1457 O 0.53007 0.20852 0.76067
 O1458 O 0.52296 0.21043 0.78932
 O1459 O 0.48147 0.28056 0.76095
 O1460 O 0.48352 0.27622 0.73239
 O1461 O 0.45186 0.24456 0.77865
 O1462 O 0.45229 0.21583 0.77628
 O1463 O 0.49027 0.25776 0.80177
 O1464 O 0.51924 0.24736 0.80030
 O1465 O 0.49874 0.27640 0.78170
 O1466 O 0.52495 0.26475 0.78318
 O1467 O 0.47004 0.24075 0.80125
 O1468 O 0.46795 0.21191 0.79466
 O1469 O 0.45812 0.26540 0.76244
 O1470 O 0.46257 0.26083 0.73071
 O1471 O 0.50500 0.19209 0.75821
 O1472 O 0.50213 0.19719 0.78789
 O1473 O 0.53513 0.22755 0.74168
 O1474 O 0.53432 0.25626 0.74471
 O1475 O 0.49390 0.21774 0.71541
 O1476 O 0.46666 0.22518 0.71949
 Zr1477 Zr 0.48270 0.22030 0.73854
 O1478 O 0.46941 0.23615 0.75275
 Zr1479 Zr 0.51481 0.24162 0.74146
 O1480 O 0.50293 0.25864 0.75549
 Zr1481 Zr 0.50746 0.21398 0.76949
 O1482 O 0.49545 0.22974 0.78501
 Zr1483 Zr 0.47895 0.25855 0.75008
 O1484 O 0.49123 0.24301 0.73425
 Zr1485 Zr 0.47197 0.23051 0.77785
 O1486 O 0.48359 0.21343 0.76356
 Zr1487 Zr 0.50384 0.25240 0.78063
 O1488 O 0.51736 0.23629 0.76670
 O1489 O 0.50617 0.21934 0.74458
 O1490 O 0.48035 0.25305 0.77490
 C1491 C 0.49758 0.18764 0.74534
 C1492 C 0.50719 0.22256 0.70992
 C1493 C 0.53877 0.21495 0.74954
 C1494 C 0.48933 0.28515 0.77344
 C1495 C 0.44932 0.25839 0.77309
 C1496 C 0.47739 0.25222 0.80754
 H1497 H 0.45835 0.23593 0.74938
 H1498 H 0.49659 0.22662 0.79670
 H1499 H 0.51202 0.21167 0.73783
 H1500 H 0.50758 0.26898 0.75327
 H1501 H 0.48826 0.27097 0.72268
 H1502 H 0.51444 0.26806 0.72589
 H1503 H 0.47580 0.21252 0.80350
 H1504 H 0.49135 0.19369 0.78578
 H1505 H 0.45226 0.25731 0.73483
 H1506 H 0.46970 0.23536 0.71466
 H1507 H 0.51314 0.24256 0.80941
 H1508 H 0.52916 0.22008 0.79013
 H1509 H 0.46099 0.20141 0.74776
 H1510 H 0.44670 0.21859 0.76603
 H1511 H 0.53928 0.25302 0.75519
 H1512 H 0.52634 0.27119 0.77310
 O1513 O 0.30430 0.74454 0.48513
 O1514 O 0.29412 0.71832 0.48374
 O1515 O 0.26755 0.77373 0.47054
 O1516 O 0.24196 0.77697 0.47720
 O1517 O 0.29186 0.78398 0.51503
 O1518 O 0.29160 0.77298 0.54236
 O1519 O 0.22178 0.73351 0.51425
 O1520 O 0.22362 0.74206 0.48557
 O1521 O 0.25543 0.70529 0.52623
 O1522 O 0.28556 0.70487 0.52016
 O1523 O 0.24553 0.74107 0.55367
 O1524 O 0.25446 0.76986 0.55389
 O1525 O 0.22560 0.75033 0.53540
 O1526 O 0.23676 0.77668 0.53829
 O1527 O 0.26242 0.72074 0.55004
 O1528 O 0.28938 0.71715 0.54166
 O1529 O 0.23752 0.71114 0.50653
 O1530 O 0.23849 0.72147 0.47832
 O1531 O 0.30893 0.75995 0.50731
 O1532 O 0.30555 0.75300 0.53656
 O1533 O 0.27236 0.79071 0.49740
 O1534 O 0.24423 0.78963 0.50094
 O1535 O 0.28146 0.75147 0.46547
 O1536 O 0.27587 0.72399 0.46749
 Zr1537 Zr 0.28056 0.73871 0.48765
 O1538 O 0.26502 0.72430 0.50089
 Zr1539 Zr 0.25890 0.77045 0.49485
 O1540 O 0.24229 0.75745 0.50840
 Zr1541 Zr 0.28755 0.76035 0.52054
 O1542 O 0.27223 0.74698 0.53538
 Zr1543 Zr 0.24253 0.73428 0.50015
 O1544 O 0.25769 0.74771 0.48512
 Zr1545 Zr 0.27104 0.72425 0.52594
 O1546 O 0.28790 0.73711 0.51234
 Zr1547 Zr 0.24938 0.75590 0.53318
 O1548 O 0.26502 0.77046 0.51998
 O1549 O 0.28142 0.76161 0.49586
 O1550 O 0.24847 0.73311 0.52488
 C1551 C 0.31301 0.75365 0.49350
 C1552 C 0.27608 0.76493 0.46119
 C1553 C 0.28464 0.79383 0.50574
 C1554 C 0.21740 0.74037 0.52761
 C1555 C 0.24312 0.70231 0.51789
 C1556 C 0.25152 0.72788 0.55803
 H1557 H 0.26530 0.71366 0.49626
 H1558 H 0.27575 0.74695 0.54696
 H1559 H 0.28854 0.76827 0.48928
 H1560 H 0.23176 0.76218 0.50737
 H1561 H 0.22820 0.74759 0.47593
 H1562 H 0.23180 0.77282 0.48106
 H1563 H 0.29203 0.72622 0.54854
 H1564 H 0.30919 0.74267 0.53261
 H1565 H 0.24648 0.71310 0.47755
 H1566 H 0.26574 0.72750 0.46292
 H1567 H 0.26115 0.76367 0.56141
 H1568 H 0.28202 0.77921 0.54449
 H1569 H 0.29987 0.71631 0.49409
 H1570 H 0.27996 0.69824 0.51226
 H1571 H 0.24708 0.79295 0.51219
 H1572 H 0.22933 0.77842 0.52918
 O1573 O 0.25922 0.30427 1.00194
 O1574 O 0.25360 0.29944 1.03169
 O1575 O 0.28091 0.26409 0.98523
 O1576 O 0.27651 0.23756 0.98742
 O1577 O 0.24372 0.28339 0.95927
 O1578 O 0.21504 0.28141 0.96251
 O1579 O 0.23292 0.22342 1.02502
 O1580 O 0.26125 0.22646 1.02378
 O1581 O 0.21335 0.26218 1.04375
 O1582 O 0.21822 0.29185 1.03813
 O1583 O 0.19781 0.24298 1.00439
 O1584 O 0.20402 0.24771 0.97247
 O1585 O 0.21754 0.22303 1.00223
 O1586 O 0.21980 0.22896 0.97324
 O1587 O 0.19553 0.26389 1.02132
 O1588 O 0.20135 0.29172 1.01992
 O1589 O 0.23179 0.24304 1.04558
 O1590 O 0.26083 0.24498 1.04330
 O1591 O 0.24142 0.30471 0.98121
 O1592 O 0.21377 0.29982 0.98019
 O1593 O 0.26165 0.26360 0.96108
 O1594 O 0.25833 0.23611 0.96734
 O1595 O 0.27954 0.28245 1.00541
 O1596 O 0.27133 0.28189 1.03371
 Zr1597 Zr 0.25614 0.28218 1.01332
 O1598 O 0.24099 0.26881 1.02829
 Zr1599 Zr 0.25835 0.25430 0.98490
 O1600 O 0.24300 0.23983 0.99835
 Zr1601 Zr 0.23132 0.28241 0.98191
 O1602 O 0.21481 0.26942 0.99560
 Zr1603 Zr 0.24471 0.24493 1.02358
 O1604 O 0.26143 0.25822 1.01032
 Zr1605 Zr 0.21798 0.27335 1.02093
 O1606 O 0.23298 0.28805 1.00711
 Zr1607 Zr 0.21973 0.24559 0.99241
 O1608 O 0.23524 0.25855 0.97721
 O1609 O 0.25427 0.27789 0.98831
 O1610 O 0.22176 0.24966 1.01743
 C1611 C 0.25266 0.31077 0.98935
 C1612 C 0.28680 0.27521 0.99376
 C1613 C 0.25538 0.27535 0.95371
 C1614 C 0.22279 0.21704 1.01563
 C1615 C 0.21945 0.25012 1.05081
 C1616 C 0.19058 0.25095 1.01557
 H1617 H 0.24247 0.27135 1.04004
 H1618 H 0.20409 0.27211 0.99210
 H1619 H 0.26167 0.28426 0.98179
 H1620 H 0.24548 0.22874 0.99616
 H1621 H 0.27129 0.23090 1.01989
 H1622 H 0.27189 0.22797 0.99217
 H1623 H 0.19615 0.29116 1.00910
 H1624 H 0.21336 0.30506 0.99104
 H1625 H 0.25807 0.25369 1.05076
 H1626 H 0.27563 0.27115 1.03443
 H1627 H 0.19429 0.25267 0.97662
 H1628 H 0.21687 0.27134 0.95686
 H1629 H 0.24421 0.30567 1.02885
 H1630 H 0.22395 0.28824 1.04800
 H1631 H 0.24901 0.23776 0.96038
 H1632 H 0.22974 0.22304 0.97401
 C1633 C 0.31541 0.38449 0.80700
 C1634 C 0.30289 0.39052 0.79781
 C1635 C 0.29009 0.39764 0.80608
 C1636 C 0.28992 0.39853 0.82327
 C1637 C 0.30236 0.39255 0.83227
 C1638 C 0.31527 0.38545 0.82434
 C1639 C 0.27775 0.40402 0.79706
 C1640 C 0.27810 0.40364 0.77982
 C1641 C 0.29070 0.39633 0.77143
 C1642 C 0.30296 0.38964 0.78050
 C1643 C 0.29113 0.39653 0.75412
 C1644 C 0.27990 0.40501 0.74530
 C1645 C 0.26786 0.41309 0.75367
 C1646 C 0.26654 0.41147 0.77089
 H1647 H 0.32505 0.37883 0.80062
 H1648 H 0.28025 0.40405 0.82977
 H1649 H 0.30190 0.39373 0.84554
 H1650 H 0.26812 0.40976 0.80346
 H1651 H 0.31274 0.38419 0.77409
 H1652 H 0.30065 0.39094 0.74745
 H1653 H 0.28124 0.40611 0.73203
 H1654 H 0.25744 0.41771 0.77759
 C1655 C 0.30445 -0.11115 0.30613
 C1656 C 0.29794 -0.09848 0.29747
 C1657 C 0.30483 -0.09345 0.28249
 C1658 C 0.31786 -0.10150 0.27620
 C1659 C 0.32439 -0.11404 0.28494
 C1660 C 0.31794 -0.11908 0.30020
 C1661 C 0.29870 -0.08037 0.27416
 C1662 C 0.28569 -0.07230 0.28065
 C1663 C 0.27853 -0.07767 0.29540
 C1664 C 0.28468 -0.09071 0.30369
 C1665 C 0.26551 -0.06971 0.30184
 C1666 C 0.25990 -0.05623 0.29408
 C1667 C 0.26718 -0.05042 0.27968
 C1668 C 0.27994 -0.05875 0.27285
 H1669 H 0.29872 -0.11471 0.31746
 H1670 H 0.32318 -0.09795 0.26459
 H1671 H 0.33468 -0.11947 0.27967
 H1672 H 0.30416 -0.07636 0.26278
 H1673 H 0.27928 -0.09466 0.31514
 H1674 H 0.25984 -0.07372 0.31310
 H1675 H 0.25008 -0.05014 0.29965
 H1676 H 0.28575 -0.05442 0.26180
 C1677 C 0.82065 0.88754 0.80234
 C1678 C 0.81107 0.89730 0.79270
 C1679 C 0.79521 0.89942 0.79714
 C1680 C 0.78913 0.89161 0.81094
 C1681 C 0.79873 0.88213 0.82063
 C1682 C 0.81475 0.88003 0.81672
 C1683 C 0.78580 0.90978 0.78813
 C1684 C 0.79217 0.91844 0.77499
 C1685 C 0.80797 0.91618 0.77033
 C1686 C 0.81728 0.90547 0.77908
 C1687 C 0.81433 0.92511 0.75739
 C1688 C 0.80534 0.93669 0.74969
 C1689 C 0.78978 0.93948 0.75471
 C1690 C 0.78316 0.92989 0.76703
 H1691 H 0.83270 0.88611 0.79858
 H1692 H 0.77700 0.89319 0.81455
 H1693 H 0.79347 0.87696 0.83149
 H1694 H 0.77369 0.91159 0.79176
 H1695 H 0.82948 0.90392 0.77567
 H1696 H 0.82643 0.92355 0.75364
 H1697 H 0.81082 0.94393 0.74032
 H1698 H 0.77121 0.93188 0.77110
 C1699 C 0.45004 0.85746 0.31406
 C1700 C 0.45916 0.84682 0.30487
 C1701 C 0.45522 0.84362 0.28836
 C1702 C 0.44217 0.85084 0.28139
 C1703 C 0.43315 0.86135 0.29053
 C1704 C 0.43692 0.86508 0.30701
 C1705 C 0.46430 0.83316 0.27905
 C1706 C 0.47711 0.82550 0.28614
 C1707 C 0.48108 0.82856 0.30268
 C1708 C 0.47215 0.83928 0.31192
 C1709 C 0.49372 0.82056 0.30978
 C1710 C 0.50186 0.80915 0.30082
 C1711 C 0.49767 0.80566 0.28450
 C1712 C 0.48559 0.81435 0.27710
 H1713 H 0.45325 0.85957 0.32670
 H1714 H 0.43894 0.84841 0.26877
 H1715 H 0.42341 0.86664 0.28423
 H1716 H 0.46126 0.83081 0.26635
 H1717 H 0.47519 0.84160 0.32463
 H1718 H 0.49695 0.82271 0.32245
 H1719 H 0.51101 0.80259 0.30694
 H1720 H 0.48211 0.81178 0.26459
 C1721 C -0.05240 0.87269 0.81318
 C1722 C -0.04415 0.86349 0.80168
 C1723 C -0.05116 0.85960 0.78657
 C1724 C -0.06594 0.86559 0.78286
 C1725 C -0.07422 0.87446 0.79442
 C1726 C -0.06790 0.87774 0.81009
 C1727 C -0.04372 0.84905 0.77586
 C1728 C -0.02972 0.84173 0.78048
 C1729 C -0.02237 0.84606 0.79528
 C1730 C -0.02942 0.85723 0.80557
 C1731 C -0.00858 0.83846 0.80004
 C1732 C -0.00279 0.82586 0.79094
 C1733 C -0.01052 0.82084 0.77670
 C1734 C -0.02358 0.82936 0.77113
 H1735 H -0.04696 0.87488 0.82489
 H1736 H -0.07141 0.86289 0.77123
 H1737 H -0.08570 0.87844 0.79090
 H1738 H -0.04938 0.84573 0.76451
 H1739 H -0.02392 0.86030 0.81708
 H1740 H -0.00273 0.84169 0.81130
 H1741 H 0.00736 0.81962 0.79547
 H1742 H -0.02968 0.82566 0.76019
 C1743 C -0.07513 -0.10305 -0.05308
 C1744 C -0.06622 -0.09109 -0.04607
 C1745 C -0.06476 -0.07665 -0.05451
 C1746 C -0.07247 -0.07427 -0.06947
 C1747 C -0.08092 -0.08629 -0.07651
 C1748 C -0.08217 -0.10077 -0.06852
 C1749 C -0.05547 -0.06486 -0.04803
 C1750 C -0.04752 -0.06727 -0.03320
 C1751 C -0.04901 -0.08158 -0.02455
 C1752 C -0.05840 -0.09341 -0.03104
 C1753 C -0.04103 -0.08374 -0.00959
 C1754 C -0.03174 -0.07182 -0.00326
 C1755 C -0.03023 -0.05771 -0.01193
 C1756 C -0.03811 -0.05551 -0.02686
 H1757 H -0.07598 -0.11432 -0.04701
 H1758 H -0.07181 -0.06315 -0.07578
 H1759 H -0.08643 -0.08441 -0.08833
 H1760 H -0.05434 -0.05383 -0.05460
 H1761 H -0.05948 -0.10445 -0.02451
 H1762 H -0.04206 -0.09460 -0.00276
 H1763 H -0.02585 -0.07354 0.00839
 H1764 H -0.03706 -0.04447 -0.03342
 C1765 C -0.06608 0.40002 0.41989
 C1766 C -0.05922 0.41176 0.42939
 C1767 C -0.06860 0.42409 0.43557
 C1768 C -0.08452 0.42464 0.43197
 C1769 C -0.09142 0.41248 0.42345
 C1770 C -0.08239 0.39988 0.41750
 C1771 C -0.06204 0.43543 0.44568
 C1772 C -0.04626 0.43447 0.44998
 C1773 C -0.03669 0.42245 0.44343
 C1774 C -0.04324 0.41114 0.43317
 C1775 C -0.02072 0.42200 0.44727
 C1776 C -0.01435 0.43334 0.45754
 C1777 C -0.02396 0.44492 0.46452
 C1778 C -0.03989 0.44543 0.46066
 H1779 H -0.05888 0.39041 0.41556
 H1780 H -0.09173 0.43426 0.43615
 H1781 H -0.10388 0.41302 0.42135
 H1782 H -0.06929 0.44484 0.45046
 H1783 H -0.03596 0.40180 0.42829
 H1784 H -0.01315 0.41302 0.44218
 H1785 H -0.00195 0.43310 0.46003
 H1786 H -0.04720 0.45477 0.46552
 C1787 C 0.43832 -0.11412 0.43747
 C1788 C 0.45044 -0.10536 0.44413
 C1789 C 0.46078 -0.09723 0.43353
 C1790 C 0.45900 -0.09832 0.41642
 C1791 C 0.44702 -0.10724 0.40983
 C1792 C 0.43643 -0.11533 0.42021
 C1793 C 0.47270 -0.08817 0.44022
 C1794 C 0.47443 -0.08722 0.45740
 C1795 C 0.46432 -0.09571 0.46797
 C1796 C 0.45241 -0.10473 0.46127
 C1797 C 0.46599 -0.09467 0.48512
 C1798 C 0.47699 -0.08464 0.49178
 C1799 C 0.48668 -0.07565 0.48141
 C1800 C 0.48568 -0.07743 0.46419
 H1801 H 0.43083 -0.12047 0.44592
 H1802 H 0.46693 -0.09231 0.40810
 H1803 H 0.44595 -0.10747 0.39655
 H1804 H 0.48048 -0.08170 0.43208
 H1805 H 0.44454 -0.11107 0.46942
 H1806 H 0.45838 -0.10115 0.49339
 H1807 H 0.47747 -0.08341 0.50506
 H1808 H 0.49289 -0.07039 0.45602
 C1809 C 0.43715 0.38942 -0.06619
 C1810 C 0.44595 0.39782 -0.05480
 C1811 C 0.43879 0.40340 -0.04020
 C1812 C 0.42301 0.40027 -0.03714
 C1813 C 0.41435 0.39169 -0.04839
 C1814 C 0.42123 0.38598 -0.06312
 C1815 C 0.44752 0.41200 -0.02891
 C1816 C 0.46342 0.41489 -0.03194
 C1817 C 0.47069 0.40891 -0.04632
 C1818 C 0.46190 0.40050 -0.05770
 C1819 C 0.48659 0.41168 -0.04924
 C1820 C 0.49505 0.42096 -0.03846
 C1821 C 0.48778 0.42768 -0.02454
 C1822 C 0.47202 0.42412 -0.02110
 H1823 H 0.44310 0.38510 -0.07707
 H1824 H 0.41731 0.40450 -0.02602
 H1825 H 0.40215 0.38987 -0.04553
 H1826 H 0.44193 0.41651 -0.01783
 H1827 H 0.46747 0.39610 -0.06884
 H1828 H 0.49237 0.40711 -0.06016
 H1829 H 0.50711 0.42349 -0.04150
 H1830 H 0.46614 0.42931 -0.01054
 C1831 C 0.80833 0.36103 0.43938
 C1832 C 0.79732 0.34999 0.44472
 C1833 C 0.79057 0.33985 0.43316
 C1834 C 0.79478 0.34105 0.41648
 C1835 C 0.80589 0.35187 0.41131
 C1836 C 0.81276 0.36199 0.42264
 C1837 C 0.77981 0.32861 0.43843
 C1838 C 0.77583 0.32723 0.45519
 C1839 C 0.78241 0.33748 0.46677
 C1840 C 0.79300 0.34891 0.46144
 C1841 C 0.77874 0.33573 0.48358
 C1842 C 0.76936 0.32341 0.48896
 C1843 C 0.76315 0.31290 0.47757
 C1844 C 0.76599 0.31524 0.46063
 H1845 H 0.81326 0.36898 0.44822
 H1846 H 0.78937 0.33371 0.40743
 H1847 H 0.80904 0.35241 0.39838
 H1848 H 0.77482 0.32070 0.42955
 H1849 H 0.79817 0.35666 0.47034
 H1850 H 0.78369 0.34346 0.49263
 H1851 H 0.76748 0.32167 0.50209
 H1852 H 0.76161 0.30694 0.45179
 C1853 C 0.81029 0.85586 -0.06688
 C1854 C 0.80202 0.84617 -0.05583
 C1855 C 0.80974 0.83961 -0.04207
 C1856 C 0.82552 0.84269 -0.03961
 C1857 C 0.83357 0.85252 -0.05040
 C1858 C 0.82612 0.85955 -0.06409
 C1859 C 0.80161 0.83005 -0.03094
 C1860 C 0.78576 0.82701 -0.03328
 C1861 C 0.77790 0.83359 -0.04693
 C1862 C 0.78608 0.84315 -0.05815
 C1863 C 0.76208 0.83018 -0.04930
 C1864 C 0.75436 0.81977 -0.03869
 C1865 C 0.76226 0.81281 -0.02536
 C1866 C 0.77784 0.81696 -0.02246
 H1867 H 0.80405 0.86103 -0.07710
 H1868 H 0.83167 0.83753 -0.02927
 H1869 H 0.84578 0.85434 -0.04795
 H1870 H 0.80766 0.82488 -0.02052
 H1871 H 0.78008 0.84816 -0.06868
 H1872 H 0.75584 0.83512 -0.05969
 H1873 H 0.74243 0.81664 -0.04135
 H1874 H 0.78424 0.81150 -0.01245
 C1875 C 0.80845 0.31813 0.38249
 C1876 C 0.80248 0.30725 0.39401
 C1877 C 0.81250 0.30059 0.40598
 C1878 C 0.82829 0.30468 0.40607
 C1879 C 0.83414 0.31529 0.39449
 C1880 C 0.82434 0.32212 0.38264
 C1881 C 0.80662 0.28993 0.41766
 C1882 C 0.79080 0.28585 0.41762
 C1883 C 0.78074 0.29246 0.40568
 C1884 C 0.78667 0.30302 0.39387
 C1885 C 0.76482 0.28871 0.40604
 C1886 C 0.75882 0.27895 0.41844
 C1887 C 0.76870 0.27240 0.43042
 C1888 C 0.78476 0.27567 0.42972
 H1889 H 0.80091 0.32322 0.37321
 H1890 H 0.83617 0.29949 0.41495
 H1891 H 0.84642 0.31815 0.39466
 H1892 H 0.81433 0.28496 0.42689
 H1893 H 0.77892 0.30815 0.38477
 H1894 H 0.75691 0.29373 0.39705
 H1895 H 0.74638 0.27680 0.41893
 H1896 H 0.79240 0.27107 0.43922
 C1897 C 0.80606 0.80772 -0.11709
 C1898 C 0.79886 0.79649 -0.10696
 C1899 C 0.80806 0.78516 -0.09879
 C1900 C 0.82423 0.78493 -0.10128
 C1901 C 0.83137 0.79618 -0.11127
 C1902 C 0.82250 0.80807 -0.11911
 C1903 C 0.80103 0.77459 -0.08779
 C1904 C 0.78494 0.77551 -0.08453
 C1905 C 0.77563 0.78655 -0.09307
 C1906 C 0.78262 0.79682 -0.10442
 C1907 C 0.75961 0.78766 -0.08947
 C1908 C 0.75311 0.77876 -0.07668
 C1909 C 0.76246 0.76837 -0.06748
 C1910 C 0.77822 0.76627 -0.07207
 H1911 H 0.79865 0.81624 -0.12306
 H1912 H 0.83147 0.77630 -0.09510
 H1913 H 0.84393 0.79568 -0.11219
 H1914 H 0.80818 0.76616 -0.08120
 H1915 H 0.77552 0.80550 -0.11072
 H1916 H 0.75228 0.79600 -0.09595
 H1917 H 0.74094 0.78061 -0.07341
 H1918 H 0.78564 0.75845 -0.06500
 C1919 C 0.31242 0.42543 0.85182
 C1920 C 0.30550 0.43176 0.83751
 C1921 C 0.31348 0.43066 0.82217
 C1922 C 0.32811 0.42323 0.82140
 C1923 C 0.33508 0.41740 0.83571
 C1924 C 0.32728 0.41829 0.85099
 C1925 C 0.30666 0.43686 0.80783
 C1926 C 0.29199 0.44428 0.80858
 C1927 C 0.28382 0.44509 0.82381
 C1928 C 0.29066 0.43890 0.83820
 C1929 C 0.26885 0.45193 0.82435
 C1930 C 0.26204 0.45790 0.80995
 C1931 C 0.27026 0.45755 0.79490
 C1932 C 0.28524 0.45071 0.79428
 H1933 H 0.30637 0.42615 0.86361
 H1934 H 0.33415 0.42188 0.80969
 H1935 H 0.34644 0.41180 0.83483
 H1936 H 0.31273 0.43583 0.79608
 H1937 H 0.28441 0.43956 0.84988
 H1938 H 0.26234 0.45249 0.83586
 H1939 H 0.25036 0.46285 0.81054
 H1940 H 0.29141 0.44997 0.78255
 C1941 C 0.29512 -0.03093 0.39055
 C1942 C 0.28722 -0.02549 0.37653
 C1943 C 0.27435 -0.03384 0.37052
 C1944 C 0.26935 -0.04725 0.37886
 C1945 C 0.27721 -0.05261 0.39281
 C1946 C 0.29042 -0.04472 0.39880
 C1947 C 0.26686 -0.02883 0.35610
 C1948 C 0.27218 -0.01561 0.34754
 C1949 C 0.28481 -0.00700 0.35377
 C1950 C 0.29219 -0.01193 0.36828
 C1951 C 0.29013 0.00616 0.34512
 C1952 C 0.28343 0.01039 0.33008
 C1953 C 0.27120 0.00160 0.32347
 C1954 C 0.26538 -0.01118 0.33253
 H1955 H 0.30483 -0.02422 0.39499
 H1956 H 0.25947 -0.05379 0.37442
 H1957 H 0.27311 -0.06331 0.39838
 H1958 H 0.25713 -0.03541 0.35136
 H1959 H 0.30202 -0.00544 0.37293
 H1960 H 0.29974 0.01294 0.34975
 H1961 H 0.28814 0.02032 0.32343
 H1962 H 0.25600 -0.01811 0.32760
 C1963 C -0.05508 -0.06740 -0.10836
 C1964 C -0.04670 -0.05639 -0.09930
 C1965 C -0.05371 -0.04186 -0.09544
 C1966 C -0.06890 -0.03858 -0.10056
 C1967 C -0.07728 -0.04964 -0.10919
 C1968 C -0.07059 -0.06426 -0.11334
 C1969 C -0.04565 -0.03096 -0.08611
 C1970 C -0.03083 -0.03457 -0.08000
 C1971 C -0.02370 -0.04907 -0.08377
 C1972 C -0.03159 -0.05982 -0.09362
 C1973 C -0.00909 -0.05277 -0.07703
 C1974 C -0.00213 -0.04264 -0.06585
 C1975 C -0.00947 -0.02847 -0.06159
 C1976 C -0.02351 -0.02425 -0.06932
 H1977 H -0.04966 -0.07859 -0.11090
 H1978 H -0.07439 -0.02746 -0.09774
 H1979 H -0.08888 -0.04627 -0.11296
 H1980 H -0.05113 -0.01987 -0.08311
 H1981 H -0.02621 -0.07101 -0.09639
 H1982 H -0.00343 -0.06382 -0.07976
 H1983 H 0.00863 -0.04623 -0.05997
 H1984 H -0.02950 -0.01352 -0.06593
 C1985 C -0.07117 0.44596 0.38535
 C1986 C -0.06010 0.45384 0.39482
 C1987 C -0.04668 0.44579 0.40036
 C1988 C -0.04449 0.43011 0.39635
 C1989 C -0.05549 0.42233 0.38696
 C1990 C -0.06898 0.43009 0.38103
 C1991 C -0.03566 0.45350 0.40994
 C1992 C -0.03791 0.46919 0.41411
 C1993 C -0.05123 0.47738 0.40846
 C1994 C -0.06224 0.46966 0.39879
 C1995 C -0.05353 0.49300 0.41305
 C1996 C -0.04321 0.50014 0.42389
 C1997 C -0.03024 0.49188 0.43006
 C1998 C -0.02738 0.47658 0.42454
 H1999 H -0.08146 0.45235 0.38153
 H2000 H -0.03422 0.42380 0.40047
 H2001 H -0.05294 0.41029 0.38417
 H2002 H -0.02548 0.44719 0.41438
 H2003 H -0.07254 0.47590 0.39455
 H2004 H -0.06367 0.49948 0.40882
 H2005 H -0.04581 0.51186 0.42808
 H2006 H -0.01763 0.46989 0.42940
 C2007 C 0.44418 -0.07107 0.38473
 C2008 C 0.45060 -0.06285 0.39791
 C2009 C 0.44076 -0.05728 0.41075
 C2010 C 0.42463 -0.05992 0.41006
 C2011 C 0.41831 -0.06786 0.39669
 C2012 C 0.42802 -0.07350 0.38396
 C2013 C 0.44719 -0.04910 0.42397
 C2014 C 0.46333 -0.04641 0.42450
 C2015 C 0.47313 -0.05201 0.41164
 C2016 C 0.46670 -0.06011 0.39841
 C2017 C 0.48928 -0.04963 0.41235
 C2018 C 0.49574 -0.04205 0.42581
 C2019 C 0.48615 -0.03643 0.43866
 C2020 C 0.46990 -0.03847 0.43783
 H2021 H 0.45170 -0.07525 0.37483
 H2022 H 0.41690 -0.05573 0.41976
 H2023 H 0.40582 -0.06968 0.39630
 H2024 H 0.43966 -0.04488 0.43385
 H2025 H 0.47425 -0.06442 0.38859
 H2026 H 0.49695 -0.05391 0.40264
 H2027 H 0.50830 -0.04072 0.42629
 H2028 H 0.46247 -0.03449 0.44788
 C2029 C 0.45411 0.43542 -0.12507
 C2030 C 0.46205 0.44465 -0.11372
 C2031 C 0.45634 0.45973 -0.10992
 C2032 C 0.44307 0.46550 -0.11785
 C2033 C 0.43511 0.45622 -0.12897
 C2034 C 0.44026 0.44087 -0.13258
 C2035 C 0.46367 0.46862 -0.09786
 C2036 C 0.47648 0.46248 -0.08931
 C2037 C 0.48252 0.44759 -0.09346
 C2038 C 0.47533 0.43881 -0.10572
 C2039 C 0.49534 0.44152 -0.08487
 C2040 C 0.50161 0.44976 -0.07175
 C2041 C 0.49515 0.46421 -0.06695
 C2042 C 0.48289 0.47072 -0.07618
 H2043 H 0.45840 0.42372 -0.12730
 H2044 H 0.43864 0.47711 -0.11521
 H2045 H 0.42496 0.46132 -0.13476
 H2046 H 0.45905 0.48005 -0.09470
 H2047 H 0.47979 0.42726 -0.10866
 H2048 H 0.50018 0.43016 -0.08793
 H2049 H 0.51107 0.44444 -0.06489
 H2050 H 0.47781 0.48186 -0.07267
 C2051 C 0.43434 0.81632 0.35548
 C2052 C 0.44151 0.80493 0.34560
 C2053 C 0.43244 0.79621 0.33455
 C2054 C 0.41628 0.79895 0.33378
 C2055 C 0.40915 0.81008 0.34397
 C2056 C 0.41814 0.81885 0.35486
 C2057 C 0.43963 0.78475 0.32469
 C2058 C 0.45572 0.78175 0.32599
 C2059 C 0.46467 0.79027 0.33734
 C2060 C 0.45755 0.80189 0.34695
 C2061 C 0.48068 0.78718 0.33877
 C2062 C 0.48794 0.77617 0.32862
 C2063 C 0.47934 0.76802 0.31680
 C2064 C 0.46310 0.77061 0.31586
 H2065 H 0.44126 0.82280 0.36417
 H2066 H 0.40912 0.79224 0.32559
 H2067 H 0.39662 0.81183 0.34345
 H2068 H 0.43271 0.77814 0.31610
 H2069 H 0.46447 0.80851 0.35554
 H2070 H 0.48769 0.79357 0.34746
 H2071 H 0.50045 0.77452 0.32957
 H2072 H 0.45632 0.76460 0.30667
 C2073 C -0.07411 0.82041 0.85466
 C2074 C -0.06274 0.81320 0.84456
 C2075 C -0.05019 0.82202 0.83814
 C2076 C -0.04933 0.83792 0.84173
 C2077 C -0.06057 0.84501 0.85183
 C2078 C -0.07299 0.83637 0.85888
 C2079 C -0.03869 0.81483 0.82826
 C2080 C -0.03946 0.79883 0.82487
 C2081 C -0.05200 0.78997 0.83132
 C2082 C -0.06360 0.79722 0.84103
 C2083 C -0.05282 0.77401 0.82781
 C2084 C -0.04158 0.76696 0.81764
 C2085 C -0.02919 0.77568 0.81089
 C2086 C -0.02807 0.79160 0.81483
 H2087 H -0.08337 0.81326 0.85963
 H2088 H -0.03986 0.84489 0.83683
 H2089 H -0.05941 0.85738 0.85391
 H2090 H -0.02914 0.82167 0.82327
 H2091 H -0.07324 0.79041 0.84591
 H2092 H -0.06236 0.76705 0.83263
 H2093 H -0.04286 0.75475 0.81463
 H2094 H -0.01882 0.79857 0.80940
 C2095 C 0.38970 0.81140 0.29495
 C2096 C 0.40139 0.80149 0.28852
 C2097 C 0.40125 0.78539 0.29251
 C2098 C 0.38921 0.77942 0.30248
 C2099 C 0.37773 0.78937 0.30894
 C2100 C 0.37795 0.80546 0.30545
 C2101 C 0.41337 0.77560 0.28691
 C2102 C 0.42568 0.78169 0.27738
 C2103 C 0.42553 0.79765 0.27285
 C2104 C 0.41341 0.80746 0.27846
 C2105 C 0.43769 0.80359 0.26303
 C2106 C 0.45025 0.79403 0.25839
 C2107 C 0.45097 0.77831 0.26353
 C2108 C 0.43838 0.77215 0.27272
 H2109 H 0.39003 0.82379 0.29224
 H2110 H 0.38886 0.76711 0.30558
 H2111 H 0.36865 0.78446 0.31672
 H2112 H 0.41341 0.76334 0.29031
 H2113 H 0.41350 0.81977 0.27526
 H2114 H 0.43762 0.81573 0.25922
 H2115 H 0.45967 0.79911 0.25120
 H2116 H 0.43866 0.76006 0.27672
 C2117 C -0.10572 0.81947 0.81781
 C2118 C -0.09364 0.81397 0.80757
 C2119 C -0.08001 0.82298 0.80540
 C2120 C -0.07883 0.83736 0.81338
 C2121 C -0.09117 0.84303 0.82307
 C2122 C -0.10457 0.83405 0.82542
 C2123 C -0.06787 0.81753 0.79520
 C2124 C -0.06936 0.80340 0.78680
 C2125 C -0.08302 0.79440 0.78893
 C2126 C -0.09505 0.79971 0.79937
 C2127 C -0.08431 0.78010 0.78077
 C2128 C -0.07199 0.77455 0.77095
 C2129 C -0.05839 0.78340 0.76883
 C2130 C -0.05724 0.79792 0.77658
 H2131 H -0.11624 0.81267 0.81952
 H2132 H -0.06835 0.84416 0.81216
 H2133 H -0.09020 0.85424 0.82902
 H2134 H -0.05730 0.82428 0.79381
 H2135 H -0.10550 0.79279 0.80108
 H2136 H -0.09466 0.77303 0.78231
 H2137 H -0.07292 0.76318 0.76532
 H2138 H -0.04653 0.80452 0.77543
 C2139 C 0.85593 0.31569 0.43720
 C2140 C 0.84529 0.30871 0.44820
 C2141 C 0.83447 0.31810 0.45698
 C2142 C 0.83479 0.33432 0.45498
 C2143 C 0.84528 0.34114 0.44384
 C2144 C 0.85577 0.33195 0.43458
 C2145 C 0.82335 0.31113 0.46741
 C2146 C 0.82278 0.29483 0.46895
 C2147 C 0.83382 0.28544 0.46042
 C2148 C 0.84512 0.29245 0.45024
 C2149 C 0.83295 0.26914 0.46165
 C2150 C 0.82073 0.26220 0.47049
 C2151 C 0.80942 0.27144 0.47855
 C2152 C 0.81085 0.28777 0.47821
 H2153 H 0.86424 0.30836 0.43068
 H2154 H 0.82684 0.34172 0.46192
 H2155 H 0.84504 0.35362 0.44239
 H2156 H 0.81485 0.31834 0.47391
 H2157 H 0.85342 0.28523 0.44349
 H2158 H 0.84131 0.26177 0.45520
 H2159 H 0.81977 0.24961 0.47049
 H2160 H 0.80197 0.29502 0.48407
 C2161 C 0.85614 0.81838 -0.06014
 C2162 C 0.84352 0.80948 -0.05417
 C2163 C 0.82939 0.80931 -0.06308
 C2164 C 0.82808 0.81814 -0.07764
 C2165 C 0.84083 0.82657 -0.08371
 C2166 C 0.85489 0.82674 -0.07503
 C2167 C 0.81679 0.80037 -0.05728
 C2168 C 0.81812 0.79155 -0.04269
 C2169 C 0.83213 0.79192 -0.03360
 C2170 C 0.84476 0.80084 -0.03944
 C2171 C 0.83317 0.78351 -0.01870
 C2172 C 0.82040 0.77498 -0.01274
 C2173 C 0.80661 0.77436 -0.02184
 C2174 C 0.80553 0.78261 -0.03684
 H2175 H 0.86702 0.81863 -0.05343
 H2176 H 0.81723 0.81844 -0.08439
 H2177 H 0.83970 0.83319 -0.09508
 H2178 H 0.80593 0.80035 -0.06406
 H2179 H 0.85552 0.80108 -0.03251
 H2180 H 0.84376 0.78378 -0.01149
 H2181 H 0.82122 0.76898 -0.00097
 H2182 H 0.79465 0.78254 -0.04359
 C2183 C -0.10848 -0.05568 -0.06715
 C2184 C -0.09876 -0.04704 -0.05672
 C2185 C -0.09540 -0.05280 -0.04075
 C2186 C -0.10157 -0.06698 -0.03547
 C2187 C -0.11100 -0.07554 -0.04582
 C2188 C -0.11476 -0.07016 -0.06188
 C2189 C -0.08558 -0.04454 -0.03035
 C2190 C -0.07860 -0.03074 -0.03581
 C2191 C -0.08176 -0.02486 -0.05177
 C2192 C -0.09201 -0.03294 -0.06208
 C2193 C -0.07421 -0.01127 -0.05724
 C2194 C -0.06310 -0.00408 -0.04729
 C2195 C -0.05966 -0.01013 -0.03154
 C2196 C -0.06790 -0.02321 -0.02574
 H2197 H -0.11069 -0.05122 -0.07942
 H2198 H -0.09899 -0.07157 -0.02329
 H2199 H -0.11542 -0.08629 -0.04074
 H2200 H -0.08295 -0.04915 -0.01817
 H2201 H -0.09445 -0.02848 -0.07435
 H2202 H -0.07644 -0.00656 -0.06944
 H2203 H -0.05682 0.00588 -0.05217
 H2204 H -0.06523 -0.02825 -0.01378
 C2205 C -0.12323 0.44670 0.44492
 C2206 C -0.11219 0.45332 0.45545
 C2207 C -0.10446 0.44385 0.46718
 C2208 C -0.10834 0.42809 0.46866
 C2209 C -0.11925 0.42154 0.45812
 C2210 C -0.12662 0.43059 0.44572
 C2211 C -0.09249 0.45009 0.47674
 C2212 C -0.08792 0.46563 0.47446
 C2213 C -0.09608 0.47530 0.46321
 C2214 C -0.10828 0.46914 0.45392
 C2215 C -0.09142 0.49080 0.46087
 C2216 C -0.07819 0.49638 0.46877
 C2217 C -0.06943 0.48661 0.47928
 C2218 C -0.07477 0.47140 0.48256
 H2219 H -0.12896 0.45421 0.43605
 H2220 H -0.10254 0.42065 0.47761
 H2221 H -0.12116 0.40916 0.45934
 H2222 H -0.08626 0.44266 0.48540
 H2223 H -0.11427 0.47648 0.44499
 H2224 H -0.09762 0.49842 0.45241
 H2225 H -0.07444 0.50816 0.46606
 H2226 H -0.06816 0.46368 0.49058
 C2227 C 0.37878 -0.05365 0.46635
 C2228 C 0.39392 -0.04816 0.46921
 C2229 C 0.40120 -0.03823 0.45752
 C2230 C 0.39331 -0.03412 0.44309
 C2231 C 0.37822 -0.03951 0.44036
 C2232 C 0.37055 -0.04927 0.45197
 C2233 C 0.41618 -0.03247 0.46049
 C2234 C 0.42399 -0.03648 0.47507
 C2235 C 0.41678 -0.04655 0.48670
 C2236 C 0.40180 -0.05231 0.48371
 C2237 C 0.42469 -0.05070 0.50115
 C2238 C 0.43964 -0.04500 0.50404
 C2239 C 0.44691 -0.03490 0.49262
 C2240 C 0.43893 -0.03063 0.47817
 H2241 H 0.37339 -0.06090 0.47572
 H2242 H 0.39879 -0.02666 0.43390
 H2243 H 0.37283 -0.03610 0.42889
 H2244 H 0.42173 -0.02481 0.45151
 H2245 H 0.39627 -0.05998 0.49269
 H2246 H 0.41937 -0.05844 0.51018
 H2247 H 0.44552 -0.04853 0.51525
 H2248 H 0.44442 -0.02296 0.46918
 C2249 C 0.39954 0.42471 -0.06586
 C2250 C 0.41164 0.43388 -0.05974
 C2251 C 0.42278 0.44030 -0.07072
 C2252 C 0.42144 0.43763 -0.08769
 C2253 C 0.40898 0.42898 -0.09380
 C2254 C 0.39788 0.42229 -0.08298
 C2255 C 0.43494 0.44943 -0.06455
 C2256 C 0.43592 0.45237 -0.04754
 C2257 C 0.42464 0.44599 -0.03661
 C2258 C 0.41257 0.43685 -0.04278
 C2259 C 0.42574 0.44865 -0.01962
 C2260 C 0.43805 0.45734 -0.01342
 C2261 C 0.44931 0.46380 -0.02411
 C2262 C 0.44808 0.46140 -0.04123
 H2263 H 0.39099 0.42019 -0.05718
 H2264 H 0.42993 0.44236 -0.09627
 H2265 H 0.40835 0.42722 -0.10699
 H2266 H 0.44357 0.45429 -0.07296
 H2267 H 0.40395 0.43196 -0.03436
 H2268 H 0.41725 0.44375 -0.01108
 H2269 H 0.43887 0.45889 -0.00020
 H2270 H 0.45693 0.46603 -0.04954
 C2271 C 0.36314 0.42912 0.79090
 C2272 C 0.35175 0.43755 0.78221
 C2273 C 0.34428 0.45047 0.78975
 C2274 C 0.34809 0.45458 0.80588
 C2275 C 0.35916 0.44591 0.81458
 C2276 C 0.36693 0.43315 0.80721
 C2277 C 0.33276 0.45880 0.78125
 C2278 C 0.32810 0.45397 0.76559
 C2279 C 0.33544 0.44101 0.75802
 C2280 C 0.34748 0.43306 0.76625
 C2281 C 0.33015 0.43586 0.74266
 C2282 C 0.31711 0.44292 0.73538
 C2283 C 0.30947 0.45552 0.74313
 C2284 C 0.31553 0.46136 0.75790
 H2285 H 0.36901 0.41950 0.78483
 H2286 H 0.34226 0.46429 0.81192
 H2287 H 0.36143 0.44916 0.82719
 H2288 H 0.32692 0.46863 0.78712
 H2289 H 0.35310 0.42305 0.76052
 H2290 H 0.33563 0.42593 0.73667
 H2291 H 0.31264 0.43815 0.72404
 H2292 H 0.30970 0.47094 0.76419
 C2293 C 0.36457 -0.05422 0.30777
 C2294 C 0.35318 -0.04647 0.29828
 C2295 C 0.34399 -0.05509 0.28723
 C2296 C 0.34639 -0.07118 0.28574
 C2297 C 0.35766 -0.07879 0.29520
 C2298 C 0.36691 -0.07045 0.30628
 C2299 C 0.33243 -0.04755 0.27794
 C2300 C 0.32978 -0.03149 0.27964
 C2301 C 0.33904 -0.02275 0.29050
 C2302 C 0.35078 -0.03028 0.29968
 C2303 C 0.33608 -0.00672 0.29233
 C2304 C 0.32360 0.00041 0.28409
 C2305 C 0.31404 -0.00829 0.27362
 C2306 C 0.31756 -0.02417 0.27111
 H2307 H 0.37176 -0.04761 0.31607
 H2308 H 0.33957 -0.07787 0.27720
 H2309 H 0.35908 -0.09129 0.29392
 H2310 H 0.32529 -0.05425 0.26961
 H2311 H 0.35782 -0.02361 0.30812
 H2312 H 0.34307 0.00018 0.30057
 H2313 H 0.32112 0.01264 0.28632
 H2314 H 0.31019 -0.03114 0.26328
 C2315 C 0.12081 0.53328 0.69729
 C2316 C 0.13443 0.52626 0.70357
 C2317 C 0.14400 0.53473 0.71439
 C2318 C 0.13995 0.55003 0.71862
 C2319 C 0.12657 0.55698 0.71216
 C2320 C 0.11674 0.54870 0.70155
 C2321 C 0.15759 0.52788 0.72069
 C2322 C 0.16195 0.51274 0.71610
 C2323 C 0.15251 0.50421 0.70523
 C2324 C 0.13871 0.51097 0.69914
 C2325 C 0.15722 0.48917 0.70045
 C2326 C 0.17133 0.48283 0.70606
 C2327 C 0.18087 0.49133 0.71673
 C2328 C 0.17589 0.50620 0.72192
 H2329 H 0.11336 0.52669 0.68923
 H2330 H 0.14726 0.55672 0.72675
 H2331 H 0.12409 0.56897 0.71536
 H2332 H 0.16491 0.53444 0.72896
 H2333 H 0.13145 0.50446 0.69078
 H2334 H 0.15016 0.48245 0.69210
 H2335 H 0.17490 0.47139 0.70178
 H2336 H 0.18313 0.51299 0.73003
 C2337 C 0.14231 0.07434 0.19128
 C2338 C 0.15342 0.06424 0.19845
 C2339 C 0.16370 0.05559 0.18819
 C2340 C 0.16268 0.05709 0.17107
 C2341 C 0.15194 0.06739 0.16405
 C2342 C 0.14149 0.07603 0.17399
 C2343 C 0.17492 0.04563 0.19517
 C2344 C 0.17624 0.04442 0.21234
 C2345 C 0.16598 0.05300 0.22269
 C2346 C 0.15442 0.06263 0.21568
 C2347 C 0.16777 0.05215 0.23987
 C2348 C 0.17995 0.04333 0.24669
 C2349 C 0.19021 0.03481 0.23646
 C2350 C 0.18807 0.03516 0.21930
 H2351 H 0.13421 0.08065 0.19917
 H2352 H 0.17013 0.05017 0.16308
 H2353 H 0.15174 0.06844 0.15074
 H2354 H 0.18283 0.03908 0.18724
 H2355 H 0.14650 0.06917 0.22361
 H2356 H 0.16009 0.05873 0.24800
 H2357 H 0.18154 0.04337 0.25993
 H2358 H 0.19618 0.02896 0.21128
 C2359 C 0.60604 0.66924 0.19457
 C2360 C 0.59921 0.68002 0.20560
 C2361 C 0.59979 0.69616 0.20187
 C2362 C 0.60713 0.70130 0.18738
 C2363 C 0.61370 0.69060 0.17648
 C2364 C 0.61308 0.67446 0.17977
 C2365 C 0.59275 0.70699 0.21247
 C2366 C 0.58470 0.70195 0.22659
 C2367 C 0.58403 0.68588 0.23049
 C2368 C 0.59146 0.67498 0.22005
 C2369 C 0.57540 0.68100 0.24438
 C2370 C 0.56670 0.69185 0.25361
 C2371 C 0.56670 0.70780 0.24928
 C2372 C 0.57646 0.71278 0.23625
 H2373 H 0.60541 0.65685 0.19717
 H2374 H 0.60769 0.71363 0.18440
 H2375 H 0.61944 0.69506 0.16549
 H2376 H 0.59309 0.71933 0.20941
 H2377 H 0.59082 0.66261 0.22290
 H2378 H 0.57471 0.66873 0.24759
 H2379 H 0.55921 0.68758 0.26347
 H2380 H 0.57658 0.72498 0.23260
 C2381 C 0.11545 0.69065 0.69945
 C2382 C 0.10329 0.69746 0.70876
 C2383 C 0.09116 0.68800 0.71514
 C2384 C 0.09145 0.67191 0.71217
 C2385 C 0.10359 0.66523 0.70293
 C2386 C 0.11567 0.67450 0.69643
 C2387 C 0.07885 0.69478 0.72417
 C2388 C 0.07834 0.71095 0.72670
 C2389 C 0.09050 0.72043 0.72042
 C2390 C 0.10298 0.71360 0.71164
 C2391 C 0.08968 0.73665 0.72256
 C2392 C 0.07661 0.74348 0.73018
 C2393 C 0.06433 0.73418 0.73616
 C2394 C 0.06551 0.71786 0.73479
 H2395 H 0.12481 0.69788 0.69471
 H2396 H 0.08222 0.66451 0.71690
 H2397 H 0.10339 0.65280 0.70063
 H2398 H 0.06948 0.68752 0.72892
 H2399 H 0.11226 0.72088 0.70672
 H2400 H 0.09888 0.74410 0.71782
 H2401 H 0.07590 0.75608 0.73100
 H2402 H 0.05598 0.71058 0.73905
 C2403 C 0.63752 0.17975 0.55115
 C2404 C 0.64930 0.18973 0.54505
 C2405 C 0.65961 0.19684 0.55622
 C2406 C 0.65806 0.19390 0.57311
 C2407 C 0.64652 0.18396 0.57904
 C2408 C 0.63592 0.17702 0.56824
 C2409 C 0.67126 0.20690 0.55042
 C2410 C 0.67292 0.20992 0.53352
 C2411 C 0.66280 0.20278 0.52220
 C2412 C 0.65092 0.19286 0.52805
 C2413 C 0.66497 0.20548 0.50523
 C2414 C 0.67721 0.21492 0.49955
 C2415 C 0.68719 0.22216 0.51077
 C2416 C 0.68484 0.21973 0.52776
 H2417 H 0.62931 0.17457 0.54274
 H2418 H 0.66554 0.19963 0.58179
 H2419 H 0.64564 0.18197 0.59222
 H2420 H 0.67910 0.21231 0.55908
 H2421 H 0.64312 0.18740 0.51939
 H2422 H 0.65743 0.20003 0.49633
 H2423 H 0.67897 0.21646 0.48638
 H2424 H 0.69276 0.22489 0.53650
 C2425 C 0.63049 0.68903 0.05365
 C2426 C 0.64133 0.69641 0.04315
 C2427 C 0.64936 0.68765 0.03096
 C2428 C 0.64601 0.67179 0.02912
 C2429 C 0.63544 0.66447 0.03981
 C2430 C 0.62778 0.67291 0.05242
 C2431 C 0.66123 0.69461 0.02149
 C2432 C 0.66560 0.71006 0.02450
 C2433 C 0.65724 0.71897 0.03632
 C2434 C 0.64491 0.71221 0.04527
 C2435 C 0.66184 0.73429 0.03955
 C2436 C 0.67515 0.74041 0.03190
 C2437 C 0.68397 0.73145 0.02063
 C2438 C 0.67875 0.71644 0.01655
 H2439 H 0.62452 0.69578 0.06308
 H2440 H 0.65208 0.66488 0.01988
 H2441 H 0.63378 0.65204 0.03861
 H2442 H 0.66765 0.68775 0.01244
 H2443 H 0.63867 0.71899 0.05452
 H2444 H 0.65553 0.74131 0.04852
 H2445 H 0.67881 0.75202 0.03524
 H2446 H 0.68542 0.70935 0.00793
 C2447 C 0.11833 0.04775 0.06002
 C2448 C 0.10777 0.03919 0.05056
 C2449 C 0.10604 0.04273 0.03360
 C2450 C 0.11556 0.05404 0.02617
 C2451 C 0.12594 0.06256 0.03567
 C2452 C 0.12704 0.05992 0.05277
 C2453 C 0.09428 0.03555 0.02454
 C2454 C 0.08393 0.02519 0.03233
 C2455 C 0.08617 0.02097 0.04903
 C2456 C 0.09828 0.02778 0.05797
 C2457 C 0.07574 0.01061 0.05673
 C2458 C 0.06260 0.00539 0.04834
 C2459 C 0.05977 0.01025 0.03201
 C2460 C 0.07089 0.01968 0.02391
 H2461 H 0.11900 0.04562 0.07319
 H2462 H 0.11456 0.05673 0.01313
 H2463 H 0.13281 0.07154 0.02968
 H2464 H 0.09264 0.03868 0.01167
 H2465 H 0.09973 0.02486 0.07091
 H2466 H 0.07733 0.00717 0.06951
 H2467 H 0.05432 -0.00192 0.05490
 H2468 H 0.06899 0.02348 0.01129
 C2469 C 0.11280 0.55815 0.54917
 C2470 C 0.09984 0.55290 0.54036
 C2471 C 0.08852 0.56376 0.53478
 C2472 C 0.09038 0.57966 0.53808
 C2473 C 0.10321 0.58477 0.54699
 C2474 C 0.11454 0.57410 0.55272
 C2475 C 0.07542 0.55854 0.52623
 C2476 C 0.07333 0.54256 0.52345
 C2477 C 0.08462 0.53168 0.52907
 C2478 C 0.09790 0.53693 0.53731
 C2479 C 0.08225 0.51567 0.52670
 C2480 C 0.06861 0.51046 0.51927
 C2481 C 0.05727 0.52116 0.51373
 C2482 C 0.05987 0.53724 0.51560
 H2483 H 0.12150 0.54978 0.55326
 H2484 H 0.08177 0.58813 0.53399
 H2485 H 0.10405 0.59708 0.54972
 H2486 H 0.06671 0.56688 0.52202
 H2487 H 0.10654 0.52858 0.54166
 H2488 H 0.09076 0.50717 0.53096
 H2489 H 0.06682 0.49802 0.51802
 H2490 H 0.05106 0.54559 0.51165
 C2491 C 0.61120 0.05337 0.55869
 C2492 C 0.60256 0.04531 0.54693
 C2493 C 0.59246 0.05368 0.53631
 C2494 C 0.59124 0.06991 0.53757
 C2495 C 0.59977 0.07783 0.54939
 C2496 C 0.60994 0.06971 0.55997
 C2497 C 0.58365 0.04571 0.52468
 C2498 C 0.58465 0.02942 0.52367
 C2499 C 0.59490 0.02101 0.53408
 C2500 C 0.60393 0.02904 0.54554
 C2501 C 0.59539 0.00466 0.53335
 C2502 C 0.58495 -0.00330 0.52334
 C2503 C 0.57421 0.00500 0.51355
 C2504 C 0.57475 0.02138 0.51314
 H2505 H 0.61926 0.04695 0.56644
 H2506 H 0.58377 0.07650 0.52933
 H2507 H 0.59856 0.09038 0.55009
 H2508 H 0.57570 0.05214 0.51675
 H2509 H 0.61170 0.02260 0.55366
 H2510 H 0.60319 -0.00198 0.54122
 H2511 H 0.58463 -0.01592 0.52399
 H2512 H 0.56631 0.02795 0.50593
 C2513 C 0.61020 0.55686 0.06300
 C2514 C 0.60034 0.54911 0.05211
 C2515 C 0.58987 0.55784 0.04225
 C2516 C 0.58963 0.57415 0.04328
 C2517 C 0.59940 0.58176 0.05426
 C2518 C 0.60974 0.57324 0.06429
 C2519 C 0.57977 0.55013 0.03160
 C2520 C 0.57987 0.53378 0.03086
 C2521 C 0.59040 0.52503 0.04064
 C2522 C 0.60075 0.53277 0.05101
 C2523 C 0.59003 0.50866 0.04029
 C2524 C 0.57890 0.50103 0.03084
 C2525 C 0.56834 0.50965 0.02119
 C2526 C 0.56916 0.52603 0.02096
 H2527 H 0.61836 0.55008 0.07028
 H2528 H 0.58192 0.58102 0.03557
 H2529 H 0.59884 0.59433 0.05493
 H2530 H 0.57162 0.55683 0.02415
 H2531 H 0.60881 0.52608 0.05855
 H2532 H 0.59795 0.50179 0.04780
 H2533 H 0.57828 0.48842 0.03138
 H2534 H 0.56074 0.53280 0.01394
 C2535 C 0.05793 0.07690 0.10470
 C2536 C 0.05050 0.06663 0.09390
 C2537 C 0.05956 0.05593 0.08463
 C2538 C 0.07580 0.05598 0.08585
 C2539 C 0.08311 0.06604 0.09666
 C2540 C 0.07436 0.07640 0.10669
 C2541 C 0.05229 0.04521 0.07436
 C2542 C 0.03600 0.04486 0.07335
 C2543 C 0.02682 0.05580 0.08218
 C2544 C 0.03413 0.06664 0.09244
 C2545 C 0.01050 0.05572 0.08047
 C2546 C 0.00343 0.04497 0.07000
 C2547 C 0.01253 0.03384 0.06156
 C2548 C 0.02881 0.03386 0.06336
 H2549 H 0.05070 0.08469 0.11198
 H2550 H 0.08290 0.04815 0.07849
 H2551 H 0.09572 0.06568 0.09687
 H2552 H 0.05931 0.03706 0.06725
 H2553 H 0.02711 0.07496 0.09936
 H2554 H 0.00326 0.06414 0.08697
 H2555 H -0.00910 0.04544 0.06835
 H2556 H 0.03596 0.02577 0.05630
 C2557 C 0.05001 0.54478 0.62381
 C2558 C 0.04237 0.54031 0.60933
 C2559 C 0.03442 0.55169 0.59980
 C2560 C 0.03452 0.56733 0.60465
 C2561 C 0.04217 0.57168 0.61900
 C2562 C 0.04983 0.56048 0.62887
 C2563 C 0.02643 0.54728 0.58560
 C2564 C 0.02641 0.53164 0.58066
 C2565 C 0.03463 0.52026 0.58991
 C2566 C 0.04247 0.52465 0.60428
 C2567 C 0.03498 0.50472 0.58451
 C2568 C 0.02738 0.50055 0.56998
 C2569 C 0.01899 0.51177 0.56090
 C2570 C 0.01848 0.52727 0.56641
 H2571 H 0.05575 0.53599 0.63131
 H2572 H 0.02863 0.57622 0.59738
 H2573 H 0.04210 0.58387 0.62236
 H2574 H 0.02026 0.55602 0.57837
 H2575 H 0.04868 0.51591 0.61148
 H2576 H 0.04131 0.49585 0.59137
 H2577 H 0.02805 0.48857 0.56585
 H2578 H 0.01235 0.53609 0.55926
 C2579 C 0.56804 0.04681 0.61846
 C2580 C 0.55894 0.03858 0.60714
 C2581 C 0.54435 0.04475 0.60220
 C2582 C 0.53912 0.05898 0.60855
 C2583 C 0.54816 0.06710 0.61974
 C2584 C 0.56275 0.06118 0.62510
 C2585 C 0.53531 0.03675 0.59077
 C2586 C 0.54073 0.02270 0.58400
 C2587 C 0.55523 0.01636 0.58901
 C2588 C 0.56421 0.02430 0.60063
 C2589 C 0.56063 0.00238 0.58201
 C2590 C 0.55207 -0.00489 0.56967
 C2591 C 0.53786 0.00161 0.56421
 C2592 C 0.53209 0.01522 0.57183
 H2593 H 0.57902 0.04171 0.62225
 H2594 H 0.52805 0.06397 0.60470
 H2595 H 0.54365 0.07824 0.62381
 H2596 H 0.52421 0.04165 0.58686
 H2597 H 0.57540 0.01949 0.60439
 H2598 H 0.57170 -0.00269 0.58572
 H2599 H 0.55688 -0.01530 0.56399
 H2600 H 0.52123 0.02048 0.56774
 C2601 C 0.56316 0.55545 0.11078
 C2602 C 0.55735 0.54401 0.10020
 C2603 C 0.56783 0.53511 0.09043
 C2604 C 0.58392 0.53759 0.09168
 C2605 C 0.58960 0.54914 0.10206
 C2606 C 0.57932 0.55833 0.11161
 C2607 C 0.56205 0.52404 0.07944
 C2608 C 0.54588 0.52197 0.07788
 C2609 C 0.53539 0.53077 0.08775
 C2610 C 0.54121 0.54156 0.09904
 C2611 C 0.51924 0.52906 0.08571
 C2612 C 0.51353 0.51925 0.07349
 C2613 C 0.52386 0.51064 0.06345
 C2614 C 0.54004 0.51174 0.06604
 H2615 H 0.55503 0.56206 0.11834
 H2616 H 0.59214 0.53067 0.08454
 H2617 H 0.60205 0.55094 0.10249
 H2618 H 0.57009 0.51733 0.07181
 H2619 H 0.53315 0.54842 0.10650
 H2620 H 0.51104 0.53578 0.09312
 H2621 H 0.50105 0.51875 0.07153
 H2622 H 0.54814 0.50550 0.05804
 C2623 C 0.18183 0.54138 0.62271
 C2624 C 0.19211 0.53114 0.63089
 C2625 C 0.20797 0.53527 0.63265
 C2626 C 0.21340 0.54923 0.62579
 C2627 C 0.20316 0.55930 0.61769
 C2628 C 0.18721 0.55569 0.61633
 C2629 C 0.21811 0.52559 0.64156
 C2630 C 0.21258 0.51193 0.64905
 C2631 C 0.19687 0.50747 0.64692
 C2632 C 0.18675 0.51704 0.63773
 C2633 C 0.19143 0.49384 0.65463
 C2634 C 0.20114 0.48531 0.66519
 C2635 C 0.21652 0.49020 0.66813
 C2636 C 0.22233 0.50316 0.65939
 H2637 H 0.16959 0.53845 0.62175
 H2638 H 0.22556 0.55248 0.62686
 H2639 H 0.20782 0.56994 0.61244
 H2640 H 0.23018 0.52898 0.64317
 H2641 H 0.17461 0.51379 0.63637
 H2642 H 0.17945 0.49017 0.65310
 H2643 H 0.19629 0.47541 0.67179
 H2644 H 0.23415 0.50708 0.66148
 C2645 C 0.18760 0.06187 0.13466
 C2646 C 0.19718 0.05682 0.14769
 C2647 C 0.20181 0.06760 0.15979
 C2648 C 0.19670 0.08311 0.15878
 C2649 C 0.18692 0.08795 0.14607
 C2650 C 0.18235 0.07749 0.13376
 C2651 C 0.21120 0.06268 0.17291
 C2652 C 0.21560 0.04698 0.17446
 C2653 C 0.21068 0.03604 0.16265
 C2654 C 0.20175 0.04108 0.14914
 C2655 C 0.21441 0.02017 0.16485
 C2656 C 0.22264 0.01518 0.17880
 C2657 C 0.22775 0.02605 0.19038
 C2658 C 0.22438 0.04195 0.18803
 H2659 H 0.18429 0.05365 0.12527
 H2660 H 0.20017 0.09149 0.16789
 H2661 H 0.18290 0.09994 0.14595
 H2662 H 0.21474 0.07100 0.18214
 H2663 H 0.19798 0.03271 0.14006
 H2664 H 0.21060 0.01159 0.15603
 H2665 H 0.22496 0.00284 0.18059
 H2666 H 0.22790 0.05032 0.19723
 C2667 C 0.68228 0.18771 0.60868
 C2668 C 0.69271 0.19391 0.59690
 C2669 C 0.69981 0.18393 0.58513
 C2670 C 0.69644 0.16802 0.58538
 C2671 C 0.68579 0.16201 0.59680
 C2672 C 0.67869 0.17172 0.60867
 C2673 C 0.70998 0.19001 0.57313
 C2674 C 0.71282 0.20606 0.57241
 C2675 C 0.70568 0.21612 0.58407
 C2676 C 0.69587 0.20995 0.59643
 C2677 C 0.70805 0.23226 0.58281
 C2678 C 0.71690 0.23839 0.56975
 C2679 C 0.72392 0.22845 0.55808
 C2680 C 0.72215 0.21226 0.55971
 H2681 H 0.67710 0.19529 0.61791
 H2682 H 0.70213 0.16021 0.57680
 H2683 H 0.68323 0.14967 0.59646
 H2684 H 0.71533 0.18233 0.56408
 H2685 H 0.69033 0.21766 0.60532
 H2686 H 0.70261 0.24017 0.59157
 H2687 H 0.71802 0.25093 0.56855
 H2688 H 0.72719 0.20456 0.55046
 C2689 C 0.68030 0.68056 0.10164
 C2690 C 0.68762 0.69274 0.09299
 C2691 C 0.67846 0.70401 0.08459
 C2692 C 0.66215 0.70300 0.08519
 C2693 C 0.65496 0.69085 0.09384
 C2694 C 0.66390 0.67944 0.10210
 C2695 C 0.68573 0.71602 0.07567
 C2696 C 0.70207 0.71690 0.07498
 C2697 C 0.71124 0.70580 0.08359
 C2698 C 0.70395 0.69381 0.09258
 C2699 C 0.72756 0.70662 0.08268
 C2700 C 0.73475 0.71781 0.07262
 C2701 C 0.72573 0.72850 0.06344
 C2702 C 0.70937 0.72831 0.06519
 H2703 H 0.68742 0.67215 0.10823
 H2704 H 0.65496 0.71163 0.07900
 H2705 H 0.64237 0.69037 0.09402
 H2706 H 0.67869 0.72455 0.06907
 H2707 H 0.71100 0.68517 0.09901
 H2708 H 0.73477 0.69823 0.08924
 H2709 H 0.74735 0.71759 0.07139
 H2710 H 0.70223 0.73626 0.05796
 C2711 C 0.57767 0.68563 0.14248
 C2712 C 0.57081 0.69248 0.15654
 C2713 C 0.56917 0.68358 0.17122
 C2714 C 0.57480 0.66820 0.17171
 C2715 C 0.58127 0.66139 0.15758
 C2716 C 0.58249 0.66992 0.14281
 C2717 C 0.56158 0.69003 0.18502
 C2718 C 0.55537 0.70520 0.18427
 C2719 C 0.55728 0.71428 0.16975
 C2720 C 0.56509 0.70789 0.15601
 C2721 C 0.55112 0.72953 0.16916
 C2722 C 0.54293 0.73564 0.18273
 C2723 C 0.54072 0.72652 0.19695
 C2724 C 0.54706 0.71139 0.19775
 H2725 H 0.57855 0.69223 0.13105
 H2726 H 0.57391 0.66134 0.18294
 H2727 H 0.58525 0.64939 0.15807
 H2728 H 0.56021 0.68312 0.19621
 H2729 H 0.56639 0.71476 0.14479
 H2730 H 0.55255 0.73668 0.15817
 H2731 H 0.53822 0.74739 0.18211
 H2732 H 0.54550 0.70445 0.20890
 C2733 C 0.06010 0.70816 0.62548
 C2734 C 0.05099 0.71474 0.63825
 C2735 C 0.03877 0.70596 0.64551
 C2736 C 0.03594 0.69080 0.64009
 C2737 C 0.04507 0.68434 0.62754
 C2738 C 0.05716 0.69291 0.61999
 C2739 C 0.02966 0.71233 0.65825
 C2740 C 0.03277 0.72729 0.66413
 C2741 C 0.04501 0.73613 0.65705
 C2742 C 0.05395 0.72987 0.64399
 C2743 C 0.04832 0.75090 0.66349
 C2744 C 0.03997 0.75655 0.67719
 C2745 C 0.02790 0.74770 0.68438
 C2746 C 0.02416 0.73323 0.67747
 H2747 H 0.06932 0.71493 0.61974
 H2748 H 0.02671 0.68388 0.64564
 H2749 H 0.04274 0.67247 0.62389
 H2750 H 0.02035 0.70551 0.66382
 H2751 H 0.06336 0.73662 0.63854
 H2752 H 0.05769 0.75786 0.65827
 H2753 H 0.04315 0.76769 0.68237
 H2754 H 0.01510 0.72611 0.68307
 C2755 C 0.55785 0.63198 0.19063
 C2756 C 0.54723 0.64272 0.19750
 C2757 C 0.53810 0.65233 0.18704
 C2758 C 0.53920 0.65046 0.16988
 C2759 C 0.54958 0.63950 0.16316
 C2760 C 0.55927 0.63049 0.17344
 C2761 C 0.52830 0.66384 0.19388
 C2762 C 0.52742 0.66576 0.21106
 C2763 C 0.53598 0.65561 0.22150
 C2764 C 0.54585 0.64419 0.21467
 C2765 C 0.53496 0.65740 0.23864
 C2766 C 0.52639 0.66977 0.24537
 C2767 C 0.51869 0.68063 0.23510
 C2768 C 0.51873 0.67812 0.21794
 H2769 H 0.56509 0.62483 0.19861
 H2770 H 0.53225 0.65766 0.16167
 H2771 H 0.55054 0.63851 0.14988
 H2772 H 0.52167 0.67154 0.18584
 H2773 H 0.55273 0.63671 0.22269
 H2774 H 0.54133 0.64964 0.24682
 H2775 H 0.52659 0.67133 0.25862
 H2776 H 0.51296 0.68640 0.20982
 C2777 C 0.04138 0.62990 0.70186
 C2778 C 0.03715 0.64413 0.70920
 C2779 C 0.04616 0.65003 0.72224
 C2780 C 0.05929 0.64171 0.72760
 C2781 C 0.06362 0.62776 0.72002
 C2782 C 0.05475 0.62157 0.70707
 C2783 C 0.04202 0.66423 0.72960
 C2784 C 0.02916 0.67281 0.72387
 C2785 C 0.02018 0.66703 0.71075
 C2786 C 0.02413 0.65264 0.70359
 C2787 C 0.00751 0.67584 0.70487
 C2788 C 0.00391 0.69035 0.71176
 C2789 C 0.01280 0.69623 0.72479
 C2790 C 0.02532 0.68726 0.73089
 H2791 H 0.03421 0.62544 0.69209
 H2792 H 0.06637 0.64613 0.73752
 H2793 H 0.07411 0.62204 0.72432
 H2794 H 0.04894 0.66870 0.73965
 H2795 H 0.01724 0.64820 0.69352
 H2796 H 0.00050 0.67161 0.69480
 H2797 H -0.00579 0.69702 0.70681
 H2798 H 0.03239 0.69168 0.74082
 C2799 C 0.06757 0.10097 0.07049
 C2800 C 0.06130 0.09042 0.05924
 C2801 C 0.07122 0.07967 0.05102
 C2802 C 0.08727 0.07972 0.05421
 C2803 C 0.09347 0.09047 0.06520
 C2804 C 0.08371 0.10124 0.07336
 C2805 C 0.06496 0.06919 0.03964
 C2806 C 0.04894 0.06959 0.03611
 C2807 C 0.03912 0.08058 0.04416
 C2808 C 0.04532 0.09078 0.05578
 C2809 C 0.02320 0.08115 0.04055
 C2810 C 0.01690 0.07067 0.02942
 C2811 C 0.02635 0.05928 0.02170
 C2812 C 0.04249 0.05901 0.02492
 H2813 H 0.05997 0.10944 0.07646
 H2814 H 0.09503 0.07166 0.04798
 H2815 H 0.10592 0.09050 0.06728
 H2816 H 0.07256 0.06085 0.03346
 H2817 H 0.03771 0.09908 0.06203
 H2818 H 0.01553 0.08950 0.04660
 H2819 H 0.00442 0.07109 0.02739
 H2820 H 0.04991 0.05014 0.01935
 C2821 C 0.05117 0.61938 0.55310
 C2822 C 0.04424 0.60741 0.54412
 C2823 C 0.04987 0.60386 0.52811
 C2824 C 0.06224 0.61246 0.52131
 C2825 C 0.06907 0.62438 0.53034
 C2826 C 0.06363 0.62797 0.54632
 C2827 C 0.04313 0.59172 0.51921
 C2828 C 0.03082 0.58309 0.52614
 C2829 C 0.02503 0.58681 0.54205
 C2830 C 0.03180 0.59893 0.55095
 C2831 C 0.01268 0.57823 0.54888
 C2832 C 0.00635 0.56581 0.54021
 C2833 C 0.01229 0.56169 0.52456
 C2834 C 0.02439 0.57061 0.51750
 H2835 H 0.04700 0.62182 0.56548
 H2836 H 0.06668 0.60992 0.50904
 H2837 H 0.07849 0.63093 0.52471
 H2838 H 0.04756 0.58889 0.50699
 H2839 H 0.02745 0.60168 0.56322
 H2840 H 0.00808 0.58096 0.56104
 H2841 H -0.00294 0.55918 0.54599
 H2842 H 0.02913 0.56761 0.50546
 C2843 C 0.56575 0.10330 0.55390
 C2844 C 0.55855 0.08950 0.54864
 C2845 C 0.55721 0.07671 0.55970
 C2846 C 0.56317 0.07784 0.57568
 C2847 C 0.56994 0.09168 0.58090
 C2848 C 0.57123 0.10450 0.57013
 C2849 C 0.54991 0.06298 0.55466
 C2850 C 0.54396 0.06179 0.53867
 C2851 C 0.54564 0.07436 0.52741
 C2852 C 0.55279 0.08821 0.53252
 C2853 C 0.54028 0.07276 0.51118
 C2854 C 0.53333 0.05885 0.50617
 C2855 C 0.53119 0.04653 0.51745
 C2856 C 0.53653 0.04810 0.53369
 H2857 H 0.56672 0.11323 0.54561
 H2858 H 0.56249 0.06808 0.58418
 H2859 H 0.57420 0.09244 0.59340
 H2860 H 0.54888 0.05322 0.56317
 H2861 H 0.55399 0.09790 0.52394
 H2862 H 0.54163 0.08219 0.50232
 H2863 H 0.52954 0.05772 0.49352
 H2864 H 0.53535 0.03842 0.54230
 C2865 C 0.56205 0.60241 0.05660
 C2866 C 0.55244 0.59056 0.05066
 C2867 C 0.54584 0.57965 0.06181
 C2868 C 0.54879 0.58096 0.07872
 C2869 C 0.55857 0.59263 0.08450
 C2870 C 0.56541 0.60343 0.07354
 C2871 C 0.53658 0.56753 0.05588
 C2872 C 0.53415 0.56597 0.03886
 C2873 C 0.54075 0.57688 0.02769
 C2874 C 0.54963 0.58925 0.03369
 C2875 C 0.53885 0.57489 0.01065
 C2876 C 0.53101 0.56188 0.00470
 C2877 C 0.52448 0.55097 0.01570
 C2878 C 0.52577 0.55328 0.03279
 H2879 H 0.56689 0.61081 0.04797
 H2880 H 0.54360 0.57289 0.08746
 H2881 H 0.56090 0.59311 0.09755
 H2882 H 0.53162 0.55909 0.06444
 H2883 H 0.55479 0.59756 0.02511
 H2884 H 0.54394 0.58308 0.00193
 H2885 H 0.53034 0.56013 -0.00850
 H2886 H 0.52119 0.54461 0.04134
 C2887 C 0.69003 0.13711 0.55728
 C2888 C 0.69658 0.14817 0.54630
 C2889 C 0.68668 0.15759 0.53648
 C2890 C 0.67055 0.15576 0.53758
 C2891 C 0.66413 0.14498 0.54852
 C2892 C 0.67366 0.13526 0.55845
 C2893 C 0.69298 0.16891 0.52586
 C2894 C 0.70913 0.17120 0.52510
 C2895 C 0.71915 0.16174 0.53476
 C2896 C 0.71283 0.15014 0.54515
 C2897 C 0.73528 0.16446 0.53430
 C2898 C 0.74130 0.17685 0.52495
 C2899 C 0.73135 0.18649 0.51557
 C2900 C 0.71531 0.18328 0.51536
 H2901 H 0.69774 0.12980 0.56454
 H2902 H 0.66283 0.16272 0.52996
 H2903 H 0.65153 0.14458 0.54928
 H2904 H 0.68529 0.17619 0.51848
 H2905 H 0.72051 0.14299 0.55268
 H2906 H 0.74317 0.15738 0.54164
 H2907 H 0.75370 0.17920 0.52543
 H2908 H 0.70747 0.19086 0.50849
 C2909 C 0.68927 0.64254 0.07130
 C2910 C 0.69589 0.65524 0.06268
 C2911 C 0.68631 0.66810 0.05827
 C2912 C 0.67050 0.66820 0.06276
 C2913 C 0.66394 0.65539 0.07079
 C2914 C 0.67317 0.64242 0.07500
 C2915 C 0.69254 0.68053 0.04912
 C2916 C 0.70815 0.68012 0.04383
 C2917 C 0.71793 0.66752 0.04851
 C2918 C 0.71176 0.65517 0.05801
 C2919 C 0.73370 0.66749 0.04349
 C2920 C 0.73961 0.67974 0.03378
 C2921 C 0.72976 0.69195 0.02861
 C2922 C 0.71408 0.69213 0.03384
 H2923 H 0.69642 0.63247 0.07443
 H2924 H 0.66319 0.67816 0.05995
 H2925 H 0.65160 0.65561 0.07385
 H2926 H 0.68515 0.69038 0.04584
 H2927 H 0.71919 0.64540 0.06145
 H2928 H 0.74144 0.65804 0.04711
 H2929 H 0.75184 0.67962 0.03019
 H2930 H 0.70659 0.70187 0.03044
 C2931 C 0.19068 0.59616 0.68019
 C2932 C 0.19565 0.58163 0.68649
 C2933 C 0.18452 0.57100 0.69285
 C2934 C 0.16861 0.57488 0.69237
 C2935 C 0.16379 0.58938 0.68625
 C2936 C 0.17474 0.60028 0.68037
 C2937 C 0.18944 0.55676 0.69980
 C2938 C 0.20538 0.55296 0.70048
 C2939 C 0.21651 0.56339 0.69373
 C2940 C 0.21159 0.57767 0.68684
 C2941 C 0.23241 0.55935 0.69397
 C2942 C 0.23724 0.54510 0.70077
 C2943 C 0.22632 0.53480 0.70778
 C2944 C 0.21038 0.53883 0.70767
 H2945 H 0.19923 0.60449 0.67575
 H2946 H 0.15991 0.56680 0.69693
 H2947 H 0.15143 0.59212 0.68622
 H2948 H 0.18088 0.54871 0.70478
 H2949 H 0.22015 0.58573 0.68185
 H2950 H 0.24109 0.56714 0.68877
 H2951 H 0.24956 0.54213 0.70062
 H2952 H 0.20186 0.53077 0.71272
 C2953 C 0.18455 0.11560 0.18693
 C2954 C 0.19248 0.10628 0.19850
 C2955 C 0.18392 0.09829 0.21088
 C2956 C 0.16768 0.10017 0.21180
 C2957 C 0.15985 0.10921 0.20007
 C2958 C 0.16812 0.11689 0.18736
 C2959 C 0.19168 0.08831 0.22191
 C2960 C 0.20786 0.08592 0.22047
 C2961 C 0.21650 0.09413 0.20831
 C2962 C 0.20879 0.10448 0.19759
 C2963 C 0.23261 0.09132 0.20663
 C2964 C 0.23995 0.07997 0.21639
 C2965 C 0.23139 0.07153 0.22828
 C2966 C 0.21540 0.07490 0.23053
 H2967 H 0.19123 0.12174 0.17757
 H2968 H 0.16098 0.09442 0.22144
 H2969 H 0.14726 0.10994 0.20084
 H2970 H 0.18506 0.08203 0.23127
 H2971 H 0.21538 0.11063 0.18811
 H2972 H 0.23940 0.09748 0.19734
 H2973 H 0.25224 0.07750 0.21434
 H2974 H 0.20856 0.06825 0.23941
 C2975 C 0.68280 1.10608 0.69321
 C2976 C 0.69349 1.09446 0.69824
 C2977 C 0.69694 1.08186 0.68756
 C2978 C 0.68936 1.08078 0.67244
 C2979 C 0.67887 1.09232 0.66752
 C2980 C 0.67577 1.10521 0.67764
 C2981 C 0.70797 1.07055 0.69206
 C2982 C 0.71544 1.07143 0.70729
 C2983 C 0.71168 1.08364 0.71833
 C2984 C 0.70085 1.09523 0.71364
 C2985 C 0.71864 1.08382 0.73397
 C2986 C 0.72894 1.07183 0.73868
 C2987 C 0.73290 1.05997 0.72753
 C2988 C 0.72626 1.05993 0.71182
 H2989 H 0.68050 1.11609 0.70098
 H2990 H 0.69180 1.07119 0.66426
 H2991 H 0.67350 1.09147 0.65552
 H2992 H 0.71067 1.06099 0.68377
 H2993 H 0.69807 1.10472 0.72198
 H2994 H 0.71577 1.09295 0.74270
 H2995 H 0.73368 1.07170 0.75102
 H2996 H 0.72888 1.05039 0.70346
 C2997 C 0.68500 0.61550 0.18501
 C2998 C 0.69737 0.60790 0.19305
 C2999 C 0.70835 0.59909 0.18378
 C3000 C 0.70703 0.59847 0.16659
 C3001 C 0.69469 0.60608 0.15868
 C3002 C 0.68340 0.61449 0.16779
 C3003 C 0.72031 0.59089 0.19187
 C3004 C 0.72144 0.59139 0.20912
 C3005 C 0.71076 0.60064 0.21832
 C3006 C 0.69882 0.60884 0.21023
 C3007 C 0.71189 0.60112 0.23554
 C3008 C 0.72285 0.59179 0.24368
 C3009 C 0.73299 0.58190 0.23476
 C3010 C 0.73260 0.58223 0.21739
 H3011 H 0.67670 0.62226 0.19221
 H3012 H 0.71544 0.59194 0.15926
 H3013 H 0.69384 0.60513 0.14544
 H3014 H 0.72853 0.58388 0.18478
 H3015 H 0.69046 0.61568 0.21734
 H3016 H 0.70387 0.60823 0.24277
 H3017 H 0.72285 0.59173 0.25705
 H3018 H 0.74016 0.57450 0.21033
 C3019 C 0.54778 0.12580 0.69870
 C3020 C 0.53946 0.13493 0.71018
 C3021 C 0.54696 0.14014 0.72454
 C3022 C 0.56258 0.13620 0.72720
 C3023 C 0.57083 0.12726 0.71573
 C3024 C 0.56366 0.12177 0.70123
 C3025 C 0.53890 0.14960 0.73581
 C3026 C 0.52362 0.15453 0.73254
 C3027 C 0.51596 0.14926 0.71828
 C3028 C 0.52384 0.13923 0.70733
 C3029 C 0.50088 0.15480 0.71480
 C3030 C 0.49404 0.16644 0.72458
 C3031 C 0.50201 0.17238 0.73824
 C3032 C 0.51638 0.16561 0.74269
 H3033 H 0.54174 0.12214 0.68779
 H3034 H 0.56852 0.14018 0.73813
 H3035 H 0.58286 0.12473 0.71858
 H3036 H 0.54474 0.15367 0.74676
 H3037 H 0.51804 0.13532 0.69627
 H3038 H 0.49478 0.15084 0.70397
 H3039 H 0.48295 0.17143 0.72087
 H3040 H 0.52273 0.17009 0.75312
 C3041 C 1.07174 0.14501 0.19613
 C3042 C 1.06177 0.15439 0.20581
 C3043 C 1.04541 0.15339 0.20392
 C3044 C 1.03928 0.14252 0.19297
 C3045 C 1.04926 0.13319 0.18345
 C3046 C 1.06558 0.13452 0.18468
 C3047 C 1.03544 0.16345 0.21277
 C3048 C 1.04161 0.17433 0.22372
 C3049 C 1.05793 0.17471 0.22628
 C3050 C 1.06791 0.16487 0.21720
 C3051 C 1.06404 0.18523 0.23759
 C3052 C 1.05422 0.19585 0.24564
 C3053 C 1.03809 0.19634 0.24238
 C3054 C 1.03180 0.18519 0.23173
 H3055 H 1.08428 0.14617 0.19722
 H3056 H 1.02677 0.14144 0.19153
 H3057 H 1.04415 0.12495 0.17507
 H3058 H 1.02292 0.16298 0.21093
 H3059 H 1.08045 0.16552 0.21884
 H3060 H 1.07649 0.18560 0.23982
 H3061 H 1.05949 0.20433 0.25366
 H3062 H 1.01941 0.18542 0.22908
 C3063 C 0.18506 0.64186 0.55753
 C3064 C 0.19641 0.65280 0.55284
 C3065 C 0.20381 0.66175 0.56505
 C3066 C 0.19970 0.65966 0.58168
 C3067 C 0.18853 0.64868 0.58625
 C3068 C 0.18127 0.63956 0.57427
 C3069 C 0.21535 0.67249 0.56050
 C3070 C 0.21948 0.67454 0.54386
 C3071 C 0.21197 0.66572 0.53159
 C3072 C 0.20059 0.65481 0.53618
 C3073 C 0.21572 0.66828 0.51491
 C3074 C 0.22643 0.67979 0.51039
 C3075 C 0.23394 0.68853 0.52250
 C3076 C 0.23064 0.68565 0.53924
 H3077 H 0.17970 0.63463 0.54828
 H3078 H 0.20548 0.66616 0.59117
 H3079 H 0.18584 0.64693 0.59922
 H3080 H 0.22103 0.67932 0.56989
 H3081 H 0.19484 0.64803 0.52679
 H3082 H 0.21000 0.66173 0.50534
 H3083 H 0.22867 0.68208 0.49741
 H3084 H 0.23606 0.69272 0.54860
 C3085 C 0.17562 0.14639 1.05288
 C3086 C 0.18261 0.16038 1.04771
 C3087 C 0.17928 0.17433 1.05634
 C3088 C 0.16891 0.17405 1.06982
 C3089 C 0.16254 0.15998 1.07530
 C3090 C 0.16587 0.14611 1.06690
 C3091 C 0.18659 0.18825 1.05158
 C3092 C 0.19749 0.18833 1.03856
 C3093 C 0.20070 0.17443 1.02977
 C3094 C 0.19316 0.16056 1.03435
 C3095 C 0.21142 0.17466 1.01654
 C3096 C 0.21890 0.18852 1.01207
 C3097 C 0.21598 0.20221 1.02096
 C3098 C 0.20523 0.20211 1.03413
 H3099 H 0.17832 0.13557 1.04657
 H3100 H 0.16591 0.18469 1.07624
 H3101 H 0.15501 0.15984 1.08612
 H3102 H 0.18394 0.19896 1.05815
 H3103 H 0.19568 0.14988 1.02768
 H3104 H 0.21392 0.16416 1.00960
 H3105 H 0.22695 0.18859 1.00166
 H3106 H 0.20263 0.21286 1.04062
 C3107 C 0.19951 0.68172 0.62246
 C3108 C 0.20680 0.69142 0.61066
 C3109 C 0.19754 0.70070 0.59997
 C3110 C 0.18123 0.70012 0.60124
 C3111 C 0.17411 0.69060 0.61311
 C3112 C 0.18314 0.68136 0.62384
 C3113 C 0.20472 0.71037 0.58816
 C3114 C 0.22105 0.71076 0.58671
 C3115 C 0.23033 0.70128 0.59716
 C3116 C 0.22315 0.69179 0.60918
 C3117 C 0.24664 0.70123 0.59515
 C3118 C 0.25366 0.71024 0.58271
 C3119 C 0.24454 0.71980 0.57241
 C3120 C 0.22823 0.72014 0.57463
 H3121 H 0.20653 0.67467 0.63076
 H3122 H 0.17397 0.70709 0.59311
 H3123 H 0.16148 0.69037 0.61390
 H3124 H 0.19761 0.71749 0.58000
 H3125 H 0.23026 0.68453 0.61720
 H3126 H 0.25393 0.69395 0.60295
 H3127 H 0.26622 0.70964 0.58102
 H3128 H 0.22108 0.72714 0.56641
 C3129 C 0.17311 0.19223 1.10829
 C3130 C 0.18381 0.20129 1.09927
 C3131 C 0.19789 0.19447 1.09352
 C3132 C 0.20104 0.17872 1.09693
 C3133 C 0.19034 0.16974 1.10591
 C3134 C 0.17613 0.17627 1.11171
 C3135 C 0.20843 0.20340 1.08418
 C3136 C 0.20493 0.21902 1.08028
 C3137 C 0.19089 0.22589 1.08610
 C3138 C 0.18047 0.21701 1.09568
 C3139 C 0.18729 0.24138 1.08181
 C3140 C 0.19714 0.24975 1.07118
 C3141 C 0.21087 0.24285 1.06483
 C3142 C 0.21494 0.22762 1.06997
 H3143 H 0.16260 0.19788 1.11278
 H3144 H 0.21172 0.17327 1.09245
 H3145 H 0.19310 0.15754 1.10782
 H3146 H 0.21915 0.19809 1.07956
 H3147 H 0.16960 0.22224 1.09999
 H3148 H 0.17656 0.24683 1.08616
 H3149 H 0.19366 0.26140 1.06738
 H3150 H 0.22538 0.22201 1.06509
 C3151 C 0.69169 0.56534 0.13780
 C3152 C 0.69909 0.55638 0.15007
 C3153 C 0.69025 0.54585 0.15982
 C3154 C 0.67430 0.54409 0.15680
 C3155 C 0.66700 0.55314 0.14471
 C3156 C 0.67552 0.56407 0.13527
 C3157 C 0.69732 0.53779 0.17290
 C3158 C 0.71301 0.54043 0.17665
 C3159 C 0.72197 0.55061 0.16662
 C3160 C 0.71503 0.55830 0.15321
 C3161 C 0.73757 0.55345 0.17060
 C3162 C 0.74398 0.54698 0.18490
 C3163 C 0.73498 0.53734 0.19535
 C3164 C 0.71964 0.53369 0.19079
 H3165 H 0.69848 0.57348 0.13047
 H3166 H 0.66734 0.53611 0.16419
 H3167 H 0.65453 0.55199 0.14323
 H3168 H 0.69042 0.53001 0.18062
 H3169 H 0.72185 0.56628 0.14566
 H3170 H 0.74463 0.56117 0.16302
 H3171 H 0.75583 0.54997 0.18806
 H3172 H 0.71251 0.52638 0.19877
 C3173 C 0.69507 1.06248 0.62811
 C3174 C 0.70267 1.05233 0.63926
 C3175 C 0.69369 1.04274 0.64996
 C3176 C 0.67738 1.04365 0.64960
 C3177 C 0.66997 1.05389 0.63874
 C3178 C 0.67864 1.06324 0.62767
 C3179 C 0.70109 1.03277 0.66125
 C3180 C 0.71740 1.03247 0.66233
 C3181 C 0.72647 1.04213 0.65185
 C3182 C 0.71906 1.05184 0.64019
 C3183 C 0.74277 1.04227 0.65360
 C3184 C 0.74993 1.03335 0.66599
 C3185 C 0.74097 1.02374 0.67644
 C3186 C 0.72472 1.02313 0.67429
 H3187 H 0.70191 1.06961 0.61970
 H3188 H 0.67034 1.03656 0.65786
 H3189 H 0.65734 1.05450 0.63906
 H3190 H 0.69413 1.02554 0.66951
 H3191 H 0.72600 1.05929 0.63216
 H3192 H 0.74993 1.04967 0.64575
 H3193 H 0.76243 1.03417 0.66763
 H3194 H 0.71765 1.01614 0.68266
 C3195 C 0.55434 0.17536 0.64232
 C3196 C 0.54798 0.18440 0.65520
 C3197 C 0.55799 0.19061 0.66726
 C3198 C 0.57406 0.18754 0.66636
 C3199 C 0.58030 0.17884 0.65336
 C3200 C 0.57055 0.17284 0.64115
 C3201 C 0.55184 0.20000 0.67986
 C3202 C 0.53580 0.20334 0.68060
 C3203 C 0.52572 0.19704 0.66870
 C3204 C 0.53188 0.18762 0.65604
 C3205 C 0.50961 0.20012 0.66983
 C3206 C 0.50352 0.20902 0.68286
 C3207 C 0.51348 0.21531 0.69472
 C3208 C 0.52966 0.21260 0.69333
 H3209 H 0.54682 0.17090 0.63279
 H3210 H 0.58186 0.19216 0.67549
 H3211 H 0.59281 0.17694 0.65268
 H3212 H 0.55955 0.20476 0.68907
 H3213 H 0.52417 0.18285 0.64685
 H3214 H 0.50168 0.19535 0.66087
 H3215 H 0.49100 0.21075 0.68385
 H3216 H 0.53743 0.21701 0.70267
 C3217 C 1.06288 0.18868 0.13618
 C3218 C 1.05309 0.19561 0.14820
 C3219 C 1.04499 0.18610 0.15965
 C3220 C 1.04616 0.16990 0.15841
 C3221 C 1.05582 0.16305 0.14648
 C3222 C 1.06466 0.17226 0.13532
 C3223 C 1.03604 0.19292 0.17234
 C3224 C 1.03525 0.20920 0.17389
 C3225 C 1.04298 0.21877 0.16217
 C3226 C 1.05159 0.21192 0.14921
 C3227 C 1.04245 0.23502 0.16396
 C3228 C 1.03486 0.24172 0.17757
 C3229 C 1.02737 0.23232 0.18949
 C3230 C 1.02732 0.21603 0.18732
 H3231 H 1.06900 0.19619 0.12755
 H3232 H 1.03971 0.16247 0.16683
 H3233 H 1.05670 0.15049 0.14660
 H3234 H 1.03007 0.18554 0.18129
 H3235 H 1.05767 0.21928 0.14035
 H3236 H 1.04834 0.24254 0.15513
 H3237 H 1.03516 0.25427 0.17897
 H3238 H 1.02184 0.20859 0.19654
 C3239 C 0.60861 0.17649 0.70009
 C3240 C 0.59792 0.18582 0.70894
 C3241 C 0.59652 0.20189 0.70511
 C3242 C 0.60618 0.20844 0.69290
 C3243 C 0.61686 0.19911 0.68426
 C3244 C 0.61808 0.18299 0.68753
 C3245 C 0.58526 0.21107 0.71325
 C3246 C 0.57540 0.20441 0.72525
 C3247 C 0.57723 0.18850 0.72958
 C3248 C 0.58844 0.17928 0.72137
 C3249 C 0.56757 0.18199 0.74182
 C3250 C 0.55565 0.19091 0.74908
 C3251 C 0.55315 0.20653 0.74423
 C3252 C 0.56341 0.21331 0.73260
 H3253 H 0.60920 0.16410 0.70274
 H3254 H 0.60535 0.22076 0.68991
 H3255 H 0.62417 0.20462 0.67499
 H3256 H 0.58394 0.22331 0.71000
 H3257 H 0.58958 0.16699 0.72444
 H3258 H 0.56897 0.16988 0.74547
 H3259 H 0.54798 0.18534 0.75800
 H3260 H 0.56171 0.22534 0.72876
 C3261 C 1.10498 0.18739 0.18770
 C3262 C 1.09716 0.20032 0.19462
 C3263 C 1.08826 0.21033 0.18436
 C3264 C 1.08753 0.20744 0.16743
 C3265 C 1.09533 0.19464 0.16066
 C3266 C 1.10423 0.18455 0.17062
 C3267 C 1.08023 0.22310 0.19114
 C3268 C 1.08099 0.22606 0.20809
 C3269 C 1.09027 0.21640 0.21833
 C3270 C 1.09832 0.20358 0.21152
 C3271 C 1.09082 0.21938 0.23530
 C3272 C 1.08127 0.23097 0.24225
 C3273 C 1.07120 0.23994 0.23229
 C3274 C 1.07183 0.23798 0.21508
 H3275 H 1.11212 0.17996 0.19548
 H3276 H 1.08121 0.21529 0.15936
 H3277 H 1.09468 0.19278 0.14750
 H3278 H 1.07315 0.23055 0.18328
 H3279 H 1.10524 0.19601 0.21942
 H3280 H 1.09795 0.21217 0.24334
 H3281 H 1.08093 0.23215 0.25555
 H3282 H 1.06399 0.24462 0.20722
 C3283 C 0.14369 0.69878 0.56638
 C3284 C 0.15775 0.70403 0.55923
 C3285 C 0.16744 0.69342 0.55051
 C3286 C 0.16327 0.67772 0.54958
 C3287 C 0.14940 0.67258 0.55680
 C3288 C 0.13919 0.68310 0.56477
 C3289 C 0.18094 0.69870 0.54244
 C3290 C 0.18490 0.71449 0.54290
 C3291 C 0.17552 0.72510 0.55200
 C3292 C 0.16198 0.71981 0.56011
 C3293 C 0.17988 0.74084 0.55276
 C3294 C 0.19337 0.74598 0.54456
 C3295 C 0.20248 0.73555 0.53518
 C3296 C 0.19816 0.71982 0.53441
 H3297 H 0.13594 0.70706 0.57241
 H3298 H 0.17046 0.66950 0.54280
 H3299 H 0.14646 0.66038 0.55571
 H3300 H 0.18822 0.69056 0.53556
 H3301 H 0.15465 0.72797 0.56690
 H3302 H 0.17293 0.74912 0.55979
 H3303 H 0.19670 0.75810 0.54554
 H3304 H 0.20541 0.71159 0.52761
 C3305 C 0.13446 0.19490 1.06464
 C3306 C 0.14311 0.20371 1.05310
 C3307 C 0.14843 0.19671 1.03830
 C3308 C 0.14451 0.18127 1.03498
 C3309 C 0.13571 0.17267 1.04633
 C3310 C 0.13081 0.17919 1.06150
 C3311 C 0.15780 0.20515 1.02717
 C3312 C 0.16181 0.22061 1.03054
 C3313 C 0.15595 0.22785 1.04499
 C3314 C 0.14673 0.21934 1.05623
 C3315 C 0.15974 0.24339 1.04816
 C3316 C 0.16995 0.25140 1.03766
 C3317 C 0.17670 0.24400 1.02380
 C3318 C 0.17210 0.22873 1.02003
 H3319 H 0.13095 0.20021 1.07618
 H3320 H 0.14836 0.17576 1.02363
 H3321 H 0.13289 0.16085 1.04307
 H3322 H 0.16221 0.19959 1.01605
 H3323 H 0.14257 0.22480 1.06750
 H3324 H 0.15526 0.24918 1.05910
 H3325 H 0.17327 0.26312 1.04098
 H3326 H 0.17721 0.22279 1.00948
 C3327 C 0.64364 0.58125 0.19563
 C3328 C 0.65692 0.57518 0.20364
 C3329 C 0.67105 0.57333 0.19464
 C3330 C 0.67178 0.57792 0.17805
 C3331 C 0.65849 0.58354 0.17011
 C3332 C 0.64430 0.58500 0.17871
 C3333 C 0.68410 0.56647 0.20217
 C3334 C 0.68313 0.56106 0.21851
 C3335 C 0.66920 0.56330 0.22775
 C3336 C 0.65619 0.57042 0.22028
 C3337 C 0.66852 0.55816 0.24426
 C3338 C 0.68140 0.55063 0.25142
 C3339 C 0.69497 0.54784 0.24204
 C3340 C 0.69585 0.55326 0.22568
 H3341 H 0.63262 0.58229 0.20226
 H3342 H 0.68254 0.57676 0.17110
 H3343 H 0.65916 0.58660 0.15714
 H3344 H 0.69488 0.56500 0.19520
 H3345 H 0.64541 0.57191 0.22726
 H3346 H 0.65801 0.55991 0.25161
 H3347 H 0.68070 0.54676 0.26416
 H3348 H 0.70655 0.55155 0.21861
 C3349 C 0.64367 1.05285 0.68356
 C3350 C 0.65611 1.04645 0.69267
 C3351 C 0.66482 1.05617 0.70313
 C3352 C 0.66121 1.07206 0.70409
 C3353 C 0.64905 1.07834 0.69488
 C3354 C 0.63982 1.06880 0.68489
 C3355 C 0.67692 1.04990 0.71261
 C3356 C 0.68054 1.03398 0.71178
 C3357 C 0.67201 1.02418 0.70127
 C3358 C 0.65976 1.03046 0.69183
 C3359 C 0.67608 1.00832 0.70020
 C3360 C 0.68878 1.00238 0.70907
 C3361 C 0.69732 1.01211 0.71948
 C3362 C 0.69292 1.02785 0.72099
 H3363 H 0.63663 1.04530 0.67604
 H3364 H 0.66766 1.07961 0.71217
 H3365 H 0.64666 1.09072 0.69588
 H3366 H 0.68357 1.05743 0.72059
 H3367 H 0.65316 1.02295 0.68380
 H3368 H 0.66974 1.00062 0.69215
 H3369 H 0.69217 0.99027 0.70749
 H3370 H 0.69974 1.03558 0.72857
 C3371 C 0.86793 0.45450 0.30837
 C3372 C 0.85774 0.46363 0.29879
 C3373 C 0.85034 0.45696 0.28506
 C3374 C 0.85351 0.44142 0.28094
 C3375 C 0.86340 0.43232 0.29070
 C3376 C 0.87056 0.43858 0.30477
 C3377 C 0.83943 0.46571 0.27607
 C3378 C 0.83542 0.48089 0.28097
 C3379 C 0.84301 0.48772 0.29449
 C3380 C 0.85432 0.47912 0.30317
 C3381 C 0.83864 0.50276 0.29956
 C3382 C 0.82621 0.51057 0.29196
 C3383 C 0.81810 0.50356 0.27898
 C3384 C 0.82327 0.48896 0.27313
 H3385 H 0.87335 0.45982 0.31888
 H3386 H 0.84793 0.43614 0.27043
 H3387 H 0.86498 0.42026 0.28732
 H3388 H 0.83354 0.46045 0.26572
 H3389 H 0.85996 0.48426 0.31374
 H3390 H 0.84436 0.50821 0.30988
 H3391 H 0.82250 0.52178 0.29677
 H3392 H 0.81715 0.48333 0.26318
 C3393 C 0.85916 0.93384 0.81085
 C3394 C 0.85039 0.94563 0.80308
 C3395 C 0.84159 0.95627 0.81274
 C3396 C 0.84191 0.95510 0.82994
 C3397 C 0.85065 0.94335 0.83757
 C3398 C 0.85946 0.93261 0.82820
 C3399 C 0.83264 0.96793 0.80506
 C3400 C 0.83250 0.96920 0.78781
 C3401 C 0.84164 0.95885 0.77813
 C3402 C 0.85050 0.94710 0.78583
 C3403 C 0.84144 0.96019 0.76089
 C3404 C 0.83154 0.97103 0.75328
 C3405 C 0.82177 0.98081 0.76278
 C3406 C 0.82282 0.98024 0.78009
 H3407 H 0.86616 0.92606 0.80330
 H3408 H 0.83543 0.96331 0.83753
 H3409 H 0.85058 0.94280 0.85089
 H3410 H 0.82565 0.97588 0.81249
 H3411 H 0.85735 0.93903 0.77839
 H3412 H 0.84843 0.95241 0.75328
 H3413 H 0.83091 0.97114 0.73993
 H3414 H 0.81523 0.98753 0.78762
 C3415 C 0.39191 0.31367 0.82253
 C3416 C 0.40331 0.30599 0.81297
 C3417 C 0.41601 0.31449 0.80633
 C3418 C 0.41699 0.33055 0.80930
 C3419 C 0.40531 0.33821 0.81840
 C3420 C 0.39272 0.32982 0.82507
 C3421 C 0.42737 0.30685 0.79664
 C3422 C 0.42598 0.29089 0.79320
 C3423 C 0.41321 0.28245 0.79981
 C3424 C 0.40203 0.29002 0.80973
 C3425 C 0.41187 0.26649 0.79651
 C3426 C 0.42325 0.25885 0.78707
 C3427 C 0.43608 0.26703 0.78055
 C3428 C 0.43726 0.28314 0.78347
 H3429 H 0.38211 0.30722 0.82760
 H3430 H 0.42670 0.33718 0.80449
 H3431 H 0.40616 0.35065 0.82043
 H3432 H 0.43720 0.31332 0.79169
 H3433 H 0.39227 0.28351 0.81482
 H3434 H 0.40217 0.25986 0.80150
 H3435 H 0.42221 0.24640 0.78515
 H3436 H 0.44731 0.28948 0.77883
 C3437 C 0.89514 0.31714 0.31308
 C3438 C 0.90604 0.30961 0.30274
 C3439 C 0.91181 0.31733 0.28853
 C3440 C 0.90634 0.33240 0.28480
 C3441 C 0.89533 0.33979 0.29507
 C3442 C 0.88950 0.33230 0.30940
 C3443 C 0.92311 0.30996 0.27847
 C3444 C 0.92867 0.29492 0.28249
 C3445 C 0.92252 0.28708 0.29648
 C3446 C 0.91127 0.29446 0.30649
 C3447 C 0.92794 0.27207 0.30046
 C3448 C 0.93993 0.26515 0.29120
 C3449 C 0.94666 0.27301 0.27763
 C3450 C 0.94063 0.28778 0.27308
 H3451 H 0.89118 0.31098 0.32398
 H3452 H 0.91067 0.33855 0.27398
 H3453 H 0.89151 0.35139 0.29167
 H3454 H 0.92778 0.31602 0.26775
 H3455 H 0.90669 0.28845 0.31730
 H3456 H 0.92324 0.26585 0.31106
 H3457 H 0.94430 0.25380 0.29503
 H3458 H 0.94578 0.29410 0.26278
 C3459 C 0.36742 0.80612 0.43946
 C3460 C 0.35922 0.79804 0.45193
 C3461 C 0.35258 0.80641 0.46529
 C3462 C 0.35418 0.82264 0.46596
 C3463 C 0.36224 0.83057 0.45348
 C3464 C 0.36898 0.82246 0.44012
 C3465 C 0.34413 0.79849 0.47759
 C3466 C 0.34168 0.78240 0.47641
 C3467 C 0.34829 0.77396 0.46310
 C3468 C 0.35729 0.78179 0.45110
 C3469 C 0.34509 0.75799 0.46160
 C3470 C 0.33451 0.75078 0.47245
 C3471 C 0.32743 0.75927 0.48533
 C3472 C 0.33178 0.77485 0.48772
 H3473 H 0.37270 0.79968 0.42937
 H3474 H 0.34905 0.82922 0.47605
 H3475 H 0.36305 0.84314 0.45420
 H3476 H 0.33894 0.80497 0.48774
 H3477 H 0.36227 0.77536 0.44080
 H3478 H 0.35004 0.75132 0.45148
 H3479 H 0.33124 0.73879 0.47026
 H3480 H 0.32621 0.78159 0.49741
 C3481 C 0.35406 0.31765 0.94517
 C3482 C 0.34311 0.30745 0.95236
 C3483 C 0.33624 0.29575 0.94266
 C3484 C 0.34060 0.29424 0.92609
 C3485 C 0.35140 0.30441 0.91902
 C3486 C 0.35821 0.31636 0.92835
 C3487 C 0.32480 0.28602 0.94952
 C3488 C 0.32002 0.28787 0.96597
 C3489 C 0.32714 0.29929 0.97584
 C3490 C 0.33870 0.30896 0.96901
 C3491 C 0.32220 0.30117 0.99225
 C3492 C 0.30977 0.29242 0.99854
 C3493 C 0.30214 0.28151 0.98859
 C3494 C 0.30772 0.27895 0.97245
 H3495 H 0.35922 0.32656 0.95271
 H3496 H 0.33535 0.28541 0.91845
 H3497 H 0.35394 0.30311 0.90603
 H3498 H 0.31930 0.27730 0.94192
 H3499 H 0.34398 0.31788 0.97651
 H3500 H 0.32754 0.30982 1.00003
 H3501 H 0.30568 0.29469 1.01099
 H3502 H 0.30181 0.27079 0.96452
 C3503 C 0.81849 0.45292 0.36396
 C3504 C 0.80764 0.46249 0.35569
 C3505 C 0.79411 0.45580 0.34896
 C3506 C 0.79171 0.43978 0.35038
 C3507 C 0.80245 0.43037 0.35859
 C3508 C 0.81587 0.43674 0.36587
 C3509 C 0.78315 0.46517 0.34086
 C3510 C 0.78556 0.48121 0.33918
 C3511 C 0.79906 0.48806 0.34579
 C3512 C 0.81000 0.47866 0.35413
 C3513 C 0.80158 0.50409 0.34343
 C3514 C 0.79134 0.51298 0.33374
 C3515 C 0.77818 0.50608 0.32665
 C3516 C 0.77504 0.49032 0.33014
 H3517 H 0.82879 0.45819 0.36905
 H3518 H 0.78140 0.43451 0.34523
 H3519 H 0.79981 0.41812 0.35939
 H3520 H 0.77286 0.45992 0.33558
 H3521 H 0.82039 0.48387 0.35919
 H3522 H 0.81187 0.50955 0.34839
 H3523 H 0.79416 0.52504 0.33107
 H3524 H 0.76515 0.48467 0.32452
 C3525 C 0.81692 0.93822 0.86126
 C3526 C 0.80912 0.94410 0.84729
 C3527 C 0.80829 0.93486 0.83293
 C3528 C 0.81524 0.92004 0.83276
 C3529 C 0.82266 0.91416 0.84673
 C3530 C 0.82362 0.92318 0.86102
 C3531 C 0.80075 0.94062 0.81886
 C3532 C 0.79411 0.95560 0.81882
 C3533 C 0.79518 0.96505 0.83301
 C3534 C 0.80252 0.95917 0.84723
 C3535 C 0.78914 0.98032 0.83258
 C3536 C 0.78223 0.98619 0.81821
 C3537 C 0.78084 0.97674 0.80423
 C3538 C 0.78672 0.96141 0.80465
 H3539 H 0.81774 0.94520 0.87232
 H3540 H 0.81505 0.91308 0.82176
 H3541 H 0.82793 0.90263 0.84634
 H3542 H 0.80025 0.93352 0.80786
 H3543 H 0.80334 0.96640 0.85812
 H3544 H 0.78997 0.98780 0.84325
 H3545 H 0.77794 0.99812 0.81800
 H3546 H 0.78606 0.95423 0.79372
 C3547 C 0.31287 0.80739 0.38363
 C3548 C 0.30500 0.80232 0.39793
 C3549 C 0.29991 0.81332 0.40980
 C3550 C 0.30260 0.82925 0.40698
 C3551 C 0.31027 0.83422 0.39257
 C3552 C 0.31556 0.82334 0.38085
 C3553 C 0.29231 0.80820 0.42428
 C3554 C 0.28974 0.79221 0.42701
 C3555 C 0.29464 0.78129 0.41495
 C3556 C 0.30218 0.78641 0.40050
 C3557 C 0.29221 0.76535 0.41768
 C3558 C 0.28552 0.76016 0.43246
 C3559 C 0.28096 0.77081 0.44475
 C3560 C 0.28277 0.78690 0.44179
 H3561 H 0.31669 0.79896 0.37450
 H3562 H 0.29878 0.83787 0.41592
 H3563 H 0.31228 0.84656 0.39066
 H3564 H 0.28856 0.81661 0.43348
 H3565 H 0.30604 0.77799 0.39136
 H3566 H 0.29583 0.75684 0.40854
 H3567 H 0.28422 0.74772 0.43443
 H3568 H 0.27947 0.79520 0.45127
 C3569 C 0.31676 0.31553 0.89511
 C3570 C 0.30640 0.30961 0.90712
 C3571 C 0.30620 0.31617 0.92310
 C3572 C 0.31658 0.32808 0.92692
 C3573 C 0.32648 0.33417 0.91484
 C3574 C 0.32658 0.32800 0.89893
 C3575 C 0.29550 0.31093 0.93499
 C3576 C 0.28496 0.29917 0.93116
 C3577 C 0.28531 0.29220 0.91539
 C3578 C 0.29602 0.29753 0.90340
 C3579 C 0.27502 0.27994 0.91202
 C3580 C 0.26466 0.27454 0.92427
 C3581 C 0.26417 0.28174 0.93974
 C3582 C 0.27424 0.29406 0.94308
 H3583 H 0.31671 0.31103 0.88264
 H3584 H 0.31688 0.33274 0.93919
 H3585 H 0.33401 0.34383 0.91777
 H3586 H 0.29534 0.31606 0.94720
 H3587 H 0.29624 0.29235 0.89122
 H3588 H 0.27522 0.27432 0.90007
 H3589 H 0.25722 0.26469 0.92178
 H3590 H 0.27417 0.29924 0.95528
 C3591 C 0.42755 0.31019 0.86164
 C3592 C 0.43784 0.30192 0.85133
 C3593 C 0.44723 0.31009 0.83978
 C3594 C 0.44610 0.32642 0.83879
 C3595 C 0.43590 0.33460 0.84926
 C3596 C 0.42655 0.32656 0.86077
 C3597 C 0.45765 0.30180 0.82957
 C3598 C 0.45883 0.28547 0.83084
 C3599 C 0.44934 0.27734 0.84234
 C3600 C 0.43894 0.28562 0.85254
 C3601 C 0.45019 0.26100 0.84323
 C3602 C 0.46001 0.25273 0.83247
 C3603 C 0.46945 0.26070 0.82100
 C3604 C 0.46901 0.27710 0.82046
 H3605 H 0.42064 0.30388 0.87070
 H3606 H 0.45316 0.33286 0.83000
 H3607 H 0.43523 0.34720 0.84832
 H3608 H 0.46478 0.30802 0.82063
 H3609 H 0.43166 0.27938 0.86136
 H3610 H 0.44292 0.25459 0.85191
 H3611 H 0.45995 0.24010 0.83281
 H3612 H 0.47588 0.28328 0.81125
 C3613 C 0.94114 0.31924 0.36505
 C3614 C 0.94966 0.30868 0.35520
 C3615 C 0.94189 0.29607 0.34776
 C3616 C 0.92583 0.29422 0.35030
 C3617 C 0.91739 0.30499 0.35969
 C3618 C 0.92489 0.31762 0.36718
 C3619 C 0.95010 0.28597 0.33725
 C3620 C 0.96582 0.28869 0.33342
 C3621 C 0.97367 0.30124 0.34083
 C3622 C 0.96562 0.31097 0.35196
 C3623 C 0.98925 0.30424 0.33641
 C3624 C 0.99671 0.29537 0.32417
 C3625 C 0.98884 0.28312 0.31646
 C3626 C 0.97353 0.27957 0.32156
 H3627 H 0.94713 0.32882 0.37079
 H3628 H 0.91970 0.28468 0.34460
 H3629 H 0.90489 0.30355 0.36079
 H3630 H 0.94407 0.27640 0.33148
 H3631 H 0.97158 0.32073 0.35749
 H3632 H 0.99546 0.31381 0.34194
 H3633 H 1.00849 0.29837 0.32042
 H3634 H 0.96721 0.27034 0.31551
 C3635 C 0.45080 0.36211 0.80636
 C3636 C 0.45801 0.35033 0.79696
 C3637 C 0.45156 0.34605 0.78167
 C3638 C 0.43857 0.35418 0.77562
 C3639 C 0.43154 0.36596 0.78496
 C3640 C 0.43727 0.36979 0.80066
 C3641 C 0.45779 0.33333 0.77298
 C3642 C 0.47018 0.32462 0.77958
 C3643 C 0.47718 0.32938 0.79442
 C3644 C 0.47118 0.34234 0.80292
 C3645 C 0.48958 0.32062 0.80094
 C3646 C 0.49424 0.30666 0.79351
 C3647 C 0.48667 0.30129 0.77931
 C3648 C 0.47509 0.31073 0.77203
 H3649 H 0.45541 0.36480 0.81839
 H3650 H 0.43361 0.35120 0.76381
 H3651 H 0.42152 0.37192 0.77985
 H3652 H 0.45251 0.32977 0.76150
 H3653 H 0.47629 0.34573 0.81454
 H3654 H 0.49518 0.32416 0.81224
 H3655 H 0.50326 0.29971 0.79936
 H3656 H 0.46919 0.30684 0.76104
 C3657 C 0.92909 0.36061 0.30440
 C3658 C 0.93911 0.34882 0.29843
 C3659 C 0.94161 0.33523 0.30807
 C3660 C 0.93358 0.33337 0.32308
 C3661 C 0.92396 0.34526 0.32911
 C3662 C 0.92183 0.35901 0.31995
 C3663 C 0.95214 0.32374 0.30265
 C3664 C 0.96006 0.32554 0.28756
 C3665 C 0.95711 0.33877 0.27751
 C3666 C 0.94674 0.35043 0.28308
 C3667 C 0.96453 0.34001 0.26199
 C3668 C 0.97472 0.32822 0.25651
 C3669 C 0.97799 0.31538 0.26673
 C3670 C 0.97069 0.31412 0.28223
 H3671 H 0.92744 0.37127 0.29734
 H3672 H 0.93484 0.32278 0.33016
 H3673 H 0.91823 0.34384 0.34099
 H3674 H 0.95413 0.31340 0.31015
 H3675 H 0.94462 0.36070 0.27552
 H3676 H 0.96228 0.34997 0.25403
 H3677 H 0.98007 0.32912 0.24437
 H3678 H 0.97286 0.30390 0.28988
 C3679 C 0.30725 0.87940 0.47931
 C3680 C 0.30082 0.86543 0.48539
 C3681 C 0.28447 0.86325 0.48491
 C3682 C 0.27478 0.87531 0.47925
 C3683 C 0.28122 0.88916 0.47335
 C3684 C 0.29752 0.89120 0.47278
 C3685 C 0.27807 0.84893 0.48970
 C3686 C 0.28777 0.83672 0.49504
 C3687 C 0.30403 0.83909 0.49639
 C3688 C 0.31048 0.85342 0.49149
 C3689 C 0.31355 0.82694 0.50233
 C3690 C 0.30712 0.81241 0.50622
 C3691 C 0.29113 0.80968 0.50388
 C3692 C 0.28147 0.82204 0.49866
 H3693 H 0.31981 0.88076 0.47900
 H3694 H 0.26221 0.87393 0.47908
 H3695 H 0.27339 0.89820 0.46894
 H3696 H 0.26556 0.84717 0.48891
 H3697 H 0.32301 0.85511 0.49209
 H3698 H 0.32600 0.82860 0.50370
 H3699 H 0.31475 0.80316 0.51054
 H3700 H 0.26906 0.82017 0.49712
 C3701 C 0.30671 0.36858 0.94023
 C3702 C 0.29876 0.35942 0.95207
 C3703 C 0.30733 0.35098 0.96407
 C3704 C 0.32363 0.35207 0.96424
 C3705 C 0.33144 0.36093 0.95227
 C3706 C 0.32315 0.36927 0.94006
 C3707 C 0.29956 0.34097 0.97515
 C3708 C 0.28333 0.33911 0.97428
 C3709 C 0.27469 0.34794 0.96266
 C3710 C 0.28243 0.35815 0.95175
 C3711 C 0.25850 0.34590 0.96166
 C3712 C 0.25108 0.33454 0.97132
 C3713 C 0.25964 0.32518 0.98237
 C3714 C 0.27572 0.32794 0.98421
 H3715 H 0.30008 0.37503 0.93111
 H3716 H 0.33039 0.34560 0.97325
 H3717 H 0.34406 0.36085 0.95238
 H3718 H 0.30623 0.33417 0.98401
 H3719 H 0.27582 0.36464 0.94261
 H3720 H 0.25168 0.35261 0.95289
 H3721 H 0.23872 0.33262 0.96961
 H3722 H 0.28254 0.32061 0.99244
 C3723 C 0.80959 0.40549 0.32294
 C3724 C 0.80374 0.41953 0.31612
 C3725 C 0.81408 0.43197 0.31276
 C3726 C 0.82986 0.43041 0.31686
 C3727 C 0.83565 0.41633 0.32314
 C3728 C 0.82567 0.40365 0.32596
 C3729 C 0.80859 0.44563 0.30501
 C3730 C 0.79286 0.44706 0.30052
 C3731 C 0.78231 0.43500 0.30462
 C3732 C 0.78782 0.42127 0.31232
 C3733 C 0.76641 0.43689 0.30087
 C3734 C 0.76109 0.45042 0.29284
 C3735 C 0.77163 0.46207 0.28796
 C3736 C 0.78749 0.46038 0.29199
 H3737 H 0.80181 0.39577 0.32518
 H3738 H 0.83779 0.44000 0.31484
 H3739 H 0.84800 0.41523 0.32569
 H3740 H 0.81662 0.45504 0.30222
 H3741 H 0.77978 0.41191 0.31519
 H3742 H 0.75809 0.42792 0.30422
 H3743 H 0.74876 0.45175 0.29027
 H3744 H 0.79558 0.46963 0.28882
   
