data_POSCAR
  _audit_creation_date              2014-09-24
  _audit_creation_method            'ToBaCCo'
  _symmetry_space_group_name_H-M    'P1'
  _symmetry_Int_Tables_number       1
  _symmetry_cell_setting            triclinic
  loop_
  _symmetry_equiv_pos_as_xyz
 x,y,z
_cell_length_a 41.0404
_cell_length_b 41.1622
_cell_length_c 36.8691
_cell_angle_alpha 90.437000
_cell_angle_beta 88.874400
_cell_angle_gamma 90.014400
loop_
  _atom_site_label
  _atom_site_type_symbol
  _atom_site_fract_x
  _atom_site_fract_y
  _atom_site_fract_z
C1 C 0.37679 0.02280 0.30686
 C2 C 0.35157 0.04744 0.29475
 C3 C 0.33476 0.03807 0.26512
 C4 C 0.34424 0.00447 0.25009
 C5 C 0.35768 -0.00888 0.31208
 C6 C 0.34073 -0.01870 0.28254
 C7 C 0.39816 0.01585 0.27283
 C8 C 0.38121 0.00643 0.24310
 H9 H 0.34878 0.07125 0.30718
 H10 H 0.33011 -0.00267 0.22597
 H11 H 0.35860 -0.02289 0.33677
 H12 H 0.42445 0.01506 0.27284
 C13 C 0.11663 -0.01711 0.77772
 C14 C 0.13925 -0.04365 0.76322
 C15 C 0.15719 -0.03496 0.73370
 C16 C 0.15079 -0.00023 0.72064
 C17 C 0.13869 0.01235 0.78384
 C18 C 0.15643 0.02151 0.75410
 C19 C 0.09691 -0.00791 0.74693
 C20 C 0.11551 0.00156 0.71508
 H21 H 0.14120 -0.06737 0.77558
 H22 H 0.16660 0.00573 0.69700
 H23 H 0.13886 0.02572 0.80926
 H24 H 0.07125 -0.00275 0.74966
 C25 C 0.61903 0.48180 0.27976
 C26 C 0.64285 0.45618 0.26560
 C27 C 0.66046 0.46524 0.23598
 C28 C 0.65265 0.49940 0.22230
 C29 C 0.63960 0.51237 0.28520
 C30 C 0.65696 0.52185 0.25536
 C31 C 0.59797 0.49000 0.24687
 C32 C 0.61552 0.49931 0.21674
 H33 H 0.64554 0.43256 0.27804
 H34 H 0.66738 0.50622 0.19799
 H35 H 0.63926 0.52604 0.31044
 H36 H 0.57171 0.49092 0.24773
 C37 C 0.87673 0.52308 0.80730
 C38 C 0.85100 0.54717 0.79524
 C39 C 0.83445 0.53754 0.76553
 C40 C 0.84472 0.50420 0.75037
 C41 C 0.85834 0.49096 0.81235
 C42 C 0.84165 0.48086 0.78273
 C43 C 0.89832 0.51671 0.77332
 C44 C 0.88165 0.50700 0.74350
 H45 H 0.84771 0.57090 0.80774
 H46 H 0.83081 0.49682 0.72617
 H47 H 0.85950 0.47691 0.83700
 H48 H 0.92462 0.51644 0.77344
 C49 C 0.28319 0.41727 1.00240
 C50 C 0.27115 0.39646 1.03442
 C51 C 0.24693 0.37528 1.02588
 C52 C 0.23695 0.37675 0.98608
 C53 C 0.29240 0.39312 0.97243
 C54 C 0.26859 0.37195 0.96365
 C55 C 0.25192 0.43388 0.98945
 C56 C 0.22729 0.41266 0.98158
 H57 H 0.27885 0.40026 1.06204
 H58 H 0.21759 0.35916 0.97893
 H59 H 0.31562 0.39407 0.95795
 H60 H 0.24782 0.45973 0.99274
 C61 C 0.77624 0.07321 0.98329
 C62 C 0.76471 0.09422 0.95179
 C63 C 0.74123 0.11611 0.96149
 C64 C 0.73103 0.11461 1.00178
 C65 C 0.78626 0.09731 1.01267
 C66 C 0.76284 0.11877 1.02283
 C67 C 0.74659 0.05802 0.99728
 C68 C 0.72099 0.08070 1.00686
 H69 H 0.77294 0.09098 0.92394
 H70 H 0.71293 0.13334 1.00991
 H71 H 0.80927 0.09552 1.02648
 H72 H 0.74239 0.03224 0.99396
 C73 C 0.28037 0.57425 0.48313
 C74 C 0.26924 0.59541 0.45164
 C75 C 0.24560 0.61721 0.46102
 C76 C 0.23491 0.61577 0.50109
 C77 C 0.28980 0.59810 0.51301
 C78 C 0.26629 0.61961 0.52280
 C79 C 0.24867 0.55828 0.49702
 C80 C 0.22460 0.58005 0.50600
 H81 H 0.27779 0.59216 0.42390
 H82 H 0.21583 0.63379 0.50877
 H83 H 0.31251 0.59612 0.52736
 H84 H 0.24425 0.53241 0.49492
 C85 C 0.78350 0.91822 0.50483
 C86 C 0.77190 0.89576 0.53557
 C87 C 0.74820 0.87441 0.52577
 C88 C 0.73843 0.87725 0.48595
 C89 C 0.79351 0.89561 0.47374
 C90 C 0.77027 0.87443 0.46338
 C91 C 0.75190 0.93457 0.49254
 C92 C 0.72791 0.91310 0.48327
 H93 H 0.77892 0.89897 0.56351
 H94 H 0.71948 0.85968 0.47751
 H95 H 0.81754 0.89643 0.46103
 H96 H 0.74720 0.96019 0.49696
 C97 C -0.00939 0.28832 0.40268
 C98 C 0.01956 0.28938 0.37578
 C99 C 0.02156 0.26363 0.35226
 C100 C -0.00600 0.23821 0.35882
 C101 C -0.03775 0.28390 0.38054
 C102 C -0.03644 0.25684 0.35588
 C103 C -0.00491 0.25588 0.42207
 C104 C -0.00339 0.22931 0.39968
 H105 H 0.03771 0.30845 0.37656
 H106 H -0.00419 0.21708 0.34013
 H107 H -0.05935 0.29865 0.38482
 H108 H 0.00026 0.25418 0.45058
 C109 C 0.02160 0.78024 0.10260
 C110 C -0.00967 0.78492 0.12520
 C111 C -0.01772 0.75969 0.14727
 C112 C 0.00725 0.73167 0.14533
 C113 C 0.04780 0.77264 0.13029
 C114 C 0.04028 0.74779 0.15289
 C115 C 0.01675 0.74772 0.08248
 C116 C 0.00914 0.72218 0.10464
 H117 H -0.02421 0.80680 0.12353
 H118 H 0.00127 0.71124 0.16372
 H119 H 0.07113 0.78489 0.13120
 H120 H 0.02078 0.74486 0.05354
 C121 C 0.52435 0.27879 0.60356
 C122 C 0.49260 0.28291 0.62545
 C123 C 0.48431 0.25734 0.64694
 C124 C 0.50954 0.22952 0.64513
 C125 C 0.55003 0.27106 0.63176
 C126 C 0.54230 0.24584 0.65374
 C127 C 0.52026 0.24651 0.58281
 C128 C 0.51234 0.22061 0.60432
 H129 H 0.47801 0.30476 0.62390
 H130 H 0.50380 0.20867 0.66304
 H131 H 0.57338 0.28320 0.63320
 H132 H 0.52326 0.24446 0.55367
 C133 C 0.48986 0.78618 0.90325
 C134 C 0.51884 0.78806 0.87632
 C135 C 0.52216 0.76175 0.85374
 C136 C 0.49590 0.73528 0.86097
 C137 C 0.46037 0.77988 0.87948
 C138 C 0.46324 0.75359 0.85707
 C139 C 0.49518 0.75605 0.92247
 C140 C 0.49830 0.72755 0.89986
 H141 H 0.53600 0.80804 0.87633
 H142 H 0.49764 0.71445 0.84190
 H143 H 0.43920 0.79562 0.87977
 H144 H 0.50325 0.75609 0.95012
 C145 C -0.23161 0.62932 0.94732
 C146 C -0.20228 0.61210 0.96281
 C147 C -0.20883 0.59528 0.99353
 C148 C -0.24458 0.59694 1.00634
 C149 C -0.25750 0.60292 0.94271
 C150 C -0.26470 0.58602 0.97345
 C151 C -0.24550 0.65023 0.97876
 C152 C -0.25162 0.63372 1.01025
 H153 H -0.17808 0.61349 0.95060
 H154 H -0.24907 0.58214 1.03086
 H155 H -0.27211 0.60110 0.91863
 H156 H -0.25219 0.67533 0.97535
 C157 C -0.26552 0.36660 0.47114
 C158 C -0.29232 0.38848 0.48664
 C159 C -0.28355 0.40583 0.51617
 C160 C -0.24849 0.39965 0.52821
 C161 C -0.23634 0.38917 0.46454
 C162 C -0.22713 0.40638 0.49429
 C163 C -0.25563 0.34642 0.50137
 C164 C -0.24612 0.36438 0.53322
 H165 H -0.31616 0.39060 0.47471
 H166 H -0.24252 0.41495 0.55193
 H167 H -0.22319 0.39008 0.43881
 H168 H -0.24983 0.32104 0.49799
 C169 C 0.23159 -0.13191 -0.03009
 C170 C 0.20501 -0.10965 -0.01488
 C171 C 0.21390 -0.09220 0.01453
 C172 C 0.24884 -0.09866 0.02674
 C173 C 0.26103 -0.10971 -0.03681
 C174 C 0.27035 -0.09240 -0.00719
 C175 C 0.24119 -0.15199 0.00032
 C176 C 0.25082 -0.13391 0.03204
 H177 H 0.18119 -0.10742 -0.02683
 H178 H 0.25492 -0.08328 0.05035
 H179 H 0.27425 -0.10912 -0.06252
 H180 H 0.24683 -0.17743 -0.00285
 C181 C 0.26882 1.12771 0.44573
 C182 C 0.29809 1.11035 0.46119
 C183 C 0.29145 1.09351 0.49187
 C184 C 0.25570 1.09526 0.50465
 C185 C 0.24283 1.10141 0.44102
 C186 C 0.23553 1.08451 0.47174
 C187 C 0.25497 1.14859 0.47720
 C188 C 0.24879 1.13205 0.50866
 H189 H 0.32233 1.11180 0.44909
 H190 H 0.25117 1.08040 0.52910
 H191 H 0.22811 1.09983 0.41701
 H192 H 0.24843 1.17373 0.47380
 C193 C 0.16757 0.53227 0.24277
 C194 C 0.14660 0.52076 0.21108
 C195 C 0.12526 0.49659 0.21991
 C196 C 0.12667 0.48624 0.25971
 C197 C 0.14346 0.54128 0.27309
 C198 C 0.12211 0.51759 0.28222
 C199 C 0.18407 0.50085 0.25546
 C200 C 0.16264 0.47633 0.26365
 H201 H 0.15060 0.52856 0.18338
 H202 H 0.10890 0.46700 0.26716
 H203 H 0.14466 0.56422 0.28763
 H204 H 0.20995 0.49664 0.25169
 C205 C -0.17798 1.02726 0.26989
 C206 C -0.15673 1.01574 0.30113
 C207 C -0.13472 0.99243 0.29122
 C208 C -0.13638 0.98240 0.25110
 C209 C -0.15394 1.03742 0.23996
 C210 C -0.13239 1.01415 0.22966
 C211 C -0.19317 0.99767 0.25646
 C212 C -0.17035 0.97229 0.24671
 H213 H -0.15986 1.02389 0.32895
 H214 H -0.11758 0.96444 0.24278
 H215 H -0.15584 1.06038 0.22595
 H216 H -0.21903 0.99338 0.26015
 C217 C 0.32261 0.52818 -0.23030
 C218 C 0.34408 0.51656 -0.19938
 C219 C 0.36591 0.49319 -0.20945
 C220 C 0.36412 0.48313 -0.24948
 C221 C 0.34633 0.53803 -0.26067
 C222 C 0.36783 0.51473 -0.27104
 C223 C 0.30647 0.49678 -0.24403
 C224 C 0.32827 0.47293 -0.25364
 H225 H 0.34122 0.52481 -0.17156
 H226 H 0.38213 0.46423 -0.25767
 H227 H 0.34439 0.56096 -0.27473
 H228 H 0.28053 0.49235 -0.24147
 C229 C 0.66811 0.03162 -0.25612
 C230 C 0.64700 0.02033 -0.28781
 C231 C 0.62556 -0.00375 -0.27902
 C232 C 0.62700 -0.01425 -0.23927
 C233 C 0.64410 0.04066 -0.22570
 C234 C 0.62263 0.01705 -0.21664
 C235 C 0.68446 0.00007 -0.24361
 C236 C 0.66293 -0.02437 -0.23548
 H237 H 0.65099 0.02821 -0.31548
 H238 H 0.60915 -0.03344 -0.23186
 H239 H 0.64539 0.06358 -0.21113
 H240 H 0.71031 -0.00428 -0.24753
 C241 C 0.03749 0.23736 0.84953
 C242 C 0.04049 0.26740 0.87418
 C243 C 0.01369 0.27381 0.89558
 C244 C -0.01387 0.24840 0.89077
 C245 C 0.02959 0.20988 0.87629
 C246 C 0.00280 0.21537 0.89783
 C247 C 0.00776 0.24228 0.82976
 C248 C -0.02079 0.24878 0.85171
 H249 H 0.06246 0.28194 0.87492
 H250 H -0.03496 0.25308 0.90917
 H251 H 0.04449 0.18857 0.87985
 H252 H 0.00723 0.23867 0.80069
 C253 C 0.52974 0.27019 0.14601
 C254 C 0.53477 0.23939 0.12319
 C255 C 0.50972 0.23164 0.10106
 C256 C 0.48152 0.25645 0.10319
 C257 C 0.52235 0.29674 0.11852
 C258 C 0.49769 0.28957 0.09587
 C259 C 0.49691 0.26494 0.16610
 C260 C 0.47155 0.25762 0.14388
 H261 H 0.55672 0.22492 0.12482
 H262 H 0.46124 0.25076 0.08476
 H263 H 0.53492 0.31988 0.11756
 H264 H 0.49361 0.26858 0.19502
 C265 C 0.02901 0.77100 0.64641
 C266 C 0.03454 0.74046 0.62329
 C267 C 0.00962 0.73250 0.60107
 C268 C -0.01895 0.75685 0.60341
 C269 C 0.02123 0.79766 0.61918
 C270 C -0.00330 0.79025 0.59644
 C271 C -0.00373 0.76510 0.66641
 C272 C -0.02896 0.75760 0.64410
 H273 H 0.05671 0.72632 0.62478
 H274 H -0.03914 0.75100 0.58492
 H275 H 0.03328 0.82107 0.61853
 H276 H -0.00707 0.76850 0.69537
 C277 C 0.53584 0.73823 0.35172
 C278 C 0.53846 0.76617 0.37933
 C279 C 0.51118 0.77136 0.40040
 C280 C 0.48324 0.74727 0.39187
 C281 C 0.52605 0.70885 0.37497
 C282 C 0.49873 0.71336 0.39581
 C283 C 0.50543 0.74611 0.33023
 C284 C 0.47767 0.75057 0.35056
 H285 H 0.55996 0.78130 0.38087
 H286 H 0.46099 0.75038 0.40910
 H287 H 0.54003 0.68673 0.37683
 H288 H 0.50628 0.74823 0.30098
 B289 B -0.01934 0.01831 1.03967
 B290 B -0.03448 0.00889 0.99933
 B291 B -0.00792 0.03950 1.00303
 B292 B 0.01993 0.02955 1.03428
 B293 B 0.00986 -0.00845 1.04948
 B294 B -0.02439 -0.02095 1.02780
 B295 B 0.02363 -0.01292 0.97715
 B296 B 0.03894 -0.00351 1.01743
 B297 B 0.01224 -0.03384 1.01354
 B298 B -0.01551 -0.02400 0.98252
 B299 B -0.00543 0.01389 0.96720
 B300 B 0.02894 0.02636 0.98883
 B301 B 0.48351 0.51755 0.54104
 B302 B 0.46871 0.50751 0.50073
 B303 B 0.49500 0.53836 0.50419
 B304 B 0.52274 0.52905 0.53581
 B305 B 0.51284 0.49113 0.55149
 B306 B 0.47882 0.47811 0.52973
 B307 B 0.52709 0.48592 0.47933
 B308 B 0.54209 0.49591 0.51958
 B309 B 0.51561 0.46535 0.51592
 B310 B 0.48800 0.47459 0.48455
 B311 B 0.49791 0.51235 0.46877
 B312 B 0.53204 0.52538 0.49046
 B313 B 0.51569 0.96782 0.55028
 B314 B 0.53337 0.97637 0.51037
 B315 B 0.50173 0.95087 0.51236
 B316 B 0.47519 0.96393 0.54501
 B317 B 0.49138 0.99880 0.56300
 B318 B 0.52792 1.00609 0.54143
 B319 B 0.48050 1.00914 0.49146
 B320 B 0.46277 1.00059 0.53124
 B321 B 0.49448 1.02600 0.52924
 B322 B 0.52089 1.01296 0.49665
 B323 B 0.50469 0.97822 0.47860
 B324 B 0.46819 0.97086 0.50012
 B325 B 0.01573 0.46880 1.04926
 B326 B 0.03336 0.47804 1.00950
 B327 B 0.00182 0.45237 1.01102
 B328 B -0.02477 0.46482 1.04392
 B329 B -0.00872 0.49950 1.06255
 B330 B 0.02779 0.50726 1.04112
 B331 B -0.01965 0.51087 0.99123
 B332 B -0.03735 0.50166 1.03083
 B333 B -0.00574 0.52722 1.02929
 B334 B 0.02072 0.51477 0.99648
 B335 B 0.00467 0.48025 0.97780
 B336 B -0.03180 0.47242 0.99917
 B337 B 0.00917 0.52364 0.47284
 B338 B 0.02832 0.51933 0.51198
 B339 B -0.00152 0.54661 0.50856
 B340 B -0.03057 0.53151 0.48144
 B341 B -0.01785 0.49356 0.46837
 B342 B 0.01914 0.48633 0.48722
 B343 B -0.02554 0.49398 0.54191
 B344 B -0.04469 0.49841 0.50290
 B345 B -0.01484 0.47112 0.50609
 B346 B 0.01417 0.48620 0.53331
 B347 B 0.00145 0.52420 0.54646
 B348 B -0.03553 0.53144 0.52763
 B349 B 0.50789 0.02282 -0.02744
 B350 B 0.52675 0.01803 0.01180
 B351 B 0.49709 0.04551 0.00847
 B352 B 0.46814 0.03084 -0.01907
 B353 B 0.48072 -0.00706 -0.03250
 B354 B 0.51755 -0.01470 -0.01344
 B355 B 0.47258 -0.00731 0.04100
 B356 B 0.45370 -0.00238 0.00190
 B357 B 0.48336 -0.02991 0.00497
 B358 B 0.51228 -0.01524 0.03261
 B359 B 0.49970 0.02271 0.04610
 B360 B 0.46289 0.03035 0.02709
 B361 B 0.49068 0.48457 -0.04438
 B362 B 0.47145 0.49442 -0.00560
 B363 B 0.49949 0.46515 -0.00649
 B364 B 0.52974 0.47537 -0.03600
 B365 B 0.51947 0.51239 -0.05336
 B366 B 0.48278 0.52378 -0.03446
 B367 B 0.52648 0.51940 0.01979
 B368 B 0.54574 0.50974 -0.01904
 B369 B 0.51745 0.53901 -0.01837
 B370 B 0.48742 0.52862 0.01128
 B371 B 0.49763 0.49159 0.02851
 B372 B 0.53425 0.48010 0.00969
 B373 B -0.01039 0.98524 0.45699
 B374 B -0.02912 0.99530 0.49601
 B375 B -0.00112 0.96599 0.49483
 B376 B 0.02878 0.97604 0.46482
 B377 B 0.01833 1.01298 0.44741
 B378 B -0.01813 1.02449 0.46680
 B379 B 0.02626 1.02033 0.52038
 B380 B 0.04503 1.01047 0.48133
 B381 B 0.01676 1.03975 0.48226
 B382 B -0.01290 1.02954 0.51242
 B383 B -0.00250 0.99258 0.52972
 B384 B 0.03387 0.98096 0.51041
 B385 B 0.76758 0.23079 0.21165
 B386 B 0.75746 0.21584 0.25224
 B387 B 0.78829 0.24225 0.24827
 B388 B 0.77884 0.26994 0.21646
 B389 B 0.74094 0.25993 0.20120
 B390 B 0.72800 0.22589 0.22341
 B391 B 0.73535 0.27390 0.27327
 B392 B 0.74546 0.28901 0.23277
 B393 B 0.71490 0.26247 0.23694
 B394 B 0.72423 0.23488 0.26852
 B395 B 0.76200 0.24491 0.28387
 B396 B 0.77491 0.27905 0.26171
 B397 B 0.71710 0.76302 0.69675
 B398 B 0.72601 0.78156 0.73572
 B399 B 0.69961 0.75069 0.73556
 B400 B 0.71208 0.72297 0.70417
 B401 B 0.74756 0.73755 0.68504
 B402 B 0.75578 0.77440 0.70468
 B403 B 0.75737 0.72868 0.75708
 B404 B 0.74846 0.70998 0.71830
 B405 B 0.77482 0.74094 0.71845
 B406 B 0.76230 0.76859 0.74975
 B407 B 0.72700 0.75395 0.76888
 B408 B 0.71870 0.71721 0.74934
 B409 B 0.27387 0.25709 0.77669
 B410 B 0.26898 0.27699 0.73794
 B411 B 0.29622 0.24697 0.74004
 B412 B 0.28134 0.21759 0.76739
 B413 B 0.24357 0.23026 0.78200
 B414 B 0.23624 0.26757 0.76380
 B415 B 0.24263 0.22412 0.70845
 B416 B 0.24767 0.20418 0.74699
 B417 B 0.22046 0.23418 0.74512
 B418 B 0.23527 0.26353 0.71771
 B419 B 0.27305 0.25086 0.70301
 B420 B 0.28039 0.21355 0.72116
 B421 B 0.23549 0.73805 0.29062
 B422 B 0.24504 0.71958 0.25144
 B423 B 0.21581 0.74769 0.25324
 B424 B 0.22641 0.77724 0.28282
 B425 B 0.26358 0.76644 0.29923
 B426 B 0.27474 0.73017 0.27976
 B427 B 0.27021 0.77481 0.22608
 B428 B 0.26086 0.79330 0.26526
 B429 B 0.29000 0.76497 0.26369
 B430 B 0.27932 0.73566 0.23399
 B431 B 0.24210 0.74637 0.21766
 B432 B 0.23088 0.78262 0.23707
 B433 B 0.26721 0.73142 0.71200
 B434 B 0.25695 0.71645 0.75253
 B435 B 0.28758 0.74310 0.74877
 B436 B 0.27815 0.77066 0.71683
 B437 B 0.24043 0.76033 0.70127
 B438 B 0.22760 0.72622 0.72343
 B439 B 0.23428 0.77436 0.77327
 B440 B 0.24453 0.78949 0.73284
 B441 B 0.21416 0.76272 0.73681
 B442 B 0.22348 0.73525 0.76851
 B443 B 0.26107 0.74560 0.78417
 B444 B 0.27388 0.77981 0.76205
 B445 B 0.21745 0.26396 0.19734
 B446 B 0.22636 0.28232 0.23640
 B447 B 0.19999 0.25142 0.23604
 B448 B 0.21249 0.22387 0.20447
 B449 B 0.24793 0.23861 0.18540
 B450 B 0.25611 0.27537 0.20528
 B451 B 0.25781 0.22937 0.25736
 B452 B 0.24890 0.21086 0.21848
 B453 B 0.27522 0.24186 0.21879
 B454 B 0.26268 0.26933 0.25030
 B455 B 0.22739 0.25454 0.26938
 B456 B 0.21914 0.21788 0.24959
 B457 B 0.77274 0.75836 0.27814
 B458 B 0.76780 0.77842 0.23950
 B459 B 0.79480 0.74820 0.24132
 B460 B 0.77986 0.71884 0.26864
 B461 B 0.74226 0.73177 0.28355
 B462 B 0.73513 0.76920 0.26554
 B463 B 0.74092 0.72584 0.20997
 B464 B 0.74598 0.70576 0.24842
 B465 B 0.71899 0.73599 0.24683
 B466 B 0.73390 0.76530 0.21943
 B467 B 0.77150 0.75237 0.20445
 B468 B 0.77866 0.71496 0.22242
 B469 B 0.73727 0.23710 0.79129
 B470 B 0.74721 0.21827 0.75244
 B471 B 0.71822 0.24663 0.75349
 B472 B 0.72868 0.27630 0.78298
 B473 B 0.76549 0.26528 0.80016
 B474 B 0.77657 0.22878 0.78121
 B475 B 0.77323 0.27309 0.72702
 B476 B 0.76352 0.29193 0.76590
 B477 B 0.79242 0.26332 0.76510
 B478 B 0.78187 0.23391 0.73545
 B479 B 0.74499 0.24484 0.71836
 B480 B 0.73383 0.28130 0.73727
 C481 C 0.42786 1.04328 0.40576
 C482 C 0.44387 1.04811 0.37246
 C483 C 0.42712 1.04389 0.34019
 C484 C 0.39426 1.03381 0.34089
 C485 C 0.37755 1.03289 0.37464
 C486 C 0.39436 1.03713 0.40689
 C487 C 0.44670 1.03706 0.43723
 C488 C 0.46225 1.02748 0.46224
 H489 H 0.46981 1.05308 0.37135
 H490 H 0.44052 1.04749 0.31508
 H491 H 0.35191 1.02673 0.37613
 H492 H 0.38171 1.03334 0.43260
 C493 C -0.07280 0.54505 0.90618
 C494 C -0.10609 0.53785 0.90732
 C495 C -0.12277 0.53305 0.87510
 C496 C -0.10611 0.53449 0.84135
 C497 C -0.07360 0.54565 0.84063
 C498 C -0.05697 0.55040 0.87288
 C499 C -0.05376 0.53907 0.93753
 C500 C -0.03803 0.52949 0.96237
 H501 H -0.11858 0.53362 0.93303
 H502 H -0.14821 0.52610 0.87659
 H503 H -0.06035 0.54968 0.81550
 H504 H -0.03120 0.55615 0.87176
 C505 C 0.07137 -0.03771 0.88180
 C506 C 0.10519 -0.03753 0.87763
 C507 C 0.11926 -0.03282 0.84338
 C508 C 0.09972 -0.02743 0.81290
 C509 C 0.06566 -0.03055 0.81706
 C510 C 0.05166 -0.03537 0.85141
 C511 C 0.05687 -0.03382 0.91713
 C512 C 0.04341 -0.02685 0.94529
 H513 H 0.12066 -0.03912 0.90104
 H514 H 0.14558 -0.03150 0.84095
 H515 H 0.04949 -0.02830 0.79450
 H516 H 0.02534 -0.03548 0.85453
 C517 C 0.57492 0.46104 0.38424
 C518 C 0.60872 0.46130 0.37972
 C519 C 0.62248 0.46612 0.34533
 C520 C 0.60264 0.47140 0.31509
 C521 C 0.56863 0.46858 0.31964
 C522 C 0.55493 0.46360 0.35410
 C523 C 0.56065 0.46485 0.41967
 C524 C 0.54714 0.47184 0.44778
 H525 H 0.62438 0.45970 0.40296
 H526 H 0.64877 0.46759 0.34260
 H527 H 0.55224 0.47138 0.29740
 H528 H 0.52864 0.46365 0.35753
 C529 C 0.57083 0.52877 0.11755
 C530 C 0.55542 0.50632 0.14044
 C531 C 0.56983 0.49697 0.17265
 C532 C 0.59997 0.51010 0.18278
 C533 C 0.61506 0.53326 0.16000
 C534 C 0.60067 0.54237 0.12738
 C535 C 0.55736 0.53358 0.08225
 C536 C 0.54438 0.53190 0.05327
 H537 H 0.53268 0.49506 0.13272
 H538 H 0.55776 0.47867 0.18898
 H539 H 0.63797 0.54434 0.16723
 H540 H 0.61309 0.55938 0.10961
 C541 C 0.07158 1.03260 0.61756
 C542 C 0.05315 1.01702 0.64449
 C543 C 0.06746 1.00738 0.67667
 C544 C 0.10084 1.01315 0.68297
 C545 C 0.11884 1.03017 0.65594
 C546 C 0.10439 1.03948 0.62348
 C547 C 0.05770 1.03584 0.58223
 C548 C 0.04447 1.03325 0.55346
 H549 H 0.02790 1.01078 0.63985
 H550 H 0.05232 0.99376 0.69541
 H551 H 0.14405 1.03677 0.65934
 H552 H 0.11906 1.05122 0.60263
 C553 C -0.07074 0.48427 0.64164
 C554 C -0.05775 0.50769 0.66489
 C555 C -0.07316 0.51487 0.69796
 C556 C -0.10186 0.49858 0.70853
 C557 C -0.11460 0.47462 0.68526
 C558 C -0.09918 0.46762 0.65184
 C559 C -0.05628 0.48084 0.60604
 C560 C -0.04302 0.48287 0.57674
 H561 H -0.03611 0.52119 0.65694
 H562 H -0.06301 0.53387 0.71478
 H563 H -0.13638 0.46127 0.69282
 H564 H -0.10968 0.44974 0.63380
 C565 C 0.42773 -0.01710 0.14084
 C566 C 0.44144 0.00589 0.16411
 C567 C 0.42641 0.01329 0.19733
 C568 C 0.39738 -0.00236 0.20804
 C569 C 0.38396 -0.02594 0.18479
 C570 C 0.39899 -0.03315 0.15120
 C571 C 0.44182 -0.02060 0.10505
 C572 C 0.45494 -0.01856 0.07568
 H573 H 0.46333 0.01892 0.15603
 H574 H 0.43710 0.03199 0.21413
 H575 H 0.36192 -0.03881 0.19245
 H576 H 0.38795 -0.05068 0.13316
 C577 C 0.37413 0.46839 0.00920
 C578 C 0.34989 0.48005 -0.01343
 C579 C 0.31911 0.46547 -0.01318
 C580 C 0.31215 0.43909 0.00987
 C581 C 0.33660 0.42846 0.03340
 C582 C 0.36717 0.44319 0.03324
 C583 C 0.40717 0.47917 0.00477
 C584 C 0.43531 0.48656 0.00050
 H585 H 0.35530 0.49917 -0.03267
 H586 H 0.30159 0.47336 -0.03282
 H587 H 0.33314 0.40725 0.05015
 H588 H 0.38602 0.43358 0.05033
 C589 C -0.12636 0.97005 0.51283
 C590 C -0.15070 0.98184 0.49042
 C591 C -0.18141 0.96717 0.49065
 C592 C -0.18819 0.94052 0.51339
 C593 C -0.16378 0.93003 0.53704
 C594 C -0.13325 0.94485 0.53689
 C595 C -0.09329 0.98049 0.50780
 C596 C -0.06517 0.98762 0.50288
 H597 H -0.14535 1.00100 0.47122
 H598 H -0.19894 0.97504 0.47100
 H599 H -0.16712 0.90872 0.55365
 H600 H -0.11433 0.93520 0.55386
 C601 C -0.13180 0.02542 0.97737
 C602 C -0.13928 0.04842 0.95128
 C603 C -0.17058 0.06126 0.95009
 C604 C -0.19512 0.05095 0.97479
 C605 C -0.18775 0.02578 0.99905
 C606 C -0.15625 0.01312 1.00031
 C607 C -0.09837 0.01855 0.98421
 C608 C -0.07020 0.01424 0.99070
 H609 H -0.12029 0.05836 0.93377
 H610 H -0.17432 0.08147 0.93212
 H611 H -0.20541 0.01805 1.01940
 H612 H -0.15045 -0.00446 1.02094
 C613 C 0.37178 0.52525 0.47779
 C614 C 0.36516 0.54919 0.45244
 C615 C 0.33412 0.56266 0.45110
 C616 C 0.30900 0.55202 0.47485
 C617 C 0.31550 0.52612 0.49842
 C618 C 0.34674 0.51283 0.49986
 C619 C 0.40497 0.51755 0.48497
 C620 C 0.43303 0.51280 0.49173
 H621 H 0.38460 0.55927 0.43567
 H622 H 0.33095 0.58344 0.43378
 H623 H 0.29733 0.51815 0.51808
 H624 H 0.35188 0.49457 0.51998
 C625 C 0.12490 0.54996 0.51687
 C626 C 0.13277 0.57921 0.49984
 C627 C 0.16515 0.58931 0.49718
 C628 C 0.19016 0.57027 0.51159
 C629 C 0.18200 0.54114 0.52929
 C630 C 0.14948 0.53104 0.53189
 C631 C 0.09177 0.53884 0.51694
 C632 C 0.06388 0.53002 0.51557
 H633 H 0.11393 0.59385 0.48783
 H634 H 0.17056 0.61142 0.48256
 H635 H 0.20075 0.52608 0.54076
 H636 H 0.14358 0.50827 0.54503
 C637 C 0.62306 0.04915 0.01866
 C638 C 0.62979 0.08133 0.00962
 C639 C 0.66195 0.09214 0.00692
 C640 C 0.68827 0.07081 0.01309
 C641 C 0.68084 0.03863 0.02357
 C642 C 0.64855 0.02794 0.02619
 C643 C 0.59006 0.03768 0.01789
 C644 C 0.56227 0.02866 0.01592
 H645 H 0.61015 0.09787 0.00345
 H646 H 0.66553 0.11672 -0.00232
 H647 H 0.69981 0.02149 0.02995
 H648 H 0.64352 0.00295 0.03346
 C649 C 0.62792 0.94371 0.48803
 C650 C 0.65153 0.96384 0.47195
 C651 C 0.68397 0.95348 0.46898
 C652 C 0.69312 0.92289 0.48218
 C653 C 0.66891 0.90257 0.49735
 C654 C 0.63661 0.91293 0.50022
 C655 C 0.59521 0.95513 0.49426
 C656 C 0.56790 0.96444 0.50075
 H657 H 0.64502 0.98778 0.46248
 H658 H 0.70198 0.96959 0.45700
 H659 H 0.67494 0.87920 0.50859
 H660 H 0.61857 0.89728 0.51297
 C661 C 0.12780 0.44504 0.98695
 C662 C 0.15148 0.46427 0.96960
 C663 C 0.18375 0.45335 0.96652
 C664 C 0.19265 0.42310 0.98086
 C665 C 0.16835 0.40374 0.99741
 C666 C 0.13626 0.41464 1.00039
 C667 C 0.09522 0.45691 0.99310
 C668 C 0.06795 0.46632 0.99967
 H669 H 0.14515 0.48792 0.95916
 H670 H 0.20183 0.46875 0.95351
 H671 H 0.17416 0.38072 1.00962
 H672 H 0.11819 0.39970 1.01414
 C673 C -0.01945 0.37694 0.46766
 C674 C -0.02214 0.34680 0.48473
 C675 C -0.01899 0.31799 0.46433
 C676 C -0.01244 0.31892 0.42650
 C677 C -0.01072 0.34955 0.40978
 C678 C -0.01396 0.37812 0.43013
 C679 C -0.02078 0.40716 0.48772
 C680 C -0.01988 0.43443 0.49997
 H681 H -0.02666 0.34555 0.51373
 H682 H -0.02225 0.29533 0.47844
 H683 H -0.00680 0.35135 0.38073
 H684 H -0.01195 0.40130 0.41651
 C685 C 0.47766 -0.12432 -0.03349
 C686 C 0.47559 -0.15422 -0.01581
 C687 C 0.47900 -0.18331 -0.03567
 C688 C 0.48529 -0.18293 -0.07359
 C689 C 0.48596 -0.15257 -0.09098
 C690 C 0.48244 -0.12370 -0.07115
 C691 C 0.47673 -0.09383 -0.01382
 C692 C 0.47799 -0.06655 -0.00159
 H693 H 0.47157 -0.15508 0.01329
 H694 H 0.47639 -0.20580 -0.02102
 H695 H 0.48959 -0.15118 -0.12010
 H696 H 0.48391 -0.10072 -0.08527
 C697 C 0.03014 -0.12947 1.04331
 C698 C 0.01426 -0.15609 1.02771
 C699 C 0.01327 -0.18601 1.04563
 C700 C 0.02836 -0.18985 1.07938
 C701 C 0.04460 -0.16280 1.09437
 C702 C 0.04581 -0.13315 1.07630
 C703 C 0.02614 -0.09726 1.02906
 C704 C 0.02123 -0.06958 1.02019
 H705 H 0.00125 -0.15330 1.00264
 H706 H -0.00086 -0.20552 1.03397
 H707 H 0.05487 -0.16373 1.12111
 H708 H 0.05737 -0.11251 1.08917
 C709 C 0.53344 0.36967 0.54550
 C710 C 0.51697 0.34346 0.52985
 C711 C 0.51577 0.31340 0.54741
 C712 C 0.53126 0.30897 0.58083
 C713 C 0.54810 0.33564 0.59589
 C714 C 0.54947 0.36545 0.57817
 C715 C 0.52963 0.40204 0.53167
 C716 C 0.52475 0.42974 0.52290
 H717 H 0.50367 0.34670 0.50505
 H718 H 0.50119 0.29422 0.53576
 H719 H 0.55868 0.33435 0.62244
 H720 H 0.56148 0.38581 0.59110
 C721 C 0.49647 1.12394 0.56150
 C722 C 0.47885 1.13489 0.59217
 C723 C 0.48393 1.16629 0.60606
 C724 C 0.50679 1.18726 0.58951
 C725 C 0.52422 1.17607 0.55857
 C726 C 0.51912 1.14471 0.54477
 C727 C 0.49324 1.09075 0.54873
 C728 C 0.49229 1.06261 0.53902
 H729 H 0.46140 1.11904 0.60559
 H730 H 0.46973 1.17421 0.62954
 H731 H 0.54238 1.19125 0.54542
 H732 H 0.53329 1.13648 0.52136
 C733 C -0.00475 0.62446 1.06407
 C734 C 0.00854 0.62983 1.09833
 C735 C 0.01282 0.66150 1.11159
 C736 C 0.00396 0.68846 1.09075
 C737 C -0.00966 0.68285 1.05644
 C738 C -0.01395 0.65111 1.04323
 C739 C -0.00747 0.59162 1.05009
 C740 C -0.00814 0.56367 1.03970
 H741 H 0.01604 0.60947 1.11466
 H742 H 0.02383 0.66478 1.13779
 H743 H -0.01721 0.70298 1.03985
 H744 H -0.02421 0.64739 1.01667
 C745 C 0.51941 0.63480 -0.05427
 C746 C 0.50814 0.66039 -0.03243
 C747 C 0.50107 0.69057 -0.04761
 C748 C 0.50520 0.69630 -0.08534
 C749 C 0.51632 0.66991 -0.10709
 C750 C 0.52336 0.63966 -0.09168
 C751 C 0.52305 0.60269 -0.03902
 C752 C 0.52323 0.57515 -0.02773
 H753 H 0.50393 0.65680 -0.00363
 H754 H 0.49109 0.70880 -0.02934
 H755 H 0.52018 0.67215 -0.13596
 H756 H 0.53143 0.61983 -0.10914
 C757 C 0.01696 1.13533 0.44611
 C758 C -0.00123 1.15850 0.46561
 C759 C -0.00849 1.18846 0.45006
 C760 C 0.00244 1.19611 0.41459
 C761 C 0.02006 1.17235 0.39483
 C762 C 0.02729 1.14223 0.41048
 C763 C 0.02152 1.10333 0.46125
 C764 C 0.02227 1.07583 0.47262
 H765 H -0.01029 1.15323 0.49274
 H766 H -0.02302 1.20554 0.46590
 H767 H 0.02865 1.17701 0.36755
 H768 H 0.04067 1.12420 0.39465
 C769 C 0.78832 0.67956 0.84674
 C770 C 0.78540 0.64575 0.84692
 C771 C 0.78038 0.62952 0.87964
 C772 C 0.77740 0.64704 0.91252
 C773 C 0.78391 0.68067 0.91223
 C774 C 0.78878 0.69685 0.87947
 C775 C 0.78346 0.69680 0.81374
 C776 C 0.77489 0.71123 0.78743
 H777 H 0.78515 0.63214 0.82171
 H778 H 0.77739 0.60338 0.87905
 H779 H 0.78447 0.69484 0.93699
 H780 H 0.79116 0.72308 0.87958
 C781 C 0.28908 0.17901 0.34597
 C782 C 0.28530 0.14529 0.34550
 C783 C 0.28017 0.12862 0.37791
 C784 C 0.27797 0.14566 0.41115
 C785 C 0.28546 0.17909 0.41148
 C786 C 0.29040 0.19572 0.37902
 C787 C 0.28413 0.19689 0.31344
 C788 C 0.27544 0.21170 0.28745
 H789 H 0.28444 0.13214 0.32003
 H790 H 0.27650 0.10258 0.37680
 H791 H 0.28666 0.19278 0.43655
 H792 H 0.29346 0.22187 0.37964
 C793 C 0.71163 0.32218 0.36807
 C794 C 0.71373 0.30249 0.39869
 C795 C 0.71946 0.31631 0.43267
 C796 C 0.72379 0.35014 0.43622
 C797 C 0.71863 0.36978 0.40562
 C798 C 0.71303 0.35589 0.37173
 C799 C 0.71472 0.30755 0.33287
 C800 C 0.72130 0.29388 0.30483
 H801 H 0.71268 0.27627 0.39599
 H802 H 0.72129 0.30018 0.45546
 H803 H 0.72069 0.39596 0.40765
 H804 H 0.71164 0.37133 0.34813
 C805 C 0.20891 0.82306 0.86723
 C806 C 0.21048 0.80361 0.89809
 C807 C 0.21606 0.81767 0.93197
 C808 C 0.22080 0.85148 0.93515
 C809 C 0.21602 0.87091 0.90431
 C810 C 0.21056 0.85678 0.87052
 C811 C 0.21260 0.80814 0.83229
 C812 C 0.21970 0.79431 0.80451
 H813 H 0.20923 0.77739 0.89567
 H814 H 0.21753 0.80173 0.95497
 H815 H 0.21834 0.89708 0.90607
 H816 H 0.20958 0.87202 0.84673
 C817 C 0.28244 0.82085 0.12861
 C818 C 0.26679 0.80284 0.10187
 C819 C 0.25700 0.81758 0.06995
 C820 C 0.26268 0.85098 0.06377
 C821 C 0.27985 0.86854 0.09056
 C822 C 0.28931 0.85365 0.12276
 C823 C 0.28566 0.80656 0.16385
 C824 C 0.28306 0.79312 0.19267
 H825 H 0.26056 0.77759 0.10649
 H826 H 0.24329 0.80276 0.05137
 H827 H 0.28641 0.89374 0.08718
 H828 H 0.30110 0.86798 0.14349
 C829 C 0.78603 0.31891 0.62951
 C830 C 0.79251 0.35183 0.62387
 C831 C 0.78291 0.36679 0.59176
 C832 C 0.76597 0.34920 0.56482
 C833 C 0.76071 0.31569 0.57074
 C834 C 0.77064 0.30088 0.60258
 C835 C 0.78922 0.30456 0.66474
 C836 C 0.78650 0.29116 0.69359
 H837 H 0.80408 0.36619 0.64474
 H838 H 0.78916 0.39209 0.58859
 H839 H 0.74722 0.30081 0.55203
 H840 H 0.76470 0.27553 0.60702
 C841 C 0.22459 0.17935 0.61052
 C842 C 0.22044 0.14581 0.60688
 C843 C 0.22702 0.13050 0.57353
 C844 C 0.23816 0.14849 0.54328
 C845 C 0.24120 0.18250 0.54737
 C846 C 0.23436 0.19767 0.58056
 C847 C 0.22513 0.19429 0.64575
 C848 C 0.22982 0.20741 0.67440
 H849 H 0.21356 0.13129 0.63020
 H850 H 0.22424 0.10450 0.57237
 H851 H 0.25051 0.19765 0.52577
 H852 H 0.23851 0.22357 0.58335
 C853 C 0.72337 0.68115 0.11188
 C854 C 0.71916 0.64761 0.10819
 C855 C 0.72605 0.63225 0.07492
 C856 C 0.73757 0.65019 0.04480
 C857 C 0.74074 0.68418 0.04893
 C858 C 0.73359 0.69940 0.08203
 C859 C 0.72355 0.69613 0.14713
 C860 C 0.72803 0.70925 0.17585
 H861 H 0.71196 0.63312 0.13142
 H862 H 0.72319 0.60626 0.07371
 H863 H 0.75036 0.69927 0.02743
 H864 H 0.73782 0.72528 0.08486
 C865 C 0.21895 0.62287 0.23580
 C866 C 0.23074 0.59828 0.25796
 C867 C 0.21613 0.56760 0.25765
 C868 C 0.18959 0.56110 0.23499
 C869 C 0.17893 0.58588 0.21181
 C870 C 0.19368 0.61637 0.21204
 C871 C 0.22965 0.65575 0.24052
 C872 C 0.23703 0.68371 0.24507
 H873 H 0.24995 0.60334 0.27695
 H874 H 0.22408 0.54979 0.27701
 H875 H 0.15762 0.58271 0.19536
 H876 H 0.18400 0.63547 0.19529
 C877 C 0.72021 0.12182 0.73697
 C878 C 0.73188 0.09707 0.75899
 C879 C 0.71699 0.06653 0.75867
 C880 C 0.69029 0.06033 0.73615
 C881 C 0.67971 0.08527 0.71314
 C882 C 0.69474 0.11562 0.71338
 C883 C 0.73126 0.15457 0.74169
 C884 C 0.73892 0.18246 0.74620
 H885 H 0.75125 0.10189 0.77785
 H886 H 0.72489 0.04858 0.77791
 H887 H 0.65829 0.08233 0.69683
 H888 H 0.68514 0.13486 0.69676
 C889 C 0.77383 0.11882 0.27558
 C890 C 0.76155 0.09446 0.25306
 C891 C 0.77432 0.06308 0.25447
 C892 C 0.79959 0.05572 0.27846
 C893 C 0.80986 0.08013 0.30280
 C894 C 0.79690 0.11133 0.30146
 C895 C 0.76695 0.15215 0.26838
 C896 C 0.76268 0.18024 0.26150
 H897 H 0.74392 0.10026 0.23259
 H898 H 0.76661 0.04551 0.23440
 H899 H 0.83013 0.07641 0.32055
 H900 H 0.80683 0.13023 0.31864
 C901 C 0.27437 0.61962 0.77600
 C902 C 0.26145 0.59496 0.75433
 C903 C 0.27440 0.56363 0.75563
 C904 C 0.30047 0.55668 0.77863
 C905 C 0.31153 0.58139 0.80212
 C906 C 0.29840 0.61251 0.80092
 C907 C 0.26704 0.65286 0.76878
 C908 C 0.26244 0.68089 0.76187
 H909 H 0.24308 0.60047 0.73457
 H910 H 0.26609 0.54579 0.73619
 H911 H 0.33244 0.57787 0.81901
 H912 H 0.30884 0.63164 0.81740
 C913 C 0.29894 0.37357 0.73413
 C914 C 0.27970 0.39828 0.71986
 C915 C 0.28946 0.43075 0.72305
 C916 C 0.31857 0.43869 0.74056
 C917 C 0.33786 0.41356 0.75435
 C918 C 0.32810 0.38126 0.75111
 C919 C 0.28820 0.34041 0.73347
 C920 C 0.27963 0.31250 0.73450
 H921 H 0.25696 0.39252 0.70683
 H922 H 0.27420 0.44960 0.71210
 H923 H 0.35993 0.41879 0.76886
 H924 H 0.34295 0.36231 0.76260
 C925 C 0.79889 0.87461 0.23438
 C926 C 0.83097 0.88143 0.24358
 C927 C 0.84148 0.91352 0.24662
 C928 C 0.81993 0.93969 0.24062
 C929 C 0.78779 0.93222 0.23027
 C930 C 0.77741 0.89998 0.22727
 C931 C 0.78775 0.84159 0.23452
 C932 C 0.77882 0.81380 0.23596
 H933 H 0.84768 0.86187 0.24952
 H934 H 0.86599 0.91714 0.25593
 H935 H 0.77048 0.95112 0.22416
 H936 H 0.75247 0.89487 0.21997
 C937 C 0.69443 0.87629 0.75687
 C938 C 0.71409 0.89932 0.77407
 C939 C 0.70345 0.93152 0.77791
 C940 C 0.67304 0.94098 0.76452
 C941 C 0.65324 0.91730 0.74813
 C942 C 0.66387 0.88528 0.74438
 C943 C 0.70583 0.84373 0.75045
 C944 C 0.71484 0.81641 0.74418
 H945 H 0.73784 0.89254 0.78386
 H946 H 0.71918 0.94909 0.79080
 H947 H 0.63004 0.92354 0.73668
 H948 H 0.64855 0.86768 0.73087
 C949 C 0.19451 0.37704 0.25718
 C950 C 0.21405 0.40029 0.27418
 C951 C 0.20331 0.43249 0.27762
 C952 C 0.17291 0.44172 0.26399
 C953 C 0.15325 0.41784 0.24776
 C954 C 0.16398 0.38582 0.24443
 C955 C 0.20604 0.34447 0.25108
 C956 C 0.21513 0.31714 0.24495
 H957 H 0.23779 0.39368 0.28415
 H958 H 0.21893 0.45022 0.29039
 H959 H 0.13008 0.42391 0.23614
 H960 H 0.14876 0.36806 0.23103
 C961 C 0.12370 0.22803 0.77904
 C962 C 0.11214 0.20084 0.79785
 C963 C 0.08397 0.20306 0.81982
 C964 C 0.06715 0.23285 0.82398
 C965 C 0.07816 0.25950 0.80324
 C966 C 0.10626 0.25719 0.78130
 C967 C 0.15566 0.22759 0.76205
 C968 C 0.18361 0.22903 0.75138
 H969 H 0.12547 0.17813 0.79641
 H970 H 0.07599 0.18132 0.83346
 H971 H 0.06543 0.28253 0.80488
 H972 H 0.11504 0.27853 0.76713
 C973 C 0.62251 0.73075 0.28174
 C974 C 0.60966 0.70273 0.29775
 C975 C 0.58149 0.70451 0.31975
 C976 C 0.56597 0.73463 0.32680
 C977 C 0.57838 0.76233 0.30898
 C978 C 0.60649 0.76046 0.28699
 C979 C 0.65429 0.73008 0.26437
 C980 C 0.68215 0.73121 0.25337
 H981 H 0.62189 0.67958 0.29400
 H982 H 0.57240 0.68210 0.33098
 H983 H 0.56663 0.78570 0.31275
 H984 H 0.61629 0.78242 0.27498
 C985 C 0.61959 0.27946 0.20541
 C986 C 0.61674 0.29337 0.17120
 C987 C 0.58728 0.29177 0.15302
 C988 C 0.55960 0.27688 0.16901
 C989 C 0.56262 0.26343 0.20388
 C990 C 0.59236 0.26483 0.22195
 C991 C 0.65158 0.27594 0.22033
 C992 C 0.67917 0.27133 0.22975
 H993 H 0.63784 0.30393 0.15764
 H994 H 0.58683 0.30077 0.12555
 H995 H 0.54264 0.25030 0.21649
 H996 H 0.59450 0.25313 0.24801
 C997 C 0.11870 0.77990 0.70592
 C998 C 0.11536 0.79552 0.67272
 C999 C 0.08587 0.79416 0.65458
 C1000 C 0.05865 0.77777 0.66968
 C1001 C 0.06214 0.76270 0.70363
 C1002 C 0.09190 0.76388 0.72163
 C1003 C 0.15081 0.77616 0.72039
 C1004 C 0.17844 0.77146 0.72957
 H1005 H 0.13616 0.80722 0.65979
 H1006 H 0.08517 0.80445 0.62772
 H1007 H 0.04254 0.74845 0.71541
 H1008 H 0.09445 0.75090 0.74687
 C1009 C 0.87276 0.74170 0.68430
 C1010 C 0.89935 0.73234 0.70504
 C1011 C 0.93128 0.73725 0.69192
 C1012 C 0.93715 0.75167 0.65783
 C1013 C 0.91025 0.76068 0.63710
 C1014 C 0.87839 0.75577 0.65025
 C1015 C 0.83970 0.73857 0.69826
 C1016 C 0.81151 0.73788 0.70851
 H1017 H 0.89543 0.72153 0.73146
 H1018 H 0.95137 0.72959 0.70842
 H1019 H 0.91372 0.77233 0.61110
 H1020 H 0.85808 0.76343 0.63404
 C1021 C 0.37318 0.24252 0.18441
 C1022 C 0.39976 0.23323 0.20520
 C1023 C 0.43170 0.23791 0.19200
 C1024 C 0.43761 0.25203 0.15775
 C1025 C 0.41072 0.26100 0.13697
 C1026 C 0.37885 0.25632 0.15022
 C1027 C 0.34010 0.23952 0.19842
 C1028 C 0.31192 0.23886 0.20874
 H1029 H 0.39582 0.22262 0.23173
 H1030 H 0.45176 0.23027 0.20854
 H1031 H 0.41422 0.27240 0.11084
 H1032 H 0.35856 0.26392 0.13394
 C1033 C 0.38551 0.76888 0.29938
 C1034 C 0.40966 0.75051 0.28156
 C1035 C 0.43930 0.74445 0.29832
 C1036 C 0.44556 0.75673 0.33336
 C1037 C 0.42101 0.77501 0.35119
 C1038 C 0.39126 0.78104 0.33432
 C1039 C 0.35361 0.77157 0.28370
 C1040 C 0.32614 0.77104 0.27245
 H1041 H 0.40529 0.74015 0.25499
 H1042 H 0.45697 0.72940 0.28397
 H1043 H 0.42469 0.78477 0.37803
 H1044 H 0.37250 0.79471 0.34881
 C1045 C 0.88705 0.26695 0.80385
 C1046 C 0.91583 0.27013 0.78344
 C1047 C 0.94601 0.26464 0.79936
 C1048 C 0.94832 0.25554 0.83628
 C1049 C 0.91890 0.25325 0.85670
 C1050 C 0.88873 0.25876 0.84058
 C1051 C 0.85566 0.26942 0.78683
 C1052 C 0.82848 0.26902 0.77467
 H1053 H 0.91499 0.27650 0.75501
 H1054 H 0.96741 0.26833 0.78238
 H1055 H 0.91853 0.24570 0.88469
 H1056 H 0.86656 0.25578 0.85665
 C1057 C 0.57092 0.94954 0.63796
 C1058 C 0.60413 0.95577 0.63235
 C1059 C 0.62227 0.96986 0.65992
 C1060 C 0.60734 0.97795 0.69341
 C1061 C 0.57473 0.96918 0.69995
 C1062 C 0.55648 0.95531 0.67216
 C1063 C 0.55068 0.94712 0.60683
 C1064 C 0.53431 0.95157 0.58067
 H1065 H 0.61542 0.95208 0.60581
 H1066 H 0.64768 0.97553 0.65460
 H1067 H 0.56284 0.97498 0.72568
 H1068 H 0.53059 0.95141 0.67653
 C1069 C 0.07095 0.44977 1.13670
 C1070 C 0.10417 0.45600 1.13123
 C1071 C 0.12223 0.47006 1.15889
 C1072 C 0.10718 0.47814 1.19234
 C1073 C 0.07457 0.46933 1.19876
 C1074 C 0.05641 0.45548 1.17088
 C1075 C 0.05077 0.44754 1.10550
 C1076 C 0.03442 0.45222 1.07937
 H1077 H 0.11553 0.45235 1.10472
 H1078 H 0.14764 0.47577 1.15367
 H1079 H 0.06261 0.47512 1.22444
 H1080 H 0.03051 0.45158 1.17514
 C1081 C -0.07572 0.02764 1.13223
 C1082 C -0.07944 0.05338 1.15686
 C1083 C -0.09699 0.04873 1.18930
 C1084 C -0.11086 0.01823 1.19740
 C1085 C -0.10633 -0.00761 1.17283
 C1086 C -0.08889 -0.00289 1.14044
 C1087 C -0.05697 0.03112 1.09923
 C1088 C -0.04065 0.02945 1.07185
 H1089 H -0.06888 0.07693 1.15101
 H1090 H -0.09988 0.06900 1.20798
 H1091 H -0.11715 -0.03116 1.17803
 H1092 H -0.08580 -0.02308 1.12164
 C1093 C 0.42557 0.52775 0.63223
 C1094 C 0.42143 0.55367 0.65656
 C1095 C 0.40339 0.54923 0.68870
 C1096 C 0.38945 0.51876 0.69680
 C1097 C 0.39430 0.49278 0.67249
 C1098 C 0.41222 0.49729 0.64040
 C1099 C 0.44496 0.53095 0.59969
 C1100 C 0.46178 0.52899 0.57271
 H1101 H 0.43212 0.57718 0.65074
 H1102 H 0.40026 0.56960 0.70719
 H1103 H 0.38345 0.46925 0.67770
 H1104 H 0.41563 0.47698 0.62183
 C1105 C 0.43207 0.46112 -0.12982
 C1106 C 0.44317 0.46580 -0.16557
 C1107 C 0.42111 0.47399 -0.19245
 C1108 C 0.38800 0.47814 -0.18343
 C1109 C 0.37674 0.47088 -0.14818
 C1110 C 0.39871 0.46244 -0.12150
 C1111 C 0.45450 0.46329 -0.10066
 C1112 C 0.47176 0.46971 -0.07568
 H1113 H 0.46903 0.46548 -0.17210
 H1114 H 0.43024 0.47953 -0.21946
 H1115 H 0.35118 0.47335 -0.14083
 H1116 H 0.38993 0.45938 -0.09381
 C1117 C -0.06898 0.96113 0.37162
 C1118 C -0.10241 0.96211 0.37958
 C1119 C -0.12424 0.97020 0.35261
 C1120 C -0.11276 0.97748 0.31744
 C1121 C -0.07954 0.97363 0.30879
 C1122 C -0.05763 0.96575 0.33594
 C1123 C -0.04678 0.96361 0.40099
 C1124 C -0.02958 0.97023 0.42596
 H1125 H -0.11140 0.95907 0.40719
 H1126 H -0.14988 0.97245 0.35968
 H1127 H -0.07023 0.97920 0.28186
 H1128 H -0.03173 0.96568 0.32969
 C1129 C 0.06075 0.53085 0.37655
 C1130 C 0.07373 0.50016 0.36811
 C1131 C 0.09267 0.49548 0.33663
 C1132 C 0.09893 0.52153 0.31322
 C1133 C 0.08494 0.55210 0.32132
 C1134 C 0.06599 0.55674 0.35288
 C1135 C 0.04226 0.53488 0.40975
 C1136 C 0.02717 0.53388 0.43803
 H1137 H 0.06966 0.47992 0.38627
 H1138 H 0.10342 0.47185 0.33143
 H1139 H 0.08896 0.57254 0.30346
 H1140 H 0.05580 0.58048 0.35897
 C1141 C 0.56053 0.03041 -0.12293
 C1142 C 0.57345 -0.00032 -0.13130
 C1143 C 0.59269 -0.00500 -0.16254
 C1144 C 0.59932 0.02108 -0.18579
 C1145 C 0.58542 0.05171 -0.17774
 C1146 C 0.56617 0.05635 -0.14642
 C1147 C 0.54165 0.03439 -0.08999
 C1148 C 0.52623 0.03328 -0.06194
 H1149 H 0.56908 -0.02060 -0.11327
 H1150 H 0.60336 -0.02868 -0.16770
 H1151 H 0.58972 0.07217 -0.19549
 H1152 H 0.55603 0.08012 -0.14037
 C1153 C 0.64350 0.53675 -0.02337
 C1154 C 0.65441 0.55323 0.00739
 C1155 C 0.68523 0.56758 0.00716
 C1156 C 0.70555 0.56568 -0.02388
 C1157 C 0.69506 0.54750 -0.05401
 C1158 C 0.66413 0.53322 -0.05379
 C1159 C 0.61029 0.52579 -0.02425
 C1160 C 0.58202 0.51803 -0.02344
 H1161 H 0.63856 0.55617 0.03105
 H1162 H 0.69218 0.58177 0.03046
 H1163 H 0.71031 0.54533 -0.07821
 H1164 H 0.65592 0.52042 -0.07771
 C1165 C 0.14294 1.03670 0.47553
 C1166 C 0.15432 1.05295 0.50622
 C1167 C 0.18535 1.06682 0.50575
 C1168 C 0.20543 1.06467 0.47454
 C1169 C 0.19444 1.04675 0.44445
 C1170 C 0.16328 1.03295 0.44491
 C1171 C 0.10961 1.02612 0.47504
 C1172 C 0.08128 1.01860 0.47630
 H1173 H 0.13869 1.05605 0.53004
 H1174 H 0.19265 1.08083 0.52904
 H1175 H 0.20949 1.04441 0.42012
 H1176 H 0.15471 1.02032 0.42104
 C1177 C 0.13370 -0.03257 1.03767
 C1178 C 0.16047 -0.01969 1.01856
 C1179 C 0.18926 -0.03765 1.01514
 C1180 C 0.19123 -0.06855 1.03069
 C1181 C 0.16547 -0.07997 1.05261
 C1182 C 0.13675 -0.06198 1.05612
 C1183 C 0.10179 -0.01950 1.03237
 C1184 C 0.07443 -0.01102 1.02623
 H1185 H 0.15817 0.00282 1.00377
 H1186 H 0.20866 -0.02899 0.99734
 H1187 H 0.16637 -0.10417 1.06392
 H1188 H 0.11600 -0.07236 1.07053
 C1189 C 0.63656 0.46600 0.53988
 C1190 C 0.66369 0.47895 0.52148
 C1191 C 0.69228 0.46066 0.51786
 C1192 C 0.69366 0.42933 0.53245
 C1193 C 0.66748 0.41771 0.55360
 C1194 C 0.63899 0.43604 0.55735
 C1195 C 0.60486 0.47967 0.53470
 C1196 C 0.57758 0.48847 0.52859
 H1197 H 0.66188 0.50188 0.50742
 H1198 H 0.71201 0.46951 0.50066
 H1199 H 0.66792 0.39322 0.56416
 H1200 H 0.61796 0.42559 0.57115
 C1201 C -0.13775 0.45982 0.49623
 C1202 C -0.16468 0.47092 0.51668
 C1203 C -0.19408 0.45370 0.51596
 C1204 C -0.19661 0.42534 0.49475
 C1205 C -0.16929 0.41449 0.47444
 C1206 C -0.14013 0.43167 0.47515
 C1207 C -0.10682 0.47570 0.49821
 C1208 C -0.07991 0.48697 0.49981
 H1209 H -0.16285 0.49259 0.53338
 H1210 H -0.21478 0.46262 0.53173
 H1211 H -0.17010 0.39223 0.45866
 H1212 H -0.11922 0.42263 0.45974
 C1213 C 0.36030 -0.03996 -0.00537
 C1214 C 0.33344 -0.02842 0.01489
 C1215 C 0.30385 -0.04530 0.01418
 C1216 C 0.30107 -0.07376 -0.00680
 C1217 C 0.32832 -0.08506 -0.02693
 C1218 C 0.35767 -0.06821 -0.02624
 C1219 C 0.39141 -0.02447 -0.00331
 C1220 C 0.41842 -0.01350 -0.00154
 H1221 H 0.33547 -0.00668 0.03143
 H1222 H 0.28321 -0.03606 0.02981
 H1223 H 0.32730 -0.10740 -0.04253
 H1224 H 0.37852 -0.07758 -0.04149
 C1225 C 0.37201 1.04385 0.53652
 C1226 C 0.37353 1.07738 0.53105
 C1227 C 0.34642 1.09393 0.51861
 C1228 C 0.31743 1.07711 0.51164
 C1229 C 0.31515 1.04392 0.51969
 C1230 C 0.34257 1.02721 0.53177
 C1231 C 0.40204 1.02648 0.53999
 C1232 C 0.42842 1.01379 0.53886
 H1233 H 0.39629 1.09038 0.53416
 H1234 H 0.34851 1.11960 0.51274
 H1235 H 0.29300 1.03060 0.51422
 H1236 H 0.34134 1.00114 0.53535
 C1237 C -0.12812 0.54493 1.03698
 C1238 C -0.12649 0.57850 1.03176
 C1239 C -0.15365 0.59527 1.01979
 C1240 C -0.18280 0.57865 1.01303
 C1241 C -0.18515 0.54542 1.02083
 C1242 C -0.15769 0.52848 1.03245
 C1243 C -0.09812 0.52741 1.04007
 C1244 C -0.07175 0.51470 1.03869
 H1245 H -0.10364 0.59137 1.03470
 H1246 H -0.15148 0.62097 1.01407
 H1247 H -0.20742 0.53223 1.01549
 H1248 H -0.15902 0.50239 1.03584
 C1249 C 0.00973 0.64288 0.53968
 C1250 C 0.02622 0.64523 0.57237
 C1251 C 0.02616 0.67428 0.59203
 C1252 C 0.00977 0.70187 0.57926
 C1253 C -0.00657 0.69951 0.54610
 C1254 C -0.00668 0.67010 0.52647
 C1255 C 0.00698 0.61129 0.52283
 C1256 C 0.00412 0.58338 0.51313
 H1257 H 0.03838 0.62420 0.58333
 H1258 H 0.03822 0.67468 0.61786
 H1259 H -0.01919 0.72028 0.53532
 H1260 H -0.01998 0.66844 0.50145
 C1261 C 0.50879 0.14169 0.04021
 C1262 C 0.52516 0.14398 0.07300
 C1263 C 0.52538 0.17311 0.09250
 C1264 C 0.50942 0.20087 0.07949
 C1265 C 0.49316 0.19855 0.04629
 C1266 C 0.49277 0.16906 0.02680
 C1267 C 0.50590 0.11011 0.02334
 C1268 C 0.50291 0.08225 0.01348
 H1269 H 0.53704 0.12285 0.08410
 H1270 H 0.53738 0.17349 0.11837
 H1271 H 0.48085 0.21943 0.03533
 H1272 H 0.47957 0.16748 0.00170
 C1273 C -0.01723 0.13552 0.96864
 C1274 C 0.01102 0.15420 0.97269
 C1275 C 0.01620 0.18192 0.95160
 C1276 C -0.00687 0.19162 0.92618
 C1277 C -0.03623 0.17422 0.92388
 C1278 C -0.04128 0.14613 0.94483
 C1279 C -0.01837 0.10323 0.98421
 C1280 C -0.01606 0.07551 0.99479
 H1281 H 0.03005 0.14622 0.99053
 H1282 H 0.03914 0.19477 0.95360
 H1283 H -0.05409 0.18093 0.90404
 H1284 H -0.06305 0.13174 0.94092
 C1285 C 0.47899 0.63091 0.46265
 C1286 C 0.48709 0.66078 0.47882
 C1287 C 0.49068 0.68880 0.45746
 C1288 C 0.48658 0.68707 0.41974
 C1289 C 0.47687 0.65750 0.40409
 C1290 C 0.47295 0.62973 0.42538
 C1291 C 0.48160 0.60058 0.48216
 C1292 C 0.48592 0.57387 0.49484
 H1293 H 0.49232 0.66205 0.50747
 H1294 H 0.49885 0.71120 0.46993
 H1295 H 0.47411 0.65551 0.37499
 H1296 H 0.46708 0.60684 0.41234
 C1297 C 0.50642 0.85573 0.47102
 C1298 C 0.47799 0.84314 0.45578
 C1299 C 0.47920 0.81488 0.43425
 C1300 C 0.50895 0.79885 0.42720
 C1301 C 0.53713 0.81088 0.44410
 C1302 C 0.53588 0.83911 0.46561
 C1303 C 0.50582 0.88723 0.48890
 C1304 C 0.50475 0.91454 0.50139
 H1305 H 0.45501 0.85580 0.45949
 H1306 H 0.45707 0.80658 0.42189
 H1307 H 0.56039 0.79885 0.44022
 H1308 H 0.55811 0.84849 0.47713
 C1309 C 0.00929 0.35976 0.96394
 C1310 C -0.00731 0.33145 0.97460
 C1311 C -0.00612 0.30341 0.95249
 C1312 C 0.01165 0.30334 0.91940
 C1313 C 0.02796 0.33205 0.90901
 C1314 C 0.02684 0.35980 0.93105
 C1315 C 0.00699 0.38972 0.98477
 C1316 C 0.00514 0.41633 0.99896
 H1317 H -0.02130 0.33111 0.99981
 H1318 H -0.01876 0.28176 0.96152
 H1319 H 0.04121 0.33338 0.88340
 H1320 H 0.03935 0.38159 0.92207
 C1321 C 0.48388 0.36928 0.02559
 C1322 C 0.50889 0.34690 0.01832
 C1323 C 0.51138 0.31878 0.03911
 C1324 C 0.48879 0.31262 0.06731
 C1325 C 0.46233 0.33380 0.07279
 C1326 C 0.45994 0.36211 0.05205
 C1327 C 0.48650 0.40164 0.01094
 C1328 C 0.49097 0.42929 0.00127
 H1329 H 0.52782 0.35231 -0.00163
 H1330 H 0.53231 0.30305 0.03502
 H1331 H 0.44516 0.32984 0.09501
 H1332 H 0.44075 0.37945 0.05837
 C1333 C -0.01735 0.87023 0.52686
 C1334 C -0.04069 0.86356 0.55413
 C1335 C -0.03835 0.83515 0.57468
 C1336 C -0.01259 0.81335 0.56816
 C1337 C 0.00930 0.81901 0.53916
 C1338 C 0.00688 0.84726 0.51857
 C1339 C -0.01439 0.90258 0.51234
 C1340 C -0.00972 0.93021 0.50273
 H1341 H -0.05925 0.88134 0.56121
 H1342 H -0.05494 0.83156 0.59752
 H1343 H 0.02974 0.80280 0.53430
 H1344 H 0.02536 0.85229 0.49798
 C1345 C 0.20005 0.31958 0.10922
 C1346 C 0.20621 0.35263 0.11488
 C1347 C 0.22032 0.37115 0.08721
 C1348 C 0.22848 0.35675 0.05356
 C1349 C 0.21980 0.32428 0.04702
 C1350 C 0.20593 0.30566 0.07491
 C1351 C 0.19745 0.29899 0.14031
 C1352 C 0.20165 0.28248 0.16654
 H1353 H 0.20243 0.36352 0.14150
 H1354 H 0.22596 0.39641 0.09256
 H1355 H 0.22570 0.31278 0.02120
 H1356 H 0.20208 0.27990 0.07049
 C1357 C 0.70036 0.81801 0.60786
 C1358 C 0.70763 0.80399 0.57387
 C1359 C 0.72169 0.82280 0.54623
 C1360 C 0.72923 0.85555 0.55274
 C1361 C 0.71959 0.86998 0.58593
 C1362 C 0.70529 0.85129 0.61333
 C1363 C 0.69753 0.79762 0.63914
 C1364 C 0.70150 0.78134 0.66563
 H1365 H 0.70471 0.77809 0.56962
 H1366 H 0.72868 0.81130 0.52075
 H1367 H 0.72434 0.89545 0.59120
 H1368 H 0.70042 0.86230 0.63968
 C1369 C 0.27820 0.67554 0.62004
 C1370 C 0.24766 0.66264 0.61155
 C1371 C 0.24344 0.64549 0.57918
 C1372 C 0.26981 0.64096 0.55492
 C1373 C 0.30031 0.65460 0.56328
 C1374 C 0.30446 0.67185 0.59568
 C1375 C 0.28119 0.69400 0.65299
 C1376 C 0.27906 0.71016 0.68024
 H1377 H 0.22707 0.66573 0.63012
 H1378 H 0.21988 0.63488 0.57378
 H1379 H 0.32099 0.65173 0.54484
 H1380 H 0.32802 0.68221 0.60172
 C1381 C 0.77673 0.17485 0.11958
 C1382 C 0.80240 0.17138 0.09440
 C1383 C 0.79755 0.15414 0.06213
 C1384 C 0.76693 0.14031 0.05470
 C1385 C 0.74113 0.14467 0.07974
 C1386 C 0.74605 0.16181 0.11199
 C1387 C 0.78046 0.19329 0.15244
 C1388 C 0.77891 0.20946 0.17972
 H1389 H 0.82606 0.18187 0.09972
 H1390 H 0.81780 0.15140 0.04307
 H1391 H 0.71749 0.13391 0.07505
 H1392 H 0.72590 0.16475 0.13118
 C1393 C 0.71137 0.18056 0.87894
 C1394 C 0.71138 0.14706 0.87240
 C1395 C 0.71878 0.12572 0.90022
 C1396 C 0.72632 0.13773 0.93483
 C1397 C 0.72333 0.17109 0.94215
 C1398 C 0.71616 0.19252 0.91413
 C1399 C 0.71463 0.20193 0.84860
 C1400 C 0.72178 0.21846 0.82293
 H1401 H 0.70820 0.13758 0.84518
 H1402 H 0.72045 0.09997 0.89418
 H1403 H 0.72914 0.18079 0.96865
 H1404 H 0.71680 0.21845 0.91930
 C1405 C 0.21306 0.68056 0.37845
 C1406 C 0.21474 0.64712 0.37177
 C1407 C 0.22333 0.62611 0.39946
 C1408 C 0.23042 0.63838 0.43410
 C1409 C 0.22594 0.67158 0.44151
 C1410 C 0.21758 0.69268 0.41362
 C1411 C 0.21482 0.70213 0.34816
 C1412 C 0.22088 0.71897 0.32242
 H1413 H 0.21178 0.63753 0.34456
 H1414 H 0.22603 0.60046 0.39335
 H1415 H 0.23132 0.68148 0.46803
 H1416 H 0.21696 0.71861 0.41888
 C1417 C 0.78649 0.81011 0.37263
 C1418 C 0.76783 0.79975 0.40264
 C1419 C 0.76241 0.82062 0.43229
 C1420 C 0.77561 0.85208 0.43216
 C1421 C 0.79448 0.86215 0.40191
 C1422 C 0.79982 0.84132 0.37238
 C1423 C 0.78751 0.79077 0.34008
 C1424 C 0.78452 0.77559 0.31235
 H1425 H 0.75677 0.77585 0.40270
 H1426 H 0.74803 0.81214 0.45523
 H1427 H 0.80441 0.88649 0.40059
 H1428 H 0.81345 0.84992 0.34888
 C1429 C 0.28219 0.30902 0.87147
 C1430 C 0.30810 0.31466 0.89469
 C1431 C 0.30340 0.33426 0.92551
 C1432 C 0.27275 0.34848 0.93330
 C1433 C 0.24671 0.34189 0.91030
 C1434 C 0.25145 0.32232 0.87959
 C1435 C 0.28618 0.28995 0.83892
 C1436 C 0.28486 0.27465 0.81107
 H1437 H 0.33188 0.30428 0.88881
 H1438 H 0.32382 0.33853 0.94307
 H1439 H 0.22303 0.35282 0.91523
 H1440 H 0.23120 0.31799 0.86173
 C1441 C 0.79613 0.38717 0.77706
 C1442 C 0.82427 0.39155 0.79721
 C1443 C 0.83892 0.42203 0.79911
 C1444 C 0.82557 0.44871 0.78092
 C1445 C 0.79728 0.44412 0.76061
 C1446 C 0.78261 0.41344 0.75870
 C1447 C 0.78257 0.35515 0.77391
 C1448 C 0.77299 0.32765 0.77102
 H1449 H 0.83520 0.37125 0.81104
 H1450 H 0.86117 0.42446 0.81418
 H1451 H 0.78637 0.46422 0.74650
 H1452 H 0.76095 0.41017 0.74275
 C1453 C 0.29375 0.88833 0.27696
 C1454 C 0.28062 0.91480 0.25860
 C1455 C 0.29573 0.94527 0.26053
 C1456 C 0.32408 0.94943 0.28085
 C1457 C 0.33701 0.92257 0.29908
 C1458 C 0.32191 0.89231 0.29717
 C1459 C 0.27989 0.85647 0.27362
 C1460 C 0.27021 0.82903 0.27057
 H1461 H 0.25896 0.91184 0.24258
 H1462 H 0.28515 0.96552 0.24638
 H1463 H 0.35929 0.92464 0.31416
 H1464 H 0.33255 0.87184 0.31098
 C1465 C 0.21622 0.88429 0.71157
 C1466 C 0.22910 0.91059 0.73087
 C1467 C 0.21147 0.93955 0.73398
 C1468 C 0.18090 0.94219 0.71792
 C1469 C 0.16956 0.91689 0.69587
 C1470 C 0.18720 0.88798 0.69269
 C1471 C 0.22883 0.85224 0.71703
 C1472 C 0.23708 0.82487 0.72342
 H1473 H 0.25128 0.90781 0.74599
 H1474 H 0.22005 0.95857 0.75190
 H1475 H 0.14558 0.91829 0.68417
 H1476 H 0.17681 0.86761 0.67814
 C1477 C 0.71908 0.38460 0.21267
 C1478 C 0.73147 0.40980 0.23404
 C1479 C 0.71422 0.43892 0.23771
 C1480 C 0.68454 0.44287 0.22006
 C1481 C 0.67389 0.41881 0.19593
 C1482 C 0.69113 0.38968 0.19227
 C1483 C 0.73077 0.35211 0.21750
 C1484 C 0.73841 0.32451 0.22355
 H1485 H 0.75280 0.40593 0.25032
 H1486 H 0.72222 0.45694 0.25717
 H1487 H 0.65055 0.42118 0.18296
 H1488 H 0.68110 0.37013 0.17609
 C1489 C 0.70739 0.61274 0.25326
 C1490 C 0.72031 0.58614 0.23392
 C1491 C 0.70388 0.55635 0.23436
 C1492 C 0.67452 0.55310 0.25422
 C1493 C 0.66165 0.58017 0.27310
 C1494 C 0.67804 0.60973 0.27266
 C1495 C 0.72297 0.64380 0.25216
 C1496 C 0.73422 0.67069 0.25117
 H1497 H 0.74292 0.58848 0.21849
 H1498 H 0.71427 0.53584 0.21966
 H1499 H 0.63860 0.57871 0.28779
 H1500 H 0.66762 0.63037 0.28718
 C1501 C 0.20886 0.11131 0.75228
 C1502 C 0.17972 0.10871 0.77215
 C1503 C 0.16276 0.07948 0.77258
 C1504 C 0.17483 0.05230 0.75324
 C1505 C 0.20404 0.05510 0.73301
 C1506 C 0.22105 0.08459 0.73255
 C1507 C 0.22478 0.14219 0.75094
 C1508 C 0.23610 0.16904 0.74982
 H1509 H 0.16985 0.12945 0.78694
 H1510 H 0.13983 0.07843 0.78753
 H1511 H 0.21383 0.03452 0.71794
 H1512 H 0.24348 0.08661 0.71675
 C1513 C 0.28063 0.11562 0.22137
 C1514 C 0.30638 0.10196 0.20095
 C1515 C 0.32231 0.07430 0.21361
 C1516 C 0.31294 0.06078 0.24706
 C1517 C 0.28589 0.07336 0.26620
 C1518 C 0.26959 0.10045 0.25316
 C1519 C 0.26928 0.14789 0.21422
 C1520 C 0.26019 0.17564 0.21288
 H1521 H 0.31539 0.11376 0.17659
 H1522 H 0.34350 0.06509 0.19886
 H1523 H 0.27865 0.06338 0.29224
 H1524 H 0.24986 0.11100 0.26929
 C1525 C 0.77986 0.61469 0.72176
 C1526 C 0.80496 0.60044 0.70082
 C1527 C 0.82094 0.57283 0.71353
 C1528 C 0.81226 0.55993 0.74751
 C1529 C 0.78576 0.57305 0.76716
 C1530 C 0.76943 0.60012 0.75413
 C1531 C 0.76864 0.64695 0.71439
 C1532 C 0.75967 0.67472 0.71290
 H1533 H 0.81350 0.61179 0.67599
 H1534 H 0.84171 0.56322 0.69837
 H1535 H 0.77904 0.56356 0.79360
 H1536 H 0.75021 0.61111 0.77065
 C1537 C 0.89147 0.75859 0.20814
 C1538 C 0.91879 0.74265 0.22176
 C1539 C 0.94854 0.74301 0.20221
 C1540 C 0.95116 0.75918 0.16876
 C1541 C 0.92343 0.77499 0.15549
 C1542 C 0.89403 0.77478 0.17505
 C1543 C 0.85970 0.75599 0.22531
 C1544 C 0.83171 0.75337 0.23555
 H1545 H 0.91699 0.72960 0.24712
 H1546 H 0.96941 0.73080 0.21333
 H1547 H 0.92408 0.78692 0.12944
 H1548 H 0.87294 0.78660 0.16381
 C1549 C 0.39305 0.25652 0.70702
 C1550 C 0.42015 0.24024 0.72073
 C1551 C 0.44999 0.24032 0.70133
 C1552 C 0.45295 0.25657 0.66796
 C1553 C 0.42540 0.27255 0.65450
 C1554 C 0.39590 0.27261 0.67389
 C1555 C 0.36120 0.25441 0.72415
 C1556 C 0.33316 0.25212 0.73436
 H1557 H 0.41812 0.22721 0.74609
 H1558 H 0.47071 0.22793 0.71255
 H1559 H 0.42630 0.28452 0.62847
 H1560 H 0.37498 0.28465 0.66253
 C1561 C 0.38255 0.73627 0.78648
 C1562 C 0.39595 0.71031 0.80578
 C1563 C 0.42371 0.71518 0.82711
 C1564 C 0.43786 0.74620 0.82989
 C1565 C 0.42515 0.77159 0.80912
 C1566 C 0.39787 0.76665 0.78765
 C1567 C 0.35091 0.73389 0.76969
 C1568 C 0.32351 0.73545 0.75807
 H1569 H 0.38420 0.68675 0.80559
 H1570 H 0.43291 0.69529 0.84301
 H1571 H 0.43569 0.79568 0.81054
 H1572 H 0.38777 0.78705 0.77325
 C1573 C 0.88235 0.23894 0.28777
 C1574 C 0.88935 0.27013 0.30047
 C1575 C 0.91643 0.27585 0.32183
 C1576 C 0.93774 0.25045 0.33145
 C1577 C 0.93154 0.21920 0.31681
 C1578 C 0.90378 0.21343 0.29559
 C1579 C 0.85154 0.23419 0.26969
 C1580 C 0.82428 0.23472 0.25751
 H1581 H 0.87329 0.29022 0.29450
 H1582 H 0.92067 0.30069 0.33023
 H1583 H 0.94678 0.19872 0.32337
 H1584 H 0.89863 0.18902 0.28618
 C1585 C 0.10469 0.25805 0.27854
 C1586 C 0.09036 0.28805 0.28703
 C1587 C 0.06245 0.28963 0.30946
 C1588 C 0.04842 0.26121 0.32426
 C1589 C 0.06194 0.23106 0.31393
 C1590 C 0.08997 0.22952 0.29149
 C1591 C 0.13621 0.25678 0.26011
 C1592 C 0.16358 0.25524 0.24727
 H1593 H 0.10138 0.31036 0.27731
 H1594 H 0.05229 0.31330 0.31583
 H1595 H 0.05191 0.20874 0.32440
 H1596 H 0.10084 0.20609 0.28533
 C1597 C 0.60499 0.75660 0.77977
 C1598 C 0.59222 0.72819 0.79535
 C1599 C 0.56447 0.72955 0.81821
 C1600 C 0.54921 0.75941 0.82614
 C1601 C 0.56147 0.78761 0.80915
 C1602 C 0.58914 0.78622 0.78633
 C1603 C 0.63614 0.75580 0.76054
 C1604 C 0.66329 0.75449 0.74711
 H1605 H 0.60440 0.70512 0.79088
 H1606 H 0.55598 0.70748 0.83096
 H1607 H 0.55001 0.81097 0.81404
 H1608 H 0.59874 0.80843 0.77469
 C1609 C 0.62202 0.23102 0.72281
 C1610 C 0.59899 0.25515 0.73122
 C1611 C 0.57068 0.25770 0.71096
 C1612 C 0.56500 0.23606 0.68214
 C1613 C 0.58680 0.21032 0.67561
 C1614 C 0.61529 0.20786 0.69584
 C1615 C 0.65450 0.23392 0.73686
 C1616 C 0.68223 0.23845 0.74607
 H1617 H 0.60405 0.27348 0.75160
 H1618 H 0.55450 0.27813 0.71582
 H1619 H 0.58324 0.19394 0.65290
 H1620 H 0.63311 0.18936 0.68868
 C1621 C 0.11961 0.73276 0.22271
 C1622 C 0.09725 0.75773 0.23015
 C1623 C 0.06919 0.76060 0.20953
 C1624 C 0.06308 0.73843 0.18135
 C1625 C 0.08417 0.71197 0.17577
 C1626 C 0.11243 0.70919 0.19633
 C1627 C 0.15204 0.73515 0.23695
 C1628 C 0.17980 0.73944 0.24618
 H1629 H 0.10269 0.77638 0.25003
 H1630 H 0.05352 0.78153 0.21369
 H1631 H 0.08026 0.69512 0.15356
 H1632 H 0.12976 0.69005 0.18988
   
