data_POSCAR
  _audit_creation_date              2014-09-24
  _audit_creation_method            'ToBaCCo'
  _symmetry_space_group_name_H-M    'P1'
  _symmetry_Int_Tables_number       1
  _symmetry_cell_setting            triclinic
  loop_
  _symmetry_equiv_pos_as_xyz
 x,y,z
_cell_length_a 93.0095
_cell_length_b 93.0389
_cell_length_c 92.9537
_cell_angle_alpha 90.069100
_cell_angle_beta 90.026900
_cell_angle_gamma 90.005700
loop_
  _atom_site_label
  _atom_site_type_symbol
  _atom_site_fract_x
  _atom_site_fract_y
  _atom_site_fract_z
N1 N 0.30970 0.43150 0.90012
 N2 N 0.32040 0.44071 0.90005
 C3 C 0.31890 0.44954 0.88867
 C4 C 0.30655 0.44568 0.88121
 C5 C 0.30105 0.43413 0.88883
 H6 H 0.32608 0.45831 0.88617
 H7 H 0.29146 0.42805 0.88640
 Cu8 Cu 0.33472 0.44060 0.91537
 Cu9 Cu 0.30718 0.41742 0.91537
 Cu10 Cu 0.33470 0.41436 0.94030
 N11 N 0.34921 0.43988 0.93048
 N12 N 0.34931 0.42937 0.93990
 C13 C 0.36023 0.43138 0.94916
 C14 C 0.36741 0.44394 0.94551
 C15 C 0.36003 0.44902 0.93353
 H16 H 0.36257 0.42425 0.95801
 H17 H 0.36234 0.45863 0.92745
 N18 N 0.31873 0.40047 0.93894
 N19 N 0.30817 0.40178 0.92955
 C20 C 0.29865 0.39110 0.93165
 C21 C 0.30332 0.38267 0.94301
 C22 C 0.31614 0.38895 0.94731
 H23 H 0.28892 0.38973 0.92546
 H24 H 0.32295 0.38559 0.95610
 H25 H 0.31915 0.42722 0.93172
 H26 H 0.32891 0.41533 0.91882
 N27 N 0.42996 0.85119 0.43922
 N28 N 0.44012 0.85090 0.42941
 C29 C 0.44928 0.86191 0.43187
 C30 C 0.44451 0.86956 0.44385
 C31 C 0.43219 0.86233 0.44814
 H32 H 0.45863 0.86418 0.42537
 H33 H 0.42543 0.86470 0.45727
 Cu34 Cu 0.43998 0.83611 0.41441
 Cu35 Cu 0.41484 0.83686 0.44039
 Cu36 Cu 0.41479 0.81000 0.41469
 N37 N 0.43990 0.82070 0.40006
 N38 N 0.42993 0.81069 0.40029
 C39 C 0.43218 0.80143 0.38943
 C40 C 0.44425 0.80576 0.38185
 C41 C 0.44887 0.81808 0.38895
 H42 H 0.42552 0.79215 0.38734
 H43 H 0.45806 0.82465 0.38624
 N44 N 0.40037 0.81113 0.43016
 N45 N 0.40040 0.82144 0.43991
 C46 C 0.38954 0.81918 0.44919
 C47 C 0.38227 0.80683 0.44517
 C48 C 0.38946 0.80202 0.43301
 H49 H 0.38729 0.82592 0.45839
 H50 H 0.38699 0.79257 0.42672
 H51 H 0.42631 0.82054 0.43044
 H52 H 0.41447 0.83176 0.41869
 N53 N 0.93011 0.89949 0.81121
 N54 N 0.94001 0.90016 0.82128
 C55 C 0.94943 0.88933 0.81930
 C56 C 0.94524 0.88146 0.80733
 C57 C 0.93289 0.88827 0.80250
 H58 H 0.95876 0.88744 0.82596
 H59 H 0.92638 0.88532 0.79333
 Cu60 Cu 0.93977 0.91533 0.83577
 Cu61 Cu 0.91457 0.91342 0.80989
 Cu62 Cu 0.91334 0.94004 0.83598
 N63 N 0.93880 0.93023 0.85050
 N64 N 0.92832 0.93968 0.85063
 C65 C 0.93018 0.94872 0.86178
 C66 C 0.94262 0.94484 0.86910
 C67 C 0.94777 0.93300 0.86156
 H68 H 0.92309 0.95761 0.86414
 H69 H 0.95731 0.92682 0.86390
 N70 N 0.89918 0.93861 0.82022
 N71 N 0.89967 0.92846 0.81031
 C72 C 0.88884 0.93049 0.80092
 C73 C 0.88111 0.94253 0.80506
 C74 C 0.88801 0.94739 0.81737
 H75 H 0.88687 0.92381 0.79162
 H76 H 0.88512 0.95663 0.82379
 H77 H 0.92518 0.93026 0.81994
 H78 H 0.91408 0.91830 0.83164
 N79 N 0.43019 -0.10014 0.31035
 N80 N 0.44030 -0.09934 0.32018
 C81 C 0.44983 -0.10999 0.31805
 C82 C 0.44552 -0.11797 0.30623
 C83 C 0.43296 -0.11136 0.30160
 H84 H 0.45927 -0.11173 0.32460
 H85 H 0.42635 -0.11442 0.29255
 Cu86 Cu 0.43993 -0.08455 0.33488
 Cu87 Cu 0.41449 -0.08621 0.30943
 Cu88 Cu 0.41589 -0.05788 0.33389
 N89 N 0.43954 -0.06982 0.34965
 N90 N 0.43004 -0.05937 0.34935
 C91 C 0.43246 -0.05047 0.36055
 C92 C 0.44411 -0.05568 0.36831
 C93 C 0.44827 -0.06798 0.36103
 H94 H 0.42628 -0.04089 0.36277
 H95 H 0.45719 -0.07493 0.36362
 N96 N 0.40044 -0.05999 0.31943
 N97 N 0.39987 -0.07085 0.31029
 C98 C 0.38837 -0.06916 0.30168
 C99 C 0.38131 -0.05662 0.30552
 C100 C 0.38928 -0.05112 0.31687
 H101 H 0.38556 -0.07635 0.29299
 H102 H 0.38716 -0.04135 0.32278
 H103 H 0.42630 -0.06979 0.31801
 H104 H 0.41460 -0.07976 0.33088
 N105 N 0.81099 0.32032 0.35012
 N106 N 0.82103 0.31038 0.34964
 C107 C 0.81903 0.30113 0.36057
 C108 C 0.80707 0.30544 0.36835
 C109 C 0.80225 0.31769 0.36136
 H110 H 0.82567 0.29183 0.36260
 H111 H 0.79309 0.32424 0.36422
 Cu112 Cu 0.83562 0.31026 0.33463
 Cu113 Cu 0.80985 0.33578 0.33598
 Cu114 Cu 0.83615 0.33614 0.30960
 N115 N 0.85046 0.31080 0.31984
 N116 N 0.85053 0.32105 0.31014
 C117 C 0.86158 0.31899 0.30108
 C118 C 0.86895 0.30676 0.30524
 C119 C 0.86155 0.30183 0.31724
 H120 H 0.86390 0.32583 0.29199
 H121 H 0.86403 0.29243 0.32358
 N122 N 0.82076 0.35053 0.31070
 N123 N 0.81066 0.35046 0.32066
 C124 C 0.80163 0.36154 0.31820
 C125 C 0.80632 0.36892 0.30612
 C126 C 0.81846 0.36158 0.30170
 H127 H 0.79235 0.36406 0.32473
 H128 H 0.82503 0.36394 0.29242
 H129 H 0.81974 0.32472 0.31961
 H130 H 0.83147 0.33591 0.33148
 N131 N -0.18011 0.85063 0.80987
 N132 N -0.19003 0.85004 0.81989
 C133 C -0.19945 0.86082 0.81792
 C134 C -0.19533 0.86867 0.80592
 C135 C -0.18292 0.86182 0.80111
 H136 H -0.20868 0.86265 0.82469
 H137 H -0.17646 0.86463 0.79188
 Cu138 Cu -0.18993 0.83511 0.83443
 Cu139 Cu -0.16458 0.83653 0.80895
 Cu140 Cu -0.16433 0.80969 0.83507
 N141 N -0.18983 0.82018 0.84895
 N142 N -0.17984 0.81022 0.84931
 C143 C -0.18259 0.80121 0.86033
 C144 C -0.19500 0.80583 0.86728
 C145 C -0.19922 0.81790 0.85969
 H146 H -0.17610 0.79196 0.86301
 H147 H -0.20856 0.82447 0.86168
 N148 N -0.14967 0.81111 0.81970
 N149 N -0.14981 0.82132 0.80984
 C150 C -0.13871 0.81927 0.80079
 C151 C -0.13117 0.80717 0.80506
 C152 C -0.13845 0.80229 0.81712
 H153 H -0.13645 0.82597 0.79159
 H154 H -0.13579 0.79299 0.82355
 H155 H -0.17552 0.81980 0.81877
 H156 H -0.16428 0.83142 0.83062
 N157 N 0.94035 0.35031 0.43070
 N158 N 0.93027 0.34985 0.44058
 C159 C 0.93239 0.36059 0.45005
 C160 C 0.94454 0.36826 0.44599
 C161 C 0.94929 0.36134 0.43360
 H162 H 0.92566 0.36249 0.45931
 H163 H 0.95856 0.36402 0.42713
 Cu164 Cu 0.91544 0.33517 0.44016
 Cu165 Cu 0.94122 0.33631 0.41503
 Cu166 Cu 0.91642 0.30835 0.41620
 N167 N 0.90059 0.32050 0.43973
 N168 N 0.90090 0.31000 0.43028
 C169 C 0.88966 0.30117 0.43265
 C170 C 0.88185 0.30646 0.44424
 C171 C 0.88915 0.31875 0.44840
 H172 H 0.88745 0.29156 0.42649
 H173 H 0.88654 0.32575 0.45729
 N174 N 0.93100 0.31022 0.40086
 N175 N 0.94030 0.32094 0.40037
 C176 C 0.94892 0.31913 0.38889
 C177 C 0.94493 0.30666 0.38176
 C178 C 0.93348 0.30134 0.38967
 H179 H 0.95767 0.32623 0.38611
 H180 H 0.92741 0.29168 0.38749
 H181 H 0.91970 0.33019 0.41488
 H182 H 0.93227 0.32010 0.42680
 N183 N 0.43883 0.43021 0.84986
 N184 N 0.42929 0.44056 0.84871
 C185 C 0.43191 0.45054 0.85888
 C186 C 0.44371 0.44621 0.86690
 C187 C 0.44780 0.43322 0.86082
 H188 H 0.42572 0.46027 0.86028
 H189 H 0.45655 0.42634 0.86416
 Cu190 Cu 0.41456 0.43996 0.83388
 Cu191 Cu 0.43874 0.41348 0.83724
 Cu192 Cu 0.41460 0.41401 0.80878
 N193 N 0.39974 0.43911 0.81916
 N194 N 0.39994 0.42899 0.80929
 C195 C 0.38887 0.43099 0.80020
 C196 C 0.38130 0.44307 0.80453
 C197 C 0.38854 0.44794 0.81664
 H198 H 0.38665 0.42423 0.79101
 H199 H 0.38587 0.45721 0.82312
 N200 N 0.43020 0.39976 0.81042
 N201 N 0.43928 0.39948 0.82132
 C202 C 0.44865 0.38863 0.81935
 C203 C 0.44530 0.38166 0.80660
 C204 C 0.43352 0.38905 0.80125
 H205 H 0.45736 0.38612 0.82662
 H206 H 0.42773 0.38678 0.79143
 H207 H 0.43065 0.42481 0.82001
 H208 H 0.41734 0.41407 0.83051
 N209 N 0.81047 0.90020 0.93062
 N210 N 0.82068 0.90090 0.94036
 C211 C 0.81868 0.89034 0.95005
 C212 C 0.80653 0.88259 0.94623
 C213 C 0.80162 0.88921 0.93380
 H214 H 0.82548 0.88856 0.95930
 H215 H 0.79226 0.88635 0.92754
 Cu216 Cu 0.83551 0.91562 0.93952
 Cu217 Cu 0.80915 0.91389 0.91479
 Cu218 Cu 0.83517 0.94054 0.91339
 N219 N 0.84992 0.93076 0.93872
 N220 N 0.84976 0.94040 0.92840
 C221 C 0.86070 0.94964 0.93038
 C222 C 0.86821 0.94561 0.94260
 C223 C 0.86102 0.93356 0.94761
 H224 H 0.86287 0.95874 0.92352
 H225 H 0.86369 0.92728 0.95701
 N226 N 0.81953 0.93892 0.89919
 N227 N 0.80965 0.92876 0.89968
 C228 C 0.80034 0.93074 0.88876
 C229 C 0.80452 0.94275 0.88102
 C230 C 0.81675 0.94763 0.88797
 H231 H 0.79105 0.92406 0.88675
 H232 H 0.82316 0.95687 0.88510
 H233 H 0.83079 0.91878 0.91389
 H234 H 0.81930 0.93060 0.92534
 N235 N 0.31048 0.84955 0.31930
 N236 N 0.32126 0.84994 0.31017
 C237 C 0.31955 0.86127 0.30134
 C238 C 0.30701 0.86840 0.30511
 C239 C 0.30156 0.86062 0.31659
 H240 H 0.32679 0.86396 0.29267
 H241 H 0.29180 0.86275 0.32252
 Cu242 Cu 0.33627 0.83536 0.31041
 Cu243 Cu 0.30844 0.83424 0.33345
 Cu244 Cu 0.33636 0.80976 0.33582
 N245 N 0.35076 0.82026 0.31057
 N246 N 0.35082 0.81048 0.32075
 C247 C 0.36184 0.80141 0.31856
 C248 C 0.36915 0.80565 0.30632
 C249 C 0.36178 0.81769 0.30150
 H250 H 0.36419 0.79226 0.32530
 H251 H 0.36428 0.82412 0.29216
 N252 N 0.32060 0.81071 0.34989
 N253 N 0.30983 0.81988 0.34897
 C254 C 0.30059 0.81736 0.35984
 C255 C 0.30579 0.80599 0.36797
 C256 C 0.31851 0.80211 0.36130
 H257 H 0.29076 0.82330 0.36162
 H258 H 0.32558 0.79341 0.36428
 H259 H 0.33018 0.83121 0.33551
 H260 H 0.32063 0.81854 0.32322
 N261 N 0.81039 0.39950 0.42959
 N262 N 0.82054 0.39985 0.43941
 C263 C 0.81852 0.38896 0.44870
 C264 C 0.80644 0.38131 0.44452
 C265 C 0.80155 0.38835 0.43230
 H266 H 0.82522 0.38688 0.45794
 H267 H 0.79229 0.38560 0.42583
 Cu268 Cu 0.83508 0.41484 0.43929
 Cu269 Cu 0.80929 0.41379 0.41429
 Cu270 Cu 0.83527 0.44076 0.41429
 N271 N 0.84949 0.42994 0.43948
 N272 N 0.84955 0.44010 0.42969
 C273 C 0.86034 0.44934 0.43255
 C274 C 0.86744 0.44471 0.44486
 C275 C 0.86019 0.43236 0.44890
 H276 H 0.86277 0.45873 0.42615
 H277 H 0.86238 0.42575 0.45816
 N278 N 0.81985 0.43946 0.39970
 N279 N 0.81003 0.42921 0.39974
 C280 C 0.80093 0.43136 0.38869
 C281 C 0.80517 0.44356 0.38127
 C282 C 0.81723 0.44840 0.38860
 H283 H 0.79175 0.42464 0.38637
 H284 H 0.82362 0.45774 0.38604
 H285 H 0.83096 0.41895 0.41387
 H286 H 0.81920 0.43030 0.42561
 N287 N 0.92894 0.84979 -0.06014
 N288 N 0.93908 0.84986 -0.06998
 C289 C 0.94812 0.86088 -0.06731
 C290 C 0.94334 0.86811 -0.05514
 C291 C 0.93114 0.86071 -0.05093
 H292 H 0.95743 0.86346 -0.07375
 H293 H 0.92446 0.86292 -0.04170
 Cu294 Cu 0.93932 0.83551 -0.08527
 Cu295 Cu 0.91392 0.83525 -0.05937
 Cu296 Cu 0.91670 0.80741 -0.08383
 N297 N 0.93969 0.82039 -0.09984
 N298 N 0.93059 0.80961 -0.09922
 C299 C 0.93303 0.80063 -0.11026
 C300 C 0.94432 0.80596 -0.11832
 C301 C 0.94831 0.81856 -0.11136
 H302 H 0.92716 0.79077 -0.11209
 H303 H 0.95685 0.82581 -0.11444
 N304 N 0.90118 0.80865 -0.06958
 N305 N 0.89999 0.81933 -0.06033
 C306 C 0.88849 0.81693 -0.05185
 C307 C 0.88212 0.80412 -0.05600
 C308 C 0.89046 0.79922 -0.06732
 H309 H 0.88511 0.82393 -0.04322
 H310 H 0.88902 0.78937 -0.07331
 H311 H 0.92688 0.81999 -0.06818
 H312 H 0.91431 0.82925 -0.08085
 N313 N 0.30964 0.34972 0.82068
 N314 N 0.31937 0.34992 0.81044
 C315 C 0.31668 0.36106 0.80160
 C316 C 0.30460 0.36827 0.80656
 C317 C 0.30046 0.36072 0.81872
 H318 H 0.32306 0.36373 0.79228
 H319 H 0.29131 0.36291 0.82554
 Cu320 Cu 0.33441 0.33538 0.80954
 Cu321 Cu 0.30928 0.33497 0.83554
 Cu322 Cu 0.33625 0.30926 0.83438
 N323 N 0.34966 0.32104 0.80919
 N324 N 0.35032 0.31088 0.81897
 C325 C 0.36160 0.30228 0.81613
 C326 C 0.36843 0.30727 0.80386
 C327 C 0.36052 0.31923 0.79979
 H328 H 0.36454 0.29304 0.82251
 H329 H 0.36240 0.32601 0.79056
 N330 N 0.32105 0.30940 0.84912
 N331 N 0.31077 0.31915 0.84958
 C332 C 0.30187 0.31607 0.86058
 C333 C 0.30676 0.30376 0.86740
 C334 C 0.31897 0.29988 0.85980
 H335 H 0.29247 0.32229 0.86336
 H336 H 0.32573 0.29064 0.86173
 H337 H 0.33109 0.33090 0.83513
 H338 H 0.31944 0.31919 0.82368
 N339 N 0.14987 0.57134 0.55940
 N340 N 0.14979 0.56118 0.56921
 C341 C 0.13868 0.55222 0.56658
 C342 C 0.13140 0.55706 0.55447
 C343 C 0.13886 0.56923 0.55025
 H344 H 0.13606 0.54291 0.57300
 H345 H 0.13663 0.57596 0.54106
 Cu346 Cu 0.16431 0.56075 0.58442
 Cu347 Cu 0.16430 0.58651 0.55889
 Cu348 Cu 0.19054 0.58567 0.58522
 N349 N 0.17954 0.56023 0.59891
 N350 N 0.18963 0.57011 0.59912
 C351 C 0.19877 0.56741 0.60997
 C352 C 0.19427 0.55513 0.61707
 C353 C 0.18200 0.55084 0.60970
 H354 H 0.20817 0.57381 0.61232
 H355 H 0.17535 0.54160 0.61203
 N356 N 0.18977 0.60059 0.57025
 N357 N 0.17982 0.60091 0.56015
 C358 C 0.18242 0.61216 0.55138
 C359 C 0.19460 0.61928 0.55621
 C360 C 0.19892 0.61161 0.56821
 H361 H 0.17591 0.61496 0.54218
 H362 H 0.20820 0.61375 0.57487
 H363 H 0.18017 0.57463 0.56887
 H364 H 0.16877 0.58632 0.58061
 N365 N 0.59995 0.67950 0.05977
 N366 N 0.59984 0.68978 0.06950
 C367 C 0.61099 0.69871 0.06705
 C368 C 0.61850 0.69376 0.05515
 C369 C 0.61114 0.68154 0.05085
 H370 H 0.61346 0.70808 0.07348
 H371 H 0.61357 0.67473 0.04176
 Cu372 Cu 0.58495 0.69058 0.08420
 Cu373 Cu 0.58541 0.66439 0.05902
 Cu374 Cu 0.55931 0.66524 0.08548
 N375 N 0.57027 0.69071 0.09917
 N376 N 0.56039 0.68063 0.09955
 C377 C 0.55144 0.68315 0.11059
 C378 C 0.55584 0.69550 0.11762
 C379 C 0.56788 0.70004 0.11004
 H380 H 0.54219 0.67659 0.11308
 H381 H 0.57439 0.70942 0.11224
 N382 N 0.55988 0.65051 0.07036
 N383 N 0.56974 0.65012 0.06019
 C384 C 0.56689 0.63897 0.05133
 C385 C 0.55461 0.63202 0.05618
 C386 C 0.55054 0.63968 0.06828
 H387 H 0.57322 0.63622 0.04199
 H388 H 0.54133 0.63767 0.07504
 H389 H 0.56940 0.67607 0.06876
 H390 H 0.58110 0.66489 0.08065
 N391 N 0.68094 0.19134 0.65146
 N392 N 0.69044 0.18090 0.65102
 C393 C 0.69911 0.18283 0.63962
 C394 C 0.69491 0.19519 0.63246
 C395 C 0.68329 0.20031 0.64033
 H396 H 0.70802 0.17591 0.63693
 H397 H 0.67714 0.20995 0.63828
 Cu398 Cu 0.69093 0.16607 0.66568
 Cu399 Cu 0.66692 0.19278 0.66704
 Cu400 Cu 0.66578 0.16447 0.69140
 N401 N 0.69142 0.15123 0.68034
 N402 N 0.68140 0.15050 0.69027
 C403 C 0.68426 0.13935 0.69904
 C404 C 0.69677 0.13270 0.69436
 C405 C 0.70097 0.14059 0.68245
 H406 H 0.67776 0.13641 0.70821
 H407 H 0.71038 0.13883 0.67588
 N408 N 0.65119 0.17987 0.69080
 N409 N 0.65167 0.19073 0.68169
 C410 C 0.64061 0.19967 0.68450
 C411 C 0.63283 0.19422 0.69599
 C412 C 0.63988 0.18163 0.69963
 H413 H 0.63850 0.20949 0.67867
 H414 H 0.63722 0.17443 0.70834
 H415 H 0.67758 0.18089 0.68273
 H416 H 0.66567 0.17093 0.66998
 N417 N 1.09899 0.06871 0.19062
 N418 N 1.09861 0.05875 0.18059
 C419 C 1.10950 0.04948 0.18273
 C420 C 1.11716 0.05379 0.19478
 C421 C 1.11014 0.06609 0.19949
 H422 H 1.11153 0.04012 0.17615
 H423 H 1.11286 0.07263 0.20871
 Cu424 Cu 1.08371 0.05856 0.16589
 Cu425 Cu 1.08474 0.08411 0.19165
 Cu426 Cu 1.05850 0.08425 0.16516
 N427 N 1.06898 0.05889 0.15100
 N428 N 1.05923 0.06909 0.15081
 C429 C 1.05018 0.06684 0.13977
 C430 C 1.05439 0.05451 0.13257
 C431 C 1.06642 0.04974 0.14003
 H432 H 1.04101 0.07356 0.13740
 H433 H 1.07277 0.04030 0.13771
 N434 N 1.05942 0.09870 0.18053
 N435 N 1.06930 0.09872 0.19071
 C436 C 1.06660 0.10971 0.19981
 C437 C 1.05443 0.11694 0.19509
 C438 C 1.05023 0.10960 0.18284
 H439 H 1.07299 0.11221 0.20920
 H440 H 1.04094 0.11182 0.17624
 H441 H 1.06849 0.07296 0.18165
 H442 H 1.08032 0.08421 0.16999
 N443 N 0.06991 0.15038 1.05997
 N444 N 0.05999 0.15045 1.07002
 C445 C 0.05071 0.13958 1.06747
 C446 C 0.05515 0.13232 1.05517
 C447 C 0.06735 0.13956 1.05076
 H448 H 0.04148 0.13710 1.07409
 H449 H 0.07383 0.13731 1.04139
 Cu450 Cu 0.06033 0.16493 1.08526
 Cu451 Cu 0.08527 0.16439 1.05908
 Cu452 Cu 0.08583 0.19090 1.08508
 N453 N 0.06055 0.18034 1.09952
 N454 N 0.07057 0.19030 1.09940
 C455 C 0.06818 0.19960 1.11021
 C456 C 0.05596 0.19533 1.11758
 C457 C 0.05140 0.18303 1.11045
 H458 H 0.07476 0.20892 1.11238
 H459 H 0.04215 0.17650 1.11303
 N460 N 0.10031 0.18962 1.06962
 N461 N 0.10002 0.17941 1.05977
 C462 C 0.11091 0.18145 1.05050
 C463 C 0.11848 0.19358 1.05459
 C464 C 0.11146 0.19846 1.06683
 H465 H 0.11311 0.17460 1.04138
 H466 H 0.11411 0.20790 1.07308
 H467 H 0.08587 0.16925 1.08089
 H468 H 0.07400 0.18072 1.06942
 N469 N 0.15111 0.69023 0.68067
 N470 N 0.15172 0.68020 0.69060
 C471 C 0.14101 0.68229 0.70010
 C472 C 0.13324 0.69430 0.69597
 C473 C 0.13999 0.69905 0.68355
 H474 H 0.13917 0.67567 0.70946
 H475 H 0.13711 0.70825 0.67707
 Cu476 Cu 0.16666 0.66557 0.69041
 Cu477 Cu 0.16498 0.69132 0.66496
 Cu478 Cu 0.19133 0.66497 0.66419
 N479 N 0.18144 0.65076 0.68973
 N480 N 0.19099 0.65064 0.67934
 C481 C 0.20011 0.63963 0.68135
 C482 C 0.19613 0.63237 0.69372
 C483 C 0.18418 0.63977 0.69876
 H484 H 0.20915 0.63730 0.67445
 H485 H 0.17799 0.63736 0.70829
 N486 N 0.19000 0.68033 0.64979
 N487 N 0.18007 0.69045 0.65000
 C488 C 0.18238 0.69947 0.63889
 C489 C 0.19433 0.69474 0.63131
 C490 C 0.19884 0.68260 0.63859
 H491 H 0.17584 0.70876 0.63647
 H492 H 0.20806 0.67602 0.63608
 H493 H 0.16950 0.66971 0.66468
 H494 H 0.18152 0.68140 0.67574
 N495 N 1.18119 0.14984 0.18900
 N496 N 1.19070 0.15018 0.17856
 C497 C 1.20022 0.13945 0.18054
 C498 C 1.19647 0.13197 0.19290
 C499 C 1.18429 0.13892 0.19793
 H500 H 1.20930 0.13737 0.17361
 H501 H 1.17812 0.13629 0.20741
 Cu502 Cu 1.18989 0.16483 0.16360
 Cu503 Cu 1.16577 0.16380 0.19061
 Cu504 Cu 1.16446 0.19061 0.16489
 N505 N 1.18922 0.18035 0.14952
 N506 N 1.17922 0.19029 0.15009
 C507 C 1.18131 0.19977 0.13939
 C508 C 1.19333 0.19564 0.13163
 C509 C 1.19806 0.18321 0.13838
 H510 H 1.17454 0.20901 0.13746
 H511 H 1.20733 0.17682 0.13553
 N512 N 1.15047 0.18913 0.18072
 N513 N 1.15098 0.17889 0.19049
 C514 C 1.14031 0.18094 0.20004
 C515 C 1.13267 0.19311 0.19614
 C516 C 1.13945 0.19800 0.18380
 H517 H 1.13842 0.17421 0.20930
 H518 H 1.13663 0.20737 0.17756
 H519 H 1.16451 0.16885 0.16897
 H520 H 1.17666 0.18022 0.18024
 N521 N 0.65110 1.05966 0.56903
 N522 N 0.65106 1.06974 0.55915
 C523 C 0.64009 1.06724 0.54997
 C524 C 0.63289 1.05493 0.55443
 C525 C 0.64025 1.05048 0.56655
 H526 H 0.63753 1.07388 0.54079
 H527 H 0.63807 1.04109 0.57302
 Cu528 Cu 0.66554 1.08495 0.55936
 Cu529 Cu 0.66527 1.05870 0.58424
 Cu530 Cu 0.69180 1.08465 0.58452
 N531 N 0.68100 1.09915 0.55941
 N532 N 0.69107 1.09897 0.56933
 C533 C 0.70038 1.10973 0.56688
 C534 C 0.69601 1.11714 0.55473
 C535 C 0.68363 1.11008 0.55027
 H536 H 0.70980 1.11183 0.57337
 H537 H 0.67703 1.11271 0.54107
 N538 N 0.69069 1.06921 0.59897
 N539 N 0.68049 1.05937 0.59882
 C540 C 0.68269 1.05013 0.60970
 C541 C 0.69491 1.05428 0.61712
 C542 C 0.69970 1.06646 0.60999
 H543 H 0.67605 1.04086 0.61184
 H544 H 0.70907 1.07281 0.61257
 H545 H 0.67010 1.08047 0.58481
 H546 H 0.68142 1.06900 0.57277
 N547 N 0.56995 0.56006 0.14967
 N548 N 0.56006 0.57013 0.14995
 C549 C 0.55088 0.56807 0.13895
 C550 C 0.55525 0.55608 0.13127
 C551 C 0.56742 0.55127 0.13842
 H552 H 0.54162 0.57474 0.13676
 H553 H 0.57397 0.54208 0.13570
 Cu554 Cu 0.55986 0.58476 0.16486
 Cu555 Cu 0.58511 0.55908 0.16409
 Cu556 Cu 0.58499 0.58518 0.19087
 N557 N 0.55986 0.59928 0.17986
 N558 N 0.56967 0.59949 0.19003
 C559 C 0.56690 0.61050 0.19904
 C560 C 0.55464 0.61757 0.19426
 C561 C 0.55051 0.61007 0.18207
 H562 H 0.57333 0.61312 0.20836
 H563 H 0.54126 0.61222 0.17537
 N564 N 0.59954 0.56974 0.18979
 N565 N 0.59954 0.55986 0.17959
 C566 C 0.61047 0.55068 0.18193
 C567 C 0.61775 0.55491 0.19422
 C568 C 0.61050 0.56707 0.19891
 H569 H 0.61276 0.54143 0.17530
 H570 H 0.61298 0.57348 0.20828
 H571 H 0.57381 0.56906 0.18051
 H572 H 0.58541 0.58076 0.16912
 N573 N 0.65116 0.67987 0.19037
 N574 N 0.65099 0.68976 0.18029
 C575 C 0.64008 0.69893 0.18291
 C576 C 0.63302 0.69452 0.19529
 C577 C 0.64041 0.68238 0.19969
 H578 H 0.63746 0.70809 0.17628
 H579 H 0.63829 0.67591 0.20910
 Cu580 Cu 0.66515 0.68971 0.16480
 Cu581 Cu 0.66546 0.66466 0.19112
 Cu582 Cu 0.69133 0.66472 0.16449
 N583 N 0.68031 0.68981 0.15026
 N584 N 0.69036 0.67990 0.15027
 C585 C 0.69959 0.68242 0.13947
 C586 C 0.69521 0.69463 0.13222
 C587 C 0.68285 0.69903 0.13935
 H588 H 0.70881 0.67578 0.13708
 H589 H 0.67634 0.70833 0.13691
 N590 N 0.69067 0.65021 0.17979
 N591 N 0.68086 0.65017 0.19002
 C592 C 0.68362 0.63922 0.19910
 C593 C 0.69578 0.63203 0.19435
 C594 C 0.69991 0.63933 0.18206
 H595 H 0.67729 0.63675 0.20852
 H596 H 0.70917 0.63711 0.17542
 H597 H 0.68116 0.67625 0.18064
 H598 H 0.66962 0.66425 0.16937
 N599 N 0.15066 0.06971 1.05869
 N600 N 0.15093 0.05964 1.06858
 C601 C 0.14011 0.05036 1.06623
 C602 C 0.13256 0.05473 1.05419
 C603 C 0.13961 0.06709 1.04964
 H604 H 0.13805 0.04094 1.07269
 H605 H 0.13695 0.07370 1.04046
 Cu606 Cu 0.16541 0.05926 1.08355
 Cu607 Cu 0.16500 0.08510 1.05826
 Cu608 Cu 0.19113 0.08437 1.08503
 N609 N 0.18015 0.05885 1.09828
 N610 N 0.19018 0.06876 1.09891
 C611 C 0.19909 0.06578 1.10994
 C612 C 0.19437 0.05332 1.11662
 C613 C 0.18230 0.04927 1.10888
 H614 H 0.20834 0.07221 1.11279
 H615 H 0.17567 0.03991 1.11068
 N616 N 0.19035 0.09928 1.07006
 N617 N 0.18052 0.09964 1.05982
 C618 C 0.18330 0.11089 1.05110
 C619 C 0.19549 0.11795 1.05610
 C620 C 0.19959 0.11022 1.06814
 H621 H 0.17698 0.11367 1.04175
 H622 H 0.20878 0.11225 1.07494
 H623 H 0.18109 0.07360 1.06823
 H624 H 0.16940 0.08489 1.07997
 N625 N 0.59956 0.19051 0.56784
 N626 N 0.59891 0.18028 0.55811
 C627 C 0.60955 0.18224 0.54849
 C628 C 0.61732 0.19436 0.55240
 C629 C 0.61063 0.19929 0.56478
 H630 H 0.61136 0.17545 0.53924
 H631 H 0.61352 0.20860 0.57110
 Cu632 Cu 0.58405 0.16559 0.55880
 Cu633 Cu 0.58573 0.19199 0.58345
 Cu634 Cu 0.55877 0.16629 0.58468
 N635 N 0.56867 0.15144 0.55944
 N636 N 0.55892 0.15170 0.56966
 C637 C 0.54953 0.14091 0.56751
 C638 C 0.55355 0.13346 0.55523
 C639 C 0.56579 0.14048 0.55042
 H640 H 0.54032 0.13883 0.57428
 H641 H 0.57212 0.13783 0.54106
 N642 N 0.56047 0.18196 0.59886
 N643 N 0.57075 0.19171 0.59839
 C644 C 0.56878 0.20116 0.60917
 C645 C 0.55664 0.19724 0.61684
 C646 C 0.55168 0.18497 0.60998
 H647 H 0.57555 0.21040 0.61110
 H648 H 0.54230 0.17873 0.61278
 H649 H 0.58059 0.17036 0.58436
 H650 H 0.56902 0.18193 0.57268
 N651 N 0.09960 0.56957 0.68965
 N652 N 0.09935 0.56001 0.67924
 C653 C 0.11011 0.55055 0.68130
 C654 C 0.11753 0.55437 0.69367
 C655 C 0.11052 0.56654 0.69865
 H656 H 0.11224 0.54144 0.67440
 H657 H 0.11308 0.57275 0.70814
 Cu658 Cu 0.08481 0.56062 0.66419
 Cu659 Cu 0.08551 0.58493 0.69108
 Cu660 Cu 0.05889 0.58587 0.66504
 N661 N 0.06948 0.56109 0.64993
 N662 N 0.05946 0.57104 0.65030
 C663 C 0.05020 0.56886 0.63940
 C664 C 0.05459 0.55686 0.63174
 C665 C 0.06689 0.55221 0.63877
 H666 H 0.04086 0.57545 0.63735
 H667 H 0.07349 0.54308 0.63595
 N668 N 0.06011 0.59995 0.68082
 N669 N 0.07027 0.59962 0.69071
 C670 C 0.06802 0.61037 0.70015
 C671 C 0.05581 0.61786 0.69604
 C672 C 0.05111 0.61092 0.68371
 H673 H 0.07464 0.61241 0.70949
 H674 H 0.04178 0.61359 0.67733
 H675 H 0.06926 0.57389 0.68064
 H676 H 0.08065 0.58601 0.66942
 N677 N 0.65000 0.56022 0.06900
 N678 N 0.64934 0.57124 0.06021
 C679 C 0.63769 0.56986 0.05173
 C680 C 0.63065 0.55721 0.05529
 C681 C 0.63882 0.55140 0.06634
 H682 H 0.63484 0.57728 0.04327
 H683 H 0.63704 0.54132 0.07181
 Cu684 Cu 0.66446 0.58559 0.05986
 Cu685 Cu 0.66608 0.55766 0.08224
 Cu686 Cu 0.68822 0.58752 0.08695
 N687 N 0.67976 0.59975 0.05987
 N688 N 0.68908 0.60063 0.07046
 C689 C 0.69816 0.61163 0.06783
 C690 C 0.69433 0.61794 0.05483
 C691 C 0.68258 0.61006 0.05016
 H692 H 0.70691 0.61473 0.07482
 H693 H 0.67639 0.61178 0.04049
 N694 N 0.68869 0.57056 0.09980
 N695 N 0.68033 0.55926 0.09787
 C696 C 0.68327 0.54944 0.10804
 C697 C 0.69413 0.55465 0.11682
 C698 C 0.69727 0.56814 0.11126
 H699 H 0.67786 0.53922 0.10893
 H700 H 0.70534 0.57557 0.11510
 H701 H 0.66736 0.57927 0.08526
 H702 H 0.68176 0.57150 0.07380
 N703 N 0.07022 0.69022 0.59942
 N704 N 0.06033 0.68013 0.59912
 C705 C 0.05097 0.68240 0.60993
 C706 C 0.05516 0.69457 0.61745
 C707 C 0.06746 0.69924 0.61043
 H708 H 0.04169 0.67576 0.61205
 H709 H 0.07399 0.70847 0.61310
 Cu710 Cu 0.06052 0.66504 0.58460
 Cu711 Cu 0.08572 0.69113 0.58531
 Cu712 Cu 0.08596 0.66460 0.55909
 N713 N 0.06066 0.65039 0.56959
 N714 N 0.07079 0.65029 0.55976
 C715 C 0.06857 0.63923 0.55071
 C716 C 0.05637 0.63191 0.55504
 C717 C 0.05160 0.63933 0.56709
 H718 H 0.07529 0.63683 0.54154
 H719 H 0.04229 0.63683 0.57357
 N720 N 0.10043 0.67995 0.56008
 N721 N 0.10043 0.69011 0.57000
 C722 C 0.11154 0.69909 0.56745
 C723 C 0.11887 0.69431 0.55536
 C724 C 0.11146 0.68217 0.55102
 H725 H 0.11409 0.70841 0.57391
 H726 H 0.11376 0.67555 0.54176
 H727 H 0.07448 0.68093 0.56917
 H728 H 0.08607 0.66946 0.58089
 N729 N 0.56792 1.05923 0.65110
 N730 N 0.55866 1.06989 0.65082
 C731 C 0.54981 1.06818 0.63949
 C732 C 0.55358 1.05565 0.63225
 C733 C 0.56520 1.05029 0.64002
 H734 H 0.54110 1.07541 0.63694
 H735 H 0.57113 1.04052 0.63800
 Cu736 Cu 0.55881 1.08479 0.66553
 Cu737 Cu 0.58234 1.05745 0.66631
 Cu738 Cu 0.58474 1.08572 0.69053
 N739 N 0.55894 1.09948 0.68046
 N740 N 0.56944 1.09998 0.68989
 C741 C 0.56728 1.11109 0.69888
 C742 C 0.55465 1.11804 0.69498
 C743 C 0.54967 1.11029 0.68317
 H744 H 0.57423 1.11355 0.70786
 H745 H 0.54003 1.11230 0.67700
 N746 N 0.59898 1.07010 0.68957
 N747 N 0.59806 1.05917 0.68056
 C748 C 0.60901 1.05003 0.68320
 C749 C 0.61717 1.05546 0.69448
 C750 C 0.61044 1.06821 0.69817
 H751 H 0.61080 1.04011 0.67743
 H752 H 0.61340 1.07542 0.70678
 H753 H 0.57230 1.06959 0.68215
 H754 H 0.58407 1.07924 0.66908
 N755 N 0.44086 0.34998 0.92903
 N756 N 0.43135 0.35007 0.93947
 C757 C 0.43434 0.36101 0.94850
 C758 C 0.44642 0.36823 0.94346
 C759 C 0.45018 0.36085 0.93102
 H760 H 0.42821 0.36344 0.95806
 H761 H 0.45921 0.36295 0.92403
 Cu762 Cu 0.41620 0.33564 0.94034
 Cu763 Cu 0.44098 0.33535 0.91402
 Cu764 Cu 0.41423 0.30944 0.91548
 N765 N 0.40116 0.32108 0.94095
 N766 N 0.40048 0.31089 0.93119
 C767 C 0.38942 0.30209 0.93426
 C768 C 0.38273 0.30699 0.94665
 C769 C 0.39051 0.31911 0.95056
 H770 H 0.38655 0.29276 0.92795
 H771 H 0.38870 0.32586 0.95984
 N772 N 0.42912 0.30978 0.90043
 N773 N 0.43931 0.31964 0.89984
 C774 C 0.44796 0.31675 0.88858
 C775 C 0.44300 0.30448 0.88172
 C776 C 0.43102 0.30040 0.88957
 H777 H 0.45721 0.32312 0.88563
 H778 H 0.42428 0.29114 0.88765
 H779 H 0.41924 0.33106 0.91468
 H780 H 0.43109 0.31949 0.92599
 N781 N 0.93954 0.43061 0.34980
 N782 N 0.92923 0.44024 0.34940
 C783 C 0.93119 0.44969 0.36022
 C784 C 0.94351 0.44585 0.36781
 C785 C 0.94847 0.43365 0.36077
 H786 H 0.92427 0.45879 0.36223
 H787 H 0.95795 0.42744 0.36329
 Cu788 Cu 0.91436 0.43952 0.33465
 Cu789 Cu 0.94079 0.41491 0.33599
 Cu790 Cu 0.91466 0.41352 0.30944
 N791 N 0.89993 0.43882 0.31948
 N792 N 0.90006 0.42856 0.30976
 C793 C 0.88905 0.43058 0.30058
 C794 C 0.88154 0.44276 0.30475
 C795 C 0.88880 0.44771 0.31681
 H796 H 0.88689 0.42382 0.29137
 H797 H 0.88614 0.45706 0.32318
 N798 N 0.93037 0.39933 0.31092
 N799 N 0.94028 0.39988 0.32106
 C800 C 0.94960 0.38899 0.31911
 C801 C 0.94543 0.38116 0.30714
 C802 C 0.93316 0.38806 0.30223
 H803 H 0.95888 0.38703 0.32581
 H804 H 0.92674 0.38511 0.29301
 H805 H 0.93045 0.42547 0.31938
 H806 H 0.91906 0.41393 0.33119
 N807 N 0.31043 0.92999 0.39945
 N808 N 0.32059 0.93981 0.39956
 C809 C 0.31850 0.94892 0.38853
 C810 C 0.30638 0.94464 0.38102
 C811 C 0.30152 0.93256 0.38830
 H812 H 0.32519 0.95813 0.38626
 H813 H 0.29219 0.92611 0.38575
 Cu814 Cu 0.33543 0.94002 0.41422
 Cu815 Cu 0.30952 0.91492 0.41407
 Cu816 Cu 0.33613 0.91540 0.44043
 N817 N 0.35030 0.94023 0.42887
 N818 N 0.35050 0.93065 0.43923
 C819 C 0.36163 0.93347 0.44807
 C820 C 0.36889 0.94550 0.44297
 C821 C 0.36131 0.94943 0.43071
 H822 H 0.36414 0.92720 0.45751
 H823 H 0.36348 0.95845 0.42373
 N824 N 0.32067 0.90089 0.43978
 N825 N 0.31055 0.90067 0.42982
 C826 C 0.30147 0.88973 0.43261
 C827 C 0.30608 0.88269 0.44492
 C828 C 0.31831 0.89010 0.44912
 H829 H 0.29216 0.88712 0.42617
 H830 H 0.32487 0.88797 0.45846
 H831 H 0.31974 0.92641 0.43012
 H832 H 0.33125 0.91462 0.41870
 O833 O 0.21196 0.51853 0.74758
 O834 O 0.21725 0.51749 0.77314
 O835 O 0.24955 0.53751 0.73006
 O836 O 0.27337 0.53320 0.73011
 O837 O 0.23101 0.50013 0.71094
 O838 O 0.23281 0.47469 0.71667
 O839 O 0.28745 0.49803 0.76792
 O840 O 0.28401 0.52341 0.76413
 O841 O 0.25172 0.48177 0.78698
 O842 O 0.22528 0.48371 0.78239
 O843 O 0.26841 0.46213 0.75152
 O844 O 0.26644 0.46629 0.72489
 O845 O 0.28725 0.48080 0.75057
 O846 O 0.28207 0.48153 0.72435
 O847 O 0.25090 0.46265 0.76855
 O848 O 0.22455 0.46817 0.76710
 O849 O 0.26895 0.49908 0.78650
 O850 O 0.26733 0.52501 0.78129
 O851 O 0.21162 0.50047 0.73106
 O852 O 0.21669 0.47512 0.73279
 O853 O 0.24865 0.51707 0.71045
 O854 O 0.27448 0.51434 0.71562
 O855 O 0.23206 0.53806 0.74717
 O856 O 0.23352 0.53348 0.77269
 Zr857 Zr 0.23279 0.51749 0.75655
 O858 O 0.24541 0.50505 0.77064
 Zr859 Zr 0.25793 0.51653 0.73112
 O860 O 0.27170 0.50410 0.74413
 Zr861 Zr 0.23235 0.49156 0.73190
 O862 O 0.24492 0.47792 0.74489
 Zr863 Zr 0.26728 0.50811 0.76590
 O864 O 0.25473 0.52197 0.75292
 Zr865 Zr 0.24169 0.48315 0.76665
 O866 O 0.22770 0.49561 0.75372
 Zr867 Zr 0.26678 0.48221 0.74119
 O868 O 0.25418 0.49462 0.72686
 O869 O 0.23621 0.51331 0.73491
 O870 O 0.26349 0.48629 0.76292
 C871 C 0.20575 0.51111 0.73766
 C872 C 0.23931 0.54382 0.73690
 C873 C 0.23815 0.51017 0.70464
 C874 C 0.29319 0.48743 0.76114
 C875 C 0.26235 0.48862 0.79261
 C876 C 0.26149 0.45655 0.76211
 H877 H 0.24318 0.50765 0.78069
 H878 H 0.24245 0.46779 0.74285
 H879 H 0.23009 0.51942 0.72873
 H880 H 0.28185 0.50626 0.74187
 H881 H 0.27979 0.53204 0.75953
 H882 H 0.28194 0.52997 0.73553
 H883 H 0.22592 0.46132 0.75906
 H884 H 0.21206 0.47591 0.74235
 H885 H 0.25878 0.52400 0.78753
 H886 H 0.24311 0.53802 0.77196
 H887 H 0.25814 0.45991 0.72672
 H888 H 0.24223 0.47534 0.71177
 H889 H 0.21247 0.50799 0.77278
 H890 H 0.22698 0.49225 0.78849
 H891 H 0.27273 0.50520 0.71043
 H892 H 0.28841 0.49001 0.72539
 O893 O 0.21211 0.01796 0.24803
 O894 O 0.21764 0.01710 0.27336
 O895 O 0.24947 0.03729 0.23008
 O896 O 0.27308 0.03323 0.22947
 O897 O 0.23123 -0.00061 0.21109
 O898 O 0.23260 -0.02576 0.21688
 O899 O 0.28795 -0.00181 0.26757
 O900 O 0.28425 0.02346 0.26403
 O901 O 0.25243 -0.01857 0.28682
 O902 O 0.22632 -0.01750 0.28254
 O903 O 0.26906 -0.03793 0.25046
 O904 O 0.26745 -0.03349 0.22439
 O905 O 0.28778 -0.01908 0.25027
 O906 O 0.28237 -0.01761 0.22368
 O907 O 0.25250 -0.03761 0.26841
 O908 O 0.22556 -0.03263 0.26664
 O909 O 0.26957 -0.00118 0.28628
 O910 O 0.26748 0.02493 0.28108
 O911 O 0.21176 0.00001 0.23138
 O912 O 0.21709 -0.02545 0.23340
 O913 O 0.24825 0.01694 0.21044
 O914 O 0.27441 0.01416 0.21544
 O915 O 0.23199 0.03767 0.24719
 O916 O 0.23402 0.03296 0.27293
 Zr917 Zr 0.23306 0.01709 0.25668
 O918 O 0.24587 0.00461 0.27059
 Zr919 Zr 0.25789 0.01639 0.23096
 O920 O 0.27197 0.00422 0.24387
 Zr921 Zr 0.23255 -0.00886 0.23209
 O922 O 0.24557 -0.02237 0.24471
 Zr923 Zr 0.26766 0.00800 0.26572
 O924 O 0.25491 0.02176 0.25282
 Zr925 Zr 0.24248 -0.01737 0.26652
 O926 O 0.22818 -0.00488 0.25394
 Zr927 Zr 0.26732 -0.01767 0.24077
 O928 O 0.25427 -0.00552 0.22668
 O929 O 0.23624 0.01294 0.23500
 O930 O 0.26418 -0.01384 0.26258
 C931 C 0.20586 0.01056 0.23811
 C932 C 0.23917 0.04351 0.23690
 C933 C 0.23799 0.00962 0.20472
 C934 C 0.29372 -0.01241 0.26083
 C935 C 0.26301 -0.01167 0.29242
 C936 C 0.26279 -0.04360 0.26137
 H937 H 0.24365 0.00710 0.28068
 H938 H 0.24326 -0.03252 0.24259
 H939 H 0.23000 0.01898 0.22887
 H940 H 0.28208 0.00652 0.24156
 H941 H 0.27999 0.03198 0.25928
 H942 H 0.28155 0.03035 0.23521
 H943 H 0.22759 -0.03992 0.25915
 H944 H 0.21241 -0.02445 0.24291
 H945 H 0.25918 0.02356 0.28758
 H946 H 0.24340 0.03786 0.27178
 H947 H 0.25877 -0.03951 0.22561
 H948 H 0.24206 -0.02540 0.21201
 H949 H 0.21310 0.00748 0.27320
 H950 H 0.22721 -0.00848 0.28811
 H951 H 0.27237 0.00529 0.20991
 H952 H 0.28924 -0.00966 0.22535
 O953 O 0.53864 0.73160 0.24868
 O954 O 0.53329 0.73206 0.27394
 O955 O 0.50096 0.71245 0.23076
 O956 O 0.47716 0.71678 0.23078
 O957 O 0.51936 0.74994 0.21170
 O958 O 0.51801 0.77520 0.21757
 O959 O 0.46315 0.75136 0.26857
 O960 O 0.46681 0.72637 0.26541
 O961 O 0.49899 0.76839 0.28778
 O962 O 0.52566 0.76602 0.28304
 O963 O 0.48236 0.78789 0.25232
 O964 O 0.48370 0.78373 0.22599
 O965 O 0.46345 0.76939 0.25210
 O966 O 0.46840 0.76799 0.22532
 O967 O 0.49988 0.78734 0.26934
 O968 O 0.52603 0.78193 0.26804
 O969 O 0.48168 0.75117 0.28726
 O970 O 0.48382 0.72485 0.28210
 O971 O 0.53895 0.74905 0.23155
 O972 O 0.53406 0.77464 0.23393
 O973 O 0.50174 0.73299 0.21121
 O974 O 0.47591 0.73573 0.21659
 O975 O 0.51851 0.71188 0.24782
 O976 O 0.51686 0.71643 0.27346
 Zr977 Zr 0.51776 0.73241 0.25734
 O978 O 0.50532 0.74491 0.27152
 Zr979 Zr 0.49261 0.73344 0.23192
 O980 O 0.47890 0.74582 0.24506
 Zr981 Zr 0.51830 0.75831 0.23274
 O982 O 0.50569 0.77195 0.24573
 Zr983 Zr 0.48347 0.74178 0.26679
 O984 O 0.49585 0.72794 0.25368
 Zr985 Zr 0.50903 0.76680 0.26749
 O986 O 0.52294 0.75426 0.25454
 Zr987 Zr 0.48375 0.76771 0.24216
 O988 O 0.49640 0.75536 0.22777
 O989 O 0.51436 0.73658 0.23570
 O990 O 0.48721 0.76361 0.26385
 C991 C 0.54482 0.73865 0.23852
 C992 C 0.51124 0.70613 0.23753
 C993 C 0.51217 0.73995 0.20538
 C994 C 0.45746 0.76227 0.26232
 C995 C 0.48829 0.76165 0.29338
 C996 C 0.48933 0.79347 0.26289
 H997 H 0.50761 0.74235 0.28157
 H998 H 0.50813 0.78207 0.24366
 H999 H 0.52044 0.73048 0.22946
 H1000 H 0.46874 0.74364 0.24282
 H1001 H 0.47091 0.71786 0.26049
 H1002 H 0.46874 0.71987 0.23649
 H1003 H 0.52498 0.78832 0.25961
 H1004 H 0.53898 0.77343 0.24329
 H1005 H 0.49173 0.72659 0.28901
 H1006 H 0.50731 0.71183 0.27259
 H1007 H 0.49248 0.78961 0.22720
 H1008 H 0.50848 0.77481 0.21284
 H1009 H 0.53776 0.74171 0.27405
 H1010 H 0.52350 0.75810 0.28979
 H1011 H 0.47765 0.74487 0.21142
 H1012 H 0.46142 0.76015 0.22704
 O1013 O 0.00143 0.71199 0.73198
 O1014 O -0.02402 0.71764 0.73332
 O1015 O 0.01957 0.74863 0.71221
 O1016 O 0.01918 0.77275 0.71595
 O1017 O 0.03859 0.73120 0.74993
 O1018 O 0.03302 0.73292 0.77527
 O1019 O -0.01772 0.78795 0.75193
 O1020 O -0.01424 0.78433 0.72649
 O1021 O -0.03686 0.75275 0.76875
 O1022 O -0.03257 0.72615 0.76703
 O1023 O -0.00091 0.76937 0.78761
 O1024 O 0.02580 0.76679 0.78287
 O1025 O -0.00005 0.78786 0.76881
 O1026 O 0.02597 0.78255 0.76767
 O1027 O -0.01811 0.75203 0.78765
 O1028 O -0.01731 0.72572 0.78261
 O1029 O -0.03650 0.76966 0.75113
 O1030 O -0.03144 0.76766 0.72506
 O1031 O 0.01824 0.71176 0.74977
 O1032 O 0.01675 0.71714 0.77510
 O1033 O 0.03910 0.74811 0.73227
 O1034 O 0.03438 0.77399 0.73471
 O1035 O 0.00174 0.73188 0.71212
 O1036 O -0.02362 0.73355 0.71711
 Zr1037 Zr -0.00724 0.73295 0.73286
 O1038 O -0.02098 0.74594 0.74532
 Zr1039 Zr 0.01857 0.75769 0.73299
 O1040 O 0.00592 0.77185 0.74545
 Zr1041 Zr 0.01769 0.73261 0.75849
 O1042 O 0.00512 0.74557 0.77212
 Zr1043 Zr -0.01598 0.76770 0.74188
 O1044 O -0.00337 0.75475 0.72798
 Zr1045 Zr -0.01673 0.74249 0.76723
 O1046 O -0.00419 0.72816 0.75479
 Zr1047 Zr 0.00908 0.76729 0.76739
 O1048 O 0.02303 0.75428 0.75495
 O1049 O 0.01448 0.73611 0.73670
 O1050 O -0.01274 0.76418 0.76372
 C1051 C 0.01141 0.70580 0.73932
 C1052 C 0.01226 0.73855 0.70613
 C1053 C 0.04487 0.73788 0.73958
 C1054 C -0.01075 0.79376 0.76238
 C1055 C -0.04253 0.76325 0.76178
 C1056 C -0.01144 0.76262 0.79349
 H1057 H -0.03109 0.74377 0.74290
 H1058 H 0.00730 0.74326 0.78226
 H1059 H 0.02054 0.72980 0.73064
 H1060 H 0.00826 0.78195 0.74313
 H1061 H -0.00965 0.78007 0.71788
 H1062 H 0.01445 0.78165 0.71936
 H1063 H -0.00890 0.72686 0.78903
 H1064 H 0.00717 0.71257 0.77440
 H1065 H -0.03789 0.75931 0.72637
 H1066 H -0.02290 0.74307 0.71242
 H1067 H 0.02367 0.75903 0.78982
 H1068 H 0.03795 0.74233 0.77466
 H1069 H -0.02353 0.71297 0.74287
 H1070 H -0.03902 0.72793 0.75876
 H1071 H 0.03952 0.77242 0.74390
 H1072 H 0.02504 0.78856 0.75895
 O1073 O 0.00151 0.03812 0.01849
 O1074 O -0.02393 0.03356 0.01688
 O1075 O 0.01810 0.00060 0.03807
 O1076 O 0.01704 -0.02335 0.03412
 O1077 O 0.03823 0.01793 0.00095
 O1078 O 0.03325 0.01641 -0.02434
 O1079 O -0.01977 -0.03706 -0.00140
 O1080 O -0.01756 -0.03300 0.02357
 O1081 O -0.03773 -0.00023 -0.01903
 O1082 O -0.03213 0.02584 -0.01753
 O1083 O -0.00240 -0.01883 -0.03766
 O1084 O 0.02414 -0.01770 -0.03283
 O1085 O -0.00271 -0.03740 -0.01890
 O1086 O 0.02387 -0.03304 -0.01716
 O1087 O -0.01889 -0.00082 -0.03774
 O1088 O -0.01648 0.02557 -0.03267
 O1089 O -0.03800 -0.01816 -0.00247
 O1090 O -0.03379 -0.01549 0.02427
 O1091 O 0.01854 0.03798 0.00091
 O1092 O 0.01724 0.03257 -0.02471
 O1093 O 0.03794 0.00047 0.01806
 O1094 O 0.03191 -0.02528 0.01558
 O1095 O 0.00089 0.01799 0.03814
 O1096 O -0.02454 0.01734 0.03266
 Zr1097 Zr -0.00782 0.01755 0.01727
 O1098 O -0.02192 0.00536 0.00444
 Zr1099 Zr 0.01699 -0.00817 0.01720
 O1100 O 0.00384 -0.02168 0.00457
 Zr1101 Zr 0.01747 0.01717 -0.00801
 O1102 O 0.00463 0.00471 -0.02191
 Zr1103 Zr -0.01792 -0.01658 0.00787
 O1104 O -0.00486 -0.00439 0.02201
 Zr1105 Zr -0.01710 0.00875 -0.01735
 O1106 O -0.00424 0.02246 -0.00455
 Zr1107 Zr 0.00747 -0.01724 -0.01731
 O1108 O 0.02182 -0.00479 -0.00467
 O1109 O 0.01383 0.01360 0.01370
 O1110 O -0.01421 -0.01313 -0.01390
 C1111 C 0.01172 0.04407 0.01132
 C1112 C 0.01108 0.01085 0.04417
 C1113 C 0.04415 0.01072 0.01115
 C1114 C -0.01324 -0.04310 -0.01199
 C1115 C -0.04372 -0.01099 -0.01281
 C1116 C -0.01268 -0.01170 -0.04355
 H1117 H -0.03197 0.00796 0.00669
 H1118 H 0.00705 0.00695 -0.03201
 H1119 H 0.02004 0.01962 0.01991
 H1120 H 0.00575 -0.03186 0.00694
 H1121 H -0.01280 -0.02890 0.03218
 H1122 H 0.01123 -0.03167 0.03091
 H1123 H -0.00838 0.02367 -0.03930
 H1124 H 0.00796 0.03771 -0.02395
 H1125 H -0.04078 -0.00785 0.02184
 H1126 H -0.02428 0.00774 0.03722
 H1127 H 0.02281 -0.00941 -0.03935
 H1128 H 0.03741 0.00663 -0.02400
 H1129 H -0.02323 0.03825 0.00735
 H1130 H -0.03845 0.02473 -0.00905
 H1131 H 0.03737 -0.02380 0.00656
 H1132 H 0.02211 -0.03950 -0.00890
 O1133 O -0.01904 0.46256 0.49949
 O1134 O -0.01735 0.46814 0.52474
 O1135 O -0.03920 0.49948 0.48185
 O1136 O -0.03542 0.52351 0.48229
 O1137 O -0.00248 0.48167 0.46167
 O1138 O 0.02311 0.48333 0.46649
 O1139 O 0.00137 0.53828 0.51833
 O1140 O -0.02402 0.53474 0.51554
 O1141 O 0.01862 0.50280 0.53693
 O1142 O 0.01699 0.47620 0.53217
 O1143 O 0.03678 0.51945 0.50016
 O1144 O 0.03136 0.51759 0.47397
 O1145 O 0.01797 0.53815 0.50041
 O1146 O 0.01576 0.53285 0.47399
 O1147 O 0.03708 0.50274 0.51795
 O1148 O 0.03237 0.47623 0.51655
 O1149 O 0.00107 0.51979 0.53703
 O1150 O -0.02495 0.51800 0.53269
 O1151 O -0.00219 0.46222 0.48176
 O1152 O 0.02332 0.46737 0.48290
 O1153 O -0.01957 0.49917 0.46178
 O1154 O -0.01706 0.52491 0.46680
 O1155 O -0.03892 0.48252 0.49947
 O1156 O -0.03323 0.48428 0.52490
 Zr1157 Zr -0.01798 0.48351 0.50805
 O1158 O -0.00502 0.49629 0.52150
 Zr1159 Zr -0.01841 0.50839 0.48241
 O1160 O -0.00558 0.52239 0.49480
 Zr1161 Zr 0.00684 0.48300 0.48234
 O1162 O 0.02091 0.49589 0.49461
 Zr1163 Zr -0.00861 0.51807 0.51674
 O1164 O -0.02290 0.50533 0.50443
 Zr1165 Zr 0.01676 0.49282 0.51663
 O1166 O 0.00382 0.47860 0.50436
 Zr1167 Zr 0.01620 0.51768 0.49096
 O1168 O 0.00334 0.50477 0.47728
 O1169 O -0.01478 0.48673 0.48623
 O1170 O 0.01313 0.51453 0.51287
 C1171 C -0.01232 0.45634 0.48911
 C1172 C -0.04512 0.48933 0.48914
 C1173 C -0.01276 0.48877 0.45571
 C1174 C 0.01172 0.54406 0.51123
 C1175 C 0.01175 0.51325 0.54284
 C1176 C 0.04281 0.51313 0.51087
 H1177 H -0.00716 0.49404 0.53166
 H1178 H 0.03097 0.49357 0.49213
 H1179 H -0.02103 0.48051 0.48029
 H1180 H -0.00793 0.53251 0.49259
 H1181 H -0.03279 0.53050 0.51123
 H1182 H -0.03195 0.53231 0.48716
 H1183 H 0.03870 0.47766 0.50812
 H1184 H 0.02291 0.46292 0.49255
 H1185 H -0.02366 0.50943 0.53885
 H1186 H -0.03819 0.49366 0.52407
 H1187 H 0.03766 0.50912 0.47523
 H1188 H 0.02233 0.49274 0.46160
 H1189 H -0.00775 0.46358 0.52421
 H1190 H 0.00895 0.47792 0.53891
 H1191 H -0.00803 0.52333 0.46138
 H1192 H 0.00766 0.53952 0.47574
 O1193 O 0.53803 0.01918 0.50135
 O1194 O 0.53340 0.01787 0.47600
 O1195 O 0.50017 0.03902 0.51774
 O1196 O 0.47641 0.03501 0.51738
 O1197 O 0.51787 0.00205 0.53813
 O1198 O 0.51608 -0.02336 0.53319
 O1199 O 0.46279 -0.00027 0.47994
 O1200 O 0.46684 0.02473 0.48243
 O1201 O 0.49936 -0.01792 0.46204
 O1202 O 0.52550 -0.01674 0.46770
 O1203 O 0.48130 -0.03674 0.49805
 O1204 O 0.48148 -0.03176 0.52388
 O1205 O 0.46249 -0.01792 0.49682
 O1206 O 0.46676 -0.01555 0.52383
 O1207 O 0.49845 -0.03665 0.48065
 O1208 O 0.52508 -0.03192 0.48343
 O1209 O 0.48164 -0.00112 0.46181
 O1210 O 0.48442 0.02545 0.46618
 O1211 O 0.53784 0.00162 0.51837
 O1212 O 0.53227 -0.02387 0.51718
 O1213 O 0.50036 0.01912 0.53781
 O1214 O 0.47446 0.01639 0.53175
 O1215 O 0.51820 0.03898 0.50119
 O1216 O 0.51704 0.03368 0.47551
 Zr1217 Zr 0.51741 0.01821 0.49212
 O1218 O 0.50517 0.00542 0.47799
 Zr1219 Zr 0.49164 0.01814 0.51691
 O1220 O 0.47806 0.00567 0.50370
 Zr1221 Zr 0.51696 -0.00708 0.51738
 O1222 O 0.50442 -0.02089 0.50450
 Zr1223 Zr 0.48324 0.00900 0.48198
 O1224 O 0.49547 0.02303 0.49509
 Zr1225 Zr 0.50840 -0.01642 0.48272
 O1226 O 0.52219 -0.00366 0.49562
 Zr1227 Zr 0.48249 -0.01617 0.50736
 O1228 O 0.49501 -0.00369 0.52176
 O1229 O 0.51343 0.01461 0.51376
 O1230 O 0.48656 -0.01279 0.48566
 C1231 C 0.54398 0.01196 0.51154
 C1232 C 0.51072 0.04505 0.51114
 C1233 C 0.51067 0.01229 0.54403
 C1234 C 0.45682 -0.01098 0.48629
 C1235 C 0.48867 -0.01153 0.45606
 C1236 C 0.48796 -0.04256 0.48742
 H1237 H 0.50780 0.00766 0.46794
 H1238 H 0.50663 -0.03098 0.50692
 H1239 H 0.51949 0.02079 0.51995
 H1240 H 0.46789 0.00807 0.50558
 H1241 H 0.47098 0.03333 0.48716
 H1242 H 0.46829 0.03207 0.51116
 H1243 H 0.52288 -0.03880 0.49123
 H1244 H 0.53721 -0.02336 0.50777
 H1245 H 0.49223 0.02312 0.45934
 H1246 H 0.50759 0.03853 0.47615
 H1247 H 0.49060 -0.03722 0.52368
 H1248 H 0.50649 -0.02258 0.53776
 H1249 H 0.53789 0.00823 0.47646
 H1250 H 0.52444 -0.00825 0.46140
 H1251 H 0.47615 0.00758 0.53746
 H1252 H 0.45969 -0.00799 0.52141
 O1253 O 0.48204 0.46163 -0.00223
 O1254 O 0.48389 0.46616 0.02323
 O1255 O 0.46078 0.49837 -0.01850
 O1256 O 0.46377 0.52246 -0.01713
 O1257 O 0.49819 0.48253 -0.03905
 O1258 O 0.52372 0.48503 -0.03418
 O1259 O 0.49960 0.53755 0.01887
 O1260 O 0.47422 0.53253 0.01617
 O1261 O 0.51850 0.50219 0.03677
 O1262 O 0.51748 0.47571 0.03156
 O1263 O 0.53616 0.52018 0.00059
 O1264 O 0.53055 0.51907 -0.02571
 O1265 O 0.51696 0.53835 0.00171
 O1266 O 0.51470 0.53408 -0.02488
 O1267 O 0.53690 0.50291 0.01784
 O1268 O 0.53276 0.47633 0.01576
 O1269 O 0.50055 0.51874 0.03720
 O1270 O 0.47625 0.51528 0.03446
 O1271 O 0.49936 0.46246 -0.01949
 O1272 O 0.52453 0.46858 -0.01841
 O1273 O 0.48057 0.49949 -0.03849
 O1274 O 0.48186 0.52507 -0.03252
 O1275 O 0.46170 0.48075 -0.00157
 O1276 O 0.46771 0.48130 0.02450
 Zr1277 Zr 0.48252 0.48223 0.00723
 O1278 O 0.49492 0.49515 0.02111
 Zr1279 Zr 0.48127 0.50796 -0.01752
 O1280 O 0.49364 0.52203 -0.00474
 Zr1281 Zr 0.50746 0.48356 -0.01836
 O1282 O 0.52101 0.49650 -0.00559
 Zr1283 Zr 0.49072 0.51690 0.01701
 O1284 O 0.47678 0.50399 0.00439
 Zr1285 Zr 0.51683 0.49257 0.01629
 O1286 O 0.50451 0.47829 0.00348
 Zr1287 Zr 0.51559 0.51822 -0.00859
 O1288 O 0.50317 0.50534 -0.02270
 O1289 O 0.48570 0.48634 -0.01445
 O1290 O 0.51255 0.51425 0.01317
 C1291 C 0.48925 0.45599 -0.01261
 C1292 C 0.45523 0.48774 -0.01161
 C1293 C 0.48772 0.48949 -0.04483
 C1294 C 0.51007 0.54380 0.01239
 C1295 C 0.51145 0.51242 0.04283
 C1296 C 0.54237 0.51362 0.01104
 H1297 H 0.49269 0.49276 0.03123
 H1298 H 0.53116 0.49458 -0.00807
 H1299 H 0.47970 0.48012 -0.02065
 H1300 H 0.49094 0.53212 -0.00665
 H1301 H 0.46543 0.52752 0.01286
 H1302 H 0.46683 0.53092 -0.01144
 H1303 H 0.53910 0.47828 0.00745
 H1304 H 0.52434 0.46381 -0.00890
 H1305 H 0.46777 0.51002 0.03084
 H1306 H 0.46033 0.48878 0.02282
 H1307 H 0.53721 0.51086 -0.02459
 H1308 H 0.52251 0.49448 -0.03891
 H1309 H 0.49366 0.46203 0.02249
 H1310 H 0.50921 0.47693 0.03813
 H1311 H 0.49108 0.52428 -0.03778
 H1312 H 0.50642 0.54042 -0.02282
 O1313 O 0.74970 0.21135 0.51790
 O1314 O 0.77489 0.21682 0.51747
 O1315 O 0.73129 0.24834 0.53760
 O1316 O 0.73151 0.27228 0.53377
 O1317 O 0.71262 0.23079 0.49951
 O1318 O 0.71856 0.23215 0.47443
 O1319 O 0.76911 0.28724 0.49932
 O1320 O 0.76595 0.28321 0.52422
 O1321 O 0.78841 0.25176 0.48173
 O1322 O 0.78392 0.22514 0.48348
 O1323 O 0.75292 0.26859 0.46250
 O1324 O 0.72647 0.26685 0.46672
 O1325 O 0.75257 0.28711 0.48131
 O1326 O 0.72588 0.28203 0.48260
 O1327 O 0.76996 0.25109 0.46267
 O1328 O 0.76882 0.22485 0.46768
 O1329 O 0.78788 0.26886 0.49919
 O1330 O 0.78267 0.26620 0.52559
 O1331 O 0.73256 0.21117 0.50041
 O1332 O 0.73508 0.21642 0.47483
 O1333 O 0.71199 0.24767 0.51721
 O1334 O 0.71707 0.27369 0.51470
 O1335 O 0.74890 0.23136 0.53795
 O1336 O 0.77448 0.23295 0.53327
 Zr1337 Zr 0.75826 0.23228 0.51736
 O1338 O 0.77230 0.24502 0.50505
 Zr1339 Zr 0.73258 0.25715 0.51679
 O1340 O 0.74563 0.27119 0.50466
 Zr1341 Zr 0.73368 0.23194 0.49140
 O1342 O 0.74648 0.24492 0.47798
 Zr1343 Zr 0.76742 0.26677 0.50857
 O1344 O 0.75440 0.25406 0.52222
 Zr1345 Zr 0.76823 0.24162 0.48309
 O1346 O 0.75548 0.22740 0.49540
 Zr1347 Zr 0.74276 0.26673 0.48265
 O1348 O 0.72850 0.25372 0.49477
 O1349 O 0.73660 0.23553 0.51322
 O1350 O 0.76446 0.26336 0.48667
 C1351 C 0.73955 0.20520 0.51077
 C1352 C 0.73841 0.23822 0.54380
 C1353 C 0.70625 0.23750 0.50979
 C1354 C 0.76282 0.29304 0.48848
 C1355 C 0.79398 0.26238 0.48861
 C1356 C 0.76346 0.26173 0.45675
 H1357 H 0.78237 0.24276 0.50757
 H1358 H 0.74440 0.24264 0.46780
 H1359 H 0.73042 0.22930 0.51922
 H1360 H 0.74334 0.28129 0.50701
 H1361 H 0.76098 0.27896 0.53263
 H1362 H 0.73690 0.28091 0.53070
 H1363 H 0.76039 0.22598 0.46128
 H1364 H 0.74440 0.21145 0.47613
 H1365 H 0.78974 0.25851 0.52361
 H1366 H 0.77361 0.24242 0.53805
 H1367 H 0.72802 0.25845 0.46037
 H1368 H 0.71397 0.24175 0.47467
 H1369 H 0.77502 0.21252 0.50772
 H1370 H 0.79050 0.22704 0.49162
 H1371 H 0.71189 0.27197 0.50555
 H1372 H 0.72747 0.28875 0.49070
 O1373 O 0.78798 0.75070 -0.01880
 O1374 O 0.78208 0.72563 -0.01870
 O1375 O 0.75076 0.76961 -0.03781
 O1376 O 0.72695 0.77023 -0.03344
 O1377 O 0.76938 0.78791 0.00016
 O1378 O 0.76821 0.78180 0.02523
 O1379 O 0.71208 0.73222 0.00061
 O1380 O 0.71583 0.73543 -0.02427
 O1381 O 0.74778 0.71214 0.01744
 O1382 O 0.77419 0.71635 0.01560
 O1383 O 0.73159 0.74794 0.03750
 O1384 O 0.73331 0.77411 0.03353
 O1385 O 0.71273 0.74839 0.01894
 O1386 O 0.71817 0.77523 0.01759
 O1387 O 0.74849 0.73035 0.03660
 O1388 O 0.77503 0.73159 0.03128
 O1389 O 0.73013 0.71329 0.00057
 O1390 O 0.73271 0.71862 -0.02603
 O1391 O 0.78862 0.76766 -0.00114
 O1392 O 0.78364 0.76502 0.02452
 O1393 O 0.75222 0.78893 -0.01725
 O1394 O 0.72607 0.78417 -0.01422
 O1395 O 0.76800 0.75226 -0.03854
 O1396 O 0.76559 0.72658 -0.03429
 Zr1397 Zr 0.76692 0.74252 -0.01812
 O1398 O 0.75420 0.72851 -0.00575
 Zr1399 Zr 0.74238 0.76850 -0.01681
 O1400 O 0.72835 0.75549 -0.00463
 Zr1401 Zr 0.76796 0.76681 0.00814
 O1402 O 0.75502 0.75404 0.02162
 Zr1403 Zr 0.73246 0.73370 -0.00886
 O1404 O 0.74510 0.74672 -0.02255
 Zr1405 Zr 0.75797 0.73231 0.01620
 O1406 O 0.77216 0.74500 0.00379
 Zr1407 Zr 0.73317 0.75809 0.01733
 O1408 O 0.74620 0.77232 0.00520
 O1409 O 0.76401 0.76417 -0.01365
 O1410 O 0.73623 0.73640 0.01302
 C1411 C 0.79435 0.76068 -0.01164
 C1412 C 0.76095 0.76273 -0.04419
 C1413 C 0.76263 0.79446 -0.00999
 C1414 C 0.70654 0.73835 0.01168
 C1415 C 0.73681 0.70689 0.01085
 C1416 C 0.73817 0.73705 0.04287
 H1417 H 0.75628 0.71844 -0.00841
 H1418 H 0.75748 0.75597 0.03178
 H1419 H 0.77025 0.77031 -0.01967
 H1420 H 0.71824 0.75792 -0.00680
 H1421 H 0.71999 0.74046 -0.03267
 H1422 H 0.71848 0.76453 -0.03050
 H1423 H 0.77363 0.73951 0.03826
 H1424 H 0.78844 0.75563 0.02309
 H1425 H 0.74000 0.71115 -0.02396
 H1426 H 0.75612 0.72782 -0.03900
 H1427 H 0.74215 0.77281 0.03930
 H1428 H 0.75872 0.78663 0.02509
 H1429 H 0.78655 0.72534 -0.00904
 H1430 H 0.77245 0.71024 0.00707
 H1431 H 0.72813 0.78937 -0.00515
 H1432 H 0.71097 0.77346 0.00995
 O1433 O 1.00051 0.21147 0.23180
 O1434 O 0.97532 0.21758 0.23265
 O1435 O 1.01904 0.24857 0.21231
 O1436 O 1.01991 0.27228 0.21654
 O1437 O 1.03812 0.23003 0.25000
 O1438 O 1.03242 0.23118 0.27524
 O1439 O 0.98254 0.28746 0.25233
 O1440 O 0.98596 0.28405 0.22694
 O1441 O 0.96282 0.25212 0.26868
 O1442 O 0.96682 0.22583 0.26725
 O1443 O 0.99949 0.26805 0.28799
 O1444 O 1.02567 0.26582 0.28329
 O1445 O 1.00002 0.28687 0.26941
 O1446 O 1.02641 0.28109 0.26770
 O1447 O 0.98129 0.25177 0.28763
 O1448 O 0.98257 0.22494 0.28251
 O1449 O 0.96354 0.26934 0.25138
 O1450 O 0.96860 0.26759 0.22531
 O1451 O 1.01774 0.21080 0.24917
 O1452 O 1.01567 0.21576 0.27472
 O1453 O 1.03884 0.24707 0.23248
 O1454 O 1.03436 0.27317 0.23543
 O1455 O 1.00165 0.23136 0.21203
 O1456 O 0.97608 0.23391 0.21687
 Zr1457 Zr 0.99235 0.23260 0.23268
 O1458 O 0.97879 0.24556 0.24538
 Zr1459 Zr 1.01848 0.25697 0.23330
 O1460 O 1.00597 0.27116 0.24580
 Zr1461 Zr 1.01717 0.23147 0.25839
 O1462 O 1.00485 0.24455 0.27216
 Zr1463 Zr 0.98403 0.26729 0.24215
 O1464 O 0.99654 0.25440 0.22813
 Zr1465 Zr 0.98295 0.24187 0.26730
 O1466 O 0.99521 0.22748 0.25458
 Zr1467 Zr 1.00912 0.26627 0.26765
 O1468 O 1.02287 0.25312 0.25518
 O1469 O 1.01411 0.23538 0.23664
 O1470 O 0.98725 0.26353 0.26395
 C1471 C 1.01060 0.20507 0.23880
 C1472 C 1.01200 0.23839 0.20611
 C1473 C 1.04450 0.23674 0.23974
 C1474 C 0.98947 0.29301 0.26295
 C1475 C 0.95733 0.26279 0.26183
 C1476 C 0.98848 0.26194 0.29366
 H1477 H 0.96865 0.24353 0.24293
 H1478 H 1.00698 0.24212 0.28228
 H1479 H 1.02010 0.22910 0.23049
 H1480 H 1.00844 0.28125 0.24359
 H1481 H 0.99052 0.27982 0.21829
 H1482 H 1.01459 0.28093 0.21969
 H1483 H 0.99030 0.22666 0.28962
 H1484 H 1.00606 0.21129 0.27375
 H1485 H 0.96214 0.25922 0.22644
 H1486 H 0.97734 0.24330 0.21203
 H1487 H 1.02407 0.25734 0.28949
 H1488 H 1.03744 0.24056 0.27490
 H1489 H 0.97545 0.21292 0.24222
 H1490 H 0.96094 0.22715 0.25849
 H1491 H 1.03975 0.27113 0.24439
 H1492 H 1.02492 0.28793 0.25970
 O1493 O 0.71193 1.01885 0.74832
 O1494 O 0.71736 1.01803 0.77373
 O1495 O 0.74998 1.03739 0.73074
 O1496 O 0.77371 1.03260 0.73094
 O1497 O 0.73123 1.00018 0.71122
 O1498 O 0.73149 0.97505 0.71687
 O1499 O 0.78701 0.99684 0.76837
 O1500 O 0.78402 1.02213 0.76539
 O1501 O 0.75006 0.98127 0.78721
 O1502 O 0.72412 0.98327 0.78227
 O1503 O 0.76736 0.96151 0.75165
 O1504 O 0.76549 0.96584 0.72506
 O1505 O 0.78649 0.97975 0.75088
 O1506 O 0.78128 0.98100 0.72454
 O1507 O 0.74989 0.96229 0.76869
 O1508 O 0.72333 0.96814 0.76655
 O1509 O 0.76849 0.99729 0.78691
 O1510 O 0.76696 1.02388 0.78216
 O1511 O 0.71133 1.00150 0.73104
 O1512 O 0.71569 0.97580 0.73320
 O1513 O 0.74868 1.01731 0.71104
 O1514 O 0.77456 1.01374 0.71636
 O1515 O 0.73239 1.03815 0.74772
 O1516 O 0.73403 1.03342 0.77330
 Zr1517 Zr 0.73280 1.01754 0.75707
 O1518 O 0.74496 1.00458 0.77108
 Zr1519 Zr 0.75794 1.01624 0.73173
 O1520 O 0.77137 1.00340 0.74473
 Zr1521 Zr 0.73177 0.99183 0.73220
 O1522 O 0.74407 0.97777 0.74496
 Zr1523 Zr 0.76695 1.00716 0.76658
 O1524 O 0.75486 1.02148 0.75360
 Zr1525 Zr 0.74073 0.98284 0.76671
 O1526 O 0.72711 0.99585 0.75400
 Zr1527 Zr 0.76605 0.98166 0.74146
 O1528 O 0.75370 0.99446 0.72725
 O1529 O 0.73613 1.01346 0.73541
 O1530 O 0.76264 0.98551 0.76321
 C1531 C 0.70562 1.01196 0.73809
 C1532 C 0.73976 1.04383 0.73749
 C1533 C 0.73835 1.01030 0.70507
 C1534 C 0.79258 0.98621 0.76148
 C1535 C 0.76111 0.98727 0.79292
 C1536 C 0.76043 0.95607 0.76229
 H1537 H 0.74267 1.00708 0.78116
 H1538 H 0.74144 0.96771 0.74279
 H1539 H 0.73016 1.01971 0.72921
 H1540 H 0.78157 1.00538 0.74254
 H1541 H 0.78012 1.03081 0.76063
 H1542 H 0.78209 1.02920 0.73654
 H1543 H 0.72514 0.96095 0.75892
 H1544 H 0.71082 0.97699 0.74259
 H1545 H 0.75901 1.02221 0.78903
 H1546 H 0.74376 1.03768 0.77259
 H1547 H 0.75721 0.95944 0.72692
 H1548 H 0.74120 0.97483 0.71252
 H1549 H 0.71231 1.00867 0.77339
 H1550 H 0.72542 0.99204 0.78816
 H1551 H 0.77244 1.00486 0.71087
 H1552 H 0.78795 0.98919 0.72583
 O1553 O 0.74932 0.53777 0.23115
 O1554 O 0.77445 0.53224 0.23179
 O1555 O 0.73128 0.50047 0.21139
 O1556 O 0.73134 0.47664 0.21527
 O1557 O 0.71193 0.51855 0.24860
 O1558 O 0.71732 0.51694 0.27403
 O1559 O 0.76854 0.46205 0.25057
 O1560 O 0.76563 0.46587 0.22541
 O1561 O 0.78759 0.49761 0.26799
 O1562 O 0.78295 0.52416 0.26635
 O1563 O 0.75117 0.48114 0.28697
 O1564 O 0.72532 0.48219 0.28218
 O1565 O 0.75174 0.46231 0.26831
 O1566 O 0.72487 0.46732 0.26604
 O1567 O 0.76903 0.49780 0.28678
 O1568 O 0.76741 0.52442 0.28182
 O1569 O 0.78734 0.48055 0.25048
 O1570 O 0.78255 0.48274 0.22433
 O1571 O 0.73196 0.53801 0.24840
 O1572 O 0.73382 0.53281 0.27395
 O1573 O 0.71161 0.50097 0.23158
 O1574 O 0.71694 0.47506 0.23409
 O1575 O 0.74836 0.51799 0.21112
 O1576 O 0.77410 0.51585 0.21602
 Zr1577 Zr 0.75777 0.51682 0.23179
 O1578 O 0.77165 0.50420 0.24448
 Zr1579 Zr 0.73227 0.49180 0.23222
 O1580 O 0.74513 0.47788 0.24461
 Zr1581 Zr 0.73280 0.51725 0.25740
 O1582 O 0.74544 0.50439 0.27111
 Zr1583 Zr 0.76694 0.48240 0.24100
 O1584 O 0.75411 0.49497 0.22705
 Zr1585 Zr 0.76731 0.50762 0.26642
 O1586 O 0.75469 0.52174 0.25373
 Zr1587 Zr 0.74180 0.48256 0.26648
 O1588 O 0.72771 0.49544 0.25410
 O1589 O 0.73608 0.51349 0.23567
 O1590 O 0.76359 0.48589 0.26285
 C1591 C 0.73911 0.54395 0.23816
 C1592 C 0.73803 0.51085 0.20524
 C1593 C 0.70572 0.51140 0.23849
 C1594 C 0.76211 0.45634 0.26138
 C1595 C 0.79332 0.48707 0.26110
 C1596 C 0.76197 0.48753 0.29275
 H1597 H 0.78175 0.50650 0.24213
 H1598 H 0.74320 0.50671 0.28124
 H1599 H 0.72996 0.51969 0.22958
 H1600 H 0.74291 0.46775 0.24229
 H1601 H 0.76103 0.47012 0.21680
 H1602 H 0.73702 0.46818 0.21829
 H1603 H 0.75932 0.52281 0.28855
 H1604 H 0.74333 0.53751 0.27309
 H1605 H 0.78900 0.49105 0.22584
 H1606 H 0.77297 0.50649 0.21107
 H1607 H 0.72595 0.49124 0.28773
 H1608 H 0.71234 0.50757 0.27330
 H1609 H 0.77455 0.53652 0.24155
 H1610 H 0.78947 0.52248 0.25812
 H1611 H 0.71148 0.47680 0.24306
 H1612 H 0.72709 0.46006 0.25858
 O1613 O 0.53805 0.23100 0.74972
 O1614 O 0.53177 0.23180 0.77498
 O1615 O 0.50127 0.21246 0.73017
 O1616 O 0.47729 0.21684 0.73007
 O1617 O 0.52010 0.25011 0.71225
 O1618 O 0.51923 0.27527 0.71844
 O1619 O 0.46218 0.25232 0.76728
 O1620 O 0.46527 0.22699 0.76345
 O1621 O 0.49746 0.26794 0.78768
 O1622 O 0.52419 0.26556 0.78389
 O1623 O 0.48227 0.28796 0.75176
 O1624 O 0.48517 0.28373 0.72507
 O1625 O 0.46323 0.26966 0.75012
 O1626 O 0.46918 0.26882 0.72407
 O1627 O 0.49920 0.28719 0.76936
 O1628 O 0.52525 0.28153 0.76907
 O1629 O 0.48003 0.25088 0.78650
 O1630 O 0.48151 0.22486 0.78102
 O1631 O 0.53916 0.24861 0.73278
 O1632 O 0.53466 0.27417 0.73519
 O1633 O 0.50276 0.23290 0.71105
 O1634 O 0.47687 0.23588 0.71527
 O1635 O 0.51759 0.21161 0.74840
 O1636 O 0.51546 0.21616 0.77382
 Zr1637 Zr 0.51690 0.23217 0.75778
 O1638 O 0.50396 0.24471 0.77148
 Zr1639 Zr 0.49279 0.23345 0.73139
 O1640 O 0.47870 0.24604 0.74396
 Zr1641 Zr 0.51864 0.25816 0.73336
 O1642 O 0.50574 0.27189 0.74590
 Zr1643 Zr 0.48224 0.24193 0.76588
 O1644 O 0.49508 0.22794 0.75329
 Zr1645 Zr 0.50815 0.26655 0.76774
 O1646 O 0.52244 0.25396 0.75528
 Zr1647 Zr 0.48397 0.26789 0.74137
 O1648 O 0.49696 0.25536 0.72748
 O1649 O 0.51438 0.23645 0.73605
 O1650 O 0.48645 0.26371 0.76319
 C1651 C 0.54466 0.23803 0.73979
 C1652 C 0.51100 0.20599 0.73760
 C1653 C 0.51325 0.24009 0.70561
 C1654 C 0.45684 0.26309 0.76045
 C1655 C 0.48661 0.26118 0.79293
 C1656 C 0.48892 0.29344 0.76258
 H1657 H 0.50584 0.24205 0.78159
 H1658 H 0.50838 0.28200 0.74399
 H1659 H 0.52062 0.23033 0.72999
 H1660 H 0.46860 0.24404 0.74133
 H1661 H 0.46943 0.21835 0.75882
 H1662 H 0.46840 0.22037 0.73473
 H1663 H 0.52466 0.28792 0.76059
 H1664 H 0.53911 0.27295 0.74479
 H1665 H 0.48968 0.22590 0.78776
 H1666 H 0.50584 0.21174 0.77276
 H1667 H 0.49318 0.29032 0.72744
 H1668 H 0.50985 0.27518 0.71340
 H1669 H 0.53669 0.24124 0.77492
 H1670 H 0.52192 0.25736 0.79026
 H1671 H 0.47877 0.24513 0.71037
 H1672 H 0.46271 0.26042 0.72483
 O1673 O 0.26819 0.78914 0.49923
 O1674 O 0.26688 0.78393 0.52448
 O1675 O 0.28855 0.75225 0.48169
 O1676 O 0.28504 0.72824 0.48219
 O1677 O 0.25124 0.76943 0.46179
 O1678 O 0.22589 0.76763 0.46683
 O1679 O 0.24928 0.71335 0.51880
 O1680 O 0.27433 0.71745 0.51622
 O1681 O 0.23121 0.74900 0.53730
 O1682 O 0.23255 0.77547 0.53240
 O1683 O 0.21294 0.73178 0.50081
 O1684 O 0.21819 0.73284 0.47479
 O1685 O 0.23179 0.71320 0.50172
 O1686 O 0.23425 0.71795 0.47490
 O1687 O 0.21268 0.74871 0.51844
 O1688 O 0.21721 0.77524 0.51672
 O1689 O 0.24882 0.73207 0.53742
 O1690 O 0.27509 0.73453 0.53294
 O1691 O 0.25119 0.78907 0.48161
 O1692 O 0.22559 0.78360 0.48329
 O1693 O 0.26857 0.75216 0.46181
 O1694 O 0.26647 0.72634 0.46720
 O1695 O 0.28827 0.76936 0.49922
 O1696 O 0.28281 0.76786 0.52472
 Zr1697 Zr 0.26743 0.76831 0.50798
 O1698 O 0.25475 0.75559 0.52170
 Zr1699 Zr 0.26784 0.74314 0.48255
 O1700 O 0.25540 0.72912 0.49529
 Zr1701 Zr 0.24230 0.76822 0.48255
 O1702 O 0.22856 0.75524 0.49502
 Zr1703 Zr 0.25859 0.73382 0.51715
 O1704 O 0.27257 0.74652 0.50449
 Zr1705 Zr 0.23289 0.75874 0.51694
 O1706 O 0.24555 0.77296 0.50447
 Zr1707 Zr 0.23351 0.73343 0.49163
 O1708 O 0.24598 0.74641 0.47768
 O1709 O 0.26401 0.76478 0.48622
 O1710 O 0.23678 0.73701 0.51345
 C1711 C 0.26134 0.79516 0.48883
 C1712 C 0.29445 0.76251 0.48889
 C1713 C 0.26153 0.76241 0.45576
 C1714 C 0.23865 0.70742 0.51225
 C1715 C 0.23811 0.73860 0.54321
 C1716 C 0.20694 0.73825 0.51146
 H1717 H 0.25694 0.75800 0.53182
 H1718 H 0.21845 0.75740 0.49259
 H1719 H 0.27014 0.77099 0.48015
 H1720 H 0.25788 0.71901 0.49318
 H1721 H 0.28292 0.72171 0.51160
 H1722 H 0.28189 0.71962 0.48755
 H1723 H 0.21080 0.77362 0.50839
 H1724 H 0.22639 0.78850 0.49272
 H1725 H 0.27324 0.74270 0.53951
 H1726 H 0.28781 0.75850 0.52396
 H1727 H 0.21214 0.74154 0.47561
 H1728 H 0.22661 0.75812 0.46210
 H1729 H 0.25717 0.78826 0.52417
 H1730 H 0.24074 0.77400 0.53902
 H1731 H 0.25740 0.72776 0.46180
 H1732 H 0.24200 0.71101 0.47712
 O1733 O 0.28913 0.25211 0.98276
 O1734 O 0.28510 0.22658 0.98513
 O1735 O 0.25212 0.26688 0.96081
 O1736 O 0.22806 0.26532 0.96361
 O1737 O 0.26727 0.28889 0.99781
 O1738 O 0.26466 0.28472 1.02336
 O1739 O 0.21374 0.22947 1.00036
 O1740 O 0.21850 0.23141 0.97517
 O1741 O 0.24967 0.21324 1.01979
 O1742 O 0.27582 0.21941 1.01938
 O1743 O 0.22997 0.24932 1.03628
 O1744 O 0.23052 0.27544 1.03026
 O1745 O 0.21215 0.24742 1.01689
 O1746 O 0.21588 0.27402 1.01402
 O1747 O 0.24774 0.23265 1.03782
 O1748 O 0.27440 0.23554 1.03407
 O1749 O 0.23290 0.21180 1.00206
 O1750 O 0.23628 0.21532 0.97566
 O1751 O 0.28774 0.26981 0.99964
 O1752 O 0.28133 0.26924 1.02489
 O1753 O 0.25059 0.28738 0.97995
 O1754 O 0.22495 0.28094 0.98155
 O1755 O 0.27001 0.25024 0.96220
 O1756 O 0.26960 0.22498 0.96857
 Zr1757 Zr 0.26874 0.24224 0.98335
 O1758 O 0.25621 0.22836 0.99610
 Zr1759 Zr 0.24243 0.26633 0.98124
 O1760 O 0.22861 0.25342 0.99371
 Zr1761 Zr 0.26660 0.26846 1.00758
 O1762 O 0.25381 0.25585 1.02136
 Zr1763 Zr 0.23436 0.23171 0.99148
 O1764 O 0.24696 0.24444 0.97745
 Zr1765 Zr 0.25843 0.23401 1.01788
 O1766 O 0.27247 0.24673 1.00526
 Zr1767 Zr 0.23207 0.25808 1.01558
 O1768 O 0.24474 0.27217 1.00300
 O1769 O 0.26409 0.26387 0.98590
 O1770 O 0.23671 0.23636 1.01323
 C1771 C 0.29447 0.26280 0.98978
 C1772 C 0.26288 0.26001 0.95547
 C1773 C 0.26035 0.29417 0.98704
 C1774 C 0.20713 0.23627 1.01042
 C1775 C 0.23953 0.20668 1.01304
 C1776 C 0.23668 0.23922 1.04288
 H1777 H 0.25913 0.21830 0.99434
 H1778 H 0.25554 0.25870 1.03146
 H1779 H 0.27023 0.26999 0.97975
 H1780 H 0.21849 0.25497 0.99085
 H1781 H 0.22290 0.23581 0.96654
 H1782 H 0.21955 0.25978 0.96673
 H1783 H 0.27200 0.24381 1.04032
 H1784 H 0.28646 0.25992 1.02490
 H1785 H 0.24457 0.20913 0.97812
 H1786 H 0.26028 0.22497 0.96343
 H1787 H 0.23871 0.27479 1.03702
 H1788 H 0.25499 0.28897 1.02209
 H1789 H 0.28927 0.22770 0.99487
 H1790 H 0.27514 0.21269 1.01116
 H1791 H 0.22589 0.28674 0.99043
 H1792 H 0.20969 0.27161 1.00570
 C1793 C 0.28393 0.40489 0.78768
 C1794 C 0.27982 0.40025 0.80146
 C1795 C 0.28656 0.38835 0.80759
 C1796 C 0.29748 0.38104 0.80015
 C1797 C 0.30143 0.38617 0.78650
 N1798 N 0.29467 0.39778 0.78072
 C1799 C 0.27732 0.41761 0.78071
 N1800 N 0.28474 0.42455 0.77017
 C1801 C 0.27967 0.43662 0.76366
 C1802 C 0.26638 0.44249 0.76778
 C1803 C 0.25835 0.43525 0.77829
 C1804 C 0.26370 0.42281 0.78470
 H1805 H 0.28328 0.38503 0.81824
 H1806 H 0.30977 0.38095 0.78032
 H1807 H 0.28626 0.44183 0.75561
 H1808 H 0.24797 0.43928 0.78171
 H1809 H 0.27173 0.40584 0.80765
 H1810 H 0.25717 0.41740 0.79264
 C1811 C 0.28815 -0.09501 0.28444
 C1812 C 0.30201 -0.09951 0.28052
 C1813 C 0.30817 -0.11135 0.28730
 C1814 C 0.30065 -0.11877 0.29807
 C1815 C 0.28692 -0.11374 0.30189
 N1816 N 0.28113 -0.10216 0.29511
 C1817 C 0.28116 -0.08240 0.27770
 N1818 N 0.27073 -0.07528 0.28509
 C1819 C 0.26426 -0.06324 0.27988
 C1820 C 0.26833 -0.05763 0.26646
 C1821 C 0.27871 -0.06512 0.25845
 C1822 C 0.28508 -0.07749 0.26396
 H1823 H 0.31886 -0.11459 0.28409
 H1824 H 0.28068 -0.11902 0.31014
 H1825 H 0.25630 -0.05786 0.28645
 H1826 H 0.28207 -0.06132 0.24796
 H1827 H 0.30823 -0.09385 0.27249
 H1828 H 0.29294 -0.08308 0.25747
 C1829 C 0.78344 0.90458 0.78797
 C1830 C 0.77800 0.89804 0.80044
 C1831 C 0.78503 0.88624 0.80632
 C1832 C 0.79760 0.88071 0.79998
 C1833 C 0.80274 0.88761 0.78752
 N1834 N 0.79565 0.89913 0.78196
 C1835 C 0.77656 0.91733 0.78118
 N1836 N 0.78298 0.92332 0.76946
 C1837 C 0.77776 0.93528 0.76287
 C1838 C 0.76534 0.94209 0.76814
 C1839 C 0.75838 0.93594 0.78002
 C1840 C 0.76388 0.92363 0.78652
 H1841 H 0.78045 0.88159 0.81593
 H1842 H 0.81235 0.88395 0.78212
 H1843 H 0.78356 0.93965 0.75378
 H1844 H 0.74883 0.94081 0.78455
 H1845 H 0.76847 0.90183 0.80584
 H1846 H 0.75819 0.91944 0.79571
 C1847 C 0.46689 0.84546 0.28796
 C1848 C 0.47183 0.85138 0.30097
 C1849 C 0.46488 0.86326 0.30685
 C1850 C 0.45289 0.86932 0.29997
 C1851 C 0.44816 0.86300 0.28709
 N1852 N 0.45516 0.85143 0.28152
 C1853 C 0.47363 0.83264 0.28121
 N1854 N 0.46668 0.82610 0.27008
 C1855 C 0.47175 0.81399 0.26365
 C1856 C 0.48453 0.80758 0.26850
 C1857 C 0.49209 0.81436 0.27969
 C1858 C 0.48677 0.82686 0.28598
 H1859 H 0.46892 0.86754 0.31688
 H1860 H 0.43896 0.86722 0.28137
 H1861 H 0.46554 0.80917 0.25505
 H1862 H 0.50203 0.80987 0.28378
 H1863 H 0.48080 0.84693 0.30683
 H1864 H 0.49298 0.83172 0.29450
 C1865 C -0.03371 0.84509 0.78831
 C1866 C -0.02939 0.84997 0.80197
 C1867 C -0.03623 0.86180 0.80817
 C1868 C -0.04747 0.86878 0.80090
 C1869 C -0.05162 0.86342 0.78739
 N1870 N -0.04476 0.85190 0.78155
 C1871 C -0.02698 0.83247 0.78123
 N1872 N -0.03439 0.82543 0.77072
 C1873 C -0.02919 0.81347 0.76407
 C1874 C -0.01575 0.80782 0.76801
 C1875 C -0.00773 0.81519 0.77849
 C1876 C -0.01323 0.82750 0.78504
 H1877 H -0.03280 0.86529 0.81873
 H1878 H -0.06022 0.86838 0.78136
 H1879 H -0.03579 0.80815 0.75609
 H1880 H 0.00273 0.81131 0.78184
 H1881 H -0.02105 0.84460 0.80803
 H1882 H -0.00672 0.83297 0.79297
 C1883 C -0.03788 -0.09525 -0.03439
 C1884 C -0.05173 -0.09982 -0.03048
 C1885 C -0.05779 -0.11173 -0.03725
 C1886 C -0.05022 -0.11914 -0.04801
 C1887 C -0.03650 -0.11409 -0.05178
 N1888 N -0.03078 -0.10245 -0.04500
 C1889 C -0.03105 -0.08247 -0.02775
 N1890 N -0.02050 -0.07546 -0.03509
 C1891 C -0.01422 -0.06325 -0.03002
 C1892 C -0.01865 -0.05728 -0.01685
 C1893 C -0.02916 -0.06461 -0.00890
 C1894 C -0.03530 -0.07720 -0.01423
 H1895 H -0.06852 -0.11494 -0.03413
 H1896 H -0.03024 -0.11941 -0.06001
 H1897 H -0.00614 -0.05801 -0.03654
 H1898 H -0.03282 -0.06051 0.00138
 H1899 H -0.05805 -0.09415 -0.02254
 H1900 H -0.04326 -0.08266 -0.00776
 C1901 C -0.03681 0.40391 0.46715
 C1902 C -0.04989 0.39824 0.47211
 C1903 C -0.05600 0.38645 0.46515
 C1904 C -0.04932 0.38023 0.45306
 C1905 C -0.03633 0.38641 0.44833
 N1906 N -0.03054 0.39786 0.45537
 C1907 C -0.02994 0.41669 0.47387
 N1908 N -0.01951 0.42374 0.46641
 C1909 C -0.01315 0.43592 0.47141
 C1910 C -0.01741 0.44191 0.48462
 C1911 C -0.02778 0.43455 0.49273
 C1912 C -0.03396 0.42193 0.48749
 H1913 H -0.06611 0.38248 0.46925
 H1914 H -0.03066 0.38220 0.43910
 H1915 H -0.00518 0.44119 0.46477
 H1916 H -0.03136 0.43870 0.50302
 H1917 H -0.05564 0.40293 0.48103
 H1918 H -0.04183 0.41654 0.49411
 C1919 C 0.46332 -0.09441 0.46414
 C1920 C 0.44990 -0.09949 0.46874
 C1921 C 0.44374 -0.11136 0.46202
 C1922 C 0.45071 -0.11826 0.45048
 C1923 C 0.46399 -0.11256 0.44595
 N1924 N 0.46985 -0.10101 0.45280
 C1925 C 0.47025 -0.08172 0.47094
 N1926 N 0.48031 -0.07421 0.46341
 C1927 C 0.48659 -0.06208 0.46868
 C1928 C 0.48267 -0.05670 0.48227
 C1929 C 0.47269 -0.06456 0.49040
 C1930 C 0.46658 -0.07708 0.48487
 H1931 H 0.43337 -0.11487 0.46591
 H1932 H 0.46987 -0.11731 0.43711
 H1933 H 0.49426 -0.05641 0.46202
 H1934 H 0.46948 -0.06095 0.50100
 H1935 H 0.44393 -0.09427 0.47724
 H1936 H 0.45909 -0.08296 0.49151
 C1937 C 0.46761 0.40366 -0.03752
 C1938 C 0.47236 0.39832 -0.05083
 C1939 C 0.46539 0.38660 -0.05708
 C1940 C 0.45352 0.38013 -0.05029
 C1941 C 0.44902 0.38597 -0.03704
 N1942 N 0.45605 0.39736 -0.03114
 C1943 C 0.47427 0.41638 -0.03052
 N1944 N 0.46677 0.42335 -0.02004
 C1945 C 0.47170 0.43551 -0.01359
 C1946 C 0.48488 0.44156 -0.01780
 C1947 C 0.49305 0.43428 -0.02819
 C1948 C 0.48788 0.42167 -0.03448
 H1949 H 0.46931 0.38286 -0.06737
 H1950 H 0.43998 0.38155 -0.03125
 H1951 H 0.46502 0.44072 -0.00561
 H1952 H 0.50334 0.43846 -0.03169
 H1953 H 0.48112 0.40323 -0.05665
 H1954 H 0.49451 0.41631 -0.04237
 C1955 C 0.78784 0.34479 0.46560
 C1956 C 0.80157 0.34961 0.46968
 C1957 C 0.80763 0.36147 0.46280
 C1958 C 0.80015 0.36855 0.45175
 C1959 C 0.78658 0.36324 0.44782
 N1960 N 0.78087 0.35168 0.45472
 C1961 C 0.78095 0.33211 0.47238
 N1962 N 0.77024 0.32517 0.46517
 C1963 C 0.76385 0.31308 0.47035
 C1964 C 0.76828 0.30717 0.48353
 C1965 C 0.77895 0.31445 0.49138
 C1966 C 0.78522 0.32691 0.48591
 H1967 H 0.81824 0.36491 0.46610
 H1968 H 0.78042 0.36829 0.43936
 H1969 H 0.75566 0.30787 0.46392
 H1970 H 0.78262 0.31041 0.50166
 H1971 H 0.80781 0.34421 0.47786
 H1972 H 0.79331 0.33229 0.49230
 C1973 C 0.78768 0.84667 -0.03174
 C1974 C 0.80097 0.85218 -0.02711
 C1975 C 0.80706 0.86389 -0.03424
 C1976 C 0.80008 0.87014 -0.04608
 C1977 C 0.78687 0.86425 -0.05043
 N1978 N 0.78114 0.85285 -0.04329
 C1979 C 0.78080 0.83393 -0.02498
 N1980 N 0.76979 0.82738 -0.03210
 C1981 C 0.76331 0.81527 -0.02714
 C1982 C 0.76800 0.80882 -0.01432
 C1983 C 0.77899 0.81564 -0.00653
 C1984 C 0.78533 0.82820 -0.01173
 H1985 H 0.81732 0.86786 -0.03051
 H1986 H 0.78104 0.86862 -0.05948
 H1987 H 0.75486 0.81043 -0.03353
 H1988 H 0.78291 0.81111 0.00346
 H1989 H 0.80688 0.84746 -0.01830
 H1990 H 0.79372 0.83313 -0.00538
 C1991 C 0.78846 0.28462 0.40500
 C1992 C 0.80219 0.28053 0.40021
 C1993 C 0.80823 0.28733 0.38831
 C1994 C 0.80075 0.29830 0.38114
 C1995 C 0.78716 0.30226 0.38643
 N1996 N 0.78147 0.29544 0.39805
 C1997 C 0.78160 0.27790 0.41772
 N1998 N 0.77110 0.28524 0.42483
 C1999 C 0.76472 0.28006 0.43693
 C2000 C 0.76896 0.26675 0.44266
 C2001 C 0.77942 0.25880 0.43523
 C2002 C 0.78567 0.26426 0.42276
 H2003 H 0.81885 0.28406 0.38489
 H2004 H 0.78097 0.31066 0.38132
 H2005 H 0.75669 0.28657 0.44227
 H2006 H 0.78293 0.24842 0.43914
 H2007 H 0.80842 0.27241 0.40570
 H2008 H 0.79358 0.25780 0.41721
 C2009 C 0.78328 0.78704 -0.09655
 C2010 C 0.77856 0.80023 -0.10217
 C2011 C 0.78562 0.80625 -0.11391
 C2012 C 0.79752 0.79936 -0.12015
 C2013 C 0.80202 0.78626 -0.11414
 N2014 N 0.79492 0.78056 -0.10268
 C2015 C 0.77645 0.78027 -0.08378
 N2016 N 0.78354 0.76943 -0.07696
 C2017 C 0.77845 0.76316 -0.06477
 C2018 C 0.76554 0.76792 -0.05854
 C2019 C 0.75779 0.77872 -0.06565
 C2020 C 0.76310 0.78482 -0.07827
 H2021 H 0.78175 0.81645 -0.11790
 H2022 H 0.81116 0.78054 -0.11848
 H2023 H 0.78480 0.75483 -0.05971
 H2024 H 0.74773 0.78269 -0.06131
 H2025 H 0.76972 0.80613 -0.09751
 H2026 H 0.75673 0.79304 -0.08343
 C2027 C 0.28792 0.46620 0.84434
 C2028 C 0.30170 0.47026 0.84901
 C2029 C 0.30780 0.46353 0.86095
 C2030 C 0.30032 0.45266 0.86825
 C2031 C 0.28666 0.44874 0.86307
 N2032 N 0.28092 0.45550 0.85144
 C2033 C 0.28094 0.47282 0.83162
 N2034 N 0.27034 0.46544 0.82470
 C2035 C 0.26379 0.47051 0.81265
 C2036 C 0.26794 0.48377 0.80674
 C2037 C 0.27849 0.49178 0.81399
 C2038 C 0.28494 0.48642 0.82642
 H2039 H 0.31841 0.46683 0.86434
 H2040 H 0.28044 0.44043 0.86826
 H2041 H 0.25571 0.46393 0.80744
 H2042 H 0.28196 0.50212 0.80993
 H2043 H 0.30791 0.47836 0.84345
 H2044 H 0.29295 0.49293 0.83180
 C2045 C 0.28785 -0.03445 0.34433
 C2046 C 0.30166 -0.03057 0.34905
 C2047 C 0.30765 -0.03742 0.36094
 C2048 C 0.30005 -0.04825 0.36820
 C2049 C 0.28638 -0.05202 0.36299
 N2050 N 0.28073 -0.04514 0.35137
 C2051 C 0.28104 -0.02766 0.33160
 N2052 N 0.27023 -0.03476 0.32474
 C2053 C 0.26389 -0.02959 0.31262
 C2054 C 0.26850 -0.01654 0.30657
 C2055 C 0.27931 -0.00881 0.31375
 C2056 C 0.28551 -0.01425 0.32627
 H2057 H 0.31834 -0.03428 0.36427
 H2058 H 0.28010 -0.06032 0.36816
 H2059 H 0.25559 -0.03594 0.30749
 H2060 H 0.28313 0.00136 0.30958
 H2061 H 0.30802 -0.02257 0.34353
 H2062 H 0.29370 -0.00794 0.33159
 C2063 C -0.03861 -0.03468 -0.09493
 C2064 C -0.05203 -0.03005 -0.10006
 C2065 C -0.05822 -0.03682 -0.11192
 C2066 C -0.05125 -0.04839 -0.11875
 C2067 C -0.03796 -0.05290 -0.11302
 N2068 N -0.03211 -0.04604 -0.10148
 C2069 C -0.03151 -0.02793 -0.08231
 N2070 N -0.02111 -0.03541 -0.07521
 C2071 C -0.01448 -0.03021 -0.06323
 C2072 C -0.01833 -0.01673 -0.05761
 C2073 C -0.02869 -0.00865 -0.06503
 C2074 C -0.03521 -0.01413 -0.07739
 H2075 H -0.06857 -0.03296 -0.11553
 H2076 H -0.03206 -0.06176 -0.11768
 H2077 H -0.00656 -0.03685 -0.05789
 H2078 H -0.03194 0.00185 -0.06119
 H2079 H -0.05793 -0.02148 -0.09490
 H2080 H -0.04303 -0.00754 -0.08291
 C2081 C -0.03763 0.46679 0.40348
 C2082 C -0.05075 0.47177 0.39793
 C2083 C -0.05693 0.46492 0.38609
 C2084 C -0.05027 0.45290 0.37975
 C2085 C -0.03719 0.44818 0.38579
 N2086 N -0.03136 0.45511 0.39728
 C2087 C -0.03068 0.47338 0.41626
 N2088 N -0.02059 0.46566 0.42355
 C2089 C -0.01413 0.47064 0.43570
 C2090 C -0.01792 0.48411 0.44137
 C2091 C -0.02793 0.49246 0.43376
 C2092 C -0.03423 0.48722 0.42119
 H2093 H -0.06707 0.46900 0.38216
 H2094 H -0.03149 0.43903 0.38148
 H2095 H -0.00646 0.46382 0.44118
 H2096 H -0.03112 0.50296 0.43766
 H2097 H -0.05649 0.48062 0.40279
 H2098 H -0.04179 0.49401 0.41556
 C2099 C 0.46515 -0.03685 0.40476
 C2100 C 0.46872 -0.05086 0.40045
 C2101 C 0.46176 -0.05700 0.38869
 C2102 C 0.45116 -0.04933 0.38116
 C2103 C 0.44764 -0.03547 0.38604
 N2104 N 0.45461 -0.02969 0.39755
 C2105 C 0.47211 -0.02987 0.41729
 N2106 N 0.46503 -0.01910 0.42423
 C2107 C 0.47039 -0.01264 0.43621
 C2108 C 0.48363 -0.01707 0.44199
 C2109 C 0.49135 -0.02780 0.43471
 C2110 C 0.48570 -0.03415 0.42235
 H2111 H 0.46468 -0.06783 0.38562
 H2112 H 0.43951 -0.02914 0.38066
 H2113 H 0.46405 -0.00441 0.44145
 H2114 H 0.50167 -0.03147 0.43868
 H2115 H 0.47658 -0.05721 0.40619
 H2116 H 0.49195 -0.04230 0.41692
 C2117 C 0.46319 0.46784 -0.09729
 C2118 C 0.44989 0.47263 -0.10262
 C2119 C 0.44360 0.46563 -0.11431
 C2120 C 0.45039 0.45377 -0.12071
 C2121 C 0.46360 0.44922 -0.11497
 N2122 N 0.46954 0.45624 -0.10359
 C2123 C 0.47019 0.47449 -0.08457
 N2124 N 0.48050 0.46690 -0.07746
 C2125 C 0.48686 0.47180 -0.06524
 C2126 C 0.48273 0.48505 -0.05929
 C2127 C 0.47253 0.49332 -0.06674
 C2128 C 0.46633 0.48816 -0.07938
 H2129 H 0.43332 0.46947 -0.11816
 H2130 H 0.46928 0.44015 -0.11950
 H2131 H 0.49469 0.46506 -0.05989
 H2132 H 0.46914 0.50368 -0.06264
 H2133 H 0.44412 0.48144 -0.09772
 H2134 H 0.45859 0.49487 -0.08485
 C2135 C 0.46288 0.78465 0.34515
 C2136 C 0.44997 0.77954 0.35111
 C2137 C 0.44401 0.78642 0.36299
 C2138 C 0.45066 0.79853 0.36907
 C2139 C 0.46345 0.80347 0.36271
 N2140 N 0.46913 0.79651 0.35112
 C2141 C 0.46973 0.77783 0.33236
 N2142 N 0.48092 0.78469 0.32585
 C2143 C 0.48744 0.77949 0.31381
 C2144 C 0.48263 0.76665 0.30744
 C2145 C 0.47137 0.75921 0.31418
 C2146 C 0.46499 0.76465 0.32659
 H2147 H 0.43409 0.78218 0.36729
 H2148 H 0.46898 0.81279 0.36691
 H2149 H 0.49609 0.78562 0.30902
 H2150 H 0.46730 0.74925 0.30972
 H2151 H 0.44425 0.77047 0.34670
 H2152 H 0.45643 0.75847 0.33138
 C2153 C -0.03647 0.78577 0.84502
 C2154 C -0.05014 0.78142 0.84968
 C2155 C -0.05641 0.78811 0.86151
 C2156 C -0.04920 0.79922 0.86876
 C2157 C -0.03571 0.80355 0.86352
 N2158 N -0.02978 0.79681 0.85196
 C2159 C -0.02938 0.77901 0.83246
 N2160 N -0.01938 0.78663 0.82496
 C2161 C -0.01299 0.78138 0.81289
 C2162 C -0.01673 0.76773 0.80760
 C2163 C -0.02662 0.75950 0.81547
 C2164 C -0.03286 0.76503 0.82791
 H2165 H -0.06698 0.78462 0.86484
 H2166 H -0.02977 0.81209 0.86871
 H2167 H -0.00543 0.78812 0.80716
 H2168 H -0.02971 0.74885 0.81190
 H2169 H -0.05616 0.77314 0.84415
 H2170 H -0.04035 0.75838 0.83381
 C2171 C 0.40579 0.78518 0.28737
 C2172 C 0.40154 0.78149 0.30138
 C2173 C 0.38965 0.78820 0.30754
 C2174 C 0.38196 0.79868 0.29987
 C2175 C 0.38674 0.80228 0.28600
 N2176 N 0.39837 0.79556 0.28020
 C2177 C 0.41845 0.77848 0.28042
 N2178 N 0.42553 0.78582 0.26992
 C2179 C 0.43763 0.78063 0.26355
 C2180 C 0.44336 0.76731 0.26778
 C2181 C 0.43592 0.75936 0.27822
 C2182 C 0.42348 0.76485 0.28449
 H2183 H 0.38665 0.78524 0.31837
 H2184 H 0.38120 0.81030 0.27968
 H2185 H 0.44298 0.78715 0.25553
 H2186 H 0.43982 0.74897 0.28173
 H2187 H 0.40744 0.77373 0.30772
 H2188 H 0.41792 0.75841 0.29242
 C2189 C -0.09438 0.78845 0.78442
 C2190 C -0.09897 0.80228 0.78048
 C2191 C -0.11090 0.80837 0.78724
 C2192 C -0.11830 0.80082 0.79801
 C2193 C -0.11320 0.78713 0.80183
 N2194 N -0.10155 0.78140 0.79506
 C2195 C -0.08163 0.78154 0.77774
 N2196 N -0.07466 0.77095 0.78506
 C2197 C -0.06255 0.76454 0.77994
 C2198 C -0.05664 0.76883 0.76670
 C2199 C -0.06393 0.77939 0.75877
 C2200 C -0.07642 0.78569 0.76418
 H2201 H -0.11416 0.81906 0.78407
 H2202 H -0.11849 0.78088 0.81007
 H2203 H -0.05732 0.75644 0.78645
 H2204 H -0.05989 0.78295 0.74844
 H2205 H -0.09332 0.80855 0.77250
 H2206 H -0.08184 0.79368 0.75772
 C2207 C 0.84518 0.28787 0.46505
 C2208 C 0.84949 0.30189 0.46858
 C2209 C 0.86133 0.30795 0.46170
 C2210 C 0.86893 0.30018 0.45121
 C2211 C 0.86404 0.28632 0.44772
 N2212 N 0.85247 0.28061 0.45462
 C2213 C 0.83261 0.28094 0.47199
 N2214 N 0.82584 0.26998 0.46501
 C2215 C 0.81390 0.26348 0.47038
 C2216 C 0.80798 0.26805 0.48353
 C2217 C 0.81507 0.27900 0.49113
 C2218 C 0.82739 0.28539 0.48547
 H2219 H 0.86439 0.31879 0.46459
 H2220 H 0.86946 0.27992 0.43966
 H2221 H 0.80880 0.25509 0.46412
 H2222 H 0.81098 0.28280 0.50135
 H2223 H 0.84370 0.30832 0.47636
 H2224 H 0.83268 0.29369 0.49166
 C2225 C 0.84627 0.78277 -0.03655
 C2226 C 0.85128 0.77821 -0.05005
 C2227 C 0.86290 0.78520 -0.05640
 C2228 C 0.86955 0.79684 -0.04945
 C2229 C 0.86406 0.80125 -0.03608
 N2230 N 0.85274 0.79422 -0.03008
 C2231 C 0.83372 0.77601 -0.02944
 N2232 N 0.82663 0.78355 -0.01908
 C2233 C 0.81455 0.77850 -0.01259
 C2234 C 0.80875 0.76516 -0.01667
 C2235 C 0.81620 0.75695 -0.02690
 C2236 C 0.82871 0.76225 -0.03321
 H2237 H 0.86651 0.78155 -0.06684
 H2238 H 0.86879 0.81016 -0.03030
 H2239 H 0.80918 0.78521 -0.00474
 H2240 H 0.81220 0.74654 -0.03028
 H2241 H 0.84616 0.76957 -0.05591
 H2242 H 0.83423 0.75560 -0.04099
 C2243 C -0.09527 -0.03352 -0.03853
 C2244 C -0.09987 -0.02953 -0.05236
 C2245 C -0.11174 -0.03633 -0.05849
 C2246 C -0.11905 -0.04719 -0.05100
 C2247 C -0.11396 -0.05102 -0.03730
 N2248 N -0.10238 -0.04422 -0.03153
 C2249 C -0.08260 -0.02685 -0.03152
 N2250 N -0.07576 -0.03418 -0.02085
 C2251 C -0.06372 -0.02908 -0.01429
 C2252 C -0.05779 -0.01585 -0.01849
 C2253 C -0.06496 -0.00790 -0.02912
 C2254 C -0.07735 -0.01330 -0.03560
 H2255 H -0.11503 -0.03314 -0.06918
 H2256 H -0.11919 -0.05932 -0.03109
 H2257 H -0.05858 -0.03560 -0.00614
 H2258 H -0.06088 0.00243 -0.03261
 H2259 H -0.09426 -0.02149 -0.05859
 H2260 H -0.08268 -0.00685 -0.04367
 C2261 C -0.09708 0.46457 0.46671
 C2262 C -0.10160 0.45076 0.47078
 C2263 C -0.11311 0.44430 0.46365
 C2264 C -0.12017 0.45146 0.45237
 C2265 C -0.11518 0.46516 0.44849
 N2266 N -0.10393 0.47125 0.45561
 C2267 C -0.08457 0.47172 0.47358
 N2268 N -0.07752 0.48222 0.46622
 C2269 C -0.06540 0.48860 0.47135
 C2270 C -0.05953 0.48431 0.48459
 C2271 C -0.06697 0.47397 0.49266
 C2272 C -0.07950 0.46775 0.48727
 H2273 H -0.11627 0.43361 0.46693
 H2274 H -0.12022 0.47108 0.43986
 H2275 H -0.06005 0.49656 0.46478
 H2276 H -0.06295 0.47046 0.50301
 H2277 H -0.09616 0.44476 0.47911
 H2278 H -0.08500 0.45986 0.49378
 C2279 C 0.40506 -0.03379 0.46102
 C2280 C 0.39946 -0.02903 0.44783
 C2281 C 0.38750 -0.03585 0.44192
 C2282 C 0.38105 -0.04761 0.44892
 C2283 C 0.38718 -0.05219 0.46199
 N2284 N 0.39880 -0.04527 0.46758
 C2285 C 0.41784 -0.02706 0.46782
 N2286 N 0.42479 -0.03432 0.47848
 C2287 C 0.43687 -0.02919 0.48493
 C2288 C 0.44279 -0.01599 0.48061
 C2289 C 0.43559 -0.00813 0.46993
 C2290 C 0.42311 -0.01353 0.46361
 H2291 H 0.38356 -0.03189 0.43174
 H2292 H 0.38281 -0.06118 0.46789
 H2293 H 0.44204 -0.03565 0.49311
 H2294 H 0.43967 0.00215 0.46631
 H2295 H 0.40427 -0.02033 0.44185
 H2296 H 0.41780 -0.00707 0.45556
 C2297 C 0.40301 0.46285 -0.03349
 C2298 C 0.39792 0.44940 -0.02895
 C2299 C 0.38618 0.44315 -0.03588
 C2300 C 0.37941 0.45012 -0.04749
 C2301 C 0.38503 0.46350 -0.05181
 N2302 N 0.39646 0.46938 -0.04483
 C2303 C 0.41571 0.46986 -0.02682
 N2304 N 0.42268 0.48034 -0.03429
 C2305 C 0.43487 0.48673 -0.02934
 C2306 C 0.44090 0.48248 -0.01616
 C2307 C 0.43359 0.47211 -0.00801
 C2308 C 0.42099 0.46587 -0.01322
 H2309 H 0.38263 0.43276 -0.03211
 H2310 H 0.38036 0.46941 -0.06064
 H2311 H 0.44012 0.49469 -0.03600
 H2312 H 0.43774 0.46862 0.00230
 H2313 H 0.40304 0.44350 -0.02035
 H2314 H 0.41562 0.45798 -0.00661
 C2315 C 0.34469 0.46206 0.78403
 C2316 C 0.34919 0.44822 0.77998
 C2317 C 0.36107 0.44203 0.78668
 C2318 C 0.36849 0.44948 0.79753
 C2319 C 0.36346 0.46317 0.80148
 N2320 N 0.35186 0.46901 0.79475
 C2321 C 0.33206 0.46908 0.77735
 N2322 N 0.32489 0.47943 0.78484
 C2323 C 0.31285 0.48591 0.77965
 C2324 C 0.30726 0.48194 0.76617
 C2325 C 0.31479 0.47166 0.75807
 C2326 C 0.32718 0.46529 0.76356
 H2327 H 0.36430 0.43135 0.78342
 H2328 H 0.36877 0.46934 0.80979
 H2329 H 0.30740 0.49378 0.78629
 H2330 H 0.31101 0.46839 0.74755
 H2331 H 0.34350 0.44205 0.77192
 H2332 H 0.33281 0.45751 0.75700
 C2333 C 0.34483 -0.03775 0.28463
 C2334 C 0.34883 -0.05192 0.28134
 C2335 C 0.36060 -0.05809 0.28824
 C2336 C 0.36845 -0.05026 0.29850
 C2337 C 0.36388 -0.03623 0.30175
 N2338 N 0.35236 -0.03043 0.29485
 C2339 C 0.33234 -0.03075 0.27766
 N2340 N 0.32543 -0.01993 0.28469
 C2341 C 0.31350 -0.01344 0.27925
 C2342 C 0.30777 -0.01789 0.26598
 C2343 C 0.31506 -0.02867 0.25832
 C2344 C 0.32734 -0.03505 0.26406
 H2345 H 0.36343 -0.06904 0.28554
 H2346 H 0.36951 -0.02976 0.30961
 H2347 H 0.30826 -0.00518 0.28556
 H2348 H 0.31115 -0.03237 0.24798
 H2349 H 0.34282 -0.05835 0.27373
 H2350 H 0.33279 -0.04324 0.25786
 C2351 C 0.15355 0.53306 0.71302
 C2352 C 0.14880 0.52878 0.69932
 C2353 C 0.13708 0.53569 0.69303
 C2354 C 0.13005 0.54694 0.70025
 C2355 C 0.13525 0.55099 0.71386
 N2356 N 0.14670 0.54409 0.71977
 C2357 C 0.16623 0.52644 0.72003
 N2358 N 0.17348 0.53409 0.73022
 C2359 C 0.18566 0.52911 0.73658
 C2360 C 0.19137 0.51570 0.73263
 C2361 C 0.18375 0.50739 0.72258
 C2362 C 0.17118 0.51265 0.71633
 H2363 H 0.13368 0.53228 0.68243
 H2364 H 0.13024 0.55957 0.71989
 H2365 H 0.19115 0.53589 0.74430
 H2366 H 0.18764 0.49691 0.71931
 H2367 H 0.15423 0.52045 0.69330
 H2368 H 0.16554 0.50595 0.70868
 C2369 C 0.15343 0.03269 0.21398
 C2370 C 0.14858 0.02838 0.20033
 C2371 C 0.13682 0.03526 0.19410
 C2372 C 0.12982 0.04653 0.20132
 C2373 C 0.13513 0.05067 0.21486
 N2374 N 0.14663 0.04378 0.22073
 C2375 C 0.16615 0.02601 0.22092
 N2376 N 0.17351 0.03361 0.23106
 C2377 C 0.18573 0.02856 0.23732
 C2378 C 0.19139 0.01516 0.23326
 C2379 C 0.18366 0.00689 0.22325
 C2380 C 0.17104 0.01220 0.21715
 H2381 H 0.13339 0.03182 0.18353
 H2382 H 0.13016 0.05931 0.22084
 H2383 H 0.19129 0.03530 0.24502
 H2384 H 0.18754 -0.00356 0.21988
 H2385 H 0.15398 0.02005 0.19429
 H2386 H 0.16531 0.00553 0.20954
 C2387 C 0.59700 0.71420 0.21629
 C2388 C 0.60143 0.70036 0.22035
 C2389 C 0.61311 0.69399 0.21348
 C2390 C 0.62043 0.70124 0.20246
 C2391 C 0.61552 0.71498 0.19854
 N2392 N 0.60410 0.72100 0.20544
 C2393 C 0.58436 0.72124 0.22300
 N2394 N 0.57713 0.73148 0.21545
 C2395 C 0.56494 0.73778 0.22052
 C2396 C 0.55921 0.73366 0.23387
 C2397 C 0.56681 0.72355 0.24208
 C2398 C 0.57940 0.71741 0.23675
 H2399 H 0.61624 0.68329 0.21676
 H2400 H 0.62078 0.72100 0.19011
 H2401 H 0.55947 0.74558 0.21384
 H2402 H 0.56290 0.72018 0.25252
 H2403 H 0.59578 0.69430 0.22849
 H2404 H 0.58507 0.70973 0.24339
 C2405 C 0.09712 0.71323 0.71756
 C2406 C 0.10218 0.69968 0.72188
 C2407 C 0.11392 0.69354 0.71486
 C2408 C 0.12067 0.70075 0.70344
 C2409 C 0.11517 0.71419 0.69933
 N2410 N 0.10372 0.71997 0.70636
 C2411 C 0.08439 0.72011 0.72429
 N2412 N 0.07748 0.73072 0.71696
 C2413 C 0.06532 0.73709 0.72198
 C2414 C 0.05924 0.73267 0.73508
 C2415 C 0.06647 0.72213 0.74308
 C2416 C 0.07906 0.71591 0.73781
 H2417 H 0.11753 0.68305 0.71831
 H2418 H 0.11995 0.72018 0.69060
 H2419 H 0.06015 0.74520 0.71544
 H2420 H 0.06225 0.71845 0.75329
 H2421 H 0.09701 0.69361 0.73033
 H2422 H 0.08438 0.70789 0.74430
 C2423 C 0.65358 0.21308 0.53093
 C2424 C 0.64837 0.19962 0.52644
 C2425 C 0.63654 0.19355 0.53338
 C2426 C 0.62987 0.20075 0.54487
 C2427 C 0.63548 0.21412 0.54909
 N2428 N 0.64701 0.21981 0.54216
 C2429 C 0.66643 0.21989 0.52439
 N2430 N 0.67329 0.23046 0.53187
 C2431 C 0.68555 0.23678 0.52707
 C2432 C 0.69179 0.23237 0.51404
 C2433 C 0.68463 0.22187 0.50588
 C2434 C 0.67194 0.21569 0.51094
 H2435 H 0.63281 0.18312 0.52984
 H2436 H 0.63076 0.22011 0.55786
 H2437 H 0.69068 0.24484 0.53373
 H2438 H 0.68899 0.21819 0.49572
 H2439 H 0.65348 0.19358 0.51794
 H2440 H 0.66668 0.20769 0.50435
 C2441 C 0.65514 0.71289 0.03477
 C2442 C 0.65088 0.69891 0.03094
 C2443 C 0.63901 0.69267 0.03762
 C2444 C 0.63136 0.70021 0.04824
 C2445 C 0.63617 0.71404 0.05200
 N2446 N 0.64775 0.71992 0.04528
 C2447 C 0.66773 0.71996 0.02806
 N2448 N 0.67484 0.73042 0.03546
 C2449 C 0.68685 0.73693 0.03022
 C2450 C 0.69246 0.73289 0.01676
 C2451 C 0.68497 0.72249 0.00876
 C2452 C 0.67262 0.71609 0.01430
 H2453 H 0.63597 0.68189 0.03450
 H2454 H 0.63068 0.72026 0.06013
 H2455 H 0.69224 0.74490 0.03678
 H2456 H 0.68877 0.71910 -0.00172
 H2457 H 0.65675 0.69267 0.02306
 H2458 H 0.66704 0.70820 0.00782
 C2459 C 0.09651 0.03316 0.03512
 C2460 C 0.10127 0.02917 0.04887
 C2461 C 0.11293 0.03625 0.05505
 C2462 C 0.11993 0.04741 0.04769
 C2463 C 0.11469 0.05128 0.03406
 N2464 N 0.10328 0.04418 0.02823
 C2465 C 0.08384 0.02629 0.02827
 N2466 N 0.07672 0.03355 0.01776
 C2467 C 0.06452 0.02841 0.01155
 C2468 C 0.05860 0.01527 0.01608
 C2469 C 0.06607 0.00732 0.02649
 C2470 C 0.07872 0.01271 0.03251
 H2471 H 0.11627 0.03300 0.06570
 H2472 H 0.11968 0.05983 0.02798
 H2473 H 0.05917 0.03490 0.00351
 H2474 H 0.06200 -0.00293 0.03021
 H2475 H 0.09590 0.02092 0.05504
 H2476 H 0.08424 0.00626 0.04044
 C2477 C 0.09462 0.53836 0.53374
 C2478 C 0.09905 0.55232 0.53007
 C2479 C 0.11099 0.55836 0.53684
 C2480 C 0.11857 0.55067 0.54738
 C2481 C 0.11363 0.53685 0.55096
 N2482 N 0.10197 0.53116 0.54417
 C2483 C 0.08188 0.53148 0.52698
 N2484 N 0.07512 0.52059 0.53405
 C2485 C 0.06305 0.51415 0.52885
 C2486 C 0.05695 0.51870 0.51578
 C2487 C 0.06402 0.52959 0.50809
 C2488 C 0.07648 0.53592 0.51357
 H2489 H 0.11409 0.56917 0.53391
 H2490 H 0.11907 0.53049 0.55903
 H2491 H 0.05801 0.50579 0.53517
 H2492 H 0.05981 0.53341 0.49793
 H2493 H 0.09324 0.55873 0.52231
 H2494 H 0.08172 0.54417 0.50731
 C2495 C 0.59663 0.03393 0.53519
 C2496 C 0.60121 0.02993 0.54900
 C2497 C 0.61295 0.03682 0.55522
 C2498 C 0.62021 0.04780 0.54783
 C2499 C 0.61516 0.05167 0.53414
 N2500 N 0.60364 0.04477 0.52827
 C2501 C 0.58387 0.02724 0.52836
 N2502 N 0.57654 0.03478 0.51819
 C2503 C 0.56421 0.02978 0.51211
 C2504 C 0.55842 0.01651 0.51642
 C2505 C 0.56611 0.00830 0.52646
 C2506 C 0.57885 0.01355 0.53236
 H2507 H 0.61615 0.03359 0.56591
 H2508 H 0.62036 0.06008 0.52804
 H2509 H 0.55869 0.03645 0.50435
 H2510 H 0.56214 -0.00207 0.52993
 H2511 H 0.59562 0.02182 0.55517
 H2512 H 0.58459 0.00691 0.53999
 C2513 C 0.59403 0.53875 0.03412
 C2514 C 0.59853 0.55270 0.03056
 C2515 C 0.61038 0.55869 0.03751
 C2516 C 0.61782 0.55093 0.04810
 C2517 C 0.61283 0.53709 0.05154
 N2518 N 0.60124 0.53147 0.04459
 C2519 C 0.58133 0.53194 0.02728
 N2520 N 0.57461 0.52097 0.03425
 C2521 C 0.56257 0.51454 0.02899
 C2522 C 0.55645 0.51923 0.01599
 C2523 C 0.56346 0.53023 0.00840
 C2524 C 0.57591 0.53652 0.01393
 H2525 H 0.61358 0.56946 0.03459
 H2526 H 0.61812 0.53067 0.05965
 H2527 H 0.55757 0.50609 0.03522
 H2528 H 0.55922 0.53413 -0.00172
 H2529 H 0.59286 0.55916 0.02274
 H2530 H 0.58113 0.54484 0.00773
 C2531 C 0.03337 0.03486 0.09651
 C2532 C 0.02933 0.04870 0.10094
 C2533 C 0.03621 0.05507 0.11263
 C2534 C 0.04722 0.04780 0.11996
 C2535 C 0.05114 0.03406 0.11503
 N2536 N 0.04425 0.02805 0.10358
 C2537 C 0.02663 0.02782 0.08389
 N2538 N 0.03423 0.01772 0.07648
 C2539 C 0.02912 0.01149 0.06425
 C2540 C 0.01569 0.01556 0.05866
 C2541 C 0.00743 0.02547 0.06648
 C2542 C 0.01278 0.03153 0.07911
 H2543 H 0.03297 0.06579 0.11573
 H2544 H 0.05958 0.02803 0.12026
 H2545 H 0.03585 0.00386 0.05860
 H2546 H -0.00306 0.02881 0.06266
 H2547 H 0.02119 0.05477 0.09529
 H2548 H 0.00613 0.03909 0.08492
 C2549 C 0.03416 0.53803 0.59493
 C2550 C 0.02989 0.55170 0.59972
 C2551 C 0.03655 0.55781 0.61169
 C2552 C 0.04756 0.55044 0.61891
 C2553 C 0.05169 0.53690 0.61364
 N2554 N 0.04501 0.53114 0.60195
 C2555 C 0.02759 0.53113 0.58214
 N2556 N 0.03518 0.52094 0.57486
 C2557 C 0.03014 0.51463 0.56265
 C2558 C 0.01671 0.51862 0.55700
 C2559 C 0.00850 0.52873 0.56463
 C2560 C 0.01383 0.53492 0.57720
 H2561 H 0.03312 0.56837 0.61512
 H2562 H 0.06011 0.53079 0.61881
 H2563 H 0.03684 0.50687 0.55715
 H2564 H -0.00200 0.53200 0.56081
 H2565 H 0.02171 0.55784 0.59419
 H2566 H 0.00716 0.54256 0.58289
 C2567 C 0.53288 0.03702 0.59628
 C2568 C 0.52837 0.05047 0.60142
 C2569 C 0.53521 0.05661 0.61327
 C2570 C 0.54674 0.04956 0.62010
 C2571 C 0.55110 0.03622 0.61439
 N2572 N 0.54418 0.03043 0.60285
 C2573 C 0.52616 0.03008 0.58353
 N2574 N 0.53359 0.01964 0.57644
 C2575 C 0.52852 0.01323 0.56430
 C2576 C 0.51525 0.01743 0.55842
 C2577 C 0.50716 0.02779 0.56583
 C2578 C 0.51249 0.03404 0.57840
 H2579 H 0.53144 0.06699 0.61687
 H2580 H 0.55992 0.03028 0.61904
 H2581 H 0.53512 0.00526 0.55898
 H2582 H 0.49682 0.03128 0.56178
 H2583 H 0.51987 0.05646 0.59623
 H2584 H 0.50590 0.04188 0.58388
 C2585 C 0.53462 0.53745 0.09447
 C2586 C 0.53065 0.55126 0.09912
 C2587 C 0.53741 0.55731 0.11105
 C2588 C 0.54822 0.54977 0.11839
 C2589 C 0.55207 0.53609 0.11324
 N2590 N 0.54529 0.53038 0.10159
 C2591 C 0.52785 0.53056 0.08179
 N2592 N 0.53517 0.52007 0.07465
 C2593 C 0.52992 0.51367 0.06257
 C2594 C 0.51655 0.51787 0.05692
 C2595 C 0.50863 0.52832 0.06440
 C2596 C 0.51417 0.53461 0.07683
 H2597 H 0.53423 0.56799 0.11435
 H2598 H 0.56035 0.52986 0.11850
 H2599 H 0.53641 0.50565 0.05719
 H2600 H 0.49821 0.53182 0.06054
 H2601 H 0.52265 0.55752 0.09350
 H2602 H 0.50772 0.54253 0.08239
 C2603 C 0.21515 0.53486 0.65288
 C2604 C 0.21913 0.54880 0.64875
 C2605 C 0.21229 0.55536 0.63716
 C2606 C 0.20137 0.54817 0.62960
 C2607 C 0.19747 0.53433 0.63424
 N2608 N 0.20433 0.52814 0.64561
 C2609 C 0.22200 0.52761 0.66533
 N2610 N 0.21447 0.51749 0.67275
 C2611 C 0.21974 0.51110 0.68482
 C2612 C 0.23331 0.51501 0.69024
 C2613 C 0.24149 0.52496 0.68239
 C2614 C 0.23595 0.53118 0.66993
 H2615 H 0.21547 0.56616 0.63433
 H2616 H 0.18908 0.52838 0.62882
 H2617 H 0.21305 0.50347 0.69049
 H2618 H 0.25205 0.52823 0.68607
 H2619 H 0.22720 0.55481 0.65459
 H2620 H 0.24254 0.53878 0.66410
 C2621 C 0.21336 0.03142 0.15245
 C2622 C 0.19997 0.02689 0.14712
 C2623 C 0.19382 0.03402 0.13547
 C2624 C 0.20084 0.04575 0.12908
 C2625 C 0.21413 0.05004 0.13482
 N2626 N 0.21993 0.04290 0.14618
 C2627 C 0.22025 0.02465 0.16514
 N2628 N 0.23101 0.03191 0.17193
 C2629 C 0.23740 0.02694 0.18409
 C2630 C 0.23282 0.01399 0.19032
 C2631 C 0.22213 0.00604 0.18322
 C2632 C 0.21590 0.01125 0.17062
 H2633 H 0.18347 0.03036 0.13165
 H2634 H 0.21996 0.05902 0.13033
 H2635 H 0.24565 0.03342 0.18915
 H2636 H 0.21833 -0.00406 0.18758
 H2637 H 0.19404 0.01818 0.15198
 H2638 H 0.20775 0.00480 0.16544
 C2639 C 0.71562 0.21431 0.59598
 C2640 C 0.71945 0.20039 0.60034
 C2641 C 0.71264 0.19418 0.61212
 C2642 C 0.70190 0.20168 0.61964
 C2643 C 0.69815 0.21547 0.61475
 N2644 N 0.70498 0.22133 0.60319
 C2645 C 0.72243 0.22123 0.58335
 N2646 N 0.71499 0.23143 0.57595
 C2647 C 0.72019 0.23760 0.56375
 C2648 C 0.73360 0.23338 0.55819
 C2649 C 0.74170 0.22333 0.56598
 C2650 C 0.73623 0.21732 0.57857
 H2651 H 0.71574 0.18341 0.61517
 H2652 H 0.68990 0.22166 0.62010
 H2653 H 0.71359 0.24535 0.55814
 H2654 H 0.75216 0.21988 0.56221
 H2655 H 0.72741 0.19417 0.59458
 H2656 H 0.74276 0.20966 0.58437
 C2657 C 0.71585 0.71330 0.09553
 C2658 C 0.72321 0.70321 0.10401
 C2659 C 0.71647 0.69725 0.11595
 C2660 C 0.70244 0.70135 0.11970
 C2661 C 0.69559 0.71181 0.11124
 N2662 N 0.70236 0.71740 0.09951
 C2663 C 0.72234 0.71950 0.08235
 N2664 N 0.71693 0.73198 0.07693
 C2665 C 0.72204 0.73802 0.06462
 C2666 C 0.73323 0.73139 0.05692
 C2667 C 0.73895 0.71854 0.06235
 C2668 C 0.73352 0.71254 0.07493
 H2669 H 0.72240 0.68955 0.12231
 H2670 H 0.68482 0.71540 0.11375
 H2671 H 0.71718 0.74786 0.06077
 H2672 H 0.74743 0.71289 0.05670
 H2673 H 0.73413 0.70001 0.10168
 H2674 H 0.73781 0.70234 0.07844
 C2675 C 0.53486 0.71567 0.15338
 C2676 C 0.53100 0.70166 0.14932
 C2677 C 0.53791 0.69510 0.13777
 C2678 C 0.54876 0.70236 0.13019
 C2679 C 0.55253 0.71625 0.13478
 N2680 N 0.54561 0.72246 0.14610
 C2681 C 0.52803 0.72288 0.16584
 N2682 N 0.53558 0.73299 0.17327
 C2683 C 0.53037 0.73928 0.18542
 C2684 C 0.51688 0.73525 0.19091
 C2685 C 0.50867 0.72534 0.18303
 C2686 C 0.51413 0.71922 0.17049
 H2687 H 0.53477 0.68427 0.13494
 H2688 H 0.56087 0.72224 0.12934
 H2689 H 0.53705 0.74695 0.19110
 H2690 H 0.49814 0.72202 0.18674
 H2691 H 0.52297 0.69563 0.15516
 H2692 H 0.50754 0.71163 0.16463
 C2693 C 0.03423 0.71393 0.65378
 C2694 C 0.02985 0.70030 0.64897
 C2695 C 0.03666 0.69401 0.63717
 C2696 C 0.04792 0.70115 0.63011
 C2697 C 0.05213 0.71468 0.63539
 N2698 N 0.04531 0.72060 0.64692
 C2699 C 0.02763 0.72093 0.66652
 N2700 N 0.03528 0.73109 0.67381
 C2701 C 0.03029 0.73743 0.68602
 C2702 C 0.01688 0.73348 0.69174
 C2703 C 0.00858 0.72344 0.68410
 C2704 C 0.01384 0.71723 0.67149
 H2705 H 0.03314 0.68347 0.63375
 H2706 H 0.06076 0.72061 0.63037
 H2707 H 0.03705 0.74515 0.69152
 H2708 H -0.00190 0.72017 0.68800
 H2709 H 0.02149 0.69432 0.65439
 H2710 H 0.00712 0.70961 0.66583
 C2711 C 0.53321 0.65372 0.21324
 C2712 C 0.52924 0.64901 0.19944
 C2713 C 0.53624 0.63728 0.19329
 C2714 C 0.54729 0.63018 0.20074
 C2715 C 0.55107 0.63532 0.21444
 N2716 N 0.54406 0.64680 0.22023
 C2717 C 0.52646 0.66644 0.22009
 N2718 N 0.53371 0.67335 0.23077
 C2719 C 0.52870 0.68557 0.23704
 C2720 C 0.51569 0.69172 0.23242
 C2721 C 0.50775 0.68447 0.22183
 C2722 C 0.51301 0.67181 0.21573
 H2723 H 0.53307 0.63398 0.18260
 H2724 H 0.55953 0.63025 0.22059
 H2725 H 0.53518 0.69074 0.24522
 H2726 H 0.49759 0.68872 0.21803
 H2727 H 0.52110 0.65447 0.19321
 H2728 H 0.50657 0.66647 0.20765
 C2729 C 0.03603 0.65362 0.71738
 C2730 C 0.04976 0.64902 0.72167
 C2731 C 0.05618 0.63738 0.71473
 C2732 C 0.04907 0.63030 0.70345
 C2733 C 0.03541 0.63535 0.69938
 N2734 N 0.02937 0.64672 0.70631
 C2735 C 0.02892 0.66624 0.72402
 N2736 N 0.01880 0.67351 0.71632
 C2737 C 0.01240 0.68566 0.72133
 C2738 C 0.01627 0.69133 0.73479
 C2739 C 0.02623 0.68367 0.74316
 C2740 C 0.03248 0.67111 0.73788
 H2741 H 0.06682 0.63413 0.71812
 H2742 H 0.02947 0.63029 0.69076
 H2743 H 0.00476 0.69118 0.71450
 H2744 H 0.02946 0.68755 0.75366
 H2745 H 0.05572 0.65452 0.73001
 H2746 H 0.04007 0.66543 0.74461
 C2747 C 0.03571 0.09631 0.03393
 C2748 C 0.04969 0.10058 0.03022
 C2749 C 0.05598 0.11223 0.03720
 C2750 C 0.04849 0.11971 0.04798
 C2751 C 0.03462 0.11495 0.05158
 N2752 N 0.02869 0.10352 0.04460
 C2753 C 0.02880 0.08368 0.02710
 N2754 N 0.01845 0.07643 0.03447
 C2755 C 0.01229 0.06421 0.02930
 C2756 C 0.01669 0.05845 0.01603
 C2757 C 0.02692 0.06606 0.00799
 C2758 C 0.03290 0.07870 0.01341
 H2759 H 0.06682 0.11517 0.03422
 H2760 H 0.02845 0.12034 0.05984
 H2761 H 0.00439 0.05875 0.03585
 H2762 H 0.03050 0.06211 -0.00237
 H2763 H 0.05592 0.09481 0.02228
 H2764 H 0.04069 0.08437 0.00691
 C2765 C 0.03732 0.59538 0.53441
 C2766 C 0.05136 0.59955 0.53079
 C2767 C 0.05756 0.61138 0.53758
 C2768 C 0.04991 0.61909 0.54807
 C2769 C 0.03602 0.61437 0.55163
 N2770 N 0.03017 0.60281 0.54483
 C2771 C 0.03029 0.58280 0.52760
 N2772 N 0.01960 0.57590 0.53482
 C2773 C 0.01308 0.56392 0.52954
 C2774 C 0.01735 0.55810 0.51625
 C2775 C 0.02802 0.56533 0.50842
 C2776 C 0.03444 0.57768 0.51400
 H2777 H 0.06841 0.61434 0.53464
 H2778 H 0.02972 0.61992 0.55968
 H2779 H 0.00489 0.55872 0.53597
 H2780 H 0.03159 0.56135 0.49807
 H2781 H 0.05768 0.59365 0.52302
 H2782 H 0.04254 0.58309 0.50765
 C2783 C 0.53244 0.09735 0.53582
 C2784 C 0.52838 0.10187 0.54964
 C2785 C 0.53524 0.11362 0.55595
 C2786 C 0.54622 0.12091 0.54861
 C2787 C 0.55009 0.11593 0.53486
 N2788 N 0.54324 0.10444 0.52894
 C2789 C 0.52584 0.08465 0.52880
 N2790 N 0.53343 0.07754 0.51849
 C2791 C 0.52848 0.06536 0.51209
 C2792 C 0.51518 0.05949 0.51617
 C2793 C 0.50692 0.06696 0.52636
 C2794 C 0.51214 0.07955 0.53262
 H2795 H 0.53204 0.11681 0.56667
 H2796 H 0.55848 0.12115 0.52875
 H2797 H 0.53522 0.05999 0.50427
 H2798 H 0.49654 0.06291 0.52976
 H2799 H 0.52027 0.09623 0.55576
 H2800 H 0.50549 0.08509 0.54039
 C2801 C 0.53298 0.59554 0.03782
 C2802 C 0.52771 0.60192 0.05048
 C2803 C 0.53477 0.61373 0.05639
 C2804 C 0.54714 0.61937 0.04985
 C2805 C 0.55214 0.61268 0.03725
 N2806 N 0.54505 0.60114 0.03167
 C2807 C 0.52610 0.58274 0.03106
 N2808 N 0.53259 0.57661 0.01943
 C2809 C 0.52738 0.56459 0.01289
 C2810 C 0.51493 0.55785 0.01814
 C2811 C 0.50789 0.56413 0.02991
 C2812 C 0.51335 0.57652 0.03634
 H2813 H 0.53044 0.61833 0.06614
 H2814 H 0.56164 0.61656 0.03181
 H2815 H 0.53323 0.56011 0.00388
 H2816 H 0.49829 0.55931 0.03440
 H2817 H 0.51835 0.59796 0.05604
 H2818 H 0.50755 0.58085 0.04540
 C2819 C 0.71715 0.15306 0.53506
 C2820 C 0.72118 0.14864 0.54892
 C2821 C 0.71426 0.13700 0.55530
 C2822 C 0.70323 0.12970 0.54802
 C2823 C 0.69933 0.13460 0.53427
 N2824 N 0.70626 0.14600 0.52825
 C2825 C 0.72392 0.16565 0.52801
 N2826 N 0.71640 0.17294 0.51778
 C2827 C 0.72151 0.18510 0.51150
 C2828 C 0.73490 0.19078 0.51563
 C2829 C 0.74309 0.18310 0.52571
 C2830 C 0.73771 0.17052 0.53183
 H2831 H 0.71751 0.13389 0.56602
 H2832 H 0.69088 0.12936 0.52823
 H2833 H 0.71484 0.19063 0.50373
 H2834 H 0.75355 0.18696 0.52908
 H2835 H 0.72933 0.15428 0.55500
 H2836 H 0.74433 0.16481 0.53950
 C2837 C 0.71263 0.65469 0.03383
 C2838 C 0.70233 0.64629 0.02670
 C2839 C 0.69652 0.63432 0.03352
 C2840 C 0.70095 0.63047 0.04744
 C2841 C 0.71160 0.63891 0.05407
 N2842 N 0.71705 0.65064 0.04722
 C2843 C 0.71884 0.66779 0.02719
 N2844 N 0.73151 0.67305 0.03233
 C2845 C 0.73769 0.68519 0.02702
 C2846 C 0.73101 0.69292 0.01587
 C2847 C 0.71794 0.68768 0.01042
 C2848 C 0.71180 0.67524 0.01607
 H2849 H 0.68857 0.62812 0.02775
 H2850 H 0.71546 0.63637 0.06474
 H2851 H 0.74767 0.68890 0.03171
 H2852 H 0.71221 0.69340 0.00206
 H2853 H 0.69879 0.64874 0.01591
 H2854 H 0.70146 0.67188 0.01197
 C2855 C 0.21736 0.59618 0.71269
 C2856 C 0.22098 0.60050 0.69869
 C2857 C 0.21404 0.61225 0.69254
 C2858 C 0.20340 0.61974 0.70019
 C2859 C 0.19992 0.61494 0.71408
 N2860 N 0.20686 0.60344 0.71987
 C2861 C 0.22407 0.58348 0.71956
 N2862 N 0.21681 0.57657 0.73022
 C2863 C 0.22184 0.56437 0.73647
 C2864 C 0.23486 0.55825 0.73187
 C2865 C 0.24281 0.56551 0.72131
 C2866 C 0.23753 0.57814 0.71521
 H2867 H 0.21692 0.61527 0.68169
 H2868 H 0.19178 0.62031 0.72041
 H2869 H 0.21535 0.55918 0.74462
 H2870 H 0.25298 0.56127 0.71752
 H2871 H 0.22881 0.59472 0.69233
 H2872 H 0.24394 0.58352 0.70715
 C2873 C 0.21770 0.09586 0.21215
 C2874 C 0.22193 0.10056 0.19843
 C2875 C 0.21507 0.11234 0.19217
 C2876 C 0.20391 0.11945 0.19944
 C2877 C 0.19993 0.11431 0.21309
 N2878 N 0.20678 0.10282 0.21896
 C2879 C 0.22422 0.08310 0.21913
 N2880 N 0.21662 0.07610 0.22950
 C2881 C 0.22148 0.06389 0.23589
 C2882 C 0.23472 0.05790 0.23177
 C2883 C 0.24298 0.06525 0.22151
 C2884 C 0.23784 0.07785 0.21524
 H2885 H 0.21842 0.11571 0.18156
 H2886 H 0.19144 0.11940 0.21917
 H2887 H 0.21475 0.05861 0.24377
 H2888 H 0.25333 0.06113 0.21811
 H2889 H 0.23018 0.09507 0.19236
 H2890 H 0.24452 0.08330 0.20745
 C2891 C 0.71829 1.09643 0.71309
 C2892 C 0.72280 1.10174 0.69969
 C2893 C 0.71584 1.11355 0.69365
 C2894 C 0.70426 1.12012 0.70078
 C2895 C 0.69998 1.11440 0.71408
 N2896 N 0.70696 1.10289 0.71977
 C2897 C 0.72494 1.08361 0.71989
 N2898 N 0.71765 1.07683 0.73063
 C2899 C 0.72254 1.06460 0.73695
 C2900 C 0.73547 1.05828 0.73235
 C2901 C 0.74343 1.06534 0.72166
 C2902 C 0.73830 1.07801 0.71550
 H2903 H 0.71944 1.11734 0.68327
 H2904 H 0.69111 1.11903 0.72001
 H2905 H 0.71602 1.05957 0.74516
 H2906 H 0.75350 1.06092 0.71783
 H2907 H 0.73138 1.09675 0.69366
 H2908 H 0.74478 1.08317 0.70737
 C2909 C 0.71715 0.59626 0.21399
 C2910 C 0.72114 0.60068 0.20012
 C2911 C 0.71416 0.61229 0.19375
 C2912 C 0.70314 0.61956 0.20106
 C2913 C 0.69934 0.61469 0.21486
 N2914 N 0.70631 0.60331 0.22084
 C2915 C 0.72386 0.58364 0.22100
 N2916 N 0.71632 0.57645 0.23127
 C2917 C 0.72134 0.56424 0.23753
 C2918 C 0.73463 0.55843 0.23332
 C2919 C 0.74285 0.56601 0.22320
 C2920 C 0.73757 0.57863 0.21710
 H2921 H 0.71733 0.61537 0.18300
 H2922 H 0.69092 0.61990 0.22094
 H2923 H 0.71464 0.55880 0.24533
 H2924 H 0.75323 0.56203 0.21973
 H2925 H 0.72927 0.59504 0.19401
 H2926 H 0.74418 0.58426 0.20937
 C2927 C 0.53524 0.15367 0.71538
 C2928 C 0.54872 0.14878 0.72006
 C2929 C 0.55510 0.13700 0.71335
 C2930 C 0.54825 0.13003 0.70177
 C2931 C 0.53485 0.13547 0.69726
 N2932 N 0.52882 0.14696 0.70405
 C2933 C 0.52819 0.16636 0.72198
 N2934 N 0.51844 0.17397 0.71414
 C2935 C 0.51216 0.18619 0.71920
 C2936 C 0.51580 0.19156 0.73286
 C2937 C 0.52538 0.18355 0.74133
 C2938 C 0.53149 0.17095 0.73601
 H2939 H 0.56551 0.13363 0.71724
 H2940 H 0.52905 0.13066 0.68841
 H2941 H 0.50479 0.19197 0.71230
 H2942 H 0.52840 0.18716 0.75200
 H2943 H 0.55454 0.15414 0.72858
 H2944 H 0.53876 0.16500 0.74285
 C2945 C 1.03287 0.15282 0.21445
 C2946 C 1.02912 0.14842 0.20051
 C2947 C 1.03619 0.13680 0.19423
 C2948 C 1.04709 0.12950 0.20171
 C2949 C 1.05069 0.13438 0.21556
 N2950 N 1.04362 0.14576 0.22146
 C2951 C 1.02601 0.16544 0.22140
 N2952 N 1.03322 0.17238 0.23209
 C2953 C 1.02811 0.18455 0.23838
 C2954 C 1.01506 0.19062 0.23378
 C2955 C 1.00716 0.18333 0.22318
 C2956 C 1.01251 0.17072 0.21706
 H2957 H 1.03317 0.13373 0.18343
 H2958 H 1.05902 0.12914 0.22175
 H2959 H 1.03457 0.18976 0.24655
 H2960 H 0.99698 0.18753 0.21938
 H2961 H 1.02109 0.15404 0.19427
 H2962 H 1.00611 0.16531 0.20899
 C2963 C 0.21543 0.65590 0.53748
 C2964 C 0.21939 0.65126 0.55131
 C2965 C 0.21257 0.63940 0.55739
 C2966 C 0.20169 0.63211 0.54987
 C2967 C 0.19782 0.63727 0.53620
 N2968 N 0.20467 0.64885 0.53046
 C2969 C 0.22224 0.66854 0.53055
 N2970 N 0.21500 0.67557 0.51994
 C2971 C 0.22026 0.68760 0.51349
 C2972 C 0.23357 0.69335 0.51776
 C2973 C 0.24143 0.68598 0.52834
 C2974 C 0.23588 0.67359 0.53467
 H2975 H 0.21578 0.63608 0.56807
 H2976 H 0.18949 0.63207 0.52997
 H2977 H 0.21380 0.69288 0.50539
 H2978 H 0.25181 0.68991 0.53190
 H2979 H 0.22747 0.65682 0.55756
 H2980 H 0.24229 0.66811 0.54268
 C2981 C 0.21691 0.15468 1.03809
 C2982 C 0.22176 0.14874 1.05111
 C2983 C 0.21477 0.13684 1.05691
 C2984 C 0.20285 0.13073 1.04993
 C2985 C 0.19822 0.13706 1.03701
 N2986 N 0.20525 0.14866 1.03154
 C2987 C 0.22374 0.16753 1.03142
 N2988 N 0.21712 0.17379 1.01995
 C2989 C 0.22223 0.18589 1.01355
 C2990 C 0.23474 0.19259 1.01876
 C2991 C 0.24197 0.18614 1.03032
 C2992 C 0.23660 0.17363 1.03660
 H2993 H 0.21877 0.13256 1.06694
 H2994 H 0.18908 0.13281 1.03121
 H2995 H 0.21627 0.19046 1.00466
 H2996 H 0.25169 0.19086 1.03467
 H2997 H 0.23071 0.15315 1.05702
 H2998 H 0.24257 0.16906 1.04543
 C2999 C 0.21476 0.71377 0.59472
 C3000 C 0.21823 0.69966 0.59875
 C3001 C 0.21147 0.69348 0.61058
 C3002 C 0.20116 0.70121 0.61844
 C3003 C 0.19772 0.71517 0.61385
 N3004 N 0.20450 0.72101 0.60227
 C3005 C 0.22161 0.72074 0.58217
 N3006 N 0.21439 0.73128 0.57505
 C3007 C 0.21970 0.73760 0.56298
 C3008 C 0.23301 0.73325 0.55731
 C3009 C 0.24086 0.72277 0.56480
 C3010 C 0.23527 0.71657 0.57723
 H3011 H 0.21428 0.68257 0.61341
 H3012 H 0.18982 0.72155 0.61953
 H3013 H 0.21327 0.74566 0.55759
 H3014 H 0.25125 0.71918 0.56095
 H3015 H 0.22586 0.69329 0.59273
 H3016 H 0.24161 0.70861 0.58283
 C3017 C 0.21169 0.21688 1.09503
 C3018 C 0.20078 0.22366 1.10301
 C3019 C 0.19483 0.21671 1.11486
 C3020 C 0.19972 0.20306 1.11901
 C3021 C 0.21083 0.19676 1.11094
 N3022 N 0.21641 0.20371 1.09934
 C3023 C 0.21822 0.22355 1.08207
 N3024 N 0.23069 0.21798 1.07676
 C3025 C 0.23705 0.22306 1.06461
 C3026 C 0.23078 0.23444 1.05691
 C3027 C 0.21800 0.24043 1.06226
 C3028 C 0.21167 0.23501 1.07471
 H3029 H 0.18648 0.22218 1.12082
 H3030 H 0.21504 0.18629 1.11371
 H3031 H 0.24682 0.21799 1.06084
 H3032 H 0.21264 0.24909 1.05662
 H3033 H 0.19692 0.23428 1.10040
 H3034 H 0.20156 0.23957 1.07812
 C3035 C 0.71356 0.53321 0.15283
 C3036 C 0.70344 0.52595 0.14426
 C3037 C 0.69714 0.53296 0.13262
 C3038 C 0.70092 0.54717 0.12923
 C3039 C 0.71130 0.55396 0.13787
 N3040 N 0.71723 0.54694 0.14927
 C3041 C 0.72026 0.52647 0.16571
 N3042 N 0.73209 0.53271 0.17171
 C3043 C 0.73841 0.52757 0.18389
 C3044 C 0.73270 0.51549 0.19092
 C3045 C 0.72065 0.50876 0.18478
 C3046 C 0.71439 0.51421 0.17232
 H3047 H 0.68934 0.52710 0.12629
 H3048 H 0.71466 0.56487 0.13569
 H3049 H 0.74760 0.53320 0.18827
 H3050 H 0.71570 0.49955 0.18988
 H3051 H 0.70042 0.51493 0.14627
 H3052 H 0.70476 0.50906 0.16838
 C3053 C 0.71425 1.03276 0.65295
 C3054 C 0.70033 1.02896 0.64854
 C3055 C 0.69405 1.03601 0.63692
 C3056 C 0.70150 1.04692 0.62964
 C3057 C 0.71532 1.05057 0.63454
 N3058 N 0.72124 1.04353 0.64592
 C3059 C 0.72122 1.02591 0.66551
 N3060 N 0.73165 1.03327 0.67269
 C3061 C 0.73791 1.02812 0.68485
 C3062 C 0.73352 1.01488 0.69063
 C3063 C 0.72323 1.00684 0.68306
 C3064 C 0.71715 1.01224 0.67048
 H3065 H 0.68325 1.03298 0.63383
 H3066 H 0.72150 1.05891 0.62933
 H3067 H 0.74583 1.03468 0.69030
 H3068 H 0.71964 0.99650 0.68703
 H3069 H 0.69413 1.02091 0.65416
 H3070 H 0.70928 1.00577 0.66487
 C3071 C 0.53779 0.21889 0.65297
 C3072 C 0.55137 0.22317 0.64793
 C3073 C 0.55747 0.21615 0.63616
 C3074 C 0.55021 0.20478 0.62938
 C3075 C 0.53670 0.20076 0.63481
 N3076 N 0.53097 0.20778 0.64629
 C3077 C 0.53097 0.22548 0.66581
 N3078 N 0.52020 0.21817 0.67249
 C3079 C 0.51387 0.22299 0.68475
 C3080 C 0.51850 0.23584 0.69119
 C3081 C 0.52922 0.24384 0.68422
 C3082 C 0.53540 0.23878 0.67151
 H3083 H 0.56798 0.21957 0.63256
 H3084 H 0.53064 0.19210 0.62999
 H3085 H 0.50561 0.21647 0.68971
 H3086 H 0.53303 0.25389 0.68871
 H3087 H 0.55747 0.23158 0.65314
 H3088 H 0.54355 0.24526 0.66639
 C3089 C 1.03635 0.21632 0.15372
 C3090 C 1.05021 0.22036 0.14929
 C3091 C 1.05656 0.21351 0.13757
 C3092 C 1.04926 0.20253 0.13019
 C3093 C 1.03551 0.19865 0.13509
 N3094 N 1.02952 0.20551 0.14657
 C3095 C 1.02931 0.22301 0.16640
 N3096 N 1.01901 0.21549 0.17358
 C3097 C 1.01273 0.22052 0.18581
 C3098 C 1.01693 0.23382 0.19165
 C3099 C 1.02708 0.24201 0.18408
 C3100 C 1.03320 0.23672 0.17145
 H3101 H 1.06728 0.21674 0.13445
 H3102 H 1.02945 0.19025 0.12980
 H3103 H 1.00491 0.21385 0.19125
 H3104 H 1.03051 0.25240 0.18807
 H3105 H 1.05631 0.22846 0.15498
 H3106 H 1.04093 0.24335 0.16583
 C3107 C 0.59669 0.21326 0.71747
 C3108 C 0.60092 0.19920 0.72093
 C3109 C 0.61261 0.19300 0.71388
 C3110 C 0.62015 0.20067 0.70329
 C3111 C 0.61542 0.21462 0.69997
 N3112 N 0.60399 0.22044 0.70700
 C3113 C 0.58407 0.22021 0.72432
 N3114 N 0.57738 0.23114 0.71727
 C3115 C 0.56529 0.23754 0.72240
 C3116 C 0.55904 0.23282 0.73532
 C3117 C 0.56606 0.22195 0.74306
 C3118 C 0.57860 0.21570 0.73768
 H3119 H 0.61558 0.18213 0.71670
 H3120 H 0.62081 0.22098 0.69187
 H3121 H 0.56028 0.24591 0.71606
 H3122 H 0.56172 0.21806 0.75314
 H3123 H 0.59512 0.19284 0.72874
 H3124 H 0.58380 0.20742 0.74395
 C3125 C 1.09678 0.21210 0.21795
 C3126 C 1.10165 0.19842 0.22207
 C3127 C 1.11335 0.19227 0.21499
 C3128 C 1.12022 0.19960 0.20373
 C3129 C 1.11495 0.21321 0.19987
 N3130 N 1.10353 0.21898 0.20694
 C3131 C 1.08405 0.21896 0.22465
 N3132 N 1.07721 0.22962 0.21732
 C3133 C 1.06503 0.23598 0.22227
 C3134 C 1.05885 0.23150 0.23530
 C3135 C 1.06600 0.22090 0.24331
 C3136 C 1.07862 0.21470 0.23810
 H3137 H 1.11680 0.18166 0.21824
 H3138 H 1.11984 0.21932 0.19129
 H3139 H 1.05992 0.24413 0.21573
 H3140 H 1.06171 0.21720 0.25348
 H3141 H 1.09635 0.19227 0.23037
 H3142 H 1.08390 0.20664 0.24458
 C3143 C 0.15527 0.71327 0.53442
 C3144 C 0.15090 0.69931 0.53070
 C3145 C 0.13911 0.69316 0.53758
 C3146 C 0.13162 0.70077 0.54826
 C3147 C 0.13651 0.71460 0.55188
 N3148 N 0.14804 0.72039 0.54499
 C3149 C 0.16789 0.72019 0.52760
 N3150 N 0.17485 0.73088 0.53481
 C3151 C 0.18693 0.73724 0.52959
 C3152 C 0.19282 0.73279 0.51639
 C3153 C 0.18552 0.72215 0.50855
 C3154 C 0.17305 0.71591 0.51405
 H3155 H 0.13604 0.68236 0.53457
 H3156 H 0.13114 0.72089 0.56006
 H3157 H 0.19216 0.74543 0.53601
 H3158 H 0.18954 0.71847 0.49826
 H3159 H 0.15663 0.69298 0.52280
 H3160 H 0.16760 0.70784 0.50769
 C3161 C 0.15509 0.21168 1.03326
 C3162 C 0.14701 0.20087 1.02648
 C3163 C 0.13514 0.19503 1.03344
 C3164 C 0.13106 0.19996 1.04713
 C3165 C 0.13920 0.21101 1.05342
 N3166 N 0.15085 0.21647 1.04645
 C3167 C 0.16807 0.21804 1.02653
 N3168 N 0.17331 0.23066 1.03182
 C3169 C 0.18541 0.23694 1.02657
 C3170 C 0.19314 0.23043 1.01532
 C3171 C 0.18788 0.21746 1.00966
 C3172 C 0.17547 0.21122 1.01524
 H3173 H 0.12913 0.18673 1.02794
 H3174 H 0.13648 0.21523 1.06392
 H3175 H 0.18912 0.24685 1.03142
 H3176 H 0.19358 0.21188 1.00117
 H3177 H 0.14958 0.19699 1.01583
 H3178 H 0.17213 0.20096 1.01096
 C3179 C 0.65368 0.53385 0.21402
 C3180 C 0.64929 0.52978 0.20015
 C3181 C 0.63765 0.53667 0.19371
 C3182 C 0.63032 0.54770 0.20096
 C3183 C 0.63519 0.55162 0.21473
 N3184 N 0.64659 0.54473 0.22080
 C3185 C 0.66624 0.52711 0.22113
 N3186 N 0.67361 0.53471 0.23128
 C3187 C 0.68576 0.52958 0.23760
 C3188 C 0.69132 0.51611 0.23362
 C3189 C 0.68354 0.50786 0.22364
 C3190 C 0.67100 0.51325 0.21747
 H3191 H 0.63457 0.53341 0.18298
 H3192 H 0.62993 0.56006 0.22076
 H3193 H 0.69137 0.53631 0.24528
 H3194 H 0.68731 0.49734 0.22037
 H3195 H 0.65496 0.52162 0.19411
 H3196 H 0.66523 0.50660 0.20986
 C3197 C 0.65347 1.03634 0.71560
 C3198 C 0.64936 1.05044 0.71904
 C3199 C 0.63764 1.05664 0.71209
 C3200 C 0.62991 1.04894 0.70163
 C3201 C 0.63452 1.03494 0.69830
 N3202 N 0.64603 1.02911 0.70523
 C3203 C 0.66612 1.02943 0.72241
 N3204 N 0.67303 1.01870 0.71525
 C3205 C 0.68520 1.01245 0.72039
 C3206 C 0.69128 1.01711 0.73344
 C3207 C 0.68401 1.02776 0.74128
 C3208 C 0.67142 1.03385 0.73589
 H3209 H 0.63480 1.06756 0.71489
 H3210 H 0.62899 1.02857 0.69030
 H3211 H 0.69039 1.00423 0.71399
 H3212 H 0.68819 1.03158 0.75147
 H3213 H 0.65528 1.05681 0.72675
 H3214 H 0.66602 1.04197 0.74223
 C3215 C 0.84489 0.46165 0.28407
 C3216 C 0.84928 0.44770 0.28028
 C3217 C 0.86120 0.44158 0.28700
 C3218 C 0.86877 0.44920 0.29762
 C3219 C 0.86388 0.46302 0.30129
 N3220 N 0.85224 0.46878 0.29455
 C3221 C 0.83221 0.46862 0.27735
 N3222 N 0.82532 0.47934 0.28457
 C3223 C 0.81329 0.48584 0.27935
 C3224 C 0.80741 0.48151 0.26611
 C3225 C 0.81463 0.47081 0.25827
 C3226 C 0.82702 0.46443 0.26378
 H3227 H 0.86429 0.43078 0.28401
 H3228 H 0.86931 0.46933 0.30941
 H3229 H 0.80811 0.49404 0.28578
 H3230 H 0.81060 0.46719 0.24795
 H3231 H 0.84344 0.44135 0.27247
 H3232 H 0.83240 0.45632 0.25741
 C3233 C 0.84451 0.96108 0.78399
 C3234 C 0.84947 0.94745 0.77978
 C3235 C 0.86138 0.94145 0.78663
 C3236 C 0.86838 0.94887 0.79777
 C3237 C 0.86298 0.96239 0.80178
 N3238 N 0.85136 0.96804 0.79492
 C3239 C 0.83171 0.96789 0.77732
 N3240 N 0.82487 0.97862 0.78457
 C3241 C 0.81274 0.98502 0.77950
 C3242 C 0.80667 0.98057 0.76639
 C3243 C 0.81380 0.96983 0.75852
 C3244 C 0.82632 0.96355 0.76387
 H3245 H 0.86492 0.93091 0.78324
 H3246 H 0.86797 0.96857 0.81028
 H3247 H 0.80766 0.99327 0.78595
 H3248 H 0.80964 0.96614 0.74828
 H3249 H 0.84413 0.94124 0.77153
 H3250 H 0.83160 0.95544 0.75744
 C3251 C 0.40506 0.28880 0.78271
 C3252 C 0.39971 0.30218 0.77815
 C3253 C 0.38780 0.30818 0.78502
 C3254 C 0.38118 0.30102 0.79654
 C3255 C 0.38697 0.28777 0.80090
 N3256 N 0.39856 0.28212 0.79399
 C3257 C 0.41784 0.28190 0.77605
 N3258 N 0.42437 0.27089 0.78316
 C3259 C 0.43641 0.26430 0.77812
 C3260 C 0.44275 0.26885 0.76519
 C3261 C 0.43598 0.27990 0.75747
 C3262 C 0.42353 0.28637 0.76277
 H3263 H 0.38393 0.31849 0.78134
 H3264 H 0.38232 0.28182 0.80971
 H3265 H 0.44124 0.25584 0.78448
 H3266 H 0.44040 0.28373 0.74740
 H3267 H 0.40470 0.30821 0.76958
 H3268 H 0.41858 0.29474 0.75644
 C3269 C 0.90553 0.28800 0.28436
 C3270 C 0.90057 0.30160 0.28007
 C3271 C 0.88870 0.30766 0.28690
 C3272 C 0.88172 0.30036 0.29811
 C3273 C 0.88717 0.28691 0.30227
 N3274 N 0.89875 0.28118 0.29541
 C3275 C 0.91825 0.28111 0.27764
 N3276 N 0.92504 0.27033 0.28485
 C3277 C 0.93713 0.26388 0.27974
 C3278 C 0.94323 0.26837 0.26667
 C3279 C 0.93615 0.27914 0.25884
 C3280 C 0.92365 0.28544 0.26420
 H3281 H 0.88516 0.31815 0.28340
 H3282 H 0.88224 0.28086 0.31088
 H3283 H 0.94219 0.25560 0.28615
 H3284 H 0.94036 0.28287 0.24865
 H3285 H 0.90585 0.30774 0.27176
 H3286 H 0.91842 0.29359 0.25779
 C3287 C 0.34645 0.78724 0.46658
 C3288 C 0.35087 0.80112 0.47055
 C3289 C 0.36250 0.80748 0.46356
 C3290 C 0.36977 0.80015 0.45253
 C3291 C 0.36486 0.78637 0.44873
 N3292 N 0.35349 0.78039 0.45572
 C3293 C 0.33388 0.78017 0.47336
 N3294 N 0.32681 0.76970 0.46594
 C3295 C 0.31469 0.76332 0.47104
 C3296 C 0.30883 0.76758 0.48431
 C3297 C 0.31628 0.77792 0.49241
 C3298 C 0.32881 0.78415 0.48704
 H3299 H 0.36560 0.81822 0.46674
 H3300 H 0.37006 0.78028 0.44030
 H3301 H 0.30935 0.75536 0.46442
 H3302 H 0.31226 0.78143 0.50277
 H3303 H 0.34527 0.80723 0.47870
 H3304 H 0.33432 0.79204 0.49358
 C3305 C 0.34675 0.28792 0.96835
 C3306 C 0.35191 0.30140 0.97284
 C3307 C 0.36364 0.30758 0.96582
 C3308 C 0.37026 0.30049 0.95424
 C3309 C 0.36470 0.28709 0.95002
 N3310 N 0.35327 0.28128 0.95704
 C3311 C 0.33399 0.28097 0.97498
 N3312 N 0.32736 0.27014 0.96767
 C3313 C 0.31522 0.26364 0.97255
 C3314 C 0.30884 0.26815 0.98548
 C3315 C 0.31576 0.27894 0.99346
 C3316 C 0.32835 0.28528 0.98834
 H3317 H 0.36735 0.31800 0.96939
 H3318 H 0.36937 0.28117 0.94118
 H3319 H 0.31029 0.25536 0.96602
 H3320 H 0.31129 0.28269 1.00355
 H3321 H 0.34685 0.30738 0.98142
 H3322 H 0.33341 0.29348 0.99484
 C3323 C 0.78461 0.46259 0.34462
 C3324 C 0.78066 0.44873 0.34906
 C3325 C 0.78737 0.44255 0.36095
 C3326 C 0.79812 0.45004 0.36847
 C3327 C 0.80195 0.46379 0.36351
 N3328 N 0.79522 0.46961 0.35189
 C3329 C 0.77796 0.46955 0.33193
 N3330 N 0.78541 0.47993 0.32478
 C3331 C 0.78029 0.48630 0.31265
 C3332 C 0.76692 0.48217 0.30693
 C3333 C 0.75885 0.47187 0.31444
 C3334 C 0.76427 0.46562 0.32693
 H3335 H 0.78420 0.43182 0.36409
 H3336 H 0.81017 0.47002 0.36888
 H3337 H 0.78689 0.49421 0.30726
 H3338 H 0.74841 0.46844 0.31056
 H3339 H 0.77270 0.44250 0.34330
 H3340 H 0.75774 0.45780 0.33252
 C3341 C 0.78365 0.96169 0.84454
 C3342 C 0.77946 0.94797 0.84925
 C3343 C 0.78625 0.94181 0.86111
 C3344 C 0.79731 0.94917 0.86830
 C3345 C 0.80133 0.96277 0.86310
 N3346 N 0.79452 0.96856 0.85153
 C3347 C 0.77700 0.96870 0.83186
 N3348 N 0.78446 0.97917 0.82487
 C3349 C 0.77937 0.98571 0.81282
 C3350 C 0.76601 0.98169 0.80702
 C3351 C 0.75791 0.97127 0.81436
 C3352 C 0.76331 0.96483 0.82677
 H3353 H 0.78292 0.93120 0.86450
 H3354 H 0.80977 0.96890 0.86823
 H3355 H 0.78599 0.99369 0.80756
 H3356 H 0.74748 0.96793 0.81041
 H3357 H 0.77125 0.94185 0.84374
 H3358 H 0.75676 0.95693 0.83222
 C3359 C 0.28599 0.78511 0.40392
 C3360 C 0.30014 0.78159 0.40006
 C3361 C 0.30659 0.78848 0.38845
 C3362 C 0.29907 0.79896 0.38062
 C3363 C 0.28503 0.80240 0.38502
 N3364 N 0.27895 0.79552 0.39641
 C3365 C 0.27885 0.77828 0.41639
 N3366 N 0.26848 0.78568 0.42361
 C3367 C 0.26217 0.78047 0.43572
 C3368 C 0.26641 0.76712 0.44138
 C3369 C 0.27661 0.75905 0.43374
 C3370 C 0.28277 0.76452 0.42123
 H3371 H 0.31753 0.78562 0.38577
 H3372 H 0.27882 0.81044 0.37938
 H3373 H 0.25431 0.78704 0.44124
 H3374 H 0.28009 0.74863 0.43760
 H3375 H 0.30636 0.77385 0.40611
 H3376 H 0.29058 0.75804 0.41555
 C3377 C 0.28767 0.28185 0.90323
 C3378 C 0.30130 0.27765 0.89826
 C3379 C 0.30748 0.28476 0.88660
 C3380 C 0.30024 0.29615 0.87985
 C3381 C 0.28670 0.30012 0.88523
 N3382 N 0.28089 0.29300 0.89661
 C3383 C 0.28076 0.27509 0.91593
 N3384 N 0.26992 0.28228 0.92265
 C3385 C 0.26351 0.27729 0.93480
 C3386 C 0.26813 0.26438 0.94109
 C3387 C 0.27892 0.25650 0.93407
 C3388 C 0.28517 0.26173 0.92147
 H3389 H 0.31803 0.28140 0.88307
 H3390 H 0.28067 0.30881 0.88044
 H3391 H 0.25522 0.28374 0.93981
 H3392 H 0.28272 0.24641 0.93846
 H3393 H 0.30739 0.26923 0.90344
 H3394 H 0.29336 0.25531 0.91631
 C3395 C 0.46126 0.28332 0.84497
 C3396 C 0.44788 0.27881 0.85035
 C3397 C 0.44198 0.28568 0.86231
 C3398 C 0.44922 0.29715 0.86894
 C3399 C 0.46249 0.30145 0.86313
 N3400 N 0.46805 0.29455 0.85149
 C3401 C 0.46803 0.27668 0.83211
 N3402 N 0.47908 0.28374 0.82559
 C3403 C 0.48556 0.27876 0.81347
 C3404 C 0.48085 0.26593 0.80702
 C3405 C 0.46975 0.25826 0.81376
 C3406 C 0.46340 0.26350 0.82630
 H3407 H 0.43165 0.28204 0.86619
 H3408 H 0.46852 0.31021 0.86781
 H3409 H 0.49408 0.28506 0.80868
 H3410 H 0.46582 0.24826 0.80925
 H3411 H 0.44178 0.27028 0.84537
 H3412 H 0.45499 0.25719 0.83122
 C3413 C 0.96533 0.28763 0.34501
 C3414 C 0.96906 0.30163 0.34926
 C3415 C 0.96235 0.30784 0.36114
 C3416 C 0.95182 0.30024 0.36884
 C3417 C 0.94815 0.28639 0.36403
 N3418 N 0.95488 0.28054 0.35242
 C3419 C 0.97208 0.28056 0.33241
 N3420 N 0.96478 0.26997 0.32540
 C3421 C 0.97003 0.26343 0.31340
 C3422 C 0.98340 0.26755 0.30770
 C3423 C 0.99132 0.27809 0.31507
 C3424 C 0.98576 0.28454 0.32741
 H3425 H 0.96539 0.31864 0.36417
 H3426 H 0.94009 0.28009 0.36952
 H3427 H 0.96353 0.25535 0.30810
 H3428 H 1.00174 0.28153 0.31119
 H3429 H 0.97689 0.30790 0.34339
 H3430 H 0.99218 0.29254 0.33291
 C3431 C 0.46652 0.34534 0.78770
 C3432 C 0.47038 0.34991 0.80158
 C3433 C 0.46352 0.36175 0.80770
 C3434 C 0.45271 0.36907 0.80013
 C3435 C 0.44906 0.36406 0.78633
 N3436 N 0.45592 0.35249 0.78059
 C3437 C 0.47317 0.33259 0.78081
 N3438 N 0.46588 0.32571 0.77012
 C3439 C 0.47095 0.31358 0.76370
 C3440 C 0.48408 0.30757 0.76811
 C3441 C 0.49199 0.31476 0.77879
 C3442 C 0.48665 0.32727 0.78508
 H3443 H 0.46662 0.36499 0.81843
 H3444 H 0.44081 0.36929 0.78003
 H3445 H 0.46447 0.30843 0.75552
 H3446 H 0.50225 0.31062 0.78243
 H3447 H 0.47835 0.34428 0.80789
 H3448 H 0.49308 0.33262 0.79316
 C3449 C 0.96663 0.34457 0.28864
 C3450 C 0.97097 0.34975 0.30218
 C3451 C 0.96406 0.36162 0.30818
 C3452 C 0.95271 0.36839 0.30087
 C3453 C 0.94853 0.36274 0.28748
 N3454 N 0.95548 0.35118 0.28182
 C3455 C 0.97342 0.33187 0.28173
 N3456 N 0.96637 0.32523 0.27072
 C3457 C 0.97154 0.31323 0.26415
 C3458 C 0.98456 0.30707 0.26869
 C3459 C 0.99222 0.31397 0.27974
 C3460 C 0.98677 0.32636 0.28620
 H3461 H 0.96758 0.36535 0.31862
 H3462 H 0.93984 0.36751 0.28143
 H3463 H 0.96523 0.30830 0.25569
 H3464 H 1.00235 0.30969 0.28356
 H3465 H 0.97941 0.34465 0.30831
 H3466 H 0.99305 0.33143 0.29456
 C3467 C 0.28622 0.84700 0.46632
 C3468 C 0.30003 0.85149 0.47045
 C3469 C 0.30648 0.86306 0.46347
 C3470 C 0.29932 0.87022 0.45227
 C3471 C 0.28560 0.86526 0.44830
 N3472 N 0.27952 0.85394 0.45529
 C3473 C 0.27906 0.83448 0.47311
 N3474 N 0.26875 0.82727 0.46560
 C3475 C 0.26231 0.81520 0.47074
 C3476 C 0.26634 0.80954 0.48416
 C3477 C 0.27650 0.81715 0.49235
 C3478 C 0.28280 0.82962 0.48694
 H3479 H 0.31717 0.86622 0.46678
 H3480 H 0.27963 0.87037 0.43974
 H3481 H 0.25450 0.80973 0.46406
 H3482 H 0.27985 0.81329 0.50282
 H3483 H 0.30602 0.84596 0.47873
 H3484 H 0.29054 0.83526 0.49354
 C3485 C 0.28174 0.34652 0.96192
 C3486 C 0.27581 0.35335 0.94980
 C3487 C 0.28287 0.36504 0.94366
 C3488 C 0.29586 0.37009 0.94945
 C3489 C 0.30145 0.36299 0.96155
 N3490 N 0.29437 0.35159 0.96735
 C3491 C 0.27505 0.33372 0.96881
 N3492 N 0.28188 0.32759 0.98023
 C3493 C 0.27701 0.31545 0.98675
 C3494 C 0.26460 0.30853 0.98165
 C3495 C 0.25713 0.31487 0.97017
 C3496 C 0.26224 0.32740 0.96377
 H3497 H 0.27806 0.37003 0.93435
 H3498 H 0.31141 0.36643 0.96646
 H3499 H 0.28316 0.31096 0.99555
 H3500 H 0.24750 0.30993 0.96585
 H3501 H 0.26590 0.34986 0.94490
 H3502 H 0.25622 0.33169 0.95484
 C3503 C 0.78720 0.40519 0.28521
 C3504 C 0.80125 0.40100 0.28164
 C3505 C 0.80746 0.38928 0.28855
 C3506 C 0.79983 0.38168 0.29911
 C3507 C 0.78593 0.38642 0.30264
 N3508 N 0.78006 0.39789 0.29571
 C3509 C 0.78020 0.41766 0.27824
 N3510 N 0.76968 0.42485 0.28544
 C3511 C 0.76328 0.43682 0.28002
 C3512 C 0.76753 0.44232 0.26659
 C3513 C 0.77800 0.43476 0.25878
 C3514 C 0.78428 0.42243 0.26450
 H3515 H 0.81832 0.38633 0.28564
 H3516 H 0.77963 0.38095 0.31073
 H3517 H 0.75525 0.44227 0.28644
 H3518 H 0.78153 0.43850 0.24833
 H3519 H 0.80756 0.40683 0.27381
 H3520 H 0.79223 0.41678 0.25817
   
