data_POSCAR
  _audit_creation_date              2014-09-24
  _audit_creation_method            'ToBaCCo'
  _symmetry_space_group_name_H-M    'P1'
  _symmetry_Int_Tables_number       1
  _symmetry_cell_setting            triclinic
  loop_
  _symmetry_equiv_pos_as_xyz
 x,y,z
_cell_length_a 54.9200
_cell_length_b 55.2889
_cell_length_c 55.6662
_cell_angle_alpha 89.931900
_cell_angle_beta 90.079500
_cell_angle_gamma 90.099100
loop_
  _atom_site_label
  _atom_site_type_symbol
  _atom_site_fract_x
  _atom_site_fract_y
  _atom_site_fract_z
C1 C 0.28182 0.37061 -0.00428
 C2 C 0.28799 0.35933 0.01730
 C3 C 0.30568 0.34114 0.01764
 C4 C 0.31846 0.33485 -0.00352
 C5 C 0.31231 0.34702 -0.02509
 C6 C 0.29370 0.36432 -0.02551
 C7 C 0.33823 0.31606 -0.00304
 C8 C 0.34529 0.30383 -0.02425
 C9 C 0.36438 0.28706 -0.02390
 C10 C 0.37580 0.28126 -0.00223
 C11 C 0.36873 0.29259 0.01901
 C12 C 0.35054 0.31028 0.01858
 H13 H 0.26786 0.38450 -0.00447
 H14 H 0.30924 0.33212 0.03451
 H15 H 0.32201 0.34350 -0.04161
 H16 H 0.33612 0.30711 -0.04114
 H17 H 0.39036 0.26800 -0.00187
 H18 H 0.34643 0.31952 0.03518
 C19 C 0.71764 0.62881 0.00475
 C20 C 0.70532 0.63541 0.02562
 C21 C 0.68670 0.65266 0.02457
 C22 C 0.68093 0.66449 0.00271
 C23 C 0.69420 0.65792 -0.01808
 C24 C 0.71191 0.63975 -0.01712
 C25 C 0.66109 0.68321 0.00152
 C26 C 0.64946 0.68885 -0.02051
 C27 C 0.63126 0.70655 -0.02161
 C28 C 0.62352 0.71798 -0.00063
 C29 C 0.63423 0.71228 0.02138
 C30 C 0.65331 0.69554 0.02243
 H31 H 0.73159 0.61495 0.00549
 H32 H 0.67673 0.65637 0.04087
 H33 H 0.69102 0.66667 -0.03516
 H34 H 0.65412 0.67948 -0.03690
 H35 H 0.60899 0.73126 -0.00137
 H36 H 0.66185 0.69240 0.03964
 C37 C 0.71700 0.37872 1.00357
 C38 C 0.71187 0.36769 0.98162
 C39 C 0.69536 0.34837 0.98054
 C40 C 0.68277 0.34060 1.00136
 C41 C 0.68778 0.35264 1.02328
 C42 C 0.70523 0.37108 1.02441
 C43 C 0.66449 0.32032 1.00030
 C44 C 0.65798 0.30739 1.02132
 C45 C 0.64002 0.28940 1.02062
 C46 C 0.62934 0.28301 0.99880
 C47 C 0.63595 0.29492 0.97770
 C48 C 0.65297 0.31382 0.97843
 H49 H 0.73011 0.39340 1.00442
 H50 H 0.69262 0.33960 0.96340
 H51 H 0.67818 0.34813 1.03961
 H52 H 0.66660 0.31111 1.03839
 H53 H 0.61558 0.26889 0.99823
 H54 H 0.65671 0.32345 0.96193
 C55 C 0.28054 0.62439 1.00088
 C56 C 0.28676 0.63567 0.97935
 C57 C 0.30366 0.65462 0.97924
 C58 C 0.31573 0.66166 1.00061
 C59 C 0.30949 0.64956 1.02220
 C60 C 0.29160 0.63146 1.02231
 C61 C 0.33489 0.68110 1.00022
 C62 C 0.34124 0.69394 1.02133
 C63 C 0.35968 0.71149 1.02090
 C64 C 0.37113 0.71737 0.99930
 C65 C 0.36483 0.70533 0.97821
 C66 C 0.34734 0.68692 0.97870
 H67 H 0.26721 0.60988 1.00092
 H68 H 0.30720 0.66358 0.96234
 H69 H 0.31854 0.65371 1.03895
 H70 H 0.33204 0.69052 1.03816
 H71 H 0.38518 0.73120 0.99890
 H72 H 0.34391 0.67717 0.96223
 C73 C -0.00607 0.28219 0.37648
 C74 C 0.01579 0.29291 0.36944
 C75 C 0.01581 0.31091 0.35167
 C76 C -0.00608 0.31761 0.33989
 C77 C -0.02786 0.30585 0.34690
 C78 C -0.02787 0.28884 0.36551
 C79 C -0.00635 0.33682 0.32072
 C80 C -0.02807 0.34943 0.31503
 C81 C -0.02846 0.36687 0.29676
 C82 C -0.00701 0.37292 0.28478
 C83 C 0.01475 0.36131 0.29055
 C84 C 0.01505 0.34298 0.30793
 H85 H -0.00614 0.26877 0.39072
 H86 H 0.03290 0.31966 0.34750
 H87 H -0.04500 0.30970 0.33816
 H88 H -0.04475 0.34612 0.32478
 H89 H -0.00716 0.38687 0.27103
 H90 H 0.03205 0.33372 0.31120
 C91 C 0.00789 0.71738 0.62322
 C92 C 0.02886 0.70506 0.63020
 C93 C 0.02766 0.68761 0.64840
 C94 C 0.00558 0.68314 0.66081
 C95 C -0.01532 0.69630 0.65372
 C96 C -0.01421 0.71282 0.63467
 C97 C 0.00439 0.66485 0.68080
 C98 C -0.01795 0.65390 0.68753
 C99 C -0.01879 0.63692 0.70625
 C100 C 0.00267 0.62983 0.71769
 C101 C 0.02488 0.63997 0.71101
 C102 C 0.02573 0.65782 0.69323
 H103 H 0.00875 0.73049 0.60871
 H104 H 0.04402 0.67758 0.65246
 H105 H -0.03254 0.69400 0.66282
 H106 H -0.03470 0.65808 0.67819
 H107 H 0.00216 0.61612 0.73168
 H108 H 0.04319 0.66594 0.68930
 C109 C 1.00848 0.71584 0.37243
 C110 C 0.98600 0.71053 0.36204
 C111 C 0.98435 0.69305 0.34392
 C112 C 1.00508 0.67962 0.33683
 C113 C 1.02759 0.68494 0.34815
 C114 C 1.02931 0.70333 0.36536
 C115 C 1.00321 0.66006 0.31812
 C116 C 1.02404 0.65207 0.30541
 C117 C 1.02235 0.63317 0.28872
 C118 C 0.99973 0.62291 0.28347
 C119 C 0.97886 0.63090 0.29527
 C120 C 0.98060 0.64888 0.31288
 H121 H 1.00969 0.72965 0.38625
 H122 H 0.96680 0.69019 0.33559
 H123 H 1.04384 0.67477 0.34404
 H124 H 1.04166 0.66034 0.30824
 H125 H 0.99833 0.60853 0.27027
 H126 H 0.96422 0.65368 0.32246
 C127 C 0.99458 0.28282 0.62834
 C128 C 0.97357 0.29530 0.63485
 C129 C 0.97482 0.31372 0.65207
 C130 C 0.99704 0.31912 0.66387
 C131 C 1.01796 0.30574 0.65736
 C132 C 1.01678 0.28821 0.63928
 C133 C 0.99847 0.33867 0.68258
 C134 C 1.02086 0.35022 0.68803
 C135 C 1.02213 0.36816 0.70575
 C136 C 1.00097 0.37567 0.71740
 C137 C 0.97864 0.36499 0.71191
 C138 C 0.97741 0.34622 0.69512
 H139 H 0.99370 0.26901 0.61452
 H140 H 0.95842 0.32382 0.65578
 H141 H 1.03528 0.30871 0.66610
 H142 H 1.03736 0.34567 0.67849
 H143 H 1.00182 0.38999 0.73071
 H144 H 0.95995 0.33770 0.69208
 C145 C 0.37248 0.00597 0.28124
 C146 C 0.36586 0.02705 0.29328
 C147 C 0.34862 0.02610 0.31179
 C148 C 0.33691 0.00404 0.31776
 C149 C 0.34344 -0.01695 0.30474
 C150 C 0.36159 -0.01606 0.28712
 C151 C 0.31836 0.00277 0.33758
 C152 C 0.31331 -0.01937 0.34940
 C153 C 0.29564 -0.02069 0.36744
 C154 C 0.28363 0.00020 0.37486
 C155 C 0.28878 0.02238 0.36399
 C156 C 0.30555 0.02363 0.34509
 H157 H 0.38638 0.00670 0.26739
 H158 H 0.34482 0.04256 0.32154
 H159 H 0.33463 -0.03413 0.30811
 H160 H 0.32309 -0.03572 0.34501
 H161 H 0.27034 -0.00078 0.38923
 H162 H 0.30834 0.04092 0.33644
 C163 C 0.62703 -0.00453 0.71977
 C164 C 0.63796 0.01743 0.71378
 C165 C 0.65604 0.01823 0.69612
 C166 C 0.66246 -0.00278 0.68308
 C167 C 0.65077 -0.02480 0.68916
 C168 C 0.63359 -0.02570 0.70776
 C169 C 0.68078 -0.00151 0.66306
 C170 C 0.69349 -0.02235 0.65527
 C171 C 0.71009 -0.02097 0.63621
 C172 C 0.71514 0.00128 0.62547
 C173 C 0.70320 0.02211 0.63312
 C174 C 0.68570 0.02069 0.65129
 H175 H 0.61317 -0.00505 0.73366
 H176 H 0.66479 0.03541 0.69274
 H177 H 0.65454 -0.04126 0.67938
 H178 H 0.69078 -0.03970 0.66384
 H179 H 0.72833 0.00238 0.61100
 H180 H 0.67598 0.03702 0.65584
 C181 C 0.37412 0.99703 0.71706
 C182 C 0.36313 0.97534 0.71032
 C183 C 0.34495 0.97526 0.69269
 C184 C 0.33845 0.99681 0.68048
 C185 C 0.35025 1.01855 0.68733
 C186 C 0.36755 1.01864 0.70587
 C187 C 0.31993 0.99644 0.66053
 C188 C 0.30730 1.01767 0.65359
 C189 C 0.29053 1.01716 0.63454
 C190 C 0.28526 0.99536 0.62302
 C191 C 0.29712 0.97417 0.62986
 C192 C 0.31475 0.97476 0.64799
 H193 H 0.38804 0.99706 0.73092
 H194 H 0.33614 0.95824 0.68870
 H195 H 0.34651 1.03543 0.67825
 H196 H 0.31022 1.03462 0.66282
 H197 H 0.27197 0.99485 0.60856
 H198 H 0.32439 0.95820 0.65189
 C199 C 0.62743 1.00094 0.27998
 C200 C 0.63400 0.97944 0.29137
 C201 C 0.65134 0.97968 0.30983
 C202 C 0.66317 1.00146 0.31642
 C203 C 0.65669 1.02292 0.30411
 C204 C 0.63847 1.02270 0.28651
 C205 C 0.68175 1.00195 0.33623
 C206 C 0.68655 1.02353 0.34907
 C207 C 0.70418 1.02409 0.36722
 C208 C 0.71642 1.00299 0.37364
 C209 C 0.71154 0.98135 0.36172
 C210 C 0.69477 0.98086 0.34275
 H211 H 0.61344 1.00073 0.26617
 H212 H 0.65511 0.96290 0.31909
 H213 H 0.66558 1.03993 0.30806
 H214 H 0.67659 1.03997 0.34539
 H215 H 0.72969 1.00338 0.38811
 H216 H 0.69213 0.96400 0.33328
 O217 O 0.85941 0.82415 0.47473
 O218 O 0.82484 0.85708 0.52073
 O219 O 0.85886 0.82442 0.52130
 O220 O 0.82530 0.85674 0.47412
 O221 O 0.79721 0.82803 0.47389
 O222 O 0.83097 0.79551 0.52130
 O223 O 0.79676 0.82836 0.52074
 O224 O 0.83152 0.79525 0.47450
 Cu225 Cu 0.84490 0.84349 0.49772
 Cu226 Cu 0.81127 0.80887 0.49759
 C227 C 0.85144 0.80410 0.46694
 C228 C 0.80495 0.84839 0.52845
 C229 C 0.85071 0.80447 0.52918
 C230 C 0.80555 0.84797 0.46611
 O231 O 0.14430 0.18133 0.48023
 O232 O 0.17781 0.14519 0.52482
 O233 O 0.14468 0.17865 0.52663
 O234 O 0.17721 0.14739 0.47825
 O235 O 0.20623 0.17515 0.47926
 O236 O 0.17341 0.20670 0.52789
 O237 O 0.20675 0.17302 0.52608
 O238 O 0.17311 0.20930 0.48124
 Cu239 Cu 0.15813 0.16033 0.50233
 Cu240 Cu 0.19283 0.19385 0.50369
 C241 C 0.15283 0.20153 0.47343
 C242 C 0.19795 0.15293 0.53295
 C243 C 0.15336 0.19801 0.53530
 C244 C 0.19729 0.15578 0.47073
 O245 O 0.16445 0.80378 0.51904
 O246 O 0.19732 0.83838 0.47313
 O247 O 0.16462 0.80410 0.47270
 O248 O 0.19739 0.83775 0.51941
 O249 O 0.22661 0.81028 0.51942
 O250 O 0.19357 0.77634 0.47234
 O251 O 0.22660 0.81097 0.47278
 O252 O 0.19334 0.77596 0.51905
 Cu253 Cu 0.17803 0.82374 0.49607
 Cu254 Cu 0.21298 0.79056 0.49586
 C255 C 0.17307 0.78392 0.52659
 C256 C 0.21767 0.83085 0.46550
 C257 C 0.17328 0.78438 0.46489
 C258 C 0.21768 0.82998 0.52704
 O259 O 0.80330 0.15791 0.48107
 O260 O 0.83755 0.19260 0.52602
 O261 O 0.80361 0.15949 0.52731
 O262 O 0.83743 0.19037 0.47960
 O263 O 0.80957 0.21919 0.47830
 O264 O 0.77529 0.18787 0.52635
 O265 O 0.80960 0.22134 0.52511
 O266 O 0.77513 0.18644 0.47977
 Cu267 Cu 0.82331 0.17226 0.50368
 Cu268 Cu 0.78958 0.20668 0.50236
 C269 C 0.78336 0.16612 0.47300
 C270 C 0.82961 0.21295 0.53293
 C271 C 0.78352 0.16805 0.53452
 C272 C 0.82937 0.20999 0.47094
 O273 O 0.52405 0.80857 0.84439
 O274 O 0.47604 0.84228 0.81316
 O275 O 0.47715 0.80836 0.84554
 O276 O 0.52313 0.84211 0.81130
 O277 O 0.52231 0.81422 0.78287
 O278 O 0.47598 0.78030 0.81727
 O279 O 0.47488 0.81450 0.78463
 O280 O 0.52318 0.78036 0.81627
 Cu281 Cu 0.50025 0.82816 0.83140
 Cu282 Cu 0.49905 0.79454 0.79733
 C283 C 0.53137 0.78857 0.83600
 C284 C 0.46743 0.83426 0.79360
 C285 C 0.46902 0.78852 0.83739
 C286 C 0.53027 0.83409 0.79118
 O287 O 0.47816 0.15570 0.18629
 O288 O 0.52546 0.18610 0.15078
 O289 O 0.52517 0.15362 0.18430
 O290 O 0.47849 0.18842 0.15230
 O291 O 0.48081 0.21737 0.17958
 O292 O 0.52781 0.18225 0.21191
 O293 O 0.52810 0.21498 0.17814
 O294 O 0.48048 0.18435 0.21388
 Cu295 Cu 0.50145 0.16807 0.16568
 Cu296 Cu 0.50443 0.20267 0.19869
 C297 C 0.47161 0.16459 0.20624
 C298 C 0.53474 0.20567 0.15838
 C299 C 0.53437 0.16196 0.20347
 C300 C 0.47208 0.20893 0.16019
 O301 O 0.47695 0.18230 0.84815
 O302 O 0.52638 0.15022 0.81771
 O303 O 0.52399 0.18462 0.84959
 O304 O 0.47937 0.14904 0.81512
 O305 O 0.47942 0.17688 0.78656
 O306 O 0.52436 0.21244 0.82102
 O307 O 0.52673 0.17778 0.78889
 O308 O 0.47701 0.21039 0.81983
 Cu309 Cu 0.50165 0.16377 0.83550
 Cu310 Cu 0.50190 0.19720 0.80118
 C311 C 0.46879 0.20184 0.83941
 C312 C 0.53471 0.15829 0.79806
 C313 C 0.53155 0.20463 0.84125
 C314 C 0.47203 0.15682 0.79492
 O315 O 0.47260 0.82122 0.14758
 O316 O 0.51935 0.85310 0.18271
 O317 O 0.51983 0.82076 0.14865
 O318 O 0.47234 0.85420 0.18074
 O319 O 0.47081 0.82562 0.20854
 O320 O 0.51860 0.79181 0.17607
 O321 O 0.51811 0.82437 0.21037
 O322 O 0.47110 0.79241 0.17514
 Cu323 Cu 0.49621 0.84017 0.16213
 Cu324 Cu 0.49455 0.80560 0.19531
 C325 C 0.46398 0.80142 0.15538
 C326 C 0.52640 0.84433 0.20259
 C327 C 0.52712 0.80060 0.15673
 C328 C 0.46368 0.84576 0.20010
 O329 O 0.82171 0.48319 0.85382
 O330 O 0.85387 0.52873 0.81757
 O331 O 0.82217 0.53007 0.85249
 O332 O 0.85374 0.48198 0.81962
 O333 O 0.82412 0.48104 0.79267
 O334 O 0.79224 0.52941 0.82588
 O335 O 0.82416 0.52806 0.79072
 O336 O 0.79188 0.48227 0.82709
 Cu337 Cu 0.84084 0.50615 0.83856
 Cu338 Cu 0.80506 0.50519 0.80639
 C339 C 0.80137 0.47504 0.84661
 C340 C 0.84468 0.53583 0.79787
 C341 C 0.80177 0.53767 0.84499
 C342 C 0.84441 0.47345 0.80059
 O343 O 0.17955 0.47031 0.14682
 O344 O 0.14746 0.51802 0.17978
 O345 O 0.18193 0.51703 0.14764
 O346 O 0.14580 0.47114 0.17951
 O347 O 0.17369 0.46953 0.20816
 O348 O 0.20994 0.51567 0.17619
 O349 O 0.17524 0.51668 0.20854
 O350 O 0.20767 0.46869 0.17525
 Cu351 Cu 0.16087 0.49431 0.16059
 Cu352 Cu 0.19445 0.49251 0.19496
 C353 C 0.19909 0.46158 0.15526
 C354 C 0.15572 0.52530 0.19977
 C355 C 0.20214 0.52390 0.15634
 C356 C 0.15357 0.46264 0.19925
 O357 O 0.80645 0.52546 0.16136
 O358 O 0.83915 0.47846 0.19494
 O359 O 0.80593 0.47882 0.16141
 O360 O 0.83969 0.52511 0.19489
 O361 O 0.81110 0.52554 0.22283
 O362 O 0.77698 0.47893 0.18899
 O363 O 0.81053 0.47855 0.22284
 O364 O 0.77754 0.52590 0.18897
 Cu365 Cu 0.82568 0.50194 0.17538
 Cu366 Cu 0.79111 0.50226 0.20873
 C367 C 0.78631 0.53334 0.16920
 C368 C 0.83065 0.47082 0.21471
 C369 C 0.78561 0.47133 0.16925
 C370 C 0.83140 0.53287 0.21466
 O371 O 0.18678 0.52061 0.84606
 O372 O 0.15534 0.47454 0.81019
 O373 O 0.18859 0.47396 0.84391
 O374 O 0.15409 0.52123 0.81263
 O375 O 0.18285 0.52377 0.78494
 O376 O 0.21760 0.47617 0.81648
 O377 O 0.18403 0.47675 0.78244
 O378 O 0.21579 0.52316 0.81864
 Cu379 Cu 0.16831 0.49721 0.83095
 Cu380 Cu 0.20302 0.50005 0.79780
 C381 C 0.20654 0.52969 0.83848
 C382 C 0.16403 0.46817 0.79010
 C383 C 0.20911 0.46741 0.83582
 C384 C 0.16259 0.53051 0.79356
 C385 C 0.22800 0.41598 0.08371
 C386 C 0.25539 0.41700 0.07754
 C387 C 0.25584 0.38923 0.07662
 C388 C 0.22856 0.38804 0.08257
 C389 C 0.23463 0.41475 0.11051
 C390 C 0.23501 0.38697 0.10970
 C391 C 0.26191 0.41594 0.10455
 C392 C 0.26256 0.38791 0.10340
 C393 C 0.26747 0.37654 0.05662
 C394 C 0.27689 0.36776 0.03915
 C395 C 0.22244 0.43021 0.12812
 C396 C 0.21200 0.44403 0.14127
 H397 H 0.21370 0.42769 0.07575
 H398 H 0.26387 0.42926 0.06411
 H399 H 0.21497 0.37642 0.07332
 H400 H 0.22649 0.37480 0.12316
 H401 H 0.27549 0.42758 0.11378
 H402 H 0.27689 0.37619 0.11126
 C403 C 0.76190 0.58221 0.09780
 C404 C 0.73783 0.57518 0.08521
 C405 C 0.72952 0.60165 0.08680
 C406 C 0.75349 0.60885 0.09917
 C407 C 0.74985 0.57742 0.12225
 C408 C 0.74158 0.60389 0.12395
 C409 C 0.72588 0.57020 0.10989
 C410 C 0.71737 0.59692 0.11122
 C411 C 0.71933 0.61442 0.06602
 C412 C 0.71221 0.62429 0.04802
 C413 C 0.76207 0.56296 0.14076
 C414 C 0.77285 0.55001 0.15457
 H415 H 0.78034 0.57606 0.09244
 H416 H 0.73619 0.56347 0.06910
 H417 H 0.76474 0.62489 0.09454
 H418 H 0.74326 0.61554 0.14009
 H419 H 0.71464 0.55415 0.11450
 H420 H 0.69892 0.60311 0.11648
 C421 C 0.74713 0.40817 0.88589
 C422 C 0.76030 0.39086 0.90364
 C423 C 0.74448 0.40077 0.92412
 C424 C 0.73112 0.41779 0.90672
 C425 C 0.76610 0.42782 0.89158
 C426 C 0.75027 0.43763 0.91209
 C427 C 0.77946 0.41080 0.90898
 C428 C 0.76346 0.42044 0.92970
 C429 C 0.73263 0.38703 0.94336
 C430 C 0.72306 0.37728 0.96027
 C431 C 0.77837 0.44383 0.87443
 C432 C 0.78872 0.45776 0.86126
 H433 H 0.74056 0.40333 0.86765
 H434 H 0.76427 0.37147 0.90038
 H435 H 0.71111 0.42050 0.90598
 H436 H 0.74626 0.45702 0.91542
 H437 H 0.79947 0.40811 0.90974
 H438 H 0.77008 0.42535 0.94791
 C439 C 0.22449 0.58879 0.90512
 C440 C 0.24387 0.58008 0.92332
 C441 C 0.25806 0.60371 0.91932
 C442 C 0.23881 0.61266 0.90137
 C443 C 0.23927 0.57710 0.88481
 C444 C 0.25344 0.60073 0.88067
 C445 C 0.25851 0.56823 0.90280
 C446 C 0.27288 0.59205 0.89902
 C447 C 0.26833 0.61707 0.93963
 C448 C 0.27671 0.62646 0.95731
 C449 C 0.22833 0.56120 0.86677
 C450 C 0.21873 0.54719 0.85317
 H451 H 0.20447 0.58726 0.90745
 H452 H 0.24001 0.57171 0.94106
 H453 H 0.23084 0.63110 0.90102
 H454 H 0.25726 0.60901 0.86289
 H455 H 0.26651 0.54980 0.90322
 H456 H 0.29290 0.59357 0.89674
 C457 C 0.08684 0.25562 0.44045
 C458 C 0.09203 0.27681 0.42295
 C459 C 0.07520 0.26486 0.40435
 C460 C 0.06979 0.24387 0.42168
 C461 C 0.10834 0.24164 0.42960
 C462 C 0.09147 0.22974 0.41099
 C463 C 0.11388 0.26263 0.41230
 C464 C 0.09667 0.25089 0.39344
 C465 C 0.05545 0.27662 0.39098
 C466 C 0.03799 0.28489 0.38073
 C467 C 0.12564 0.22795 0.44438
 C468 C 0.13868 0.21610 0.45725
 H469 H 0.08294 0.25742 0.45993
 H470 H 0.09207 0.29630 0.42771
 H471 H 0.05146 0.23625 0.42545
 H472 H 0.09139 0.21026 0.40621
 H473 H 0.13224 0.27018 0.40860
 H474 H 0.10052 0.24911 0.37395
 C475 C 0.10459 0.73376 0.55956
 C476 C 0.10757 0.71319 0.57825
 C477 C 0.09084 0.72712 0.59545
 C478 C 0.08763 0.74750 0.57693
 C479 C 0.12654 0.74688 0.57073
 C480 C 0.10977 0.76073 0.58794
 C481 C 0.12990 0.72649 0.58922
 C482 C 0.11277 0.74022 0.60668
 C483 C 0.06982 0.71747 0.60854
 C484 C 0.05157 0.71099 0.61870
 C485 C 0.14507 0.75900 0.55609
 C486 C 0.15877 0.76995 0.54311
 H487 H 0.10140 0.73123 0.54002
 H488 H 0.10643 0.69352 0.57441
 H489 H 0.07005 0.75606 0.57196
 H490 H 0.11084 0.78040 0.59181
 H491 H 0.14753 0.71801 0.59412
 H492 H 0.11590 0.74275 0.62622
 C493 C 0.90545 0.77672 0.39612
 C494 C 0.93167 0.77048 0.40429
 C495 C 0.92844 0.74489 0.39402
 C496 C 0.90249 0.75088 0.38559
 C497 C 0.89585 0.76744 0.42037
 C498 C 0.89256 0.74184 0.41013
 C499 C 0.92182 0.76139 0.42869
 C500 C 0.91881 0.73565 0.41827
 C501 C 0.94771 0.73246 0.38068
 C502 C 0.96463 0.72238 0.37126
 C503 C 0.87875 0.78022 0.43605
 C504 C 0.86573 0.79098 0.44979
 H505 H 0.89976 0.79376 0.38719
 H506 H 0.94793 0.78215 0.40176
 H507 H 0.89476 0.74642 0.36770
 H508 H 0.87628 0.73020 0.41271
 H509 H 0.92964 0.76581 0.44657
 H510 H 0.92449 0.71863 0.42726
 C511 C 0.89573 0.26760 0.56538
 C512 C 0.89216 0.28519 0.58675
 C513 C 0.91185 0.27137 0.60077
 C514 C 0.91566 0.25399 0.57959
 C515 C 0.87650 0.25063 0.57630
 C516 C 0.89623 0.23690 0.59034
 C517 C 0.87255 0.26800 0.59746
 C518 C 0.89263 0.25441 0.61172
 C519 C 0.93269 0.28166 0.61370
 C520 C 0.95085 0.28869 0.62368
 C521 C 0.85807 0.23809 0.56185
 C522 C 0.84429 0.22696 0.54911
 H523 H 0.89683 0.27289 0.54617
 H524 H 0.89072 0.30517 0.58543
 H525 H 0.93358 0.24832 0.57233
 H526 H 0.89775 0.21693 0.59170
 H527 H 0.85458 0.27361 0.60465
 H528 H 0.89158 0.24911 0.63094
 C529 C 0.43130 0.11204 0.27124
 C530 C 0.40361 0.11342 0.27670
 C531 C 0.40075 0.08733 0.26761
 C532 C 0.42816 0.08570 0.26236
 C533 C 0.42626 0.12105 0.24558
 C534 C 0.42331 0.09493 0.23660
 C535 C 0.39884 0.12278 0.25077
 C536 C 0.39574 0.09636 0.24195
 C537 C 0.38734 0.06724 0.27860
 C538 C 0.37711 0.04949 0.28617
 C539 C 0.44136 0.13841 0.23235
 C540 C 0.45469 0.15120 0.22072
 H541 H 0.44608 0.11869 0.28315
 H542 H 0.39535 0.12079 0.29333
 H543 H 0.44011 0.07027 0.26723
 H544 H 0.43152 0.08745 0.21999
 H545 H 0.38695 0.13823 0.24586
 H546 H 0.38099 0.08971 0.23001
 C547 C 0.58139 0.10600 0.73762
 C548 C 0.60959 0.10430 0.73758
 C549 C 0.60760 0.07751 0.74471
 C550 C 0.57966 0.07896 0.74456
 C551 C 0.58216 0.11254 0.76442
 C552 C 0.58026 0.08571 0.77147
 C553 C 0.61011 0.11119 0.76464
 C554 C 0.60837 0.08404 0.77152
 C555 C 0.62030 0.05700 0.73380
 C556 C 0.62919 0.03931 0.72476
 C557 C 0.56664 0.13074 0.77581
 C558 C 0.55264 0.14421 0.78568
 H559 H 0.57015 0.11522 0.72379
 H560 H 0.62184 0.11171 0.72353
 H561 H 0.56724 0.06549 0.73623
 H562 H 0.56803 0.07822 0.78550
 H563 H 0.62245 0.12470 0.77300
 H564 H 0.61959 0.07479 0.78534
 C565 C 0.40316 0.89729 0.77378
 C566 C 0.41368 0.91879 0.75932
 C567 C 0.39397 0.91484 0.74010
 C568 C 0.38318 0.89359 0.75439
 C569 C 0.41994 0.88011 0.75981
 C570 C 0.40024 0.87604 0.74060
 C571 C 0.43061 0.90141 0.74551
 C572 C 0.41075 0.89767 0.72613
 C573 C 0.38098 0.93531 0.72935
 C574 C 0.37192 0.95312 0.72065
 C575 C 0.43565 0.86203 0.77123
 C576 C 0.44966 0.84855 0.78114
 H577 H 0.40020 0.89694 0.79350
 H578 H 0.41909 0.93655 0.76694
 H579 H 0.36351 0.89062 0.75791
 H580 H 0.39491 0.85824 0.73303
 H581 H 0.45026 0.90447 0.74195
 H582 H 0.41372 0.89805 0.70641
 C583 C 0.56171 0.90653 0.25904
 C584 C 0.58261 0.90108 0.27697
 C585 C 0.59829 0.92033 0.26441
 C586 C 0.57758 0.92599 0.24669
 C587 C 0.57217 0.88752 0.24181
 C588 C 0.58787 0.90680 0.22932
 C589 C 0.59286 0.88171 0.25951
 C590 C 0.60880 0.90134 0.24718
 C591 C 0.61202 0.93994 0.27578
 C592 C 0.62249 0.95735 0.28372
 C593 C 0.55681 0.87055 0.22843
 C594 C 0.54335 0.85789 0.21684
 H595 H 0.54219 0.90850 0.26377
 H596 H 0.58062 0.89895 0.29670
 H597 H 0.57140 0.94439 0.24152
 H598 H 0.58988 0.90900 0.20960
 H599 H 0.59896 0.86328 0.26460
 H600 H 0.62833 0.89941 0.24246
 C601 C 0.41704 0.26429 0.88606
 C602 C 0.38951 0.25978 0.89059
 C603 C 0.39486 0.25714 0.91757
 C604 C 0.42210 0.26185 0.91332
 C605 C 0.42078 0.23690 0.88335
 C606 C 0.42602 0.23436 0.91037
 C607 C 0.39354 0.23213 0.88753
 C608 C 0.39863 0.22977 0.91483
 C609 C 0.38193 0.26817 0.93777
 C610 C 0.37290 0.27707 0.95538
 C611 C 0.43656 0.22509 0.86571
 C612 C 0.45073 0.21480 0.85278
 H613 H 0.42477 0.27836 0.87404
 H614 H 0.37430 0.27035 0.88270
 H615 H 0.43375 0.27415 0.92413
 H616 H 0.44120 0.22382 0.91837
 H617 H 0.38197 0.21980 0.87669
 H618 H 0.39094 0.21568 0.92687
 C619 C 0.58558 0.76459 0.90406
 C620 C 0.57522 0.74459 0.92055
 C621 C 0.59914 0.73048 0.91782
 C622 C 0.60968 0.75037 0.90155
 C623 C 0.57539 0.75105 0.88215
 C624 C 0.59930 0.73696 0.87928
 C625 C 0.56486 0.73115 0.89843
 C626 C 0.58898 0.71684 0.89594
 C627 C 0.61156 0.72024 0.93880
 C628 C 0.62108 0.71315 0.95702
 C629 C 0.56108 0.76351 0.86367
 C630 C 0.54814 0.77460 0.85007
 H631 H 0.58407 0.78435 0.90725
 H632 H 0.56541 0.74763 0.93770
 H633 H 0.62826 0.75817 0.90306
 H634 H 0.60905 0.73398 0.86209
 H635 H 0.54628 0.72336 0.89696
 H636 H 0.59053 0.69707 0.89286
 C637 C 0.39855 0.77875 0.09396
 C638 C 0.40879 0.76370 0.07288
 C639 C 0.38986 0.74391 0.07822
 C640 C 0.37936 0.75878 0.09906
 C641 C 0.41638 0.76590 0.11099
 C642 C 0.39748 0.74612 0.11645
 C643 C 0.42677 0.75101 0.09011
 C644 C 0.40769 0.73106 0.09525
 C645 C 0.37671 0.73187 0.05871
 C646 C 0.36775 0.72218 0.04146
 C647 C 0.43232 0.77833 0.12810
 C648 C 0.44638 0.78877 0.14110
 H649 H 0.39498 0.79851 0.09361
 H650 H 0.41331 0.77083 0.05477
 H651 H 0.35970 0.76181 0.10250
 H652 H 0.39304 0.73905 0.13459
 H653 H 0.44641 0.74794 0.08658
 H654 H 0.41128 0.71131 0.09558
 C655 C 0.60259 0.22571 0.09844
 C656 C 0.59244 0.23687 0.07498
 C657 C 0.60911 0.25891 0.07865
 C658 C 0.61953 0.24795 0.10185
 C659 C 0.58260 0.23885 0.11260
 C660 C 0.59924 0.26090 0.11637
 C661 C 0.57230 0.24985 0.08936
 C662 C 0.58911 0.27203 0.09282
 C663 C 0.62234 0.26999 0.05865
 C664 C 0.63151 0.27909 0.04119
 C665 C 0.56664 0.22743 0.13035
 C666 C 0.55251 0.21769 0.14378
 H667 H 0.60795 0.20652 0.10097
 H668 H 0.58979 0.22709 0.05777
 H669 H 0.63912 0.24730 0.10673
 H670 H 0.60183 0.27064 0.13361
 H671 H 0.55273 0.25054 0.08439
 H672 H 0.58372 0.29121 0.09029
 C673 C 0.23255 0.10494 0.60592
 C674 C 0.22975 0.07722 0.60271
 C675 C 0.25755 0.07459 0.60433
 C676 C 0.26062 0.10200 0.60778
 C677 C 0.23495 0.10761 0.57854
 C678 C 0.26275 0.10500 0.58013
 C679 C 0.23196 0.08018 0.57517
 C680 C 0.25989 0.07734 0.57694
 C681 C 0.26990 0.05503 0.61728
 C682 C 0.27975 0.03776 0.62627
 C683 C 0.22207 0.12496 0.56317
 C684 C 0.21120 0.13823 0.54972
 H685 H 0.22115 0.11651 0.61767
 H686 H 0.21630 0.06561 0.61215
 H687 H 0.27253 0.11075 0.62136
 H688 H 0.27620 0.11660 0.57067
 H689 H 0.22009 0.07135 0.56161
 H690 H 0.27125 0.06580 0.56512
 C691 C 0.74468 0.09317 0.43696
 C692 C 0.71792 0.09264 0.42825
 C693 C 0.72676 0.08465 0.40333
 C694 C 0.75337 0.08494 0.41190
 C695 C 0.74669 0.11961 0.42867
 C696 C 0.75552 0.11161 0.40375
 C697 C 0.72006 0.11942 0.42016
 C698 C 0.72872 0.11107 0.39494
 C699 C 0.71699 0.06412 0.38982
 C700 C 0.71036 0.04628 0.37925
 C701 C 0.75881 0.13784 0.44354
 C702 C 0.76965 0.15151 0.45657
 H703 H 0.75138 0.08596 0.45438
 H704 H 0.70236 0.08462 0.43817
 H705 H 0.76698 0.07055 0.40839
 H706 H 0.77111 0.11961 0.39383
 H707 H 0.70651 0.13385 0.42372
 H708 H 0.72200 0.11817 0.37750
 C709 C 0.77547 0.89850 0.60105
 C710 C 0.77044 0.92518 0.59418
 C711 C 0.74410 0.92225 0.60303
 C712 C 0.74889 0.89582 0.61015
 C713 C 0.76706 0.89076 0.57585
 C714 C 0.74072 0.88776 0.58466
 C715 C 0.76222 0.91720 0.56884
 C716 C 0.73574 0.91447 0.57783
 C717 C 0.73159 0.94105 0.61684
 C718 C 0.72161 0.95775 0.62662
 C719 C 0.78018 0.87434 0.55977
 C720 C 0.79130 0.86194 0.54579
 H721 H 0.79197 0.89174 0.61042
 H722 H 0.78256 0.94075 0.59824
 H723 H 0.74327 0.88725 0.62732
 H724 H 0.72864 0.87219 0.58055
 H725 H 0.76780 0.92586 0.55170
 H726 H 0.71926 0.92122 0.56841
 C727 C 0.28107 0.88447 0.42103
 C728 C 0.27772 0.88989 0.39384
 C729 C 0.27295 0.91657 0.39998
 C730 C 0.27647 0.91148 0.42689
 C731 C 0.25357 0.87969 0.42303
 C732 C 0.24888 0.90640 0.42907
 C733 C 0.25002 0.88474 0.39612
 C734 C 0.24547 0.91172 0.40203
 C735 C 0.28256 0.93805 0.38778
 C736 C 0.28922 0.95652 0.37829
 C737 C 0.24175 0.86041 0.43688
 C738 C 0.23114 0.84602 0.44935
 H739 H 0.29558 0.87301 0.42898
 H740 H 0.28973 0.88337 0.37920
 H741 H 0.28743 0.92269 0.43943
 H742 H 0.23689 0.91303 0.44368
 H743 H 0.23903 0.87353 0.38361
 H744 H 0.23090 0.92314 0.39412
 C745 C 0.11877 0.39735 0.74634
 C746 C 0.09217 0.39573 0.75546
 C747 C 0.08306 0.40065 0.72980
 C748 C 0.10933 0.40204 0.72042
 C749 C 0.11842 0.42473 0.75103
 C750 C 0.10934 0.42968 0.72537
 C751 C 0.09212 0.42324 0.76029
 C752 C 0.08279 0.42802 0.73453
 C753 C 0.06212 0.38801 0.71932
 C754 C 0.04378 0.37836 0.71219
 C755 C 0.13667 0.43908 0.76396
 C756 C 0.15009 0.45185 0.77550
 H757 H 0.13378 0.38489 0.75134
 H758 H 0.08489 0.38165 0.76775
 H759 H 0.11615 0.39316 0.70388
 H760 H 0.11663 0.44379 0.71312
 H761 H 0.08517 0.43208 0.77682
 H762 H 0.06781 0.44053 0.72959
 C763 C 0.11764 0.59739 0.24824
 C764 C 0.09495 0.60859 0.23583
 C765 C 0.07922 0.60024 0.25709
 C766 C 0.10154 0.58930 0.26972
 C767 C 0.11213 0.57321 0.23575
 C768 C 0.09636 0.56492 0.25700
 C769 C 0.08979 0.58417 0.22316
 C770 C 0.07384 0.57605 0.24456
 C771 C 0.05973 0.61396 0.26876
 C772 C 0.04263 0.62376 0.27819
 C773 C 0.12926 0.55712 0.22346
 C774 C 0.14206 0.54299 0.21291
 H775 H 0.13587 0.60596 0.24963
 H776 H 0.09417 0.62671 0.22726
 H777 H 0.10617 0.59158 0.28901
 H778 H 0.09709 0.54681 0.26560
 H779 H 0.08511 0.58190 0.20389
 H780 H 0.05564 0.56739 0.24312
 C781 C 0.87787 0.42051 0.27892
 C782 C 0.88480 0.39398 0.27281
 C783 C 0.91179 0.40138 0.27264
 C784 C 0.90521 0.42761 0.27893
 C785 C 0.87669 0.42620 0.25191
 C786 C 0.90371 0.43349 0.25181
 C787 C 0.88327 0.39997 0.24561
 C788 C 0.91052 0.40713 0.24565
 C789 C 0.93244 0.38820 0.28298
 C790 C 0.95040 0.37795 0.29014
 C791 C 0.85846 0.44094 0.23945
 C792 C 0.84491 0.45405 0.22845
 H793 H 0.86420 0.42615 0.29246
 H794 H 0.87727 0.37757 0.28161
 H795 H 0.91443 0.43884 0.29274
 H796 H 0.91135 0.44987 0.24303
 H797 H 0.87406 0.38875 0.23178
 H798 H 0.92416 0.40153 0.23205
 C799 C 0.88299 0.59839 0.73747
 C800 C 0.90182 0.61582 0.74911
 C801 C 0.92191 0.60437 0.73368
 C802 C 0.90347 0.58720 0.72182
 C803 C 0.88853 0.57970 0.75719
 C804 C 0.90864 0.56831 0.74176
 C805 C 0.90700 0.59688 0.76899
 C806 C 0.92730 0.58565 0.75342
 C807 C 0.94195 0.61725 0.72189
 C808 C 0.95981 0.62693 0.71372
 C809 C 0.87127 0.56508 0.77109
 C810 C 0.85842 0.55218 0.78312
 H811 H 0.86453 0.60347 0.73110
 H812 H 0.89922 0.63551 0.75197
 H813 H 0.90223 0.58338 0.70228
 H814 H 0.91131 0.54863 0.73888
 H815 H 0.90831 0.60072 0.78852
 H816 H 0.94572 0.58049 0.75987
 C817 C 0.77870 0.60445 0.90462
 C818 C 0.75574 0.62040 0.90110
 C819 C 0.74490 0.60948 0.92413
 C820 C 0.76765 0.59379 0.92791
 C821 C 0.76632 0.58418 0.89019
 C822 C 0.75544 0.57338 0.91326
 C823 C 0.74356 0.59985 0.88631
 C824 C 0.73254 0.58921 0.90968
 C825 C 0.73310 0.62216 0.94405
 C826 C 0.72344 0.63105 0.96134
 C827 C 0.77854 0.56885 0.87246
 C828 C 0.78894 0.55514 0.85918
 H829 H 0.79782 0.61056 0.90233
 H830 H 0.75572 0.63990 0.89634
 H831 H 0.77746 0.59142 0.94520
 H832 H 0.75541 0.55390 0.91811
 H833 H 0.73379 0.60216 0.86899
 H834 H 0.71343 0.58306 0.91197
 C835 C 0.26765 0.40423 0.87684
 C836 C 0.28207 0.41540 0.89815
 C837 C 0.26871 0.39824 0.91542
 C838 C 0.25450 0.38682 0.89450
 C839 C 0.24740 0.42293 0.88087
 C840 C 0.23410 0.40577 0.89818
 C841 C 0.26162 0.43430 0.90182
 C842 C 0.24846 0.41697 0.91932
 C843 C 0.27935 0.38522 0.93580
 C844 C 0.28676 0.37514 0.95357
 C845 C 0.23459 0.43762 0.86296
 C846 C 0.22327 0.45069 0.84971
 H847 H 0.27537 0.39916 0.85914
 H848 H 0.30192 0.41921 0.89837
 H849 H 0.25171 0.36713 0.89172
 H850 H 0.21426 0.40193 0.89802
 H851 H 0.26442 0.45398 0.90466
 H852 H 0.24067 0.42212 0.93698
 C853 C 0.26979 0.57016 0.11037
 C854 C 0.26633 0.56777 0.08284
 C855 C 0.26475 0.59545 0.08091
 C856 C 0.26842 0.59814 0.10815
 C857 C 0.24200 0.56932 0.11346
 C858 C 0.24038 0.59700 0.11157
 C859 C 0.23842 0.56673 0.08620
 C860 C 0.23697 0.59455 0.08407
 C861 C 0.27616 0.60926 0.06148
 C862 C 0.28407 0.61983 0.04422
 C863 C 0.22847 0.55400 0.13029
 C864 C 0.21669 0.54064 0.14285
 H865 H 0.28314 0.55996 0.12141
 H866 H 0.27712 0.55589 0.07085
 H867 H 0.28093 0.61122 0.11693
 H868 H 0.22956 0.60884 0.12357
 H869 H 0.22594 0.55369 0.07731
 H870 H 0.22357 0.60471 0.07305
 C871 C 0.75891 0.40465 0.11113
 C872 C 0.73292 0.39363 0.11128
 C873 C 0.72853 0.40432 0.08615
 C874 C 0.75433 0.41511 0.08575
 C875 C 0.74867 0.42802 0.12203
 C876 C 0.74423 0.43861 0.09686
 C877 C 0.72285 0.41728 0.12255
 C878 C 0.71828 0.42770 0.09703
 C879 C 0.71857 0.39180 0.06513
 C880 C 0.71173 0.38210 0.04695
 C881 C 0.76089 0.44221 0.14072
 C882 C 0.77181 0.45493 0.15462
 H883 H 0.77573 0.39531 0.11712
 H884 H 0.72812 0.37497 0.11696
 H885 H 0.76719 0.41413 0.07041
 H886 H 0.74902 0.45725 0.09109
 H887 H 0.71005 0.41832 0.13793
 H888 H 0.70147 0.43704 0.09101
 C889 C 0.89341 0.76618 0.60416
 C890 C 0.90063 0.73912 0.60192
 C891 C 0.92758 0.74651 0.60320
 C892 C 0.92071 0.77331 0.60568
 C893 C 0.89469 0.76852 0.57668
 C894 C 0.92166 0.77583 0.57801
 C895 C 0.90158 0.74173 0.57420
 C896 C 0.92876 0.74891 0.57571
 C897 C 0.94708 0.73437 0.61646
 C898 C 0.96422 0.72449 0.62571
 C899 C 0.87757 0.78102 0.56079
 C900 C 0.86468 0.79158 0.54677
 H901 H 0.87863 0.77344 0.61566
 H902 H 0.89222 0.72389 0.61195
 H903 H 0.92879 0.78615 0.61879
 H904 H 0.93016 0.79102 0.56801
 H905 H 0.89354 0.72887 0.56108
 H906 H 0.94349 0.74170 0.56413
 C907 C 0.90260 0.23607 0.42596
 C908 C 0.90467 0.23382 0.39835
 C909 C 0.91084 0.26088 0.39697
 C910 C 0.90901 0.26323 0.42441
 C911 C 0.87553 0.24251 0.42318
 C912 C 0.88171 0.26958 0.42181
 C913 C 0.87728 0.24010 0.39573
 C914 C 0.88381 0.26741 0.39409
 C915 C 0.93162 0.27090 0.38385
 C916 C 0.94968 0.27906 0.37462
 C917 C 0.85723 0.23171 0.43901
 C918 C 0.84366 0.22217 0.45311
 H919 H 0.91018 0.22310 0.43923
 H920 H 0.91432 0.21922 0.38857
 H921 H 0.92227 0.27281 0.43609
 H922 H 0.87206 0.28416 0.43161
 H923 H 0.86397 0.23048 0.38413
 H924 H 0.87634 0.28041 0.38078
 C925 C 0.08738 0.22031 0.59452
 C926 C 0.09217 0.23450 0.61806
 C927 C 0.07560 0.25483 0.60877
 C928 C 0.07057 0.24079 0.58548
 C929 C 0.10915 0.23325 0.58285
 C930 C 0.09253 0.25358 0.57365
 C931 C 0.11431 0.24726 0.60613
 C932 C 0.09736 0.26781 0.59712
 C933 C 0.05578 0.26676 0.62167
 C934 C 0.03845 0.27654 0.63062
 C935 C 0.12656 0.22101 0.56715
 C936 C 0.13955 0.21066 0.55311
 H937 H 0.08345 0.20065 0.59328
 H938 H 0.09179 0.22681 0.63648
 H939 H 0.05240 0.23823 0.57710
 H940 H 0.09284 0.26132 0.55524
 H941 H 0.13253 0.24977 0.61443
 H942 H 0.10124 0.28748 0.59836
 C943 C 0.12995 0.72622 0.40312
 C944 C 0.10784 0.71308 0.41466
 C945 C 0.09082 0.72648 0.39725
 C946 C 0.11252 0.73942 0.38546
 C947 C 0.12669 0.74705 0.42109
 C948 C 0.10963 0.76038 0.40367
 C949 C 0.10496 0.73409 0.43281
 C950 C 0.08771 0.74730 0.41525
 C951 C 0.06962 0.71636 0.38482
 C952 C 0.05111 0.70950 0.37536
 C953 C 0.14526 0.75949 0.43541
 C954 C 0.15896 0.77054 0.44829
 H955 H 0.14757 0.71773 0.39829
 H956 H 0.10686 0.69351 0.41904
 H957 H 0.11539 0.74147 0.36582
 H958 H 0.11055 0.77995 0.39928
 H959 H 0.10202 0.73202 0.45243
 H960 H 0.07014 0.75587 0.42015
 C961 C 0.56337 0.90071 0.73881
 C962 C 0.58035 0.91877 0.75182
 C963 C 0.59970 0.91464 0.73234
 C964 C 0.58289 0.89682 0.71913
 C965 C 0.57469 0.88003 0.75350
 C966 C 0.59401 0.87577 0.73402
 C967 C 0.59151 0.89789 0.76664
 C968 C 0.61107 0.89398 0.74702
 C969 C 0.61286 0.93512 0.72178
 C970 C 0.62294 0.95306 0.71448
 C971 C 0.55990 0.86200 0.76617
 C972 C 0.54684 0.84851 0.77731
 H973 H 0.54359 0.90332 0.73557
 H974 H 0.57483 0.93664 0.75905
 H975 H 0.57950 0.89661 0.69947
 H976 H 0.59946 0.85785 0.72686
 H977 H 0.59492 0.89816 0.78630
 H978 H 0.63085 0.89143 0.75025
 C979 C 0.40309 0.91111 0.22157
 C980 C 0.38086 0.90695 0.23822
 C981 C 0.39145 0.92556 0.25586
 C982 C 0.41343 0.92995 0.23937
 C983 C 0.41694 0.89118 0.23514
 C984 C 0.42743 0.90983 0.25279
 C985 C 0.39497 0.88665 0.25161
 C986 C 0.40529 0.90565 0.26946
 C987 C 0.37874 0.94577 0.26725
 C988 C 0.36989 0.96334 0.27657
 C989 C 0.43237 0.87329 0.22321
 C990 C 0.44617 0.85993 0.21293
 H991 H 0.40235 0.91316 0.20174
 H992 H 0.36155 0.90601 0.23237
 H993 H 0.42090 0.94795 0.23442
 H994 H 0.44673 0.91085 0.25868
 H995 H 0.38757 0.86862 0.25651
 H996 H 0.40604 0.90362 0.28929
 C997 C 0.59523 0.11868 0.26150
 C998 C 0.58555 0.09337 0.26878
 C999 C 0.60804 0.08180 0.25713
 C1000 C 0.61803 0.10677 0.25003
 C1001 C 0.58184 0.11628 0.23738
 C1002 C 0.60432 0.10474 0.22570
 C1003 C 0.57198 0.09128 0.24453
 C1004 C 0.59461 0.07949 0.23302
 C1005 C 0.62109 0.06145 0.26791
 C1006 C 0.63011 0.04366 0.27666
 C1007 C 0.56602 0.13420 0.22593
 C1008 C 0.55200 0.14760 0.21598
 H1009 H 0.59529 0.13502 0.27308
 H1010 H 0.57797 0.08847 0.28661
 H1011 H 0.63714 0.11288 0.25242
 H1012 H 0.61186 0.10964 0.20785
 H1013 H 0.55289 0.08506 0.24218
 H1014 H 0.59449 0.06319 0.22140
 C1015 C 0.40766 0.11660 0.73803
 C1016 C 0.41845 0.09708 0.72108
 C1017 C 0.40264 0.07788 0.73355
 C1018 C 0.39160 0.09702 0.75029
 C1019 C 0.42798 0.11122 0.75627
 C1020 C 0.41216 0.09199 0.76868
 C1021 C 0.43898 0.09206 0.73954
 C1022 C 0.42298 0.07263 0.75181
 C1023 C 0.38923 0.05812 0.72201
 C1024 C 0.37894 0.04070 0.71384
 C1025 C 0.44282 0.12873 0.76959
 C1026 C 0.45576 0.14209 0.78101
 H1027 H 0.40152 0.13491 0.73254
 H1028 H 0.42087 0.09896 0.70137
 H1029 H 0.37195 0.09887 0.75455
 H1030 H 0.40971 0.09005 0.78839
 H1031 H 0.45863 0.09017 0.73527
 H1032 H 0.42919 0.05435 0.75736
 C1033 C 0.57099 0.76783 0.08569
 C1034 C 0.59878 0.77113 0.08270
 C1035 C 0.60135 0.74364 0.07964
 C1036 C 0.57372 0.74022 0.08242
 C1037 C 0.57467 0.76458 0.11287
 C1038 C 0.57721 0.73708 0.10984
 C1039 C 0.60230 0.76805 0.11017
 C1040 C 0.60512 0.74031 0.10681
 C1041 C 0.61490 0.73224 0.06003
 C1042 C 0.62456 0.72307 0.04288
 C1043 C 0.55873 0.77675 0.13015
 C1044 C 0.54471 0.78732 0.14304
 H1045 H 0.55679 0.77924 0.07714
 H1046 H 0.60779 0.78502 0.07135
 H1047 H 0.56207 0.72868 0.07080
 H1048 H 0.56817 0.72321 0.12119
 H1049 H 0.61388 0.77962 0.12181
 H1050 H 0.61935 0.72886 0.11526
 C1051 C 0.40689 0.26471 0.11831
 C1052 C 0.41795 0.28154 0.09877
 C1053 C 0.40338 0.26781 0.07953
 C1054 C 0.39208 0.25120 0.09867
 C1055 C 0.42800 0.24694 0.11443
 C1056 C 0.41341 0.23329 0.09514
 C1057 C 0.43926 0.26355 0.09526
 C1058 C 0.42450 0.25003 0.07578
 C1059 C 0.39035 0.27823 0.05901
 C1060 C 0.38022 0.28551 0.04119
 C1061 C 0.44259 0.23433 0.13258
 C1062 C 0.45555 0.22310 0.14604
 H1063 H 0.39981 0.27059 0.13603
 H1064 H 0.41966 0.30150 0.10002
 H1065 H 0.37252 0.24625 0.09986
 H1066 H 0.41167 0.21333 0.09382
 H1067 H 0.45882 0.26851 0.09403
 H1068 H 0.43165 0.24408 0.05810
 C1069 C 0.56650 0.25035 0.91099
 C1070 C 0.59108 0.24175 0.92143
 C1071 C 0.60118 0.26753 0.91852
 C1072 C 0.57674 0.27630 0.90830
 C1073 C 0.57577 0.24435 0.88566
 C1074 C 0.58581 0.27014 0.88264
 C1075 C 0.60020 0.23559 0.89590
 C1076 C 0.61054 0.26158 0.89322
 C1077 C 0.61459 0.27919 0.93813
 C1078 C 0.62480 0.28728 0.95554
 C1079 C 0.56087 0.23071 0.86851
 C1080 C 0.54787 0.21896 0.85551
 H1081 H 0.54826 0.24558 0.91817
 H1082 H 0.59335 0.23016 0.93758
 H1083 H 0.56724 0.29318 0.91358
 H1084 H 0.58348 0.28166 0.86645
 H1085 H 0.60970 0.21870 0.89064
 H1086 H 0.62880 0.26637 0.88612
 C1087 C 0.40424 0.73272 0.87939
 C1088 C 0.41527 0.71660 0.89950
 C1089 C 0.39986 0.73020 0.91809
 C1090 C 0.38858 0.74611 0.89837
 C1091 C 0.42473 0.75122 0.88351
 C1092 C 0.40930 0.76475 0.90214
 C1093 C 0.43597 0.73530 0.90325
 C1094 C 0.42037 0.74870 0.92209
 C1095 C 0.38669 0.71970 0.93843
 C1096 C 0.37644 0.71239 0.95614
 C1097 C 0.43943 0.76378 0.86546
 C1098 C 0.45245 0.77482 0.85191
 H1099 H 0.39778 0.72632 0.86159
 H1100 H 0.41757 0.69668 0.89866
 H1101 H 0.36892 0.75041 0.89658
 H1102 H 0.40698 0.78467 0.90304
 H1103 H 0.45563 0.73100 0.90508
 H1104 H 0.42691 0.75517 0.93984
 C1105 C 0.74898 0.90831 0.42812
 C1106 C 0.76150 0.92903 0.41418
 C1107 C 0.74559 0.92314 0.39222
 C1108 C 0.73287 0.90261 0.40600
 C1109 C 0.76831 0.89074 0.41859
 C1110 C 0.75242 0.88470 0.39665
 C1111 C 0.78099 0.91127 0.40480
 C1112 C 0.76491 0.90560 0.38259
 C1113 C 0.73317 0.94250 0.37912
 C1114 C 0.72317 0.95966 0.37015
 C1115 C 0.78123 0.87397 0.43446
 C1116 C 0.79218 0.86144 0.44850
 H1117 H 0.74255 0.90928 0.44700
 H1118 H 0.76515 0.94745 0.42127
 H1119 H 0.71294 0.89926 0.40631
 H1120 H 0.74884 0.86624 0.38965
 H1121 H 0.80092 0.91467 0.40449
 H1122 H 0.77130 0.90471 0.36370
 C1123 C 0.24242 0.88900 0.59331
 C1124 C 0.26751 0.88798 0.60608
 C1125 C 0.27377 0.91286 0.59538
 C1126 C 0.24886 0.91413 0.58285
 C1127 C 0.25384 0.87714 0.57109
 C1128 C 0.26014 0.90205 0.56048
 C1129 C 0.27876 0.87575 0.58358
 C1130 C 0.28521 0.90102 0.57316
 C1131 C 0.28367 0.93376 0.60827
 C1132 C 0.29052 0.95181 0.61833
 C1133 C 0.24180 0.85852 0.55660
 C1134 C 0.23111 0.84464 0.54367
 H1135 H 0.22471 0.88387 0.60146
 H1136 H 0.27069 0.88244 0.62500
 H1137 H 0.23666 0.93012 0.58263
 H1138 H 0.25697 0.90767 0.54158
 H1139 H 0.29090 0.85972 0.58373
 H1140 H 0.30291 0.90619 0.56501
 C1141 C 0.23049 0.11051 0.39547
 C1142 C 0.25852 0.10766 0.39292
 C1143 C 0.25561 0.08021 0.39620
 C1144 C 0.22786 0.08274 0.39849
 C1145 C 0.23366 0.11287 0.42280
 C1146 C 0.23084 0.08539 0.42599
 C1147 C 0.26141 0.11035 0.42053
 C1148 C 0.25871 0.08265 0.42353
 C1149 C 0.26765 0.06084 0.38279
 C1150 C 0.27737 0.04382 0.37333
 C1151 C 0.22110 0.12979 0.43877
 C1152 C 0.21042 0.14239 0.45291
 H1153 H 0.21875 0.12219 0.38411
 H1154 H 0.27003 0.11659 0.37913
 H1155 H 0.21418 0.07119 0.38929
 H1156 H 0.21936 0.07637 0.43975
 H1157 H 0.27508 0.12189 0.42976
 H1158 H 0.27041 0.07100 0.43497
 C1159 C 0.73094 0.10132 0.56598
 C1160 C 0.74503 0.08231 0.58083
 C1161 C 0.72616 0.08488 0.60101
 C1162 C 0.71187 0.10365 0.58632
 C1163 C 0.74616 0.12136 0.57789
 C1164 C 0.72728 0.12408 0.59804
 C1165 C 0.76036 0.10255 0.59259
 C1166 C 0.74136 0.10489 0.61297
 C1167 C 0.71633 0.06347 0.61311
 C1168 C 0.70961 0.04497 0.62247
 C1169 C 0.75841 0.14021 0.56388
 C1170 C 0.76947 0.15398 0.55113
 H1171 H 0.72678 0.10004 0.54650
 H1172 H 0.75224 0.06495 0.57384
 H1173 H 0.69181 0.10384 0.58388
 H1174 H 0.72015 0.14150 0.60496
 H1175 H 0.78042 0.10228 0.59506
 H1176 H 0.74551 0.10611 0.63246
 C1177 C 0.89266 0.56729 0.27425
 C1178 C 0.91715 0.57326 0.26189
 C1179 C 0.91566 0.59913 0.27181
 C1180 C 0.89144 0.59339 0.28439
 C1181 C 0.87917 0.57586 0.25159
 C1182 C 0.87757 0.60174 0.26148
 C1183 C 0.90344 0.58167 0.23913
 C1184 C 0.90218 0.60771 0.24915
 C1185 C 0.93710 0.61128 0.28184
 C1186 C 0.95571 0.62056 0.28873
 C1187 C 0.86021 0.56186 0.23932
 C1188 C 0.84615 0.54923 0.22840
 H1189 H 0.88853 0.55052 0.28446
 H1190 H 0.93361 0.56165 0.26215
 H1191 H 0.88676 0.59836 0.30313
 H1192 H 0.86106 0.61329 0.26117
 H1193 H 0.90822 0.57673 0.22039
 H1194 H 0.90632 0.62446 0.23893
 C1195 C 0.89013 0.42245 0.73756
 C1196 C 0.91800 0.42529 0.74056
 C1197 C 0.92020 0.39777 0.74377
 C1198 C 0.89258 0.39464 0.74057
 C1199 C 0.88728 0.42488 0.76489
 C1200 C 0.88939 0.39736 0.76817
 C1201 C 0.91492 0.42790 0.76800
 C1202 C 0.91733 0.40022 0.77110
 C1203 C 0.93976 0.38412 0.73221
 C1204 C 0.95698 0.37449 0.72289
 C1205 C 0.87029 0.44113 0.77708
 C1206 C 0.85771 0.45547 0.78756
 H1207 H 0.87876 0.43177 0.72390
 H1208 H 0.92997 0.43666 0.72910
 H1209 H 0.88364 0.38077 0.72916
 H1210 H 0.87739 0.38607 0.77966
 H1211 H 0.92397 0.44175 0.77937
 H1212 H 0.92871 0.39093 0.78476
 C1213 C 0.09813 0.59287 0.77459
 C1214 C 0.10311 0.61583 0.75935
 C1215 C 0.08429 0.60698 0.74091
 C1216 C 0.07907 0.58428 0.75601
 C1217 C 0.11792 0.57944 0.76043
 C1218 C 0.09906 0.57067 0.74199
 C1219 C 0.12327 0.60212 0.74535
 C1220 C 0.10406 0.59355 0.72672
 C1221 C 0.06435 0.62080 0.73020
 C1222 C 0.04684 0.63050 0.72145
 C1223 C 0.13539 0.56299 0.77168
 C1224 C 0.14849 0.54853 0.78140
 H1225 H 0.09588 0.59240 0.79440
 H1226 H 0.10453 0.63457 0.76634
 H1227 H 0.06070 0.57708 0.76031
 H1228 H 0.09756 0.55195 0.73496
 H1229 H 0.14168 0.60923 0.74111
 H1230 H 0.10627 0.59403 0.70691
 C1231 C 0.08739 0.40236 0.22230
 C1232 C 0.09237 0.38048 0.23905
 C1233 C 0.07418 0.39091 0.25722
 C1234 C 0.06896 0.41254 0.24064
 C1235 C 0.10776 0.41649 0.23503
 C1236 C 0.08953 0.42683 0.25321
 C1237 C 0.11311 0.39487 0.25159
 C1238 C 0.09454 0.40504 0.26997
 C1239 C 0.05428 0.37820 0.26938
 C1240 C 0.03679 0.36948 0.27916
 C1241 C 0.12537 0.43188 0.22249
 C1242 C 0.13879 0.44551 0.21198
 H1243 H 0.08463 0.40144 0.20256
 H1244 H 0.09331 0.36126 0.23338
 H1245 H 0.05061 0.41969 0.23624
 H1246 H 0.08851 0.44603 0.25892
 H1247 H 0.13150 0.38780 0.25594
 H1248 H 0.09728 0.40597 0.28971
   
