data_POSCAR
  _audit_creation_date              2014-09-24
  _audit_creation_method            'ToBaCCo'
  _symmetry_space_group_name_H-M    'P1'
  _symmetry_Int_Tables_number       1
  _symmetry_cell_setting            triclinic
  loop_
  _symmetry_equiv_pos_as_xyz
 x,y,z
_cell_length_a 71.5226
_cell_length_b 73.4135
_cell_length_c 72.6900
_cell_angle_alpha 90.746000
_cell_angle_beta 89.372200
_cell_angle_gamma 89.689800
loop_
  _atom_site_label
  _atom_site_type_symbol
  _atom_site_fract_x
  _atom_site_fract_y
  _atom_site_fract_z
N1 N 0.17584 0.22046 0.21877
 N2 N 0.17835 0.20489 0.22712
 C3 C 0.16593 0.20353 0.24102
 C4 C 0.15487 0.21906 0.24146
 C5 C 0.16155 0.22952 0.22705
 H6 H 0.16488 0.19191 0.24995
 H7 H 0.15651 0.24276 0.22298
 Cu8 Cu 0.19729 0.18755 0.21915
 Cu9 Cu 0.19151 0.22753 0.19788
 Cu10 Cu 0.22988 0.19971 0.18823
 N11 N 0.22043 0.17403 0.21617
 N12 N 0.23325 0.17873 0.20411
 C13 C 0.24761 0.16680 0.20480
 C14 C 0.24355 0.15395 0.21810
 C15 C 0.22614 0.15907 0.22500
 H16 H 0.26002 0.16747 0.19622
 H17 H 0.21800 0.15230 0.23547
 N18 N 0.22383 0.22152 0.17382
 N19 N 0.20921 0.23207 0.17739
 C20 C 0.20852 0.24530 0.16475
 C21 C 0.22344 0.24300 0.15255
 C22 C 0.23282 0.22776 0.15883
 H23 H 0.19773 0.25563 0.16431
 H24 H 0.24512 0.22142 0.15280
 H25 H 0.20098 0.20207 0.18940
 H26 H 0.21434 0.21376 0.20808
 N27 N 0.68652 0.73371 0.70811
 N28 N 0.69038 0.71972 0.71851
 C29 C 0.67723 0.71855 0.73184
 C30 C 0.66441 0.73257 0.72969
 C31 C 0.67082 0.74192 0.71445
 H32 H 0.67679 0.70801 0.74207
 H33 H 0.66452 0.75376 0.70831
 Cu34 Cu 0.71178 0.70401 0.71313
 Cu35 Cu 0.70177 0.73991 0.68676
 Cu36 Cu 0.74004 0.71207 0.67691
 N37 N 0.73325 0.68848 0.70749
 N38 N 0.74424 0.69165 0.69330
 C39 C 0.75761 0.67870 0.69230
 C40 C 0.75489 0.66667 0.70664
 C41 C 0.73927 0.67340 0.71599
 H42 H 0.76830 0.67794 0.68169
 H43 H 0.73268 0.66772 0.72805
 N44 N 0.73341 0.73340 0.66202
 N45 N 0.71885 0.74395 0.66579
 C46 C 0.71784 0.75706 0.65306
 C47 C 0.73247 0.75472 0.64059
 C48 C 0.74205 0.73954 0.64677
 H49 H 0.70704 0.76738 0.65277
 H50 H 0.75439 0.73336 0.64062
 H51 H 0.71149 0.71378 0.68120
 H52 H 0.72642 0.72856 0.69601
 N53 N 0.32194 0.76592 0.72491
 N54 N 0.31713 0.78056 0.73445
 C55 C 0.32966 0.78330 0.74787
 C56 C 0.34309 0.76964 0.74675
 C57 C 0.33768 0.75884 0.73196
 H58 H 0.32919 0.79460 0.75753
 H59 H 0.34463 0.74674 0.72665
 Cu60 Cu 0.29519 0.79492 0.72830
 Cu61 Cu 0.30764 0.75734 0.70388
 Cu62 Cu 0.26875 0.78289 0.69223
 N63 N 0.27376 0.80948 0.72101
 N64 N 0.26335 0.80454 0.70708
 C65 C 0.24969 0.81696 0.70487
 C66 C 0.25161 0.83064 0.71811
 C67 C 0.26713 0.82530 0.72812
 H68 H 0.23942 0.81615 0.69412
 H69 H 0.27330 0.83237 0.73965
 N70 N 0.27645 0.76061 0.67880
 N71 N 0.29132 0.75092 0.68309
 C72 C 0.29320 0.73700 0.67093
 C73 C 0.27881 0.73796 0.65833
 C74 C 0.26848 0.75312 0.66385
 H75 H 0.30444 0.72712 0.67104
 H76 H 0.25614 0.75848 0.65738
 H77 H 0.29729 0.78265 0.69701
 H78 H 0.28240 0.76840 0.71236
 N79 N 0.80561 0.27736 0.23352
 N80 N 0.80151 0.29245 0.24260
 C81 C 0.81413 0.29493 0.25603
 C82 C 0.82698 0.28062 0.25528
 C83 C 0.82093 0.26973 0.24076
 H84 H 0.81416 0.30655 0.26531
 H85 H 0.82723 0.25728 0.23554
 Cu86 Cu 0.78061 0.30766 0.23510
 Cu87 Cu 0.79141 0.26896 0.21241
 Cu88 Cu 0.75413 0.29592 0.19892
 N89 N 0.75958 0.32270 0.22763
 N90 N 0.74933 0.31802 0.21346
 C91 C 0.73613 0.33086 0.21095
 C92 C 0.73817 0.34442 0.22424
 C93 C 0.75325 0.33868 0.23459
 H94 H 0.72598 0.33039 0.20006
 H95 H 0.75934 0.34570 0.24620
 N96 N 0.76134 0.27300 0.18611
 N97 N 0.77544 0.26274 0.19140
 C98 C 0.77723 0.24841 0.17979
 C99 C 0.76365 0.24964 0.16644
 C100 C 0.75382 0.26544 0.17091
 H101 H 0.78805 0.23814 0.18063
 H102 H 0.74218 0.27114 0.16353
 H103 H 0.78236 0.29441 0.20418
 H104 H 0.76641 0.28156 0.21975
 N105 N 0.82511 0.72870 0.27312
 N106 N 0.82317 0.71258 0.26533
 C107 C 0.83537 0.71086 0.25121
 C108 C 0.84567 0.72671 0.25006
 C109 C 0.83877 0.73775 0.26425
 H110 H 0.83691 0.69875 0.24270
 H111 H 0.84332 0.75134 0.26787
 Cu112 Cu 0.80552 0.69493 0.27459
 Cu113 Cu 0.80981 0.73641 0.29429
 Cu114 Cu 0.77391 0.70736 0.30686
 N115 N 0.78357 0.68034 0.27949
 N116 N 0.77121 0.68517 0.29214
 C117 C 0.75765 0.67253 0.29279
 C118 C 0.76172 0.65901 0.27979
 C119 C 0.77832 0.66454 0.27161
 H120 H 0.74583 0.67314 0.30215
 H121 H 0.78606 0.65767 0.26069
 N122 N 0.77904 0.73043 0.31999
 N123 N 0.79268 0.74152 0.31528
 C124 C 0.79278 0.75578 0.32715
 C125 C 0.77850 0.75358 0.34000
 C126 C 0.77013 0.73731 0.33494
 H127 H 0.80264 0.76686 0.32653
 H128 H 0.75860 0.73072 0.34182
 H129 H 0.80251 0.71110 0.30400
 H130 H 0.78742 0.72095 0.28574
 N131 N 0.31395 0.22146 -0.22361
 N132 N 0.30936 0.20763 -0.23423
 C133 C 0.32291 0.20486 -0.24696
 C134 C 0.33686 0.21775 -0.24432
 C135 C 0.33053 0.22806 -0.22926
 H136 H 0.32244 0.19424 -0.25738
 H137 H 0.33730 0.23956 -0.22280
 Cu138 Cu 0.28591 0.19475 -0.23081
 Cu139 Cu 0.29777 0.23017 -0.20357
 Cu140 Cu 0.26327 0.19994 -0.19033
 N141 N 0.26655 0.17788 -0.22314
 N142 N 0.25793 0.17996 -0.20720
 C143 C 0.24528 0.16664 -0.20520
 C144 C 0.24596 0.15549 -0.22071
 C145 C 0.25972 0.16303 -0.23181
 H146 H 0.23637 0.16512 -0.19323
 H147 H 0.26435 0.15819 -0.24522
 N148 N 0.27054 0.22112 -0.17523
 N149 N 0.28339 0.23289 -0.18035
 C150 C 0.28470 0.24601 -0.16728
 C151 C 0.27197 0.24237 -0.15325
 C152 C 0.26331 0.22643 -0.15887
 H153 H 0.29419 0.25739 -0.16801
 H154 H 0.25245 0.21919 -0.15165
 H155 H 0.29082 0.20370 -0.19893
 H156 H 0.27237 0.21792 -0.20972
 N157 N 0.68576 0.27423 -0.22188
 N158 N 0.68797 0.28966 -0.23054
 C159 C 0.67366 0.29179 -0.24232
 C160 C 0.66178 0.27687 -0.24084
 C161 C 0.67013 0.26607 -0.22769
 H162 H 0.67189 0.30352 -0.25098
 H163 H 0.66522 0.25326 -0.22242
 Cu164 Cu 0.70908 0.30549 -0.22470
 Cu165 Cu 0.70248 0.26589 -0.20291
 Cu166 Cu 0.73970 0.29354 -0.19185
 N167 N 0.73039 0.32086 -0.21839
 N168 N 0.74217 0.31597 -0.20560
 C169 C 0.75530 0.32884 -0.20367
 C170 C 0.75169 0.34274 -0.21588
 C171 C 0.73569 0.33714 -0.22503
 H172 H 0.76655 0.32811 -0.19392
 H173 H 0.72836 0.34441 -0.23560
 N174 N 0.73482 0.27027 -0.17952
 N175 N 0.72076 0.25964 -0.18403
 C176 C 0.72059 0.24515 -0.17292
 C177 C 0.73520 0.24669 -0.16070
 C178 C 0.74395 0.26283 -0.16531
 H179 H 0.71007 0.23464 -0.17312
 H180 H 0.75585 0.26887 -0.15859
 H181 H 0.71114 0.29156 -0.19449
 H182 H 0.72595 0.27955 -0.21224
 N183 N 0.18697 0.77741 0.27810
 N184 N 0.19022 0.79302 0.27005
 C185 C 0.17878 0.79475 0.25562
 C186 C 0.16761 0.77943 0.25453
 C187 C 0.17322 0.76871 0.26908
 H188 H 0.17836 0.80650 0.24684
 H189 H 0.16774 0.75556 0.27285
 Cu190 Cu 0.20852 0.81012 0.27931
 Cu191 Cu 0.20078 0.76979 0.29975
 Cu192 Cu 0.23788 0.79718 0.31243
 N193 N 0.23104 0.82372 0.28470
 N194 N 0.24253 0.81857 0.29760
 C195 C 0.25662 0.83057 0.29879
 C196 C 0.25387 0.84414 0.28589
 C197 C 0.23740 0.83917 0.27717
 H198 H 0.26783 0.82951 0.30855
 H199 H 0.23035 0.84625 0.26629
 N200 N 0.23090 0.77507 0.32578
 N201 N 0.21667 0.76467 0.32118
 C202 C 0.21511 0.75115 0.33348
 C203 C 0.22903 0.75318 0.34650
 C204 C 0.23875 0.76848 0.34106
 H205 H 0.20436 0.74086 0.33320
 H206 H 0.25058 0.77458 0.34782
 H207 H 0.20915 0.79507 0.30903
 H208 H 0.22432 0.78349 0.29125
 N209 N 0.47045 0.41719 0.47154
 N210 N 0.45526 0.42016 0.48146
 C211 C 0.45400 0.40732 0.49449
 C212 C 0.46922 0.39563 0.49261
 C213 C 0.47935 0.40239 0.47786
 H214 H 0.44274 0.40645 0.50446
 H215 H 0.49231 0.39706 0.47218
 Cu216 Cu 0.43862 0.44048 0.47629
 Cu217 Cu 0.47754 0.43261 0.45111
 Cu218 Cu 0.44873 0.46946 0.44205
 N219 N 0.42285 0.46148 0.47133
 N220 N 0.42684 0.47278 0.45799
 C221 C 0.41365 0.48592 0.45760
 C222 C 0.40063 0.48274 0.47148
 C223 C 0.40701 0.46707 0.47987
 H224 H 0.41362 0.49698 0.44794
 H225 H 0.40053 0.46010 0.49126
 N226 N 0.47153 0.46373 0.42751
 N227 N 0.48244 0.44968 0.43102
 C228 C 0.49661 0.44917 0.41871
 C229 C 0.49463 0.46358 0.40678
 C230 C 0.47852 0.47253 0.41282
 H231 H 0.50740 0.43882 0.41829
 H232 H 0.47230 0.48454 0.40695
 H233 H 0.46451 0.45603 0.46124
 H234 H 0.45086 0.44163 0.44488
 N235 N -0.02316 -0.07400 0.97778
 N236 N -0.03862 -0.07078 0.98722
 C237 C -0.03943 -0.08202 1.00165
 C238 C -0.02365 -0.09304 1.00129
 C239 C -0.01363 -0.08756 0.98587
 H240 H -0.05088 -0.08235 1.01146
 H241 H -0.00039 -0.09296 0.98092
 Cu242 Cu -0.05672 -0.05265 0.97981
 Cu243 Cu -0.01679 -0.06032 0.95571
 Cu244 Cu -0.04555 -0.02353 0.94634
 N245 N -0.07086 -0.03039 0.97626
 N246 N -0.06640 -0.01896 0.96322
 C247 C -0.07875 -0.00507 0.96344
 C248 C -0.09175 -0.00792 0.97741
 C249 C -0.08619 -0.02418 0.98527
 H250 H -0.07841 0.00606 0.95387
 H251 H -0.09288 -0.03118 0.99652
 N252 N -0.02388 -0.03042 0.93083
 N253 N -0.01299 -0.04453 0.93414
 C254 C -0.00000 -0.04599 0.92059
 C255 C -0.00291 -0.03213 0.90810
 C256 C -0.01817 -0.02255 0.91517
 H257 H 0.01054 -0.05657 0.91972
 H258 H -0.02481 -0.01079 0.90928
 H259 H -0.03017 -0.03739 0.96592
 H260 H -0.04323 -0.05163 0.94888
 N261 N 1.01919 0.56634 0.98577
 N262 N 1.03252 0.55978 0.99610
 C263 C 1.03611 0.57178 1.00976
 C264 C 1.02437 0.58675 1.00794
 C265 C 1.01381 0.58272 0.99252
 H266 H 1.04672 0.56979 1.02002
 H267 H 1.00312 0.59109 0.98644
 Cu268 Cu 1.04434 0.53647 0.99047
 Cu269 Cu 1.01022 0.55344 0.96401
 Cu270 Cu 1.03536 0.51516 0.95028
 N271 N 1.06050 0.51720 0.98079
 N272 N 1.05692 0.50888 0.96513
 C273 C 1.07035 0.49638 0.96161
 C274 C 1.08314 0.49689 0.97581
 C275 C 1.07636 0.51032 0.98776
 H276 H 1.07092 0.48781 0.94940
 H277 H 1.08246 0.51482 1.00056
 N278 N 1.01307 0.52381 0.93720
 N279 N 1.00348 0.53841 0.94242
 C280 C 0.98936 0.54098 0.93061
 C281 C 0.99005 0.52733 0.91724
 C282 C 1.00531 0.51669 0.92195
 H283 H 0.97950 0.55216 0.93153
 H284 H 1.01047 0.50467 0.91480
 H285 H 1.01875 0.52735 0.97049
 H286 H 1.03630 0.54216 0.95871
 N287 N 0.51744 0.07690 0.47673
 N288 N 0.53229 0.07324 0.48653
 C289 C 0.53347 0.08566 0.50032
 C290 C 0.51853 0.09777 0.49905
 C291 C 0.50872 0.09166 0.48387
 H292 H 0.54446 0.08594 0.51040
 H293 H 0.49626 0.09759 0.47815
 Cu294 Cu 0.54867 0.05277 0.47985
 Cu295 Cu 0.51055 0.06283 0.45505
 Cu296 Cu 0.53859 0.02589 0.44339
 N297 N 0.56400 0.03149 0.47335
 N298 N 0.55978 0.02109 0.45916
 C299 C 0.57248 0.00761 0.45744
 C300 C 0.58550 0.00954 0.47127
 C301 C 0.57965 0.02492 0.48113
 H302 H 0.57244 -0.00259 0.44659
 H303 H 0.58630 0.03089 0.49303
 N304 N 0.51653 0.03292 0.42911
 N305 N 0.50583 0.04699 0.43357
 C306 C 0.49222 0.04853 0.42103
 C307 C 0.49443 0.03477 0.40793
 C308 C 0.51003 0.02513 0.41359
 H309 H 0.48162 0.05907 0.42133
 H310 H 0.51641 0.01347 0.40679
 H311 H 0.52269 0.03882 0.46358
 H312 H 0.53717 0.05363 0.44838
 N313 N -0.01538 0.07664 0.52618
 N314 N -0.02921 0.07189 0.51542
 C315 C -0.03085 0.08425 0.50198
 C316 C -0.01729 0.09749 0.50441
 C317 C -0.00775 0.09212 0.51997
 H318 H -0.04122 0.08365 0.49130
 H319 H 0.00377 0.09901 0.52648
 Cu320 Cu -0.04403 0.05025 0.52019
 Cu321 Cu -0.00840 0.06259 0.54757
 Cu322 Cu -0.03504 0.02464 0.55728
 N323 N -0.05934 0.02933 0.52649
 N324 N -0.05571 0.01938 0.54092
 C325 C -0.06856 0.00613 0.54225
 C326 C -0.08102 0.00784 0.52790
 C327 C -0.07468 0.02276 0.51818
 H328 H -0.06901 -0.00375 0.55314
 H329 H -0.08081 0.02847 0.50600
 N330 N -0.01356 0.03217 0.57224
 N331 N -0.00345 0.04667 0.56859
 C332 C 0.00996 0.04835 0.58135
 C333 C 0.00827 0.03421 0.59371
 C334 C -0.00683 0.02423 0.58742
 H335 H 0.02009 0.05920 0.58169
 H336 H -0.01256 0.01207 0.59343
 H337 H -0.01846 0.03785 0.53826
 H338 H -0.03489 0.05234 0.55236
 N339 N 0.47287 0.57920 0.02755
 N340 N 0.45877 0.57597 0.01658
 C341 C 0.45827 0.58890 0.00361
 C342 C 0.47285 0.60093 0.00659
 C343 C 0.48181 0.59425 0.02195
 H344 H 0.44796 0.58952 -0.00712
 H345 H 0.49392 0.59987 0.02867
 Cu346 Cu 0.44234 0.55529 0.02047
 Cu347 Cu 0.47852 0.56384 0.04844
 Cu348 Cu 0.45001 0.52646 0.05515
 N349 N 0.42663 0.53407 0.02425
 N350 N 0.42981 0.52284 0.03780
 C351 C 0.41686 0.50964 0.03763
 C352 C 0.40479 0.51269 0.02319
 C353 C 0.41148 0.52836 0.01499
 H354 H 0.41605 0.49889 0.04761
 H355 H 0.40570 0.53516 0.00323
 N356 N 0.47112 0.53241 0.07126
 N357 N 0.48194 0.54668 0.06879
 C358 C 0.49466 0.54732 0.08231
 C359 C 0.49172 0.53275 0.09392
 C360 C 0.47667 0.52360 0.08640
 H361 H 0.50505 0.55784 0.08378
 H362 H 0.47010 0.51148 0.09161
 H363 H 0.46730 0.54039 0.03728
 H364 H 0.45167 0.55443 0.05263
 N365 N 0.53449 -0.07743 0.02304
 N366 N 0.54831 -0.07378 0.01164
 C367 C 0.54861 -0.08640 -0.00202
 C368 C 0.53418 -0.09862 0.00102
 C369 C 0.52558 -0.09241 0.01709
 H370 H 0.55858 -0.08665 -0.01330
 H371 H 0.51384 -0.09845 0.02417
 Cu372 Cu 0.56462 -0.05301 0.01609
 Cu373 Cu 0.52900 -0.06281 0.04495
 Cu374 Cu 0.55704 -0.02532 0.05268
 N375 N 0.58002 -0.03156 0.02048
 N376 N 0.57682 -0.02087 0.03481
 C377 C 0.58943 -0.00739 0.03502
 C378 C 0.60132 -0.00962 0.01999
 C379 C 0.59489 -0.02516 0.01105
 H380 H 0.59010 0.00300 0.04564
 H381 H 0.60067 -0.03142 -0.00131
 N382 N 0.53637 -0.03202 0.06923
 N383 N 0.52568 -0.04633 0.06634
 C384 C 0.51300 -0.04736 0.08013
 C385 C 0.51586 -0.03300 0.09232
 C386 C 0.53080 -0.02358 0.08491
 H387 H 0.50262 -0.05793 0.08131
 H388 H 0.53713 -0.01140 0.09047
 H389 H 0.53972 -0.03897 0.03461
 H390 H 0.55579 -0.05323 0.04860
 N391 N 1.01793 0.42010 0.53028
 N392 N 1.03366 0.42215 0.52109
 C393 C 1.03523 0.40879 0.50828
 C394 C 1.01964 0.39772 0.50955
 C395 C 1.00897 0.40537 0.52370
 H396 H 1.04695 0.40713 0.49890
 H397 H 0.99563 0.40067 0.52882
 Cu398 Cu 1.05060 0.44201 0.52676
 Cu399 Cu 1.01038 0.43650 0.55022
 Cu400 Cu 1.03972 0.47265 0.56026
 N401 N 1.06651 0.46273 0.53211
 N402 N 1.06228 0.47471 0.54510
 C403 C 1.07563 0.48759 0.54558
 C404 C 1.08897 0.48348 0.53211
 C405 C 1.08263 0.46757 0.52390
 H406 H 1.07549 0.49914 0.55495
 H407 H 1.08924 0.46000 0.51275
 N408 N 1.01622 0.46812 0.57394
 N409 N 1.00505 0.45443 0.56992
 C410 C 0.99042 0.45469 0.58169
 C411 C 0.99236 0.46923 0.59380
 C412 C 1.00894 0.47745 0.58846
 H413 H 0.97940 0.44469 0.58177
 H414 H 1.01529 0.48929 0.59474
 H415 H 1.02455 0.45910 0.54046
 H416 H 1.03698 0.44482 0.55760
 C417 C 0.35591 -0.01682 0.24851
 C418 C 0.36683 -0.00139 0.24541
 C419 C 0.35826 0.01535 0.24178
 C420 C 0.33868 0.01679 0.24137
 C421 C 0.32782 0.00122 0.24454
 C422 C 0.33631 -0.01568 0.24806
 C423 C 0.38730 -0.00290 0.24568
 C424 C 0.39717 -0.00700 0.22941
 C425 C 0.41670 -0.00894 0.22952
 C426 C 0.42623 -0.00668 0.24621
 C427 C 0.41645 -0.00255 0.26263
 C428 C 0.39690 -0.00068 0.26222
 H429 H 0.36274 -0.02977 0.25093
 H430 H 0.36684 0.02724 0.23947
 H431 H 0.38958 -0.00853 0.21666
 H432 H 0.38908 0.00222 0.27479
 H433 H 0.31271 0.00225 0.24421
 H434 H 0.44130 -0.00818 0.24642
 C435 C 0.15171 -0.02484 0.74813
 C436 C 0.14135 -0.00863 0.74903
 C437 C 0.15058 0.00815 0.74909
 C438 C 0.17022 0.00885 0.74849
 C439 C 0.18047 -0.00755 0.74750
 C440 C 0.17132 -0.02444 0.74721
 C441 C 0.12082 -0.00926 0.75000
 C442 C 0.11180 -0.01344 0.76661
 C443 C 0.09219 -0.01401 0.76770
 C444 C 0.08176 -0.01070 0.75178
 C445 C 0.09067 -0.00665 0.73499
 C446 C 0.11028 -0.00581 0.73429
 H447 H 0.14445 -0.03777 0.74821
 H448 H 0.14242 0.02063 0.74963
 H449 H 0.12008 -0.01581 0.77875
 H450 H 0.11743 -0.00290 0.72145
 H451 H 0.19560 -0.00717 0.74699
 H452 H 0.06664 -0.01125 0.75247
 C453 C 0.64167 0.49269 0.25248
 C454 C 0.63197 0.50927 0.25400
 C455 C 0.64174 0.52543 0.25725
 C456 C 0.66127 0.52519 0.25908
 C457 C 0.67089 0.50846 0.25750
 C458 C 0.66121 0.49214 0.25418
 C459 C 0.61150 0.50965 0.25256
 C460 C 0.60039 0.50664 0.26819
 C461 C 0.58080 0.50691 0.26706
 C462 C 0.57250 0.51024 0.24997
 C463 C 0.58352 0.51326 0.23417
 C464 C 0.60309 0.51299 0.23563
 H465 H 0.63392 0.48022 0.25023
 H466 H 0.63409 0.53820 0.25825
 H467 H 0.60709 0.50433 0.28127
 H468 H 0.61182 0.51509 0.22357
 H469 H 0.68594 0.50814 0.25891
 H470 H 0.55740 0.51043 0.24896
 C471 C 0.84796 0.48934 0.75628
 C472 C 0.85802 0.50549 0.75406
 C473 C 0.84852 0.52184 0.75082
 C474 C 0.82891 0.52222 0.74992
 C475 C 0.81896 0.50591 0.75210
 C476 C 0.82835 0.48936 0.75517
 C477 C 0.87858 0.50516 0.75449
 C478 C 0.88883 0.50498 0.73796
 C479 C 0.90845 0.50416 0.73807
 C480 C 0.91768 0.50382 0.75503
 C481 C 0.90756 0.50416 0.77173
 C482 C 0.88793 0.50475 0.77133
 H483 H 0.85549 0.47669 0.75835
 H484 H 0.85644 0.53428 0.74925
 H485 H 0.88144 0.50544 0.72504
 H486 H 0.87990 0.50474 0.78405
 H487 H 0.80385 0.50608 0.75130
 H488 H 0.93281 0.50320 0.75525
 C489 C 0.25255 0.35897 -0.01503
 C490 C 0.24805 0.36853 0.00123
 C491 C 0.24353 0.35901 0.01724
 C492 C 0.24369 0.33988 0.01718
 C493 C 0.24809 0.33042 0.00075
 C494 C 0.25243 0.33983 -0.01547
 C495 C 0.24850 0.38855 0.00166
 C496 C 0.23186 0.39863 0.00085
 C497 C 0.23222 0.41777 0.00156
 C498 C 0.24949 0.42665 0.00335
 C499 C 0.26627 0.41665 0.00431
 C500 C 0.26562 0.39754 0.00327
 H501 H 0.25580 0.36648 -0.02739
 H502 H 0.24041 0.36655 0.02983
 H503 H 0.21866 0.39153 -0.00016
 H504 H 0.27841 0.38959 0.00378
 H505 H 0.24815 0.31567 0.00059
 H506 H 0.24986 0.44138 0.00410
 C507 C 0.75552 0.14929 -0.01454
 C508 C 0.75316 0.13978 0.00188
 C509 C 0.75046 0.14938 0.01848
 C510 C 0.75035 0.16853 0.01883
 C511 C 0.75243 0.17792 0.00220
 C512 C 0.75487 0.16842 -0.01459
 C513 C 0.75342 0.11974 0.00161
 C514 C 0.77011 0.11030 -0.00223
 C515 C 0.77050 0.09118 -0.00251
 C516 C 0.75383 0.08162 0.00067
 C517 C 0.73692 0.09092 0.00423
 C518 C 0.73691 0.11006 0.00491
 H519 H 0.75773 0.14173 -0.02729
 H520 H 0.74853 0.14189 0.03110
 H521 H 0.78285 0.11790 -0.00456
 H522 H 0.72400 0.11750 0.00747
 H523 H 0.75210 0.19266 0.00231
 H524 H 0.75402 0.06686 0.00033
 C525 C 0.24134 0.63551 0.48166
 C526 C 0.24297 0.62652 0.49845
 C527 C 0.24419 0.63660 0.51487
 C528 C 0.24392 0.65572 0.51466
 C529 C 0.24211 0.66461 0.49776
 C530 C 0.24078 0.65463 0.48118
 C531 C 0.24335 0.60652 0.49889
 C532 C 0.25964 0.59698 0.49376
 C533 C 0.26026 0.57788 0.49460
 C534 C 0.24417 0.56845 0.50023
 C535 C 0.22768 0.57789 0.50520
 C536 C 0.22748 0.59700 0.50469
 H537 H 0.24056 0.62759 0.46901
 H538 H 0.24530 0.62950 0.52780
 H539 H 0.27196 0.60449 0.48962
 H540 H 0.21487 0.60450 0.50837
 H541 H 0.24177 0.67935 0.49751
 H542 H 0.24448 0.55371 0.50075
 C543 C 0.75747 0.87423 0.47505
 C544 C 0.75344 0.88356 0.49158
 C545 C 0.74954 0.87379 0.50758
 C546 C 0.74974 0.85465 0.50725
 C547 C 0.75349 0.84545 0.49053
 C548 C 0.75730 0.85510 0.47435
 C549 C 0.75338 0.90360 0.49222
 C550 C 0.73640 0.91321 0.49268
 C551 C 0.73617 0.93235 0.49345
 C552 C 0.75327 0.94172 0.49411
 C553 C 0.77039 0.93220 0.49394
 C554 C 0.77029 0.91309 0.49279
 H555 H 0.76029 0.88189 0.46269
 H556 H 0.74680 0.88114 0.52036
 H557 H 0.72340 0.90570 0.49255
 H558 H 0.78335 0.90553 0.49242
 H559 H 0.75348 0.83069 0.49010
 H560 H 0.75326 0.95646 0.49484
 C561 C -0.02343 0.25052 0.34906
 C562 C -0.00615 0.24983 0.35790
 C563 C 0.01045 0.24965 0.34750
 C564 C 0.00993 0.24989 0.32818
 C565 C -0.00750 0.25053 0.31945
 C566 C -0.02422 0.25094 0.32978
 C567 C -0.00539 0.24936 0.37808
 C568 C -0.00851 0.23300 0.38733
 C569 C -0.00733 0.23239 0.40659
 C570 C -0.00341 0.24848 0.41647
 C571 C -0.00047 0.26499 0.40734
 C572 C -0.00131 0.26526 0.38806
 H573 H -0.03622 0.25063 0.35720
 H574 H 0.02374 0.24936 0.35450
 H575 H -0.01136 0.22070 0.37946
 H576 H 0.00084 0.27788 0.38079
 H577 H -0.00808 0.25067 0.30457
 H578 H -0.00261 0.24814 0.43133
 C579 C -0.00791 0.75323 0.14593
 C580 C 0.00931 0.75267 0.13655
 C581 C 0.02601 0.75248 0.14646
 C582 C 0.02560 0.75275 0.16579
 C583 C 0.00825 0.75337 0.17504
 C584 C -0.00858 0.75363 0.16526
 C585 C 0.00983 0.75224 0.11631
 C586 C 0.00981 0.76857 0.10653
 C587 C 0.00991 0.76831 0.08720
 C588 C 0.00994 0.75145 0.07782
 C589 C 0.00985 0.73498 0.08747
 C590 C 0.00991 0.73551 0.10679
 H591 H -0.02075 0.75352 0.13816
 H592 H 0.03926 0.75188 0.13910
 H593 H 0.00984 0.78143 0.11402
 H594 H 0.00958 0.72295 0.11447
 H595 H 0.00784 0.75360 0.18994
 H596 H 0.00985 0.75113 0.06292
 C597 C 0.48291 0.25100 0.65634
 C598 C 0.49907 0.25378 0.64572
 C599 C 0.51592 0.25816 0.65429
 C600 C 0.51679 0.25965 0.67353
 C601 C 0.50050 0.25679 0.68409
 C602 C 0.48345 0.25252 0.67562
 C603 C 0.49827 0.25240 0.62556
 C604 C 0.49396 0.26785 0.61531
 C605 C 0.49310 0.26677 0.59604
 C606 C 0.49652 0.24993 0.58719
 C607 C 0.50084 0.23431 0.59733
 C608 C 0.50177 0.23570 0.61659
 H609 H 0.46987 0.24797 0.64952
 H610 H 0.52838 0.26016 0.64595
 H611 H 0.49154 0.28075 0.62239
 H612 H 0.50491 0.22377 0.62465
 H613 H 0.50111 0.25788 0.69895
 H614 H 0.49581 0.24896 0.57233
 C615 C 0.49004 0.74569 0.84735
 C616 C 0.50666 0.74585 0.85735
 C617 C 0.52391 0.74496 0.84808
 C618 C 0.52469 0.74371 0.82879
 C619 C 0.50791 0.74376 0.81888
 C620 C 0.49051 0.74485 0.82803
 C621 C 0.50601 0.74686 0.87757
 C622 C 0.50028 0.73171 0.88766
 C623 C 0.49983 0.73243 0.90698
 C624 C 0.50472 0.74873 0.91603
 C625 C 0.51032 0.76407 0.90604
 C626 C 0.51116 0.76292 0.88675
 H627 H 0.47675 0.74623 0.85467
 H628 H 0.53670 0.74519 0.85594
 H629 H 0.49669 0.71923 0.88042
 H630 H 0.51534 0.77465 0.87883
 H631 H 0.50840 0.74294 0.80400
 H632 H 0.50420 0.74948 0.93093
 C633 C 0.12216 0.21629 0.28259
 C634 C 0.10779 0.22882 0.27829
 C635 C 0.10978 0.23880 0.26180
 C636 C 0.12533 0.23594 0.25007
 C637 C 0.13909 0.22304 0.25432
 C638 C 0.13743 0.21348 0.27079
 C639 C 0.09612 0.25139 0.25693
 C640 C 0.08025 0.25411 0.26781
 C641 C 0.07733 0.24425 0.28415
 C642 C 0.09145 0.23155 0.28960
 C643 C 0.08864 0.22183 0.30603
 C644 C 0.07250 0.22403 0.31657
 C645 C 0.05847 0.23602 0.31128
 C646 C 0.06066 0.24645 0.29511
 C647 C 0.04588 0.25846 0.29054
 C648 C 0.02965 0.25969 0.30135
 C649 C 0.02751 0.24910 0.31711
 C650 C 0.04210 0.23741 0.32205
 H651 H 0.12207 0.20826 0.29486
 H652 H 0.12641 0.24343 0.23736
 H653 H 0.14799 0.20370 0.27469
 H654 H 0.09762 0.25915 0.24441
 H655 H 0.07044 0.26403 0.26289
 H656 H 0.09862 0.21220 0.31119
 H657 H 0.07094 0.21611 0.32897
 H658 H 0.04630 0.26705 0.27865
 H659 H 0.01872 0.26908 0.29738
 H660 H 0.04052 0.22898 0.33410
 C661 C 0.61697 0.75129 0.74451
 C662 C 0.61370 0.74262 0.76153
 C663 C 0.62782 0.73074 0.76797
 C664 C 0.64431 0.72772 0.75769
 C665 C 0.64720 0.73627 0.74077
 C666 C 0.63339 0.74814 0.73439
 C667 C 0.62542 0.72181 0.78462
 C668 C 0.60918 0.72410 0.79499
 C669 C 0.59452 0.73555 0.78914
 C670 C 0.59692 0.74516 0.77225
 C671 C 0.58243 0.75692 0.76661
 C672 C 0.56605 0.75897 0.77682
 C673 C 0.56332 0.74943 0.79306
 C674 C 0.57750 0.73764 0.79957
 C675 C 0.57388 0.72830 0.81617
 C676 C 0.55692 0.73049 0.82563
 C677 C 0.54295 0.74202 0.81900
 C678 C 0.54634 0.75156 0.80275
 H679 H 0.60708 0.76047 0.73843
 H680 H 0.65490 0.71866 0.76298
 H681 H 0.63506 0.75489 0.72134
 H682 H 0.63622 0.71279 0.78965
 H683 H 0.60860 0.71662 0.80761
 H684 H 0.58325 0.76481 0.75426
 H685 H 0.55530 0.76808 0.77185
 H686 H 0.58370 0.71901 0.82216
 H687 H 0.55457 0.72278 0.83804
 H688 H 0.53572 0.76073 0.79763
 C689 C 0.37746 0.77613 0.78566
 C690 C 0.39212 0.76386 0.78086
 C691 C 0.39000 0.75315 0.76464
 C692 C 0.37401 0.75498 0.75372
 C693 C 0.35977 0.76740 0.75855
 C694 C 0.36166 0.77782 0.77470
 C695 C 0.40387 0.74073 0.75929
 C696 C 0.41997 0.73870 0.76956
 C697 C 0.42294 0.74914 0.78572
 C698 C 0.40877 0.76193 0.79148
 C699 C 0.41180 0.77248 0.80755
 C700 C 0.42809 0.77078 0.81757
 C701 C 0.44204 0.75849 0.81212
 C702 C 0.43970 0.74737 0.79622
 C703 C 0.45435 0.73504 0.79147
 C704 C 0.47062 0.73414 0.80188
 C705 C 0.47291 0.74538 0.81739
 C706 C 0.45846 0.75743 0.82248
 H707 H 0.37765 0.78467 0.79780
 H708 H 0.37288 0.74681 0.74128
 H709 H 0.35087 0.78736 0.77905
 H710 H 0.40231 0.73248 0.74693
 H711 H 0.42992 0.72885 0.76429
 H712 H 0.40190 0.78239 0.81278
 H713 H 0.42981 0.77929 0.82973
 H714 H 0.45379 0.72589 0.77981
 H715 H 0.48144 0.72447 0.79781
 H716 H 0.46016 0.76634 0.83436
 C717 C -0.13674 0.28783 0.29122
 C718 C -0.12407 0.27331 0.28761
 C719 C -0.12833 0.26115 0.27297
 C720 C -0.14464 0.26342 0.26268
 C721 C -0.15703 0.27803 0.26623
 C722 C -0.15282 0.29012 0.28073
 C723 C -0.11620 0.24682 0.26847
 C724 C -0.09957 0.24452 0.27779
 C725 C -0.09443 0.25640 0.29227
 C726 C -0.10720 0.27062 0.29772
 C727 C -0.10271 0.28161 0.31313
 C728 C -0.08610 0.27922 0.32252
 C729 C -0.07312 0.26603 0.31682
 C730 C -0.07699 0.25448 0.30155
 C731 C -0.06301 0.24173 0.29600
 C732 C -0.04608 0.24056 0.30525
 C733 C -0.04246 0.25190 0.32039
 C734 C -0.05612 0.26451 0.32620
 H735 H -0.13451 0.29793 0.30183
 H736 H -0.14730 0.25382 0.25162
 H737 H -0.16186 0.30155 0.28412
 H738 H -0.11948 0.23736 0.25740
 H739 H -0.09113 0.23304 0.27341
 H740 H -0.11189 0.29212 0.31849
 H741 H -0.08326 0.28800 0.33426
 H742 H -0.06449 0.23271 0.28432
 H743 H -0.03573 0.23067 0.30056
 H744 H -0.05328 0.27353 0.33776
 C745 C -0.12143 0.72251 0.20903
 C746 C -0.10758 0.73568 0.21294
 C747 C -0.11000 0.74646 0.22915
 C748 C -0.12549 0.74388 0.24089
 C749 C -0.13873 0.73041 0.23703
 C750 C -0.13662 0.71995 0.22088
 C751 C -0.09677 0.75956 0.23377
 C752 C -0.08082 0.76189 0.22302
 C753 C -0.07743 0.75118 0.20703
 C754 C -0.09129 0.73821 0.20162
 C755 C -0.08828 0.72805 0.18521
 C756 C -0.07203 0.72988 0.17483
 C757 C -0.05804 0.74184 0.18031
 C758 C -0.06055 0.75283 0.19637
 C759 C -0.04579 0.76468 0.20128
 C760 C -0.02923 0.76516 0.19096
 C761 C -0.02674 0.75399 0.17536
 C762 C -0.04137 0.74258 0.16995
 H763 H -0.12085 0.71368 0.19710
 H764 H -0.12687 0.75203 0.25337
 H765 H -0.14674 0.70962 0.21733
 H766 H -0.09862 0.76797 0.24604
 H767 H -0.07136 0.77225 0.22773
 H768 H -0.09823 0.71843 0.17991
 H769 H -0.07028 0.72160 0.16246
 H770 H -0.04638 0.77355 0.21317
 H771 H -0.01824 0.77431 0.19528
 H772 H -0.03952 0.73375 0.15799
 C773 C 0.37416 0.21062 0.71987
 C774 C 0.38706 0.22459 0.72405
 C775 C 0.38278 0.23621 0.73925
 C776 C 0.36629 0.23386 0.74965
 C777 C 0.35353 0.21997 0.74531
 C778 C 0.35781 0.20841 0.73027
 C779 C 0.39494 0.25021 0.74406
 C780 C 0.41130 0.25308 0.73411
 C781 C 0.41626 0.24198 0.71879
 C782 C 0.40398 0.22743 0.71371
 C783 C 0.40901 0.21625 0.69847
 C784 C 0.42535 0.21914 0.68848
 C785 C 0.43739 0.23327 0.69316
 C786 C 0.43310 0.24492 0.70837
 C787 C 0.44590 0.25905 0.71243
 C788 C 0.46211 0.26140 0.70186
 C789 C 0.46623 0.24983 0.68688
 C790 C 0.45376 0.23577 0.68264
 H791 H 0.37616 0.20113 0.70861
 H792 H 0.36355 0.24304 0.76113
 H793 H 0.34857 0.19749 0.72627
 H794 H 0.39176 0.25914 0.75569
 H795 H 0.41978 0.26420 0.73888
 H796 H 0.40062 0.20502 0.69380
 H797 H 0.42857 0.21018 0.67689
 H798 H 0.44384 0.26864 0.72359
 H799 H 0.47136 0.27255 0.70529
 H800 H 0.45691 0.22659 0.67120
 C801 C 0.61707 0.25460 0.74592
 C802 C 0.60980 0.26652 0.73266
 C803 C 0.62081 0.28172 0.72770
 C804 C 0.63792 0.28520 0.73648
 C805 C 0.64476 0.27345 0.75003
 C806 C 0.63410 0.25800 0.75435
 C807 C 0.61469 0.29336 0.71396
 C808 C 0.59803 0.29012 0.70482
 C809 C 0.58647 0.27527 0.70941
 C810 C 0.59216 0.26367 0.72402
 C811 C 0.57987 0.24981 0.72977
 C812 C 0.56292 0.24693 0.72119
 C813 C 0.55755 0.25752 0.70639
 C814 C 0.56925 0.27175 0.70011
 C815 C 0.56327 0.28167 0.68462
 C816 C 0.54633 0.27771 0.67605
 C817 C 0.53474 0.26387 0.68262
 C818 C 0.54047 0.25385 0.69781
 H819 H 0.61016 0.24225 0.74990
 H820 H 0.64590 0.29705 0.73254
 H821 H 0.63865 0.24828 0.76440
 H822 H 0.62298 0.30505 0.71008
 H823 H 0.59438 0.29981 0.69444
 H824 H 0.58270 0.24114 0.74125
 H825 H 0.55394 0.23616 0.72616
 H826 H 0.57145 0.29236 0.67859
 H827 H 0.54220 0.28564 0.66429
 H828 H 0.53175 0.24287 0.70276
 C829 C 0.13661 0.78352 0.21282
 C830 C 0.12228 0.77076 0.21638
 C831 C 0.12368 0.76034 0.23261
 C832 C 0.13867 0.76287 0.24472
 C833 C 0.15244 0.77591 0.24118
 C834 C 0.15133 0.78601 0.22502
 C835 C 0.10998 0.74761 0.23688
 C836 C 0.09455 0.74528 0.22570
 C837 C 0.09216 0.75563 0.20964
 C838 C 0.10648 0.76827 0.20466
 C839 C 0.10442 0.77814 0.18824
 C840 C 0.08867 0.77629 0.17741
 C841 C 0.07429 0.76458 0.18242
 C842 C 0.07583 0.75393 0.19849
 C843 C 0.06071 0.74232 0.20290
 C844 C 0.04472 0.74174 0.19209
 C845 C 0.04317 0.75257 0.17647
 C846 C 0.05818 0.76374 0.17155
 H847 H 0.13682 0.79203 0.20087
 H848 H 0.13926 0.75499 0.25720
 H849 H 0.16187 0.79599 0.22169
 H850 H 0.11106 0.73948 0.24917
 H851 H 0.08467 0.73521 0.23016
 H852 H 0.11473 0.78757 0.18330
 H853 H 0.08765 0.78433 0.16505
 H854 H 0.06057 0.73369 0.21476
 H855 H 0.03343 0.73277 0.19603
 H856 H 0.05704 0.77230 0.15956
 C857 C 0.25986 0.11229 0.24381
 C858 C 0.27518 0.10592 0.23299
 C859 C 0.28046 0.11636 0.21752
 C860 C 0.27034 0.13209 0.21287
 C861 C 0.25483 0.13785 0.22344
 C862 C 0.24993 0.12790 0.23906
 C863 C 0.29572 0.11099 0.20662
 C864 C 0.30585 0.09537 0.21058
 C865 C 0.30099 0.08426 0.22560
 C866 C 0.28532 0.08957 0.23693
 C867 C 0.28008 0.07818 0.25160
 C868 C 0.28966 0.06215 0.25509
 C869 C 0.30495 0.05682 0.24426
 C870 C 0.31107 0.06784 0.22950
 C871 C 0.32698 0.06185 0.21926
 C872 C 0.33599 0.04547 0.22327
 C873 C 0.32952 0.03449 0.23756
 C874 C 0.31409 0.04036 0.24810
 H875 H 0.25513 0.10562 0.25609
 H876 H 0.27442 0.13962 0.20078
 H877 H 0.23833 0.13212 0.24781
 H878 H 0.29987 0.11894 0.19481
 H879 H 0.31730 0.09224 0.20133
 H880 H 0.26835 0.08105 0.26059
 H881 H 0.28497 0.05378 0.26640
 H882 H 0.33286 0.06942 0.20804
 H883 H 0.34790 0.04120 0.21491
 H884 H 0.30922 0.03209 0.25942
 C885 C 0.79292 0.63032 0.70509
 C886 C 0.78660 0.61765 0.71829
 C887 C 0.76963 0.62172 0.72777
 C888 C 0.75950 0.63765 0.72398
 C889 C 0.76587 0.64997 0.71076
 C890 C 0.78271 0.64613 0.70144
 C891 C 0.76272 0.60985 0.74097
 C892 C 0.77219 0.59391 0.74504
 C893 C 0.78910 0.58906 0.73597
 C894 C 0.79643 0.60112 0.72235
 C895 C 0.81327 0.59620 0.71319
 C896 C 0.82258 0.58009 0.71705
 C897 C 0.81563 0.56820 0.73021
 C898 C 0.79885 0.57249 0.73996
 C899 C 0.79255 0.55990 0.75326
 C900 C 0.80235 0.54379 0.75647
 C901 C 0.81878 0.53958 0.74664
 C902 C 0.82539 0.55194 0.73359
 H903 H 0.80569 0.62852 0.69730
 H904 H 0.74649 0.64025 0.73130
 H905 H 0.78819 0.65537 0.69128
 H906 H 0.74976 0.61292 0.74827
 H907 H 0.76573 0.58560 0.75537
 H908 H 0.81967 0.60447 0.70279
 H909 H 0.83541 0.57689 0.70958
 H910 H 0.78011 0.56202 0.76149
 H911 H 0.79711 0.53464 0.76686
 H912 H 0.83800 0.54873 0.72577
 C913 C 0.78842 0.37932 0.79080
 C914 C 0.78314 0.39283 0.77813
 C915 C 0.76729 0.38928 0.76710
 C916 C 0.75715 0.37302 0.76903
 C917 C 0.76248 0.35988 0.78183
 C918 C 0.77828 0.36326 0.79258
 C919 C 0.76159 0.40198 0.75420
 C920 C 0.77124 0.41817 0.75189
 C921 C 0.78708 0.42244 0.76254
 C922 C 0.79302 0.40962 0.77600
 C923 C 0.80855 0.41409 0.78700
 C924 C 0.81804 0.43036 0.78490
 C925 C 0.81260 0.44288 0.77174
 C926 C 0.79711 0.43915 0.76029
 C927 C 0.79239 0.45235 0.74704
 C928 C 0.80251 0.46849 0.74545
 C929 C 0.81768 0.47212 0.75693
 C930 C 0.82264 0.45919 0.77003
 H931 H 0.80038 0.38061 0.79957
 H932 H 0.74506 0.37070 0.76050
 H933 H 0.78302 0.35351 0.80253
 H934 H 0.74948 0.39938 0.74574
 H935 H 0.76576 0.42715 0.74166
 H936 H 0.81375 0.40535 0.79758
 H937 H 0.82985 0.43316 0.79371
 H938 H 0.78107 0.45065 0.73755
 H939 H 0.79856 0.47807 0.73496
 H940 H 0.83424 0.46191 0.77913
 C941 C 0.29206 -0.12167 0.29026
 C942 C 0.28718 -0.10859 0.27699
 C943 C 0.27102 -0.11196 0.26641
 C944 C 0.26017 -0.12758 0.26932
 C945 C 0.26501 -0.14035 0.28274
 C946 C 0.28120 -0.13715 0.29305
 C947 C 0.26564 -0.09970 0.25296
 C948 C 0.27593 -0.08409 0.24968
 C949 C 0.29212 -0.07999 0.25984
 C950 C 0.29777 -0.09238 0.27384
 C951 C 0.31371 -0.08807 0.28430
 C952 C 0.32387 -0.07236 0.28119
 C953 C 0.31870 -0.06029 0.26750
 C954 C 0.30280 -0.06387 0.25657
 C955 C 0.29834 -0.05112 0.24279
 C956 C 0.30915 -0.03558 0.24015
 C957 C 0.32477 -0.03214 0.25106
 C958 C 0.32943 -0.04458 0.26474
 H959 H 0.30422 -0.12047 0.29877
 H960 H 0.24789 -0.12959 0.26100
 H961 H 0.28571 -0.14653 0.30345
 H962 H 0.25327 -0.10219 0.24482
 H963 H 0.27064 -0.07543 0.23907
 H964 H 0.31874 -0.09651 0.29520
 H965 H 0.33599 -0.06965 0.28961
 H966 H 0.28670 -0.05275 0.23366
 H967 H 0.30541 -0.02635 0.22927
 H968 H 0.34138 -0.04194 0.27341
 C969 C 0.21408 -0.13459 0.71152
 C970 C 0.21838 -0.12115 0.72493
 C971 C 0.23417 -0.12426 0.73607
 C972 C 0.24492 -0.14025 0.73394
 C973 C 0.24055 -0.15348 0.72052
 C974 C 0.22493 -0.15034 0.70940
 C975 C 0.23931 -0.11134 0.74928
 C976 C 0.22932 -0.09520 0.75154
 C977 C 0.21353 -0.09134 0.74073
 C978 C 0.20771 -0.10472 0.72749
 C979 C 0.19138 -0.10126 0.71733
 C980 C 0.18129 -0.08520 0.71967
 C981 C 0.18707 -0.07182 0.73208
 C982 C 0.20330 -0.07458 0.74277
 C983 C 0.20866 -0.06030 0.75489
 C984 C 0.19829 -0.04416 0.75631
 C985 C 0.18222 -0.04166 0.74581
 C986 C 0.17669 -0.05559 0.73375
 H987 H 0.20256 -0.13334 0.70222
 H988 H 0.25688 -0.14208 0.74272
 H989 H 0.22085 -0.16002 0.69888
 H990 H 0.25132 -0.11367 0.75792
 H991 H 0.23429 -0.08609 0.76209
 H992 H 0.18580 -0.11080 0.70749
 H993 H 0.16884 -0.08318 0.71154
 H994 H 0.22090 -0.06100 0.76335
 H995 H 0.20279 -0.03363 0.76583
 H996 H 0.16442 -0.05364 0.72534
 C997 C 0.70197 0.38158 0.21663
 C998 C 0.70620 0.39464 0.23046
 C999 C 0.72114 0.39059 0.24242
 C1000 C 0.73133 0.37425 0.24041
 C1001 C 0.72707 0.36154 0.22653
 C1002 C 0.71222 0.36540 0.21475
 C1003 C 0.72595 0.40286 0.25633
 C1004 C 0.71637 0.41922 0.25867
 C1005 C 0.70144 0.42405 0.24712
 C1006 C 0.69622 0.41153 0.23280
 C1007 C 0.68126 0.41634 0.22127
 C1008 C 0.67178 0.43277 0.22351
 C1009 C 0.67674 0.44514 0.23729
 C1010 C 0.69159 0.44102 0.24935
 C1011 C 0.69596 0.45415 0.26308
 C1012 C 0.68609 0.47056 0.26461
 C1013 C 0.67151 0.47455 0.25259
 C1014 C 0.66689 0.46170 0.23899
 H1015 H 0.69086 0.38337 0.20694
 H1016 H 0.74269 0.37160 0.24973
 H1017 H 0.70840 0.35596 0.20391
 H1018 H 0.73734 0.39982 0.26554
 H1019 H 0.72113 0.42781 0.26975
 H1020 H 0.67645 0.40770 0.21025
 H1021 H 0.66043 0.43585 0.21427
 H1022 H 0.70691 0.45225 0.27293
 H1023 H 0.68977 0.48013 0.27543
 H1024 H 0.65576 0.46473 0.22947
 C1025 C 0.74813 0.61310 0.25953
 C1026 C 0.73045 0.60985 0.26776
 C1027 C 0.72329 0.62327 0.28019
 C1028 C 0.73343 0.63921 0.28397
 C1029 C 0.75091 0.64221 0.27566
 C1030 C 0.75809 0.62895 0.26343
 C1031 C 0.70603 0.62076 0.28885
 C1032 C 0.69567 0.60514 0.28561
 C1033 C 0.70213 0.59128 0.27342
 C1034 C 0.71972 0.59377 0.26419
 C1035 C 0.72597 0.58013 0.25165
 C1036 C 0.71561 0.56455 0.24835
 C1037 C 0.69863 0.56178 0.25742
 C1038 C 0.69158 0.57504 0.27010
 C1039 C 0.67428 0.57137 0.27896
 C1040 C 0.66454 0.55531 0.27530
 C1041 C 0.67160 0.54233 0.26275
 C1042 C 0.68867 0.54571 0.25383
 H1043 H 0.75483 0.60366 0.25008
 H1044 H 0.72756 0.64927 0.29344
 H1045 H 0.77158 0.63063 0.25683
 H1046 H 0.70046 0.63099 0.29833
 H1047 H 0.68253 0.60443 0.29289
 H1048 H 0.73887 0.58106 0.24397
 H1049 H 0.72102 0.55447 0.23861
 H1050 H 0.66789 0.58048 0.28893
 H1051 H 0.65151 0.55293 0.28260
 H1052 H 0.69416 0.53586 0.24389
 C1053 C 0.20754 0.12044 0.78337
 C1054 C 0.21299 0.10690 0.77031
 C1055 C 0.22941 0.11007 0.75974
 C1056 C 0.23992 0.12602 0.76243
 C1057 C 0.23450 0.13905 0.77574
 C1058 C 0.21813 0.13613 0.78600
 C1059 C 0.23543 0.09722 0.74666
 C1060 C 0.22574 0.08108 0.74398
 C1061 C 0.20949 0.07705 0.75436
 C1062 C 0.20287 0.09030 0.76758
 C1063 C 0.18647 0.08642 0.77777
 C1064 C 0.17708 0.07010 0.77549
 C1065 C 0.18353 0.05692 0.76299
 C1066 C 0.19973 0.06017 0.75211
 C1067 C 0.20554 0.04621 0.73962
 C1068 C 0.19586 0.02977 0.73833
 C1069 C 0.18004 0.02662 0.74933
 C1070 C 0.17389 0.04036 0.76151
 H1071 H 0.19525 0.11938 0.79195
 H1072 H 0.25258 0.12804 0.75441
 H1073 H 0.21332 0.14604 0.79616
 H1074 H 0.24791 0.09960 0.73845
 H1075 H 0.23149 0.07196 0.73365
 H1076 H 0.18045 0.09570 0.78779
 H1077 H 0.16464 0.06771 0.78376
 H1078 H 0.21758 0.04743 0.73071
 H1079 H 0.20077 0.01948 0.72859
 H1080 H 0.16179 0.03800 0.77027
 C1081 C 0.24723 0.25891 0.10868
 C1082 C 0.23630 0.27417 0.10367
 C1083 C 0.22115 0.27918 0.11544
 C1084 C 0.21713 0.26914 0.13134
 C1085 C 0.22796 0.25391 0.13596
 C1086 C 0.24309 0.24904 0.12447
 C1087 C 0.20998 0.29416 0.11130
 C1088 C 0.21339 0.30432 0.09566
 C1089 C 0.22820 0.29989 0.08336
 C1090 C 0.23985 0.28454 0.08743
 C1091 C 0.25460 0.28002 0.07508
 C1092 C 0.25787 0.29002 0.05933
 C1093 C 0.24668 0.30495 0.05516
 C1094 C 0.23172 0.31021 0.06708
 C1095 C 0.22094 0.32562 0.06211
 C1096 C 0.22487 0.33518 0.04603
 C1097 C 0.23959 0.32977 0.03431
 C1098 C 0.25046 0.31465 0.03903
 H1099 H 0.25909 0.25413 0.10074
 H1100 H 0.20544 0.27326 0.14003
 H1101 H 0.25187 0.23746 0.12751
 H1102 H 0.19839 0.29808 0.12027
 H1103 H 0.20401 0.31560 0.09360
 H1104 H 0.26394 0.26871 0.07709
 H1105 H 0.26934 0.28596 0.05027
 H1106 H 0.20934 0.33069 0.07026
 H1107 H 0.21615 0.34674 0.04263
 H1108 H 0.26210 0.31053 0.03021
 C1109 C 0.75432 0.77044 0.59569
 C1110 C 0.74429 0.78667 0.59203
 C1111 C 0.73027 0.79217 0.60490
 C1112 C 0.72664 0.78185 0.62067
 C1113 C 0.73665 0.76577 0.62404
 C1114 C 0.75053 0.76025 0.61138
 C1115 C 0.71982 0.80793 0.60199
 C1116 C 0.72277 0.81836 0.58646
 C1117 C 0.73646 0.81349 0.57311
 C1118 C 0.74758 0.79751 0.57606
 C1119 C 0.76164 0.79294 0.56299
 C1120 C 0.76461 0.80337 0.54747
 C1121 C 0.75369 0.81874 0.54422
 C1122 C 0.73944 0.82409 0.55692
 C1123 C 0.72874 0.83979 0.55276
 C1124 C 0.73214 0.84964 0.53676
 C1125 C 0.74625 0.84425 0.52432
 C1126 C 0.75700 0.82879 0.52822
 H1127 H 0.76508 0.76505 0.58667
 H1128 H 0.71593 0.78647 0.63029
 H1129 H 0.75848 0.74789 0.61339
 H1130 H 0.70913 0.81223 0.61183
 H1131 H 0.71405 0.83028 0.58543
 H1132 H 0.77077 0.78135 0.56433
 H1133 H 0.77557 0.79928 0.53783
 H1134 H 0.71749 0.84480 0.56142
 H1135 H 0.72345 0.86139 0.53397
 H1136 H 0.76816 0.82464 0.51882
 C1137 C 0.75315 0.77268 0.38221
 C1138 C 0.76447 0.78754 0.38757
 C1139 C 0.78029 0.79142 0.37639
 C1140 C 0.78471 0.78049 0.36089
 C1141 C 0.77355 0.76554 0.35604
 C1142 C 0.75765 0.76195 0.36680
 C1143 C 0.79173 0.80613 0.38078
 C1144 C 0.78796 0.81709 0.39610
 C1145 C 0.77257 0.81369 0.40788
 C1146 C 0.76069 0.79859 0.40360
 C1147 C 0.74560 0.79486 0.41565
 C1148 C 0.74223 0.80535 0.43134
 C1149 C 0.75360 0.82009 0.43568
 C1150 C 0.76880 0.82470 0.42397
 C1151 C 0.77960 0.84010 0.42899
 C1152 C 0.77569 0.85006 0.44511
 C1153 C 0.76096 0.84506 0.45680
 C1154 C 0.74986 0.83017 0.45185
 H1155 H 0.74062 0.76892 0.38953
 H1156 H 0.79702 0.78360 0.35275
 H1157 H 0.74847 0.75079 0.36340
 H1158 H 0.80383 0.80920 0.37227
 H1159 H 0.79763 0.82804 0.39845
 H1160 H 0.73617 0.78367 0.41356
 H1161 H 0.73058 0.80181 0.44024
 H1162 H 0.79119 0.84484 0.42082
 H1163 H 0.78449 0.86151 0.44864
 H1164 H 0.73818 0.82644 0.46063
 C1165 C 0.24960 0.25788 -0.10810
 C1166 C 0.26028 0.27329 -0.10306
 C1167 C 0.27505 0.27839 -0.11508
 C1168 C 0.27883 0.26834 -0.13135
 C1169 C 0.26810 0.25308 -0.13608
 C1170 C 0.25346 0.24805 -0.12424
 C1171 C 0.28599 0.29350 -0.11084
 C1172 C 0.28266 0.30374 -0.09492
 C1173 C 0.26815 0.29927 -0.08246
 C1174 C 0.25680 0.28375 -0.08659
 C1175 C 0.24234 0.27919 -0.07410
 C1176 C 0.23901 0.28936 -0.05819
 C1177 C 0.24988 0.30448 -0.05397
 C1178 C 0.26460 0.30975 -0.06597
 C1179 C 0.27509 0.32532 -0.06088
 C1180 C 0.27111 0.33503 -0.04461
 C1181 C 0.25660 0.32963 -0.03284
 C1182 C 0.24601 0.31436 -0.03770
 H1183 H 0.23808 0.25296 -0.09997
 H1184 H 0.29023 0.27248 -0.14025
 H1185 H 0.24473 0.23648 -0.12735
 H1186 H 0.29730 0.29748 -0.11996
 H1187 H 0.29181 0.31514 -0.09280
 H1188 H 0.23324 0.26774 -0.07611
 H1189 H 0.22775 0.28527 -0.04905
 H1190 H 0.28651 0.33039 -0.06907
 H1191 H 0.27964 0.34669 -0.04111
 H1192 H 0.23452 0.31023 -0.02886
 C1193 C 0.73383 0.20589 -0.12948
 C1194 C 0.74366 0.21205 -0.11380
 C1195 C 0.75201 0.22951 -0.11459
 C1196 C 0.74977 0.24051 -0.13011
 C1197 C 0.73917 0.23451 -0.14509
 C1198 C 0.73161 0.21697 -0.14473
 C1199 C 0.76224 0.23609 -0.09974
 C1200 C 0.76404 0.22597 -0.08385
 C1201 C 0.75547 0.20878 -0.08206
 C1202 C 0.74520 0.20165 -0.09734
 C1203 C 0.73639 0.18460 -0.09548
 C1204 C 0.73716 0.17500 -0.07922
 C1205 C 0.74686 0.18184 -0.06416
 C1206 C 0.75643 0.19866 -0.06536
 C1207 C 0.76628 0.20471 -0.04963
 C1208 C 0.76604 0.19477 -0.03338
 C1209 C 0.75608 0.17845 -0.03218
 C1210 C 0.74671 0.17199 -0.04775
 H1211 H 0.72752 0.19265 -0.13045
 H1212 H 0.75580 0.25402 -0.13019
 H1213 H 0.72379 0.21170 -0.15628
 H1214 H 0.76878 0.24937 -0.10031
 H1215 H 0.77202 0.23224 -0.07305
 H1216 H 0.72837 0.17832 -0.10625
 H1217 H 0.72991 0.16210 -0.07838
 H1218 H 0.77428 0.21708 -0.04932
 H1219 H 0.77375 0.19989 -0.02167
 H1220 H 0.73878 0.15948 -0.04696
 C1221 C 0.24835 0.73784 0.39218
 C1222 C 0.23899 0.72120 0.39526
 C1223 C 0.22613 0.71526 0.38177
 C1224 C 0.22302 0.72558 0.36590
 C1225 C 0.23244 0.74204 0.36310
 C1226 C 0.24511 0.74797 0.37645
 C1227 C 0.21636 0.69908 0.38418
 C1228 C 0.21880 0.68870 0.39983
 C1229 C 0.23131 0.69405 0.41378
 C1230 C 0.24181 0.71042 0.41130
 C1231 C 0.25477 0.71548 0.42494
 C1232 C 0.25711 0.70526 0.44065
 C1233 C 0.24667 0.68959 0.44352
 C1234 C 0.23368 0.68362 0.43015
 C1235 C 0.22349 0.66755 0.43391
 C1236 C 0.22601 0.65809 0.45027
 C1237 C 0.23871 0.66424 0.46346
 C1238 C 0.24912 0.67992 0.45986
 H1239 H 0.25814 0.74363 0.40172
 H1240 H 0.21322 0.72070 0.35574
 H1241 H 0.25251 0.76068 0.37499
 H1242 H 0.20656 0.69441 0.37389
 H1243 H 0.21063 0.67646 0.40051
 H1244 H 0.26350 0.72733 0.42395
 H1245 H 0.26716 0.70979 0.45077
 H1246 H 0.21327 0.66200 0.42467
 H1247 H 0.21764 0.64611 0.45278
 H1248 H 0.25922 0.68464 0.46984
 C1249 C 0.28341 0.69893 0.62368
 C1250 C 0.26989 0.70340 0.61034
 C1251 C 0.25913 0.71944 0.61343
 C1252 C 0.26201 0.73046 0.62906
 C1253 C 0.27558 0.72595 0.64204
 C1254 C 0.28616 0.71002 0.63918
 C1255 C 0.24557 0.72456 0.60087
 C1256 C 0.24247 0.71423 0.58511
 C1257 C 0.25289 0.69823 0.58118
 C1258 C 0.26677 0.69266 0.59405
 C1259 C 0.27714 0.67662 0.59014
 C1260 C 0.27429 0.66649 0.57417
 C1261 C 0.26099 0.67183 0.56143
 C1262 C 0.25000 0.68770 0.56472
 C1263 C 0.23666 0.69239 0.55127
 C1264 C 0.23464 0.68193 0.53525
 C1265 C 0.24572 0.66643 0.53201
 C1266 C 0.25878 0.66139 0.54527
 H1267 H 0.29219 0.68701 0.62262
 H1268 H 0.25370 0.74272 0.63089
 H1269 H 0.29665 0.70598 0.64894
 H1270 H 0.23726 0.73678 0.60321
 H1271 H 0.23175 0.71931 0.57622
 H1272 H 0.28774 0.67147 0.59912
 H1273 H 0.28269 0.65434 0.57175
 H1274 H 0.22757 0.70406 0.55257
 H1275 H 0.22423 0.68597 0.52536
 H1276 H 0.26757 0.64951 0.54281
 C1277 C 0.76879 0.20890 0.13422
 C1278 C 0.75878 0.21437 0.11851
 C1279 C 0.74936 0.23141 0.11943
 C1280 C 0.75061 0.24265 0.13518
 C1281 C 0.76121 0.23729 0.15031
 C1282 C 0.76999 0.22019 0.14973
 C1283 C 0.73897 0.23734 0.10453
 C1284 C 0.73793 0.22692 0.08851
 C1285 C 0.74743 0.21007 0.08664
 C1286 C 0.75799 0.20366 0.10191
 C1287 C 0.76776 0.18696 0.09995
 C1288 C 0.76757 0.17702 0.08360
 C1289 C 0.75755 0.18314 0.06856
 C1290 C 0.74708 0.19959 0.06986
 C1291 C 0.73692 0.20491 0.05417
 C1292 C 0.73772 0.19467 0.03785
 C1293 C 0.74856 0.17876 0.03654
 C1294 C 0.75823 0.17296 0.05208
 H1295 H 0.77596 0.19602 0.13505
 H1296 H 0.74367 0.25580 0.13539
 H1297 H 0.77791 0.21540 0.16131
 H1298 H 0.73166 0.25031 0.10519
 H1299 H 0.72974 0.23270 0.07769
 H1300 H 0.77605 0.18122 0.11071
 H1301 H 0.77553 0.16442 0.08270
 H1302 H 0.72824 0.21693 0.05394
 H1303 H 0.72977 0.19926 0.02617
 H1304 H 0.76679 0.16074 0.05120
 C1305 C 0.49187 0.35173 0.50827
 C1306 C 0.48249 0.34826 0.52511
 C1307 C 0.46845 0.36082 0.53096
 C1308 C 0.46421 0.37616 0.52037
 C1309 C 0.47371 0.37941 0.50377
 C1310 C 0.48753 0.36700 0.49788
 C1311 C 0.45866 0.35807 0.54735
 C1312 C 0.46237 0.34306 0.55815
 C1313 C 0.47619 0.33009 0.55302
 C1314 C 0.48651 0.33280 0.53627
 C1315 C 0.50055 0.32000 0.53128
 C1316 C 0.50432 0.30503 0.54210
 C1317 C 0.49430 0.30210 0.55831
 C1318 C 0.48008 0.31452 0.56408
 C1319 C 0.47036 0.31073 0.58068
 C1320 C 0.47464 0.29536 0.59097
 C1321 C 0.48870 0.28319 0.58515
 C1322 C 0.49849 0.28671 0.56880
 H1323 H 0.50259 0.34293 0.50258
 H1324 H 0.45355 0.38563 0.52525
 H1325 H 0.49501 0.36891 0.48504
 H1326 H 0.44792 0.36764 0.55190
 H1327 H 0.45412 0.34210 0.57056
 H1328 H 0.50904 0.32112 0.51905
 H1329 H 0.51524 0.29559 0.53767
 H1330 H 0.45926 0.31925 0.58612
 H1331 H 0.46668 0.29283 0.60343
 H1332 H 0.50959 0.27751 0.56429
 C1333 C -0.02523 0.87668 0.04309
 C1334 C -0.01236 0.86260 0.03840
 C1335 C -0.00253 0.86400 0.02142
 C1336 C -0.00590 0.87866 0.00960
 C1337 C -0.01914 0.89213 0.01424
 C1338 C -0.02853 0.89108 0.03120
 C1339 C 0.01041 0.85063 0.01614
 C1340 C 0.01360 0.83561 0.02710
 C1341 C 0.00387 0.83326 0.04391
 C1342 C -0.00916 0.84711 0.04978
 C1343 C -0.01878 0.84485 0.06667
 C1344 C -0.01624 0.82943 0.07721
 C1345 C -0.00399 0.81563 0.07149
 C1346 C 0.00646 0.81738 0.05490
 C1347 C 0.01881 0.80295 0.04991
 C1348 C 0.02017 0.78735 0.06060
 C1349 C 0.00941 0.78552 0.07667
 C1350 C -0.00243 0.79989 0.08218
 H1351 H -0.03317 0.87699 0.05575
 H1352 H 0.00149 0.87924 -0.00346
 H1353 H -0.03857 0.90143 0.03542
 H1354 H 0.01807 0.85168 0.00324
 H1355 H 0.02373 0.82595 0.02180
 H1356 H -0.02863 0.85468 0.07216
 H1357 H -0.02416 0.82823 0.08994
 H1358 H 0.02752 0.80311 0.03775
 H1359 H 0.02971 0.77659 0.05621
 H1360 H -0.01094 0.79858 0.09451
 C1361 C 0.03436 0.62128 0.04597
 C1362 C 0.02268 0.63618 0.04145
 C1363 C 0.01136 0.63424 0.02566
 C1364 C 0.01191 0.61818 0.01497
 C1365 C 0.02366 0.60361 0.01955
 C1366 C 0.03480 0.60537 0.03521
 C1367 C -0.00045 0.64838 0.02048
 C1368 C -0.00129 0.66454 0.03053
 C1369 C 0.00973 0.66732 0.04631
 C1370 C 0.02188 0.65288 0.05192
 C1371 C 0.03288 0.65567 0.06772
 C1372 C 0.03225 0.67198 0.07760
 C1373 C 0.02064 0.68622 0.07224
 C1374 C 0.00912 0.68411 0.05659
 C1375 C -0.00246 0.69902 0.05186
 C1376 C -0.00228 0.71527 0.06200
 C1377 C 0.00934 0.71735 0.07724
 C1378 C 0.02064 0.70266 0.08240
 H1379 H 0.04342 0.62142 0.05770
 H1380 H 0.00318 0.61720 0.00293
 H1381 H 0.04398 0.59443 0.03930
 H1382 H -0.00915 0.64696 0.00843
 H1383 H -0.01078 0.67465 0.02540
 H1384 H 0.04228 0.64549 0.07288
 H1385 H 0.04105 0.67349 0.08957
 H1386 H -0.01183 0.69870 0.04038
 H1387 H -0.01142 0.72628 0.05792
 H1388 H 0.02978 0.70417 0.09411
 C1389 C 0.49402 0.14015 0.51784
 C1390 C 0.50590 0.14604 0.53214
 C1391 C 0.52185 0.13519 0.53582
 C1392 C 0.52586 0.11945 0.52519
 C1393 C 0.51414 0.11406 0.51077
 C1394 C 0.49811 0.12454 0.50742
 C1395 C 0.53381 0.14014 0.55003
 C1396 C 0.53042 0.15569 0.56067
 C1397 C 0.51490 0.16715 0.55742
 C1398 C 0.50249 0.16229 0.54283
 C1399 C 0.48726 0.17398 0.53920
 C1400 C 0.48421 0.18985 0.54935
 C1401 C 0.49608 0.19476 0.56360
 C1402 C 0.51148 0.18345 0.56806
 C1403 C 0.52282 0.18907 0.58296
 C1404 C 0.51920 0.20536 0.59257
 C1405 C 0.50423 0.21662 0.58771
 C1406 C 0.49263 0.21109 0.57332
 H1407 H 0.48137 0.14720 0.51427
 H1408 H 0.53825 0.11151 0.52814
 H1409 H 0.48851 0.12081 0.49665
 H1410 H 0.54602 0.13189 0.55297
 H1411 H 0.54046 0.15848 0.57125
 H1412 H 0.47744 0.17147 0.52837
 H1413 H 0.47242 0.19845 0.54590
 H1414 H 0.53463 0.18127 0.58757
 H1415 H 0.52840 0.20936 0.60363
 H1416 H 0.48077 0.21953 0.56971
 C1417 C 0.00441 0.14103 0.48663
 C1418 C -0.00761 0.14596 0.47214
 C1419 C -0.02278 0.13422 0.46824
 C1420 C -0.02581 0.11849 0.47867
 C1421 C -0.01390 0.11396 0.49315
 C1422 C 0.00127 0.12538 0.49687
 C1423 C -0.03495 0.13824 0.45399
 C1424 C -0.03253 0.15372 0.44348
 C1425 C -0.01778 0.16599 0.44686
 C1426 C -0.00514 0.16207 0.46147
 C1427 C 0.00944 0.17448 0.46506
 C1428 C 0.01161 0.19017 0.45488
 C1429 C -0.00055 0.19420 0.44065
 C1430 C -0.01534 0.18217 0.43625
 C1431 C -0.02706 0.18694 0.42143
 C1432 C -0.02433 0.20306 0.41176
 C1433 C -0.00991 0.21499 0.41646
 C1434 C 0.00202 0.21035 0.43084
 H1435 H 0.01644 0.14889 0.49047
 H1436 H -0.03761 0.10988 0.47549
 H1437 H 0.01093 0.12231 0.50776
 H1438 H -0.04656 0.12931 0.45092
 H1439 H -0.04266 0.15573 0.43285
 H1440 H 0.01945 0.17261 0.47582
 H1441 H 0.02295 0.19933 0.45825
 H1442 H -0.03852 0.17860 0.41694
 H1443 H -0.03379 0.20636 0.40074
 H1444 H 0.01347 0.21933 0.43435
 C1445 C 0.49702 0.64427 0.99148
 C1446 C 0.48716 0.64906 0.97544
 C1447 C 0.47234 0.63755 0.96991
 C1448 C 0.46779 0.62197 0.98002
 C1449 C 0.47773 0.61741 0.99587
 C1450 C 0.49236 0.62877 1.00142
 C1451 C 0.46207 0.64160 0.95429
 C1452 C 0.46609 0.65687 0.94395
 C1453 C 0.48071 0.66881 0.94878
 C1454 C 0.49147 0.66480 0.96476
 C1455 C 0.50622 0.67663 0.96950
 C1456 C 0.51034 0.69182 0.95910
 C1457 C 0.49998 0.69595 0.94358
 C1458 C 0.48499 0.68459 0.93814
 C1459 C 0.47497 0.68957 0.92223
 C1460 C 0.47976 0.70502 0.91224
 C1461 C 0.49462 0.71610 0.91771
 C1462 C 0.50465 0.71145 0.93343
 H1463 H 0.50840 0.65217 0.99685
 H1464 H 0.45645 0.61341 0.97541
 H1465 H 0.50033 0.62583 1.01359
 H1466 H 0.45072 0.63285 0.94999
 H1467 H 0.45743 0.65885 0.93213
 H1468 H 0.51501 0.67456 0.98121
 H1469 H 0.52182 0.70046 0.96330
 H1470 H 0.46331 0.68191 0.91708
 H1471 H 0.47163 0.70844 0.90027
 H1472 H 0.51637 0.71978 0.93764
 C1473 C 0.50774 0.86007 0.98369
 C1474 C 0.51971 0.85286 0.96974
 C1475 C 0.53635 0.86252 0.96576
 C1476 C 0.54095 0.87834 0.97582
 C1477 C 0.52914 0.88501 0.98993
 C1478 C 0.51242 0.87578 0.99354
 C1479 C 0.54841 0.85631 0.95182
 C1480 C 0.54439 0.84069 0.94166
 C1481 C 0.52813 0.83041 0.94519
 C1482 C 0.51571 0.83647 0.95964
 C1483 C 0.49985 0.82580 0.96371
 C1484 C 0.49613 0.80988 0.95401
 C1485 C 0.50790 0.80393 0.93975
 C1486 C 0.52398 0.81413 0.93495
 C1487 C 0.53517 0.80752 0.92005
 C1488 C 0.53067 0.79142 0.91068
 C1489 C 0.51496 0.78131 0.91579
 C1490 C 0.50360 0.78773 0.93030
 H1491 H 0.49455 0.85405 0.98732
 H1492 H 0.55390 0.88530 0.97274
 H1493 H 0.50272 0.88068 1.00401
 H1494 H 0.56116 0.86363 0.94870
 H1495 H 0.55456 0.83689 0.93127
 H1496 H 0.49007 0.82918 0.97459
 H1497 H 0.48384 0.80211 0.95774
 H1498 H 0.54745 0.81447 0.91519
 H1499 H 0.53970 0.78671 0.89951
 H1500 H 0.49119 0.78017 0.93411
 C1501 C -0.00258 0.35354 0.49370
 C1502 C 0.00734 0.34933 0.47720
 C1503 C 0.02147 0.36160 0.47157
 C1504 C 0.02536 0.37729 0.48209
 C1505 C 0.01541 0.38120 0.49840
 C1506 C 0.00141 0.36916 0.50403
 C1507 C 0.03170 0.35821 0.45546
 C1508 C 0.02835 0.34284 0.44473
 C1509 C 0.01451 0.33010 0.44968
 C1510 C 0.00379 0.33343 0.46617
 C1511 C -0.01011 0.32074 0.47109
 C1512 C -0.01339 0.30531 0.46044
 C1513 C -0.00303 0.30182 0.44444
 C1514 C 0.01104 0.31412 0.43873
 C1515 C 0.02105 0.30981 0.42228
 C1516 C 0.01724 0.29399 0.41215
 C1517 C 0.00340 0.28190 0.41799
 C1518 C -0.00672 0.28597 0.43413
 H1519 H -0.01350 0.34507 0.49915
 H1520 H 0.03611 0.38652 0.47741
 H1521 H -0.00645 0.37163 0.51662
 H1522 H 0.04250 0.36757 0.45108
 H1523 H 0.03696 0.34137 0.43256
 H1524 H -0.01881 0.32225 0.48319
 H1525 H -0.02419 0.29596 0.46483
 H1526 H 0.03198 0.31826 0.41683
 H1527 H 0.02539 0.29107 0.39981
 H1528 H -0.01769 0.27684 0.43861
 C1529 C 0.35696 0.49947 0.49668
 C1530 C 0.35029 0.51348 0.48523
 C1531 C 0.36094 0.51745 0.46922
 C1532 C 0.37729 0.50750 0.46485
 C1533 C 0.38352 0.49348 0.47623
 C1534 C 0.37321 0.48972 0.49222
 C1535 C 0.35523 0.53130 0.45758
 C1536 C 0.33916 0.54140 0.46140
 C1537 C 0.32794 0.53797 0.47708
 C1538 C 0.33351 0.52366 0.48911
 C1539 C 0.32204 0.51988 0.50451
 C1540 C 0.30579 0.52973 0.50817
 C1541 C 0.30028 0.54380 0.49674
 C1542 C 0.31125 0.54827 0.48108
 C1543 C 0.30500 0.56291 0.47015
 C1544 C 0.28857 0.57246 0.47457
 C1545 C 0.27775 0.56778 0.48994
 C1546 C 0.28376 0.55345 0.50098
 H1547 H 0.35008 0.49569 0.50929
 H1548 H 0.38502 0.51066 0.45242
 H1549 H 0.37767 0.47922 0.50153
 H1550 H 0.36331 0.53440 0.44532
 H1551 H 0.33584 0.55176 0.45160
 H1552 H 0.32507 0.50921 0.51405
 H1553 H 0.29743 0.52625 0.52014
 H1554 H 0.31246 0.56744 0.45812
 H1555 H 0.28418 0.58343 0.46575
 H1556 H 0.27565 0.54994 0.51311
 C1557 C 0.86337 0.00854 0.00072
 C1558 C 0.85887 0.02443 -0.00919
 C1559 C 0.87137 0.02967 -0.02340
 C1560 C 0.88747 0.01928 -0.02750
 C1561 C 0.89156 0.00341 -0.01774
 C1562 C 0.87937 -0.00171 -0.00352
 C1563 C 0.86774 0.04520 -0.03361
 C1564 C 0.85181 0.05564 -0.03025
 C1565 C 0.83872 0.05094 -0.01645
 C1566 C 0.84240 0.03517 -0.00561
 C1567 C 0.82943 0.03061 0.00836
 C1568 C 0.81335 0.04085 0.01152
 C1569 C 0.80942 0.05605 0.00093
 C1570 C 0.82203 0.06144 -0.01315
 C1571 C 0.81725 0.07705 -0.02341
 C1572 C 0.80067 0.08668 -0.01985
 C1573 C 0.78827 0.08114 -0.00602
 C1574 C 0.79283 0.06586 0.00438
 H1575 H 0.85480 0.00349 0.01177
 H1576 H 0.89669 0.02359 -0.03849
 H1577 H 0.88202 -0.01378 0.00442
 H1578 H 0.87731 0.04932 -0.04444
 H1579 H 0.85019 0.06735 -0.03885
 H1580 H 0.83122 0.01910 0.01720
 H1581 H 0.80378 0.03674 0.02235
 H1582 H 0.82586 0.08218 -0.03439
 H1583 H 0.79739 0.09835 -0.02821
 H1584 H 0.78345 0.06163 0.01533
 C1585 C 0.64672 0.00640 -0.00191
 C1586 C 0.65006 0.02309 0.00751
 C1587 C 0.63663 0.02889 0.02084
 C1588 C 0.62070 0.01841 0.02446
 C1589 C 0.61776 0.00178 0.01526
 C1590 C 0.63087 -0.00400 0.00194
 C1591 C 0.63917 0.04507 0.03070
 C1592 C 0.65503 0.05552 0.02802
 C1593 C 0.66905 0.05027 0.01518
 C1594 C 0.66629 0.03404 0.00438
 C1595 C 0.67983 0.02935 -0.00917
 C1596 C 0.69571 0.03982 -0.01183
 C1597 C 0.69892 0.05527 -0.00099
 C1598 C 0.68572 0.06074 0.01272
 C1599 C 0.68994 0.07636 0.02354
 C1600 C 0.70642 0.08607 0.02071
 C1601 C 0.71931 0.08064 0.00707
 C1602 C 0.71538 0.06524 -0.00379
 H1603 H 0.65622 0.00077 -0.01210
 H1604 H 0.61064 0.02330 0.03463
 H1605 H 0.62913 -0.01680 -0.00537
 H1606 H 0.62884 0.04965 0.04079
 H1607 H 0.65574 0.06781 0.03621
 H1608 H 0.67854 0.01767 -0.01816
 H1609 H 0.70570 0.03565 -0.02241
 H1610 H 0.68101 0.08132 0.03454
 H1611 H 0.70924 0.09774 0.02951
 H1612 H 0.72514 0.06102 -0.01456
 C1613 C 0.13321 0.49802 0.50720
 C1614 C 0.13944 0.51296 0.51795
 C1615 C 0.12839 0.51823 0.53346
 C1616 C 0.11204 0.50864 0.53803
 C1617 C 0.10620 0.49374 0.52731
 C1618 C 0.11696 0.48866 0.51183
 C1619 C 0.13367 0.53305 0.54435
 C1620 C 0.14964 0.54293 0.54019
 C1621 C 0.16118 0.53828 0.52493
 C1622 C 0.15613 0.52287 0.51378
 C1623 C 0.16801 0.51779 0.49890
 C1624 C 0.18406 0.52750 0.49483
 C1625 C 0.18898 0.54271 0.50530
 C1626 C 0.17766 0.54843 0.52047
 C1627 C 0.18332 0.56416 0.53041
 C1628 C 0.19948 0.57361 0.52548
 C1629 C 0.21060 0.56776 0.51056
 C1630 C 0.20523 0.55227 0.50055
 H1631 H 0.14040 0.49323 0.49498
 H1632 H 0.10394 0.51283 0.55005
 H1633 H 0.11286 0.47744 0.50302
 H1634 H 0.12531 0.53714 0.55625
 H1635 H 0.15261 0.55412 0.54939
 H1636 H 0.16545 0.50620 0.49011
 H1637 H 0.19272 0.52304 0.48327
 H1638 H 0.17557 0.56965 0.54201
 H1639 H 0.20340 0.58550 0.53352
 H1640 H 0.21357 0.54782 0.48876
 C1641 C 0.11965 0.45986 -0.03218
 C1642 C 0.13364 0.46441 -0.01929
 C1643 C 0.13050 0.47999 -0.00792
 C1644 C 0.11407 0.49042 -0.00952
 C1645 C 0.10041 0.48573 -0.02240
 C1646 C 0.10341 0.47034 -0.03365
 C1647 C 0.14377 0.48519 0.00499
 C1648 C 0.16021 0.47530 0.00694
 C1649 C 0.16411 0.45967 -0.00400
 C1650 C 0.15058 0.45411 -0.01732
 C1651 C 0.15446 0.43847 -0.02826
 C1652 C 0.17092 0.42863 -0.02636
 C1653 C 0.18424 0.43387 -0.01354
 C1654 C 0.18110 0.44943 -0.00212
 C1655 C 0.19519 0.45407 0.01065
 C1656 C 0.21159 0.44377 0.01185
 C1657 C 0.21460 0.42849 0.00045
 C1658 C 0.20078 0.42360 -0.01217
 H1659 H 0.12072 0.44830 -0.04139
 H1660 H 0.11211 0.50236 -0.00079
 H1661 H 0.09311 0.46619 -0.04364
 H1662 H 0.14145 0.49710 0.01371
 H1663 H 0.16960 0.48037 0.01725
 H1664 H 0.14505 0.43336 -0.03853
 H1665 H 0.17326 0.41674 -0.03511
 H1666 H 0.19407 0.46555 0.01996
 H1667 H 0.22192 0.44771 0.02191
 H1668 H 0.20307 0.41192 -0.02122
 C1669 C 0.62017 0.97048 0.46676
 C1670 C 0.63532 0.97642 0.47762
 C1671 C 0.63321 0.99320 0.48733
 C1672 C 0.61688 1.00380 0.48551
 C1673 C 0.60232 0.99799 0.47412
 C1674 C 0.60407 0.98110 0.46506
 C1675 C 0.64747 0.99946 0.49865
 C1676 C 0.66392 0.98954 0.50050
 C1677 C 0.66694 0.97294 0.49086
 C1678 C 0.65245 0.96635 0.47910
 C1679 C 0.65573 0.95012 0.46888
 C1680 C 0.67249 0.94065 0.47003
 C1681 C 0.68666 0.94678 0.48150
 C1682 C 0.68409 0.96286 0.49228
 C1683 C 0.69890 0.96816 0.50396
 C1684 C 0.71557 0.95819 0.50444
 C1685 C 0.71816 0.94258 0.49339
 C1686 C 0.70352 0.93691 0.48206
 H1687 H 0.62017 0.95767 0.45940
 H1688 H 0.61575 1.01677 0.49272
 H1689 H 0.59294 0.97590 0.45655
 H1690 H 0.64593 1.01225 0.50616
 H1691 H 0.67419 0.99553 0.50942
 H1692 H 0.64573 0.94444 0.45949
 H1693 H 0.67439 0.92837 0.46175
 H1694 H 0.69807 0.97988 0.51299
 H1695 H 0.72646 0.96267 0.51366
 H1696 H 0.70538 0.92495 0.47331
 C1697 C 0.88366 0.96955 0.53028
 C1698 C 0.86958 0.97527 0.51804
 C1699 C 0.87242 0.99191 0.50875
 C1700 C 0.88856 1.00231 0.51184
 C1701 C 0.90221 0.99655 0.52422
 C1702 C 0.89959 0.98002 0.53328
 C1703 C 0.85909 0.99824 0.49651
 C1704 C 0.84280 0.98857 0.49336
 C1705 C 0.83909 0.97204 0.50240
 C1706 C 0.85279 0.96519 0.51483
 C1707 C 0.84916 0.94858 0.52375
 C1708 C 0.83269 0.93912 0.52093
 C1709 C 0.81911 0.94572 0.50911
 C1710 C 0.82208 0.96219 0.49955
 C1711 C 0.80774 0.96816 0.48770
 C1712 C 0.79119 0.95834 0.48576
 C1713 C 0.78831 0.94222 0.49544
 C1714 C 0.80244 0.93594 0.50699
 H1715 H 0.88285 0.95710 0.53789
 H1716 H 0.89025 1.01509 0.50476
 H1717 H 0.90992 0.97501 0.54275
 H1718 H 0.86123 1.01092 0.48931
 H1719 H 0.83332 0.99456 0.48373
 H1720 H 0.85876 0.94244 0.53316
 H1721 H 0.83051 0.92649 0.52821
 H1722 H 0.80873 0.98040 0.47977
 H1723 H 0.78061 0.96337 0.47654
 H1724 H 0.80026 0.92359 0.51473
 C1725 C 0.35866 0.49904 0.00181
 C1726 C 0.35506 0.48191 0.00984
 C1727 C 0.36856 0.47500 0.02210
 C1728 C 0.38478 0.48491 0.02608
 C1729 C 0.38798 0.50197 0.01823
 C1730 C 0.37481 0.50882 0.00596
 C1731 C 0.36580 0.45827 0.03050
 C1732 C 0.34971 0.44831 0.02740
 C1733 C 0.33560 0.45467 0.01562
 C1734 C 0.33850 0.47156 0.00636
 C1735 C 0.32473 0.47753 -0.00600
 C1736 C 0.30850 0.46767 -0.00891
 C1737 C 0.30520 0.45152 0.00041
 C1738 C 0.31867 0.44471 0.01279
 C1739 C 0.31443 0.42833 0.02201
 C1740 C 0.29761 0.41928 0.01907
 C1741 C 0.28438 0.42611 0.00687
 C1742 C 0.28836 0.44222 -0.00251
 H1743 H 0.34919 0.50548 -0.00755
 H1744 H 0.39489 0.47924 0.03543
 H1745 H 0.37673 0.52198 -0.00029
 H1746 H 0.37617 0.45285 0.03977
 H1747 H 0.34884 0.43556 0.03448
 H1748 H 0.32604 0.48984 -0.01378
 H1749 H 0.29831 0.47287 -0.01848
 H1750 H 0.32361 0.42223 0.03184
 H1751 H 0.29477 0.40703 0.02674
 H1752 H 0.27832 0.44753 -0.01216
 C1753 C 0.53548 0.46268 0.37305
 C1754 C 0.53007 0.47549 0.35970
 C1755 C 0.51289 0.48486 0.36261
 C1756 C 0.50149 0.48106 0.37795
 C1757 C 0.50688 0.46801 0.39081
 C1758 C 0.52408 0.45905 0.38823
 C1759 C 0.50706 0.49794 0.35015
 C1760 C 0.51789 0.50202 0.33480
 C1761 C 0.53504 0.49298 0.33112
 C1762 C 0.54111 0.47932 0.34365
 C1763 C 0.55787 0.46974 0.33958
 C1764 C 0.56842 0.47341 0.32398
 C1765 C 0.56290 0.48686 0.31181
 C1766 C 0.54623 0.49697 0.31520
 C1767 C 0.54153 0.51066 0.30245
 C1768 C 0.55274 0.51386 0.28699
 C1769 C 0.56902 0.50362 0.28364
 C1770 C 0.57401 0.49015 0.29618
 H1771 H 0.54849 0.45526 0.37234
 H1772 H 0.48829 0.48819 0.37969
 H1773 H 0.52895 0.44917 0.39801
 H1774 H 0.49394 0.50516 0.35229
 H1775 H 0.51221 0.51223 0.32592
 H1776 H 0.56318 0.45902 0.34806
 H1777 H 0.58113 0.46561 0.32142
 H1778 H 0.52939 0.51930 0.30404
 H1779 H 0.54874 0.52460 0.27772
 H1780 H 0.58647 0.48199 0.29363
 C1781 C 0.01017 -0.01184 0.86203
 C1782 C 0.02695 -0.02110 0.85717
 C1783 C 0.03365 -0.03439 0.86950
 C1784 C 0.02398 -0.03792 0.88604
 C1785 C 0.00744 -0.02848 0.89067
 C1786 C 0.00070 -0.01549 0.87841
 C1787 C 0.04995 -0.04414 0.86526
 C1788 C 0.05977 -0.04113 0.84899
 C1789 C 0.05374 -0.02805 0.83623
 C1790 C 0.03718 -0.01770 0.84052
 C1791 C 0.03145 -0.00421 0.82806
 C1792 C 0.04127 -0.00109 0.81189
 C1793 C 0.05718 -0.01125 0.80733
 C1794 C 0.06373 -0.02489 0.81935
 C1795 C 0.07997 -0.03479 0.81385
 C1796 C 0.08916 -0.03122 0.79722
 C1797 C 0.08254 -0.01773 0.78546
 C1798 C 0.06656 -0.00777 0.79070
 H1799 H 0.00378 -0.00179 0.85345
 H1800 H 0.02946 -0.04803 0.89530
 H1801 H -0.01213 -0.00807 0.88125
 H1802 H 0.05518 -0.05430 0.87463
 H1803 H 0.07218 -0.04929 0.84691
 H1804 H 0.01942 0.00440 0.83041
 H1805 H 0.03628 0.00942 0.80278
 H1806 H 0.08589 -0.04551 0.82194
 H1807 H 0.10136 -0.03928 0.79341
 H1808 H 0.06148 0.00292 0.78186
 C1809 C 0.04678 0.03794 0.62913
 C1810 C 0.04200 0.02428 0.64190
 C1811 C 0.02587 0.01375 0.63823
 C1812 C 0.01504 0.01702 0.62260
 C1813 C 0.01989 0.03071 0.61016
 C1814 C 0.03592 0.04104 0.61362
 C1815 C 0.02054 -0.00001 0.65018
 C1816 C 0.03084 -0.00368 0.66577
 C1817 C 0.04700 0.00638 0.67017
 C1818 C 0.05260 0.02070 0.65811
 C1819 C 0.06852 0.03103 0.66273
 C1820 C 0.07867 0.02753 0.67847
 C1821 C 0.07352 0.01356 0.69025
 C1822 C 0.05768 0.00270 0.68629
 C1823 C 0.05326 -0.01141 0.69870
 C1824 C 0.06396 -0.01437 0.71433
 C1825 C 0.07946 -0.00347 0.71823
 C1826 C 0.08417 0.01046 0.70605
 H1827 H 0.05888 0.04648 0.63058
 H1828 H 0.00270 0.00887 0.62028
 H1829 H 0.04028 0.05160 0.60429
 H1830 H 0.00821 -0.00809 0.64746
 H1831 H 0.02558 -0.01450 0.67419
 H1832 H 0.07354 0.04211 0.65452
 H1833 H 0.09075 0.03588 0.68143
 H1834 H 0.04170 -0.02054 0.69676
 H1835 H 0.06020 -0.02546 0.72331
 H1836 H 0.09603 0.01911 0.70901
 C1837 C 0.50454 0.51071 0.13905
 C1838 C 0.52103 0.52000 0.14414
 C1839 C 0.52775 0.53360 0.13212
 C1840 C 0.51831 0.53755 0.11578
 C1841 C 0.50194 0.52827 0.11100
 C1842 C 0.49524 0.51480 0.12282
 C1843 C 0.54383 0.54331 0.13647
 C1844 C 0.55335 0.54007 0.15264
 C1845 C 0.54720 0.52681 0.16522
 C1846 C 0.53093 0.51640 0.16075
 C1847 C 0.52511 0.50275 0.17304
 C1848 C 0.53453 0.49958 0.18926
 C1849 C 0.55010 0.50986 0.19402
 C1850 C 0.55676 0.52359 0.18211
 C1851 C 0.57263 0.53361 0.18778
 C1852 C 0.58131 0.53013 0.20450
 C1853 C 0.57454 0.51662 0.21620
 C1854 C 0.55898 0.50646 0.21077
 H1855 H 0.49823 0.50032 0.14733
 H1856 H 0.52382 0.54793 0.10680
 H1857 H 0.48259 0.50742 0.11976
 H1858 H 0.54909 0.55368 0.12729
 H1859 H 0.56559 0.54824 0.15483
 H1860 H 0.51328 0.49411 0.17054
 H1861 H 0.52946 0.48899 0.19827
 H1862 H 0.57863 0.54438 0.17977
 H1863 H 0.59319 0.53833 0.20846
 H1864 H 0.55380 0.49576 0.21958
 C1865 C 0.50269 -0.01193 0.13860
 C1866 C 0.48536 -0.02026 0.14275
 C1867 C 0.47837 -0.03309 0.12984
 C1868 C 0.48831 -0.03716 0.11351
 C1869 C 0.50539 -0.02870 0.10960
 C1870 C 0.51243 -0.01610 0.12234
 C1871 C 0.46146 -0.04182 0.13322
 C1872 C 0.45124 -0.03822 0.14920
 C1873 C 0.45752 -0.02559 0.16256
 C1874 C 0.47481 -0.01635 0.15922
 C1875 C 0.48091 -0.00346 0.17240
 C1876 C 0.47064 0.00025 0.18831
 C1877 C 0.45391 -0.00872 0.19185
 C1878 C 0.44706 -0.02180 0.17911
 C1879 C 0.43000 -0.03053 0.18355
 C1880 C 0.42027 -0.02633 0.19982
 C1881 C 0.42712 -0.01334 0.21226
 C1882 C 0.44398 -0.00460 0.20816
 H1883 H 0.50925 -0.00218 0.14759
 H1884 H 0.48255 -0.04686 0.10379
 H1885 H 0.52568 -0.00946 0.11993
 H1886 H 0.45603 -0.05162 0.12338
 H1887 H 0.43835 -0.04559 0.15057
 H1888 H 0.49361 0.00418 0.17086
 H1889 H 0.47592 0.01028 0.19800
 H1890 H 0.42377 -0.04077 0.17489
 H1891 H 0.40741 -0.03349 0.20280
 H1892 H 0.44929 0.00564 0.21759
 C1893 C 0.95024 0.47021 0.62584
 C1894 C 0.95625 0.48132 0.64067
 C1895 C 0.97419 0.48935 0.63915
 C1896 C 0.98574 0.48572 0.62373
 C1897 C 0.97980 0.47410 0.60953
 C1898 C 0.96183 0.46668 0.61065
 C1899 C 0.98066 0.50077 0.65313
 C1900 C 0.96988 0.50424 0.66880
 C1901 C 0.95212 0.49624 0.67127
 C1902 C 0.94520 0.48456 0.65696
 C1903 C 0.92766 0.47618 0.65960
 C1904 C 0.91733 0.47885 0.67566
 C1905 C 0.92387 0.49008 0.68973
 C1906 C 0.94120 0.49918 0.68771
 C1907 C 0.94691 0.51069 0.70240
 C1908 C 0.93616 0.51251 0.71848
 C1909 C 0.91933 0.50304 0.72054
 C1910 C 0.91319 0.49202 0.70597
 H1911 H 0.93667 0.46397 0.62544
 H1912 H 0.99956 0.49165 0.62307
 H1913 H 0.95655 0.45803 0.59974
 H1914 H 0.99431 0.50702 0.65202
 H1915 H 0.97610 0.51308 0.67892
 H1916 H 0.92155 0.46711 0.64963
 H1917 H 0.90406 0.47190 0.67712
 H1918 H 0.95960 0.51849 0.70199
 H1919 H 0.94104 0.52143 0.72937
 H1920 H 0.90028 0.48448 0.70744
 C1921 C 0.95007 0.53393 0.88394
 C1922 C 0.95444 0.52133 0.86957
 C1923 C 0.97067 0.51039 0.87157
 C1924 C 0.98201 0.51227 0.88713
 C1925 C 0.97764 0.52501 0.90109
 C1926 C 0.96147 0.53569 0.89933
 C1927 C 0.97569 0.49771 0.85795
 C1928 C 0.96517 0.49576 0.84214
 C1929 C 0.94907 0.50651 0.83922
 C1930 C 0.94347 0.51937 0.85326
 C1931 C 0.92722 0.52995 0.85044
 C1932 C 0.91705 0.52842 0.83434
 C1933 C 0.92254 0.51630 0.82038
 C1934 C 0.93850 0.50501 0.82262
 C1935 C 0.94334 0.49290 0.80798
 C1936 C 0.93310 0.49246 0.79175
 C1937 C 0.91763 0.50394 0.78949
 C1938 C 0.91226 0.51563 0.80401
 H1939 H 0.93801 0.54275 0.88374
 H1940 H 0.99445 0.50389 0.88813
 H1941 H 0.95749 0.54552 0.90988
 H1942 H 0.98803 0.48923 0.85946
 H1943 H 0.97021 0.48568 0.83239
 H1944 H 0.92196 0.53974 0.86038
 H1945 H 0.90479 0.53698 0.83276
 H1946 H 0.95505 0.48365 0.80844
 H1947 H 0.93734 0.48304 0.78087
 H1948 H 0.90037 0.52466 0.80234
 C1949 C 0.45783 0.04050 0.37094
 C1950 C 0.46170 0.02572 0.35874
 C1951 C 0.47651 0.01377 0.36334
 C1952 C 0.48692 0.01667 0.37938
 C1953 C 0.48303 0.03149 0.39122
 C1954 C 0.46831 0.04327 0.38681
 C1955 C 0.48101 -0.00100 0.35188
 C1956 C 0.47131 -0.00416 0.33575
 C1957 C 0.45655 0.00739 0.33035
 C1958 C 0.45152 0.02248 0.34214
 C1959 C 0.43654 0.03384 0.33690
 C1960 C 0.42696 0.03079 0.32067
 C1961 C 0.43186 0.01637 0.30892
 C1962 C 0.44668 0.00441 0.31353
 C1963 C 0.45106 -0.00996 0.30096
 C1964 C 0.44121 -0.01218 0.28463
 C1965 C 0.42666 -0.00027 0.28017
 C1966 C 0.42201 0.01394 0.29246
 H1967 H 0.44691 0.05032 0.36863
 H1968 H 0.49814 0.00730 0.38250
 H1969 H 0.46482 0.05486 0.39553
 H1970 H 0.49227 -0.01023 0.35538
 H1971 H 0.47580 -0.01588 0.32780
 H1972 H 0.43176 0.04531 0.34506
 H1973 H 0.41560 0.03993 0.31724
 H1974 H 0.46205 -0.01972 0.30321
 H1975 H 0.44492 -0.02343 0.27548
 H1976 H 0.41090 0.02338 0.28903
   
