data_POSCAR
  _audit_creation_date              2014-09-24
  _audit_creation_method            'ToBaCCo'
  _symmetry_space_group_name_H-M    'P1'
  _symmetry_Int_Tables_number       1
  _symmetry_cell_setting            triclinic
  loop_
  _symmetry_equiv_pos_as_xyz
 x,y,z
_cell_length_a 68.6987
_cell_length_b 68.9370
_cell_length_c 69.0607
_cell_angle_alpha 89.926800
_cell_angle_beta 89.960600
_cell_angle_gamma 89.893900
loop_
  _atom_site_label
  _atom_site_type_symbol
  _atom_site_fract_x
  _atom_site_fract_y
  _atom_site_fract_z
N1 N 0.37133 0.31741 0.33129
 N2 N 0.37222 0.33199 0.31903
 C3 C 0.38749 0.32929 0.30708
 C4 C 0.39652 0.31207 0.31204
 C5 C 0.38591 0.30491 0.32752
 H6 H 0.39149 0.33883 0.29529
 H7 H 0.38839 0.29151 0.33529
 Cu8 Cu 0.35288 0.35272 0.31914
 Cu9 Cu 0.35067 0.31530 0.35043
 Cu10 Cu 0.31448 0.34979 0.34953
 N11 N 0.33190 0.37180 0.31875
 N12 N 0.31696 0.37057 0.33060
 C13 C 0.30443 0.38511 0.32679
 C14 C 0.31194 0.39605 0.31172
 C15 C 0.32939 0.38723 0.30703
 H16 H 0.29082 0.38738 0.33432
 H17 H 0.33926 0.39155 0.29560
 N18 N 0.31640 0.33001 0.37004
 N19 N 0.33045 0.31694 0.37055
 C20 C 0.32789 0.30549 0.38616
 C21 C 0.31137 0.31154 0.39582
 C22 C 0.30447 0.32718 0.38526
 H23 H 0.33712 0.29337 0.39006
 H24 H 0.29169 0.33582 0.38833
 H25 H 0.33035 0.32994 0.33360
 H26 H 0.34394 0.34473 0.35203
 N27 N 0.37066 0.81746 -0.16993
 N28 N 0.37103 0.83154 -0.18279
 C29 C 0.38628 0.82878 -0.19476
 C30 C 0.39580 0.81198 -0.18925
 C31 C 0.38553 0.80518 -0.17335
 H32 H 0.38995 0.83799 -0.20691
 H33 H 0.38836 0.79219 -0.16503
 Cu34 Cu 0.35106 0.85165 -0.18337
 Cu35 Cu 0.35032 0.81552 -0.15042
 Cu36 Cu 0.31661 0.85260 -0.14884
 N37 N 0.33178 0.87241 -0.18204
 N38 N 0.31862 0.87298 -0.16821
 C39 C 0.30686 0.88835 -0.17105
 C40 C 0.31286 0.89788 -0.18761
 C41 C 0.32882 0.88744 -0.19419
 H42 H 0.29442 0.89196 -0.16213
 H43 H 0.33738 0.89023 -0.20702
 N44 N 0.31828 0.83246 -0.12869
 N45 N 0.33106 0.81815 -0.12939
 C46 C 0.32811 0.80627 -0.11417
 C47 C 0.31267 0.81344 -0.10344
 C48 C 0.30687 0.83006 -0.11301
 H49 H 0.33636 0.79320 -0.11136
 H50 H 0.29485 0.83939 -0.10904
 H51 H 0.32905 0.83069 -0.16502
 H52 H 0.34587 0.84500 -0.14929
 N53 N 0.87303 0.31973 -0.16709
 N54 N 0.87345 0.33358 -0.18017
 C55 C 0.88825 0.33020 -0.19253
 C56 C 0.89758 0.31330 -0.18682
 C57 C 0.88753 0.30707 -0.17066
 H58 H 0.89173 0.33915 -0.20491
 H59 H 0.89044 0.29412 -0.16229
 Cu60 Cu 0.85419 0.35433 -0.18032
 Cu61 Cu 0.85346 0.31879 -0.14675
 Cu62 Cu 0.81819 0.35473 -0.14714
 N63 N 0.83371 0.37388 -0.18069
 N64 N 0.81972 0.37399 -0.16769
 C65 C 0.80732 0.38862 -0.17160
 C66 C 0.81388 0.39816 -0.18803
 C67 C 0.83066 0.38845 -0.19336
 H68 H 0.79439 0.39176 -0.16324
 H69 H 0.83974 0.39159 -0.20577
 N70 N 0.81905 0.33402 -0.12750
 N71 N 0.83248 0.32030 -0.12734
 C72 C 0.82890 0.30810 -0.11252
 C73 C 0.81238 0.31446 -0.10293
 C74 C 0.80656 0.33088 -0.11279
 H75 H 0.83750 0.29540 -0.10916
 H76 H 0.79393 0.33970 -0.10959
 H77 H 0.83218 0.33305 -0.16253
 H78 H 0.84754 0.34818 -0.14613
 N79 N 0.87196 0.81866 0.33250
 N80 N 0.87226 0.83265 0.31953
 C81 C 0.88754 0.82988 0.30759
 C82 C 0.89724 0.81322 0.31341
 C83 C 0.88696 0.80653 0.32924
 H84 H 0.89102 0.83901 0.29534
 H85 H 0.88991 0.79347 0.33743
 Cu86 Cu 0.85215 0.85269 0.31909
 Cu87 Cu 0.85123 0.81642 0.35157
 Cu88 Cu 0.81488 0.85094 0.35071
 N89 N 0.83173 0.87240 0.31921
 N90 N 0.81733 0.87173 0.33176
 C91 C 0.80508 0.88659 0.32840
 C92 C 0.81208 0.89715 0.31288
 C93 C 0.82911 0.88777 0.30741
 H94 H 0.79178 0.88930 0.33636
 H95 H 0.83867 0.89156 0.29557
 N96 N 0.81678 0.83100 0.37113
 N97 N 0.83087 0.81796 0.37162
 C98 C 0.82822 0.80636 0.38710
 C99 C 0.81161 0.81226 0.39670
 C100 C 0.80474 0.82798 0.38623
 H101 H 0.83741 0.79420 0.39094
 H102 H 0.79188 0.83651 0.38928
 H103 H 0.83010 0.83028 0.33532
 H104 H 0.84432 0.84568 0.35255
 N105 N 0.62732 0.68174 0.33270
 N106 N 0.62800 0.66863 0.31890
 C107 C 0.61333 0.67191 0.30637
 C108 C 0.60306 0.68800 0.31255
 C109 C 0.61231 0.69387 0.32935
 H110 H 0.61049 0.66350 0.29348
 H111 H 0.60857 0.70612 0.33838
 Cu112 Cu 0.64828 0.64887 0.31835
 Cu113 Cu 0.64635 0.68262 0.35353
 Cu114 Cu 0.68439 0.64964 0.35117
 N115 N 0.66805 0.62860 0.31927
 N116 N 0.68204 0.62891 0.33224
 C117 C 0.69405 0.61376 0.32923
 C118 C 0.68728 0.60341 0.31351
 C119 C 0.67069 0.61320 0.30755
 H120 H 0.70706 0.61075 0.33753
 H121 H 0.66147 0.60964 0.29540
 N122 N 0.68173 0.66881 0.37215
 N123 N 0.66714 0.68126 0.37311
 C124 C 0.66962 0.69269 0.38871
 C125 C 0.68650 0.68716 0.39803
 C126 C 0.69383 0.67193 0.38717
 H127 H 0.66010 0.70448 0.39284
 H128 H 0.70713 0.66395 0.38976
 H129 H 0.66838 0.67122 0.33720
 H130 H 0.65474 0.65358 0.35262
 N131 N 0.62850 0.18216 -0.16765
 N132 N 0.62911 0.16938 -0.18176
 C133 C 0.61406 0.17259 -0.19383
 C134 C 0.60352 0.18825 -0.18689
 C135 C 0.61302 0.19388 -0.17023
 H136 H 0.61117 0.16433 -0.20680
 H137 H 0.60933 0.20606 -0.16107
 Cu138 Cu 0.64978 0.15005 -0.18355
 Cu139 Cu 0.64892 0.18383 -0.14831
 Cu140 Cu 0.68431 0.14836 -0.14891
 N141 N 0.66884 0.12910 -0.18221
 N142 N 0.68208 0.12832 -0.16850
 C143 C 0.69366 0.11284 -0.17146
 C144 C 0.68734 0.10342 -0.18803
 C145 C 0.67151 0.11407 -0.19437
 H146 H 0.70602 0.10915 -0.16250
 H147 H 0.66289 0.11129 -0.20717
 N148 N 0.68233 0.16779 -0.12815
 N149 N 0.66881 0.18142 -0.12793
 C150 C 0.67176 0.19301 -0.11252
 C151 C 0.68797 0.18634 -0.10262
 C152 C 0.69421 0.17031 -0.11286
 H153 H 0.66302 0.20558 -0.10906
 H154 H 0.70685 0.16151 -0.10965
 H155 H 0.67095 0.17063 -0.16377
 H156 H 0.65490 0.15444 -0.14906
 N157 N 0.12788 0.68057 -0.16632
 N158 N 0.12844 0.66763 -0.18028
 C159 C 0.11379 0.67117 -0.19276
 C160 C 0.10355 0.68721 -0.18622
 C161 C 0.11287 0.69275 -0.16942
 H162 H 0.11095 0.66285 -0.20570
 H163 H 0.10922 0.70503 -0.16038
 Cu164 Cu 0.14841 0.64759 -0.18085
 Cu165 Cu 0.14726 0.68151 -0.14579
 Cu166 Cu 0.18509 0.64837 -0.14889
 N167 N 0.16862 0.62774 -0.18096
 N168 N 0.18265 0.62786 -0.16803
 C169 C 0.19473 0.61285 -0.17136
 C170 C 0.18803 0.60288 -0.18732
 C171 C 0.17138 0.61267 -0.19307
 H172 H 0.20776 0.60972 -0.16313
 H173 H 0.16210 0.60919 -0.20520
 N174 N 0.18299 0.66757 -0.12793
 N175 N 0.16850 0.68010 -0.12664
 C176 C 0.17150 0.69166 -0.11122
 C177 C 0.18872 0.68608 -0.10241
 C178 C 0.19554 0.67075 -0.11332
 H179 H 0.16210 0.70350 -0.10701
 H180 H 0.20892 0.66281 -0.11096
 H181 H 0.16880 0.67003 -0.16260
 H182 H 0.15546 0.65258 -0.14672
 N183 N 0.12891 0.18310 0.33038
 N184 N 0.12869 0.16899 0.31758
 C185 C 0.11336 0.17152 0.30569
 C186 C 0.10362 0.18816 0.31119
 C187 C 0.11386 0.19515 0.32697
 H188 H 0.10976 0.16224 0.29360
 H189 H 0.11079 0.20812 0.33521
 Cu190 Cu 0.14890 0.14912 0.31699
 Cu191 Cu 0.14928 0.18532 0.34977
 Cu192 Cu 0.18303 0.14830 0.35189
 N193 N 0.16819 0.12841 0.31868
 N194 N 0.18109 0.12776 0.33272
 C195 C 0.19275 0.11226 0.33013
 C196 C 0.18696 0.10279 0.31350
 C197 C 0.17126 0.11337 0.30662
 H198 H 0.20504 0.10856 0.33919
 H199 H 0.16291 0.11053 0.29368
 N200 N 0.18131 0.16867 0.37179
 N201 N 0.16851 0.18295 0.37082
 C202 C 0.17136 0.19502 0.38586
 C203 C 0.18670 0.18809 0.39676
 C204 C 0.19266 0.17131 0.38747
 H205 H 0.16316 0.20815 0.38853
 H206 H 0.20464 0.16197 0.39152
 H207 H 0.17077 0.17010 0.33546
 H208 H 0.15379 0.15583 0.35110
 N209 N 0.62789 0.31816 0.66748
 N210 N 0.62732 0.33232 0.68019
 C211 C 0.61262 0.32908 0.69268
 C212 C 0.60360 0.31195 0.68760
 C213 C 0.61364 0.30538 0.67150
 H214 H 0.60892 0.33825 0.70483
 H215 H 0.61086 0.29231 0.66334
 Cu216 Cu 0.64626 0.35326 0.67987
 Cu217 Cu 0.64718 0.31723 0.64686
 Cu218 Cu 0.68215 0.35333 0.64654
 N219 N 0.66669 0.37277 0.67990
 N220 N 0.68067 0.37272 0.66690
 C221 C 0.69301 0.38741 0.67060
 C222 C 0.68639 0.39715 0.68686
 C223 C 0.66969 0.38748 0.69235
 H224 H 0.70594 0.39052 0.66224
 H225 H 0.66063 0.39077 0.70473
 N226 N 0.68124 0.33249 0.62709
 N227 N 0.66785 0.31878 0.62714
 C228 C 0.67124 0.30663 0.61224
 C229 C 0.68758 0.31301 0.60240
 C230 C 0.69353 0.32938 0.61221
 H231 H 0.66264 0.29393 0.60902
 H232 H 0.70605 0.33823 0.60880
 H233 H 0.66837 0.33182 0.66235
 H234 H 0.65283 0.34666 0.64575
 N235 N 0.62719 0.81868 1.16700
 N236 N 0.62784 0.83136 1.18118
 C237 C 0.61318 0.82771 1.19364
 C238 C 0.60288 0.81186 1.18685
 C239 C 0.61213 0.80657 1.16991
 H240 H 0.61037 0.83583 1.20673
 H241 H 0.60844 0.79446 1.16069
 Cu242 Cu 0.64788 0.85130 1.18211
 Cu243 Cu 0.64665 0.81784 1.14654
 Cu244 Cu 0.68416 0.85118 1.14941
 N245 N 0.66723 0.87192 1.18122
 N246 N 0.68125 0.87188 1.16826
 C247 C 0.69299 0.88717 1.17133
 C248 C 0.68593 0.89738 1.18711
 C249 C 0.66957 0.88732 1.19298
 H250 H 0.70596 0.89023 1.16302
 H251 H 0.66039 0.89075 1.20524
 N252 N 0.68215 0.83194 1.12848
 N253 N 0.66785 0.81924 1.12736
 C254 C 0.67096 0.80763 1.11199
 C255 C 0.68800 0.81340 1.10299
 C256 C 0.69462 0.82890 1.11373
 H257 H 0.66167 0.79571 1.10783
 H258 H 0.70782 0.83703 1.11121
 H259 H 0.66835 0.82928 1.16314
 H260 H 0.65457 0.84692 1.14780
 N261 N 0.12866 0.31796 1.16904
 N262 N 0.12871 0.33166 1.18227
 C263 C 0.11369 0.32876 1.19450
 C264 C 0.10378 0.31234 1.18853
 C265 C 0.11361 0.30594 1.17231
 H266 H 0.11034 0.33777 1.20688
 H267 H 0.11033 0.29320 1.16381
 Cu268 Cu 0.14868 0.35164 1.18203
 Cu269 Cu 0.14905 0.31583 1.14954
 Cu270 Cu 0.18193 0.35389 1.14648
 N271 N 0.16850 0.37172 1.18178
 N272 N 0.18108 0.37285 1.16746
 C273 C 0.19305 0.38796 1.17056
 C274 C 0.18782 0.39667 1.18779
 C275 C 0.17213 0.38604 1.19455
 H276 H 0.20499 0.39207 1.16121
 H277 H 0.16407 0.38844 1.20779
 N278 N 0.18041 0.33299 1.12699
 N279 N 0.16802 0.31842 1.12829
 C280 C 0.17116 0.30612 1.11348
 C281 C 0.18630 0.31316 1.10241
 C282 C 0.19183 0.33027 1.11134
 H283 H 0.16335 0.29273 1.11111
 H284 H 0.20359 0.33974 1.10711
 H285 H 0.17100 0.33186 1.16291
 H286 H 0.15306 0.34535 1.14772
 N287 N 0.12804 0.81842 0.66812
 N288 N 0.12801 0.83215 0.68132
 C289 C 0.11329 0.82894 0.69380
 C290 C 0.10365 0.81232 0.68815
 C291 C 0.11338 0.80601 0.67176
 H292 H 0.10997 0.83779 0.70629
 H293 H 0.11026 0.79325 0.66325
 Cu294 Cu 0.14748 0.85260 0.68123
 Cu295 Cu 0.14755 0.81712 0.64769
 Cu296 Cu 0.18513 0.85039 0.65028
 N297 N 0.16794 0.87210 0.68133
 N298 N 0.18258 0.87122 0.66909
 C299 C 0.19491 0.88593 0.67264
 C300 C 0.18760 0.89661 0.68799
 C301 C 0.17049 0.88745 0.69311
 H302 H 0.20834 0.88835 0.66485
 H303 H 0.16087 0.89148 0.70484
 N304 N 0.18313 0.83095 0.62954
 N305 N 0.16882 0.81824 0.62855
 C306 C 0.17180 0.80660 0.61317
 C307 C 0.18877 0.81236 0.60403
 C308 C 0.19548 0.82787 0.61470
 H309 H 0.16241 0.79475 0.60904
 H310 H 0.20862 0.83605 0.61201
 H311 H 0.16846 0.82941 0.66462
 H312 H 0.15551 0.84614 0.64758
 N313 N 0.37276 0.68000 0.66710
 N314 N 0.37214 0.66692 0.68096
 C315 C 0.38676 0.67023 0.69349
 C316 C 0.39712 0.68617 0.68714
 C317 C 0.38785 0.69203 0.67030
 H318 H 0.38956 0.66189 0.70647
 H319 H 0.39143 0.70435 0.66130
 Cu320 Cu 0.35218 0.64696 0.68139
 Cu321 Cu 0.35320 0.68133 0.64668
 Cu322 Cu 0.31398 0.65008 0.65129
 N323 N 0.33135 0.62787 0.68197
 N324 N 0.31640 0.62922 0.67017
 C325 C 0.30385 0.61473 0.67396
 C326 C 0.31138 0.60369 0.68897
 C327 C 0.32885 0.61240 0.69364
 H328 H 0.29026 0.61253 0.66641
 H329 H 0.33876 0.60796 0.70497
 N330 N 0.31652 0.66881 0.62988
 N331 N 0.33164 0.68043 0.62787
 C332 C 0.32903 0.69150 0.61198
 C333 C 0.31140 0.68657 0.60363
 C334 C 0.30394 0.67213 0.61531
 H335 H 0.33902 0.70258 0.60712
 H336 H 0.29019 0.66475 0.61339
 H337 H 0.33206 0.67071 0.66445
 H338 H 0.34371 0.65276 0.64775
 N339 N 0.37293 0.18077 1.16737
 N340 N 0.37180 0.16857 1.18198
 C341 C 0.38636 0.17226 1.19449
 C342 C 0.39715 0.18762 1.18730
 C343 C 0.38828 0.19258 1.17006
 H344 H 0.38877 0.16451 1.20789
 H345 H 0.39233 0.20436 1.16052
 Cu346 Cu 0.35127 0.14926 1.18343
 Cu347 Cu 0.35345 0.18166 1.14692
 Cu348 Cu 0.31406 0.15066 1.15196
 N349 N 0.33127 0.12932 1.18328
 N350 N 0.31663 0.13005 1.17106
 C351 C 0.30441 0.11526 1.17474
 C352 C 0.31187 0.10464 1.19008
 C353 C 0.32895 0.11390 1.19505
 H354 H 0.29104 0.11262 1.16694
 H355 H 0.33866 0.10993 1.20674
 N356 N 0.31678 0.16897 1.13022
 N357 N 0.33195 0.18050 1.12807
 C358 C 0.32933 0.19150 1.11214
 C359 C 0.31165 0.18660 1.10387
 C360 C 0.30417 0.17224 1.11565
 H361 H 0.33931 0.20256 1.10723
 H362 H 0.29034 0.16499 1.11388
 H363 H 0.33161 0.17201 1.16443
 H364 H 0.34378 0.15312 1.14926
 N365 N 0.87280 0.68121 1.16615
 N366 N 0.87224 0.66833 1.18020
 C367 C 0.88672 0.67204 1.19281
 C368 C 0.89686 0.68809 1.18624
 C369 C 0.88769 0.69347 1.16928
 H370 H 0.88953 0.66380 1.20583
 H371 H 0.89133 0.70571 1.16017
 Cu372 Cu 0.85233 0.64831 1.18085
 Cu373 Cu 0.85351 0.68186 1.14549
 Cu374 Cu 0.81758 0.64662 1.14669
 N375 N 0.83227 0.62842 1.18120
 N376 N 0.81872 0.62788 1.16778
 C377 C 0.80653 0.61309 1.17153
 C378 C 0.81273 0.60386 1.18817
 C379 C 0.82914 0.61395 1.19396
 H380 H 0.79392 0.60940 1.16293
 H381 H 0.83799 0.61113 1.20659
 N382 N 0.81892 0.66681 1.12651
 N383 N 0.83269 0.68013 1.12594
 C384 C 0.82933 0.69204 1.11081
 C385 C 0.81263 0.68590 1.10147
 C386 C 0.80645 0.66991 1.11179
 H387 H 0.83813 0.70450 1.10718
 H388 H 0.79356 0.66141 1.10892
 H389 H 0.83138 0.66899 1.16115
 H390 H 0.84701 0.65265 1.14621
 N391 N 0.87242 0.18065 0.66710
 N392 N 0.87065 0.16902 0.68210
 C393 C 0.88526 0.17247 0.69460
 C394 C 0.89677 0.18710 0.68700
 C395 C 0.88824 0.19187 0.66953
 H396 H 0.88716 0.16508 0.70828
 H397 H 0.89285 0.20316 0.65967
 Cu398 Cu 0.84916 0.15088 0.68431
 Cu399 Cu 0.85313 0.18169 0.64651
 Cu400 Cu 0.81465 0.14945 0.64997
 N401 N 0.83126 0.12918 0.68222
 N402 N 0.81777 0.12869 0.66875
 C403 C 0.80653 0.11295 0.67144
 C404 C 0.81337 0.10303 0.68751
 C405 C 0.82912 0.11368 0.69392
 H406 H 0.79399 0.10944 0.66268
 H407 H 0.83789 0.11073 0.70659
 N408 N 0.81729 0.16826 0.62870
 N409 N 0.83195 0.18053 0.62732
 C410 C 0.82913 0.19203 0.61178
 C411 C 0.81190 0.18660 0.60294
 C412 C 0.80488 0.17144 0.61395
 H413 H 0.83870 0.20366 0.60743
 H414 H 0.79142 0.16367 0.61163
 H415 H 0.83024 0.17205 0.66271
 H416 H 0.84429 0.15301 0.64951
 N417 N 0.31806 0.37191 0.66793
 N418 N 0.33250 0.37253 0.68041
 C419 C 0.32956 0.38743 0.69268
 C420 C 0.31234 0.39651 0.68770
 C421 C 0.30542 0.38631 0.67189
 H422 H 0.33898 0.39122 0.70463
 H423 H 0.29219 0.38907 0.66388
 Cu424 Cu 0.35315 0.35318 0.67995
 Cu425 Cu 0.31663 0.35240 0.64757
 Cu426 Cu 0.35380 0.31830 0.64606
 N427 N 0.37369 0.33370 0.67925
 N428 N 0.37380 0.32010 0.66593
 C429 C 0.38882 0.30799 0.66920
 C430 C 0.39865 0.31428 0.68543
 C431 C 0.38868 0.33068 0.69148
 H432 H 0.39208 0.29521 0.66073
 H433 H 0.39174 0.33940 0.70410
 N434 N 0.33226 0.31884 0.62725
 N435 N 0.31789 0.33157 0.62803
 C436 C 0.30514 0.32772 0.61373
 C437 C 0.31187 0.31182 0.60347
 C438 C 0.32907 0.30664 0.61238
 H439 H 0.29197 0.33586 0.61099
 H440 H 0.33838 0.29460 0.60844
 H441 H 0.33193 0.33113 0.66220
 H442 H 0.34618 0.34735 0.64584
 N443 N 0.31896 0.87375 0.16753
 N444 N 0.33308 0.87382 0.18038
 C445 C 0.33005 0.88846 0.19293
 C446 C 0.31313 0.89796 0.18773
 C447 C 0.30647 0.88827 0.17150
 H448 H 0.33921 0.89177 0.20522
 H449 H 0.29346 0.89141 0.16326
 Cu450 Cu 0.35359 0.85431 0.18012
 Cu451 Cu 0.31759 0.85465 0.14690
 Cu452 Cu 0.35297 0.81889 0.14650
 N453 N 0.37263 0.83335 0.18018
 N454 N 0.37238 0.81968 0.16692
 C455 C 0.38680 0.80695 0.17051
 C456 C 0.39653 0.81283 0.18693
 C457 C 0.38719 0.82967 0.19274
 H458 H 0.38978 0.79410 0.16203
 H459 H 0.39057 0.83846 0.20524
 N460 N 0.33215 0.82045 0.12702
 N461 N 0.31866 0.83410 0.12716
 C462 C 0.30627 0.83099 0.11239
 C463 C 0.31220 0.81461 0.10254
 C464 C 0.32869 0.80829 0.11218
 H465 H 0.29361 0.83977 0.10916
 H466 H 0.33737 0.79565 0.10882
 H467 H 0.33164 0.83305 0.16235
 H468 H 0.34695 0.84830 0.14593
 N469 N 0.81701 0.37166 0.16852
 N470 N 0.83074 0.37138 0.18174
 C471 C 0.82865 0.38695 0.19332
 C472 C 0.81269 0.39745 0.18709
 C473 C 0.80564 0.38735 0.17125
 H474 H 0.83765 0.39007 0.20578
 H475 H 0.79292 0.39073 0.16268
 Cu476 Cu 0.84892 0.34984 0.18374
 Cu477 Cu 0.81396 0.35078 0.14990
 Cu478 Cu 0.85322 0.31933 0.14583
 N479 N 0.87066 0.33198 0.18140
 N480 N 0.87251 0.32033 0.16646
 C481 C 0.88841 0.30915 0.16895
 C482 C 0.89693 0.31409 0.18643
 C483 C 0.88532 0.32864 0.19389
 H484 H 0.89299 0.29788 0.15906
 H485 H 0.88720 0.33592 0.20762
 N486 N 0.83194 0.32047 0.12669
 N487 N 0.81689 0.33226 0.12845
 C488 C 0.80441 0.32899 0.11381
 C489 C 0.81183 0.31435 0.10238
 C490 C 0.82935 0.30927 0.11092
 H491 H 0.79067 0.33641 0.11180
 H492 H 0.83923 0.29796 0.10631
 H493 H 0.83030 0.32837 0.16228
 H494 H 0.84368 0.34780 0.14901
 N495 N 0.81839 0.87237 0.66790
 N496 N 0.83231 0.87247 0.68097
 C497 C 0.82919 0.88724 0.69334
 C498 C 0.81245 0.89686 0.68777
 C499 C 0.80596 0.88704 0.67154
 H500 H 0.83818 0.89066 0.70572
 H501 H 0.79306 0.89012 0.66313
 Cu502 Cu 0.85270 0.85285 0.68093
 Cu503 Cu 0.81709 0.85291 0.64747
 Cu504 Cu 0.85359 0.81814 0.64680
 N505 N 0.87291 0.83306 0.68055
 N506 N 0.87318 0.81959 0.66710
 C507 C 0.88809 0.80738 0.67051
 C508 C 0.89768 0.81347 0.68696
 C509 C 0.88769 0.82987 0.69298
 H510 H 0.89148 0.79469 0.66195
 H511 H 0.89066 0.83855 0.70565
 N512 N 0.83248 0.81904 0.62757
 N513 N 0.81838 0.83206 0.62801
 C514 C 0.80574 0.82830 0.61359
 C515 C 0.81227 0.81215 0.60362
 C516 C 0.82925 0.80672 0.61280
 H517 H 0.79273 0.83663 0.61065
 H518 H 0.83832 0.79441 0.60920
 H519 H 0.83157 0.83128 0.66257
 H520 H 0.84661 0.84731 0.64668
 N521 N 0.68161 0.62872 0.66866
 N522 N 0.66900 0.62990 0.68293
 C523 C 0.67150 0.61467 0.69489
 C524 C 0.68658 0.60343 0.68784
 C525 C 0.69266 0.61274 0.67110
 H526 H 0.66338 0.61224 0.70810
 H527 H 0.70457 0.60863 0.66173
 Cu528 Cu 0.65130 0.65183 0.68538
 Cu529 Cu 0.68391 0.64909 0.64925
 Cu530 Cu 0.64917 0.68545 0.65014
 N531 N 0.62938 0.66958 0.68309
 N532 N 0.62847 0.68257 0.66917
 C533 C 0.61237 0.69347 0.67157
 C534 C 0.60269 0.68694 0.68793
 C535 C 0.61388 0.67175 0.69482
 H536 H 0.60845 0.70562 0.66246
 H537 H 0.61118 0.66329 0.70775
 N538 N 0.66887 0.68321 0.62948
 N539 N 0.68192 0.66912 0.62891
 C540 C 0.69345 0.67174 0.61335
 C541 C 0.68753 0.68833 0.60380
 C542 C 0.67184 0.69521 0.61436
 H543 H 0.70568 0.66263 0.60951
 H544 H 0.66337 0.70810 0.61141
 H545 H 0.67186 0.67192 0.66417
 H546 H 0.65466 0.65609 0.65064
 N547 N 0.68146 0.12685 0.16764
 N548 N 0.66866 0.12795 0.18175
 C549 C 0.67205 0.11351 0.19449
 C550 C 0.68783 0.10284 0.18793
 C551 C 0.69336 0.11166 0.17086
 H552 H 0.66377 0.11104 0.20757
 H553 H 0.70546 0.10756 0.16170
 Cu554 Cu 0.64905 0.14837 0.18227
 Cu555 Cu 0.68247 0.14575 0.14673
 Cu556 Cu 0.64725 0.18178 0.14670
 N557 N 0.62900 0.16834 0.18167
 N558 N 0.62819 0.18113 0.16755
 C559 C 0.61313 0.19324 0.17068
 C560 C 0.60411 0.18786 0.18772
 C561 C 0.61451 0.17196 0.19433
 H562 H 0.60924 0.20535 0.16149
 H563 H 0.61181 0.16371 0.20737
 N564 N 0.66781 0.18000 0.12687
 N565 N 0.68115 0.16620 0.12684
 C566 C 0.69353 0.16931 0.11203
 C567 C 0.68779 0.18588 0.10236
 C568 C 0.67139 0.19229 0.11210
 H569 H 0.70616 0.16052 0.10878
 H570 H 0.66293 0.20514 0.10896
 H571 H 0.66966 0.16848 0.16165
 H572 H 0.65311 0.15242 0.14744
 N573 N 0.18124 0.62735 0.16754
 N574 N 0.16860 0.62867 0.18178
 C575 C 0.17203 0.61431 0.19460
 C576 C 0.18766 0.60347 0.18796
 C577 C 0.19306 0.61210 0.17075
 H578 H 0.16385 0.61199 0.20777
 H579 H 0.20501 0.60781 0.16148
 Cu580 Cu 0.14901 0.64911 0.18228
 Cu581 Cu 0.18214 0.64603 0.14646
 Cu582 Cu 0.14677 0.68186 0.14606
 N583 N 0.12879 0.66892 0.18134
 N584 N 0.12779 0.68141 0.16698
 C585 C 0.11261 0.69343 0.16993
 C586 C 0.10370 0.68829 0.18710
 C587 C 0.11430 0.67262 0.19397
 H588 H 0.10856 0.70531 0.16052
 H589 H 0.11173 0.66459 0.20717
 N590 N 0.16727 0.67993 0.12620
 N591 N 0.18073 0.66625 0.12636
 C592 C 0.19313 0.66931 0.11157
 C593 C 0.18724 0.68568 0.10166
 C594 C 0.17076 0.69206 0.11128
 H595 H 0.20587 0.66061 0.10847
 H596 H 0.16224 0.70484 0.10801
 H597 H 0.16934 0.66894 0.16113
 H598 H 0.15274 0.65252 0.14736
 N599 N 0.18166 0.12811 0.66759
 N600 N 0.16972 0.12980 0.68239
 C601 C 0.17248 0.11473 0.69452
 C602 C 0.18702 0.10304 0.68691
 C603 C 0.19244 0.11194 0.66981
 H604 H 0.16485 0.11279 0.70807
 H605 H 0.20395 0.10738 0.66013
 Cu606 Cu 0.15247 0.15206 0.68515
 Cu607 Cu 0.18387 0.14825 0.64798
 Cu608 Cu 0.14955 0.18486 0.64917
 N609 N 0.13071 0.17008 0.68312
 N610 N 0.12936 0.18250 0.66872
 C611 C 0.11337 0.19351 0.67115
 C612 C 0.10427 0.18781 0.68804
 C613 C 0.11562 0.17282 0.69528
 H614 H 0.10904 0.20531 0.66175
 H615 H 0.11331 0.16474 0.70850
 N616 N 0.16882 0.18232 0.62821
 N617 N 0.18177 0.16816 0.62754
 C618 C 0.19324 0.17076 0.61193
 C619 C 0.18736 0.18743 0.60248
 C620 C 0.17176 0.19434 0.61312
 H621 H 0.20547 0.16165 0.60806
 H622 H 0.16341 0.20735 0.61034
 H623 H 0.17253 0.17145 0.66289
 H624 H 0.15477 0.15547 0.65022
 N625 N 0.31690 0.62871 0.33124
 N626 N 0.33206 0.62722 0.31971
 C627 C 0.32958 0.61180 0.30800
 C628 C 0.31192 0.60329 0.31237
 C629 C 0.30425 0.61439 0.32723
 H630 H 0.33962 0.60731 0.29680
 H631 H 0.29046 0.61237 0.33451
 Cu632 Cu 0.35304 0.64616 0.32037
 Cu633 Cu 0.31431 0.64950 0.35008
 Cu634 Cu 0.35317 0.68101 0.35459
 N635 N 0.37266 0.66650 0.32070
 N636 N 0.37274 0.67989 0.33423
 C637 C 0.38743 0.69232 0.33082
 C638 C 0.39709 0.68644 0.31431
 C639 C 0.38734 0.66996 0.30822
 H640 H 0.39063 0.70499 0.33946
 H641 H 0.39041 0.66136 0.29550
 N642 N 0.33167 0.67994 0.37343
 N643 N 0.31665 0.66820 0.37147
 C644 C 0.30407 0.67138 0.38609
 C645 C 0.31146 0.68585 0.39774
 C646 C 0.32901 0.69096 0.38931
 H647 H 0.29039 0.66389 0.38805
 H648 H 0.33892 0.70211 0.39411
 H649 H 0.33238 0.66989 0.33660
 H650 H 0.34393 0.65225 0.35379
 N651 N 0.31698 0.12984 0.83096
 N652 N 0.33090 0.12982 0.81790
 C653 C 0.32860 0.11434 0.80625
 C654 C 0.31232 0.10424 0.81225
 C655 C 0.30529 0.11448 0.82803
 H656 H 0.33773 0.11093 0.79395
 H657 H 0.29245 0.11135 0.83651
 Cu658 Cu 0.34982 0.15073 0.81637
 Cu659 Cu 0.31418 0.15055 0.84977
 Cu660 Cu 0.35339 0.18176 0.85403
 N661 N 0.37087 0.16944 0.81831
 N662 N 0.37253 0.18108 0.83327
 C663 C 0.38809 0.19263 0.83069
 C664 C 0.39658 0.18807 0.81315
 C665 C 0.38532 0.17322 0.80567
 H666 H 0.39255 0.20399 0.84051
 H667 H 0.38731 0.16588 0.79199
 N668 N 0.33227 0.18041 0.87330
 N669 N 0.31715 0.16879 0.87142
 C670 C 0.30473 0.17195 0.88616
 C671 C 0.31228 0.18634 0.89780
 C672 C 0.32980 0.19138 0.88925
 H673 H 0.29096 0.16463 0.88813
 H674 H 0.33974 0.20254 0.89395
 H675 H 0.33087 0.17260 0.83721
 H676 H 0.34395 0.15325 0.85101
 N677 N 0.81794 0.62771 0.83167
 N678 N 0.83247 0.62729 0.81928
 C679 C 0.83026 0.61193 0.80745
 C680 C 0.81343 0.60230 0.81264
 C681 C 0.80596 0.61270 0.82811
 H682 H 0.83985 0.60825 0.79559
 H683 H 0.79261 0.60992 0.83593
 Cu684 Cu 0.85220 0.64748 0.81904
 Cu685 Cu 0.81496 0.64846 0.85052
 Cu686 Cu 0.85336 0.68077 0.85464
 N687 N 0.87234 0.66721 0.82010
 N688 N 0.87291 0.67996 0.83423
 C689 C 0.88793 0.69211 0.83126
 C690 C 0.89726 0.68673 0.81438
 C691 C 0.88701 0.67082 0.80766
 H692 H 0.89153 0.70431 0.84041
 H693 H 0.88979 0.66270 0.79458
 N694 N 0.83194 0.67938 0.87358
 N695 N 0.81713 0.66734 0.87181
 C696 C 0.80448 0.67054 0.88636
 C697 C 0.81158 0.68535 0.89777
 C698 C 0.82905 0.69061 0.88928
 H699 H 0.79088 0.66292 0.88839
 H700 H 0.83871 0.70208 0.89385
 H701 H 0.83179 0.67001 0.83745
 H702 H 0.84458 0.65193 0.85310
 N703 N 0.81839 0.12723 0.33190
 N704 N 0.83266 0.12668 0.31920
 C705 C 0.83003 0.11134 0.30741
 C706 C 0.81319 0.10186 0.31308
 C707 C 0.80622 0.11233 0.32863
 H708 H 0.83939 0.10767 0.29538
 H709 H 0.79297 0.10957 0.33663
 Cu710 Cu 0.85287 0.14652 0.31886
 Cu711 Cu 0.81589 0.14810 0.35065
 Cu712 Cu 0.84976 0.18479 0.34906
 N713 N 0.87183 0.16752 0.31821
 N714 N 0.87059 0.18237 0.33009
 C715 C 0.88505 0.19493 0.32616
 C716 C 0.89594 0.18752 0.31099
 C717 C 0.88719 0.17012 0.30636
 H718 H 0.88726 0.20851 0.33365
 H719 H 0.89150 0.16033 0.29490
 N720 N 0.82990 0.18289 0.36960
 N721 N 0.81709 0.16866 0.37035
 C722 C 0.80551 0.17127 0.38587
 C723 C 0.81119 0.18799 0.39523
 C724 C 0.82676 0.19499 0.38459
 H725 H 0.79355 0.16193 0.38992
 H726 H 0.83512 0.20793 0.38745
 H727 H 0.82978 0.16871 0.33369
 H728 H 0.84519 0.15547 0.35183
 N729 N 0.68073 0.37298 0.33308
 N730 N 0.66718 0.37269 0.31965
 C731 C 0.67037 0.38734 0.30712
 C732 C 0.68677 0.39727 0.31299
 C733 C 0.69298 0.38779 0.32956
 H734 H 0.66170 0.39039 0.29441
 H735 H 0.70560 0.39115 0.33826
 Cu736 Cu 0.64736 0.35258 0.31939
 Cu737 Cu 0.68195 0.35373 0.35369
 Cu738 Cu 0.64680 0.31763 0.35336
 N739 N 0.62765 0.33236 0.31936
 N740 N 0.62774 0.31853 0.33250
 C741 C 0.61325 0.30599 0.32871
 C742 C 0.60354 0.31235 0.31232
 C743 C 0.61300 0.32913 0.30683
 H744 H 0.61010 0.29319 0.33720
 H745 H 0.60965 0.33803 0.29436
 N746 N 0.66731 0.31930 0.37327
 N747 N 0.68071 0.33300 0.37332
 C748 C 0.69286 0.32994 0.38832
 C749 C 0.68681 0.31363 0.39819
 C750 C 0.67055 0.30721 0.38827
 H751 H 0.70541 0.33875 0.39173
 H752 H 0.66196 0.29450 0.39148
 H753 H 0.66872 0.33160 0.33836
 H754 H 0.65263 0.34698 0.35383
 N755 N 0.68048 0.87271 0.83164
 N756 N 0.66793 0.87148 0.81734
 C757 C 0.67029 0.88678 0.80545
 C758 C 0.68518 0.89812 0.81261
 C759 C 0.69131 0.88880 0.82932
 H760 H 0.66226 0.88915 0.79219
 H761 H 0.70320 0.89292 0.83868
 Cu762 Cu 0.65067 0.84932 0.81466
 Cu763 Cu 0.68322 0.85217 0.85076
 Cu764 Cu 0.64975 0.81481 0.84914
 N765 N 0.62942 0.83084 0.81658
 N766 N 0.62912 0.81731 0.83001
 C767 C 0.61356 0.80582 0.82719
 C768 C 0.60356 0.81259 0.81112
 C769 C 0.61396 0.82853 0.80485
 H770 H 0.61008 0.79329 0.83594
 H771 H 0.61082 0.83737 0.79228
 N772 N 0.66917 0.81741 0.87000
 N773 N 0.68176 0.83185 0.87079
 C774 C 0.69324 0.82942 0.88641
 C775 C 0.68774 0.81262 0.89579
 C776 C 0.67237 0.80539 0.88507
 H777 H 0.70513 0.83885 0.89043
 H778 H 0.66427 0.79225 0.88783
 H779 H 0.67189 0.82934 0.83535
 H780 H 0.65417 0.84433 0.84927
 N781 N 0.18149 0.37081 0.83167
 N782 N 0.16925 0.36949 0.81711
 C783 C 0.17225 0.38444 0.80490
 C784 C 0.18722 0.39568 0.81224
 C785 C 0.19264 0.38667 0.82928
 H786 H 0.16439 0.38672 0.79154
 H787 H 0.20442 0.39090 0.83875
 Cu788 Cu 0.15116 0.34788 0.81481
 Cu789 Cu 0.18360 0.35053 0.85115
 Cu790 Cu 0.14980 0.31357 0.84957
 N791 N 0.12980 0.32944 0.81673
 N792 N 0.12942 0.31598 0.83022
 C793 C 0.11389 0.30446 0.82738
 C794 C 0.10398 0.31111 0.81123
 C795 C 0.11439 0.32705 0.80493
 H796 H 0.11035 0.29199 0.83620
 H797 H 0.11131 0.33581 0.79230
 N798 N 0.16892 0.31624 0.87065
 N799 N 0.18174 0.33046 0.87140
 C800 C 0.19305 0.32800 0.88715
 C801 C 0.18703 0.31139 0.89672
 C802 C 0.17170 0.30439 0.88591
 H803 H 0.20504 0.33732 0.89107
 H804 H 0.16347 0.29134 0.88878
 H805 H 0.17212 0.32783 0.83566
 H806 H 0.15446 0.34304 0.84948
 N807 N 0.17959 0.87328 0.33364
 N808 N 0.16595 0.87307 0.32030
 C809 C 0.16904 0.88782 0.30786
 C810 C 0.18543 0.89778 0.31375
 C811 C 0.19176 0.88816 0.33019
 H812 H 0.16029 0.89092 0.29522
 H813 H 0.20451 0.89138 0.33876
 Cu814 Cu 0.14589 0.85317 0.32001
 Cu815 Cu 0.18123 0.85361 0.35377
 Cu816 Cu 0.14710 0.81671 0.35255
 N817 N 0.12700 0.83217 0.31949
 N818 N 0.12772 0.81784 0.33204
 C819 C 0.11344 0.80510 0.32806
 C820 C 0.10323 0.81185 0.31214
 C821 C 0.11218 0.82906 0.30713
 H822 H 0.11074 0.79195 0.33616
 H823 H 0.10831 0.83840 0.29514
 N824 N 0.16779 0.81816 0.37224
 N825 N 0.18059 0.83241 0.37288
 C826 C 0.19281 0.82932 0.38781
 C827 C 0.18755 0.81230 0.39692
 C828 C 0.17160 0.80559 0.38672
 H829 H 0.20492 0.83854 0.39164
 H830 H 0.16342 0.79251 0.38954
 H831 H 0.16818 0.83196 0.33757
 H832 H 0.15204 0.84618 0.35411
 C833 C 0.24828 0.94001 0.26252
 C834 C 0.26268 0.94033 0.24878
 C835 C 0.26334 0.95909 0.24157
 N836 N 0.24991 0.97025 0.25056
 C837 C 0.24076 0.95867 0.26349
 C838 C 0.27534 0.96525 0.22609
 C839 C 0.27761 0.98489 0.22059
 C840 C 0.28633 0.99101 0.20353
 C841 C 0.28621 1.01095 0.20378
 C842 C 0.27741 1.01649 0.22099
 N843 N 0.27236 1.00052 0.23123
 C844 C 0.27498 1.03591 0.22708
 C845 C 0.26295 1.04134 0.24278
 C846 C 0.26288 1.05947 0.25143
 C847 C 0.24841 1.05919 0.26510
 C848 C 0.24010 1.04090 0.26435
 N849 N 0.24901 1.03001 0.25069
 C850 C 0.22385 1.03490 0.27539
 C851 C 0.21785 1.01536 0.27686
 C852 C 0.20027 1.00933 0.28466
 C853 C 0.20046 0.98938 0.28448
 C854 C 0.21813 0.98375 0.27650
 N855 N 0.22869 0.99969 0.27203
 C856 C 0.22464 0.96434 0.27495
 H857 H 0.24376 0.92734 0.27058
 H858 H 0.27149 0.92804 0.24446
 H859 H 0.24328 0.99987 0.26808
 H860 H 0.29217 0.98205 0.19204
 H861 H 0.29194 1.02029 0.19254
 H862 H 0.27229 1.07164 0.24826
 H863 H 0.24449 1.07110 0.27453
 H864 H 0.18896 0.98011 0.28986
 H865 H 0.26747 1.00031 0.24546
 H866 H 0.18858 1.01835 0.29010
 C867 C 0.24805 0.55864 0.76370
 C868 C 0.26233 0.55877 0.74983
 C869 C 0.26227 0.54055 0.74137
 N870 N 0.24845 0.52930 0.74960
 C871 C 0.23974 0.54034 0.76327
 C872 C 0.27408 0.53496 0.72554
 C873 C 0.27632 0.51549 0.71951
 C874 C 0.28491 0.50980 0.70224
 C875 C 0.28494 0.48985 0.70211
 C876 C 0.27637 0.48387 0.71930
 N877 N 0.27131 0.49960 0.72989
 C878 C 0.27425 0.46431 0.72509
 C879 C 0.26250 0.45845 0.74086
 C880 C 0.26276 0.44013 0.74916
 C881 C 0.24854 0.44000 0.76308
 C882 C 0.24002 0.45825 0.76284
 N883 N 0.24857 0.46950 0.74923
 C884 C 0.22394 0.46389 0.77434
 C885 C 0.21784 0.48336 0.77639
 C886 C 0.20035 0.48911 0.78467
 C887 C 0.20029 0.50906 0.78476
 C888 C 0.21773 0.51496 0.77654
 N889 N 0.22839 0.49921 0.77160
 C890 C 0.22369 0.53447 0.77466
 H891 H 0.24426 0.57066 0.77304
 H892 H 0.27170 0.57091 0.74641
 H893 H 0.24285 0.49926 0.76718
 H894 H 0.29058 0.51905 0.69090
 H895 H 0.29064 0.48078 0.69064
 H896 H 0.27226 0.42810 0.74561
 H897 H 0.24493 0.42786 0.77236
 H898 H 0.18872 0.51818 0.79031
 H899 H 0.26659 0.49947 0.74418
 H900 H 0.18884 0.47991 0.79013
 C901 C 0.74616 -0.06107 0.24006
 C902 C 0.76030 -0.06111 0.25403
 C903 C 0.76252 -0.04205 0.26002
 N904 N 0.75002 -0.03045 0.25026
 C905 C 0.74013 -0.04198 0.23788
 C906 C 0.77470 -0.03599 0.27541
 C907 C 0.77655 -0.01645 0.28141
 C908 C 0.78530 -0.01059 0.29853
 C909 C 0.78538 0.00935 0.29843
 C910 C 0.77670 0.01519 0.28126
 N911 N 0.77151 -0.00064 0.27090
 C912 C 0.77518 0.03467 0.27495
 C913 C 0.76318 0.04066 0.25940
 C914 C 0.76217 0.05940 0.25212
 C915 C 0.74792 0.05940 0.23825
 C916 C 0.74042 0.04076 0.23768
 N917 N 0.74974 0.02936 0.25065
 C918 C 0.72453 0.03489 0.22607
 C919 C 0.71865 0.01536 0.22391
 C920 C 0.70137 0.00958 0.21532
 C921 C 0.70137 -0.01035 0.21527
 C922 C 0.71862 -0.01627 0.22392
 N923 N 0.72914 -0.00049 0.22897
 C924 C 0.72460 -0.03584 0.22584
 H925 H 0.74061 -0.07382 0.23282
 H926 H 0.76760 -0.07390 0.25951
 H927 H 0.74351 -0.00051 0.23359
 H928 H 0.79129 -0.01968 0.30984
 H929 H 0.79148 0.01846 0.30963
 H930 H 0.77058 0.07191 0.25643
 H931 H 0.74349 0.07183 0.22972
 H932 H 0.68997 -0.01941 0.20940
 H933 H 0.76702 -0.00064 0.25656
 H934 H 0.68995 0.01877 0.20957
 C935 C 0.74294 0.43875 0.74281
 C936 C 0.75817 0.43877 0.75557
 C937 C 0.76247 0.45803 0.75940
 N938 N 0.75050 0.46972 0.74910
 C939 C 0.73857 0.45801 0.73887
 C940 C 0.77697 0.46430 0.77257
 C941 C 0.78143 0.48398 0.77658
 C942 C 0.79373 0.48986 0.79137
 C943 C 0.79360 0.50976 0.79143
 C944 C 0.78121 0.51565 0.77667
 N945 N 0.77417 0.49982 0.76743
 C946 C 0.77654 0.53532 0.77273
 C947 C 0.76203 0.54158 0.75951
 C948 C 0.75769 0.56083 0.75555
 C949 C 0.74250 0.56082 0.74274
 C950 C 0.73818 0.54156 0.73893
 N951 N 0.75012 0.52987 0.74926
 C952 C 0.72362 0.53528 0.72581
 C953 C 0.71915 0.51561 0.72182
 C954 C 0.70674 0.50972 0.70713
 C955 C 0.70686 0.48982 0.70709
 C956 C 0.71933 0.48393 0.72177
 N957 N 0.72646 0.49977 0.73093
 C958 C 0.72398 0.46426 0.72574
 H959 H 0.73596 0.42592 0.73712
 H960 H 0.76516 0.42595 0.76137
 H961 H 0.73488 0.49976 0.74334
 H962 H 0.80167 0.48079 0.80144
 H963 H 0.80141 0.51883 0.80155
 H964 H 0.76466 0.57366 0.76126
 H965 H 0.73553 0.57364 0.73690
 H966 H 0.69896 0.48074 0.69703
 H967 H 0.76583 0.49983 0.75496
 H968 H 0.69874 0.51880 0.69710
 C969 C 0.24869 0.44076 0.23692
 C970 C 0.26296 0.44074 0.25077
 C971 C 0.26268 0.45895 0.25925
 N972 N 0.24871 0.47008 0.25106
 C973 C 0.24014 0.45898 0.23739
 C974 C 0.27442 0.46462 0.27507
 C975 C 0.27651 0.48410 0.28105
 C976 C 0.28504 0.48987 0.29830
 C977 C 0.28498 0.50983 0.29834
 C978 C 0.27643 0.51571 0.28112
 N979 N 0.27144 0.49994 0.27060
 C980 C 0.27423 0.53523 0.27522
 C981 C 0.26245 0.54096 0.25944
 C982 C 0.26266 0.55920 0.25096
 C983 C 0.24838 0.55922 0.23712
 C984 C 0.23989 0.54100 0.23759
 N985 N 0.24851 0.52985 0.25125
 C986 C 0.22375 0.53529 0.22627
 C987 C 0.21773 0.51581 0.22434
 C988 C 0.20022 0.50999 0.21623
 C989 C 0.20029 0.49004 0.21616
 C990 C 0.21784 0.48420 0.22423
 N991 N 0.22843 0.50000 0.22906
 C992 C 0.22398 0.46472 0.22606
 H993 H 0.24507 0.42872 0.22755
 H994 H 0.27248 0.42868 0.25417
 H995 H 0.24291 0.50001 0.23335
 H996 H 0.29074 0.48068 0.30968
 H997 H 0.29064 0.51895 0.30977
 H998 H 0.27216 0.57123 0.25434
 H999 H 0.24471 0.57128 0.22775
 H1000 H 0.18874 0.48088 0.21073
 H1001 H 0.26674 0.49998 0.25631
 H1002 H 0.18861 0.51916 0.21086
 C1003 C 0.75670 0.93928 0.74463
 C1004 C 0.74240 0.93958 0.75846
 C1005 C 0.73782 0.95891 0.76168
 N1006 N 0.74880 0.97034 0.75012
 C1007 C 0.76036 0.95843 0.73964
 C1008 C 0.72299 0.96548 0.77436
 C1009 C 0.71768 0.98519 0.77686
 C1010 C 0.70116 0.99134 0.78668
 C1011 C 0.70142 1.01124 0.78660
 C1012 C 0.71808 1.01685 0.77672
 N1013 N 0.72804 1.00085 0.77105
 C1014 C 0.72387 1.03638 0.77401
 C1015 C 0.73881 1.04240 0.76119
 C1016 C 0.74381 1.06157 0.75766
 C1017 C 0.75808 1.06131 0.74380
 C1018 C 0.76133 1.04200 0.73914
 N1019 N 0.74951 1.03054 0.74981
 C1020 C 0.77540 1.03547 0.72558
 C1021 C 0.78004 1.01572 0.72204
 C1022 C 0.79530 1.00958 0.71037
 C1023 C 0.79507 0.98966 0.71048
 C1024 C 0.77967 0.98402 0.72221
 N1025 N 0.77044 1.00003 0.72896
 C1026 C 0.77456 0.96442 0.72597
 H1027 H 0.76365 0.92635 0.73906
 H1028 H 0.73600 0.92691 0.76516
 H1029 H 0.75756 1.00024 0.73667
 H1030 H 0.69006 0.98243 0.79335
 H1031 H 0.69054 1.02050 0.79320
 H1032 H 0.73771 1.07449 0.76416
 H1033 H 0.76530 1.07398 0.73798
 H1034 H 0.80519 0.98044 0.70275
 H1035 H 0.74204 1.00063 0.76546
 H1036 H 0.80561 1.01848 0.70254
 C1037 C 0.74309 0.56132 0.25844
 C1038 C 0.75780 0.56151 0.24507
 C1039 C 0.76212 0.54231 0.24087
 N1040 N 0.75033 0.53047 0.25116
 C1041 C 0.73863 0.54201 0.26189
 C1042 C 0.77609 0.53623 0.22701
 C1043 C 0.77980 0.51662 0.22196
 C1044 C 0.79135 0.51095 0.20646
 C1045 C 0.79137 0.49106 0.20618
 C1046 C 0.77989 0.48495 0.22155
 N1047 N 0.77317 0.50064 0.23130
 C1048 C 0.77590 0.46521 0.22574
 C1049 C 0.76200 0.45873 0.23947
 C1050 C 0.75801 0.43942 0.24344
 C1051 C 0.74326 0.43922 0.25677
 C1052 C 0.73890 0.45843 0.26092
 N1053 N 0.75034 0.47028 0.25025
 C1054 C 0.72475 0.46452 0.27459
 C1055 C 0.72051 0.48413 0.27917
 C1056 C 0.70855 0.48980 0.29435
 C1057 C 0.70854 0.50970 0.29464
 C1058 C 0.72054 0.51581 0.27967
 N1059 N 0.72749 0.50011 0.27008
 C1060 C 0.72442 0.53555 0.27533
 H1061 H 0.73657 0.57405 0.26491
 H1062 H 0.76436 0.57444 0.23905
 H1063 H 0.73537 0.50029 0.25732
 H1064 H 0.79891 0.52015 0.19623
 H1065 H 0.79881 0.48212 0.19563
 H1066 H 0.76488 0.42668 0.23734
 H1067 H 0.73662 0.42631 0.26271
 H1068 H 0.70069 0.51862 0.30491
 H1069 H 0.76578 0.50044 0.24437
 H1070 H 0.70083 0.48057 0.30444
 C1071 C 0.25875 0.06113 0.75504
 C1072 C 0.24502 0.06096 0.74069
 C1073 C 0.23936 0.04181 0.73833
 N1074 N 0.24936 0.03031 0.75071
 C1075 C 0.26121 0.04206 0.76101
 C1076 C 0.22498 0.03545 0.72507
 C1077 C 0.22035 0.01574 0.72151
 C1078 C 0.20474 0.00971 0.71031
 C1079 C 0.20495 -0.01020 0.71036
 C1080 C 0.22061 -0.01595 0.72170
 N1081 N 0.23012 -0.00001 0.72816
 C1082 C 0.22550 -0.03558 0.72558
 C1083 C 0.23930 -0.04169 0.73959
 C1084 C 0.24205 -0.06080 0.74531
 C1085 C 0.25580 -0.06062 0.75964
 C1086 C 0.26115 -0.04142 0.76226
 N1087 N 0.25097 -0.02991 0.75005
 C1088 C 0.27538 -0.03505 0.77566
 C1089 C 0.27986 -0.01535 0.77943
 C1090 C 0.29523 -0.00932 0.79096
 C1091 C 0.29503 0.01058 0.79090
 C1092 C 0.27961 0.01633 0.77924
 N1093 N 0.27023 0.00040 0.77259
 C1094 C 0.27487 0.03595 0.77516
 H1095 H 0.26640 0.07386 0.76010
 H1096 H 0.24003 0.07355 0.73274
 H1097 H 0.25726 0.00026 0.76501
 H1098 H 0.19413 0.01870 0.70296
 H1099 H 0.19454 -0.01934 0.70299
 H1100 H 0.23457 -0.07358 0.74013
 H1101 H 0.26099 -0.07325 0.76742
 H1102 H 0.30530 0.01973 0.79846
 H1103 H 0.24332 0.00014 0.73537
 H1104 H 0.30569 -0.01832 0.79851
 C1105 C 0.24572 0.26030 1.06073
 C1106 C 0.25966 0.24606 1.06091
 C1107 C 0.26185 0.23985 1.04193
 N1108 N 0.24952 0.24974 1.03026
 C1109 C 0.23978 0.26241 1.04165
 C1110 C 0.27388 0.22424 1.03602
 C1111 C 0.27589 0.21810 1.01657
 C1112 C 0.28477 0.20094 1.01088
 C1113 C 0.28493 0.20085 0.99098
 C1114 C 0.27613 0.21795 0.98498
 N1115 N 0.27083 0.22845 1.00067
 C1116 C 0.27439 0.22389 0.96543
 C1117 C 0.26232 0.23935 0.95915
 C1118 C 0.26026 0.24525 0.94005
 C1119 C 0.24623 0.25939 0.93987
 C1120 C 0.24010 0.26176 0.95886
 N1121 N 0.24982 0.24933 0.97055
 C1122 C 0.22467 0.27405 0.96479
 C1123 C 0.21859 0.27618 0.98426
 C1124 C 0.20148 0.28525 0.98997
 C1125 C 0.20143 0.28543 1.00987
 C1126 C 0.21850 0.27647 1.01585
 N1127 N 0.22896 0.27105 1.00013
 C1128 C 0.22445 0.27467 1.03539
 H1129 H 0.24025 0.26777 1.07338
 H1130 H 0.26687 0.24057 1.07371
 H1131 H 0.24327 0.26625 1.00022
 H1132 H 0.29078 0.18971 1.02008
 H1133 H 0.29108 0.18953 0.98200
 H1134 H 0.26762 0.23961 0.92740
 H1135 H 0.24083 0.26662 0.92704
 H1136 H 0.19015 0.29169 1.01886
 H1137 H 0.26617 0.24276 1.00055
 H1138 H 0.19026 0.29133 0.98080
 C1139 C 0.26151 0.74681 0.44053
 C1140 C 0.24791 0.76137 0.44043
 C1141 C 0.24042 0.76243 0.45904
 N1142 N 0.24910 0.74907 0.47051
 C1143 C 0.26213 0.73958 0.45927
 C1144 C 0.22502 0.77479 0.46483
 C1145 C 0.21943 0.77757 0.48434
 C1146 C 0.20244 0.78679 0.49015
 C1147 C 0.20253 0.78701 0.51005
 C1148 C 0.21957 0.77791 0.51590
 N1149 N 0.22989 0.77238 0.50013
 C1150 C 0.22530 0.77549 0.53541
 C1151 C 0.24068 0.76319 0.54138
 C1152 C 0.24806 0.76232 0.56003
 C1153 C 0.26163 0.74772 0.56019
 C1154 C 0.26231 0.74028 0.54155
 N1155 N 0.24936 0.74967 0.53013
 C1156 C 0.27352 0.72405 0.53575
 C1157 C 0.27464 0.71748 0.51639
 C1158 C 0.28240 0.69979 0.51070
 C1159 C 0.28236 0.69962 0.49078
 C1160 C 0.27456 0.71722 0.48481
 N1161 N 0.27002 0.72804 0.50051
 C1162 C 0.27339 0.72348 0.46533
 H1163 H 0.26975 0.74201 0.42807
 H1164 H 0.24389 0.77005 0.42799
 H1165 H 0.26635 0.74265 0.50036
 H1166 H 0.19108 0.79269 0.48101
 H1167 H 0.19127 0.79312 0.51917
 H1168 H 0.24395 0.77111 0.57235
 H1169 H 0.26976 0.74302 0.57275
 H1170 H 0.28780 0.68800 0.48175
 H1171 H 0.24406 0.76712 0.50013
 H1172 H 0.28789 0.68831 0.51991
 C1173 C 0.24333 0.74362 -0.06095
 C1174 C 0.25621 0.75875 -0.06096
 C1175 C 0.26095 0.76231 -0.04178
 N1176 N 0.25113 0.74999 -0.03011
 C1177 C 0.24026 0.73857 -0.04174
 C1178 C 0.27464 0.77634 -0.03556
 C1179 C 0.27895 0.78046 -0.01592
 C1180 C 0.29441 0.79193 -0.01001
 C1181 C 0.29423 0.79206 0.00985
 C1182 C 0.27866 0.78066 0.01568
 N1183 N 0.26920 0.77392 -0.00014
 C1184 C 0.27402 0.77677 0.03531
 C1185 C 0.26031 0.76275 0.04156
 C1186 C 0.25550 0.75924 0.06075
 C1187 C 0.24270 0.74405 0.06080
 C1188 C 0.23972 0.73892 0.04161
 N1189 N 0.25059 0.75035 0.02994
 C1190 C 0.22709 0.72391 0.03538
 C1191 C 0.22374 0.71879 0.01578
 C1192 C 0.20990 0.70540 0.00988
 C1193 C 0.21004 0.70531 -0.00999
 C1194 C 0.22395 0.71866 -0.01585
 N1195 N 0.23250 0.72650 -0.00003
 C1196 C 0.22755 0.72364 -0.03547
 H1197 H 0.23700 0.73715 -0.07374
 H1198 H 0.26148 0.76618 -0.07373
 H1199 H 0.24407 0.73603 -0.00002
 H1200 H 0.30502 0.79919 -0.01905
 H1201 H 0.30467 0.79944 0.01896
 H1202 H 0.26072 0.76670 0.07349
 H1203 H 0.23638 0.73758 0.07362
 H1204 H 0.20051 0.69675 -0.01905
 H1205 H 0.25606 0.76655 -0.00019
 H1206 H 0.20026 0.69691 0.01892
 C1207 C 0.24802 0.23868 0.43987
 C1208 C 0.26222 0.25261 0.44008
 C1209 C 0.26280 0.25994 0.45876
 N1210 N 0.24951 0.25083 0.46997
 C1211 C 0.24054 0.23770 0.45850
 C1212 C 0.27461 0.27561 0.46478
 C1213 C 0.27681 0.28131 0.48432
 C1214 C 0.28545 0.29847 0.49026
 C1215 C 0.28526 0.29841 0.51017
 C1216 C 0.27652 0.28121 0.51588
 N1217 N 0.27157 0.27079 0.50004
 C1218 C 0.27410 0.27526 0.53533
 C1219 C 0.26224 0.25948 0.54091
 C1220 C 0.26226 0.25098 0.55911
 C1221 C 0.24805 0.23705 0.55892
 C1222 C 0.23979 0.23751 0.54062
 N1223 N 0.24847 0.25124 0.52963
 C1224 C 0.22380 0.22608 0.53468
 C1225 C 0.21785 0.22437 0.51518
 C1226 C 0.20043 0.21622 0.50920
 C1227 C 0.20062 0.21627 0.48929
 C1228 C 0.21815 0.22450 0.48362
 N1229 N 0.22861 0.22926 0.49951
 C1230 C 0.22462 0.22604 0.46425
 H1231 H 0.24360 0.23050 0.42728
 H1232 H 0.27094 0.25698 0.42778
 H1233 H 0.24312 0.23346 0.49969
 H1234 H 0.29126 0.30990 0.48120
 H1235 H 0.29091 0.30977 0.51938
 H1236 H 0.27159 0.25438 0.57126
 H1237 H 0.24429 0.22763 0.57090
 H1238 H 0.18923 0.21064 0.48007
 H1239 H 0.26673 0.25654 0.49998
 H1240 H 0.18883 0.21065 0.51824
 C1241 C 0.74767 0.76204 0.93973
 C1242 C 0.76115 0.74736 0.93979
 C1243 C 0.76178 0.74016 0.95854
 N1244 N 0.74889 0.74978 0.96982
 C1245 C 0.74028 0.76320 0.95838
 C1246 C 0.77294 0.72397 0.96459
 C1247 C 0.77412 0.71771 0.98406
 C1248 C 0.78191 0.70011 0.99001
 C1249 C 0.78200 0.70027 1.00992
 C1250 C 0.77425 0.71796 1.01563
 N1251 N 0.76962 0.72854 0.99977
 C1252 C 0.77318 0.72451 1.03501
 C1253 C 0.76196 0.74071 1.04088
 C1254 C 0.76118 0.74800 1.05958
 C1255 C 0.74767 0.76265 1.05947
 C1256 C 0.74042 0.76372 1.04077
 N1257 N 0.74911 0.75026 1.02947
 C1258 C 0.72518 0.77619 1.03480
 C1259 C 0.71955 0.77878 1.01527
 C1260 C 0.70264 0.78811 1.00942
 C1261 C 0.70257 0.78795 0.98952
 C1262 C 0.71945 0.77854 0.98371
 N1263 N 0.72983 0.77317 0.99951
 C1264 C 0.72500 0.77569 0.96419
 H1265 H 0.74366 0.77071 0.92728
 H1266 H 0.76928 0.74245 0.92731
 H1267 H 0.74392 0.76773 0.99950
 H1268 H 0.78735 0.68849 0.98097
 H1269 H 0.78751 0.68878 1.01909
 H1270 H 0.76921 0.74315 1.07215
 H1271 H 0.74353 0.77135 1.07183
 H1272 H 0.69130 0.79402 0.98039
 H1273 H 0.76599 0.74316 0.99965
 H1274 H 0.69142 0.79432 1.01854
 C1275 C 0.73790 0.25204 0.43997
 C1276 C 0.75171 0.23769 0.43982
 C1277 C 0.75915 0.23658 0.45844
 N1278 N 0.75025 0.24972 0.46996
 C1279 C 0.73711 0.25911 0.45876
 C1280 C 0.77470 0.22436 0.46416
 C1281 C 0.78041 0.22157 0.48363
 C1282 C 0.79744 0.21235 0.48932
 C1283 C 0.79750 0.21216 0.50921
 C1284 C 0.78052 0.22127 0.51519
 N1285 N 0.77007 0.22678 0.49950
 C1286 C 0.77497 0.22373 0.53475
 C1287 C 0.75962 0.23599 0.54086
 C1288 C 0.75258 0.23699 0.55964
 C1289 C 0.73884 0.25142 0.55987
 C1290 C 0.73770 0.25864 0.54114
 N1291 N 0.75056 0.24928 0.52961
 C1292 C 0.72613 0.27463 0.53535
 C1293 C 0.72466 0.28107 0.51594
 C1294 C 0.71650 0.29859 0.51024
 C1295 C 0.71635 0.29870 0.49033
 C1296 C 0.72443 0.28124 0.48436
 N1297 N 0.72932 0.27054 0.50007
 C1298 C 0.72559 0.27501 0.46489
 H1299 H 0.72969 0.25684 0.42750
 H1300 H 0.75591 0.22919 0.42733
 H1301 H 0.73326 0.25600 0.49996
 H1302 H 0.80872 0.20644 0.48010
 H1303 H 0.80885 0.20607 0.51825
 H1304 H 0.75701 0.22839 0.57200
 H1305 H 0.73091 0.25617 0.57254
 H1306 H 0.71060 0.31021 0.48132
 H1307 H 0.75592 0.23204 0.49961
 H1308 H 0.71088 0.31001 0.51943
 C1309 C 0.74493 0.24106 -0.06092
 C1310 C 0.75775 0.25624 -0.06111
 C1311 C 0.76077 0.26152 -0.04197
 N1312 N 0.74990 0.25019 -0.03019
 C1313 C 0.74017 0.23769 -0.04170
 C1314 C 0.77333 0.27665 -0.03588
 C1315 C 0.77672 0.28195 -0.01631
 C1316 C 0.79017 0.29578 -0.01056
 C1317 C 0.79024 0.29588 0.00932
 C1318 C 0.77684 0.28209 0.01534
 N1319 N 0.76842 0.27395 -0.00040
 C1320 C 0.77362 0.27695 0.03500
 C1321 C 0.76117 0.26184 0.04139
 C1322 C 0.75849 0.25660 0.06062
 C1323 C 0.74566 0.24143 0.06075
 C1324 C 0.74057 0.23801 0.04163
 N1325 N 0.75011 0.25048 0.02988
 C1326 C 0.72678 0.22403 0.03555
 C1327 C 0.72212 0.22005 0.01596
 C1328 C 0.70648 0.20873 0.01023
 C1329 C 0.70639 0.20864 -0.00963
 C1330 C 0.72199 0.21990 -0.01564
 N1331 N 0.73173 0.22653 0.00008
 C1332 C 0.72646 0.22374 -0.03531
 H1333 H 0.73965 0.23351 -0.07360
 H1334 H 0.76402 0.26262 -0.07400
 H1335 H 0.74497 0.23371 -0.00003
 H1336 H 0.79943 0.30458 -0.01970
 H1337 H 0.79955 0.30476 0.01829
 H1338 H 0.76503 0.26300 0.07334
 H1339 H 0.74061 0.23390 0.07355
 H1340 H 0.69578 0.20136 -0.01862
 H1341 H 0.75735 0.26387 -0.00028
 H1342 H 0.69593 0.20153 0.01940
 C1343 C 0.74814 0.73853 0.44050
 C1344 C 0.76223 0.75257 0.44064
 C1345 C 0.76282 0.75992 0.45930
 N1346 N 0.74964 0.75072 0.47058
 C1347 C 0.74074 0.73750 0.45917
 C1348 C 0.77456 0.77566 0.46527
 C1349 C 0.77675 0.78139 0.48480
 C1350 C 0.78533 0.79860 0.49070
 C1351 C 0.78520 0.79855 0.51061
 C1352 C 0.77654 0.78132 0.51635
 N1353 N 0.77159 0.77087 0.50054
 C1354 C 0.77422 0.77538 0.53581
 C1355 C 0.76235 0.75963 0.54148
 C1356 C 0.76237 0.75123 0.55973
 C1357 C 0.74814 0.73732 0.55962
 C1358 C 0.73987 0.73768 0.54132
 N1359 N 0.74857 0.75134 0.53025
 C1360 C 0.72389 0.72622 0.53545
 C1361 C 0.71804 0.72431 0.51593
 C1362 C 0.70067 0.71604 0.50996
 C1363 C 0.70092 0.71596 0.49005
 C1364 C 0.71842 0.72424 0.48437
 N1365 N 0.72882 0.72915 0.50025
 C1366 C 0.72491 0.72573 0.46498
 H1367 H 0.74375 0.73033 0.42792
 H1368 H 0.77088 0.75698 0.42830
 H1369 H 0.74330 0.73344 0.50043
 H1370 H 0.79108 0.81004 0.48162
 H1371 H 0.79083 0.80995 0.51979
 H1372 H 0.77170 0.75470 0.57185
 H1373 H 0.74438 0.72797 0.57165
 H1374 H 0.68957 0.71022 0.48085
 H1375 H 0.76682 0.75659 0.50052
 H1376 H 0.68908 0.71047 0.51900
 C1377 C 1.05932 0.25232 0.23696
 C1378 C 1.05930 0.23780 0.25054
 C1379 C 1.04084 0.23756 0.25865
 N1380 N 1.02960 0.25147 0.25052
 C1381 C 1.04087 0.26050 0.23723
 C1382 C 1.03499 0.22537 0.27406
 C1383 C 1.01536 0.22287 0.27965
 C1384 C 1.00940 0.21392 0.29663
 C1385 C 0.98939 0.21381 0.29643
 C1386 C 0.98364 0.22269 0.27932
 N1387 N 0.99958 0.22802 0.26909
 C1388 C 0.96407 0.22504 0.27341
 C1389 C 0.95824 0.23706 0.25782
 C1390 C 0.93960 0.23777 0.25018
 C1391 C 0.93960 0.25216 0.23646
 C1392 C 0.95833 0.25963 0.23593
 N1393 N 0.96964 0.25046 0.24912
 C1394 C 0.96426 0.27571 0.22464
 C1395 C 0.98373 0.28224 0.22358
 C1396 C 0.98949 0.29985 0.21571
 C1397 C 1.00950 0.30008 0.21605
 C1398 C 1.01544 0.28260 0.22406
 N1399 N 0.99966 0.27177 0.22850
 C1400 C 1.03503 0.27667 0.22603
 H1401 H 1.07153 0.25633 0.22791
 H1402 H 1.07149 0.22845 0.25399
 H1403 H 0.99981 0.25724 0.23248
 H1404 H 1.01851 0.20809 0.30803
 H1405 H 0.98014 0.20789 0.30766
 H1406 H 0.92719 0.22901 0.25419
 H1407 H 0.92709 0.25670 0.22810
 H1408 H 1.01864 0.31174 0.21080
 H1409 H 0.99972 0.23306 0.25492
 H1410 H 0.98028 0.31127 0.21004
 C1411 C 0.43999 0.26313 0.74847
 C1412 C 0.43992 0.24925 0.76268
 C1413 C 0.45858 0.24163 0.76345
 N1414 N 0.47007 0.25053 0.75026
 C1415 C 0.45879 0.26381 0.74117
 C1416 C 0.46437 0.22592 0.77534
 C1417 C 0.48395 0.21997 0.77768
 C1418 C 0.48968 0.20273 0.78637
 C1419 C 0.50969 0.20255 0.78637
 C1420 C 0.51566 0.21968 0.77768
 N1421 N 0.49988 0.23030 0.77257
 C1422 C 0.53528 0.22538 0.77543
 C1423 C 0.54118 0.24099 0.76353
 C1424 C 0.55960 0.24917 0.76358
 C1425 C 0.55972 0.26296 0.74926
 C1426 C 0.54137 0.26274 0.74092
 N1427 N 0.53006 0.24929 0.74966
 C1428 C 0.53567 0.27410 0.72484
 C1429 C 0.51611 0.27612 0.71882
 C1430 C 0.51030 0.28427 0.70139
 C1431 C 0.49029 0.28455 0.70148
 C1432 C 0.48438 0.27651 0.71895
 N1433 N 0.50023 0.27155 0.72949
 C1434 C 0.46484 0.27532 0.72528
 H1435 H 0.42746 0.27149 0.74393
 H1436 H 0.42743 0.24511 0.77130
 H1437 H 0.50026 0.26743 0.74395
 H1438 H 0.48043 0.19140 0.79211
 H1439 H 0.51879 0.19109 0.79212
 H1440 H 0.57170 0.24562 0.77297
 H1441 H 0.57192 0.27212 0.74548
 H1442 H 0.48117 0.29028 0.69004
 H1443 H 0.50001 0.24456 0.76772
 H1444 H 0.51952 0.28962 0.68985
 C1445 C -0.06009 0.24797 0.73690
 C1446 C -0.06022 0.26199 0.75095
 C1447 C -0.04149 0.26284 0.75837
 N1448 N -0.03005 0.24953 0.74953
 C1449 C -0.04138 0.24044 0.73637
 C1450 C -0.03564 0.27454 0.77415
 C1451 C -0.01614 0.27601 0.78052
 C1452 C -0.01039 0.28437 0.79787
 C1453 C 0.00963 0.28426 0.79803
 C1454 C 0.01559 0.27589 0.78077
 N1455 N -0.00019 0.27103 0.77013
 C1456 C 0.03519 0.27387 0.77490
 C1457 C 0.04109 0.26222 0.75911
 C1458 C 0.05954 0.26232 0.75096
 C1459 C 0.05963 0.24827 0.73694
 C1460 C 0.04123 0.24004 0.73698
 N1461 N 0.02993 0.24857 0.75056
 C1462 C 0.03548 0.22422 0.72530
 C1463 C 0.01590 0.21846 0.72297
 C1464 C 0.01006 0.20123 0.71443
 C1465 C -0.00995 0.20138 0.71423
 C1466 C -0.01581 0.21869 0.72266
 N1467 N 0.00005 0.22909 0.72779
 C1468 C -0.03541 0.22463 0.72473
 H1469 H -0.07248 0.24368 0.72825
 H1470 H -0.07283 0.27033 0.75529
 H1471 H 0.00009 0.24340 0.73245
 H1472 H -0.01961 0.29021 0.80916
 H1473 H 0.01874 0.28987 0.80950
 H1474 H 0.07168 0.27158 0.75468
 H1475 H 0.07184 0.24459 0.72774
 H1476 H -0.01912 0.18999 0.70853
 H1477 H -0.00004 0.26668 0.75574
 H1478 H 0.01924 0.18972 0.70890
 C1479 C 0.44092 0.24911 0.23664
 C1480 C 0.44088 0.26316 0.25066
 C1481 C 0.45917 0.26284 0.25911
 N1482 N 0.47038 0.24906 0.25074
 C1483 C 0.45924 0.24065 0.23698
 C1484 C 0.46487 0.27440 0.27502
 C1485 C 0.48441 0.27641 0.28106
 C1486 C 0.49018 0.28479 0.29838
 C1487 C 0.51020 0.28475 0.29845
 C1488 C 0.51612 0.27633 0.28119
 N1489 N 0.50031 0.27142 0.27062
 C1490 C 0.53571 0.27424 0.27530
 C1491 C 0.54155 0.26257 0.25950
 C1492 C 0.55993 0.26275 0.25121
 C1493 C 0.55998 0.24867 0.23721
 C1494 C 0.54163 0.24033 0.23742
 N1495 N 0.53038 0.24884 0.25106
 C1496 C 0.53589 0.22444 0.22584
 C1497 C 0.51632 0.21852 0.22373
 C1498 C 0.51049 0.20119 0.21538
 C1499 C 0.49047 0.20127 0.21527
 C1500 C 0.48461 0.21865 0.22355
 N1501 N 0.50046 0.22913 0.22854
 C1502 C 0.46504 0.22471 0.22546
 H1503 H 0.42884 0.24556 0.22725
 H1504 H 0.42875 0.27256 0.25419
 H1505 H 0.50046 0.24350 0.23304
 H1506 H 0.48094 0.29041 0.30978
 H1507 H 0.51934 0.29032 0.30992
 H1508 H 0.57204 0.27208 0.25481
 H1509 H 0.57214 0.24504 0.22792
 H1510 H 0.48130 0.18983 0.20969
 H1511 H 0.50038 0.26686 0.25629
 H1512 H 0.51969 0.18968 0.20989
 C1513 C 0.93887 0.74462 0.75930
 C1514 C 0.93893 0.75893 0.74553
 C1515 C 0.95825 0.76238 0.74083
 N1516 N 0.96990 0.75045 0.75119
 C1517 C 0.95815 0.73954 0.76251
 C1518 C 0.96460 0.77549 0.72633
 C1519 C 0.98433 0.77822 0.72093
 C1520 C 0.99025 0.78825 0.70452
 C1521 C 1.01023 0.78802 0.70439
 C1522 C 1.01610 0.77794 0.72078
 N1523 N 1.00021 0.77225 0.73094
 C1524 C 1.03580 0.77471 0.72589
 C1525 C 1.04197 0.76185 0.74067
 C1526 C 1.06103 0.75989 0.74697
 C1527 C 1.06102 0.74563 0.76079
 C1528 C 1.04193 0.73932 0.76261
 N1529 N 1.03037 0.74929 0.75028
 C1530 C 1.03567 0.72489 0.77588
 C1531 C 1.01593 0.72065 0.78020
 C1532 C 1.00997 0.70780 0.79450
 C1533 C 0.98999 0.70798 0.79459
 C1534 C 0.98411 0.72092 0.78033
 N1535 N 1.00004 0.72836 0.77149
 C1536 C 0.96439 0.72525 0.77596
 H1537 H 0.92601 0.73870 0.76613
 H1538 H 0.92608 0.76574 0.73953
 H1539 H 1.00005 0.73746 0.75963
 H1540 H 0.98117 0.79505 0.69365
 H1541 H 1.01938 0.79448 0.69338
 H1542 H 1.07366 0.76800 0.74229
 H1543 H 1.07362 0.74080 0.76887
 H1544 H 0.98087 0.69953 0.80419
 H1545 H 1.00026 0.76639 0.74477
 H1546 H 1.01904 0.69922 0.80405
 C1547 C 0.43862 0.73938 0.25328
 C1548 C 0.43874 0.75306 0.23888
 C1549 C 0.45780 0.75936 0.23708
 N1550 N 0.46931 0.74989 0.24985
 C1551 C 0.45767 0.73748 0.25966
 C1552 C 0.46395 0.77439 0.22452
 C1553 C 0.48362 0.77972 0.22172
 C1554 C 0.48954 0.79660 0.21251
 C1555 C 0.50953 0.79651 0.21250
 C1556 C 0.51533 0.77958 0.22171
 N1557 N 0.49944 0.76929 0.22709
 C1558 C 0.53494 0.77396 0.22439
 C1559 C 0.54082 0.75880 0.23692
 C1560 C 0.55950 0.75123 0.23781
 C1561 C 0.55945 0.73767 0.25233
 C1562 C 0.54074 0.73736 0.25986
 N1563 N 0.52939 0.75035 0.25044
 C1564 C 0.53471 0.72571 0.27564
 C1565 C 0.51507 0.72347 0.28140
 C1566 C 0.50915 0.71439 0.29833
 C1567 C 0.48914 0.71434 0.29823
 C1568 C 0.48331 0.72347 0.28127
 N1569 N 0.49923 0.72882 0.27103
 C1570 C 0.46371 0.72544 0.27520
 H1571 H 0.42580 0.73202 0.25860
 H1572 H 0.42612 0.75797 0.23088
 H1573 H 0.49932 0.73389 0.25690
 H1574 H 0.48038 0.80794 0.20659
 H1575 H 0.51876 0.80776 0.20657
 H1576 H 0.57190 0.75504 0.22892
 H1577 H 0.57181 0.72900 0.25679
 H1578 H 0.47999 0.70804 0.30933
 H1579 H 0.49942 0.75519 0.23234
 H1580 H 0.51829 0.70824 0.30953
 C1581 C -0.06023 0.74872 0.23696
 C1582 C -0.06032 0.76263 0.25111
 C1583 C -0.04157 0.76344 0.25849
 N1584 N -0.03016 0.75020 0.24950
 C1585 C -0.04151 0.74121 0.23630
 C1586 C -0.03568 0.77501 0.27435
 C1587 C -0.01618 0.77632 0.28077
 C1588 C -0.01042 0.78444 0.29823
 C1589 C 0.00959 0.78421 0.29844
 C1590 C 0.01555 0.77602 0.28108
 N1591 N -0.00023 0.77137 0.27035
 C1592 C 0.03516 0.77402 0.27520
 C1593 C 0.04101 0.76263 0.25921
 C1594 C 0.05939 0.76294 0.25093
 C1595 C 0.05945 0.74909 0.23671
 C1596 C 0.04109 0.74077 0.23676
 N1597 N 0.02984 0.74906 0.25054
 C1598 C 0.03534 0.72509 0.22492
 C1599 C 0.01575 0.71934 0.22258
 C1600 C 0.00988 0.70220 0.21388
 C1601 C -0.01013 0.70236 0.21372
 C1602 C -0.01597 0.71959 0.22232
 N1603 N -0.00009 0.72993 0.22754
 C1604 C -0.03557 0.72553 0.22448
 H1605 H -0.07265 0.74448 0.22832
 H1606 H -0.07292 0.77093 0.25556
 H1607 H -0.00003 0.74419 0.23235
 H1608 H -0.01964 0.79018 0.30957
 H1609 H 0.01871 0.78962 0.31000
 H1610 H 0.07151 0.77221 0.25467
 H1611 H 0.07161 0.74560 0.22736
 H1612 H -0.01932 0.69103 0.20793
 H1613 H -0.00008 0.76719 0.25592
 H1614 H 0.01905 0.69074 0.20823
 C1615 C 0.55962 0.76236 0.75164
 C1616 C 0.55965 0.74779 0.73816
 C1617 C 0.54078 0.74070 0.73730
 N1618 N 0.52935 0.75029 0.75007
 C1619 C 0.54080 0.76359 0.75879
 C1620 C 0.53478 0.72464 0.72604
 C1621 C 0.51524 0.71834 0.72480
 C1622 C 0.50937 0.70079 0.71696
 C1623 C 0.48935 0.70087 0.71689
 C1624 C 0.48349 0.71847 0.72470
 N1625 N 0.49937 0.72907 0.72935
 C1626 C 0.46396 0.72490 0.72585
 C1627 C 0.45795 0.74097 0.73714
 C1628 C 0.43908 0.74811 0.73805
 C1629 C 0.43910 0.76262 0.75159
 C1630 C 0.45791 0.76378 0.75871
 N1631 N 0.46938 0.75048 0.74992
 C1632 C 0.46385 0.77617 0.77391
 C1633 C 0.48347 0.77890 0.77944
 C1634 C 0.48931 0.78828 0.79621
 C1635 C 0.50931 0.78826 0.79622
 C1636 C 0.51520 0.77885 0.77945
 N1637 N 0.49935 0.77339 0.76920
 C1638 C 0.53484 0.77607 0.77394
 H1639 H 0.57212 0.77091 0.75581
 H1640 H 0.57227 0.74287 0.73018
 H1641 H 0.49937 0.76792 0.75521
 H1642 H 0.51853 0.68924 0.71149
 H1643 H 0.48021 0.68938 0.71135
 H1644 H 0.42645 0.74325 0.73009
 H1645 H 0.42658 0.77118 0.75583
 H1646 H 0.51847 0.79440 0.80738
 H1647 H 0.49939 0.74365 0.73306
 H1648 H 0.48012 0.79445 0.80736
 C1649 C 0.41329 0.30328 0.30200
 C1650 C 0.41902 0.28499 0.30530
 C1651 C 0.43477 0.27539 0.29434
 C1652 C 0.44965 0.28488 0.28614
 H1653 H 0.41101 0.27602 0.31539
 H1654 H 0.43427 0.25971 0.29339
 H1655 H 0.42035 0.31187 0.29092
 H1656 H 0.45150 0.30030 0.28846
 C1657 C 0.41177 0.80373 0.80126
 C1658 C 0.41937 0.78647 0.80619
 C1659 C 0.43516 0.77699 0.79519
 C1660 C 0.44866 0.78665 0.78505
 H1661 H 0.41294 0.77803 0.81775
 H1662 H 0.43587 0.76129 0.79579
 H1663 H 0.41756 0.81147 0.78888
 H1664 H 0.44943 0.80232 0.78568
 C1665 C -0.08593 0.30312 0.80401
 C1666 C -0.07673 0.30999 0.78831
 C1667 C -0.06089 0.29962 0.77810
 C1668 C -0.05084 0.28471 0.78555
 H1669 H -0.08150 0.32350 0.78186
 H1670 H -0.05735 0.30461 0.76364
 H1671 H -0.08181 0.28934 0.81026
 H1672 H -0.05294 0.28015 0.80038
 C1673 C -0.08597 0.80339 0.30439
 C1674 C -0.07682 0.81037 0.28871
 C1675 C -0.06088 0.80013 0.27849
 C1676 C -0.05085 0.78514 0.28582
 H1677 H -0.08175 0.82380 0.28224
 H1678 H -0.05732 0.80523 0.26407
 H1679 H -0.08168 0.78967 0.31067
 H1680 H -0.05299 0.78043 0.30060
 C1681 C 0.58636 0.69697 0.30253
 C1682 C 0.57946 0.71452 0.30728
 C1683 C 0.56379 0.72439 0.29642
 C1684 C 0.54976 0.71501 0.28679
 H1685 H 0.58644 0.72279 0.31862
 H1686 H 0.56361 0.74011 0.29673
 H1687 H 0.58036 0.68925 0.29027
 H1688 H 0.54854 0.69938 0.28775
 C1689 C 0.58660 0.19810 0.80439
 C1690 C 0.58071 0.19449 0.78626
 C1691 C 0.56501 0.20547 0.77658
 C1692 C 0.55036 0.21417 0.78601
 H1693 H 0.58861 0.18418 0.77744
 H1694 H 0.56539 0.20606 0.76091
 H1695 H 0.57967 0.20941 0.81280
 H1696 H 0.54860 0.21224 0.80147
 C1697 C 1.08685 0.69724 0.80485
 C1698 C 1.07951 0.69208 0.78765
 C1699 C 1.06368 0.70274 0.77780
 C1700 C 1.05082 0.71418 0.78689
 H1701 H 1.08606 0.68025 0.77967
 H1702 H 1.06246 0.70084 0.76227
 H1703 H 1.08110 0.70971 0.81246
 H1704 H 1.05064 0.71521 0.80251
 C1705 C 1.08666 0.19673 0.30128
 C1706 C 1.08043 0.21478 0.30494
 C1707 C 1.06465 0.22435 0.29399
 C1708 C 1.05017 0.21482 0.28519
 H1709 H 1.08812 0.22366 0.31532
 H1710 H 1.06480 0.24006 0.29353
 H1711 H 1.07994 0.18827 0.28991
 H1712 H 1.04862 0.19930 0.28698
 C1713 C 0.58714 0.30291 0.69786
 C1714 C 0.58140 0.28468 0.69440
 C1715 C 0.56578 0.27502 0.70546
 C1716 C 0.55084 0.28450 0.71361
 H1717 H 0.58928 0.27587 0.68407
 H1718 H 0.56638 0.25934 0.70649
 H1719 H 0.58024 0.31129 0.70922
 H1720 H 0.54892 0.29991 0.71117
 C1721 C 0.58621 0.80170 0.19567
 C1722 C 0.57962 0.80583 0.21346
 C1723 C 0.56399 0.79476 0.22315
 C1724 C 0.55012 0.78494 0.21372
 H1725 H 0.58677 0.81686 0.22201
 H1726 H 0.56369 0.79510 0.23883
 H1727 H 0.57993 0.78986 0.18754
 H1728 H 0.54893 0.78584 0.19811
 C1729 C 1.08686 0.30278 0.19748
 C1730 C 1.08067 0.30708 0.21536
 C1731 C 1.06486 0.29639 0.22510
 C1732 C 1.05012 0.28798 0.21563
 H1733 H 1.08846 0.31766 0.22393
 H1734 H 1.06525 0.29569 0.24078
 H1735 H 1.08011 0.29112 0.18945
 H1736 H 1.04840 0.29008 0.20018
 C1737 C 1.08707 0.80336 0.69830
 C1738 C 1.07993 0.78597 0.69337
 C1739 C 1.06425 0.77613 0.70420
 C1740 C 1.05087 0.78545 0.71483
 H1741 H 1.08662 0.77783 0.68175
 H1742 H 1.06355 0.76047 0.70310
 H1743 H 1.08125 0.81102 0.71069
 H1744 H 1.05010 0.80114 0.71475
 C1745 C 0.41376 0.69510 0.69722
 C1746 C 0.42311 0.71071 0.69033
 C1747 C 0.43903 0.72079 0.70063
 C1748 C 0.44889 0.71340 0.71568
 H1749 H 0.41838 0.71723 0.67688
 H1750 H 0.44274 0.73519 0.69553
 H1751 H 0.41784 0.68878 0.71096
 H1752 H 0.44662 0.69863 0.72042
 C1753 C 0.41386 0.19762 0.19616
 C1754 C 0.41927 0.19450 0.21454
 C1755 C 0.43492 0.20546 0.22423
 C1756 C 0.44993 0.21360 0.21489
 H1757 H 0.41105 0.18457 0.22350
 H1758 H 0.43422 0.20647 0.23987
 H1759 H 0.42113 0.20855 0.18754
 H1760 H 0.45197 0.21122 0.19953
 C1761 C -0.08661 0.69822 0.19529
 C1762 C -0.08060 0.69431 0.21333
 C1763 C -0.06504 0.70528 0.22316
 C1764 C -0.05062 0.71442 0.21382
 H1765 H -0.08821 0.68361 0.22194
 H1766 H -0.06529 0.70547 0.23885
 H1767 H -0.07996 0.70985 0.18711
 H1768 H -0.04897 0.71291 0.19831
 C1769 C -0.08630 0.19684 0.69571
 C1770 C -0.08072 0.19363 0.71403
 C1771 C -0.06498 0.20452 0.72365
 C1772 C -0.05045 0.21337 0.71421
 H1773 H -0.08885 0.18364 0.72300
 H1774 H -0.06532 0.20507 0.73933
 H1775 H -0.07904 0.20771 0.68702
 H1776 H -0.04870 0.21156 0.69875
 C1777 C 0.30329 0.41296 0.30186
 C1778 C 0.28493 0.41871 0.30511
 C1779 C 0.27538 0.43454 0.29428
 C1780 C 0.28493 0.44941 0.28617
 H1781 H 0.27584 0.41063 0.31504
 H1782 H 0.25964 0.43409 0.29330
 H1783 H 0.31203 0.42015 0.29097
 H1784 H 0.30041 0.45121 0.28849
 C1785 C 0.30356 -0.08612 0.80404
 C1786 C 0.30913 -0.07823 0.78714
 C1787 C 0.29829 -0.06249 0.77737
 C1788 C 0.28653 -0.04997 0.78652
 H1789 H 0.32123 -0.08433 0.77917
 H1790 H 0.30020 -0.06112 0.76185
 H1791 H 0.29082 -0.08056 0.81141
 H1792 H 0.28563 -0.04981 0.80216
 C1793 C 0.80552 0.41377 0.80201
 C1794 C 0.78873 0.42217 0.80745
 C1795 C 0.77899 0.43777 0.79638
 C1796 C 0.78794 0.44929 0.78352
 H1797 H 0.78088 0.41677 0.81991
 H1798 H 0.76361 0.43994 0.79912
 H1799 H 0.81288 0.41866 0.78905
 H1800 H 0.80356 0.44871 0.78162
 C1801 C 0.80288 -0.08681 0.30449
 C1802 C 0.80988 -0.07747 0.28890
 C1803 C 0.79953 -0.06149 0.27893
 C1804 C 0.78509 -0.05103 0.28679
 H1805 H 0.82324 -0.08232 0.28216
 H1806 H 0.80406 -0.05825 0.26425
 H1807 H 0.78915 -0.08239 0.31078
 H1808 H 0.78105 -0.05283 0.30182
 C1809 C 0.30279 0.58671 0.69877
 C1810 C 0.28439 0.58107 0.69567
 C1811 C 0.27492 0.56513 0.70641
 C1812 C 0.28453 0.55024 0.71449
 H1813 H 0.27522 0.58932 0.68594
 H1814 H 0.25918 0.56552 0.70735
 H1815 H 0.31163 0.57938 0.70948
 H1816 H 0.30002 0.54849 0.71220
 C1817 C 0.30341 1.08771 0.20006
 C1818 C 0.28507 1.08190 0.19700
 C1819 C 0.27569 1.06606 0.20795
 C1820 C 0.28538 1.05130 0.21615
 H1821 H 0.27587 1.08993 0.18711
 H1822 H 0.25994 1.06636 0.20886
 H1823 H 0.31226 1.08063 0.21094
 H1824 H 0.30089 1.04963 0.21389
 C1825 C 0.80303 0.58726 0.19752
 C1826 C 0.80938 0.57930 0.21408
 C1827 C 0.79921 0.56337 0.22425
 C1828 C 0.78644 0.55142 0.21579
 H1829 H 0.82200 0.58529 0.22126
 H1830 H 0.80252 0.56137 0.23947
 H1831 H 0.78989 0.58202 0.19070
 H1832 H 0.78386 0.55205 0.20036
 C1833 C 0.80498 1.08593 0.69726
 C1834 C 0.78824 1.07779 0.69149
 C1835 C 0.77828 1.06200 0.70201
 C1836 C 0.78683 1.05035 0.71502
 H1837 H 0.78054 1.08374 0.67919
 H1838 H 0.76298 1.05990 0.69882
 H1839 H 0.81236 1.08074 0.71009
 H1840 H 0.80233 1.05102 0.71762
 C1841 C 0.69690 0.58643 0.30470
 C1842 C 0.69057 0.57823 0.28828
 C1843 C 0.70092 0.56237 0.27818
 C1844 C 0.71378 0.55046 0.28667
 H1845 H 0.67796 0.58415 0.28098
 H1846 H 0.69773 0.56043 0.26294
 H1847 H 0.71007 0.58130 0.31158
 H1848 H 0.71628 0.55101 0.30212
 C1849 C 0.69538 1.08735 0.80256
 C1850 C 0.71145 1.07820 0.80884
 C1851 C 0.72116 1.06226 0.79826
 C1852 C 0.71273 1.05158 0.78443
 H1853 H 0.71882 1.08319 0.82174
 H1854 H 0.73613 1.05917 0.80216
 H1855 H 0.68846 1.08281 0.78925
 H1856 H 0.69745 1.05322 0.78104
 C1857 C 0.19760 0.58603 0.80364
 C1858 C 0.19309 0.57988 0.78581
 C1859 C 0.20383 0.56419 0.77592
 C1860 C 0.21245 0.54947 0.78527
 H1861 H 0.18227 0.58758 0.77739
 H1862 H 0.20435 0.56466 0.76025
 H1863 H 0.20949 0.57935 0.81150
 H1864 H 0.21055 0.54769 0.80073
 C1865 C 0.19671 1.08591 0.30469
 C1866 C 0.19321 1.08033 0.28645
 C1867 C 0.20420 1.06475 0.27667
 C1868 C 0.21239 1.04976 0.28597
 H1869 H 0.18308 1.08847 0.27761
 H1870 H 0.20528 1.06554 0.26104
 H1871 H 0.20791 1.07876 0.31311
 H1872 H 0.20994 1.04765 0.30132
 C1873 C 0.69520 0.41371 0.69709
 C1874 C 0.71200 0.42181 0.69149
 C1875 C 0.72186 0.43749 0.70225
 C1876 C 0.71297 0.44924 0.71494
 H1877 H 0.71971 0.41605 0.67910
 H1878 H 0.73725 0.43949 0.69945
 H1879 H 0.68783 0.41873 0.70999
 H1880 H 0.69735 0.44880 0.71686
 C1881 C 0.69444 -0.08567 0.19697
 C1882 C 0.71079 -0.07706 0.19079
 C1883 C 0.72083 -0.06119 0.20115
 C1884 C 0.71306 -0.05082 0.21562
 H1885 H 0.71804 -0.08245 0.17796
 H1886 H 0.73559 -0.05801 0.19662
 H1887 H 0.68728 -0.08086 0.21006
 H1888 H 0.69801 -0.05262 0.21983
 C1889 C 0.19762 0.41338 0.19680
 C1890 C 0.19409 0.41886 0.21507
 C1891 C 0.20483 0.43457 0.22483
 C1892 C 0.21283 0.44964 0.21552
 H1893 H 0.18404 0.41062 0.22389
 H1894 H 0.20585 0.43385 0.24048
 H1895 H 0.20871 0.42066 0.18836
 H1896 H 0.21041 0.45167 0.20016
 C1897 C 0.19625 -0.08654 0.69789
 C1898 C 0.21355 -0.07914 0.69280
 C1899 C 0.22334 -0.06320 0.70323
 C1900 C 0.21436 -0.05079 0.71519
 H1901 H 0.22170 -0.08568 0.68109
 H1902 H 0.23883 -0.06155 0.70075
 H1903 H 0.18834 -0.08072 0.71012
 H1904 H 0.19873 -0.05108 0.71701
 C1905 C 0.30288 0.30226 0.41309
 C1906 C 0.28508 0.30671 0.41967
 C1907 C 0.27549 0.29618 0.43566
 C1908 C 0.28512 0.28694 0.44980
 H1909 H 0.27633 0.31735 0.41210
 H1910 H 0.25972 0.29614 0.43579
 H1911 H 0.31116 0.29067 0.41976
 H1912 H 0.30077 0.28822 0.45105
 C1913 C 0.30304 0.80498 -0.08633
 C1914 C 0.30832 0.78786 -0.07873
 C1915 C 0.29767 0.77815 -0.06286
 C1916 C 0.28564 0.78723 -0.05054
 H1917 H 0.32014 0.77975 -0.08519
 H1918 H 0.29985 0.76265 -0.06132
 H1919 H 0.29064 0.81277 -0.08059
 H1920 H 0.28441 0.80287 -0.05055
 C1921 C 0.80215 0.30563 -0.08634
 C1922 C 0.80822 0.28922 -0.07782
 C1923 C 0.79753 0.27930 -0.06208
 C1924 C 0.78394 0.28775 -0.05099
 H1925 H 0.82106 0.28189 -0.08321
 H1926 H 0.80114 0.26421 -0.05950
 H1927 H 0.78888 0.31266 -0.08164
 H1928 H 0.78107 0.30315 -0.05203
 C1929 C 0.80302 0.80275 0.41381
 C1930 C 0.78509 0.80694 0.42024
 C1931 C 0.77547 0.79618 0.43607
 C1932 C 0.78507 0.78701 0.45028
 H1933 H 0.77632 0.81756 0.41267
 H1934 H 0.75970 0.79599 0.43607
 H1935 H 0.81134 0.79119 0.42047
 H1936 H 0.80069 0.78847 0.45166
 C1937 C 0.69757 0.30424 0.58564
 C1938 C 0.69080 0.28848 0.57652
 C1939 C 0.70109 0.27849 0.56054
 C1940 C 0.71594 0.28604 0.55048
 H1941 H 0.67749 0.28176 0.58148
 H1942 H 0.69616 0.26399 0.55700
 H1943 H 0.71114 0.31084 0.58125
 H1944 H 0.72049 0.30088 0.55261
 C1945 C 0.69800 0.80467 1.08623
 C1946 C 0.69311 0.78727 1.07914
 C1947 C 0.70405 0.77749 1.06354
 C1948 C 0.71410 0.78691 1.04983
 H1949 H 0.68163 0.77900 1.08598
 H1950 H 0.70345 0.76179 1.06315
 H1951 H 0.71042 0.81236 1.08041
 H1952 H 0.71345 0.80257 1.04879
 C1953 C 0.19512 0.30325 1.08565
 C1954 C 0.21074 0.31016 1.07628
 C1955 C 0.22086 0.29968 1.06053
 C1956 C 0.21300 0.28520 1.05027
 H1957 H 0.21735 0.32357 1.08101
 H1958 H 0.23563 0.30414 1.05729
 H1959 H 0.18891 0.28942 1.08165
 H1960 H 0.19789 0.28123 1.05208
 C1961 C 0.19855 0.80372 0.58712
 C1962 C 0.19352 0.78638 0.57997
 C1963 C 0.20432 0.77667 0.56424
 C1964 C 0.21418 0.78615 0.55044
 H1965 H 0.18209 0.77810 0.58687
 H1966 H 0.20384 0.76096 0.56387
 H1967 H 0.21095 0.81140 0.58122
 H1968 H 0.21341 0.80181 0.54939
 C1969 C 0.30155 0.69520 0.58670
 C1970 C 0.30924 0.70980 0.57640
 C1971 C 0.29903 0.71981 0.56038
 C1972 C 0.28368 0.71258 0.55088
 H1973 H 0.32323 0.71568 0.58048
 H1974 H 0.30447 0.73398 0.55628
 H1975 H 0.28721 0.68973 0.58331
 H1976 H 0.27863 0.69797 0.55357
 C1977 C 0.30177 0.19527 1.08699
 C1978 C 0.30911 0.21038 1.07717
 C1979 C 0.29880 0.22045 1.06128
 C1980 C 0.28405 0.21282 1.05117
 H1981 H 0.32281 0.21665 1.08164
 H1982 H 0.30369 0.23497 1.05772
 H1983 H 0.28765 0.18946 1.08327
 H1984 H 0.27964 0.19792 1.05331
 C1985 C 0.80241 0.69469 1.08485
 C1986 C 0.80918 0.71033 1.07547
 C1987 C 0.79867 0.72040 1.05968
 C1988 C 0.78346 0.71303 1.05004
 H1989 H 0.82270 0.71689 1.08007
 H1990 H 0.80375 0.73479 1.05589
 H1991 H 0.78866 0.68828 1.08084
 H1992 H 0.77872 0.69828 1.05241
 C1993 C 0.80206 0.19539 0.58614
 C1994 C 0.80727 0.21263 0.57885
 C1995 C 0.79639 0.22246 0.56324
 C1996 C 0.78621 0.21304 0.54967
 H1997 H 0.81893 0.22075 0.58554
 H1998 H 0.79706 0.23816 0.56277
 H1999 H 0.78944 0.18792 0.58048
 H2000 H 0.78679 0.19737 0.54871
 C2001 C 0.69498 0.69679 0.41510
 C2002 C 0.71144 0.69067 0.42358
 C2003 C 0.72126 0.70081 0.43973
 C2004 C 0.71355 0.71553 0.44984
 H2005 H 0.71885 0.67801 0.41794
 H2006 H 0.73588 0.69602 0.44323
 H2007 H 0.68753 0.70961 0.42023
 H2008 H 0.69866 0.72009 0.44768
 C2009 C 0.69785 0.19487 -0.08572
 C2010 C 0.69242 0.21185 -0.07796
 C2011 C 0.70324 0.22169 -0.06234
 C2012 C 0.71549 0.21272 -0.05017
 H2013 H 0.68032 0.21978 -0.08414
 H2014 H 0.70092 0.23717 -0.06079
 H2015 H 0.71057 0.18733 -0.08035
 H2016 H 0.71689 0.19708 -0.05016
 C2017 C 0.19884 0.69489 -0.08582
 C2018 C 0.19234 0.71091 -0.07692
 C2019 C 0.20308 0.72091 -0.06132
 C2020 C 0.21687 0.71252 -0.05044
 H2021 H 0.17920 0.71792 -0.08198
 H2022 H 0.19934 0.73595 -0.05866
 H2023 H 0.21250 0.68834 -0.08155
 H2024 H 0.21986 0.69715 -0.05154
 C2025 C 0.19526 0.19782 0.41375
 C2026 C 0.21075 0.19074 0.42325
 C2027 C 0.22074 0.20094 0.43925
 C2028 C 0.21324 0.21594 0.44907
 H2029 H 0.21733 0.17730 0.41851
 H2030 H 0.23517 0.19581 0.44302
 H2031 H 0.18892 0.21157 0.41784
 H2032 H 0.19843 0.22071 0.44670
 C2033 C 0.30344 0.41310 0.69787
 C2034 C 0.28514 0.41891 0.69448
 C2035 C 0.27542 0.43449 0.70553
 C2036 C 0.28486 0.44926 0.71389
 H2037 H 0.27623 0.41107 0.68423
 H2038 H 0.25968 0.43397 0.70638
 H2039 H 0.31195 0.41998 0.70911
 H2040 H 0.30035 0.45113 0.71167
 C2041 C 0.30422 0.91441 0.19809
 C2042 C 0.28620 0.92076 0.19421
 C2043 C 0.27646 0.93623 0.20537
 C2044 C 0.28596 0.95038 0.21468
 H2045 H 0.27751 0.91348 0.18338
 H2046 H 0.26068 0.93613 0.20561
 H2047 H 0.31247 0.92074 0.20984
 H2048 H 0.30157 0.95190 0.21315
 C2049 C 0.80440 0.41461 0.19682
 C2050 C 0.78758 0.42280 0.19129
 C2051 C 0.77783 0.43860 0.20205
 C2052 C 0.78685 0.45038 0.21457
 H2053 H 0.77965 0.41685 0.17915
 H2054 H 0.76238 0.44051 0.19957
 H2055 H 0.81196 0.41980 0.20953
 H2056 H 0.80250 0.45001 0.21620
 C2057 C 0.80355 0.91346 0.69793
 C2058 C 0.78664 0.92144 0.69238
 C2059 C 0.77676 0.93725 0.70302
 C2060 C 0.78563 0.94915 0.71554
 H2061 H 0.77891 0.91554 0.68009
 H2062 H 0.76138 0.93929 0.70019
 H2063 H 0.81095 0.91863 0.71073
 H2064 H 0.80122 0.94854 0.71764
 C2065 C 0.69500 0.58629 0.69755
 C2066 C 0.71130 0.57757 0.69133
 C2067 C 0.72118 0.56173 0.70193
 C2068 C 0.71250 0.55031 0.71505
 H2069 H 0.71873 0.58310 0.67866
 H2070 H 0.73645 0.55939 0.69873
 H2071 H 0.68805 0.58157 0.71080
 H2072 H 0.69695 0.55110 0.71745
 C2073 C 0.69760 0.08612 0.19703
 C2074 C 0.69348 0.08012 0.21503
 C2075 C 0.70426 0.06440 0.22487
 C2076 C 0.71327 0.04993 0.21551
 H2077 H 0.68281 0.08788 0.22359
 H2078 H 0.70454 0.06465 0.24056
 H2079 H 0.70921 0.07928 0.18891
 H2080 H 0.71165 0.04831 0.20000
 C2081 C 0.19736 0.58672 0.19707
 C2082 C 0.19371 0.58120 0.21532
 C2083 C 0.20447 0.56544 0.22511
 C2084 C 0.21251 0.55040 0.21577
 H2085 H 0.18355 0.58940 0.22406
 H2086 H 0.20550 0.56614 0.24075
 H2087 H 0.20855 0.57945 0.18874
 H2088 H 0.21007 0.54841 0.20042
 C2089 C 0.19649 0.08587 0.69554
 C2090 C 0.19206 0.07929 0.71328
 C2091 C 0.20275 0.06349 0.72315
 C2092 C 0.21389 0.05035 0.71408
 H2093 H 0.18102 0.08661 0.72173
 H2094 H 0.20137 0.06273 0.73876
 H2095 H 0.20816 0.07928 0.68731
 H2096 H 0.21430 0.04964 0.69844
 C2097 C 0.30325 0.58651 0.30238
 C2098 C 0.28477 0.58103 0.30531
 C2099 C 0.27522 0.56530 0.29440
 C2100 C 0.28474 0.55037 0.28634
 H2101 H 0.27560 0.58925 0.31506
 H2102 H 0.25949 0.56588 0.29334
 H2103 H 0.31211 0.57918 0.29168
 H2104 H 0.30019 0.54844 0.28876
 C2105 C 0.30387 0.08716 0.80257
 C2106 C 0.28680 0.07947 0.80796
 C2107 C 0.27702 0.06351 0.79756
 C2108 C 0.28600 0.05116 0.78553
 H2109 H 0.27875 0.08585 0.81982
 H2110 H 0.26155 0.06178 0.80011
 H2111 H 0.31160 0.08154 0.79013
 H2112 H 0.30163 0.05151 0.78368
 C2113 C 0.80507 0.58550 0.80244
 C2114 C 0.78794 0.57763 0.80740
 C2115 C 0.77834 0.56194 0.79642
 C2116 C 0.78739 0.55033 0.78371
 H2117 H 0.77977 0.58365 0.81937
 H2118 H 0.76292 0.55987 0.79900
 H2119 H 0.81301 0.58018 0.79000
 H2120 H 0.80302 0.55083 0.78192
 C2121 C 0.80343 0.08507 0.30417
 C2122 C 0.81061 0.07571 0.28872
 C2123 C 0.80035 0.05979 0.27865
 C2124 C 0.78554 0.04970 0.28627
 H2125 H 0.82414 0.08051 0.28229
 H2126 H 0.80524 0.05630 0.26414
 H2127 H 0.78957 0.08095 0.31031
 H2128 H 0.78115 0.05175 0.30115
 C2129 C 0.69575 0.41379 0.30279
 C2130 C 0.71259 0.42176 0.30847
 C2131 C 0.72258 0.43743 0.29776
 C2132 C 0.71373 0.44939 0.28524
 H2133 H 0.72021 0.41589 0.32086
 H2134 H 0.73799 0.43928 0.30051
 H2135 H 0.68852 0.41887 0.28983
 H2136 H 0.69810 0.44907 0.28339
 C2137 C 0.69358 0.91523 0.80290
 C2138 C 0.70945 0.92432 0.80955
 C2139 C 0.71949 0.94011 0.79907
 C2140 C 0.71144 0.95070 0.78490
 H2141 H 0.71643 0.91922 0.82264
 H2142 H 0.73440 0.94305 0.80323
 H2143 H 0.68698 0.91959 0.78937
 H2144 H 0.69623 0.94920 0.78119
 C2145 C 0.19684 0.41268 0.80351
 C2146 C 0.19377 0.41807 0.78512
 C2147 C 0.20466 0.43381 0.77547
 C2148 C 0.21280 0.44873 0.78485
 H2149 H 0.18402 0.40973 0.77610
 H2150 H 0.20569 0.43320 0.75982
 H2151 H 0.20762 0.42008 0.81220
 H2152 H 0.21041 0.45068 0.80022
 C2153 C 0.19438 0.91434 0.30358
 C2154 C 0.21035 0.92333 0.31018
 C2155 C 0.22053 0.93917 0.29987
 C2156 C 0.21315 0.94910 0.28488
 H2157 H 0.21706 0.91841 0.32348
 H2158 H 0.23499 0.94280 0.30497
 H2159 H 0.18777 0.91868 0.29005
 H2160 H 0.19835 0.94687 0.28010
 C2161 C 0.41525 0.30428 0.69460
 C2162 C 0.42406 0.31095 0.71058
 C2163 C 0.43982 0.30057 0.72093
 C2164 C 0.44981 0.28552 0.71370
 H2165 H 0.41898 0.32426 0.71716
 H2166 H 0.44326 0.30560 0.73538
 H2167 H 0.41971 0.29072 0.68814
 H2168 H 0.44779 0.28083 0.69891
 C2169 C 0.41288 0.80246 0.19609
 C2170 C 0.42024 0.80754 0.21331
 C2171 C 0.43575 0.79644 0.22316
 C2172 C 0.44894 0.78558 0.21383
 H2173 H 0.41388 0.81950 0.22125
 H2174 H 0.43653 0.79757 0.23879
 H2175 H 0.41835 0.78974 0.18868
 H2176 H 0.44966 0.78563 0.19817
 C2177 C 0.91376 0.30521 0.19629
 C2178 C 0.92381 0.29031 0.18880
 C2179 C 0.93968 0.28007 0.19911
 C2180 C 0.94917 0.28722 0.21446
 H2181 H 0.91962 0.28439 0.17492
 H2182 H 0.94367 0.26584 0.19374
 H2183 H 0.91725 0.31077 0.21050
 H2184 H 0.94662 0.30187 0.21941
 C2185 C 0.91424 0.80349 0.69620
 C2186 C 0.92239 0.80975 0.71267
 C2187 C 0.93812 0.79934 0.72298
 C2188 C 0.94958 0.78587 0.71487
 H2189 H 0.91669 0.82255 0.71972
 H2190 H 0.94037 0.80308 0.73805
 H2191 H 0.91921 0.79025 0.68943
 H2192 H 0.94870 0.78273 0.69956
 C2193 C 0.58706 0.30332 0.30212
 C2194 C 0.58115 0.28520 0.30590
 C2195 C 0.56559 0.27542 0.29491
 C2196 C 0.55081 0.28482 0.28640
 H2197 H 0.58887 0.27650 0.31646
 H2198 H 0.56609 0.25972 0.29427
 H2199 H 0.58035 0.31155 0.29054
 H2200 H 0.54895 0.30029 0.28843
 C2201 C 0.58644 0.80420 0.80140
 C2202 C 0.57955 0.78657 0.80581
 C2203 C 0.56375 0.77703 0.79493
 C2204 C 0.54998 0.78661 0.78504
 H2205 H 0.58671 0.77793 0.81680
 H2206 H 0.56332 0.76132 0.79535
 H2207 H 0.58023 0.81236 0.78951
 H2208 H 0.54895 0.80226 0.78584
 C2209 C 0.08690 0.30258 0.80155
 C2210 C 0.08061 0.28464 0.80559
 C2211 C 0.06488 0.27498 0.79475
 C2212 C 0.05027 0.28445 0.78605
 H2213 H 0.08830 0.27587 0.81611
 H2214 H 0.06518 0.25927 0.79428
 H2215 H 0.08024 0.31087 0.78998
 H2216 H 0.04859 0.29996 0.78786
 C2217 C 0.08663 0.80291 0.30203
 C2218 C 0.08088 0.78468 0.30556
 C2219 C 0.06521 0.77502 0.29461
 C2220 C 0.05025 0.78447 0.28646
 H2221 H 0.08881 0.77584 0.31583
 H2222 H 0.06584 0.75934 0.29362
 H2223 H 0.07966 0.81133 0.29075
 H2224 H 0.04830 0.79987 0.28885
 C2225 C 0.58533 0.69511 0.69751
 C2226 C 0.57565 0.71049 0.69047
 C2227 C 0.55950 0.72039 0.70066
 C2228 C 0.54986 0.71309 0.71587
 H2229 H 0.58041 0.71711 0.67708
 H2230 H 0.55557 0.73470 0.69543
 H2231 H 0.58117 0.68866 0.71117
 H2232 H 0.55237 0.69842 0.72081
 C2233 C 0.58741 0.19780 0.19674
 C2234 C 0.58169 0.19412 0.21492
 C2235 C 0.56597 0.20498 0.22468
 C2236 C 0.55106 0.21330 0.21531
 H2237 H 0.58968 0.18380 0.22366
 H2238 H 0.56652 0.20577 0.24034
 H2239 H 0.58039 0.20914 0.18843
 H2240 H 0.54917 0.21111 0.19991
 C2241 C 0.08692 0.69822 0.19598
 C2242 C 0.08116 0.69469 0.21418
 C2243 C 0.06539 0.70556 0.22384
 C2244 C 0.05055 0.71395 0.21442
 H2245 H 0.08918 0.68446 0.22302
 H2246 H 0.06586 0.70633 0.23951
 H2247 H 0.07986 0.70944 0.18754
 H2248 H 0.04873 0.71180 0.19900
 C2249 C 0.08705 0.19718 0.69668
 C2250 C 0.08132 0.19372 0.71490
 C2251 C 0.06541 0.20452 0.72445
 C2252 C 0.05068 0.21298 0.71492
 H2253 H 0.08952 0.18376 0.72386
 H2254 H 0.06577 0.20529 0.74012
 H2255 H 0.07977 0.20814 0.68809
 H2256 H 0.04895 0.21086 0.69949
 C2257 C 0.41357 0.69664 0.30517
 C2258 C 0.42220 0.69035 0.28893
 C2259 C 0.43798 0.70085 0.27877
 C2260 C 0.44858 0.71514 0.28659
 H2261 H 0.41695 0.67731 0.28198
 H2262 H 0.44099 0.69651 0.26399
 H2263 H 0.41815 0.71001 0.31192
 H2264 H 0.44700 0.71899 0.30168
 C2265 C 0.41334 0.19808 0.80435
 C2266 C 0.41898 0.19494 0.78604
 C2267 C 0.43469 0.20593 0.77641
 C2268 C 0.44920 0.21479 0.78586
 H2269 H 0.41096 0.18488 0.77709
 H2270 H 0.43443 0.20644 0.76073
 H2271 H 0.42048 0.20903 0.81301
 H2272 H 0.45086 0.21299 0.80134
 C2273 C 0.91383 0.69690 0.80540
 C2274 C 0.92132 0.69168 0.78825
 C2275 C 0.93703 0.70238 0.77827
 C2276 C 0.94925 0.71466 0.78706
 H2277 H 0.91504 0.67965 0.78041
 H2278 H 0.93869 0.69983 0.76287
 H2279 H 0.91935 0.70947 0.81295
 H2280 H 0.94903 0.71645 0.80261
 C2281 C 0.91273 0.19623 0.30093
 C2282 C 0.91864 0.21442 0.30435
 C2283 C 0.93441 0.22401 0.29342
 C2284 C 0.94888 0.21449 0.28449
 H2285 H 0.91080 0.22334 0.31461
 H2286 H 0.93425 0.23972 0.29305
 H2287 H 0.91968 0.18764 0.28978
 H2288 H 0.95045 0.19896 0.28616
 C2289 C 0.30292 0.30181 0.58687
 C2290 C 0.28466 0.30540 0.58105
 C2291 C 0.27502 0.29453 0.56535
 C2292 C 0.28457 0.28628 0.55056
 H2293 H 0.27577 0.31568 0.58894
 H2294 H 0.25928 0.29373 0.56579
 H2295 H 0.31138 0.29052 0.57994
 H2296 H 0.30007 0.28848 0.54881
 C2297 C 0.30211 0.80575 0.08594
 C2298 C 0.30769 0.78880 0.07821
 C2299 C 0.29695 0.77887 0.06259
 C2300 C 0.28481 0.78780 0.05028
 H2301 H 0.31991 0.78103 0.08432
 H2302 H 0.29933 0.76340 0.06109
 H2303 H 0.28926 0.81312 0.08063
 H2304 H 0.28341 0.80344 0.05024
 C2305 C 0.80196 0.30562 0.08558
 C2306 C 0.80897 0.29008 0.07623
 C2307 C 0.79841 0.28004 0.06053
 C2308 C 0.78429 0.28820 0.04989
 H2309 H 0.82240 0.28343 0.08103
 H2310 H 0.80252 0.26514 0.05763
 H2311 H 0.78803 0.31176 0.08157
 H2312 H 0.78089 0.30347 0.05126
 C2313 C 0.80326 0.80207 0.58711
 C2314 C 0.78503 0.80574 0.58129
 C2315 C 0.77530 0.79482 0.56569
 C2316 C 0.78478 0.78640 0.55096
 H2317 H 0.77621 0.81613 0.58911
 H2318 H 0.75955 0.79412 0.56613
 H2319 H 0.81164 0.79065 0.58028
 H2320 H 0.80030 0.78848 0.54917
 C2321 C 0.30163 0.69438 0.41472
 C2322 C 0.30929 0.70899 0.42497
 C2323 C 0.29905 0.71904 0.44092
 C2324 C 0.28364 0.71187 0.45041
 H2325 H 0.32327 0.71491 0.42084
 H2326 H 0.30448 0.73323 0.44494
 H2327 H 0.28733 0.68883 0.41818
 H2328 H 0.27857 0.69727 0.44781
 C2329 C 0.30251 0.19496 0.91475
 C2330 C 0.30991 0.21002 0.92453
 C2331 C 0.29956 0.22009 0.94039
 C2332 C 0.28485 0.21240 0.95055
 H2333 H 0.32360 0.21630 0.92001
 H2334 H 0.30430 0.23468 0.94379
 H2335 H 0.28840 0.18916 0.91853
 H2336 H 0.28059 0.19743 0.94857
 C2337 C 0.80153 0.69410 0.91451
 C2338 C 0.80892 0.70909 0.92442
 C2339 C 0.79855 0.71933 0.94017
 C2340 C 0.78308 0.71228 0.94966
 H2341 H 0.82281 0.71512 0.92020
 H2342 H 0.80398 0.73354 0.94408
 H2343 H 0.78733 0.68838 0.91807
 H2344 H 0.77799 0.69766 0.94718
 C2345 C 0.80166 0.19647 0.41237
 C2346 C 0.80588 0.21426 0.41892
 C2347 C 0.79519 0.22370 0.43490
 C2348 C 0.78589 0.21401 0.44895
 H2349 H 0.81652 0.22303 0.41140
 H2350 H 0.79517 0.23942 0.43517
 H2351 H 0.79010 0.18814 0.41902
 H2352 H 0.78718 0.19840 0.45009
 C2353 C 0.69672 0.30487 0.41500
 C2354 C 0.68988 0.28917 0.42421
 C2355 C 0.70020 0.27911 0.44012
 C2356 C 0.71519 0.28657 0.45002
 H2357 H 0.67651 0.28252 0.41932
 H2358 H 0.69526 0.26462 0.44369
 H2359 H 0.71033 0.31140 0.41932
 H2360 H 0.71977 0.30140 0.44787
 C2361 C 0.69744 0.80412 0.91285
 C2362 C 0.69354 0.78617 0.91922
 C2363 C 0.70439 0.77664 0.93505
 C2364 C 0.71384 0.78621 0.94905
 H2365 H 0.68300 0.77734 0.91166
 H2366 H 0.70438 0.76092 0.93525
 H2367 H 0.70886 0.81257 0.91953
 H2368 H 0.71260 0.80181 0.95027
 C2369 C 0.19554 0.30185 0.91387
 C2370 C 0.21125 0.30876 0.92305
 C2371 C 0.22120 0.29861 0.93914
 C2372 C 0.21329 0.28428 0.94964
 H2373 H 0.21809 0.32192 0.91791
 H2374 H 0.23594 0.30315 0.94239
 H2375 H 0.18902 0.28830 0.91833
 H2376 H 0.19822 0.28021 0.94779
 C2377 C 0.19763 0.80342 0.41355
 C2378 C 0.19368 0.78545 0.41981
 C2379 C 0.20463 0.77579 0.43550
 C2380 C 0.21385 0.78531 0.44969
 H2381 H 0.18297 0.77677 0.41233
 H2382 H 0.20478 0.76007 0.43551
 H2383 H 0.20927 0.81168 0.42011
 H2384 H 0.21237 0.80088 0.45108
 C2385 C 0.69709 0.69705 0.58677
 C2386 C 0.69341 0.71525 0.58097
 C2387 C 0.70423 0.72499 0.56526
 C2388 C 0.71259 0.71563 0.55043
 H2389 H 0.68323 0.72411 0.58903
 H2390 H 0.70506 0.74067 0.56583
 H2391 H 0.70832 0.68861 0.57969
 H2392 H 0.71040 0.70020 0.54854
 C2393 C 0.69812 0.19487 0.08594
 C2394 C 0.69299 0.21210 0.07851
 C2395 C 0.70398 0.22206 0.06302
 C2396 C 0.71597 0.21307 0.05061
 H2397 H 0.68092 0.22004 0.08474
 H2398 H 0.70184 0.23758 0.06164
 H2399 H 0.71082 0.18732 0.08053
 H2400 H 0.71710 0.19741 0.05044
 C2401 C 0.19762 0.69461 0.08523
 C2402 C 0.19179 0.71122 0.07694
 C2403 C 0.20272 0.72125 0.06143
 C2404 C 0.21632 0.71279 0.05035
 H2405 H 0.17902 0.71862 0.08237
 H2406 H 0.19928 0.73640 0.05900
 H2407 H 0.21084 0.68751 0.08052
 H2408 H 0.21901 0.69736 0.05122
 C2409 C 0.19699 0.19631 0.58559
 C2410 C 0.19335 0.21460 0.58003
 C2411 C 0.20417 0.22452 0.56445
 C2412 C 0.21258 0.21531 0.54956
 H2413 H 0.18319 0.22339 0.58818
 H2414 H 0.20495 0.24020 0.56516
 H2415 H 0.20820 0.18793 0.57842
 H2416 H 0.21045 0.19989 0.54752
   
