data_POSCAR
  _audit_creation_date              2014-09-24
  _audit_creation_method            'ToBaCCo'
  _symmetry_space_group_name_H-M    'P1'
  _symmetry_Int_Tables_number       1
  _symmetry_cell_setting            triclinic
  loop_
  _symmetry_equiv_pos_as_xyz
 x,y,z
_cell_length_a 41.9092
_cell_length_b 51.3503
_cell_length_c 42.3079
_cell_angle_alpha 89.501800
_cell_angle_beta 89.575600
_cell_angle_gamma 89.803000
loop_
  _atom_site_label
  _atom_site_type_symbol
  _atom_site_fract_x
  _atom_site_fract_y
  _atom_site_fract_z
C1 C 1.19816 0.26377 0.29159
 H2 H 1.19312 0.24312 0.29195
 C3 C 1.17988 0.28067 0.31021
 H4 H 1.16084 0.27299 0.32497
 C5 C 1.22913 0.29905 0.27220
 H6 H 1.24802 0.30637 0.25718
 C7 C 1.21197 0.31647 0.29091
 H8 H 1.21793 0.33698 0.29022
 N9 N 1.22248 0.27313 0.27324
 C10 C 1.23742 0.20947 0.20622
 H11 H 1.26289 0.20689 0.20782
 C12 C 1.21992 0.19306 0.18687
 H13 H 1.23219 0.17768 0.17427
 C14 C 1.19057 0.23253 0.22063
 H15 H 1.17924 0.24825 0.23330
 C16 C 1.17207 0.21643 0.20160
 H17 H 1.14663 0.21986 0.19998
 Zn18 Zn 1.24840 0.24988 0.24904
 N19 N 1.22263 0.22862 0.22289
 C20 C 1.29866 0.21562 0.26369
 N21 N 1.27315 0.22828 0.27627
 C22 C 1.26583 0.22573 0.30744
 C23 C 1.28355 0.20909 0.32690
 C24 C 1.31705 0.19874 0.28216
 C25 C 1.27216 0.27104 0.19152
 C26 C 1.29188 0.28674 0.17269
 C27 C 1.32111 0.29851 0.21942
 C28 C 1.30108 0.28235 0.23728
 N29 N 1.27679 0.26945 0.22325
 H30 H 1.30476 0.21851 0.23904
 H31 H 1.24624 0.23661 0.31747
 H32 H 1.27710 0.20882 0.35165
 H33 H 1.33566 0.18820 0.26994
 H34 H 1.25276 0.26057 0.18082
 H35 H 1.28774 0.28771 0.14749
 H36 H 1.33938 0.30947 0.23136
 H37 H 1.30422 0.28070 0.26258
 C38 C 1.18678 0.19634 0.18445
 C39 C 1.18717 0.30728 0.31031
 C40 C 1.31642 0.30116 0.18667
 C41 C 1.30964 0.19458 0.31459
 C42 C 0.69842 -0.23594 0.29428
 H43 H 0.69297 -0.25651 0.29441
 C44 C 0.68096 -0.21905 0.31364
 H45 H 0.66185 -0.22661 0.32841
 C46 C 0.73046 -0.20100 0.27571
 H47 H 0.74996 -0.19396 0.26121
 C48 C 0.71415 -0.18361 0.29519
 H49 H 0.72095 -0.16328 0.29520
 N50 N 0.72225 -0.22662 0.27528
 C51 C 0.73277 -0.28227 0.19773
 H52 H 0.75828 -0.28139 0.19435
 C53 C 0.71467 -0.29789 0.17796
 H54 H 0.72678 -0.30968 0.16048
 C55 C 0.68619 -0.26758 0.22409
 H56 H 0.67495 -0.25538 0.24155
 C57 C 0.66710 -0.28288 0.20470
 H58 H 0.64143 -0.28229 0.20774
 Zn59 Zn 0.74595 -0.24933 0.24838
 N60 N 0.71856 -0.26817 0.22101
 C61 C 0.78954 -0.29073 0.25889
 N62 N 0.77041 -0.27302 0.27355
 C63 C 0.76919 -0.27171 0.30568
 C64 C 0.78744 -0.28873 0.32423
 C65 C 0.80814 -0.30805 0.27648
 C66 C 0.76005 -0.21314 0.20061
 C67 C 0.77894 -0.19638 0.18233
 C68 C 0.82552 -0.21324 0.20900
 C69 C 0.80570 -0.22949 0.22699
 N70 N 0.77358 -0.22898 0.22270
 H71 H 0.79096 -0.29121 0.23348
 H72 H 0.75438 -0.25728 0.31706
 H73 H 0.78646 -0.28712 0.34972
 H74 H 0.82290 -0.32211 0.26419
 H75 H 0.73441 -0.21304 0.19784
 H76 H 0.76749 -0.18324 0.16578
 H77 H 0.85102 -0.21398 0.21279
 H78 H 0.81597 -0.24209 0.24482
 C79 C 0.68136 -0.29870 0.18162
 C80 C 0.68892 -0.19257 0.31420
 C81 C 0.81217 -0.19608 0.18660
 C82 C 0.80734 -0.30718 0.30962
 C83 C 0.70071 0.26224 -0.20500
 H84 H 0.69564 0.24160 -0.20438
 C85 C 0.68354 0.27913 -0.18540
 H86 H 0.66503 0.27151 -0.16994
 C87 C 0.73148 0.29737 -0.22516
 H88 H 0.75030 0.30449 -0.24047
 C89 C 0.71545 0.31478 -0.20547
 H90 H 0.72182 0.33521 -0.20604
 N91 N 0.72381 0.27163 -0.22482
 C92 C 0.73306 0.21527 -0.30175
 H93 H 0.75850 0.21606 -0.30563
 C94 C 0.71449 0.19958 -0.32103
 H95 H 0.72618 0.18770 -0.33870
 C96 C 0.68705 0.23019 -0.27461
 H97 H 0.67620 0.24251 -0.25704
 C98 C 0.66751 0.21479 -0.29344
 H99 H 0.64191 0.21542 -0.28988
 Zn100 Zn 0.74720 0.24886 -0.25187
 N101 N 0.71935 0.22961 -0.27840
 C102 C 0.79171 0.20808 -0.24187
 N103 N 0.77242 0.22554 -0.22696
 C104 C 0.77159 0.22684 -0.19483
 C105 C 0.79028 0.20997 -0.17651
 C106 C 0.81071 0.19088 -0.22451
 C107 C 0.76066 0.28358 -0.30155
 C108 C 0.77915 0.30024 -0.32037
 C109 C 0.82557 0.28654 -0.29111
 C110 C 0.80608 0.27018 -0.27292
 N111 N 0.77423 0.26920 -0.27819
 H112 H 0.79287 0.20768 -0.26730
 H113 H 0.75673 0.24113 -0.18325
 H114 H 0.78953 0.21155 -0.15102
 H115 H 0.82549 0.17695 -0.23699
 H116 H 0.73513 0.28264 -0.30498
 H117 H 0.76639 0.31225 -0.33713
 H118 H 0.85084 0.28557 -0.28644
 H119 H 0.81645 0.25852 -0.25422
 C120 C 0.68125 0.19889 -0.31673
 C121 C 0.69103 0.30571 -0.18551
 C122 C 0.81247 0.30257 -0.31529
 C123 C 0.81019 0.19165 -0.19136
 C124 C 1.19895 -0.23875 -0.20668
 H125 H 1.19437 -0.25947 -0.20601
 C126 C 1.18109 -0.22203 -0.18745
 H127 H 1.16278 -0.22989 -0.17193
 C128 C 1.22840 -0.20311 -0.22748
 H129 H 1.24650 -0.19561 -0.24331
 C130 C 1.21166 -0.18586 -0.20819
 H131 H 1.21715 -0.16527 -0.20923
 N132 N 1.22226 -0.22912 -0.22608
 C133 C 1.23508 -0.29155 -0.29519
 H134 H 1.26064 -0.29378 -0.29510
 C135 C 1.21692 -0.30762 -0.31434
 H136 H 1.22882 -0.32245 -0.32819
 C137 C 1.18860 -0.26954 -0.27756
 H138 H 1.17763 -0.25433 -0.26374
 C139 C 1.16945 -0.28533 -0.29633
 H140 H 1.14389 -0.28219 -0.29658
 Zn141 Zn 1.24743 -0.25207 -0.25130
 N142 N 1.22082 -0.27307 -0.27701
 C143 C 1.29750 -0.28706 -0.23903
 N144 N 1.27317 -0.27373 -0.22507
 C145 C 1.26812 -0.27532 -0.19330
 C146 C 1.28717 -0.29153 -0.17453
 C147 C 1.31691 -0.30363 -0.22125
 C148 C 1.26997 -0.23041 -0.30914
 C149 C 1.28955 -0.21472 -0.32812
 C150 C 1.31959 -0.20339 -0.28173
 C151 C 1.29969 -0.21954 -0.26372
 N152 N 1.27511 -0.23225 -0.27751
 H153 H 1.30214 -0.28465 -0.26401
 H154 H 1.24939 -0.26404 -0.18233
 H155 H 1.28282 -0.29236 -0.14930
 H156 H 1.33547 -0.31458 -0.23316
 H157 H 1.25033 -0.24072 -0.31963
 H158 H 1.28505 -0.21359 -0.35326
 H159 H 1.33814 -0.19262 -0.26997
 H160 H 1.30324 -0.22139 -0.23850
 C161 C 1.18364 -0.30470 -0.31502
 C162 C 1.18783 -0.19533 -0.18783
 C163 C 1.31447 -0.20057 -0.31439
 C164 C 1.31177 -0.30621 -0.18853
 C165 C 0.25932 0.21170 0.70932
 H166 H 0.23368 0.21054 0.71136
 C167 C 0.27560 0.19394 0.69025
 H168 H 0.26215 0.17946 0.67757
 C169 C 0.30804 0.23048 0.72528
 H170 H 0.32082 0.24424 0.73948
 C171 C 0.32528 0.21314 0.70644
 H172 H 0.35106 0.21434 0.70582
 N173 N 0.27557 0.22976 0.72608
 C174 C 0.19352 0.23572 0.78113
 H175 H 0.18263 0.25198 0.76889
 C176 C 0.17452 0.21896 0.79932
 H177 H 0.14930 0.22326 0.80107
 C178 C 0.23984 0.21176 0.79460
 H179 H 0.26532 0.20888 0.79212
 C180 C 0.22190 0.19472 0.81338
 H181 H 0.23424 0.17852 0.82435
 Zn182 Zn 0.25154 0.25263 0.75237
 N183 N 0.22548 0.23166 0.77882
 C184 C 0.20285 0.26486 0.70808
 N185 N 0.22559 0.27517 0.72708
 C186 C 0.22983 0.30142 0.72854
 C187 C 0.21171 0.31822 0.70976
 C188 C 0.18365 0.28105 0.68943
 C189 C 0.27655 0.27188 0.80976
 C190 C 0.29582 0.28744 0.82859
 C191 C 0.32056 0.30478 0.78121
 C192 C 0.30093 0.28883 0.76331
 N193 N 0.27931 0.27287 0.77770
 H194 H 0.19910 0.24410 0.70775
 H195 H 0.24710 0.30955 0.74436
 H196 H 0.21552 0.33904 0.71106
 H197 H 0.16561 0.27260 0.67450
 H198 H 0.25909 0.25928 0.82084
 H199 H 0.29332 0.28627 0.85405
 H200 H 0.33694 0.31784 0.76917
 H201 H 0.30242 0.28958 0.73778
 C202 C 0.18846 0.19780 0.81580
 C203 C 0.30905 0.19454 0.68856
 C204 C 0.31805 0.30434 0.81433
 C205 C 0.18833 0.30803 0.68995
 C206 C 0.75953 0.71131 0.70908
 H207 H 0.73390 0.71007 0.71119
 C208 C 0.77585 0.69368 0.68987
 H209 H 0.76244 0.67921 0.67715
 C210 C 0.80819 0.73023 0.72499
 H211 H 0.82094 0.74400 0.73919
 C212 C 0.82547 0.71302 0.70599
 H213 H 0.85124 0.71434 0.70528
 N214 N 0.77573 0.72940 0.72586
 C215 C 0.69344 0.73539 0.78059
 H216 H 0.68260 0.75160 0.76819
 C217 C 0.67438 0.71876 0.79889
 H218 H 0.64916 0.72309 0.80055
 C219 C 0.73971 0.71149 0.79438
 H220 H 0.76519 0.70859 0.79200
 C221 C 0.72171 0.69457 0.81327
 H222 H 0.73401 0.67843 0.82441
 Zn223 Zn 0.75161 0.75225 0.75207
 N224 N 0.72541 0.73132 0.77841
 C225 C 0.70329 0.76447 0.70739
 N226 N 0.72584 0.77480 0.72660
 C227 C 0.73009 0.80104 0.72804
 C228 C 0.71219 0.81783 0.70903
 C229 C 0.68433 0.78064 0.68849
 C230 C 0.77630 0.77152 0.80958
 C231 C 0.79549 0.78707 0.82852
 C232 C 0.82052 0.80438 0.78126
 C233 C 0.80095 0.78845 0.76326
 N234 N 0.77924 0.77250 0.77754
 H235 H 0.69953 0.74371 0.70707
 H236 H 0.74721 0.80919 0.74402
 H237 H 0.71599 0.83865 0.71035
 H238 H 0.66644 0.77218 0.67340
 H239 H 0.75875 0.75896 0.82057
 H240 H 0.79284 0.78591 0.85396
 H241 H 0.83698 0.81741 0.76931
 H242 H 0.80257 0.78921 0.73773
 C243 C 0.68827 0.69770 0.81562
 C244 C 0.80929 0.69444 0.68805
 C245 C 0.81783 0.80393 0.81437
 C246 C 0.68903 0.80762 0.68899
 C247 C 0.76298 0.21512 0.20159
 H248 H 0.73733 0.21651 0.19940
 C249 C 0.78028 0.19848 0.18195
 H250 H 0.76759 0.18686 0.16494
 C251 C 0.81025 0.22776 0.22766
 H252 H 0.82176 0.23882 0.24591
 C253 C 0.82853 0.21157 0.20827
 H254 H 0.85414 0.21092 0.21138
 N255 N 0.77809 0.22923 0.22397
 C256 C 0.70257 0.23831 0.29409
 H257 H 0.69786 0.25903 0.29320
 C258 C 0.68333 0.22210 0.31278
 H259 H 0.66374 0.23036 0.32625
 C260 C 0.73391 0.20223 0.27786
 H261 H 0.75371 0.19454 0.26432
 C262 C 0.71575 0.18545 0.29676
 H263 H 0.72144 0.16486 0.29737
 Zn264 Zn 0.75213 0.25018 0.25019
 N265 N 0.72691 0.22812 0.27659
 C266 C 0.69332 0.26699 0.22310
 N267 N 0.72546 0.27078 0.22345
 C268 C 0.73928 0.28895 0.20423
 C269 C 0.72062 0.30527 0.18534
 C270 C 0.67373 0.28282 0.20444
 C271 C 0.77395 0.27166 0.30786
 C272 C 0.79234 0.28777 0.32692
 C273 C 0.81909 0.30391 0.28005
 C274 C 0.80031 0.28747 0.26193
 N275 N 0.77790 0.27198 0.27588
 H276 H 0.68267 0.25160 0.23706
 H277 H 0.76481 0.29099 0.20351
 H278 H 0.73219 0.32023 0.17124
 H279 H 0.64822 0.27956 0.20469
 H280 H 0.75662 0.25889 0.31877
 H281 H 0.78894 0.28706 0.35231
 H282 H 0.83629 0.31639 0.26825
 H283 H 0.80424 0.28676 0.23675
 C284 C 0.68992 0.19534 0.31418
 C285 C 0.81354 0.19646 0.18518
 C286 C 0.81517 0.30431 0.31302
 C287 C 0.68731 0.30259 0.18564
 C288 C 0.26285 0.71600 0.20274
 H289 H 0.23732 0.71815 0.20002
 C290 C 0.27981 0.69896 0.18330
 H291 H 0.26698 0.68785 0.16591
 C292 C 0.31004 0.72697 0.23000
 H293 H 0.32162 0.73739 0.24875
 C294 C 0.32801 0.71037 0.21083
 H295 H 0.35348 0.70890 0.21454
 N296 N 0.27808 0.72956 0.22555
 C297 C 0.20195 0.73913 0.29482
 H298 H 0.19659 0.75971 0.29322
 C299 C 0.18270 0.72281 0.31340
 H300 H 0.16248 0.73087 0.32611
 C301 C 0.23479 0.70344 0.28031
 H302 H 0.25512 0.69592 0.26742
 C303 C 0.21662 0.68658 0.29911
 H304 H 0.22290 0.66611 0.30029
 Zn305 Zn 0.25239 0.75099 0.25160
 N306 N 0.22708 0.72915 0.27824
 C307 C 0.19395 0.76703 0.22311
 N308 N 0.22586 0.77166 0.22482
 C309 C 0.23958 0.79092 0.20716
 C310 C 0.22097 0.80723 0.18821
 C311 C 0.17441 0.78288 0.20441
 C312 C 0.27279 0.77503 0.30834
 C313 C 0.29116 0.79164 0.32680
 C314 C 0.32143 0.80328 0.28014
 C315 C 0.30231 0.78661 0.26270
 N316 N 0.27834 0.77300 0.27679
 H317 H 0.18351 0.75094 0.23605
 H318 H 0.26497 0.79393 0.20791
 H319 H 0.23236 0.82298 0.17529
 H320 H 0.14907 0.77895 0.20352
 H321 H 0.25412 0.76368 0.31944
 H322 H 0.28627 0.79150 0.35189
 H323 H 0.33890 0.81440 0.26693
 H324 H 0.30700 0.78439 0.23774
 C325 C 0.19003 0.69619 0.31562
 C326 C 0.31289 0.69590 0.18721
 C327 C 0.31621 0.80650 0.31303
 C328 C 0.18785 0.80354 0.18697
 N329 N 1.05751 0.02836 0.03316
 N330 N 1.07811 0.04732 0.03761
 N331 N 1.03564 -0.02604 0.05702
 N332 N 1.04008 -0.04488 0.07794
 N333 N 1.05813 -0.02642 0.03527
 N334 N 1.07852 -0.04555 0.04083
 N335 N 1.03509 0.02873 0.05498
 N336 N 1.03990 0.04793 0.07494
 C337 C 1.06676 0.05948 0.06367
 C338 C 1.06688 -0.05696 0.06750
 N339 N 0.94521 -0.02715 0.03453
 N340 N 0.92479 -0.04619 0.04023
 N341 N 0.96631 0.02818 0.05451
 N342 N 0.96059 0.04716 0.07459
 N343 N 0.94442 0.02769 0.03249
 N344 N 0.92328 0.04647 0.03691
 N345 N 0.96703 -0.02643 0.05661
 N346 N 0.96201 -0.04488 0.07795
 Mn347 Mn 1.00101 0.00113 0.05613
 C348 C 0.93568 -0.05716 0.06736
 C349 C 0.93379 0.05852 0.06322
 N350 N 1.05923 -0.02753 -0.03281
 N351 N 1.08050 -0.04617 -0.03718
 N352 N 1.03658 0.02673 -0.05675
 N353 N 1.04136 0.04560 -0.07762
 N354 N 1.05854 0.02712 -0.03481
 N355 N 1.07896 0.04617 -0.04022
 N356 N 1.03731 -0.02816 -0.05478
 N357 N 1.04291 -0.04742 -0.07456
 Mn358 Mn 1.05871 0.00037 0.00022
 C359 C 1.06990 -0.05856 -0.06318
 C360 C 1.06786 0.05762 -0.06694
 N361 N 0.94526 0.02642 -0.03561
 N362 N 0.92413 0.04488 -0.04170
 N363 N 0.96874 -0.02851 -0.05527
 N364 N 0.96450 -0.04777 -0.07519
 N365 N 0.94610 -0.02832 -0.03367
 N366 N 0.92571 -0.04742 -0.03844
 N367 N 0.96785 0.02627 -0.05728
 N368 N 0.96272 0.04466 -0.07865
 Mn369 Mn 0.94485 -0.00036 -0.00055
 Mn370 Mn 1.00263 -0.00091 -0.05638
 Cl371 Cl 1.00178 0.00007 -0.00016
 C372 C 0.93542 0.05622 -0.06855
 C373 C 0.93764 -0.05949 -0.06435
 N374 N 1.05363 0.52830 0.53352
 N375 N 1.07390 0.54745 0.53809
 N376 N 1.03223 0.47332 0.55634
 N377 N 1.03729 0.45449 0.57717
 N378 N 1.05488 0.47363 0.53475
 N379 N 1.07615 0.45521 0.54047
 N380 N 1.03132 0.52819 0.55546
 N381 N 1.03589 0.54729 0.57564
 C382 C 1.06250 0.55924 0.56437
 C383 C 1.06473 0.44331 0.56689
 N384 N 0.94170 0.47227 0.53397
 N385 N 0.92135 0.45313 0.53934
 N386 N 0.96250 0.52740 0.55500
 N387 N 0.95653 0.54605 0.57548
 N388 N 0.94063 0.52707 0.53295
 N389 N 0.91921 0.54555 0.53782
 N390 N 0.96363 0.47268 0.55596
 N391 N 0.95884 0.45384 0.57682
 Mn392 Mn 0.99741 0.50041 0.55605
 C393 C 0.93245 0.44170 0.56611
 C394 C 0.92954 0.55733 0.56437
 N395 N 1.05589 0.47322 0.46662
 N396 N 1.07745 0.45486 0.46182
 N397 N 1.03288 0.52770 0.44360
 N398 N 1.03800 0.54657 0.42278
 N399 N 1.05482 0.52783 0.46557
 N400 N 1.07559 0.54661 0.46020
 N401 N 1.03400 0.47273 0.44461
 N402 N 1.03992 0.45384 0.42437
 Mn403 Mn 1.05512 0.50074 0.50013
 C404 C 1.06706 0.44279 0.43552
 C405 C 1.06470 0.55827 0.43355
 N406 N 0.94156 0.52673 0.46476
 N407 N 0.92039 0.54524 0.45897
 N408 N 0.96534 0.47208 0.44415
 N409 N 0.96114 0.45301 0.42394
 N410 N 0.94269 0.47199 0.46575
 N411 N 0.92235 0.45292 0.46071
 N412 N 0.96417 0.52687 0.44311
 N413 N 0.95904 0.54551 0.42207
 Mn414 Mn 0.94126 0.49951 0.49936
 Mn415 Mn 0.99909 0.49985 0.44350
 Cl416 Cl 0.99821 0.50013 0.49975
 C417 C 0.93172 0.55691 0.43232
 C418 C 0.93430 0.44114 0.43462
 N419 N 0.55323 0.02901 0.53494
 N420 N 0.57290 0.04859 0.53942
 N421 N 0.53301 -0.02650 0.55701
 N422 N 0.53825 -0.04564 0.57734
 N423 N 0.55559 -0.02569 0.53537
 N424 N 0.57704 -0.04409 0.54058
 N425 N 0.53111 0.02834 0.55705
 N426 N 0.53529 0.04743 0.57735
 C427 C 0.56141 0.05999 0.56590
 C428 C 0.56577 -0.05649 0.56674
 N429 N 0.44251 -0.02846 0.53492
 N430 N 0.42248 -0.04786 0.53994
 N431 N 0.46228 0.02663 0.55682
 N432 N 0.45620 0.04522 0.57738
 N433 N 0.44036 0.02625 0.53482
 N434 N 0.41882 0.04460 0.53978
 N435 N 0.46452 -0.02813 0.55682
 N436 N 0.46020 -0.04741 0.57723
 Mn437 Mn 0.49772 0.00010 0.55730
 C438 C 0.43393 -0.05961 0.56633
 C439 C 0.42909 0.05637 0.56636
 N440 N 0.55627 -0.02532 0.46723
 N441 N 0.57797 -0.04353 0.46240
 N442 N 0.53213 0.02908 0.44510
 N443 N 0.53717 0.04793 0.42424
 N444 N 0.55416 0.02923 0.46699
 N445 N 0.57491 0.04801 0.46151
 N446 N 0.53438 -0.02586 0.44522
 N447 N 0.54048 -0.04468 0.42492
 Mn448 Mn 0.55513 0.00181 0.50115
 C449 C 0.56774 -0.05559 0.43604
 C450 C 0.56388 0.05966 0.43491
 N451 N 0.44102 0.02664 0.46675
 N452 N 0.41949 0.04498 0.46176
 N453 N 0.46566 -0.02735 0.44490
 N454 N 0.46143 -0.04594 0.42405
 N455 N 0.44322 -0.02809 0.46671
 N456 N 0.42306 -0.04721 0.46121
 N457 N 0.46335 0.02742 0.44484
 N458 N 0.45757 0.04636 0.42432
 Mn459 Mn 0.44142 -0.00094 0.50080
 Mn460 Mn 0.49888 0.00084 0.44463
 Cl461 Cl 0.49828 0.00046 0.50096
 C462 C 0.43017 0.05723 0.43528
 C463 C 0.43486 -0.05829 0.43459
 N464 N 0.55682 0.52882 0.03437
 N465 N 0.57665 0.54835 0.03856
 N466 N 0.53553 0.47404 0.05765
 N467 N 0.53992 0.45497 0.07825
 N468 N 0.55812 0.47398 0.03601
 N469 N 0.57852 0.45480 0.04129
 N470 N 0.53442 0.52875 0.05622
 N471 N 0.53853 0.54818 0.07601
 C472 C 0.56492 0.56033 0.06459
 C473 C 0.56678 0.44307 0.06773
 N474 N 0.44502 0.47267 0.03502
 N475 N 0.42477 0.45346 0.04030
 N476 N 0.46568 0.52779 0.05561
 N477 N 0.45967 0.54648 0.07600
 N478 N 0.44394 0.52746 0.03344
 N479 N 0.42259 0.54605 0.03810
 N480 N 0.46698 0.47307 0.05697
 N481 N 0.46239 0.45407 0.07768
 Mn482 Mn 0.50065 0.50092 0.05696
 C483 C 0.43601 0.44194 0.06694
 C484 C 0.43283 0.55784 0.06469
 N485 N 0.55950 0.47328 -0.03204
 N486 N 0.58112 0.45493 -0.03653
 N487 N 0.53634 0.52742 -0.05567
 N488 N 0.54110 0.54628 -0.07653
 N489 N 0.55819 0.52791 -0.03363
 N490 N 0.57854 0.54703 -0.03899
 N491 N 0.53762 0.47252 -0.05405
 N492 N 0.54364 0.45344 -0.07401
 Mn493 Mn 0.55852 0.50100 0.00120
 C494 C 0.57081 0.44257 -0.06267
 C495 C 0.56747 0.55843 -0.06577
 N496 N 0.44504 0.52652 -0.03470
 N497 N 0.42397 0.54507 -0.04051
 N498 N 0.46894 0.47180 -0.05470
 N499 N 0.46478 0.45266 -0.07483
 N500 N 0.44622 0.47183 -0.03317
 N501 N 0.42588 0.45275 -0.03818
 N502 N 0.46770 0.52660 -0.05630
 N503 N 0.46274 0.54532 -0.07729
 Mn504 Mn 0.44467 0.49962 0.00015
 Mn505 Mn 0.50265 0.49957 -0.05555
 Cl506 Cl 0.50161 0.50029 0.00068
 C507 C 0.43541 0.55675 -0.06707
 C508 C 0.43790 0.44085 -0.06417
 C509 C 1.13430 0.14217 0.12743
 C510 C 1.12191 0.15031 0.15698
 C511 C 1.13863 0.16853 0.17506
 C512 C 1.16787 0.17866 0.16432
 C513 C 1.17967 0.17102 0.13470
 C514 C 1.16317 0.15311 0.11645
 C515 C 1.11651 0.12178 0.10954
 C516 C 1.12728 0.11190 0.08035
 C517 C 1.11072 0.09205 0.06536
 C518 C 1.08294 0.08155 0.07892
 C519 C 1.07147 0.09169 0.10753
 C520 C 1.08808 0.11157 0.12297
 C521 C 1.09328 0.13984 0.16861
 C522 C 1.07673 0.12091 0.15198
 H523 H 1.08370 0.14614 0.19116
 H524 H 1.05490 0.11320 0.16221
 H525 H 1.12941 0.17416 0.19803
 H526 H 1.20189 0.17890 0.12561
 H527 H 1.11997 0.08467 0.04319
 H528 H 1.04995 0.08374 0.11816
 H529 H 1.17366 0.14793 0.09403
 H530 H 1.14863 0.11895 0.06882
 C531 C 1.12982 0.64200 0.62808
 C532 C 1.11856 0.64909 0.65846
 C533 C 1.13564 0.66709 0.67655
 C534 C 1.16412 0.67802 0.66495
 C535 C 1.17467 0.67151 0.63449
 C536 C 1.15780 0.65383 0.61625
 C537 C 1.11189 0.62168 0.61023
 C538 C 1.12180 0.61266 0.58036
 C539 C 1.10531 0.59276 0.56541
 C540 C 1.07842 0.58139 0.57968
 C541 C 1.06773 0.59070 0.60900
 C542 C 1.08435 0.61058 0.62443
 C543 C 1.09074 0.63778 0.67088
 C544 C 1.07398 0.61899 0.65422
 H545 H 1.08200 0.64330 0.69405
 H546 H 1.05283 0.61060 0.66505
 H547 H 1.12737 0.67188 0.70014
 H548 H 1.19622 0.68006 0.62474
 H549 H 1.11393 0.58604 0.54270
 H550 H 1.04691 0.58204 0.62020
 H551 H 1.16735 0.64954 0.59315
 H552 H 1.14247 0.62036 0.56826
 C553 C 0.62683 0.14452 0.62820
 C554 C 0.61852 0.14926 0.66013
 C555 C 0.63578 0.16747 0.67771
 C556 C 0.66133 0.18124 0.66396
 C557 C 0.66861 0.17725 0.63194
 C558 C 0.65165 0.15920 0.61427
 C559 C 0.60922 0.12371 0.61086
 C560 C 0.61712 0.11635 0.57976
 C561 C 0.60114 0.09597 0.56520
 C562 C 0.57669 0.08252 0.58105
 C563 C 0.56803 0.09006 0.61174
 C564 C 0.58435 0.11027 0.62686
 C565 C 0.59341 0.13550 0.67447
 C566 C 0.57654 0.11658 0.65813
 H567 H 0.58685 0.13926 0.69884
 H568 H 0.55749 0.10635 0.67039
 H569 H 0.62996 0.17026 0.70246
 H570 H 0.68763 0.18807 0.62046
 H571 H 0.60820 0.09057 0.54145
 H572 H 0.54925 0.07966 0.62423
 H573 H 0.65856 0.15697 0.58985
 H574 H 0.63594 0.12568 0.56642
 C575 C 0.62864 0.64603 0.12628
 C576 C 0.61945 0.65125 0.15786
 C577 C 0.63615 0.66977 0.17547
 C578 C 0.66196 0.68345 0.16208
 C579 C 0.67004 0.67904 0.13032
 C580 C 0.65368 0.66063 0.11263
 C581 C 0.61165 0.62483 0.10902
 C582 C 0.62054 0.61682 0.07839
 C583 C 0.60500 0.59614 0.06394
 C584 C 0.58004 0.58305 0.07945
 C585 C 0.57050 0.59118 0.10964
 C586 C 0.58635 0.61166 0.12466
 C587 C 0.59400 0.63769 0.17187
 C588 C 0.57762 0.61850 0.15552
 H589 H 0.58676 0.64184 0.19595
 H590 H 0.55825 0.60845 0.16751
 H591 H 0.62969 0.67286 0.20002
 H592 H 0.68926 0.68979 0.11907
 H593 H 0.61276 0.59025 0.04059
 H594 H 0.55134 0.58105 0.12189
 H595 H 0.66118 0.65806 0.08843
 H596 H 0.63980 0.62589 0.06540
 C597 C 0.86981 -0.13929 0.13649
 C598 C 0.84383 -0.15136 0.12131
 C599 C 0.82572 -0.17034 0.13739
 C600 C 0.83255 -0.17719 0.16886
 C601 C 0.85829 -0.16511 0.18380
 C602 C 0.87674 -0.14653 0.16790
 C603 C 0.88820 -0.11879 0.11871
 C604 C 0.91494 -0.10613 0.13140
 C605 C 0.93053 -0.08649 0.11440
 C606 C 0.91990 -0.07889 0.08437
 C607 C 0.89385 -0.09181 0.07110
 C608 C 0.87809 -0.11174 0.08793
 C609 C 0.83567 -0.14405 0.09042
 C610 C 0.85224 -0.12452 0.07420
 H611 H 0.81579 -0.15328 0.07877
 H612 H 0.84464 -0.11930 0.05054
 H613 H 0.80613 -0.17967 0.12539
 H614 H 0.86379 -0.16951 0.20824
 H615 H 0.95075 -0.07697 0.12506
 H616 H 0.88570 -0.08626 0.04772
 H617 H 0.89587 -0.13776 0.18090
 H618 H 0.92419 -0.11099 0.15442
 C619 C 0.86801 0.35811 0.63417
 C620 C 0.83861 0.34956 0.62202
 C621 C 0.82058 0.33071 0.63848
 C622 C 0.83090 0.31993 0.66768
 C623 C 0.86089 0.32840 0.67888
 C624 C 0.87893 0.34700 0.66256
 C625 C 0.88596 0.37895 0.61646
 C626 C 0.91509 0.38926 0.62707
 C627 C 0.93024 0.40931 0.61037
 C628 C 0.91691 0.41960 0.58265
 C629 C 0.88830 0.40913 0.57145
 C630 C 0.87273 0.38903 0.58816
 C631 C 0.82716 0.35996 0.59351
 C632 C 0.84383 0.37925 0.57697
 H633 H 0.80471 0.35331 0.58398
 H634 H 0.83373 0.38684 0.55524
 H635 H 0.79901 0.32402 0.62737
 H636 H 0.87025 0.32217 0.70142
 H637 H 0.95239 0.41696 0.61944
 H638 H 0.87784 0.41692 0.54998
 H639 H 0.90116 0.35273 0.67305
 H640 H 0.92646 0.38237 0.64833
 C641 C 0.37045 -0.14451 0.63254
 C642 C 0.33811 -0.14889 0.62489
 C643 C 0.32021 -0.16739 0.64193
 C644 C 0.33410 -0.18214 0.66637
 C645 C 0.36656 -0.17851 0.67296
 C646 C 0.38451 -0.15997 0.65638
 C647 C 0.38812 -0.12340 0.61509
 C648 C 0.41952 -0.11602 0.62265
 C649 C 0.43444 -0.09551 0.60653
 C650 C 0.41862 -0.08204 0.58231
 C651 C 0.38760 -0.08948 0.57421
 C652 C 0.37211 -0.10969 0.59069
 C653 C 0.32368 -0.13464 0.60047
 C654 C 0.34044 -0.11570 0.58348
 H655 H 0.29900 -0.13817 0.59440
 H656 H 0.32816 -0.10518 0.56484
 H657 H 0.29513 -0.16974 0.63665
 H658 H 0.37822 -0.19006 0.69107
 H659 H 0.45841 -0.09009 0.61319
 H660 H 0.37509 -0.07899 0.55569
 H661 H 0.40928 -0.15806 0.66263
 H662 H 0.43276 -0.12546 0.64128
 C663 C 0.37235 0.35741 0.13378
 C664 C 0.34013 0.35277 0.12586
 C665 C 0.32226 0.33422 0.14286
 C666 C 0.33605 0.31969 0.16756
 C667 C 0.36838 0.32363 0.17450
 C668 C 0.38630 0.34221 0.15794
 C669 C 0.39002 0.37849 0.11626
 C670 C 0.42131 0.38605 0.12395
 C671 C 0.43625 0.40646 0.10768
 C672 C 0.42057 0.41968 0.08316
 C673 C 0.38964 0.41208 0.07495
 C674 C 0.37412 0.39194 0.09157
 C675 C 0.32582 0.36678 0.10117
 C676 C 0.34256 0.38572 0.08416
 H677 H 0.30123 0.36307 0.09491
 H678 H 0.33037 0.39604 0.06531
 H679 H 0.29727 0.33165 0.13733
 H680 H 0.37995 0.31228 0.19283
 H681 H 0.46015 0.41199 0.11444
 H682 H 0.37723 0.42237 0.05620
 H683 H 0.41097 0.34434 0.16444
 H684 H 0.43446 0.37680 0.14279
 C685 C 0.86817 0.13701 -0.13857
 C686 C 0.83719 0.14370 -0.12772
 C687 C 0.81861 0.16178 -0.14472
 C688 C 0.83038 0.17344 -0.17258
 C689 C 0.86138 0.16720 -0.18282
 C690 C 0.88003 0.14929 -0.16614
 C691 C 0.88675 0.11688 -0.12041
 C692 C 0.91729 0.10817 -0.12984
 C693 C 0.93313 0.08875 -0.11272
 C694 C 0.91909 0.07758 -0.08570
 C695 C 0.88896 0.08640 -0.07573
 C696 C 0.87266 0.10576 -0.09294
 C697 C 0.82477 0.13213 -0.10019
 C698 C 0.84216 0.11366 -0.08312
 H699 H 0.80112 0.13733 -0.09178
 H700 H 0.83138 0.10518 -0.06207
 H701 H 0.79462 0.16626 -0.13665
 H702 H 0.87136 0.17630 -0.20384
 H703 H 0.95640 0.08232 -0.12085
 H704 H 0.87788 0.07785 -0.05488
 H705 H 0.90359 0.14532 -0.17533
 H706 H 0.92925 0.11583 -0.15054
 C707 C 0.86492 0.63819 0.36276
 C708 C 0.83380 0.64474 0.37333
 C709 C 0.81534 0.66286 0.35627
 C710 C 0.82736 0.67464 0.32859
 C711 C 0.85850 0.66855 0.31864
 C712 C 0.87705 0.65063 0.33542
 C713 C 0.88337 0.61799 0.38092
 C714 C 0.91405 0.60946 0.37173
 C715 C 0.92976 0.58993 0.38875
 C716 C 0.91545 0.57844 0.41544
 C717 C 0.88520 0.58711 0.42522
 C718 C 0.86901 0.60660 0.40809
 C719 C 0.82113 0.63295 0.40062
 C720 C 0.83839 0.61437 0.41767
 H721 H 0.79737 0.63803 0.40882
 H722 H 0.82740 0.60570 0.43849
 H723 H 0.79125 0.66727 0.36410
 H724 H 0.86866 0.67776 0.29778
 H725 H 0.95314 0.58364 0.38077
 H726 H 0.87392 0.57832 0.44582
 H727 H 0.90071 0.64678 0.32644
 H728 H 0.92624 0.61734 0.35128
 C729 C 0.36018 0.13921 0.37011
 C730 C 0.37371 0.14920 0.34189
 C731 C 0.35719 0.16796 0.32389
 C732 C 0.32652 0.17716 0.33297
 C733 C 0.31376 0.16709 0.36167
 C734 C 0.33017 0.14862 0.37975
 C735 C 0.37822 0.11871 0.38821
 C736 C 0.36666 0.10739 0.41651
 C737 C 0.38384 0.08777 0.43187
 C738 C 0.41300 0.07888 0.41953
 C739 C 0.42513 0.09038 0.39177
 C740 C 0.40801 0.11014 0.37608
 C741 C 0.40365 0.14031 0.33156
 C742 C 0.42037 0.12116 0.34821
 H743 H 0.41420 0.14803 0.30998
 H744 H 0.44324 0.11474 0.33897
 H745 H 0.36941 0.17584 0.30339
 H746 H 0.29008 0.17198 0.36993
 H747 H 0.37403 0.07932 0.45337
 H748 H 0.44775 0.08373 0.38213
 H749 H 0.31847 0.14161 0.40092
 H750 H 0.34432 0.11322 0.42712
 C751 C 0.36901 0.63895 -0.13524
 C752 C 0.33651 0.64301 -0.12728
 C753 C 0.31815 0.66108 -0.14444
 C754 C 0.33170 0.67564 -0.16935
 C755 C 0.36425 0.67227 -0.17635
 C756 C 0.38266 0.65419 -0.15963
 C757 C 0.38731 0.61844 -0.11747
 C758 C 0.41904 0.61156 -0.12507
 C759 C 0.43466 0.59170 -0.10848
 C760 C 0.41921 0.57839 -0.08374
 C761 C 0.38781 0.58529 -0.07566
 C762 C 0.37166 0.60488 -0.09257
 C763 C 0.32245 0.62890 -0.10239
 C764 C 0.33974 0.61046 -0.08519
 H765 H 0.29765 0.63215 -0.09610
 H766 H 0.32774 0.60005 -0.06617
 H767 H 0.29302 0.66331 -0.13882
 H768 H 0.37564 0.68371 -0.19482
 H769 H 0.45891 0.58669 -0.11514
 H770 H 0.37559 0.57493 -0.05673
 H771 H 0.40748 0.65251 -0.16619
 H772 H 0.43207 0.62092 -0.14404
 C773 C 1.13895 -0.14003 -0.12891
 C774 C 1.12164 -0.15531 -0.15057
 C775 C 1.13750 -0.17419 -0.16879
 C776 C 1.17066 -0.17722 -0.16677
 C777 C 1.18783 -0.16183 -0.14575
 C778 C 1.17223 -0.14361 -0.12684
 C779 C 1.12127 -0.11989 -0.11019
 C780 C 1.13586 -0.10498 -0.08654
 C781 C 1.11882 -0.08555 -0.07085
 C782 C 1.08694 -0.08034 -0.07845
 C783 C 1.07179 -0.09567 -0.10112
 C784 C 1.08857 -0.11561 -0.11667
 C785 C 1.08891 -0.15098 -0.15474
 C786 C 1.07286 -0.13125 -0.13858
 H787 H 1.07567 -0.16256 -0.17142
 H788 H 1.04771 -0.12824 -0.14325
 H789 H 1.12432 -0.18578 -0.18552
 H790 H 1.21351 -0.16387 -0.14410
 H791 H 1.13090 -0.07417 -0.05316
 H792 H 1.04692 -0.09209 -0.10664
 H793 H 1.18679 -0.13211 -0.11140
 H794 H 1.16036 -0.10798 -0.07978
 C795 C 1.13746 0.36255 0.36875
 C796 C 1.12043 0.34729 0.34686
 C797 C 1.13655 0.32850 0.32869
 C798 C 1.16971 0.32552 0.33103
 C799 C 1.18660 0.34094 0.35225
 C800 C 1.17074 0.35909 0.37107
 C801 C 1.11948 0.38248 0.38755
 C802 C 1.13378 0.39730 0.41146
 C803 C 1.11642 0.41642 0.42738
 C804 C 1.08449 0.42142 0.41977
 C805 C 1.06966 0.40623 0.39674
 C806 C 1.08677 0.38659 0.38095
 C807 C 1.08770 0.35150 0.34248
 C808 C 1.07136 0.37102 0.35875
 H809 H 1.07467 0.33994 0.32562
 H810 H 1.04622 0.37390 0.35396
 H811 H 1.12356 0.31689 0.31183
 H812 H 1.21226 0.33894 0.35420
 H813 H 1.12828 0.42769 0.44531
 H814 H 1.04477 0.40965 0.39117
 H815 H 1.18510 0.37058 0.38669
 H816 H 1.15828 0.39444 0.41828
 C817 C 0.63876 -0.13657 0.37121
 C818 C 0.62199 -0.15196 0.34927
 C819 C 0.63826 -0.17103 0.33168
 C820 C 0.67134 -0.17419 0.33464
 C821 C 0.68799 -0.15868 0.35594
 C822 C 0.67196 -0.14024 0.37420
 C823 C 0.62063 -0.11631 0.38934
 C824 C 0.63466 -0.10127 0.41319
 C825 C 0.61716 -0.08196 0.42858
 C826 C 0.58534 -0.07697 0.42050
 C827 C 0.57079 -0.09229 0.39744
 C828 C 0.58805 -0.11214 0.38218
 C829 C 0.58938 -0.14763 0.34427
 C830 C 0.57291 -0.12786 0.35997
 H831 H 0.57655 -0.15930 0.32737
 H832 H 0.54787 -0.12492 0.35473
 H833 H 0.62546 -0.18270 0.31474
 H834 H 0.71359 -0.16081 0.35836
 H835 H 0.62881 -0.07057 0.44654
 H836 H 0.54600 -0.08886 0.39150
 H837 H 0.68615 -0.12868 0.38991
 H838 H 0.65905 -0.10413 0.42040
 C839 C 0.64144 0.36156 -0.12781
 C840 C 0.62439 0.34590 -0.14925
 C841 C 0.64052 0.32690 -0.16706
 C842 C 0.67371 0.32409 -0.16486
 C843 C 0.69064 0.33989 -0.14410
 C844 C 0.67477 0.35826 -0.12558
 C845 C 0.62343 0.38174 -0.10941
 C846 C 0.63773 0.39698 -0.08592
 C847 C 0.62031 0.41629 -0.07039
 C848 C 0.58833 0.42105 -0.07801
 C849 C 0.57351 0.40546 -0.10062
 C850 C 0.59067 0.38562 -0.11599
 C851 C 0.59162 0.34991 -0.15358
 C852 C 0.57525 0.36964 -0.13773
 H853 H 0.57858 0.33803 -0.17011
 H854 H 0.55007 0.37236 -0.14249
 H855 H 0.62750 0.31501 -0.18360
 H856 H 0.71632 0.33804 -0.14229
 H857 H 0.63216 0.42789 -0.05275
 H858 H 0.54858 0.40870 -0.10618
 H859 H 0.68913 0.37006 -0.11030
 H860 H 0.66227 0.39431 -0.07913
 C861 C 1.13262 0.14181 -0.13334
 C862 C 1.16432 0.14707 -0.12422
 C863 C 1.18244 0.16573 -0.14078
 C864 C 1.16955 0.17987 -0.16648
 C865 C 1.13744 0.17520 -0.17440
 C866 C 1.11937 0.15649 -0.15825
 C867 C 1.11469 0.12074 -0.11610
 C868 C 1.08387 0.11266 -0.12483
 C869 C 1.06864 0.09235 -0.10864
 C870 C 1.08356 0.07972 -0.08323
 C871 C 1.11401 0.08781 -0.07404
 C872 C 1.12979 0.10789 -0.09048
 C873 C 1.17783 0.13371 -0.09857
 C874 C 1.16083 0.11473 -0.08188
 H875 H 1.20201 0.13792 -0.09132
 H876 H 1.17242 0.10490 -0.06228
 H877 H 1.20639 0.16968 -0.13274
 H878 H 1.12634 0.18494 -0.19426
 H879 H 1.04512 0.08644 -0.11616
 H880 H 1.12584 0.07801 -0.05455
 H881 H 1.09516 0.15368 -0.16592
 H882 H 1.07131 0.12145 -0.14436
 C883 C 1.13220 0.64138 0.36780
 C884 C 1.16529 0.64343 0.37382
 C885 C 1.18391 0.66154 0.35693
 C886 C 1.16993 0.67828 0.33464
 C887 C 1.13693 0.67720 0.32980
 C888 C 1.11824 0.65891 0.34604
 C889 C 1.11361 0.62058 0.38487
 C890 C 1.08140 0.61505 0.37826
 C891 C 1.06550 0.59489 0.39416
 C892 C 1.08113 0.58003 0.41730
 C893 C 1.11305 0.58550 0.42425
 C894 C 1.12953 0.60521 0.40784
 C895 C 1.17963 0.62744 0.39665
 C896 C 1.16201 0.60905 0.41367
 H897 H 1.20488 0.62923 0.40153
 H898 H 1.17422 0.59720 0.43117
 H899 H 1.20936 0.66269 0.36113
 H900 H 1.12572 0.69010 0.31276
 H901 H 1.04087 0.59092 0.38834
 H902 H 1.12546 0.57383 0.44180
 H903 H 1.09301 0.65878 0.34119
 H904 H 1.06827 0.62571 0.36051
 C905 C 0.63196 0.14144 0.36750
 C906 C 0.66523 0.14296 0.37283
 C907 C 0.68392 0.16069 0.35546
 C908 C 0.66985 0.17762 0.33344
 C909 C 0.63674 0.17707 0.32928
 C910 C 0.61796 0.15913 0.34596
 C911 C 0.61322 0.12105 0.38508
 C912 C 0.58076 0.11599 0.37910
 C913 C 0.56470 0.09615 0.39542
 C914 C 0.58043 0.08118 0.41837
 C915 C 0.61259 0.08620 0.42474
 C916 C 0.62921 0.10555 0.40787
 C917 C 0.67964 0.12685 0.39549
 C918 C 0.66191 0.10886 0.41302
 H919 H 0.70503 0.12824 0.39984
 H920 H 0.67417 0.09691 0.43037
 H921 H 0.70949 0.16147 0.35913
 H922 H 0.62549 0.19015 0.31246
 H923 H 0.53988 0.09250 0.39005
 H924 H 0.62505 0.07441 0.44212
 H925 H 0.59263 0.15942 0.34165
 H926 H 0.56755 0.12674 0.36150
 C927 C 0.63229 0.64223 -0.13283
 C928 C 0.66400 0.64751 -0.12378
 C929 C 0.68217 0.66600 -0.14057
 C930 C 0.66931 0.67994 -0.16645
 C931 C 0.63719 0.67526 -0.17431
 C932 C 0.61908 0.65672 -0.15792
 C933 C 0.61430 0.62131 -0.11535
 C934 C 0.58347 0.61323 -0.12398
 C935 C 0.56822 0.59302 -0.10762
 C936 C 0.58315 0.58051 -0.08212
 C937 C 0.61360 0.58864 -0.07299
 C938 C 0.62940 0.60862 -0.08961
 C939 C 0.67748 0.63432 -0.09798
 C940 C 0.66045 0.61548 -0.08108
 H941 H 0.70167 0.63855 -0.09079
 H942 H 0.67202 0.60577 -0.06139
 H943 H 0.70613 0.66997 -0.13259
 H944 H 0.62612 0.68485 -0.19429
 H945 H 0.54470 0.58707 -0.11509
 H946 H 0.62541 0.57893 -0.05342
 H947 H 0.59486 0.65389 -0.16556
 H948 H 0.57090 0.62191 -0.14358
 C949 C 0.87408 -0.14227 -0.13162
 C950 C 0.84224 -0.14787 -0.12255
 C951 C 0.82428 -0.16580 -0.13983
 C952 C 0.83753 -0.17842 -0.16618
 C953 C 0.86941 -0.17342 -0.17449
 C954 C 0.88748 -0.15564 -0.15750
 C955 C 0.89185 -0.12194 -0.11364
 C956 C 0.92302 -0.11399 -0.12181
 C957 C 0.93794 -0.09407 -0.10535
 C958 C 0.92234 -0.08166 -0.08020
 C959 C 0.89167 -0.08984 -0.07127
 C960 C 0.87623 -0.10964 -0.08796
 C961 C 0.82833 -0.13527 -0.09663
 C962 C 0.84501 -0.11668 -0.07960
 H963 H 0.80403 -0.13969 -0.08953
 H964 H 0.83306 -0.10733 -0.05990
 H965 H 0.79960 -0.16930 -0.13328
 H966 H 0.88046 -0.18329 -0.19428
 H967 H 0.96170 -0.08817 -0.11260
 H968 H 0.87941 -0.08030 -0.05188
 H969 H 0.91176 -0.15260 -0.16520
 H970 H 0.93615 -0.12255 -0.14113
 C971 C 0.87093 0.35838 0.36715
 C972 C 0.83884 0.35315 0.37568
 C973 C 0.82098 0.33518 0.35836
 C974 C 0.83463 0.32209 0.33255
 C975 C 0.86678 0.32663 0.32491
 C976 C 0.88471 0.34448 0.34190
 C977 C 0.88859 0.37879 0.38508
 C978 C 0.91990 0.38657 0.37718
 C979 C 0.93478 0.40651 0.39366
 C980 C 0.91901 0.41908 0.41856
 C981 C 0.88814 0.41113 0.42715
 C982 C 0.87271 0.39137 0.41040
 C983 C 0.82462 0.36612 0.40118
 C984 C 0.84127 0.38466 0.41831
 H985 H 0.80014 0.36198 0.40789
 H986 H 0.82912 0.39426 0.43770
 H987 H 0.79613 0.33197 0.36445
 H988 H 0.87820 0.31632 0.30566
 H989 H 0.95867 0.41226 0.38665
 H990 H 0.87571 0.42085 0.44630
 H991 H 0.90923 0.34714 0.33474
 H992 H 0.93316 0.37788 0.35803
 C993 C 0.37121 -0.13985 0.36503
 C994 C 0.34149 -0.14857 0.37687
 C995 C 0.32357 -0.16679 0.35990
 C996 C 0.33435 -0.17666 0.33045
 C997 C 0.36457 -0.16801 0.31954
 C998 C 0.38253 -0.15011 0.33640
 C999 C 0.38904 -0.11968 0.38325
 C1000 C 0.41860 -0.10943 0.37311
 C1001 C 0.43357 -0.08989 0.39017
 C1002 C 0.41961 -0.08004 0.41782
 C1003 C 0.39060 -0.09051 0.42861
 C1004 C 0.37521 -0.11012 0.41152
 C1005 C 0.32939 -0.13866 0.40534
 C1006 C 0.34587 -0.11987 0.42227
 H1007 H 0.30663 -0.14534 0.41456
 H1008 H 0.33530 -0.11266 0.44397
 H1009 H 0.30024 -0.17168 0.36918
 H1010 H 0.37571 -0.17572 0.29849
 H1011 H 0.45604 -0.08223 0.38143
 H1012 H 0.37965 -0.08307 0.45002
 H1013 H 0.40533 -0.14466 0.32646
 H1014 H 0.43045 -0.11597 0.35191
 C1015 C 0.37431 0.35829 -0.13185
 C1016 C 0.34255 0.35255 -0.12264
 C1017 C 0.32459 0.33460 -0.13987
 C1018 C 0.33777 0.32206 -0.16632
 C1019 C 0.36957 0.32721 -0.17479
 C1020 C 0.38763 0.34502 -0.15785
 C1021 C 0.39208 0.37861 -0.11386
 C1022 C 0.42318 0.38669 -0.12212
 C1023 C 0.43811 0.40657 -0.10557
 C1024 C 0.42261 0.41879 -0.08024
 C1025 C 0.39199 0.41049 -0.07125
 C1026 C 0.37654 0.39075 -0.08802
 C1027 C 0.32871 0.36503 -0.09659
 C1028 C 0.34539 0.38360 -0.07954
 H1029 H 0.30446 0.36051 -0.08939
 H1030 H 0.33350 0.39284 -0.05974
 H1031 H 0.29996 0.33100 -0.13320
 H1032 H 0.38057 0.31741 -0.19466
 H1033 H 0.46182 0.41256 -0.11288
 H1034 H 0.37979 0.41989 -0.05173
 H1035 H 0.41186 0.34818 -0.16566
 H1036 H 0.43623 0.37827 -0.14158
 C1037 C 1.13057 -0.14076 0.13533
 C1038 C 1.15980 -0.14987 0.12250
 C1039 C 1.17785 -0.16858 0.13896
 C1040 C 1.16748 -0.17830 0.16840
 C1041 C 1.13819 -0.16965 0.18072
 C1042 C 1.11992 -0.15120 0.16446
 C1043 C 1.11272 -0.11993 0.11766
 C1044 C 1.08375 -0.10919 0.12869
 C1045 C 1.06877 -0.08905 0.11207
 C1046 C 1.08215 -0.07913 0.08403
 C1047 C 1.11055 -0.09007 0.07238
 C1048 C 1.12592 -0.11028 0.08897
 C1049 C 1.17115 -0.13994 0.09362
 C1050 C 1.15460 -0.12055 0.07724
 H1051 H 1.19345 -0.14700 0.08372
 H1052 H 1.16463 -0.11328 0.05520
 H1053 H 1.20019 -0.17544 0.12893
 H1054 H 1.12975 -0.17660 0.20353
 H1055 H 1.04675 -0.08103 0.12146
 H1056 H 1.12100 -0.08260 0.05062
 H1057 H 1.09787 -0.14510 0.17543
 H1058 H 1.07239 -0.11581 0.15022
 C1059 C 1.13180 0.36168 0.63521
 C1060 C 1.16543 0.36112 0.63175
 C1061 C 1.18366 0.34347 0.64962
 C1062 C 1.16883 0.32568 0.67022
 C1063 C 1.13548 0.32528 0.67245
 C1064 C 1.11711 0.34314 0.65530
 C1065 C 1.11342 0.38203 0.61727
 C1066 C 1.08042 0.38622 0.62171
 C1067 C 1.06463 0.40604 0.60519
 C1068 C 1.08120 0.42184 0.58352
 C1069 C 1.11393 0.41770 0.57867
 C1070 C 1.13024 0.39838 0.59584
 C1071 C 1.18066 0.37806 0.61043
 C1072 C 1.16338 0.39597 0.59243
 H1073 H 1.20637 0.37739 0.60749
 H1074 H 1.17628 0.40858 0.57616
 H1075 H 1.20946 0.34343 0.64744
 H1076 H 1.12368 0.31150 0.68811
 H1077 H 1.03935 0.40901 0.60938
 H1078 H 1.12698 0.43016 0.56232
 H1079 H 1.09154 0.34210 0.65809
 H1080 H 1.06653 0.37482 0.63829
 C1081 C 0.63277 -0.13872 0.63396
 C1082 C 0.66645 -0.13900 0.63100
 C1083 C 0.68461 -0.15667 0.64892
 C1084 C 0.66967 -0.17473 0.66909
 C1085 C 0.63630 -0.17542 0.67078
 C1086 C 0.61800 -0.15756 0.65356
 C1087 C 0.61444 -0.11831 0.61610
 C1088 C 0.58135 -0.11441 0.62017
 C1089 C 0.56560 -0.09445 0.60391
 C1090 C 0.58228 -0.07820 0.58283
 C1091 C 0.61510 -0.08209 0.57825
 C1092 C 0.63138 -0.10156 0.59522
 C1093 C 0.68180 -0.12172 0.61016
 C1094 C 0.66458 -0.10372 0.59222
 H1095 H 0.70755 -0.12217 0.60759
 H1096 H 0.67757 -0.09082 0.57637
 H1097 H 0.71044 -0.15649 0.64714
 H1098 H 0.62441 -0.18940 0.68610
 H1099 H 0.54024 -0.09170 0.60787
 H1100 H 0.62822 -0.06928 0.56237
 H1101 H 0.59241 -0.15883 0.65594
 H1102 H 0.56735 -0.12614 0.63632
 C1103 C 0.63011 0.35871 0.13465
 C1104 C 0.65866 0.34889 0.12112
 C1105 C 0.67662 0.32998 0.13734
 C1106 C 0.66693 0.32089 0.16730
 C1107 C 0.63837 0.33037 0.18039
 C1108 C 0.62014 0.34893 0.16433
 C1109 C 0.61230 0.37964 0.11716
 C1110 C 0.58375 0.39076 0.12866
 C1111 C 0.56885 0.41102 0.11224
 C1112 C 0.58194 0.42073 0.08395
 C1113 C 0.60984 0.40935 0.07177
 C1114 C 0.62507 0.38894 0.08811
 C1115 C 0.66950 0.35840 0.09184
 C1116 C 0.65314 0.37806 0.07576
 H1117 H 0.69130 0.35082 0.08143
 H1118 H 0.66281 0.38503 0.05342
 H1119 H 0.69839 0.32253 0.12673
 H1120 H 0.63052 0.32400 0.20363
 H1121 H 0.54718 0.41934 0.12200
 H1122 H 0.61998 0.41661 0.04976
 H1123 H 0.59872 0.35569 0.17593
 H1124 H 0.57261 0.38431 0.15038
 C1125 C 0.86579 0.14107 0.12830
 C1126 C 0.87492 0.14591 0.15986
 C1127 C 0.85802 0.16410 0.17808
 C1128 C 0.83224 0.17807 0.16528
 C1129 C 0.82397 0.17389 0.13364
 C1130 C 0.84042 0.15564 0.11538
 C1131 C 0.88344 0.12048 0.11022
 C1132 C 0.87486 0.11284 0.07949
 C1133 C 0.89142 0.09291 0.06412
 C1134 C 0.91707 0.08029 0.07886
 C1135 C 0.92612 0.08797 0.10921
 C1136 C 0.90930 0.10762 0.12510
 C1137 C 0.90074 0.13248 0.17316
 C1138 C 0.91777 0.11395 0.15604
 H1139 H 0.90790 0.13634 0.19723
 H1140 H 0.93755 0.10407 0.16743
 H1141 H 0.86456 0.16689 0.20255
 H1142 H 0.80473 0.18482 0.12284
 H1143 H 0.88401 0.08727 0.04069
 H1144 H 0.94578 0.07816 0.12088
 H1145 H 0.83290 0.15330 0.09126
 H1146 H 0.85514 0.12166 0.06710
 C1147 C 0.86012 0.63846 0.63081
 C1148 C 0.87216 0.64592 0.66057
 C1149 C 0.85566 0.66428 0.67891
 C1150 C 0.82713 0.67556 0.66814
 C1151 C 0.81550 0.66842 0.63845
 C1152 C 0.83170 0.65016 0.62000
 C1153 C 0.87802 0.61820 0.61239
 C1154 C 0.86766 0.60891 0.58293
 C1155 C 0.88466 0.58942 0.56721
 C1156 C 0.91244 0.57877 0.58034
 C1157 C 0.92331 0.58819 0.60934
 C1158 C 0.90629 0.60762 0.62548
 C1159 C 0.90044 0.63485 0.67201
 C1160 C 0.91718 0.61618 0.65481
 H1161 H 0.90973 0.64063 0.69473
 H1162 H 0.93885 0.60812 0.66480
 H1163 H 0.86471 0.66937 0.70198
 H1164 H 0.79385 0.67713 0.62930
 H1165 H 0.87584 0.58251 0.54480
 H1166 H 0.94479 0.58007 0.61969
 H1167 H 0.82150 0.64550 0.59744
 H1168 H 0.84635 0.61618 0.57173
 C1169 C 0.35974 0.13795 0.63208
 C1170 C 0.37169 0.14552 0.66182
 C1171 C 0.35524 0.16409 0.67992
 C1172 C 0.32686 0.17545 0.66890
 C1173 C 0.31532 0.16820 0.63922
 C1174 C 0.33146 0.14974 0.62102
 C1175 C 0.37757 0.11750 0.61390
 C1176 C 0.36728 0.10810 0.58448
 C1177 C 0.38426 0.08849 0.56896
 C1178 C 0.41195 0.07782 0.58226
 C1179 C 0.42272 0.08731 0.61126
 C1180 C 0.40572 0.10687 0.62720
 C1181 C 0.39983 0.13438 0.67349
 C1182 C 0.41653 0.11554 0.65652
 H1183 H 0.40905 0.14024 0.69620
 H1184 H 0.43810 0.10744 0.66667
 H1185 H 0.36422 0.16927 0.70299
 H1186 H 0.29378 0.17696 0.62990
 H1187 H 0.37550 0.08154 0.54655
 H1188 H 0.44412 0.07917 0.62174
 H1189 H 0.32134 0.14500 0.59845
 H1190 H 0.34606 0.11539 0.57315
 C1191 C 0.36448 0.63991 0.13047
 C1192 C 0.37314 0.64425 0.16226
 C1193 C 0.35637 0.66254 0.18048
 C1194 C 0.33124 0.67715 0.16744
 C1195 C 0.32341 0.67340 0.13559
 C1196 C 0.33969 0.65503 0.11735
 C1197 C 0.38208 0.61932 0.11230
 C1198 C 0.37393 0.61216 0.08128
 C1199 C 0.39056 0.59234 0.06575
 C1200 C 0.41587 0.57935 0.08062
 C1201 C 0.42440 0.58649 0.11132
 C1202 C 0.40750 0.60602 0.12737
 C1203 C 0.39843 0.63030 0.17578
 C1204 C 0.41548 0.61182 0.15860
 H1205 H 0.40523 0.63377 0.20005
 H1206 H 0.43488 0.60158 0.17014
 H1207 H 0.36256 0.66496 0.20510
 H1208 H 0.30470 0.68480 0.12460
 H1209 H 0.38353 0.58712 0.04206
 H1210 H 0.44376 0.57638 0.12312
 H1211 H 0.33256 0.65307 0.09306
 H1212 H 0.35453 0.62132 0.06876
   
