data_POSCAR
  _audit_creation_date              2014-09-24
  _audit_creation_method            'ToBaCCo'
  _symmetry_space_group_name_H-M    'P1'
  _symmetry_Int_Tables_number       1
  _symmetry_cell_setting            triclinic
  loop_
  _symmetry_equiv_pos_as_xyz
 x,y,z
_cell_length_a 57.8063
_cell_length_b 58.1760
_cell_length_c 60.6891
_cell_angle_alpha 88.833200
_cell_angle_beta 91.294900
_cell_angle_gamma 90.453200
loop_
  _atom_site_label
  _atom_site_type_symbol
  _atom_site_fract_x
  _atom_site_fract_y
  _atom_site_fract_z
C1 C 0.40674 0.01393 0.27595
 C2 C 0.38818 0.03266 0.27348
 C3 C 0.37398 0.03081 0.25523
 C4 C 0.38028 0.01027 0.24071
 C5 C 0.39341 -0.00871 0.27460
 C6 C 0.37957 -0.01088 0.25642
 C7 C 0.41982 0.01593 0.25434
 C8 C 0.40629 0.01388 0.23575
 H9 H 0.38779 0.04733 0.28409
 H10 H 0.36908 0.00802 0.22584
 H11 H 0.39416 -0.02164 0.28771
 H12 H 0.43806 0.02020 0.25390
 C13 C 0.09022 -0.00038 0.77551
 C14 C 0.10519 -0.02191 0.77307
 C15 C 0.11920 -0.02116 0.75524
 C16 C 0.11653 0.00123 0.74116
 C17 C 0.10744 0.01961 0.77542
 C18 C 0.12134 0.02066 0.75770
 C19 C 0.07755 0.00156 0.75466
 C20 C 0.09165 0.00259 0.73541
 H21 H 0.10360 -0.03723 0.78331
 H22 H 0.12857 0.00230 0.72729
 H23 H 0.10831 0.03213 0.78840
 H24 H 0.05899 -0.00084 0.75396
 C25 C 0.59213 0.49649 0.27648
 C26 C 0.60672 0.47478 0.27414
 C27 C 0.62130 0.47536 0.25674
 C28 C 0.61929 0.49781 0.24263
 C29 C 0.60958 0.51627 0.27666
 C30 C 0.62386 0.51716 0.25922
 C31 C 0.57927 0.49875 0.25424
 C32 C 0.59319 0.49967 0.23637
 H33 H 0.60456 0.45960 0.28449
 H34 H 0.63105 0.49874 0.22845
 H35 H 0.61019 0.52890 0.28955
 H36 H 0.56059 0.49787 0.25278
 C37 C 0.90729 0.51544 0.77650
 C38 C 0.88853 0.53393 0.77386
 C39 C 0.87462 0.53186 0.75549
 C40 C 0.88114 0.51131 0.74111
 C41 C 0.89425 0.49264 0.77516
 C42 C 0.88053 0.49024 0.75693
 C43 C 0.92049 0.51752 0.75495
 C44 C 0.90718 0.51512 0.73622
 H45 H 0.88768 0.54862 0.78443
 H46 H 0.86979 0.50902 0.72635
 H47 H 0.89500 0.47980 0.78836
 H48 H 0.93863 0.52220 0.75477
 C49 C 0.27646 0.37615 0.98991
 C50 C 0.27453 0.36033 1.01018
 C51 C 0.25540 0.34659 1.01036
 C52 C 0.23972 0.34964 0.98968
 C53 C 0.27472 0.36008 0.97024
 C54 C 0.25573 0.34602 0.97000
 C55 C 0.25342 0.38929 0.98872
 C56 C 0.23408 0.37559 0.98897
 H57 H 0.28730 0.36036 1.02352
 H58 H 0.22436 0.33812 0.98986
 H59 H 0.28692 0.36071 0.95696
 H60 H 0.25244 0.40776 0.98681
 C61 C 0.77085 0.12704 1.00430
 C62 C 0.76999 0.14186 0.98327
 C63 C 0.75156 0.15612 0.98145
 C64 C 0.73522 0.15414 1.00114
 C65 C 0.76946 0.14419 1.02312
 C66 C 0.75093 0.15849 1.02154
 C67 C 0.74867 0.11498 1.00470
 C68 C 0.72865 0.12966 1.00285
 H69 H 0.78350 0.14164 0.97118
 H70 H 0.72096 0.16659 0.99936
 H71 H 0.78122 0.14387 1.03727
 H72 H 0.74752 0.09714 1.00980
 C73 C 0.27338 0.62662 0.50030
 C74 C 0.27259 0.64260 0.48007
 C75 C 0.25414 0.65687 0.47878
 C76 C 0.23770 0.65398 0.49827
 C77 C 0.27159 0.64255 0.52000
 C78 C 0.25296 0.65677 0.51916
 C79 C 0.24983 0.61393 0.49969
 C80 C 0.23109 0.62821 0.49874
 H81 H 0.28581 0.64253 0.46768
 H82 H 0.22264 0.66569 0.49712
 H83 H 0.28361 0.64173 0.53394
 H84 H 0.24788 0.59559 0.50216
 C85 C 0.77709 0.87699 0.48960
 C86 C 0.77541 0.86141 0.51005
 C87 C 0.75638 0.84754 0.51053
 C88 C 0.74055 0.85020 0.48989
 C89 C 0.77535 0.86065 0.47012
 C90 C 0.75647 0.84645 0.47016
 C91 C 0.75394 0.88995 0.48838
 C92 C 0.73470 0.87610 0.48891
 H93 H 0.78824 0.86176 0.52334
 H94 H 0.72529 0.83857 0.49030
 H95 H 0.78742 0.86125 0.45673
 H96 H 0.75283 0.90839 0.48628
 C97 C -0.00645 0.27543 0.40791
 C98 C 0.01207 0.28227 0.39129
 C99 C 0.01458 0.26700 0.37489
 C100 C -0.00203 0.24635 0.37640
 C101 C -0.02748 0.27169 0.39491
 C102 C -0.02517 0.25623 0.37705
 C103 C 0.00040 0.25127 0.41612
 C104 C 0.00285 0.23601 0.39959
 H105 H 0.02271 0.29759 0.39287
 H106 H 0.00091 0.23395 0.36324
 H107 H -0.04427 0.27661 0.40064
 H108 H 0.00243 0.24654 0.43340
 C109 C 0.00781 0.75859 0.09767
 C110 C -0.00831 0.76427 0.11652
 C111 C -0.01194 0.74664 0.13116
 C112 C 0.00186 0.72501 0.12607
 C113 C 0.03015 0.75073 0.10959
 C114 C 0.02697 0.73321 0.12434
 C115 C -0.00240 0.73678 0.08758
 C116 C -0.00537 0.71915 0.10236
 H117 H -0.01605 0.78103 0.11800
 H118 H -0.00012 0.71047 0.13795
 H119 H 0.04663 0.75949 0.10863
 H120 H -0.00607 0.73529 0.07009
 C121 C 0.51253 0.26065 0.59960
 C122 C 0.49428 0.26592 0.61673
 C123 C 0.48932 0.24810 0.63074
 C124 C 0.50380 0.22664 0.62684
 C125 C 0.53357 0.25272 0.61355
 C126 C 0.52891 0.23502 0.62770
 C127 C 0.50372 0.23889 0.58832
 C128 C 0.49927 0.22105 0.60252
 H129 H 0.48619 0.28258 0.61764
 H130 H 0.50063 0.21196 0.63834
 H131 H 0.55024 0.26119 0.61404
 H132 H 0.50196 0.23761 0.57058
 C133 C 0.49189 0.77606 0.90473
 C134 C 0.51199 0.78027 0.88908
 C135 C 0.51418 0.76381 0.87375
 C136 C 0.49590 0.74464 0.87531
 C137 C 0.47046 0.77341 0.88963
 C138 C 0.47272 0.75731 0.87395
 C139 C 0.49559 0.75314 0.91406
 C140 C 0.49816 0.73562 0.89794
 H141 H 0.52424 0.79432 0.89097
 H142 H 0.49760 0.73219 0.86195
 H143 H 0.45485 0.78336 0.89121
 H144 H 0.49331 0.74910 0.93133
 C145 C -0.23699 0.65965 0.97313
 C146 C -0.21723 0.64218 0.97602
 C147 C -0.21881 0.62815 0.99429
 C148 C -0.24036 0.63287 1.00802
 C149 C -0.25908 0.64522 0.97368
 C150 C -0.26114 0.63126 0.99171
 C151 C -0.23639 0.67251 0.99496
 C152 C -0.23813 0.65869 1.01329
 H153 H -0.20258 0.64184 0.96528
 H154 H -0.24217 0.62162 1.02287
 H155 H -0.27190 0.64572 0.96037
 H156 H -0.23268 0.69074 0.99585
 C157 C -0.25185 0.33831 0.47786
 C158 C -0.27083 0.35661 0.47913
 C159 C -0.26879 0.37035 0.49704
 C160 C -0.24770 0.36433 0.51221
 C161 C -0.22919 0.35189 0.47906
 C162 C -0.22670 0.36546 0.49689
 C163 C -0.25311 0.32585 0.49874
 C164 C -0.25061 0.33976 0.51799
 H165 H -0.28604 0.35712 0.46845
 H166 H -0.24543 0.37615 0.52612
 H167 H -0.21633 0.35114 0.46637
 H168 H -0.25828 0.30796 0.49928
 C169 C 0.24699 -0.16101 -0.02594
 C170 C 0.22601 -0.14523 -0.02347
 C171 C 0.22751 -0.13122 -0.00571
 C172 C 0.24998 -0.13471 0.00830
 C173 C 0.26783 -0.14476 -0.02599
 C174 C 0.26959 -0.13085 -0.00833
 C175 C 0.24857 -0.17353 -0.00506
 C176 C 0.25035 -0.15943 0.01412
 H177 H 0.21045 -0.14622 -0.03362
 H178 H 0.25163 -0.12270 0.02213
 H179 H 0.28031 -0.14448 -0.03905
 H180 H 0.24533 -0.19185 -0.00428
 C181 C 0.26280 1.16023 0.47187
 C182 C 0.28221 1.14238 0.47459
 C183 C 0.28061 1.12833 0.49289
 C184 C 0.25963 1.13405 0.50717
 C185 C 0.24042 1.14626 0.47306
 C186 C 0.23852 1.13257 0.49129
 C187 C 0.26419 1.17340 0.49343
 C188 C 0.26239 1.16000 0.51201
 H189 H 0.29704 1.14230 0.46409
 H190 H 0.25756 1.12303 0.52211
 H191 H 0.22751 1.14649 0.45982
 H192 H 0.26777 1.19168 0.49388
 C193 C 0.12556 0.52713 0.25818
 C194 C 0.10745 0.52587 0.23946
 C195 C 0.09358 0.50690 0.24009
 C196 C 0.09901 0.49059 0.25977
 C197 C 0.11168 0.52464 0.27934
 C198 C 0.09761 0.50574 0.28031
 C199 C 0.13874 0.50423 0.25720
 C200 C 0.12495 0.48499 0.25774
 H201 H 0.10676 0.53840 0.22601
 H202 H 0.08724 0.47549 0.26023
 H203 H 0.11363 0.53649 0.29280
 H204 H 0.15736 0.50313 0.25756
 C205 C -0.12357 1.01799 0.24933
 C206 C -0.10691 1.01750 0.26915
 C207 C -0.09256 0.99917 0.27018
 C208 C -0.09606 0.98268 0.25077
 C209 C -0.10807 1.01630 0.22921
 C210 C -0.09367 0.99781 0.22977
 C211 C -0.13566 0.99589 0.25022
 C212 C -0.12067 0.97615 0.25082
 H213 H -0.10675 1.03064 0.28157
 H214 H -0.08370 0.96826 0.25197
 H215 H -0.10945 1.02805 0.21518
 H216 H -0.15392 0.99437 0.24632
 C217 C 0.37755 0.52316 -0.25351
 C218 C 0.39167 0.52179 -0.23199
 C219 C 0.40565 0.50322 -0.22980
 C220 C 0.40419 0.48716 -0.24962
 C221 C 0.39540 0.52142 -0.27170
 C222 C 0.40943 0.50276 -0.26978
 C223 C 0.36442 0.50004 -0.25454
 C224 C 0.37815 0.48097 -0.25228
 H225 H 0.39118 0.53511 -0.21978
 H226 H 0.41600 0.47234 -0.24761
 H227 H 0.39585 0.53326 -0.28570
 H228 H 0.34624 0.49891 -0.25879
 C229 C 0.62575 0.02827 -0.23939
 C230 C 0.61004 0.02669 -0.25989
 C231 C 0.59640 0.00758 -0.26070
 C232 C 0.59938 -0.00845 -0.24034
 C233 C 0.60939 0.02590 -0.21995
 C234 C 0.59546 0.00690 -0.22029
 C235 C 0.63918 0.00546 -0.23864
 C236 C 0.62555 -0.01388 -0.23948
 H237 H 0.61020 0.03964 -0.27297
 H238 H 0.58785 -0.02373 -0.24101
 H239 H 0.60982 0.03771 -0.20637
 H240 H 0.65773 0.00454 -0.23647
 C241 C 0.02702 0.23776 0.85070
 C242 C 0.03172 0.25963 0.86379
 C243 C 0.01536 0.26411 0.87879
 C244 C -0.00434 0.24629 0.87937
 C245 C 0.02409 0.21865 0.86827
 C246 C 0.00798 0.22333 0.88347
 C247 C 0.00397 0.24062 0.84109
 C248 C -0.01349 0.24572 0.85669
 H249 H 0.04680 0.27049 0.86138
 H250 H -0.01697 0.25010 0.89215
 H251 H 0.03296 0.20235 0.86834
 H252 H 0.00014 0.23709 0.82396
 C253 C 0.50859 0.25126 0.14270
 C254 C 0.51083 0.23689 0.12203
 C255 C 0.49184 0.23695 0.10840
 C256 C 0.47184 0.25117 0.11706
 C257 C 0.50126 0.27511 0.13422
 C258 C 0.48227 0.27506 0.12068
 C259 C 0.48694 0.24156 0.15389
 C260 C 0.46766 0.24168 0.14051
 H261 H 0.52594 0.22656 0.11921
 H262 H 0.45614 0.25170 0.10622
 H263 H 0.51123 0.29056 0.13754
 H264 H 0.48625 0.23627 0.17101
 C265 C 0.00832 0.75071 0.63690
 C266 C 0.01015 0.73707 0.61575
 C267 C -0.00920 0.73738 0.60261
 C268 C -0.02908 0.75113 0.61214
 C269 C 0.00060 0.77474 0.62933
 C270 C -0.01875 0.77496 0.61628
 C271 C -0.01294 0.74040 0.64829
 C272 C -0.03261 0.74090 0.63543
 H273 H 0.02519 0.72688 0.61229
 H274 H -0.04499 0.75183 0.60160
 H275 H 0.01048 0.79016 0.63298
 H276 H -0.01312 0.73448 0.66524
 C277 C 0.52744 0.74126 0.34699
 C278 C 0.53184 0.76230 0.36144
 C279 C 0.51534 0.76567 0.37663
 C280 C 0.49603 0.74747 0.37638
 C281 C 0.52517 0.72132 0.36381
 C282 C 0.50882 0.72463 0.37915
 C283 C 0.50306 0.74467 0.33725
 C284 C 0.48663 0.74812 0.35253
 H285 H 0.54693 0.77333 0.35998
 H286 H 0.48268 0.75019 0.38888
 H287 H 0.53648 0.70664 0.36486
 H288 H 0.49934 0.74483 0.31967
 Zr289 Zr 0.02285 -0.01911 1.03435
 O290 O 0.04597 -0.00992 1.06032
 O291 O 0.01974 -0.05483 1.03909
 O292 O 0.00810 -0.02441 1.06569
 O293 O 0.06503 -0.02072 0.99470
 O294 O -0.02685 -0.00647 1.06233
 O295 O 0.05650 -0.03204 1.02988
 O296 O -0.00639 -0.06548 1.01231
 O297 O -0.01236 -0.02493 1.02728
 O298 O 0.02066 -0.03063 1.00194
 O299 O 0.00664 0.01272 1.03862
 O300 O 0.03870 0.00683 1.01485
 Zr301 Zr -0.01658 0.02152 0.97791
 Zr302 Zr -0.02820 0.00711 1.02999
 Zr303 Zr 0.03472 -0.00453 0.98239
 Zr304 Zr -0.01434 -0.03516 0.99452
 O305 O 0.06350 0.01694 0.97560
 O306 O -0.04600 -0.04930 1.00570
 O307 O -0.00012 -0.01021 0.97331
 O308 O -0.03200 -0.00425 0.99757
 O309 O -0.01453 0.03352 1.01020
 O310 O 0.01858 0.02722 0.98506
 C311 C 0.00738 -0.06973 1.02871
 C312 C 0.07003 -0.03069 1.01331
 C313 C -0.01136 -0.01789 1.07330
 O314 O -0.05854 -0.01273 1.03496
 O315 O -0.05713 0.02618 1.01893
 O316 O -0.04941 0.03606 0.98320
 C317 C -0.06226 0.03594 1.00029
 O318 O 0.04595 0.03974 1.04342
 Zr319 Zr 0.02062 0.03787 1.01756
 O320 O -0.01367 0.05712 0.97293
 O321 O -0.03388 0.03370 1.05248
 O322 O 0.00774 0.06009 1.04163
 O323 O 0.05095 0.05411 1.00557
 O324 O 0.01003 0.06857 1.00134
 C325 C -0.00304 0.07247 0.98429
 O326 O -0.04115 0.01287 0.95295
 O327 O 0.04254 -0.03224 0.96179
 O328 O -0.00314 0.02385 0.94573
 O329 O 0.03147 0.00520 0.94899
 O330 O -0.00137 -0.05909 0.97204
 O331 O -0.03666 -0.03728 0.96630
 C332 C 0.01557 0.01578 0.93779
 H333 H 0.02915 -0.04509 0.99976
 H334 H -0.04848 -0.00656 0.99334
 H335 H 0.02560 0.03874 0.97495
 H336 H 0.00849 0.01781 1.05403
 H337 H -0.04678 -0.06551 1.00101
 H338 H -0.06736 -0.00501 1.04646
 H339 H -0.04896 0.03041 1.05937
 H340 H 0.01620 0.07491 1.04025
 H341 H -0.01069 -0.07339 0.97351
 H342 H 0.05758 -0.02858 0.95497
 H343 H 0.07245 0.00917 0.96422
 H344 H 0.05097 0.07020 1.01064
 H345 H -0.04363 -0.05286 0.96568
 H346 H -0.04502 0.02724 0.94461
 H347 H 0.05017 -0.02427 1.06854
 H348 H 0.04994 0.05605 1.04612
 Zr349 Zr 0.52775 0.48459 0.53627
 O350 O 0.55118 0.49499 0.56156
 O351 O 0.52502 0.44905 0.54245
 O352 O 0.51342 0.48064 0.56796
 O353 O 0.56930 0.48138 0.49612
 O354 O 0.47838 0.49840 0.56437
 O355 O 0.56142 0.47163 0.53185
 O356 O 0.49857 0.43714 0.51647
 O357 O 0.49247 0.47837 0.52994
 O358 O 0.52512 0.47166 0.50441
 O359 O 0.51144 0.51655 0.53948
 O360 O 0.54317 0.50974 0.51555
 Zr361 Zr 0.48730 0.52268 0.47885
 Zr362 Zr 0.47650 0.51049 0.53153
 Zr363 Zr 0.53874 0.49696 0.48364
 Zr364 Zr 0.49005 0.46668 0.49767
 O365 O 0.56736 0.51817 0.47561
 O366 O 0.45870 0.45291 0.50997
 O367 O 0.50380 0.49078 0.47529
 O368 O 0.47231 0.49768 0.49969
 O369 O 0.48976 0.53611 0.51056
 O370 O 0.52253 0.52876 0.48529
 C371 C 0.51267 0.43363 0.53279
 C372 C 0.57466 0.47227 0.51503
 C373 C 0.49406 0.48749 0.57555
 O374 O 0.44638 0.49073 0.53777
 O375 O 0.44723 0.52884 0.52006
 O376 O 0.45446 0.53725 0.48393
 C377 C 0.44179 0.53773 0.50110
 O378 O 0.55056 0.54396 0.54281
 Zr379 Zr 0.52501 0.54084 0.51728
 O380 O 0.49008 0.55807 0.47236
 O381 O 0.47101 0.53809 0.55293
 O382 O 0.51226 0.56413 0.54045
 O383 O 0.55522 0.55650 0.50440
 O384 O 0.51434 0.57077 0.49982
 C385 C 0.50102 0.57391 0.48281
 O386 O 0.46245 0.51283 0.45457
 O387 O 0.54629 0.46838 0.46404
 O388 O 0.50023 0.52376 0.44648
 O389 O 0.53493 0.50531 0.44996
 O390 O 0.50272 0.44188 0.47592
 O391 O 0.46723 0.46319 0.46996
 C392 C 0.51884 0.51543 0.43861
 H393 H 0.53366 0.45716 0.50267
 H394 H 0.45579 0.49511 0.49577
 H395 H 0.52939 0.53985 0.47466
 H396 H 0.51349 0.52234 0.55463
 H397 H 0.45795 0.43648 0.50601
 H398 H 0.43767 0.49894 0.54904
 H399 H 0.45604 0.53507 0.56013
 H400 H 0.52063 0.57892 0.53836
 H401 H 0.49355 0.42758 0.47812
 H402 H 0.56119 0.47178 0.45685
 H403 H 0.57612 0.50994 0.46440
 H404 H 0.55530 0.57281 0.50880
 H405 H 0.46029 0.44758 0.47015
 H406 H 0.45837 0.52681 0.44571
 H407 H 0.55555 0.48100 0.57026
 H408 H 0.55447 0.56040 0.54482
 Zr409 Zr 0.47450 0.99566 0.54085
 O410 O 0.45076 0.97990 0.56261
 O411 O 0.47748 1.02886 0.55333
 O412 O 0.48894 0.99310 0.57317
 O413 O 0.43393 1.00926 0.49980
 O414 O 0.52375 0.97567 0.56851
 O415 O 0.44124 1.01055 0.53693
 O416 O 0.50476 1.04576 0.53150
 O417 O 0.50996 1.00229 0.53741
 O418 O 0.47784 1.01549 0.51195
 O419 O 0.49029 0.96323 0.53960
 O420 O 0.45892 0.97610 0.51552
 Zr421 Zr 0.51496 0.97030 0.48013
 Zr422 Zr 0.52543 0.97009 0.53442
 Zr423 Zr 0.46412 0.99569 0.48659
 Zr424 Zr 0.51304 1.02109 0.50802
 O425 O 0.43501 0.97753 0.47402
 O426 O 0.54450 1.03092 0.52394
 O427 O 0.49922 1.00285 0.48118
 O428 O 0.53016 0.98975 0.50555
 O429 O 0.51191 0.95006 0.50889
 O430 O 0.47961 0.96370 0.48380
 C431 C 0.49040 1.04580 0.54738
 C432 C 0.42846 1.01427 0.51953
 C433 C 0.50838 0.98489 0.58043
 O434 O 0.55618 0.98697 0.54495
 O435 O 0.55433 0.95360 0.52134
 O436 O 0.54742 0.95406 0.48412
 C437 C 0.55984 0.94917 0.50145
 O438 O 0.45056 0.93673 0.53629
 Zr439 Zr 0.47652 0.94476 0.51305
 O440 O 0.51177 0.93704 0.46781
 O441 O 0.52981 0.93826 0.55142
 O442 O 0.48855 0.91645 0.53253
 O443 O 0.44627 0.93283 0.49633
 O444 O 0.48694 0.91906 0.49146
 C445 C 0.50050 0.91942 0.47496
 O446 O 0.54009 0.98509 0.45918
 O447 O 0.45775 1.02826 0.47156
 O448 O 0.50211 0.97615 0.44753
 O449 O 0.46780 0.99442 0.45231
 O450 O 0.50110 1.05079 0.49055
 O451 O 0.53625 1.03046 0.48265
 C452 C 0.48361 0.98626 0.44024
 H453 H 0.46968 1.03036 0.51228
 H454 H 0.54676 0.99272 0.50291
 H455 H 0.47265 0.95529 0.47124
 H456 H 0.48802 0.95436 0.55348
 H457 H 0.54549 1.04792 0.52315
 H458 H 0.56448 0.97617 0.55512
 H459 H 0.54479 0.93921 0.55962
 H460 H 0.47995 0.90260 0.52760
 H461 H 0.51036 1.06406 0.49586
 H462 H 0.44283 1.02703 0.46327
 H463 H 0.42654 0.98832 0.46397
 H464 H 0.44587 0.91585 0.49803
 H465 H 0.54337 1.04559 0.48589
 H466 H 0.54408 0.97333 0.44830
 H467 H 0.44643 0.99169 0.57333
 H468 H 0.44643 0.92021 0.53547
 Zr469 Zr -0.02633 0.49385 1.04188
 O470 O -0.04995 0.47706 1.06307
 O471 O -0.02391 0.52663 1.05528
 O472 O -0.01191 0.49076 1.07414
 O473 O -0.06684 0.50845 1.00111
 O474 O 0.02318 0.47400 1.06921
 O475 O -0.05965 0.50861 1.03830
 O476 O 0.00326 0.54454 1.03405
 O477 O 0.00906 0.50103 1.03876
 O478 O -0.02308 0.51457 1.01353
 O479 O -0.01014 0.46171 1.03987
 O480 O -0.04162 0.47490 1.01597
 Zr481 Zr 0.01467 0.47086 0.98067
 Zr482 Zr 0.02494 0.46915 1.03500
 Zr483 Zr -0.03652 0.49541 0.98760
 Zr484 Zr 0.01206 0.52072 1.00992
 O485 O -0.06542 0.47729 0.97456
 O486 O 0.04330 0.53043 1.02631
 O487 O -0.00146 0.50315 0.98253
 O488 O 0.02956 0.48970 1.00667
 O489 O 0.01173 0.44975 1.00887
 O490 O -0.02062 0.46372 0.98403
 C491 C -0.01122 0.54390 1.04983
 C492 C -0.07236 0.51288 1.02098
 C493 C 0.00766 0.48277 1.08127
 O494 O 0.05557 0.48596 1.04593
 O495 O 0.05397 0.45322 1.02158
 O496 O 0.04725 0.45478 0.98433
 C497 C 0.05959 0.44942 1.00159
 O498 O -0.04959 0.43488 1.03566
 Zr499 Zr -0.02360 0.44390 1.01275
 O500 O 0.01196 0.43800 0.96739
 O501 O 0.02950 0.43698 1.05133
 O502 O -0.01132 0.41518 1.03152
 O503 O -0.05361 0.43203 0.99559
 O504 O -0.01272 0.41903 0.99049
 C505 C 0.00090 0.42005 0.97405
 O506 O 0.03973 0.48663 0.96027
 O507 O -0.04316 0.52827 0.97331
 O508 O 0.00189 0.47745 0.94818
 O509 O -0.03270 0.49509 0.95328
 O510 O -0.00008 0.55080 0.99320
 O511 O 0.03531 0.53114 0.98492
 C512 C -0.01673 0.48747 0.94108
 H513 H -0.03139 0.52933 1.01422
 H514 H 0.04615 0.49292 1.00417
 H515 H -0.02743 0.45560 0.97123
 H516 H -0.01236 0.45243 1.05353
 H517 H 0.04406 0.54745 1.02603
 H518 H 0.06393 0.47497 1.05588
 H519 H 0.04446 0.43785 1.05959
 H520 H -0.01971 0.40140 1.02615
 H521 H 0.00900 0.56399 0.99896
 H522 H -0.05804 0.52711 0.96495
 H523 H -0.07399 0.48827 0.96477
 H524 H -0.05378 0.41501 0.99686
 H525 H 0.04230 0.54619 0.98866
 H526 H 0.04394 0.47527 0.94908
 H527 H -0.05445 0.48841 1.07414
 H528 H -0.05348 0.41835 1.03442
 Zr529 Zr -0.02022 0.48539 0.47711
 O530 O -0.04273 0.48908 0.44927
 O531 O -0.01247 0.45026 0.47641
 O532 O -0.00327 0.48063 0.44687
 O533 O -0.06429 0.48159 0.51509
 O534 O 0.02922 0.50307 0.44989
 O535 O -0.05275 0.46900 0.48168
 O536 O 0.01297 0.44463 0.50535
 O537 O 0.01496 0.48467 0.48629
 O538 O -0.01866 0.47643 0.51067
 O539 O -0.00748 0.51868 0.47014
 O540 O -0.03997 0.51027 0.49306
 Zr541 Zr 0.01100 0.53472 0.53053
 Zr542 Zr 0.02722 0.51826 0.48088
 Zr543 Zr -0.03653 0.50185 0.52675
 Zr544 Zr 0.01614 0.47697 0.52007
 O545 O -0.06793 0.51977 0.53014
 O546 O 0.04989 0.46644 0.51195
 O547 O -0.00187 0.50141 0.53786
 O548 O 0.03026 0.50971 0.51450
 O549 O 0.00949 0.54400 0.49700
 O550 O -0.02409 0.53517 0.52125
 C551 C 0.00088 0.43770 0.48875
 C552 C -0.06731 0.47002 0.49745
 C553 C 0.01566 0.48934 0.43936
 O554 O 0.05964 0.50186 0.47917
 O555 O 0.05347 0.54112 0.49120
 O556 O 0.04269 0.55246 0.52526
 C557 C 0.05661 0.55252 0.50894
 O558 O -0.04932 0.53955 0.46071
 Zr559 Zr -0.02549 0.54308 0.48765
 O560 O 0.00369 0.57000 0.53090
 O561 O 0.03132 0.54415 0.45625
 O562 O -0.01397 0.56509 0.46177
 O563 O -0.05820 0.55584 0.49652
 O564 O -0.01971 0.57594 0.50051
 C565 C -0.00811 0.58285 0.51740
 O566 O 0.03460 0.53149 0.55761
 O567 O -0.04210 0.47467 0.54981
 O568 O -0.00482 0.53755 0.56164
 O569 O -0.03663 0.51413 0.55897
 O570 O 0.00436 0.45326 0.54443
 O571 O 0.03692 0.47953 0.54928
 C572 C -0.02295 0.52762 0.56960
 H573 H -0.02563 0.46119 0.51397
 H574 H 0.04661 0.50974 0.51969
 H575 H -0.03300 0.54635 0.52968
 H576 H -0.00902 0.52255 0.45422
 H577 H 0.05226 0.45083 0.51840
 H578 H 0.06831 0.50993 0.46738
 H579 H 0.04704 0.54238 0.45034
 H580 H -0.02436 0.57856 0.46095
 H581 H 0.01517 0.44011 0.54497
 H582 H -0.05784 0.47665 0.55560
 H583 H -0.07658 0.51167 0.54192
 H584 H -0.05995 0.57129 0.48953
 H585 H 0.04523 0.46490 0.55204
 H586 H 0.03614 0.54685 0.56434
 H587 H -0.04463 0.47367 0.44272
 H588 H -0.05512 0.55489 0.45602
 Zr589 Zr 0.47633 -0.01164 -0.02450
 O590 O 0.45361 -0.00659 -0.05201
 O591 O 0.48333 -0.04684 -0.02624
 O592 O 0.49292 -0.01607 -0.05497
 O593 O 0.43269 -0.01597 0.01388
 O594 O 0.52584 0.00571 -0.05178
 O595 O 0.44363 -0.02770 -0.02003
 O596 O 0.50900 -0.05377 0.00227
 O597 O 0.51158 -0.01326 -0.01571
 O598 O 0.47809 -0.02160 0.00881
 O599 O 0.48965 0.02157 -0.03076
 O600 O 0.45724 0.01310 -0.00769
 Zr601 Zr 0.50905 0.03547 0.02990
 Zr602 Zr 0.52443 0.02021 -0.02039
 Zr603 Zr 0.46086 0.00363 0.02574
 Zr604 Zr 0.51299 -0.02196 0.01786
 O605 O 0.42982 0.02195 0.02982
 O606 O 0.54641 -0.03286 0.00909
 O607 O 0.49562 0.00223 0.03650
 O608 O 0.52767 0.01064 0.01299
 O609 O 0.50738 0.04576 -0.00338
 O610 O 0.47389 0.03685 0.02098
 C611 C 0.49657 -0.05998 -0.01439
 C612 C 0.42931 -0.02699 -0.00405
 C613 C 0.51196 -0.00760 -0.06245
 O614 O 0.55656 0.00339 -0.02282
 O615 O 0.55116 0.04239 -0.00972
 O616 O 0.54093 0.05287 0.02478
 C617 C 0.55466 0.05322 0.00831
 O618 O 0.44813 0.04348 -0.03920
 Zr619 Zr 0.47230 0.04577 -0.01239
 O620 O 0.50247 0.07082 0.03137
 O621 O 0.52872 0.04664 -0.04447
 O622 O 0.48401 0.06829 -0.03779
 O623 O 0.43998 0.05891 -0.00288
 O624 O 0.47889 0.07812 0.00136
 C625 C 0.49081 0.08429 0.01835
 O626 O 0.53289 0.03091 0.05663
 O627 O 0.45507 -0.02402 0.04823
 O628 O 0.49362 0.03779 0.06123
 O629 O 0.46131 0.01509 0.05827
 O630 O 0.50108 -0.04617 0.04170
 O631 O 0.53411 -0.02059 0.04694
 C632 C 0.47536 0.02804 0.06911
 H633 H 0.47089 -0.03681 0.01179
 H634 H 0.54407 0.01026 0.01801
 H635 H 0.46529 0.04794 0.02979
 H636 H 0.48802 0.02587 -0.04658
 H637 H 0.54854 -0.04869 0.01509
 H638 H 0.56523 0.01164 -0.03451
 H639 H 0.54433 0.04476 -0.05057
 H640 H 0.47392 0.08199 -0.03811
 H641 H 0.51166 -0.05950 0.04176
 H642 H 0.43944 -0.02192 0.05424
 H643 H 0.42115 0.01368 0.04148
 H644 H 0.43848 0.07458 -0.00944
 H645 H 0.54221 -0.03541 0.04920
 H646 H 0.53483 0.04601 0.06380
 H647 H 0.45131 -0.02175 -0.05899
 H648 H 0.44265 0.05906 -0.04346
 Zr649 Zr 0.53352 0.51131 -0.03354
 O650 O 0.55705 0.49575 -0.05480
 O651 O 0.53215 0.54506 -0.04634
 O652 O 0.51993 0.50991 -0.06625
 O653 O 0.57417 0.52072 0.00838
 O654 O 0.48370 0.49469 -0.06197
 O655 O 0.56761 0.52438 -0.02881
 O656 O 0.50571 0.56216 -0.02468
 O657 O 0.49854 0.51972 -0.03051
 O658 O 0.53104 0.52989 -0.00453
 O659 O 0.51547 0.47973 -0.03265
 O660 O 0.54713 0.48964 -0.00811
 Zr661 Zr 0.49010 0.48531 0.02643
 Zr662 Zr 0.48082 0.48833 -0.02799
 Zr663 Zr 0.54283 0.50806 0.02088
 Zr664 Zr 0.49624 0.53716 -0.00095
 O665 O 0.57058 0.48780 0.03339
 O666 O 0.46538 0.54951 -0.01643
 O667 O 0.50824 0.51692 0.02596
 O668 O 0.47681 0.50676 0.00095
 O669 O 0.49234 0.46642 -0.00245
 O670 O 0.52496 0.47684 0.02320
 C671 C 0.51982 0.56215 -0.04073
 C672 C 0.58033 0.52645 -0.01119
 C673 C 0.50012 0.50284 -0.07376
 O674 O 0.45175 0.50765 -0.03892
 O675 O 0.45074 0.47260 -0.01569
 O676 O 0.45657 0.47092 0.02167
 C677 C 0.44446 0.46729 0.00394
 O678 O 0.55362 0.45106 -0.02844
 Zr679 Zr 0.52728 0.45920 -0.00607
 O680 O 0.48989 0.45131 0.03806
 O681 O 0.47426 0.45758 -0.04518
 O682 O 0.51426 0.43272 -0.02654
 O683 O 0.55569 0.44440 0.01164
 O684 O 0.51334 0.43296 0.01434
 C685 C 0.49924 0.43331 0.03042
 O686 O 0.46602 0.50075 0.04722
 O687 O 0.55089 0.53943 0.03647
 O688 O 0.50326 0.48786 0.05925
 O689 O 0.53886 0.50457 0.05507
 O690 O 0.51041 0.56550 0.01633
 O691 O 0.47382 0.54651 0.02461
 C692 C 0.52255 0.49618 0.06686
 H693 H 0.54016 0.54436 -0.00479
 H694 H 0.46038 0.51047 0.00334
 H695 H 0.53098 0.46725 0.03568
 H696 H 0.51742 0.47129 -0.04648
 H697 H 0.46555 0.56649 -0.01538
 H698 H 0.44275 0.49782 -0.04920
 H699 H 0.45957 0.45979 -0.05368
 H700 H 0.52169 0.41818 -0.02154
 H701 H 0.50208 0.57944 0.01102
 H702 H 0.56556 0.53706 0.04496
 H703 H 0.57963 0.49754 0.04371
 H704 H 0.55460 0.42753 0.00986
 H705 H 0.46815 0.56234 0.02178
 H706 H 0.46083 0.48869 0.05783
 H707 H 0.56224 0.50784 -0.06539
 H708 H 0.55681 0.43437 -0.02748
 Zr709 Zr 0.03514 1.01072 0.46566
 O710 O 0.05877 0.99412 0.44523
 O711 O 0.03475 1.04417 0.45209
 O712 O 0.02214 1.00864 0.43278
 O713 O 0.07522 1.02053 0.50799
 O714 O -0.01446 0.99426 0.43681
 O715 O 0.06937 1.02330 0.47065
 O716 O 0.00835 1.06241 0.47292
 O717 O 0.00028 1.01991 0.46788
 O718 O 0.03252 1.03009 0.49416
 O719 O 0.01647 0.97951 0.46700
 O720 O 0.04791 0.98945 0.49179
 Zr721 Zr -0.00979 0.98714 0.52547
 Zr722 Zr -0.01809 0.98892 0.47087
 Zr723 Zr 0.04347 1.00870 0.52025
 Zr724 Zr -0.00219 1.03816 0.49696
 O725 O 0.07067 0.98823 0.53357
 O726 O -0.03247 1.05069 0.48057
 O727 O 0.00896 1.01840 0.52454
 O728 O -0.02224 1.00818 0.49928
 O729 O -0.00742 0.96748 0.49709
 O730 O 0.02496 0.97789 0.52300
 C731 C 0.02277 1.06171 0.45716
 C732 C 0.08180 1.02566 0.48841
 C733 C 0.00235 1.00171 0.42511
 O734 O -0.04660 1.00853 0.45905
 O735 O -0.04864 0.97399 0.48304
 O736 O -0.04348 0.97320 0.52050
 C737 C -0.05533 0.96925 0.50268
 O738 O 0.05404 0.95021 0.47255
 Zr739 Zr 0.02742 0.95945 0.49421
 O740 O -0.01094 0.95344 0.53786
 O741 O -0.02498 0.95786 0.45429
 O742 O 0.01429 0.93270 0.47414
 O743 O 0.05518 0.94449 0.51276
 O744 O 0.01250 0.93404 0.51492
 C745 C -0.00189 0.93507 0.53072
 O746 O -0.03387 1.00369 0.54545
 O747 O 0.05178 1.04031 0.53529
 O748 O 0.00296 0.99015 0.55842
 O749 O 0.03894 1.00604 0.55442
 O750 O 0.01216 1.06666 0.51388
 O751 O -0.02497 1.04866 0.52180
 C752 C 0.02232 0.99820 0.56614
 H753 H 0.04191 1.04439 0.49374
 H754 H -0.03864 1.01226 0.50131
 H755 H 0.03058 0.96848 0.53576
 H756 H 0.01850 0.97066 0.45343
 H757 H -0.03197 1.06770 0.48117
 H758 H -0.05561 0.99861 0.44886
 H759 H -0.03948 0.96014 0.44552
 H760 H 0.02133 0.91813 0.47962
 H761 H 0.00422 1.08064 0.50810
 H762 H 0.06629 1.03790 0.54403
 H763 H 0.07974 0.99807 0.54379
 H764 H 0.05374 0.92759 0.51137
 H765 H -0.03031 1.06450 0.51844
 H766 H -0.03950 0.99201 0.55625
 H767 H 0.06439 1.00582 0.43445
 H768 H 0.05689 0.93348 0.47395
 Zr769 Zr 0.73244 0.26958 0.21908
 O770 O 0.74378 0.29328 0.19459
 O771 O 0.69704 0.26643 0.21128
 O772 O 0.72949 0.25585 0.18713
 O773 O 0.72759 0.31025 0.25963
 O774 O 0.74716 0.22094 0.19075
 O775 O 0.71905 0.30290 0.22351
 O776 O 0.68421 0.23953 0.23621
 O777 O 0.72609 0.23445 0.22469
 O778 O 0.71816 0.26648 0.25035
 O779 O 0.76476 0.25350 0.21668
 O780 O 0.75693 0.28464 0.24087
 Zr781 Zr 0.76880 0.22866 0.27712
 Zr782 Zr 0.75848 0.21868 0.22388
 Zr783 Zr 0.74286 0.27975 0.27218
 Zr784 Zr 0.71310 0.23153 0.25644
 O785 O 0.76369 0.30820 0.28138
 O786 O 0.69991 0.20023 0.24375
 O787 O 0.73650 0.24491 0.27986
 O788 O 0.74446 0.21402 0.25519
 O789 O 0.78347 0.23159 0.24594
 O790 O 0.77499 0.26376 0.27137
 C791 C 0.68132 0.25354 0.21980
 C792 C 0.71912 0.31584 0.24050
 C793 C 0.73647 0.23667 0.17949
 O794 O 0.73899 0.18872 0.21666
 O795 O 0.77681 0.18961 0.23550
 O796 O 0.78387 0.19619 0.27203
 C797 C 0.78513 0.18394 0.25465
 O798 O 0.79239 0.29241 0.21488
 Zr799 Zr 0.78837 0.26670 0.23992
 O800 O 0.80416 0.23136 0.28492
 O801 O 0.78691 0.21367 0.20321
 O802 O 0.81268 0.25430 0.21745
 O803 O 0.80357 0.29658 0.25370
 O804 O 0.81787 0.25597 0.25837
 C805 C 0.82045 0.24249 0.27528
 O806 O 0.75796 0.20367 0.30064
 O807 O 0.71333 0.28671 0.29089
 O808 O 0.76903 0.24122 0.30963
 O809 O 0.75036 0.27564 0.30601
 O810 O 0.68706 0.24404 0.27704
 O811 O 0.70871 0.20882 0.28394
 C812 C 0.76044 0.25967 0.31744
 H813 H 0.70341 0.27485 0.25156
 H814 H 0.74182 0.19754 0.25879
 H815 H 0.78577 0.27048 0.28244
 H816 H 0.77109 0.25576 0.20176
 H817 H 0.68325 0.19936 0.24719
 H818 H 0.74766 0.18028 0.20552
 H819 H 0.78416 0.19889 0.19570
 H820 H 0.82749 0.26257 0.22020
 H821 H 0.67282 0.23487 0.27415
 H822 H 0.71638 0.30142 0.29842
 H823 H 0.75493 0.31671 0.29240
 H824 H 0.82015 0.29675 0.24988
 H825 H 0.69292 0.20212 0.28338
 H826 H 0.77171 0.19949 0.30992
 H827 H 0.73003 0.29770 0.18542
 H828 H 0.80901 0.29624 0.21343
 Zr829 Zr 0.74438 0.72648 0.70861
 O830 O 0.72801 0.70300 0.68698
 O831 O 0.77771 0.72889 0.69601
 O832 O 0.74182 0.74063 0.67624
 O833 O 0.75768 0.68619 0.74974
 O834 O 0.72492 0.77555 0.68083
 O835 O 0.75880 0.69319 0.71258
 O836 O 0.79538 0.75584 0.71765
 O837 O 0.75168 0.76163 0.71190
 O838 O 0.76460 0.72966 0.73741
 O839 O 0.71204 0.74274 0.70990
 O840 O 0.72463 0.71149 0.73406
 Zr841 Zr 0.71995 0.76752 0.76924
 Zr842 Zr 0.71957 0.77757 0.71493
 Zr843 Zr 0.74463 0.71652 0.76289
 Zr844 Zr 0.77085 0.76457 0.74121
 O845 O 0.72598 0.68798 0.77565
 O846 O 0.78118 0.79559 0.72520
 O847 O 0.75243 0.75133 0.76815
 O848 O 0.73962 0.78213 0.74371
 O849 O 0.69934 0.76463 0.74057
 O850 O 0.71272 0.73248 0.76572
 C851 C 0.79501 0.74150 0.70181
 C852 C 0.76244 0.68053 0.73000
 C853 C 0.73384 0.76003 0.66894
 O854 O 0.73702 0.80775 0.70423
 O855 O 0.70357 0.80666 0.72794
 O856 O 0.70411 0.80002 0.76518
 C857 C 0.69930 0.81234 0.74782
 O858 O 0.68474 0.70375 0.71339
 Zr859 Zr 0.69342 0.72953 0.73655
 O860 O 0.68653 0.76495 0.78174
 O861 O 0.68751 0.78236 0.69802
 O862 O 0.66499 0.74189 0.71718
 O863 O 0.68102 0.69973 0.75335
 O864 O 0.66794 0.74036 0.75826
 C865 C 0.66862 0.75390 0.77473
 O866 O 0.73539 0.79239 0.79004
 O867 O 0.77739 0.70977 0.77782
 O868 O 0.72580 0.75488 0.80186
 O869 O 0.74360 0.72045 0.79716
 O870 O 0.80063 0.75227 0.75862
 O871 O 0.78081 0.78763 0.76650
 C872 C 0.73570 0.73637 0.80918
 H873 H 0.77942 0.72129 0.73704
 H874 H 0.74290 0.79859 0.74628
 H875 H 0.70423 0.72576 0.77832
 H876 H 0.70298 0.74054 0.69605
 H877 H 0.79831 0.79631 0.72597
 H878 H 0.72623 0.81612 0.69406
 H879 H 0.68868 0.79717 0.68975
 H880 H 0.65096 0.73361 0.72220
 H881 H 0.81411 0.76121 0.75323
 H882 H 0.77597 0.69503 0.78618
 H883 H 0.73678 0.67946 0.78569
 H884 H 0.66392 0.69961 0.75169
 H885 H 0.79618 0.79436 0.76323
 H886 H 0.72370 0.79664 0.80095
 H887 H 0.73973 0.69845 0.67623
 H888 H 0.66805 0.69998 0.71424
 Zr889 Zr 0.24048 0.22595 0.77433
 O890 O 0.24869 0.20308 0.80090
 O891 O 0.20496 0.23087 0.77831
 O892 O 0.23687 0.24158 0.80535
 O893 O 0.23529 0.18359 0.73493
 O894 O 0.25702 0.27536 0.80183
 O895 O 0.22548 0.19291 0.76989
 O896 O 0.19497 0.25681 0.75103
 O897 O 0.23669 0.26104 0.76665
 O898 O 0.22816 0.22812 0.74169
 O899 O 0.27360 0.24061 0.77903
 O900 O 0.26503 0.20870 0.75552
 Zr901 Zr 0.28247 0.26215 0.71812
 Zr902 Zr 0.26998 0.27529 0.76974
 Zr903 Zr 0.25305 0.21270 0.72278
 Zr904 Zr 0.22560 0.26293 0.73369
 O905 O 0.27240 0.18281 0.71686
 O906 O 0.21373 0.29522 0.74422
 O907 O 0.24934 0.24737 0.71308
 O908 O 0.25795 0.27897 0.73706
 O909 O 0.29522 0.26012 0.75069
 O910 O 0.28603 0.22713 0.72596
 C911 C 0.19039 0.24363 0.76760
 C912 C 0.22560 0.17922 0.75341
 C913 C 0.24478 0.26080 0.81279
 O914 O 0.25208 0.30645 0.77384
 O915 O 0.29062 0.30294 0.75864
 O916 O 0.29921 0.29424 0.72322
 C917 C 0.30023 0.30734 0.74013
 O918 O 0.29843 0.20070 0.78521
 Zr919 Zr 0.29745 0.22513 0.75869
 O920 O 0.31792 0.25715 0.71393
 O921 O 0.29763 0.28003 0.79268
 O922 O 0.32139 0.23767 0.78265
 O923 O 0.31115 0.19370 0.74783
 O924 O 0.32852 0.23308 0.74256
 C925 C 0.33285 0.24556 0.72541
 O926 O 0.27475 0.28637 0.69253
 O927 O 0.22416 0.20636 0.70163
 O928 O 0.28359 0.24778 0.68629
 O929 O 0.26263 0.21447 0.68967
 O930 O 0.20026 0.25070 0.71089
 O931 O 0.22404 0.28482 0.70523
 C932 C 0.27434 0.22928 0.67852
 H933 H 0.21305 0.22032 0.73936
 H934 H 0.25656 0.29536 0.73254
 H935 H 0.29688 0.21929 0.71626
 H936 H 0.27898 0.23884 0.79457
 H937 H 0.19735 0.29669 0.73927
 H938 H 0.26070 0.31507 0.78535
 H939 H 0.29550 0.29531 0.79924
 H940 H 0.33569 0.22849 0.78175
 H941 H 0.18642 0.26053 0.71199
 H942 H 0.22654 0.19113 0.69506
 H943 H 0.26375 0.17417 0.70540
 H944 H 0.32743 0.19283 0.75325
 H945 H 0.20869 0.29225 0.70416
 H946 H 0.28924 0.28928 0.68444
 H947 H 0.23412 0.19979 0.80875
 H948 H 0.31467 0.19623 0.78846
 Zr949 Zr 0.26051 0.78444 0.28349
 O950 O 0.24502 0.80800 0.30471
 O951 O 0.29459 0.78329 0.29607
 O952 O 0.25941 0.77128 0.31630
 O953 O 0.26940 0.82446 0.24122
 O954 O 0.24417 0.73519 0.31238
 O955 O 0.27350 0.81833 0.27842
 O956 O 0.31166 0.75685 0.27447
 O957 O 0.26901 0.74966 0.28064
 O958 O 0.27891 0.78174 0.25438
 O959 O 0.22877 0.76638 0.28296
 O960 O 0.23840 0.79767 0.25814
 Zr961 Zr 0.23382 0.74063 0.22402
 Zr962 Zr 0.23745 0.73191 0.27847
 Zr963 Zr 0.25664 0.79315 0.22905
 Zr964 Zr 0.28627 0.74713 0.25098
 O965 O 0.23602 0.82053 0.21648
 O966 O 0.29893 0.71665 0.26659
 O967 O 0.26560 0.75874 0.22415
 O968 O 0.25571 0.72771 0.24943
 O969 O 0.21513 0.74308 0.25303
 O970 O 0.22524 0.77528 0.22708
 C971 C 0.31177 0.77102 0.29043
 C972 C 0.27536 0.83081 0.26070
 C973 C 0.25240 0.75167 0.32400
 O974 O 0.25710 0.70320 0.28946
 O975 O 0.22156 0.70182 0.26646
 O976 O 0.21949 0.70730 0.22908
 C977 C 0.21602 0.69539 0.24689
 O978 O 0.19987 0.80427 0.27870
 Zr979 Zr 0.20781 0.77783 0.25648
 O980 O 0.19946 0.74020 0.21273
 O981 O 0.20670 0.72547 0.29591
 O982 O 0.18143 0.76513 0.27730
 O983 O 0.19261 0.80577 0.23862
 O984 O 0.18119 0.76362 0.23650
 C985 C 0.18140 0.74944 0.22053
 O986 O 0.24918 0.71654 0.20325
 O987 O 0.28803 0.80110 0.21319
 O988 O 0.23605 0.75341 0.19109
 O989 O 0.25284 0.78885 0.19492
 O990 O 0.31458 0.76110 0.23341
 O991 O 0.29548 0.72463 0.22550
 C992 C 0.24433 0.77251 0.18330
 H993 H 0.29345 0.79084 0.25447
 H994 H 0.25946 0.71138 0.24711
 H995 H 0.21544 0.78111 0.21463
 H996 H 0.22042 0.76844 0.29683
 H997 H 0.31600 0.71684 0.26542
 H998 H 0.24734 0.69433 0.29988
 H999 H 0.20906 0.71097 0.30450
 H1000 H 0.16673 0.77247 0.27239
 H1001 H 0.32868 0.75290 0.23867
 H1002 H 0.28552 0.81558 0.20462
 H1003 H 0.24570 0.82944 0.20603
 H1004 H 0.17566 0.80467 0.24058
 H1005 H 0.31143 0.71904 0.22828
 H1006 H 0.23693 0.71127 0.19277
 H1007 H 0.25729 0.81331 0.31516
 H1008 H 0.18307 0.80746 0.27781
 Zr1009 Zr 0.23162 0.77431 0.71360
 O1010 O 0.24253 0.79839 0.68927
 O1011 O 0.19631 0.77049 0.70579
 O1012 O 0.22873 0.76071 0.68157
 O1013 O 0.22597 0.81452 0.75450
 O1014 O 0.24703 0.72611 0.68503
 O1015 O 0.21754 0.80732 0.71831
 O1016 O 0.18408 0.74308 0.73049
 O1017 O 0.22599 0.73903 0.71903
 O1018 O 0.21745 0.77068 0.74489
 O1019 O 0.26424 0.75886 0.71102
 O1020 O 0.25584 0.78967 0.73547
 Zr1021 Zr 0.26886 0.73364 0.77130
 Zr1022 Zr 0.25865 0.72388 0.71804
 Zr1023 Zr 0.24192 0.78424 0.76679
 Zr1024 Zr 0.21308 0.73560 0.75076
 O1025 O 0.26221 0.81303 0.77612
 O1026 O 0.20051 0.70411 0.73799
 O1027 O 0.23626 0.74925 0.77424
 O1028 O 0.24476 0.71870 0.74933
 O1029 O 0.28342 0.73711 0.74012
 O1030 O 0.27436 0.76889 0.76578
 C1031 C 0.18091 0.75713 0.71416
 C1032 C 0.21735 0.82010 0.73542
 C1033 C 0.23595 0.74164 0.67387
 O1034 O 0.23981 0.69356 0.71070
 O1035 O 0.27764 0.69510 0.72939
 O1036 O 0.28454 0.70150 0.76597
 C1037 C 0.28606 0.68943 0.74849
 O1038 O 0.29104 0.79836 0.70947
 Zr1039 Zr 0.28761 0.77234 0.73431
 O1040 O 0.30417 0.73690 0.77898
 O1041 O 0.28710 0.71966 0.69720
 O1042 O 0.31212 0.76070 0.71165
 O1043 O 0.30232 0.80234 0.74834
 O1044 O 0.31737 0.76194 0.75255
 C1045 C 0.32022 0.74833 0.76934
 O1046 O 0.25851 0.70829 0.79469
 O1047 O 0.21231 0.79044 0.78563
 O1048 O 0.26900 0.74596 0.80388
 O1049 O 0.24964 0.78001 0.80060
 O1050 O 0.18675 0.74749 0.77137
 O1051 O 0.20916 0.71271 0.77819
 C1052 C 0.26010 0.76415 0.81187
 H1053 H 0.20253 0.77873 0.74617
 H1054 H 0.24246 0.70215 0.75283
 H1055 H 0.28505 0.77571 0.77687
 H1056 H 0.27047 0.76134 0.69609
 H1057 H 0.18387 0.70289 0.74145
 H1058 H 0.24861 0.68540 0.69947
 H1059 H 0.28461 0.70491 0.68958
 H1060 H 0.32676 0.76925 0.71444
 H1061 H 0.17270 0.73807 0.76842
 H1062 H 0.21509 0.80513 0.79328
 H1063 H 0.25330 0.82127 0.78723
 H1064 H 0.31888 0.80285 0.74448
 H1065 H 0.19348 0.70573 0.77764
 H1066 H 0.27235 0.70428 0.80391
 H1067 H 0.22869 0.80263 0.68015
 H1068 H 0.30757 0.80260 0.70806
 Zr1069 Zr 0.24204 0.22402 0.20741
 O1070 O 0.22597 0.20041 0.18572
 O1071 O 0.27564 0.22627 0.19530
 O1072 O 0.23997 0.23793 0.17493
 O1073 O 0.25450 0.18394 0.24894
 O1074 O 0.22305 0.27291 0.17907
 O1075 O 0.25637 0.19075 0.21180
 O1076 O 0.29299 0.25328 0.21708
 O1077 O 0.24940 0.25916 0.21058
 O1078 O 0.26178 0.22732 0.23649
 O1079 O 0.20971 0.24038 0.20816
 O1080 O 0.22177 0.20928 0.23264
 Zr1081 Zr 0.21674 0.26559 0.26740
 Zr1082 Zr 0.21728 0.27523 0.21305
 Zr1083 Zr 0.24132 0.21442 0.26171
 Zr1084 Zr 0.26808 0.26224 0.24016
 O1085 O 0.22227 0.18609 0.27438
 O1086 O 0.27879 0.29312 0.22412
 O1087 O 0.24917 0.24923 0.26686
 O1088 O 0.23688 0.27993 0.24208
 O1089 O 0.19659 0.26257 0.23847
 O1090 O 0.20941 0.23054 0.26404
 C1091 C 0.29288 0.23886 0.20133
 C1092 C 0.25968 0.17818 0.22933
 C1093 C 0.23210 0.25728 0.16740
 O1094 O 0.23504 0.30523 0.20234
 O1095 O 0.20127 0.30453 0.22560
 O1096 O 0.20120 0.29818 0.26287
 C1097 C 0.19677 0.31040 0.24536
 O1098 O 0.18219 0.20145 0.21161
 Zr1099 Zr 0.19057 0.22746 0.23462
 O1100 O 0.18307 0.26332 0.27932
 O1101 O 0.18545 0.28004 0.19573
 O1102 O 0.16253 0.23965 0.21462
 O1103 O 0.17778 0.19793 0.25158
 O1104 O 0.16466 0.23876 0.25570
 C1105 C 0.16514 0.25247 0.27204
 O1106 O 0.23184 0.29056 0.28830
 O1107 O 0.27381 0.20750 0.27714
 O1108 O 0.22226 0.25321 0.30016
 O1109 O 0.23997 0.21866 0.29591
 O1110 O 0.29753 0.24994 0.25810
 O1111 O 0.27768 0.28542 0.26546
 C1112 C 0.23209 0.23476 0.30771
 H1113 H 0.27658 0.21891 0.23640
 H1114 H 0.24020 0.29640 0.24458
 H1115 H 0.20070 0.22400 0.27658
 H1116 H 0.20085 0.23811 0.19421
 H1117 H 0.29591 0.29379 0.22518
 H1118 H 0.22444 0.31356 0.19196
 H1119 H 0.18680 0.29477 0.18735
 H1120 H 0.14837 0.23147 0.21948
 H1121 H 0.31113 0.25881 0.25290
 H1122 H 0.27215 0.19283 0.28558
 H1123 H 0.23286 0.17758 0.28463
 H1124 H 0.16071 0.19788 0.24970
 H1125 H 0.29311 0.29210 0.26239
 H1126 H 0.21996 0.29491 0.29898
 H1127 H 0.23785 0.19573 0.17519
 H1128 H 0.16550 0.19764 0.21234
 Zr1129 Zr 0.74156 0.72342 0.27607
 O1130 O 0.74887 0.70102 0.30324
 O1131 O 0.70593 0.72869 0.27914
 O1132 O 0.73747 0.73971 0.30673
 O1133 O 0.73717 0.68022 0.23743
 O1134 O 0.75799 0.77324 0.30299
 O1135 O 0.72652 0.69034 0.27193
 O1136 O 0.69689 0.75416 0.25115
 O1137 O 0.73824 0.75838 0.26765
 O1138 O 0.73008 0.72499 0.24314
 O1139 O 0.77470 0.73789 0.28119
 O1140 O 0.76645 0.70558 0.25815
 Zr1141 Zr 0.78521 0.75810 0.22016
 Zr1142 Zr 0.77158 0.77241 0.27119
 Zr1143 Zr 0.75532 0.70899 0.22509
 Zr1144 Zr 0.72799 0.75967 0.23444
 O1145 O 0.77465 0.67887 0.22012
 O1146 O 0.71610 0.79228 0.24406
 O1147 O 0.75209 0.74348 0.21468
 O1148 O 0.76038 0.77552 0.23821
 O1149 O 0.79715 0.75663 0.25300
 O1150 O 0.78835 0.72321 0.22872
 C1151 C 0.69174 0.74136 0.26783
 C1152 C 0.72702 0.67630 0.25575
 C1153 C 0.74543 0.75899 0.31399
 O1154 O 0.75379 0.80378 0.27433
 O1155 O 0.79270 0.79967 0.26002
 O1156 O 0.80206 0.79018 0.22500
 C1157 C 0.80279 0.80361 0.24166
 O1158 O 0.79901 0.69779 0.28859
 Zr1159 Zr 0.79893 0.72179 0.26171
 O1160 O 0.82074 0.75277 0.21696
 O1161 O 0.79878 0.77743 0.29457
 O1162 O 0.82233 0.73451 0.28606
 O1163 O 0.81271 0.69009 0.25165
 O1164 O 0.83052 0.72933 0.24632
 C1165 C 0.83534 0.74144 0.22907
 O1166 O 0.77838 0.78187 0.19397
 O1167 O 0.72684 0.70236 0.20354
 O1168 O 0.78686 0.74309 0.18862
 O1169 O 0.76556 0.71002 0.19216
 O1170 O 0.70309 0.74717 0.21133
 O1171 O 0.72730 0.78097 0.20555
 C1172 C 0.77757 0.72455 0.18097
 H1173 H 0.71497 0.71725 0.24063
 H1174 H 0.75921 0.79183 0.23336
 H1175 H 0.79938 0.71511 0.21940
 H1176 H 0.77972 0.73638 0.29686
 H1177 H 0.69985 0.79378 0.23871
 H1178 H 0.76223 0.81260 0.28582
 H1179 H 0.79662 0.79287 0.30078
 H1180 H 0.83656 0.72517 0.28568
 H1181 H 0.68932 0.75715 0.21191
 H1182 H 0.72926 0.68697 0.19732
 H1183 H 0.76620 0.67003 0.20866
 H1184 H 0.82885 0.68920 0.25746
 H1185 H 0.71204 0.78852 0.20400
 H1186 H 0.79310 0.78446 0.18615
 H1187 H 0.73406 0.69804 0.31080
 H1188 H 0.81512 0.69318 0.29225
 Zr1189 Zr 0.76143 0.28585 0.78762
 O1190 O 0.74701 0.30968 0.80924
 O1191 O 0.79580 0.28406 0.79939
 O1192 O 0.76095 0.27273 0.82049
 O1193 O 0.76950 0.32580 0.74510
 O1194 O 0.74522 0.23679 0.81687
 O1195 O 0.77476 0.31957 0.78217
 O1196 O 0.81183 0.25744 0.77728
 O1197 O 0.76939 0.25097 0.78448
 O1198 O 0.77889 0.28297 0.75799
 O1199 O 0.72949 0.26815 0.78791
 O1200 O 0.73874 0.29935 0.76288
 Zr1201 Zr 0.73239 0.24240 0.72883
 Zr1202 Zr 0.73759 0.23358 0.78314
 Zr1203 Zr 0.75599 0.29465 0.73327
 Zr1204 Zr 0.78570 0.24828 0.75433
 O1205 O 0.73536 0.32226 0.72126
 O1206 O 0.79844 0.21754 0.76937
 O1207 O 0.76435 0.26014 0.72808
 O1208 O 0.75490 0.22922 0.75360
 O1209 O 0.71463 0.24504 0.75835
 O1210 O 0.72434 0.27715 0.73214
 C1211 C 0.81258 0.27149 0.79334
 C1212 C 0.77618 0.33206 0.76440
 C1213 C 0.75388 0.25319 0.82832
 O1214 O 0.75728 0.20473 0.79369
 O1215 O 0.72121 0.20358 0.77152
 O1216 O 0.71805 0.20916 0.73420
 C1217 C 0.71511 0.19720 0.75207
 O1218 O 0.70105 0.30645 0.78448
 Zr1219 Zr 0.70788 0.27988 0.76205
 O1220 O 0.69765 0.24231 0.71863
 O1221 O 0.70726 0.22740 0.80129
 O1222 O 0.68202 0.26761 0.78366
 O1223 O 0.69249 0.30796 0.74454
 O1224 O 0.68044 0.26592 0.74294
 C1225 C 0.67996 0.25171 0.72698
 O1226 O 0.74674 0.21822 0.70750
 O1227 O 0.78696 0.30226 0.71656
 O1228 O 0.73375 0.25514 0.69586
 O1229 O 0.75113 0.29036 0.69923
 O1230 O 0.81365 0.26206 0.73611
 O1231 O 0.79383 0.22584 0.72845
 C1232 C 0.74208 0.27411 0.68784
 H1233 H 0.79354 0.29188 0.75772
 H1234 H 0.75841 0.21285 0.75115
 H1235 H 0.71424 0.28308 0.71996
 H1236 H 0.72157 0.27030 0.80201
 H1237 H 0.81546 0.21752 0.76769
 H1238 H 0.74773 0.19593 0.80433
 H1239 H 0.70971 0.21288 0.80983
 H1240 H 0.66730 0.27519 0.77919
 H1241 H 0.82779 0.25368 0.74098
 H1242 H 0.78435 0.31676 0.70803
 H1243 H 0.74481 0.33105 0.71053
 H1244 H 0.67562 0.30708 0.74700
 H1245 H 0.80982 0.22013 0.73069
 H1246 H 0.73410 0.21308 0.69738
 H1247 H 0.75966 0.31478 0.81937
 H1248 H 0.68432 0.30996 0.78399
 C1249 C 0.42662 1.01992 0.33638
 C1250 C 0.44692 1.00695 0.33699
 C1251 C 0.45505 0.99781 0.31752
 C1252 C 0.44267 1.00119 0.29765
 C1253 C 0.42204 1.01405 0.29680
 C1254 C 0.41418 1.02329 0.31656
 C1255 C 0.45817 1.00162 0.35792
 C1256 C 0.46641 0.99715 0.37594
 C1257 C 0.47448 0.99231 0.39771
 C1258 C 0.47972 0.98893 0.41686
 H1259 H 0.41991 1.02673 0.35143
 H1260 H 0.47052 0.98741 0.31781
 H1261 H 0.44875 0.99290 0.28309
 H1262 H 0.39788 1.03219 0.31712
 C1263 C -0.04454 0.49987 0.81838
 C1264 C -0.05285 0.50905 0.83776
 C1265 C -0.07321 0.52191 0.83698
 C1266 C -0.08556 0.52512 0.81708
 C1267 C -0.07754 0.51580 0.79742
 C1268 C -0.05682 0.50309 0.79844
 C1269 C -0.04175 0.50377 0.85876
 C1270 C -0.03364 0.49926 0.87683
 C1271 C -0.02571 0.49426 0.89861
 C1272 C -0.02056 0.49062 0.91774
 H1273 H -0.02901 0.48954 0.81880
 H1274 H -0.08006 0.52875 0.85196
 H1275 H -0.10191 0.53394 0.81751
 H1276 H -0.05060 0.49476 0.78394
 C1277 C 0.06764 -0.00937 0.83427
 C1278 C 0.05080 0.00772 0.83502
 C1279 C 0.04585 0.02119 0.81620
 C1280 C 0.05795 0.01781 0.79683
 C1281 C 0.07508 0.00068 0.79581
 C1282 C 0.07980 -0.01277 0.81497
 C1283 C 0.03990 0.01217 0.85562
 C1284 C 0.03198 0.01518 0.87355
 C1285 C 0.02428 0.01743 0.89534
 C1286 C 0.01929 0.01778 0.91452
 H1287 H 0.07190 -0.01964 0.84887
 H1288 H 0.03310 0.03471 0.81665
 H1289 H 0.05442 0.02910 0.78277
 H1290 H 0.09349 -0.02528 0.81562
 C1291 C 0.57139 0.48952 0.33581
 C1292 C 0.55288 0.50485 0.33584
 C1293 C 0.54619 0.51638 0.31633
 C1294 C 0.55821 0.51284 0.29694
 C1295 C 0.57692 0.49740 0.29665
 C1296 C 0.58346 0.48598 0.31651
 C1297 C 0.54203 0.50965 0.35635
 C1298 C 0.53427 0.51303 0.37427
 C1299 C 0.52688 0.51578 0.39606
 C1300 C 0.52221 0.51665 0.41528
 H1301 H 0.57702 0.48082 0.35094
 H1302 H 0.53215 0.52862 0.31623
 H1303 H 0.55336 0.52287 0.28237
 H1304 H 0.59849 0.47505 0.31753
 C1305 C 0.58420 0.48968 0.17491
 C1306 C 0.56239 0.49945 0.17093
 C1307 C 0.55140 0.51057 0.18796
 C1308 C 0.56179 0.51133 0.20898
 C1309 C 0.58336 0.50081 0.21342
 C1310 C 0.59464 0.49044 0.19595
 C1311 C 0.55137 0.49811 0.14939
 C1312 C 0.54259 0.49707 0.13117
 C1313 C 0.53341 0.49612 0.10938
 C1314 C 0.52718 0.49578 0.09025
 H1315 H 0.59302 0.48120 0.16181
 H1316 H 0.53468 0.51851 0.18506
 H1317 H 0.55281 0.52010 0.22177
 H1318 H 0.61119 0.48233 0.19854
 C1319 C 0.08478 0.99741 0.67378
 C1320 C 0.06114 1.00167 0.67066
 C1321 C 0.04796 1.00734 0.68871
 C1322 C 0.05814 1.00819 0.70980
 C1323 C 0.08188 1.00313 0.71357
 C1324 C 0.09510 0.99826 0.69489
 C1325 C 0.05043 1.00038 0.64895
 C1326 C 0.04184 0.99938 0.63064
 C1327 C 0.03281 0.99844 0.60876
 C1328 C 0.02672 0.99803 0.58959
 H1329 H 0.09528 0.99319 0.65988
 H1330 H 0.02973 1.01114 0.68650
 H1331 H 0.04710 1.01331 0.72292
 H1332 H 0.11326 0.99433 0.69618
 C1333 C -0.08659 0.52750 0.67452
 C1334 C -0.06281 0.52445 0.67189
 C1335 C -0.04912 0.51718 0.68995
 C1336 C -0.05897 0.51355 0.71059
 C1337 C -0.08278 0.51733 0.71370
 C1338 C -0.09650 0.52386 0.69518
 C1339 C -0.05261 0.52795 0.65055
 C1340 C -0.04431 0.53018 0.63251
 C1341 C -0.03530 0.53150 0.61100
 C1342 C -0.02874 0.53096 0.59225
 H1343 H -0.09749 0.53274 0.66059
 H1344 H -0.03078 0.51426 0.68808
 H1345 H -0.04780 0.50762 0.72401
 H1346 H -0.11481 0.52650 0.69648
 C1347 C 0.41312 0.02979 0.17498
 C1348 C 0.43618 0.02381 0.17164
 C1349 C 0.44908 0.01362 0.18894
 C1350 C 0.43918 0.00987 0.20954
 C1351 C 0.41614 0.01632 0.21328
 C1352 C 0.40317 0.02602 0.19560
 C1353 C 0.44638 0.02744 0.15031
 C1354 C 0.45460 0.02979 0.13226
 C1355 C 0.46346 0.03130 0.11069
 C1356 C 0.46984 0.03098 0.09187
 H1357 H 0.40284 0.03748 0.16167
 H1358 H 0.46683 0.00857 0.18652
 H1359 H 0.44961 0.00183 0.22253
 H1360 H 0.38555 0.03122 0.19771
 C1361 C 0.34107 0.39170 -0.00992
 C1362 C 0.34129 0.41413 -0.00205
 C1363 C 0.32034 0.42472 0.00259
 C1364 C 0.29931 0.41293 -0.00052
 C1365 C 0.29880 0.39040 -0.00877
 C1366 C 0.32011 0.37989 -0.01305
 C1367 C 0.36308 0.42608 0.00135
 C1368 C 0.38153 0.43578 0.00368
 C1369 C 0.40338 0.44692 0.00545
 C1370 C 0.42214 0.45628 0.00570
 H1371 H 0.35715 0.38318 -0.01338
 H1372 H 0.32027 0.44198 0.00897
 H1373 H 0.28366 0.42136 0.00422
 H1374 H 0.32063 0.36228 -0.01841
 C1375 C -0.17945 0.92602 0.50195
 C1376 C -0.15843 0.91577 0.49692
 C1377 C -0.15849 0.89340 0.48889
 C1378 C -0.17933 0.88132 0.48599
 C1379 C -0.20071 0.89150 0.49063
 C1380 C -0.20037 0.91396 0.49905
 C1381 C -0.13674 0.92797 0.50015
 C1382 C -0.11836 0.93784 0.50238
 C1383 C -0.09654 0.94909 0.50408
 C1384 C -0.07777 0.95844 0.50434
 H1385 H -0.17966 0.94322 0.50846
 H1386 H -0.14235 0.88512 0.48517
 H1387 H -0.17865 0.86375 0.48052
 H1388 H -0.21606 0.92212 0.50408
 C1389 C -0.16490 0.11167 1.00840
 C1390 C -0.16487 0.08871 1.00210
 C1391 C -0.18590 0.07759 0.99724
 C1392 C -0.20684 0.08944 0.99853
 C1393 C -0.20712 0.11259 1.00509
 C1394 C -0.18572 0.12353 1.00968
 C1395 C -0.14314 0.07689 1.00032
 C1396 C -0.12467 0.06747 0.99918
 C1397 C -0.10284 0.05668 0.99848
 C1398 C -0.08422 0.04738 0.99871
 H1399 H -0.14875 0.12058 1.01197
 H1400 H -0.18608 0.05987 0.99207
 H1401 H -0.22259 0.08057 0.99370
 H1402 H -0.18502 0.14154 1.01380
 C1403 C 0.33792 0.61273 0.50315
 C1404 C 0.33824 0.58909 0.49958
 C1405 C 0.31731 0.57709 0.49674
 C1406 C 0.29615 0.58871 0.49732
 C1407 C 0.29564 0.61258 0.50095
 C1408 C 0.31691 0.62435 0.50373
 C1409 C 0.36016 0.57743 0.49876
 C1410 C 0.37881 0.56822 0.49837
 C1411 C 0.40084 0.55775 0.49844
 C1412 C 0.41962 0.54877 0.49917
 H1413 H 0.35396 0.62228 0.50529
 H1414 H 0.31734 0.55878 0.49383
 H1415 H 0.28049 0.57891 0.49443
 H1416 H 0.31725 0.64275 0.50608
 C1417 C 0.16778 0.62385 0.51443
 C1418 C 0.16117 0.60281 0.50530
 C1419 C 0.17736 0.59028 0.49372
 C1420 C 0.20000 0.59859 0.49140
 C1421 C 0.20684 0.61965 0.50061
 C1422 C 0.19042 0.63222 0.51211
 C1423 C 0.13790 0.59390 0.50777
 C1424 C 0.11865 0.58580 0.50939
 C1425 C 0.09640 0.57541 0.51051
 C1426 C 0.07786 0.56559 0.51050
 H1427 H 0.15549 0.63371 0.52350
 H1428 H 0.17250 0.57401 0.48649
 H1429 H 0.21210 0.58860 0.48226
 H1430 H 0.19517 0.64827 0.51978
 C1431 C 0.67795 0.08864 0.00430
 C1432 C 0.65945 0.10348 0.00722
 C1433 C 0.66367 0.12712 0.00816
 C1434 C 0.68624 0.13587 0.00646
 C1435 C 0.70539 0.12112 0.00396
 C1436 C 0.70053 0.09726 0.00262
 C1437 C 0.63617 0.09436 0.00884
 C1438 C 0.61691 0.08615 0.00986
 C1439 C 0.59465 0.07573 0.01042
 C1440 C 0.57606 0.06601 0.01007
 H1441 H 0.67492 0.07029 0.00319
 H1442 H 0.64948 0.13887 0.01027
 H1443 H 0.68813 0.15423 0.00762
 H1444 H 0.71389 0.08488 -0.00025
 C1445 C 0.66902 0.88135 0.48281
 C1446 C 0.66525 0.90294 0.49180
 C1447 C 0.68412 0.91571 0.49982
 C1448 C 0.70659 0.90704 0.49882
 C1449 C 0.71068 0.88539 0.48967
 C1450 C 0.69151 0.87263 0.48180
 C1451 C 0.64208 0.91199 0.49308
 C1452 C 0.62289 0.91992 0.49444
 C1453 C 0.60062 0.92965 0.49640
 C1454 C 0.58186 0.93833 0.49846
 H1455 H 0.65458 0.87123 0.47658
 H1456 H 0.68148 0.93236 0.50700
 H1457 H 0.72066 0.91721 0.50564
 H1458 H 0.69373 0.85598 0.47467
 C1459 C 0.16850 0.38147 0.98239
 C1460 C 0.16483 0.40295 0.99165
 C1461 C 0.18374 0.41544 1.00000
 C1462 C 0.20614 0.40660 0.99907
 C1463 C 0.21012 0.38505 0.98966
 C1464 C 0.19092 0.37257 0.98146
 C1465 C 0.14173 0.41215 0.99289
 C1466 C 0.12259 0.42019 0.99425
 C1467 C 0.10037 0.43000 0.99627
 C1468 C 0.08162 0.43867 0.99841
 H1469 H 0.15403 0.37156 0.97591
 H1470 H 0.18117 0.43200 1.00739
 H1471 H 0.22024 0.41655 1.00615
 H1472 H 0.19307 0.35602 0.97412
 C1473 C 0.01105 0.31330 0.45617
 C1474 C -0.00486 0.33116 0.45367
 C1475 C -0.02259 0.32998 0.43776
 C1476 C -0.02396 0.31147 0.42368
 C1477 C -0.00788 0.29338 0.42563
 C1478 C 0.00958 0.29453 0.44220
 C1479 C -0.00153 0.35228 0.46495
 C1480 C 0.00044 0.37112 0.47245
 C1481 C 0.00166 0.39397 0.47924
 C1482 C 0.00178 0.41389 0.48391
 H1483 H 0.02518 0.31439 0.46815
 H1484 H -0.03462 0.34406 0.43539
 H1485 H -0.03686 0.31224 0.41053
 H1486 H 0.02284 0.28151 0.44358
 C1487 C 0.48175 -0.16395 -0.07416
 C1488 C 0.49191 -0.16512 -0.05313
 C1489 C 0.50119 -0.18576 -0.04493
 C1490 C 0.50052 -0.20527 -0.05800
 C1491 C 0.49025 -0.20431 -0.07934
 C1492 C 0.48117 -0.18323 -0.08725
 C1493 C 0.49421 -0.14435 -0.04114
 C1494 C 0.49571 -0.12582 -0.03295
 C1495 C 0.49680 -0.10329 -0.02532
 C1496 C 0.49707 -0.08359 -0.01997
 H1497 H 0.47497 -0.14785 -0.08078
 H1498 H 0.50955 -0.18659 -0.02878
 H1499 H 0.50891 -0.22065 -0.05166
 H1500 H 0.47431 -0.18139 -0.10392
 C1501 C -0.01026 -0.19095 1.06093
 C1502 C 0.01098 -0.18026 1.05696
 C1503 C 0.03161 -0.19118 1.06306
 C1504 C 0.03101 -0.21198 1.07483
 C1505 C 0.00966 -0.22172 1.08106
 C1506 C -0.01092 -0.21173 1.07267
 C1507 C 0.01144 -0.15686 1.04958
 C1508 C 0.01137 -0.13683 1.04469
 C1509 C 0.01066 -0.11329 1.03972
 C1510 C 0.00946 -0.09320 1.03522
 H1511 H -0.02633 -0.18260 1.05607
 H1512 H 0.04814 -0.18308 1.05971
 H1513 H 0.04736 -0.21966 1.07946
 H1514 H -0.02759 -0.21924 1.07651
 C1515 C 0.49736 0.31131 0.56195
 C1516 C 0.51843 0.32315 0.56116
 C1517 C 0.53859 0.31302 0.56969
 C1518 C 0.53743 0.29180 0.58069
 C1519 C 0.51587 0.28076 0.58366
 C1520 C 0.49613 0.29011 0.57291
 C1521 C 0.51873 0.34675 0.55432
 C1522 C 0.51831 0.36684 0.54967
 C1523 C 0.51704 0.39038 0.54467
 C1524 C 0.51532 0.41037 0.53989
 H1525 H 0.48167 0.31904 0.55521
 H1526 H 0.55504 0.32203 0.56882
 H1527 H 0.55338 0.28490 0.58739
 H1528 H 0.47942 0.28172 0.57437
 C1529 C 0.47575 1.16034 0.60262
 C1530 C 0.48646 1.15168 0.58415
 C1531 C 0.49994 1.16608 0.57083
 C1532 C 0.50338 1.18898 0.57632
 C1533 C 0.49333 1.19770 0.59525
 C1534 C 0.47914 1.18332 0.60814
 C1535 C 0.48491 1.12782 0.57918
 C1536 C 0.48492 1.10806 0.57395
 C1537 C 0.48619 1.08554 0.56636
 C1538 C 0.48796 1.06694 0.55845
 H1539 H 0.46524 1.14926 0.61296
 H1540 H 0.50835 1.15942 0.55654
 H1541 H 0.51472 1.19951 0.56630
 H1542 H 0.47093 1.18974 0.62263
 C1543 C -0.00741 0.66382 1.07131
 C1544 C -0.01880 0.64932 1.08623
 C1545 C -0.02759 0.65804 1.10560
 C1546 C -0.02422 0.68121 1.11040
 C1547 C -0.01189 0.69568 1.09591
 C1548 C -0.00394 0.68688 1.07610
 C1549 C -0.01972 0.62529 1.08197
 C1550 C -0.01898 0.60548 1.07702
 C1551 C -0.01678 0.58307 1.06943
 C1552 C -0.01428 0.56469 1.06130
 H1553 H -0.00046 0.65710 1.05632
 H1554 H -0.03647 0.64686 1.11719
 H1555 H -0.03084 0.68768 1.12561
 H1556 H 0.00596 0.69746 1.06481
 C1557 C 0.51805 0.68397 -0.06968
 C1558 C 0.51451 0.66664 -0.08495
 C1559 C 0.50555 0.67195 -0.10595
 C1560 C 0.50007 0.69464 -0.11171
 C1561 C 0.50337 0.71249 -0.09643
 C1562 C 0.51256 0.70665 -0.07530
 C1563 C 0.51838 0.64323 -0.07830
 C1564 C 0.52065 0.62382 -0.07157
 C1565 C 0.52194 0.60160 -0.06226
 C1566 C 0.52172 0.58316 -0.05305
 H1567 H 0.52492 0.67994 -0.05330
 H1568 H 0.50235 0.65849 -0.11774
 H1569 H 0.49241 0.69759 -0.12787
 H1570 H 0.51626 0.71950 -0.06308
 C1571 C 0.00583 1.17146 0.39514
 C1572 C 0.02152 1.16596 0.41227
 C1573 C 0.03179 1.18340 0.42473
 C1574 C 0.02599 1.20630 0.42040
 C1575 C 0.00979 1.21193 0.40358
 C1576 C 0.00004 1.19436 0.39075
 C1577 C 0.02487 1.14244 0.41888
 C1578 C 0.02643 1.12298 0.42569
 C1579 C 0.02672 1.10079 0.43519
 C1580 C 0.02561 1.08248 0.44459
 H1581 H -0.00250 1.15801 0.38567
 H1582 H 0.04377 1.17925 0.43819
 H1583 H 0.03403 1.21956 0.43030
 H1584 H -0.01271 1.19819 0.37792
 C1585 C 0.74649 0.70772 0.93180
 C1586 C 0.75611 0.69996 0.91241
 C1587 C 0.76943 0.67997 0.91301
 C1588 C 0.77272 0.66750 0.93275
 C1589 C 0.76306 0.67502 0.95245
 C1590 C 0.74978 0.69530 0.95159
 C1591 C 0.75087 0.71122 0.89152
 C1592 C 0.74649 0.71944 0.87350
 C1593 C 0.74174 0.72745 0.85172
 C1594 C 0.73839 0.73261 0.83256
 H1595 H 0.73577 0.72293 0.93149
 H1596 H 0.77659 0.67353 0.89800
 H1597 H 0.78191 0.65143 0.93219
 H1598 H 0.74110 0.70110 0.96606
 C1599 C 0.24451 0.20732 0.43030
 C1600 C 0.25466 0.20002 0.41100
 C1601 C 0.26905 0.18077 0.41174
 C1602 C 0.27282 0.16849 0.43153
 C1603 C 0.26248 0.17546 0.45110
 C1604 C 0.24827 0.19510 0.45012
 C1605 C 0.24884 0.21090 0.39007
 C1606 C 0.24395 0.21882 0.37204
 C1607 C 0.23863 0.22649 0.35028
 C1608 C 0.23494 0.23136 0.33111
 H1609 H 0.23303 0.22196 0.42989
 H1610 H 0.27667 0.17471 0.39680
 H1611 H 0.28288 0.15295 0.43105
 H1612 H 0.23922 0.20047 0.46455
 C1613 C 0.76535 0.29100 0.43855
 C1614 C 0.75262 0.29677 0.41942
 C1615 C 0.73730 0.31525 0.41947
 C1616 C 0.73499 0.32827 0.43839
 C1617 C 0.74784 0.32283 0.45780
 C1618 C 0.76305 0.30395 0.45753
 C1619 C 0.75630 0.28500 0.39917
 C1620 C 0.75893 0.27649 0.38146
 C1621 C 0.76107 0.26833 0.35987
 C1622 C 0.76166 0.26321 0.34075
 H1623 H 0.77750 0.27692 0.43864
 H1624 H 0.72762 0.32009 0.40461
 H1625 H 0.72386 0.34306 0.43720
 H1626 H 0.77374 0.29965 0.47189
 C1627 C 0.26614 0.79356 0.93351
 C1628 C 0.25256 0.79889 0.91479
 C1629 C 0.23619 0.81641 0.91555
 C1630 C 0.23362 0.82887 0.93477
 C1631 C 0.24718 0.82376 0.95383
 C1632 C 0.26358 0.80595 0.95280
 C1633 C 0.25634 0.78778 0.89421
 C1634 C 0.25893 0.77981 0.87625
 C1635 C 0.26094 0.77223 0.85444
 C1636 C 0.26141 0.76748 0.83521
 H1637 H 0.27914 0.78028 0.93301
 H1638 H 0.22589 0.82099 0.90100
 H1639 H 0.22170 0.84306 0.93410
 H1640 H 0.27494 0.80207 0.96679
 C1641 C 0.24497 0.83429 0.07571
 C1642 C 0.24832 0.81065 0.07886
 C1643 C 0.25353 0.79725 0.06086
 C1644 C 0.25478 0.80722 0.03977
 C1645 C 0.25060 0.83098 0.03597
 C1646 C 0.24624 0.84440 0.05460
 C1647 C 0.24663 0.80016 0.10055
 C1648 C 0.24535 0.79172 0.11885
 C1649 C 0.24424 0.78285 0.14071
 C1650 C 0.24385 0.77685 0.15988
 H1651 H 0.24115 0.84494 0.08959
 H1652 H 0.25664 0.77900 0.06311
 H1653 H 0.25952 0.79601 0.02668
 H1654 H 0.24301 0.86259 0.05327
 C1655 C 0.74808 0.29655 0.56487
 C1656 C 0.74493 0.31058 0.58289
 C1657 C 0.74393 0.33442 0.57966
 C1658 C 0.74573 0.34420 0.55847
 C1659 C 0.74836 0.33027 0.53984
 C1660 C 0.74986 0.30619 0.54369
 C1661 C 0.74318 0.30052 0.60474
 C1662 C 0.74199 0.29246 0.62318
 C1663 C 0.74114 0.28401 0.64518
 C1664 C 0.74108 0.27830 0.66442
 H1665 H 0.74931 0.27808 0.56717
 H1666 H 0.74167 0.34552 0.59356
 H1667 H 0.74444 0.36263 0.55712
 H1668 H 0.75304 0.29440 0.53061
 C1669 C 0.27815 0.16806 0.57260
 C1670 C 0.27051 0.19049 0.57590
 C1671 C 0.25928 0.20251 0.55863
 C1672 C 0.25612 0.19235 0.53807
 C1673 C 0.26421 0.16998 0.53440
 C1674 C 0.27499 0.15787 0.55203
 C1675 C 0.27360 0.20093 0.59715
 C1676 C 0.27562 0.20925 0.61517
 C1677 C 0.27692 0.21806 0.63673
 C1678 C 0.27671 0.22424 0.65560
 H1679 H 0.28671 0.15849 0.58590
 H1680 H 0.25298 0.21975 0.56102
 H1681 H 0.24731 0.20206 0.52504
 H1682 H 0.28154 0.14081 0.54987
 C1683 C 0.78065 0.66470 0.07336
 C1684 C 0.77270 0.68678 0.07786
 C1685 C 0.76048 0.69924 0.06150
 C1686 C 0.75652 0.68989 0.04070
 C1687 C 0.76472 0.66786 0.03589
 C1688 C 0.77668 0.65528 0.05252
 C1689 C 0.77641 0.69646 0.09941
 C1690 C 0.77876 0.70439 0.11758
 C1691 C 0.78028 0.71300 0.13923
 C1692 C 0.78009 0.71922 0.15811
 H1693 H 0.79002 0.65481 0.08591
 H1694 H 0.75400 0.71622 0.06482
 H1695 H 0.74699 0.69991 0.02836
 H1696 H 0.78352 0.63844 0.04927
 C1697 C 0.14012 0.59160 0.25824
 C1698 C 0.16293 0.59231 0.25103
 C1699 C 0.17407 0.57171 0.24645
 C1700 C 0.16249 0.55056 0.24903
 C1701 C 0.13955 0.54959 0.25656
 C1702 C 0.12852 0.57054 0.26083
 C1703 C 0.17478 0.61418 0.24835
 C1704 C 0.18445 0.63265 0.24656
 C1705 C 0.19559 0.65446 0.24527
 C1706 C 0.20498 0.67314 0.24522
 H1707 H 0.13118 0.60738 0.26171
 H1708 H 0.19165 0.57199 0.24065
 H1709 H 0.17153 0.53527 0.24454
 H1710 H 0.11071 0.57062 0.26597
 C1711 C 0.63958 0.09283 0.76144
 C1712 C 0.66290 0.09369 0.75580
 C1713 C 0.67464 0.07316 0.75230
 C1714 C 0.66314 0.05192 0.75432
 C1715 C 0.63965 0.05080 0.76020
 C1716 C 0.62806 0.07168 0.76346
 C1717 C 0.67458 0.11567 0.75345
 C1718 C 0.68404 0.13424 0.75184
 C1719 C 0.69492 0.15617 0.75065
 C1720 C 0.70413 0.17492 0.75058
 H1721 H 0.63019 0.10855 0.76404
 H1722 H 0.69264 0.07357 0.74769
 H1723 H 0.67264 0.03665 0.75059
 H1724 H 0.60984 0.07165 0.76724
 C1725 C 0.82698 0.06097 0.25825
 C1726 C 0.83795 0.08184 0.25296
 C1727 C 0.86080 0.08180 0.24593
 C1728 C 0.87267 0.06112 0.24430
 C1729 C 0.86188 0.03987 0.24933
 C1730 C 0.83885 0.04015 0.25663
 C1731 C 0.82608 0.10343 0.25491
 C1732 C 0.81661 0.12179 0.25611
 C1733 C 0.80578 0.14350 0.25678
 C1734 C 0.79649 0.16204 0.25645
 H1735 H 0.80936 0.06079 0.26397
 H1736 H 0.86959 0.09783 0.24198
 H1737 H 0.89059 0.06177 0.23949
 H1738 H 0.83008 0.02454 0.26174
 C1739 C 0.32798 0.56681 0.75092
 C1740 C 0.33982 0.58762 0.74745
 C1741 C 0.36341 0.58733 0.74288
 C1742 C 0.37513 0.56647 0.74197
 C1743 C 0.36348 0.54532 0.74529
 C1744 C 0.33969 0.54584 0.75002
 C1745 C 0.32803 0.60933 0.74890
 C1746 C 0.31848 0.62769 0.74986
 C1747 C 0.30741 0.64931 0.75044
 C1748 C 0.29784 0.66771 0.75015
 H1749 H 0.30976 0.56680 0.75472
 H1750 H 0.37286 0.60329 0.74034
 H1751 H 0.39356 0.56688 0.73912
 H1752 H 0.33012 0.53028 0.75374
 C1753 C 0.33603 0.42988 0.74812
 C1754 C 0.35040 0.41167 0.74280
 C1755 C 0.37399 0.41588 0.73984
 C1756 C 0.38309 0.43817 0.74181
 C1757 C 0.36872 0.45685 0.74657
 C1758 C 0.34506 0.45217 0.75008
 C1759 C 0.34091 0.38870 0.74071
 C1760 C 0.33254 0.36964 0.73931
 C1761 C 0.32211 0.34751 0.73835
 C1762 C 0.31256 0.32893 0.73846
 H1763 H 0.31778 0.42685 0.75080
 H1764 H 0.38541 0.40192 0.73596
 H1765 H 0.40135 0.44047 0.73936
 H1766 H 0.33335 0.46560 0.75460
 C1767 C 0.83890 0.92534 0.25176
 C1768 C 0.85302 0.90783 0.24435
 C1769 C 0.87604 0.91282 0.23940
 C1770 C 0.88488 0.93518 0.24169
 C1771 C 0.87081 0.95320 0.24899
 C1772 C 0.84761 0.94770 0.25405
 C1773 C 0.84377 0.88479 0.24207
 C1774 C 0.83547 0.86570 0.24061
 C1775 C 0.82499 0.84359 0.23969
 C1776 C 0.81532 0.82507 0.23987
 H1777 H 0.82108 0.92170 0.25588
 H1778 H 0.88716 0.89945 0.23354
 H1779 H 0.90250 0.93815 0.23675
 H1780 H 0.83611 0.96043 0.26038
 C1781 C 0.66632 0.93639 0.75000
 C1782 C 0.65339 0.91740 0.75735
 C1783 C 0.63135 0.92083 0.76573
 C1784 C 0.62232 0.94305 0.76680
 C1785 C 0.63521 0.96235 0.75963
 C1786 C 0.65733 0.95861 0.75108
 C1787 C 0.66267 0.89446 0.75600
 C1788 C 0.67063 0.87538 0.75466
 C1789 C 0.68025 0.85316 0.75275
 C1790 C 0.68874 0.83440 0.75075
 H1791 H 0.68332 0.93401 0.74329
 H1792 H 0.62110 0.90630 0.77141
 H1793 H 0.60531 0.94491 0.77341
 H1794 H 0.66765 0.97277 0.74477
 C1795 C 0.16413 0.43474 0.24464
 C1796 C 0.15194 0.41603 0.25362
 C1797 C 0.13082 0.41979 0.26371
 C1798 C 0.12202 0.44208 0.26497
 C1799 C 0.13424 0.46112 0.25628
 C1800 C 0.15537 0.45704 0.24589
 C1801 C 0.16105 0.39303 0.25239
 C1802 C 0.16881 0.37385 0.25125
 C1803 C 0.17815 0.35150 0.24967
 C1804 C 0.18642 0.33260 0.24797
 H1805 H 0.18041 0.43208 0.23659
 H1806 H 0.12114 0.40548 0.27067
 H1807 H 0.10578 0.44417 0.27301
 H1808 H 0.16508 0.47099 0.23839
 C1809 C 0.06585 0.24791 0.80139
 C1810 C 0.08495 0.23446 0.80742
 C1811 C 0.08456 0.22057 0.82640
 C1812 C 0.06543 0.22065 0.83987
 C1813 C 0.04603 0.23428 0.83427
 C1814 C 0.04654 0.24792 0.81478
 C1815 C 0.10619 0.23692 0.79603
 C1816 C 0.12487 0.23897 0.78804
 C1817 C 0.14739 0.24111 0.78022
 C1818 C 0.16699 0.24255 0.77431
 H1819 H 0.06629 0.25913 0.78694
 H1820 H 0.09958 0.21057 0.83144
 H1821 H 0.06670 0.21101 0.85522
 H1822 H 0.03247 0.25944 0.81044
 C1823 C 0.57090 0.75816 0.30333
 C1824 C 0.58338 0.73787 0.30150
 C1825 C 0.57578 0.71764 0.31187
 C1826 C 0.55673 0.71806 0.32552
 C1827 C 0.54543 0.73894 0.32936
 C1828 C 0.55181 0.75861 0.31691
 C1829 C 0.60565 0.73850 0.29180
 C1830 C 0.62504 0.73919 0.28521
 C1831 C 0.64816 0.74005 0.27882
 C1832 C 0.66810 0.74074 0.27385
 H1833 H 0.57662 0.77388 0.29518
 H1834 H 0.58522 0.70177 0.31024
 H1835 H 0.55152 0.70208 0.33331
 H1836 H 0.54283 0.77471 0.31873
 C1837 C 0.57205 0.26308 0.15535
 C1838 C 0.57473 0.25474 0.17692
 C1839 C 0.55587 0.24526 0.18803
 C1840 C 0.53420 0.24404 0.17744
 C1841 C 0.53130 0.25234 0.15558
 C1842 C 0.55056 0.26187 0.14476
 C1843 C 0.59720 0.25520 0.18711
 C1844 C 0.61645 0.25547 0.19482
 C1845 C 0.63914 0.25544 0.20330
 C1846 C 0.65855 0.25490 0.21060
 H1847 H 0.58664 0.27030 0.14662
 H1848 H 0.55798 0.23862 0.20475
 H1849 H 0.52015 0.23639 0.18646
 H1850 H 0.54893 0.26826 0.12791
 C1851 C 0.07186 0.76297 0.64873
 C1852 C 0.07482 0.75485 0.67035
 C1853 C 0.05624 0.74510 0.68163
 C1854 C 0.03451 0.74349 0.67123
 C1855 C 0.03128 0.75166 0.64937
 C1856 C 0.05030 0.76138 0.63832
 C1857 C 0.09723 0.75609 0.68055
 C1858 C 0.11637 0.75704 0.68843
 C1859 C 0.13891 0.75778 0.69721
 C1860 C 0.15821 0.75786 0.70476
 H1861 H 0.08625 0.77044 0.63987
 H1862 H 0.05857 0.73867 0.69841
 H1863 H 0.02066 0.73579 0.68048
 H1864 H 0.04838 0.76776 0.62148
 C1865 C 0.90392 0.72537 0.63806
 C1866 C 0.89896 0.73213 0.65937
 C1867 C 0.91659 0.74016 0.67339
 C1868 C 0.93911 0.74215 0.66589
 C1869 C 0.94422 0.73608 0.64423
 C1870 C 0.92648 0.72732 0.63052
 C1871 C 0.87561 0.73252 0.66651
 C1872 C 0.85632 0.73385 0.67317
 C1873 C 0.83431 0.73626 0.68195
 C1874 C 0.81602 0.73867 0.69046
 H1875 H 0.89029 0.71917 0.62710
 H1876 H 0.91278 0.74561 0.68989
 H1877 H 0.95222 0.74946 0.67673
 H1878 H 0.92985 0.72235 0.61390
 C1879 C 0.40468 0.22403 0.14156
 C1880 C 0.39853 0.23167 0.16227
 C1881 C 0.41525 0.24113 0.17647
 C1882 C 0.43802 0.24361 0.16972
 C1883 C 0.44427 0.23663 0.14864
 C1884 C 0.42747 0.22648 0.13478
 C1885 C 0.37486 0.23132 0.16856
 C1886 C 0.35524 0.23205 0.17448
 C1887 C 0.33280 0.23388 0.18245
 C1888 C 0.31416 0.23601 0.19040
 H1889 H 0.39179 0.21668 0.13048
 H1890 H 0.41053 0.24724 0.19250
 H1891 H 0.45045 0.25190 0.18062
 H1892 H 0.43181 0.22070 0.11864
 C1893 C 0.43481 0.77376 0.32222
 C1894 C 0.41676 0.76603 0.33547
 C1895 C 0.42150 0.75273 0.35445
 C1896 C 0.44429 0.74695 0.36006
 C1897 C 0.46252 0.75427 0.34663
 C1898 C 0.45759 0.76796 0.32777
 C1899 C 0.39332 0.76997 0.32840
 C1900 C 0.37387 0.77221 0.32140
 C1901 C 0.35156 0.77339 0.31190
 C1902 C 0.33300 0.77305 0.30265
 H1903 H 0.43124 0.78394 0.30740
 H1904 H 0.40756 0.74644 0.36464
 H1905 H 0.44752 0.73632 0.37459
 H1906 H 0.47131 0.77431 0.31738
 C1907 C 0.92275 0.25591 0.85943
 C1908 C 0.91772 0.26274 0.83770
 C1909 C 0.93522 0.26371 0.82227
 C1910 C 0.95780 0.25790 0.82849
 C1911 C 0.96340 0.25099 0.85042
 C1912 C 0.94535 0.25012 0.86579
 C1913 C 0.89438 0.26735 0.83068
 C1914 C 0.87500 0.27031 0.82376
 C1915 C 0.85268 0.27241 0.81439
 C1916 C 0.83404 0.27281 0.80530
 H1917 H 0.90913 0.25469 0.87139
 H1918 H 0.93141 0.26892 0.80533
 H1919 H 0.97083 0.25966 0.81606
 H1920 H 0.94808 0.24417 0.88259
 C1921 C 0.57628 1.00425 0.67962
 C1922 C 0.55421 0.99451 0.68148
 C1923 C 0.54608 0.98816 0.70237
 C1924 C 0.55992 0.99194 0.72131
 C1925 C 0.58191 1.00225 0.71950
 C1926 C 0.59000 1.00805 0.69839
 C1927 C 0.54040 0.99136 0.66163
 C1928 C 0.53043 0.98944 0.64404
 C1929 C 0.52066 0.98772 0.62253
 C1930 C 0.51403 0.98645 0.60357
 H1931 H 0.58288 1.00904 0.66359
 H1932 H 0.52904 0.98052 0.70402
 H1933 H 0.55322 0.98736 0.73734
 H1934 H 0.60706 1.01550 0.69634
 C1935 C 0.05053 0.51564 1.19270
 C1936 C 0.04879 0.49345 1.18433
 C1937 C 0.06023 0.47526 1.19534
 C1938 C 0.07398 0.47941 1.21418
 C1939 C 0.07662 0.50185 1.22208
 C1940 C 0.06430 0.51982 1.21143
 C1941 C 0.03713 0.48994 1.16337
 C1942 C 0.02841 0.48769 1.14526
 C1943 C 0.01952 0.48564 1.12346
 C1944 C 0.01326 0.48422 1.10441
 H1945 H 0.04184 0.52987 1.18433
 H1946 H 0.05918 0.45803 1.18892
 H1947 H 0.08345 0.46528 1.22187
 H1948 H 0.06575 0.53724 1.21731
 C1949 C -0.07661 -0.01047 1.17061
 C1950 C -0.05441 -0.01962 1.17318
 C1951 C -0.04516 -0.02388 1.19442
 C1952 C -0.05804 -0.01861 1.21299
 C1953 C -0.08011 -0.00876 1.21042
 C1954 C -0.08937 -0.00512 1.18901
 C1955 C -0.04122 -0.02328 1.15367
 C1956 C -0.03174 -0.02479 1.13625
 C1957 C -0.02253 -0.02462 1.11485
 C1958 C -0.01640 -0.02264 1.09602
 H1959 H -0.08401 -0.00715 1.15429
 H1960 H -0.02795 -0.03091 1.19663
 H1961 H -0.05052 -0.02165 1.22926
 H1962 H -0.10656 0.00183 1.18643
 C1963 C 0.45332 0.51108 0.68526
 C1964 C 0.45516 0.48872 0.67741
 C1965 C 0.44352 0.47063 0.68807
 C1966 C 0.42945 0.47501 0.70598
 C1967 C 0.42669 0.49756 0.71331
 C1968 C 0.43922 0.51548 0.70308
 C1969 C 0.46676 0.48503 0.65701
 C1970 C 0.47528 0.48315 0.63917
 C1971 C 0.48372 0.48257 0.61750
 C1972 C 0.48940 0.48376 0.59850
 H1973 H 0.46212 0.52527 0.67709
 H1974 H 0.44456 0.45329 0.68200
 H1975 H 0.41981 0.46096 0.71322
 H1976 H 0.43764 0.53301 0.70851
 C1977 C 0.42863 0.50555 -0.17111
 C1978 C 0.45181 0.49956 -0.17346
 C1979 C 0.45961 0.49304 -0.19413
 C1980 C 0.44434 0.49320 -0.21247
 C1981 C 0.42124 0.50005 -0.21027
 C1982 C 0.41348 0.50580 -0.18931
 C1983 C 0.46710 0.50050 -0.15437
 C1984 C 0.47809 0.50170 -0.13727
 C1985 C 0.48863 0.50302 -0.11607
 C1986 C 0.49533 0.50354 -0.09710
 H1987 H 0.42231 0.51041 -0.15520
 H1988 H 0.47750 0.48825 -0.19614
 H1989 H 0.45079 0.48888 -0.22847
 H1990 H 0.39571 0.51082 -0.18705
 C1991 C -0.06850 0.99958 0.32845
 C1992 C -0.04503 0.99537 0.32540
 C1993 C -0.03726 0.99040 0.30428
 C1994 C -0.05292 0.99043 0.28621
 C1995 C -0.07634 0.99566 0.28917
 C1996 C -0.08401 0.99973 0.31054
 C1997 C -0.02948 0.99685 0.34427
 C1998 C -0.01853 0.99856 0.36135
 C1999 C -0.00828 1.00056 0.38263
 C2000 C -0.00194 1.00168 0.40168
 H2001 H -0.07479 1.00325 0.34468
 H2002 H -0.01914 0.98701 0.30172
 H2003 H -0.04661 0.98737 0.26988
 H2004 H -0.10201 1.00352 0.31333
 C2005 C 0.06089 0.51369 0.33076
 C2006 C 0.05775 0.49099 0.33826
 C2007 C 0.06667 0.47296 0.32616
 C2008 C 0.07906 0.47767 0.30696
 C2009 C 0.08292 0.50047 0.29968
 C2010 C 0.07332 0.51840 0.31166
 C2011 C 0.04663 0.48663 0.35907
 C2012 C 0.03801 0.48433 0.37696
 C2013 C 0.02884 0.48351 0.39844
 C2014 C 0.02208 0.48482 0.41708
 H2015 H 0.05410 0.52783 0.33993
 H2016 H 0.06449 0.45531 0.33182
 H2017 H 0.08628 0.46348 0.29835
 H2018 H 0.07552 0.53615 0.30635
 C2019 C 0.55493 0.01469 -0.17271
 C2020 C 0.55321 -0.00773 -0.16404
 C2021 C 0.56386 -0.02574 -0.17488
 C2022 C 0.57675 -0.02120 -0.19383
 C2023 C 0.57937 0.00143 -0.20205
 C2024 C 0.56785 0.01924 -0.19153
 C2025 C 0.54216 -0.01158 -0.14311
 C2026 C 0.53368 -0.01339 -0.12510
 C2027 C 0.52475 -0.01368 -0.10351
 C2028 C 0.51819 -0.01209 -0.08482
 H2029 H 0.54682 0.02881 -0.16453
 H2030 H 0.56282 -0.04316 -0.16830
 H2031 H 0.58554 -0.03522 -0.20133
 H2032 H 0.56923 0.03682 -0.19760
 C2033 C 0.67705 0.60970 -0.01273
 C2034 C 0.67946 0.58644 -0.00696
 C2035 C 0.70112 0.57817 0.00030
 C2036 C 0.72042 0.59299 0.00103
 C2037 C 0.71824 0.61615 -0.00567
 C2038 C 0.69623 0.62442 -0.01208
 C2039 C 0.65956 0.57137 -0.00895
 C2040 C 0.64222 0.55974 -0.01078
 C2041 C 0.62120 0.54713 -0.01246
 C2042 C 0.60276 0.53721 -0.01283
 H2043 H 0.66040 0.61641 -0.01816
 H2044 H 0.70319 0.56021 0.00494
 H2045 H 0.73714 0.58612 0.00586
 H2046 H 0.69394 0.64226 -0.01705
 C2047 C 0.17731 1.10951 0.48700
 C2048 C 0.18031 1.08636 0.49291
 C2049 C 0.20217 1.07867 0.50026
 C2050 C 0.22108 1.09398 0.50092
 C2051 C 0.21828 1.11704 0.49406
 C2052 C 0.19609 1.12472 0.48757
 C2053 C 0.16079 1.07082 0.49096
 C2054 C 0.14367 1.05890 0.48911
 C2055 C 0.12277 1.04612 0.48736
 C2056 C 0.10433 1.03619 0.48691
 H2057 H 0.16049 1.11575 0.48150
 H2058 H 0.20469 1.06080 0.50500
 H2059 H 0.23802 1.08760 0.50581
 H2060 H 0.19336 1.14246 0.48246
 C2061 C 0.17726 -0.09004 0.98657
 C2062 C 0.17025 -0.08721 1.00826
 C2063 C 0.18285 -0.09779 1.02564
 C2064 C 0.20202 -0.11154 1.02125
 C2065 C 0.20867 -0.11502 0.99943
 C2066 C 0.19627 -0.10378 0.98219
 C2067 C 0.14950 -0.07431 1.01220
 C2068 C 0.13171 -0.06381 1.01428
 C2069 C 0.11048 -0.05185 1.01537
 C2070 C 0.09213 -0.04198 1.01512
 H2071 H 0.16776 -0.08194 0.97296
 H2072 H 0.17760 -0.09582 1.04251
 H2073 H 0.21101 -0.12010 1.03485
 H2074 H 0.20115 -0.10580 0.96521
 C2075 C 0.68324 0.41411 0.48907
 C2076 C 0.67519 0.41605 0.51053
 C2077 C 0.68664 0.40427 0.52792
 C2078 C 0.70556 0.39014 0.52374
 C2079 C 0.71316 0.38746 0.50209
 C2080 C 0.70203 0.39998 0.48488
 C2081 C 0.65440 0.42902 0.51419
 C2082 C 0.63658 0.43950 0.51615
 C2083 C 0.61528 0.45137 0.51719
 C2084 C 0.59685 0.46113 0.51693
 H2085 H 0.67462 0.42311 0.47545
 H2086 H 0.68056 0.40551 0.54461
 H2087 H 0.71352 0.38054 0.53729
 H2088 H 0.70762 0.39850 0.46805
 C2089 C -0.16397 0.38433 0.49532
 C2090 C -0.16538 0.40757 0.50052
 C2091 C -0.18674 0.41667 0.50647
 C2092 C -0.20670 0.40271 0.50646
 C2093 C -0.20547 0.37961 0.50030
 C2094 C -0.18379 0.37048 0.49523
 C2095 C -0.14488 0.42188 0.49906
 C2096 C -0.12731 0.43318 0.49760
 C2097 C -0.10640 0.44599 0.49622
 C2098 C -0.08849 0.45687 0.49595
 H2099 H -0.14759 0.37700 0.49087
 H2100 H -0.18806 0.43462 0.51062
 H2101 H -0.22319 0.41020 0.51028
 H2102 H -0.18226 0.35265 0.49071
 C2103 C 0.32091 -0.09701 0.01456
 C2104 C 0.32883 -0.08588 -0.00462
 C2105 C 0.31614 -0.08796 -0.02437
 C2106 C 0.29626 -0.10173 -0.02522
 C2107 C 0.28870 -0.11376 -0.00631
 C2108 C 0.30085 -0.11080 0.01376
 C2109 C 0.35041 -0.07313 -0.00457
 C2110 C 0.36854 -0.06264 -0.00513
 C2111 C 0.38983 -0.05039 -0.00582
 C2112 C 0.40794 -0.03982 -0.00573
 H2113 H 0.33056 -0.09551 0.02999
 H2114 H 0.32193 -0.07937 -0.03929
 H2115 H 0.28704 -0.10338 -0.04084
 H2116 H 0.29548 -0.11995 0.02852
 C2117 C 0.31924 1.08642 0.52592
 C2118 C 0.33335 1.07805 0.50950
 C2119 C 0.32940 1.08512 0.48758
 C2120 C 0.31194 1.10089 0.48216
 C2121 C 0.29813 1.11018 0.49862
 C2122 C 0.30170 1.10220 0.52052
 C2123 C 0.35247 1.06295 0.51497
 C2124 C 0.36907 1.05079 0.51848
 C2125 C 0.38921 1.03716 0.52107
 C2126 C 0.40691 1.02621 0.52155
 H2127 H 0.32201 1.08101 0.54296
 H2128 H 0.34003 1.07863 0.47464
 H2129 H 0.30937 1.10575 0.46499
 H2130 H 0.29141 1.10835 0.53369
 C2131 C -0.15952 0.60100 1.00267
 C2132 C -0.16497 0.58027 1.01353
 C2133 C -0.18803 0.57541 1.01865
 C2134 C -0.20554 0.59107 1.01267
 C2135 C -0.20025 0.61171 1.00129
 C2136 C -0.17693 0.61658 0.99665
 C2137 C -0.14678 0.56390 1.01844
 C2138 C -0.13078 0.55085 1.02140
 C2139 C -0.11116 0.53641 1.02331
 C2140 C -0.09376 0.52501 1.02332
 H2141 H -0.14175 0.60505 0.99868
 H2142 H -0.19253 0.55941 1.02700
 H2143 H -0.22321 0.58673 1.01655
 H2144 H -0.17202 0.63254 0.98851
 C2145 C -0.03271 0.69649 0.56016
 C2146 C -0.01238 0.69048 0.54975
 C2147 C 0.00815 0.70258 0.55402
 C2148 C 0.00877 0.71937 0.57009
 C2149 C -0.01108 0.72390 0.58226
 C2150 C -0.03210 0.71324 0.57626
 C2151 C -0.01153 0.66904 0.53875
 C2152 C -0.01062 0.64995 0.53174
 C2153 C -0.00953 0.62688 0.52569
 C2154 C -0.00873 0.60681 0.52166
 H2155 H -0.04864 0.68704 0.55707
 H2156 H 0.02400 0.69795 0.54608
 H2157 H 0.02509 0.72786 0.57383
 H2158 H -0.04769 0.71641 0.58505
 C2159 C 0.51024 0.20144 0.06051
 C2160 C 0.48941 0.19045 0.05498
 C2161 C 0.46885 0.19719 0.06455
 C2162 C 0.46938 0.21365 0.08092
 C2163 C 0.49053 0.22328 0.08810
 C2164 C 0.51079 0.21794 0.07687
 C2165 C 0.48977 0.16947 0.04316
 C2166 C 0.49013 0.15073 0.03533
 C2167 C 0.49052 0.12796 0.02824
 C2168 C 0.49075 0.10809 0.02338
 H2169 H 0.52627 0.19627 0.05320
 H2170 H 0.45266 0.18862 0.06044
 H2171 H 0.45343 0.21751 0.08884
 H2172 H 0.52726 0.22568 0.08138
 C2173 C 0.01912 0.18161 0.93049
 C2174 C -0.00338 0.17492 0.93575
 C2175 C -0.02238 0.18553 0.92517
 C2176 C -0.01877 0.20224 0.90868
 C2177 C 0.00383 0.20799 0.90251
 C2178 C 0.02273 0.19805 0.91394
 C2179 C -0.00641 0.15486 0.94942
 C2180 C -0.00733 0.13691 0.95946
 C2181 C -0.00681 0.11500 0.96951
 C2182 C -0.00540 0.09574 0.97683
 H2183 H 0.03391 0.17334 0.93847
 H2184 H -0.03986 0.18019 0.92897
 H2185 H -0.03353 0.20969 0.89998
 H2186 H 0.04030 0.20255 0.90964
 C2187 C 0.48068 0.68521 0.42098
 C2188 C 0.50016 0.67506 0.43109
 C2189 C 0.52235 0.68243 0.42543
 C2190 C 0.52513 0.69920 0.40900
 C2191 C 0.50571 0.70873 0.39803
 C2192 C 0.48345 0.70216 0.40458
 C2193 C 0.49783 0.65509 0.44503
 C2194 C 0.49711 0.63736 0.45547
 C2195 C 0.49756 0.61578 0.46620
 C2196 C 0.49881 0.59682 0.47428
 H2197 H 0.46343 0.67939 0.42513
 H2198 H 0.53752 0.67457 0.43310
 H2199 H 0.54247 0.70436 0.40452
 H2200 H 0.46828 0.70925 0.39631
 C2201 C 0.50605 0.80227 0.42628
 C2202 C 0.51317 0.82383 0.41829
 C2203 C 0.52184 0.82625 0.39705
 C2204 C 0.52303 0.80718 0.38362
 C2205 C 0.51551 0.78550 0.39133
 C2206 C 0.50722 0.78314 0.41285
 C2207 C 0.51072 0.84375 0.43144
 C2208 C 0.50844 0.86078 0.44196
 C2209 C 0.50561 0.88101 0.45375
 C2210 C 0.50321 0.89850 0.46354
 H2211 H 0.49934 0.80030 0.44274
 H2212 H 0.52727 0.84294 0.39074
 H2213 H 0.52917 0.80953 0.36699
 H2214 H 0.50166 0.76656 0.41929
 C2215 C 0.00738 0.30303 0.92693
 C2216 C 0.01424 0.32422 0.91787
 C2217 C 0.02239 0.32565 0.89638
 C2218 C 0.02328 0.30593 0.88376
 C2219 C 0.01594 0.28464 0.89256
 C2220 C 0.00824 0.28329 0.91433
 C2221 C 0.01197 0.34467 0.93028
 C2222 C 0.00967 0.36193 0.94047
 C2223 C 0.00666 0.38215 0.95219
 C2224 C 0.00399 0.39948 0.96217
 H2225 H 0.00109 0.30182 0.94360
 H2226 H 0.02762 0.34205 0.88924
 H2227 H 0.02902 0.30746 0.86692
 H2228 H 0.00288 0.26701 0.92161
 C2229 C 0.46931 0.31506 0.07283
 C2230 C 0.47148 0.33630 0.08309
 C2231 C 0.47364 0.33735 0.10603
 C2232 C 0.47538 0.31715 0.11862
 C2233 C 0.47498 0.29578 0.10830
 C2234 C 0.47090 0.29478 0.08545
 C2235 C 0.47532 0.35674 0.07022
 C2236 C 0.48019 0.37399 0.06018
 C2237 C 0.48699 0.39430 0.04929
 C2238 C 0.49293 0.41194 0.04049
 H2239 H 0.46786 0.31416 0.05504
 H2240 H 0.47544 0.35377 0.11406
 H2241 H 0.47831 0.31822 0.13626
 H2242 H 0.47077 0.27846 0.07717
 C2243 C -0.02875 0.83766 0.60475
 C2244 C -0.03148 0.83770 0.58181
 C2245 C -0.03375 0.81698 0.57064
 C2246 C -0.03157 0.79615 0.58229
 C2247 C -0.02681 0.79609 0.60506
 C2248 C -0.02643 0.81691 0.61637
 C2249 C -0.02769 0.85866 0.56973
 C2250 C -0.02264 0.87616 0.56020
 C2251 C -0.01540 0.89653 0.54967
 C2252 C -0.00894 0.91403 0.54097
 H2253 H -0.02684 0.85366 0.61346
 H2254 H -0.03562 0.81693 0.55284
 H2255 H -0.03172 0.78027 0.57327
 H2256 H -0.02298 0.81714 0.63398
 C2257 C 0.23624 0.29546 0.04580
 C2258 C 0.24203 0.30324 0.06697
 C2259 C 0.25122 0.32535 0.06948
 C2260 C 0.25507 0.33947 0.05109
 C2261 C 0.24986 0.33172 0.02972
 C2262 C 0.24006 0.30970 0.02723
 C2263 C 0.23888 0.28906 0.08646
 C2264 C 0.23695 0.27889 0.10388
 C2265 C 0.23519 0.26906 0.12530
 C2266 C 0.23383 0.26256 0.14425
 H2267 H 0.22902 0.27839 0.04365
 H2268 H 0.25557 0.33168 0.08574
 H2269 H 0.26212 0.35653 0.05362
 H2270 H 0.23595 0.30329 0.01097
 C2271 C 0.75243 0.82747 0.57006
 C2272 C 0.74317 0.80533 0.56799
 C2273 C 0.73731 0.79713 0.54699
 C2274 C 0.74110 0.81098 0.52815
 C2275 C 0.75096 0.83305 0.53019
 C2276 C 0.75625 0.84121 0.55139
 C2277 C 0.74007 0.79152 0.58775
 C2278 C 0.73819 0.78160 0.60530
 C2279 C 0.73653 0.77194 0.62681
 C2280 C 0.73532 0.76546 0.64578
 H2281 H 0.75684 0.83412 0.58618
 H2282 H 0.73005 0.78004 0.54517
 H2283 H 0.73691 0.80425 0.51203
 H2284 H 0.76333 0.85831 0.55359
 C2285 C 0.24538 0.67594 0.57775
 C2286 C 0.23596 0.69784 0.57454
 C2287 C 0.23132 0.70620 0.55308
 C2288 C 0.23647 0.69273 0.53492
 C2289 C 0.24656 0.67095 0.53810
 C2290 C 0.25060 0.66260 0.55974
 C2291 C 0.23226 0.71156 0.59363
 C2292 C 0.23063 0.72140 0.61083
 C2293 C 0.23052 0.73083 0.63210
 C2294 C 0.23206 0.73693 0.65095
 H2295 H 0.24896 0.66923 0.59426
 H2296 H 0.22406 0.72316 0.55039
 H2297 H 0.23312 0.69957 0.51846
 H2298 H 0.25772 0.64565 0.56282
 C2299 C 0.71872 0.19045 0.06503
 C2300 C 0.73702 0.20145 0.07619
 C2301 C 0.75949 0.19999 0.06825
 C2302 C 0.76383 0.18683 0.04982
 C2303 C 0.74574 0.17492 0.03907
 C2304 C 0.72305 0.17734 0.04648
 C2305 C 0.73350 0.21199 0.09713
 C2306 C 0.73188 0.21966 0.11534
 C2307 C 0.73164 0.22723 0.13730
 C2308 C 0.73295 0.23235 0.15645
 H2309 H 0.70130 0.19124 0.07116
 H2310 H 0.77381 0.20831 0.07680
 H2311 H 0.78146 0.18546 0.04433
 H2312 H 0.70886 0.16811 0.03874
 C2313 C 0.74333 0.21139 0.94789
 C2314 C 0.74971 0.20422 0.92697
 C2315 C 0.75486 0.18111 0.92373
 C2316 C 0.75445 0.16536 0.94132
 C2317 C 0.74887 0.17245 0.96254
 C2318 C 0.74284 0.19551 0.96564
 C2319 C 0.75127 0.22004 0.90845
 C2320 C 0.75288 0.23134 0.89165
 C2321 C 0.75448 0.24205 0.87061
 C2322 C 0.75498 0.24870 0.85167
 H2323 H 0.73918 0.22922 0.95057
 H2324 H 0.75958 0.17529 0.90759
 H2325 H 0.75888 0.14764 0.93841
 H2326 H 0.73869 0.20143 0.98187
 C2327 C 0.25518 0.68084 0.42054
 C2328 C 0.24970 0.70392 0.42350
 C2329 C 0.24386 0.71138 0.44448
 C2330 C 0.24424 0.69586 0.46254
 C2331 C 0.25066 0.67286 0.45970
 C2332 C 0.25565 0.66546 0.43843
 C2333 C 0.25050 0.71938 0.40465
 C2334 C 0.25161 0.73036 0.38760
 C2335 C 0.25284 0.74073 0.36638
 C2336 C 0.25326 0.74719 0.34737
 H2337 H 0.25949 0.67477 0.40438
 H2338 H 0.23945 0.72919 0.44696
 H2339 H 0.24044 0.70200 0.47875
 H2340 H 0.26028 0.64776 0.43569
 C2341 C 0.76629 0.80550 0.42338
 C2342 C 0.74386 0.80257 0.41466
 C2343 C 0.72523 0.81269 0.42514
 C2344 C 0.72914 0.82619 0.44380
 C2345 C 0.75175 0.82998 0.45207
 C2346 C 0.77021 0.81903 0.44190
 C2347 C 0.74056 0.79075 0.39404
 C2348 C 0.73917 0.78168 0.37628
 C2349 C 0.73925 0.77217 0.35493
 C2350 C 0.74100 0.76529 0.33636
 H2351 H 0.78088 0.79781 0.41549
 H2352 H 0.70778 0.81070 0.41852
 H2353 H 0.71460 0.83445 0.45107
 H2354 H 0.78780 0.82123 0.44804
 C2355 C 0.26568 0.30538 0.92303
 C2356 C 0.24330 0.30270 0.91412
 C2357 C 0.22465 0.31286 0.92452
 C2358 C 0.22850 0.32618 0.94330
 C2359 C 0.25106 0.32974 0.95177
 C2360 C 0.26954 0.31873 0.94168
 C2361 C 0.24010 0.29116 0.89336
 C2362 C 0.23878 0.28237 0.87548
 C2363 C 0.23888 0.27322 0.85399
 C2364 C 0.24056 0.26667 0.83530
 H2365 H 0.28029 0.29766 0.91520
 H2366 H 0.20725 0.31107 0.91774
 H2367 H 0.21395 0.33449 0.95052
 H2368 H 0.28709 0.32076 0.94799
 C2369 C 0.82739 0.45212 0.74952
 C2370 C 0.83616 0.43071 0.75663
 C2371 C 0.85980 0.42858 0.76161
 C2372 C 0.87440 0.44778 0.76045
 C2373 C 0.86563 0.46953 0.75428
 C2374 C 0.84209 0.47145 0.74826
 C2375 C 0.82123 0.41085 0.75942
 C2376 C 0.80971 0.39358 0.76196
 C2377 C 0.79718 0.37266 0.76446
 C2378 C 0.78719 0.35433 0.76545
 H2379 H 0.80915 0.45399 0.74551
 H2380 H 0.86688 0.41214 0.76693
 H2381 H 0.89251 0.44575 0.76497
 H2382 H 0.83488 0.48803 0.74366
 C2383 C 0.32636 0.95127 0.24806
 C2384 C 0.33495 0.92977 0.25510
 C2385 C 0.35849 0.92752 0.26048
 C2386 C 0.37316 0.94667 0.25973
 C2387 C 0.36457 0.96851 0.25359
 C2388 C 0.34114 0.97056 0.24722
 C2389 C 0.31994 0.90990 0.25735
 C2390 C 0.30841 0.89259 0.25944
 C2391 C 0.29592 0.87160 0.26145
 C2392 C 0.28607 0.85319 0.26207
 H2393 H 0.30819 0.95323 0.24374
 H2394 H 0.36543 0.91101 0.26573
 H2395 H 0.39120 0.94453 0.26448
 H2396 H 0.33406 0.98720 0.24262
 C2397 C 0.15139 0.93339 0.72375
 C2398 C 0.16142 0.92031 0.74109
 C2399 C 0.15852 0.92712 0.76283
 C2400 C 0.14533 0.94645 0.76730
 C2401 C 0.13469 0.95939 0.75008
 C2402 C 0.13818 0.95286 0.72822
 C2403 C 0.17398 0.89942 0.73700
 C2404 C 0.18427 0.88160 0.73477
 C2405 C 0.19609 0.86037 0.73349
 C2406 C 0.20594 0.84207 0.73362
 H2407 H 0.15342 0.92831 0.70684
 H2408 H 0.16621 0.91727 0.77642
 H2409 H 0.14334 0.95120 0.78430
 H2410 H 0.13009 0.96226 0.71462
 C2411 C 0.65674 0.43085 0.22696
 C2412 C 0.66437 0.41674 0.24461
 C2413 C 0.65905 0.42261 0.26614
 C2414 C 0.64569 0.44197 0.27001
 C2415 C 0.63717 0.45588 0.25238
 C2416 C 0.64336 0.45036 0.23083
 C2417 C 0.67696 0.39579 0.24097
 C2418 C 0.68712 0.37786 0.23906
 C2419 C 0.69866 0.35647 0.23811
 C2420 C 0.70819 0.33801 0.23848
 H2421 H 0.66079 0.42659 0.21020
 H2422 H 0.66498 0.41200 0.27999
 H2423 H 0.64197 0.44596 0.28690
 H2424 H 0.63741 0.46062 0.21688
 C2425 C 0.66806 0.56235 0.27546
 C2426 C 0.66995 0.57527 0.25590
 C2427 C 0.65849 0.56775 0.23667
 C2428 C 0.64447 0.54791 0.23729
 C2429 C 0.64161 0.53560 0.25721
 C2430 C 0.65405 0.54270 0.27612
 C2431 C 0.68260 0.59681 0.25613
 C2432 C 0.69287 0.61498 0.25688
 C2433 C 0.70474 0.63638 0.25769
 C2434 C 0.71486 0.65466 0.25760
 H2435 H 0.67688 0.56786 0.29041
 H2436 H 0.65982 0.57758 0.22140
 H2437 H 0.63496 0.54290 0.22255
 H2438 H 0.65240 0.53337 0.29164
 C2439 C 0.16598 0.06571 0.77337
 C2440 C 0.16776 0.07854 0.75375
 C2441 C 0.15600 0.07105 0.73466
 C2442 C 0.14182 0.05133 0.73549
 C2443 C 0.13910 0.03910 0.75547
 C2444 C 0.15181 0.04617 0.77424
 C2445 C 0.18066 0.09995 0.75379
 C2446 C 0.19115 0.11802 0.75443
 C2447 C 0.20323 0.13932 0.75518
 C2448 C 0.21345 0.15755 0.75511
 H2449 H 0.17503 0.07118 0.78821
 H2450 H 0.15725 0.08081 0.71934
 H2451 H 0.13212 0.04633 0.72086
 H2452 H 0.15030 0.03689 0.78980
 C2453 C 0.33147 0.06919 0.22261
 C2454 C 0.32281 0.08283 0.23923
 C2455 C 0.32971 0.07846 0.26115
 C2456 C 0.34569 0.06114 0.26637
 C2457 C 0.35535 0.04790 0.24971
 C2458 C 0.34744 0.05178 0.22782
 C2459 C 0.30771 0.10197 0.23399
 C2460 C 0.29562 0.11861 0.23062
 C2461 C 0.28214 0.13879 0.22812
 C2462 C 0.27137 0.15654 0.22758
 H2463 H 0.32619 0.07227 0.20557
 H2464 H 0.32299 0.08870 0.27424
 H2465 H 0.35047 0.05828 0.28353
 H2466 H 0.35385 0.04189 0.21451
 C2467 C 0.82886 0.57796 0.76100
 C2468 C 0.82423 0.58423 0.73896
 C2469 C 0.83500 0.57236 0.72222
 C2470 C 0.85076 0.55479 0.72752
 C2471 C 0.85621 0.54894 0.74964
 C2472 C 0.84463 0.56047 0.76631
 C2473 C 0.80950 0.60369 0.73384
 C2474 C 0.79769 0.62055 0.73060
 C2475 C 0.78451 0.64095 0.72828
 C2476 C 0.77395 0.65882 0.72794
 H2477 H 0.82061 0.58691 0.77415
 H2478 H 0.83164 0.57703 0.70508
 H2479 H 0.85922 0.54646 0.71427
 H2480 H 0.84790 0.55614 0.78352
 C2481 C 0.93447 0.76210 0.16211
 C2482 C 0.93619 0.74738 0.18050
 C2483 C 0.95539 0.73313 0.18348
 C2484 C 0.97268 0.73330 0.16777
 C2485 C 0.97088 0.74770 0.14887
 C2486 C 0.95160 0.76224 0.14637
 C2487 C 0.91694 0.74547 0.19481
 C2488 C 0.89953 0.74410 0.20516
 C2489 C 0.87798 0.74282 0.21525
 C2490 C 0.85878 0.74203 0.22231
 H2491 H 0.91943 0.77292 0.15951
 H2492 H 0.95669 0.72149 0.19761
 H2493 H 0.98715 0.72190 0.17040
 H2494 H 0.94910 0.77308 0.13184
 C2495 C 0.43311 0.26317 0.65747
 C2496 C 0.43397 0.24924 0.67647
 C2497 C 0.45318 0.23536 0.68101
 C2498 C 0.47146 0.23523 0.66634
 C2499 C 0.47066 0.24901 0.64700
 C2500 C 0.45126 0.26304 0.64280
 C2501 C 0.41418 0.24811 0.69018
 C2502 C 0.39661 0.24734 0.70032
 C2503 C 0.37510 0.24662 0.71054
 C2504 C 0.35604 0.24610 0.71796
 H2505 H 0.41810 0.27371 0.65369
 H2506 H 0.45385 0.22436 0.69563
 H2507 H 0.48604 0.22425 0.67019
 H2508 H 0.44964 0.27337 0.62784
 C2509 C 0.42666 0.77019 0.83073
 C2510 C 0.42037 0.74809 0.82415
 C2511 C 0.43188 0.72889 0.83315
 C2512 C 0.44941 0.73184 0.84912
 C2513 C 0.45522 0.75397 0.85632
 C2514 C 0.44399 0.77314 0.84671
 C2515 C 0.40057 0.74547 0.80985
 C2516 C 0.38307 0.74466 0.79888
 C2517 C 0.36177 0.74510 0.78736
 C2518 C 0.34301 0.74631 0.77859
 H2519 H 0.41775 0.78512 0.82391
 H2520 H 0.42690 0.71170 0.82828
 H2521 H 0.45779 0.71685 0.85638
 H2522 H 0.44851 0.79040 0.85168
 C2523 C 0.91947 0.26339 0.34505
 C2524 C 0.91974 0.24452 0.33132
 C2525 C 0.93835 0.22936 0.33237
 C2526 C 0.95671 0.23307 0.34735
 C2527 C 0.95657 0.25196 0.36168
 C2528 C 0.93760 0.26714 0.36000
 C2529 C 0.90033 0.24094 0.31670
 C2530 C 0.88302 0.23949 0.30549
 C2531 C 0.86184 0.23941 0.29373
 C2532 C 0.84315 0.24041 0.28476
 H2533 H 0.90517 0.27534 0.34419
 H2534 H 0.93860 0.21459 0.32180
 H2535 H 0.97038 0.22056 0.34786
 H2536 H 0.93677 0.28251 0.36965
 C2537 C 0.04799 0.25999 0.32270
 C2538 C 0.06998 0.26760 0.32948
 C2539 C 0.07349 0.27639 0.35056
 C2540 C 0.05522 0.27697 0.36512
 C2541 C 0.03321 0.26871 0.35872
 C2542 C 0.02964 0.26057 0.33725
 C2543 C 0.08940 0.26494 0.31557
 C2544 C 0.10623 0.26227 0.30471
 C2545 C 0.12642 0.25886 0.29282
 C2546 C 0.14400 0.25588 0.28316
 H2547 H 0.04516 0.25313 0.30638
 H2548 H 0.09052 0.28215 0.35598
 H2549 H 0.05859 0.28295 0.38166
 H2550 H 0.01278 0.25441 0.33181
 C2551 C 0.56178 0.78320 0.83580
 C2552 C 0.57199 0.76215 0.83128
 C2553 C 0.56293 0.74169 0.84005
 C2554 C 0.54383 0.74223 0.85361
 C2555 C 0.53363 0.76330 0.85852
 C2556 C 0.54265 0.78379 0.84938
 C2557 C 0.59235 0.76148 0.81839
 C2558 C 0.60969 0.76040 0.80800
 C2559 C 0.63015 0.75857 0.79623
 C2560 C 0.64774 0.75661 0.78636
 H2561 H 0.56876 0.79911 0.82905
 H2562 H 0.57088 0.72535 0.83673
 H2563 H 0.53752 0.72624 0.86077
 H2564 H 0.53493 0.80021 0.85276
 C2565 C 0.58649 0.21883 0.65222
 C2566 C 0.58280 0.22294 0.67449
 C2567 C 0.56051 0.22731 0.68178
 C2568 C 0.54217 0.22922 0.66651
 C2569 C 0.54622 0.22698 0.64397
 C2570 C 0.56825 0.22092 0.63697
 C2571 C 0.60241 0.22708 0.68861
 C2572 C 0.61946 0.23220 0.69905
 C2573 C 0.63996 0.23923 0.70973
 C2574 C 0.65799 0.24531 0.71792
 H2575 H 0.60377 0.21571 0.64644
 H2576 H 0.55763 0.23088 0.69895
 H2577 H 0.52541 0.23443 0.67208
 H2578 H 0.57160 0.21927 0.61958
 C2579 C 0.08683 0.71894 0.14477
 C2580 C 0.08427 0.72115 0.16747
 C2581 C 0.06229 0.72380 0.17621
 C2582 C 0.04303 0.72584 0.16206
 C2583 C 0.04580 0.72545 0.13918
 C2584 C 0.06764 0.72110 0.13063
 C2585 C 0.10440 0.72499 0.18098
 C2586 C 0.12160 0.72991 0.19127
 C2587 C 0.14200 0.73685 0.20215
 C2588 C 0.15980 0.74293 0.21077
 H2589 H 0.10384 0.71712 0.13789
 H2590 H 0.06027 0.72587 0.19376
 H2591 H 0.02644 0.72966 0.16890
 H2592 H 0.07002 0.72077 0.11299
   
