data_POSCAR
  _audit_creation_date              2014-09-24
  _audit_creation_method            'ToBaCCo'
  _symmetry_space_group_name_H-M    'P1'
  _symmetry_Int_Tables_number       1
  _symmetry_cell_setting            triclinic
  loop_
  _symmetry_equiv_pos_as_xyz
 x,y,z
_cell_length_a 42.1828
_cell_length_b 51.1596
_cell_length_c 48.8578
_cell_angle_alpha 90.043300
_cell_angle_beta 89.687800
_cell_angle_gamma 90.104500
loop_
  _atom_site_label
  _atom_site_type_symbol
  _atom_site_fract_x
  _atom_site_fract_y
  _atom_site_fract_z
O1 O 0.36033 0.38398 0.02779
 O2 O 0.39134 0.34011 -0.02577
 O3 O 0.35750 0.38281 -0.02633
 O4 O 0.39390 0.34114 0.02629
 O5 O 0.34936 0.31849 0.02965
 O6 O 0.31359 0.35954 -0.02366
 O7 O 0.34722 0.31676 -0.02360
 O8 O 0.31579 0.36124 0.02917
 Cu9 Cu 0.38001 0.36469 0.00026
 Cu10 Cu 0.32706 0.33671 0.00311
 C11 C 0.33279 0.38004 0.03764
 C12 C 0.37482 0.32067 -0.03328
 C13 C 0.32934 0.37821 -0.03422
 C14 C 0.37794 0.32249 0.03656
 O15 O 0.60479 0.65707 -0.02680
 O16 O 0.63943 0.61462 0.02608
 O17 O 0.60524 0.65678 0.02666
 O18 O 0.63885 0.61491 -0.02768
 O19 O 0.68238 0.63879 -0.02764
 O20 O 0.64878 0.68077 0.02617
 O21 O 0.68324 0.63835 0.02511
 O22 O 0.64821 0.68123 -0.02682
 Cu23 Cu 0.61772 0.63339 -0.00038
 Cu24 Cu 0.67000 0.66219 -0.00081
 C25 C 0.62056 0.67649 -0.03573
 C26 C 0.66734 0.61923 0.03445
 C27 C 0.62123 0.67604 0.03556
 C28 C 0.66647 0.61969 -0.03700
 O29 O 0.64413 0.38274 0.97144
 O30 O 0.61139 0.34123 1.02623
 O31 O 0.64629 0.38291 1.02515
 O32 O 0.60959 0.34082 0.97293
 O33 O 0.65269 0.31643 0.97189
 O34 O 0.68951 0.35881 1.02352
 O35 O 0.65441 0.31675 1.02483
 O36 O 0.68758 0.35871 0.97060
 Cu37 Cu 0.62356 0.36444 0.99905
 Cu38 Cu 0.67540 0.33526 0.99757
 C39 C 0.67143 0.37779 0.96169
 C40 C 0.62721 0.32181 1.03478
 C41 C 0.67421 0.37804 1.03339
 C42 C 0.62483 0.32131 0.96364
 O43 O 0.35709 0.61639 0.97431
 O44 O 0.39130 0.65986 1.02655
 O45 O 0.35767 0.61706 1.02858
 O46 O 0.39088 0.65930 0.97450
 O47 O 0.34640 0.68211 0.97406
 O48 O 0.31346 0.63991 1.02826
 O49 O 0.34688 0.68274 1.02740
 O50 O 0.31267 0.63917 0.97531
 Cu51 Cu 0.37847 0.63546 1.00092
 Cu52 Cu 0.32542 0.66325 1.00123
 C53 C 0.32909 0.62042 0.96585
 C54 C 0.37507 0.67894 1.03546
 C55 C 0.32996 0.62137 1.03794
 C56 C 0.37451 0.67822 0.96557
 O57 O -0.02854 0.39200 0.35448
 O58 O 0.02668 0.35172 0.39435
 O59 O 0.03288 0.38920 0.35777
 O60 O -0.03454 0.35423 0.39014
 O61 O -0.03040 0.32367 0.35853
 O62 O 0.03112 0.36150 0.32316
 O63 O 0.03092 0.32427 0.35957
 O64 O -0.03026 0.36125 0.32269
 Cu65 Cu -0.00089 0.37477 0.37755
 Cu66 Cu 0.00049 0.33975 0.33765
 C67 C -0.03914 0.38323 0.33203
 C68 C 0.03831 0.33124 0.38365
 C69 C 0.04272 0.38170 0.33439
 C70 C -0.04336 0.33240 0.38020
 O71 O 0.03384 0.64626 0.60824
 O72 O -0.03123 0.61050 0.64278
 O73 O -0.02832 0.64836 0.60722
 O74 O 0.03078 0.60903 0.64476
 O75 O 0.02923 0.63766 0.67858
 O76 O -0.02653 0.67806 0.63986
 O77 O -0.03165 0.64032 0.67542
 O78 O 0.03429 0.67467 0.64223
 Cu79 Cu 0.00130 0.62559 0.62237
 Cu80 Cu 0.00134 0.66057 0.66232
 C81 C 0.04509 0.66669 0.61941
 C82 C -0.04251 0.61938 0.66509
 C83 C -0.03724 0.67023 0.61701
 C84 C 0.03965 0.61654 0.66833
 O85 O 1.03151 0.60873 0.35917
 O86 O 0.96713 0.64780 0.39040
 O87 O 0.96801 0.61040 0.35637
 O88 O 1.02598 0.64858 0.39586
 O89 O 1.03842 0.67077 0.35869
 O90 O 0.97153 0.63966 0.32335
 O91 O 0.97626 0.67823 0.35918
 O92 O 1.03138 0.63458 0.32301
 Cu93 Cu 0.99873 0.62541 0.37847
 Cu94 Cu 1.00453 0.65903 0.33788
 C95 C 1.04135 0.61439 0.33522
 C96 C 0.96184 0.67030 0.38051
 C97 C 0.95911 0.61908 0.33330
 C98 C 1.04239 0.66610 0.38398
 O99 O 0.97089 0.35585 0.60297
 O100 O 1.03022 0.39200 0.64337
 O101 O 1.03209 0.35471 0.60788
 O102 O 0.96884 0.39472 0.63878
 O103 O 0.96307 0.36572 0.67197
 O104 O 1.02588 0.32564 0.64075
 O105 O 1.02414 0.36359 0.67703
 O106 O 0.96462 0.32783 0.63701
 Cu107 Cu 1.00080 0.37726 0.61987
 Cu108 Cu 0.99402 0.34281 0.66005
 C109 C 0.95793 0.33557 0.61309
 C110 C 1.03722 0.38391 0.66715
 C111 C 1.03970 0.33315 0.61890
 C112 C 0.95552 0.38714 0.66075
 O113 O 0.38538 0.02694 0.33930
 O114 O 0.34803 -0.02456 0.38085
 O115 O 0.38578 -0.02405 0.33897
 O116 O 0.34753 0.02647 0.38126
 O117 O 0.30614 0.02609 0.35382
 O118 O 0.34469 -0.02406 0.31118
 O119 O 0.30662 -0.02464 0.35342
 O120 O 0.34430 0.02666 0.31152
 Cu121 Cu 0.37081 0.00124 0.36288
 Cu122 Cu 0.32128 0.00103 0.32971
 C123 C 0.37129 0.03556 0.31826
 C124 C 0.32102 -0.03347 0.37421
 C125 C 0.37178 -0.03270 0.31786
 C126 C 0.32029 0.03490 0.37479
 O127 O 0.64893 -0.02542 0.61857
 O128 O 0.61272 0.02505 0.66240
 O129 O 0.64889 0.02628 0.61908
 O130 O 0.61299 -0.02496 0.66221
 O131 O 0.65596 -0.02532 0.68794
 O132 O 0.69201 0.02559 0.64450
 O133 O 0.65584 0.02573 0.68794
 O134 O 0.69176 -0.02502 0.64433
 Cu135 Cu 0.62675 0.00022 0.63767
 Cu136 Cu 0.67818 0.00024 0.66877
 C137 C 0.67643 -0.03397 0.62408
 C138 C 0.62803 0.03372 0.68275
 C139 C 0.67648 0.03477 0.62453
 C140 C 0.62825 -0.03353 0.68261
 O141 O 0.39080 0.97419 0.65788
 O142 O 0.35388 1.02494 0.61511
 O143 O 0.39006 1.02524 0.65779
 O144 O 0.35507 0.97358 0.61495
 O145 O 0.31242 0.97338 0.64140
 O146 O 0.34777 1.02454 0.68458
 O147 O 0.31128 1.02387 0.64160
 O148 O 0.34847 0.97384 0.68464
 Cu149 Cu 0.37670 0.99955 0.63371
 Cu150 Cu 0.32574 0.99885 0.66574
 C151 C 0.37592 0.96539 0.67861
 C152 C 0.32624 1.03302 0.62113
 C153 C 0.37494 1.03368 0.67853
 C154 C 0.32778 0.96468 0.62092
 O155 O 0.64797 1.02566 0.38233
 O156 O 0.61229 0.97438 0.33933
 O157 O 0.64826 0.97400 0.38263
 O158 O 0.61218 1.02452 0.33904
 O159 O 0.65544 1.02520 0.31328
 O160 O 0.69109 0.97435 0.35647
 O161 O 0.65526 0.97418 0.31319
 O162 O 0.69103 1.02493 0.35662
 Cu163 Cu 0.62603 0.99962 0.36372
 Cu164 Cu 0.67749 0.99965 0.33227
 C165 C 0.67559 1.03424 0.37679
 C166 C 0.62759 0.96588 0.31876
 C167 C 0.67577 0.96544 0.37688
 C168 C 0.62764 1.03325 0.31865
 C169 C 0.81330 0.78532 0.48554
 C170 C 0.81312 0.78495 0.51457
 C171 C 0.79399 0.80305 0.52867
 C172 C 0.77605 0.82176 0.51465
 C173 C 0.77616 0.82187 0.48575
 C174 C 0.79438 0.80337 0.47156
 H175 H 0.79522 0.80398 0.44937
 H176 H 0.79378 0.80321 0.55086
 C177 C 0.18149 0.21270 0.48938
 C178 C 0.18551 0.21413 0.51824
 C179 C 0.20517 0.19580 0.53118
 C180 C 0.22048 0.17612 0.51630
 C181 C 0.21697 0.17495 0.48765
 C182 C 0.19766 0.19327 0.47456
 H183 H 0.19452 0.19190 0.45259
 H184 H 0.20792 0.19636 0.55323
 C185 C 0.19553 0.78079 0.51521
 C186 C 0.18910 0.78317 0.48669
 C187 C 0.20386 0.80353 0.47193
 C188 C 0.22378 0.82170 0.48472
 C189 C 0.22931 0.81960 0.51304
 C190 C 0.21586 0.79895 0.52774
 H191 H 0.22000 0.79781 0.54961
 H192 H 0.19908 0.80585 0.45030
 C193 C 0.81022 0.21661 0.51209
 C194 C 0.80709 0.21753 0.48316
 C195 C 0.78774 0.19895 0.47016
 C196 C 0.77212 0.17923 0.48492
 C197 C 0.77436 0.17895 0.51377
 C198 C 0.79310 0.19773 0.52698
 H199 H 0.79562 0.19677 0.54904
 H200 H 0.78560 0.19924 0.44805
 C201 C 0.48245 0.83384 0.79893
 C202 C 0.51609 0.83446 0.79950
 C203 C 0.53229 0.81639 0.81582
 C204 C 0.51592 0.79874 0.83274
 C205 C 0.48230 0.79976 0.83405
 C206 C 0.46606 0.81680 0.81655
 H207 H 0.44037 0.81705 0.81690
 H208 H 0.55799 0.81631 0.81565
 C209 C 0.48529 0.16647 0.20098
 C210 C 0.51892 0.16562 0.20103
 C211 C 0.53597 0.18358 0.18498
 C212 C 0.52047 0.20152 0.16797
 C213 C 0.48685 0.20097 0.16632
 C214 C 0.46981 0.18383 0.18333
 H215 H 0.44413 0.18379 0.18265
 H216 H 0.56165 0.18340 0.18546
 C217 C 0.51482 0.16492 0.79967
 C218 C 0.48119 0.16561 0.79910
 C219 C 0.46493 0.18255 0.81687
 C220 C 0.48130 0.19931 0.83464
 C221 C 0.51492 0.20013 0.83355
 C222 C 0.53116 0.18268 0.81634
 H223 H 0.55686 0.18266 0.81623
 H224 H 0.43924 0.18244 0.81715
 C225 C 0.51661 0.83435 0.20130
 C226 C 0.48297 0.83435 0.20113
 C227 C 0.46688 0.81731 0.18346
 C228 C 0.48336 0.79981 0.16647
 C229 C 0.51691 0.79837 0.16829
 C230 C 0.53303 0.81591 0.18542
 H231 H 0.55871 0.81547 0.18605
 H232 H 0.44122 0.81792 0.18265
 C233 C 0.76155 0.48710 0.81020
 C234 C 0.75973 0.51466 0.81066
 C235 C 0.77596 0.52902 0.79058
 C236 C 0.79598 0.51684 0.77142
 C237 C 0.79828 0.48916 0.77135
 C238 C 0.78019 0.47469 0.79024
 H239 H 0.78244 0.45358 0.79076
 H240 H 0.77446 0.55018 0.79097
 C241 C 0.24178 0.48690 0.19067
 C242 C 0.24047 0.51453 0.19094
 C243 C 0.22219 0.52707 0.21116
 C244 C 0.20405 0.51275 0.23006
 C245 C 0.20513 0.48514 0.22956
 C246 C 0.22464 0.47261 0.21027
 H247 H 0.22465 0.45142 0.20920
 H248 H 0.22037 0.54822 0.21104
 C249 C 0.77027 0.51319 0.18097
 C250 C 0.77277 0.48567 0.18051
 C251 C 0.79176 0.47324 0.20003
 C252 C 0.80937 0.48759 0.21921
 C253 C 0.80677 0.51525 0.21960
 C254 C 0.78669 0.52754 0.20074
 H255 H 0.78495 0.54869 0.20059
 H256 H 0.79403 0.45214 0.19943
 C257 C 0.23058 0.51212 0.81802
 C258 C 0.22969 0.48448 0.81831
 C259 C 0.21135 0.47131 0.79874
 C260 C 0.19313 0.48502 0.77963
 C261 C 0.19388 0.51265 0.77950
 C262 C 0.21298 0.52584 0.79847
 H263 H 0.21275 0.54703 0.79903
 H264 H 0.21007 0.45014 0.79917
 C265 C 0.29518 0.42798 0.10158
 C266 C 0.32756 0.42157 0.10170
 C267 C 0.34011 0.40659 0.08013
 C268 C 0.32021 0.39733 0.05921
 C269 C 0.28782 0.40384 0.05947
 C270 C 0.27524 0.41947 0.08043
 C271 C 0.28177 0.44351 0.12428
 C272 C 0.24950 0.45024 0.12390
 C273 C 0.23686 0.46495 0.14553
 C274 C 0.25607 0.47234 0.16763
 C275 C 0.28813 0.46493 0.16814
 C276 C 0.30133 0.45094 0.14615
 C277 C 0.24308 0.42656 0.08080
 C278 C 0.23047 0.44185 0.10207
 C279 C 0.34652 0.42986 0.12363
 C280 C 0.33358 0.44411 0.14559
 H281 H 0.22751 0.42020 0.06452
 H282 H 0.20555 0.44689 0.10160
 H283 H 0.37150 0.42499 0.12401
 H284 H 0.34894 0.44984 0.16225
 H285 H 0.36501 0.40137 0.08008
 H286 H 0.27251 0.39684 0.04326
 H287 H 0.21201 0.47038 0.14549
 H288 H 0.30269 0.47024 0.18551
 C289 C 0.70998 0.57186 0.09584
 C290 C 0.72782 0.57936 0.07278
 C291 C 0.71363 0.59493 0.05272
 C292 C 0.68164 0.60227 0.05526
 C293 C 0.66377 0.59402 0.07806
 C294 C 0.67804 0.57917 0.09874
 C295 C 0.72519 0.55643 0.11756
 C296 C 0.70785 0.55004 0.14127
 C297 C 0.72282 0.53614 0.16227
 C298 C 0.75432 0.52777 0.15900
 C299 C 0.77129 0.53403 0.13508
 C300 C 0.75694 0.54870 0.11437
 C301 C 0.66126 0.57189 0.12247
 C302 C 0.67599 0.55775 0.14349
 C303 C 0.75953 0.57131 0.07036
 C304 C 0.77378 0.55605 0.09072
 H305 H 0.63664 0.57745 0.12498
 H306 H 0.66233 0.55280 0.16160
 H307 H 0.77346 0.57685 0.05259
 H308 H 0.79829 0.55022 0.08806
 H309 H 0.72729 0.60117 0.03503
 H310 H 0.63919 0.59990 0.08009
 H311 H 0.71000 0.53148 0.18094
 H312 H 0.79573 0.52781 0.13291
 C313 C 0.70959 0.42481 0.89730
 C314 C 0.67702 0.41907 0.89766
 C315 C 0.66448 0.40412 0.91920
 C316 C 0.68450 0.39427 0.93968
 C317 C 0.71714 0.39993 0.93887
 C318 C 0.72976 0.41555 0.91790
 C319 C 0.72287 0.44070 0.87483
 C320 C 0.75529 0.44702 0.87487
 C321 C 0.76769 0.46244 0.85366
 C322 C 0.74800 0.47099 0.83238
 C323 C 0.71586 0.46376 0.83205
 C324 C 0.70294 0.44910 0.85364
 C325 C 0.76212 0.42210 0.91710
 C326 C 0.77463 0.43774 0.89605
 C327 C 0.65774 0.42816 0.87632
 C328 C 0.67054 0.44274 0.85456
 H329 H 0.77788 0.41516 0.93294
 H330 H 0.79968 0.44245 0.89625
 H331 H 0.63260 0.42379 0.87633
 H332 H 0.65492 0.44922 0.83841
 H333 H 0.63937 0.39956 0.91970
 H334 H 0.73253 0.39251 0.95477
 H335 H 0.79258 0.46777 0.85355
 H336 H 0.70098 0.46984 0.81520
 C337 C 0.28809 0.57244 0.90377
 C338 C 0.32035 0.57911 0.90197
 C339 C 0.33401 0.59419 0.92286
 C340 C 0.31529 0.60327 0.94480
 C341 C 0.28297 0.59654 0.94621
 C342 C 0.26932 0.58080 0.92593
 C343 C 0.27355 0.55668 0.88186
 C344 C 0.24143 0.54959 0.88397
 C345 C 0.22775 0.53458 0.86312
 C346 C 0.24578 0.52725 0.84011
 C347 C 0.27766 0.53505 0.83788
 C348 C 0.29191 0.54933 0.85905
 C349 C 0.23726 0.57338 0.92726
 C350 C 0.22361 0.55787 0.90673
 C351 C 0.33812 0.57093 0.87911
 C352 C 0.32407 0.55648 0.85790
 H353 H 0.22260 0.57960 0.94433
 H354 H 0.19882 0.55255 0.90855
 H355 H 0.36300 0.57601 0.87743
 H356 H 0.33853 0.55081 0.84050
 H357 H 0.35886 0.59955 0.92165
 H358 H 0.26858 0.60339 0.96321
 H359 H 0.20304 0.52881 0.86451
 H360 H 0.29129 0.52974 0.81985
 C361 C 0.09963 0.28186 0.42929
 C362 C 0.06896 0.28705 0.43922
 C363 C 0.04933 0.30403 0.42452
 C364 C 0.05986 0.31490 0.39966
 C365 C 0.09043 0.30932 0.38976
 C366 C 0.11070 0.29312 0.40479
 C367 C 0.12042 0.26408 0.44468
 C368 C 0.15139 0.25951 0.43520
 C369 C 0.17124 0.24295 0.45015
 C370 C 0.16005 0.23039 0.47398
 C371 C 0.12846 0.23438 0.48255
 C372 C 0.10885 0.25183 0.46844
 C373 C 0.14173 0.28786 0.39583
 C374 C 0.16184 0.27154 0.41092
 C375 C 0.05844 0.27486 0.46340
 C376 C 0.07795 0.25735 0.47762
 H377 H 0.15060 0.29652 0.37705
 H378 H 0.18568 0.26810 0.40338
 H379 H 0.03481 0.27865 0.47122
 H380 H 0.06885 0.24818 0.49605
 H381 H 0.02556 0.30818 0.43188
 H382 H 0.09841 0.31780 0.37058
 H383 H 0.19543 0.23983 0.44332
 H384 H 0.11935 0.22421 0.50038
 C385 C 0.11576 0.71271 0.57867
 C386 C 0.11102 0.68675 0.57024
 C387 C 0.08804 0.67144 0.58373
 C388 C 0.07031 0.68198 0.60566
 C389 C 0.07597 0.70788 0.61409
 C390 C 0.09833 0.72340 0.60051
 C391 C 0.13873 0.72929 0.56386
 C392 C 0.14196 0.75564 0.57139
 C393 C 0.16183 0.77187 0.55600
 C394 C 0.17874 0.76198 0.53335
 C395 C 0.17700 0.73509 0.52716
 C396 C 0.15616 0.71879 0.54189
 C397 C 0.10304 0.74962 0.60798
 C398 C 0.12435 0.76553 0.59353
 C399 C 0.12903 0.67684 0.54827
 C400 C 0.15134 0.69254 0.53444
 H401 H 0.08969 0.75804 0.62481
 H402 H 0.12679 0.78583 0.59954
 H403 H 0.12568 0.65683 0.54157
 H404 H 0.16444 0.68422 0.51741
 H405 H 0.08390 0.65149 0.57716
 H406 H 0.06230 0.71626 0.63077
 H407 H 0.16300 0.79254 0.56084
 H408 H 0.19021 0.72737 0.50987
 C409 C 0.89830 0.72013 0.42374
 C410 C 0.88600 0.69945 0.40806
 C411 C 0.90697 0.68307 0.39374
 C412 C 0.93975 0.68776 0.39467
 C413 C 0.95174 0.70869 0.41010
 C414 C 0.93109 0.72482 0.42499
 C415 C 0.87646 0.73708 0.43931
 C416 C 0.88883 0.75728 0.45559
 C417 C 0.86798 0.77307 0.47067
 C418 C 0.83509 0.76889 0.46922
 C419 C 0.82296 0.74895 0.45245
 C420 C 0.84363 0.73268 0.43770
 C421 C 0.94255 0.74534 0.44133
 C422 C 0.92178 0.76121 0.45649
 C423 C 0.85304 0.69556 0.40713
 C424 C 0.83220 0.71199 0.42158
 H425 H 0.96780 0.74905 0.44255
 H426 H 0.93158 0.77673 0.46897
 H427 H 0.84327 0.67971 0.39510
 H428 H 0.80695 0.70835 0.42026
 H429 H 0.89793 0.66681 0.38183
 H430 H 0.97713 0.71199 0.41092
 H431 H 0.87717 0.78859 0.48352
 H432 H 0.79757 0.74579 0.45148
 C433 C 0.89444 0.28672 0.56886
 C434 C 0.92569 0.28999 0.55932
 C435 C 0.94601 0.30718 0.57319
 C436 C 0.93545 0.32025 0.59683
 C437 C 0.90418 0.31678 0.60621
 C438 C 0.88335 0.30028 0.59202
 C439 C 0.87308 0.26842 0.55461
 C440 C 0.84167 0.26554 0.56381
 C441 C 0.82130 0.24846 0.54989
 C442 C 0.83234 0.23398 0.52726
 C443 C 0.86434 0.23625 0.51911
 C444 C 0.88458 0.25397 0.53224
 C445 C 0.85183 0.29676 0.60072
 C446 C 0.83126 0.27985 0.58671
 C447 C 0.93615 0.27553 0.53654
 C448 C 0.91601 0.25768 0.52335
 H449 H 0.84297 0.30718 0.61848
 H450 H 0.80709 0.27779 0.59401
 H451 H 0.96022 0.27780 0.52904
 H452 H 0.92508 0.24678 0.50599
 H453 H 0.97033 0.30960 0.56634
 H454 H 0.89624 0.32682 0.62456
 H455 H 0.79678 0.24661 0.55639
 H456 H 0.87321 0.22464 0.50216
 C457 C 0.41669 0.09404 0.26921
 C458 C 0.42573 0.09091 0.29663
 C459 C 0.41075 0.07173 0.31260
 C460 C 0.38659 0.05603 0.30143
 C461 C 0.37747 0.05971 0.27401
 C462 C 0.39270 0.07852 0.25771
 C463 C 0.43298 0.11368 0.25211
 C464 C 0.42478 0.11614 0.22441
 C465 C 0.44138 0.13400 0.20793
 C466 C 0.46580 0.14943 0.21908
 C467 C 0.47264 0.14759 0.24719
 C468 C 0.45682 0.12930 0.26367
 C469 C 0.38473 0.08191 0.23005
 C470 C 0.40062 0.10031 0.21364
 C471 C 0.44969 0.10691 0.30746
 C472 C 0.46487 0.12588 0.29129
 H473 H 0.36629 0.07004 0.22094
 H474 H 0.39403 0.10207 0.19232
 H475 H 0.45684 0.10470 0.32860
 H476 H 0.48335 0.13774 0.30038
 H477 H 0.41776 0.06911 0.33374
 H478 H 0.35905 0.04758 0.26522
 H479 H 0.43602 0.13535 0.18630
 H480 H 0.49103 0.15977 0.25595
 C481 C 0.58236 0.08917 0.73455
 C482 C 0.57174 0.06312 0.73426
 C483 C 0.58688 0.04506 0.71706
 C484 C 0.61287 0.05281 0.70090
 C485 C 0.62370 0.07878 0.70170
 C486 C 0.60816 0.09722 0.71827
 C487 C 0.56592 0.10841 0.75200
 C488 C 0.57565 0.13468 0.75150
 C489 C 0.55912 0.15308 0.76738
 C490 C 0.53339 0.14522 0.78395
 C491 C 0.52498 0.11858 0.78515
 C492 C 0.54057 0.10022 0.76866
 C493 C 0.61757 0.12358 0.71868
 C494 C 0.60145 0.14203 0.73486
 C495 C 0.54616 0.05570 0.75108
 C496 C 0.53098 0.07391 0.76816
 H497 H 0.63735 0.13006 0.70616
 H498 H 0.60923 0.16222 0.73433
 H499 H 0.53783 0.03565 0.75107
 H500 H 0.51132 0.06742 0.78081
 H501 H 0.57869 0.02497 0.71633
 H502 H 0.64363 0.08464 0.68899
 H503 H 0.56580 0.17353 0.76646
 H504 H 0.50574 0.11231 0.79841
 C505 C 0.41860 0.90695 0.72894
 C506 C 0.39436 0.92268 0.73980
 C507 C 0.38023 0.94158 0.72311
 C508 C 0.39063 0.94515 0.69592
 C509 C 0.41514 0.92933 0.68541
 C510 C 0.42903 0.91003 0.70178
 C511 C 0.43360 0.88709 0.74643
 C512 C 0.45764 0.87120 0.73550
 C513 C 0.47220 0.85268 0.75236
 C514 C 0.46398 0.85091 0.78029
 C515 C 0.43936 0.86660 0.79078
 C516 C 0.42398 0.88467 0.77388
 C517 C 0.45318 0.89377 0.69158
 C518 C 0.46714 0.87459 0.70812
 C519 C 0.38496 0.91935 0.76722
 C520 C 0.39965 0.90077 0.78402
 H521 H 0.46139 0.89591 0.67065
 H522 H 0.48580 0.86255 0.69952
 H523 H 0.36631 0.93139 0.77584
 H524 H 0.39198 0.89905 0.80514
 H525 H 0.36152 0.95380 0.73140
 H526 H 0.42312 0.93185 0.66444
 H527 H 0.49077 0.84032 0.74409
 H528 H 0.43295 0.86533 0.81225
 C529 C 0.58290 0.91016 0.26691
 C530 C 0.60724 0.90193 0.28444
 C531 C 0.62236 0.92042 0.30116
 C532 C 0.61262 0.94665 0.30076
 C533 C 0.58809 0.95459 0.28334
 C534 C 0.57333 0.93644 0.26608
 C535 C 0.56692 0.89087 0.24928
 C536 C 0.54299 0.89921 0.23145
 C537 C 0.52775 0.88079 0.21487
 C538 C 0.53512 0.85402 0.21701
 C539 C 0.55952 0.84602 0.23468
 C540 C 0.57565 0.86443 0.25078
 C541 C 0.54917 0.94401 0.24808
 C542 C 0.53439 0.92572 0.23092
 C543 C 0.61567 0.87538 0.28504
 C544 C 0.60001 0.85692 0.26862
 H545 H 0.54165 0.96423 0.24724
 H546 H 0.51583 0.93233 0.21736
 H547 H 0.63433 0.86877 0.29851
 H548 H 0.60701 0.83660 0.26994
 H549 H 0.64120 0.91443 0.31479
 H550 H 0.58076 0.97489 0.28314
 H551 H 0.50952 0.88714 0.20082
 H552 H 0.56538 0.82547 0.23633
 C553 C 0.41667 0.26649 0.91115
 C554 C 0.39167 0.28239 0.90210
 C555 C 0.37734 0.29985 0.92057
 C556 C 0.38861 0.30183 0.94750
 C557 C 0.41375 0.28598 0.95621
 C558 C 0.42767 0.26800 0.93819
 C559 C 0.43195 0.24821 0.89186
 C560 C 0.45661 0.23211 0.90106
 C561 C 0.47136 0.21506 0.88257
 C562 C 0.46286 0.21508 0.85472
 C563 C 0.43764 0.23095 0.84592
 C564 C 0.42196 0.24749 0.86449
 C565 C 0.45244 0.25161 0.94662
 C566 C 0.46653 0.23383 0.92840
 C567 C 0.38189 0.28071 0.87470
 C568 C 0.39693 0.26369 0.85617
 H569 H 0.46103 0.25256 0.96746
 H570 H 0.48567 0.22160 0.93566
 H571 H 0.36272 0.29289 0.86743
 H572 H 0.38895 0.26327 0.83513
 H573 H 0.35804 0.31227 0.91396
 H574 H 0.42225 0.28758 0.97704
 H575 H 0.49024 0.20242 0.88957
 H576 H 0.43091 0.23095 0.82454
 C577 C 0.57935 0.72744 0.90495
 C578 C 0.56836 0.70159 0.90709
 C579 C 0.58188 0.68494 0.92660
 C580 C 0.60656 0.69391 0.94352
 C581 C 0.61760 0.71978 0.94078
 C582 C 0.60381 0.73673 0.92175
 C583 C 0.56461 0.74526 0.88505
 C584 C 0.57465 0.77142 0.88376
 C585 C 0.55938 0.78864 0.86586
 C586 C 0.53447 0.77976 0.84918
 C587 C 0.52592 0.75312 0.84964
 C588 C 0.54032 0.73593 0.86809
 C589 C 0.61370 0.76288 0.91944
 C590 C 0.59922 0.77999 0.90089
 C591 C 0.54398 0.69297 0.88977
 C592 C 0.53032 0.70982 0.87049
 H593 H 0.63253 0.77028 0.93232
 H594 H 0.60722 0.80011 0.90004
 H595 H 0.53533 0.67306 0.89117
 H596 H 0.51145 0.70246 0.85763
 H597 H 0.57340 0.66500 0.92849
 H598 H 0.63642 0.72687 0.95388
 H599 H 0.56604 0.80912 0.86561
 H600 H 0.50711 0.74611 0.83649
 C601 C 0.41850 0.73250 0.09057
 C602 C 0.39184 0.71819 0.09934
 C603 C 0.37709 0.70094 0.08100
 C604 C 0.38969 0.69740 0.05458
 C605 C 0.41661 0.71154 0.04621
 C606 C 0.43084 0.72950 0.06399
 C607 C 0.43400 0.75076 0.10964
 C608 C 0.46008 0.76555 0.10060
 C609 C 0.47485 0.78275 0.11884
 C610 C 0.46510 0.78393 0.14644
 C611 C 0.43854 0.76930 0.15507
 C612 C 0.42269 0.75285 0.13664
 C613 C 0.45712 0.74451 0.05575
 C614 C 0.47132 0.76242 0.07368
 C615 C 0.38076 0.72125 0.12633
 C616 C 0.39611 0.73810 0.14474
 H617 H 0.46674 0.74244 0.03525
 H618 H 0.49157 0.77362 0.06655
 H619 H 0.36031 0.71028 0.13339
 H620 H 0.38709 0.73959 0.16549
 H621 H 0.35641 0.68984 0.08737
 H622 H 0.42612 0.70879 0.02576
 H623 H 0.49468 0.79454 0.11186
 H624 H 0.43076 0.77026 0.17623
 C625 C 0.58630 0.27189 0.09569
 C626 C 0.57588 0.29786 0.09358
 C627 C 0.58949 0.31419 0.07367
 C628 C 0.61365 0.30479 0.05627
 C629 C 0.62424 0.27884 0.05904
 C630 C 0.61035 0.26219 0.07851
 C631 C 0.57121 0.25434 0.11584
 C632 C 0.58052 0.22802 0.11702
 C633 C 0.56470 0.21103 0.13500
 C634 C 0.53992 0.22028 0.15180
 C635 C 0.53222 0.24706 0.15154
 C636 C 0.54718 0.26404 0.13303
 C637 C 0.61962 0.23592 0.08080
 C638 C 0.60481 0.21908 0.09961
 C639 C 0.55185 0.30688 0.11121
 C640 C 0.53786 0.29028 0.13071
 H641 H 0.63813 0.22821 0.06765
 H642 H 0.61226 0.19884 0.10039
 H643 H 0.54366 0.32689 0.10981
 H644 H 0.51919 0.29794 0.14375
 H645 H 0.58134 0.33418 0.07175
 H646 H 0.64264 0.27142 0.04557
 H647 H 0.57073 0.19044 0.13513
 H648 H 0.51350 0.25433 0.16478
 C649 C 0.28189 0.09336 0.57486
 C650 C 0.31473 0.09451 0.57936
 C651 C 0.32942 0.07419 0.59378
 C652 C 0.31125 0.05340 0.60438
 C653 C 0.27837 0.05260 0.59980
 C654 C 0.26360 0.07237 0.58471
 C655 C 0.26626 0.11469 0.55984
 C656 C 0.23354 0.11323 0.55486
 C657 C 0.21885 0.13344 0.54039
 C658 C 0.23655 0.15514 0.53152
 C659 C 0.26910 0.15675 0.53726
 C660 C 0.28428 0.13624 0.55097
 C661 C 0.23091 0.07167 0.57943
 C662 C 0.21616 0.09167 0.56457
 C663 C 0.33205 0.11616 0.56975
 C664 C 0.31704 0.13677 0.55597
 H665 H 0.21660 0.05552 0.58682
 H666 H 0.19091 0.09036 0.56087
 H667 H 0.35738 0.11732 0.57316
 H668 H 0.33122 0.15321 0.54910
 H669 H 0.35472 0.07493 0.59755
 H670 H 0.26440 0.03650 0.60783
 H671 H 0.19367 0.13249 0.53613
 H672 H 0.28252 0.17375 0.53072
 C673 C 0.71618 0.09493 0.42346
 C674 C 0.68430 0.08815 0.42785
 C675 C 0.67103 0.06749 0.41280
 C676 C 0.68915 0.05419 0.39275
 C677 C 0.72112 0.06156 0.38859
 C678 C 0.73480 0.08163 0.40410
 C679 C 0.73030 0.11654 0.43929
 C680 C 0.76238 0.12290 0.43531
 C681 C 0.77577 0.14325 0.45060
 C682 C 0.75718 0.15760 0.46930
 C683 C 0.72477 0.15159 0.47230
 C684 C 0.71138 0.13061 0.45785
 C685 C 0.76677 0.08870 0.40055
 C686 C 0.78039 0.10886 0.41603
 C687 C 0.66624 0.10241 0.44696
 C688 C 0.67947 0.12343 0.46152
 H689 H 0.78141 0.07850 0.38572
 H690 H 0.80515 0.11364 0.41273
 H691 H 0.64158 0.09743 0.45051
 H692 H 0.66465 0.13404 0.47589
 H693 H 0.64641 0.06227 0.41626
 H694 H 0.73558 0.05155 0.37347
 H695 H 0.80066 0.14804 0.44797
 H696 H 0.70993 0.16339 0.48547
 C697 C 0.71849 0.90501 0.57634
 C698 C 0.68530 0.90674 0.57803
 C699 C 0.67155 0.92719 0.59313
 C700 C 0.69080 0.94534 0.60700
 C701 C 0.72402 0.94323 0.60516
 C702 C 0.73800 0.92325 0.58963
 C703 C 0.73310 0.88356 0.56057
 C704 C 0.76628 0.88207 0.55859
 C705 C 0.78005 0.86176 0.54341
 C706 C 0.76088 0.84289 0.53066
 C707 C 0.72773 0.84415 0.53347
 C708 C 0.71364 0.86479 0.54801
 C709 C 0.77110 0.92106 0.58725
 C710 C 0.78500 0.90089 0.57186
 C711 C 0.66661 0.88779 0.56488
 C712 C 0.68054 0.86708 0.55027
 H713 H 0.78639 0.93506 0.59735
 H714 H 0.81062 0.89993 0.57048
 H715 H 0.64099 0.88886 0.56608
 H716 H 0.66527 0.85280 0.54059
 H717 H 0.64596 0.92859 0.59469
 H718 H 0.73896 0.95725 0.61566
 H719 H 0.80562 0.86054 0.54144
 H720 H 0.71305 0.82910 0.52444
 C721 C 0.27923 0.90507 0.42154
 C722 C 0.31216 0.90902 0.42238
 C723 C 0.32561 0.92944 0.40714
 C724 C 0.30644 0.94551 0.39072
 C725 C 0.27347 0.94116 0.38994
 C726 C 0.25969 0.92108 0.40553
 C727 C 0.26497 0.88366 0.43760
 C728 C 0.23199 0.87988 0.43706
 C729 C 0.21856 0.85957 0.45257
 C730 C 0.23798 0.84306 0.46822
 C731 C 0.27103 0.84670 0.46792
 C732 C 0.28463 0.86726 0.45303
 C733 C 0.22680 0.91664 0.40542
 C734 C 0.21316 0.89646 0.42102
 C735 C 0.33101 0.89235 0.43828
 C736 C 0.31749 0.87172 0.45324
 H737 H 0.21146 0.92890 0.39321
 H738 H 0.18770 0.89373 0.42042
 H739 H 0.35646 0.89518 0.43904
 H740 H 0.33286 0.85922 0.46515
 H741 H 0.35103 0.93254 0.40766
 H742 H 0.25857 0.95354 0.37744
 H743 H 0.19310 0.85666 0.45263
 H744 H 0.28611 0.83343 0.47913
 C745 C 0.10417 0.42668 0.71494
 C746 C 0.07828 0.41452 0.72794
 C747 C 0.05674 0.40010 0.71219
 C748 C 0.06052 0.39845 0.68361
 C749 C 0.08636 0.41101 0.67083
 C750 C 0.10857 0.42485 0.68648
 C751 C 0.12713 0.44157 0.73145
 C752 C 0.15362 0.45298 0.71860
 C753 C 0.17568 0.46670 0.73452
 C754 C 0.17048 0.47004 0.76274
 C755 C 0.14390 0.45847 0.77533
 C756 C 0.12225 0.44397 0.75980
 C757 C 0.13514 0.43682 0.67432
 C758 C 0.15743 0.45046 0.69014
 C759 C 0.07437 0.41717 0.75638
 C760 C 0.09587 0.43180 0.77202
 H761 H 0.13885 0.43549 0.65240
 H762 H 0.17767 0.45928 0.67997
 H763 H 0.05444 0.40796 0.76663
 H764 H 0.09190 0.43348 0.79388
 H765 H 0.03669 0.39064 0.72204
 H766 H 0.08942 0.40960 0.64883
 H767 H 0.19683 0.47470 0.72504
 H768 H 0.14024 0.46076 0.79719
 C769 C 0.10939 0.56841 0.29179
 C770 C 0.08282 0.57826 0.27806
 C771 C 0.06050 0.59300 0.29267
 C772 C 0.06422 0.59743 0.32090
 C773 C 0.09041 0.58676 0.33464
 C774 C 0.11346 0.57256 0.32000
 C775 C 0.13368 0.55391 0.27619
 C776 C 0.16104 0.54509 0.28956
 C777 C 0.18454 0.53205 0.27436
 C778 C 0.18000 0.52695 0.24636
 C779 C 0.15244 0.53580 0.23331
 C780 C 0.12931 0.54955 0.24806
 C781 C 0.14082 0.56292 0.33279
 C782 C 0.16432 0.54959 0.31780
 C783 C 0.07928 0.57348 0.24993
 C784 C 0.10204 0.55920 0.23521
 H785 H 0.14432 0.56599 0.35451
 H786 H 0.18520 0.54274 0.32840
 H787 H 0.05878 0.58090 0.23918
 H788 H 0.09845 0.55595 0.21353
 H789 H 0.04020 0.60108 0.28213
 H790 H 0.09341 0.59038 0.35633
 H791 H 0.20621 0.52583 0.28419
 H792 H 0.14925 0.53209 0.21164
 C793 C 0.89606 0.42863 0.28562
 C794 C 0.88513 0.40613 0.29923
 C795 C 0.90660 0.39112 0.31436
 C796 C 0.93842 0.39895 0.31636
 C797 C 0.94899 0.42170 0.30304
 C798 C 0.92793 0.43649 0.28727
 C799 C 0.87381 0.44408 0.26905
 C800 C 0.88501 0.46593 0.25453
 C801 C 0.86397 0.48000 0.23806
 C802 C 0.83168 0.47302 0.23700
 C803 C 0.82082 0.45118 0.25189
 C804 C 0.84187 0.43645 0.26771
 C805 C 0.93812 0.45877 0.27288
 C806 C 0.91706 0.47314 0.25662
 C807 C 0.85301 0.39909 0.29735
 C808 C 0.83169 0.41410 0.28199
 H809 H 0.96264 0.46500 0.27398
 H810 H 0.92593 0.49005 0.24563
 H811 H 0.84427 0.38186 0.30784
 H812 H 0.80711 0.40800 0.28107
 H813 H 0.89865 0.37356 0.32476
 H814 H 0.97367 0.42749 0.30454
 H815 H 0.87271 0.49629 0.22601
 H816 H 0.79605 0.44559 0.25093
 C817 C 0.88500 0.57781 0.70863
 C818 C 0.90272 0.59718 0.72203
 C819 C 0.92594 0.61092 0.70741
 C820 C 0.93198 0.60518 0.67968
 C821 C 0.91405 0.58564 0.66650
 C822 C 0.89033 0.57197 0.68089
 C823 C 0.86079 0.56309 0.72410
 C824 C 0.84294 0.54370 0.71082
 C825 C 0.82038 0.52939 0.72589
 C826 C 0.81669 0.53376 0.75422
 C827 C 0.83451 0.55355 0.76700
 C828 C 0.85642 0.56835 0.75206
 C829 C 0.87197 0.55247 0.66825
 C830 C 0.84859 0.53865 0.68293
 C831 C 0.89722 0.60219 0.74990
 C832 C 0.87455 0.58792 0.76472
 H833 H 0.87579 0.54778 0.64686
 H834 H 0.83512 0.52366 0.67245
 H835 H 0.91080 0.61708 0.76044
 H836 H 0.87130 0.59214 0.78629
 H837 H 0.93976 0.62576 0.71782
 H838 H 0.91850 0.58114 0.64513
 H839 H 0.80651 0.51434 0.71590
 H840 H 0.83204 0.55685 0.78884
 C841 C 0.70577 0.57365 0.89982
 C842 C 0.67380 0.57018 0.90707
 C843 C 0.66092 0.58505 0.92858
 C844 C 0.67954 0.60398 0.94220
 C845 C 0.71161 0.60718 0.93437
 C846 C 0.72488 0.59188 0.91350
 C847 C 0.71945 0.55813 0.87724
 C848 C 0.75156 0.56135 0.87034
 C849 C 0.76444 0.54662 0.84887
 C850 C 0.74533 0.52924 0.83386
 C851 C 0.71299 0.52667 0.84059
 C852 C 0.70005 0.54069 0.86269
 C853 C 0.75691 0.59457 0.90597
 C854 C 0.77009 0.57942 0.88487
 C855 C 0.65527 0.55216 0.89239
 C856 C 0.66810 0.53783 0.87043
 H857 H 0.77193 0.60849 0.91648
 H858 H 0.79489 0.58208 0.87969
 H859 H 0.63054 0.54932 0.89773
 H860 H 0.65291 0.52435 0.85948
 H861 H 0.63622 0.58234 0.93415
 H862 H 0.72646 0.62140 0.94467
 H863 H 0.78932 0.54877 0.84361
 H864 H 0.69785 0.51423 0.82841
 C865 C 0.28743 0.42389 0.90395
 C866 C 0.31970 0.42733 0.90986
 C867 C 0.33349 0.41248 0.93082
 C868 C 0.31543 0.39370 0.94532
 C869 C 0.28305 0.39049 0.93881
 C870 C 0.26891 0.40571 0.91842
 C871 C 0.27277 0.43948 0.88203
 C872 C 0.24036 0.43635 0.87648
 C873 C 0.22651 0.45133 0.85577
 C874 C 0.24493 0.46895 0.84027
 C875 C 0.27758 0.47130 0.84558
 C876 C 0.29152 0.45701 0.86684
 C877 C 0.23658 0.40305 0.91220
 C878 C 0.22250 0.41823 0.89170
 C879 C 0.33759 0.44536 0.89449
 C880 C 0.32379 0.45980 0.87321
 H881 H 0.22201 0.38914 0.92331
 H882 H 0.19748 0.41562 0.88758
 H883 H 0.36253 0.44818 0.89878
 H884 H 0.33848 0.47335 0.86173
 H885 H 0.35841 0.41521 0.93536
 H886 H 0.26862 0.37635 0.94976
 H887 H 0.20138 0.44935 0.85165
 H888 H 0.29216 0.48396 0.83300
 C889 C 0.29246 0.57570 0.10233
 C890 C 0.32436 0.57258 0.09469
 C891 C 0.33663 0.58736 0.07284
 C892 C 0.31747 0.60579 0.05916
 C893 C 0.28549 0.60866 0.06739
 C894 C 0.27283 0.59349 0.08868
 C895 C 0.27938 0.56016 0.12520
 C896 C 0.24731 0.56292 0.13243
 C897 C 0.23489 0.54789 0.15393
 C898 C 0.25442 0.53056 0.16854
 C899 C 0.28677 0.52865 0.16156
 C900 C 0.29924 0.54300 0.13951
 C901 C 0.24089 0.59581 0.09663
 C902 C 0.22829 0.58066 0.11802
 C903 C 0.34340 0.55494 0.10927
 C904 C 0.33112 0.54055 0.13142
 H905 H 0.22546 0.60940 0.08617
 H906 H 0.20351 0.58297 0.12343
 H907 H 0.36808 0.55237 0.10365
 H908 H 0.34667 0.52728 0.14221
 H909 H 0.36128 0.58491 0.06698
 H910 H 0.27023 0.62253 0.05711
 H911 H 0.20998 0.54950 0.15925
 H912 H 0.30220 0.51619 0.17338
 C913 C 0.71586 0.42413 0.09504
 C914 C 0.68374 0.42769 0.08873
 C915 C 0.67014 0.41279 0.06772
 C916 C 0.68818 0.39376 0.05362
 C917 C 0.72042 0.39045 0.06048
 C918 C 0.73443 0.40579 0.08088
 C919 C 0.73030 0.43980 0.11704
 C920 C 0.76262 0.43666 0.12292
 C921 C 0.77631 0.45185 0.14362
 C922 C 0.75777 0.46962 0.15878
 C923 C 0.72518 0.47186 0.15321
 C924 C 0.71147 0.45745 0.13192
 C925 C 0.76664 0.40308 0.08747
 C926 C 0.78056 0.41840 0.10800
 C927 C 0.66576 0.44586 0.10379
 C928 C 0.67933 0.46033 0.12518
 H929 H 0.78125 0.38905 0.07660
 H930 H 0.80551 0.41579 0.11237
 H931 H 0.64092 0.44875 0.09917
 H932 H 0.66461 0.47401 0.13641
 H933 H 0.64531 0.41558 0.06291
 H934 H 0.73481 0.37612 0.04978
 H935 H 0.80140 0.44998 0.14788
 H936 H 0.71051 0.48465 0.16553
 C937 C 0.89822 0.71792 0.57436
 C938 C 0.90294 0.69204 0.56568
 C939 C 0.92487 0.67629 0.57957
 C940 C 0.94116 0.68597 0.60268
 C941 C 0.93550 0.71195 0.61127
 C942 C 0.91457 0.72808 0.59692
 C943 C 0.87577 0.73476 0.55949
 C944 C 0.87209 0.76094 0.56749
 C945 C 0.85157 0.77711 0.55274
 C946 C 0.83398 0.76712 0.53060
 C947 C 0.83693 0.74044 0.52370
 C948 C 0.85850 0.72438 0.53754
 C949 C 0.90986 0.75427 0.60460
 C950 C 0.88921 0.77049 0.58997
 C951 C 0.88551 0.68244 0.54336
 C952 C 0.86344 0.69826 0.52971
 H953 H 0.92246 0.76237 0.62192
 H954 H 0.88651 0.79065 0.59639
 H955 H 0.88880 0.66249 0.53649
 H956 H 0.85042 0.69005 0.51268
 H957 H 0.92867 0.65637 0.57271
 H958 H 0.94793 0.71993 0.62877
 H959 H 0.84962 0.79757 0.55824
 H960 H 0.82273 0.73224 0.50741
 C961 C 0.88836 0.28599 0.42073
 C962 C 0.90508 0.27578 0.39826
 C963 C 0.92686 0.29168 0.38437
 C964 C 0.93305 0.31745 0.39333
 C965 C 0.91593 0.32737 0.41601
 C966 C 0.89328 0.31179 0.42957
 C967 C 0.86578 0.26910 0.43565
 C968 C 0.84866 0.27930 0.45794
 C969 C 0.82771 0.26291 0.47238
 C970 C 0.82547 0.23612 0.46572
 C971 C 0.84248 0.22644 0.44300
 C972 C 0.86235 0.24287 0.42773
 C973 C 0.87571 0.32133 0.45198
 C974 C 0.85359 0.30543 0.46577
 C975 C 0.90026 0.24966 0.39045
 C976 C 0.87947 0.23340 0.40510
 H977 H 0.87916 0.34122 0.45898
 H978 H 0.84070 0.31351 0.48304
 H979 H 0.91311 0.24156 0.37316
 H980 H 0.87689 0.21322 0.39874
 H981 H 0.93977 0.28354 0.36712
 H982 H 0.92011 0.34715 0.42313
 H983 H 0.81422 0.27066 0.48949
 H984 H 0.84107 0.20588 0.43775
 C985 C 0.10705 0.28477 0.58011
 C986 C 0.10303 0.31050 0.57086
 C987 C 0.08077 0.32663 0.58396
 C988 C 0.06301 0.31737 0.60660
 C989 C 0.06829 0.29170 0.61611
 C990 C 0.08978 0.27520 0.60262
 C991 C 0.12914 0.26729 0.56549
 C992 C 0.13168 0.24112 0.57374
 C993 C 0.15097 0.22412 0.55863
 C994 C 0.16809 0.23320 0.53568
 C995 C 0.16686 0.25991 0.52876
 C996 C 0.14660 0.27688 0.54307
 C997 C 0.09378 0.24910 0.61081
 C998 C 0.11418 0.23228 0.59646
 C999 C 0.12101 0.31945 0.54842
 C1000 C 0.14262 0.30298 0.53490
 H1001 H 0.08055 0.24146 0.62812
 H1002 H 0.11608 0.21214 0.60308
 H1003 H 0.11822 0.33931 0.54114
 H1004 H 0.15582 0.31058 0.51755
 H1005 H 0.07734 0.34635 0.57645
 H1006 H 0.05486 0.28413 0.63336
 H1007 H 0.15180 0.20360 0.56411
 H1008 H 0.18048 0.26714 0.51147
 C1009 C 0.10519 0.71395 0.42785
 C1010 C 0.07848 0.70348 0.44116
 C1011 C 0.05887 0.68598 0.42697
 C1012 C 0.06416 0.68099 0.39889
 C1013 C 0.09060 0.69237 0.38568
 C1014 C 0.11192 0.70795 0.40040
 C1015 C 0.12631 0.73185 0.44282
 C1016 C 0.15436 0.74061 0.43029
 C1017 C 0.17507 0.75663 0.44512
 C1018 C 0.16683 0.76560 0.47155
 C1019 C 0.13717 0.75829 0.48273
 C1020 C 0.11785 0.74012 0.46923
 C1021 C 0.13979 0.71769 0.38824
 C1022 C 0.16104 0.73326 0.40315
 C1023 C 0.07147 0.71134 0.46811
 C1024 C 0.09042 0.72984 0.48167
 H1025 H 0.14543 0.71297 0.36715
 H1026 H 0.18253 0.74004 0.39317
 H1027 H 0.05079 0.70359 0.47857
 H1028 H 0.08388 0.73576 0.50224
 H1029 H 0.03825 0.67781 0.43722
 H1030 H 0.09517 0.68839 0.36421
 H1031 H 0.19754 0.76224 0.43598
 H1032 H 0.12938 0.76618 0.50218
 C1033 C 0.58315 0.91070 0.73451
 C1034 C 0.57249 0.93671 0.73440
 C1035 C 0.58738 0.95486 0.71712
 C1036 C 0.61317 0.94724 0.70068
 C1037 C 0.62403 0.92131 0.70128
 C1038 C 0.60873 0.90278 0.71794
 C1039 C 0.56697 0.89136 0.75207
 C1040 C 0.57673 0.86513 0.75137
 C1041 C 0.56036 0.84662 0.76726
 C1042 C 0.53476 0.85432 0.78404
 C1043 C 0.52642 0.88095 0.78551
 C1044 C 0.54183 0.89942 0.76899
 C1045 C 0.61820 0.87646 0.71819
 C1046 C 0.60233 0.85792 0.73447
 C1047 C 0.54712 0.94399 0.75152
 C1048 C 0.53220 0.92569 0.76868
 H1049 H 0.63783 0.87008 0.70546
 H1050 H 0.61014 0.83777 0.73380
 H1051 H 0.53877 0.96401 0.75166
 H1052 H 0.51269 0.93209 0.78155
 H1053 H 0.57919 0.97493 0.71657
 H1054 H 0.64382 0.91555 0.68838
 H1055 H 0.56701 0.82619 0.76614
 H1056 H 0.50729 0.88710 0.79893
 C1057 C 0.41667 0.90862 0.26881
 C1058 C 0.39301 0.92435 0.25724
 C1059 C 0.37808 0.94333 0.27350
 C1060 C 0.38715 0.94697 0.30094
 C1061 C 0.41107 0.93114 0.31215
 C1062 C 0.42573 0.91177 0.29623
 C1063 C 0.43247 0.88866 0.25182
 C1064 C 0.45585 0.87274 0.26349
 C1065 C 0.47107 0.85401 0.24716
 C1066 C 0.46412 0.85201 0.21906
 C1067 C 0.44021 0.86781 0.20780
 C1068 C 0.42418 0.88610 0.22414
 C1069 C 0.44930 0.89552 0.30715
 C1070 C 0.46400 0.87623 0.29109
 C1071 C 0.38498 0.92091 0.22960
 C1072 C 0.40043 0.90221 0.21328
 H1073 H 0.45646 0.89773 0.32829
 H1074 H 0.48215 0.86416 0.30026
 H1075 H 0.36679 0.93295 0.22043
 H1076 H 0.39379 0.90040 0.19197
 H1077 H 0.35981 0.95555 0.26469
 H1078 H 0.41802 0.93370 0.33332
 H1079 H 0.48905 0.84156 0.25603
 H1080 H 0.43478 0.86637 0.18619
 C1081 C 0.58351 0.08923 0.26693
 C1082 C 0.57267 0.06325 0.26696
 C1083 C 0.58718 0.04503 0.28423
 C1084 C 0.61278 0.05256 0.30072
 C1085 C 0.62380 0.07849 0.30023
 C1086 C 0.60888 0.09708 0.28359
 C1087 C 0.56782 0.10863 0.24930
 C1088 C 0.57781 0.13482 0.25004
 C1089 C 0.56200 0.15336 0.23396
 C1090 C 0.53678 0.14572 0.21693
 C1091 C 0.52815 0.11913 0.21552
 C1092 C 0.54297 0.10063 0.23222
 C1093 C 0.61854 0.12339 0.28343
 C1094 C 0.60312 0.14197 0.26709
 C1095 C 0.54754 0.05605 0.24975
 C1096 C 0.53310 0.07439 0.23251
 H1097 H 0.63799 0.12971 0.29624
 H1098 H 0.61108 0.16210 0.26781
 H1099 H 0.53903 0.03605 0.24955
 H1100 H 0.51379 0.06805 0.21954
 H1101 H 0.57887 0.02496 0.28468
 H1102 H 0.64345 0.08418 0.31316
 H1103 H 0.56885 0.17376 0.23508
 H1104 H 0.50932 0.11300 0.20193
 C1105 C 0.41690 0.09271 0.72885
 C1106 C 0.39278 0.07679 0.73972
 C1107 C 0.37874 0.05777 0.72300
 C1108 C 0.38915 0.05427 0.69581
 C1109 C 0.41344 0.07036 0.68527
 C1110 C 0.42725 0.08976 0.70165
 C1111 C 0.43195 0.11257 0.74640
 C1112 C 0.45595 0.12858 0.73548
 C1113 C 0.47065 0.14703 0.75241
 C1114 C 0.46257 0.14865 0.78038
 C1115 C 0.43795 0.13288 0.79085
 C1116 C 0.42247 0.11485 0.77390
 C1117 C 0.45130 0.10617 0.69146
 C1118 C 0.46531 0.12534 0.70805
 C1119 C 0.38348 0.08001 0.76718
 C1120 C 0.39820 0.09862 0.78402
 H1121 H 0.45944 0.10412 0.67049
 H1122 H 0.48391 0.13749 0.69945
 H1123 H 0.36492 0.06783 0.77581
 H1124 H 0.39062 0.10023 0.80518
 H1125 H 0.36020 0.04535 0.73131
 H1126 H 0.42143 0.06791 0.66430
 H1127 H 0.48922 0.15945 0.74417
 H1128 H 0.43167 0.13402 0.81236
 C1129 C 0.58061 0.72679 0.09591
 C1130 C 0.60528 0.73599 0.07906
 C1131 C 0.61892 0.71907 0.05975
 C1132 C 0.60755 0.69333 0.05678
 C1133 C 0.58272 0.68443 0.07380
 C1134 C 0.56932 0.70104 0.09357
 C1135 C 0.56591 0.74461 0.11600
 C1136 C 0.54129 0.73540 0.13290
 C1137 C 0.52681 0.75265 0.15141
 C1138 C 0.53565 0.77922 0.15202
 C1139 C 0.56095 0.78795 0.13547
 C1140 C 0.57625 0.77068 0.11746
 C1141 C 0.54470 0.69252 0.11091
 C1142 C 0.53102 0.70938 0.13033
 C1143 C 0.61548 0.76204 0.08158
 C1144 C 0.60107 0.77914 0.10034
 H1145 H 0.53582 0.67269 0.10936
 H1146 H 0.51192 0.70211 0.14315
 H1147 H 0.63446 0.76937 0.06866
 H1148 H 0.60929 0.79919 0.10132
 H1149 H 0.63784 0.72614 0.04657
 H1150 H 0.57395 0.66460 0.07172
 H1151 H 0.50766 0.74576 0.16444
 H1152 H 0.56784 0.80837 0.13584
 C1153 C 0.42262 0.26969 0.09154
 C1154 C 0.39577 0.28362 0.10043
 C1155 C 0.38075 0.30076 0.08220
 C1156 C 0.39330 0.30463 0.05581
 C1157 C 0.42054 0.29099 0.04741
 C1158 C 0.43498 0.27307 0.06502
 C1159 C 0.43817 0.25129 0.11037
 C1160 C 0.46423 0.23666 0.10111
 C1161 C 0.47879 0.21910 0.11902
 C1162 C 0.46901 0.21749 0.14660
 C1163 C 0.44259 0.23212 0.15547
 C1164 C 0.42681 0.24881 0.13730
 C1165 C 0.46138 0.25834 0.05662
 C1166 C 0.47556 0.24024 0.07428
 C1167 C 0.38469 0.28021 0.12737
 C1168 C 0.40015 0.26330 0.14558
 H1169 H 0.47103 0.26072 0.03617
 H1170 H 0.49584 0.22922 0.06700
 H1171 H 0.36410 0.29090 0.13453
 H1172 H 0.39109 0.26150 0.16629
 H1173 H 0.35979 0.31142 0.08860
 H1174 H 0.42999 0.29394 0.02697
 H1175 H 0.49843 0.20730 0.11178
 H1176 H 0.43474 0.23086 0.17659
 C1177 C 0.58077 0.27059 0.90549
 C1178 C 0.60549 0.26107 0.92180
 C1179 C 0.62024 0.27794 0.94044
 C1180 C 0.60991 0.30397 0.94325
 C1181 C 0.58496 0.31317 0.92684
 C1182 C 0.57048 0.29660 0.90773
 C1183 C 0.56508 0.25289 0.88596
 C1184 C 0.54060 0.26248 0.86943
 C1185 C 0.52549 0.24548 0.85116
 C1186 C 0.53362 0.21878 0.85038
 C1187 C 0.55859 0.20959 0.86675
 C1188 C 0.57454 0.22662 0.88448
 C1189 C 0.54582 0.30546 0.89090
 C1190 C 0.53125 0.28871 0.87196
 C1191 C 0.61469 0.23478 0.91939
 C1192 C 0.59934 0.21780 0.90117
 H1193 H 0.53770 0.32549 0.89240
 H1194 H 0.51223 0.29628 0.85945
 H1195 H 0.63369 0.22719 0.93192
 H1196 H 0.60688 0.19759 0.90019
 H1197 H 0.63925 0.27067 0.95318
 H1198 H 0.57702 0.33323 0.92881
 H1199 H 0.50666 0.25274 0.83823
 H1200 H 0.56493 0.18907 0.86626
 C1201 C 0.41757 0.73195 0.91006
 C1202 C 0.42953 0.72934 0.93669
 C1203 C 0.41547 0.71127 0.95453
 C1204 C 0.38905 0.69659 0.94619
 C1205 C 0.37686 0.69967 0.91968
 C1206 C 0.39148 0.71707 0.90127
 C1207 C 0.43288 0.75040 0.89095
 C1208 C 0.42202 0.75211 0.86389
 C1209 C 0.43777 0.76875 0.84542
 C1210 C 0.46378 0.78391 0.85409
 C1211 C 0.47297 0.78312 0.88176
 C1212 C 0.45837 0.76575 0.90002
 C1213 C 0.38083 0.71974 0.87421
 C1214 C 0.39602 0.73678 0.85577
 C1215 C 0.45527 0.74488 0.94494
 C1216 C 0.46926 0.76297 0.92698
 H1217 H 0.36083 0.70833 0.86713
 H1218 H 0.38735 0.73796 0.83497
 H1219 H 0.46461 0.74309 0.96547
 H1220 H 0.48908 0.77457 0.93412
 H1221 H 0.42467 0.70887 0.97505
 H1222 H 0.35658 0.68817 0.91332
 H1223 H 0.43040 0.76940 0.82422
 H1224 H 0.49236 0.79530 0.88876
 C1225 C 0.71815 0.90478 0.42447
 C1226 C 0.68496 0.90654 0.42332
 C1227 C 0.67108 0.92686 0.40825
 C1228 C 0.69024 0.94484 0.39388
 C1229 C 0.72347 0.94269 0.39520
 C1230 C 0.73757 0.92284 0.41067
 C1231 C 0.73289 0.88346 0.44019
 C1232 C 0.76609 0.88193 0.44160
 C1233 C 0.77997 0.86172 0.45670
 C1234 C 0.76091 0.84299 0.46994
 C1235 C 0.72773 0.84431 0.46771
 C1236 C 0.71353 0.86484 0.45325
 C1237 C 0.77068 0.92061 0.41250
 C1238 C 0.78470 0.90057 0.42782
 C1239 C 0.66636 0.88774 0.43696
 C1240 C 0.68041 0.86715 0.45152
 H1241 H 0.78590 0.93448 0.40199
 H1242 H 0.81033 0.89957 0.42873
 H1243 H 0.64074 0.88882 0.43618
 H1244 H 0.66521 0.85298 0.46158
 H1245 H 0.64549 0.92829 0.40712
 H1246 H 0.73834 0.95658 0.38433
 H1247 H 0.80557 0.86045 0.45819
 H1248 H 0.71311 0.82934 0.47708
 C1249 C 0.28650 0.90338 0.57361
 C1250 C 0.31927 0.90314 0.57854
 C1251 C 0.33289 0.92373 0.59343
 C1252 C 0.31374 0.94386 0.60406
 C1253 C 0.28093 0.94370 0.59912
 C1254 C 0.26722 0.92368 0.58356
 C1255 C 0.27202 0.88184 0.55797
 C1256 C 0.23938 0.88243 0.55252
 C1257 C 0.22579 0.86203 0.53745
 C1258 C 0.24447 0.84096 0.52851
 C1259 C 0.27695 0.84021 0.53468
 C1260 C 0.29104 0.86096 0.54898
 C1261 C 0.23462 0.92348 0.57782
 C1262 C 0.22097 0.90330 0.56237
 C1263 C 0.33762 0.88216 0.56881
 C1264 C 0.32370 0.86133 0.55446
 H1265 H 0.21955 0.93909 0.58528
 H1266 H 0.19576 0.90391 0.55833
 H1267 H 0.36291 0.88172 0.57255
 H1268 H 0.33864 0.84542 0.54752
 H1269 H 0.35815 0.92373 0.59745
 H1270 H 0.26621 0.95932 0.60715
 H1271 H 0.20066 0.86230 0.53286
 H1272 H 0.29115 0.82373 0.52800
 C1273 C 0.27610 0.09424 0.42335
 C1274 C 0.30918 0.09131 0.42415
 C1275 C 0.32348 0.07158 0.40849
 C1276 C 0.30498 0.05523 0.39172
 C1277 C 0.27186 0.05854 0.39104
 C1278 C 0.25725 0.07790 0.40702
 C1279 C 0.26094 0.11493 0.43981
 C1280 C 0.22782 0.11769 0.43928
 C1281 C 0.21353 0.13733 0.45508
 C1282 C 0.23222 0.15423 0.47104
 C1283 C 0.26539 0.15164 0.47078
 C1284 C 0.27988 0.13172 0.45557
 C1285 C 0.22420 0.08129 0.40696
 C1286 C 0.20972 0.10078 0.42291
 C1287 C 0.32730 0.10831 0.44041
 C1288 C 0.31290 0.12827 0.45574
 H1289 H 0.20940 0.06874 0.39451
 H1290 H 0.18416 0.10273 0.42231
 H1291 H 0.35284 0.10626 0.44116
 H1292 H 0.32773 0.14106 0.46791
 H1293 H 0.34901 0.06925 0.40896
 H1294 H 0.25747 0.04591 0.37831
 H1295 H 0.18797 0.13950 0.45510
 H1296 H 0.27986 0.16526 0.48220
 C1297 C 0.71812 0.09619 0.57715
 C1298 C 0.68532 0.09644 0.58233
 C1299 C 0.67161 0.07584 0.59724
 C1300 C 0.69067 0.05566 0.60768
 C1301 C 0.72355 0.05587 0.60259
 C1302 C 0.73735 0.07591 0.58695
 C1303 C 0.73262 0.11763 0.56125
 C1304 C 0.76524 0.11695 0.55530
 C1305 C 0.77873 0.13708 0.53958
 C1306 C 0.75993 0.15795 0.53046
 C1307 C 0.72766 0.15900 0.53767
 C1308 C 0.71362 0.13847 0.55240
 C1309 C 0.76997 0.07610 0.58094
 C1310 C 0.78363 0.09616 0.56517
 C1311 C 0.66702 0.11743 0.57277
 C1312 C 0.68098 0.13821 0.55828
 H1313 H 0.78504 0.06053 0.58834
 H1314 H 0.80883 0.09546 0.56082
 H1315 H 0.64172 0.11790 0.57672
 H1316 H 0.66605 0.15409 0.55141
 H1317 H 0.64633 0.07584 0.60138
 H1318 H 0.73825 0.04028 0.61051
 H1319 H 0.80376 0.13661 0.53441
 H1320 H 0.71348 0.17556 0.53137
 C1321 C 0.89050 0.57695 0.28631
 C1322 C 0.89397 0.57106 0.31420
 C1323 C 0.91622 0.58507 0.32972
 C1324 C 0.93466 0.60495 0.31748
 C1325 C 0.93043 0.61079 0.28957
 C1326 C 0.90861 0.59672 0.27386
 C1327 C 0.86786 0.56183 0.26970
 C1328 C 0.86522 0.56724 0.24164
 C1329 C 0.84463 0.55223 0.22570
 C1330 C 0.82651 0.53203 0.23758
 C1331 C 0.82859 0.52739 0.26595
 C1332 C 0.84970 0.54200 0.28205
 C1333 C 0.90492 0.60181 0.24582
 C1334 C 0.88366 0.58723 0.22995
 C1335 C 0.87533 0.55112 0.32588
 C1336 C 0.85350 0.53689 0.31010
 H1337 H 0.91882 0.61700 0.23599
 H1338 H 0.88176 0.59157 0.20832
 H1339 H 0.87774 0.54638 0.34738
 H1340 H 0.83974 0.52159 0.31988
 H1341 H 0.91925 0.58047 0.35119
 H1342 H 0.94463 0.62589 0.27989
 H1343 H 0.84331 0.55575 0.20386
 H1344 H 0.81445 0.51203 0.27523
 C1345 C 0.88776 0.43265 0.70437
 C1346 C 0.87751 0.41062 0.68964
 C1347 C 0.89978 0.39596 0.67473
 C1348 C 0.93175 0.40368 0.67412
 C1349 C 0.94157 0.42613 0.68832
 C1350 C 0.91969 0.44053 0.70386
 C1351 C 0.86478 0.44734 0.72121
 C1352 C 0.87535 0.46852 0.73702
 C1353 C 0.85366 0.48180 0.75377
 C1354 C 0.82132 0.47484 0.75379
 C1355 C 0.81112 0.45357 0.73777
 C1356 C 0.83283 0.43957 0.72162
 C1357 C 0.92920 0.46223 0.71946
 C1358 C 0.90744 0.47588 0.73591
 C1359 C 0.84534 0.40347 0.69053
 C1360 C 0.82334 0.41781 0.70610
 H1361 H 0.95376 0.46847 0.71926
 H1362 H 0.91580 0.49231 0.74789
 H1363 H 0.83713 0.38659 0.67917
 H1364 H 0.79877 0.41162 0.70626
 H1365 H 0.89245 0.37850 0.66386
 H1366 H 0.96639 0.43171 0.68808
 H1367 H 0.86187 0.49759 0.76674
 H1368 H 0.78633 0.44794 0.73800
 C1369 C 0.10534 0.57170 0.71525
 C1370 C 0.10765 0.57141 0.68655
 C1371 C 0.08559 0.58563 0.67111
 C1372 C 0.06208 0.60062 0.68430
 C1373 C 0.06028 0.60081 0.71308
 C1374 C 0.08162 0.58614 0.72866
 C1375 C 0.12832 0.55675 0.73160
 C1376 C 0.12558 0.55665 0.76027
 C1377 C 0.14722 0.54214 0.77570
 C1378 C 0.17170 0.52817 0.76268
 C1379 C 0.17484 0.52920 0.73402
 C1380 C 0.15274 0.54302 0.71829
 C1381 C 0.07976 0.58568 0.75738
 C1382 C 0.10126 0.57105 0.77291
 C1383 C 0.13216 0.55715 0.67395
 C1384 C 0.15447 0.54336 0.68955
 H1385 H 0.06147 0.59667 0.76794
 H1386 H 0.09893 0.57114 0.79501
 H1387 H 0.13428 0.55681 0.65184
 H1388 H 0.17310 0.53274 0.67903
 H1389 H 0.08718 0.58559 0.64895
 H1390 H 0.04205 0.61216 0.72332
 H1391 H 0.14505 0.54157 0.79782
 H1392 H 0.19445 0.51937 0.72406
 C1393 C 0.11327 0.42513 0.29042
 C1394 C 0.11240 0.42672 0.31913
 C1395 C 0.08908 0.41268 0.33364
 C1396 C 0.06731 0.39675 0.31955
 C1397 C 0.06880 0.39525 0.29078
 C1398 C 0.09150 0.40957 0.27611
 C1399 C 0.13737 0.44008 0.27502
 C1400 C 0.13768 0.43892 0.24629
 C1401 C 0.16017 0.45358 0.23172
 C1402 C 0.18249 0.46904 0.24565
 C1403 C 0.18261 0.46930 0.27445
 C1404 C 0.15963 0.45524 0.28928
 C1405 C 0.09275 0.40872 0.24738
 C1406 C 0.11536 0.42326 0.23271
 C1407 C 0.13495 0.44225 0.33268
 C1408 C 0.15827 0.45614 0.31801
 H1409 H 0.07601 0.39682 0.23613
 H1410 H 0.11541 0.42219 0.21056
 H1411 H 0.13463 0.44361 0.35481
 H1412 H 0.17523 0.46785 0.32926
 H1413 H 0.08813 0.41383 0.35578
 H1414 H 0.05192 0.38324 0.27976
 H1415 H 0.16017 0.45326 0.20952
 H1416 H 0.20048 0.48039 0.28523
   
