data_POSCAR
  _audit_creation_date              2014-09-24
  _audit_creation_method            'ToBaCCo'
  _symmetry_space_group_name_H-M    'P1'
  _symmetry_Int_Tables_number       1
  _symmetry_cell_setting            triclinic
  loop_
  _symmetry_equiv_pos_as_xyz
 x,y,z
_cell_length_a 53.2811
_cell_length_b 53.4497
_cell_length_c 47.8043
_cell_angle_alpha 90.035000
_cell_angle_beta 89.884300
_cell_angle_gamma 89.166500
loop_
  _atom_site_label
  _atom_site_type_symbol
  _atom_site_fract_x
  _atom_site_fract_y
  _atom_site_fract_z
C1 C -0.07817 0.27764 -0.01176
 C2 C -0.07786 0.27758 0.01689
 C3 C -0.05591 0.28925 0.02499
 N4 N -0.04263 0.29608 0.00218
 C5 C -0.05627 0.28903 -0.02024
 C6 C -0.04864 0.29401 0.05301
 C7 C -0.02341 0.29959 0.05987
 C8 C -0.01560 0.31066 0.08460
 C9 C 0.01019 0.31130 0.08372
 C10 C 0.01743 0.30087 0.05837
 N11 N -0.00311 0.29393 0.04388
 C12 C 0.04251 0.29611 0.05012
 C13 C 0.04926 0.29074 0.02220
 C14 C 0.07187 0.27995 0.01393
 C15 C 0.07154 0.27919 -0.01471
 C16 C 0.04892 0.29004 -0.02304
 N17 N 0.03523 0.29689 -0.00035
 C18 C 0.04119 0.29390 -0.05110
 C19 C 0.01582 0.29979 -0.05747
 C20 C 0.00748 0.31094 -0.08206
 C21 C -0.01830 0.31098 -0.08117
 C22 C -0.02495 0.30015 -0.05595
 N23 N -0.00411 0.29370 -0.04145
 C24 C -0.04959 0.29381 -0.04825
 H25 H -0.09269 0.26990 -0.02483
 H26 H -0.09207 0.26954 0.03020
 H27 H -0.00358 0.28267 -0.02350
 H28 H -0.02726 0.31747 0.10162
 H29 H 0.02225 0.31843 0.09998
 H30 H 0.08687 0.27303 0.02719
 H31 H 0.08620 0.27124 -0.02780
 H32 H -0.03075 0.31771 -0.09746
 H33 H -0.00309 0.28336 0.02557
 H34 H 0.01882 0.31789 -0.09910
 C35 C 0.57776 0.79538 0.50774
 C36 C 0.57619 0.79589 0.47912
 C37 C 0.55103 0.79341 0.47245
 N38 N 0.53724 0.79121 0.49610
 C39 C 0.55351 0.79265 0.51772
 C40 C 0.54158 0.79084 0.44496
 C41 C 0.51568 0.78896 0.43893
 C42 C 0.50580 0.77983 0.41418
 C43 C 0.48008 0.78180 0.41644
 C44 C 0.47494 0.79272 0.44218
 N45 N 0.49677 0.79705 0.45570
 C46 C 0.45073 0.79958 0.45216
 C47 C 0.44653 0.80698 0.48014
 C48 C 0.42513 0.81926 0.48982
 C49 C 0.42678 0.81958 0.51845
 C50 C 0.44907 0.80738 0.52523
 N51 N 0.46119 0.79986 0.50179
 C52 C 0.45647 0.80050 0.55253
 C53 C 0.48140 0.79280 0.55868
 C54 C 0.48913 0.78145 0.58333
 C55 C 0.51478 0.77865 0.58170
 C56 C 0.52202 0.78779 0.55579
 N57 N 0.50159 0.79661 0.54203
 C58 C 0.54709 0.78924 0.54618
 H59 H 0.59493 0.79625 0.51973
 H60 H 0.59195 0.79719 0.46490
 H61 H 0.50177 0.80705 0.52367
 H62 H 0.51592 0.77235 0.39635
 H63 H 0.46681 0.77598 0.40072
 H64 H 0.40968 0.82665 0.47753
 H65 H 0.41285 0.82729 0.53267
 H66 H 0.52661 0.77074 0.59788
 H67 H 0.49882 0.80726 0.47407
 H68 H 0.47762 0.77587 0.60085
 C69 C 0.92590 0.70613 -0.01192
 C70 C 0.92663 0.70774 0.01672
 C71 C 0.95006 0.71678 0.02354
 N72 N 0.96345 0.72128 0.00006
 C73 C 0.94857 0.71518 -0.02175
 C74 C 0.95800 0.72323 0.05069
 C75 C 0.98346 0.72729 0.05709
 C76 C 0.99213 0.74005 0.08029
 C77 C 1.01791 0.73827 0.07960
 C78 C 1.02430 0.72362 0.05656
 N79 N 1.00311 0.71736 0.04275
 C80 C 1.04898 0.71580 0.04874
 C81 C 1.05370 0.70715 0.02118
 C82 C 1.07401 0.69238 0.01280
 C83 C 1.07316 0.69120 -0.01586
 C84 C 1.05221 0.70501 -0.02390
 N85 N 1.04018 0.71449 -0.00129
 C86 C 1.04587 0.71144 -0.05157
 C87 C 1.02134 0.71973 -0.05819
 C88 C 1.01458 0.73330 -0.08175
 C89 C 0.98883 0.73550 -0.08133
 C90 C 0.98059 0.72299 -0.05764
 N91 N 1.00058 0.71388 -0.04336
 C92 C 0.95515 0.71906 -0.05025
 H93 H 0.91034 0.69919 -0.02400
 H94 H 0.91160 0.70279 0.03082
 H95 H 0.99995 0.70193 -0.02613
 H96 H 0.98114 0.74981 0.09603
 H97 H 1.03038 0.74693 0.09443
 H98 H 1.08822 0.68381 0.02597
 H99 H 1.08660 0.68166 -0.02927
 H100 H 0.97747 0.74514 -0.09679
 H101 H 1.00187 0.70492 0.02602
 H102 H 1.02688 0.74079 -0.09761
 C103 C 0.42185 0.22855 0.51122
 C104 C 0.42204 0.22626 0.48262
 C105 C 0.44563 0.21706 0.47531
 N106 N 0.45975 0.21351 0.49844
 C107 C 0.44530 0.22064 0.52038
 C108 C 0.45342 0.21094 0.44786
 C109 C 0.47875 0.20576 0.44076
 C110 C 0.48671 0.19496 0.41584
 C111 C 0.51253 0.19526 0.41598
 C112 C 0.51962 0.20624 0.44098
 N113 N 0.49893 0.21251 0.45599
 C114 C 0.54457 0.21213 0.44827
 C115 C 0.55182 0.21808 0.47588
 C116 C 0.57486 0.22770 0.48351
 C117 C 0.57462 0.22979 0.51214
 C118 C 0.55145 0.22140 0.52099
 N119 N 0.53762 0.21412 0.49884
 C120 C 0.54362 0.21966 0.54914
 C121 C 0.51866 0.21438 0.55682
 C122 C 0.51115 0.20695 0.58330
 C123 C 0.48536 0.20681 0.58317
 C124 C 0.47788 0.21414 0.55661
 N125 N 0.49829 0.21854 0.54062
 C126 C 0.45281 0.21905 0.54861
 H127 H 0.40625 0.23532 0.52377
 H128 H 0.40661 0.23094 0.46880
 H129 H 0.49823 0.22738 0.52125
 H130 H 0.47511 0.18795 0.39909
 H131 H 0.52469 0.18853 0.39935
 H132 H 0.59020 0.23283 0.46990
 H133 H 0.58972 0.23679 0.52492
 H134 H 0.47345 0.20240 0.60081
 H135 H 0.49854 0.22367 0.47381
 H136 H 0.52301 0.20269 0.60108
 C137 C 0.73155 -0.08104 -0.01877
 C138 C 0.73108 -0.08119 0.00988
 C139 C 0.71880 -0.05935 0.01817
 N140 N 0.71210 -0.04566 -0.00453
 C141 C 0.71964 -0.05907 -0.02715
 C142 C 0.71379 -0.05224 0.04627
 C143 C 0.70814 -0.02695 0.05314
 C144 C 0.69617 -0.01885 0.07743
 C145 C 0.69710 0.00686 0.07754
 C146 C 0.70926 0.01373 0.05316
 N147 N 0.71562 -0.00692 0.03821
 C148 C 0.71620 0.03834 0.04630
 C149 C 0.72264 0.04518 0.01879
 C150 C 0.73463 0.06700 0.01136
 C151 C 0.73575 0.06719 -0.01729
 C152 C 0.72400 0.04565 -0.02639
 N153 N 0.71623 0.03208 -0.00425
 C154 C 0.71944 0.03914 -0.05464
 C155 C 0.71287 0.01438 -0.06198
 C156 C 0.70025 0.00771 -0.08617
 C157 C 0.69890 -0.01793 -0.08620
 C158 C 0.71079 -0.02627 -0.06207
 N159 N 0.71877 -0.00643 -0.04709
 C160 C 0.71555 -0.05172 -0.05527
 H161 H 0.74026 -0.09522 -0.03190
 H162 H 0.73942 -0.09550 0.02304
 H163 H 0.73008 -0.00725 -0.02933
 H164 H 0.68806 -0.03030 0.09367
 H165 H 0.68998 0.01907 0.09388
 H166 H 0.74190 0.08123 0.02515
 H167 H 0.74427 0.08156 -0.02994
 H168 H 0.69030 -0.02918 -0.10227
 H169 H 0.72723 -0.00747 0.02064
 H170 H 0.69277 0.02005 -0.10214
 C171 C 0.22988 0.42471 0.48496
 C172 C 0.23079 0.42557 0.51362
 C173 C 0.22257 0.44931 0.52134
 N174 N 0.21671 0.46297 0.49841
 C175 C 0.22127 0.44800 0.47615
 C176 C 0.21934 0.45772 0.54913
 C177 C 0.21404 0.48299 0.55578
 C178 C 0.20460 0.49135 0.58121
 C179 C 0.20428 0.51707 0.58011
 C180 C 0.21369 0.52365 0.55410
 N181 N 0.21949 0.50276 0.53936
 C182 C 0.21864 0.54838 0.54549
 C183 C 0.22372 0.55481 0.51743
 C184 C 0.23286 0.57764 0.50864
 C185 C 0.23385 0.57672 0.47998
 C186 C 0.22513 0.55340 0.47224
 N187 N 0.21890 0.54007 0.49516
 C188 C 0.22145 0.54534 0.44441
 C189 C 0.21547 0.52042 0.43756
 C190 C 0.20577 0.51276 0.41212
 C191 C 0.20410 0.48711 0.41329
 C192 C 0.21299 0.47981 0.43934
 N193 N 0.21983 0.50024 0.45401
 C194 C 0.21656 0.45472 0.44805
 H195 H 0.23511 0.40880 0.47209
 H196 H 0.23682 0.41044 0.52717
 H197 H 0.22975 0.50018 0.47271
 H198 H 0.19884 0.48009 0.59884
 H199 H 0.19827 0.52949 0.59679
 H200 H 0.23827 0.59331 0.52153
 H201 H 0.24015 0.59158 0.46642
 H202 H 0.19745 0.47518 0.39666
 H203 H 0.22964 0.50202 0.52077
 H204 H 0.20060 0.52443 0.39450
 C205 C 0.30133 0.92427 0.01378
 C206 C 0.30152 0.92313 -0.01485
 C207 C 0.29644 0.94719 -0.02450
 N208 N 0.29292 0.96284 -0.00253
 C209 C 0.29603 0.94892 0.02085
 C210 C 0.29139 0.95371 -0.05273
 C211 C 0.28665 0.97884 -0.06107
 C212 C 0.27542 0.98643 -0.08594
 C213 C 0.27640 1.01206 -0.08677
 C214 C 0.28926 1.01956 -0.06310
 N215 N 0.29506 0.99923 -0.04736
 C216 C 0.29638 1.04442 -0.05670
 C217 C 0.30311 1.05063 -0.02899
 C218 C 0.31794 1.07059 -0.02128
 C219 C 0.31726 1.07168 0.00735
 C220 C 0.30216 1.05226 0.01610
 N221 N 0.29385 1.03914 -0.00610
 C222 C 0.29409 1.04827 0.04390
 C223 C 0.28781 1.02377 0.05274
 C224 C 0.27432 1.01764 0.07660
 C225 C 0.27409 0.99197 0.07812
 C226 C 0.28645 0.98303 0.05453
 N227 N 0.29480 1.00249 0.03923
 C228 C 0.29098 0.95753 0.04826
 H229 H 0.30367 0.90846 0.02770
 H230 H 0.30387 0.90616 -0.02696
 H231 H 0.30668 1.00127 0.02191
 H232 H 0.26744 0.97504 -0.10221
 H233 H 0.26864 1.02368 -0.10323
 H234 H 0.32783 1.08326 -0.03492
 H235 H 0.32646 1.08538 0.02031
 H236 H 0.26541 0.98127 0.09460
 H237 H 0.30668 0.99909 -0.02984
 H238 H 0.26538 1.03020 0.09144
 C239 C 0.79213 0.41660 0.51440
 C240 C 0.79105 0.41546 0.48579
 C241 C 0.78781 0.43983 0.47639
 N242 N 0.78657 0.45575 0.49837
 C243 C 0.78937 0.44162 0.52163
 C244 C 0.78357 0.44672 0.44822
 C245 C 0.78189 0.47191 0.43921
 C246 C 0.77242 0.47971 0.41359
 C247 C 0.77501 0.50524 0.41249
 C248 C 0.78649 0.51236 0.43720
 N249 N 0.79064 0.49191 0.45335
 C250 C 0.79398 0.53699 0.44378
 C251 C 0.80040 0.54412 0.47129
 C252 C 0.81197 0.56626 0.47855
 C253 C 0.81155 0.56753 0.50722
 C254 C 0.79984 0.54608 0.51649
 N255 N 0.79316 0.53175 0.49451
 C256 C 0.79284 0.54130 0.54447
 C257 C 0.78645 0.51698 0.55363
 C258 C 0.77535 0.51136 0.57910
 C259 C 0.77424 0.48573 0.58075
 C260 C 0.78396 0.47633 0.55588
 N261 N 0.79158 0.49547 0.53960
 C262 C 0.78674 0.45063 0.54931
 H263 H 0.79384 0.40068 0.52826
 H264 H 0.79185 0.39848 0.47348
 H265 H 0.80205 0.49375 0.52128
 H266 H 0.76447 0.46831 0.39725
 H267 H 0.76918 0.51710 0.39529
 H268 H 0.81941 0.58029 0.46462
 H269 H 0.81860 0.58272 0.51981
 H270 H 0.76690 0.47534 0.59828
 H271 H 0.80123 0.49133 0.47160
 H272 H 0.76881 0.52427 0.59505
 O273 O 0.23482 0.26872 0.28005
 O274 O 0.24837 0.21226 0.23781
 O275 O 0.26979 0.23438 0.27945
 O276 O 0.21232 0.24595 0.23882
 O277 O 0.23343 0.26956 0.20947
 O278 O 0.29142 0.25680 0.24938
 O279 O 0.26870 0.23557 0.20739
 O280 O 0.25682 0.29124 0.25042
 Cu281 Cu 0.23908 0.23806 0.26199
 Cu282 Cu 0.26471 0.26555 0.22612
 C283 C 0.24395 0.28957 0.27268
 C284 C 0.26078 0.21443 0.21524
 C285 C 0.29042 0.24360 0.27146
 C286 C 0.21297 0.25974 0.21721
 O287 O 0.76400 0.71995 0.21171
 O288 O 0.70638 0.73190 0.25237
 O289 O 0.72573 0.75064 0.20628
 O290 O 0.74511 0.70235 0.25753
 O291 O 0.76354 0.73152 0.28264
 O292 O 0.74546 0.77911 0.23096
 O293 O 0.72544 0.76140 0.27627
 O294 O 0.78356 0.74880 0.23612
 Cu295 Cu 0.73330 0.72341 0.22941
 Cu296 Cu 0.75655 0.75804 0.25892
 C297 C 0.78359 0.73234 0.21690
 C298 C 0.70612 0.74841 0.27151
 C299 C 0.73257 0.77314 0.20976
 C300 C 0.75719 0.70893 0.27914
 O301 O 0.80116 0.22626 0.25163
 O302 O 0.74768 0.20960 0.29658
 O303 O 0.76805 0.19093 0.25105
 O304 O 0.78097 0.24492 0.29657
 O305 O 0.75502 0.26833 0.27148
 O306 O 0.74318 0.21468 0.22514
 O307 O 0.72253 0.23290 0.27048
 O308 O 0.77605 0.25033 0.22635
 Cu309 Cu 0.77692 0.21548 0.27654
 Cu310 Cu 0.74668 0.24386 0.24572
 C311 C 0.79777 0.24131 0.23138
 C312 C 0.72597 0.21860 0.29137
 C313 C 0.75362 0.19362 0.23010
 C314 C 0.77008 0.26581 0.29188
 O315 O 0.26093 0.77800 0.22124
 O316 O 0.25026 0.72405 0.26783
 O317 O 0.22950 0.74156 0.22201
 O318 O 0.28243 0.76074 0.26582
 O319 O 0.25648 0.78336 0.29201
 O320 O 0.20325 0.76365 0.24836
 O321 O 0.22445 0.74723 0.29341
 O322 O 0.23428 0.80058 0.24653
 Cu323 Cu 0.25839 0.74867 0.24175
 Cu324 Cu 0.22713 0.77612 0.27271
 C325 C 0.24904 0.79838 0.22575
 C326 C 0.23541 0.72644 0.28857
 C327 C 0.20743 0.74943 0.22752
 C328 C 0.27848 0.77534 0.28633
 O329 O 0.75974 0.27181 0.72469
 O330 O 0.74744 0.21790 0.77092
 O331 O 0.72965 0.23406 0.72336
 O332 O 0.77886 0.25470 0.77126
 O333 O 0.75126 0.27772 0.79460
 O334 O 0.70161 0.25668 0.74660
 O335 O 0.71981 0.24090 0.79427
 O336 O 0.73141 0.29412 0.74793
 Cu337 Cu 0.75676 0.24235 0.74528
 Cu338 Cu 0.72327 0.26959 0.77329
 C339 C 0.74721 0.29202 0.72815
 C340 C 0.73155 0.22032 0.79067
 C341 C 0.70729 0.24208 0.72648
 C342 C 0.77360 0.26958 0.79119
 O343 O 0.24076 0.78823 0.75726
 O344 O 0.23177 0.73029 0.71741
 O345 O 0.21310 0.74902 0.76311
 O346 O 0.25965 0.76893 0.71094
 O347 O 0.28995 0.75107 0.73567
 O348 O 0.24346 0.73148 0.78804
 O349 O 0.26192 0.71181 0.74169
 O350 O 0.27134 0.77004 0.78120
 Cu351 Cu 0.23334 0.76105 0.73473
 Cu352 Cu 0.26968 0.73912 0.76405
 C353 C 0.25736 0.78896 0.77629
 C354 C 0.24543 0.71119 0.72252
 C355 C 0.22044 0.73723 0.78472
 C356 C 0.28266 0.76315 0.71426
 O357 O 0.21122 0.25093 0.76661
 O358 O 0.26169 0.23154 0.71828
 O359 O 0.24614 0.21617 0.76686
 O360 O 0.22714 0.26627 0.71793
 O361 O 0.25327 0.29193 0.73869
 O362 O 0.27092 0.24260 0.78864
 O363 O 0.28756 0.25708 0.73967
 O364 O 0.23678 0.27730 0.78715
 Cu365 Cu 0.23393 0.23862 0.74035
 Cu366 Cu 0.26478 0.26978 0.76561
 C367 C 0.21535 0.26737 0.78520
 C368 C 0.28324 0.24117 0.72057
 C369 C 0.26144 0.22104 0.78638
 C370 C 0.23724 0.28761 0.71974
 O371 O 0.72901 0.75542 0.71798
 O372 O 0.78256 0.74371 0.76531
 O373 O 0.76617 0.72358 0.71866
 O374 O 0.74535 0.77547 0.76404
 O375 O 0.72097 0.74979 0.78740
 O376 O 0.74562 0.69694 0.74521
 O377 O 0.75860 0.71969 0.79146
 O378 O 0.70705 0.72745 0.74109
 Cu379 Cu 0.75812 0.75209 0.73898
 Cu380 Cu 0.73071 0.72075 0.76860
 C381 C 0.70907 0.74297 0.72112
 C382 C 0.77924 0.73061 0.78715
 C383 C 0.75950 0.70143 0.72422
 C384 C 0.72971 0.77155 0.78359
 C385 C 0.27825 0.11303 0.06827
 C386 C 0.28370 0.11198 0.09713
 C387 C 0.29207 0.08881 0.10834
 C388 C 0.29642 0.06809 0.09073
 C389 C 0.29095 0.06931 0.06195
 C390 C 0.28160 0.09213 0.05124
 C391 C 0.29580 0.08638 0.13711
 C392 C 0.29050 0.10622 0.15513
 C393 C 0.28237 0.12973 0.14484
 C394 C 0.28044 0.13301 0.11525
 C395 C 0.27591 0.15730 0.10467
 C396 C 0.27231 0.17756 0.12241
 C397 C 0.27222 0.17432 0.15132
 C398 C 0.27669 0.15030 0.16305
 C399 C 0.27470 0.14784 0.19249
 C400 C 0.26914 0.16856 0.20940
 C401 C 0.26591 0.19233 0.19760
 C402 C 0.26752 0.19507 0.16857
 H403 H 0.27027 0.12942 0.05841
 H404 H 0.30435 0.05106 0.09955
 H405 H 0.27598 0.09374 0.02954
 H406 H 0.30232 0.06876 0.14588
 H407 H 0.29378 0.10284 0.17705
 H408 H 0.27594 0.16144 0.08261
 H409 H 0.26915 0.19593 0.11335
 H410 H 0.27666 0.13006 0.20295
 H411 H 0.26771 0.16605 0.23183
 H412 H 0.26450 0.21339 0.15930
 C413 C 0.77217 0.60443 0.57341
 C414 C 0.78248 0.60445 0.60064
 C415 C 0.79590 0.58278 0.60952
 C416 C 0.80033 0.56279 0.59088
 C417 C 0.78987 0.56307 0.56395
 C418 C 0.77552 0.58395 0.55567
 C419 C 0.80436 0.58102 0.63708
 C420 C 0.79892 0.59989 0.65635
 C421 C 0.78589 0.62193 0.64834
 C422 C 0.77910 0.62489 0.61961
 C423 C 0.76965 0.64833 0.61063
 C424 C 0.76586 0.66790 0.62933
 C425 C 0.77031 0.66458 0.65782
 C426 C 0.77985 0.64138 0.66793
 C427 C 0.78213 0.63841 0.69728
 C428 C 0.77543 0.65784 0.71562
 C429 C 0.76709 0.68095 0.70525
 C430 C 0.76481 0.68428 0.67635
 H431 H 0.76044 0.61950 0.56569
 H432 H 0.81131 0.54665 0.59758
 H433 H 0.76663 0.58434 0.53531
 H434 H 0.81471 0.56457 0.64404
 H435 H 0.80594 0.59710 0.67727
 H436 H 0.76584 0.65240 0.58895
 H437 H 0.75878 0.68566 0.62146
 H438 H 0.78809 0.62099 0.70670
 H439 H 0.77694 0.65486 0.73797
 H440 H 0.75773 0.70201 0.66834
 C441 C 0.72959 0.91741 0.11452
 C442 C 0.71992 0.89304 0.11134
 C443 C 0.70775 0.88739 0.08582
 C444 C 0.70536 0.90554 0.06466
 C445 C 0.71528 0.92961 0.06800
 C446 C 0.72729 0.93518 0.09333
 C447 C 0.69816 0.86359 0.08138
 C448 C 0.70085 0.84494 0.10143
 C449 C 0.71314 0.84941 0.12706
 C450 C 0.72231 0.87405 0.13235
 C451 C 0.73361 0.87888 0.15845
 C452 C 0.73674 0.86022 0.17829
 C453 C 0.72880 0.83596 0.17308
 C454 C 0.71671 0.83010 0.14757
 C455 C 0.70912 0.80500 0.14360
 C456 C 0.71381 0.78668 0.16391
 C457 C 0.72612 0.79265 0.18883
 C458 C 0.73325 0.81745 0.19333
 H459 H 0.73957 0.92333 0.13286
 H460 H 0.69543 0.90096 0.04559
 H461 H 0.73586 0.95323 0.09649
 H462 H 0.68868 0.85920 0.06198
 H463 H 0.69297 0.82713 0.09613
 H464 H 0.74028 0.89702 0.16442
 H465 H 0.74575 0.86483 0.19792
 H466 H 0.69990 0.79875 0.12490
 H467 H 0.70809 0.76766 0.15984
 H468 H 0.74274 0.82241 0.21255
 C469 C 0.24377 0.42577 0.61435
 C470 C 0.22841 0.40442 0.61654
 C471 C 0.20969 0.40112 0.59585
 C472 C 0.20644 0.41871 0.57428
 C473 C 0.22199 0.43951 0.57245
 C474 C 0.24056 0.44292 0.59264
 C475 C 0.19448 0.38014 0.59656
 C476 C 0.19777 0.36189 0.61693
 C477 C 0.21633 0.36405 0.63782
 C478 C 0.23134 0.38608 0.63815
 C479 C 0.24875 0.38905 0.66009
 C480 C 0.25219 0.37078 0.68034
 C481 C 0.23862 0.34872 0.67955
 C482 C 0.22043 0.34495 0.65841
 C483 C 0.20752 0.32194 0.65854
 C484 C 0.21270 0.30359 0.67861
 C485 C 0.23080 0.30748 0.69930
 C486 C 0.24347 0.33026 0.69975
 H487 H 0.25882 0.42959 0.62864
 H488 H 0.19201 0.41611 0.55861
 H489 H 0.25285 0.45885 0.59138
 H490 H 0.18002 0.37761 0.58092
 H491 H 0.18521 0.34634 0.61582
 H492 H 0.25998 0.40548 0.66247
 H493 H 0.26590 0.37387 0.69666
 H494 H 0.19366 0.31723 0.64312
 H495 H 0.20265 0.28615 0.67769
 H496 H 0.25760 0.33351 0.71559
 C497 C 0.89035 0.30168 0.09076
 C498 C 0.89430 0.28730 0.11526
 C499 C 0.91852 0.27659 0.11936
 C500 C 0.93759 0.27977 0.09938
 C501 C 0.93298 0.29304 0.07450
 C502 C 0.90928 0.30437 0.07087
 C503 C 0.92347 0.26216 0.14304
 C504 C 0.90469 0.25723 0.16234
 C505 C 0.88001 0.26669 0.15880
 C506 C 0.87493 0.28264 0.13534
 C507 C 0.85057 0.29309 0.13253
 C508 C 0.83155 0.28743 0.15122
 C509 C 0.83587 0.27108 0.17342
 C510 C 0.86015 0.26057 0.17776
 C511 C 0.86329 0.24394 0.20062
 C512 C 0.84316 0.23796 0.21802
 C513 C 0.81922 0.24826 0.21338
 C514 C 0.81582 0.26500 0.19113
 H515 H 0.87273 0.31071 0.08587
 H516 H 0.95568 0.27061 0.10247
 H517 H 0.90530 0.31543 0.05236
 H518 H 0.94203 0.25416 0.14646
 H519 H 0.91021 0.24581 0.17987
 H520 H 0.84541 0.30579 0.11600
 H521 H 0.81309 0.29574 0.14799
 H522 H 0.88092 0.23487 0.20546
 H523 H 0.84638 0.22497 0.23506
 H524 H 0.79739 0.27316 0.18731
 C525 C 0.42146 0.80792 0.62164
 C526 C 0.39927 0.79429 0.61675
 C527 C 0.39578 0.78408 0.58969
 C528 C 0.41468 0.78573 0.56938
 C529 C 0.43672 0.79892 0.57465
 C530 C 0.43968 0.81042 0.60074
 C531 C 0.37345 0.77224 0.58297
 C532 C 0.35420 0.77058 0.60242
 C533 C 0.35700 0.77974 0.62991
 C534 C 0.38038 0.79063 0.63759
 C535 C 0.38445 0.79648 0.66601
 C536 C 0.36630 0.79185 0.68623
 C537 C 0.34296 0.78241 0.67879
 C538 C 0.33758 0.77730 0.65033
 C539 C 0.31289 0.77003 0.64349
 C540 C 0.29490 0.76647 0.66429
 C541 C 0.30101 0.76960 0.69248
 C542 C 0.32497 0.77784 0.69965
 H543 H 0.42491 0.81745 0.64111
 H544 H 0.41217 0.77685 0.54919
 H545 H 0.45627 0.82124 0.60503
 H546 H 0.37070 0.76439 0.56230
 H547 H 0.33767 0.76089 0.59567
 H548 H 0.40205 0.80358 0.67347
 H549 H 0.37052 0.79590 0.70793
 H550 H 0.30681 0.76739 0.62221
 H551 H 0.27632 0.76043 0.65836
 H552 H 0.32953 0.78085 0.72149
 C553 C 0.11317 0.72915 0.07598
 C554 C 0.11088 0.72400 0.10482
 C555 C 0.08709 0.71668 0.11497
 C556 C 0.06700 0.71305 0.09642
 C557 C 0.06947 0.71819 0.06765
 C558 C 0.09287 0.72656 0.05798
 C559 C 0.08341 0.71333 0.14364
 C560 C 0.10255 0.71813 0.16257
 C561 C 0.12658 0.72535 0.15339
 C562 C 0.13119 0.72671 0.12397
 C563 C 0.15603 0.73023 0.11462
 C564 C 0.17553 0.73364 0.13337
 C565 C 0.17093 0.73455 0.16206
 C566 C 0.14633 0.73088 0.17255
 C567 C 0.14244 0.73371 0.20172
 C568 C 0.16225 0.73973 0.21953
 C569 C 0.18657 0.74247 0.20900
 C570 C 0.19082 0.73958 0.18029
 H571 H 0.13011 0.73637 0.06687
 H572 H 0.04943 0.70604 0.10449
 H573 H 0.09539 0.73204 0.03635
 H574 H 0.06533 0.70756 0.15160
 H575 H 0.09820 0.71524 0.18435
 H576 H 0.16116 0.72964 0.09280
 H577 H 0.19434 0.73615 0.12524
 H578 H 0.12415 0.73232 0.21123
 H579 H 0.15855 0.74216 0.24167
 H580 H 0.20955 0.74224 0.17197
 C581 C 0.57432 0.24812 0.61258
 C582 C 0.59551 0.23229 0.61691
 C583 C 0.59979 0.21259 0.59747
 C584 C 0.58300 0.20860 0.57533
 C585 C 0.56197 0.22423 0.57184
 C586 C 0.55790 0.24406 0.59044
 C587 C 0.62076 0.19693 0.60020
 C588 C 0.63797 0.20056 0.62153
 C589 C 0.63469 0.21991 0.64141
 C590 C 0.61269 0.23553 0.63957
 C591 C 0.60846 0.25369 0.66059
 C592 C 0.62554 0.25723 0.68203
 C593 C 0.64764 0.24306 0.68334
 C594 C 0.65262 0.22416 0.66313
 C595 C 0.67566 0.21074 0.66522
 C596 C 0.69298 0.21619 0.68614
 C597 C 0.68797 0.23500 0.70586
 C598 C 0.66504 0.24808 0.70458
 H599 H 0.56998 0.26402 0.62565
 H600 H 0.58615 0.19324 0.56084
 H601 H 0.54180 0.25646 0.58780
 H602 H 0.62405 0.18177 0.58551
 H603 H 0.65355 0.18753 0.62205
 H604 H 0.59188 0.26541 0.66136
 H605 H 0.62152 0.27151 0.69759
 H606 H 0.68127 0.19635 0.65064
 H607 H 0.71059 0.20581 0.68660
 H608 H 0.66104 0.26283 0.71959
 C609 C 0.73521 0.07150 0.87838
 C610 C 0.72536 0.09595 0.88284
 C611 C 0.71218 0.10049 0.90816
 C612 C 0.71005 0.08166 0.92843
 C613 C 0.72075 0.05778 0.92424
 C614 C 0.73286 0.05286 0.89865
 C615 C 0.70127 0.12386 0.91335
 C616 C 0.70325 0.14310 0.89408
 C617 C 0.71659 0.13985 0.86875
 C618 C 0.72813 0.11598 0.86318
 C619 C 0.74251 0.11313 0.83849
 C620 C 0.74562 0.13283 0.81993
 C621 C 0.73428 0.15609 0.82488
 C622 C 0.71924 0.15986 0.84909
 C623 C 0.70754 0.18361 0.85258
 C624 C 0.71136 0.20286 0.83344
 C625 C 0.72688 0.19927 0.81007
 C626 C 0.73810 0.17569 0.80578
 H627 H 0.74486 0.06607 0.85947
 H628 H 0.69962 0.08555 0.94750
 H629 H 0.74138 0.03468 0.89463
 H630 H 0.69113 0.12740 0.93268
 H631 H 0.69447 0.16054 0.90010
 H632 H 0.75217 0.09597 0.83309
 H633 H 0.75711 0.12981 0.80146
 H634 H 0.69519 0.18805 0.86978
 H635 H 0.70222 0.22079 0.83721
 H636 H 0.74994 0.17258 0.78760
 C637 C 0.24485 0.57996 0.38056
 C638 C 0.22933 0.60176 0.38024
 C639 C 0.21030 0.60381 0.40097
 C640 C 0.20727 0.58497 0.42108
 C641 C 0.22330 0.56405 0.42152
 C642 C 0.24184 0.56151 0.40094
 C643 C 0.19460 0.62483 0.40191
 C644 C 0.19779 0.64445 0.38336
 C645 C 0.21690 0.64381 0.36283
 C646 C 0.23237 0.62176 0.36060
 C647 C 0.25039 0.62053 0.33890
 C648 C 0.25373 0.64036 0.32054
 C649 C 0.23957 0.66237 0.32319
 C650 C 0.22101 0.66450 0.34442
 C651 C 0.20767 0.68751 0.34666
 C652 C 0.21244 0.70728 0.32853
 C653 C 0.23060 0.70502 0.30742
 C654 C 0.24406 0.68240 0.30481
 H655 H 0.25988 0.57681 0.36584
 H656 H 0.19280 0.58684 0.43698
 H657 H 0.25441 0.54539 0.40104
 H658 H 0.17982 0.62632 0.41749
 H659 H 0.18472 0.65985 0.38562
 H660 H 0.26222 0.60434 0.33532
 H661 H 0.26784 0.63853 0.30426
 H662 H 0.19369 0.69114 0.36250
 H663 H 0.20177 0.72453 0.33117
 H664 H 0.25829 0.68045 0.28868
 C665 C 0.31136 0.90127 0.90086
 C666 C 0.28877 0.89523 0.88701
 C667 C 0.26705 0.90982 0.89335
 C668 C 0.26787 0.92877 0.91363
 C669 C 0.29040 0.93449 0.92711
 C670 C 0.31208 0.92056 0.92050
 C671 C 0.24456 0.90546 0.87947
 C672 C 0.24311 0.88710 0.85903
 C673 C 0.26405 0.87180 0.85217
 C674 C 0.28700 0.87534 0.86709
 C675 C 0.30716 0.85845 0.86221
 C676 C 0.30506 0.83881 0.84341
 C677 C 0.28311 0.83559 0.82811
 C678 C 0.26255 0.85244 0.83157
 C679 C 0.24131 0.84914 0.81424
 C680 C 0.24008 0.82906 0.79562
 C681 C 0.25986 0.81163 0.79366
 C682 C 0.28151 0.81528 0.80961
 H683 H 0.32896 0.89185 0.89661
 H684 H 0.25084 0.93904 0.91913
 H685 H 0.32977 0.92480 0.93046
 H686 H 0.22789 0.91651 0.88431
 H687 H 0.22495 0.88482 0.84960
 H688 H 0.32467 0.85932 0.87336
 H689 H 0.32085 0.82598 0.84082
 H690 H 0.22540 0.86179 0.81440
 H691 H 0.22325 0.82683 0.78326
 H692 H 0.29713 0.80213 0.80782
 C693 C 0.75097 0.40243 0.39873
 C694 C 0.77101 0.38697 0.38905
 C695 C 0.79532 0.39142 0.39985
 C696 C 0.79939 0.41140 0.41833
 C697 C 0.77934 0.42652 0.42745
 C698 C 0.75514 0.42169 0.41783
 C699 C 0.81540 0.37575 0.39244
 C700 C 0.81183 0.35523 0.37514
 C701 C 0.78804 0.35002 0.36373
 C702 C 0.76763 0.36691 0.36962
 C703 C 0.74469 0.36351 0.35548
 C704 C 0.74151 0.34382 0.33691
 C705 C 0.76071 0.32627 0.33235
 C706 C 0.78409 0.32876 0.34612
 C707 C 0.80234 0.30953 0.34215
 C708 C 0.79765 0.28912 0.32476
 C709 C 0.77488 0.28735 0.31040
 C710 C 0.75652 0.30606 0.31423
 H711 H 0.73175 0.39960 0.39269
 H712 H 0.81808 0.41487 0.42626
 H713 H 0.73937 0.43290 0.42524
 H714 H 0.83405 0.37914 0.40050
 H715 H 0.82834 0.34415 0.37037
 H716 H 0.72898 0.37628 0.35767
 H717 H 0.72365 0.34211 0.32632
 H718 H 0.82015 0.30934 0.35279
 H719 H 0.81203 0.27474 0.32233
 H720 H 0.73863 0.30453 0.30361
 C721 C 0.07054 0.27431 0.88124
 C722 C 0.09498 0.28421 0.88325
 C723 C 0.10059 0.29867 0.90725
 C724 C 0.08271 0.30219 0.92856
 C725 C 0.05885 0.29148 0.92676
 C726 C 0.05294 0.27792 0.90254
 C727 C 0.12411 0.30940 0.91009
 C728 C 0.14253 0.30579 0.88988
 C729 C 0.13823 0.29102 0.86589
 C730 C 0.11404 0.28007 0.86249
 C731 C 0.10988 0.26495 0.83875
 C732 C 0.12869 0.26028 0.81928
 C733 C 0.15237 0.27059 0.82240
 C734 C 0.15747 0.28643 0.84545
 C735 C 0.18177 0.29675 0.84715
 C736 C 0.20023 0.29089 0.82736
 C737 C 0.19523 0.27464 0.80514
 C738 C 0.17111 0.26482 0.80263
 H739 H 0.06435 0.26348 0.86365
 H740 H 0.08733 0.31356 0.94659
 H741 H 0.03480 0.26919 0.90045
 H742 H 0.12844 0.32060 0.92833
 H743 H 0.16016 0.31461 0.89403
 H744 H 0.09230 0.25599 0.83470
 H745 H 0.12466 0.24826 0.80161
 H746 H 0.18728 0.30934 0.86352
 H747 H 0.21865 0.29892 0.82975
 H748 H 0.16693 0.25237 0.78539
 C749 C 0.59110 0.80899 0.39227
 C750 C 0.59808 0.78571 0.38012
 C751 C 0.58441 0.76431 0.38829
 C752 C 0.56590 0.76607 0.40922
 C753 C 0.55992 0.78913 0.42156
 C754 C 0.57228 0.81058 0.41258
 C755 C 0.58946 0.74123 0.37578
 C756 C 0.60780 0.73877 0.35523
 C757 C 0.62251 0.75927 0.34697
 C758 C 0.61812 0.78293 0.36030
 C759 C 0.63452 0.80273 0.35419
 C760 C 0.65452 0.79958 0.33578
 C761 C 0.65857 0.77690 0.32198
 C762 C 0.64214 0.75666 0.32662
 C763 C 0.64615 0.73461 0.31066
 C764 C 0.66641 0.73240 0.29219
 C765 C 0.68344 0.75190 0.28907
 C766 C 0.67919 0.77425 0.30377
 H767 H 0.59959 0.82637 0.38632
 H768 H 0.55619 0.74947 0.41611
 H769 H 0.56762 0.82859 0.42178
 H770 H 0.57906 0.72482 0.38190
 H771 H 0.61069 0.72019 0.34699
 H772 H 0.63302 0.82075 0.36421
 H773 H 0.66697 0.81515 0.33230
 H774 H 0.63385 0.71882 0.31174
 H775 H 0.66910 0.71502 0.28083
 H776 H 0.69202 0.78964 0.30107
 C777 C 0.92342 0.70999 0.88067
 C778 C 0.89949 0.72100 0.88519
 C779 C 0.89408 0.73055 0.91222
 C780 C 0.91261 0.73061 0.93307
 C781 C 0.93643 0.71962 0.92845
 C782 C 0.94132 0.70911 0.90194
 C783 C 0.87015 0.73994 0.91840
 C784 C 0.85114 0.73925 0.89861
 C785 C 0.85568 0.73016 0.87130
 C786 C 0.88061 0.72238 0.86400
 C787 C 0.88598 0.71698 0.83567
 C788 C 0.86744 0.71856 0.81527
 C789 C 0.84265 0.72437 0.82246
 C790 C 0.83627 0.72937 0.85078
 C791 C 0.81059 0.73290 0.85749
 C792 C 0.79226 0.73253 0.83673
 C793 C 0.79890 0.72918 0.80866
 C794 C 0.82411 0.72512 0.80155
 H795 H 0.92852 0.70100 0.86124
 H796 H 0.90847 0.73973 0.95284
 H797 H 0.95898 0.69954 0.89770
 H798 H 0.86591 0.74745 0.93897
 H799 H 0.83321 0.74695 0.90498
 H800 H 0.90468 0.71245 0.82843
 H801 H 0.87251 0.71477 0.79369
 H802 H 0.80403 0.73529 0.87869
 H803 H 0.77278 0.73546 0.84260
 H804 H 0.82918 0.72203 0.77982
 C805 C 0.39500 0.19357 0.40782
 C806 C 0.39492 0.21087 0.38533
 C807 C 0.41574 0.22700 0.38287
 C808 C 0.43500 0.22647 0.40288
 C809 C 0.43410 0.20997 0.42553
 C810 C 0.41427 0.19324 0.42754
 C811 C 0.41704 0.24391 0.36078
 C812 C 0.39788 0.24569 0.34122
 C813 C 0.37631 0.23072 0.34314
 C814 C 0.37483 0.21298 0.36555
 C815 C 0.35300 0.19845 0.36791
 C816 C 0.33309 0.20146 0.34954
 C817 C 0.33410 0.21880 0.32786
 C818 C 0.35586 0.23334 0.32386
 C819 C 0.35597 0.25015 0.30092
 C820 C 0.33502 0.25300 0.28360
 C821 C 0.31328 0.23927 0.28845
 C822 C 0.31315 0.22190 0.31038
 H823 H 0.38044 0.18012 0.41099
 H824 H 0.45050 0.23934 0.40126
 H825 H 0.41352 0.18012 0.44477
 H826 H 0.43298 0.25615 0.35871
 H827 H 0.40038 0.25948 0.32511
 H828 H 0.35036 0.18485 0.38418
 H829 H 0.31655 0.19018 0.35255
 H830 H 0.37184 0.26150 0.29576
 H831 H 0.33572 0.26642 0.26666
 H832 H 0.29654 0.21089 0.31413
 C833 C 0.73059 0.91735 0.87639
 C834 C 0.72007 0.89334 0.87958
 C835 C 0.70731 0.88832 0.90497
 C836 C 0.70569 0.90647 0.92622
 C837 C 0.71660 0.93010 0.92297
 C838 C 0.72885 0.93524 0.89760
 C839 C 0.69629 0.86513 0.90918
 C840 C 0.69799 0.84649 0.88900
 C841 C 0.71096 0.85024 0.86358
 C842 C 0.72202 0.87414 0.85869
 C843 C 0.73499 0.87790 0.83328
 C844 C 0.73777 0.85890 0.81370
 C845 C 0.72764 0.83540 0.81839
 C846 C 0.71369 0.83075 0.84309
 C847 C 0.70348 0.80657 0.84637
 C848 C 0.70795 0.78773 0.82661
 C849 C 0.72259 0.79224 0.80284
 C850 C 0.73191 0.81634 0.79862
 H851 H 0.74057 0.92299 0.85790
 H852 H 0.69544 0.90231 0.94525
 H853 H 0.73797 0.95300 0.89440
 H854 H 0.68638 0.86123 0.92849
 H855 H 0.68911 0.82916 0.89423
 H856 H 0.74361 0.89532 0.82786
 H857 H 0.74826 0.86261 0.79473
 H858 H 0.69225 0.80138 0.86413
 H859 H 0.70038 0.76934 0.83039
 H860 H 0.74313 0.82018 0.78021
 C861 C 0.19851 0.39528 0.41042
 C862 C 0.21593 0.39422 0.38799
 C863 C 0.23251 0.41458 0.38485
 C864 C 0.23242 0.43427 0.40426
 C865 C 0.21563 0.43449 0.42676
 C866 C 0.19843 0.41512 0.42941
 C867 C 0.24937 0.41508 0.36257
 C868 C 0.25034 0.39577 0.34322
 C869 C 0.23471 0.37475 0.34567
 C870 C 0.21757 0.37372 0.36874
 C871 C 0.20323 0.35192 0.37227
 C872 C 0.20559 0.33178 0.35407
 C873 C 0.22189 0.33264 0.33128
 C874 C 0.23623 0.35436 0.32629
 C875 C 0.25160 0.35465 0.30211
 C876 C 0.25354 0.33385 0.28460
 C877 C 0.24025 0.31203 0.29039
 C878 C 0.22414 0.31171 0.31358
 H879 H 0.18457 0.38121 0.41383
 H880 H 0.24566 0.44938 0.40212
 H881 H 0.18503 0.41525 0.44649
 H882 H 0.26205 0.43061 0.36008
 H883 H 0.26421 0.39759 0.32698
 H884 H 0.19044 0.34946 0.38947
 H885 H 0.19453 0.31526 0.35796
 H886 H 0.26231 0.37066 0.29594
 H887 H 0.26589 0.33479 0.26662
 H888 H 0.21346 0.29506 0.31804
 C889 C 0.29971 0.07731 0.87405
 C890 C 0.29015 0.10141 0.88069
 C891 C 0.28481 0.10669 0.90912
 C892 C 0.28675 0.08784 0.92941
 C893 C 0.29533 0.06356 0.92253
 C894 C 0.30251 0.05892 0.89465
 C895 C 0.27723 0.13069 0.91722
 C896 C 0.27510 0.14980 0.89772
 C897 C 0.27942 0.14534 0.86900
 C898 C 0.28586 0.12048 0.86019
 C899 C 0.28669 0.11529 0.83124
 C900 C 0.28147 0.13379 0.81156
 C901 C 0.27643 0.15838 0.81986
 C902 C 0.27640 0.16471 0.84868
 C903 C 0.27350 0.19026 0.85596
 C904 C 0.26940 0.20845 0.83552
 C905 C 0.26763 0.20178 0.80733
 C906 C 0.27133 0.17675 0.79953
 H907 H 0.30587 0.07233 0.85326
 H908 H 0.28069 0.09205 0.95058
 H909 H 0.31067 0.04102 0.88867
 H910 H 0.27309 0.13483 0.93897
 H911 H 0.26882 0.16770 0.90566
 H912 H 0.29017 0.09673 0.82316
 H913 H 0.28161 0.12881 0.78957
 H914 H 0.27485 0.19685 0.87722
 H915 H 0.26696 0.22780 0.84187
 H916 H 0.27058 0.17167 0.77758
 C917 C 0.80221 0.57110 0.37458
 C918 C 0.78799 0.59338 0.37887
 C919 C 0.77736 0.59741 0.40573
 C920 C 0.77913 0.57889 0.42641
 C921 C 0.79276 0.55668 0.42165
 C922 C 0.80476 0.55324 0.39580
 C923 C 0.76490 0.61986 0.41185
 C924 C 0.76304 0.63871 0.39199
 C925 C 0.77265 0.63536 0.36469
 C926 C 0.78414 0.61185 0.35760
 C927 C 0.79042 0.60723 0.32934
 C928 C 0.78572 0.62504 0.30871
 C929 C 0.77580 0.64855 0.31561
 C930 C 0.77014 0.65440 0.34389
 C931 C 0.76239 0.67920 0.35024
 C932 C 0.75907 0.69693 0.32914
 C933 C 0.76288 0.69046 0.30110
 C934 C 0.77140 0.66630 0.29439
 H935 H 0.81210 0.56727 0.35531
 H936 H 0.76986 0.58176 0.44640
 H937 H 0.81589 0.53647 0.39190
 H938 H 0.75670 0.62302 0.43235
 H939 H 0.75285 0.65536 0.39828
 H940 H 0.79794 0.58948 0.32230
 H941 H 0.79017 0.62043 0.28716
 H942 H 0.75929 0.68561 0.37137
 H943 H 0.75280 0.71566 0.33472
 H944 H 0.77493 0.66146 0.27268
 C945 C 0.07963 0.70208 0.87892
 C946 C 0.10319 0.71315 0.88391
 C947 C 0.10806 0.72209 0.91125
 C948 C 0.08927 0.72184 0.93183
 C949 C 0.06582 0.71133 0.92641
 C950 C 0.06142 0.70099 0.89996
 C951 C 0.13161 0.73136 0.91794
 C952 C 0.15069 0.73174 0.89814
 C953 C 0.14656 0.72385 0.87036
 C954 C 0.12210 0.71552 0.86282
 C955 C 0.11704 0.71092 0.83431
 C956 C 0.13523 0.71441 0.81386
 C957 C 0.15948 0.72145 0.82108
 C958 C 0.16580 0.72518 0.84957
 C959 C 0.19118 0.73009 0.85603
 C960 C 0.20902 0.73288 0.83489
 C961 C 0.20214 0.73120 0.80675
 C962 C 0.17742 0.72512 0.79994
 H963 H 0.07496 0.69354 0.85921
 H964 H 0.09291 0.72990 0.95222
 H965 H 0.04370 0.69217 0.89549
 H966 H 0.13544 0.73821 0.93884
 H967 H 0.16822 0.73948 0.90492
 H968 H 0.09871 0.70576 0.82697
 H969 H 0.13029 0.71143 0.79213
 H970 H 0.19788 0.73156 0.87722
 H971 H 0.22815 0.73724 0.84058
 H972 H 0.17217 0.72324 0.77814
 C973 C 0.57953 0.23057 0.38268
 C974 C 0.60153 0.21535 0.38381
 C975 C 0.60407 0.19857 0.40665
 C976 C 0.58521 0.19708 0.42713
 C977 C 0.56385 0.21256 0.42577
 C978 C 0.56112 0.22917 0.40338
 C979 C 0.62558 0.18361 0.40922
 C980 C 0.64513 0.18542 0.39013
 C981 C 0.64382 0.20215 0.36730
 C982 C 0.62127 0.21667 0.36352
 C983 C 0.61922 0.23205 0.33961
 C984 C 0.63886 0.23415 0.32073
 C985 C 0.66143 0.22123 0.32493
 C986 C 0.66432 0.20494 0.34814
 C987 C 0.68788 0.19265 0.35150
 C988 C 0.70762 0.19671 0.33283
 C989 C 0.70462 0.21301 0.31012
 C990 C 0.68130 0.22491 0.30613
 H991 H 0.57618 0.24423 0.36653
 H992 H 0.58730 0.18420 0.44453
 H993 H 0.54478 0.24141 0.40216
 H994 H 0.62751 0.17059 0.42649
 H995 H 0.66102 0.17321 0.39379
 H996 H 0.60252 0.24269 0.33464
 H997 H 0.63646 0.24637 0.30281
 H998 H 0.69196 0.18023 0.36867
 H999 H 0.72544 0.18729 0.33648
 H1000 H 0.67872 0.23764 0.28869
 C1001 C 0.91783 0.27059 0.88670
 C1002 C 0.89461 0.28388 0.88718
 C1003 C 0.89022 0.30078 0.90962
 C1004 C 0.90859 0.30438 0.93024
 C1005 C 0.93131 0.29093 0.92938
 C1006 C 0.93574 0.27409 0.90748
 C1007 C 0.86743 0.31379 0.91159
 C1008 C 0.84849 0.30998 0.89219
 C1009 C 0.85173 0.29316 0.86963
 C1010 C 0.87549 0.28055 0.86657
 C1011 C 0.87939 0.26508 0.84297
 C1012 C 0.86049 0.26112 0.82368
 C1013 C 0.83687 0.27221 0.82710
 C1014 C 0.83204 0.28847 0.84999
 C1015 C 0.80750 0.29890 0.85247
 C1016 C 0.78872 0.29312 0.83321
 C1017 C 0.79370 0.27689 0.81081
 C1018 C 0.81796 0.26677 0.80778
 H1019 H 0.92260 0.25690 0.87098
 H1020 H 0.90513 0.31742 0.94726
 H1021 H 0.95311 0.26331 0.90669
 H1022 H 0.86403 0.32686 0.92858
 H1023 H 0.83150 0.32077 0.89539
 H1024 H 0.89702 0.25583 0.83852
 H1025 H 0.86435 0.24892 0.80600
 H1026 H 0.80197 0.31116 0.86933
 H1027 H 0.77013 0.30118 0.83612
 H1028 H 0.82209 0.25414 0.79056
 C1029 C 0.38648 0.77990 0.42744
 C1030 C 0.38437 0.79134 0.40089
 C1031 C 0.40539 0.80445 0.39052
 C1032 C 0.42678 0.80765 0.40732
 C1033 C 0.42830 0.79657 0.43385
 C1034 C 0.40817 0.78226 0.44337
 C1035 C 0.40498 0.81406 0.36339
 C1036 C 0.38450 0.81017 0.34596
 C1037 C 0.36304 0.79753 0.35555
 C1038 C 0.36239 0.78948 0.38403
 C1039 C 0.33963 0.78040 0.39493
 C1040 C 0.31855 0.77802 0.37818
 C1041 C 0.31959 0.78362 0.34973
 C1042 C 0.34200 0.79299 0.33782
 C1043 C 0.34269 0.79650 0.30847
 C1044 C 0.32195 0.79093 0.29186
 C1045 C 0.29972 0.78253 0.30401
 C1046 C 0.29848 0.77928 0.33297
 H1047 H 0.37203 0.76826 0.43604
 H1048 H 0.44238 0.81852 0.39966
 H1049 H 0.40922 0.77291 0.46345
 H1050 H 0.42090 0.82421 0.35530
 H1051 H 0.38562 0.81809 0.32527
 H1052 H 0.33731 0.77574 0.41671
 H1053 H 0.30142 0.77110 0.38747
 H1054 H 0.35933 0.80245 0.29763
 H1055 H 0.32327 0.79316 0.26938
 H1056 H 0.28142 0.77215 0.34226
 C1057 C 0.30892 0.90845 0.10186
 C1058 C 0.28533 0.90099 0.11245
 C1059 C 0.26360 0.91382 0.10255
 C1060 C 0.26550 0.93201 0.08150
 C1061 C 0.28896 0.93877 0.07102
 C1062 C 0.31061 0.92716 0.08159
 C1063 C 0.24009 0.90841 0.11365
 C1064 C 0.23759 0.89076 0.13473
 C1065 C 0.25852 0.87705 0.14486
 C1066 C 0.28258 0.88144 0.13261
 C1067 C 0.30288 0.86558 0.14018
 C1068 C 0.29987 0.84626 0.15927
 C1069 C 0.27684 0.84256 0.17241
 C1070 C 0.25604 0.85843 0.16613
 C1071 C 0.23365 0.85510 0.18162
 C1072 C 0.23176 0.83605 0.20144
 C1073 C 0.25189 0.81952 0.20623
 C1074 C 0.27446 0.82297 0.19178
 H1075 H 0.32643 0.90059 0.10923
 H1076 H 0.24873 0.94110 0.07332
 H1077 H 0.32890 0.93240 0.07381
 H1078 H 0.22342 0.91812 0.10613
 H1079 H 0.21874 0.88753 0.14192
 H1080 H 0.32121 0.86697 0.13080
 H1081 H 0.31585 0.83420 0.16396
 H1082 H 0.21743 0.86719 0.17930
 H1083 H 0.21423 0.83388 0.21264
 H1084 H 0.29029 0.81053 0.19587
 C1085 C 0.80560 0.40069 0.60149
 C1086 C 0.78231 0.39410 0.61358
 C1087 C 0.76062 0.40787 0.60520
 C1088 C 0.76215 0.42619 0.58427
 C1089 C 0.78527 0.43202 0.57225
 C1090 C 0.80696 0.41943 0.58123
 C1091 C 0.73748 0.40321 0.61760
 C1092 C 0.73531 0.38539 0.63851
 C1093 C 0.75618 0.37083 0.64727
 C1094 C 0.77982 0.37450 0.63375
 C1095 C 0.79990 0.35795 0.64014
 C1096 C 0.79709 0.33863 0.65928
 C1097 C 0.77451 0.33555 0.67359
 C1098 C 0.75398 0.35211 0.66846
 C1099 C 0.73213 0.34934 0.68496
 C1100 C 0.73040 0.33022 0.70465
 C1101 C 0.75019 0.31307 0.70847
 C1102 C 0.77231 0.31593 0.69300
 H1103 H 0.82314 0.39204 0.60757
 H1104 H 0.74536 0.43604 0.57728
 H1105 H 0.82500 0.42393 0.57218
 H1106 H 0.72084 0.41361 0.61120
 H1107 H 0.71668 0.38277 0.64669
 H1108 H 0.81787 0.35885 0.62986
 H1109 H 0.81287 0.32606 0.66308
 H1110 H 0.71619 0.36192 0.68356
 H1111 H 0.71319 0.32857 0.71658
 H1112 H 0.78791 0.30300 0.69625
 C1113 C 0.70346 0.09861 0.08603
 C1114 C 0.71961 0.09634 0.10947
 C1115 C 0.73372 0.07376 0.11226
 C1116 C 0.73212 0.05478 0.09200
 C1117 C 0.71659 0.05776 0.06863
 C1118 C 0.70207 0.07963 0.06603
 C1119 C 0.74967 0.07031 0.13503
 C1120 C 0.75236 0.08891 0.15504
 C1121 C 0.73922 0.11199 0.15305
 C1122 C 0.72246 0.11572 0.12995
 C1123 C 0.70942 0.13884 0.12787
 C1124 C 0.71287 0.15781 0.14726
 C1125 C 0.72931 0.15462 0.16964
 C1126 C 0.74255 0.13162 0.17314
 C1127 C 0.75877 0.12943 0.19652
 C1128 C 0.76200 0.14936 0.21503
 C1129 C 0.74924 0.17218 0.21107
 C1130 C 0.73272 0.17453 0.18841
 H1131 H 0.69173 0.11482 0.08229
 H1132 H 0.74337 0.03780 0.09404
 H1133 H 0.68977 0.08213 0.04820
 H1134 H 0.76040 0.05304 0.13734
 H1135 H 0.76522 0.08460 0.17174
 H1136 H 0.69649 0.14312 0.11124
 H1137 H 0.70262 0.17531 0.14455
 H1138 H 0.76939 0.11267 0.20114
 H1139 H 0.77481 0.14691 0.23241
 H1140 H 0.72260 0.19203 0.18516
 C1141 C 0.20062 0.60740 0.58481
 C1142 C 0.21810 0.60757 0.60715
 C1143 C 0.23558 0.58735 0.60886
 C1144 C 0.23555 0.56811 0.58885
 C1145 C 0.21829 0.56852 0.56687
 C1146 C 0.20079 0.58816 0.56508
 C1147 C 0.25318 0.58647 0.63035
 C1148 C 0.25425 0.60545 0.65009
 C1149 C 0.23765 0.62628 0.64915
 C1150 C 0.21904 0.62718 0.62754
 C1151 C 0.20216 0.64778 0.62687
 C1152 C 0.20381 0.66720 0.64595
 C1153 C 0.22223 0.66698 0.66657
 C1154 C 0.23924 0.64643 0.66884
 C1155 C 0.25739 0.64726 0.69048
 C1156 C 0.25895 0.66791 0.70829
 C1157 C 0.24250 0.68839 0.70531
 C1158 C 0.22391 0.68754 0.68466
 H1159 H 0.18665 0.62186 0.58172
 H1160 H 0.24912 0.55283 0.59016
 H1161 H 0.18724 0.58862 0.54822
 H1162 H 0.26647 0.57097 0.63183
 H1163 H 0.26855 0.60324 0.66580
 H1164 H 0.18740 0.64967 0.61166
 H1165 H 0.19062 0.68278 0.64431
 H1166 H 0.27094 0.63248 0.69405
 H1167 H 0.27345 0.66801 0.72413
 H1168 H 0.21094 0.70320 0.68222
 C1169 C 0.91290 0.75511 0.10105
 C1170 C 0.90128 0.73463 0.11442
 C1171 C 0.90859 0.71016 0.10584
 C1172 C 0.92756 0.70658 0.08572
 C1173 C 0.93879 0.72709 0.07286
 C1174 C 0.93118 0.75129 0.08045
 C1175 C 0.89670 0.68939 0.11709
 C1176 C 0.87701 0.69230 0.13595
 C1177 C 0.86890 0.71623 0.14503
 C1178 C 0.88220 0.73762 0.13533
 C1179 C 0.87620 0.76119 0.14712
 C1180 C 0.85709 0.76399 0.16674
 C1181 C 0.84264 0.74365 0.17473
 C1182 C 0.84808 0.71950 0.16372
 C1183 C 0.83187 0.69980 0.17113
 C1184 C 0.81125 0.70403 0.18865
 C1185 C 0.80635 0.72778 0.19988
 C1186 C 0.82236 0.74745 0.19320
 H1187 H 0.90769 0.77428 0.10536
 H1188 H 0.93326 0.68782 0.07949
 H1189 H 0.93942 0.76732 0.07028
 H1190 H 0.90235 0.67063 0.11083
 H1191 H 0.86889 0.67529 0.14366
 H1192 H 0.88644 0.77784 0.14209
 H1193 H 0.85320 0.78245 0.17526
 H1194 H 0.83400 0.68114 0.16286
 H1195 H 0.79895 0.68861 0.19335
 H1196 H 0.81834 0.76601 0.20138
 C1197 C 0.41952 0.24733 0.61118
 C1198 C 0.39872 0.23144 0.61487
 C1199 C 0.39579 0.21153 0.59553
 C1200 C 0.41340 0.20751 0.57402
 C1201 C 0.43391 0.22332 0.57103
 C1202 C 0.43675 0.24325 0.58963
 C1203 C 0.37529 0.19576 0.59767
 C1204 C 0.35724 0.19949 0.61829
 C1205 C 0.35913 0.21907 0.63800
 C1206 C 0.38062 0.23483 0.63677
 C1207 C 0.38341 0.25332 0.65760
 C1208 C 0.36545 0.25701 0.67827
 C1209 C 0.34386 0.24264 0.67898
 C1210 C 0.34030 0.22343 0.65895
 C1211 C 0.31775 0.20976 0.66048
 C1212 C 0.29959 0.21523 0.68076
 C1213 C 0.30323 0.23433 0.70032
 C1214 C 0.32561 0.24773 0.69950
 H1215 H 0.42291 0.26333 0.62425
 H1216 H 0.41122 0.19207 0.55954
 H1217 H 0.45244 0.25577 0.58738
 H1218 H 0.37304 0.18044 0.58306
 H1219 H 0.34209 0.18638 0.61836
 H1220 H 0.39950 0.26521 0.65881
 H1221 H 0.36837 0.27154 0.69371
 H1222 H 0.31321 0.19510 0.64598
 H1223 H 0.28244 0.20458 0.68086
 H1224 H 0.32860 0.26267 0.71443
 C1225 C 0.10323 0.31194 0.08659
 C1226 C 0.10409 0.29450 0.10892
 C1227 C 0.08298 0.27895 0.11273
 C1228 C 0.06263 0.28012 0.09410
 C1229 C 0.06276 0.29669 0.07148
 C1230 C 0.08292 0.31289 0.06823
 C1231 C 0.08247 0.26193 0.13477
 C1232 C 0.10263 0.25952 0.15295
 C1233 C 0.12447 0.27392 0.14963
 C1234 C 0.12522 0.29169 0.12722
 C1235 C 0.14732 0.30558 0.12341
 C1236 C 0.16808 0.30204 0.14048
 C1237 C 0.16772 0.28477 0.16227
 C1238 C 0.14583 0.27073 0.16756
 C1239 C 0.14642 0.25391 0.19046
 C1240 C 0.16801 0.25071 0.20665
 C1241 C 0.18979 0.26409 0.20073
 C1242 C 0.18937 0.28131 0.17864
 H1243 H 0.11795 0.32502 0.08251
 H1244 H 0.04694 0.26761 0.09667
 H1245 H 0.08313 0.32605 0.05100
 H1246 H 0.06633 0.25011 0.13787
 H1247 H 0.10063 0.24570 0.16912
 H1248 H 0.14948 0.31910 0.10694
 H1249 H 0.18473 0.31290 0.13642
 H1250 H 0.13058 0.24285 0.19651
 H1251 H 0.16769 0.23740 0.22372
 H1252 H 0.20602 0.29200 0.17401
 C1253 C 0.60068 0.80487 0.59467
 C1254 C 0.60719 0.78129 0.60632
 C1255 C 0.59285 0.76035 0.59815
 C1256 C 0.57376 0.76292 0.57810
 C1257 C 0.56770 0.78639 0.56685
 C1258 C 0.58114 0.80730 0.57539
 C1259 C 0.59749 0.73699 0.61016
 C1260 C 0.61568 0.73394 0.63068
 C1261 C 0.63061 0.75410 0.63943
 C1262 C 0.62710 0.77786 0.62608
 C1263 C 0.64396 0.79718 0.63244
 C1264 C 0.66326 0.79363 0.65158
 C1265 C 0.66608 0.77103 0.66586
 C1266 C 0.64943 0.75113 0.66055
 C1267 C 0.65212 0.72919 0.67692
 C1268 C 0.67113 0.72688 0.69686
 C1269 C 0.68824 0.74615 0.70099
 C1270 C 0.68554 0.76824 0.68547
 H1271 H 0.60983 0.82192 0.60057
 H1272 H 0.56319 0.74675 0.57155
 H1273 H 0.57646 0.82561 0.56702
 H1274 H 0.58668 0.72090 0.60390
 H1275 H 0.61816 0.71524 0.63870
 H1276 H 0.64327 0.81513 0.62222
 H1277 H 0.67599 0.80889 0.65546
 H1278 H 0.63955 0.71365 0.67526
 H1279 H 0.67269 0.70970 0.70879
 H1280 H 0.69844 0.78344 0.68893
   
