data_POSCAR
  _audit_creation_date              2014-09-24
  _audit_creation_method            'ToBaCCo'
  _symmetry_space_group_name_H-M    'P1'
  _symmetry_Int_Tables_number       1
  _symmetry_cell_setting            triclinic
  loop_
  _symmetry_equiv_pos_as_xyz
 x,y,z
_cell_length_a 67.9220
_cell_length_b 67.0932
_cell_length_c 66.4085
_cell_angle_alpha 90.341900
_cell_angle_beta 90.448500
_cell_angle_gamma 89.471900
loop_
  _atom_site_label
  _atom_site_type_symbol
  _atom_site_fract_x
  _atom_site_fract_y
  _atom_site_fract_z
C1 C 0.36828 1.35954 0.34543
 C2 C 0.36948 1.34569 0.36124
 C3 C 0.35611 1.34687 0.37682
 C4 C 0.34148 1.36164 0.37690
 C5 C 0.33993 1.37484 0.36117
 C6 C 0.35347 1.37382 0.34534
 C7 C 0.37867 1.36175 0.32784
 N8 N 0.37047 1.37696 0.31694
 C9 C 0.35493 1.38424 0.32769
 C10 C 0.32316 1.38610 0.36428
 N11 N 0.31451 1.38012 0.38170
 C12 C 0.32587 1.36515 0.38946
 C13 C 0.35905 1.33058 0.38884
 N14 N 0.37379 1.31928 0.38096
 C15 C 0.38047 1.32850 0.36418
 H16 H 0.39081 1.35232 0.32314
 H17 H 0.34545 1.39657 0.32342
 H18 H 0.31782 1.39776 0.35442
 H19 H 0.32252 1.35638 0.40260
 H20 H 0.35044 1.32673 0.40188
 H21 H 0.39151 1.32245 0.35412
 C22 C 0.35937 0.84873 0.83603
 C23 C 0.36075 0.83279 0.84955
 C24 C 0.34639 0.83026 0.86396
 C25 C 0.33051 0.84378 0.86516
 C26 C 0.32939 0.85964 0.85205
 C27 C 0.34376 0.86202 0.83726
 C28 C 0.37056 0.85427 0.81984
 N29 N 0.36202 0.87051 0.81113
 C30 C 0.34565 0.87538 0.82179
 C31 C 0.31262 0.87028 0.85653
 N32 N 0.30320 0.86129 0.87206
 C33 C 0.31416 0.84492 0.87730
 C34 C 0.35138 0.81340 0.87466
 N35 N 0.36845 0.80574 0.86716
 C36 C 0.37423 0.81753 0.85176
 H37 H 0.38353 0.84655 0.81433
 H38 H 0.33567 0.88760 0.81841
 H39 H 0.30744 0.88321 0.84835
 H40 H 0.31091 0.83472 0.88934
 H41 H 0.34331 0.80732 0.88716
 H42 H 0.38716 0.81505 0.84262
 C43 C 0.87216 1.36307 0.83962
 C44 C 0.87209 1.34681 0.85282
 C45 C 0.85810 1.34580 0.86786
 C46 C 0.84394 1.36112 0.86985
 C47 C 0.84430 1.37716 0.85696
 C48 C 0.85824 1.37797 0.84163
 C49 C 0.88295 1.36731 0.82271
 N50 N 0.87554 1.38426 0.81412
 C51 C 0.86044 1.39083 0.82587
 C52 C 0.82873 1.38939 0.86161
 N53 N 0.81846 1.38124 0.87699
 C54 C 0.82773 1.36378 0.88204
 C55 C 0.86111 1.32799 0.87771
 N56 N 0.87646 1.31818 0.86893
 C57 C 0.88320 1.32961 0.85368
 H58 H 0.89442 1.35788 0.81649
 H59 H 0.85151 1.40401 0.82331
 H60 H 0.82469 1.40271 0.85340
 H61 H 0.82326 1.35371 0.89377
 H62 H 0.85244 1.32234 0.88999
 H63 H 0.89531 1.32569 0.84387
 C64 C 0.86062 0.85397 0.33583
 C65 C 0.86160 0.83887 0.35046
 C66 C 0.84826 0.83903 0.36611
 C67 C 0.83396 0.85406 0.36750
 C68 C 0.83276 0.86867 0.35300
 C69 C 0.84615 0.86857 0.33702
 C70 C 0.87107 0.85749 0.31850
 N71 N 0.86318 0.87373 0.30896
 C72 C 0.84784 0.88044 0.32036
 C73 C 0.81666 0.88048 0.35756
 N74 N 0.80824 0.87336 0.37455
 C75 C 0.81876 0.85717 0.38068
 C76 C 0.85130 0.82208 0.37712
 N77 N 0.86613 0.81139 0.36863
 C78 C 0.87272 0.82160 0.35240
 H79 H 0.88302 0.84825 0.31297
 H80 H 0.83866 0.89332 0.31723
 H81 H 0.81138 0.89318 0.34905
 H82 H 0.81520 0.84791 0.39342
 H83 H 0.84292 0.81756 0.39010
 H84 H 0.88402 0.81636 0.34219
 C85 C 0.62205 0.63700 0.35223
 C86 C 0.62379 0.65348 0.36507
 C87 C 0.63942 0.65482 0.37853
 C88 C 0.65365 0.63940 0.37918
 C89 C 0.65182 0.62314 0.36636
 C90 C 0.63607 0.62207 0.35267
 C91 C 0.60929 0.63284 0.33665
 N92 N 0.61544 0.61585 0.32716
 C93 C 0.63184 0.60916 0.33710
 C94 C 0.66792 0.61100 0.36936
 N95 N 0.67964 0.61935 0.38368
 C96 C 0.67111 0.63682 0.38971
 C97 C 0.63780 0.67321 0.38792
 N98 N 0.62179 0.68292 0.38018
 C99 C 0.61318 0.67090 0.36628
 H100 H 0.59736 0.64249 0.33176
 H101 H 0.64038 0.59600 0.33331
 H102 H 0.67117 0.59734 0.36123
 H103 H 0.67718 0.64693 0.40084
 H104 H 0.64794 0.67940 0.39889
 H105 H 0.60028 0.67474 0.35737
 C106 C 0.61868 0.12513 0.85603
 C107 C 0.61888 0.14156 0.86921
 C108 C 0.63368 0.14331 0.88359
 C109 C 0.64834 0.12844 0.88516
 C110 C 0.64773 0.11211 0.87246
 C111 C 0.63308 0.11063 0.85766
 C112 C 0.60772 0.12072 0.83905
 N113 N 0.61547 0.10409 0.83003
 C114 C 0.63089 0.09780 0.84169
 C115 C 0.66407 0.10062 0.87633
 N116 N 0.67503 0.10953 0.89103
 C117 C 0.66542 0.12670 0.89644
 C118 C 0.63089 0.16135 0.89322
 N119 N 0.61473 0.17049 0.88513
 C120 C 0.60736 0.15848 0.87040
 H121 H 0.59609 0.13005 0.83294
 H122 H 0.64033 0.08507 0.83875
 H123 H 0.66815 0.08737 0.86794
 H124 H 0.67032 0.13728 0.90773
 H125 H 0.63999 0.16739 0.90519
 H126 H 0.59486 0.16205 0.86083
 C127 C 1.14645 0.65271 0.83389
 C128 C 1.14493 0.66759 0.84878
 C129 C 1.15914 0.66886 0.86374
 C130 C 1.17508 0.65548 0.86399
 C131 C 1.17650 0.64070 0.84954
 C132 C 1.16215 0.63938 0.83425
 C133 C 1.13512 0.64811 0.81723
 N134 N 1.14360 0.63243 0.80740
 C135 C 1.16013 0.62701 0.81777
 C136 C 1.19342 0.62993 0.85369
 N137 N 1.20252 0.63800 0.87021
 C138 C 1.19121 0.65372 0.87647
 C139 C 1.15404 0.68448 0.87615
 N140 N 1.13706 0.69285 0.86914
 C141 C 1.13142 0.68267 0.85231
 H142 H 1.12196 0.65597 0.81234
 H143 H 1.17001 0.61494 0.81363
 H144 H 1.19892 0.61759 0.84475
 H145 H 1.19402 0.66303 0.88951
 H146 H 1.16224 0.68955 0.88923
 H147 H 1.11831 0.68582 0.84346
 C148 C 1.12708 0.13469 0.34590
 C149 C 1.12706 0.15100 0.35923
 C150 C 1.14164 0.15271 0.37388
 C151 C 1.15633 0.13780 0.37555
 C152 C 1.15586 0.12160 0.36267
 C153 C 1.14147 0.12024 0.34762
 C154 C 1.11598 0.13003 0.32907
 N155 N 1.12367 0.11327 0.32024
 C156 C 1.13918 0.10718 0.33186
 C157 C 1.17169 0.10963 0.36707
 N158 N 1.18227 0.11804 0.38234
 C159 C 1.17296 0.13548 0.38751
 C160 C 1.13820 0.17043 0.38398
 N161 N 1.12187 0.17932 0.37593
 C162 C 1.11507 0.16754 0.36074
 H163 H 1.10415 0.13915 0.32303
 H164 H 1.14848 0.09429 0.32916
 H165 H 1.17564 0.09625 0.35882
 H166 H 1.17765 0.14567 0.39925
 H167 H 1.14684 0.17630 0.39639
 H168 H 1.10249 0.17090 0.35121
 C169 C 0.64463 1.34892 0.66673
 C170 C 0.64291 1.33496 0.65105
 C171 C 0.65788 1.33266 0.63714
 C172 C 0.67477 1.34462 0.63866
 C173 C 0.67636 1.35824 0.65430
 C174 C 0.66129 1.36031 0.66838
 C175 C 0.63283 1.35374 0.68281
 N176 N 0.64203 1.36778 0.69440
 C177 C 0.65952 1.37181 0.68542
 C178 C 0.69418 1.36745 0.65268
 N179 N 0.70358 1.35999 0.63631
 C180 C 0.69184 1.34601 0.62755
 C181 C 0.65259 1.31711 0.62457
 N182 N 0.63483 1.31010 0.63054
 C183 C 0.62883 1.32102 0.64666
 H184 H 0.61898 1.34670 0.68612
 H185 H 0.67031 1.38249 0.69053
 H186 H 0.69977 1.37904 0.66253
 H187 H 0.69550 1.33743 0.61422
 H188 H 0.66121 1.31110 0.61227
 H189 H 0.61559 1.31841 0.65519
 C190 C 0.63779 0.85438 1.16302
 C191 C 0.63720 0.83864 1.14910
 C192 C 0.65148 0.83694 1.13448
 C193 C 0.66648 0.85114 1.13351
 C194 C 0.66688 0.86687 1.14710
 C195 C 0.65236 0.86851 1.16198
 C196 C 0.62645 0.85888 1.17945
 N197 N 0.63362 0.87556 1.18864
 C198 C 0.64945 0.88161 1.17778
 C199 C 0.68343 0.87781 1.14306
 N200 N 0.69311 0.86908 1.12742
 C201 C 0.68279 0.85276 1.12150
 C202 C 0.64759 0.81984 1.12362
 N203 N 0.63120 0.81126 1.13126
 C204 C 0.62481 0.82269 1.14688
 H205 H 0.61370 0.85055 1.18403
 H206 H 0.65891 0.89400 1.18149
 H207 H 0.68838 0.89080 1.15134
 H208 H 0.68687 0.84270 1.10940
 H209 H 0.65600 0.81412 1.11104
 H210 H 0.61229 0.81942 1.15625
 C211 C 1.13864 1.35513 1.15349
 C212 C 1.13906 1.33993 1.13884
 C213 C 1.15310 1.34026 1.12388
 C214 C 1.16683 1.35567 1.12328
 C215 C 1.16666 1.37041 1.13782
 C216 C 1.15234 1.37027 1.15294
 C217 C 1.12703 1.35853 1.17010
 N218 N 1.13324 1.37543 1.17951
 C219 C 1.14875 1.38265 1.16910
 C220 C 1.18249 1.38253 1.13423
 N221 N 1.19222 1.37562 1.11765
 C222 C 1.18248 1.35918 1.11087
 C223 C 1.15091 1.32328 1.11248
 N224 N 1.13587 1.31255 1.12009
 C225 C 1.12842 1.32269 1.13616
 H226 H 1.11483 1.34946 1.17485
 H227 H 1.15707 1.39578 1.17318
 H228 H 1.18635 1.39554 1.14306
 H229 H 1.18694 1.34965 1.09850
 H230 H 1.15983 1.31893 1.09972
 H231 H 1.11667 1.31752 1.14567
 C232 C 1.12931 0.85805 0.65176
 C233 C 1.12906 0.84330 0.63662
 C234 C 1.14281 0.84375 0.62135
 C235 C 1.15709 0.85866 0.62109
 C236 C 1.15744 0.87306 0.63603
 C237 C 1.14337 0.87285 0.65136
 C238 C 1.11793 0.86148 0.66856
 N239 N 1.12468 0.87804 0.67822
 C240 C 1.14028 0.88500 0.66778
 C241 C 1.17340 0.88499 0.63248
 N242 N 1.18273 0.87814 0.61573
 C243 C 1.17276 0.86208 0.60863
 C244 C 1.13946 0.82763 0.60901
 N245 N 1.12404 0.81726 0.61634
 C246 C 1.11760 0.82671 0.63328
 H247 H 1.10549 0.85271 0.67325
 H248 H 1.14897 0.89785 0.67196
 H249 H 1.17802 0.89758 0.64157
 H250 H 1.17703 0.85306 0.59579
 H251 H 1.14797 0.82346 0.59590
 H252 H 1.10548 0.82188 0.64250
 C253 C 0.36006 0.65454 0.66827
 C254 C 0.35771 0.66911 0.65340
 C255 C 0.34218 0.66800 0.63992
 C256 C 0.32890 0.65220 0.64100
 C257 C 0.33135 0.63760 0.65540
 C258 C 0.34705 0.63883 0.66928
 C259 C 0.37318 0.65258 0.68398
 N260 N 0.36852 0.63609 0.69463
 C261 C 0.35261 0.62749 0.68566
 C262 C 0.31614 0.62433 0.65283
 N263 N 0.30432 0.63062 0.63733
 C264 C 0.31225 0.64775 0.63012
 C265 C 0.34325 0.68433 0.62754
 N266 N 0.35915 0.69525 0.63313
 C267 C 0.36805 0.68604 0.64899
 H268 H 0.38514 0.66260 0.68752
 H269 H 0.34518 0.61439 0.69108
 H270 H 0.31366 0.61146 0.66217
 H271 H 0.30680 0.65631 0.61748
 H272 H 0.33330 0.68787 0.61523
 H273 H 0.38095 0.69142 0.65694
 C274 C 0.36009 0.15241 1.16320
 C275 C 0.35845 0.16861 1.15008
 C276 C 0.34202 0.17058 1.13789
 C277 C 0.32712 0.15639 1.13851
 C278 C 0.32870 0.14025 1.15121
 C279 C 0.34530 0.13834 1.16391
 C280 C 0.37387 0.14749 1.17759
 N281 N 0.36784 0.13088 1.18726
 C282 C 0.35038 0.12514 1.17897
 C283 C 0.31189 0.12911 1.14839
 N284 N 0.30009 0.13829 1.13442
 C285 C 0.30951 0.15506 1.12846
 C286 C 0.34391 0.18792 1.12725
 N287 N 0.36114 0.19659 1.13268
 C288 C 0.37017 0.18486 1.14665
 H289 H 0.38689 0.15596 1.18141
 H290 H 0.34179 0.11256 1.18383
 H291 H 0.30843 0.11563 1.15645
 H292 H 0.30446 0.16541 1.11707
 H293 H 0.33350 0.19375 1.11630
 H294 H 0.38401 0.18811 1.15411
 C295 C 0.87913 0.63982 1.14661
 C296 C 0.87896 0.65522 1.13246
 C297 C 0.86330 0.65725 1.11918
 C298 C 0.84765 0.64376 1.11977
 C299 C 0.84787 0.62850 1.13369
 C300 C 0.86367 0.62660 1.14730
 C301 C 0.89163 0.63536 1.16236
 N302 N 0.88410 0.61982 1.17270
 C303 C 0.86700 0.61433 1.16353
 C304 C 0.83046 0.61837 1.13148
 N305 N 0.81966 0.62710 1.11658
 C306 C 0.83008 0.64269 1.10938
 C307 C 0.86640 0.67430 1.10826
 N308 N 0.88357 0.68262 1.11460
 C309 C 0.89134 0.67098 1.12938
 H310 H 0.90473 0.64352 1.16658
 H311 H 0.85741 0.60260 1.16858
 H312 H 0.82576 0.60591 1.14049
 H313 H 0.82523 0.65260 1.09749
 H314 H 0.85669 0.68037 1.09680
 H315 H 0.90460 0.67420 1.13790
 C316 C 0.86113 0.15224 0.65930
 C317 C 0.86018 0.16864 0.64625
 C318 C 0.84541 0.16970 0.63183
 C319 C 0.83154 0.15449 0.63015
 C320 C 0.83261 0.13828 0.64282
 C321 C 0.84757 0.13712 0.65743
 C322 C 0.87287 0.14781 0.67569
 N323 N 0.86686 0.13025 0.68384
 C324 C 0.85140 0.12367 0.67249
 C325 C 0.81651 0.12660 0.63872
 N326 N 0.80566 0.13543 0.62392
 C327 C 0.81484 0.15247 0.61854
 C328 C 0.84733 0.18747 0.62196
 N329 N 0.86300 0.19728 0.62988
 C330 C 0.87098 0.18587 0.64477
 H331 H 0.88493 0.15687 0.68107
 H332 H 0.84263 0.11066 0.67548
 H333 H 0.81250 0.11319 0.64663
 H334 H 0.80957 0.16290 0.60731
 H335 H 0.83804 0.19282 0.60978
 H336 H 0.88346 0.18997 0.65410
 C337 C 1.35658 0.37802 0.65521
 C338 C 1.34229 0.37888 0.63994
 C339 C 1.34121 0.36380 0.62576
 C340 C 1.35453 0.34776 0.62656
 C341 C 1.36891 0.34703 0.64138
 C342 C 1.36987 0.36227 0.65599
 C343 C 1.35948 0.38950 0.67211
 N344 N 1.37415 0.38116 0.68331
 C345 C 1.38074 0.36457 0.67349
 C346 C 1.37896 0.32924 0.63891
 N347 N 1.37086 0.31898 0.62311
 C348 C 1.35585 0.33041 0.61558
 C349 C 1.32494 0.36761 0.61388
 N350 N 1.31615 0.38468 0.62053
 C351 C 1.32672 0.39167 0.63647
 H352 H 1.35104 0.40264 0.67628
 H353 H 1.39180 0.35431 0.67923
 H354 H 1.39062 0.32386 0.64870
 H355 H 1.34653 0.32671 0.60285
 H356 H 1.31968 0.35840 0.60157
 H357 H 1.32285 0.40460 0.64548
 C358 C 1.34109 0.85874 1.16683
 C359 C 1.32567 0.85667 1.15281
 C360 C 1.32464 0.83971 1.14100
 C361 C 1.33897 0.82475 1.14283
 C362 C 1.35431 0.82679 1.15639
 C363 C 1.35519 0.84386 1.16878
 C364 C 1.34520 0.87312 1.18103
 N365 N 1.36128 0.86730 1.19202
 C366 C 1.36747 0.84936 1.18440
 C367 C 1.36599 0.80993 1.15451
 N368 N 1.35791 0.79763 1.14026
 C369 C 1.34126 0.80678 1.13323
 C370 C 1.30798 0.84120 1.12928
 N371 N 1.29875 0.85870 1.13365
 C372 C 1.30950 0.86832 1.14802
 H373 H 1.33624 0.88625 1.18379
 H374 H 1.38003 0.84076 1.18963
 H375 H 1.37912 0.80680 1.16331
 H376 H 1.33174 0.80133 1.12133
 H377 H 1.30298 0.83032 1.11832
 H378 H 1.30561 0.88251 1.15482
 C379 C 0.87291 0.38475 1.14252
 C380 C 0.85726 0.38562 1.12867
 C381 C 0.85584 0.37140 1.11362
 C382 C 0.87006 0.35624 1.11215
 C383 C 0.88569 0.35557 1.12555
 C384 C 0.88714 0.36999 1.14091
 C385 C 0.87645 0.39494 1.16013
 N386 N 0.89255 0.38684 1.16949
 C387 C 0.89928 0.37166 1.15753
 C388 C 0.89588 0.33812 1.12179
 N389 N 0.88665 0.32793 1.10661
 C390 C 0.87086 0.33920 1.10066
 C391 C 0.83818 0.37448 1.10383
 N392 N 0.82885 0.39028 1.11253
 C393 C 0.84045 0.39721 1.12774
 H394 H 0.86757 0.40722 1.16568
 H395 H 0.91115 0.36144 1.16127
 H396 H 0.90821 0.33269 1.13067
 H397 H 0.86032 0.33539 1.08901
 H398 H 0.83233 0.36553 1.09160
 H399 H 0.83649 0.40914 1.13804
 C400 C 0.86036 0.87605 0.64964
 C401 C 0.84470 0.87674 0.63582
 C402 C 0.84268 0.86187 0.62150
 C403 C 0.85643 0.84617 0.62069
 C404 C 0.87202 0.84556 0.63424
 C405 C 0.87398 0.86061 0.64888
 C406 C 0.86477 0.88748 0.66626
 N407 N 0.88071 0.87938 0.67571
 C408 C 0.88654 0.86299 0.66511
 C409 C 0.88222 0.82807 0.63073
 N410 N 0.87318 0.81804 0.61545
 C411 C 0.85738 0.82904 0.60925
 C412 C 0.82533 0.86552 0.61126
 N413 N 0.81682 0.88228 0.61902
 C414 C 0.82863 0.88923 0.63405
 H415 H 0.85662 0.90046 0.67138
 H416 H 0.89837 0.85295 0.66945
 H417 H 0.89484 0.82270 0.63922
 H418 H 0.84716 0.82481 0.59742
 H419 H 0.81919 0.85643 0.59928
 H420 H 0.82535 0.90196 0.64359
 C421 C 0.64651 0.62997 0.66059
 C422 C 0.66170 0.62904 0.64640
 C423 C 0.66263 0.64319 0.63138
 C424 C 0.64834 0.65838 0.63024
 C425 C 0.63338 0.65927 0.64423
 C426 C 0.63242 0.64494 0.65947
 C427 C 0.64237 0.61877 0.67730
 N428 N 0.62609 0.62655 0.68631
 C429 C 0.61991 0.64256 0.67545
 C430 C 0.62218 0.67593 0.64001
 N431 N 0.62992 0.68516 0.62376
 C432 C 0.64592 0.67447 0.61766
 C433 C 0.67925 0.63915 0.62033
 N434 N 0.68843 0.62285 0.62823
 C435 C 0.67774 0.61655 0.64416
 H436 H 0.65066 0.60592 0.68253
 H437 H 0.60755 0.65215 0.67921
 H438 H 0.60934 0.68098 0.64822
 H439 H 0.65544 0.67841 0.60534
 H440 H 0.68431 0.64749 0.60750
 H441 H 0.68163 0.60413 0.65378
 C442 C 0.64536 1.12143 1.15870
 C443 C 0.65911 1.12218 1.14315
 C444 C 0.65866 1.13778 1.12959
 C445 C 0.64417 1.15279 1.13139
 C446 C 0.63065 1.15193 1.14678
 C447 C 0.63111 1.13605 1.16037
 C448 C 0.64325 1.10881 1.17475
 N449 N 0.62783 1.11528 1.18617
 C450 C 0.62031 1.13197 1.17724
 C451 C 0.61927 1.16890 1.14589
 N452 N 0.62530 1.18025 1.13017
 C453 C 0.64052 1.17027 1.12115
 C454 C 0.67458 1.13516 1.11703
 N455 N 0.68445 1.11831 1.12262
 C456 C 0.67505 1.11034 1.13858
 H457 H 0.65233 1.09580 1.17762
 H458 H 0.60857 1.14130 1.18306
 H459 H 0.60730 1.17240 1.15598
 H460 H 0.64911 1.17566 1.10869
 H461 H 0.67879 1.14491 1.10490
 H462 H 0.67988 1.09725 1.14678
 C463 C 0.15573 0.63550 1.15808
 C464 C 0.17024 0.63594 1.14317
 C465 C 0.16954 0.65054 1.12864
 C466 C 0.15440 0.66480 1.12872
 C467 C 0.14038 0.66481 1.14366
 C468 C 0.14105 0.64993 1.15856
 C469 C 0.15270 0.62288 1.17393
 N470 N 0.13654 0.62915 1.18435
 C471 C 0.12947 0.64588 1.17501
 C472 C 0.12804 0.68092 1.14002
 N473 N 0.13407 0.69040 1.12300
 C474 C 0.15030 0.68046 1.11619
 C475 C 0.18587 0.64816 1.11678
 N476 N 0.19663 0.63248 1.12379
 C477 C 0.18706 0.62477 1.13985
 H478 H 0.16212 0.61036 1.17775
 H479 H 0.11646 0.65426 1.17927
 H480 H 0.11528 0.68494 1.14887
 H481 H 0.15913 0.68457 1.10340
 H482 H 0.18982 0.65745 1.10419
 H483 H 0.19241 0.61255 1.14902
 C484 C 0.14437 1.12907 0.65280
 C485 C 0.15792 1.12880 0.63696
 C486 C 0.15635 1.14281 0.62193
 C487 C 0.14142 1.15721 0.62245
 C488 C 0.12846 1.15808 0.63834
 C489 C 0.12990 1.14372 0.65372
 C490 C 0.14243 1.11726 0.66945
 N491 N 0.12713 1.12420 0.68077
 C492 C 0.11957 1.14060 0.67123
 C493 C 0.11664 1.17473 0.63526
 N494 N 0.12200 1.18362 0.61767
 C495 C 0.13721 1.17280 0.60992
 C496 C 0.17229 1.14045 0.60957
 N497 N 0.18373 1.12541 0.61681
 C498 C 0.17493 1.11796 0.63344
 H499 H 0.15204 1.10486 0.67317
 H500 H 0.10703 1.14937 0.67612
 H501 H 0.10490 1.17971 0.64504
 H502 H 0.14554 1.17645 0.59665
 H503 H 0.17576 1.14964 0.59676
 H504 H 0.18114 1.10649 0.64305
 C505 C 1.34668 0.63775 0.33643
 C506 C 1.32936 0.63900 0.34789
 C507 C 1.32752 0.65376 0.36240
 C508 C 1.34278 0.66721 0.36583
 C509 C 1.35987 0.66576 0.35493
 C510 C 1.36186 0.65091 0.34012
 C511 C 1.35222 0.62612 0.32022
 N512 N 1.37045 0.63179 0.31399
 C513 C 1.37638 0.64691 0.32637
 C514 C 1.37162 0.68139 0.36082
 N515 N 1.36194 0.69253 0.37497
 C516 C 1.34424 0.68366 0.37808
 C517 C 1.30921 0.65218 0.37072
 N518 N 1.29977 0.63669 0.36184
 C519 C 1.31196 0.62846 0.34782
 H520 H 1.34342 0.61438 0.31363
 H521 H 1.38974 0.65541 0.32491
 H522 H 1.38570 0.68483 0.35426
 H523 H 1.33301 0.68857 0.38847
 H524 H 1.30329 0.66148 0.38264
 H525 H 1.30836 0.61592 0.33819
 C526 C 1.35619 1.12572 0.84911
 C527 C 1.33980 1.12891 0.86155
 C528 C 1.33976 1.14452 0.87532
 C529 C 1.35617 1.15708 0.87691
 C530 C 1.37239 1.15355 0.86504
 C531 C 1.37240 1.13789 0.85105
 C532 C 1.35979 1.11303 0.83310
 N533 N 1.37778 1.11730 0.82542
 C534 C 1.38558 1.13243 0.83643
 C535 C 1.38573 1.16830 0.86896
 N536 N 1.37806 1.18116 0.88285
 C537 C 1.35986 1.17425 0.88778
 C538 C 1.32184 1.14434 0.88488
 N539 N 1.31106 1.12894 0.87742
 C540 C 1.32194 1.11952 0.86305
 H541 H 1.34979 1.10198 0.82708
 H542 H 1.39935 1.13974 0.83329
 H543 H 1.39952 1.17002 0.86114
 H544 H 1.34988 1.18102 0.89848
 H545 H 1.31716 1.15450 0.89667
 H546 H 1.31716 1.10685 0.85417
 C547 C 0.85240 0.63499 0.83711
 C548 C 0.83666 0.63373 0.85057
 C549 C 0.83420 0.64813 0.86535
 C550 C 0.84756 0.66390 0.86698
 C551 C 0.86321 0.66499 0.85385
 C552 C 0.86564 0.65045 0.83879
 C553 C 0.85770 0.62380 0.82057
 N554 N 0.87385 0.63207 0.81217
 C555 C 0.87887 0.64834 0.82330
 C556 C 0.87336 0.68207 0.85848
 N557 N 0.86425 0.69146 0.87408
 C558 C 0.84842 0.68042 0.87936
 C559 C 0.81739 0.64348 0.87571
 N560 N 0.80966 0.62656 0.86764
 C561 C 0.82138 0.62053 0.85223
 H562 H 0.85018 0.61073 0.81491
 H563 H 0.89079 0.65834 0.81991
 H564 H 0.88611 0.68757 0.85065
 H565 H 0.83823 0.68415 0.89128
 H566 H 0.81132 0.65175 0.88830
 H567 H 0.81878 0.60769 0.84265
 C568 C 0.84560 1.13166 0.33875
 C569 C 0.83148 1.13063 0.35392
 C570 C 0.83073 1.14510 0.36879
 C571 C 0.84433 1.16073 0.36878
 C572 C 0.85847 1.16161 0.35390
 C573 C 0.85908 1.14697 0.33871
 C574 C 0.84865 1.12042 0.32170
 N575 N 0.86365 1.12849 0.31122
 C576 C 0.87023 1.14470 0.32157
 C577 C 0.86913 1.17868 0.35723
 N578 N 0.86179 1.18822 0.37370
 C579 C 0.84659 1.17733 0.38082
 C580 C 0.81485 1.14082 0.38078
 N581 N 0.80611 1.12405 0.37354
 C582 C 0.81622 1.11777 0.35709
 H583 H 0.84030 1.10748 0.31710
 H584 H 0.88170 1.15457 0.31657
 H585 H 0.88099 1.18405 0.34798
 H586 H 0.83776 1.18121 0.39379
 H587 H 0.80998 1.14934 0.39373
 H588 H 0.81239 1.10511 0.34772
 C589 C 0.64222 0.36822 0.34999
 C590 C 0.65653 0.36877 0.36542
 C591 C 0.65525 0.35587 0.38159
 C592 C 0.63970 0.34227 0.38258
 C593 C 0.62566 0.34192 0.36743
 C594 C 0.62709 0.35471 0.35103
 C595 C 0.64012 0.37795 0.33181
 N596 N 0.62430 0.37027 0.32167
 C597 C 0.61632 0.35607 0.33358
 C598 C 0.61288 0.32680 0.37150
 N599 N 0.61882 0.31775 0.38874
 C600 C 0.63529 0.32704 0.39563
 C601 C 0.67151 0.35896 0.39364
 N602 N 0.68270 0.37337 0.38525
 C603 C 0.67363 0.37942 0.36796
 H604 H 0.65011 0.38897 0.32604
 H605 H 0.60342 0.34733 0.33012
 H606 H 0.60066 0.32211 0.36210
 H607 H 0.64364 0.32278 0.40890
 H608 H 0.67522 0.35084 0.40720
 H609 H 0.67910 0.39066 0.35787
 C610 C 0.64327 0.86636 0.84336
 C611 C 0.65951 0.86667 0.85649
 C612 C 0.66060 0.85362 0.87258
 C613 C 0.64531 0.83993 0.87564
 C614 C 0.62926 0.83986 0.86267
 C615 C 0.62831 0.85298 0.84643
 C616 C 0.63886 0.87648 0.82591
 N617 N 0.62167 0.86934 0.81828
 C618 C 0.61511 0.85498 0.83079
 C619 C 0.61704 0.82486 0.86845
 N620 N 0.62518 0.81555 0.88460
 C621 C 0.64256 0.82457 0.88911
 C622 C 0.67829 0.85714 0.88231
 N623 N 0.68786 0.87184 0.87240
 C624 C 0.67643 0.87768 0.85660
 H625 H 0.64788 0.88762 0.81883
 H626 H 0.60185 0.84638 0.82851
 H627 H 0.60352 0.82051 0.86095
 H628 H 0.65255 0.82012 0.90108
 H629 H 0.68393 0.84934 0.89539
 H630 H 0.68011 0.88923 0.84599
 C631 C 0.15966 0.35918 0.83142
 C632 C 0.17352 0.36097 0.84724
 C633 C 0.17412 0.34679 0.86232
 C634 C 0.16123 0.33064 0.86179
 C635 C 0.14773 0.32886 0.84628
 C636 C 0.14705 0.34313 0.83097
 C637 C 0.15531 0.37052 0.81463
 N638 N 0.14056 0.36157 0.80385
 C639 C 0.13557 0.34476 0.81398
 C640 C 0.13718 0.31179 0.84960
 N641 N 0.14409 0.30312 0.86672
 C642 C 0.15885 0.31455 0.87426
 C643 C 0.18883 0.35194 0.87557
 N644 N 0.19742 0.36885 0.86899
 C645 C 0.18822 0.37449 0.85161
 H646 H 0.16289 0.38396 0.81042
 H647 H 0.12397 0.33455 0.80985
 H648 H 0.12554 0.30595 0.84010
 H649 H 0.16712 0.31148 0.88791
 H650 H 0.19330 0.34366 0.88881
 H651 H 0.19194 0.38744 0.84282
 C652 C 0.14914 0.86357 0.33662
 C653 C 0.16270 0.86583 0.35262
 C654 C 0.16312 0.85204 0.36807
 C655 C 0.15031 0.83583 0.36773
 C656 C 0.13710 0.83361 0.35202
 C657 C 0.13663 0.84746 0.33636
 C658 C 0.14524 0.87429 0.31933
 N659 N 0.13083 0.86489 0.30846
 C660 C 0.12563 0.84842 0.31901
 C661 C 0.12685 0.81639 0.35530
 N662 N 0.13363 0.80802 0.37262
 C663 C 0.14803 0.81981 0.38032
 C664 C 0.17787 0.85739 0.38120
 N665 N 0.18663 0.87403 0.37417
 C666 C 0.17749 0.87931 0.35665
 H667 H 0.15293 0.88757 0.31483
 H668 H 0.11424 0.83798 0.31488
 H669 H 0.11565 0.81012 0.34552
 H670 H 0.15624 0.81694 0.39405
 H671 H 0.18235 0.84931 0.39456
 H672 H 0.18141 0.89190 0.34743
 O673 O 1.07022 1.01845 1.09821
 O674 O 1.09333 1.01761 1.12173
 C675 C 1.07727 1.02472 1.11482
 C676 C 1.06679 1.04077 1.12583
 C677 C 1.07155 1.04542 1.14595
 H678 H 1.08247 1.03648 1.15381
 O679 O 0.92862 0.98412 1.09994
 O680 O 0.90617 0.98496 1.12374
 C681 C 0.92184 0.97754 1.11637
 C682 C 0.93206 0.96070 1.12656
 C683 C 0.92598 0.95398 1.14554
 H684 H 0.91434 0.96191 1.15333
 O685 O 1.02132 1.09998 1.07047
 O686 O 1.02247 1.12328 1.09402
 C687 C 1.02864 1.11594 1.07751
 C688 C 1.04458 1.12597 1.06650
 C689 C 1.05080 1.14502 1.07239
 H690 H 1.04381 1.15240 1.08504
 O691 O 0.97830 0.90279 1.07025
 O692 O 0.97815 0.87916 1.09319
 C693 C 0.97137 0.88666 1.07700
 C694 C 0.95493 0.87693 1.06609
 C695 C 0.94786 0.85830 1.07221
 H696 H 0.95476 0.85070 1.08480
 O697 O 1.09896 1.07026 1.01676
 O698 O 1.12241 1.09277 1.01713
 C699 C 1.11506 1.07681 1.02390
 C700 C 1.12489 1.06604 1.04067
 C701 C 1.14330 1.07219 1.04813
 H702 H 1.15087 1.08430 1.04090
 O703 O 0.89901 0.93363 1.01829
 O704 O 0.87563 0.91104 1.01825
 C705 C 0.88300 0.92700 1.02527
 C706 C 0.87321 0.93778 1.04204
 C707 C 0.85459 0.93196 1.04883
 H708 H 0.84692 0.92001 1.04115
 O709 O 0.98230 1.07462 1.09823
 O710 O 0.98332 1.09791 1.12179
 C711 C 0.97607 1.08191 1.11471
 C712 C 0.96006 1.07180 1.12558
 C713 C 0.95391 1.07876 1.14452
 H714 H 0.96103 1.09157 1.15129
 O715 O 1.01732 0.92863 1.09824
 O716 O 1.01731 0.90529 1.12148
 C717 C 1.02414 0.92140 1.11453
 C718 C 1.04052 0.93169 1.12503
 C719 C 1.04711 0.92561 1.14420
 H720 H 1.03960 0.91371 1.15186
 O721 O 1.09604 0.97964 1.06934
 O722 O 1.11950 0.97890 1.09249
 C723 C 1.11217 0.97253 1.07602
 C724 C 1.12229 0.95643 1.06471
 C725 C 1.14113 0.94993 1.07058
 H726 H 1.14843 0.95700 1.08327
 O727 O 0.90250 1.02403 1.07268
 O728 O 0.87981 1.02500 1.09625
 C729 C 0.88679 1.03152 1.07987
 C730 C 0.87689 1.04828 1.06926
 C731 C 0.85845 1.05553 1.07563
 H732 H 0.85118 1.04861 1.08821
 O733 O 0.93063 1.10398 1.01877
 O734 O 0.90840 1.12815 1.01930
 C735 C 0.92451 1.12064 1.02557
 C736 C 0.93614 1.13108 1.04122
 C737 C 0.93209 1.15104 1.04631
 H738 H 0.92090 1.15914 1.03793
 O739 O 1.06782 0.90049 1.01598
 O740 O 1.09045 0.87673 1.01556
 C741 C 1.07476 0.88420 1.02284
 C742 C 1.06471 0.87426 1.03981
 C743 C 1.07202 0.85622 1.04780
 H744 H 1.08502 0.84937 1.04132
 O745 O 0.93002 1.02299 1.09973
 O746 O 0.90754 1.02399 1.12350
 C747 C 0.92358 1.03019 1.11615
 C748 C 0.93456 1.04635 1.12640
 C749 C 0.92871 1.05343 1.14539
 H750 H 0.91670 1.04628 1.15307
 O751 O 1.06983 0.97967 1.09745
 O752 O 1.09319 0.97891 1.12070
 C753 C 1.07696 0.97259 1.11368
 C754 C 1.06639 0.95671 1.12439
 C755 C 1.07286 0.95039 1.14342
 H756 H 1.08567 0.95726 1.15023
 O757 O 1.01671 0.90215 1.06969
 O758 O 1.01665 0.87868 1.09279
 C759 C 1.02331 0.88573 1.07650
 C760 C 1.03935 0.87503 1.06579
 C761 C 1.04656 0.85681 1.07318
 H762 H 1.03936 0.85002 1.08586
 O763 O 0.98305 1.10209 1.07103
 O764 O 0.98422 1.12552 1.09445
 C765 C 0.97714 1.11872 1.07807
 C766 C 0.96177 1.13006 1.06710
 C767 C 0.95731 1.14988 1.07233
 H768 H 0.96519 1.15687 1.08468
 O769 O 0.90356 1.07697 1.01980
 O770 O 0.88121 1.10101 1.02049
 C771 C 0.88795 1.08454 1.02709
 C772 C 0.87763 1.07423 1.04355
 C773 C 0.85922 1.08121 1.05011
 H774 H 0.85229 1.09376 1.04261
 O775 O 1.09489 0.92739 1.01559
 O776 O 1.11769 0.90378 1.01519
 C777 C 1.11101 0.92015 1.02219
 C778 C 1.12177 0.93072 1.03847
 C779 C 1.14063 0.92435 1.04464
 H780 H 1.14774 0.91197 1.03698
 O781 O 0.97894 0.92992 1.09810
 O782 O 0.97885 0.90644 1.12119
 C783 C 0.97231 0.92291 1.11440
 C784 C 0.95662 0.93386 1.12537
 C785 C 0.95012 0.92715 1.14414
 H786 H 0.95670 0.91383 1.15053
 O787 O 1.02054 1.07304 1.09819
 O788 O 1.02156 1.09617 1.12192
 C789 C 1.02748 1.07961 1.11472
 C790 C 1.04260 1.06784 1.12557
 C791 C 1.04776 1.07259 1.14548
 H792 H 1.04073 1.08522 1.15278
 O793 O 0.90147 0.98517 1.07233
 O794 O 0.87883 0.98602 1.09593
 C795 C 0.88535 0.97899 1.07944
 C796 C 0.87438 0.96320 1.06856
 C797 C 0.85580 0.95713 1.07518
 H798 H 0.84930 0.96425 1.08825
 O799 O 1.09675 1.01844 1.07033
 O800 O 1.11997 1.01769 1.09371
 C801 C 1.11296 1.02477 1.07745
 C802 C 1.12366 1.04071 1.06692
 C803 C 1.14199 1.04713 1.07421
 H804 H 1.14832 1.04024 1.08751
 O805 O 0.92561 0.90570 1.01760
 O806 O 0.90230 0.88302 1.01744
 C807 C 0.91856 0.88956 1.02423
 C808 C 0.92912 0.87848 1.04028
 C809 C 0.92232 0.85986 1.04655
 H810 H 0.90981 0.85320 1.03896
 O811 O 1.07280 1.09851 1.01696
 O812 O 1.09606 1.12123 1.01707
 C813 C 1.07997 1.11461 1.02387
 C814 C 1.06963 1.12544 1.04026
 C815 C 1.07560 1.14458 1.04633
 H816 H 1.08743 1.15184 1.03845
 Cu817 Cu 1.08085 0.99916 1.08150
 Cu818 Cu 1.10888 0.99819 1.10948
 Cu819 Cu 0.91791 1.00395 1.08382
 Cu820 Cu 0.89083 1.00508 1.11225
 Cu821 Cu 1.00168 1.08511 1.08210
 Cu822 Cu 1.00303 1.11308 1.11042
 Cu823 Cu 0.99783 0.91823 1.08178
 Cu824 Cu 0.99773 0.89001 1.10946
 C825 C 1.05210 1.05188 1.11591
 H826 H 1.04839 1.04840 1.10040
 C827 C 1.06200 1.06129 1.15598
 C828 C 0.94756 0.95068 1.11677
 H829 H 0.95227 0.95569 1.10212
 C830 C 0.93495 0.93717 1.15452
 C831 C 1.05397 1.11636 1.05031
 H832 H 1.04937 1.10155 1.04585
 C833 C 1.06617 1.15455 1.06232
 C834 C 0.94554 0.88680 1.05000
 H835 H 0.95069 0.90130 1.04539
 C836 C 0.93152 0.84968 1.06252
 C837 C 1.11530 1.05014 1.05005
 H838 H 1.10101 1.04544 1.04456
 C839 C 1.15197 1.06281 1.06494
 C840 C 0.88287 0.95353 1.05189
 H841 H 0.89731 0.95795 1.04687
 C842 C 0.84574 0.94156 1.06539
 C843 C 0.95039 1.05551 1.11672
 H844 H 0.95485 1.05027 1.10197
 C845 C 0.93827 1.06967 1.15456
 C846 C 1.05013 0.94741 1.11540
 H847 H 1.04527 0.95208 1.10058
 C848 C 1.06326 0.93500 1.15359
 C849 C 1.11281 0.94690 1.04849
 H850 H 1.09816 0.95171 1.04403
 C851 C 1.15044 0.93397 1.06062
 C852 C 0.88628 1.05766 1.05310
 H853 H 0.90058 1.05234 1.04824
 C854 C 0.84951 1.07200 1.06611
 C855 C 0.95117 1.12084 1.05150
 H856 H 0.95431 1.10542 1.04767
 C857 C 0.94263 1.16064 1.06187
 C858 C 1.04834 0.88350 1.04894
 H859 H 1.04291 0.89763 1.04326
 C860 C 1.06307 0.84738 1.06458
 O861 O 1.06759 0.98159 0.89518
 O862 O 1.09017 0.98061 0.87152
 C863 C 1.07408 0.97443 0.87874
 C864 C 1.06303 0.95832 0.86835
 C865 C 1.06953 0.95040 0.84987
 H866 H 1.08251 0.95645 0.84285
 O867 O 0.92458 1.02483 0.89904
 O868 O 0.90123 1.02588 0.87581
 C869 C 0.91752 1.03210 0.88288
 C870 C 0.92828 1.04819 0.87252
 C871 C 0.92121 1.05615 0.85425
 H872 H 0.90784 1.05036 0.84754
 O873 O 0.98055 1.10225 0.92596
 O874 O 0.98052 1.12581 0.90293
 C875 C 0.97405 1.11881 0.91930
 C876 C 0.95847 1.12970 0.93050
 C877 C 0.95254 1.14905 0.92487
 H878 H 0.95999 1.15647 0.91270
 O879 O 1.01450 0.90367 0.92363
 O880 O 1.01330 0.88051 0.89997
 C881 C 1.02066 0.88726 0.91626
 C882 C 1.03691 0.87623 0.92641
 C883 C 1.04384 0.85803 0.91850
 H884 H 1.03654 0.85153 0.90551
 O885 O 1.09414 0.92745 0.97636
 O886 O 1.11695 0.90385 0.97593
 C887 C 1.11003 0.92024 0.96930
 C888 C 1.12033 0.93081 0.95292
 C889 C 1.13916 0.92455 0.94675
 H890 H 1.14654 0.91256 0.95471
 O891 O 0.90173 1.07712 0.98056
 O892 O 0.87924 1.10104 0.98131
 C893 C 0.88556 1.08455 0.97430
 C894 C 0.87420 1.07409 0.95844
 C895 C 0.85502 1.08031 0.95348
 H896 H 0.84820 1.09228 0.96203
 O897 O 1.01757 1.07371 0.89725
 O898 O 1.01742 1.09717 0.87414
 C899 C 1.02404 1.08072 0.88087
 C900 C 1.03997 1.07006 0.86995
 C901 C 1.04686 1.07734 0.85157
 H902 H 1.03942 1.08995 0.84470
 O903 O 0.97590 0.93237 0.89711
 O904 O 0.97461 0.90920 0.87346
 C905 C 0.96849 0.92562 0.88085
 C906 C 0.95232 0.93676 0.87072
 C907 C 0.94509 0.93050 0.85185
 H908 H 0.95159 0.91758 0.84454
 O909 O 1.09619 1.01917 0.92306
 O910 O 1.11895 1.01828 0.89956
 C911 C 1.11242 1.02526 0.91607
 C912 C 1.12353 1.04089 0.92711
 C913 C 1.14232 1.04664 0.92077
 H914 H 1.14887 1.03941 0.90779
 O915 O 0.89735 0.98639 0.92610
 O916 O 0.87382 0.98714 0.90304
 C917 C 0.88104 0.98005 0.91922
 C918 C 0.87072 0.96403 0.93013
 C919 C 0.85160 0.95808 0.92451
 H920 H 0.84395 0.96559 0.91232
 O921 O 1.07225 1.09837 0.97777
 O922 O 1.09562 1.12097 0.97778
 C923 C 1.07934 1.11441 0.97100
 C924 C 1.06872 1.12522 0.95477
 C925 C 1.07537 1.14378 0.94804
 H926 H 1.08787 1.15067 0.95542
 O927 O 0.92492 0.90604 0.97835
 O928 O 0.90172 0.88325 0.97825
 C929 C 0.91777 0.88996 0.97140
 C930 C 0.92812 0.87919 0.95500
 C931 C 0.92235 0.85994 0.94912
 H932 H 0.91064 0.85261 0.95711
 O933 O 0.92434 0.98601 0.89879
 O934 O 0.90105 0.98682 0.87548
 C935 C 0.91711 0.97957 0.88236
 C936 C 0.92725 0.96317 0.87144
 C937 C 0.92037 0.95680 0.85251
 H938 H 0.90815 0.96460 0.84544
 O939 O 1.06881 1.02053 0.89567
 O940 O 1.09140 1.01977 0.87201
 C941 C 1.07573 1.02725 0.87936
 C942 C 1.06557 1.04420 0.86926
 C943 C 1.07259 1.05203 0.85107
 H944 H 1.08556 1.04549 0.84422
 O945 O 0.97608 0.90501 0.92453
 O946 O 0.97494 0.88171 0.90099
 C947 C 0.96889 0.88894 0.91758
 C948 C 0.95314 0.87873 0.92874
 C949 C 0.94713 0.85954 0.92303
 H950 H 0.95420 0.85211 0.91045
 O951 O 1.01900 1.10025 0.92570
 O952 O 1.01891 1.12377 0.90265
 C953 C 1.02594 1.11629 0.91874
 C954 C 1.04262 1.12609 0.92923
 C955 C 1.04959 1.14453 0.92258
 H956 H 1.04256 1.15169 0.90981
 O957 O 0.89835 0.93404 0.97895
 O958 O 0.87503 0.91139 0.97896
 C959 C 0.88207 0.92750 0.97225
 C960 C 0.87134 0.93850 0.95625
 C961 C 0.85227 0.93288 0.95056
 H962 H 0.84529 0.92061 0.95817
 O963 O 1.09890 1.07054 0.97737
 O964 O 1.12247 1.09292 0.97759
 C965 C 1.11503 1.07701 0.97052
 C966 C 1.12485 1.06616 0.95379
 C967 C 1.14367 1.07167 0.94726
 H968 H 1.15147 1.08342 0.95512
 O969 O 1.01440 0.93104 0.89621
 O970 O 1.01308 0.90791 0.87252
 C971 C 1.02048 0.92382 0.87963
 C972 C 1.03676 0.93364 0.86885
 C973 C 1.04339 0.92604 0.85033
 H974 H 1.03580 0.91362 0.84337
 O975 O 0.97908 1.07445 0.89875
 O976 O 0.97897 1.09792 0.87565
 C977 C 0.97201 1.08189 0.88269
 C978 C 0.95513 1.07225 0.87242
 C979 C 0.94804 1.07973 0.85407
 H980 H 0.95579 1.09175 0.84686
 O981 O 0.89836 1.02517 0.92708
 O982 O 0.87476 1.02610 0.90410
 C983 C 0.88226 1.03246 0.92050
 C984 C 0.87252 1.04872 0.93197
 C985 C 0.85337 1.05529 0.92702
 H986 H 0.84551 1.04828 0.91467
 O987 O 1.09442 0.98033 0.92303
 O988 O 1.11721 0.97938 0.89956
 C989 C 1.11017 0.97286 0.91593
 C990 C 1.12026 0.95632 0.92673
 C991 C 1.13890 0.94958 0.92057
 H992 H 1.14578 0.95649 0.90776
 O993 O 1.06681 0.90080 0.97649
 O994 O 1.08944 0.87704 0.97586
 C995 C 1.07345 0.88458 0.96918
 C996 C 1.06274 0.87484 0.95228
 C997 C 1.06955 0.85674 0.94402
 H998 H 1.08251 0.84957 0.95037
 O999 O 0.92964 1.10314 0.97964
 O1000 O 0.90727 1.12718 0.98023
 C1001 C 0.92294 1.11960 0.97302
 C1002 C 0.93339 1.12992 0.95668
 C1003 C 0.92764 1.14918 0.95083
 H1004 H 0.91547 1.15651 0.95841
 Cu1005 Cu 1.07947 1.00053 0.91153
 Cu1006 Cu 1.10668 0.99940 0.88328
 Cu1007 Cu 0.91346 1.00552 0.91507
 Cu1008 Cu 0.88539 1.00657 0.88724
 Cu1009 Cu 1.08343 1.08214 0.99719
 Cu1010 Cu 1.11153 1.10920 0.99740
 Cu1011 Cu 1.07861 0.91633 0.99617
 Cu1012 Cu 1.10585 0.88792 0.99557
 Cu1013 Cu 0.91863 1.08789 0.99965
 Cu1014 Cu 0.89175 1.11673 1.00040
 Cu1015 Cu 0.91429 0.92214 0.99830
 Cu1016 Cu 0.88632 0.89491 0.99819
 Cu1017 Cu 0.99905 1.08533 0.91423
 Cu1018 Cu 0.99894 1.11349 0.88650
 Cu1019 Cu 0.99534 0.92036 0.91272
 Cu1020 Cu 0.99383 0.89253 0.88435
 C1021 C 1.04654 0.94991 0.87760
 H1022 H 1.04166 0.95566 0.89202
 C1023 C 1.05982 0.93421 0.84075
 C1024 C 0.94530 1.05632 0.88143
 H1025 H 0.95061 1.05060 0.89571
 C1026 C 0.93100 1.07199 0.84494
 C1027 C 0.94892 1.12038 0.94655
 H1028 H 0.95327 1.10542 0.95086
 C1029 C 0.93719 1.15897 0.93506
 C1030 C 1.04632 0.88438 0.94343
 H1031 H 1.04121 0.89853 0.94945
 C1032 C 1.06021 0.84822 0.92709
 C1033 C 1.11112 0.94688 0.94299
 H1034 H 1.09659 0.95176 0.94762
 C1035 C 1.14863 0.93386 0.93059
 C1036 C 0.88273 1.05816 0.94777
 H1037 H 0.89761 1.05342 0.95147
 C1038 C 0.84445 1.07104 0.93781
 C1039 C 1.04923 1.05332 0.87850
 H1040 H 1.04403 1.04774 0.89275
 C1041 C 1.06333 1.06868 0.84206
 C1042 C 0.94338 0.95320 0.88031
 H1043 H 0.94865 0.95789 0.89502
 C1044 C 0.92913 0.94044 0.84261
 C1045 C 1.11503 1.05064 0.94373
 H1046 H 1.10044 1.04646 0.94853
 C1047 C 1.15258 1.06196 0.93079
 C1048 C 0.88036 0.95422 0.94611
 H1049 H 0.89516 0.95849 0.95037
 C1050 C 0.84219 0.94261 0.93484
 C1051 C 1.05221 1.11662 0.94540
 H1052 H 1.04710 1.10223 0.95039
 C1053 C 1.06590 1.15356 0.93193
 C1054 C 0.94366 0.88836 0.94485
 H1055 H 0.94808 0.90327 0.94918
 C1056 C 0.93186 0.84993 0.93321
 O1057 O 0.97953 0.42665 0.39684
 O1058 O 0.97889 0.40346 0.37318
 C1059 C 0.97231 0.41972 0.38059
 C1060 C 0.95595 0.43062 0.37046
 C1061 C 0.94936 0.42481 0.35119
 H1062 H 0.95628 0.41220 0.34375
 O1063 O 1.01679 0.57040 0.39318
 O1064 O 1.01593 0.59371 0.36992
 C1065 C 1.02302 0.57752 0.37674
 C1066 C 1.03927 0.56732 0.36595
 C1067 C 1.04664 0.57513 0.34798
 H1068 H 1.03924 0.58779 0.34118
 O1069 O 0.89982 0.47998 0.42568
 O1070 O 0.87646 0.47970 0.40245
 C1071 C 0.88383 0.47297 0.41871
 C1072 C 0.87409 0.45639 0.42925
 C1073 C 0.85578 0.44932 0.42257
 H1074 H 0.84823 0.45676 0.41026
 O1075 O 1.09461 0.51891 0.42107
 O1076 O 1.11774 0.51826 0.39794
 C1077 C 1.11073 0.52535 0.41421
 C1078 C 1.12128 0.54149 0.42500
 C1079 C 1.13968 0.54781 0.41819
 H1080 H 1.14628 0.54062 0.40521
 O1081 O 0.92996 0.39980 0.47747
 O1082 O 0.90756 0.37624 0.47830
 C1083 C 0.92327 0.38328 0.47107
 C1084 C 0.93361 0.37250 0.45468
 C1085 C 0.92750 0.35348 0.44842
 H1086 H 0.91572 0.34620 0.45634
 O1087 O 1.06925 0.59804 0.47608
 O1088 O 1.09174 0.62151 0.47537
 C1089 C 1.07566 0.61422 0.46892
 C1090 C 1.06467 0.62437 0.45253
 C1091 C 1.07029 0.64337 0.44616
 H1092 H 1.08199 0.65106 0.45409
 O1093 O 0.92602 0.51855 0.39759
 O1094 O 0.90269 0.51822 0.37431
 C1095 C 0.91882 0.52502 0.38114
 C1096 C 0.92908 0.54088 0.37005
 C1097 C 0.92220 0.54702 0.35109
 H1098 H 0.90980 0.53952 0.34417
 O1099 O 1.06806 0.47971 0.39335
 O1100 O 1.09104 0.47911 0.37008
 C1101 C 1.07510 0.47244 0.37720
 C1102 C 1.06493 0.45564 0.36706
 C1103 C 1.07193 0.44774 0.34877
 H1104 H 1.08463 0.45433 0.34173
 O1105 O 1.01896 0.39921 0.42309
 O1106 O 1.01862 0.37572 0.39974
 C1107 C 1.02569 0.38292 0.41599
 C1108 C 1.04218 0.37270 0.42665
 C1109 C 1.04983 0.35432 0.41976
 H1110 H 1.04340 0.34720 0.40663
 O1111 O 0.97913 0.59768 0.42216
 O1112 O 0.97842 0.62096 0.39885
 C1113 C 0.97233 0.61406 0.41540
 C1114 C 0.95702 0.62510 0.42673
 C1115 C 0.95114 0.64425 0.42065
 H1116 H 0.95804 0.65101 0.40776
 O1117 O 0.90192 0.57285 0.47724
 O1118 O 0.87921 0.59655 0.47731
 C1119 C 0.88584 0.58007 0.47051
 C1120 C 0.87496 0.56941 0.45437
 C1121 C 0.85662 0.57655 0.44765
 H1122 H 0.85004 0.58947 0.45490
 O1123 O 1.09670 0.42802 0.47575
 O1124 O 1.12024 0.40516 0.47568
 C1125 C 1.11272 0.42113 0.46868
 C1126 C 1.12243 0.43164 0.45192
 C1127 C 1.14098 0.42530 0.44495
 H1128 H 1.14830 0.41270 0.45197
 O1129 O 0.97839 0.56989 0.39491
 O1130 O 0.97745 0.59305 0.37149
 C1131 C 0.97105 0.57689 0.37877
 C1132 C 0.95461 0.56626 0.36878
 C1133 C 0.94746 0.57229 0.34984
 H1134 H 0.95424 0.58467 0.34223
 O1135 O 1.01792 0.42626 0.39538
 O1136 O 1.01742 0.40292 0.37187
 C1137 C 1.02421 0.41917 0.37882
 C1138 C 1.04000 0.42960 0.36791
 C1139 C 1.04707 0.42205 0.34955
 H1140 H 1.04016 0.40913 0.34279
 O1141 O 1.09471 0.48011 0.42146
 O1142 O 1.11779 0.47952 0.39828
 C1143 C 1.11083 0.47314 0.41472
 C1144 C 1.12143 0.45717 0.42578
 C1145 C 1.14007 0.45084 0.41933
 H1146 H 1.14701 0.45848 0.40698
 O1147 O 0.89952 0.51908 0.42548
 O1148 O 0.87611 0.51886 0.40230
 C1149 C 0.88339 0.52598 0.41847
 C1150 C 0.87352 0.54287 0.42899
 C1151 C 0.85508 0.55026 0.42245
 H1152 H 0.84756 0.54320 0.40989
 O1153 O 0.92884 0.59994 0.47684
 O1154 O 0.90625 0.62376 0.47691
 C1155 C 0.92204 0.61626 0.46994
 C1156 C 0.93242 0.62630 0.45335
 C1157 C 0.92669 0.64549 0.44702
 H1158 H 0.91502 0.65338 0.45482
 O1159 O 1.07037 0.40039 0.47650
 O1160 O 1.09381 0.37744 0.47661
 C1161 C 1.07758 0.38417 0.46972
 C1162 C 1.06740 0.37339 0.45316
 C1163 C 1.07475 0.35505 0.44614
 H1164 H 1.08727 0.34822 0.45369
 O1165 O 1.06848 0.51873 0.39244
 O1166 O 1.09152 0.51825 0.36925
 C1167 C 1.07556 0.52538 0.37616
 C1168 C 1.06530 0.54201 0.36570
 C1169 C 1.07285 0.55033 0.34796
 H1170 H 1.08625 0.54424 0.34158
 O1171 O 0.92684 0.47977 0.39838
 O1172 O 0.90360 0.47949 0.37499
 C1173 C 0.91987 0.47286 0.38200
 C1174 C 0.93056 0.45674 0.37115
 C1175 C 0.92453 0.45099 0.35174
 H1176 H 0.91270 0.45916 0.34440
 O1177 O 1.01738 0.59672 0.42188
 O1178 O 1.01664 0.62015 0.39873
 C1179 C 1.02372 0.61302 0.41499
 C1180 C 1.03958 0.62366 0.42594
 C1181 C 1.04561 0.64257 0.41963
 H1182 H 1.03861 0.64937 0.40664
 O1183 O 0.98063 0.39904 0.42385
 O1184 O 0.98012 0.37562 0.40042
 C1185 C 0.97387 0.38275 0.41696
 C1186 C 0.95830 0.37230 0.42813
 C1187 C 0.95190 0.35336 0.42196
 H1188 H 0.95862 0.34623 0.40901
 O1189 O 1.09676 0.57108 0.47545
 O1190 O 1.11940 0.59439 0.47459
 C1191 C 1.11239 0.57808 0.46799
 C1192 C 1.12217 0.56733 0.45115
 C1193 C 1.14054 0.57354 0.44395
 H1194 H 1.14800 0.58590 0.45117
 O1195 O 0.90239 0.42686 0.47730
 O1196 O 0.87986 0.40342 0.47793
 C1197 C 0.88631 0.41962 0.47081
 C1198 C 0.87531 0.43009 0.45457
 C1199 C 0.85695 0.42318 0.44766
 H1200 H 0.85052 0.41014 0.45443
 Cu1201 Cu 0.99934 0.41510 0.41213
 Cu1202 Cu 0.99869 0.38711 0.38392
 Cu1203 Cu 0.99799 0.58128 0.41030
 Cu1204 Cu 0.99702 0.60927 0.38237
 Cu1205 Cu 0.91530 0.49941 0.41419
 Cu1206 Cu 0.88734 0.49900 0.38622
 Cu1207 Cu 1.07907 0.49945 0.40930
 Cu1208 Cu 1.10682 0.49870 0.38155
 C1209 C 0.94646 0.44664 0.38029
 H1210 H 0.95117 0.45098 0.39529
 C1211 C 0.93372 0.43499 0.34163
 C1212 C 1.04848 0.55059 0.37444
 H1213 H 1.04289 0.54462 0.38838
 C1214 C 1.06362 0.56700 0.33894
 C1215 C 0.88363 0.44680 0.44536
 H1216 H 0.89789 0.45205 0.45039
 C1217 C 0.84708 0.43270 0.43160
 C1218 C 1.11274 0.55119 0.44164
 H1219 H 1.09845 0.54649 0.44685
 C1220 C 1.14943 0.56376 0.42754
 C1221 C 0.94917 0.38165 0.44460
 H1222 H 0.95382 0.39640 0.44922
 C1223 C 0.93655 0.34376 0.43205
 C1224 C 1.04913 0.61472 0.44248
 H1225 H 1.04481 0.59998 0.44723
 C1226 C 1.06091 0.65258 0.42968
 C1227 C 0.94541 0.55045 0.37868
 H1228 H 0.95064 0.54590 0.39341
 C1229 C 0.93125 0.56272 0.34087
 C1230 C 1.04887 0.44654 0.37639
 H1231 H 1.04364 0.45228 0.39068
 C1232 C 1.06311 0.43091 0.33990
 C1233 C 1.05101 0.38198 0.44345
 H1234 H 1.04547 0.39628 0.44866
 C1235 C 1.06622 0.34543 0.42940
 C1236 C 0.94774 0.61633 0.44322
 H1237 H 0.95208 0.60145 0.44782
 C1238 C 0.93608 0.65462 0.43072
 C1239 C 0.88320 0.55248 0.44507
 H1240 H 0.89751 0.54709 0.45003
 C1241 C 0.84657 0.56718 0.43169
 C1242 C 1.11279 0.44765 0.44225
 H1243 H 1.09833 0.45239 0.44723
 C1244 C 1.14991 0.43484 0.42863
 O1245 O 1.02204 0.43068 0.59846
 O1246 O 1.02226 0.40780 0.62216
 C1247 C 1.02896 0.42380 0.61490
 C1248 C 1.04537 0.43427 0.62522
 C1249 C 1.05267 0.42781 0.64402
 H1250 H 1.04555 0.41563 0.65161
 O1251 O 0.98170 0.57258 0.59752
 O1252 O 0.98152 0.59628 0.62066
 C1253 C 0.97470 0.58009 0.61357
 C1254 C 0.95805 0.57017 0.62363
 C1255 C 0.95015 0.57791 0.64162
 H1256 H 0.95661 0.59099 0.64854
 O1257 O 0.90163 0.52087 0.56876
 O1258 O 0.87878 0.52100 0.59216
 C1259 C 0.88565 0.52781 0.57587
 C1260 C 0.87546 0.54445 0.56537
 C1261 C 0.85747 0.55214 0.57248
 H1262 H 0.85067 0.54549 0.58548
 O1263 O 1.09918 0.48247 0.56867
 O1264 O 1.12302 0.48235 0.59140
 C1265 C 1.11546 0.47556 0.57520
 C1266 C 1.12537 0.45913 0.56407
 C1267 C 1.14391 0.45196 0.57038
 H1268 H 1.15121 0.45874 0.58323
 O1269 O 1.07154 0.40103 0.51594
 O1270 O 1.09489 0.37799 0.51609
 C1271 C 1.07895 0.38510 0.52314
 C1272 C 1.06907 0.37527 0.54023
 C1273 C 1.07583 0.35684 0.54781
 H1274 H 1.08831 0.34942 0.54087
 O1275 O 0.92973 0.60008 0.51616
 O1276 O 0.90717 0.62393 0.51620
 C1277 C 0.92321 0.61658 0.52294
 C1278 C 0.93424 0.62711 0.53907
 C1279 C 0.92895 0.64661 0.54482
 H1280 H 0.91720 0.65431 0.53684
 O1281 O 0.92968 0.48278 0.59654
 O1282 O 0.90711 0.48287 0.62024
 C1283 C 0.92331 0.47638 0.61320
 C1284 C 0.93477 0.46099 0.62422
 C1285 C 0.92983 0.45571 0.64398
 H1286 H 0.91809 0.46373 0.65154
 O1287 O 1.07313 0.52129 0.59744
 O1288 O 1.09669 0.52131 0.62048
 C1289 C 1.08036 0.52803 0.61378
 C1290 C 1.06975 0.54414 0.62471
 C1291 C 1.07632 0.55096 0.64364
 H1292 H 1.08887 0.54378 0.65079
 O1293 O 0.98337 0.40362 0.57064
 O1294 O 0.98363 0.38072 0.59434
 C1295 C 0.97680 0.38751 0.57785
 C1296 C 0.96082 0.37671 0.56723
 C1297 C 0.95445 0.35824 0.57442
 H1298 H 0.96148 0.35177 0.58757
 O1299 O 1.02029 0.59859 0.56973
 O1300 O 1.02046 0.62224 0.59294
 C1301 C 1.02707 0.61485 0.57662
 C1302 C 1.04308 0.62507 0.56583
 C1303 C 1.05017 0.64338 0.57294
 H1304 H 1.04331 0.65042 0.58585
 O1305 O 0.90341 0.42816 0.51645
 O1306 O 0.88085 0.40474 0.51711
 C1307 C 0.88759 0.42122 0.52353
 C1308 C 0.87710 0.43216 0.53969
 C1309 C 0.85873 0.42557 0.54624
 H1310 H 0.85203 0.41272 0.53908
 O1311 O 1.09813 0.57155 0.51483
 O1312 O 1.12072 0.59492 0.51402
 C1313 C 1.11420 0.57883 0.52131
 C1314 C 1.12490 0.56897 0.53810
 C1315 C 1.14269 0.57676 0.54545
 H1316 H 1.14933 0.58915 0.53774
 O1317 O 1.02031 0.57244 0.59824
 O1318 O 1.02021 0.59596 0.62157
 C1319 C 1.02707 0.57968 0.61459
 C1320 C 1.04351 0.56933 0.62515
 C1321 C 1.05032 0.57603 0.64401
 H1322 H 1.04316 0.58867 0.65116
 O1323 O 0.98349 0.43167 0.59758
 O1324 O 0.98378 0.40885 0.62136
 C1325 C 0.97691 0.42494 0.61401
 C1326 C 0.96091 0.43578 0.62449
 C1327 C 0.95544 0.43032 0.64399
 H1328 H 0.96301 0.41801 0.65124
 O1329 O 1.09944 0.52135 0.56938
 O1330 O 1.12315 0.52140 0.59225
 C1331 C 1.11561 0.52818 0.57609
 C1332 C 1.12543 0.54449 0.56519
 C1333 C 1.14303 0.55276 0.57258
 H1334 H 1.14954 0.54699 0.58632
 O1335 O 0.90227 0.48180 0.56907
 O1336 O 0.87950 0.48180 0.59255
 C1337 C 0.88649 0.47483 0.57624
 C1338 C 0.87650 0.45817 0.56564
 C1339 C 0.85815 0.45116 0.57216
 H1340 H 0.85083 0.45833 0.58474
 O1341 O 1.07085 0.59872 0.51546
 O1342 O 1.09336 0.62217 0.51477
 C1343 C 1.07776 0.61501 0.52220
 C1344 C 1.06782 0.62533 0.53922
 C1345 C 1.07477 0.64368 0.54667
 H1346 H 1.08726 0.65066 0.53965
 O1347 O 0.93089 0.40122 0.51684
 O1348 O 0.90846 0.37768 0.51770
 C1349 C 0.92441 0.38519 0.52427
 C1350 C 0.93526 0.37551 0.54109
 C1351 C 0.92913 0.35704 0.54855
 H1352 H 0.91693 0.34941 0.54139
 O1353 O 1.07360 0.48252 0.59731
 O1354 O 1.09728 0.48243 0.62022
 C1355 C 1.08108 0.47571 0.61349
 C1356 C 1.07097 0.45959 0.62434
 C1357 C 1.07817 0.45284 0.64298
 H1358 H 1.09118 0.45964 0.64945
 O1359 O 0.92897 0.52142 0.59601
 O1360 O 0.90622 0.52157 0.61953
 C1361 C 0.92209 0.52837 0.61236
 C1362 C 0.93234 0.54487 0.62288
 C1363 C 0.92482 0.55269 0.64090
 H1364 H 0.91206 0.54591 0.64762
 O1365 O 0.98198 0.59951 0.56976
 O1366 O 0.98215 0.62333 0.59280
 C1367 C 0.97547 0.61608 0.57643
 C1368 C 0.95977 0.62683 0.56520
 C1369 C 0.95423 0.64629 0.57079
 H1370 H 0.96166 0.65353 0.58329
 O1371 O 1.02171 0.40381 0.57021
 O1372 O 1.02191 0.38086 0.59385
 C1373 C 1.02841 0.38759 0.57735
 C1374 C 1.04422 0.37666 0.56664
 C1375 C 1.05094 0.35820 0.57378
 H1376 H 1.04372 0.35152 0.58653
 O1377 O 1.09745 0.42911 0.51508
 O1378 O 1.12090 0.40616 0.51497
 C1379 C 1.11380 0.42244 0.52174
 C1380 C 1.12447 0.43331 0.53790
 C1381 C 1.14304 0.42651 0.54437
 H1382 H 1.14994 0.41397 0.53677
 O1383 O 0.90224 0.57347 0.51644
 O1384 O 0.87955 0.59719 0.51657
 C1385 C 0.88635 0.58083 0.52335
 C1386 C 0.87596 0.57046 0.53975
 C1387 C 0.85791 0.57783 0.54694
 H1388 H 0.85110 0.59063 0.53976
 Cu1389 Cu 1.00266 0.41979 0.58190
 Cu1390 Cu 1.00290 0.39227 0.61031
 Cu1391 Cu 1.00106 0.58335 0.58157
 Cu1392 Cu 1.00110 0.61179 0.60935
 Cu1393 Cu 0.91894 0.41632 0.49687
 Cu1394 Cu 0.89196 0.38813 0.49785
 Cu1395 Cu 1.08163 0.41688 0.49583
 Cu1396 Cu 1.10980 0.38938 0.49584
 Cu1397 Cu 0.91798 0.58424 0.49668
 Cu1398 Cu 0.89076 0.61274 0.49678
 Cu1399 Cu 1.08150 0.58251 0.49553
 Cu1400 Cu 1.10857 0.61059 0.49456
 Cu1401 Cu 0.91782 0.50164 0.58017
 Cu1402 Cu 0.89056 0.50176 0.60844
 Cu1403 Cu 1.08399 0.50195 0.58091
 Cu1404 Cu 1.11246 0.50186 0.60835
 C1405 C 1.05450 0.45033 0.61569
 H1406 H 1.04909 0.45528 0.60115
 C1407 C 1.06909 0.43706 0.65308
 C1408 C 0.94908 0.55357 0.61447
 H1409 H 0.95481 0.54775 0.60042
 C1410 C 0.93345 0.56931 0.65029
 C1411 C 0.88448 0.55363 0.54890
 H1412 H 0.89852 0.54803 0.54357
 C1413 C 0.84858 0.56887 0.56337
 C1414 C 1.11582 0.44978 0.54770
 H1415 H 1.10136 0.45494 0.54296
 C1416 C 1.15280 0.43560 0.56065
 C1417 C 1.05321 0.38497 0.54975
 H1418 H 1.04814 0.39933 0.54431
 C1419 C 1.06682 0.34821 0.56466
 C1420 C 0.94980 0.61743 0.54921
 H1421 H 0.95382 0.60232 0.54499
 C1422 C 0.93892 0.65637 0.56063
 C1423 C 0.95055 0.45117 0.61475
 H1424 H 0.95444 0.45513 0.59951
 C1425 C 0.94008 0.44034 0.65405
 C1426 C 1.05322 0.55328 0.61576
 H1427 H 1.04822 0.54826 0.60107
 C1428 C 1.06667 0.56690 0.65346
 C1429 C 0.95125 0.38516 0.55043
 H1430 H 0.95591 0.39953 0.54498
 C1431 C 0.93864 0.34831 0.56521
 C1432 C 1.05189 0.61623 0.54886
 H1433 H 1.04662 0.60197 0.54345
 C1434 C 1.06606 0.65276 0.56360
 C1435 C 0.88576 0.44863 0.54929
 H1436 H 0.90005 0.45366 0.54439
 C1437 C 0.84912 0.43494 0.56238
 C1438 C 1.11656 0.55265 0.54790
 H1439 H 1.10275 0.54668 0.54241
 C1440 C 1.15179 0.56896 0.56285
 O1441 O 0.47807 0.92951 0.40207
 O1442 O 0.47767 0.90613 0.37860
 C1443 C 0.47108 0.92248 0.38576
 C1444 C 0.45461 0.93298 0.37538
 C1445 C 0.44689 0.92527 0.35737
 H1446 H 0.45400 0.91249 0.35041
 O1447 O 0.51664 1.07244 0.40256
 O1448 O 0.51693 1.09558 0.37911
 C1449 C 0.52329 1.07914 0.38615
 C1450 C 0.53871 1.06777 0.37534
 C1451 C 0.54443 1.07330 0.35592
 H1452 H 0.53751 1.08612 0.34890
 O1453 O 0.39929 0.98331 0.42959
 O1454 O 0.37613 0.98412 0.40615
 C1455 C 0.38309 0.97701 0.42242
 C1456 C 0.37256 0.96074 0.43261
 C1457 C 0.35447 0.95404 0.42497
 H1458 H 0.34769 0.96161 0.41229
 O1459 O 0.59510 1.01876 0.42944
 O1460 O 0.61794 1.01887 0.40603
 C1461 C 0.61099 1.02563 0.42244
 C1462 C 0.62114 1.04196 0.43332
 C1463 C 0.63891 1.04975 0.42611
 H1464 H 0.64550 1.04354 0.41264
 O1465 O 0.42550 0.90289 0.48155
 O1466 O 0.40259 0.87981 0.48104
 C1467 C 0.41873 0.88668 0.47457
 C1468 C 0.42962 0.87597 0.45856
 C1469 C 0.42402 0.85676 0.45246
 H1470 H 0.41213 0.84942 0.46015
 O1471 O 0.56833 1.09771 0.48475
 O1472 O 0.59162 1.12041 0.48517
 C1473 C 0.57550 1.11378 0.47813
 C1474 C 0.56540 1.12459 0.46162
 C1475 C 0.57253 1.14300 0.45526
 H1476 H 0.58476 1.14977 0.46323
 O1477 O 0.42690 1.02148 0.40224
 O1478 O 0.40376 1.02199 0.37878
 C1479 C 0.41987 1.02849 0.38595
 C1480 C 0.43005 1.04488 0.37559
 C1481 C 0.42244 1.05240 0.35746
 H1482 H 0.40981 1.04534 0.35048
 O1483 O 0.56853 0.97973 0.40175
 O1484 O 0.59140 0.97950 0.37835
 C1485 C 0.57550 0.97274 0.38544
 C1486 C 0.56517 0.95629 0.37497
 C1487 C 0.57231 0.94843 0.35673
 H1488 H 0.58547 0.95459 0.35024
 O1489 O 0.51644 0.90116 0.42923
 O1490 O 0.51609 0.87764 0.40589
 C1491 C 0.52289 0.88466 0.42232
 C1492 C 0.53866 0.87386 0.43345
 C1493 C 0.54419 0.85422 0.42821
 H1494 H 0.53653 0.84655 0.41612
 O1495 O 0.47921 1.10086 0.43033
 O1496 O 0.47970 1.12437 0.40727
 C1497 C 0.47303 1.11747 0.42360
 C1498 C 0.45776 1.12867 0.43481
 C1499 C 0.45250 1.14813 0.42925
 H1500 H 0.45980 1.15505 0.41667
 O1501 O 0.40236 1.07560 0.48314
 O1502 O 0.37938 1.09904 0.48329
 C1503 C 0.38631 1.08277 0.47629
 C1504 C 0.37569 1.07232 0.45981
 C1505 C 0.35711 1.07921 0.45352
 H1506 H 0.35027 1.09161 0.46141
 O1507 O 0.59592 0.92735 0.48271
 O1508 O 0.61874 0.90376 0.48228
 C1509 C 0.61177 0.92009 0.47559
 C1510 C 0.62178 0.93054 0.45899
 C1511 C 0.63963 0.92320 0.45109
 H1512 H 0.64649 0.91003 0.45749
 O1513 O 0.47834 1.07389 0.40230
 O1514 O 0.47843 1.09719 0.37903
 C1515 C 0.47152 1.08112 0.38602
 C1516 C 0.45509 1.07086 0.37554
 C1517 C 0.44716 1.07824 0.35736
 H1518 H 0.45335 1.09139 0.35056
 O1519 O 0.51651 0.92843 0.40167
 O1520 O 0.51616 0.90505 0.37820
 C1521 C 0.52305 0.92119 0.38529
 C1522 C 0.53928 0.93129 0.37480
 C1523 C 0.54629 0.92393 0.35635
 H1524 H 0.53881 0.91160 0.34913
 O1525 O 0.59486 0.97993 0.43001
 O1526 O 0.61782 0.97992 0.40670
 C1527 C 0.61090 0.97310 0.42298
 C1528 C 0.62127 0.95661 0.43341
 C1529 C 0.63909 0.94916 0.42585
 H1530 H 0.64579 0.95632 0.41307
 O1531 O 0.40014 1.02231 0.42977
 O1532 O 0.37690 1.02308 0.40641
 C1533 C 0.38423 1.02972 0.42278
 C1534 C 0.37452 1.04650 0.43364
 C1535 C 0.35596 1.05384 0.42742
 H1536 H 0.34853 1.04702 0.41468
 O1537 O 0.42893 1.10299 0.48394
 O1538 O 0.40613 1.12661 0.48409
 C1539 C 0.42212 1.11939 0.47728
 C1540 C 0.43283 1.12974 0.46111
 C1541 C 0.42772 1.14926 0.45537
 H1542 H 0.41621 1.15723 0.46335
 O1543 O 0.56832 0.90097 0.48265
 O1544 O 0.59100 0.87722 0.48257
 C1545 C 0.57494 0.88454 0.47584
 C1546 C 0.56399 0.87395 0.45977
 C1547 C 0.56926 0.85441 0.45441
 H1548 H 0.58132 0.84706 0.46225
 O1549 O 0.56759 1.01854 0.40216
 O1550 O 0.59028 1.01832 0.37858
 C1551 C 0.57422 1.02508 0.38567
 C1552 C 0.56338 1.04109 0.37497
 C1553 C 0.56859 1.04649 0.35535
 H1554 H 0.57987 1.03799 0.34760
 O1555 O 0.42598 0.98247 0.40192
 O1556 O 0.40286 0.98294 0.37844
 C1557 C 0.41877 0.97564 0.38559
 C1558 C 0.42879 0.95869 0.37527
 C1559 C 0.42100 0.95039 0.35738
 H1560 H 0.40768 0.95664 0.35083
 O1561 O 0.51741 1.09975 0.43020
 O1562 O 0.51806 1.12311 0.40700
 C1563 C 0.52453 1.11578 0.42340
 C1564 C 0.54071 1.12565 0.43464
 C1565 C 0.54814 1.14413 0.42843
 H1566 H 0.54181 1.15153 0.41542
 O1567 O 0.47805 0.90208 0.42929
 O1568 O 0.47777 0.87860 0.40590
 C1569 C 0.47122 0.88589 0.42225
 C1570 C 0.45528 0.87563 0.43300
 C1571 C 0.44932 0.85653 0.42693
 H1572 H 0.45657 0.84926 0.41437
 O1573 O 0.59520 1.07013 0.48412
 O1574 O 0.61844 1.09288 0.48453
 C1575 C 0.61119 1.07698 0.47729
 C1576 C 0.62119 1.06685 0.46031
 C1577 C 0.63895 1.07432 0.45299
 H1578 H 0.64587 1.08680 0.46057
 O1579 O 0.39817 0.93007 0.48147
 O1580 O 0.37503 0.90724 0.48087
 C1581 C 0.38212 0.92338 0.47430
 C1582 C 0.37201 0.93435 0.45781
 C1583 C 0.35390 0.92778 0.44986
 H1584 H 0.34693 0.91477 0.45612
 Cu1585 Cu 0.49737 0.91763 0.41791
 Cu1586 Cu 0.49688 0.88956 0.38973
 Cu1587 Cu 0.49785 1.08439 0.41865
 Cu1588 Cu 0.49832 1.11240 0.39073
 Cu1589 Cu 0.41539 1.00231 0.41822
 Cu1590 Cu 0.38761 1.00311 0.39008
 Cu1591 Cu 0.57923 0.99930 0.41818
 Cu1592 Cu 0.60670 0.99918 0.39009
 C1593 C 0.44563 0.94985 0.38409
 H1594 H 0.45143 0.95575 0.39812
 C1595 C 0.42990 0.93353 0.34841
 C1596 C 0.54821 1.05160 0.38471
 H1597 H 0.54417 1.04754 0.39988
 C1598 C 0.55925 1.06264 0.34566
 C1599 C 0.38110 0.95095 0.44916
 H1600 H 0.39521 0.95589 0.45491
 C1601 C 0.34509 0.93750 0.43333
 C1602 C 0.61249 1.05055 0.45051
 H1603 H 0.59863 1.04491 0.45595
 C1604 C 0.64783 1.06604 0.43582
 C1605 C 0.44543 0.88518 0.44890
 H1606 H 0.44975 0.90006 0.45343
 C1607 C 0.43378 0.84691 0.43663
 C1608 C 0.54938 1.11609 0.45136
 H1609 H 0.54400 1.10172 0.45607
 C1610 C 0.56414 1.15281 0.43865
 C1611 C 0.44649 1.05407 0.38441
 H1612 H 0.45222 1.04849 0.39858
 C1613 C 0.43069 1.06915 0.34835
 C1614 C 0.54863 0.94765 0.38382
 H1615 H 0.54335 0.95332 0.39811
 C1616 C 0.56295 0.93222 0.34725
 C1617 C 0.54856 0.88347 0.44938
 H1618 H 0.54457 0.89865 0.45339
 C1619 C 0.55937 0.84431 0.43883
 C1620 C 0.44799 1.11969 0.45087
 H1621 H 0.45186 1.10456 0.45505
 C1622 C 0.43761 1.15863 0.43950
 C1623 C 0.38420 1.05584 0.44993
 H1624 H 0.39862 1.05054 0.45464
 C1625 C 0.34714 1.07021 0.43731
 C1626 C 0.61283 0.94735 0.45012
 H1627 H 0.59890 0.95287 0.45583
 C1628 C 0.64828 0.93239 0.43441
 O1629 O 0.51616 0.92713 0.60163
 O1630 O 0.51592 0.90394 0.62504
 C1631 C 0.52264 0.92012 0.61816
 C1632 C 0.53837 0.93079 0.62920
 C1633 C 0.54374 0.92537 0.64892
 H1634 H 0.53580 0.91368 0.65645
 O1635 O 0.47928 1.07340 0.60399
 O1636 O 0.47944 1.09621 0.62803
 C1637 C 0.47256 1.08026 0.62046
 C1638 C 0.45628 1.06971 0.63048
 C1639 C 0.44895 1.07628 0.64917
 H1640 H 0.45550 1.08897 0.65673
 O1641 O 0.40142 1.02115 0.57387
 O1642 O 0.37816 1.02156 0.59689
 C1643 C 0.38535 1.02816 0.58064
 C1644 C 0.37503 1.04430 0.56961
 C1645 C 0.35559 1.04947 0.57444
 H1646 H 0.34817 1.04154 0.58630
 O1647 O 0.59592 0.97872 0.57624
 O1648 O 0.61881 0.97831 0.59998
 C1649 C 0.61196 0.97176 0.58339
 C1650 C 0.62239 0.95563 0.57238
 C1651 C 0.64083 0.94841 0.57900
 H1652 H 0.64780 0.95495 0.59216
 O1653 O 0.56917 0.90039 0.52186
 O1654 O 0.59204 0.87684 0.52177
 C1655 C 0.57609 0.88408 0.52867
 C1656 C 0.56566 0.87375 0.54507
 C1657 C 0.57284 0.85555 0.55272
 H1658 H 0.58597 0.84884 0.54637
 O1659 O 0.42884 1.10270 0.52318
 O1660 O 0.40589 1.12616 0.52343
 C1661 C 0.42195 1.11895 0.53023
 C1662 C 0.43260 1.12921 0.54681
 C1663 C 0.42712 1.14851 0.55312
 H1664 H 0.41554 1.15637 0.54507
 O1665 O 0.42746 0.98178 0.60181
 O1666 O 0.40453 0.98230 0.62514
 C1667 C 0.42046 0.97515 0.61811
 C1668 C 0.43077 0.95863 0.62860
 C1669 C 0.42482 0.95242 0.64777
 H1670 H 0.41305 0.96035 0.65538
 O1671 O 0.56848 1.01745 0.60379
 O1672 O 0.59111 1.01705 0.62780
 C1673 C 0.57506 1.02387 0.62055
 C1674 C 0.56402 1.03961 0.63149
 C1675 C 0.56819 1.04383 0.65182
 H1676 H 0.57900 1.03482 0.65975
 O1677 O 0.47781 0.90067 0.57317
 O1678 O 0.47768 0.87721 0.59628
 C1679 C 0.47098 0.88452 0.57997
 C1680 C 0.45476 0.87443 0.56906
 C1681 C 0.44829 0.85564 0.57518
 H1682 H 0.45548 0.84833 0.58779
 O1683 O 0.51816 1.10001 0.57749
 O1684 O 0.51896 1.12281 0.60153
 C1685 C 0.52545 1.11578 0.58502
 C1686 C 0.54201 1.12550 0.57461
 C1687 C 0.55047 1.14315 0.58219
 H1688 H 0.54452 1.15021 0.59557
 O1689 O 0.39856 0.93017 0.52071
 O1690 O 0.37534 0.90741 0.52036
 C1691 C 0.38252 0.92344 0.52746
 C1692 C 0.37254 0.93421 0.54406
 C1693 C 0.35415 0.92800 0.55115
 H1694 H 0.34697 0.91535 0.54416
 O1695 O 0.59550 1.06954 0.52347
 O1696 O 0.61892 1.09211 0.52366
 C1697 C 0.61176 1.07604 0.53030
 C1698 C 0.62213 1.06510 0.54653
 C1699 C 0.64104 1.07078 0.55284
 H1700 H 0.64848 1.08267 0.54507
 O1701 O 0.51751 1.07178 0.60377
 O1702 O 0.51781 1.09434 0.62808
 C1703 C 0.52412 1.07805 0.62055
 C1704 C 0.53932 1.06626 0.63134
 C1705 C 0.54398 1.07060 0.65148
 H1706 H 0.53657 1.08291 0.65894
 O1707 O 0.47794 0.92782 0.60102
 O1708 O 0.47770 0.90451 0.62430
 C1709 C 0.47123 0.92092 0.61733
 C1710 C 0.45556 0.93202 0.62811
 C1711 C 0.44939 0.92596 0.64723
 H1712 H 0.45628 0.91309 0.65420
 O1713 O 0.59535 1.01742 0.57631
 O1714 O 0.61824 1.01719 0.60006
 C1715 C 0.61138 1.02397 0.58358
 C1716 C 0.62191 1.03979 0.57279
 C1717 C 0.64078 1.04573 0.57899
 H1718 H 0.64780 1.03856 0.59177
 O1719 O 0.40033 0.98231 0.57411
 O1720 O 0.37734 0.98285 0.59740
 C1721 C 0.38417 0.97592 0.58102
 C1722 C 0.37344 0.95996 0.57021
 C1723 C 0.35501 0.95367 0.57698
 H1724 H 0.34818 0.96125 0.58961
 O1725 O 0.56909 1.09771 0.52417
 O1726 O 0.59253 1.12024 0.52438
 C1727 C 0.57651 1.11361 0.53128
 C1728 C 0.56687 1.12425 0.54819
 C1729 C 0.57505 1.14182 0.55593
 H1730 H 0.58783 1.14813 0.54879
 O1731 O 0.42503 0.90223 0.52062
 O1732 O 0.40201 0.87925 0.52022
 C1733 C 0.41811 0.88601 0.52720
 C1734 C 0.42880 0.87517 0.54336
 C1735 C 0.42257 0.85630 0.54966
 H1736 H 0.41024 0.84925 0.54213
 O1737 O 0.56824 0.97875 0.60274
 O1738 O 0.59094 0.97831 0.62669
 C1739 C 0.57493 0.97184 0.61919
 C1740 C 0.56401 0.95604 0.62958
 C1741 C 0.56929 0.95038 0.64917
 H1742 H 0.58150 0.95765 0.65669
 O1743 O 0.42787 1.02073 0.60211
 O1744 O 0.40472 1.02118 0.62521
 C1745 C 0.42082 1.02770 0.61838
 C1746 C 0.43109 1.04392 0.62928
 C1747 C 0.42397 1.05072 0.64786
 H1748 H 0.41151 1.04343 0.65463
 O1749 O 0.47981 1.10079 0.57680
 O1750 O 0.48036 1.12382 0.60062
 C1751 C 0.47348 1.11714 0.58408
 C1752 C 0.45774 1.12822 0.57328
 C1753 C 0.45185 1.14731 0.57966
 H1754 H 0.45893 1.15394 0.59270
 O1755 O 0.51634 0.90027 0.57351
 O1756 O 0.51627 0.87696 0.59677
 C1757 C 0.52313 0.88405 0.58060
 C1758 C 0.53963 0.87371 0.57030
 C1759 C 0.54692 0.85548 0.57761
 H1760 H 0.53967 0.84841 0.59012
 O1761 O 0.59588 0.92763 0.52203
 O1762 O 0.61884 0.90417 0.52168
 C1763 C 0.61193 0.92038 0.52879
 C1764 C 0.62232 0.93059 0.54551
 C1765 C 0.64070 0.92361 0.55227
 H1766 H 0.64780 0.91130 0.54448
 O1767 O 0.40211 1.07529 0.52230
 O1768 O 0.37891 1.09851 0.52249
 C1769 C 0.38588 1.08207 0.52894
 C1770 C 0.37522 1.07071 0.54443
 C1771 C 0.35567 1.07560 0.54938
 H1772 H 0.34812 1.08749 0.54140
 Cu1773 Cu 0.49708 0.91628 0.58497
 Cu1774 Cu 0.49686 0.88823 0.61287
 Cu1775 Cu 0.49864 1.08426 0.58809
 Cu1776 Cu 0.49921 1.11163 0.61697
 Cu1777 Cu 0.41407 0.91866 0.50113
 Cu1778 Cu 0.38638 0.89115 0.50055
 Cu1779 Cu 0.58007 0.91647 0.50233
 Cu1780 Cu 0.60748 0.88815 0.50201
 Cu1781 Cu 0.41790 1.08686 0.50317
 Cu1782 Cu 0.39026 1.11493 0.50337
 Cu1783 Cu 0.57968 1.08148 0.50414
 Cu1784 Cu 0.60770 1.10870 0.50447
 Cu1785 Cu 0.41661 1.00139 0.58567
 Cu1786 Cu 0.38889 1.00205 0.61351
 Cu1787 Cu 0.57974 0.99814 0.58736
 Cu1788 Cu 0.60708 0.99772 0.61604
 C1789 C 0.54846 0.94628 0.61977
 H1790 H 0.54449 0.95045 0.60452
 C1791 C 0.55913 0.93520 0.65907
 C1792 C 0.44733 1.05339 0.62077
 H1793 H 0.45268 1.04837 0.60626
 C1794 C 0.43268 1.06689 0.65786
 C1795 C 0.38468 1.05488 0.55448
 H1796 H 0.39978 1.05107 0.55085
 C1797 C 0.34569 1.06493 0.56428
 C1798 C 0.61338 0.94672 0.55552
 H1799 H 0.59904 0.95197 0.55050
 C1800 C 0.65005 0.93234 0.56903
 C1801 C 0.54897 0.88261 0.55390
 H1802 H 0.54356 0.89681 0.54835
 C1803 C 0.56360 0.84634 0.56905
 C1804 C 0.44809 1.11936 0.55681
 H1805 H 0.45234 1.10446 0.55207
 C1806 C 0.43669 1.15776 0.56957
 C1807 C 0.44627 0.94846 0.61902
 H1808 H 0.45080 0.95304 0.60415
 C1809 C 0.43411 0.93612 0.65724
 C1810 C 0.54935 1.05070 0.62148
 H1811 H 0.54604 1.04751 0.60581
 C1812 C 0.55817 1.05928 0.66203
 C1813 C 0.44503 0.88400 0.55303
 H1814 H 0.44978 0.89863 0.54841
 C1815 C 0.43227 0.84639 0.56554
 C1816 C 0.55025 1.11630 0.55749
 H1817 H 0.54409 1.10255 0.55173
 C1818 C 0.56713 1.15127 0.57298
 C1819 C 0.38197 0.95029 0.55361
 H1820 H 0.39630 0.95496 0.54847
 C1821 C 0.34527 0.93765 0.56764
 C1822 C 0.61278 1.04946 0.55645
 H1823 H 0.59810 1.04515 0.55179
 C1824 C 0.65046 1.06121 0.56907
 O1825 O 0.48449 0.42361 0.90367
 O1826 O 0.48403 0.40064 0.87977
 C1827 C 0.47783 0.41710 0.88699
 C1828 C 0.46261 0.42873 0.87599
 C1829 C 0.45689 0.42318 0.85641
 H1830 H 0.46371 0.41031 0.84933
 O1831 O 0.52484 0.57069 0.90327
 O1832 O 0.52508 0.59387 0.87988
 C1833 C 0.53166 0.57753 0.88698
 C1834 C 0.54762 0.56647 0.87648
 C1835 C 0.55523 0.57344 0.85821
 H1836 H 0.54924 0.58692 0.85156
 O1837 O 0.40787 0.47984 0.92945
 O1838 O 0.38505 0.48037 0.90564
 C1839 C 0.39178 0.47343 0.92210
 C1840 C 0.38102 0.45736 0.93242
 C1841 C 0.36323 0.45028 0.92438
 H1842 H 0.35689 0.45736 0.91119
 O1843 O 0.60249 0.51501 0.92974
 O1844 O 0.62493 0.51433 0.90593
 C1845 C 0.61835 0.52153 0.92232
 C1846 C 0.62870 0.53817 0.93253
 C1847 C 0.64589 0.54632 0.92434
 H1848 H 0.65208 0.53999 0.91073
 O1849 O 0.43186 0.40010 0.98291
 O1850 O 0.40847 0.37752 0.98332
 C1851 C 0.42455 0.38394 0.97632
 C1852 C 0.43455 0.37277 0.96001
 C1853 C 0.42702 0.35456 0.95316
 H1854 H 0.41446 0.34820 0.96064
 O1855 O 0.57686 0.59553 0.98370
 O1856 O 0.60009 0.61829 0.98404
 C1857 C 0.58388 0.61172 0.97716
 C1858 C 0.57344 0.62277 0.96101
 C1859 C 0.58059 0.64114 0.95447
 H1860 H 0.59322 0.64767 0.96197
 O1861 O 0.43547 0.51816 0.90220
 O1862 O 0.41255 0.51857 0.87851
 C1863 C 0.42862 0.52506 0.88577
 C1864 C 0.43916 0.54110 0.87521
 C1865 C 0.43286 0.54737 0.85608
 H1866 H 0.42044 0.54012 0.84890
 O1867 O 0.57396 0.47657 0.90312
 O1868 O 0.59634 0.47568 0.87925
 C1869 C 0.58040 0.46934 0.88671
 C1870 C 0.56961 0.45299 0.87652
 C1871 C 0.57538 0.44633 0.85736
 H1872 H 0.58704 0.45397 0.84959
 O1873 O 0.52225 0.39470 0.93085
 O1874 O 0.52177 0.37149 0.90722
 C1875 C 0.52874 0.37837 0.92361
 C1876 C 0.54500 0.36777 0.93415
 C1877 C 0.55184 0.34902 0.92746
 H1878 H 0.54478 0.34185 0.91469
 O1879 O 0.48621 0.59828 0.93042
 O1880 O 0.48599 0.62150 0.90708
 C1881 C 0.47920 0.61439 0.92330
 C1882 C 0.46256 0.62447 0.93371
 C1883 C 0.45381 0.64185 0.92576
 H1884 H 0.45959 0.64834 0.91216
 O1885 O 0.40830 0.57075 0.98395
 O1886 O 0.38504 0.59389 0.98430
 C1887 C 0.39211 0.57774 0.97719
 C1888 C 0.38182 0.56724 0.96048
 C1889 C 0.36307 0.57355 0.95381
 H1890 H 0.35558 0.58554 0.96170
 O1891 O 0.60138 0.42310 0.98214
 O1892 O 0.62442 0.39972 0.98206
 C1893 C 0.61735 0.41597 0.97526
 C1894 C 0.62764 0.42645 0.95894
 C1895 C 0.64611 0.41967 0.95242
 H1896 H 0.65321 0.40733 0.96011
 O1897 O 0.48660 0.57110 0.90264
 O1898 O 0.48661 0.59412 0.87907
 C1899 C 0.47999 0.57794 0.88610
 C1900 C 0.46415 0.56709 0.87530
 C1901 C 0.45763 0.57315 0.85612
 H1902 H 0.46475 0.58548 0.84874
 O1903 O 0.52265 0.42293 0.90452
 O1904 O 0.52227 0.39993 0.88065
 C1905 C 0.52913 0.41603 0.88800
 C1906 C 0.54486 0.42674 0.87731
 C1907 C 0.55105 0.42019 0.85825
 H1908 H 0.54428 0.40722 0.85142
 O1909 O 0.60200 0.47606 0.92975
 O1910 O 0.62454 0.47528 0.90604
 C1911 C 0.61777 0.46876 0.92249
 C1912 C 0.62796 0.45218 0.93308
 C1913 C 0.64639 0.44499 0.92655
 H1914 H 0.65339 0.45182 0.91376
 O1915 O 0.40877 0.51872 0.92990
 O1916 O 0.38578 0.51920 0.90627
 C1917 C 0.39280 0.52581 0.92279
 C1918 C 0.38240 0.54205 0.93372
 C1919 C 0.36387 0.54879 0.92707
 H1920 H 0.35731 0.54206 0.91380
 O1921 O 0.43527 0.59777 0.98391
 O1922 O 0.41209 0.62099 0.98432
 C1923 C 0.42799 0.61391 0.97712
 C1924 C 0.43764 0.62415 0.96015
 C1925 C 0.42924 0.64154 0.95205
 H1926 H 0.41635 0.64811 0.95906
 O1927 O 0.57499 0.39542 0.98260
 O1928 O 0.59797 0.37197 0.98253
 C1929 C 0.58180 0.37901 0.97585
 C1930 C 0.57102 0.36826 0.95973
 C1931 C 0.57759 0.34952 0.95297
 H1932 H 0.59009 0.34245 0.96032
 O1933 O 0.57491 0.51560 0.90272
 O1934 O 0.59729 0.51468 0.87885
 C1935 C 0.58168 0.52217 0.88628
 C1936 C 0.57180 0.53918 0.87609
 C1937 C 0.57905 0.54630 0.85779
 H1938 H 0.59114 0.53854 0.85054
 O1939 O 0.43506 0.47915 0.90222
 O1940 O 0.41229 0.47971 0.87837
 C1941 C 0.42814 0.47251 0.88570
 C1942 C 0.43843 0.45591 0.87523
 C1943 C 0.43293 0.45019 0.85559
 H1944 H 0.42160 0.45855 0.84767
 O1945 O 0.52469 0.59822 0.93075
 O1946 O 0.52479 0.62164 0.90761
 C1947 C 0.53150 0.61439 0.92395
 C1948 C 0.54783 0.62431 0.93495
 C1949 C 0.55521 0.64277 0.92862
 H1950 H 0.54854 0.65032 0.91587
 O1951 O 0.48378 0.39626 0.93099
 O1952 O 0.48307 0.37313 0.90728
 C1953 C 0.47650 0.38041 0.92365
 C1954 C 0.45987 0.37088 0.93411
 C1955 C 0.45198 0.35270 0.92727
 H1956 H 0.45836 0.34521 0.91435
 O1957 O 0.60327 0.56741 0.98279
 O1958 O 0.62647 0.59019 0.98289
 C1959 C 0.61917 0.57424 0.97577
 C1960 C 0.62894 0.56393 0.95873
 C1961 C 0.64612 0.57176 0.95042
 H1962 H 0.65283 0.58474 0.95728
 O1963 O 0.40550 0.42821 0.98272
 O1964 O 0.38204 0.40572 0.98285
 C1965 C 0.38938 0.42152 0.97572
 C1966 C 0.37963 0.43195 0.95863
 C1967 C 0.36183 0.42498 0.95024
 H1968 H 0.35473 0.41215 0.95670
 Cu1969 Cu 0.50332 0.41158 0.91998
 Cu1970 Cu 0.50274 0.38393 0.89137
 Cu1971 Cu 0.50559 0.58232 0.91913
 Cu1972 Cu 0.50564 0.61017 0.89111
 Cu1973 Cu 0.42412 0.49891 0.91829
 Cu1974 Cu 0.39662 0.49953 0.88983
 Cu1975 Cu 0.58612 0.49587 0.91873
 Cu1976 Cu 0.61299 0.49486 0.89010
 C1977 C 0.45343 0.44521 0.88520
 H1978 H 0.45762 0.44940 0.90040
 C1979 C 0.44216 0.43388 0.84602
 C1980 C 0.55595 0.54925 0.88522
 H1981 H 0.55045 0.54397 0.89948
 C1982 C 0.57102 0.56348 0.84881
 C1983 C 0.38898 0.44825 0.94965
 H1984 H 0.40285 0.45350 0.95573
 C1985 C 0.35361 0.43401 0.93299
 C1986 C 0.62046 0.54702 0.94981
 H1987 H 0.60703 0.54111 0.95599
 C1988 C 0.65459 0.56325 0.93312
 C1989 C 0.45109 0.38069 0.95056
 H1990 H 0.45681 0.39487 0.95570
 C1991 C 0.43546 0.34448 0.93671
 C1992 C 0.55695 0.61457 0.95131
 H1993 H 0.55160 0.60022 0.95611
 C1994 C 0.57169 0.65120 0.93828
 C1995 C 0.45494 0.55091 0.88460
 H1996 H 0.45968 0.54630 0.89949
 C1997 C 0.44201 0.56330 0.84635
 C1998 C 0.55417 0.44324 0.88630
 H1999 H 0.54973 0.44817 0.90116
 C2000 C 0.56626 0.42989 0.84815
 C2001 C 0.55461 0.37713 0.95039
 H2002 H 0.54966 0.39172 0.95541
 C2003 C 0.56818 0.33979 0.93679
 C2004 C 0.45441 0.61584 0.95100
 H2005 H 0.46078 0.60223 0.95700
 C2006 C 0.43701 0.65037 0.93475
 C2007 C 0.39120 0.55129 0.95050
 H2008 H 0.40567 0.54639 0.95546
 C2009 C 0.35391 0.56437 0.93709
 C2010 C 0.61878 0.44284 0.94935
 H2011 H 0.60444 0.44804 0.95424
 C2012 C 0.65559 0.42871 0.93619
 O2013 O 0.52528 0.42492 1.10258
 O2014 O 0.52541 0.40167 1.12592
 C2015 C 0.53212 0.41782 1.11890
 C2016 C 0.54830 0.42840 1.12942
 C2017 C 0.55425 0.42308 1.14902
 H2018 H 0.54633 0.41161 1.15689
 O2019 O 0.48791 0.57062 1.10498
 O2020 O 0.48854 0.59388 1.12857
 C2021 C 0.48143 0.57787 1.12141
 C2022 C 0.46505 0.56778 1.13177
 C2023 C 0.45666 0.57587 1.14941
 H2024 H 0.46250 0.58945 1.15592
 O2025 O 0.41010 0.51844 1.07712
 O2026 O 0.38708 0.51888 1.10038
 C2027 C 0.39404 0.52542 1.08401
 C2028 C 0.38346 0.54138 1.07293
 C2029 C 0.36446 0.54734 1.07873
 H2030 H 0.35754 0.54017 1.09138
 O2031 O 0.60434 0.47598 1.07404
 O2032 O 0.62765 0.47553 1.09736
 C2033 C 0.62043 0.46895 1.08094
 C2034 C 0.63054 0.45267 1.06991
 C2035 C 0.64947 0.44618 1.07569
 H2036 H 0.65691 0.45336 1.08823
 O2037 O 0.57528 0.39644 1.02182
 O2038 O 0.59819 0.37292 1.02169
 C2039 C 0.58227 0.38019 1.02862
 C2040 C 0.57182 0.36975 1.04485
 C2041 C 0.57759 0.35047 1.05058
 H2042 H 0.58992 0.34336 1.04309
 O2043 O 0.43574 0.59783 1.02334
 O2044 O 0.41263 0.62111 1.02384
 C2045 C 0.42880 0.61399 1.03053
 C2046 C 0.43935 0.62418 1.04729
 C2047 C 0.43235 0.64241 1.05511
 H2048 H 0.41974 0.64963 1.04811
 O2049 O 0.43643 0.47899 1.10480
 O2050 O 0.41368 0.47951 1.12830
 C2051 C 0.42955 0.47235 1.12115
 C2052 C 0.43990 0.45577 1.13155
 C2053 C 0.43384 0.44925 1.15059
 H2054 H 0.42212 0.45720 1.15825
 O2055 O 0.57758 0.51497 1.10188
 O2056 O 0.60074 0.51453 1.12535
 C2057 C 0.58461 0.52147 1.11840
 C2058 C 0.57413 0.53750 1.12946
 C2059 C 0.58015 0.54284 1.14897
 H2060 H 0.59178 0.53435 1.15626
 O2061 O 0.48615 0.39920 1.07470
 O2062 O 0.48606 0.37566 1.09774
 C2063 C 0.47921 0.38314 1.08153
 C2064 C 0.46274 0.37332 1.07075
 C2065 C 0.45604 0.35469 1.07706
 H2066 H 0.46319 0.34730 1.08964
 O2067 O 0.52637 0.59655 1.07695
 O2068 O 0.52729 0.61983 1.10051
 C2069 C 0.53363 0.61253 1.08407
 C2070 C 0.54998 0.62229 1.07337
 C2071 C 0.55790 0.64032 1.08054
 H2072 H 0.55173 0.64744 1.09377
 O2073 O 0.40592 0.42852 1.02220
 O2074 O 0.38239 0.40610 1.02247
 C2075 C 0.38991 0.42203 1.02933
 C2076 C 0.38034 0.43287 1.04614
 C2077 C 0.36180 0.42707 1.05321
 H2078 H 0.35440 0.41462 1.04612
 O2079 O 0.60444 0.56723 1.02210
 O2080 O 0.62784 0.58981 1.02209
 C2081 C 0.62078 0.57372 1.02876
 C2082 C 0.63137 0.56266 1.04479
 C2083 C 0.65044 0.56817 1.05082
 H2084 H 0.65783 0.58003 1.04298
 O2085 O 0.52622 0.56870 1.10367
 O2086 O 0.52704 0.59174 1.12748
 C2087 C 0.53332 0.57537 1.12008
 C2088 C 0.54928 0.56404 1.13032
 C2089 C 0.55584 0.56951 1.14969
 H2090 H 0.54914 0.58220 1.15721
 O2091 O 0.48695 0.42520 1.10353
 O2092 O 0.48699 0.40183 1.12674
 C2093 C 0.48039 0.41823 1.11989
 C2094 C 0.46468 0.42917 1.13080
 C2095 C 0.45822 0.42263 1.14965
 H2096 H 0.46490 0.40948 1.15626
 O2097 O 0.60470 0.51477 1.07459
 O2098 O 0.62799 0.51434 1.09792
 C2099 C 0.62090 0.52122 1.08160
 C2100 C 0.63139 0.53708 1.07077
 C2101 C 0.65041 0.54284 1.07671
 H2102 H 0.65757 0.53548 1.08930
 O2103 O 0.40938 0.47977 1.07688
 O2104 O 0.38655 0.48031 1.10032
 C2105 C 0.39316 0.47358 1.08377
 C2106 C 0.38200 0.45815 1.07266
 C2107 C 0.36325 0.45256 1.07915
 H2108 H 0.35657 0.46048 1.09163
 O2109 O 0.57738 0.59475 1.02304
 O2110 O 0.60074 0.61736 1.02323
 C2111 C 0.58473 0.61066 1.03016
 C2112 C 0.57490 0.62125 1.04699
 C2113 C 0.58250 0.63929 1.05430
 H2114 H 0.59498 0.64591 1.04691
 O2115 O 0.43278 0.40097 1.02202
 O2116 O 0.40943 0.37836 1.02247
 C2117 C 0.42576 0.38500 1.02904
 C2118 C 0.43655 0.37428 1.04523
 C2119 C 0.43008 0.35562 1.05181
 H2120 H 0.41753 0.34871 1.04454
 O2121 O 0.57771 0.47616 1.10163
 O2122 O 0.60089 0.47577 1.12509
 C2123 C 0.58475 0.46928 1.11797
 C2124 C 0.57412 0.45347 1.12874
 C2125 C 0.58011 0.44773 1.14811
 H2126 H 0.59274 0.45484 1.15500
 O2127 O 0.43713 0.51798 1.10481
 O2128 O 0.41417 0.51847 1.12811
 C2129 C 0.43017 0.52504 1.12109
 C2130 C 0.44025 0.54164 1.13155
 C2131 C 0.43232 0.54968 1.14926
 H2132 H 0.41969 0.54267 1.15600
 O2133 O 0.48791 0.59677 1.07653
 O2134 O 0.48864 0.62016 1.09999
 C2135 C 0.48148 0.61312 1.08369
 C2136 C 0.46511 0.62370 1.07327
 C2137 C 0.45779 0.64181 1.08093
 H2138 H 0.46445 0.64822 1.09432
 O2139 O 0.52448 0.39709 1.07532
 O2140 O 0.52452 0.37358 1.09839
 C2141 C 0.53101 0.38057 1.08203
 C2142 C 0.54660 0.36973 1.07084
 C2143 C 0.55233 0.35024 1.07617
 H2144 H 0.54459 0.34268 1.08804
 O2145 O 0.60264 0.42305 1.02131
 O2146 O 0.62565 0.39963 1.02117
 C2147 C 0.61886 0.41602 1.02793
 C2148 C 0.62971 0.42681 1.04393
 C2149 C 0.64866 0.42059 1.04979
 H2150 H 0.65573 0.40833 1.04189
 O2151 O 0.40900 0.57048 1.02330
 O2152 O 0.38573 0.59363 1.02361
 C2153 C 0.39294 0.57739 1.03027
 C2154 C 0.38282 0.56666 1.04659
 C2155 C 0.36376 0.57235 1.05255
 H2156 H 0.35608 0.58416 1.04457
 Cu2157 Cu 0.50578 0.41394 1.08674
 Cu2158 Cu 0.50577 0.38581 1.11450
 Cu2159 Cu 0.50703 0.58085 1.08820
 Cu2160 Cu 0.50799 0.60877 1.11647
 Cu2161 Cu 0.42127 0.41679 1.00242
 Cu2162 Cu 0.39318 0.38970 1.00285
 Cu2163 Cu 0.58625 0.41185 1.00198
 Cu2164 Cu 0.61388 0.38370 1.00185
 Cu2165 Cu 0.42439 0.58190 1.00361
 Cu2166 Cu 0.39660 0.60977 1.00409
 Cu2167 Cu 0.58816 0.57893 1.00291
 Cu2168 Cu 0.61611 0.60620 1.00309
 Cu2169 Cu 0.42562 0.49868 1.08862
 Cu2170 Cu 0.39813 0.49932 1.11669
 Cu2171 Cu 0.58877 0.49554 1.08566
 Cu2172 Cu 0.61665 0.49503 1.11380
 C2173 C 0.55817 0.44380 1.11956
 H2174 H 0.55371 0.44799 1.10446
 C2175 C 0.57014 0.43278 1.15857
 C2176 C 0.45676 0.55061 1.12307
 H2177 H 0.46277 0.54456 1.10923
 C2178 C 0.44010 0.56698 1.15812
 C2179 C 0.39246 0.55102 1.05675
 H2180 H 0.40721 0.54665 1.05236
 C2181 C 0.35442 0.56272 1.06857
 C2182 C 0.62086 0.44299 1.05392
 H2183 H 0.60614 0.44772 1.04959
 C2184 C 0.65867 0.43016 1.06566
 C2185 C 0.55627 0.37921 1.05499
 H2186 H 0.55199 0.39423 1.05083
 C2187 C 0.56781 0.34041 1.06603
 C2188 C 0.45588 0.61508 1.05635
 H2189 H 0.46122 0.60091 1.05060
 C2190 C 0.44142 0.65130 1.07200
 C2191 C 0.45551 0.44579 1.12195
 H2192 H 0.46018 0.45066 1.10723
 C2193 C 0.44290 0.43264 1.15981
 C2194 C 0.55850 0.54798 1.12037
 H2195 H 0.55384 0.54395 1.10526
 C2196 C 0.57124 0.55890 1.15921
 C2197 C 0.45302 0.38294 1.05469
 H2198 H 0.45795 0.39746 1.04989
 C2199 C 0.43975 0.34574 1.06769
 C2200 C 0.55852 0.61296 1.05649
 H2201 H 0.55276 0.59890 1.05107
 C2202 C 0.57424 0.64887 1.07112
 C2203 C 0.39028 0.44845 1.05595
 H2204 H 0.40479 0.45268 1.05093
 C2205 C 0.35304 0.43690 1.06970
 C2206 C 0.62208 0.54698 1.05471
 H2207 H 0.60730 0.54280 1.05026
 C2208 C 0.66012 0.55833 1.06676
 C2209 C 1.12560 1.08481 1.27250
 C2210 C 1.10730 1.08964 1.26348
 C2211 C 1.09386 1.10134 1.27481
 C2212 C 1.09935 1.10920 1.29369
 C2213 C 1.11796 1.10498 1.30220
 C2214 C 1.13072 1.09222 1.29144
 C2215 C 1.07501 1.10520 1.26723
 C2216 C 1.06915 1.09763 1.24864
 C2217 C 1.08224 1.08644 1.23650
 C2218 C 1.10187 1.08312 1.24369
 C2219 C 1.11566 1.07410 1.23059
 C2220 C 1.11040 1.06833 1.21120
 C2221 C 1.09110 1.07066 1.20429
 C2222 C 1.07658 1.07915 1.21705
 C2223 C 1.05696 1.07988 1.20979
 C2224 C 1.05228 1.07355 1.19031
 C2225 C 1.06693 1.06645 1.17725
 C2226 C 1.08630 1.06476 1.18455
 H2227 H 1.13623 1.07507 1.26544
 H2228 H 1.08879 1.11821 1.30190
 H2229 H 1.14522 1.08841 1.29710
 H2230 H 1.06462 1.11411 1.27581
 H2231 H 1.05445 1.10154 1.24380
 H2232 H 1.13094 1.07205 1.23458
 H2233 H 1.12159 1.06189 1.20152
 H2234 H 1.04483 1.08490 1.21892
 H2235 H 1.03703 1.07422 1.18548
 H2236 H 1.09783 1.05927 1.17473
 C2237 C 1.14341 0.60739 0.75670
 C2238 C 1.12309 0.60685 0.75172
 C2239 C 1.10967 0.61458 0.76611
 C2240 C 1.11648 0.62294 0.78432
 C2241 C 1.13665 0.62358 0.78883
 C2242 C 1.14998 0.61558 0.77491
 C2243 C 1.08948 0.61399 0.76229
 C2244 C 1.08217 0.60587 0.74450
 C2245 C 1.09484 0.59813 0.72954
 C2246 C 1.11566 0.59892 0.73307
 C2247 C 1.12835 0.59205 0.71772
 C2248 C 1.12105 0.58462 0.69962
 C2249 C 1.10085 0.58344 0.69606
 C2250 C 1.08740 0.58994 0.71101
 C2251 C 1.06704 0.58791 0.70671
 C2252 C 1.06048 0.58029 0.68825
 C2253 C 1.07385 0.57437 0.67336
 C2254 C 1.09406 0.57589 0.67749
 H2255 H 1.15469 0.60152 0.74696
 H2256 H 1.10601 0.62875 0.79515
 H2257 H 1.16565 0.61597 0.77794
 H2258 H 1.07915 0.61988 0.77323
 H2259 H 1.06640 0.60621 0.74283
 H2260 H 1.14414 0.59250 0.71903
 H2261 H 1.13141 0.57970 0.68824
 H2262 H 1.05573 0.59187 0.71731
 H2263 H 1.04478 0.57886 0.68570
 H2264 H 1.10459 0.57153 0.66607
 C2265 C 0.61836 1.07730 0.78138
 C2266 C 0.60038 1.08272 0.77203
 C2267 C 0.58668 1.09397 0.78348
 C2268 C 0.59169 1.10097 0.80283
 C2269 C 0.61008 1.09633 0.81164
 C2270 C 0.62302 1.08386 0.80076
 C2271 C 0.56808 1.09831 0.77553
 C2272 C 0.56273 1.09169 0.75641
 C2273 C 0.57613 1.08105 0.74414
 C2274 C 0.59553 1.07725 0.75178
 C2275 C 0.60968 1.06885 0.73868
 C2276 C 0.60500 1.06412 0.71886
 C2277 C 0.58592 1.06687 0.71148
 C2278 C 0.57104 1.07478 0.72417
 C2279 C 0.55165 1.07595 0.71633
 C2280 C 0.54752 1.07047 0.69646
 C2281 C 0.56253 1.06387 0.68357
 C2282 C 0.58170 1.06190 0.69136
 H2283 H 0.62909 1.06775 0.77421
 H2284 H 0.58097 1.10970 0.81112
 H2285 H 0.63732 1.07969 0.80665
 H2286 H 0.55748 1.10687 0.78421
 H2287 H 0.54819 1.09591 0.75132
 H2288 H 0.62483 1.06655 0.74306
 H2289 H 0.61646 1.05812 0.70923
 H2290 H 0.53926 1.08061 0.72530
 H2291 H 0.53240 1.07134 0.69123
 H2292 H 0.59352 1.05685 0.68167
 C2293 C 0.58052 0.60622 1.28538
 C2294 C 0.59197 0.59438 1.27217
 C2295 C 0.61146 0.58948 1.27825
 C2296 C 0.61880 0.59575 1.29703
 C2297 C 0.60752 0.60809 1.30978
 C2298 C 0.58823 0.61307 1.30366
 C2299 C 0.62378 0.57878 1.26534
 C2300 C 0.61754 0.57366 1.24607
 C2301 C 0.59840 0.57852 1.23917
 C2302 C 0.58501 0.58785 1.25288
 C2303 C 0.56513 0.59016 1.24689
 C2304 C 0.55872 0.58427 1.22787
 C2305 C 0.57197 0.57658 1.21382
 C2306 C 0.59208 0.57401 1.21912
 C2307 C 0.60518 0.56755 1.20394
 C2308 C 0.59840 0.56309 1.18460
 C2309 C 0.57833 0.56461 1.17968
 C2310 C 0.56520 0.57150 1.19443
 H2311 H 0.56578 0.61112 1.28171
 H2312 H 0.63388 0.59203 1.30094
 H2313 H 0.57877 0.62212 1.31310
 H2314 H 0.63862 0.57475 1.26998
 H2315 H 0.62793 0.56537 1.23706
 H2316 H 0.55398 0.59597 1.25684
 H2317 H 0.54328 0.58613 1.22399
 H2318 H 0.62087 0.56643 1.20633
 H2319 H 0.60907 0.55864 1.17336
 H2320 H 0.54964 0.57279 1.19091
 C2321 C 0.86288 0.90259 1.26164
 C2322 C 0.88185 0.89863 1.25390
 C2323 C 0.89471 0.88650 1.26555
 C2324 C 0.88829 0.87785 1.28359
 C2325 C 0.86930 0.88178 1.29111
 C2326 C 0.85685 0.89447 1.27986
 C2327 C 0.91401 0.88318 1.25926
 C2328 C 0.92101 0.89194 1.24185
 C2329 C 0.90871 0.90394 1.22958
 C2330 C 0.88857 0.90657 1.23522
 C2331 C 0.87572 0.91658 1.22176
 C2332 C 0.88237 0.92408 1.20361
 C2333 C 0.90216 0.92253 1.19838
 C2334 C 0.91574 0.91292 1.21152
 C2335 C 0.93584 0.91290 1.20611
 C2336 C 0.94196 0.92119 1.18800
 C2337 C 0.92834 0.92965 1.17446
 C2338 C 0.90843 0.93045 1.17996
 H2339 H 0.85243 0.91229 1.25420
 H2340 H 0.89855 0.86875 1.29213
 H2341 H 0.84203 0.89785 1.28469
 H2342 H 0.92394 0.87386 1.26804
 H2343 H 0.93604 0.88844 1.23802
 H2344 H 0.86018 0.91826 1.22450
 H2345 H 0.87187 0.93134 1.19361
 H2346 H 0.94729 0.90699 1.21575
 H2347 H 0.95753 0.92103 1.18466
 H2348 H 0.89764 0.93689 1.16974
 C2349 C 0.87390 0.41269 0.76670
 C2350 C 0.89240 0.40812 0.75821
 C2351 C 0.90577 0.39645 0.76974
 C2352 C 0.90003 0.38834 0.78823
 C2353 C 0.88131 0.39247 0.79627
 C2354 C 0.86858 0.40517 0.78537
 C2355 C 0.92482 0.39296 0.76279
 C2356 C 0.93100 0.40101 0.74471
 C2357 C 0.91803 0.41223 0.73241
 C2358 C 0.89815 0.41496 0.73881
 C2359 C 0.88448 0.42375 0.72533
 C2360 C 0.89012 0.42995 0.70634
 C2361 C 0.90969 0.42840 0.70034
 C2362 C 0.92406 0.42015 0.71353
 C2363 C 0.94392 0.42035 0.70733
 C2364 C 0.94904 0.42742 0.68839
 C2365 C 0.93461 0.43428 0.67480
 C2366 C 0.91493 0.43492 0.68108
 H2367 H 0.86332 0.42239 0.75945
 H2368 H 0.91052 0.37936 0.79663
 H2369 H 0.85400 0.40881 0.79073
 H2370 H 0.93515 0.38405 0.77151
 H2371 H 0.94587 0.39744 0.74031
 H2372 H 0.86904 0.42524 0.72868
 H2373 H 0.87903 0.43619 0.69631
 H2374 H 0.95589 0.41560 0.71697
 H2375 H 0.96447 0.42756 0.68444
 H2376 H 0.90352 0.44014 0.67086
 C2377 C 0.36077 0.89717 0.76168
 C2378 C 0.38092 0.89763 0.75635
 C2379 C 0.39476 0.88946 0.77021
 C2380 C 0.38848 0.88072 0.78820
 C2381 C 0.36845 0.88006 0.79298
 C2382 C 0.35473 0.88854 0.77964
 C2383 C 0.41481 0.88992 0.76603
 C2384 C 0.42158 0.89819 0.74832
 C2385 C 0.40848 0.90623 0.73381
 C2386 C 0.38778 0.90578 0.73781
 C2387 C 0.37464 0.91316 0.72298
 C2388 C 0.38135 0.92058 0.70486
 C2389 C 0.40142 0.92121 0.70077
 C2390 C 0.41533 0.91435 0.71525
 C2391 C 0.43555 0.91582 0.71040
 C2392 C 0.44150 0.92314 0.69181
 C2393 C 0.42764 0.92931 0.67737
 C2394 C 0.40760 0.92851 0.68209
 H2395 H 0.34922 0.90332 0.75236
 H2396 H 0.39923 0.87452 0.79861
 H2397 H 0.33915 0.88813 0.78289
 H2398 H 0.42545 0.88373 0.77659
 H2399 H 0.43729 0.89769 0.74633
 H2400 H 0.35890 0.91312 0.72471
 H2401 H 0.37066 0.92584 0.69387
 H2402 H 0.44720 0.91155 0.72061
 H2403 H 0.45711 0.92404 0.68875
 H2404 H 0.39671 0.93313 0.67100
 C2405 C 0.37011 0.40223 1.26757
 C2406 C 0.38921 0.39803 1.26029
 C2407 C 0.40211 0.38688 1.27285
 C2408 C 0.39567 0.37948 1.29142
 C2409 C 0.37658 0.38368 1.29852
 C2410 C 0.36403 0.39533 1.28627
 C2411 C 0.42150 0.38335 1.26693
 C2412 C 0.42855 0.39101 1.24901
 C2413 C 0.41625 0.40209 1.23589
 C2414 C 0.39602 0.40484 1.24119
 C2415 C 0.38320 0.41392 1.22705
 C2416 C 0.38996 0.42053 1.20860
 C2417 C 0.40983 0.41894 1.20368
 C2418 C 0.42336 0.41008 1.21740
 C2419 C 0.44351 0.40987 1.21211
 C2420 C 0.44973 0.41746 1.19371
 C2421 C 0.43618 0.42538 1.17979
 C2422 C 0.41621 0.42614 1.18502
 H2423 H 0.35959 0.41122 1.25938
 H2424 H 0.40599 0.37116 1.30067
 H2425 H 0.34913 0.39882 1.29073
 H2426 H 0.43146 0.37477 1.27640
 H2427 H 0.44365 0.38746 1.24556
 H2428 H 0.36762 0.41559 1.22953
 H2429 H 0.37951 0.42717 1.19814
 H2430 H 0.45491 0.40440 1.22206
 H2431 H 0.46533 0.41727 1.19049
 H2432 H 0.40547 0.43209 1.17445
 C2433 C 0.87718 1.09216 0.72265
 C2434 C 0.88838 1.10290 0.73702
 C2435 C 0.89224 1.12319 0.73295
 C2436 C 0.88563 1.13201 0.71496
 C2437 C 0.87427 1.12128 0.70087
 C2438 C 0.87022 1.10120 0.70509
 C2439 C 0.90243 1.13477 0.74699
 C2440 C 0.90842 1.12684 0.76530
 C2441 C 0.90482 1.10675 0.77018
 C2442 C 0.89550 1.09434 0.75542
 C2443 C 0.89388 1.07376 0.75944
 C2444 C 0.90073 1.06567 0.77741
 C2445 C 0.90891 1.07777 0.79236
 C2446 C 0.91068 1.09855 0.78915
 C2447 C 0.91796 1.11034 0.80524
 C2448 C 0.92409 1.10169 0.82328
 C2449 C 0.92331 1.08101 0.82600
 C2450 C 0.91542 1.06916 0.81052
 H2451 H 0.87310 1.07684 0.72473
 H2452 H 0.88862 1.14763 0.71260
 H2453 H 0.86192 1.09208 0.69465
 H2454 H 0.90559 1.15026 0.74391
 H2455 H 0.91636 1.13678 0.77516
 H2456 H 0.88787 1.06333 0.74871
 H2457 H 0.89941 1.04975 0.77971
 H2458 H 0.91871 1.12635 0.80457
 H2459 H 0.92935 1.11134 0.83525
 H2460 H 0.91463 1.05315 0.81244
 C2461 C 0.92005 0.60494 0.21311
 C2462 C 0.90756 0.59837 0.22868
 C2463 C 0.88698 0.59867 0.22487
 C2464 C 0.87943 0.60520 0.20629
 C2465 C 0.89200 0.61191 0.19121
 C2466 C 0.91234 0.61162 0.19478
 C2467 C 0.87393 0.59271 0.23969
 C2468 C 0.88074 0.58682 0.25849
 C2469 C 0.90104 0.58651 0.26325
 C2470 C 0.91472 0.59185 0.24793
 C2471 C 0.93506 0.59043 0.25234
 C2472 C 0.94185 0.58439 0.27112
 C2473 C 0.92874 0.57974 0.28638
 C2474 C 0.90814 0.58086 0.28278
 C2475 C 0.89553 0.57645 0.29902
 C2476 C 0.90310 0.57076 0.31772
 C2477 C 0.92344 0.56927 0.32102
 C2478 C 0.93618 0.57392 0.30528
 H2479 H 0.93582 0.60547 0.21464
 H2480 H 0.86365 0.60570 0.20380
 H2481 H 0.92236 0.61662 0.18330
 H2482 H 0.85820 0.59277 0.23680
 H2483 H 0.86959 0.58237 0.26892
 H2484 H 0.94626 0.59368 0.24150
 H2485 H 0.95761 0.58347 0.27376
 H2486 H 0.87974 0.57750 0.29795
 H2487 H 0.89291 0.56771 0.32976
 H2488 H 0.95196 0.57274 0.30766
 C2489 C 0.40757 1.11563 0.22360
 C2490 C 0.39672 1.10841 0.24012
 C2491 C 0.37590 1.10811 0.23818
 C2492 C 0.36655 1.11476 0.22048
 C2493 C 0.37753 1.12227 0.20453
 C2494 C 0.39808 1.12249 0.20621
 C2495 C 0.36441 1.10151 0.25404
 C2496 C 0.37301 1.09561 0.27207
 C2497 C 0.39363 1.09592 0.27498
 C2498 C 0.40573 1.10184 0.25854
 C2499 C 0.42640 1.10089 0.26107
 C2500 C 0.43498 1.09460 0.27902
 C2501 C 0.42341 1.08930 0.29534
 C2502 C 0.40257 1.09017 0.29369
 C2503 C 0.39154 1.08536 0.31096
 C2504 C 0.40079 1.07905 0.32863
 C2505 C 0.42133 1.07738 0.32988
 C2506 C 0.43259 1.08292 0.31329
 H2507 H 0.42338 1.11662 0.22371
 H2508 H 0.35062 1.11483 0.21942
 H2509 H 0.40688 1.12814 0.19402
 H2510 H 0.34851 1.10108 0.25258
 H2511 H 0.36298 1.09058 0.28338
 H2512 H 0.43649 1.10462 0.24929
 H2513 H 0.45091 1.09394 0.28015
 H2514 H 0.37573 1.08645 0.31147
 H2515 H 0.39177 1.07543 0.34146
 H2516 H 0.44851 1.08176 0.31416
 C2517 C 0.39536 0.63757 0.74413
 C2518 C 0.39711 0.61714 0.74914
 C2519 C 0.38934 0.60304 0.73526
 C2520 C 0.37983 0.60933 0.71748
 C2521 C 0.37815 0.62962 0.71289
 C2522 C 0.38608 0.64361 0.72634
 C2523 C 0.39107 0.58272 0.73915
 C2524 C 0.40040 0.57593 0.75651
 C2525 C 0.40823 0.58929 0.77095
 C2526 C 0.40629 0.61025 0.76736
 C2527 C 0.41328 0.62361 0.78225
 C2528 C 0.42179 0.61684 0.80002
 C2529 C 0.42398 0.59651 0.80367
 C2530 C 0.41757 0.58240 0.78909
 C2531 C 0.42072 0.56196 0.79341
 C2532 C 0.42904 0.55593 0.81169
 C2533 C 0.43462 0.56994 0.82633
 C2534 C 0.43233 0.59025 0.82203
 H2535 H 0.40110 0.64935 0.75348
 H2536 H 0.37400 0.59840 0.70700
 H2537 H 0.38485 0.65939 0.72324
 H2538 H 0.38515 0.57187 0.72861
 H2539 H 0.40087 0.56001 0.75831
 H2540 H 0.41206 0.63955 0.78087
 H2541 H 0.42667 0.62769 0.81110
 H2542 H 0.41700 0.55019 0.78301
 H2543 H 0.43110 0.54014 0.81440
 H2544 H 0.43651 0.60125 0.83326
 C2545 C 1.11044 0.91618 0.71712
 C2546 C 1.10214 0.90443 0.73249
 C2547 C 1.10143 0.88352 0.72925
 C2548 C 1.10853 0.87498 0.71129
 C2549 C 1.11679 0.88686 0.69633
 C2550 C 1.11762 0.90750 0.69946
 C2551 C 1.09379 0.87117 0.74400
 C2552 C 1.08705 0.87899 0.76210
 C2553 C 1.08750 0.89967 0.76621
 C2554 C 1.09475 0.91265 0.75096
 C2555 C 1.09424 0.93341 0.75466
 C2556 C 1.08722 0.94124 0.77265
 C2557 C 1.08061 0.92880 0.78784
 C2558 C 1.08076 0.90783 0.78497
 C2559 C 1.07430 0.89592 0.80113
 C2560 C 1.06768 0.90453 0.81905
 C2561 C 1.06719 0.92527 0.82164
 C2562 C 1.07380 0.93730 0.80594
 H2563 H 1.11186 0.93211 0.71828
 H2564 H 1.10807 0.85897 0.70915
 H2565 H 1.12376 0.91705 0.68808
 H2566 H 1.09312 0.85520 0.74157
 H2567 H 1.08132 0.86831 0.77252
 H2568 H 1.09896 0.94418 0.74380
 H2569 H 1.08707 0.95729 0.77471
 H2570 H 1.07441 0.87988 0.80061
 H2571 H 1.06314 0.89481 0.83109
 H2572 H 1.07343 0.95338 0.80771
 C2573 C 1.11724 0.41349 0.21778
 C2574 C 1.10893 0.40161 0.23306
 C2575 C 1.10905 0.38065 0.23006
 C2576 C 1.11682 0.37219 0.21238
 C2577 C 1.12494 0.38419 0.19746
 C2578 C 1.12509 0.40487 0.20038
 C2579 C 1.10150 0.36818 0.24475
 C2580 C 1.09405 0.37592 0.26258
 C2581 C 1.09363 0.39665 0.26643
 C2582 C 1.10074 0.40975 0.25120
 C2583 C 1.09925 0.43052 0.25456
 C2584 C 1.09142 0.43827 0.27224
 C2585 C 1.08500 0.42574 0.28745
 C2586 C 1.08614 0.40475 0.28490
 C2587 C 1.07990 0.39277 0.30110
 C2588 C 1.07255 0.40131 0.31875
 C2589 C 1.07108 0.42204 0.32101
 C2590 C 1.07743 0.43416 0.30526
 H2591 H 1.11814 0.42947 0.21885
 H2592 H 1.11694 0.35614 0.21042
 H2593 H 1.13116 0.41451 0.18903
 H2594 H 1.10145 0.35216 0.24250
 H2595 H 1.08842 0.36516 0.27296
 H2596 H 1.10375 0.44133 0.24366
 H2597 H 1.09052 0.45432 0.27406
 H2598 H 1.08077 0.37675 0.30083
 H2599 H 1.06826 0.39155 0.33085
 H2600 H 1.07630 0.45023 0.30676
 C2601 C 0.62369 0.91276 0.22879
 C2602 C 0.61128 0.90212 0.24186
 C2603 C 0.60718 0.88204 0.23686
 C2604 C 0.61437 0.87347 0.21903
 C2605 C 0.62649 0.88421 0.20595
 C2606 C 0.63125 0.90391 0.21133
 C2607 C 0.59600 0.87043 0.24973
 C2608 C 0.58908 0.87816 0.26776
 C2609 C 0.59264 0.89812 0.27344
 C2610 C 0.60310 0.91056 0.25984
 C2611 C 0.60460 0.93107 0.26444
 C2612 C 0.59650 0.93907 0.28191
 C2613 C 0.58723 0.92690 0.29584
 C2614 C 0.58561 0.90617 0.29205
 C2615 C 0.57733 0.89427 0.30726
 C2616 C 0.57026 0.90275 0.32502
 C2617 C 0.57094 0.92339 0.32831
 C2618 C 0.57960 0.93536 0.31359
 H2619 H 0.62819 0.92785 0.23184
 H2620 H 0.61107 0.85801 0.21595
 H2621 H 0.64040 0.91291 0.20181
 H2622 H 0.59270 0.85507 0.24593
 H2623 H 0.58037 0.86824 0.27667
 H2624 H 0.61142 0.94151 0.25447
 H2625 H 0.59775 0.95496 0.28466
 H2626 H 0.57663 0.87826 0.30618
 H2627 H 0.56451 0.89293 0.33640
 H2628 H 0.58030 0.95135 0.31584
 C2629 C 0.64142 0.39406 0.74347
 C2630 C 0.62162 0.39204 0.74944
 C2631 C 0.60855 0.38240 0.73590
 C2632 C 0.61541 0.37426 0.71770
 C2633 C 0.63528 0.37592 0.71210
 C2634 C 0.64803 0.38622 0.72524
 C2635 C 0.58863 0.38095 0.74054
 C2636 C 0.58129 0.38902 0.75828
 C2637 C 0.59375 0.39853 0.77242
 C2638 C 0.61435 0.39945 0.76823
 C2639 C 0.62709 0.40729 0.78314
 C2640 C 0.61995 0.41437 0.80134
 C2641 C 0.59985 0.41433 0.80532
 C2642 C 0.58637 0.40673 0.79085
 C2643 C 0.56606 0.40780 0.79545
 C2644 C 0.55961 0.41550 0.81385
 C2645 C 0.57310 0.42237 0.82831
 C2646 C 0.59321 0.42179 0.82385
 H2647 H 0.65222 0.40186 0.75239
 H2648 H 0.60493 0.36715 0.70770
 H2649 H 0.66347 0.38788 0.72195
 H2650 H 0.57854 0.37357 0.73027
 H2651 H 0.56578 0.38706 0.76071
 H2652 H 0.64283 0.40767 0.78148
 H2653 H 0.63032 0.42005 0.81242
 H2654 H 0.55473 0.40316 0.78506
 H2655 H 0.54394 0.41623 0.81669
 H2656 H 0.60383 0.42688 0.83497
 C2657 C 1.25151 1.13874 1.10903
 C2658 C 1.24569 1.11865 1.11042
 C2659 C 1.25865 1.10521 1.12039
 C2660 C 1.27639 1.11192 1.12904
 C2661 C 1.28220 1.13191 1.12721
 C2662 C 1.26934 1.14514 1.11715
 C2663 C 1.25403 1.08503 1.12136
 C2664 C 1.23710 1.07775 1.11217
 C2665 C 1.22376 1.09051 1.10197
 C2666 C 1.22770 1.11141 1.10186
 C2667 C 1.21343 1.12442 1.09344
 C2668 C 1.19618 1.11726 1.08488
 C2669 C 1.19257 1.09687 1.08395
 C2670 C 1.20640 1.08314 1.09219
 C2671 C 1.20232 1.06257 1.09007
 C2672 C 1.18495 1.05610 1.08088
 C2673 C 1.17101 1.06979 1.07348
 C2674 C 1.17506 1.09018 1.07493
 H2675 H 1.24288 1.14991 1.10132
 H2676 H 1.28608 1.10120 1.13627
 H2677 H 1.27270 1.16078 1.11576
 H2678 H 1.26378 1.07466 1.12907
 H2679 H 1.23465 1.06200 1.11372
 H2680 H 1.21487 1.14038 1.09365
 H2681 H 1.18559 1.12784 1.07876
 H2682 H 1.21238 1.05107 1.09504
 H2683 H 1.18246 1.04022 1.07949
 H2684 H 1.16436 1.10096 1.06939
 C2685 C 1.26658 0.59229 0.62703
 C2686 C 1.25306 0.60263 0.61447
 C2687 C 1.25682 0.62297 0.61062
 C2688 C 1.27389 0.63209 0.61815
 C2689 C 1.28754 0.62159 0.63025
 C2690 C 1.28335 0.60162 0.63483
 C2691 C 1.24351 0.63426 0.59927
 C2692 C 1.22633 0.62591 0.59180
 C2693 C 1.22192 0.60567 0.59501
 C2694 C 1.23587 0.59363 0.60584
 C2695 C 1.23240 0.57297 0.60723
 C2696 C 1.21575 0.56440 0.59863
 C2697 C 1.20158 0.57609 0.58885
 C2698 C 1.20423 0.59696 0.58729
 C2699 C 1.18888 0.60829 0.57830
 C2700 C 1.17204 0.59917 0.57060
 C2701 C 1.16984 0.57843 0.57135
 C2702 C 1.18472 0.56700 0.58065
 H2703 H 1.26450 0.57701 0.63138
 H2704 H 1.27603 0.64771 0.61501
 H2705 H 1.29328 0.59277 0.64399
 H2706 H 1.24635 0.64982 0.59619
 H2707 H 1.21705 0.63566 0.58297
 H2708 H 1.24263 0.56284 0.61439
 H2709 H 1.21386 0.54842 0.59985
 H2710 H 1.18913 0.62431 0.57747
 H2711 H 1.16052 0.60855 0.56431
 H2712 H 1.18328 0.55095 0.58141
 C2713 C 0.75419 1.13625 0.60328
 C2714 C 0.74932 1.11577 0.60274
 C2715 C 0.76398 1.10188 0.60896
 C2716 C 0.78248 1.10841 0.61575
 C2717 C 0.78689 1.12874 0.61642
 C2718 C 0.77262 1.14253 0.61001
 C2719 C 0.76016 1.08152 0.60845
 C2720 C 0.74204 1.07449 0.60193
 C2721 C 0.72683 1.08764 0.59573
 C2722 C 0.73048 1.10864 0.59629
 C2723 C 0.71513 1.12182 0.59056
 C2724 C 0.69691 1.11484 0.58439
 C2725 C 0.69318 1.09449 0.58355
 C2726 C 0.70802 1.08052 0.58912
 C2727 C 0.70331 1.06001 0.58780
 C2728 C 0.68472 1.05382 0.58134
 C2729 C 0.67019 1.06777 0.57595
 C2730 C 0.67456 1.08809 0.57716
 H2731 H 0.74418 1.14790 0.59866
 H2732 H 0.79354 1.09761 0.62039
 H2733 H 0.77554 1.15836 0.61057
 H2734 H 0.77133 1.07084 0.61316
 H2735 H 0.74042 1.05856 0.60211
 H2736 H 0.71658 1.13777 0.59080
 H2737 H 0.68559 1.12557 0.58019
 H2738 H 0.71362 1.04829 0.59148
 H2739 H 0.68179 1.03801 0.58030
 H2740 H 0.66330 1.09902 0.57332
 C2741 C 0.76778 0.62980 1.09695
 C2742 C 0.76178 0.60964 1.09764
 C2743 C 0.77580 0.59532 1.10440
 C2744 C 0.79471 0.60116 1.11061
 C2745 C 0.80028 0.62120 1.11002
 C2746 C 0.78668 0.63539 1.10302
 C2747 C 0.77092 0.57521 1.10493
 C2748 C 0.75244 0.56882 1.09879
 C2749 C 0.73787 0.58240 1.09200
 C2750 C 0.74249 0.60320 1.09178
 C2751 C 0.72760 0.61688 1.08595
 C2752 C 0.70897 0.61054 1.08031
 C2753 C 0.70437 0.59035 1.07998
 C2754 C 0.71873 0.57592 1.08565
 C2755 C 0.71329 0.55560 1.08460
 C2756 C 0.69440 0.55001 1.07848
 C2757 C 0.68023 0.56438 1.07318
 C2758 C 0.68538 0.58455 1.07398
 H2759 H 0.75834 0.64167 1.09168
 H2760 H 0.80526 0.59001 1.11565
 H2761 H 0.79055 0.65099 1.10252
 H2762 H 0.78157 0.56421 1.11013
 H2763 H 0.74999 0.55304 1.09985
 H2764 H 0.72974 0.63275 1.08585
 H2765 H 0.69802 0.62163 1.07605
 H2766 H 0.72330 0.54356 1.08811
 H2767 H 0.69097 0.53429 1.07762
 H2768 H 0.67449 0.59584 1.07015
 C2769 C 1.25619 0.86074 0.89991
 C2770 C 1.24880 0.88027 0.89671
 C2771 C 1.26084 0.89362 0.88602
 C2772 C 1.27882 0.88719 0.87784
 C2773 C 1.28580 0.86755 0.88054
 C2774 C 1.27435 0.85461 0.89212
 C2775 C 1.25492 0.91340 0.88347
 C2776 C 1.23731 0.92036 0.89141
 C2777 C 1.22455 0.90761 0.90183
 C2778 C 1.23004 0.88706 0.90386
 C2779 C 1.21634 0.87391 0.91239
 C2780 C 1.19800 0.88058 0.91884
 C2781 C 1.19277 0.90070 0.91769
 C2782 C 1.20617 0.91460 0.90970
 C2783 C 1.20063 0.93499 0.91005
 C2784 C 1.18223 0.94108 0.91712
 C2785 C 1.16858 0.92718 0.92399
 C2786 C 1.17412 0.90697 0.92441
 H2787 H 1.24842 0.84989 0.90863
 H2788 H 1.28761 0.89790 0.86989
 H2789 H 1.27894 0.83937 0.89471
 H2790 H 1.26406 0.92369 0.87527
 H2791 H 1.23379 0.93576 0.88846
 H2792 H 1.21909 0.85812 0.91364
 H2793 H 1.18783 0.86985 0.92492
 H2794 H 1.21031 0.94668 0.90539
 H2795 H 1.17879 0.95687 0.91735
 H2796 H 1.16379 0.89597 0.92965
 C2797 C 1.27411 0.38956 0.41757
 C2798 C 1.25992 0.39939 0.40543
 C2799 C 1.26469 0.40276 0.38500
 C2800 C 1.28316 0.39707 0.37740
 C2801 C 1.29704 0.38695 0.38951
 C2802 C 1.29216 0.38338 0.40972
 C2803 C 1.25087 0.41147 0.37208
 C2804 C 1.23212 0.41631 0.37877
 C2805 C 1.22658 0.41310 0.39893
 C2806 C 1.24103 0.40551 0.41272
 C2807 C 1.23620 0.40458 0.43335
 C2808 C 1.21774 0.41037 0.44019
 C2809 C 1.20314 0.41671 0.42675
 C2810 C 1.20719 0.41772 0.40587
 C2811 C 1.19154 0.42299 0.39273
 C2812 C 1.17301 0.42801 0.40017
 C2813 C 1.16938 0.42812 0.42092
 C2814 C 1.18449 0.42214 0.43412
 H2815 H 1.27154 0.38587 0.43309
 H2816 H 1.28612 0.39962 0.36165
 H2817 H 1.30242 0.37607 0.41985
 H2818 H 1.25446 0.41427 0.35647
 H2819 H 1.22241 0.42311 0.36784
 H2820 H 1.24662 0.39999 0.44475
 H2821 H 1.21479 0.40966 0.45619
 H2822 H 1.19297 0.42293 0.37659
 H2823 H 1.16141 0.43175 0.38953
 H2824 H 1.18188 0.42206 0.45020
 C2825 C 0.77106 0.88602 0.41406
 C2826 C 0.75502 0.89351 0.40253
 C2827 C 0.75734 0.89443 0.38134
 C2828 C 0.77505 0.88835 0.37231
 C2829 C 0.79062 0.88079 0.38396
 C2830 C 0.78846 0.87973 0.40487
 C2831 C 0.74193 0.90120 0.36917
 C2832 C 0.72402 0.90678 0.37744
 C2833 C 0.72081 0.90603 0.39841
 C2834 C 0.73675 0.89984 0.41123
 C2835 C 0.73394 0.90040 0.43229
 C2836 C 0.71618 0.90661 0.44057
 C2837 C 0.70037 0.91217 0.42829
 C2838 C 0.70231 0.91165 0.40702
 C2839 C 0.68555 0.91671 0.39527
 C2840 C 0.66807 0.92294 0.40427
 C2841 C 0.66654 0.92430 0.42524
 C2842 C 0.68265 0.91850 0.43720
 H2843 H 0.77058 0.88443 0.43017
 H2844 H 0.77650 0.88888 0.35608
 H2845 H 0.80036 0.87401 0.41419
 H2846 H 0.74367 0.90206 0.35298
 H2847 H 0.71305 0.91200 0.36689
 H2848 H 0.74534 0.89650 0.44293
 H2849 H 0.71482 0.90700 0.45682
 H2850 H 0.68531 0.91587 0.37908
 H2851 H 0.65562 0.92674 0.39470
 H2852 H 0.68156 0.91942 0.45346
 C2853 C 0.77866 0.41703 0.88933
 C2854 C 0.76487 0.40490 0.89914
 C2855 C 0.76981 0.38450 0.90178
 C2856 C 0.78806 0.37686 0.89527
 C2857 C 0.80142 0.38897 0.88497
 C2858 C 0.79641 0.40920 0.88233
 C2859 C 0.75631 0.37167 0.91049
 C2860 C 0.73771 0.37845 0.91596
 C2861 C 0.73200 0.39858 0.91341
 C2862 C 0.74617 0.41222 0.90587
 C2863 C 0.74125 0.43272 0.90549
 C2864 C 0.72289 0.43960 0.91159
 C2865 C 0.70851 0.42635 0.91781
 C2866 C 0.71271 0.40562 0.91850
 C2867 C 0.69726 0.39275 0.92391
 C2868 C 0.67879 0.40029 0.92917
 C2869 C 0.67500 0.42086 0.92937
 C2870 C 0.68993 0.43380 0.92344
 H2871 H 0.77598 0.43256 0.88623
 H2872 H 0.79120 0.36115 0.89722
 H2873 H 0.80635 0.41934 0.87509
 H2874 H 0.76002 0.35609 0.91275
 H2875 H 0.72823 0.36756 0.92262
 H2876 H 0.75148 0.44400 0.90103
 H2877 H 0.71985 0.45548 0.91119
 H2878 H 0.69881 0.37676 0.92379
 H2879 H 0.66735 0.38986 0.93299
 H2880 H 0.68722 0.44975 0.92351
 C2881 C 0.74296 0.86760 1.10351
 C2882 C 0.74830 0.88797 1.10337
 C2883 C 0.73452 0.90201 1.11110
 C2884 C 0.71646 0.89572 1.11896
 C2885 C 0.71155 0.87549 1.11914
 C2886 C 0.72493 0.86156 1.11125
 C2887 C 0.73877 0.92228 1.11098
 C2888 C 0.75642 0.92908 1.10333
 C2889 C 0.77076 0.91579 1.09557
 C2890 C 0.76674 0.89486 1.09584
 C2891 C 0.78138 0.88152 1.08879
 C2892 C 0.79925 0.88828 1.08166
 C2893 C 0.80329 0.90858 1.08103
 C2894 C 0.78910 0.92270 1.08779
 C2895 C 0.79395 0.94315 1.08642
 C2896 C 0.81215 0.94914 1.07907
 C2897 C 0.82621 0.93508 1.07276
 C2898 C 0.82158 0.91480 1.07373
 H2899 H 0.75228 0.85588 1.09771
 H2900 H 0.70607 0.90665 1.12473
 H2901 H 0.72160 0.84582 1.11134
 H2902 H 0.72829 0.93307 1.11688
 H2903 H 0.75844 0.94496 1.10398
 H2904 H 0.77966 0.86559 1.08880
 H2905 H 0.81006 0.87742 1.07654
 H2906 H 0.78400 0.95497 1.09074
 H2907 H 0.81517 0.96493 1.07813
 H2908 H 0.83240 0.90374 1.06910
 C2909 C 0.75452 0.38057 0.63735
 C2910 C 0.75813 0.38433 0.61675
 C2911 C 0.74355 0.37833 0.60258
 C2912 C 0.72602 0.36940 0.60898
 C2913 C 0.72244 0.36665 0.62949
 C2914 C 0.73696 0.37202 0.64351
 C2915 C 0.74631 0.38165 0.58211
 C2916 C 0.76302 0.39118 0.57530
 C2917 C 0.77781 0.39784 0.58876
 C2918 C 0.77548 0.39408 0.60981
 C2919 C 0.79050 0.40029 0.62322
 C2920 C 0.80718 0.40986 0.61642
 C2921 C 0.80962 0.41380 0.59603
 C2922 C 0.79495 0.40801 0.58187
 C2923 C 0.79815 0.41266 0.56138
 C2924 C 0.81542 0.42188 0.55529
 C2925 C 0.83004 0.42701 0.56931
 C2926 C 0.82688 0.42324 0.58972
 H2927 H 0.76472 0.38437 0.64921
 H2928 H 0.71476 0.36541 0.59807
 H2929 H 0.73459 0.36976 0.65944
 H2930 H 0.73530 0.37699 0.57120
 H2931 H 0.76386 0.39305 0.55925
 H2932 H 0.78995 0.39792 0.63921
 H2933 H 0.81834 0.41423 0.62731
 H2934 H 0.78771 0.40932 0.54959
 H2935 H 0.81743 0.42492 0.53943
 H2936 H 0.83820 0.42705 0.60065
 C2937 C 0.22206 0.89149 0.57902
 C2938 C 0.23702 0.89931 0.59172
 C2939 C 0.23330 0.90004 0.61270
 C2940 C 0.21530 0.89350 0.62040
 C2941 C 0.20076 0.88571 0.60762
 C2942 C 0.20433 0.88477 0.58691
 C2943 C 0.24761 0.90710 0.62600
 C2944 C 0.26579 0.91314 0.61907
 C2945 C 0.27039 0.91256 0.59837
 C2946 C 0.25556 0.90611 0.58440
 C2947 C 0.25971 0.90685 0.56361
 C2948 C 0.27779 0.91329 0.55667
 C2949 C 0.29261 0.91897 0.57009
 C2950 C 0.28926 0.91849 0.59114
 C2951 C 0.30506 0.92378 0.60407
 C2952 C 0.32309 0.92978 0.59638
 C2953 C 0.32612 0.93076 0.57558
 C2954 C 0.31081 0.92517 0.56251
 H2955 H 0.22366 0.88999 0.56297
 H2956 H 0.21282 0.89392 0.63650
 H2957 H 0.19328 0.87887 0.57671
 H2958 H 0.24478 0.90783 0.64204
 H2959 H 0.27585 0.91851 0.63042
 H2960 H 0.24914 0.90283 0.55216
 H2961 H 0.28023 0.91370 0.54056
 H2962 H 0.30418 0.92315 0.62023
 H2963 H 0.33484 0.93345 0.60684
 H2964 H 0.31296 0.92591 0.54637
 C2965 C 0.23221 0.38571 1.08180
 C2966 C 0.24514 0.39753 1.09347
 C2967 C 0.23980 0.40178 1.11364
 C2968 C 0.22181 0.39516 1.12133
 C2969 C 0.20916 0.38316 1.10969
 C2970 C 0.21474 0.37854 1.08982
 C2971 C 0.25262 0.41229 1.12621
 C2972 C 0.27100 0.41803 1.11946
 C2973 C 0.27704 0.41406 1.09954
 C2974 C 0.26343 0.40474 1.08601
 C2975 C 0.26843 0.40326 1.06545
 C2976 C 0.28641 0.40997 1.05847
 C2977 C 0.30040 0.41773 1.07177
 C2978 C 0.29610 0.41948 1.09256
 C2979 C 0.31127 0.42609 1.10561
 C2980 C 0.32962 0.43139 1.09817
 C2981 C 0.33353 0.43062 1.07747
 C2982 C 0.31875 0.42368 1.06436
 H2983 H 0.23546 0.38116 1.06659
 H2984 H 0.21834 0.39850 1.13688
 H2985 H 0.20542 0.36967 1.08009
 H2986 H 0.24858 0.41576 1.14161
 H2987 H 0.27998 0.42614 1.13009
 H2988 H 0.25844 0.39750 1.05419
 H2989 H 0.28952 0.40873 1.04253
 H2990 H 0.30964 0.42670 1.12173
 H2991 H 0.34090 0.43584 1.10884
 H2992 H 0.32144 0.42298 1.04831
 C2993 C 0.71729 1.07589 0.90090
 C2994 C 0.73124 1.08886 0.90967
 C2995 C 0.72553 1.10904 0.91264
 C2996 C 0.70647 1.11567 0.90735
 C2997 C 0.69295 1.10275 0.89798
 C2998 C 0.69868 1.08274 0.89511
 C2999 C 0.73903 1.12265 0.92042
 C3000 C 0.75832 1.11690 0.92460
 C3001 C 0.76481 1.09705 0.92161
 C3002 C 0.75077 1.08260 0.91502
 C3003 C 0.75670 1.06238 0.91413
 C3004 C 0.77585 1.05654 0.91874
 C3005 C 0.79000 1.07058 0.92398
 C3006 C 0.78480 1.09107 0.92526
 C3007 C 0.79997 1.10476 0.92977
 C3008 C 0.81921 1.09823 0.93347
 C3009 C 0.82410 1.07789 0.93290
 C3010 C 0.80937 1.06416 0.92800
 H3011 H 0.72043 1.06045 0.89768
 H3012 H 0.70275 1.13125 0.90947
 H3013 H 0.68869 1.07199 0.88859
 H3014 H 0.73475 1.13807 0.92294
 H3015 H 0.76775 1.12836 0.93059
 H3016 H 0.74673 1.05052 0.91034
 H3017 H 0.77967 1.04083 0.91793
 H3018 H 0.79757 1.12065 0.93012
 H3019 H 0.83039 1.10925 0.93662
 H3020 H 0.81291 1.04838 0.92759
 C3021 C 0.71917 0.58218 0.39667
 C3022 C 0.73555 0.59440 0.40110
 C3023 C 0.73260 0.61537 0.40033
 C3024 C 0.71407 0.62352 0.39524
 C3025 C 0.69821 0.61113 0.39046
 C3026 C 0.70094 0.59044 0.39140
 C3027 C 0.74822 0.62813 0.40438
 C3028 C 0.76684 0.62067 0.40893
 C3029 C 0.77069 0.59995 0.40972
 C3030 C 0.75471 0.58659 0.40605
 C3031 C 0.75842 0.56588 0.40748
 C3032 C 0.77699 0.55843 0.41231
 C3033 C 0.79274 0.57119 0.41573
 C3034 C 0.78993 0.59213 0.41429
 C3035 C 0.80657 0.60434 0.41750
 C3036 C 0.82485 0.59613 0.42265
 C3037 C 0.82736 0.57549 0.42469
 C3038 C 0.81129 0.56308 0.42085
 H3039 H 0.71990 0.56615 0.39685
 H3040 H 0.71214 0.63954 0.39433
 H3041 H 0.68884 0.58055 0.38801
 H3042 H 0.74605 0.64416 0.40391
 H3043 H 0.77792 0.63168 0.41194
 H3044 H 0.74720 0.55487 0.40515
 H3045 H 0.77903 0.54242 0.41338
 H3046 H 0.80607 0.62032 0.41616
 H3047 H 0.83716 0.60604 0.42507
 H3048 H 0.81307 0.54708 0.42242
 C3049 C 0.22214 1.08219 0.39426
 C3050 C 0.23645 1.09440 0.40351
 C3051 C 0.23177 1.11490 0.40614
 C3052 C 0.21329 1.12257 0.40006
 C3053 C 0.19948 1.11037 0.39017
 C3054 C 0.20420 1.09004 0.38767
 C3055 C 0.24576 1.12776 0.41435
 C3056 C 0.26455 1.12092 0.41928
 C3057 C 0.27001 1.10070 0.41668
 C3058 C 0.25540 1.08706 0.40967
 C3059 C 0.26017 1.06651 0.40919
 C3060 C 0.27876 1.05959 0.41465
 C3061 C 0.29351 1.07280 0.42037
 C3062 C 0.28948 1.09358 0.42119
 C3063 C 0.30525 1.10638 0.42614
 C3064 C 0.32389 1.09876 0.43086
 C3065 C 0.32756 1.07815 0.43091
 C3066 C 0.31229 1.06528 0.42539
 H3067 H 0.22453 1.06657 0.39127
 H3068 H 0.21029 1.13834 0.40194
 H3069 H 0.19388 1.07981 0.38082
 H3070 H 0.24228 1.14341 0.41660
 H3071 H 0.27442 1.13185 0.42555
 H3072 H 0.24968 1.05523 0.40511
 H3073 H 0.28168 1.04368 0.41418
 H3074 H 0.30380 1.12238 0.42613
 H3075 H 0.33556 1.10913 0.43440
 H3076 H 0.31490 1.04931 0.42537
 C3077 C 0.24858 0.63810 0.90030
 C3078 C 0.25621 0.61873 0.89678
 C3079 C 0.24486 0.60566 0.88464
 C3080 C 0.22726 0.61227 0.87546
 C3081 C 0.21989 0.63167 0.87888
 C3082 C 0.23077 0.64432 0.89167
 C3083 C 0.25102 0.58597 0.88181
 C3084 C 0.26805 0.57880 0.89107
 C3085 C 0.28004 0.59130 0.90305
 C3086 C 0.27450 0.61182 0.90516
 C3087 C 0.28769 0.62484 0.91506
 C3088 C 0.30553 0.61801 0.92288
 C3089 C 0.31067 0.59786 0.92182
 C3090 C 0.29775 0.58411 0.91243
 C3091 C 0.30303 0.56369 0.91299
 C3092 C 0.32086 0.55741 0.92149
 C3093 C 0.33422 0.57118 0.92959
 C3094 C 0.32881 0.59142 0.92996
 H3095 H 0.25580 0.64871 0.91002
 H3096 H 0.21895 0.60185 0.86634
 H3097 H 0.22598 0.65944 0.89469
 H3098 H 0.24246 0.57588 0.87250
 H3099 H 0.27183 0.56347 0.88792
 H3100 H 0.28498 0.64064 0.91634
 H3101 H 0.31535 0.62863 0.92998
 H3102 H 0.29351 0.55212 0.90736
 H3103 H 0.32416 0.54159 0.92173
 H3104 H 0.33888 0.60232 0.93618
 C3105 C 1.13790 1.26110 1.09797
 C3106 C 1.11795 1.25519 1.09836
 C3107 C 1.10396 1.26906 1.10606
 C3108 C 1.10995 1.28775 1.11345
 C3109 C 1.12977 1.29326 1.11293
 C3110 C 1.14361 1.27978 1.10509
 C3111 C 1.08405 1.26428 1.10626
 C3112 C 1.07755 1.24612 1.09877
 C3113 C 1.09082 1.23174 1.09097
 C3114 C 1.11141 1.23615 1.09125
 C3115 C 1.12478 1.22127 1.08470
 C3116 C 1.11834 1.20284 1.07789
 C3117 C 1.09834 1.19850 1.07700
 C3118 C 1.08423 1.21294 1.08325
 C3119 C 1.06409 1.20791 1.08138
 C3120 C 1.05838 1.18919 1.07433
 C3121 C 1.07242 1.17477 1.06884
 C3122 C 1.09241 1.17966 1.07003
 H3123 H 1.14950 1.25181 1.09201
 H3124 H 1.09912 1.29823 1.11922
 H3125 H 1.15904 1.28363 1.10466
 H3126 H 1.07330 1.27478 1.11219
 H3127 H 1.06194 1.24368 1.09969
 H3128 H 1.14049 1.22319 1.08499
 H3129 H 1.12920 1.19184 1.07320
 H3130 H 1.05231 1.21813 1.08502
 H3131 H 1.04281 1.18601 1.07307
 H3132 H 1.10344 1.16861 1.06591
 C3133 C 1.11026 0.77796 0.57860
 C3134 C 1.10354 0.76228 0.59091
 C3135 C 1.10347 0.76558 0.61204
 C3136 C 1.10968 0.78385 0.62027
 C3137 C 1.11650 0.79904 0.60784
 C3138 C 1.11666 0.79592 0.58698
 C3139 C 1.09744 0.75056 0.62493
 C3140 C 1.09176 0.73212 0.61744
 C3141 C 1.09169 0.72794 0.59656
 C3142 C 1.09717 0.74345 0.58303
 C3143 C 1.09593 0.73965 0.56211
 C3144 C 1.08979 0.72134 0.55462
 C3145 C 1.08490 0.70593 0.56757
 C3146 C 1.08602 0.70887 0.58873
 C3147 C 1.08151 0.69248 0.60116
 C3148 C 1.07545 0.67437 0.59291
 C3149 C 1.07367 0.67180 0.57203
 C3150 C 1.07872 0.68760 0.55943
 H3151 H 1.11111 0.77678 0.56246
 H3152 H 1.10980 0.78604 0.63645
 H3153 H 1.12175 0.80749 0.57705
 H3154 H 1.09724 0.75302 0.64108
 H3155 H 1.08720 0.72151 0.62852
 H3156 H 1.09931 0.75066 0.55097
 H3157 H 1.08892 0.71922 0.53844
 H3158 H 1.08269 0.69301 0.61733
 H3159 H 1.07219 0.66223 0.60299
 H3160 H 1.07741 0.68577 0.54324
 C3161 C 0.59409 1.27534 0.61632
 C3162 C 0.60444 1.25799 0.61003
 C3163 C 0.62532 1.25878 0.60994
 C3164 C 0.63520 1.27619 0.61594
 C3165 C 0.62468 1.29299 0.62256
 C3166 C 0.60409 1.29242 0.62254
 C3167 C 0.63632 1.24211 0.60419
 C3168 C 0.62717 1.22444 0.59884
 C3169 C 0.60645 1.22270 0.59890
 C3170 C 0.59487 1.23989 0.60411
 C3171 C 0.57414 1.23840 0.60314
 C3172 C 0.56500 1.22081 0.59736
 C3173 C 0.57605 1.20385 0.59257
 C3174 C 0.59692 1.20442 0.59357
 C3175 C 0.60738 1.18659 0.58919
 C3176 C 0.59757 1.16940 0.58311
 C3177 C 0.57703 1.16919 0.58130
 C3178 C 0.56630 1.18636 0.58650
 H3179 H 0.57828 1.27616 0.61703
 H3180 H 0.65115 1.27640 0.61620
 H3181 H 0.59564 1.30529 0.62747
 H3182 H 0.65227 1.24267 0.60396
 H3183 H 0.63687 1.21244 0.59446
 H3184 H 0.56442 1.25072 0.60647
 H3185 H 0.54906 1.22049 0.59663
 H3186 H 0.62316 1.18531 0.59032
 H3187 H 0.60617 1.15614 0.57970
 H3188 H 0.55037 1.18628 0.58521
 C3189 C 0.59311 0.77283 1.11921
 C3190 C 0.60456 0.75679 1.11152
 C3191 C 0.62524 0.75939 1.11060
 C3192 C 0.63385 0.77740 1.11679
 C3193 C 0.62227 0.79305 1.12436
 C3194 C 0.60187 0.79056 1.12553
 C3195 C 0.63731 0.74398 1.10363
 C3196 C 0.62942 0.72586 1.09771
 C3197 C 0.60894 0.72242 1.09831
 C3198 C 0.59626 0.73829 1.10489
 C3199 C 0.57571 0.73521 1.10439
 C3200 C 0.56779 0.71728 1.09785
 C3201 C 0.57994 0.70154 1.09182
 C3202 C 0.60070 0.70373 1.09221
 C3203 C 0.61233 0.68703 1.08653
 C3204 C 0.60367 0.66933 1.08006
 C3205 C 0.58317 0.66751 1.07902
 C3206 C 0.57138 0.68362 1.08521
 H3207 H 0.57738 0.77215 1.12082
 H3208 H 0.64969 0.77907 1.11616
 H3209 H 0.59259 0.80249 1.13122
 H3210 H 0.65312 0.74592 1.10282
 H3211 H 0.63986 0.71493 1.09237
 H3212 H 0.56518 0.74653 1.10863
 H3213 H 0.55192 0.71571 1.09755
 H3214 H 0.62817 0.68699 1.08706
 H3215 H 0.61315 0.65692 1.07593
 H3216 H 0.55549 0.68237 1.08448
 C3217 C 0.89909 1.26713 0.86493
 C3218 C 0.89953 1.26072 0.88522
 C3219 C 0.89221 1.27411 0.90006
 C3220 C 0.88440 1.29280 0.89459
 C3221 C 0.88406 1.29883 0.87444
 C3222 C 0.89153 1.28584 0.85973
 C3223 C 0.89278 1.26885 0.92032
 C3224 C 0.90063 1.25065 0.92634
 C3225 C 0.90806 1.23670 0.91224
 C3226 C 0.90707 1.24162 0.89129
 C3227 C 0.91336 1.22717 0.87711
 C3228 C 0.92046 1.20865 0.88311
 C3229 C 0.92193 1.20379 0.90344
 C3230 C 0.91608 1.21783 0.91834
 C3231 C 0.91856 1.21232 0.93877
 C3232 C 0.92573 1.19349 0.94402
 C3233 C 0.93076 1.17941 0.92921
 C3234 C 0.92907 1.18482 0.90891
 H3235 H 0.90468 1.25821 0.85268
 H3236 H 0.87895 1.30290 0.90611
 H3237 H 0.89135 1.29010 0.84404
 H3238 H 0.88715 1.27899 0.93172
 H3239 H 0.90028 1.24782 0.94227
 H3240 H 0.91262 1.22952 0.86111
 H3241 H 0.92488 1.19798 0.87163
 H3242 H 0.91528 1.22224 0.95112
 H3243 H 0.92740 1.18994 0.95983
 H3244 H 0.93286 1.17406 0.89729
 C3245 C 0.86416 0.75984 0.38955
 C3246 C 0.88422 0.75395 0.39005
 C3247 C 0.89824 0.76759 0.38262
 C3248 C 0.89222 0.78622 0.37496
 C3249 C 0.87233 0.79185 0.37503
 C3250 C 0.85843 0.77843 0.38224
 C3251 C 0.91822 0.76272 0.38315
 C3252 C 0.92475 0.74476 0.39122
 C3253 C 0.91145 0.73071 0.39896
 C3254 C 0.89081 0.73517 0.39789
 C3255 C 0.87745 0.72068 0.40462
 C3256 C 0.88392 0.70261 0.41236
 C3257 C 0.90394 0.69821 0.41397
 C3258 C 0.91806 0.71221 0.40749
 C3259 C 0.93820 0.70706 0.40994
 C3260 C 0.94391 0.68863 0.41781
 C3261 C 0.92986 0.67468 0.42361
 C3262 C 0.90988 0.67971 0.42186
 H3263 H 0.85247 0.75066 0.39502
 H3264 H 0.90304 0.79664 0.36956
 H3265 H 0.84294 0.78237 0.38221
 H3266 H 0.92901 0.77302 0.37742
 H3267 H 0.94042 0.74226 0.39093
 H3268 H 0.86172 0.72265 0.40387
 H3269 H 0.87307 0.69193 0.41720
 H3270 H 0.94997 0.71693 0.40606
 H3271 H 0.95948 0.68528 0.41939
 H3272 H 0.89886 0.66898 0.42617
 C3273 C 0.37001 1.26817 0.40268
 C3274 C 0.38977 1.26130 0.40257
 C3275 C 0.40427 1.27435 0.39501
 C3276 C 0.39894 1.29324 0.38753
 C3277 C 0.37931 1.29973 0.38791
 C3278 C 0.36498 1.28701 0.39551
 C3279 C 0.42402 1.26856 0.39512
 C3280 C 0.42985 1.25020 0.40281
 C3281 C 0.41604 1.23664 0.41049
 C3282 C 0.39561 1.24207 0.40986
 C3283 C 0.38167 1.22801 0.41629
 C3284 C 0.38741 1.20942 0.42333
 C3285 C 0.40723 1.20409 0.42456
 C3286 C 0.42190 1.21767 0.41844
 C3287 C 0.44183 1.21161 0.42061
 C3288 C 0.44680 1.19271 0.42779
 C3289 C 0.43220 1.17915 0.43313
 C3290 C 0.41243 1.18509 0.43170
 H3291 H 0.35805 1.25957 0.40849
 H3292 H 0.41011 1.30313 0.38184
 H3293 H 0.34966 1.29161 0.39577
 H3294 H 0.43517 1.27841 0.38931
 H3295 H 0.44539 1.24696 0.40217
 H3296 H 0.36603 1.23069 0.41571
 H3297 H 0.37614 1.19908 0.42791
 H3298 H 0.45398 1.22114 0.41707
 H3299 H 0.46223 1.18868 0.42922
 H3300 H 0.40098 1.17469 0.43569
 C3301 C 0.40929 0.76993 0.88018
 C3302 C 0.39903 0.75357 0.88831
 C3303 C 0.37818 0.75496 0.88893
 C3304 C 0.36828 0.77214 0.88211
 C3305 C 0.37870 0.78820 0.87426
 C3306 C 0.39926 0.78686 0.87329
 C3307 C 0.36724 0.73920 0.89635
 C3308 C 0.37644 0.72195 0.90315
 C3309 C 0.39714 0.71975 0.90300
 C3310 C 0.40866 0.73595 0.89575
 C3311 C 0.42939 0.73407 0.89644
 C3312 C 0.43859 0.71707 0.90395
 C3313 C 0.42761 0.70108 0.91083
 C3314 C 0.40673 0.70203 0.91020
 C3315 C 0.39634 0.68512 0.91684
 C3316 C 0.40624 0.66848 0.92444
 C3317 C 0.42684 0.66791 0.92570
 C3318 C 0.43745 0.68418 0.91855
 H3319 H 0.42507 0.77015 0.87878
 H3320 H 0.35235 0.77289 0.88259
 H3321 H 0.40769 0.79910 0.86740
 H3322 H 0.35131 0.74020 0.89690
 H3323 H 0.36677 0.71069 0.90878
 H3324 H 0.43908 0.74568 0.89159
 H3325 H 0.45455 0.71644 0.90437
 H3326 H 0.38054 0.68413 0.91628
 H3327 H 0.39768 0.65586 0.92929
 H3328 H 0.45340 0.68389 0.91939
 C3329 C 1.11833 0.72890 0.90797
 C3330 C 1.10863 0.74355 0.89615
 C3331 C 1.10839 0.74073 0.87495
 C3332 C 1.11728 0.72379 0.86619
 C3333 C 1.12700 0.70961 0.87816
 C3334 C 1.12736 0.71233 0.89907
 C3335 C 1.09953 0.75494 0.86254
 C3336 C 1.09131 0.77223 0.87058
 C3337 C 1.09138 0.77594 0.89154
 C3338 C 1.09955 0.76104 0.90458
 C3339 C 1.09830 0.76408 0.92560
 C3340 C 1.08997 0.78130 0.93364
 C3341 C 1.08276 0.79635 0.92116
 C3342 C 1.08342 0.79400 0.89993
 C3343 C 1.07637 0.81003 0.88802
 C3344 C 1.06887 0.82741 0.89687
 C3345 C 1.06802 0.82951 0.91785
 C3346 C 1.07499 0.81384 0.92989
 H3347 H 1.11962 0.72992 0.92410
 H3348 H 1.11718 0.72195 0.84997
 H3349 H 1.13465 0.70150 0.90865
 H3350 H 1.09915 0.75279 0.84635
 H3351 H 1.08475 0.78232 0.85986
 H3352 H 1.10341 0.75326 0.93639
 H3353 H 1.08936 0.78293 0.94988
 H3354 H 1.07682 0.80988 0.87182
 H3355 H 1.06406 0.83944 0.88715
 H3356 H 1.07430 0.81521 0.94614
 C3357 C 1.08411 0.21915 0.38631
 C3358 C 1.09570 0.23526 0.39328
 C3359 C 1.11638 0.23220 0.39447
 C3360 C 1.12486 0.21371 0.38914
 C3361 C 1.11313 0.19801 0.38217
 C3362 C 1.09273 0.20096 0.38083
 C3363 C 1.12857 0.24763 0.40081
 C3364 C 1.12081 0.26620 0.40585
 C3365 C 1.10035 0.27012 0.40494
 C3366 C 1.08754 0.25427 0.39895
 C3367 C 1.06701 0.25791 0.39906
 C3368 C 1.05922 0.27630 0.40472
 C3369 C 1.07148 0.29198 0.41025
 C3370 C 1.09223 0.28925 0.41016
 C3371 C 1.10397 0.30588 0.41531
 C3372 C 1.09545 0.32401 0.42107
 C3373 C 1.07495 0.32639 0.42189
 C3374 C 1.06305 0.31036 0.41610
 H3375 H 1.06836 0.22010 0.38463
 H3376 H 1.14069 0.21167 0.38995
 H3377 H 1.08331 0.18902 0.37564
 H3378 H 1.14437 0.24537 0.40183
 H3379 H 1.13135 0.27712 0.41074
 H3380 H 1.05640 0.24669 0.39515
 H3381 H 1.04336 0.27827 0.40476
 H3382 H 1.11981 0.30551 0.41494
 H3383 H 1.10502 0.33631 0.42489
 H3384 H 1.04717 0.31202 0.41664
 C3385 C 0.60084 0.73423 0.37363
 C3386 C 0.59982 0.74144 0.39368
 C3387 C 0.60687 0.72875 0.40923
 C3388 C 0.61484 0.70982 0.40468
 C3389 C 0.61534 0.70289 0.38479
 C3390 C 0.60837 0.71528 0.36937
 C3391 C 0.60566 0.73484 0.42927
 C3392 C 0.59721 0.75309 0.43438
 C3393 C 0.58985 0.76625 0.41952
 C3394 C 0.59177 0.76061 0.39880
 C3395 C 0.58579 0.77442 0.38392
 C3396 C 0.57805 0.79298 0.38902
 C3397 C 0.57557 0.79848 0.40910
 C3398 C 0.58106 0.78507 0.42467
 C3399 C 0.57743 0.79111 0.44477
 C3400 C 0.56982 0.81000 0.44914
 C3401 C 0.56541 0.82356 0.43375
 C3402 C 0.56791 0.81750 0.41370
 H3403 H 0.59552 0.74257 0.36088
 H3404 H 0.61998 0.70014 0.41667
 H3405 H 0.60871 0.71022 0.35387
 H3406 H 0.61112 0.72528 0.44122
 H3407 H 0.59705 0.75662 0.45021
 H3408 H 0.58732 0.77156 0.36804
 H3409 H 0.57394 0.80315 0.37705
 H3410 H 0.58020 0.78160 0.45750
 H3411 H 0.56747 0.81409 0.46475
 H3412 H 0.56451 0.82786 0.40167
 C3413 C 0.57910 0.21242 0.89487
 C3414 C 0.59158 0.22802 0.90144
 C3415 C 0.61211 0.22396 0.90225
 C3416 C 0.61957 0.20501 0.89713
 C3417 C 0.60698 0.18978 0.89075
 C3418 C 0.58672 0.19372 0.88961
 C3419 C 0.62517 0.23882 0.90812
 C3420 C 0.61842 0.25779 0.91309
 C3421 C 0.59815 0.26268 0.91260
 C3422 C 0.58446 0.24744 0.90708
 C3423 C 0.56414 0.25205 0.90767
 C3424 C 0.55737 0.27084 0.91336
 C3425 C 0.57050 0.28593 0.91843
 C3426 C 0.59109 0.28222 0.91783
 C3427 C 0.60373 0.29829 0.92248
 C3428 C 0.59621 0.31686 0.92823
 C3429 C 0.57588 0.32023 0.92954
 C3430 C 0.56309 0.30473 0.92429
 H3431 H 0.56338 0.21417 0.89342
 H3432 H 0.63531 0.20222 0.89770
 H3433 H 0.57666 0.18218 0.88480
 H3434 H 0.64087 0.23579 0.90883
 H3435 H 0.62958 0.26821 0.91763
 H3436 H 0.55292 0.24133 0.90415
 H3437 H 0.54162 0.27357 0.91379
 H3438 H 0.61952 0.29716 0.92168
 H3439 H 0.60644 0.32874 0.93160
 H3440 H 0.54732 0.30715 0.92523
 C3441 C 0.91968 0.72253 1.10214
 C3442 C 0.90726 0.73861 1.09630
 C3443 C 0.88664 0.73540 1.09645
 C3444 C 0.87900 0.71689 1.10206
 C3445 C 0.89152 0.70125 1.10793
 C3446 C 0.91188 0.70426 1.10788
 C3447 C 0.87366 0.75071 1.09118
 C3448 C 0.88057 0.76935 1.08597
 C3449 C 0.90092 0.77346 1.08569
 C3450 C 0.91452 0.75772 1.09055
 C3451 C 0.93488 0.76160 1.08937
 C3452 C 0.94178 0.78017 1.08380
 C3453 C 0.92877 0.79573 1.07940
 C3454 C 0.90815 0.79273 1.08046
 C3455 C 0.89564 0.80923 1.07631
 C3456 C 0.90331 0.82758 1.07077
 C3457 C 0.92365 0.83028 1.06923
 C3458 C 0.93631 0.81432 1.07380
 H3459 H 0.93548 0.72356 1.10271
 H3460 H 0.86321 0.71483 1.10239
 H3461 H 0.92187 0.69235 1.11224
 H3462 H 0.85789 0.74830 1.09117
 H3463 H 0.86944 0.78017 1.08199
 H3464 H 0.94602 0.75049 1.09241
 H3465 H 0.95755 0.78236 1.08299
 H3466 H 0.87986 0.80861 1.07733
 H3467 H 0.89321 0.83982 1.06781
 H3468 H 0.95209 0.81625 1.07261
 C3469 C 0.86274 0.24900 0.60906
 C3470 C 0.88304 0.25356 0.60838
 C3471 C 0.89658 0.23900 0.61566
 C3472 C 0.88989 0.22078 0.62325
 C3473 C 0.86977 0.21645 0.62340
 C3474 C 0.85632 0.23077 0.61639
 C3475 C 0.91674 0.24254 0.61507
 C3476 C 0.92393 0.26005 0.60703
 C3477 C 0.91116 0.27494 0.59931
 C3478 C 0.89035 0.27185 0.60047
 C3479 C 0.87756 0.28717 0.59369
 C3480 C 0.88474 0.30469 0.58573
 C3481 C 0.90490 0.30769 0.58396
 C3482 C 0.91847 0.29288 0.59061
 C3483 C 0.93879 0.29667 0.58808
 C3484 C 0.94521 0.31449 0.57972
 C3485 C 0.93170 0.32913 0.57349
 C3486 C 0.91155 0.32556 0.57560
 H3487 H 0.85137 0.25898 0.60377
 H3488 H 0.90040 0.20966 0.62844
 H3489 H 0.84068 0.22785 0.61658
 H3490 H 0.92714 0.23153 0.62073
 H3491 H 0.93970 0.26150 0.60726
 H3492 H 0.86178 0.28623 0.59450
 H3493 H 0.87431 0.31602 0.58077
 H3494 H 0.95016 0.28616 0.59221
 H3495 H 0.96087 0.31674 0.57794
 H3496 H 0.90097 0.33689 0.57103
 C3497 C 0.35785 0.74474 0.60722
 C3498 C 0.37807 0.74968 0.60628
 C3499 C 0.39189 0.73566 0.61402
 C3500 C 0.38556 0.71789 0.62284
 C3501 C 0.36550 0.71344 0.62391
 C3502 C 0.35176 0.72692 0.61586
 C3503 C 0.41199 0.73939 0.61301
 C3504 C 0.41884 0.75677 0.60444
 C3505 C 0.40579 0.77138 0.59669
 C3506 C 0.38504 0.76794 0.59794
 C3507 C 0.37198 0.78303 0.59119
 C3508 C 0.37886 0.80084 0.58352
 C3509 C 0.39898 0.80429 0.58192
 C3510 C 0.41277 0.78952 0.58814
 C3511 C 0.43302 0.79361 0.58555
 C3512 C 0.43917 0.81183 0.57792
 C3513 C 0.42549 0.82662 0.57252
 C3514 C 0.40537 0.82261 0.57432
 H3515 H 0.34632 0.75420 0.60132
 H3516 H 0.39631 0.70733 0.62866
 H3517 H 0.33617 0.72383 0.61653
 H3518 H 0.42260 0.72872 0.61892
 H3519 H 0.43459 0.75845 0.60453
 H3520 H 0.35623 0.78177 0.59201
 H3521 H 0.36825 0.81207 0.57878
 H3522 H 0.44454 0.78306 0.58911
 H3523 H 0.45480 0.81433 0.57618
 H3524 H 0.39462 0.83397 0.57027
 C3525 C 0.36196 0.24818 1.11162
 C3526 C 0.38236 0.25161 1.10927
 C3527 C 0.39560 0.23618 1.11510
 C3528 C 0.38856 0.21826 1.12299
 C3529 C 0.36834 0.21516 1.12507
 C3530 C 0.35516 0.23027 1.11935
 C3531 C 0.41581 0.23861 1.11296
 C3532 C 0.42333 0.25600 1.10503
 C3533 C 0.41085 0.27185 1.09894
 C3534 C 0.39003 0.26971 1.10129
 C3535 C 0.37758 0.28575 1.09568
 C3536 C 0.38510 0.30323 1.08801
 C3537 C 0.40527 0.30550 1.08546
 C3538 C 0.41850 0.28986 1.09073
 C3539 C 0.43884 0.29300 1.08756
 C3540 C 0.44561 0.31098 1.07991
 C3541 C 0.43244 0.32640 1.07506
 C3542 C 0.41227 0.32349 1.07775
 H3543 H 0.35076 0.25891 1.10757
 H3544 H 0.39884 0.20651 1.12714
 H3545 H 0.33946 0.22833 1.12104
 H3546 H 0.42599 0.22687 1.11743
 H3547 H 0.43911 0.25654 1.10402
 H3548 H 0.36183 0.28542 1.09716
 H3549 H 0.37494 0.31516 1.08402
 H3550 H 0.44998 0.28193 1.09075
 H3551 H 0.46128 0.31279 1.07766
 H3552 H 0.40198 0.33545 1.07425
 C3553 C 1.11880 1.08754 0.72118
 C3554 C 1.10698 1.09843 0.73487
 C3555 C 1.10258 1.11857 0.73018
 C3556 C 1.10889 1.12695 0.71197
 C3557 C 1.12058 1.11594 0.69837
 C3558 C 1.12553 1.09616 0.70347
 C3559 C 1.09205 1.13035 0.74380
 C3560 C 1.08614 1.12275 0.76218
 C3561 C 1.09000 1.10272 0.76747
 C3562 C 1.09974 1.09012 0.75317
 C3563 C 1.10148 1.06957 0.75743
 C3564 C 1.09437 1.06166 0.77522
 C3565 C 1.08582 1.07394 0.78981
 C3566 C 1.08396 1.09472 0.78637
 C3567 C 1.07640 1.10668 0.80218
 C3568 C 1.07019 1.09822 0.82016
 C3569 C 1.07100 1.07753 0.82310
 C3570 C 1.07908 1.06551 0.80782
 H3571 H 1.12351 1.07242 0.72391
 H3572 H 1.10532 1.14240 0.70893
 H3573 H 1.13419 1.08684 0.69353
 H3574 H 1.08853 1.14575 0.74032
 H3575 H 1.07795 1.13282 0.77172
 H3576 H 1.10772 1.05900 0.74694
 H3577 H 1.09577 1.04575 0.77767
 H3578 H 1.07558 1.12270 0.80133
 H3579 H 1.06490 1.10808 0.83194
 H3580 H 1.07991 1.04950 0.80978
 C3581 C 1.12595 0.59083 0.22257
 C3582 C 1.11307 0.60103 0.23577
 C3583 C 1.10864 0.62126 0.23151
 C3584 C 1.11606 0.63041 0.21415
 C3585 C 1.12886 0.62010 0.20105
 C3586 C 1.13375 0.60020 0.20574
 C3587 C 1.09699 0.63238 0.24473
 C3588 C 1.08998 0.62403 0.26236
 C3589 C 1.09387 0.60390 0.26722
 C3590 C 1.10477 0.59196 0.25322
 C3591 C 1.10664 0.57131 0.25691
 C3592 C 1.09855 0.56269 0.27390
 C3593 C 1.08885 0.57432 0.28827
 C3594 C 1.08677 0.59517 0.28538
 C3595 C 1.07799 0.60646 0.30101
 C3596 C 1.07090 0.59732 0.31829
 C3597 C 1.07200 0.57656 0.32065
 C3598 C 1.08120 0.56519 0.30554
 H3599 H 1.13070 0.57567 0.22506
 H3600 H 1.11245 0.64591 0.21145
 H3601 H 1.14324 0.59139 0.19613
 H3602 H 1.09343 0.64784 0.24156
 H3603 H 1.08098 0.63363 0.27161
 H3604 H 1.11377 0.56121 0.24655
 H3605 H 1.10013 0.54673 0.27592
 H3606 H 1.07687 0.62249 0.30062
 H3607 H 1.06474 0.60672 0.33000
 H3608 H 1.08228 0.54914 0.30706
 C3609 C 0.62802 1.08705 0.23377
 C3610 C 0.60940 1.09204 0.24184
 C3611 C 0.59649 1.10378 0.22988
 C3612 C 0.60271 1.11149 0.21142
 C3613 C 0.62158 1.10713 0.20387
 C3614 C 0.63388 1.09433 0.21514
 C3615 C 0.57741 1.10786 0.23642
 C3616 C 0.57076 1.10044 0.25457
 C3617 C 0.58324 1.08915 0.26731
 C3618 C 0.60313 1.08562 0.26122
 C3619 C 0.61627 1.07648 0.27499
 C3620 C 0.61015 1.07075 0.29397
 C3621 C 0.59059 1.07322 0.29973
 C3622 C 0.57670 1.08190 0.28629
 C3623 C 0.55680 1.08281 0.29240
 C3624 C 0.55120 1.07624 0.31138
 C3625 C 0.56519 1.06871 0.32507
 C3626 C 0.58488 1.06714 0.31899
 H3627 H 0.63832 1.07730 0.24135
 H3628 H 0.59246 1.12045 0.20270
 H3629 H 0.64851 1.09042 0.21010
 H3630 H 0.56743 1.11684 0.22734
 H3631 H 0.55591 1.10451 0.25859
 H3632 H 0.63168 1.07427 0.27185
 H3633 H 0.62086 1.06416 0.30420
 H3634 H 0.54511 1.08807 0.28267
 H3635 H 0.53576 1.07693 0.31526
 H3636 H 0.59595 1.06146 0.32935
 C3637 C 0.58844 0.61483 0.72544
 C3638 C 0.60000 0.60613 0.74099
 C3639 C 0.62060 0.60453 0.73785
 C3640 C 0.62899 0.61103 0.71981
 C3641 C 0.61731 0.61954 0.70461
 C3642 C 0.59700 0.62142 0.70765
 C3643 C 0.63280 0.59653 0.75274
 C3644 C 0.62515 0.59019 0.77088
 C3645 C 0.60477 0.59144 0.77487
 C3646 C 0.59193 0.59914 0.75951
 C3647 C 0.57145 0.59938 0.76311
 C3648 C 0.56376 0.59250 0.78107
 C3649 C 0.57608 0.58536 0.79633
 C3650 C 0.59678 0.58494 0.79360
 C3651 C 0.60861 0.57809 0.80984
 C3652 C 0.60018 0.57141 0.82762
 C3653 C 0.57972 0.57130 0.82999
 C3654 C 0.56775 0.57853 0.81432
 H3655 H 0.57276 0.61698 0.72656
 H3656 H 0.64477 0.60986 0.71777
 H3657 H 0.58763 0.62786 0.69609
 H3658 H 0.64854 0.59519 0.75038
 H3659 H 0.63569 0.58406 0.78137
 H3660 H 0.56081 0.60451 0.75218
 H3661 H 0.54793 0.59284 0.78305
 H3662 H 0.62445 0.57786 0.80948
 H3663 H 0.60982 0.56645 0.83970
 H3664 H 0.55189 0.57851 0.81598
 C3665 C 0.91685 0.89066 0.71715
 C3666 C 0.90468 0.89938 0.73213
 C3667 C 0.88422 0.90087 0.72790
 C3668 C 0.87657 0.89441 0.70934
 C3669 C 0.88884 0.88606 0.69464
 C3670 C 0.90899 0.88409 0.69878
 C3671 C 0.87140 0.90874 0.74220
 C3672 C 0.87830 0.91503 0.76085
 C3673 C 0.89850 0.91392 0.76593
 C3674 C 0.91199 0.90648 0.75113
 C3675 C 0.93232 0.90667 0.75574
 C3676 C 0.93926 0.91359 0.77420
 C3677 C 0.92628 0.92027 0.78898
 C3678 C 0.90570 0.92031 0.78521
 C3679 C 0.89318 0.92659 0.80103
 C3680 C 0.90084 0.93299 0.81947
 C3681 C 0.92120 0.93342 0.82292
 C3682 C 0.93383 0.92692 0.80758
 H3683 H 0.93246 0.88845 0.71920
 H3684 H 0.86087 0.89554 0.70646
 H3685 H 0.91876 0.87763 0.68766
 H3686 H 0.85576 0.91000 0.73898
 H3687 H 0.86734 0.92109 0.77084
 H3688 H 0.94340 0.90190 0.74521
 H3689 H 0.95501 0.91358 0.77697
 H3690 H 0.87737 0.92643 0.79986
 H3691 H 0.89069 0.93736 0.83123
 H3692 H 0.94963 0.92724 0.81003
 C3693 C 0.92597 0.39139 0.21353
 C3694 C 0.91413 0.40195 0.22750
 C3695 C 0.89470 0.40706 0.22145
 C3696 C 0.88788 0.40255 0.20198
 C3697 C 0.89971 0.39200 0.18818
 C3698 C 0.91882 0.38638 0.19438
 C3699 C 0.88196 0.41645 0.23494
 C3700 C 0.88787 0.42044 0.25456
 C3701 C 0.90706 0.41568 0.26137
 C3702 C 0.92072 0.40724 0.24734
 C3703 C 0.94054 0.40480 0.25349
 C3704 C 0.94673 0.41011 0.27278
 C3705 C 0.93333 0.41732 0.28694
 C3706 C 0.91320 0.41965 0.28161
 C3707 C 0.89996 0.42558 0.29689
 C3708 C 0.90664 0.43004 0.31627
 C3709 C 0.92673 0.42897 0.32118
 C3710 C 0.93998 0.42230 0.30642
 H3711 H 0.94068 0.38632 0.21711
 H3712 H 0.87285 0.40647 0.19813
 H3713 H 0.92861 0.37845 0.18431
 H3714 H 0.86712 0.42055 0.23035
 H3715 H 0.87718 0.42793 0.26390
 H3716 H 0.95183 0.39944 0.24347
 H3717 H 0.96216 0.40832 0.27672
 H3718 H 0.88427 0.42642 0.29451
 H3719 H 0.89590 0.43424 0.32753
 H3720 H 0.95556 0.42128 0.30994
 C3721 C 0.37214 0.90748 0.22881
 C3722 C 0.38387 0.89747 0.24331
 C3723 C 0.38786 0.87694 0.24003
 C3724 C 0.38094 0.86720 0.22261
 C3725 C 0.36904 0.87720 0.20839
 C3726 C 0.36478 0.89750 0.21186
 C3727 C 0.39850 0.86606 0.25431
 C3728 C 0.40479 0.87491 0.27213
 C3729 C 0.40111 0.89528 0.27619
 C3730 C 0.39139 0.90698 0.26112
 C3731 C 0.38986 0.92779 0.26421
 C3732 C 0.39726 0.93680 0.28157
 C3733 C 0.40583 0.92543 0.29688
 C3734 C 0.40735 0.90444 0.29464
 C3735 C 0.41478 0.89340 0.31113
 C3736 C 0.42148 0.90291 0.32854
 C3737 C 0.42124 0.92376 0.33021
 C3738 C 0.41299 0.93493 0.31440
 H3739 H 0.36791 0.92292 0.23036
 H3740 H 0.38407 0.85145 0.22085
 H3741 H 0.35603 0.90605 0.20128
 H3742 H 0.40178 0.85039 0.25183
 H3743 H 0.41310 0.86547 0.28221
 H3744 H 0.38355 0.93768 0.25313
 H3745 H 0.39606 0.95286 0.28312
 H3746 H 0.41519 0.87734 0.31127
 H3747 H 0.42684 0.89378 0.34085
 H3748 H 0.41247 0.95105 0.31554
 C3749 C 0.37189 0.40288 0.73530
 C3750 C 0.39165 0.40130 0.74207
 C3751 C 0.40564 0.39297 0.72858
 C3752 C 0.39980 0.38611 0.70940
 C3753 C 0.38015 0.38780 0.70306
 C3754 C 0.36634 0.39627 0.71617
 C3755 C 0.42541 0.39162 0.73422
 C3756 C 0.43176 0.39856 0.75290
 C3757 C 0.41846 0.40692 0.76693
 C3758 C 0.39800 0.40784 0.76162
 C3759 C 0.38453 0.41499 0.77613
 C3760 C 0.39076 0.42128 0.79504
 C3761 C 0.41066 0.42102 0.80025
 C3762 C 0.42487 0.41409 0.78625
 C3763 C 0.44492 0.41474 0.79223
 C3764 C 0.45042 0.42138 0.81140
 C3765 C 0.43623 0.42765 0.82534
 C3766 C 0.41636 0.42756 0.81954
 H3767 H 0.36032 0.40939 0.74424
 H3768 H 0.41061 0.37980 0.69921
 H3769 H 0.35102 0.39759 0.71170
 H3770 H 0.43616 0.38522 0.72402
 H3771 H 0.44725 0.39679 0.75600
 H3772 H 0.36887 0.41558 0.77354
 H3773 H 0.37983 0.42649 0.80570
 H3774 H 0.45679 0.41045 0.78241
 H3775 H 0.46592 0.42175 0.81530
 H3776 H 0.40522 0.43224 0.83022
 C3777 C 1.10390 0.86296 1.25989
 C3778 C 1.10548 0.88271 1.25288
 C3779 C 1.11571 0.89652 1.26524
 C3780 C 1.12462 0.89042 1.28343
 C3781 C 1.12287 0.87072 1.29032
 C3782 C 1.11230 0.85719 1.27819
 C3783 C 1.11681 0.91644 1.25953
 C3784 C 1.10764 0.92310 1.24202
 C3785 C 1.09737 0.90992 1.22912
 C3786 C 1.09699 0.88924 1.23421
 C3787 C 1.08852 0.87574 1.22030
 C3788 C 1.08039 0.88222 1.20221
 C3789 C 1.07988 0.90241 1.19742
 C3790 C 1.08793 0.91662 1.21100
 C3791 C 1.08605 0.93699 1.20589
 C3792 C 1.07754 0.94281 1.18763
 C3793 C 1.07063 0.92863 1.17375
 C3794 C 1.07155 0.90843 1.17896
 H3795 H 1.09588 0.85162 1.25184
 H3796 H 1.13215 0.90142 1.29257
 H3797 H 1.11079 0.84175 1.28241
 H3798 H 1.12468 0.92710 1.26883
 H3799 H 1.10939 0.93867 1.23869
 H3800 H 1.08847 0.85988 1.22263
 H3801 H 1.07435 0.87126 1.19187
 H3802 H 1.09073 0.94885 1.21578
 H3803 H 1.07640 0.95858 1.18437
 H3804 H 1.06625 0.89728 1.16841
 C3805 C 1.11221 0.36148 0.75603
 C3806 C 1.11382 0.38141 0.74956
 C3807 C 1.12452 0.39473 0.76206
 C3808 C 1.13386 0.38798 0.77981
 C3809 C 1.13211 0.36808 0.78615
 C3810 C 1.12104 0.35505 0.77390
 C3811 C 1.12568 0.41481 0.75691
 C3812 C 1.11617 0.42209 0.73983
 C3813 C 1.10545 0.40941 0.72679
 C3814 C 1.10493 0.38860 0.73132
 C3815 C 1.09590 0.37562 0.71726
 C3816 C 1.08738 0.38271 0.69960
 C3817 C 1.08701 0.40304 0.69538
 C3818 C 1.09565 0.41676 0.70909
 C3819 C 1.09396 0.43728 0.70454
 C3820 C 1.08494 0.44372 0.68674
 C3821 C 1.07731 0.43004 0.67273
 C3822 C 1.07818 0.40968 0.67736
 H3823 H 1.10387 0.35047 0.74785
 H3824 H 1.14175 0.39861 0.78907
 H3825 H 1.11947 0.33951 0.77768
 H3826 H 1.13388 0.42511 0.76633
 H3827 H 1.11798 0.43774 0.73695
 H3828 H 1.09568 0.35970 0.71915
 H3829 H 1.08088 0.37213 0.68915
 H3830 H 1.09918 0.44880 0.71456
 H3831 H 1.08390 0.45959 0.68397
 H3832 H 1.07240 0.39887 0.66671
 C3833 C 0.59509 0.86606 0.76883
 C3834 C 0.59564 0.88597 0.76192
 C3835 C 0.60440 0.90044 0.77474
 C3836 C 0.61300 0.89486 0.79317
 C3837 C 0.61264 0.87503 0.79951
 C3838 C 0.60343 0.86077 0.78732
 C3839 C 0.60460 0.92040 0.76912
 C3840 C 0.59622 0.92647 0.75104
 C3841 C 0.58761 0.91266 0.73754
 C3842 C 0.58781 0.89201 0.74281
 C3843 C 0.58069 0.87803 0.72860
 C3844 C 0.57363 0.88396 0.70989
 C3845 C 0.57291 0.90404 0.70472
 C3846 C 0.57940 0.91875 0.71863
 C3847 C 0.57741 0.93897 0.71295
 C3848 C 0.57038 0.94418 0.69390
 C3849 C 0.56503 0.92951 0.67984
 C3850 C 0.56598 0.90946 0.68553
 H3851 H 0.58813 0.85421 0.76049
 H3852 H 0.61979 0.90601 0.80278
 H3853 H 0.60297 0.84534 0.79195
 H3854 H 0.61130 0.93150 0.77886
 H3855 H 0.59730 0.94212 0.74781
 H3856 H 0.58093 0.86220 0.73118
 H3857 H 0.56868 0.87264 0.69933
 H3858 H 0.58095 0.95118 0.72289
 H3859 H 0.56914 0.95983 0.69015
 H3860 H 0.56187 0.89796 0.67479
 C3861 C 0.59934 0.36691 1.27219
 C3862 C 0.60384 0.38541 1.26342
 C3863 C 0.61504 0.39907 1.27503
 C3864 C 0.62240 0.39375 1.29414
 C3865 C 0.61781 0.37526 1.30273
 C3866 C 0.60603 0.36206 1.29143
 C3867 C 0.61861 0.41810 1.26762
 C3868 C 0.61083 0.42408 1.24918
 C3869 C 0.59976 0.41091 1.23700
 C3870 C 0.59718 0.39093 1.24374
 C3871 C 0.58847 0.37702 1.23042
 C3872 C 0.58198 0.38258 1.21138
 C3873 C 0.58324 0.40230 1.20509
 C3874 C 0.59166 0.41687 1.21801
 C3875 C 0.59133 0.43689 1.21148
 C3876 C 0.58386 0.44196 1.19255
 C3877 C 0.57668 0.42732 1.17930
 C3878 C 0.57621 0.40750 1.18585
 H3879 H 0.59018 0.35602 1.26480
 H3880 H 0.63088 0.40451 1.30267
 H3881 H 0.60232 0.34751 1.29708
 H3882 H 0.62723 0.42864 1.27634
 H3883 H 0.61435 0.43898 1.24452
 H3884 H 0.58712 0.36146 1.23400
 H3885 H 0.57568 0.37132 1.20154
 H3886 H 0.59629 0.44904 1.22085
 H3887 H 0.58367 0.45752 1.18834
 H3888 H 0.57070 0.39596 1.17587
 C3889 C 0.86340 1.10682 1.25917
 C3890 C 0.88347 1.10776 1.25366
 C3891 C 0.89693 1.11568 1.26799
 C3892 C 0.89031 1.12279 1.28674
 C3893 C 0.87039 1.12171 1.29185
 C3894 C 0.85708 1.11364 1.27791
 C3895 C 0.91695 1.11632 1.26364
 C3896 C 0.92407 1.10895 1.24549
 C3897 C 0.91133 1.10088 1.23070
 C3898 C 0.89062 1.10087 1.23461
 C3899 C 0.87773 1.09420 1.21925
 C3900 C 0.88476 1.08727 1.20094
 C3901 C 0.90489 1.08642 1.19721
 C3902 C 0.91854 1.09304 1.21202
 C3903 C 0.93884 1.09131 1.20750
 C3904 C 0.94515 1.08369 1.18900
 C3905 C 0.93154 1.07751 1.17434
 C3906 C 0.91141 1.07895 1.17861
 H3907 H 0.85219 1.10058 1.24954
 H3908 H 0.90074 1.12875 1.29760
 H3909 H 0.84158 1.11277 1.28146
 H3910 H 0.92730 1.12244 1.27448
 H3911 H 0.93971 1.11012 1.24339
 H3912 H 0.86196 1.09446 1.22071
 H3913 H 0.87427 1.08237 1.18960
 H3914 H 0.95028 1.09538 1.21801
 H3915 H 0.96081 1.08238 1.18626
 H3916 H 0.90071 1.07445 1.16731
 C3917 C 0.91270 0.62089 0.77378
 C3918 C 0.90161 0.61255 0.75768
 C3919 C 0.88093 0.61127 0.76012
 C3920 C 0.87202 0.61748 0.77811
 C3921 C 0.88323 0.62547 0.79391
 C3922 C 0.90359 0.62728 0.79152
 C3923 C 0.86916 0.60384 0.74460
 C3924 C 0.87734 0.59777 0.72650
 C3925 C 0.89784 0.59862 0.72323
 C3926 C 0.91025 0.60561 0.73926
 C3927 C 0.93084 0.60504 0.73648
 C3928 C 0.93906 0.59799 0.71868
 C3929 C 0.92716 0.59160 0.70275
 C3930 C 0.90637 0.59222 0.70461
 C3931 C 0.89497 0.58645 0.68766
 C3932 C 0.90385 0.57945 0.67013
 C3933 C 0.92437 0.57794 0.66871
 C3934 C 0.93596 0.58441 0.68499
 H3935 H 0.92838 0.62295 0.77310
 H3936 H 0.85619 0.61647 0.77967
 H3937 H 0.91254 0.63347 0.80353
 H3938 H 0.85335 0.60275 0.74644
 H3939 H 0.86713 0.59199 0.71551
 H3940 H 0.94115 0.60952 0.74801
 H3941 H 0.95496 0.59756 0.71737
 H3942 H 0.87914 0.58737 0.68729
 H3943 H 0.89454 0.57525 0.65751
 H3944 H 0.95187 0.58343 0.68403
 C3945 C 0.41540 1.10179 0.78738
 C3946 C 0.40370 1.09746 0.77018
 C3947 C 0.38294 1.09865 0.77231
 C3948 C 0.37448 1.10428 0.79076
 C3949 C 0.38635 1.10920 0.80734
 C3950 C 0.40682 1.10764 0.80553
 C3951 C 0.37066 1.09463 0.75593
 C3952 C 0.37842 1.08987 0.73725
 C3953 C 0.39896 1.08889 0.73411
 C3954 C 0.41182 1.09235 0.75094
 C3955 C 0.43235 1.09065 0.74795
 C3956 C 0.44009 1.08584 0.72923
 C3957 C 0.42780 1.08271 0.71264
 C3958 C 0.40707 1.08437 0.71474
 C3959 C 0.39532 1.08145 0.69728
 C3960 C 0.40378 1.07631 0.67891
 C3961 C 0.42419 1.07404 0.67711
 C3962 C 0.43617 1.07764 0.69396
 H3963 H 0.43124 1.10121 0.78731
 H3964 H 0.35863 1.10568 0.79195
 H3965 H 0.41628 1.11117 0.81823
 H3966 H 0.35479 1.09536 0.75752
 H3967 H 0.36778 1.08692 0.72555
 H3968 H 0.44298 1.09278 0.75985
 H3969 H 0.45594 1.08458 0.72773
 H3970 H 0.37954 1.08300 0.69719
 H3971 H 0.39424 1.07401 0.66596
 H3972 H 0.45200 1.07591 0.69267
 C3973 C 0.41116 0.62130 1.27861
 C3974 C 0.40154 0.61088 1.26287
 C3975 C 0.38106 0.60757 1.26487
 C3976 C 0.37097 0.61391 1.28219
 C3977 C 0.38061 0.62453 1.29765
 C3978 C 0.40089 0.62805 1.29550
 C3979 C 0.37061 0.59817 1.24943
 C3980 C 0.37987 0.59241 1.23177
 C3981 C 0.40021 0.59542 1.22896
 C3982 C 0.41140 0.60398 1.24511
 C3983 C 0.43207 0.60498 1.24308
 C3984 C 0.44145 0.59808 1.22582
 C3985 C 0.43065 0.59048 1.20961
 C3986 C 0.40982 0.58958 1.21073
 C3987 C 0.39942 0.58304 1.19344
 C3988 C 0.40935 0.57642 1.17637
 C3989 C 0.42998 0.57598 1.17580
 C3990 C 0.44056 0.58354 1.19233
 H3991 H 0.42657 0.62492 1.27817
 H3992 H 0.35529 0.61136 1.28296
 H3993 H 0.40919 0.63574 1.30707
 H3994 H 0.35498 0.59543 1.25091
 H3995 H 0.37071 0.58503 1.22076
 H3996 H 0.44156 0.61048 1.25489
 H3997 H 0.45737 0.59881 1.22511
 H3998 H 0.38358 0.58315 1.19245
 H3999 H 0.40076 0.57152 1.16349
 H4000 H 0.45651 0.58355 1.19198
 C4001 C 1.14336 1.25389 0.89300
 C4002 C 1.12318 1.24879 0.89203
 C4003 C 1.11000 1.26263 0.88292
 C4004 C 1.11700 1.28031 0.87447
 C4005 C 1.13704 1.28493 0.87534
 C4006 C 1.15009 1.27168 0.88484
 C4007 C 1.08988 1.25882 0.88230
 C4008 C 1.08237 1.24164 0.89073
 C4009 C 1.09482 1.22726 0.89983
 C4010 C 1.11562 1.23059 0.89990
 C4011 C 1.12817 1.21543 0.90743
 C4012 C 1.12073 1.19777 0.91486
 C4013 C 1.10050 1.19460 0.91554
 C4014 C 1.08720 1.20942 0.90841
 C4015 C 1.06680 1.20574 0.91030
 C4016 C 1.06004 1.18785 0.91817
 C4017 C 1.07326 1.17295 0.92445
 C4018 C 1.09352 1.17656 0.92323
 H4019 H 1.15433 1.24465 0.90023
 H4020 H 1.10677 1.29074 0.86751
 H4021 H 1.16564 1.27498 0.88571
 H4022 H 1.07975 1.26932 0.87529
 H4023 H 1.06668 1.23984 0.88937
 H4024 H 1.14398 1.21651 0.90731
 H4025 H 1.13097 1.18647 0.92023
 H4026 H 1.05564 1.21648 0.90615
 H4027 H 1.04432 1.18575 0.91949
 H4028 H 1.10394 1.16514 0.92792
 C4029 C 1.13421 0.75831 0.39793
 C4030 C 1.11438 0.75219 0.39580
 C4031 C 1.10089 0.76567 0.38663
 C4032 C 1.10732 0.78397 0.37912
 C4033 C 1.12707 0.78950 0.38090
 C4034 C 1.14036 0.77666 0.39060
 C4035 C 1.08104 0.76084 0.38492
 C4036 C 1.07412 0.74292 0.39223
 C4037 C 1.08694 0.72881 0.40124
 C4038 C 1.10749 0.73329 0.40253
 C4039 C 1.12052 0.71854 0.41003
 C4040 C 1.11376 0.70019 0.41634
 C4041 C 1.09374 0.69587 0.41584
 C4042 C 1.07996 0.71018 0.40860
 C4043 C 1.05974 0.70521 0.40917
 C4044 C 1.05366 0.68668 0.41610
 C4045 C 1.06742 0.67242 0.42267
 C4046 C 1.08746 0.67720 0.42252
 H4047 H 1.14533 0.74941 0.40534
 H4048 H 1.09687 0.79408 0.37202
 H4049 H 1.15570 0.78066 0.39218
 H4050 H 1.07068 0.77109 0.37789
 H4051 H 1.05863 0.74036 0.39007
 H4052 H 1.13623 0.72049 0.41076
 H4053 H 1.12436 0.68926 0.42178
 H4054 H 1.04818 0.71539 0.40473
 H4055 H 1.03805 0.68360 0.41653
 H4056 H 1.09830 0.66625 0.42738
 C4057 C 0.58096 1.27990 0.40156
 C4058 C 0.59261 1.26367 0.40845
 C4059 C 0.61329 1.26641 0.40970
 C4060 C 0.62174 1.28460 0.40423
 C4061 C 0.60999 1.30017 0.39682
 C4062 C 0.58958 1.29774 0.39576
 C4063 C 0.62554 1.25083 0.41593
 C4064 C 0.61787 1.23229 0.42032
 C4065 C 0.59746 1.22859 0.41886
 C4066 C 0.58455 1.24474 0.41360
 C4067 C 0.56403 1.24143 0.41372
 C4068 C 0.55638 1.22292 0.41841
 C4069 C 0.56879 1.20685 0.42281
 C4070 C 0.58952 1.20934 0.42281
 C4071 C 0.60144 1.19234 0.42659
 C4072 C 0.59309 1.17405 0.43115
 C4073 C 0.57262 1.17193 0.43202
 C4074 C 0.56053 1.18831 0.42743
 H4075 H 0.56521 1.27918 0.39985
 H4076 H 0.63758 1.28632 0.40478
 H4077 H 0.58024 1.30966 0.39014
 H4078 H 0.64132 1.25290 0.41714
 H4079 H 0.62841 1.22119 0.42513
 H4080 H 0.55335 1.25297 0.41060
 H4081 H 0.54053 1.22116 0.41847
 H4082 H 0.61727 1.19255 0.42596
 H4083 H 0.60274 1.16144 0.43408
 H4084 H 0.54467 1.18676 0.42801
 C4085 C 0.58828 0.77874 0.90230
 C4086 C 0.60015 0.76194 0.90709
 C4087 C 0.62088 0.76407 0.90577
 C4088 C 0.62914 0.78212 0.89946
 C4089 C 0.61705 0.79819 0.89389
 C4090 C 0.59664 0.79642 0.89572
 C4091 C 0.63329 0.74803 0.91024
 C4092 C 0.62566 0.72966 0.91543
 C4093 C 0.60514 0.72652 0.91641
 C4094 C 0.59218 0.74306 0.91266
 C4095 C 0.57169 0.74012 0.91445
 C4096 C 0.56406 0.72169 0.91943
 C4097 C 0.57643 0.70534 0.92270
 C4098 C 0.59714 0.70743 0.92113
 C4099 C 0.60896 0.69020 0.92424
 C4100 C 0.60057 0.67204 0.92934
 C4101 C 0.58016 0.67026 0.93140
 C4102 C 0.56814 0.68691 0.92774
 H4103 H 0.57245 0.77867 0.90295
 H4104 H 0.64496 0.78336 0.89790
 H4105 H 0.58704 0.80877 0.89170
 H4106 H 0.64913 0.74961 0.90946
 H4107 H 0.63637 0.71818 0.91866
 H4108 H 0.56099 0.75184 0.91220
 H4109 H 0.54823 0.72022 0.92067
 H4110 H 0.62473 0.69013 0.92282
 H4111 H 0.61015 0.65926 0.93170
 H4112 H 0.55232 0.68565 0.92935
 C4113 C 0.88202 1.27822 1.08283
 C4114 C 0.90044 1.26930 1.08729
 C4115 C 0.91474 1.28117 1.09715
 C4116 C 0.91011 1.30066 1.10355
 C4117 C 0.89143 1.30917 1.09972
 C4118 C 0.87769 1.29771 1.08882
 C4119 C 0.93363 1.27354 1.10062
 C4120 C 0.93872 1.25440 1.09438
 C4121 C 0.92485 1.24179 1.08495
 C4122 C 0.90518 1.24911 1.08211
 C4123 C 0.89075 1.23583 1.07480
 C4124 C 0.89541 1.21620 1.07002
 C4125 C 0.91470 1.20914 1.07175
 C4126 C 0.92981 1.22191 1.07879
 C4127 C 0.94929 1.21425 1.07916
 C4128 C 0.95337 1.19459 1.07346
 C4129 C 0.93824 1.18176 1.06735
 C4130 C 0.91891 1.18926 1.06650
 H4131 H 0.87066 1.27065 1.07444
 H4132 H 0.92139 1.30929 1.11107
 H4133 H 0.86310 1.30331 1.08540
 H4134 H 0.94468 1.28253 1.10816
 H4135 H 0.95355 1.24963 1.09784
 H4136 H 0.87545 1.23995 1.07327
 H4137 H 0.88377 1.20648 1.06474
 H4138 H 0.96180 1.22319 1.08330
 H4139 H 0.96855 1.18951 1.07363
 H4140 H 0.90698 1.17956 1.06196
 C4141 C 0.86975 0.76646 0.59373
 C4142 C 0.88967 0.76000 0.59364
 C4143 C 0.90409 0.77367 0.60053
 C4144 C 0.89858 0.79266 0.60765
 C4145 C 0.87878 0.79865 0.60786
 C4146 C 0.86449 0.78542 0.60070
 C4147 C 0.92395 0.76834 0.60035
 C4148 C 0.92999 0.74972 0.59348
 C4149 C 0.91629 0.73543 0.58663
 C4150 C 0.89577 0.74056 0.58698
 C4151 C 0.88202 0.72598 0.58094
 C4152 C 0.88801 0.70711 0.57474
 C4153 C 0.90791 0.70198 0.57404
 C4154 C 0.92240 0.71607 0.57973
 C4155 C 0.94241 0.71010 0.57826
 C4156 C 0.94763 0.69091 0.57193
 C4157 C 0.93322 0.67695 0.56678
 C4158 C 0.91336 0.68268 0.56776
 H4159 H 0.85781 0.75733 0.58845
 H4160 H 0.90978 0.80293 0.61282
 H4161 H 0.84906 0.78961 0.60082
 H4162 H 0.93503 0.77873 0.60560
 H4163 H 0.94560 0.74690 0.59405
 H4164 H 0.86636 0.72852 0.58111
 H4165 H 0.87687 0.69639 0.57042
 H4166 H 0.95445 0.71989 0.58172
 H4167 H 0.96311 0.68704 0.57088
 H4168 H 0.90204 0.67197 0.56398
 C4169 C 0.36880 1.26987 0.59764
 C4170 C 0.38743 1.26151 0.60233
 C4171 C 0.40074 1.27335 0.61363
 C4172 C 0.39503 1.29226 0.62089
 C4173 C 0.37634 1.30038 0.61632
 C4174 C 0.36348 1.28889 0.60436
 C4175 C 0.41980 1.26634 0.61747
 C4176 C 0.42610 1.24800 0.60999
 C4177 C 0.41331 1.23555 0.59886
 C4178 C 0.39339 1.24200 0.59585
 C4179 C 0.37998 1.22857 0.58692
 C4180 C 0.38591 1.20967 0.58068
 C4181 C 0.40552 1.20361 0.58245
 C4182 C 0.41962 1.21661 0.59112
 C4183 C 0.43952 1.21018 0.59140
 C4184 C 0.44495 1.19138 0.58410
 C4185 C 0.43081 1.17816 0.57646
 C4186 C 0.41109 1.18452 0.57561
 H4187 H 0.35810 1.26228 0.58839
 H4188 H 0.40560 1.30093 0.62941
 H4189 H 0.34886 1.29418 0.60054
 H4190 H 0.43007 1.27526 0.62616
 H4191 H 0.44099 1.24368 0.61377
 H4192 H 0.36453 1.23196 0.58515
 H4193 H 0.37502 1.19978 0.57417
 H4194 H 0.45133 1.21953 0.59666
 H4195 H 0.46041 1.18730 0.58429
 H4196 H 0.39990 1.17454 0.56985
 C4197 C 0.36037 0.74827 1.11549
 C4198 C 0.38048 0.74308 1.11756
 C4199 C 0.39289 0.75667 1.12787
 C4200 C 0.38518 0.77441 1.13621
 C4201 C 0.36520 0.77964 1.13360
 C4202 C 0.35299 0.76615 1.12322
 C4203 C 0.41304 0.75273 1.12943
 C4204 C 0.42130 0.73593 1.12039
 C4205 C 0.40958 0.72202 1.10981
 C4206 C 0.38873 0.72516 1.10926
 C4207 C 0.37679 0.71019 1.10063
 C4208 C 0.38494 0.69310 1.09215
 C4209 C 0.40528 0.69038 1.09149
 C4210 C 0.41795 0.70487 1.10006
 C4211 C 0.43850 0.70170 1.09818
 C4212 C 0.44598 0.68459 1.08880
 C4213 C 0.43336 0.67000 1.08100
 C4214 C 0.41298 0.67310 1.08235
 H4215 H 0.34995 0.73913 1.10745
 H4216 H 0.39512 0.78461 1.14372
 H4217 H 0.33743 0.76907 1.12125
 H4218 H 0.42264 0.76296 1.13742
 H4219 H 0.43696 0.73403 1.12235
 H4220 H 0.36095 0.71097 1.10061
 H4221 H 0.37516 0.68198 1.08581
 H4222 H 0.44919 0.71233 1.10343
 H4223 H 0.46179 0.68286 1.08753
 H4224 H 0.40301 0.66188 1.07656
 C4225 C 0.86136 0.74210 0.89822
 C4226 C 0.88134 0.74801 0.89872
 C4227 C 0.89559 0.73417 0.89155
 C4228 C 0.88988 0.71561 0.88368
 C4229 C 0.87002 0.71022 0.88289
 C4230 C 0.85588 0.72354 0.89045
 C4231 C 0.91551 0.73890 0.89210
 C4232 C 0.92175 0.75718 0.89949
 C4233 C 0.90823 0.77169 0.90653
 C4234 C 0.88766 0.76711 0.90596
 C4235 C 0.87410 0.78191 0.91229
 C4236 C 0.88030 0.80053 0.91884
 C4237 C 0.90025 0.80517 0.91962
 C4238 C 0.91456 0.79078 0.91377
 C4239 C 0.93463 0.79619 0.91536
 C4240 C 0.94008 0.81519 0.92185
 C4241 C 0.92585 0.82951 0.92705
 C4242 C 0.90593 0.82428 0.92609
 H4243 H 0.84953 0.75139 0.90369
 H4244 H 0.90097 0.70523 0.87825
 H4245 H 0.84042 0.71979 0.88995
 H4246 H 0.92646 0.72836 0.88666
 H4247 H 0.93739 0.75955 0.89912
 H4248 H 0.85842 0.77976 0.91205
 H4249 H 0.86930 0.81146 0.92332
 H4250 H 0.94656 0.78613 0.91184
 H4251 H 0.95560 0.81864 0.92293
 H4252 H 0.89475 0.83525 0.92997
 C4253 C 0.86162 0.23881 0.39803
 C4254 C 0.88165 0.24441 0.39689
 C4255 C 0.89506 0.23045 0.38838
 C4256 C 0.88844 0.21208 0.38077
 C4257 C 0.86852 0.20697 0.38175
 C4258 C 0.85526 0.22042 0.39060
 C4259 C 0.91504 0.23485 0.38745
 C4260 C 0.92216 0.25279 0.39488
 C4261 C 0.90947 0.26733 0.40334
 C4262 C 0.88882 0.26324 0.40396
 C4263 C 0.87599 0.27826 0.41129
 C4264 C 0.88302 0.29652 0.41793
 C4265 C 0.90310 0.30056 0.41788
 C4266 C 0.91670 0.28598 0.41085
 C4267 C 0.93697 0.29073 0.41173
 C4268 C 0.94328 0.30929 0.41874
 C4269 C 0.92973 0.32381 0.42515
 C4270 C 0.90963 0.31923 0.42476
 H4271 H 0.85045 0.24816 0.40470
 H4272 H 0.89887 0.20159 0.37430
 H4273 H 0.83978 0.21686 0.39149
 H4274 H 0.92535 0.22425 0.38093
 H4275 H 0.93776 0.25494 0.39336
 H4276 H 0.86026 0.27656 0.41173
 H4277 H 0.87256 0.30763 0.42324
 H4278 H 0.94841 0.28041 0.40738
 H4279 H 0.95894 0.31220 0.41933
 H4280 H 0.89894 0.33037 0.42950
 C4281 C 0.36132 0.74095 0.40181
 C4282 C 0.38106 0.74712 0.40021
 C4283 C 0.39459 0.73380 0.39099
 C4284 C 0.38819 0.71566 0.38266
 C4285 C 0.36832 0.70995 0.38368
 C4286 C 0.35514 0.72280 0.39378
 C4287 C 0.41448 0.73863 0.39005
 C4288 C 0.42132 0.75641 0.39813
 C4289 C 0.40838 0.77042 0.40708
 C4290 C 0.38783 0.76596 0.40755
 C4291 C 0.37464 0.78069 0.41478
 C4292 C 0.38127 0.79903 0.42159
 C4293 C 0.40129 0.80332 0.42191
 C4294 C 0.41522 0.78898 0.41506
 C4295 C 0.43541 0.79388 0.41659
 C4296 C 0.44134 0.81246 0.42383
 C4297 C 0.42744 0.82684 0.42979
 C4298 C 0.40742 0.82204 0.42891
 H4299 H 0.35021 0.74968 0.40939
 H4300 H 0.39898 0.70585 0.37581
 H4301 H 0.33971 0.71939 0.39507
 H4302 H 0.42493 0.72850 0.38303
 H4303 H 0.43685 0.75901 0.39654
 H4304 H 0.35892 0.77879 0.41480
 H4305 H 0.37056 0.80997 0.42673
 H4306 H 0.44704 0.78360 0.41263
 H4307 H 0.45694 0.81552 0.42491
 H4308 H 0.39648 0.83305 0.43334
 C4309 C 0.41598 0.21917 0.89306
 C4310 C 0.40487 0.23496 0.90157
 C4311 C 0.38439 0.23201 0.90399
 C4312 C 0.37566 0.21383 0.89848
 C4313 C 0.38679 0.19837 0.88960
 C4314 C 0.40711 0.20139 0.88714
 C4315 C 0.37257 0.24735 0.91157
 C4316 C 0.38049 0.26580 0.91632
 C4317 C 0.40077 0.26958 0.91404
 C4318 C 0.41330 0.25365 0.90738
 C4319 C 0.43383 0.25686 0.90701
 C4320 C 0.44183 0.27507 0.91260
 C4321 C 0.42974 0.29099 0.91828
 C4322 C 0.40901 0.28863 0.91868
 C4323 C 0.39737 0.30556 0.92350
 C4324 C 0.40603 0.32363 0.92876
 C4325 C 0.42655 0.32558 0.92944
 C4326 C 0.43832 0.30925 0.92379
 H4327 H 0.43154 0.22018 0.89028
 H4328 H 0.35993 0.21229 0.90023
 H4329 H 0.41653 0.18988 0.88093
 H4330 H 0.35692 0.24518 0.91363
 H4331 H 0.37031 0.27671 0.92224
 H4332 H 0.44427 0.24538 0.90296
 H4333 H 0.45769 0.27673 0.91233
 H4334 H 0.38152 0.30547 0.92308
 H4335 H 0.39654 0.33620 0.93232
 H4336 H 0.45422 0.31060 0.92414
 C4337 C 1.12153 0.72849 1.08489
 C4338 C 1.10952 0.74195 1.09579
 C4339 C 1.10596 0.73766 1.11632
 C4340 C 1.11350 0.72009 1.12513
 C4341 C 1.12569 0.70694 1.11418
 C4342 C 1.12952 0.71153 1.09393
 C4343 C 1.09521 0.75111 1.12807
 C4344 C 1.08844 0.76904 1.12011
 C4345 C 1.09162 0.77400 1.09975
 C4346 C 1.10138 0.75974 1.08715
 C4347 C 1.10239 0.76359 1.06629
 C4348 C 1.09471 0.78104 1.05811
 C4349 C 1.08627 0.79566 1.07039
 C4350 C 1.08497 0.79255 1.09145
 C4351 C 1.07744 0.80834 1.10338
 C4352 C 1.07079 0.82605 1.09464
 C4353 C 1.07112 0.82869 1.07369
 C4354 C 1.07910 0.81340 1.06169
 H4355 H 1.12556 0.73092 1.06944
 H4356 H 1.11064 0.71734 1.14088
 H4357 H 1.13838 0.70176 1.08462
 H4358 H 1.09228 0.74791 1.14374
 H4359 H 1.08020 0.77853 1.13020
 H4360 H 1.10853 0.75306 1.05570
 H4361 H 1.09563 0.78322 1.04198
 H4362 H 1.07699 0.80771 1.11958
 H4363 H 1.06553 0.83784 1.10448
 H4364 H 1.07955 0.81515 1.04549
 C4365 C 1.11065 0.22266 0.58032
 C4366 C 1.10138 0.23754 0.59211
 C4367 C 1.09862 0.23354 0.61285
 C4368 C 1.10451 0.21511 0.62112
 C4369 C 1.11438 0.20073 0.60935
 C4370 C 1.11709 0.20481 0.58879
 C4371 C 1.09047 0.24815 0.62535
 C4372 C 1.08570 0.26692 0.61793
 C4373 C 1.08837 0.27169 0.59744
 C4374 C 1.09531 0.25641 0.58413
 C4375 C 1.09576 0.26043 0.56327
 C4376 C 1.09022 0.27893 0.55573
 C4377 C 1.08454 0.29435 0.56864
 C4378 C 1.08392 0.29110 0.58972
 C4379 C 1.07918 0.30755 0.60223
 C4380 C 1.07429 0.32605 0.59404
 C4381 C 1.07381 0.32889 0.57313
 C4382 C 1.07931 0.31300 0.56053
 H4383 H 1.11379 0.22457 0.56458
 H4384 H 1.10249 0.21263 0.63707
 H4385 H 1.12399 0.19403 0.57888
 H4386 H 1.08813 0.24520 0.64118
 H4387 H 1.07944 0.27730 0.62860
 H4388 H 1.09981 0.24936 0.55221
 H4389 H 1.09059 0.28123 0.53960
 H4390 H 1.07947 0.30674 0.61843
 H4391 H 1.07086 0.33825 0.60421
 H4392 H 1.07909 0.31498 0.54434
 C4393 C 0.61750 0.72449 0.58569
 C4394 C 0.60858 0.73960 0.59764
 C4395 C 0.60731 0.73620 0.61865
 C4396 C 0.61421 0.71827 0.62704
 C4397 C 0.62279 0.70345 0.61496
 C4398 C 0.62449 0.70680 0.59427
 C4399 C 0.59920 0.75069 0.63127
 C4400 C 0.59242 0.76869 0.62362
 C4401 C 0.59327 0.77290 0.60283
 C4402 C 0.60104 0.75793 0.58955
 C4403 C 0.60074 0.76169 0.56864
 C4404 C 0.59330 0.77945 0.56094
 C4405 C 0.58616 0.79437 0.57370
 C4406 C 0.58628 0.79147 0.59484
 C4407 C 0.57949 0.80741 0.60711
 C4408 C 0.57237 0.82506 0.59868
 C4409 C 0.57170 0.82759 0.57777
 C4410 C 0.57882 0.81220 0.56537
 H4411 H 0.61952 0.72590 0.56970
 H4412 H 0.61322 0.71599 0.64314
 H4413 H 0.63104 0.69555 0.58461
 H4414 H 0.59812 0.74812 0.64732
 H4415 H 0.58621 0.77887 0.63448
 H4416 H 0.60583 0.75100 0.55766
 H4417 H 0.59322 0.78155 0.54477
 H4418 H 0.57973 0.80692 0.62331
 H4419 H 0.56755 0.83692 0.60867
 H4420 H 0.57838 0.81396 0.54915
 C4421 C 0.59919 0.22874 1.13350
 C4422 C 0.60240 0.23693 1.11427
 C4423 C 0.61289 0.22514 1.10012
 C4424 C 0.62081 0.20648 1.10558
 C4425 C 0.61776 0.19856 1.12488
 C4426 C 0.60657 0.20996 1.13859
 C4427 C 0.61532 0.23195 1.08050
 C4428 C 0.60727 0.25008 1.07447
 C4429 C 0.59697 0.26252 1.08809
 C4430 C 0.59531 0.25625 1.10854
 C4431 C 0.58712 0.26971 1.12269
 C4432 C 0.58049 0.28851 1.11701
 C4433 C 0.58110 0.29444 1.09695
 C4434 C 0.58884 0.28134 1.08210
 C4435 C 0.58792 0.28758 1.06181
 C4436 C 0.58063 0.30640 1.05671
 C4437 C 0.57413 0.31981 1.07158
 C4438 C 0.57417 0.31354 1.09170
 H4439 H 0.59064 0.23629 1.14488
 H4440 H 0.62870 0.19785 1.09438
 H4441 H 0.60391 0.20482 1.15370
 H4442 H 0.62337 0.22305 1.06959
 H4443 H 0.61000 0.25428 1.05912
 H4444 H 0.58630 0.26643 1.13852
 H4445 H 0.57466 0.29846 1.12847
 H4446 H 0.59233 0.27810 1.04945
 H4447 H 0.58003 0.31042 1.04095
 H4448 H 0.56919 0.32366 1.10341
 C4449 C 1.25956 1.13245 0.89742
 C4450 C 1.25339 1.11232 0.89704
 C4451 C 1.26703 1.09780 0.88997
 C4452 C 1.28581 1.10338 0.88339
 C4453 C 1.29163 1.12337 0.88387
 C4454 C 1.27833 1.13778 0.89099
 C4455 C 1.26195 1.07773 0.88955
 C4456 C 1.24365 1.07157 0.89614
 C4457 C 1.22948 1.08533 0.90337
 C4458 C 1.23431 1.10609 0.90353
 C4459 C 1.21986 1.11991 0.91005
 C4460 C 1.20145 1.11377 0.91636
 C4461 C 1.19664 1.09362 0.91665
 C4462 C 1.21056 1.07906 0.91028
 C4463 C 1.20491 1.05880 0.91121
 C4464 C 1.18626 1.05340 0.91788
 C4465 C 1.17250 1.06788 0.92390
 C4466 C 1.17788 1.08800 0.92327
 H4467 H 1.25036 1.14450 0.90272
 H4468 H 1.29608 1.09204 0.87825
 H4469 H 1.28236 1.15335 0.89139
 H4470 H 1.27229 1.06658 0.88411
 H4471 H 1.24105 1.05580 0.89516
 H4472 H 1.22219 1.13575 0.91030
 H4473 H 1.19086 1.12497 0.92116
 H4474 H 1.21457 1.04666 0.90710
 H4475 H 1.18269 1.03772 0.91857
 H4476 H 1.16731 1.09940 0.92768
 C4477 C 1.24781 0.63805 0.37995
 C4478 C 1.24338 0.61758 0.38204
 C4479 C 1.25789 0.60350 0.37586
 C4480 C 1.27607 0.60983 0.36829
 C4481 C 1.28039 0.63015 0.36715
 C4482 C 1.26600 0.64412 0.37275
 C4483 C 1.25439 0.58317 0.37769
 C4484 C 1.23703 0.57637 0.38601
 C4485 C 1.22228 0.58972 0.39285
 C4486 C 1.22531 0.61066 0.39040
 C4487 C 1.21024 0.62398 0.39651
 C4488 C 1.19297 0.61721 0.40500
 C4489 C 1.18996 0.59693 0.40791
 C4490 C 1.20455 0.58284 0.40198
 C4491 C 1.20074 0.56245 0.40558
 C4492 C 1.18308 0.55643 0.41416
 C4493 C 1.16863 0.57043 0.41959
 C4494 C 1.17228 0.59069 0.41661
 H4495 H 1.23778 0.64985 0.38412
 H4496 H 1.28723 0.59895 0.36413
 H4497 H 1.26894 0.65991 0.37174
 H4498 H 1.26534 0.57234 0.37285
 H4499 H 1.23564 0.56044 0.38681
 H4500 H 1.21120 0.63988 0.39486
 H4501 H 1.18184 0.62803 0.40941
 H4502 H 1.21107 0.55070 0.40205
 H4503 H 1.18073 0.54069 0.41660
 H4504 H 1.16109 0.60162 0.42061
 C4505 C 0.76900 1.08530 0.38653
 C4506 C 0.75341 1.09683 0.39474
 C4507 C 0.75598 1.11778 0.39598
 C4508 C 0.77349 1.12656 0.38946
 C4509 C 0.78864 1.11490 0.38122
 C4510 C 0.78622 1.09424 0.37986
 C4511 C 0.74101 1.12994 0.40351
 C4512 C 0.72329 1.12191 0.40959
 C4513 C 0.71985 1.10119 0.40856
 C4514 C 0.73534 1.08838 0.40152
 C4515 C 0.73230 1.06758 0.40166
 C4516 C 0.71474 1.05953 0.40824
 C4517 C 0.69934 1.07181 0.41466
 C4518 C 0.70153 1.09283 0.41466
 C4519 C 0.68517 1.10459 0.42067
 C4520 C 0.66783 1.09581 0.42714
 C4521 C 0.66604 1.07505 0.42783
 C4522 C 0.68178 1.06313 0.42125
 H4523 H 0.76832 1.06937 0.38470
 H4524 H 0.77511 1.14260 0.39025
 H4525 H 0.79778 1.08491 0.37365
 H4526 H 0.74294 1.14594 0.40460
 H4527 H 0.71267 1.13244 0.41536
 H4528 H 0.74338 1.05695 0.39708
 H4529 H 0.71319 1.04346 0.40824
 H4530 H 0.68512 1.12063 0.42040
 H4531 H 0.65567 1.10539 0.43156
 H4532 H 0.68052 1.04704 0.42168
 C4533 C 0.77328 0.58657 0.87928
 C4534 C 0.75722 0.59758 0.88732
 C4535 C 0.75896 0.61863 0.88820
 C4536 C 0.77621 0.62799 0.88181
 C4537 C 0.79200 0.61684 0.87414
 C4538 C 0.79029 0.59609 0.87281
 C4539 C 0.74351 0.63031 0.89548
 C4540 C 0.72623 0.62167 0.90195
 C4541 C 0.72371 0.60079 0.90160
 C4542 C 0.73958 0.58851 0.89447
 C4543 C 0.73739 0.56760 0.89505
 C4544 C 0.72041 0.55894 0.90240
 C4545 C 0.70475 0.57068 0.90919
 C4546 C 0.70599 0.59177 0.90856
 C4547 C 0.68939 0.60295 0.91498
 C4548 C 0.67279 0.59359 0.92252
 C4549 C 0.67198 0.57280 0.92391
 C4550 C 0.68790 0.56140 0.91684
 H4551 H 0.77319 0.57060 0.87765
 H4552 H 0.77724 0.64409 0.88252
 H4553 H 0.80231 0.58712 0.86699
 H4554 H 0.74478 0.64640 0.89622
 H4555 H 0.71524 0.63188 0.90756
 H4556 H 0.74875 0.55736 0.89029
 H4557 H 0.71955 0.54282 0.90280
 H4558 H 0.68860 0.61896 0.91431
 H4559 H 0.66043 0.60275 0.92726
 H4560 H 0.68739 0.54528 0.91776
 C4561 C 1.24872 0.85806 1.10965
 C4562 C 1.24491 0.87853 1.10603
 C4563 C 1.25948 0.89236 1.11221
 C4564 C 1.27700 0.88581 1.12152
 C4565 C 1.28054 0.86549 1.12473
 C4566 C 1.26622 0.85175 1.11877
 C4567 C 1.25657 0.91267 1.10902
 C4568 C 1.23947 0.91972 1.09988
 C4569 C 1.22443 0.90666 1.09350
 C4570 C 1.22721 0.88570 1.09659
 C4571 C 1.21218 0.87264 1.09021
 C4572 C 1.19489 0.87971 1.08149
 C4573 C 1.19183 0.90004 1.07863
 C4574 C 1.20658 0.91385 1.08435
 C4575 C 1.20266 0.93433 1.08086
 C4576 C 1.18470 0.94069 1.07273
 C4577 C 1.17005 0.92697 1.06766
 C4578 C 1.17386 0.90663 1.07033
 H4579 H 1.23856 0.84645 1.10566
 H4580 H 1.28811 0.89651 1.12591
 H4581 H 1.26847 0.83598 1.12137
 H4582 H 1.26766 0.92330 1.11369
 H4583 H 1.23851 0.93563 1.09815
 H4584 H 1.21317 0.85671 1.09183
 H4585 H 1.18371 0.86909 1.07704
 H4586 H 1.21303 0.94591 1.08435
 H4587 H 1.18220 0.95649 1.07048
 H4588 H 1.16253 0.89591 1.06659
 C4589 C 1.27679 0.42188 0.60703
 C4590 C 1.26150 0.40960 0.59951
 C4591 C 1.26501 0.38873 0.59906
 C4592 C 1.28309 0.38072 0.60560
 C4593 C 1.29797 0.39309 0.61305
 C4594 C 1.29464 0.41370 0.61371
 C4595 C 1.25042 0.37584 0.59226
 C4596 C 1.23217 0.38310 0.58617
 C4597 C 1.22777 0.40371 0.58646
 C4598 C 1.24286 0.41724 0.59270
 C4599 C 1.23884 0.43791 0.59175
 C4600 C 1.22069 0.44515 0.58524
 C4601 C 1.20566 0.43217 0.57970
 C4602 C 1.20886 0.41126 0.58045
 C4603 C 1.19287 0.39879 0.57529
 C4604 C 1.17483 0.40677 0.56911
 C4605 C 1.17196 0.42741 0.56783
 C4606 C 1.18741 0.44005 0.57335
 H4607 H 1.27540 0.43784 0.60828
 H4608 H 1.28538 0.36472 0.60542
 H4609 H 1.30596 0.42357 0.61934
 H4610 H 1.25308 0.35989 0.59175
 H4611 H 1.22190 0.37204 0.58098
 H4612 H 1.24957 0.44902 0.59565
 H4613 H 1.21835 0.46115 0.58464
 H4614 H 1.19363 0.38278 0.57614
 H4615 H 1.16294 0.39667 0.56549
 H4616 H 1.18534 0.45606 0.57241
 C4617 C 0.77602 0.91915 0.60962
 C4618 C 0.76034 0.90680 0.60318
 C4619 C 0.76404 0.88597 0.60210
 C4620 C 0.78268 0.87809 0.60699
 C4621 C 0.79796 0.89054 0.61334
 C4622 C 0.79444 0.91109 0.61463
 C4623 C 0.74913 0.87302 0.59626
 C4624 C 0.73045 0.88016 0.59155
 C4625 C 0.72589 0.90073 0.59235
 C4626 C 0.74117 0.91432 0.59792
 C4627 C 0.73681 0.93495 0.59783
 C4628 C 0.71827 0.94211 0.59249
 C4629 C 0.70318 0.92908 0.58727
 C4630 C 0.70664 0.90819 0.58740
 C4631 C 0.69061 0.89566 0.58252
 C4632 C 0.67233 0.90358 0.57699
 C4633 C 0.66924 0.92421 0.57619
 C4634 C 0.68466 0.93690 0.58169
 H4635 H 0.77458 0.93507 0.61117
 H4636 H 0.78515 0.86212 0.60632
 H4637 H 0.80605 0.92103 0.61943
 H4638 H 0.75191 0.85710 0.59535
 H4639 H 0.71997 0.86904 0.58702
 H4640 H 0.74755 0.94612 0.60152
 H4641 H 0.71571 0.95809 0.59244
 H4642 H 0.69157 0.87964 0.58289
 H4643 H 0.66049 0.89344 0.57335
 H4644 H 0.68240 0.95290 0.58112
 C4645 C 0.78562 0.42456 1.10463
 C4646 C 0.77080 0.41133 1.09781
 C4647 C 0.77579 0.39080 1.09639
 C4648 C 0.79489 0.38408 1.10105
 C4649 C 0.80938 0.39740 1.10755
 C4650 C 0.80453 0.41763 1.10944
 C4651 C 0.76172 0.37698 1.09037
 C4652 C 0.74262 0.38296 1.08584
 C4653 C 0.73681 0.40320 1.08693
 C4654 C 0.75124 0.41769 1.09253
 C4655 C 0.74573 0.43804 1.09234
 C4656 C 0.72679 0.44406 1.08704
 C4657 C 0.71244 0.43011 1.08206
 C4658 C 0.71711 0.40947 1.08221
 C4659 C 0.70177 0.39595 1.07772
 C4660 C 0.68293 0.40274 1.07263
 C4661 C 0.67861 0.42316 1.07184
 C4662 C 0.69343 0.43677 1.07679
 H4663 H 0.78309 0.44031 1.10666
 H4664 H 0.79839 0.36832 1.10001
 H4665 H 0.81550 0.42820 1.11447
 H4666 H 0.76551 0.36128 1.08919
 H4667 H 0.73285 0.37127 1.08112
 H4668 H 0.75585 0.44984 1.09583
 H4669 H 0.72332 0.45986 1.08691
 H4670 H 0.70368 0.38002 1.07824
 H4671 H 0.67161 0.39187 1.06945
 H4672 H 0.69026 0.45263 1.07619
 C4673 C 0.72405 1.08245 1.10691
 C4674 C 0.73926 1.09526 1.10063
 C4675 C 0.73538 1.11608 1.10104
 C4676 C 0.71708 1.12355 1.10754
 C4677 C 0.70246 1.11064 1.11418
 C4678 C 0.70607 1.09008 1.11361
 C4679 C 0.74989 1.12941 1.09535
 C4680 C 0.76842 1.12266 1.08969
 C4681 C 0.77322 1.10213 1.08934
 C4682 C 0.75822 1.08817 1.09435
 C4683 C 0.76269 1.06760 1.09290
 C4684 C 0.78120 1.06085 1.08717
 C4685 C 0.79613 1.07423 1.08284
 C4686 C 0.79246 1.09506 1.08398
 C4687 C 0.80834 1.10792 1.07988
 C4688 C 0.82674 1.10037 1.07438
 C4689 C 0.83010 1.07980 1.07282
 C4690 C 0.81473 1.06681 1.07726
 H4691 H 0.72562 1.06648 1.10727
 H4692 H 0.71448 1.13950 1.10818
 H4693 H 0.69491 1.07980 1.11851
 H4694 H 0.74696 1.14533 1.09548
 H4695 H 0.77864 1.13403 1.08546
 H4696 H 0.75211 1.05617 1.09589
 H4697 H 0.78389 1.04492 1.08622
 H4698 H 0.80718 1.12390 1.08097
 H4699 H 0.83850 1.11074 1.07147
 H4700 H 0.81715 1.05085 1.07600
 C4701 C 0.72766 0.58514 0.61571
 C4702 C 0.74258 0.59706 0.60727
 C4703 C 0.73913 0.61793 0.60643
 C4704 C 0.72130 0.62622 0.61320
 C4705 C 0.70665 0.61417 0.62128
 C4706 C 0.71007 0.59362 0.62261
 C4707 C 0.75346 0.63049 0.59886
 C4708 C 0.77134 0.62292 0.59221
 C4709 C 0.77559 0.60228 0.59262
 C4710 C 0.76079 0.58908 0.59980
 C4711 C 0.76456 0.56835 0.59895
 C4712 C 0.78219 0.56076 0.59157
 C4713 C 0.79696 0.57343 0.58506
 C4714 C 0.79403 0.59438 0.58575
 C4715 C 0.80981 0.60654 0.57963
 C4716 C 0.82736 0.59820 0.57260
 C4717 C 0.82993 0.57749 0.57135
 C4718 C 0.81467 0.56519 0.57779
 H4719 H 0.72914 0.56925 0.61744
 H4720 H 0.71896 0.64220 0.61253
 H4721 H 0.69896 0.58399 0.62878
 H4722 H 0.75085 0.64644 0.59811
 H4723 H 0.78141 0.63374 0.58642
 H4724 H 0.75398 0.55746 0.60353
 H4725 H 0.78431 0.54473 0.59105
 H4726 H 0.80927 0.62256 0.58037
 H4727 H 0.83910 0.60810 0.56833
 H4728 H 0.81645 0.54914 0.57689
 C4729 C 0.23424 1.13048 0.59551
 C4730 C 0.24156 1.11067 0.59598
 C4731 C 0.22881 1.09563 0.60303
 C4732 C 0.20988 1.10054 0.61002
 C4733 C 0.20305 1.12027 0.60963
 C4734 C 0.21536 1.13511 0.60221
 C4735 C 0.23498 1.07578 0.60307
 C4736 C 0.25350 1.07038 0.59608
 C4737 C 0.26684 1.08476 0.58909
 C4738 C 0.26098 1.10530 0.58960
 C4739 C 0.27486 1.11982 0.58414
 C4740 C 0.29372 1.11453 0.57818
 C4741 C 0.29947 1.09459 0.57702
 C4742 C 0.28605 1.07936 0.58208
 C4743 C 0.29248 1.05935 0.57983
 C4744 C 0.31160 1.05480 0.57370
 C4745 C 0.32502 1.06995 0.56957
 C4746 C 0.31873 1.08983 0.57101
 H4747 H 0.24257 1.14278 0.58982
 H4748 H 0.20029 1.08897 0.61549
 H4749 H 0.21047 1.15050 0.60188
 H4750 H 0.22534 1.06422 0.60848
 H4751 H 0.25709 1.05474 0.59685
 H4752 H 0.27182 1.13558 0.58480
 H4753 H 0.30393 1.12623 0.57439
 H4754 H 0.28307 1.04681 0.58244
 H4755 H 0.31589 1.03929 0.57212
 H4756 H 0.32898 1.10169 0.56790
 C4757 C 0.24717 0.63461 1.10177
 C4758 C 0.25348 0.61444 1.10239
 C4759 C 0.24010 0.60024 1.10995
 C4760 C 0.22151 0.60624 1.11706
 C4761 C 0.21564 0.62629 1.11646
 C4762 C 0.22862 0.64033 1.10868
 C4763 C 0.24531 0.58011 1.11038
 C4764 C 0.26347 0.57362 1.10333
 C4765 C 0.27740 0.58710 1.09576
 C4766 C 0.27249 0.60791 1.09570
 C4767 C 0.28685 0.62152 1.08925
 C4768 C 0.30525 0.61511 1.08288
 C4769 C 0.31011 0.59490 1.08239
 C4770 C 0.29623 0.58054 1.08857
 C4771 C 0.30184 0.56019 1.08719
 C4772 C 0.32053 0.55454 1.08053
 C4773 C 0.33432 0.56885 1.07497
 C4774 C 0.32890 0.58903 1.07582
 H4775 H 0.25607 0.64638 1.09590
 H4776 H 0.21143 0.59524 1.12279
 H4777 H 0.22453 0.65595 1.10820
 H4778 H 0.23517 0.56920 1.11618
 H4779 H 0.26625 0.55784 1.10439
 H4780 H 0.28451 0.63740 1.08926
 H4781 H 0.31582 0.62616 1.07823
 H4782 H 0.29212 0.54821 1.09092
 H4783 H 0.32414 0.53880 1.07957
 H4784 H 0.33948 0.60027 1.07171
 C4785 C 0.73749 0.89509 0.86700
 C4786 C 0.74356 0.89794 0.88726
 C4787 C 0.73063 0.89152 0.90257
 C4788 C 0.71260 0.88248 0.89762
 C4789 C 0.70681 0.88002 0.87749
 C4790 C 0.71944 0.88636 0.86230
 C4791 C 0.73565 0.89428 0.92276
 C4792 C 0.75314 0.90344 0.92825
 C4793 C 0.76657 0.91012 0.91368
 C4794 C 0.76187 0.90701 0.89284
 C4795 C 0.77573 0.91287 0.87830
 C4796 C 0.79354 0.92137 0.88384
 C4797 C 0.79827 0.92468 0.90403
 C4798 C 0.78475 0.91944 0.91926
 C4799 C 0.79009 0.92370 0.93947
 C4800 C 0.80840 0.93176 0.94429
 C4801 C 0.82203 0.93605 0.92924
 C4802 C 0.81667 0.93289 0.90907
 H4803 H 0.74614 0.89965 0.85436
 H4804 H 0.70278 0.87787 0.90946
 H4805 H 0.71537 0.88447 0.84662
 H4806 H 0.72587 0.88935 0.93453
 H4807 H 0.75581 0.90475 0.94420
 H4808 H 0.77345 0.91078 0.86238
 H4809 H 0.80380 0.92535 0.87212
 H4810 H 0.78054 0.92098 0.95200
 H4811 H 0.81200 0.93453 0.95998
 H4812 H 0.82712 0.93616 0.89731
 C4813 C 0.72328 0.38681 0.42143
 C4814 C 0.73840 0.39327 0.40848
 C4815 C 0.73438 0.39311 0.38748
 C4816 C 0.71603 0.38681 0.37999
 C4817 C 0.70131 0.38037 0.39303
 C4818 C 0.70515 0.38047 0.41378
 C4819 C 0.74872 0.39910 0.37397
 C4820 C 0.76709 0.40521 0.38072
 C4821 C 0.77195 0.40567 0.40144
 C4822 C 0.75730 0.39979 0.41558
 C4823 C 0.76202 0.40069 0.43633
 C4824 C 0.78032 0.40707 0.44308
 C4825 C 0.79479 0.41270 0.42954
 C4826 C 0.79092 0.41197 0.40851
 C4827 C 0.80629 0.41761 0.39548
 C4828 C 0.82438 0.42406 0.40304
 C4829 C 0.82796 0.42512 0.42381
 C4830 C 0.81311 0.41920 0.43698
 H4831 H 0.72492 0.38632 0.43755
 H4832 H 0.71337 0.38652 0.36388
 H4833 H 0.69398 0.37576 0.42423
 H4834 H 0.74572 0.39904 0.35791
 H4835 H 0.77714 0.40964 0.36916
 H4836 H 0.75180 0.39671 0.44790
 H4837 H 0.78318 0.40760 0.45916
 H4838 H 0.80494 0.41718 0.37932
 H4839 H 0.83573 0.42812 0.39250
 H4840 H 0.81568 0.42004 0.45310
 C4841 C 0.22272 0.89103 0.41342
 C4842 C 0.23836 0.89846 0.40173
 C4843 C 0.23585 0.89849 0.38049
 C4844 C 0.21848 0.89124 0.37153
 C4845 C 0.20348 0.88340 0.38336
 C4846 C 0.20570 0.88358 0.40433
 C4847 C 0.25084 0.90537 0.36821
 C4848 C 0.26856 0.91175 0.37642
 C4849 C 0.27203 0.91164 0.39743
 C4850 C 0.25648 0.90544 0.41034
 C4851 C 0.25958 0.90639 0.43139
 C4852 C 0.27732 0.91277 0.43958
 C4853 C 0.29282 0.91828 0.42724
 C4854 C 0.29050 0.91768 0.40598
 C4855 C 0.30690 0.92296 0.39419
 C4856 C 0.32449 0.92908 0.40315
 C4857 C 0.32650 0.93014 0.42413
 C4858 C 0.31064 0.92448 0.43610
 H4859 H 0.22326 0.89030 0.42960
 H4860 H 0.21697 0.89093 0.35528
 H4861 H 0.19420 0.87777 0.41379
 H4862 H 0.24894 0.90561 0.35199
 H4863 H 0.27922 0.91686 0.36577
 H4864 H 0.24848 0.90247 0.44210
 H4865 H 0.27895 0.91329 0.45583
 H4866 H 0.30680 0.92235 0.37799
 H4867 H 0.33669 0.93288 0.39353
 H4868 H 0.31204 0.92527 0.45236
 C4869 C 0.23232 0.38600 0.90930
 C4870 C 0.24821 0.39363 0.89811
 C4871 C 0.24631 0.39366 0.87680
 C4872 C 0.22922 0.38633 0.86731
 C4873 C 0.21395 0.37833 0.87867
 C4874 C 0.21562 0.37843 0.89969
 C4875 C 0.26164 0.40061 0.86501
 C4876 C 0.27910 0.40705 0.87378
 C4877 C 0.28194 0.40700 0.89488
 C4878 C 0.26599 0.40080 0.90729
 C4879 C 0.26837 0.40203 0.92842
 C4880 C 0.28577 0.40867 0.93717
 C4881 C 0.30167 0.41411 0.92533
 C4882 C 0.30010 0.41317 0.90402
 C4883 C 0.31692 0.41825 0.89276
 C4884 C 0.33416 0.42462 0.90226
 C4885 C 0.33541 0.42617 0.92328
 C4886 C 0.31914 0.42061 0.93474
 H4887 H 0.23245 0.38515 0.92548
 H4888 H 0.22814 0.38607 0.85102
 H4889 H 0.20393 0.37244 0.90878
 H4890 H 0.26023 0.40085 0.84874
 H4891 H 0.29006 0.41225 0.86349
 H4892 H 0.25690 0.39822 0.93876
 H4893 H 0.28682 0.40944 0.95346
 H4894 H 0.31741 0.41725 0.87659
 H4895 H 0.34669 0.42825 0.89302
 H4896 H 0.31994 0.42172 0.95102
   
