data_POSCAR
  _audit_creation_date              2014-09-24
  _audit_creation_method            'ToBaCCo'
  _symmetry_space_group_name_H-M    'P1'
  _symmetry_Int_Tables_number       1
  _symmetry_cell_setting            triclinic
  loop_
  _symmetry_equiv_pos_as_xyz
 x,y,z
_cell_length_a 76.0189
_cell_length_b 76.0764
_cell_length_c 76.2036
_cell_angle_alpha 91.893200
_cell_angle_beta 91.877600
_cell_angle_gamma 92.340500
loop_
  _atom_site_label
  _atom_site_type_symbol
  _atom_site_fract_x
  _atom_site_fract_y
  _atom_site_fract_z
N1 N 0.18015 0.22036 0.22731
 N2 N 0.18503 0.20662 0.23597
 C3 C 0.17447 0.20445 0.24964
 C4 C 0.16228 0.21751 0.24952
 C5 C 0.16635 0.22737 0.23514
 H6 H 0.17541 0.19397 0.25881
 H7 H 0.15980 0.23881 0.23063
 Cu8 Cu 0.20449 0.19278 0.22830
 Cu9 Cu 0.19170 0.22800 0.20634
 Cu10 Cu 0.22680 0.20403 0.19266
 N11 N 0.22466 0.17991 0.22078
 N12 N 0.23326 0.18439 0.20683
 C13 C 0.24648 0.17344 0.20450
 C14 C 0.24622 0.16135 0.21770
 C15 C 0.23216 0.16591 0.22782
 H16 H 0.25564 0.17434 0.19400
 H17 H 0.22762 0.15947 0.23935
 N18 N 0.21828 0.22436 0.18010
 N19 N 0.20503 0.23362 0.18543
 C20 C 0.20255 0.24674 0.17430
 C21 C 0.21478 0.24566 0.16130
 C22 C 0.22452 0.23130 0.16541
 H23 H 0.19245 0.25627 0.17546
 H24 H 0.23554 0.22643 0.15837
 H25 H 0.20049 0.20364 0.19874
 H26 H 0.21591 0.21816 0.21292
 N27 N 0.68106 0.72243 0.72651
 N28 N 0.68544 0.70813 0.73448
 C29 C 0.67426 0.70518 0.74751
 C30 C 0.66220 0.71836 0.74770
 C31 C 0.66697 0.72907 0.73415
 H32 H 0.67474 0.69415 0.75607
 H33 H 0.66076 0.74090 0.73018
 Cu34 Cu 0.70524 0.69473 0.72693
 Cu35 Cu 0.69373 0.73137 0.70674
 Cu36 Cu 0.72871 0.70750 0.69251
 N37 N 0.72453 0.68118 0.71839
 N38 N 0.73377 0.68636 0.70509
 C39 C 0.74642 0.67487 0.70213
 C40 C 0.74501 0.66170 0.71418
 C41 C 0.73094 0.66615 0.72428
 H42 H 0.75585 0.67595 0.69186
 H43 H 0.72594 0.65912 0.73530
 N44 N 0.72146 0.72924 0.68152
 N45 N 0.70813 0.73830 0.68696
 C46 C 0.70623 0.75219 0.67669
 C47 C 0.71895 0.75189 0.66411
 C48 C 0.72839 0.73714 0.66762
 H49 H 0.69627 0.76180 0.67825
 H50 H 0.73928 0.73230 0.66038
 H51 H 0.70228 0.70719 0.69800
 H52 H 0.71762 0.72073 0.71317
 N53 N 0.31232 0.76746 0.73560
 N54 N 0.30859 0.78276 0.74271
 C55 C 0.31850 0.78575 0.75755
 C56 C 0.32911 0.77156 0.75993
 C57 C 0.32475 0.76019 0.74568
 H58 H 0.31808 0.79750 0.76586
 H59 H 0.33046 0.74773 0.74259
 Cu60 Cu 0.29168 0.79777 0.73171
 Cu61 Cu 0.30131 0.75854 0.71341
 Cu62 Cu 0.26720 0.78235 0.69650
 N63 N 0.27064 0.80928 0.72379
 N64 N 0.26106 0.80321 0.71011
 C65 C 0.24746 0.81372 0.70751
 C66 C 0.24850 0.82723 0.72031
 C67 C 0.26348 0.82385 0.73042
 H68 H 0.23767 0.81162 0.69698
 H69 H 0.26888 0.83134 0.74177
 N70 N 0.27548 0.76093 0.68472
 N71 N 0.28847 0.75182 0.69111
 C72 C 0.29137 0.73835 0.67976
 C73 C 0.27966 0.73905 0.66549
 C74 C 0.26978 0.75354 0.66917
 H75 H 0.30159 0.72904 0.68152
 H76 H 0.25930 0.75848 0.66105
 H77 H 0.29378 0.78217 0.70340
 H78 H 0.27817 0.77091 0.71832
 N79 N 0.81401 0.26803 0.23452
 N80 N 0.81067 0.28344 0.24163
 C81 C 0.82071 0.28628 0.25639
 C82 C 0.83110 0.27186 0.25875
 C83 C 0.82634 0.26052 0.24452
 H84 H 0.82051 0.29812 0.26459
 H85 H 0.83158 0.24785 0.24139
 Cu86 Cu 0.79401 0.29878 0.23074
 Cu87 Cu 0.80254 0.25922 0.21250
 Cu88 Cu 0.76848 0.28348 0.19623
 N89 N 0.77300 0.31058 0.22328
 N90 N 0.76294 0.30448 0.20993
 C91 C 0.74940 0.31515 0.20766
 C92 C 0.75108 0.32872 0.22027
 C93 C 0.76625 0.32535 0.22997
 H94 H 0.73925 0.31328 0.19743
 H95 H 0.77187 0.33293 0.24118
 N96 N 0.77621 0.26191 0.18430
 N97 N 0.78923 0.25266 0.19041
 C98 C 0.79171 0.23913 0.17901
 C99 C 0.77967 0.23989 0.16501
 C100 C 0.77006 0.25454 0.16890
 H101 H 0.80180 0.22966 0.18062
 H102 H 0.75949 0.25963 0.16103
 H103 H 0.79517 0.28286 0.20253
 H104 H 0.77977 0.27200 0.21793
 N105 N 0.81117 0.72566 0.27190
 N106 N 0.80558 0.71154 0.26263
 C107 C 0.81707 0.70829 0.24996
 C108 C 0.83063 0.72105 0.25136
 C109 C 0.82642 0.73184 0.26548
 H110 H 0.81573 0.69740 0.24048
 H111 H 0.83371 0.74352 0.27052
 Cu112 Cu 0.78383 0.69869 0.26793
 Cu113 Cu 0.79810 0.73524 0.29131
 Cu114 Cu 0.75967 0.71239 0.30158
 N115 N 0.76267 0.68561 0.27457
 N116 N 0.75326 0.69107 0.28766
 C117 C 0.73970 0.67948 0.28969
 C118 C 0.74059 0.66590 0.27721
 C119 C 0.75540 0.67030 0.26783
 H120 H 0.73009 0.68077 0.29974
 H121 H 0.76070 0.66280 0.25710
 N122 N 0.76830 0.73420 0.31420
 N123 N 0.78300 0.74286 0.31045
 C124 C 0.78549 0.75685 0.32170
 C125 C 0.77168 0.75701 0.33315
 C126 C 0.76105 0.74243 0.32791
 H127 H 0.79668 0.76607 0.32173
 H128 H 0.74896 0.73799 0.33371
 H129 H 0.78649 0.71138 0.29776
 H130 H 0.77364 0.72522 0.28257
 N131 N 0.30657 0.23055 -0.23091
 N132 N 0.30121 0.21620 -0.23989
 C133 C 0.31262 0.21304 -0.25266
 C134 C 0.32595 0.22616 -0.25170
 C135 C 0.32155 0.23703 -0.23762
 H136 H 0.31127 0.20195 -0.26189
 H137 H 0.32861 0.24882 -0.23255
 Cu138 Cu 0.27995 0.20284 -0.23397
 Cu139 Cu 0.29373 0.23984 -0.21120
 Cu140 Cu 0.25632 0.21600 -0.19964
 N141 N 0.25931 0.18928 -0.22672
 N142 N 0.25013 0.19447 -0.21334
 C143 C 0.23693 0.18253 -0.21098
 C144 C 0.23786 0.16903 -0.22355
 C145 C 0.25226 0.17382 -0.23331
 H146 H 0.22762 0.18343 -0.20060
 H147 H 0.25733 0.16656 -0.24433
 N148 N 0.26470 0.23812 -0.18735
 N149 N 0.27899 0.24715 -0.19169
 C150 C 0.28149 0.26124 -0.18058
 C151 C 0.26815 0.26111 -0.16861
 C152 C 0.25774 0.24622 -0.17339
 H153 H 0.29246 0.27069 -0.18097
 H154 H 0.24604 0.24149 -0.16706
 H155 H 0.28300 0.21574 -0.20425
 H156 H 0.26927 0.22906 -0.21915
 N157 N 0.68512 0.27337 -0.23890
 N158 N 0.68969 0.28850 -0.24558
 C159 C 0.67865 0.29156 -0.25920
 C160 C 0.66633 0.27757 -0.26124
 C161 C 0.67100 0.26624 -0.24805
 H162 H 0.67957 0.30323 -0.26688
 H163 H 0.66450 0.25388 -0.24501
 Cu164 Cu 0.70936 0.30311 -0.23572
 Cu165 Cu 0.69737 0.26449 -0.21835
 Cu166 Cu 0.73552 0.28764 -0.20376
 N167 N 0.73245 0.31389 -0.22972
 N168 N 0.74262 0.30795 -0.21718
 C169 C 0.75751 0.31816 -0.21555
 C170 C 0.75666 0.33124 -0.22778
 C171 C 0.74051 0.32804 -0.23654
 H172 H 0.76810 0.31622 -0.20609
 H173 H 0.73482 0.33558 -0.24689
 N174 N 0.72605 0.26672 -0.19207
 N175 N 0.71162 0.25778 -0.19774
 C176 C 0.70854 0.24436 -0.18701
 C177 C 0.72163 0.24487 -0.17389
 C178 C 0.73249 0.25926 -0.17756
 H179 H 0.69738 0.23510 -0.18843
 H180 H 0.74427 0.26393 -0.17024
 H181 H 0.70845 0.28799 -0.20802
 H182 H 0.72117 0.27613 -0.22502
 N183 N 0.18406 0.77515 0.26156
 N184 N 0.18945 0.78961 0.25408
 C185 C 0.17855 0.79258 0.24032
 C186 C 0.16551 0.77927 0.23907
 C187 C 0.16951 0.76842 0.25281
 H188 H 0.18002 0.80369 0.23193
 H189 H 0.16222 0.75668 0.25644
 Cu190 Cu 0.20979 0.80366 0.26325
 Cu191 Cu 0.19604 0.76653 0.28239
 Cu192 Cu 0.23498 0.78878 0.29626
 N193 N 0.23302 0.81408 0.26928
 N194 N 0.24275 0.80849 0.28233
 C195 C 0.25771 0.81858 0.28405
 C196 C 0.25741 0.83128 0.27133
 C197 C 0.24146 0.82784 0.26216
 H198 H 0.26790 0.81683 0.29398
 H199 H 0.23607 0.83497 0.25135
 N200 N 0.22489 0.76851 0.30852
 N201 N 0.21012 0.75996 0.30319
 C202 C 0.20672 0.74687 0.31421
 C203 C 0.21997 0.74716 0.32717
 C204 C 0.23125 0.76109 0.32309
 H205 H 0.19531 0.73792 0.31301
 H206 H 0.24328 0.76546 0.33014
 H207 H 0.20807 0.79000 0.29171
 H208 H 0.22038 0.77677 0.27544
 N209 N 0.47051 0.43073 0.47687
 N210 N 0.45498 0.43302 0.48348
 C211 C 0.45215 0.42111 0.49588
 C212 C 0.46674 0.41085 0.49719
 C213 C 0.47815 0.41738 0.48494
 H214 H 0.44045 0.42015 0.50353
 H215 H 0.49091 0.41253 0.48188
 Cu216 Cu 0.43987 0.45142 0.47555
 Cu217 Cu 0.47917 0.44466 0.45769
 Cu218 Cu 0.45515 0.48055 0.44676
 N219 N 0.42864 0.47361 0.47194
 N220 N 0.43470 0.48494 0.46074
 C221 C 0.42446 0.49895 0.46070
 C222 C 0.41120 0.49632 0.47252
 C223 C 0.41430 0.48003 0.47941
 H224 H 0.42638 0.51007 0.45240
 H225 H 0.40676 0.47335 0.48915
 N226 N 0.47625 0.47385 0.43422
 N227 N 0.48558 0.46032 0.43856
 C228 C 0.49904 0.45906 0.42759
 C229 C 0.49813 0.47242 0.41570
 C230 C 0.48348 0.48153 0.42034
 H231 H 0.50856 0.44890 0.42797
 H232 H 0.47845 0.49292 0.41409
 H233 H 0.46666 0.46667 0.46672
 H234 H 0.45541 0.45338 0.44815
 N235 N -0.02432 -0.06635 0.97721
 N236 N -0.03808 -0.06222 0.98625
 C237 C -0.04019 -0.07380 0.99908
 C238 C -0.02711 -0.08592 0.99800
 C239 C -0.01729 -0.08075 0.98391
 H240 H -0.05065 -0.07362 1.00834
 H241 H -0.00582 -0.08693 0.97895
 Cu242 Cu -0.05213 -0.04233 0.98010
 Cu243 Cu -0.01662 -0.05276 0.95742
 Cu244 Cu -0.04104 -0.01693 0.94649
 N245 N -0.06548 -0.02194 0.97411
 N246 N -0.06105 -0.01205 0.96101
 C247 C -0.07225 0.00115 0.95984
 C248 C -0.08442 -0.00053 0.97290
 C249 C -0.07969 -0.01537 0.98168
 H250 H -0.07163 0.01115 0.95010
 H251 H -0.08597 -0.02084 0.99292
 N252 N -0.02031 -0.02402 0.93343
 N253 N -0.01087 -0.03748 0.93783
 C254 C 0.00246 -0.03884 0.92672
 C255 C 0.00137 -0.02568 0.91467
 C256 C -0.01328 -0.01656 0.91931
 H257 H 0.01208 -0.04891 0.92714
 H258 H -0.01834 -0.00523 0.91295
 H259 H -0.02684 -0.02913 0.96577
 H260 H -0.04106 -0.04359 0.95041
 N261 N 1.03866 0.57606 0.97183
 N262 N 1.05282 0.57228 0.98109
 C263 C 1.05566 0.58460 0.99413
 C264 C 1.04267 0.59680 0.99281
 C265 C 1.03215 0.59093 0.97849
 H266 H 1.06638 0.58473 1.00383
 H267 H 1.02032 0.59677 0.97358
 Cu268 Cu 1.06602 0.55160 0.97506
 Cu269 Cu 1.02907 0.56110 0.95236
 Cu270 Cu 1.05232 0.52455 0.94097
 N271 N 1.07942 0.53143 0.96781
 N272 N 1.07375 0.52084 0.95466
 C273 C 1.08503 0.50785 0.95259
 C274 C 1.09861 0.51039 0.96503
 C275 C 1.09466 0.52554 0.97446
 H276 H 1.08354 0.49740 0.94262
 H277 H 1.10216 0.53161 0.98551
 N278 N 1.03035 0.53052 0.92866
 N279 N 1.02142 0.54439 0.93308
 C280 C 1.00712 0.54495 0.92225
 C281 C 1.00710 0.53080 0.91037
 C282 C 1.02204 0.52194 0.91483
 H283 H 0.99763 0.55514 0.92269
 H284 H 1.02651 0.51010 0.90847
 H285 H 1.03959 0.53795 0.96049
 H286 H 1.05302 0.55147 0.94539
 N287 N 0.53737 0.07823 0.47161
 N288 N 0.55117 0.07412 0.48123
 C289 C 0.55402 0.08645 0.49426
 C290 C 0.54142 0.09902 0.49255
 C291 C 0.53110 0.09332 0.47803
 H292 H 0.56456 0.08639 0.50414
 H293 H 0.51960 0.09949 0.47276
 Cu294 Cu 0.56429 0.05324 0.47568
 Cu295 Cu 0.52798 0.06348 0.45197
 Cu296 Cu 0.55243 0.02844 0.43917
 N297 N 0.57875 0.03450 0.46683
 N298 N 0.57415 0.02518 0.45247
 C299 C 0.58633 0.01326 0.44936
 C300 C 0.59936 0.01510 0.46248
 C301 C 0.59408 0.02873 0.47338
 H302 H 0.58548 0.00365 0.43857
 H303 H 0.60086 0.03405 0.48519
 N304 N 0.53002 0.03379 0.42739
 N305 N 0.52054 0.04705 0.43243
 C306 C 0.50590 0.04719 0.42200
 C307 C 0.50623 0.03337 0.40975
 C308 C 0.52174 0.02518 0.41357
 H309 H 0.49591 0.05683 0.42302
 H310 H 0.52658 0.01371 0.40685
 H311 H 0.53874 0.03998 0.45917
 H312 H 0.55265 0.05497 0.44572
 N313 N -0.03114 0.07854 0.53265
 N314 N -0.04197 0.07080 0.52072
 C315 C -0.04449 0.08171 0.50743
 C316 C -0.03469 0.09720 0.51116
 C317 C -0.02639 0.09471 0.52732
 H318 H -0.05301 0.07862 0.49602
 H319 H -0.01735 0.10384 0.53455
 Cu320 Cu -0.05214 0.04738 0.52355
 Cu321 Cu -0.02382 0.06676 0.55391
 Cu322 Cu -0.04444 0.02610 0.56052
 N323 N -0.06741 0.02787 0.53017
 N324 N -0.06443 0.01954 0.54472
 C325 C -0.07656 0.00628 0.54580
 C326 C -0.08784 0.00635 0.53113
 C327 C -0.08162 0.02030 0.52153
 H328 H -0.07706 -0.00273 0.55647
 H329 H -0.08675 0.02445 0.50900
 N330 N -0.02665 0.03722 0.57714
 N331 N -0.01840 0.05246 0.57445
 C332 C -0.00615 0.05579 0.58746
 C333 C -0.00695 0.04211 0.59898
 C334 C -0.02014 0.03064 0.59206
 H335 H 0.00280 0.06723 0.58843
 H336 H -0.02417 0.01807 0.59717
 H337 H -0.02835 0.04139 0.54475
 H338 H -0.04728 0.05214 0.55501
 N339 N 0.47145 0.58025 0.03404
 N340 N 0.45991 0.57280 0.02260
 C341 C 0.45728 0.58366 0.00930
 C342 C 0.46774 0.59882 0.01248
 C343 C 0.47655 0.59620 0.02836
 H344 H 0.44822 0.58080 -0.00175
 H345 H 0.48609 0.60512 0.03519
 Cu346 Cu 0.44913 0.54974 0.02593
 Cu347 Cu 0.47877 0.56858 0.05541
 Cu348 Cu 0.45484 0.53039 0.06447
 N349 N 0.43382 0.53025 0.03250
 N350 N 0.43626 0.52254 0.04749
 C351 C 0.42409 0.50933 0.04865
 C352 C 0.41333 0.50882 0.03360
 C353 C 0.41988 0.52235 0.02365
 H354 H 0.42295 0.50095 0.05977
 H355 H 0.41497 0.52612 0.01089
 N356 N 0.47421 0.54037 0.07994
 N357 N 0.48376 0.55460 0.07633
 C358 C 0.49659 0.55732 0.08890
 C359 C 0.49484 0.54428 0.10108
 C360 C 0.48052 0.53382 0.09495
 H361 H 0.50648 0.56796 0.08918
 H362 H 0.47548 0.52192 0.10072
 H363 H 0.47194 0.54293 0.04763
 H364 H 0.45427 0.55641 0.05707
 N365 N 0.53170 -0.07280 0.03024
 N366 N 0.54493 -0.06724 0.02093
 C367 C 0.54530 -0.07730 0.00608
 C368 C 0.53163 -0.08989 0.00614
 C369 C 0.52328 -0.08662 0.02171
 H370 H 0.55508 -0.07590 -0.00382
 H371 H 0.51194 -0.09376 0.02651
 Cu372 Cu 0.56079 -0.04793 0.02958
 Cu373 Cu 0.52652 -0.06195 0.05283
 Cu374 Cu 0.55460 -0.02749 0.06862
 N375 N 0.57645 -0.02860 0.03855
 N376 N 0.57405 -0.02066 0.05381
 C377 C 0.58665 -0.00782 0.05669
 C378 C 0.59761 -0.00771 0.04247
 C379 C 0.59066 -0.02113 0.03125
 H380 H 0.58774 0.00075 0.06830
 H381 H 0.59545 -0.02504 0.01858
 N382 N 0.53414 -0.03638 0.08159
 N383 N 0.52341 -0.04936 0.07540
 C384 C 0.51046 -0.05200 0.08675
 C385 C 0.51309 -0.04014 0.10082
 C386 C 0.52830 -0.03048 0.09714
 H387 H 0.49983 -0.06182 0.08491
 H388 H 0.53434 -0.01963 0.10499
 H389 H 0.53790 -0.03732 0.04843
 H390 H 0.55213 -0.05334 0.05953
 N391 N 1.02977 0.42803 0.53050
 N392 N 1.04322 0.43333 0.52136
 C393 C 1.04378 0.42305 0.50667
 C394 C 1.02999 0.41056 0.50669
 C395 C 1.02138 0.41416 0.52204
 H396 H 1.05373 0.42423 0.49692
 H397 H 1.00988 0.40719 0.52673
 Cu398 Cu 1.05905 0.45267 0.52999
 Cu399 Cu 1.02422 0.43936 0.55277
 Cu400 Cu 1.05218 0.47403 0.56836
 N401 N 1.07445 0.47234 0.53862
 N402 N 1.07187 0.48055 0.55370
 C403 C 1.08438 0.49350 0.55645
 C404 C 1.09546 0.49345 0.54231
 C405 C 1.08866 0.47979 0.53128
 H406 H 1.08523 0.50234 0.56787
 H407 H 1.09357 0.47562 0.51874
 N408 N 1.03149 0.46543 0.58115
 N409 N 1.02076 0.45242 0.57500
 C410 C 1.00757 0.45009 0.58614
 C411 C 1.01006 0.46217 0.60004
 C412 C 1.02542 0.47164 0.59649
 H413 H 0.99689 0.44033 0.58429
 H414 H 1.03141 0.48257 0.60425
 H415 H 1.03578 0.46385 0.54801
 H416 H 1.04966 0.44804 0.55982
 C417 C 0.36313 0.01818 0.24065
 C418 C 0.35291 0.00109 0.24453
 C419 C 0.36316 -0.01251 0.24868
 C420 C 0.38304 -0.00791 0.24827
 C421 C 0.37554 0.02183 0.25671
 C422 C 0.38590 0.00828 0.26078
 C423 C 0.37537 0.01279 0.22590
 C424 C 0.38604 -0.00061 0.22994
 H425 H 0.33866 -0.00011 0.24386
 H426 H 0.39149 -0.01892 0.25170
 H427 H 0.37591 0.03413 0.26431
 H428 H 0.37572 0.01879 0.21330
 C429 C 0.13616 -0.02735 0.74835
 C430 C 0.14732 -0.01040 0.75246
 C431 C 0.13789 0.00424 0.75512
 C432 C 0.11781 0.00044 0.75416
 C433 C 0.12416 -0.02872 0.76411
 C434 C 0.11442 -0.01438 0.76707
 C435 C 0.12387 -0.02289 0.73294
 C436 C 0.11414 -0.00845 0.73586
 H437 H 0.16157 -0.01007 0.75325
 H438 H 0.10992 0.01211 0.75680
 H439 H 0.12391 -0.03961 0.77286
 H440 H 0.12334 -0.03045 0.72064
 C441 C 0.63478 0.47156 0.25175
 C442 C 0.64631 0.48830 0.25529
 C443 C 0.63727 0.50306 0.25846
 C444 C 0.61715 0.49975 0.25779
 C445 C 0.62289 0.47044 0.26763
 C446 C 0.61387 0.48520 0.27100
 C447 C 0.62211 0.47605 0.23661
 C448 C 0.61273 0.49075 0.23960
 H449 H 0.66055 0.48842 0.25491
 H450 H 0.60984 0.51172 0.26081
 H451 H 0.62059 0.45865 0.27488
 H452 H 0.62097 0.46819 0.22452
 C453 C 0.86231 0.52020 0.74349
 C454 C 0.85191 0.50331 0.74750
 C455 C 0.86193 0.48927 0.75059
 C456 C 0.88182 0.49337 0.74924
 C457 C 0.87572 0.52316 0.75897
 C458 C 0.88578 0.50913 0.76206
 C459 C 0.87374 0.51511 0.72806
 C460 C 0.88413 0.50121 0.73100
 H461 H 0.83765 0.50260 0.74765
 H462 H 0.89015 0.48207 0.75192
 H463 H 0.87779 0.53545 0.76641
 H464 H 0.87411 0.52251 0.71619
 C465 C 0.24477 0.36523 0.02102
 C466 C 0.24870 0.35502 0.00412
 C467 C 0.25151 0.36519 -0.00993
 C468 C 0.25006 0.38500 -0.00584
 C469 C 0.26019 0.37885 0.02381
 C470 C 0.26304 0.38905 0.00976
 C471 C 0.22914 0.37642 0.01609
 C472 C 0.23185 0.38697 0.00220
 H473 H 0.24896 0.34079 0.00337
 H474 H 0.25260 0.39343 -0.01717
 H475 H 0.26768 0.38111 0.03603
 H476 H 0.21732 0.37653 0.02362
 C477 C 0.75041 0.13233 -0.02761
 C478 C 0.75366 0.14435 -0.01116
 C479 C 0.75647 0.13572 0.00398
 C480 C 0.75616 0.11559 0.00129
 C481 C 0.76669 0.12101 -0.02790
 C482 C 0.76980 0.11230 -0.01285
 C483 C 0.73531 0.11959 -0.02294
 C484 C 0.73806 0.11091 -0.00778
 H485 H 0.75408 0.15857 -0.01164
 H486 H 0.75861 0.10864 0.01363
 H487 H 0.77540 0.12009 -0.03875
 H488 H 0.72344 0.11767 -0.03114
 C489 C 0.24830 0.63329 0.47268
 C490 C 0.25391 0.64503 0.48877
 C491 C 0.25675 0.63625 0.50383
 C492 C 0.25437 0.61611 0.50124
 C493 C 0.26317 0.62029 0.47123
 C494 C 0.26628 0.61117 0.48604
 C495 C 0.23245 0.62214 0.47857
 C496 C 0.23550 0.61312 0.49345
 H497 H 0.25541 0.65921 0.48817
 H498 H 0.25686 0.60883 0.51338
 H499 H 0.27128 0.61881 0.45997
 H500 H 0.22007 0.62102 0.47109
 C501 C 0.74066 0.86745 0.51899
 C502 C 0.74185 0.85608 0.50216
 C503 C 0.74532 0.86524 0.48756
 C504 C 0.74731 0.88525 0.49105
 C505 C 0.75798 0.87850 0.52032
 C506 C 0.76174 0.88765 0.50572
 C507 C 0.72673 0.88080 0.51446
 C508 C 0.73010 0.89002 0.49985
 H509 H 0.74039 0.84185 0.50199
 H510 H 0.74988 0.89261 0.47902
 H511 H 0.76621 0.87934 0.53221
 H512 H 0.71542 0.88339 0.52217
 C513 C 0.01610 0.24132 0.36312
 C514 C -0.00137 0.24449 0.35335
 C515 C -0.01478 0.24845 0.36399
 C516 C -0.00965 0.24849 0.38370
 C517 C 0.01968 0.25771 0.37508
 C518 C 0.00632 0.26152 0.38584
 C519 C 0.01130 0.22658 0.37561
 C520 C -0.00186 0.23039 0.38668
 H521 H -0.00313 0.24321 0.33920
 H522 H -0.02050 0.25170 0.39249
 H523 H 0.03178 0.26572 0.37484
 H524 H 0.01737 0.21398 0.37543
 C525 C -0.02595 0.74905 0.13388
 C526 C -0.00902 0.75457 0.14433
 C527 C 0.00530 0.75748 0.13441
 C528 C 0.00134 0.75458 0.11455
 C529 C -0.02828 0.76345 0.12040
 C530 C -0.01402 0.76647 0.11044
 C531 C -0.02112 0.73296 0.12262
 C532 C -0.00692 0.73570 0.11235
 H533 H -0.00838 0.75542 0.15856
 H534 H 0.01281 0.75732 0.10631
 H535 H -0.04029 0.77032 0.11830
 H536 H -0.02858 0.72056 0.12275
 C537 C 0.47430 0.24795 0.63679
 C538 C 0.49175 0.25170 0.64709
 C539 C 0.50569 0.25567 0.63696
 C540 C 0.50095 0.25525 0.61711
 C541 C 0.47203 0.26409 0.62558
 C542 C 0.48586 0.26796 0.61531
 C543 C 0.47850 0.23303 0.62364
 C544 C 0.49225 0.23682 0.61310
 H545 H 0.49302 0.25082 0.66123
 H546 H 0.51222 0.25883 0.60889
 H547 H 0.46023 0.27161 0.62557
 H548 H 0.47234 0.22001 0.62371
 C549 C 0.51641 0.74117 0.86205
 C550 C 0.49880 0.74420 0.85250
 C551 C 0.48554 0.74834 0.86328
 C552 C 0.49098 0.74860 0.88293
 C553 C 0.52015 0.75771 0.87378
 C554 C 0.50695 0.76166 0.88469
 C555 C 0.51182 0.72660 0.87480
 C556 C 0.49884 0.73056 0.88602
 H557 H 0.49688 0.74279 0.83837
 H558 H 0.48028 0.75191 0.89187
 H559 H 0.53225 0.76567 0.87331
 H560 H 0.51790 0.71400 0.87471
 C561 C 0.11985 0.22490 0.28481
 C562 C 0.12063 0.23412 0.26917
 C563 C 0.13441 0.23176 0.25779
 C564 C 0.14777 0.22013 0.26176
 C565 C 0.14702 0.21096 0.27746
 C566 C 0.13320 0.21331 0.28885
 C567 C 0.10505 0.22728 0.29673
 C568 C 0.09703 0.21274 0.30466
 C569 C 0.08279 0.21494 0.31553
 C570 C 0.07627 0.23173 0.31869
 C571 C 0.08441 0.24629 0.31090
 C572 C 0.09864 0.24409 0.30004
 C573 C 0.06095 0.23402 0.32997
 C574 C 0.04777 0.24555 0.32531
 C575 C 0.03335 0.24773 0.33593
 C576 C 0.03150 0.23813 0.35129
 C577 C 0.04511 0.22707 0.35623
 C578 C 0.05952 0.22489 0.34559
 H579 H 0.11038 0.24293 0.26557
 H580 H 0.13438 0.23892 0.24576
 H581 H 0.15714 0.20204 0.28108
 H582 H 0.13307 0.20621 0.30093
 H583 H 0.10153 0.19959 0.30215
 H584 H 0.07664 0.20345 0.32118
 H585 H 0.07988 0.25943 0.31335
 H586 H 0.10474 0.25558 0.29434
 H587 H 0.04854 0.25285 0.31338
 H588 H 0.02371 0.25710 0.33214
 H589 H 0.04498 0.22036 0.36851
 H590 H 0.06979 0.21634 0.34980
 C591 C 0.61916 0.72481 0.78239
 C592 C 0.63240 0.71306 0.78631
 C593 C 0.64636 0.71094 0.77506
 C594 C 0.64738 0.72053 0.75964
 C595 C 0.63409 0.73224 0.75573
 C596 C 0.62014 0.73435 0.76697
 C597 C 0.60432 0.72710 0.79429
 C598 C 0.59806 0.74392 0.79789
 C599 C 0.58391 0.74607 0.80888
 C600 C 0.57572 0.73145 0.81651
 C601 C 0.58205 0.71464 0.81301
 C602 C 0.59620 0.71248 0.80202
 C603 C 0.56059 0.73372 0.82805
 C604 C 0.55930 0.72436 0.84355
 C605 C 0.54510 0.72656 0.85447
 C606 C 0.53158 0.73790 0.84995
 C607 C 0.53330 0.74769 0.83469
 C608 C 0.54749 0.74548 0.82378
 H609 H 0.63211 0.70569 0.79822
 H610 H 0.65643 0.70193 0.77860
 H611 H 0.63427 0.73968 0.74388
 H612 H 0.60997 0.74328 0.76344
 H613 H 0.60424 0.75546 0.79236
 H614 H 0.57953 0.75922 0.81158
 H615 H 0.57584 0.70311 0.81853
 H616 H 0.60058 0.69934 0.79929
 H617 H 0.56951 0.71563 0.84746
 H618 H 0.54509 0.71966 0.86663
 H619 H 0.52370 0.75723 0.83121
 H620 H 0.54815 0.75294 0.81195
 C621 C 0.37048 0.76632 0.79938
 C622 C 0.36529 0.75210 0.78787
 C623 C 0.35165 0.75367 0.77533
 C624 C 0.34287 0.76951 0.77396
 C625 C 0.34775 0.78356 0.78584
 C626 C 0.36139 0.78199 0.79837
 C627 C 0.38596 0.76512 0.81165
 C628 C 0.39832 0.77934 0.81391
 C629 C 0.41372 0.77775 0.82412
 C630 C 0.41716 0.76191 0.83231
 C631 C 0.40448 0.74793 0.83069
 C632 C 0.38905 0.74951 0.82044
 C633 C 0.43453 0.75951 0.84123
 C634 C 0.43593 0.75043 0.85697
 C635 C 0.45251 0.74721 0.86451
 C636 C 0.46792 0.75281 0.85631
 C637 C 0.46647 0.76233 0.84088
 C638 C 0.44999 0.76564 0.83344
 H639 H 0.37215 0.73991 0.78817
 H640 H 0.34822 0.74249 0.76658
 H641 H 0.34132 0.79596 0.78531
 H642 H 0.36492 0.79311 0.80720
 H643 H 0.39643 0.79149 0.80722
 H644 H 0.42316 0.78882 0.82530
 H645 H 0.40681 0.73553 0.83675
 H646 H 0.37966 0.73841 0.81914
 H647 H 0.42422 0.74571 0.86336
 H648 H 0.45324 0.73987 0.87640
 H649 H 0.47813 0.76713 0.83444
 H650 H 0.44939 0.77253 0.82124
 C651 C -0.12865 0.26593 0.29790
 C652 C -0.13263 0.25253 0.28512
 C653 C -0.14607 0.25432 0.27242
 C654 C -0.15594 0.26962 0.27213
 C655 C -0.15220 0.28280 0.28535
 C656 C -0.13872 0.28098 0.29800
 C657 C -0.11344 0.26458 0.31048
 C658 C -0.10185 0.27920 0.31417
 C659 C -0.08664 0.27759 0.32469
 C660 C -0.08270 0.26135 0.33181
 C661 C -0.09465 0.24691 0.32874
 C662 C -0.10984 0.24849 0.31814
 C663 C -0.06552 0.25913 0.34112
 C664 C -0.06429 0.24922 0.35634
 C665 C -0.04782 0.24620 0.36421
 C666 C -0.03233 0.25280 0.35682
 C667 C -0.03362 0.26307 0.34189
 C668 C -0.05001 0.26624 0.33416
 H669 H -0.12497 0.24084 0.28457
 H670 H -0.14839 0.24372 0.26273
 H671 H -0.15943 0.29473 0.28595
 H672 H -0.13612 0.29144 0.30785
 H673 H -0.10417 0.29173 0.30836
 H674 H -0.07775 0.28899 0.32698
 H675 H -0.09189 0.23420 0.33394
 H676 H -0.11863 0.23705 0.31570
 H677 H -0.07606 0.24368 0.36203
 H678 H -0.04718 0.23820 0.37566
 H679 H -0.02188 0.26853 0.33606
 H680 H -0.05050 0.27378 0.32236
 C681 C -0.12505 0.72748 0.21792
 C682 C -0.12491 0.73592 0.23462
 C683 C -0.13923 0.73374 0.24550
 C684 C -0.15400 0.72301 0.23998
 C685 C -0.15403 0.71438 0.22339
 C686 C -0.13975 0.71661 0.21247
 C687 C -0.11013 0.73033 0.20606
 C688 C -0.10422 0.71642 0.19549
 C689 C -0.09052 0.71928 0.18398
 C690 C -0.08242 0.73612 0.18277
 C691 C -0.08818 0.74997 0.19351
 C692 C -0.10188 0.74712 0.20499
 C693 C -0.06822 0.73933 0.17016
 C694 C -0.06747 0.75489 0.16076
 C695 C -0.05408 0.75809 0.14903
 C696 C -0.04122 0.74559 0.14601
 C697 C -0.04180 0.73019 0.15579
 C698 C -0.05519 0.72702 0.16758
 H699 H -0.11367 0.74414 0.23933
 H700 H -0.13862 0.74039 0.25829
 H701 H -0.16525 0.70617 0.21861
 H702 H -0.14040 0.71015 0.19958
 H703 H -0.11015 0.70329 0.19616
 H704 H -0.08648 0.70837 0.17579
 H705 H -0.08205 0.76304 0.19310
 H706 H -0.10622 0.75816 0.21281
 H707 H -0.07730 0.76466 0.16246
 H708 H -0.05379 0.77059 0.14276
 H709 H -0.03171 0.72064 0.15447
 H710 H -0.05512 0.71510 0.17496
 C711 C 0.36989 0.23195 0.71555
 C712 C 0.36756 0.24401 0.72952
 C713 C 0.35312 0.24212 0.74030
 C714 C 0.34059 0.22804 0.73745
 C715 C 0.34307 0.21593 0.72341
 C716 C 0.35750 0.21789 0.71262
 C717 C 0.38517 0.23408 0.70402
 C718 C 0.38305 0.23118 0.68575
 C719 C 0.39738 0.23333 0.67488
 C720 C 0.41419 0.23837 0.68203
 C721 C 0.41631 0.24123 0.70031
 C722 C 0.40196 0.23911 0.71118
 C723 C 0.42944 0.24066 0.67048
 C724 C 0.44189 0.25465 0.67359
 C725 C 0.45620 0.25679 0.66269
 C726 C 0.45864 0.24488 0.64852
 C727 C 0.44585 0.23112 0.64519
 C728 C 0.43155 0.22898 0.65611
 H729 H 0.37678 0.25512 0.73198
 H730 H 0.35195 0.25183 0.75082
 H731 H 0.33396 0.20485 0.72058
 H732 H 0.35906 0.20824 0.70208
 H733 H 0.37022 0.22756 0.67981
 H734 H 0.39524 0.23131 0.66083
 H735 H 0.42913 0.24485 0.70626
 H736 H 0.40407 0.24117 0.72523
 H737 H 0.44041 0.26414 0.68428
 H738 H 0.46539 0.26789 0.66530
 H739 H 0.44646 0.22208 0.63406
 H740 H 0.42217 0.21807 0.65334
 C741 C 0.62240 0.27225 0.70273
 C742 C 0.63385 0.28719 0.70281
 C743 C 0.64847 0.28883 0.71445
 C744 C 0.65199 0.27559 0.72647
 C745 C 0.64058 0.26047 0.72608
 C746 C 0.62603 0.25884 0.71436
 C747 C 0.60636 0.27091 0.69102
 C748 C 0.60109 0.25490 0.68231
 C749 C 0.58541 0.25340 0.67216
 C750 C 0.57460 0.26786 0.67060
 C751 C 0.58009 0.28399 0.67897
 C752 C 0.59581 0.28551 0.68903
 C753 C 0.55721 0.26583 0.66116
 C754 C 0.54228 0.27296 0.66858
 C755 C 0.52565 0.27000 0.66047
 C756 C 0.52355 0.25991 0.64471
 C757 C 0.53852 0.25327 0.63697
 C758 C 0.55519 0.25611 0.64516
 H759 H 0.63151 0.29765 0.69383
 H760 H 0.65679 0.30066 0.71402
 H761 H 0.64264 0.24984 0.73488
 H762 H 0.61733 0.24723 0.71473
 H763 H 0.60905 0.24348 0.68346
 H764 H 0.58146 0.24077 0.66599
 H765 H 0.57210 0.29539 0.67787
 H766 H 0.59944 0.29799 0.69570
 H767 H 0.54338 0.28037 0.68098
 H768 H 0.51436 0.27546 0.66664
 H769 H 0.53730 0.24534 0.62495
 H770 H 0.56648 0.25058 0.63906
 C771 C 0.12064 0.77452 0.20274
 C772 C 0.13185 0.78969 0.20333
 C773 C 0.14648 0.79114 0.21496
 C774 C 0.15027 0.77748 0.22631
 C775 C 0.13916 0.76221 0.22553
 C776 C 0.12454 0.76075 0.21389
 C777 C 0.10468 0.77323 0.19089
 C778 C 0.09959 0.75729 0.18195
 C779 C 0.08411 0.75585 0.17150
 C780 C 0.07334 0.77033 0.16976
 C781 C 0.07863 0.78639 0.17839
 C782 C 0.09413 0.78783 0.18882
 C783 C 0.05623 0.76838 0.15976
 C784 C 0.04114 0.77589 0.16644
 C785 C 0.02472 0.77284 0.15787
 C786 C 0.02299 0.76220 0.14242
 C787 C 0.03816 0.75529 0.13536
 C788 C 0.05461 0.75829 0.14395
 H789 H 0.12932 0.80044 0.19476
 H790 H 0.15465 0.80312 0.21511
 H791 H 0.14165 0.75135 0.23395
 H792 H 0.11604 0.74898 0.21391
 H793 H 0.10755 0.74587 0.18310
 H794 H 0.08031 0.74325 0.16518
 H795 H 0.07071 0.79782 0.17718
 H796 H 0.09760 0.80025 0.19566
 H797 H 0.04189 0.78363 0.17864
 H798 H 0.01332 0.77862 0.16351
 H799 H 0.03730 0.74698 0.12359
 H800 H 0.06603 0.75252 0.13835
 C801 C 0.28132 0.11895 0.22519
 C802 C 0.28182 0.12874 0.20991
 C803 C 0.27044 0.14246 0.20749
 C804 C 0.25829 0.14675 0.22032
 C805 C 0.25781 0.13693 0.23563
 C806 C 0.26919 0.12318 0.23802
 C807 C 0.29339 0.10436 0.22768
 C808 C 0.28728 0.08843 0.23461
 C809 C 0.29860 0.07459 0.23669
 C810 C 0.31626 0.07639 0.23189
 C811 C 0.32239 0.09236 0.22508
 C812 C 0.31107 0.10619 0.22299
 C813 C 0.32823 0.06163 0.23390
 C814 C 0.34020 0.05766 0.22085
 C815 C 0.35149 0.04376 0.22270
 C816 C 0.35104 0.03339 0.23768
 C817 C 0.33910 0.03758 0.25079
 C818 C 0.32781 0.05146 0.24891
 H819 H 0.29086 0.12561 0.19967
 H820 H 0.27114 0.14953 0.19545
 H821 H 0.24878 0.13989 0.24588
 H822 H 0.26866 0.11600 0.25004
 H823 H 0.27366 0.08656 0.23810
 H824 H 0.29345 0.06236 0.24175
 H825 H 0.33601 0.09424 0.22157
 H826 H 0.31621 0.11842 0.21790
 H827 H 0.34072 0.06521 0.20907
 H828 H 0.36050 0.04151 0.21233
 H829 H 0.33857 0.03008 0.26261
 H830 H 0.31893 0.05438 0.25934
 C831 C 0.77820 0.61771 0.72063
 C832 C 0.78392 0.63230 0.71116
 C833 C 0.77306 0.64649 0.70889
 C834 C 0.75629 0.64644 0.71612
 C835 C 0.75050 0.63177 0.72542
 C836 C 0.76132 0.61755 0.72760
 C837 C 0.78999 0.60293 0.72359
 C838 C 0.79070 0.59492 0.73993
 C839 C 0.80216 0.58138 0.74295
 C840 C 0.81324 0.57560 0.72973
 C841 C 0.81239 0.58346 0.71331
 C842 C 0.80087 0.59697 0.71026
 C843 C 0.82585 0.56163 0.73319
 C844 C 0.82881 0.54855 0.72032
 C845 C 0.84066 0.53541 0.72369
 C846 C 0.85011 0.53517 0.73989
 C847 C 0.84667 0.54804 0.75291
 C848 C 0.83489 0.56120 0.74951
 H849 H 0.79696 0.63296 0.70586
 H850 H 0.77802 0.65764 0.70181
 H851 H 0.73756 0.63118 0.73092
 H852 H 0.75640 0.60636 0.73469
 H853 H 0.78264 0.59933 0.75053
 H854 H 0.80230 0.57541 0.75565
 H855 H 0.82086 0.57939 0.70291
 H856 H 0.80047 0.60273 0.69746
 H857 H 0.82169 0.54824 0.70777
 H858 H 0.84229 0.52526 0.71365
 H859 H 0.85266 0.54793 0.76594
 H860 H 0.83289 0.57109 0.75972
 C861 C 0.79304 0.37535 0.76559
 C862 C 0.77909 0.37152 0.75335
 C863 C 0.76757 0.35702 0.75530
 C864 C 0.76965 0.34599 0.76960
 C865 C 0.78395 0.34952 0.78158
 C866 C 0.79554 0.36404 0.77958
 C867 C 0.80434 0.39158 0.76417
 C868 C 0.82272 0.39144 0.76696
 C869 C 0.83316 0.40692 0.76562
 C870 C 0.82536 0.42283 0.76171
 C871 C 0.80700 0.42289 0.75892
 C872 C 0.79663 0.40747 0.76012
 C873 C 0.83608 0.43944 0.76050
 C874 C 0.83009 0.45513 0.76796
 C875 C 0.83894 0.47117 0.76530
 C876 C 0.85398 0.47195 0.75508
 C877 C 0.86060 0.45619 0.74843
 C878 C 0.85170 0.44004 0.75111
 H879 H 0.77704 0.37984 0.74226
 H880 H 0.75696 0.35462 0.74561
 H881 H 0.78601 0.34138 0.79277
 H882 H 0.80610 0.36676 0.78929
 H883 H 0.82900 0.37933 0.77000
 H884 H 0.84727 0.40652 0.76788
 H885 H 0.80065 0.43490 0.75565
 H886 H 0.78250 0.40804 0.75811
 H887 H 0.81834 0.45501 0.77563
 H888 H 0.83381 0.48304 0.77104
 H889 H 0.87213 0.45640 0.74048
 H890 H 0.85659 0.42814 0.74519
 C891 C 0.29386 -0.12581 0.26477
 C892 C 0.27930 -0.12885 0.25312
 C893 C 0.26753 -0.14315 0.25506
 C894 C 0.26997 -0.15492 0.26876
 C895 C 0.28502 -0.15221 0.28001
 C896 C 0.29680 -0.13782 0.27804
 C897 C 0.30533 -0.10967 0.26350
 C898 C 0.32375 -0.11008 0.26570
 C899 C 0.33432 -0.09467 0.26440
 C900 C 0.32663 -0.07857 0.26106
 C901 C 0.30822 -0.07824 0.25889
 C902 C 0.29772 -0.09356 0.26012
 C903 C 0.33750 -0.06205 0.25967
 C904 C 0.33166 -0.04624 0.26701
 C905 C 0.34048 -0.03028 0.26399
 C906 C 0.35540 -0.02972 0.25361
 C907 C 0.36196 -0.04557 0.24716
 C908 C 0.35304 -0.06164 0.25013
 H909 H 0.27690 -0.12004 0.24250
 H910 H 0.25647 -0.14469 0.24580
 H911 H 0.28764 -0.16086 0.29067
 H912 H 0.30788 -0.13577 0.28728
 H913 H 0.32998 -0.12234 0.26822
 H914 H 0.34847 -0.09530 0.26620
 H915 H 0.30190 -0.06611 0.25603
 H916 H 0.28356 -0.09274 0.25861
 H917 H 0.32001 -0.04618 0.27482
 H918 H 0.33541 -0.01828 0.26951
 H919 H 0.37342 -0.04548 0.23912
 H920 H 0.35782 -0.07363 0.24428
 C921 C 0.21426 -0.13037 0.72666
 C922 C 0.21096 -0.14325 0.71322
 C923 C 0.22219 -0.15721 0.71111
 C924 C 0.23705 -0.15874 0.72247
 C925 C 0.24019 -0.14580 0.73602
 C926 C 0.22897 -0.13183 0.73805
 C927 C 0.20244 -0.11543 0.72881
 C928 C 0.20949 -0.09832 0.73266
 C929 C 0.19839 -0.08428 0.73494
 C930 C 0.18000 -0.08704 0.73350
 C931 C 0.17295 -0.10414 0.72955
 C932 C 0.18406 -0.11817 0.72718
 C933 C 0.16827 -0.07218 0.73653
 C934 C 0.15313 -0.07440 0.74642
 C935 C 0.14255 -0.06021 0.75003
 C936 C 0.14703 -0.04329 0.74409
 C937 C 0.16165 -0.04142 0.73330
 C938 C 0.17226 -0.05560 0.72977
 H939 H 0.19980 -0.14238 0.70413
 H940 H 0.21909 -0.16671 0.70049
 H941 H 0.25130 -0.14627 0.74518
 H942 H 0.23172 -0.12224 0.74871
 H943 H 0.22360 -0.09576 0.73381
 H944 H 0.20421 -0.07129 0.73816
 H945 H 0.15884 -0.10664 0.72820
 H946 H 0.17824 -0.13123 0.72436
 H947 H 0.14961 -0.08708 0.75167
 H948 H 0.13086 -0.06272 0.75737
 H949 H 0.16502 -0.02887 0.72771
 H950 H 0.18356 -0.05361 0.72165
 C951 C 0.71669 0.37182 0.22799
 C952 C 0.73393 0.37267 0.23533
 C953 C 0.74508 0.35872 0.23280
 C954 C 0.73930 0.34360 0.22280
 C955 C 0.72213 0.34282 0.21530
 C956 C 0.71095 0.35675 0.21789
 C957 C 0.70466 0.38645 0.23112
 C958 C 0.69309 0.39172 0.21769
 C959 C 0.68157 0.40527 0.22079
 C960 C 0.68134 0.41385 0.23740
 C961 C 0.69301 0.40866 0.25078
 C962 C 0.70449 0.39512 0.24768
 C963 C 0.66898 0.42812 0.24085
 C964 C 0.66071 0.42949 0.25702
 C965 C 0.64954 0.44319 0.26057
 C966 C 0.64596 0.45575 0.24787
 C967 C 0.65444 0.45441 0.23174
 C968 C 0.66568 0.44072 0.22822
 H969 H 0.73887 0.38422 0.24292
 H970 H 0.75829 0.35990 0.23856
 H971 H 0.71716 0.33132 0.20768
 H972 H 0.69767 0.35555 0.21228
 H973 H 0.69303 0.38545 0.20472
 H974 H 0.67266 0.40886 0.21026
 H975 H 0.69336 0.41516 0.26365
 H976 H 0.71308 0.39126 0.25837
 H977 H 0.66294 0.41997 0.26702
 H978 H 0.64423 0.44399 0.27352
 H979 H 0.65261 0.46420 0.22192
 H980 H 0.67215 0.44029 0.21578
 C981 C 0.70708 0.61871 0.27131
 C982 C 0.70401 0.63155 0.28439
 C983 C 0.71473 0.64692 0.28618
 C984 C 0.72879 0.64984 0.27492
 C985 C 0.73163 0.63709 0.26163
 C986 C 0.72092 0.62172 0.25987
 C987 C 0.69621 0.60202 0.26991
 C988 C 0.70418 0.58594 0.26670
 C989 C 0.69410 0.57017 0.26561
 C990 C 0.67579 0.57008 0.26770
 C991 C 0.66778 0.58616 0.27082
 C992 C 0.67789 0.60197 0.27196
 C993 C 0.66520 0.55322 0.26644
 C994 C 0.64882 0.55197 0.25726
 C995 C 0.63948 0.53577 0.25509
 C996 C 0.64632 0.52051 0.26202
 C997 C 0.66239 0.52189 0.27172
 C998 C 0.67171 0.53804 0.27391
 H999 H 0.69356 0.62953 0.29352
 H1000 H 0.71204 0.65635 0.29657
 H1001 H 0.74217 0.63883 0.25258
 H1002 H 0.72344 0.61219 0.24948
 H1003 H 0.71828 0.58552 0.26526
 H1004 H 0.70063 0.55803 0.26294
 H1005 H 0.65372 0.58650 0.27258
 H1006 H 0.67136 0.61417 0.27429
 H1007 H 0.64353 0.56340 0.25121
 H1008 H 0.62729 0.53512 0.24740
 H1009 H 0.66783 0.51042 0.27756
 H1010 H 0.68409 0.53865 0.28139
 C1011 C 0.20530 0.12118 0.77110
 C1012 C 0.20027 0.13529 0.78191
 C1013 C 0.21074 0.15086 0.78356
 C1014 C 0.22644 0.15270 0.77438
 C1015 C 0.23128 0.13866 0.76334
 C1016 C 0.22085 0.12311 0.76173
 C1017 C 0.19461 0.10436 0.76970
 C1018 C 0.20297 0.08824 0.76939
 C1019 C 0.19314 0.07238 0.76735
 C1020 C 0.17467 0.07221 0.76553
 C1021 C 0.16622 0.08830 0.76632
 C1022 C 0.17610 0.10423 0.76839
 C1023 C 0.16449 0.05525 0.76231
 C1024 C 0.14858 0.05164 0.77069
 C1025 C 0.13966 0.03520 0.76814
 C1026 C 0.14654 0.02208 0.75725
 C1027 C 0.16208 0.02601 0.74839
 C1028 C 0.17093 0.04234 0.75090
 H1029 H 0.18842 0.13416 0.78937
 H1030 H 0.20648 0.16142 0.79207
 H1031 H 0.24324 0.13949 0.75606
 H1032 H 0.22494 0.11258 0.75307
 H1033 H 0.21718 0.08787 0.77080
 H1034 H 0.20001 0.06018 0.76721
 H1035 H 0.15202 0.08859 0.76484
 H1036 H 0.16930 0.11646 0.76847
 H1037 H 0.14330 0.06134 0.77957
 H1038 H 0.12770 0.03262 0.77508
 H1039 H 0.16743 0.01646 0.73941
 H1040 H 0.18285 0.04489 0.74385
 C1041 C 0.22212 0.28013 0.11824
 C1042 C 0.22902 0.26327 0.11783
 C1043 C 0.22658 0.25206 0.13177
 C1044 C 0.21712 0.25743 0.14640
 C1045 C 0.21005 0.27422 0.14673
 C1046 C 0.21255 0.28545 0.13282
 C1047 C 0.22517 0.29224 0.10369
 C1048 C 0.21177 0.30299 0.09771
 C1049 C 0.21482 0.31467 0.08427
 C1050 C 0.23134 0.31585 0.07653
 C1051 C 0.24466 0.30497 0.08239
 C1052 C 0.24163 0.29332 0.09583
 C1053 C 0.23474 0.32854 0.06255
 C1054 C 0.25096 0.33800 0.06224
 C1055 C 0.25430 0.34986 0.04905
 C1056 C 0.24131 0.35289 0.03600
 C1057 C 0.22523 0.34303 0.03613
 C1058 C 0.22192 0.33113 0.04931
 H1059 H 0.23620 0.25867 0.10664
 H1060 H 0.23198 0.23913 0.13096
 H1061 H 0.20288 0.27886 0.15788
 H1062 H 0.20732 0.29847 0.13366
 H1063 H 0.19889 0.30231 0.10337
 H1064 H 0.20435 0.32299 0.08014
 H1065 H 0.25745 0.30540 0.07652
 H1066 H 0.25227 0.28535 0.10027
 H1067 H 0.26112 0.33627 0.07225
 H1068 H 0.26724 0.35623 0.04906
 H1069 H 0.21523 0.34440 0.02588
 H1070 H 0.20946 0.32370 0.04894
 C1071 C 0.72593 0.78750 0.62186
 C1072 C 0.73900 0.77567 0.62609
 C1073 C 0.73680 0.76418 0.63985
 C1074 C 0.72149 0.76430 0.64971
 C1075 C 0.70850 0.77629 0.64555
 C1076 C 0.71070 0.78774 0.63178
 C1077 C 0.72808 0.79946 0.60704
 C1078 C 0.71378 0.80230 0.59547
 C1079 C 0.71576 0.81351 0.58147
 C1080 C 0.73209 0.82214 0.57874
 C1081 C 0.74640 0.81930 0.59031
 C1082 C 0.74441 0.80807 0.60431
 C1083 C 0.73420 0.83396 0.56380
 C1084 C 0.74940 0.83367 0.55385
 C1085 C 0.75125 0.84461 0.53963
 C1086 C 0.73802 0.85619 0.53497
 C1087 C 0.72277 0.85641 0.54500
 C1088 C 0.72094 0.84546 0.55924
 H1089 H 0.75082 0.77509 0.61856
 H1090 H 0.74714 0.75525 0.64273
 H1091 H 0.69650 0.77676 0.65276
 H1092 H 0.70051 0.79687 0.62896
 H1093 H 0.70111 0.79561 0.59708
 H1094 H 0.70459 0.81519 0.57259
 H1095 H 0.75907 0.82596 0.58867
 H1096 H 0.75559 0.80632 0.61316
 H1097 H 0.75973 0.82475 0.55686
 H1098 H 0.76305 0.84393 0.53208
 H1099 H 0.71203 0.86474 0.54203
 H1100 H 0.70914 0.84606 0.56679
 C1101 C 0.76459 0.79263 0.37741
 C1102 C 0.75333 0.77768 0.37431
 C1103 C 0.75555 0.76629 0.35991
 C1104 C 0.76910 0.76953 0.34817
 C1105 C 0.78023 0.78466 0.35111
 C1106 C 0.77797 0.79611 0.36556
 C1107 C 0.76245 0.80424 0.39317
 C1108 C 0.76372 0.82268 0.39219
 C1109 C 0.76085 0.83345 0.40700
 C1110 C 0.75666 0.82597 0.42305
 C1111 C 0.75587 0.80755 0.42408
 C1112 C 0.75872 0.79683 0.40934
 C1113 C 0.75290 0.83713 0.43873
 C1114 C 0.73921 0.83204 0.44967
 C1115 C 0.73644 0.84152 0.46522
 C1116 C 0.74724 0.85638 0.47019
 C1117 C 0.76042 0.86202 0.45891
 C1118 C 0.76325 0.85245 0.44330
 H1119 H 0.74271 0.77480 0.38304
 H1120 H 0.74666 0.75486 0.35820
 H1121 H 0.79075 0.78770 0.34235
 H1122 H 0.78692 0.80748 0.36767
 H1123 H 0.76647 0.82875 0.37987
 H1124 H 0.76146 0.84760 0.40580
 H1125 H 0.75312 0.80139 0.43636
 H1126 H 0.75808 0.78269 0.41062
 H1127 H 0.73072 0.82057 0.44628
 H1128 H 0.72591 0.83712 0.47347
 H1129 H 0.76900 0.87337 0.46251
 H1130 H 0.77395 0.85664 0.43516
 C1131 C 0.26307 0.29633 -0.12364
 C1132 C 0.27545 0.30018 -0.13639
 C1133 C 0.27693 0.28892 -0.15111
 C1134 C 0.26603 0.27356 -0.15344
 C1135 C 0.25334 0.27000 -0.14087
 C1136 C 0.25189 0.28123 -0.12617
 C1137 C 0.26220 0.30759 -0.10742
 C1138 C 0.26019 0.29981 -0.09111
 C1139 C 0.25952 0.31020 -0.07575
 C1140 C 0.26087 0.32866 -0.07627
 C1141 C 0.26280 0.33650 -0.09258
 C1142 C 0.26354 0.32605 -0.10801
 C1143 C 0.26009 0.33947 -0.05975
 C1144 C 0.25002 0.35457 -0.05891
 C1145 C 0.24783 0.36350 -0.04280
 C1146 C 0.25561 0.35742 -0.02731
 C1147 C 0.26645 0.34294 -0.02834
 C1148 C 0.26869 0.33409 -0.04436
 H1149 H 0.28434 0.31165 -0.13474
 H1150 H 0.28676 0.29225 -0.16052
 H1151 H 0.24465 0.25839 -0.14214
 H1152 H 0.24203 0.27805 -0.11671
 H1153 H 0.25935 0.28563 -0.09018
 H1154 H 0.25775 0.30376 -0.06343
 H1155 H 0.26394 0.35068 -0.09337
 H1156 H 0.26498 0.33241 -0.12041
 H1157 H 0.24320 0.35899 -0.07055
 H1158 H 0.23937 0.37459 -0.04235
 H1159 H 0.27297 0.33824 -0.01665
 H1160 H 0.27691 0.32280 -0.04466
 C1161 C 0.72702 0.21001 -0.13073
 C1162 C 0.73637 0.22633 -0.13045
 C1163 C 0.73465 0.23760 -0.14445
 C1164 C 0.72347 0.23286 -0.15905
 C1165 C 0.71407 0.21653 -0.15929
 C1166 C 0.71587 0.20521 -0.14531
 C1167 C 0.72905 0.19799 -0.11590
 C1168 C 0.73076 0.17985 -0.11907
 C1169 C 0.73334 0.16866 -0.10512
 C1170 C 0.73417 0.17535 -0.08768
 C1171 C 0.73213 0.19345 -0.08450
 C1172 C 0.72964 0.20465 -0.09845
 C1173 C 0.73770 0.16365 -0.07288
 C1174 C 0.72861 0.16539 -0.05722
 C1175 C 0.73258 0.15493 -0.04301
 C1176 C 0.74596 0.14267 -0.04391
 C1177 C 0.75456 0.14053 -0.05991
 C1178 C 0.75051 0.15094 -0.07415
 H1179 H 0.74524 0.23029 -0.11948
 H1180 H 0.74201 0.25009 -0.14371
 H1181 H 0.70543 0.21237 -0.17034
 H1182 H 0.70839 0.19277 -0.14583
 H1183 H 0.73048 0.17436 -0.13238
 H1184 H 0.73469 0.15474 -0.10795
 H1185 H 0.73286 0.19902 -0.07122
 H1186 H 0.72816 0.21854 -0.09560
 H1187 H 0.71841 0.17483 -0.05596
 H1188 H 0.72534 0.15661 -0.03110
 H1189 H 0.76443 0.13093 -0.06177
 H1190 H 0.75772 0.14929 -0.08608
 C1191 C 0.22515 0.71237 0.37049
 C1192 C 0.21296 0.70826 0.35655
 C1193 C 0.21123 0.71956 0.34255
 C1194 C 0.22170 0.73521 0.34211
 C1195 C 0.23388 0.73930 0.35608
 C1196 C 0.23556 0.72803 0.37010
 C1197 C 0.22715 0.70029 0.38528
 C1198 C 0.22938 0.70700 0.40266
 C1199 C 0.23179 0.69568 0.41653
 C1200 C 0.23209 0.67739 0.41335
 C1201 C 0.22962 0.67066 0.39600
 C1202 C 0.22714 0.68198 0.38213
 C1203 C 0.23551 0.66547 0.42803
 C1204 C 0.24686 0.65150 0.42595
 C1205 C 0.25088 0.64083 0.44000
 C1206 C 0.24374 0.64396 0.45662
 C1207 C 0.23178 0.65753 0.45837
 C1208 C 0.22782 0.66822 0.44434
 H1209 H 0.20462 0.69638 0.35656
 H1210 H 0.20177 0.71589 0.33202
 H1211 H 0.24211 0.75125 0.35631
 H1212 H 0.24523 0.73146 0.38054
 H1213 H 0.22923 0.72103 0.40553
 H1214 H 0.23380 0.70128 0.42973
 H1215 H 0.22959 0.65662 0.39316
 H1216 H 0.22559 0.67642 0.36887
 H1217 H 0.25298 0.64904 0.41352
 H1218 H 0.25955 0.63024 0.43753
 H1219 H 0.22565 0.66003 0.47080
 H1220 H 0.21871 0.67864 0.44624
 C1221 C 0.27648 0.70585 0.61837
 C1222 C 0.28578 0.70056 0.63340
 C1223 C 0.28681 0.71128 0.64874
 C1224 C 0.27846 0.72745 0.64939
 C1225 C 0.26901 0.73258 0.63437
 C1226 C 0.26804 0.72193 0.61909
 C1227 C 0.27549 0.69480 0.60189
 C1228 C 0.27687 0.70273 0.58558
 C1229 C 0.27465 0.69269 0.56996
 C1230 C 0.27101 0.67445 0.57023
 C1231 C 0.27032 0.66635 0.58653
 C1232 C 0.27253 0.67644 0.60222
 C1233 C 0.26717 0.66421 0.55352
 C1234 C 0.27405 0.64755 0.55048
 C1235 C 0.27062 0.63834 0.53441
 C1236 C 0.26024 0.64561 0.52110
 C1237 C 0.25299 0.66206 0.52443
 C1238 C 0.25645 0.67124 0.54037
 H1239 H 0.29248 0.68827 0.63322
 H1240 H 0.29410 0.70684 0.66007
 H1241 H 0.26248 0.74494 0.63425
 H1242 H 0.26053 0.72624 0.60781
 H1243 H 0.27956 0.71678 0.58489
 H1244 H 0.27565 0.69924 0.55760
 H1245 H 0.26743 0.65233 0.58713
 H1246 H 0.27130 0.66997 0.61460
 H1247 H 0.28239 0.64183 0.56037
 H1248 H 0.27640 0.62573 0.53232
 H1249 H 0.24442 0.66784 0.51478
 H1250 H 0.25056 0.68383 0.54250
 C1251 C 0.77493 0.20645 0.11803
 C1252 C 0.78586 0.20193 0.13227
 C1253 C 0.78734 0.21269 0.14756
 C1254 C 0.77788 0.22817 0.14898
 C1255 C 0.76678 0.23248 0.13477
 C1256 C 0.76532 0.22177 0.11953
 C1257 C 0.77355 0.19539 0.10155
 C1258 C 0.77285 0.20338 0.08519
 C1259 C 0.77056 0.19319 0.06966
 C1260 C 0.76891 0.17474 0.07007
 C1261 C 0.77017 0.16668 0.08638
 C1262 C 0.77245 0.17691 0.10197
 C1263 C 0.76533 0.16416 0.05352
 C1264 C 0.77386 0.14839 0.05017
 C1265 C 0.77084 0.13895 0.03418
 C1266 C 0.75922 0.14512 0.02127
 C1267 C 0.75034 0.16060 0.02486
 C1268 C 0.75337 0.17000 0.04077
 H1269 H 0.79351 0.19025 0.13146
 H1270 H 0.79594 0.20883 0.15822
 H1271 H 0.75925 0.24423 0.13524
 H1272 H 0.75654 0.22545 0.10892
 H1273 H 0.77406 0.21756 0.08438
 H1274 H 0.77005 0.19977 0.05728
 H1275 H 0.76884 0.15250 0.08711
 H1276 H 0.77283 0.17039 0.11438
 H1277 H 0.78321 0.14361 0.05973
 H1278 H 0.77796 0.12713 0.03173
 H1279 H 0.74094 0.16545 0.01540
 H1280 H 0.74625 0.18185 0.04313
 C1281 C 0.47443 0.36792 0.53188
 C1282 C 0.48896 0.37745 0.52542
 C1283 C 0.48648 0.39126 0.51401
 C1284 C 0.46943 0.39602 0.50900
 C1285 C 0.45491 0.38653 0.51539
 C1286 C 0.45737 0.37257 0.52657
 C1287 C 0.47698 0.35336 0.54424
 C1288 C 0.46508 0.35043 0.55769
 C1289 C 0.46729 0.33674 0.56922
 C1290 C 0.48163 0.32571 0.56786
 C1291 C 0.49361 0.32867 0.55447
 C1292 C 0.49127 0.34227 0.54277
 C1293 C 0.48387 0.31116 0.58029
 C1294 C 0.49051 0.29495 0.57470
 C1295 C 0.49169 0.28106 0.58624
 C1296 C 0.48600 0.28300 0.60350
 C1297 C 0.47981 0.29925 0.60925
 C1298 C 0.47890 0.31320 0.59785
 H1299 H 0.50227 0.37449 0.52942
 H1300 H 0.49793 0.39844 0.50944
 H1301 H 0.44161 0.38969 0.51155
 H1302 H 0.44586 0.36531 0.53090
 H1303 H 0.45407 0.35882 0.55946
 H1304 H 0.45758 0.33471 0.57910
 H1305 H 0.50491 0.32059 0.55310
 H1306 H 0.50059 0.34394 0.53246
 H1307 H 0.49429 0.29279 0.56125
 H1308 H 0.49641 0.26859 0.58148
 H1309 H 0.47566 0.30117 0.62262
 H1310 H 0.47424 0.32560 0.60282
 C1311 C -0.02035 0.86917 0.03034
 C1312 C -0.01233 0.87009 0.01401
 C1313 C -0.01434 0.88474 0.00360
 C1314 C -0.02449 0.89877 0.00923
 C1315 C -0.03232 0.89794 0.02564
 C1316 C -0.03023 0.88336 0.03608
 C1317 C -0.01877 0.85337 0.04122
 C1318 C -0.03324 0.84699 0.05049
 C1319 C -0.03187 0.83226 0.06082
 C1320 C -0.01602 0.82339 0.06207
 C1321 C -0.00153 0.82972 0.05277
 C1322 C -0.00289 0.84454 0.04245
 C1323 C -0.01474 0.80780 0.07328
 C1324 C 0.00056 0.80517 0.08363
 C1325 C 0.00107 0.79129 0.09524
 C1326 C -0.01374 0.77989 0.09682
 C1327 C -0.02873 0.78206 0.08598
 C1328 C -0.02919 0.79578 0.07429
 H1329 H -0.00483 0.85930 0.00907
 H1330 H -0.00824 0.88486 -0.00903
 H1331 H -0.03998 0.90861 0.03055
 H1332 H -0.03629 0.88327 0.04874
 H1333 H -0.04574 0.85330 0.04966
 H1334 H -0.04321 0.82796 0.06802
 H1335 H 0.01082 0.82313 0.05335
 H1336 H 0.00856 0.84920 0.03562
 H1337 H 0.01188 0.81424 0.08327
 H1338 H 0.01274 0.78993 0.10354
 H1339 H -0.04019 0.77320 0.08666
 H1340 H -0.04099 0.79710 0.06617
 C1341 C 0.03218 0.64091 0.02723
 C1342 C 0.04220 0.62707 0.03336
 C1343 C 0.04609 0.61296 0.02207
 C1344 C 0.03988 0.61231 0.00449
 C1345 C 0.03030 0.62635 -0.00175
 C1346 C 0.02659 0.64052 0.00945
 C1347 C 0.02694 0.65535 0.03941
 C1348 C 0.01015 0.66232 0.03760
 C1349 C 0.00496 0.67563 0.04912
 C1350 C 0.01634 0.68222 0.06292
 C1351 C 0.03318 0.67534 0.06471
 C1352 C 0.03843 0.66208 0.05308
 C1353 C 0.01047 0.69598 0.07552
 C1354 C 0.02219 0.70955 0.08215
 C1355 C 0.01658 0.72242 0.09401
 C1356 C -0.00089 0.72207 0.09960
 C1357 C -0.01264 0.70858 0.09273
 C1358 C -0.00701 0.69568 0.08098
 H1359 H 0.04656 0.62683 0.04701
 H1360 H 0.05342 0.60228 0.02728
 H1361 H 0.02563 0.62641 -0.01531
 H1362 H 0.01926 0.65115 0.00415
 H1363 H 0.00083 0.65729 0.02742
 H1364 H -0.00799 0.68078 0.04717
 H1365 H 0.04221 0.67999 0.07529
 H1366 H 0.05152 0.65716 0.05476
 H1367 H 0.03568 0.71036 0.07801
 H1368 H 0.02607 0.73250 0.09881
 H1369 H -0.02632 0.70799 0.09618
 H1370 H -0.01638 0.68535 0.07629
 C1371 C 0.53147 0.14387 0.52622
 C1372 C 0.52612 0.14335 0.50837
 C1373 C 0.52967 0.12895 0.49742
 C1374 C 0.53885 0.11477 0.50397
 C1375 C 0.54486 0.11556 0.52162
 C1376 C 0.54114 0.12991 0.53265
 C1377 C 0.52628 0.15851 0.53818
 C1378 C 0.53768 0.16517 0.55195
 C1379 C 0.53238 0.17844 0.56355
 C1380 C 0.51559 0.18539 0.56163
 C1381 C 0.50435 0.17895 0.54766
 C1382 C 0.50959 0.16565 0.53615
 C1383 C 0.50959 0.19893 0.57439
 C1384 C 0.49210 0.19838 0.57983
 C1385 C 0.48647 0.21081 0.59207
 C1386 C 0.49821 0.22405 0.59945
 C1387 C 0.51561 0.22480 0.59370
 C1388 C 0.52124 0.21238 0.58137
 H1389 H 0.51906 0.15406 0.50285
 H1390 H 0.52518 0.12892 0.48379
 H1391 H 0.55189 0.10480 0.52707
 H1392 H 0.54531 0.12977 0.54636
 H1393 H 0.55070 0.16014 0.55378
 H1394 H 0.54131 0.18297 0.57427
 H1395 H 0.49143 0.18417 0.54561
 H1396 H 0.50036 0.16070 0.52586
 H1397 H 0.48277 0.18814 0.57484
 H1398 H 0.47281 0.21000 0.59564
 H1399 H 0.52508 0.23477 0.59879
 H1400 H 0.53472 0.21338 0.57724
 C1401 C -0.02993 0.14214 0.47838
 C1402 C -0.02502 0.14366 0.49634
 C1403 C -0.02661 0.12911 0.50703
 C1404 C -0.03323 0.11276 0.50000
 C1405 C -0.03832 0.11132 0.48210
 C1406 C -0.03666 0.12581 0.47143
 C1407 C -0.02731 0.15722 0.46669
 C1408 C -0.03952 0.16009 0.45291
 C1409 C -0.03615 0.17316 0.44085
 C1410 C -0.02051 0.18368 0.44233
 C1411 C -0.00871 0.18134 0.45658
 C1412 C -0.01204 0.16825 0.46858
 C1413 C -0.01589 0.19616 0.42845
 C1414 C 0.00146 0.19745 0.42270
 C1415 C 0.00593 0.20861 0.40927
 C1416 C -0.00686 0.21871 0.40108
 C1417 C -0.02419 0.21763 0.40695
 C1418 C -0.02868 0.20640 0.42046
 H1419 H -0.01997 0.15611 0.50215
 H1420 H -0.02274 0.13074 0.52080
 H1421 H -0.04323 0.09889 0.47616
 H1422 H -0.04020 0.12406 0.45758
 H1423 H -0.05156 0.15202 0.45127
 H1424 H -0.04547 0.17457 0.42998
 H1425 H 0.00332 0.18944 0.45825
 H1426 H -0.00230 0.16633 0.47896
 H1427 H 0.01159 0.18957 0.42838
 H1428 H 0.01950 0.20939 0.40541
 H1429 H -0.03434 0.22521 0.40096
 H1430 H -0.04214 0.20578 0.42469
 C1431 C 0.47229 0.64337 0.97916
 C1432 C 0.46523 0.62705 0.97250
 C1433 C 0.46366 0.61268 0.98336
 C1434 C 0.46919 0.61423 1.00114
 C1435 C 0.47616 0.63056 1.00787
 C1436 C 0.47764 0.64499 0.99701
 C1437 C 0.47479 0.65831 0.96727
 C1438 C 0.49014 0.66926 0.96882
 C1439 C 0.49332 0.68226 0.95666
 C1440 C 0.48129 0.68456 0.94260
 C1441 C 0.46559 0.67411 0.94145
 C1442 C 0.46237 0.66115 0.95367
 C1443 C 0.48568 0.69695 0.92856
 C1444 C 0.47272 0.70706 0.92063
 C1445 C 0.47694 0.71808 0.90687
 C1446 C 0.49415 0.71912 0.90072
 C1447 C 0.50713 0.70924 0.90889
 C1448 C 0.50294 0.69826 0.92256
 H1449 H 0.46134 0.62521 0.95875
 H1450 H 0.45846 0.60026 0.97764
 H1451 H 0.48037 0.63226 1.02154
 H1452 H 0.48293 0.65745 1.00261
 H1453 H 0.50005 0.66737 0.97903
 H1454 H 0.50539 0.69031 0.95809
 H1455 H 0.45610 0.67548 0.93073
 H1456 H 0.45026 0.65315 0.95229
 H1457 H 0.45934 0.70647 0.92508
 H1458 H 0.46665 0.72550 0.90090
 H1459 H 0.52064 0.71003 0.90481
 H1460 H 0.51319 0.69051 0.92819
 C1461 C 0.52048 0.86779 0.96792
 C1462 C 0.51434 0.86670 0.98506
 C1463 C 0.51770 0.88055 0.99737
 C1464 C 0.52741 0.89576 0.99287
 C1465 C 0.53335 0.89698 0.97567
 C1466 C 0.52987 0.88319 0.96332
 C1467 C 0.51767 0.85269 0.95511
 C1468 C 0.53101 0.84819 0.94365
 C1469 C 0.52876 0.83356 0.93214
 C1470 C 0.51316 0.82294 0.93187
 C1471 C 0.49968 0.82760 0.94310
 C1472 C 0.50190 0.84231 0.95457
 C1473 C 0.51124 0.80692 0.92015
 C1474 C 0.49505 0.80203 0.91148
 C1475 C 0.49355 0.78715 0.90015
 C1476 C 0.50821 0.77696 0.89719
 C1477 C 0.52428 0.78166 0.90606
 C1478 C 0.52576 0.79641 0.91744
 H1479 H 0.50734 0.85493 0.98915
 H1480 H 0.51310 0.87910 1.01055
 H1481 H 0.54063 0.90862 0.97171
 H1482 H 0.53452 0.88460 0.95015
 H1483 H 0.54340 0.85573 0.94384
 H1484 H 0.53929 0.83054 0.92345
 H1485 H 0.48755 0.81965 0.94330
 H1486 H 0.49126 0.84555 0.96305
 H1487 H 0.48366 0.80994 0.91314
 H1488 H 0.48106 0.78389 0.89333
 H1489 H 0.53570 0.77382 0.90429
 H1490 H 0.53829 0.79951 0.92423
 C1491 C 0.01922 0.36774 0.46897
 C1492 C 0.01266 0.36701 0.48598
 C1493 C 0.01589 0.38103 0.49812
 C1494 C 0.02588 0.39605 0.49358
 C1495 C 0.03221 0.39692 0.47651
 C1496 C 0.02885 0.38296 0.46432
 C1497 C 0.01655 0.35247 0.45634
 C1498 C 0.03010 0.34772 0.44524
 C1499 C 0.02792 0.33306 0.43377
 C1500 C 0.01220 0.32262 0.43323
 C1501 C -0.00146 0.32748 0.44415
 C1502 C 0.00068 0.34225 0.45557
 C1503 C 0.01032 0.30659 0.42153
 C1504 C -0.00574 0.30187 0.41255
 C1505 C -0.00718 0.28700 0.40119
 C1506 C 0.00744 0.27669 0.39850
 C1507 C 0.02336 0.28119 0.40772
 C1508 C 0.02477 0.29591 0.41914
 H1509 H 0.00544 0.35538 0.49010
 H1510 H 0.01096 0.37986 0.51120
 H1511 H 0.03970 0.40842 0.47250
 H1512 H 0.03380 0.38412 0.45123
 H1513 H 0.04258 0.35514 0.44564
 H1514 H 0.03860 0.32988 0.42532
 H1515 H -0.01369 0.31966 0.44414
 H1516 H -0.01011 0.34566 0.46378
 H1517 H -0.01708 0.30991 0.41396
 H1518 H -0.01956 0.28388 0.39412
 H1519 H 0.03474 0.27324 0.40616
 H1520 H 0.03718 0.29887 0.42620
 C1521 C 0.36806 0.53025 0.48175
 C1522 C 0.36750 0.51295 0.48770
 C1523 C 0.38162 0.50201 0.48502
 C1524 C 0.39660 0.50813 0.47632
 C1525 C 0.39732 0.52560 0.47084
 C1526 C 0.38325 0.53650 0.47353
 C1527 C 0.35265 0.54154 0.48337
 C1528 C 0.34758 0.55197 0.46935
 C1529 C 0.33306 0.56252 0.47058
 C1530 C 0.32316 0.56291 0.48583
 C1531 C 0.32826 0.55260 0.49995
 C1532 C 0.34282 0.54195 0.49870
 C1533 C 0.30759 0.57408 0.48673
 C1534 C 0.30434 0.58427 0.50194
 C1535 C 0.29053 0.59595 0.50200
 C1536 C 0.27980 0.59767 0.48685
 C1537 C 0.28255 0.58684 0.47198
 C1538 C 0.29624 0.57520 0.47193
 H1539 H 0.35592 0.50769 0.49394
 H1540 H 0.38055 0.48862 0.48936
 H1541 H 0.40873 0.53093 0.46441
 H1542 H 0.38425 0.54988 0.46910
 H1543 H 0.35471 0.55180 0.45728
 H1544 H 0.32966 0.57052 0.45957
 H1545 H 0.32085 0.55257 0.51184
 H1546 H 0.34649 0.53415 0.50977
 H1547 H 0.31289 0.58373 0.51354
 H1548 H 0.28874 0.60412 0.51362
 H1549 H 0.27419 0.58749 0.46026
 H1550 H 0.29808 0.56717 0.46018
 C1551 C 0.87265 0.03317 -0.01629
 C1552 C 0.88655 0.03889 -0.02670
 C1553 C 0.90044 0.02797 -0.03019
 C1554 C 0.90082 0.01107 -0.02331
 C1555 C 0.88695 0.00537 -0.01282
 C1556 C 0.87299 0.01628 -0.00940
 C1557 C 0.85775 0.04474 -0.01294
 C1558 C 0.84027 0.03791 -0.01391
 C1559 C 0.82621 0.04905 -0.01194
 C1560 C 0.82934 0.06726 -0.00890
 C1561 C 0.84685 0.07396 -0.00729
 C1562 C 0.86088 0.06285 -0.00933
 C1563 C 0.81444 0.07935 -0.00854
 C1564 C 0.81578 0.09551 -0.01691
 C1565 C 0.80147 0.10639 -0.01779
 C1566 C 0.78538 0.10138 -0.01042
 C1567 C 0.78420 0.08556 -0.00148
 C1568 C 0.79855 0.07460 -0.00061
 H1569 H 0.88655 0.05175 -0.03238
 H1570 H 0.91093 0.03287 -0.03820
 H1571 H 0.88673 -0.00759 -0.00738
 H1572 H 0.86252 0.01155 -0.00124
 H1573 H 0.83743 0.02403 -0.01684
 H1574 H 0.81289 0.04348 -0.01348
 H1575 H 0.84973 0.08786 -0.00460
 H1576 H 0.87421 0.06844 -0.00816
 H1577 H 0.82773 0.09953 -0.02329
 H1578 H 0.80297 0.11869 -0.02444
 H1579 H 0.77202 0.08134 0.00431
 H1580 H 0.79717 0.06235 0.00614
 C1581 C 0.64212 0.02751 0.03318
 C1582 C 0.63104 0.03091 0.04721
 C1583 C 0.61673 0.01941 0.05038
 C1584 C 0.61313 0.00427 0.03956
 C1585 C 0.62436 0.00081 0.02566
 C1586 C 0.63864 0.01228 0.02250
 C1587 C 0.65693 0.04003 0.02927
 C1588 C 0.67305 0.03381 0.02363
 C1589 C 0.68655 0.04555 0.01883
 C1590 C 0.68425 0.06380 0.01952
 C1591 C 0.66832 0.07004 0.02565
 C1592 C 0.65483 0.05830 0.03047
 C1593 C 0.69810 0.07622 0.01318
 C1594 C 0.69342 0.09066 0.00326
 C1595 C 0.70635 0.10193 -0.00337
 C1596 C 0.72435 0.09904 -0.00036
 C1597 C 0.72904 0.08479 0.00983
 C1598 C 0.71608 0.07349 0.01649
 H1599 H 0.63347 0.04245 0.05578
 H1600 H 0.60839 0.02257 0.06118
 H1601 H 0.62216 -0.01073 0.01709
 H1602 H 0.64674 0.00939 0.01143
 H1603 H 0.67520 0.01983 0.02281
 H1604 H 0.69860 0.04029 0.01408
 H1605 H 0.66622 0.08402 0.02660
 H1606 H 0.64256 0.06353 0.03467
 H1607 H 0.67971 0.09307 0.00031
 H1608 H 0.70217 0.11300 -0.01079
 H1609 H 0.74269 0.08212 0.01245
 H1610 H 0.72014 0.06261 0.02426
 C1611 C 0.14001 0.52874 0.53313
 C1612 C 0.13524 0.51475 0.52120
 C1613 C 0.12094 0.50328 0.52427
 C1614 C 0.11096 0.50547 0.53935
 C1615 C 0.11585 0.51937 0.55140
 C1616 C 0.13019 0.53087 0.54832
 C1617 C 0.15485 0.54127 0.52939
 C1618 C 0.15352 0.55945 0.53275
 C1619 C 0.16700 0.57133 0.52815
 C1620 C 0.18212 0.56532 0.52010
 C1621 C 0.18364 0.54712 0.51715
 C1622 C 0.17018 0.53524 0.52176
 C1623 C 0.19593 0.57799 0.51412
 C1624 C 0.21388 0.57427 0.51561
 C1625 C 0.22675 0.58579 0.50914
 C1626 C 0.22195 0.60127 0.50101
 C1627 C 0.20404 0.60516 0.49983
 C1628 C 0.19119 0.59366 0.50628
 H1629 H 0.14235 0.51287 0.50924
 H1630 H 0.11773 0.49279 0.51464
 H1631 H 0.10860 0.52151 0.56320
 H1632 H 0.13365 0.54138 0.55788
 H1633 H 0.14184 0.56454 0.53848
 H1634 H 0.16551 0.58525 0.53081
 H1635 H 0.19502 0.54205 0.51081
 H1636 H 0.17174 0.52131 0.51921
 H1637 H 0.21799 0.56241 0.52175
 H1638 H 0.24040 0.58230 0.51010
 H1639 H 0.19992 0.61712 0.49388
 H1640 H 0.17749 0.59686 0.50473
 C1641 C 0.14252 0.47712 -0.02724
 C1642 C 0.14372 0.49491 -0.02143
 C1643 C 0.12945 0.50573 -0.02384
 C1644 C 0.11376 0.49905 -0.03228
 C1645 C 0.11261 0.48135 -0.03820
 C1646 C 0.12677 0.47051 -0.03563
 C1647 C 0.15731 0.46529 -0.02403
 C1648 C 0.16091 0.45182 -0.03633
 C1649 C 0.17380 0.43976 -0.03264
 C1650 C 0.18352 0.44097 -0.01661
 C1651 C 0.18045 0.45490 -0.00465
 C1652 C 0.16745 0.46684 -0.00826
 C1653 C 0.19616 0.42730 -0.01196
 C1654 C 0.19745 0.42159 0.00536
 C1655 C 0.20901 0.40860 0.00988
 C1656 C 0.21946 0.40071 -0.00283
 C1657 C 0.21823 0.40643 -0.02016
 C1658 C 0.20671 0.41958 -0.02468
 H1659 H 0.15573 0.50051 -0.01513
 H1660 H 0.13079 0.51937 -0.01930
 H1661 H 0.10062 0.47572 -0.04450
 H1662 H 0.12519 0.45680 -0.03988
 H1663 H 0.15359 0.45044 -0.04877
 H1664 H 0.17574 0.42916 -0.04212
 H1665 H 0.18795 0.45645 0.00767
 H1666 H 0.16499 0.47694 0.00159
 H1667 H 0.18935 0.42700 0.01545
 H1668 H 0.20987 0.40496 0.02347
 H1669 H 0.22602 0.40067 -0.03030
 H1670 H 0.20616 0.42379 -0.03811
 C1671 C 0.64298 0.98126 0.46918
 C1672 C 0.63388 0.98186 0.45290
 C1673 C 0.62004 0.99315 0.45065
 C1674 C 0.61492 1.00412 0.46463
 C1675 C 0.62442 1.00396 0.48076
 C1676 C 0.63831 0.99264 0.48301
 C1677 C 0.65668 0.96818 0.47193
 C1678 C 0.67233 0.97271 0.48166
 C1679 C 0.68479 0.96006 0.48484
 C1680 C 0.68176 0.94261 0.47847
 C1681 C 0.66626 0.93817 0.46849
 C1682 C 0.65388 0.95081 0.46524
 C1683 C 0.69428 0.92886 0.48293
 C1684 C 0.68793 0.91239 0.48837
 C1685 C 0.69960 0.89969 0.49348
 C1686 C 0.71788 0.90312 0.49320
 C1687 C 0.72426 0.91938 0.48730
 C1688 C 0.71257 0.93219 0.48231
 H1689 H 0.63741 0.97348 0.44191
 H1690 H 0.61331 0.99314 0.43792
 H1691 H 0.62083 1.01217 0.49183
 H1692 H 0.64499 0.99236 0.49576
 H1693 H 0.67490 0.98602 0.48684
 H1694 H 0.69655 0.96380 0.49270
 H1695 H 0.66366 0.92486 0.46330
 H1696 H 0.64186 0.94687 0.45787
 H1697 H 0.67391 0.90950 0.48914
 H1698 H 0.69431 0.88718 0.49779
 H1699 H 0.73824 0.92242 0.48710
 H1700 H 0.71781 0.94473 0.47803
 C1701 C 0.86853 0.97011 0.51722
 C1702 C 0.87025 0.98631 0.50902
 C1703 C 0.88441 0.99807 0.51352
 C1704 C 0.89709 0.99391 0.52641
 C1705 C 0.89531 0.97771 0.53465
 C1706 C 0.88121 0.96592 0.53007
 C1707 C 0.85337 0.95771 0.51269
 C1708 C 0.85581 0.93955 0.51085
 C1709 C 0.84141 0.92777 0.50762
 C1710 C 0.82423 0.93388 0.50626
 C1711 C 0.82186 0.95211 0.50757
 C1712 C 0.83628 0.96390 0.51073
 C1713 C 0.80876 0.92129 0.50470
 C1714 C 0.79383 0.92486 0.49426
 C1715 C 0.77875 0.91367 0.49410
 C1716 C 0.77820 0.89876 0.50451
 C1717 C 0.79348 0.89479 0.51428
 C1718 C 0.80850 0.90594 0.51445
 H1719 H 0.86072 0.98983 0.49899
 H1720 H 0.88528 1.01047 0.50699
 H1721 H 0.90487 0.97401 0.54454
 H1722 H 0.88009 0.95362 0.53678
 H1723 H 0.86888 0.93445 0.51198
 H1724 H 0.84371 0.91384 0.50633
 H1725 H 0.80878 0.95723 0.50684
 H1726 H 0.83399 0.97781 0.51226
 H1727 H 0.79374 0.93642 0.48635
 H1728 H 0.76745 0.91707 0.48620
 H1729 H 0.79384 0.88312 0.52200
 H1730 H 0.81974 0.90281 0.52270
 C1731 C 0.36804 0.47395 0.02258
 C1732 C 0.36976 0.49004 0.01410
 C1733 C 0.38462 0.50125 0.01742
 C1734 C 0.39799 0.49667 0.02938
 C1735 C 0.39643 0.48045 0.03758
 C1736 C 0.38169 0.46919 0.03415
 C1737 C 0.35190 0.46236 0.01984
 C1738 C 0.34492 0.45333 0.03400
 C1739 C 0.32990 0.44229 0.03160
 C1740 C 0.32126 0.44014 0.01503
 C1741 C 0.32814 0.44923 0.00085
 C1742 C 0.34332 0.46022 0.00323
 C1743 C 0.30531 0.42822 0.01272
 C1744 C 0.30252 0.41728 -0.00247
 C1745 C 0.28829 0.40498 -0.00378
 C1746 C 0.27681 0.40328 0.01015
 C1747 C 0.27914 0.41465 0.02497
 C1748 C 0.29315 0.42707 0.02619
 H1749 H 0.35940 0.49420 0.00527
 H1750 H 0.38539 0.51371 0.01097
 H1751 H 0.40665 0.47638 0.04661
 H1752 H 0.38101 0.45671 0.04057
 H1753 H 0.35100 0.45490 0.04704
 H1754 H 0.32518 0.43526 0.04276
 H1755 H 0.32173 0.44797 -0.01205
 H1756 H 0.34844 0.46687 -0.00799
 H1757 H 0.31170 0.41774 -0.01303
 H1758 H 0.28671 0.39626 -0.01531
 H1759 H 0.27020 0.41380 0.03572
 H1760 H 0.29460 0.43564 0.03782
 C1761 C 0.53246 0.48212 0.37277
 C1762 C 0.51589 0.48962 0.37320
 C1763 C 0.50480 0.48661 0.38719
 C1764 C 0.50998 0.47591 0.40099
 C1765 C 0.52658 0.46844 0.40054
 C1766 C 0.53768 0.47154 0.38663
 C1767 C 0.54421 0.48503 0.35785
 C1768 C 0.56242 0.48804 0.36091
 C1769 C 0.57367 0.48965 0.34688
 C1770 C 0.56701 0.48820 0.32943
 C1771 C 0.54872 0.48576 0.32637
 C1772 C 0.53743 0.48421 0.34044
 C1773 C 0.57922 0.48822 0.31457
 C1774 C 0.57502 0.49649 0.29880
 C1775 C 0.58637 0.49580 0.28469
 C1776 C 0.60206 0.48672 0.28604
 C1777 C 0.60635 0.47872 0.30189
 C1778 C 0.59507 0.47942 0.31593
 H1779 H 0.51156 0.49794 0.36278
 H1780 H 0.49208 0.49249 0.38702
 H1781 H 0.53109 0.46025 0.41098
 H1782 H 0.55029 0.46540 0.38657
 H1783 H 0.56799 0.48907 0.37418
 H1784 H 0.58765 0.49190 0.34970
 H1785 H 0.54318 0.48438 0.31310
 H1786 H 0.52347 0.48175 0.33767
 H1787 H 0.56297 0.50350 0.29739
 H1788 H 0.58266 0.50199 0.27260
 H1789 H 0.61848 0.47186 0.30346
 H1790 H 0.59861 0.47270 0.32776
 C1791 C 0.03514 -0.01800 0.87091
 C1792 C 0.01832 -0.01093 0.87092
 C1793 C 0.00746 -0.01310 0.88525
 C1794 C 0.01313 -0.02249 0.89984
 C1795 C 0.03008 -0.02919 0.89998
 C1796 C 0.04096 -0.02692 0.88574
 C1797 C 0.04636 -0.01667 0.85530
 C1798 C 0.05634 -0.03095 0.85003
 C1799 C 0.06681 -0.02995 0.83536
 C1800 C 0.06749 -0.01470 0.82542
 C1801 C 0.05756 -0.00037 0.83069
 C1802 C 0.04709 -0.00135 0.84545
 C1803 C 0.07855 -0.01396 0.80967
 C1804 C 0.08840 0.00143 0.80584
 C1805 C 0.09970 0.00154 0.79166
 C1806 C 0.10147 -0.01377 0.78118
 C1807 C 0.09115 -0.02892 0.78462
 C1808 C 0.07980 -0.02900 0.79863
 H1809 H 0.01334 -0.00415 0.85964
 H1810 H -0.00555 -0.00786 0.88467
 H1811 H 0.03502 -0.03618 0.91113
 H1812 H 0.05398 -0.03217 0.88637
 H1813 H 0.05591 -0.04305 0.85712
 H1814 H 0.07449 -0.04114 0.83188
 H1815 H 0.05770 0.01152 0.82326
 H1816 H 0.03969 0.00995 0.84924
 H1817 H 0.08784 0.01320 0.81414
 H1818 H 0.10753 0.01336 0.78933
 H1819 H 0.09191 -0.04078 0.77648
 H1820 H 0.07204 -0.04092 0.80087
 C1821 C 0.02728 0.03175 0.64322
 C1822 C 0.00942 0.02601 0.64275
 C1823 C -0.00172 0.02963 0.62850
 C1824 C 0.00459 0.03941 0.61456
 C1825 C 0.02218 0.04581 0.61529
 C1826 C 0.03345 0.04189 0.62938
 C1827 C 0.03952 0.02655 0.65768
 C1828 C 0.05384 0.03771 0.66367
 C1829 C 0.06575 0.03235 0.67662
 C1830 C 0.06354 0.01577 0.68410
 C1831 C 0.04896 0.00483 0.67843
 C1832 C 0.03724 0.01005 0.66530
 C1833 C 0.07653 0.00969 0.69744
 C1834 C 0.08060 -0.00816 0.69782
 C1835 C 0.09264 -0.01402 0.71033
 C1836 C 0.10122 -0.00215 0.72264
 C1837 C 0.09730 0.01574 0.72219
 C1838 C 0.08503 0.02157 0.70981
 H1839 H 0.00401 0.01862 0.65335
 H1840 H -0.01531 0.02476 0.62839
 H1841 H 0.02742 0.05326 0.60463
 H1842 H 0.04714 0.04632 0.62908
 H1843 H 0.05590 0.05062 0.65835
 H1844 H 0.07690 0.04108 0.68049
 H1845 H 0.04656 -0.00787 0.68410
 H1846 H 0.02659 0.00093 0.66091
 H1847 H 0.07462 -0.01769 0.68833
 H1848 H 0.09504 -0.02793 0.71038
 H1849 H 0.10385 0.02534 0.73122
 H1850 H 0.08212 0.03538 0.71007
 C1851 C 0.52835 0.53280 0.14557
 C1852 C 0.51030 0.52790 0.14508
 C1853 C 0.49941 0.53196 0.13080
 C1854 C 0.50622 0.54125 0.11674
 C1855 C 0.52408 0.54682 0.11748
 C1856 C 0.53506 0.54254 0.13169
 C1857 C 0.54017 0.52716 0.16015
 C1858 C 0.55442 0.53808 0.16673
 C1859 C 0.56575 0.53242 0.18007
 C1860 C 0.56304 0.51573 0.18721
 C1861 C 0.54862 0.50497 0.18080
 C1862 C 0.53742 0.51055 0.16740
 C1863 C 0.57540 0.50935 0.20094
 C1864 C 0.57980 0.49159 0.20089
 C1865 C 0.59155 0.48555 0.21357
 C1866 C 0.59954 0.49713 0.22656
 C1867 C 0.59488 0.51485 0.22677
 C1868 C 0.58299 0.52088 0.21414
 H1869 H 0.50455 0.52080 0.15571
 H1870 H 0.48563 0.52778 0.13076
 H1871 H 0.52971 0.55390 0.10678
 H1872 H 0.54893 0.54635 0.13150
 H1873 H 0.55683 0.55103 0.16162
 H1874 H 0.57682 0.54099 0.18454
 H1875 H 0.54595 0.49216 0.18615
 H1876 H 0.52678 0.50165 0.16251
 H1877 H 0.57436 0.48233 0.19086
 H1878 H 0.59422 0.47169 0.21311
 H1879 H 0.60049 0.52426 0.23647
 H1880 H 0.57966 0.53458 0.21479
 C1881 C 0.47911 -0.03274 0.14443
 C1882 C 0.47273 -0.04126 0.12870
 C1883 C 0.48383 -0.04383 0.11469
 C1884 C 0.50156 -0.03782 0.11597
 C1885 C 0.50802 -0.02940 0.13170
 C1886 C 0.49694 -0.02697 0.14581
 C1887 C 0.46694 -0.02923 0.15893
 C1888 C 0.46841 -0.01323 0.16872
 C1889 C 0.45612 -0.00926 0.18134
 C1890 C 0.44193 -0.02110 0.18436
 C1891 C 0.44080 -0.03737 0.17502
 C1892 C 0.45320 -0.04141 0.16250
 C1893 C 0.42786 -0.01601 0.19642
 C1894 C 0.41964 -0.02836 0.20717
 C1895 C 0.40605 -0.02344 0.21806
 C1896 C 0.40037 -0.00609 0.21840
 C1897 C 0.40878 0.00626 0.20780
 C1898 C 0.42223 0.00134 0.19690
 H1899 H 0.45900 -0.04552 0.12700
 H1900 H 0.47833 -0.05013 0.10269
 H1901 H 0.52167 -0.02479 0.13318
 H1902 H 0.50236 -0.02060 0.15782
 H1903 H 0.47870 -0.00347 0.16624
 H1904 H 0.45759 0.00325 0.18853
 H1905 H 0.43000 -0.04675 0.17693
 H1906 H 0.45185 -0.05400 0.15543
 H1907 H 0.42378 -0.04181 0.20724
 H1908 H 0.39989 -0.03329 0.22602
 H1909 H 0.40514 0.01986 0.20801
 H1910 H 0.42804 0.01115 0.18863
 C1911 C 0.97564 0.47013 0.64317
 C1912 C 0.96933 0.46169 0.62737
 C1913 C 0.98055 0.45898 0.61349
 C1914 C 0.99834 0.46478 0.61497
 C1915 C 1.00471 0.47318 0.63073
 C1916 C 0.99351 0.47574 0.64471
 C1917 C 0.96342 0.47361 0.65763
 C1918 C 0.96503 0.48947 0.66765
 C1919 C 0.95284 0.49332 0.68040
 C1920 C 0.93862 0.48151 0.68335
 C1921 C 0.93730 0.46540 0.67373
 C1922 C 0.94959 0.46147 0.66107
 C1923 C 0.92479 0.48639 0.69578
 C1924 C 0.91670 0.47380 0.70635
 C1925 C 0.90345 0.47854 0.71773
 C1926 C 0.89799 0.49596 0.71877
 C1927 C 0.90623 0.50854 0.70830
 C1928 C 0.91934 0.50380 0.69690
 H1929 H 0.95558 0.45756 0.62553
 H1930 H 0.97513 0.45271 0.60144
 H1931 H 1.01839 0.47764 0.63234
 H1932 H 0.99888 0.48206 0.65677
 H1933 H 0.97539 0.49920 0.66530
 H1934 H 0.95447 0.50570 0.68782
 H1935 H 0.92647 0.45603 0.67559
 H1936 H 0.94814 0.44898 0.65383
 H1937 H 0.92071 0.46031 0.70595
 H1938 H 0.89740 0.46850 0.72554
 H1939 H 0.90277 0.52219 0.70901
 H1940 H 0.92506 0.51380 0.68878
 C1941 C 0.97032 0.51995 0.86683
 C1942 C 0.98706 0.51275 0.86691
 C1943 C 0.99889 0.51597 0.88120
 C1944 C 0.99427 0.52655 0.89566
 C1945 C 0.97740 0.53342 0.89575
 C1946 C 0.96555 0.53010 0.88154
 C1947 C 0.95815 0.51750 0.85122
 C1948 C 0.94811 0.53150 0.84563
 C1949 C 0.93693 0.52949 0.83077
 C1950 C 0.93560 0.51347 0.82099
 C1951 C 0.94553 0.49939 0.82661
 C1952 C 0.95670 0.50139 0.84157
 C1953 C 0.92385 0.51164 0.80503
 C1954 C 0.91349 0.49613 0.80130
 C1955 C 0.90151 0.49506 0.78692
 C1956 C 0.89959 0.50952 0.77617
 C1957 C 0.91039 0.52474 0.77949
 C1958 C 0.92243 0.52577 0.79371
 H1959 H 0.99124 0.50507 0.85570
 H1960 H 1.01182 0.51059 0.88065
 H1961 H 0.97331 0.54135 0.90682
 H1962 H 0.95262 0.53552 0.88206
 H1963 H 0.94908 0.54416 0.85260
 H1964 H 0.92924 0.54050 0.82698
 H1965 H 0.94487 0.48692 0.81930
 H1966 H 0.96413 0.49029 0.84563
 H1967 H 0.91420 0.48507 0.80983
 H1968 H 0.89324 0.48322 0.78464
 H1969 H 0.90945 0.53593 0.77113
 H1970 H 0.93056 0.53771 0.79593
 C1971 C 0.46873 0.02153 0.36701
 C1972 C 0.48582 0.01519 0.36652
 C1973 C 0.49789 0.01874 0.38054
 C1974 C 0.49317 0.02881 0.39532
 C1975 C 0.47597 0.03481 0.39599
 C1976 C 0.46387 0.03116 0.38203
 C1977 C 0.45629 0.01878 0.35163
 C1978 C 0.44543 0.03234 0.34650
 C1979 C 0.43420 0.03013 0.33167
 C1980 C 0.43362 0.01435 0.32151
 C1981 C 0.44431 0.00068 0.32673
 C1982 C 0.45552 0.00287 0.34163
 C1983 C 0.42200 0.01235 0.30546
 C1984 C 0.41255 -0.00359 0.30122
 C1985 C 0.40107 -0.00508 0.28646
 C1986 C 0.39877 0.00938 0.27577
 C1987 C 0.40852 0.02515 0.27976
 C1988 C 0.42004 0.02660 0.29440
 H1989 H 0.49007 0.00795 0.35506
 H1990 H 0.51107 0.01403 0.37953
 H1991 H 0.47181 0.04232 0.40731
 H1992 H 0.45069 0.03592 0.38299
 H1993 H 0.44585 0.04484 0.35374
 H1994 H 0.42594 0.04083 0.32817
 H1995 H 0.44426 -0.01159 0.31910
 H1996 H 0.46358 -0.00791 0.34534
 H1997 H 0.41365 -0.01476 0.30958
 H1998 H 0.39358 -0.01733 0.28373
 H1999 H 0.40728 0.03639 0.27151
 H2000 H 0.42746 0.03891 0.29703
   
