data_POSCAR
  _audit_creation_date              2014-09-24
  _audit_creation_method            'ToBaCCo'
  _symmetry_space_group_name_H-M    'P1'
  _symmetry_Int_Tables_number       1
  _symmetry_cell_setting            triclinic
  loop_
  _symmetry_equiv_pos_as_xyz
 x,y,z
_cell_length_a 58.4902
_cell_length_b 58.4574
_cell_length_c 58.3872
_cell_angle_alpha 89.963500
_cell_angle_beta 89.972600
_cell_angle_gamma 89.932900
loop_
  _atom_site_label
  _atom_site_type_symbol
  _atom_site_fract_x
  _atom_site_fract_y
  _atom_site_fract_z
N1 N 0.36760 0.30372 0.31939
 N2 N 0.36736 0.31993 0.30378
 C3 C 0.38520 0.31686 0.28949
 C4 C 0.39711 0.29758 0.29644
 C5 C 0.38540 0.28968 0.31546
 H6 H 0.38913 0.32768 0.27500
 H7 H 0.38975 0.27502 0.32589
 Cu8 Cu 0.34355 0.34319 0.30375
 Cu9 Cu 0.34513 0.30227 0.34400
 Cu10 Cu 0.30269 0.34385 0.34407
 N11 N 0.31969 0.36639 0.30372
 N12 N 0.30393 0.36670 0.31977
 C13 C 0.28991 0.38461 0.31625
 C14 C 0.29715 0.39616 0.29685
 C15 C 0.31610 0.38405 0.28932
 H16 H 0.27540 0.38879 0.32694
 H17 H 0.32673 0.38807 0.27473
 N18 N 0.30445 0.31926 0.36715
 N19 N 0.32086 0.30373 0.36737
 C20 C 0.31765 0.28972 0.38541
 C21 C 0.29819 0.29661 0.39697
 C22 C 0.29025 0.31536 0.38489
 H23 H 0.32849 0.27535 0.38967
 H24 H 0.27541 0.32562 0.38897
 H25 H 0.31899 0.31809 0.32626
 H26 H 0.33728 0.33676 0.34453
 N27 N 0.36890 0.80540 -0.17876
 N28 N 0.36784 0.82024 -0.19562
 C29 C 0.38520 0.81617 -0.21028
 C30 C 0.39800 0.79783 -0.20203
 C31 C 0.38703 0.79159 -0.18187
 H32 H 0.38829 0.82594 -0.22568
 H33 H 0.39134 0.77760 -0.17057
 Cu34 Cu 0.34372 0.84336 -0.19649
 Cu35 Cu 0.34587 0.80386 -0.15480
 Cu36 Cu 0.30144 0.84315 -0.15740
 N37 N 0.31984 0.86673 -0.19650
 N38 N 0.30265 0.86567 -0.18206
 C39 C 0.28807 0.88300 -0.18633
 C40 C 0.29675 0.89605 -0.20422
 C41 C 0.31707 0.88515 -0.21014
 H42 H 0.27277 0.88628 -0.17648
 H43 H 0.32872 0.88992 -0.22371
 N44 N 0.30357 0.81921 -0.13362
 N45 N 0.32092 0.80483 -0.13223
 C46 C 0.31799 0.79126 -0.11383
 C47 C 0.29778 0.79728 -0.10312
 C48 C 0.28906 0.81505 -0.11617
 H49 H 0.32954 0.77774 -0.10874
 H50 H 0.27353 0.82453 -0.11289
 H51 H 0.31960 0.81775 -0.17399
 H52 H 0.33630 0.83797 -0.15578
 N53 N 0.86847 0.30598 -0.17914
 N54 N 0.86769 0.32124 -0.19567
 C55 C 0.88508 0.31729 -0.21033
 C56 C 0.89748 0.29868 -0.20240
 C57 C 0.88642 0.29200 -0.18255
 H58 H 0.88861 0.32730 -0.22549
 H59 H 0.89082 0.27769 -0.17167
 Cu60 Cu 0.84387 0.34457 -0.19600
 Cu61 Cu 0.84548 0.30442 -0.15509
 Cu62 Cu 0.80156 0.34441 -0.15714
 N63 N 0.82005 0.36789 -0.19634
 N64 N 0.80305 0.36713 -0.18165
 C65 C 0.78862 0.38457 -0.18590
 C66 C 0.79711 0.39728 -0.20415
 C67 C 0.81719 0.38606 -0.21025
 H68 H 0.77344 0.38801 -0.17593
 H69 H 0.82874 0.39053 -0.22396
 N70 N 0.80341 0.32016 -0.13361
 N71 N 0.82056 0.30550 -0.13244
 C72 C 0.81750 0.29178 -0.11418
 C73 C 0.79740 0.29794 -0.10335
 C74 C 0.78889 0.31598 -0.11617
 H75 H 0.82890 0.27807 -0.10926
 H76 H 0.77349 0.32563 -0.11275
 H77 H 0.81935 0.31901 -0.17399
 H78 H 0.83624 0.33865 -0.15539
 N79 N 0.86814 0.80496 0.32006
 N80 N 0.86871 0.82191 0.30525
 C81 C 0.88653 0.81882 0.29095
 C82 C 0.89764 0.79880 0.29709
 C83 C 0.88546 0.79047 0.31563
 H84 H 0.89085 0.83002 0.27687
 H85 H 0.88905 0.77512 0.32533
 Cu86 Cu 0.84520 0.84541 0.30590
 Cu87 Cu 0.84498 0.80287 0.34402
 Cu88 Cu 0.80173 0.84380 0.34301
 N89 N 0.82114 0.86832 0.30485
 N90 N 0.80368 0.86703 0.31895
 C91 C 0.78898 0.88414 0.31431
 C92 C 0.79776 0.89712 0.29638
 C93 C 0.81828 0.88643 0.29088
 H94 H 0.77336 0.88712 0.32373
 H95 H 0.83010 0.89117 0.27749
 N96 N 0.80322 0.81895 0.36597
 N97 N 0.81997 0.80380 0.36665
 C98 C 0.81685 0.78995 0.38481
 C99 C 0.79711 0.79656 0.39606
 C100 C 0.78888 0.81496 0.38360
 H101 H 0.82806 0.77601 0.38951
 H102 H 0.77389 0.82507 0.38749
 H103 H 0.81964 0.81903 0.32544
 H104 H 0.83623 0.83715 0.34574
 N105 N 0.63169 0.69551 0.32033
 N106 N 0.63116 0.67858 0.30554
 C107 C 0.61333 0.68161 0.29127
 C108 C 0.60216 0.70159 0.29740
 C109 C 0.61432 0.70995 0.31591
 H110 H 0.60902 0.67039 0.27721
 H111 H 0.61069 0.72529 0.32561
 Cu112 Cu 0.65468 0.65513 0.30615
 Cu113 Cu 0.65487 0.69765 0.34425
 Cu114 Cu 0.69805 0.65664 0.34337
 N115 N 0.67874 0.63225 0.30512
 N116 N 0.69606 0.63335 0.31942
 C117 C 0.71066 0.61613 0.31490
 C118 C 0.70198 0.60346 0.29685
 C119 C 0.68168 0.61422 0.29109
 H120 H 0.72622 0.61281 0.32434
 H121 H 0.67008 0.60941 0.27752
 N122 N 0.69663 0.68156 0.36620
 N123 N 0.67990 0.69675 0.36685
 C124 C 0.68310 0.71066 0.38493
 C125 C 0.70285 0.70406 0.39614
 C126 C 0.71101 0.68560 0.38376
 H127 H 0.67192 0.72464 0.38958
 H128 H 0.72600 0.67548 0.38765
 H129 H 0.68023 0.68147 0.32572
 H130 H 0.66355 0.66339 0.34601
 N131 N 0.63205 0.19518 -0.17984
 N132 N 0.63167 0.17842 -0.19481
 C133 C 0.61378 0.18146 -0.20904
 C134 C 0.60241 0.20125 -0.20266
 C135 C 0.61453 0.20952 -0.18407
 H136 H 0.60950 0.17031 -0.22318
 H137 H 0.61073 0.22467 -0.17416
 Cu138 Cu 0.65499 0.15462 -0.19474
 Cu139 Cu 0.65513 0.19708 -0.15595
 Cu140 Cu 0.69853 0.15660 -0.15710
 N141 N 0.67930 0.13183 -0.19495
 N142 N 0.69692 0.13340 -0.18110
 C143 C 0.71160 0.11622 -0.18562
 C144 C 0.70255 0.10282 -0.20307
 C145 C 0.68195 0.11336 -0.20849
 H146 H 0.72726 0.11327 -0.17624
 H147 H 0.66997 0.10828 -0.22162
 N148 N 0.69692 0.18128 -0.13404
 N149 N 0.68001 0.19624 -0.13326
 C150 C 0.68306 0.21010 -0.11511
 C151 C 0.70291 0.20370 -0.10395
 C152 C 0.71128 0.18539 -0.11647
 H153 H 0.67174 0.22395 -0.11040
 H154 H 0.72641 0.17545 -0.11267
 H155 H 0.68032 0.18107 -0.17483
 H156 H 0.66373 0.16262 -0.15468
 N157 N 0.13225 0.69593 -0.17979
 N158 N 0.13191 0.67924 -0.19485
 C159 C 0.11403 0.68231 -0.20904
 C160 C 0.10268 0.70210 -0.20265
 C161 C 0.11478 0.71031 -0.18403
 H162 H 0.10979 0.67122 -0.22322
 H163 H 0.11102 0.72551 -0.17416
 Cu164 Cu 0.15510 0.65538 -0.19482
 Cu165 Cu 0.15517 0.69762 -0.15575
 Cu166 Cu 0.19807 0.65667 -0.15647
 N167 N 0.17944 0.63272 -0.19508
 N168 N 0.19649 0.63360 -0.18046
 C169 C 0.21098 0.61620 -0.18471
 C170 C 0.20246 0.60361 -0.20288
 C171 C 0.18240 0.61460 -0.20899
 H172 H 0.22637 0.61274 -0.17505
 H173 H 0.17096 0.60989 -0.22273
 N174 N 0.19655 0.68133 -0.13350
 N175 N 0.17986 0.69654 -0.13291
 C176 C 0.18301 0.71043 -0.11480
 C177 C 0.20271 0.70378 -0.10352
 C178 C 0.21088 0.68531 -0.11589
 H179 H 0.17189 0.72447 -0.11022
 H180 H 0.22586 0.67519 -0.11200
 H181 H 0.18047 0.68145 -0.17447
 H182 H 0.16337 0.66311 -0.15464
 N183 N 0.13186 0.19552 0.32034
 N184 N 0.13134 0.17860 0.30553
 C185 C 0.11351 0.18163 0.29127
 C186 C 0.10232 0.20159 0.29741
 C187 C 0.11447 0.20995 0.31593
 H188 H 0.10922 0.17042 0.27719
 H189 H 0.11082 0.22527 0.32564
 Cu190 Cu 0.15489 0.15518 0.30613
 Cu191 Cu 0.15503 0.19765 0.34427
 Cu192 Cu 0.19824 0.15668 0.34337
 N193 N 0.17897 0.13234 0.30507
 N194 N 0.19628 0.13343 0.31939
 C195 C 0.21090 0.11622 0.31484
 C196 C 0.20224 0.10358 0.29676
 C197 C 0.18194 0.11434 0.29100
 H198 H 0.22644 0.11289 0.32429
 H199 H 0.17035 0.10955 0.27741
 N200 N 0.19678 0.18157 0.36623
 N201 N 0.18006 0.19675 0.36687
 C202 C 0.18322 0.21064 0.38497
 C203 C 0.20296 0.20403 0.39620
 C204 C 0.21115 0.18558 0.38381
 H205 H 0.17204 0.22462 0.38963
 H206 H 0.22613 0.17546 0.38771
 H207 H 0.18042 0.18150 0.32573
 H208 H 0.16374 0.16339 0.34600
 N209 N 0.63318 0.30367 0.68081
 N210 N 0.63225 0.32075 0.69541
 C211 C 0.61412 0.31780 0.70934
 C212 C 0.60317 0.29771 0.70324
 C213 C 0.61580 0.28919 0.68506
 H214 H 0.60939 0.32923 0.72309
 H215 H 0.61236 0.27382 0.67538
 Cu216 Cu 0.65536 0.34466 0.69500
 Cu217 Cu 0.65641 0.30192 0.65681
 Cu218 Cu 0.69732 0.34503 0.65602
 N219 N 0.67863 0.36843 0.69513
 N220 N 0.69532 0.36812 0.68006
 C221 C 0.70959 0.38566 0.68427
 C222 C 0.70136 0.39774 0.70293
 C223 C 0.68162 0.38632 0.70934
 H224 H 0.72474 0.38946 0.67436
 H225 H 0.67055 0.39050 0.72357
 N226 N 0.69640 0.32012 0.63325
 N227 N 0.68124 0.30341 0.63387
 C228 C 0.68530 0.28904 0.61629
 C229 C 0.70375 0.29718 0.60390
 C230 C 0.71032 0.31693 0.61515
 H231 H 0.67522 0.27404 0.61242
 H232 H 0.72431 0.32807 0.61052
 H233 H 0.68142 0.31944 0.67442
 H234 H 0.66299 0.33657 0.65480
 N235 N 0.63184 0.80472 1.18000
 N236 N 0.63130 0.82161 1.19484
 C237 C 0.61343 0.81860 1.20908
 C238 C 0.60224 0.79868 1.20290
 C239 C 0.61444 0.79032 1.18437
 H240 H 0.60912 0.82979 1.22318
 H241 H 0.61082 0.77502 1.17464
 Cu242 Cu 0.65485 0.84498 1.19436
 Cu243 Cu 0.65511 0.80258 1.15609
 Cu244 Cu 0.69817 0.84359 1.15706
 N245 N 0.67896 0.86776 1.19552
 N246 N 0.69610 0.86684 1.18098
 C247 C 0.71066 0.88406 1.18544
 C248 C 0.70222 0.89652 1.20379
 C249 C 0.68204 0.88561 1.20974
 H250 H 0.72607 0.88740 1.17579
 H251 H 0.67057 0.89020 1.22350
 N252 N 0.69692 0.81871 1.13425
 N253 N 0.68023 0.80351 1.13352
 C254 C 0.68357 0.78965 1.11541
 C255 C 0.70337 0.79629 1.10431
 C256 C 0.71142 0.81471 1.11676
 H257 H 0.67244 0.77569 1.11064
 H258 H 0.72638 0.82486 1.11294
 H259 H 0.68042 0.81869 1.17466
 H260 H 0.66369 0.83682 1.15445
 N261 N 0.13318 0.30364 1.18078
 N262 N 0.13229 0.32079 1.19532
 C263 C 0.11423 0.31790 1.20934
 C264 C 0.10327 0.29779 1.20334
 C265 C 0.11582 0.28919 1.18516
 H266 H 0.10953 0.32939 1.22305
 H267 H 0.11232 0.27381 1.17551
 Cu268 Cu 0.15538 0.34466 1.19466
 Cu269 Cu 0.15623 0.30179 1.15662
 Cu270 Cu 0.19680 0.34517 1.15521
 N271 N 0.17870 0.36832 1.19471
 N272 N 0.19488 0.36829 1.17911
 C273 C 0.20918 0.38582 1.18303
 C274 C 0.20166 0.39759 1.20222
 C275 C 0.18220 0.38592 1.20916
 H276 H 0.22405 0.38952 1.17270
 H277 H 0.17148 0.38979 1.22372
 N278 N 0.19585 0.32018 1.13266
 N279 N 0.18088 0.30331 1.13351
 C280 C 0.18499 0.28886 1.11601
 C281 C 0.20329 0.29715 1.10347
 C282 C 0.20971 0.31702 1.11453
 H283 H 0.17508 0.27372 1.11230
 H284 H 0.22358 0.32826 1.10978
 H285 H 0.18134 0.31950 1.17393
 H286 H 0.16257 0.33639 1.15443
 N287 N 0.13328 0.80393 0.68038
 N288 N 0.13239 0.82112 0.69487
 C289 C 0.11437 0.81824 0.70894
 C290 C 0.10343 0.79809 0.70304
 C291 C 0.11596 0.78945 0.68485
 H292 H 0.10969 0.82977 0.72263
 H293 H 0.11247 0.77403 0.67527
 Cu294 Cu 0.15550 0.84497 0.69406
 Cu295 Cu 0.15634 0.80200 0.65623
 Cu296 Cu 0.19708 0.84526 0.65482
 N297 N 0.17893 0.86852 0.69422
 N298 N 0.19520 0.86840 0.67872
 C299 C 0.20961 0.88584 0.68275
 C300 C 0.20204 0.89761 0.70191
 C301 C 0.18246 0.88608 0.70871
 H302 H 0.22450 0.88956 0.67246
 H303 H 0.17175 0.88994 0.72329
 N304 N 0.19605 0.82025 0.63230
 N305 N 0.18100 0.80346 0.63313
 C306 C 0.18504 0.78901 0.61561
 C307 C 0.20337 0.79722 0.60309
 C308 C 0.20989 0.81704 0.61417
 H309 H 0.17504 0.77392 0.61188
 H310 H 0.22382 0.82822 0.60943
 H311 H 0.18146 0.81968 0.67354
 H312 H 0.16283 0.83657 0.65390
 N313 N 0.36732 0.69633 0.67913
 N314 N 0.36724 0.68061 0.69524
 C315 C 0.38485 0.68449 0.70962
 C316 C 0.39668 0.70356 0.70195
 C317 C 0.38505 0.71056 0.68253
 H318 H 0.38897 0.67409 0.72437
 H319 H 0.38899 0.72516 0.67187
 Cu320 Cu 0.34406 0.65668 0.69547
 Cu321 Cu 0.34415 0.69760 0.65519
 Cu322 Cu 0.30257 0.65526 0.65587
 N323 N 0.32088 0.63275 0.69568
 N324 N 0.30437 0.63273 0.68041
 C325 C 0.29022 0.61510 0.68464
 C326 C 0.29834 0.60325 0.70348
 C327 C 0.31790 0.61491 0.71001
 H328 H 0.27529 0.61101 0.67453
 H329 H 0.32890 0.61087 0.72433
 N330 N 0.30372 0.67957 0.63248
 N331 N 0.31927 0.69592 0.63247
 C332 C 0.31524 0.71007 0.61471
 C333 C 0.29639 0.70214 0.60285
 C334 C 0.28957 0.68275 0.61457
 H335 H 0.32551 0.72483 0.61043
 H336 H 0.27518 0.67191 0.61046
 H337 H 0.31862 0.68134 0.67345
 H338 H 0.33697 0.66302 0.65482
 N339 N 0.36736 0.19595 1.18050
 N340 N 0.36843 0.17866 1.19487
 C341 C 0.38647 0.18155 1.20888
 C342 C 0.39726 0.20180 1.20305
 C343 C 0.38461 0.21050 1.18497
 H344 H 0.39125 0.16997 1.22251
 H345 H 0.38794 0.22603 1.17548
 Cu346 Cu 0.34547 0.15472 1.19399
 Cu347 Cu 0.34405 0.19797 1.15657
 Cu348 Cu 0.30312 0.15482 1.15571
 N349 N 0.32197 0.13131 1.19468
 N350 N 0.30529 0.13165 1.17962
 C351 C 0.29089 0.11427 1.18394
 C352 C 0.29894 0.10232 1.20279
 C353 C 0.31874 0.11366 1.20915
 H354 H 0.27576 0.11059 1.17400
 H355 H 0.32976 0.10961 1.22344
 N356 N 0.30396 0.17987 1.13314
 N357 N 0.31911 0.19659 1.13375
 C358 C 0.31500 0.21099 1.11618
 C359 C 0.29653 0.20281 1.10385
 C360 C 0.29000 0.18307 1.11510
 H361 H 0.32507 0.22598 1.11225
 H362 H 0.27603 0.17191 1.11051
 H363 H 0.31916 0.18022 1.17423
 H364 H 0.33732 0.16345 1.15406
 N365 N 0.86810 0.69508 1.17991
 N366 N 0.86866 0.67815 1.19473
 C367 C 0.88649 0.68117 1.20899
 C368 C 0.89763 0.70115 1.20285
 C369 C 0.88544 0.70952 1.18432
 H370 H 0.89081 0.66995 1.22307
 H371 H 0.88904 0.72486 1.17461
 Cu372 Cu 0.84517 0.65470 1.19415
 Cu373 Cu 0.84487 0.69723 1.15599
 Cu374 Cu 0.80188 0.65613 1.15686
 N375 N 0.82113 0.63186 1.19523
 N376 N 0.80398 0.63282 1.18072
 C377 C 0.78945 0.61555 1.18514
 C378 C 0.79793 0.60303 1.20343
 C379 C 0.81808 0.61394 1.20940
 H380 H 0.77404 0.61221 1.17550
 H381 H 0.82956 0.60932 1.22314
 N382 N 0.80312 0.68109 1.13411
 N383 N 0.81978 0.69631 1.13342
 C384 C 0.81648 0.71020 1.11532
 C385 C 0.79672 0.70355 1.10419
 C386 C 0.78866 0.68509 1.11661
 H387 H 0.82759 0.72418 1.11059
 H388 H 0.77373 0.67493 1.11274
 H389 H 0.81955 0.68100 1.17453
 H390 H 0.83634 0.66296 1.15427
 N391 N 0.86736 0.19576 0.67992
 N392 N 0.86711 0.18007 0.69605
 C393 C 0.88464 0.18388 0.71054
 C394 C 0.89663 0.20284 0.70292
 C395 C 0.88517 0.20988 0.68341
 H396 H 0.88868 0.17341 0.72526
 H397 H 0.88933 0.22438 0.67269
 Cu398 Cu 0.84429 0.15582 0.69611
 Cu399 Cu 0.84440 0.19697 0.65579
 Cu400 Cu 0.80298 0.15461 0.65606
 N401 N 0.82061 0.13243 0.69626
 N402 N 0.80452 0.13213 0.68058
 C403 C 0.79037 0.11447 0.68466
 C404 C 0.79797 0.10294 0.70395
 C405 C 0.81727 0.11486 0.71083
 H406 H 0.77575 0.11024 0.67417
 H407 H 0.82797 0.11115 0.72545
 N408 N 0.80425 0.17888 0.63270
 N409 N 0.81973 0.19529 0.63284
 C410 C 0.81570 0.20952 0.61513
 C411 C 0.79690 0.20157 0.60317
 C412 C 0.79013 0.18210 0.61478
 H413 H 0.82589 0.22437 0.61099
 H414 H 0.77575 0.17127 0.61062
 H415 H 0.81890 0.18055 0.67400
 H416 H 0.83738 0.16235 0.65536
 N417 N 0.30342 0.36704 0.68066
 N418 N 0.32048 0.36790 0.69528
 C419 C 0.31755 0.38602 0.70922
 C420 C 0.29749 0.39703 0.70311
 C421 C 0.28895 0.38445 0.68493
 H422 H 0.32898 0.39070 0.72297
 H423 H 0.27357 0.38793 0.67527
 Cu424 Cu 0.34437 0.34478 0.69490
 Cu425 Cu 0.30166 0.34385 0.65667
 Cu426 Cu 0.34479 0.30289 0.65592
 N427 N 0.36813 0.32151 0.69500
 N428 N 0.36785 0.30483 0.67992
 C429 C 0.38538 0.29053 0.68412
 C430 C 0.39745 0.29875 0.70276
 C431 C 0.38604 0.31849 0.70919
 H432 H 0.38918 0.27536 0.67423
 H433 H 0.39022 0.32954 0.72342
 N434 N 0.31993 0.30385 0.63318
 N435 N 0.30320 0.31903 0.63376
 C436 C 0.28885 0.31496 0.61619
 C437 C 0.29705 0.29647 0.60385
 C438 C 0.31678 0.28991 0.61512
 H439 H 0.27384 0.32503 0.61228
 H440 H 0.32794 0.27589 0.61054
 H441 H 0.31915 0.31882 0.67429
 H442 H 0.33627 0.33729 0.65470
 N443 N 0.30347 0.86715 0.18049
 N444 N 0.32044 0.86794 0.19522
 C445 C 0.31755 0.88609 0.20911
 C446 C 0.29758 0.89719 0.20287
 C447 C 0.28908 0.88466 0.18464
 H448 H 0.32894 0.89078 0.22291
 H449 H 0.27379 0.88819 0.17486
 Cu450 Cu 0.34427 0.84478 0.19495
 Cu451 Cu 0.30170 0.84393 0.15654
 Cu452 Cu 0.34477 0.80293 0.15588
 N453 N 0.36800 0.82150 0.19505
 N454 N 0.36779 0.80489 0.17989
 C455 C 0.38539 0.79063 0.18404
 C456 C 0.39738 0.79883 0.20273
 C457 C 0.38591 0.81851 0.20924
 H458 H 0.38924 0.77555 0.17406
 H459 H 0.39009 0.82954 0.22350
 N460 N 0.31994 0.80389 0.13314
 N461 N 0.30323 0.81909 0.13370
 C462 C 0.28888 0.81501 0.11612
 C463 C 0.29707 0.79650 0.10382
 C464 C 0.31678 0.78992 0.11510
 H465 H 0.27388 0.82510 0.11219
 H466 H 0.32793 0.77588 0.11055
 H467 H 0.31911 0.81886 0.17425
 H468 H 0.33636 0.83737 0.15474
 N469 N 0.80385 0.36739 0.18029
 N470 N 0.82116 0.36850 0.19460
 C471 C 0.81820 0.38651 0.20865
 C472 C 0.79788 0.39725 0.20291
 C473 C 0.78922 0.38459 0.18484
 H474 H 0.82978 0.39130 0.22225
 H475 H 0.77365 0.38788 0.17543
 Cu476 Cu 0.84521 0.34560 0.19363
 Cu477 Cu 0.80188 0.34407 0.15637
 Cu478 Cu 0.84503 0.30303 0.15560
 N479 N 0.86872 0.32213 0.19431
 N480 N 0.86819 0.30517 0.17954
 C481 C 0.88552 0.29070 0.18402
 C482 C 0.89767 0.29908 0.20255
 C483 C 0.88652 0.31909 0.20862
 H484 H 0.88914 0.27534 0.17437
 H485 H 0.89081 0.33032 0.22267
 N486 N 0.82002 0.30391 0.13296
 N487 N 0.80330 0.31911 0.13356
 C488 C 0.78892 0.31504 0.11601
 C489 C 0.79708 0.29655 0.10366
 C490 C 0.81683 0.28997 0.11490
 H491 H 0.77394 0.32515 0.11209
 H492 H 0.82800 0.27597 0.11028
 H493 H 0.81966 0.31926 0.17407
 H494 H 0.83638 0.33730 0.15377
 N495 N 0.80354 0.86724 0.68052
 N496 N 0.82066 0.86818 0.69507
 C497 C 0.81767 0.88625 0.70905
 C498 C 0.79756 0.89721 0.70301
 C499 C 0.78903 0.88463 0.68483
 H500 H 0.82910 0.89093 0.72278
 H501 H 0.77366 0.88813 0.67516
 Cu502 Cu 0.84461 0.84512 0.69458
 Cu503 Cu 0.80180 0.84403 0.65649
 Cu504 Cu 0.84500 0.80314 0.65568
 N505 N 0.86838 0.82186 0.69473
 N506 N 0.86806 0.80513 0.67970
 C507 C 0.88563 0.79085 0.68390
 C508 C 0.89769 0.79910 0.70252
 C509 C 0.88626 0.81884 0.70893
 H510 H 0.88952 0.77573 0.67397
 H511 H 0.89042 0.82990 0.72313
 N512 N 0.82011 0.80405 0.63296
 N513 N 0.80335 0.81920 0.63357
 C514 C 0.78901 0.81513 0.61598
 C515 C 0.79725 0.79669 0.60360
 C516 C 0.81699 0.79014 0.61487
 H517 H 0.77400 0.82519 0.61206
 H518 H 0.82819 0.77616 0.61025
 H519 H 0.81939 0.81903 0.67415
 H520 H 0.83641 0.83747 0.65444
 N521 N 0.69671 0.63410 0.68167
 N522 N 0.67989 0.63359 0.69660
 C523 C 0.68288 0.61557 0.71069
 C524 C 0.70276 0.60429 0.70438
 C525 C 0.71109 0.61661 0.68592
 H526 H 0.67153 0.61102 0.72457
 H527 H 0.72619 0.61277 0.67593
 Cu528 Cu 0.65568 0.65652 0.69600
 Cu529 Cu 0.69807 0.65660 0.65702
 Cu530 Cu 0.65420 0.69651 0.65476
 N531 N 0.63206 0.68008 0.69548
 N532 N 0.63124 0.69517 0.67881
 C533 C 0.61322 0.70910 0.68205
 C534 C 0.60214 0.70255 0.70193
 C535 C 0.61461 0.68407 0.71005
 H536 H 0.60880 0.72330 0.67103
 H537 H 0.61106 0.67413 0.72526
 N538 N 0.67907 0.69531 0.63209
 N539 N 0.69620 0.68066 0.63332
 C540 C 0.71077 0.68480 0.61591
 C541 C 0.70229 0.70281 0.60304
 C542 C 0.68216 0.70899 0.61381
 H543 H 0.72620 0.67517 0.61257
 H544 H 0.67080 0.72272 0.60886
 H545 H 0.68023 0.68197 0.67386
 H546 H 0.66335 0.66224 0.65532
 N547 N 0.69652 0.13237 0.18016
 N548 N 0.67920 0.13121 0.19449
 C549 C 0.68217 0.11315 0.20850
 C550 C 0.70249 0.10243 0.20272
 C551 C 0.71115 0.11515 0.18466
 H552 H 0.67060 0.10832 0.22210
 H553 H 0.72672 0.11189 0.17522
 Cu554 Cu 0.65514 0.15412 0.19360
 Cu555 Cu 0.69847 0.15577 0.15627
 Cu556 Cu 0.65530 0.19680 0.15565
 N557 N 0.63161 0.17760 0.19436
 N558 N 0.63215 0.19460 0.17962
 C559 C 0.61483 0.20907 0.18414
 C560 C 0.60267 0.20066 0.20266
 C561 C 0.61380 0.18062 0.20869
 H562 H 0.61123 0.22446 0.17451
 H563 H 0.60950 0.16935 0.22272
 N564 N 0.68028 0.19599 0.13297
 N565 N 0.69701 0.18080 0.13349
 C566 C 0.71133 0.18491 0.11588
 C567 C 0.70311 0.20343 0.10358
 C568 C 0.68341 0.20998 0.11491
 H569 H 0.72631 0.17482 0.11189
 H570 H 0.67222 0.22398 0.11035
 H571 H 0.68070 0.18049 0.17404
 H572 H 0.66398 0.16252 0.15374
 N573 N 0.19631 0.63265 0.18026
 N574 N 0.17900 0.63142 0.19460
 C575 C 0.18203 0.61332 0.20855
 C576 C 0.20238 0.60268 0.20271
 C577 C 0.21099 0.61546 0.18469
 H578 H 0.17048 0.60840 0.22214
 H579 H 0.22655 0.61226 0.17522
 Cu580 Cu 0.15493 0.65432 0.19379
 Cu581 Cu 0.19819 0.65602 0.15640
 Cu582 Cu 0.15499 0.69698 0.15578
 N583 N 0.13135 0.67775 0.19450
 N584 N 0.13185 0.69473 0.17975
 C585 C 0.11452 0.70918 0.18425
 C586 C 0.10239 0.70077 0.20279
 C587 C 0.11355 0.68075 0.20884
 H588 H 0.11089 0.72456 0.17461
 H589 H 0.10927 0.66950 0.22289
 N590 N 0.17996 0.69620 0.13311
 N591 N 0.19669 0.68102 0.13365
 C592 C 0.21104 0.68513 0.11607
 C593 C 0.20284 0.70364 0.10378
 C594 C 0.18311 0.71019 0.11506
 H595 H 0.22602 0.67503 0.11211
 H596 H 0.17193 0.72419 0.11048
 H597 H 0.18039 0.68075 0.17418
 H598 H 0.16366 0.66272 0.15392
 N599 N 0.19590 0.13214 0.67978
 N600 N 0.18052 0.13270 0.69619
 C601 C 0.18433 0.11511 0.71065
 C602 C 0.20295 0.10275 0.70272
 C603 C 0.20979 0.11406 0.68304
 H604 H 0.17413 0.11132 0.72562
 H605 H 0.22401 0.10962 0.67207
 Cu606 Cu 0.15687 0.15625 0.69672
 Cu607 Cu 0.19721 0.15517 0.65566
 Cu608 Cu 0.15521 0.19705 0.65615
 N609 N 0.13291 0.17949 0.69633
 N610 N 0.13276 0.19568 0.68070
 C611 C 0.11500 0.20981 0.68457
 C612 C 0.10321 0.20201 0.70356
 C613 C 0.11502 0.18266 0.71056
 H614 H 0.11070 0.22443 0.67407
 H615 H 0.11102 0.17191 0.72507
 N616 N 0.17938 0.19561 0.63272
 N617 N 0.19565 0.17994 0.63276
 C618 C 0.20985 0.18391 0.61502
 C619 C 0.20201 0.20284 0.60313
 C620 C 0.18264 0.20976 0.61481
 H621 H 0.22461 0.17359 0.61081
 H622 H 0.17191 0.22426 0.61071
 H623 H 0.18137 0.18105 0.67375
 H624 H 0.16266 0.16248 0.65578
 N625 N 0.30455 0.63164 0.31999
 N626 N 0.32149 0.63102 0.30520
 C627 C 0.31843 0.61314 0.29099
 C628 C 0.29842 0.60208 0.29716
 C629 C 0.29008 0.61433 0.31563
 H630 H 0.32965 0.60873 0.27695
 H631 H 0.27475 0.61077 0.32535
 Cu632 Cu 0.34493 0.65454 0.30572
 Cu633 Cu 0.30241 0.65481 0.34388
 Cu634 Cu 0.34343 0.69784 0.34306
 N635 N 0.36789 0.67852 0.30482
 N636 N 0.36674 0.69583 0.31916
 C637 C 0.38394 0.71044 0.31469
 C638 C 0.39665 0.70180 0.29663
 C639 C 0.38595 0.68149 0.29082
 H640 H 0.38718 0.72599 0.32415
 H641 H 0.39081 0.66993 0.27721
 N642 N 0.31851 0.69648 0.36587
 N643 N 0.30330 0.67980 0.36647
 C644 C 0.28936 0.68301 0.38453
 C645 C 0.29597 0.70272 0.39577
 C646 C 0.31446 0.71085 0.38344
 H647 H 0.27536 0.67188 0.38915
 H648 H 0.32459 0.72579 0.38737
 H649 H 0.31862 0.68013 0.32538
 H650 H 0.33668 0.66331 0.34560
 N651 N 0.30518 0.13106 0.82101
 N652 N 0.32026 0.13203 0.80434
 C653 C 0.31638 0.11468 0.78967
 C654 C 0.29800 0.10210 0.79772
 C655 C 0.29137 0.11300 0.81766
 H656 H 0.32637 0.11122 0.77449
 H657 H 0.27725 0.10839 0.82869
 Cu658 Cu 0.34371 0.15564 0.80395
 Cu659 Cu 0.30374 0.15387 0.84517
 Cu660 Cu 0.34355 0.19775 0.84311
 N661 N 0.36660 0.17979 0.80350
 N662 N 0.36608 0.19653 0.81852
 C663 C 0.38358 0.21090 0.81438
 C664 C 0.39590 0.20262 0.79588
 C665 C 0.38461 0.18283 0.78944
 H666 H 0.38742 0.22592 0.82447
 H667 H 0.38917 0.17154 0.77552
 N668 N 0.31952 0.19577 0.86675
 N669 N 0.30490 0.17863 0.86792
 C670 C 0.29119 0.18169 0.88619
 C671 C 0.29733 0.20180 0.89699
 C672 C 0.31535 0.21029 0.88418
 H673 H 0.27747 0.17032 0.89108
 H674 H 0.32495 0.22571 0.88754
 H675 H 0.31821 0.17991 0.82611
 H676 H 0.33800 0.16287 0.84461
 N677 N 0.80482 0.63243 0.82046
 N678 N 0.82151 0.63201 0.80538
 C679 C 0.81846 0.61406 0.79127
 C680 C 0.79871 0.60272 0.79772
 C681 C 0.79049 0.61492 0.81632
 H682 H 0.82955 0.60977 0.77709
 H683 H 0.77532 0.61121 0.82624
 Cu684 Cu 0.84529 0.65529 0.80523
 Cu685 Cu 0.80311 0.65552 0.84439
 Cu686 Cu 0.84386 0.69853 0.84328
 N687 N 0.86787 0.67973 0.80473
 N688 N 0.86690 0.69689 0.81925
 C689 C 0.88420 0.71142 0.81487
 C690 C 0.89683 0.70284 0.79673
 C691 C 0.88595 0.68269 0.79076
 H692 H 0.88759 0.72687 0.82447
 H693 H 0.89073 0.67116 0.77709
 N694 N 0.81926 0.69712 0.86634
 N695 N 0.80415 0.68039 0.86712
 C696 C 0.79034 0.68362 0.88530
 C697 C 0.79693 0.70343 0.89641
 C698 C 0.81529 0.71157 0.88387
 H699 H 0.77640 0.67246 0.89005
 H700 H 0.82536 0.72660 0.88763
 H701 H 0.81914 0.68072 0.82543
 H702 H 0.83756 0.66378 0.84535
 N703 N 0.80513 0.13134 0.32024
 N704 N 0.82207 0.13085 0.30544
 C705 C 0.81911 0.11302 0.29115
 C706 C 0.79916 0.10183 0.29726
 C707 C 0.79074 0.11397 0.31579
 H708 H 0.83034 0.10874 0.27708
 H709 H 0.77541 0.11032 0.32547
 Cu710 Cu 0.84543 0.15445 0.30607
 Cu711 Cu 0.80290 0.15449 0.34421
 Cu712 Cu 0.84373 0.19774 0.34341
 N713 N 0.86823 0.17858 0.30510
 N714 N 0.86703 0.19588 0.31944
 C715 C 0.88416 0.21056 0.31492
 C716 C 0.89688 0.20196 0.29684
 C717 C 0.88624 0.18162 0.29106
 H718 H 0.88738 0.22612 0.32439
 H719 H 0.89112 0.17006 0.27745
 N720 N 0.81882 0.19623 0.36627
 N721 N 0.80369 0.17948 0.36688
 C722 C 0.78976 0.18263 0.38497
 C723 C 0.79628 0.20237 0.39624
 C724 C 0.81473 0.21058 0.38387
 H725 H 0.77581 0.17143 0.38960
 H726 H 0.82479 0.22557 0.38779
 H727 H 0.81899 0.17992 0.32574
 H728 H 0.83711 0.16319 0.34596
 N729 N 0.69535 0.36799 0.32018
 N730 N 0.67870 0.36828 0.30507
 C731 C 0.68169 0.38620 0.29087
 C732 C 0.70138 0.39762 0.29733
 C733 C 0.70960 0.38555 0.31599
 H734 H 0.67065 0.39039 0.27663
 H735 H 0.72472 0.38936 0.32592
 Cu736 Cu 0.65550 0.34449 0.30513
 Cu737 Cu 0.69733 0.34494 0.34421
 Cu738 Cu 0.65650 0.30177 0.34338
 N739 N 0.63244 0.32057 0.30470
 N740 N 0.63335 0.30350 0.31934
 C741 C 0.61601 0.28900 0.31506
 C742 C 0.60342 0.29752 0.29685
 C743 C 0.61436 0.31761 0.29075
 H744 H 0.61257 0.27361 0.32475
 H745 H 0.60965 0.32904 0.27698
 N746 N 0.68125 0.30331 0.36635
 N747 N 0.69638 0.32005 0.36697
 C748 C 0.71028 0.31688 0.38508
 C749 C 0.70372 0.29713 0.39633
 C750 C 0.68530 0.28894 0.38394
 H751 H 0.72425 0.32804 0.38970
 H752 H 0.67525 0.27393 0.38783
 H753 H 0.68154 0.31933 0.32581
 H754 H 0.66300 0.33644 0.34535
 N755 N 0.69528 0.86739 0.81984
 N756 N 0.67877 0.86747 0.80457
 C757 C 0.68177 0.88537 0.79033
 C758 C 0.70135 0.89695 0.79690
 C759 C 0.70948 0.88500 0.81567
 H760 H 0.67074 0.88951 0.77606
 H761 H 0.72444 0.88900 0.82577
 Cu762 Cu 0.65548 0.84367 0.80473
 Cu763 Cu 0.69703 0.84475 0.84430
 Cu764 Cu 0.65525 0.80262 0.84486
 N765 N 0.63218 0.81986 0.80489
 N766 N 0.63204 0.80411 0.82097
 C767 C 0.61419 0.79002 0.81760
 C768 C 0.60256 0.79715 0.79824
 C769 C 0.61450 0.81613 0.79056
 H770 H 0.61021 0.77540 0.82822
 H771 H 0.61041 0.82659 0.77585
 N772 N 0.68017 0.80405 0.86753
 N773 N 0.69579 0.82034 0.86760
 C774 C 0.70995 0.81699 0.88547
 C775 C 0.70306 0.79755 0.89707
 C776 C 0.68416 0.78977 0.88519
 H777 H 0.72437 0.82775 0.88965
 H778 H 0.67384 0.77503 0.88942
 H779 H 0.68088 0.81884 0.82666
 H780 H 0.66263 0.83719 0.84535
 N781 N 0.19512 0.36798 0.82009
 N782 N 0.17840 0.36829 0.80506
 C783 C 0.18136 0.38622 0.79085
 C784 C 0.20110 0.39764 0.79723
 C785 C 0.20937 0.38554 0.81586
 H786 H 0.17028 0.39041 0.77664
 H787 H 0.22451 0.38935 0.82575
 Cu788 Cu 0.15521 0.34441 0.80522
 Cu789 Cu 0.19720 0.34492 0.84413
 Cu790 Cu 0.15647 0.30167 0.84346
 N791 N 0.13217 0.32041 0.80490
 N792 N 0.13324 0.30331 0.81950
 C793 C 0.11594 0.28873 0.81532
 C794 C 0.10321 0.29719 0.79720
 C795 C 0.11401 0.31737 0.79105
 H796 H 0.11260 0.27334 0.82504
 H797 H 0.10914 0.32879 0.77733
 N798 N 0.18127 0.30328 0.86635
 N799 N 0.19637 0.32004 0.86692
 C800 C 0.21031 0.31690 0.88500
 C801 C 0.20382 0.29714 0.89627
 C802 C 0.18538 0.28892 0.88394
 H803 H 0.22427 0.32809 0.88958
 H804 H 0.17536 0.27390 0.88787
 H805 H 0.18138 0.31929 0.82576
 H806 H 0.16290 0.33636 0.84541
 N807 N 0.19509 0.86827 0.31979
 N808 N 0.17844 0.86858 0.30468
 C809 C 0.18147 0.88648 0.29048
 C810 C 0.20117 0.89787 0.29695
 C811 C 0.20937 0.88580 0.31561
 H812 H 0.17044 0.89069 0.27623
 H813 H 0.22449 0.88960 0.32554
 Cu814 Cu 0.15524 0.84481 0.30474
 Cu815 Cu 0.19709 0.84523 0.34381
 Cu816 Cu 0.15624 0.80212 0.34303
 N817 N 0.13217 0.82093 0.30436
 N818 N 0.13309 0.80387 0.31902
 C819 C 0.11574 0.78937 0.31478
 C820 C 0.10315 0.79786 0.29657
 C821 C 0.11408 0.81794 0.29042
 H822 H 0.11230 0.77401 0.32450
 H823 H 0.10936 0.82936 0.27664
 N824 N 0.18099 0.80364 0.36596
 N825 N 0.19614 0.82036 0.36656
 C826 C 0.21006 0.81718 0.38464
 C827 C 0.20349 0.79745 0.39590
 C828 C 0.18505 0.78927 0.38355
 H829 H 0.22405 0.82833 0.38924
 H830 H 0.17498 0.77427 0.38745
 H831 H 0.18127 0.81963 0.32542
 H832 H 0.16276 0.83677 0.34497
 C833 C 0.25970 1.02107 0.24277
 C834 C 0.24068 1.02124 0.25766
 C835 C 0.23115 1.00040 0.26471
 C836 C 0.24035 0.97946 0.25744
 C837 C 0.25936 0.97934 0.24246
 C838 C 0.26891 1.00019 0.23549
 H839 H 0.28320 1.00020 0.22364
 H840 H 0.21687 1.00047 0.27657
 C841 C 0.25954 0.52116 0.74276
 C842 C 0.24063 0.52122 0.75786
 C843 C 0.23114 0.50034 0.76494
 C844 C 0.24027 0.47939 0.75760
 C845 C 0.25919 0.47932 0.74250
 C846 C 0.26868 0.50021 0.73543
 H847 H 0.28286 0.50018 0.72347
 H848 H 0.21695 0.50039 0.77690
 C849 C 0.75997 -0.02146 0.25753
 C850 C 0.74093 -0.02141 0.24274
 C851 C 0.73163 -0.00055 0.23546
 C852 C 0.74113 0.02035 0.24240
 C853 C 0.76019 0.02030 0.25734
 C854 C 0.76949 -0.00064 0.26455
 H855 H 0.78382 -0.00076 0.27633
 H856 H 0.71730 -0.00063 0.22367
 C857 C 0.75954 0.47921 0.75757
 C858 C 0.74053 0.47939 0.74267
 C859 C 0.73129 0.50042 0.73561
 C860 C 0.74078 0.52125 0.74284
 C861 C 0.75977 0.52102 0.75786
 C862 C 0.76904 0.49997 0.76485
 H863 H 0.78333 0.49974 0.77667
 H864 H 0.71702 0.50056 0.72376
 C865 C 0.25915 0.47872 0.25798
 C866 C 0.24141 0.47882 0.24167
 C867 C 0.23251 0.49964 0.23388
 C868 C 0.24125 0.52053 0.24177
 C869 C 0.25927 0.52046 0.25792
 C870 C 0.26792 0.49953 0.26591
 H871 H 0.28148 0.49942 0.27858
 H872 H 0.21888 0.49958 0.22130
 C873 C 0.75926 1.02104 0.74346
 C874 C 0.74028 1.02107 0.75839
 C875 C 0.73075 1.00016 0.76528
 C876 C 0.74002 0.97924 0.75793
 C877 C 0.75903 0.97926 0.74292
 C878 C 0.76850 1.00021 0.73601
 H879 H 0.78277 1.00033 0.72414
 H880 H 0.71647 1.00019 0.77712
 C881 C 0.75938 0.52101 0.24274
 C882 C 0.74043 0.52111 0.25773
 C883 C 0.73102 0.50025 0.26488
 C884 C 0.74029 0.47931 0.25766
 C885 C 0.75927 0.47924 0.24262
 C886 C 0.76868 0.50013 0.23552
 H887 H 0.78294 0.50016 0.22363
 H888 H 0.71679 0.50029 0.27679
 C889 C 0.25896 -0.02155 0.75858
 C890 C 0.24175 -0.02134 0.74170
 C891 C 0.23361 -0.00046 0.73316
 C892 C 0.24206 0.02040 0.74142
 C893 C 0.25900 0.02025 0.75871
 C894 C 0.26735 -0.00074 0.76696
 H895 H 0.28055 -0.00086 0.77999
 H896 H 0.22047 -0.00046 0.72006
 C897 C 0.24237 0.25917 1.02091
 C898 C 0.25779 0.24053 1.02100
 C899 C 0.26520 0.23128 1.00012
 C900 C 0.25791 0.24043 0.97915
 C901 C 0.24253 0.25911 0.97905
 C902 C 0.23511 0.26835 0.99994
 H903 H 0.22295 0.28237 0.99988
 H904 H 0.27736 0.21726 1.00021
 C905 C 0.24207 0.75916 0.52044
 C906 C 0.25733 0.74039 0.52041
 C907 C 0.26466 0.73120 0.49948
 C908 C 0.25741 0.74055 0.47858
 C909 C 0.24212 0.75930 0.47861
 C910 C 0.23481 0.76849 0.49954
 H911 H 0.22274 0.78259 0.49956
 H912 H 0.27673 0.71711 0.49946
 C913 C 0.25940 0.75787 -0.02081
 C914 C 0.24074 0.74250 -0.02085
 C915 C 0.23152 0.73512 0.00006
 C916 C 0.24069 0.74242 0.02100
 C917 C 0.25932 0.75781 0.02104
 C918 C 0.26855 0.76518 0.00014
 H919 H 0.28255 0.77733 0.00019
 H920 H 0.21752 0.72297 0.00004
 C921 C 0.25954 0.25761 0.47926
 C922 C 0.24076 0.24240 0.47916
 C923 C 0.23137 0.23514 0.50004
 C924 C 0.24051 0.24239 0.52101
 C925 C 0.25926 0.25763 0.52111
 C926 C 0.26865 0.26489 0.50023
 H927 H 0.28274 0.27693 0.50030
 H928 H 0.21728 0.22310 0.49997
 C929 C 0.74162 0.75863 1.02123
 C930 C 0.75877 0.74159 1.02118
 C931 C 0.76704 0.73324 1.00024
 C932 C 0.75872 0.74164 0.97933
 C933 C 0.74186 0.75897 0.97940
 C934 C 0.73345 0.76718 1.00034
 H935 H 0.72038 0.78036 1.00037
 H936 H 0.78010 0.72006 1.00021
 C937 C 0.74228 0.25894 0.52104
 C938 C 0.75749 0.24011 0.52099
 C939 C 0.76477 0.23089 0.50004
 C940 C 0.75754 0.24022 0.47913
 C941 C 0.74228 0.25901 0.47916
 C942 C 0.73501 0.26825 0.50012
 H943 H 0.72298 0.28237 0.50014
 H944 H 0.77681 0.21677 0.50002
 C945 C 0.75915 0.25826 -0.02109
 C946 C 0.74062 0.24273 -0.02115
 C947 C 0.73148 0.23524 -0.00023
 C948 C 0.74064 0.24252 0.02073
 C949 C 0.75917 0.25803 0.02079
 C950 C 0.76829 0.26556 -0.00011
 H951 H 0.78221 0.27780 -0.00005
 H952 H 0.71756 0.22300 -0.00027
 C953 C 0.75940 0.75794 0.47902
 C954 C 0.74080 0.74251 0.47898
 C955 C 0.73164 0.73506 0.49989
 C956 C 0.74080 0.74234 0.52085
 C957 C 0.75941 0.75777 0.52090
 C958 C 0.76860 0.76520 0.49998
 H959 H 0.78257 0.77737 0.50001
 H960 H 0.71766 0.72288 0.49983
 C961 C 1.02076 0.24065 0.25757
 C962 C 1.02086 0.25959 0.24250
 C963 C 1.00000 0.26904 0.23537
 C964 C 0.97906 0.25982 0.24258
 C965 C 0.97896 0.24085 0.25762
 C966 C 0.99983 0.23142 0.26478
 H967 H 0.99979 0.21719 0.27671
 H968 H 1.00005 0.28327 0.22343
 C969 C 0.52070 0.24022 0.75750
 C970 C 0.52085 0.25920 0.74245
 C971 C 0.50000 0.26868 0.73528
 C972 C 0.47904 0.25950 0.74247
 C973 C 0.47888 0.24053 0.75751
 C974 C 0.49972 0.23101 0.76464
 H975 H 0.49961 0.21677 0.77654
 H976 H 0.50007 0.28292 0.72336
 C977 C -0.02098 0.25855 0.75863
 C978 C -0.02103 0.24139 0.74160
 C979 C -0.00015 0.23270 0.73355
 C980 C 0.02077 0.24090 0.74192
 C981 C 0.02083 0.25843 0.75860
 C982 C -0.00005 0.26693 0.76681
 H983 H -0.00004 0.28022 0.77976
 H984 H -0.00019 0.21942 0.72059
 C985 C 0.47944 0.25914 0.25749
 C986 C 0.47941 0.24019 0.24245
 C987 C 0.50030 0.23076 0.23537
 C988 C 0.52121 0.23997 0.24262
 C989 C 0.52124 0.25896 0.25763
 C990 C 0.50034 0.26840 0.26472
 H991 H 0.50032 0.28264 0.27661
 H992 H 0.50029 0.21653 0.22346
 C993 C 1.02100 0.74102 0.75757
 C994 C 1.02110 0.75989 0.74241
 C995 C 1.00025 0.76930 0.73519
 C996 C 0.97931 0.76012 0.74243
 C997 C 0.97919 0.74122 0.75757
 C998 C 1.00005 0.73182 0.76480
 H999 H 0.99999 0.71765 0.77679
 H1000 H 1.00031 0.78346 0.72318
 C1001 C 0.52056 0.74068 0.25766
 C1002 C 0.52061 0.75973 0.24273
 C1003 C 0.49973 0.76913 0.23559
 C1004 C 0.47883 0.75978 0.24268
 C1005 C 0.47877 0.74074 0.25763
 C1006 C 0.49965 0.73134 0.26478
 H1007 H 0.49963 0.71705 0.27663
 H1008 H 0.49975 0.78341 0.22372
 C1009 C -0.02081 0.75933 0.25751
 C1010 C -0.02084 0.74022 0.24266
 C1011 C 0.00005 0.73076 0.23561
 C1012 C 0.02095 0.74007 0.24274
 C1013 C 0.02098 0.75915 0.25761
 C1014 C 0.00010 0.76863 0.26465
 H1015 H 0.00010 0.78295 0.27644
 H1016 H 0.00004 0.71645 0.22380
 C1017 C 0.47872 0.75814 0.75954
 C1018 C 0.47861 0.74291 0.74078
 C1019 C 0.49948 0.73545 0.73156
 C1020 C 0.52043 0.74260 0.74083
 C1021 C 0.52049 0.75789 0.75960
 C1022 C 0.49960 0.76531 0.76883
 H1023 H 0.49958 0.77737 0.78293
 H1024 H 0.49941 0.72338 0.71747
 C1025 C 0.43304 0.30144 0.27338
 C1026 C 0.41794 0.28766 0.28603
 C1027 C 0.42307 0.26433 0.28891
 C1028 C 0.44289 0.25500 0.27936
 C1029 C 0.45803 0.26886 0.26692
 C1030 C 0.45301 0.29215 0.26407
 H1031 H 0.42968 0.31951 0.27108
 H1032 H 0.41170 0.25324 0.29842
 H1033 H 0.44659 0.23702 0.28190
 H1034 H 0.46457 0.30310 0.25459
 C1035 C 0.43041 0.77122 0.80042
 C1036 C 0.41761 0.78765 0.78815
 C1037 C 0.42506 0.79370 0.76596
 C1038 C 0.44462 0.78368 0.75648
 C1039 C 0.45738 0.76776 0.76906
 C1040 C 0.45020 0.76164 0.79107
 H1041 H 0.42568 0.76606 0.81755
 H1042 H 0.41579 0.80600 0.75570
 H1043 H 0.45005 0.78857 0.73942
 H1044 H 0.45994 0.74940 0.80102
 C1045 C -0.07746 0.29002 0.76373
 C1046 C -0.08191 0.28812 0.78732
 C1047 C -0.06641 0.27601 0.80118
 C1048 C -0.04674 0.26631 0.79173
 C1049 C -0.04235 0.26818 0.76821
 C1050 C -0.05787 0.28002 0.75423
 H1051 H -0.08918 0.29907 0.75260
 H1052 H -0.06923 0.27442 0.81943
 H1053 H -0.03486 0.25733 0.80279
 H1054 H -0.05464 0.28178 0.73605
 C1055 C -0.06645 0.80224 0.27393
 C1056 C -0.08186 0.78855 0.28632
 C1057 C -0.07730 0.76505 0.28866
 C1058 C -0.05767 0.75547 0.27896
 C1059 C -0.04220 0.76922 0.26682
 C1060 C -0.04672 0.79267 0.26440
 H1061 H -0.06936 0.82043 0.27202
 H1062 H -0.08892 0.75402 0.29794
 H1063 H -0.05435 0.73738 0.28123
 H1064 H -0.03491 0.80356 0.25518
 C1065 C 0.57697 0.73522 0.28894
 C1066 C 0.58162 0.71173 0.28665
 C1067 C 0.56628 0.69797 0.27430
 C1068 C 0.54653 0.70744 0.26473
 C1069 C 0.54193 0.73087 0.26707
 C1070 C 0.55732 0.74471 0.27919
 H1071 H 0.58854 0.74630 0.29818
 H1072 H 0.56925 0.67979 0.27245
 H1073 H 0.53478 0.69649 0.25552
 H1074 H 0.55394 0.76280 0.28138
 C1075 C 0.57700 0.23480 0.78905
 C1076 C 0.58175 0.21134 0.78669
 C1077 C 0.56648 0.19757 0.77426
 C1078 C 0.54671 0.20700 0.76468
 C1079 C 0.54202 0.23041 0.76706
 C1080 C 0.55734 0.24425 0.77926
 H1081 H 0.58850 0.24589 0.79838
 H1082 H 0.56953 0.17940 0.77236
 H1083 H 0.53502 0.19604 0.75540
 H1084 H 0.55390 0.26232 0.78147
 C1085 C 1.06684 0.69843 0.77421
 C1086 C 1.08209 0.71221 0.78665
 C1087 C 1.07732 0.73566 0.78904
 C1088 C 1.05765 0.74511 0.77928
 C1089 C 1.04235 0.73125 0.76706
 C1090 C 1.04705 0.70785 0.76465
 H1091 H 1.06990 0.68028 0.77228
 H1092 H 1.08882 0.74675 0.79837
 H1093 H 1.05417 0.76317 0.78154
 H1094 H 1.03536 0.69687 0.75540
 C1095 C 1.07713 0.23521 0.28892
 C1096 C 1.08177 0.21172 0.28666
 C1097 C 1.06644 0.19794 0.27432
 C1098 C 1.04670 0.20740 0.26473
 C1099 C 1.04210 0.23084 0.26703
 C1100 C 1.05748 0.24469 0.27915
 H1101 H 1.08869 0.24630 0.29816
 H1102 H 1.06941 0.17976 0.27248
 H1103 H 1.03495 0.19645 0.25552
 H1104 H 1.05411 0.26278 0.28131
 C1105 C 0.56684 0.30162 0.72574
 C1106 C 0.58236 0.28771 0.71370
 C1107 C 0.57767 0.26423 0.71155
 C1108 C 0.55787 0.25488 0.72119
 C1109 C 0.54235 0.26885 0.73306
 C1110 C 0.54696 0.29229 0.73519
 H1111 H 0.56979 0.31981 0.72747
 H1112 H 0.58933 0.25303 0.70252
 H1113 H 0.55450 0.23678 0.71911
 H1114 H 0.53512 0.30338 0.74416
 C1115 C 0.57707 0.76508 0.21143
 C1116 C 0.58169 0.78856 0.21367
 C1117 C 0.56633 0.80235 0.22602
 C1118 C 0.54660 0.79291 0.23563
 C1119 C 0.54202 0.76948 0.23334
 C1120 C 0.55743 0.75562 0.22122
 H1121 H 0.58866 0.75397 0.20218
 H1122 H 0.56928 0.82054 0.22784
 H1123 H 0.53483 0.80390 0.24482
 H1124 H 0.55408 0.73753 0.21906
 C1125 C 1.06693 0.30188 0.22577
 C1126 C 1.08242 0.28789 0.21379
 C1127 C 1.07766 0.26443 0.21165
 C1128 C 1.05782 0.25516 0.22123
 C1129 C 1.04233 0.26920 0.23306
 C1130 C 1.04701 0.29263 0.23519
 H1131 H 1.06995 0.32005 0.22750
 H1132 H 1.08931 0.25317 0.20266
 H1133 H 1.05440 0.23708 0.21917
 H1134 H 1.03519 0.30375 0.24416
 C1135 C 1.07792 0.76470 0.71154
 C1136 C 1.08263 0.78818 0.71358
 C1137 C 1.06712 0.80218 0.72552
 C1138 C 1.04723 0.79293 0.73500
 C1139 C 1.04259 0.76949 0.73297
 C1140 C 1.05810 0.75543 0.72119
 H1141 H 1.08958 0.75343 0.70259
 H1142 H 1.07010 0.82037 0.72717
 H1143 H 1.03539 0.80407 0.74392
 H1144 H 1.05471 0.73733 0.71921
 C1145 C 0.43236 0.72697 0.69839
 C1146 C 0.41734 0.71411 0.71209
 C1147 C 0.42236 0.71130 0.73547
 C1148 C 0.44202 0.72109 0.74490
 C1149 C 0.45709 0.73371 0.73111
 C1150 C 0.45215 0.73651 0.70778
 H1151 H 0.42910 0.72925 0.68029
 H1152 H 0.41105 0.70165 0.74650
 H1153 H 0.44572 0.71847 0.76288
 H1154 H 0.46368 0.74604 0.69683
 C1155 C 0.42266 0.23526 0.21156
 C1156 C 0.41802 0.21176 0.21358
 C1157 C 0.43355 0.19778 0.22553
 C1158 C 0.45340 0.20708 0.23503
 C1159 C 0.45797 0.23054 0.23301
 C1160 C 0.44243 0.24457 0.22121
 H1161 H 0.41097 0.24650 0.20262
 H1162 H 0.43064 0.17958 0.22717
 H1163 H 0.46525 0.19596 0.24396
 H1164 H 0.44577 0.26268 0.21922
 C1165 C -0.06650 0.69754 0.22602
 C1166 C -0.08186 0.71130 0.21363
 C1167 C -0.07727 0.73479 0.21136
 C1168 C -0.05765 0.74428 0.22114
 C1169 C -0.04224 0.73045 0.23329
 C1170 C -0.04679 0.70701 0.23562
 H1171 H -0.06943 0.67935 0.22787
 H1172 H -0.08885 0.74588 0.20209
 H1173 H -0.05431 0.76237 0.21894
 H1174 H -0.03502 0.69604 0.24484
 C1175 C -0.06714 0.22531 0.69923
 C1176 C -0.08254 0.21307 0.71305
 C1177 C -0.07774 0.21053 0.73651
 C1178 C -0.05793 0.22007 0.74594
 C1179 C -0.04249 0.23204 0.73201
 C1180 C -0.04720 0.23453 0.70860
 H1181 H -0.07023 0.22736 0.68108
 H1182 H -0.08935 0.20132 0.74761
 H1183 H -0.05447 0.21787 0.76403
 H1184 H -0.03540 0.24364 0.69758
 C1185 C 0.27273 0.43132 0.29973
 C1186 C 0.28707 0.41709 0.28664
 C1187 C 0.29182 0.42317 0.26382
 C1188 C 0.28252 0.44309 0.25436
 C1189 C 0.26835 0.45723 0.26755
 C1190 C 0.26356 0.45128 0.29029
 H1191 H 0.26891 0.42732 0.31741
 H1192 H 0.30263 0.41254 0.25319
 H1193 H 0.28660 0.44764 0.23685
 H1194 H 0.25277 0.46216 0.30073
 C1195 C 0.30035 -0.06961 0.77176
 C1196 C 0.28723 -0.08391 0.78614
 C1197 C 0.26444 -0.07748 0.79089
 C1198 C 0.25513 -0.05748 0.78157
 C1199 C 0.26847 -0.04320 0.76771
 C1200 C 0.29114 -0.04933 0.76294
 H1201 H 0.31802 -0.07352 0.76791
 H1202 H 0.25351 -0.08799 0.80151
 H1203 H 0.23757 -0.05297 0.78542
 H1204 H 0.30170 -0.03836 0.75236
 C1205 C 0.80004 0.43022 0.76980
 C1206 C 0.78765 0.41725 0.78600
 C1207 C 0.76562 0.42492 0.79226
 C1208 C 0.75636 0.44478 0.78264
 C1209 C 0.76900 0.45767 0.76690
 C1210 C 0.79091 0.45035 0.76062
 H1211 H 0.81706 0.42530 0.76450
 H1212 H 0.75525 0.41558 0.80439
 H1213 H 0.73942 0.45030 0.78774
 H1214 H 0.80090 0.46022 0.74852
 C1215 C 0.80079 -0.06991 0.27044
 C1216 C 0.78820 -0.08311 0.28629
 C1217 C 0.76589 -0.07586 0.29198
 C1218 C 0.75659 -0.05609 0.28223
 C1219 C 0.76945 -0.04293 0.26690
 C1220 C 0.79158 -0.04992 0.26108
 H1221 H 0.81800 -0.07453 0.26554
 H1222 H 0.75535 -0.08541 0.30380
 H1223 H 0.73944 -0.05085 0.28692
 H1224 H 0.80171 -0.03986 0.24925
 C1225 C 0.30208 0.56723 0.72654
 C1226 C 0.28831 0.58254 0.71410
 C1227 C 0.26491 0.57771 0.71154
 C1228 C 0.25550 0.55794 0.72115
 C1229 C 0.26933 0.54258 0.73337
 C1230 C 0.29269 0.54733 0.73593
 H1231 H 0.32019 0.57035 0.72859
 H1232 H 0.25382 0.58923 0.70220
 H1233 H 0.23746 0.55446 0.71880
 H1234 H 0.30365 0.53559 0.74520
 C1235 C 0.30141 1.06832 0.22893
 C1236 C 0.28863 1.08186 0.21365
 C1237 C 0.26601 1.07547 0.20857
 C1238 C 0.25646 1.05591 0.21841
 C1239 C 0.26941 1.04235 0.23335
 C1240 C 0.29191 1.04862 0.23855
 H1241 H 0.31887 1.07263 0.23317
 H1242 H 0.25561 1.08550 0.19700
 H1243 H 0.23910 1.05113 0.21411
 H1244 H 0.30208 1.03825 0.25009
 C1245 C 0.80103 0.56823 0.22844
 C1246 C 0.78785 0.58229 0.21399
 C1247 C 0.76504 0.57615 0.20948
 C1248 C 0.75569 0.55639 0.21912
 C1249 C 0.76900 0.54235 0.23329
 C1250 C 0.79172 0.54834 0.23787
 H1251 H 0.81866 0.57230 0.23222
 H1252 H 0.75434 0.58657 0.19855
 H1253 H 0.73815 0.55185 0.21528
 H1254 H 0.80219 0.53764 0.24881
 C1255 C 0.80017 1.06942 0.73085
 C1256 C 0.78780 1.08227 0.71464
 C1257 C 0.76569 1.07500 0.70853
 C1258 C 0.75627 1.05531 0.71827
 C1259 C 0.76883 1.04245 0.73414
 C1260 C 0.79081 1.04958 0.74037
 H1261 H 0.81723 1.07440 0.73593
 H1262 H 0.75558 1.08444 0.69624
 H1263 H 0.73933 1.04986 0.71317
 H1264 H 0.80069 1.03976 0.75261
 C1265 C 0.73543 0.57797 0.28843
 C1266 C 0.71196 0.58268 0.28632
 C1267 C 0.69803 0.56719 0.27433
 C1268 C 0.70734 0.54729 0.26490
 C1269 C 0.73077 0.54264 0.26703
 C1270 C 0.74475 0.55814 0.27886
 H1271 H 0.74665 0.58963 0.29741
 H1272 H 0.67985 0.57016 0.27263
 H1273 H 0.69627 0.53546 0.25594
 H1274 H 0.76283 0.55472 0.28097
 C1275 C 0.73500 1.07681 0.79100
 C1276 C 0.71197 1.08287 0.78710
 C1277 C 0.69857 1.06839 0.77319
 C1278 C 0.70777 1.04833 0.76393
 C1279 C 0.73070 1.04258 0.76779
 C1280 C 0.74429 1.05703 0.78124
 H1281 H 0.74612 1.08748 0.80124
 H1282 H 0.68070 1.07199 0.77001
 H1283 H 0.69698 1.03725 0.75373
 H1284 H 0.76203 1.05279 0.78449
 C1285 C 0.19841 0.56736 0.77465
 C1286 C 0.21238 0.58276 0.78670
 C1287 C 0.23582 0.57792 0.78890
 C1288 C 0.24508 0.55807 0.77928
 C1289 C 0.23105 0.54269 0.76735
 C1290 C 0.20765 0.54744 0.76520
 H1291 H 0.18025 0.57043 0.77289
 H1292 H 0.24706 0.58951 0.79795
 H1293 H 0.26314 0.55455 0.78139
 H1294 H 0.19652 0.53568 0.75620
 C1295 C 0.19832 1.06738 0.27414
 C1296 C 0.21223 1.08282 0.28621
 C1297 C 0.23569 1.07807 0.28840
 C1298 C 0.24500 1.05824 0.27883
 C1299 C 0.23104 1.04279 0.26691
 C1300 C 0.20763 1.04748 0.26469
 H1301 H 0.18015 1.07038 0.27237
 H1302 H 0.24688 1.08968 0.29746
 H1303 H 0.26306 1.05477 0.28103
 H1304 H 0.19657 1.03569 0.25567
 C1305 C 0.69783 0.43354 0.72636
 C1306 C 0.71150 0.41832 0.71368
 C1307 C 0.73491 0.42311 0.71109
 C1308 C 0.74441 0.44273 0.72086
 C1309 C 0.73068 0.45799 0.73333
 C1310 C 0.70732 0.45328 0.73595
 H1311 H 0.67971 0.43048 0.72846
 H1312 H 0.74593 0.41167 0.70157
 H1313 H 0.76241 0.44623 0.71834
 H1314 H 0.69643 0.46495 0.74538
 C1315 C 0.73507 -0.07650 0.20956
 C1316 C 0.71236 -0.08279 0.21440
 C1317 C 0.69935 -0.06892 0.22919
 C1318 C 0.70871 -0.04904 0.23858
 C1319 C 0.73129 -0.04286 0.23358
 C1320 C 0.74445 -0.05674 0.21912
 H1321 H 0.74566 -0.08677 0.19839
 H1322 H 0.68181 -0.07311 0.23325
 H1323 H 0.69836 -0.03845 0.24973
 H1324 H 0.76188 -0.05205 0.21496
 C1325 C 0.23209 0.42787 0.20341
 C1326 C 0.21223 0.41807 0.21289
 C1327 C 0.20250 0.42826 0.23246
 C1328 C 0.21225 0.44783 0.24211
 C1329 C 0.23186 0.45749 0.23239
 C1330 C 0.24172 0.44746 0.21302
 H1331 H 0.24019 0.42065 0.18843
 H1332 H 0.18725 0.42134 0.24029
 H1333 H 0.20438 0.45560 0.25700
 H1334 H 0.25677 0.45494 0.20523
 C1335 C 0.23404 -0.07390 0.70519
 C1336 C 0.21263 -0.08199 0.71269
 C1337 C 0.20133 -0.07019 0.73041
 C1338 C 0.21100 -0.05061 0.74005
 C1339 C 0.23220 -0.04263 0.73233
 C1340 C 0.24375 -0.05440 0.71497
 H1341 H 0.24336 -0.08249 0.69171
 H1342 H 0.18487 -0.07579 0.73668
 H1343 H 0.20193 -0.04157 0.75346
 H1344 H 0.26010 -0.04827 0.70879
 C1345 C 0.26482 0.28896 0.42275
 C1346 C 0.28820 0.28630 0.41784
 C1347 C 0.30198 0.27385 0.43313
 C1348 C 0.29263 0.26448 0.45305
 C1349 C 0.26928 0.26709 0.45786
 C1350 C 0.25543 0.27937 0.44256
 H1351 H 0.25373 0.29829 0.41121
 H1352 H 0.32009 0.27171 0.42993
 H1353 H 0.30359 0.25514 0.46473
 H1354 H 0.23740 0.28173 0.44609
 C1355 C 0.26433 0.78895 -0.07756
 C1356 C 0.28783 0.78697 -0.08219
 C1357 C 0.30180 0.77507 -0.06662
 C1358 C 0.29251 0.76551 -0.04677
 C1359 C 0.26904 0.76743 -0.04224
 C1360 C 0.25502 0.77923 -0.05777
 H1361 H 0.25309 0.79784 -0.08929
 H1362 H 0.32000 0.77343 -0.06955
 H1363 H 0.30362 0.75657 -0.03492
 H1364 H 0.23690 0.78113 -0.05443
 C1365 C 0.76395 0.28950 -0.07780
 C1366 C 0.78745 0.28759 -0.08245
 C1367 C 0.80146 0.27572 -0.06689
 C1368 C 0.79221 0.26611 -0.04705
 C1369 C 0.76873 0.26793 -0.04250
 C1370 C 0.75466 0.27970 -0.05802
 H1371 H 0.75268 0.29839 -0.08952
 H1372 H 0.81967 0.27416 -0.06982
 H1373 H 0.80336 0.25720 -0.03521
 H1374 H 0.73653 0.28150 -0.05468
 C1375 C 0.76398 0.78893 0.42220
 C1376 C 0.78736 0.78651 0.41718
 C1377 C 0.80140 0.77450 0.43259
 C1378 C 0.79229 0.76524 0.45268
 C1379 C 0.76893 0.76753 0.45756
 C1380 C 0.75484 0.77946 0.44219
 H1381 H 0.75270 0.79795 0.41059
 H1382 H 0.81952 0.77257 0.42936
 H1383 H 0.80344 0.75617 0.46439
 H1384 H 0.73679 0.78159 0.44578
 C1385 C 0.72601 0.30120 0.56742
 C1386 C 0.71391 0.28728 0.58287
 C1387 C 0.71144 0.26389 0.57794
 C1388 C 0.72090 0.25461 0.55800
 C1389 C 0.73287 0.26858 0.54256
 C1390 C 0.73525 0.29196 0.54737
 H1391 H 0.72800 0.31933 0.57058
 H1392 H 0.70237 0.25269 0.58957
 H1393 H 0.71868 0.23656 0.55447
 H1394 H 0.74435 0.30303 0.53561
 C1395 C 0.69935 0.77485 1.06745
 C1396 C 0.71332 0.78638 1.08322
 C1397 C 0.73680 0.78858 1.07854
 C1398 C 0.74610 0.77937 1.05849
 C1399 C 0.73205 0.76800 1.04273
 C1400 C 0.70861 0.76590 1.04730
 H1401 H 0.68117 0.77309 1.07044
 H1402 H 0.74802 0.79723 1.09045
 H1403 H 0.76422 0.78126 1.05517
 H1404 H 0.69752 0.75721 1.03527
 C1405 C 0.22551 0.30132 1.06705
 C1406 C 0.21351 0.28731 1.08249
 C1407 C 0.21127 0.26388 1.07762
 C1408 C 0.22087 0.25467 1.05773
 C1409 C 0.23277 0.26874 1.04233
 C1410 C 0.23492 0.29214 1.04708
 H1411 H 0.22733 0.31948 1.07017
 H1412 H 0.20229 0.25262 1.08927
 H1413 H 0.21885 0.23659 1.05424
 H1414 H 0.24396 0.30327 1.03533
 C1415 C 0.22558 0.80133 0.56667
 C1416 C 0.21353 0.78735 0.58210
 C1417 C 0.21115 0.76394 0.57721
 C1418 C 0.22067 0.75471 0.55730
 C1419 C 0.23262 0.76873 0.54190
 C1420 C 0.23491 0.79212 0.54668
 H1421 H 0.22749 0.81947 0.56981
 H1422 H 0.20212 0.75272 0.58885
 H1423 H 0.21852 0.73665 0.55377
 H1424 H 0.24399 0.80322 0.53493
 C1425 C 0.28868 0.73539 0.57690
 C1426 C 0.28602 0.71204 0.58197
 C1427 C 0.27356 0.69818 0.56680
 C1428 C 0.26420 0.70742 0.54681
 C1429 C 0.26681 0.73075 0.54185
 C1430 C 0.27908 0.74468 0.55704
 H1431 H 0.29801 0.74654 0.58835
 H1432 H 0.27142 0.68009 0.57012
 H1433 H 0.25485 0.69641 0.53522
 H1434 H 0.28143 0.76269 0.55339
 C1435 C 0.28874 0.23598 1.07778
 C1436 C 0.28636 0.21260 1.08282
 C1437 C 0.27429 0.19856 1.06748
 C1438 C 0.26498 0.20768 1.04743
 C1439 C 0.26728 0.23104 1.04251
 C1440 C 0.27922 0.24513 1.05782
 H1441 H 0.29779 0.24725 1.08935
 H1442 H 0.27236 0.18044 1.07074
 H1443 H 0.25590 0.19653 1.03575
 H1444 H 0.28136 0.26318 1.05420
 C1445 C 0.76339 0.71128 1.07834
 C1446 C 0.78684 0.71348 1.08309
 C1447 C 0.80088 0.72507 1.06738
 C1448 C 0.79169 0.73411 1.04724
 C1449 C 0.76827 0.73204 1.04262
 C1450 C 0.75416 0.72058 1.05830
 H1451 H 0.75213 0.70258 1.09020
 H1452 H 0.81904 0.72682 1.07043
 H1453 H 0.80282 0.74286 1.03528
 H1454 H 0.73605 0.71871 1.05492
 C1455 C 0.78902 0.23495 0.57739
 C1456 C 0.78644 0.21157 0.58237
 C1457 C 0.77392 0.19776 0.56719
 C1458 C 0.76444 0.20708 0.54730
 C1459 C 0.76698 0.23043 0.54242
 C1460 C 0.77931 0.24431 0.55762
 H1461 H 0.79839 0.24605 0.58885
 H1462 H 0.77182 0.17965 0.57044
 H1463 H 0.75506 0.19609 0.53571
 H1464 H 0.78163 0.26234 0.55403
 C1465 C 0.73607 0.71173 0.42211
 C1466 C 0.71268 0.71416 0.41718
 C1467 C 0.69869 0.72619 0.43263
 C1468 C 0.70787 0.73542 0.45268
 C1469 C 0.73124 0.73308 0.45749
 C1470 C 0.74528 0.72117 0.44206
 H1471 H 0.74730 0.70270 0.41047
 H1472 H 0.68056 0.72814 0.42945
 H1473 H 0.69675 0.74447 0.46444
 H1474 H 0.76333 0.71900 0.44559
 C1475 C 0.69863 0.22592 -0.06749
 C1476 C 0.71269 0.21392 -0.08291
 C1477 C 0.73611 0.21173 -0.07798
 C1478 C 0.74526 0.22135 -0.05807
 C1479 C 0.73114 0.23321 -0.04267
 C1480 C 0.70774 0.23532 -0.04749
 H1481 H 0.68048 0.22772 -0.07065
 H1482 H 0.74741 0.20274 -0.08958
 H1483 H 0.76333 0.21933 -0.05453
 H1484 H 0.69655 0.24432 -0.03575
 C1485 C 0.23596 0.71149 -0.07759
 C1486 C 0.21257 0.71394 -0.08252
 C1487 C 0.19860 0.72606 -0.06713
 C1488 C 0.20781 0.73537 -0.04713
 C1489 C 0.23118 0.73303 -0.04233
 C1490 C 0.24520 0.72102 -0.05770
 H1491 H 0.24717 0.70238 -0.08919
 H1492 H 0.18048 0.72802 -0.07030
 H1493 H 0.19671 0.74450 -0.03541
 H1494 H 0.26324 0.71885 -0.05416
 C1495 C 0.19875 0.22618 0.43267
 C1496 C 0.21276 0.21411 0.41727
 C1497 C 0.23613 0.21162 0.42227
 C1498 C 0.24530 0.22104 0.44225
 C1499 C 0.23124 0.23300 0.45763
 C1500 C 0.20789 0.23540 0.45274
 H1501 H 0.18064 0.22816 0.42945
 H1502 H 0.24737 0.20256 0.41067
 H1503 H 0.26333 0.21880 0.44584
 H1504 H 0.19676 0.24448 0.46447
 C1505 C 0.30148 0.43328 0.72562
 C1506 C 0.28754 0.41785 0.71358
 C1507 C 0.26407 0.42263 0.71144
 C1508 C 0.25478 0.44244 0.72111
 C1509 C 0.26879 0.45786 0.73301
 C1510 C 0.29221 0.45316 0.73511
 H1511 H 0.31966 0.43025 0.72732
 H1512 H 0.25285 0.41102 0.70240
 H1513 H 0.23670 0.44590 0.71905
 H1514 H 0.30332 0.46494 0.74411
 C1515 C 0.26422 0.92280 0.21117
 C1516 C 0.28767 0.91802 0.21331
 C1517 C 0.30163 0.93338 0.22541
 C1518 C 0.29236 0.95320 0.23501
 C1519 C 0.26894 0.95790 0.23293
 C1520 C 0.25493 0.94256 0.22094
 H1521 H 0.25299 0.91123 0.20210
 H1522 H 0.31981 0.93033 0.22712
 H1523 H 0.30347 0.96493 0.24407
 H1524 H 0.23685 0.94603 0.21890
 C1525 C 0.80178 0.43348 0.22548
 C1526 C 0.78785 0.41795 0.21354
 C1527 C 0.76433 0.42254 0.21161
 C1528 C 0.75497 0.44227 0.22136
 C1529 C 0.76894 0.45780 0.23315
 C1530 C 0.79242 0.45328 0.23507
 H1531 H 0.81999 0.43062 0.22702
 H1532 H 0.75313 0.41086 0.20265
 H1533 H 0.73685 0.44559 0.21943
 H1534 H 0.80351 0.46514 0.24399
 C1535 C 0.80147 0.93342 0.72566
 C1536 C 0.78755 0.91799 0.71357
 C1537 C 0.76407 0.92271 0.71152
 C1538 C 0.75472 0.94244 0.72132
 C1539 C 0.76869 0.95786 0.73328
 C1540 C 0.79214 0.95323 0.73528
 H1541 H 0.81966 0.93045 0.72731
 H1542 H 0.75288 0.91111 0.70244
 H1543 H 0.73662 0.94582 0.71934
 H1544 H 0.80323 0.96497 0.74434
 C1545 C 0.69864 0.56784 0.72671
 C1546 C 0.71260 0.58328 0.71466
 C1547 C 0.73600 0.57829 0.71224
 C1548 C 0.74522 0.55829 0.72164
 C1549 C 0.73120 0.54285 0.73354
 C1550 C 0.70782 0.54774 0.73591
 H1551 H 0.68051 0.57104 0.72864
 H1552 H 0.74724 0.58987 0.70318
 H1553 H 0.76325 0.55472 0.71940
 H1554 H 0.69670 0.53598 0.74492
 C1555 C 0.73604 0.07710 0.21135
 C1556 C 0.71252 0.08168 0.21329
 C1557 C 0.69860 0.06612 0.22522
 C1558 C 0.70795 0.04631 0.23481
 C1559 C 0.73144 0.04179 0.23289
 C1560 C 0.74541 0.05735 0.22108
 H1561 H 0.74725 0.08880 0.20240
 H1562 H 0.68038 0.06898 0.22678
 H1563 H 0.69686 0.03444 0.24373
 H1564 H 0.76353 0.05404 0.21915
 C1565 C 0.19859 0.56612 0.22474
 C1566 C 0.21250 0.58193 0.21315
 C1567 C 0.23608 0.57757 0.21136
 C1568 C 0.24552 0.55778 0.22094
 C1569 C 0.23155 0.54197 0.23237
 C1570 C 0.20801 0.54625 0.23413
 H1571 H 0.18033 0.56882 0.22617
 H1572 H 0.24726 0.58948 0.20267
 H1573 H 0.26370 0.55464 0.21919
 H1574 H 0.19695 0.53417 0.24278
 C1575 C 0.22528 0.06634 0.69895
 C1576 C 0.21324 0.08187 0.71283
 C1577 C 0.21106 0.07719 0.73636
 C1578 C 0.22078 0.05742 0.74579
 C1579 C 0.23261 0.04189 0.73182
 C1580 C 0.23470 0.04645 0.70833
 H1581 H 0.22706 0.06931 0.68074
 H1582 H 0.20201 0.08889 0.74751
 H1583 H 0.21884 0.05408 0.76393
 H1584 H 0.24367 0.03458 0.69726
 C1585 C 0.30202 0.56591 0.27455
 C1586 C 0.28823 0.58154 0.28654
 C1587 C 0.26469 0.57717 0.28862
 C1588 C 0.25516 0.55749 0.27901
 C1589 C 0.26903 0.54181 0.26728
 C1590 C 0.29252 0.54613 0.26515
 H1591 H 0.32023 0.56869 0.27286
 H1592 H 0.25359 0.58898 0.29759
 H1593 H 0.23702 0.55432 0.28096
 H1594 H 0.30347 0.53414 0.25622
 C1595 C 0.28971 0.07700 0.76390
 C1596 C 0.28774 0.08137 0.78749
 C1597 C 0.27590 0.06569 0.80136
 C1598 C 0.26652 0.04589 0.79190
 C1599 C 0.26849 0.04158 0.76838
 C1600 C 0.28006 0.05728 0.75440
 H1601 H 0.29854 0.08887 0.75276
 H1602 H 0.27426 0.06848 0.81960
 H1603 H 0.25770 0.03390 0.80294
 H1604 H 0.28185 0.05412 0.73621
 C1605 C 0.80238 0.56677 0.77462
 C1606 C 0.78862 0.58207 0.78709
 C1607 C 0.76518 0.57733 0.78950
 C1608 C 0.75574 0.55767 0.77972
 C1609 C 0.76957 0.54234 0.76745
 C1610 C 0.79297 0.54699 0.76505
 H1611 H 0.82053 0.56980 0.77268
 H1612 H 0.75409 0.58885 0.79885
 H1613 H 0.73769 0.55424 0.78199
 H1614 H 0.80394 0.53528 0.75578
 C1615 C 0.80285 0.06591 0.27415
 C1616 C 0.78905 0.08131 0.28645
 C1617 C 0.76556 0.07673 0.28863
 C1618 C 0.75610 0.05711 0.27883
 C1619 C 0.76996 0.04167 0.26675
 C1620 C 0.79341 0.04619 0.26453
 H1621 H 0.82103 0.06882 0.27239
 H1622 H 0.75444 0.08834 0.29784
 H1623 H 0.73800 0.05379 0.28094
 H1624 H 0.80439 0.03439 0.25538
 C1625 C 0.73491 0.42292 0.28905
 C1626 C 0.71147 0.41822 0.28665
 C1627 C 0.69771 0.43353 0.27421
 C1628 C 0.70713 0.45331 0.26466
 C1629 C 0.73053 0.45794 0.26708
 C1630 C 0.74436 0.44259 0.27930
 H1631 H 0.74599 0.41138 0.29838
 H1632 H 0.67956 0.43052 0.27228
 H1633 H 0.69618 0.46506 0.25540
 H1634 H 0.76242 0.44601 0.28156
 C1635 C 0.73478 0.92254 0.78888
 C1636 C 0.71137 0.91771 0.78637
 C1637 C 0.69756 0.93307 0.77403
 C1638 C 0.70691 0.95302 0.76471
 C1639 C 0.73027 0.95777 0.76724
 C1640 C 0.74415 0.94235 0.77935
 H1641 H 0.74590 0.91097 0.79815
 H1642 H 0.67944 0.92995 0.77202
 H1643 H 0.69592 0.96478 0.75552
 H1644 H 0.76218 0.94584 0.78167
 C1645 C 0.19753 0.43362 0.77411
 C1646 C 0.21125 0.41824 0.78652
 C1647 C 0.23471 0.42288 0.78889
 C1648 C 0.24422 0.44254 0.77915
 C1649 C 0.23042 0.45799 0.76698
 C1650 C 0.20701 0.45341 0.76459
 H1651 H 0.17936 0.43066 0.77220
 H1652 H 0.24577 0.41130 0.79819
 H1653 H 0.26229 0.44590 0.78140
 H1654 H 0.19608 0.46521 0.75537
 C1655 C 0.19761 0.93378 0.27383
 C1656 C 0.21132 0.91843 0.28627
 C1657 C 0.23477 0.92306 0.28871
 C1658 C 0.24429 0.94270 0.27900
 C1659 C 0.23050 0.95811 0.26679
 C1660 C 0.20710 0.95355 0.26432
 H1661 H 0.17946 0.93081 0.27187
 H1662 H 0.24581 0.91147 0.29803
 H1663 H 0.26235 0.94607 0.28128
 H1664 H 0.19620 0.96533 0.25505
 C1665 C 0.42272 0.26511 0.71102
 C1666 C 0.41801 0.28857 0.71347
 C1667 C 0.43329 0.30227 0.72597
 C1668 C 0.45305 0.29277 0.73550
 C1669 C 0.45770 0.26936 0.73302
 C1670 C 0.44237 0.25559 0.72076
 H1671 H 0.41121 0.25407 0.70165
 H1672 H 0.43027 0.32044 0.72794
 H1673 H 0.46477 0.30368 0.74481
 H1674 H 0.44579 0.23753 0.71845
 C1675 C 0.42268 0.76527 0.21100
 C1676 C 0.41794 0.78871 0.21344
 C1677 C 0.43312 0.80245 0.22599
 C1678 C 0.45282 0.79298 0.23565
 C1679 C 0.45750 0.76957 0.23320
 C1680 C 0.44227 0.75577 0.22085
 H1681 H 0.41120 0.75421 0.20161
 H1682 H 0.43005 0.82060 0.22797
 H1683 H 0.46447 0.80390 0.24502
 H1684 H 0.44573 0.73771 0.21858
 C1685 C 0.93349 0.30263 0.22575
 C1686 C 0.91815 0.28889 0.21339
 C1687 C 0.92273 0.26538 0.21117
 C1688 C 0.94232 0.25585 0.22099
 C1689 C 0.95772 0.26966 0.23312
 C1690 C 0.95319 0.29312 0.23540
 H1691 H 0.93057 0.32082 0.22756
 H1692 H 0.91115 0.25431 0.20192
 H1693 H 0.94566 0.23775 0.21885
 H1694 H 0.96496 0.30405 0.24461
 C1695 C 0.92302 0.76552 0.71089
 C1696 C 0.91828 0.78899 0.71324
 C1697 C 0.93354 0.80275 0.72568
 C1698 C 0.95330 0.79332 0.73528
 C1699 C 0.95797 0.76990 0.73291
 C1700 C 0.94267 0.75606 0.72069
 H1701 H 0.91152 0.75444 0.70156
 H1702 H 0.93049 0.82092 0.72760
 H1703 H 0.96497 0.80427 0.74459
 H1704 H 0.94608 0.73797 0.71851
 C1705 C 0.56715 0.30141 0.27432
 C1706 C 0.58264 0.28751 0.28639
 C1707 C 0.57796 0.26403 0.28859
 C1708 C 0.55818 0.25468 0.27898
 C1709 C 0.54268 0.26864 0.26706
 C1710 C 0.54729 0.29208 0.26488
 H1711 H 0.57010 0.31960 0.27255
 H1712 H 0.58961 0.25284 0.29765
 H1713 H 0.55480 0.23659 0.28109
 H1714 H 0.53546 0.30315 0.25586
 C1715 C 0.57685 0.78939 0.76474
 C1716 C 0.58181 0.78674 0.78814
 C1717 C 0.56666 0.77414 0.80194
 C1718 C 0.54681 0.76469 0.79261
 C1719 C 0.54194 0.76729 0.76924
 C1720 C 0.55713 0.77966 0.75535
 H1721 H 0.58828 0.79885 0.75364
 H1722 H 0.56988 0.77198 0.82006
 H1723 H 0.53521 0.75532 0.80361
 H1724 H 0.55352 0.78205 0.73732
 C1725 C 0.06654 0.30101 0.77533
 C1726 C 0.08237 0.28710 0.78692
 C1727 C 0.07796 0.26352 0.78883
 C1728 C 0.05813 0.25409 0.77936
 C1729 C 0.04230 0.26809 0.76796
 C1730 C 0.04662 0.29161 0.76608
 H1731 H 0.06929 0.31925 0.77379
 H1732 H 0.08989 0.25233 0.79753
 H1733 H 0.05499 0.23593 0.78116
 H1734 H 0.03453 0.30270 0.75744
 C1735 C 0.06688 0.80169 0.27405
 C1736 C 0.08238 0.78783 0.28616
 C1737 C 0.07770 0.76436 0.28847
 C1738 C 0.05792 0.75497 0.27893
 C1739 C 0.04242 0.76888 0.26697
 C1740 C 0.04701 0.79232 0.26467
 H1741 H 0.06983 0.81986 0.27220
 H1742 H 0.08937 0.75320 0.29755
 H1743 H 0.05455 0.73688 0.28112
 H1744 H 0.03518 0.80335 0.25561
 C1745 C 0.57685 0.71101 0.73563
 C1746 C 0.58147 0.71311 0.71210
 C1747 C 0.56609 0.72539 0.69825
 C1748 C 0.54638 0.73509 0.70766
 C1749 C 0.54182 0.73302 0.73114
 C1750 C 0.55722 0.72094 0.74508
 H1751 H 0.58845 0.70181 0.74677
 H1752 H 0.56902 0.72712 0.68003
 H1753 H 0.53462 0.74421 0.69660
 H1754 H 0.55386 0.71891 0.76321
 C1755 C 0.56679 0.19713 0.22586
 C1756 C 0.58219 0.21087 0.21352
 C1757 C 0.57765 0.23439 0.21133
 C1758 C 0.55805 0.24393 0.22114
 C1759 C 0.54259 0.23012 0.23323
 C1760 C 0.54709 0.20665 0.23548
 H1761 H 0.56968 0.17892 0.22764
 H1762 H 0.58926 0.24546 0.20210
 H1763 H 0.55475 0.26204 0.21900
 H1764 H 0.53527 0.19571 0.24466
 C1765 C 0.06656 0.69724 0.22605
 C1766 C 0.08192 0.71097 0.21365
 C1767 C 0.07734 0.73448 0.21138
 C1768 C 0.05773 0.74402 0.22118
 C1769 C 0.04232 0.73022 0.23334
 C1770 C 0.04686 0.70677 0.23567
 H1771 H 0.06948 0.67905 0.22789
 H1772 H 0.08892 0.74554 0.20210
 H1773 H 0.05439 0.76212 0.21898
 H1774 H 0.03508 0.69584 0.24491
 C1775 C 0.07748 0.23549 0.71109
 C1776 C 0.08236 0.21208 0.71384
 C1777 C 0.06696 0.19835 0.72618
 C1778 C 0.04694 0.20778 0.73528
 C1779 C 0.04218 0.23114 0.73256
 C1780 C 0.05762 0.24496 0.72048
 H1781 H 0.08909 0.24653 0.70182
 H1782 H 0.07013 0.18024 0.72840
 H1783 H 0.03516 0.19687 0.74453
 H1784 H 0.05415 0.26301 0.71812
 C1785 C 0.42188 0.73542 0.28823
 C1786 C 0.41737 0.71190 0.28613
 C1787 C 0.43301 0.69805 0.27420
 C1788 C 0.45287 0.70748 0.26481
 C1789 C 0.45731 0.73096 0.26693
 C1790 C 0.44166 0.74486 0.27869
 H1791 H 0.41011 0.74658 0.29717
 H1792 H 0.43019 0.67984 0.27251
 H1793 H 0.46481 0.69645 0.25590
 H1794 H 0.44490 0.76298 0.28075
 C1795 C 0.43233 0.19844 0.77358
 C1796 C 0.41694 0.21241 0.78570
 C1797 C 0.42196 0.23579 0.78822
 C1798 C 0.44194 0.24497 0.77885
 C1799 C 0.45734 0.23095 0.76688
 C1800 C 0.45243 0.20760 0.76440
 H1801 H 0.42913 0.18032 0.77158
 H1802 H 0.41040 0.24702 0.79735
 H1803 H 0.44554 0.26299 0.78117
 H1804 H 0.46417 0.19649 0.75534
 C1805 C 0.93315 0.69887 0.77426
 C1806 C 0.91764 0.71281 0.78625
 C1807 C 0.92234 0.73630 0.78838
 C1808 C 0.94216 0.74560 0.77879
 C1809 C 0.95769 0.73159 0.76696
 C1810 C 0.95306 0.70815 0.76484
 H1811 H 0.93019 0.68068 0.77255
 H1812 H 0.91067 0.74752 0.79738
 H1813 H 0.94557 0.76368 0.78087
 H1814 H 0.96492 0.69704 0.75593
 C1815 C 0.93322 0.19821 0.27436
 C1816 C 0.91759 0.21207 0.28630
 C1817 C 0.92210 0.23560 0.28835
 C1818 C 0.94186 0.24503 0.27874
 C1819 C 0.95750 0.23111 0.26697
 C1820 C 0.95305 0.20762 0.26491
 H1821 H 0.93041 0.17999 0.27271
 H1822 H 0.91035 0.24676 0.29730
 H1823 H 0.94511 0.26315 0.28075
 H1824 H 0.96498 0.19658 0.25600
 C1825 C 0.26386 0.28864 0.57788
 C1826 C 0.28725 0.28627 0.58285
 C1827 C 0.30127 0.27417 0.56748
 C1828 C 0.29212 0.26481 0.54748
 C1829 C 0.26876 0.26709 0.54263
 C1830 C 0.25468 0.27907 0.55797
 H1831 H 0.25260 0.29772 0.58945
 H1832 H 0.31939 0.27228 0.57067
 H1833 H 0.30327 0.25572 0.53577
 H1834 H 0.23664 0.28122 0.55439
 C1835 C 0.26390 0.78873 0.07783
 C1836 C 0.28728 0.78632 0.08282
 C1837 C 0.30131 0.77424 0.06745
 C1838 C 0.29218 0.76495 0.04741
 C1839 C 0.26882 0.76728 0.04253
 C1840 C 0.25474 0.77923 0.05789
 H1841 H 0.25263 0.79779 0.08942
 H1842 H 0.31943 0.77231 0.07067
 H1843 H 0.30332 0.75586 0.03570
 H1844 H 0.23670 0.78139 0.05430
 C1845 C 0.76385 0.28877 0.07772
 C1846 C 0.78726 0.28641 0.08263
 C1847 C 0.80127 0.27443 0.06716
 C1848 C 0.79211 0.26520 0.04710
 C1849 C 0.76872 0.26746 0.04230
 C1850 C 0.75466 0.27931 0.05776
 H1851 H 0.75260 0.29775 0.08937
 H1852 H 0.81940 0.27254 0.07032
 H1853 H 0.80324 0.25620 0.03532
 H1854 H 0.73660 0.28142 0.05425
 C1855 C 0.76403 0.78876 0.57768
 C1856 C 0.78744 0.78647 0.58260
 C1857 C 0.80147 0.77442 0.56720
 C1858 C 0.79232 0.76506 0.54719
 C1859 C 0.76893 0.76727 0.54239
 C1860 C 0.75485 0.77919 0.55778
 H1861 H 0.75277 0.79780 0.58929
 H1862 H 0.81960 0.77257 0.57037
 H1863 H 0.80347 0.75603 0.53546
 H1864 H 0.73679 0.78127 0.55424
 C1865 C 0.28835 0.73589 0.42182
 C1866 C 0.28586 0.71252 0.41681
 C1867 C 0.27376 0.69852 0.43218
 C1868 C 0.26450 0.70766 0.45223
 C1869 C 0.26690 0.73101 0.45711
 C1870 C 0.27889 0.74507 0.44178
 H1871 H 0.29743 0.74713 0.41023
 H1872 H 0.27177 0.68040 0.42894
 H1873 H 0.25537 0.69655 0.46393
 H1874 H 0.28110 0.76310 0.44539
 C1875 C 0.28900 0.23534 0.92243
 C1876 C 0.28698 0.21183 0.91784
 C1877 C 0.27503 0.19791 0.93341
 C1878 C 0.26549 0.20726 0.95324
 C1879 C 0.26747 0.23074 0.95775
 C1880 C 0.27928 0.24471 0.94220
 H1881 H 0.29792 0.24653 0.91068
 H1882 H 0.27336 0.17971 0.93050
 H1883 H 0.25652 0.19620 0.96510
 H1884 H 0.28120 0.26284 0.94550
 C1885 C 0.78904 0.73687 0.92216
 C1886 C 0.78690 0.71338 0.91746
 C1887 C 0.77523 0.69939 0.93317
 C1888 C 0.76610 0.70865 0.95325
 C1889 C 0.76815 0.73210 0.95782
 C1890 C 0.77965 0.74617 0.94213
 H1891 H 0.79777 0.74810 0.91030
 H1892 H 0.77350 0.68121 0.93018
 H1893 H 0.75733 0.69753 0.96522
 H1894 H 0.78152 0.76429 0.94547
 C1895 C 0.77404 0.19816 0.43269
 C1896 C 0.78612 0.21216 0.41730
 C1897 C 0.78854 0.23555 0.42231
 C1898 C 0.77904 0.24473 0.44227
 C1899 C 0.76706 0.23067 0.45763
 C1900 C 0.76474 0.20731 0.45274
 H1901 H 0.77210 0.18004 0.42946
 H1902 H 0.79761 0.24680 0.41073
 H1903 H 0.78121 0.26277 0.44586
 H1904 H 0.75565 0.19617 0.46444
 C1905 C 0.72591 0.30123 0.43280
 C1906 C 0.71386 0.28727 0.41737
 C1907 C 0.71142 0.26387 0.42233
 C1908 C 0.72086 0.25463 0.44229
 C1909 C 0.73280 0.26864 0.45769
 C1910 C 0.73515 0.29202 0.45285
 H1911 H 0.72788 0.31936 0.42959
 H1912 H 0.70240 0.25265 0.41071
 H1913 H 0.71869 0.23658 0.44583
 H1914 H 0.74424 0.30310 0.46458
 C1915 C 0.72559 0.80133 0.93330
 C1916 C 0.71336 0.78751 0.91791
 C1917 C 0.71086 0.76408 0.92275
 C1918 C 0.72041 0.75468 0.94258
 C1919 C 0.73240 0.76860 0.95799
 C1920 C 0.73485 0.79198 0.95326
 H1921 H 0.72761 0.81947 0.93015
 H1922 H 0.70170 0.75297 0.91111
 H1923 H 0.71827 0.73660 0.94605
 H1924 H 0.74401 0.80297 0.96503
 C1925 C 0.21166 0.26388 0.92224
 C1926 C 0.21403 0.28729 0.91728
 C1927 C 0.22609 0.30127 0.93268
 C1928 C 0.23539 0.29207 0.95271
 C1929 C 0.23309 0.26868 0.95755
 C1930 C 0.22116 0.25465 0.94217
 H1931 H 0.20262 0.25265 0.91064
 H1932 H 0.22801 0.31940 0.92949
 H1933 H 0.24445 0.30318 0.96444
 H1934 H 0.21902 0.23660 0.94573
 C1935 C 0.21119 0.76419 0.42186
 C1936 C 0.21365 0.78758 0.41691
 C1937 C 0.22575 0.80153 0.43230
 C1938 C 0.23502 0.79231 0.45232
 C1939 C 0.23265 0.76893 0.45716
 C1940 C 0.22067 0.75494 0.44179
 H1941 H 0.20213 0.75298 0.41026
 H1942 H 0.22772 0.81966 0.42910
 H1943 H 0.24414 0.80338 0.46404
 H1944 H 0.21848 0.73688 0.44534
 C1945 C 0.69835 0.72506 0.56659
 C1946 C 0.71230 0.71315 0.58218
 C1947 C 0.73581 0.71120 0.57759
 C1948 C 0.74516 0.72096 0.55783
 C1949 C 0.73115 0.73275 0.54227
 C1950 C 0.70768 0.73464 0.54676
 H1951 H 0.68015 0.72666 0.56948
 H1952 H 0.74703 0.70229 0.58934
 H1953 H 0.76329 0.71910 0.55453
 H1954 H 0.69657 0.74358 0.53491
 C1955 C 0.69874 0.22567 0.06716
 C1956 C 0.71284 0.21363 0.08251
 C1957 C 0.73622 0.21132 0.07747
 C1958 C 0.74532 0.22091 0.05751
 C1959 C 0.73117 0.23285 0.04219
 C1960 C 0.70781 0.23504 0.04710
 H1961 H 0.68062 0.22752 0.07042
 H1962 H 0.74753 0.20229 0.08903
 H1963 H 0.76337 0.21886 0.05390
 H1964 H 0.69662 0.24412 0.03543
 C1965 C 0.23602 0.71140 0.07777
 C1966 C 0.21263 0.71381 0.08275
 C1967 C 0.19862 0.72588 0.06735
 C1968 C 0.20777 0.73518 0.04730
 C1969 C 0.23113 0.73286 0.04245
 C1970 C 0.24520 0.72090 0.05782
 H1971 H 0.24727 0.70235 0.08937
 H1972 H 0.18049 0.72781 0.07057
 H1973 H 0.19664 0.74426 0.03559
 H1974 H 0.26325 0.71875 0.05425
 C1975 C 0.23537 0.21071 0.57737
 C1976 C 0.21200 0.21330 0.58233
 C1977 C 0.19818 0.22587 0.56716
 C1978 C 0.20749 0.23538 0.54728
 C1979 C 0.23083 0.23284 0.54242
 C1980 C 0.24472 0.22048 0.55762
 H1981 H 0.24648 0.20130 0.58883
 H1982 H 0.18008 0.22797 0.57040
 H1983 H 0.19650 0.24478 0.53568
 H1984 H 0.26275 0.21816 0.55404
   
