data_POSCAR
  _audit_creation_date              2014-09-24
  _audit_creation_method            'ToBaCCo'
  _symmetry_space_group_name_H-M    'P1'
  _symmetry_Int_Tables_number       1
  _symmetry_cell_setting            triclinic
  loop_
  _symmetry_equiv_pos_as_xyz
 x,y,z
_cell_length_a 84.7893
_cell_length_b 84.8495
_cell_length_c 92.2963
_cell_angle_alpha 89.872000
_cell_angle_beta 89.603500
_cell_angle_gamma 89.314900
loop_
  _atom_site_label
  _atom_site_type_symbol
  _atom_site_fract_x
  _atom_site_fract_y
  _atom_site_fract_z
N1 N 0.36834 0.32711 0.34005
 N2 N 0.36850 0.34082 0.33340
 C3 C 0.38002 0.34070 0.32330
 C4 C 0.38745 0.32612 0.32365
 C5 C 0.37975 0.31778 0.33443
 H6 H 0.38232 0.35019 0.31576
 H7 H 0.38174 0.30562 0.33751
 Cu8 Cu 0.35249 0.35680 0.33728
 Cu9 Cu 0.35231 0.32185 0.35438
 Cu10 Cu 0.32743 0.35242 0.36516
 N11 N 0.33295 0.36891 0.33855
 N12 N 0.32303 0.36716 0.34942
 C13 C 0.31037 0.37661 0.34733
 C14 C 0.31252 0.38469 0.33445
 C15 C 0.32699 0.37951 0.32916
 H16 H 0.30024 0.37734 0.35450
 H17 H 0.33258 0.38279 0.31905
 N18 N 0.32949 0.33255 0.37602
 N19 N 0.33866 0.32076 0.37171
 C20 C 0.33708 0.30865 0.38103
 C21 C 0.32633 0.31304 0.39166
 C22 C 0.32178 0.32825 0.38817
 H23 H 0.34328 0.29749 0.38008
 H24 H 0.31323 0.33553 0.39389
 H25 H 0.33480 0.33823 0.34899
 H26 H 0.35086 0.34462 0.36132
 N27 N 0.36411 0.83258 -0.15327
 N28 N 0.36509 0.84293 -0.16386
 C29 C 0.37637 0.83819 -0.17331
 C30 C 0.38272 0.82406 -0.16832
 C31 C 0.37471 0.82093 -0.15558
 H32 H 0.37926 0.84427 -0.18327
 H33 H 0.37611 0.81061 -0.14879
 Cu34 Cu 0.35078 0.86101 -0.16483
 Cu35 Cu 0.34831 0.83410 -0.13790
 Cu36 Cu 0.31984 0.86317 -0.14187
 N37 N 0.33322 0.87554 -0.16815
 N38 N 0.32123 0.87629 -0.15906
 C39 C 0.31038 0.88651 -0.16414
 C40 C 0.31578 0.89251 -0.17712
 C41 C 0.33039 0.88536 -0.17938
 H42 H 0.29913 0.88906 -0.15900
 H43 H 0.33812 0.88671 -0.18866
 N44 N 0.32038 0.84878 -0.12520
 N45 N 0.33124 0.83765 -0.12360
 C46 C 0.32755 0.82886 -0.11190
 C47 C 0.31367 0.83477 -0.10595
 C48 C 0.30950 0.84736 -0.11461
 H49 H 0.33393 0.81839 -0.10851
 H50 H 0.29883 0.85440 -0.11368
 H51 H 0.33226 0.84472 -0.15153
 H52 H 0.34364 0.85792 -0.13931
 N53 N 0.86542 0.33305 -0.16178
 N54 N 0.86705 0.34645 -0.16876
 C55 C 0.87952 0.34527 -0.17783
 C56 C 0.88596 0.33028 -0.17650
 C57 C 0.87673 0.32286 -0.16616
 H58 H 0.88316 0.35433 -0.18536
 H59 H 0.87776 0.31082 -0.16242
 Cu60 Cu 0.85164 0.36342 -0.16655
 Cu61 Cu 0.84793 0.32922 -0.14858
 Cu62 Cu 0.82345 0.36111 -0.14093
 N63 N 0.83267 0.37652 -0.16729
 N64 N 0.82154 0.37550 -0.15736
 C65 C 0.80959 0.38538 -0.16082
 C66 C 0.81345 0.39297 -0.17362
 C67 C 0.82825 0.38710 -0.17741
 H68 H 0.79879 0.38672 -0.15461
 H69 H 0.83512 0.38985 -0.18697
 N70 N 0.82342 0.34162 -0.12934
 N71 N 0.83260 0.32940 -0.13245
 C72 C 0.82961 0.31772 -0.12299
 C73 C 0.81794 0.32275 -0.11355
 C74 C 0.81423 0.33799 -0.11786
 H75 H 0.83536 0.30627 -0.12304
 H76 H 0.80533 0.34574 -0.11325
 H77 H 0.83190 0.34613 -0.15601
 H78 H 0.84681 0.35229 -0.14242
 N79 N 0.87704 0.83055 0.34172
 N80 N 0.87495 0.84055 0.33099
 C81 C 0.88590 0.83770 0.32066
 C82 C 0.89525 0.82520 0.32510
 C83 C 0.88936 0.82096 0.33857
 H84 H 0.88652 0.84363 0.31029
 H85 H 0.89320 0.81122 0.34527
 Cu86 Cu 0.85673 0.85464 0.33065
 Cu87 Cu 0.86254 0.82950 0.35814
 Cu88 Cu 0.82974 0.85445 0.35750
 N89 N 0.83850 0.86868 0.33036
 N90 N 0.82783 0.86850 0.34078
 C91 C 0.81582 0.87830 0.33722
 C92 C 0.81919 0.88482 0.32379
 C93 C 0.83364 0.87853 0.31982
 H94 H 0.80521 0.87995 0.34362
 H95 H 0.83980 0.88050 0.30969
 N96 N 0.83395 0.83942 0.37342
 N97 N 0.84659 0.83017 0.37372
 C98 C 0.84570 0.82066 0.38537
 C99 C 0.83185 0.82397 0.39271
 C100 C 0.82464 0.83594 0.38488
 H101 H 0.85406 0.81138 0.38796
 H102 H 0.81318 0.84120 0.38697
 H103 H 0.84263 0.83705 0.34699
 H104 H 0.85392 0.85240 0.35682
 N105 N 0.63056 0.66969 0.34752
 N106 N 0.63176 0.65895 0.33732
 C107 C 0.62003 0.66129 0.32770
 C108 C 0.61107 0.67414 0.33229
 C109 C 0.61804 0.67907 0.34490
 H110 H 0.61874 0.65483 0.31770
 H111 H 0.61497 0.68949 0.35107
 Cu112 Cu 0.64995 0.64463 0.33673
 Cu113 Cu 0.64693 0.67301 0.36171
 Cu114 Cu 0.67360 0.64218 0.36585
 N115 N 0.66842 0.63071 0.33701
 N116 N 0.67765 0.62997 0.34839
 C117 C 0.68977 0.62004 0.34562
 C118 C 0.68808 0.61424 0.33178
 C119 C 0.67439 0.62124 0.32658
 H120 H 0.69929 0.61747 0.35304
 H121 H 0.66944 0.61992 0.31589
 N122 N 0.67158 0.65964 0.37978
 N123 N 0.66140 0.67137 0.37813
 C124 C 0.66356 0.68201 0.38867
 C125 C 0.67586 0.67690 0.39723
 C126 C 0.68071 0.66264 0.39134
 H127 H 0.65723 0.69310 0.38963
 H128 H 0.69058 0.65537 0.39472
 H129 H 0.66602 0.66014 0.35306
 H130 H 0.65004 0.64943 0.36286
 N131 N 0.63351 0.17377 -0.15650
 N132 N 0.63184 0.16240 -0.16600
 C133 C 0.62059 0.16661 -0.17555
 C134 C 0.61496 0.18145 -0.17178
 C135 C 0.62341 0.18561 -0.15968
 H136 H 0.61727 0.15967 -0.18483
 H137 H 0.62251 0.19662 -0.15383
 Cu138 Cu 0.64550 0.14384 -0.16580
 Cu139 Cu 0.64896 0.17268 -0.14100
 Cu140 Cu 0.67365 0.13986 -0.14068
 N141 N 0.66338 0.12952 -0.16858
 N142 N 0.67448 0.12826 -0.15877
 C143 C 0.68567 0.11809 -0.16343
 C144 C 0.68140 0.11269 -0.17692
 C145 C 0.66712 0.12014 -0.17990
 H146 H 0.69625 0.11502 -0.15751
 H147 H 0.66016 0.11919 -0.18962
 N148 N 0.67458 0.15657 -0.12605
 N149 N 0.66529 0.16916 -0.12616
 C150 C 0.66950 0.17877 -0.11528
 C151 C 0.68210 0.17188 -0.10809
 C152 C 0.68502 0.15787 -0.11521
 H153 H 0.66423 0.19019 -0.11313
 H154 H 0.69442 0.14951 -0.11298
 H155 H 0.66484 0.15857 -0.15228
 H156 H 0.65046 0.14873 -0.13996
 N157 N 0.12885 0.67345 -0.15361
 N158 N 0.12941 0.66255 -0.16370
 C159 C 0.11822 0.66575 -0.17364
 C160 C 0.11032 0.67941 -0.16946
 C161 C 0.11733 0.68390 -0.15672
 H162 H 0.11659 0.65922 -0.18355
 H163 H 0.11489 0.69458 -0.15069
 Cu164 Cu 0.14609 0.64652 -0.16352
 Cu165 Cu 0.14473 0.67478 -0.13859
 Cu166 Cu 0.17325 0.64529 -0.13702
 N167 N 0.16270 0.63050 -0.16327
 N168 N 0.17326 0.63005 -0.15289
 C169 C 0.18388 0.61854 -0.15579
 C170 C 0.17978 0.61142 -0.16865
 C171 C 0.16625 0.61928 -0.17310
 H172 H 0.19417 0.61591 -0.14932
 H173 H 0.15977 0.61737 -0.18296
 N174 N 0.17108 0.66200 -0.12217
 N175 N 0.16003 0.67309 -0.12275
 C176 C 0.16213 0.68328 -0.11182
 C177 C 0.17517 0.67854 -0.10406
 C178 C 0.18060 0.66498 -0.11086
 H179 H 0.15524 0.69391 -0.11003
 H180 H 0.19112 0.65826 -0.10823
 H181 H 0.16335 0.66289 -0.14902
 H182 H 0.14962 0.65087 -0.13778
 N183 N 0.12968 0.17054 0.34061
 N184 N 0.13023 0.15756 0.33286
 C185 C 0.11939 0.15852 0.32232
 C186 C 0.11158 0.17283 0.32354
 C187 C 0.11839 0.18019 0.33529
 H188 H 0.11765 0.14969 0.31406
 H189 H 0.11577 0.19189 0.33933
 Cu190 Cu 0.14576 0.14110 0.33653
 Cu191 Cu 0.14435 0.17430 0.35638
 Cu192 Cu 0.17528 0.14752 0.35977
 N193 N 0.16472 0.12809 0.33640
 N194 N 0.17631 0.13069 0.34544
 C195 C 0.18837 0.12076 0.34237
 C196 C 0.18408 0.11144 0.33083
 C197 C 0.16897 0.11641 0.32729
 H198 H 0.19963 0.12065 0.34780
 H199 H 0.16185 0.11236 0.31840
 N200 N 0.17206 0.16542 0.37308
 N201 N 0.16046 0.17582 0.37163
 C202 C 0.16202 0.18711 0.38175
 C203 C 0.17511 0.18357 0.39000
 C204 C 0.18121 0.16974 0.38422
 H205 H 0.15438 0.19734 0.38291
 H206 H 0.19184 0.16361 0.38752
 H207 H 0.16215 0.16181 0.34607
 H208 H 0.15102 0.15127 0.36067
 N209 N 0.62541 0.32691 0.66137
 N210 N 0.62541 0.33898 0.67026
 C211 C 0.61494 0.33647 0.68101
 C212 C 0.60797 0.32207 0.67870
 C213 C 0.61487 0.31630 0.66612
 H214 H 0.61296 0.34424 0.69014
 H215 H 0.61294 0.30497 0.66115
 Cu216 Cu 0.63998 0.35619 0.66762
 Cu217 Cu 0.64013 0.32527 0.64512
 Cu218 Cu 0.66979 0.35302 0.64353
 N219 N 0.65815 0.36975 0.66853
 N220 N 0.66985 0.36856 0.65915
 C221 C 0.68121 0.37875 0.66289
 C222 C 0.67629 0.38663 0.67529
 C223 C 0.66164 0.38062 0.67854
 H224 H 0.69241 0.37987 0.65732
 H225 H 0.65432 0.38355 0.68782
 N226 N 0.66745 0.33624 0.62889
 N227 N 0.65615 0.32566 0.62959
 C228 C 0.65821 0.31522 0.61878
 C229 C 0.67138 0.31938 0.61089
 C230 C 0.67697 0.33279 0.61755
 H231 H 0.65103 0.30496 0.61703
 H232 H 0.68755 0.33912 0.61475
 H233 H 0.65758 0.33720 0.65614
 H234 H 0.64592 0.34888 0.64264
 N235 N 0.62635 0.82475 1.15606
 N236 N 0.62577 0.83635 1.16547
 C237 C 0.61543 0.83276 1.17610
 C238 C 0.60920 0.81811 1.17308
 C239 C 0.61634 0.81344 1.16029
 H240 H 0.61317 0.83996 1.18556
 H241 H 0.61491 0.80227 1.15487
 Cu242 Cu 0.63977 0.85417 1.16354
 Cu243 Cu 0.64131 0.82429 1.13997
 Cu244 Cu 0.66817 0.85482 1.13800
 N245 N 0.65771 0.86801 1.16509
 N246 N 0.66896 0.86817 1.15521
 C247 C 0.68005 0.87850 1.15923
 C248 C 0.67551 0.88508 1.17235
 C249 C 0.66125 0.87812 1.17573
 H250 H 0.69074 0.88088 1.15318
 H251 H 0.65407 0.87997 1.18531
 N252 N 0.66779 0.83736 1.12383
 N253 N 0.65735 0.82595 1.12454
 C254 C 0.66038 0.81552 1.11390
 C255 C 0.67336 0.82046 1.10619
 C256 C 0.67784 0.83438 1.11272
 H257 H 0.65402 0.80472 1.11220
 H258 H 0.68793 0.84148 1.10996
 H259 H 0.65834 0.83753 1.15034
 H260 H 0.64471 0.84816 1.13785
 N261 N 0.12552 0.32778 1.16273
 N262 N 0.12540 0.34053 1.17078
 C263 C 0.11454 0.33901 1.18138
 C264 C 0.10745 0.32454 1.17986
 C265 C 0.11468 0.31770 1.16788
 H266 H 0.11241 0.34750 1.18992
 H267 H 0.11267 0.30607 1.16357
 Cu268 Cu 0.14053 0.35714 1.16762
 Cu269 Cu 0.14043 0.32486 1.14674
 Cu270 Cu 0.16779 0.35456 1.14132
 N271 N 0.15959 0.36952 1.16820
 N272 N 0.17032 0.36853 1.15789
 C273 C 0.18238 0.37805 1.16114
 C274 C 0.17910 0.38523 1.17428
 C275 C 0.16449 0.37957 1.17843
 H276 H 0.19294 0.37936 1.15461
 H277 H 0.15796 0.38229 1.18823
 N278 N 0.16657 0.33576 1.12886
 N279 N 0.15640 0.32433 1.13110
 C280 C 0.15922 0.31276 1.12143
 C281 C 0.17171 0.31710 1.11272
 C282 C 0.17612 0.33176 1.11770
 H283 H 0.15292 0.30177 1.12095
 H284 H 0.18592 0.33873 1.11391
 H285 H 0.15808 0.33871 1.15532
 H286 H 0.14408 0.34822 1.14243
 N287 N 0.13082 0.82508 0.65598
 N288 N 0.13065 0.83470 0.66714
 C289 C 0.11974 0.82988 0.67679
 C290 C 0.11265 0.81655 0.67134
 C291 C 0.11995 0.81386 0.65812
 H292 H 0.11753 0.83536 0.68718
 H293 H 0.11779 0.80422 0.65077
 Cu294 Cu 0.14546 0.85194 0.66826
 Cu295 Cu 0.14555 0.82765 0.63972
 Cu296 Cu 0.17707 0.85229 0.64685
 N297 N 0.16013 0.86936 0.66894
 N298 N 0.17254 0.86938 0.66033
 C299 C 0.18180 0.88154 0.66376
 C300 C 0.17482 0.88960 0.67518
 C301 C 0.16109 0.88156 0.67820
 H302 H 0.19320 0.88370 0.65887
 H303 H 0.15292 0.88394 0.68700
 N304 N 0.17667 0.83775 0.63031
 N305 N 0.16474 0.82842 0.62744
 C306 C 0.16851 0.81955 0.61576
 C307 C 0.18348 0.82368 0.61111
 C308 C 0.18822 0.83523 0.62053
 H309 H 0.16114 0.81048 0.61130
 H310 H 0.19949 0.84106 0.62046
 H311 H 0.16216 0.83423 0.65398
 H312 H 0.15368 0.85063 0.64293
 N313 N 0.36892 0.67432 0.66193
 N314 N 0.37076 0.66317 0.67170
 C315 C 0.38121 0.66788 0.68166
 C316 C 0.38622 0.68282 0.67789
 C317 C 0.37820 0.68652 0.66532
 H318 H 0.38448 0.66112 0.69114
 H319 H 0.37874 0.69749 0.65935
 Cu320 Cu 0.35855 0.64403 0.67109
 Cu321 Cu 0.35387 0.67252 0.64612
 Cu322 Cu 0.32822 0.64105 0.64808
 N323 N 0.34233 0.62840 0.67388
 N324 N 0.33045 0.62721 0.66489
 C325 C 0.32050 0.61616 0.66988
 C326 C 0.32651 0.61019 0.68272
 C327 C 0.34035 0.61822 0.68491
 H328 H 0.30944 0.61320 0.66487
 H329 H 0.34808 0.61716 0.69415
 N330 N 0.32803 0.65645 0.63202
 N331 N 0.33777 0.66847 0.63128
 C332 C 0.33422 0.67722 0.61951
 C333 C 0.32165 0.67035 0.61255
 C334 C 0.31805 0.65724 0.62075
 H335 H 0.34004 0.68801 0.61651
 H336 H 0.30853 0.64915 0.61884
 H337 H 0.33853 0.65959 0.65879
 H338 H 0.35137 0.64826 0.64584
 N339 N 0.37104 0.16829 1.16099
 N340 N 0.37171 0.15614 1.16984
 C341 C 0.38254 0.15882 1.18009
 C342 C 0.38904 0.17341 1.17753
 C343 C 0.38150 0.17913 1.16529
 H344 H 0.38503 0.15105 1.18911
 H345 H 0.38296 0.19056 1.16030
 Cu346 Cu 0.35736 0.13865 1.16813
 Cu347 Cu 0.35562 0.16962 1.14539
 Cu348 Cu 0.32657 0.14118 1.14560
 N349 N 0.33946 0.12480 1.17015
 N350 N 0.32740 0.12578 1.16131
 C351 C 0.31625 0.11561 1.16570
 C352 C 0.32165 0.10792 1.17799
 C353 C 0.33641 0.11403 1.18049
 H354 H 0.30484 0.11444 1.16069
 H355 H 0.34407 0.11129 1.18949
 N356 N 0.32790 0.15782 1.13071
 N357 N 0.33890 0.16872 1.13063
 C358 C 0.33602 0.17890 1.11970
 C359 C 0.32256 0.17414 1.11263
 C360 C 0.31777 0.16077 1.11985
 H361 H 0.34286 0.18930 1.11743
 H362 H 0.30729 0.15406 1.11765
 H363 H 0.33912 0.15745 1.15738
 H364 H 0.35043 0.14596 1.14341
 N365 N 0.86912 0.67784 1.16246
 N366 N 0.87250 0.66512 1.17003
 C367 C 0.88441 0.66827 1.17913
 C368 C 0.88864 0.68385 1.17710
 C369 C 0.87871 0.68953 1.16647
 H370 H 0.88915 0.66006 1.18700
 H371 H 0.87815 0.70144 1.16229
 Cu372 Cu 0.85993 0.64627 1.16815
 Cu373 Cu 0.85167 0.67881 1.14893
 Cu374 Cu 0.83461 0.64319 1.14049
 N375 N 0.84333 0.63068 1.16825
 N376 N 0.83349 0.62932 1.15739
 C377 C 0.82308 0.61791 1.16051
 C378 C 0.82650 0.61195 1.17410
 C379 C 0.83948 0.62031 1.17868
 H380 H 0.81342 0.61456 1.15360
 H381 H 0.84550 0.61927 1.18893
 N382 N 0.83197 0.66219 1.12836
 N383 N 0.83814 0.67584 1.13190
 C384 C 0.83422 0.68693 1.12209
 C385 C 0.82438 0.68039 1.11078
 C386 C 0.82362 0.66376 1.11607
 H387 H 0.83795 0.69905 1.12259
 H388 H 0.81719 0.65433 1.11103
 H389 H 0.83834 0.65961 1.15558
 H390 H 0.85564 0.65590 1.14342
 N391 N 0.87275 0.17941 0.65787
 N392 N 0.87370 0.16736 0.66682
 C393 C 0.88401 0.17063 0.67737
 C394 C 0.88990 0.18549 0.67490
 C395 C 0.88253 0.19077 0.66241
 H396 H 0.88659 0.16303 0.68649
 H397 H 0.88374 0.20218 0.65730
 Cu398 Cu 0.86030 0.14920 0.66479
 Cu399 Cu 0.85816 0.17962 0.64154
 Cu400 Cu 0.83446 0.14658 0.63797
 N401 N 0.84258 0.13498 0.66615
 N402 N 0.83250 0.13378 0.65547
 C403 C 0.82129 0.12326 0.65887
 C404 C 0.82403 0.11689 0.67368
 C405 C 0.83843 0.12553 0.67723
 H406 H 0.81154 0.12036 0.65191
 H407 H 0.84476 0.12470 0.68734
 N408 N 0.83397 0.16450 0.62434
 N409 N 0.84272 0.17718 0.62576
 C410 C 0.83867 0.18766 0.61538
 C411 C 0.82678 0.18124 0.60715
 C412 C 0.82411 0.16660 0.61313
 H413 H 0.84353 0.19932 0.61428
 H414 H 0.81515 0.15837 0.60992
 H415 H 0.84167 0.16472 0.65081
 H416 H 0.85722 0.15581 0.63898
 N417 N 0.32651 0.37096 0.65872
 N418 N 0.33725 0.36955 0.66886
 C419 C 0.33397 0.38000 0.67949
 C420 C 0.32047 0.38834 0.67571
 C421 C 0.31611 0.38233 0.66250
 H422 H 0.34045 0.38091 0.68950
 H423 H 0.30565 0.38547 0.65645
 Cu424 Cu 0.35363 0.35324 0.66791
 Cu425 Cu 0.32556 0.35685 0.64227
 Cu426 Cu 0.35284 0.32638 0.64085
 N427 N 0.36813 0.33525 0.66726
 N428 N 0.36779 0.32490 0.65668
 C429 C 0.37829 0.31328 0.65941
 C430 C 0.38560 0.31646 0.67237
 C431 C 0.37889 0.33051 0.67709
 H432 H 0.38008 0.30292 0.65276
 H433 H 0.38116 0.33648 0.68719
 N434 N 0.33677 0.32980 0.62582
 N435 N 0.32633 0.34144 0.62642
 C436 C 0.31604 0.33985 0.61549
 C437 C 0.32017 0.32661 0.60764
 C438 C 0.33340 0.32051 0.61445
 H439 H 0.30578 0.34730 0.61375
 H440 H 0.33955 0.30964 0.61183
 H441 H 0.33574 0.33787 0.65310
 H442 H 0.34917 0.35040 0.64190
 N443 N 0.32919 0.86536 0.16108
 N444 N 0.33974 0.86388 0.17140
 C445 C 0.33657 0.87447 0.18186
 C446 C 0.32341 0.88310 0.17792
 C447 C 0.31901 0.87709 0.16460
 H448 H 0.34290 0.87537 0.19195
 H449 H 0.30880 0.88042 0.15829
 Cu450 Cu 0.35561 0.84721 0.17114
 Cu451 Cu 0.32902 0.85107 0.14446
 Cu452 Cu 0.34928 0.81587 0.15051
 N453 N 0.37094 0.83002 0.17009
 N454 N 0.36825 0.81766 0.16196
 C455 C 0.37919 0.80647 0.16465
 C456 C 0.38926 0.81206 0.17506
 C457 C 0.38374 0.82710 0.17828
 H458 H 0.37917 0.79472 0.16011
 H459 H 0.38796 0.83481 0.18667
 N460 N 0.33383 0.81873 0.13499
 N461 N 0.32634 0.83214 0.13231
 C462 C 0.31657 0.83001 0.12101
 C463 C 0.31815 0.81451 0.11646
 C464 C 0.32915 0.80778 0.12552
 H465 H 0.30860 0.83890 0.11677
 H466 H 0.33328 0.79568 0.12533
 H467 H 0.33437 0.83378 0.15865
 H468 H 0.35085 0.83923 0.14618
 N469 N 0.83357 0.37610 0.15333
 N470 N 0.84317 0.37331 0.16417
 C471 C 0.83907 0.38267 0.17540
 C472 C 0.82622 0.39181 0.17125
 C473 C 0.82310 0.38737 0.15720
 H474 H 0.84463 0.38238 0.18591
 H475 H 0.81355 0.39161 0.15046
 Cu476 Cu 0.85942 0.35702 0.16271
 Cu477 Cu 0.83467 0.36419 0.13537
 Cu478 Cu 0.85455 0.32834 0.13800
 N479 N 0.87105 0.33725 0.16384
 N480 N 0.86891 0.32598 0.15432
 C481 C 0.87772 0.31334 0.15808
 C482 C 0.88575 0.31686 0.17061
 C483 C 0.88125 0.33216 0.17399
 H484 H 0.87805 0.30226 0.15229
 H485 H 0.88470 0.33893 0.18333
 N486 N 0.83963 0.33341 0.12223
 N487 N 0.83252 0.34728 0.12107
 C488 C 0.82256 0.34700 0.10980
 C489 C 0.82338 0.33227 0.10356
 C490 C 0.83434 0.32392 0.11166
 H491 H 0.81463 0.35653 0.10684
 H492 H 0.83764 0.31165 0.11040
 H493 H 0.83972 0.34464 0.14778
 H494 H 0.85644 0.35207 0.13658
 N495 N 0.82844 0.86717 0.65483
 N496 N 0.83901 0.86954 0.66493
 C497 C 0.83395 0.88136 0.67360
 C498 C 0.81944 0.88661 0.66858
 C499 C 0.81635 0.87737 0.65668
 H500 H 0.84005 0.88533 0.68315
 H501 H 0.80576 0.87761 0.65021
 Cu502 Cu 0.85754 0.85590 0.66660
 Cu503 Cu 0.83015 0.84994 0.64104
 Cu504 Cu 0.86648 0.83114 0.63938
 N505 N 0.87309 0.83897 0.66889
 N506 N 0.87653 0.82936 0.65815
 C507 C 0.88701 0.81844 0.66266
 C508 C 0.89031 0.82132 0.67700
 C509 C 0.88132 0.83448 0.68067
 H510 H 0.89151 0.80881 0.65611
 H511 H 0.88035 0.83999 0.69120
 N512 N 0.85043 0.82878 0.62439
 N513 N 0.83641 0.83564 0.62517
 C514 C 0.82752 0.83045 0.61417
 C515 C 0.83638 0.81967 0.60624
 C516 C 0.85083 0.81892 0.61300
 H517 H 0.81527 0.83361 0.61255
 H518 H 0.86058 0.81109 0.61033
 H519 H 0.84673 0.83550 0.65118
 H520 H 0.85375 0.85273 0.64042
 N521 N 0.66956 0.63591 0.65510
 N522 N 0.65840 0.63524 0.66504
 C523 C 0.66172 0.62336 0.67429
 C524 C 0.67568 0.61622 0.66990
 C525 C 0.68032 0.62447 0.65765
 H526 H 0.65476 0.62043 0.68376
 H527 H 0.69094 0.62268 0.65131
 Cu528 Cu 0.64110 0.65051 0.66549
 Cu529 Cu 0.67003 0.65227 0.64023
 Cu530 Cu 0.64215 0.68211 0.64350
 N531 N 0.62727 0.66868 0.66863
 N532 N 0.62777 0.68094 0.65991
 C533 C 0.61779 0.69216 0.66483
 C534 C 0.61062 0.68669 0.67727
 C535 C 0.61688 0.67171 0.67944
 H536 H 0.61623 0.70369 0.66000
 H537 H 0.61456 0.66388 0.68844
 N538 N 0.65770 0.68127 0.62764
 N539 N 0.66843 0.66996 0.62636
 C540 C 0.67809 0.67342 0.61515
 C541 C 0.67314 0.68761 0.60918
 C542 C 0.66021 0.69220 0.61732
 H543 H 0.68836 0.66654 0.61203
 H544 H 0.65360 0.70309 0.61617
 H545 H 0.65927 0.66847 0.65373
 H546 H 0.64643 0.65818 0.64043
 N547 N 0.67672 0.12976 0.15776
 N548 N 0.66507 0.12875 0.16717
 C549 C 0.66792 0.11654 0.17619
 C550 C 0.68215 0.10960 0.17214
 C551 C 0.68736 0.11826 0.16042
 H552 H 0.66069 0.11355 0.18546
 H553 H 0.69855 0.11690 0.15481
 Cu554 Cu 0.64881 0.14507 0.16774
 Cu555 Cu 0.67854 0.14736 0.14432
 Cu556 Cu 0.64473 0.17062 0.14034
 N557 N 0.63254 0.16134 0.16824
 N558 N 0.63103 0.17146 0.15751
 C559 C 0.61930 0.18175 0.16074
 C560 C 0.61329 0.17794 0.17425
 C561 C 0.62197 0.16490 0.17869
 H562 H 0.61570 0.19153 0.15392
 H563 H 0.62093 0.15866 0.18886
 N564 N 0.66294 0.17150 0.12683
 N565 N 0.67570 0.16259 0.12843
 C566 C 0.68621 0.16620 0.11802
 C567 C 0.67993 0.17807 0.10956
 C568 C 0.66514 0.18121 0.11541
 H569 H 0.69784 0.16096 0.11691
 H570 H 0.65682 0.19018 0.11194
 H571 H 0.66293 0.16422 0.15313
 H572 H 0.65475 0.14798 0.14202
 N573 N 0.17048 0.62145 0.14835
 N574 N 0.16103 0.62181 0.15968
 C575 C 0.16682 0.61214 0.16999
 C576 C 0.18063 0.60532 0.16474
 C577 C 0.18257 0.61146 0.15098
 H578 H 0.16155 0.61055 0.18059
 H579 H 0.19225 0.60912 0.14356
 Cu580 Cu 0.14244 0.63539 0.16002
 Cu581 Cu 0.16654 0.63436 0.13128
 Cu582 Cu 0.14117 0.66624 0.13709
 N583 N 0.12822 0.65308 0.16326
 N584 N 0.12783 0.66522 0.15438
 C585 C 0.11787 0.67625 0.15978
 C586 C 0.11180 0.67068 0.17276
 C587 C 0.11862 0.65597 0.17463
 H588 H 0.11574 0.68767 0.15493
 H589 H 0.11721 0.64825 0.18388
 N590 N 0.15557 0.66472 0.12022
 N591 N 0.16498 0.65243 0.11797
 C592 C 0.17418 0.65528 0.10636
 C593 C 0.17040 0.67002 0.10101
 C594 C 0.15852 0.67570 0.11000
 H595 H 0.18361 0.64761 0.10258
 H596 H 0.15311 0.68729 0.10966
 H597 H 0.15907 0.65188 0.14501
 H598 H 0.14330 0.64253 0.13415
 N599 N 0.16722 0.13126 0.65417
 N600 N 0.15640 0.13218 0.66441
 C601 C 0.15987 0.12157 0.67484
 C602 C 0.17360 0.11367 0.67093
 C603 C 0.17789 0.12008 0.65770
 H604 H 0.15330 0.12012 0.68483
 H605 H 0.18828 0.11727 0.65133
 Cu606 Cu 0.13955 0.14799 0.66377
 Cu607 Cu 0.16772 0.14554 0.63773
 Cu608 Cu 0.13892 0.17459 0.63649
 N609 N 0.12422 0.16528 0.66323
 N610 N 0.12389 0.17537 0.65241
 C611 C 0.11308 0.18669 0.65523
 C612 C 0.10631 0.18362 0.66853
 C613 C 0.11360 0.16991 0.67336
 H614 H 0.11093 0.19694 0.64851
 H615 H 0.11194 0.16423 0.68375
 N616 N 0.15517 0.17204 0.62138
 N617 N 0.16630 0.16106 0.62192
 C618 C 0.17673 0.16354 0.61109
 C619 C 0.17191 0.17675 0.60343
 C620 C 0.15820 0.18177 0.61019
 H621 H 0.18752 0.15684 0.60948
 H622 H 0.15155 0.19237 0.60768
 H623 H 0.15671 0.16401 0.64853
 H624 H 0.14392 0.15071 0.63769
 N625 N 0.32402 0.62754 0.33817
 N626 N 0.33681 0.62489 0.33039
 C627 C 0.33411 0.61302 0.32108
 C628 C 0.31876 0.60803 0.32323
 C629 C 0.31277 0.61745 0.33417
 H630 H 0.34241 0.60892 0.31293
 H631 H 0.30084 0.61748 0.33838
 Cu632 Cu 0.35500 0.63843 0.33217
 Cu633 Cu 0.32214 0.64509 0.35156
 Cu634 Cu 0.35624 0.66593 0.35830
 N635 N 0.36967 0.65582 0.33121
 N636 N 0.37031 0.66657 0.34143
 C637 C 0.38123 0.67732 0.33773
 C638 C 0.38762 0.67304 0.32442
 C639 C 0.38002 0.65938 0.32064
 H640 H 0.38388 0.68768 0.34402
 H641 H 0.38161 0.65274 0.31073
 N642 N 0.33708 0.66783 0.37050
 N643 N 0.32408 0.66003 0.36767
 C644 C 0.31287 0.66411 0.37737
 C645 C 0.31901 0.67505 0.38670
 C646 C 0.33443 0.67720 0.38209
 H647 H 0.30098 0.65965 0.37753
 H648 H 0.34292 0.68525 0.38652
 H649 H 0.34002 0.65961 0.34378
 H650 H 0.34548 0.64372 0.35688
 N651 N 0.32258 0.12720 0.84045
 N652 N 0.33275 0.12965 0.82989
 C653 C 0.33062 0.11886 0.81944
 C654 C 0.31838 0.10921 0.82367
 C655 C 0.31358 0.11480 0.83704
 H656 H 0.33689 0.11865 0.80921
 H657 H 0.30368 0.11071 0.84342
 Cu658 Cu 0.34660 0.14773 0.82989
 Cu659 Cu 0.32037 0.14166 0.85666
 Cu660 Cu 0.34813 0.17097 0.85928
 N661 N 0.36373 0.16236 0.83278
 N662 N 0.36441 0.17141 0.84430
 C663 C 0.37664 0.18128 0.84282
 C664 C 0.38401 0.17821 0.82971
 C665 C 0.37554 0.16609 0.82363
 H666 H 0.37950 0.19055 0.85035
 H667 H 0.37729 0.16091 0.81304
 N668 N 0.33240 0.16684 0.87465
 N669 N 0.32176 0.15567 0.87359
 C670 C 0.31191 0.15657 0.88508
 C671 C 0.31654 0.16886 0.89375
 C672 C 0.32961 0.17511 0.88687
 H673 H 0.30165 0.14931 0.88671
 H674 H 0.33607 0.18542 0.89009
 H675 H 0.32989 0.16166 0.84770
 H676 H 0.34397 0.14735 0.85608
 N677 N 0.82297 0.63060 0.83322
 N678 N 0.83629 0.62752 0.82636
 C679 C 0.83383 0.61629 0.81635
 C680 C 0.81808 0.61216 0.81705
 C681 C 0.81160 0.62141 0.82789
 H682 H 0.84264 0.61209 0.80872
 H683 H 0.79933 0.62195 0.83116
 Cu684 Cu 0.85493 0.63989 0.83003
 Cu685 Cu 0.82093 0.64758 0.84725
 Cu686 Cu 0.85513 0.66709 0.85644
 N687 N 0.87034 0.65662 0.83026
 N688 N 0.87050 0.66734 0.84053
 C689 C 0.88182 0.67789 0.83746
 C690 C 0.88899 0.67351 0.82451
 C691 C 0.88143 0.65999 0.82030
 H692 H 0.88412 0.68829 0.84383
 H693 H 0.88342 0.65345 0.81039
 N694 N 0.83522 0.66942 0.86751
 N695 N 0.82223 0.66204 0.86383
 C696 C 0.81056 0.66616 0.87304
 C697 C 0.81637 0.67673 0.88291
 C698 C 0.83209 0.67860 0.87913
 H699 H 0.79858 0.66197 0.87252
 H700 H 0.84051 0.68625 0.88423
 H701 H 0.83987 0.66148 0.84084
 H702 H 0.84376 0.64531 0.85411
 N703 N 0.82398 0.12280 0.34131
 N704 N 0.83583 0.12371 0.33210
 C705 C 0.83394 0.11289 0.32159
 C706 C 0.82017 0.10481 0.32439
 C707 C 0.81419 0.11140 0.33703
 H708 H 0.84171 0.11134 0.31234
 H709 H 0.80329 0.10852 0.34251
 Cu710 Cu 0.85205 0.13952 0.33437
 Cu711 Cu 0.82137 0.13723 0.35754
 Cu712 Cu 0.84753 0.16811 0.35939
 N713 N 0.86497 0.15830 0.33404
 N714 N 0.86324 0.16932 0.34394
 C715 C 0.87311 0.18120 0.34091
 C716 C 0.88143 0.17747 0.32845
 C717 C 0.87598 0.16283 0.32433
 H718 H 0.87384 0.19201 0.34703
 H719 H 0.87937 0.15619 0.31480
 N720 N 0.83074 0.16476 0.37392
 N721 N 0.82068 0.15304 0.37314
 C722 C 0.80993 0.15459 0.38386
 C723 C 0.81338 0.16787 0.39177
 C724 C 0.82667 0.17405 0.38520
 H725 H 0.79993 0.14698 0.38552
 H726 H 0.83248 0.18488 0.38799
 H727 H 0.83221 0.15558 0.34668
 H728 H 0.84462 0.14401 0.35967
 N729 N 0.67535 0.37014 0.34270
 N730 N 0.66504 0.37183 0.33222
 C731 C 0.66991 0.38320 0.32308
 C732 C 0.68404 0.38895 0.32817
 C733 C 0.68712 0.38042 0.34062
 H734 H 0.66393 0.38651 0.31321
 H735 H 0.69750 0.38120 0.34731
 Cu736 Cu 0.64698 0.35814 0.33095
 Cu737 Cu 0.67357 0.35368 0.35737
 Cu738 Cu 0.64433 0.32603 0.35215
 N739 N 0.63262 0.34130 0.32647
 N740 N 0.63137 0.32884 0.33488
 C741 C 0.62096 0.31886 0.32902
 C742 C 0.61552 0.32545 0.31621
 C743 C 0.62320 0.33963 0.31492
 H744 H 0.61804 0.30745 0.33346
 H745 H 0.62226 0.34794 0.30606
 N746 N 0.65879 0.32546 0.36888
 N747 N 0.66983 0.33608 0.37088
 C748 C 0.67829 0.33208 0.38264
 C749 C 0.67234 0.31824 0.38829
 C750 C 0.65999 0.31440 0.37933
 H751 H 0.68845 0.33840 0.38641
 H752 H 0.65281 0.30398 0.38010
 H753 H 0.66285 0.33830 0.34323
 H754 H 0.64960 0.34930 0.35601
 N755 N 0.66920 0.87751 0.84144
 N756 N 0.65788 0.87711 0.83181
 C757 C 0.66126 0.88717 0.82092
 C758 C 0.67550 0.89423 0.82399
 C759 C 0.68016 0.88785 0.83707
 H760 H 0.65423 0.88869 0.81129
 H761 H 0.69110 0.89004 0.84263
 Cu762 Cu 0.64057 0.86252 0.83398
 Cu763 Cu 0.66994 0.86325 0.85799
 Cu764 Cu 0.64255 0.83319 0.85859
 N765 N 0.62676 0.84452 0.83304
 N766 N 0.62746 0.83305 0.84263
 C767 C 0.61711 0.82183 0.83894
 C768 C 0.60964 0.82658 0.82632
 C769 C 0.61607 0.84098 0.82290
 H770 H 0.61560 0.81082 0.84468
 H771 H 0.61350 0.84811 0.81346
 N772 N 0.65880 0.83568 0.87370
 N773 N 0.66887 0.84745 0.87359
 C774 C 0.67885 0.84569 0.88475
 C775 C 0.67505 0.83216 0.89219
 C776 C 0.66224 0.82605 0.88494
 H777 H 0.68875 0.85323 0.88691
 H778 H 0.65630 0.81514 0.88732
 H779 H 0.65901 0.84538 0.84665
 H780 H 0.64628 0.85706 0.85939
 N781 N 0.17130 0.36968 0.85072
 N782 N 0.16132 0.36956 0.83989
 C783 C 0.16618 0.37978 0.82965
 C784 C 0.17994 0.38667 0.83442
 C785 C 0.18279 0.38002 0.84782
 H786 H 0.16038 0.38170 0.81939
 H787 H 0.19276 0.38220 0.85477
 Cu788 Cu 0.14329 0.35558 0.84006
 Cu789 Cu 0.16907 0.35596 0.86750
 Cu790 Cu 0.14435 0.32423 0.86238
 N791 N 0.12931 0.33785 0.83738
 N792 N 0.12987 0.32562 0.84613
 C793 C 0.11968 0.31473 0.84153
 C794 C 0.11238 0.32037 0.82922
 C795 C 0.11875 0.33513 0.82684
 H796 H 0.11799 0.30332 0.84651
 H797 H 0.11632 0.34305 0.81792
 N798 N 0.15975 0.32521 0.87825
 N799 N 0.16902 0.33738 0.88029
 C800 C 0.17883 0.33416 0.89136
 C801 C 0.17552 0.31923 0.89653
 C802 C 0.16335 0.31396 0.88803
 H803 H 0.18812 0.34183 0.89492
 H804 H 0.15798 0.30247 0.88860
 H805 H 0.16135 0.33893 0.85368
 H806 H 0.14595 0.34788 0.86571
 N807 N 0.17404 0.86801 0.34437
 N808 N 0.16228 0.86814 0.33515
 C809 C 0.16535 0.87846 0.32443
 C810 C 0.17985 0.88517 0.32710
 C811 C 0.18501 0.87828 0.33982
 H812 H 0.15792 0.88036 0.31510
 H813 H 0.19614 0.88026 0.34512
 Cu814 Cu 0.14494 0.85358 0.33708
 Cu815 Cu 0.17461 0.85396 0.36114
 Cu816 Cu 0.14369 0.82772 0.36442
 N817 N 0.13229 0.83468 0.33594
 N818 N 0.13207 0.82441 0.34661
 C819 C 0.12305 0.81215 0.34286
 C820 C 0.11732 0.81490 0.32910
 C821 C 0.12340 0.82934 0.32500
 H822 H 0.12101 0.80188 0.34955
 H823 H 0.12193 0.83528 0.31471
 N824 N 0.16073 0.82912 0.37867
 N825 N 0.17271 0.83884 0.37737
 C826 C 0.18298 0.83591 0.38818
 C827 C 0.17713 0.82374 0.39658
 C828 C 0.16305 0.81976 0.39026
 H829 H 0.19417 0.84169 0.38944
 H830 H 0.15545 0.81019 0.39345
 H831 H 0.16146 0.83638 0.35173
 H832 H 0.15083 0.85125 0.36310
 C833 C 0.23804 1.03860 0.24480
 C834 C 0.24471 1.03124 0.23258
 C835 C 0.24342 1.01486 0.23103
 C836 C 0.23671 1.00552 0.24209
 C837 C 0.23065 1.01321 0.25453
 C838 C 0.23096 1.02967 0.25582
 C839 C 0.23631 0.98786 0.24084
 C840 C 0.22519 0.97897 0.24875
 C841 C 0.22558 0.96245 0.24852
 C842 C 0.23631 0.95465 0.23932
 C843 C 0.24725 0.96316 0.23105
 C844 C 0.24736 0.97965 0.23206
 H845 H 0.23789 1.05132 0.24544
 H846 H 0.24784 1.00954 0.22115
 H847 H 0.22581 1.00654 0.26346
 H848 H 0.21624 0.98474 0.25531
 H849 H 0.23583 0.94197 0.23833
 H850 H 0.25638 0.98591 0.22614
 C851 C 0.24839 0.53990 0.75367
 C852 C 0.25678 0.53146 0.74301
 C853 C 0.25700 0.51495 0.74354
 C854 C 0.25008 0.50676 0.75526
 C855 C 0.24235 0.51561 0.76619
 C856 C 0.24088 0.53204 0.76512
 C857 C 0.25078 0.48911 0.75601
 C858 C 0.23885 0.48060 0.76322
 C859 C 0.23968 0.46414 0.76438
 C860 C 0.25189 0.45594 0.75723
 C861 C 0.26352 0.46405 0.74943
 C862 C 0.26328 0.48058 0.74941
 H863 H 0.24767 0.55262 0.75304
 H864 H 0.26272 0.50859 0.73478
 H865 H 0.23721 0.50981 0.77551
 H866 H 0.22885 0.48668 0.76807
 H867 H 0.25229 0.44320 0.75765
 H868 H 0.27279 0.48667 0.74400
 C869 C 0.73728 -0.04763 0.25603
 C870 C 0.74510 -0.03983 0.26723
 C871 C 0.74609 -0.02335 0.26684
 C872 C 0.74061 -0.01466 0.25478
 C873 C 0.73369 -0.02295 0.24324
 C874 C 0.73138 -0.03925 0.24409
 C875 C 0.74182 0.00297 0.25435
 C876 C 0.73093 0.01209 0.24631
 C877 C 0.73209 0.02852 0.24555
 C878 C 0.74344 0.03612 0.25391
 C879 C 0.75400 0.02741 0.26250
 C880 C 0.75360 0.01090 0.26216
 H881 H 0.73584 -0.06026 0.25652
 H882 H 0.75126 -0.01743 0.27598
 H883 H 0.72982 -0.01682 0.23359
 H884 H 0.72145 0.00653 0.24052
 H885 H 0.74399 0.04886 0.25387
 H886 H 0.76234 0.00437 0.26828
 C887 C 0.75747 0.46034 0.73884
 C888 C 0.76460 0.46963 0.74943
 C889 C 0.76462 0.48604 0.74776
 C890 C 0.75817 0.49336 0.73536
 C891 C 0.75123 0.48372 0.72478
 C892 C 0.75037 0.46732 0.72667
 C893 C 0.75870 0.51093 0.73355
 C894 C 0.74724 0.51910 0.72530
 C895 C 0.74797 0.53549 0.72339
 C896 C 0.75953 0.54401 0.73073
 C897 C 0.77060 0.53627 0.73954
 C898 C 0.77059 0.51977 0.74029
 H899 H 0.75798 0.44764 0.73977
 H900 H 0.76964 0.49301 0.75634
 H901 H 0.74645 0.48884 0.71498
 H902 H 0.73770 0.51283 0.72026
 H903 H 0.75978 0.55670 0.72968
 H904 H 0.77979 0.51396 0.74643
 C905 C 0.25002 0.45450 0.25143
 C906 C 0.25800 0.46361 0.26165
 C907 C 0.25863 0.47998 0.25979
 C908 C 0.25197 0.48740 0.24754
 C909 C 0.24426 0.47793 0.23730
 C910 C 0.24276 0.46164 0.23943
 C911 C 0.25299 0.50490 0.24555
 C912 C 0.24134 0.51328 0.23775
 C913 C 0.24238 0.52961 0.23563
 C914 C 0.25454 0.53789 0.24233
 C915 C 0.26587 0.52995 0.25073
 C916 C 0.26545 0.51347 0.25169
 H917 H 0.24996 0.44181 0.25247
 H918 H 0.26429 0.48687 0.26806
 H919 H 0.23932 0.48312 0.22759
 H920 H 0.23135 0.50722 0.23326
 H921 H 0.25508 0.55055 0.24117
 H922 H 0.27477 0.50746 0.25753
 C923 C 0.73897 1.04311 0.73694
 C924 C 0.74749 1.03488 0.72623
 C925 C 0.74708 1.01836 0.72603
 C926 C 0.73923 1.00986 0.73705
 C927 C 0.73112 1.01847 0.74792
 C928 C 0.73073 1.03499 0.74779
 C929 C 0.73980 0.99217 0.73746
 C930 C 0.72783 0.98353 0.74450
 C931 C 0.72896 0.96710 0.74594
 C932 C 0.74142 0.95900 0.73905
 C933 C 0.75309 0.96720 0.73139
 C934 C 0.75256 0.98373 0.73116
 H935 H 0.73837 1.05585 0.73653
 H936 H 0.75309 1.01225 0.71728
 H937 H 0.72530 1.01248 0.75677
 H938 H 0.71767 0.98948 0.74919
 H939 H 0.74208 0.94629 0.73975
 H940 H 0.76219 0.98988 0.72600
 C941 C 0.75640 0.54329 0.25224
 C942 C 0.76525 0.53515 0.24170
 C943 C 0.76486 0.51863 0.24135
 C944 C 0.75666 0.51004 0.25208
 C945 C 0.74835 0.51856 0.26288
 C946 C 0.74788 0.53507 0.26285
 C947 C 0.75680 0.49233 0.25211
 C948 C 0.74442 0.48388 0.25872
 C949 C 0.74494 0.46740 0.25967
 C950 C 0.75719 0.45911 0.25271
 C951 C 0.76917 0.46714 0.24531
 C952 C 0.76932 0.48366 0.24564
 H953 H 0.75571 0.55602 0.25184
 H954 H 0.77105 0.51261 0.23266
 H955 H 0.74227 0.51249 0.27154
 H956 H 0.73433 0.48999 0.26336
 H957 H 0.75736 0.44636 0.25295
 H958 H 0.77917 0.48962 0.24065
 C959 C 0.25969 -0.03881 0.73586
 C960 C 0.26806 -0.03060 0.74644
 C961 C 0.26794 -0.01409 0.74619
 C962 C 0.26014 -0.00557 0.73513
 C963 C 0.25222 -0.01418 0.72438
 C964 C 0.25139 -0.03064 0.72506
 C965 C 0.25999 0.01214 0.73501
 C966 C 0.24785 0.02072 0.72799
 C967 C 0.24787 0.03724 0.72760
 C968 C 0.25925 0.04538 0.73546
 C969 C 0.27098 0.03717 0.74310
 C970 C 0.27179 0.02070 0.74218
 H971 H 0.26000 -0.05155 0.73571
 H972 H 0.27379 -0.00804 0.75489
 H973 H 0.24647 -0.00823 0.71546
 H974 H 0.23832 0.01473 0.72268
 H975 H 0.25891 0.05813 0.73574
 H976 H 0.28153 0.01472 0.74742
 C977 C 0.26033 0.25982 1.04270
 C978 C 0.24868 0.26768 1.03466
 C979 C 0.24937 0.26715 1.01949
 C980 C 0.26181 0.25922 1.01218
 C981 C 0.27353 0.25163 1.02059
 C982 C 0.27248 0.25133 1.03576
 C983 C 0.26221 0.25838 0.99592
 C984 C 0.26993 0.24575 0.98874
 C985 C 0.27001 0.24468 0.97359
 C986 C 0.26193 0.25612 0.96545
 C987 C 0.25370 0.26849 0.97228
 C988 C 0.25444 0.26990 0.98740
 H989 H 0.26020 0.26060 1.05439
 H990 H 0.23986 0.27269 1.01353
 H991 H 0.28346 0.24570 1.01549
 H992 H 0.27564 0.23641 0.99480
 H993 H 0.26242 0.25565 0.95374
 H994 H 0.24871 0.27998 0.99240
 C995 C 0.25627 0.74859 0.53951
 C996 C 0.24512 0.75790 0.53217
 C997 C 0.24641 0.75955 0.51709
 C998 C 0.25954 0.75327 0.50941
 C999 C 0.27108 0.74476 0.51730
 C1000 C 0.26913 0.74179 0.53215
 C1001 C 0.26105 0.75536 0.49328
 C1002 C 0.26984 0.74444 0.48483
 C1003 C 0.27108 0.74610 0.46975
 C1004 C 0.26314 0.75862 0.46293
 C1005 C 0.25379 0.76922 0.47093
 C1006 C 0.25335 0.76798 0.48607
 H1007 H 0.25501 0.74673 0.55106
 H1008 H 0.23713 0.76589 0.51151
 H1009 H 0.28158 0.74019 0.51200
 H1010 H 0.27546 0.73430 0.48979
 H1011 H 0.26437 0.76032 0.45135
 H1012 H 0.24671 0.77678 0.49207
 C1013 C 0.25210 0.75049 -0.03579
 C1014 C 0.25800 0.76352 -0.02838
 C1015 C 0.25470 0.76526 -0.01358
 C1016 C 0.24594 0.75387 -0.00590
 C1017 C 0.24032 0.74073 -0.01363
 C1018 C 0.24281 0.73932 -0.02861
 C1019 C 0.24260 0.75579 0.01002
 C1020 C 0.22953 0.74842 0.01664
 C1021 C 0.22691 0.74954 0.03160
 C1022 C 0.23654 0.75924 0.03991
 C1023 C 0.24954 0.76679 0.03366
 C1024 C 0.25262 0.76483 0.01883
 H1025 H 0.25505 0.74882 -0.04711
 H1026 H 0.25880 0.77577 -0.00825
 H1027 H 0.23386 0.73153 -0.00816
 H1028 H 0.22140 0.74156 0.01034
 H1029 H 0.23372 0.76098 0.05124
 H1030 H 0.26310 0.77017 0.01436
 C1031 C 0.26222 0.23622 0.46171
 C1032 C 0.27493 0.24319 0.46883
 C1033 C 0.27521 0.24326 0.48401
 C1034 C 0.26281 0.23675 0.49223
 C1035 C 0.25015 0.22986 0.48479
 C1036 C 0.24982 0.22948 0.46962
 C1037 C 0.26289 0.23742 0.50846
 C1038 C 0.25482 0.22610 0.51680
 C1039 C 0.25395 0.22727 0.53193
 C1040 C 0.26223 0.23923 0.53895
 C1041 C 0.27067 0.25043 0.53094
 C1042 C 0.27077 0.24959 0.51578
 H1043 H 0.26192 0.23609 0.45001
 H1044 H 0.28530 0.24831 0.48931
 H1045 H 0.24020 0.22510 0.49068
 H1046 H 0.24900 0.21636 0.51163
 H1047 H 0.26249 0.23948 0.55066
 H1048 H 0.27680 0.25871 0.50978
 C1049 C 0.75293 0.75158 1.03502
 C1050 C 0.74459 0.76375 1.02804
 C1051 C 0.74429 0.76414 1.01286
 C1052 C 0.75113 0.75181 1.00458
 C1053 C 0.75876 0.73929 1.01194
 C1054 C 0.76022 0.73944 1.02706
 C1055 C 0.75036 0.75207 0.98836
 C1056 C 0.76239 0.74492 0.97989
 C1057 C 0.76160 0.74487 0.96471
 C1058 C 0.74927 0.75314 0.95791
 C1059 C 0.73739 0.76070 0.96604
 C1060 C 0.73767 0.75959 0.98119
 H1061 H 0.75371 0.75150 1.04671
 H1062 H 0.73858 0.77405 1.00759
 H1063 H 0.76378 0.72944 1.00599
 H1064 H 0.77243 0.73928 0.98501
 H1065 H 0.74887 0.75373 0.94621
 H1066 H 0.72803 0.76483 0.98731
 C1067 C 0.75756 0.26248 0.53835
 C1068 C 0.74528 0.26983 0.53072
 C1069 C 0.74490 0.26859 0.51559
 C1070 C 0.75690 0.26041 0.50787
 C1071 C 0.76934 0.25344 0.51587
 C1072 C 0.76936 0.25388 0.53106
 C1073 C 0.75611 0.25869 0.49168
 C1074 C 0.76365 0.24589 0.48459
 C1075 C 0.76280 0.24408 0.46952
 C1076 C 0.75383 0.25486 0.46141
 C1077 C 0.74578 0.26739 0.46819
 C1078 C 0.74748 0.26958 0.48315
 H1079 H 0.75818 0.26376 0.55000
 H1080 H 0.73491 0.27374 0.51002
 H1081 H 0.77900 0.24742 0.51044
 H1082 H 0.77006 0.23704 0.49068
 H1083 H 0.75357 0.25390 0.44973
 H1084 H 0.74191 0.27982 0.48802
 C1085 C 0.74061 0.25723 -0.03868
 C1086 C 0.74906 0.26928 -0.03198
 C1087 C 0.74895 0.27032 -0.01682
 C1088 C 0.74137 0.25885 -0.00822
 C1089 C 0.73340 0.24656 -0.01526
 C1090 C 0.73285 0.24578 -0.03041
 C1091 C 0.74196 0.25957 0.00800
 C1092 C 0.72975 0.25314 0.01657
 C1093 C 0.73070 0.25299 0.03173
 C1094 C 0.74322 0.26071 0.03844
 C1095 C 0.75527 0.26759 0.03021
 C1096 C 0.75489 0.26644 0.01507
 H1097 H 0.73962 0.25705 -0.05035
 H1098 H 0.75487 0.28011 -0.01181
 H1099 H 0.72778 0.23733 -0.00906
 H1100 H 0.71956 0.24794 0.01156
 H1101 H 0.74372 0.26119 0.05014
 H1102 H 0.76473 0.27101 0.00889
 C1103 C 0.75677 0.74905 0.46112
 C1104 C 0.76366 0.76162 0.46847
 C1105 C 0.76316 0.76190 0.48364
 C1106 C 0.75719 0.74902 0.49163
 C1107 C 0.75088 0.73623 0.48392
 C1108 C 0.74994 0.73654 0.46877
 C1109 C 0.75759 0.74893 0.50788
 C1110 C 0.74672 0.74003 0.51605
 C1111 C 0.74714 0.73983 0.53124
 C1112 C 0.75841 0.74887 0.53843
 C1113 C 0.76918 0.75801 0.53057
 C1114 C 0.76884 0.75781 0.51541
 H1115 H 0.75667 0.74905 0.44940
 H1116 H 0.76766 0.77216 0.48908
 H1117 H 0.74645 0.72600 0.48957
 H1118 H 0.73758 0.73345 0.51074
 H1119 H 0.75874 0.74889 0.55014
 H1120 H 0.77765 0.76448 0.50959
 C1121 C 1.03769 0.24665 0.25153
 C1122 C 1.02953 0.23940 0.26296
 C1123 C 1.01299 0.23995 0.26318
 C1124 C 1.00446 0.24653 0.25151
 C1125 C 1.01300 0.25310 0.23983
 C1126 C 1.02950 0.25380 0.24007
 C1127 C 0.98678 0.24660 0.25150
 C1128 C 0.97824 0.25845 0.24406
 C1129 C 0.96174 0.25819 0.24339
 C1130 C 0.95354 0.24668 0.25125
 C1131 C 0.96170 0.23517 0.25928
 C1132 C 0.97824 0.23483 0.25889
 H1133 H 1.05045 0.24673 0.25155
 H1134 H 1.00688 0.23509 0.27247
 H1135 H 1.00691 0.25790 0.23052
 H1136 H 0.98435 0.26790 0.23860
 H1137 H 0.94079 0.24670 0.25113
 H1138 H 0.98437 0.22538 0.26448
 C1139 C 0.53917 0.23960 0.74670
 C1140 C 0.53100 0.23233 0.75811
 C1141 C 0.51448 0.23330 0.75853
 C1142 C 0.50593 0.24101 0.74745
 C1143 C 0.51447 0.24794 0.73596
 C1144 C 0.53100 0.24780 0.73582
 C1145 C 0.48825 0.24199 0.74800
 C1146 C 0.47999 0.25451 0.74121
 C1147 C 0.46345 0.25523 0.74142
 C1148 C 0.45508 0.24410 0.74959
 C1149 C 0.46303 0.23189 0.75686
 C1150 C 0.47945 0.23050 0.75547
 H1151 H 0.55187 0.23848 0.74601
 H1152 H 0.50843 0.22819 0.76773
 H1153 H 0.50838 0.25362 0.72707
 H1154 H 0.48628 0.26375 0.73562
 H1155 H 0.44235 0.24492 0.75027
 H1156 H 0.48526 0.22048 0.76046
 C1157 C -0.04241 0.26598 0.74465
 C1158 C -0.03411 0.27230 0.75633
 C1159 C -0.01759 0.27145 0.75631
 C1160 C -0.00921 0.26453 0.74465
 C1161 C -0.01784 0.25842 0.73295
 C1162 C -0.03439 0.25862 0.73311
 C1163 C 0.00842 0.26325 0.74493
 C1164 C 0.01632 0.25059 0.73803
 C1165 C 0.03282 0.24942 0.73801
 C1166 C 0.04153 0.26040 0.74589
 C1167 C 0.03393 0.27272 0.75341
 C1168 C 0.01750 0.27444 0.75238
 H1169 H -0.05512 0.26713 0.74436
 H1170 H -0.01139 0.27586 0.76564
 H1171 H -0.01178 0.25330 0.72371
 H1172 H 0.00972 0.24155 0.73257
 H1173 H 0.05423 0.25928 0.74623
 H1174 H 0.01185 0.28443 0.75763
 C1175 C 0.45754 0.25325 0.24702
 C1176 C 0.46579 0.25932 0.25882
 C1177 C 0.48225 0.25781 0.25915
 C1178 C 0.49077 0.25158 0.24723
 C1179 C 0.48217 0.24603 0.23524
 C1180 C 0.46562 0.24613 0.23539
 C1181 C 0.50846 0.25070 0.24745
 C1182 C 0.51680 0.23932 0.23921
 C1183 C 0.53331 0.23832 0.23954
 C1184 C 0.54168 0.24869 0.24839
 C1185 C 0.53369 0.26005 0.25677
 C1186 C 0.51720 0.26112 0.25609
 H1187 H 0.44479 0.25392 0.24696
 H1188 H 0.48829 0.26165 0.26877
 H1189 H 0.48820 0.24135 0.22580
 H1190 H 0.51057 0.23083 0.23274
 H1191 H 0.55440 0.24786 0.24879
 H1192 H 0.51133 0.27032 0.26224
 C1193 C 1.04203 0.74962 0.75134
 C1194 C 1.03389 0.73884 0.76007
 C1195 C 1.01749 0.74045 0.76172
 C1196 C 1.00930 0.75361 0.75595
 C1197 C 1.01801 0.76479 0.74795
 C1198 C 1.03412 0.76248 0.74503
 C1199 C 0.99179 0.75560 0.75811
 C1200 C 0.98274 0.76467 0.74829
 C1201 C 0.96642 0.76660 0.75012
 C1202 C 0.95883 0.75893 0.76162
 C1203 C 0.96738 0.74933 0.77122
 C1204 C 0.98384 0.74824 0.76978
 H1205 H 1.05459 0.74810 0.74961
 H1206 H 1.01133 0.73144 0.76772
 H1207 H 1.01240 0.77535 0.74377
 H1208 H 0.98815 0.77008 0.73891
 H1209 H 0.94630 0.76073 0.76331
 H1210 H 0.99028 0.74146 0.77776
 C1211 C 0.54468 0.74927 0.25632
 C1212 C 0.53627 0.73763 0.26384
 C1213 C 0.51976 0.73863 0.26449
 C1214 C 0.51161 0.75177 0.25872
 C1215 C 0.52044 0.76371 0.25189
 C1216 C 0.53681 0.76220 0.25007
 C1217 C 0.49398 0.75290 0.25946
 C1218 C 0.48558 0.76112 0.24865
 C1219 C 0.46912 0.76245 0.24915
 C1220 C 0.46081 0.75508 0.26041
 C1221 C 0.46880 0.74620 0.27099
 C1222 C 0.48536 0.74562 0.27073
 H1223 H 0.55737 0.74827 0.25537
 H1224 H 0.51338 0.72913 0.26961
 H1225 H 0.51465 0.77418 0.24769
 H1226 H 0.49172 0.76634 0.23955
 H1227 H 0.44815 0.75659 0.26118
 H1228 H 0.49142 0.73936 0.27932
 C1229 C -0.03615 0.74659 0.25489
 C1230 C -0.02795 0.75849 0.26202
 C1231 C -0.01180 0.76024 0.25933
 C1232 C -0.00331 0.74929 0.25072
 C1233 C -0.01180 0.73714 0.24394
 C1234 C -0.02826 0.73622 0.24541
 C1235 C 0.01428 0.75048 0.24901
 C1236 C 0.02223 0.74391 0.23692
 C1237 C 0.03873 0.74441 0.23571
 C1238 C 0.04736 0.75263 0.24612
 C1239 C 0.03973 0.75957 0.25806
 C1240 C 0.02336 0.75813 0.25959
 H1241 H -0.04871 0.74552 0.25664
 H1242 H -0.00596 0.77013 0.26423
 H1243 H -0.00581 0.72838 0.23736
 H1244 H 0.01575 0.73827 0.22836
 H1245 H 0.05993 0.75407 0.24464
 H1246 H 0.01789 0.76290 0.26927
 C1247 C 0.45458 0.74978 0.75898
 C1248 C 0.46291 0.76087 0.76708
 C1249 C 0.47942 0.75978 0.76764
 C1250 C 0.48765 0.74694 0.76127
 C1251 C 0.47882 0.73552 0.75385
 C1252 C 0.46249 0.73726 0.75208
 C1253 C 0.50530 0.74551 0.76218
 C1254 C 0.51397 0.73714 0.75150
 C1255 C 0.53041 0.73556 0.75226
 C1256 C 0.53844 0.74287 0.76359
 C1257 C 0.53025 0.75190 0.77396
 C1258 C 0.51372 0.75266 0.77353
 H1259 H 0.44190 0.75089 0.75810
 H1260 H 0.48571 0.76897 0.77318
 H1261 H 0.48455 0.72524 0.74920
 H1262 H 0.50810 0.73200 0.74232
 H1263 H 0.55106 0.74125 0.76457
 H1264 H 0.50756 0.75898 0.78206
 C1265 C 0.39943 0.32039 0.31326
 C1266 C 0.40622 0.30537 0.31423
 C1267 C 0.41641 0.29850 0.30273
 C1268 C 0.42668 0.28599 0.30621
 C1269 C 0.43584 0.27866 0.29545
 C1270 C 0.43477 0.28367 0.28095
 C1271 C 0.42439 0.29608 0.27747
 C1272 C 0.41533 0.30346 0.28822
 C1273 C 0.44355 0.27575 0.26907
 C1274 C 0.45742 0.26700 0.27107
 H1275 H 0.40399 0.29829 0.32378
 H1276 H 0.42752 0.28178 0.31727
 H1277 H 0.44335 0.26882 0.29848
 H1278 H 0.42318 0.30000 0.26634
 H1279 H 0.40715 0.31268 0.28501
 H1280 H 0.43931 0.27759 0.25815
 H1281 H 0.40265 0.32818 0.30445
 H1282 H 0.46297 0.26678 0.28160
 C1283 C 0.39386 0.81406 0.82518
 C1284 C 0.40147 0.81740 0.81206
 C1285 C 0.41164 0.80563 0.80455
 C1286 C 0.42370 0.81071 0.79520
 C1287 C 0.43314 0.79975 0.78767
 C1288 C 0.43051 0.78349 0.78926
 C1289 C 0.41830 0.77848 0.79843
 C1290 C 0.40898 0.78938 0.80601
 C1291 C 0.43956 0.77140 0.78106
 C1292 C 0.45450 0.77368 0.77497
 H1293 H 0.40014 0.82896 0.80719
 H1294 H 0.42580 0.82317 0.79371
 H1295 H 0.44215 0.80407 0.78038
 H1296 H 0.41586 0.76604 0.79967
 H1297 H 0.39944 0.78501 0.81268
 H1298 H 0.43448 0.75976 0.78048
 H1299 H 0.39650 0.80305 0.83065
 H1300 H 0.46070 0.78452 0.77702
 C1301 C -0.10127 0.32344 0.81451
 C1302 C -0.09747 0.30739 0.81495
 C1303 C -0.08646 0.29963 0.80461
 C1304 C -0.08845 0.28358 0.80165
 C1305 C -0.07882 0.27590 0.79150
 C1306 C -0.06676 0.28402 0.78432
 C1307 C -0.06447 0.30004 0.78751
 C1308 C -0.07423 0.30778 0.79759
 C1309 C -0.05752 0.27569 0.77298
 C1310 C -0.04246 0.28016 0.76850
 H1311 H -0.10390 0.29983 0.82229
 H1312 H -0.09775 0.27702 0.80696
 H1313 H -0.08086 0.26358 0.78918
 H1314 H -0.05547 0.30674 0.78199
 H1315 H -0.07214 0.32008 0.79983
 H1316 H -0.06265 0.26526 0.76829
 H1317 H -0.09566 0.33105 0.80664
 H1318 H -0.03631 0.28916 0.77443
 C1319 C -0.09258 0.81722 0.31623
 C1320 C -0.08566 0.80288 0.32029
 C1321 C -0.07530 0.79356 0.31049
 C1322 C -0.07436 0.77717 0.31237
 C1323 C -0.06547 0.76785 0.30282
 C1324 C -0.05708 0.77474 0.29134
 C1325 C -0.05766 0.79122 0.28964
 C1326 C -0.06661 0.80054 0.29916
 C1327 C -0.04853 0.76436 0.28103
 C1328 C -0.03611 0.76935 0.27218
 H1329 H -0.08911 0.79753 0.33046
 H1330 H -0.08085 0.77151 0.32106
 H1331 H -0.06522 0.75519 0.30436
 H1332 H -0.05157 0.79694 0.28078
 H1333 H -0.06669 0.81317 0.29759
 H1334 H -0.05169 0.75203 0.28090
 H1335 H -0.09008 0.82223 0.30570
 H1336 H -0.03139 0.78104 0.27353
 C1337 C 0.59888 0.68320 0.32457
 C1338 C 0.59399 0.67983 0.31054
 C1339 C 0.58486 0.69156 0.30207
 C1340 C 0.57379 0.68664 0.29185
 C1341 C 0.56520 0.69777 0.28376
 C1342 C 0.56780 0.71399 0.28565
 C1343 C 0.57920 0.71881 0.29558
 C1344 C 0.58759 0.70776 0.30372
 C1345 C 0.55943 0.72627 0.27723
 C1346 C 0.54455 0.72438 0.27112
 H1347 H 0.59714 0.66867 0.30558
 H1348 H 0.57171 0.67420 0.29020
 H1349 H 0.55682 0.69364 0.27589
 H1350 H 0.58160 0.73121 0.29706
 H1351 H 0.59647 0.71195 0.31111
 H1352 H 0.56471 0.73783 0.27690
 H1353 H 0.59444 0.69377 0.32983
 H1354 H 0.53821 0.71355 0.27295
 C1355 C 0.60354 0.19160 0.82056
 C1356 C 0.59440 0.18623 0.80913
 C1357 C 0.58386 0.19674 0.80065
 C1358 C 0.57091 0.19030 0.79347
 C1359 C 0.56112 0.19982 0.78488
 C1360 C 0.56424 0.21597 0.78319
 C1361 C 0.57728 0.22236 0.79026
 C1362 C 0.58697 0.21289 0.79894
 C1363 C 0.55493 0.22618 0.77334
 C1364 C 0.53942 0.22306 0.76934
 H1365 H 0.59465 0.17380 0.80648
 H1366 H 0.56841 0.17785 0.79444
 H1367 H 0.55147 0.19437 0.77925
 H1368 H 0.58009 0.23470 0.78893
 H1369 H 0.59714 0.21817 0.80391
 H1370 H 0.56046 0.23679 0.76933
 H1371 H 0.60227 0.20367 0.82421
 H1372 H 0.53306 0.21377 0.77481
 C1373 C 1.09890 0.68904 0.82238
 C1374 C 1.09277 0.68461 0.80903
 C1375 C 1.08348 0.69575 0.80005
 C1376 C 1.07194 0.69007 0.79063
 C1377 C 1.06320 0.70050 0.78194
 C1378 C 1.06607 0.71679 0.78243
 C1379 C 1.07789 0.72237 0.79157
 C1380 C 1.08647 0.71201 0.80032
 C1381 C 1.05751 0.72834 0.77329
 C1382 C 1.04239 0.72606 0.76783
 H1383 H 1.09475 0.67274 0.80509
 H1384 H 1.06965 0.67756 0.79004
 H1385 H 1.05448 0.69576 0.77470
 H1386 H 1.08050 0.73483 0.79198
 H1387 H 1.09567 0.71675 0.80704
 H1388 H 1.06288 0.73976 0.77188
 H1389 H 1.09566 0.70039 0.82692
 H1390 H 1.03600 0.71551 0.77068
 C1391 C 1.09974 0.17906 0.31339
 C1392 C 1.09203 0.19352 0.31540
 C1393 C 1.08144 0.20061 0.30441
 C1394 C 1.07003 0.21180 0.30874
 C1395 C 1.06029 0.21916 0.29851
 C1396 C 1.06190 0.21553 0.28371
 C1397 C 1.07342 0.20447 0.27939
 C1398 C 1.08307 0.19707 0.28960
 C1399 C 1.05254 0.22359 0.27235
 C1400 C 1.03814 0.23135 0.27483
 H1401 H 1.09364 0.19984 0.32546
 H1402 H 1.06873 0.21492 0.32006
 H1403 H 1.05186 0.22796 0.30221
 H1404 H 1.07507 0.20164 0.26804
 H1405 H 1.09209 0.18895 0.28576
 H1406 H 1.05694 0.22275 0.26133
 H1407 H 1.09714 0.17196 0.30400
 H1408 H 1.03249 0.23058 0.28535
 C1409 C 0.59695 0.31418 0.68864
 C1410 C 0.59006 0.29977 0.68544
 C1411 C 0.58045 0.29093 0.69607
 C1412 C 0.56940 0.28003 0.69111
 C1413 C 0.56053 0.27114 0.70094
 C1414 C 0.56269 0.27291 0.71594
 C1415 C 0.57391 0.28362 0.72086
 C1416 C 0.58268 0.29257 0.71107
 C1417 C 0.55403 0.26344 0.72679
 C1418 C 0.53955 0.25632 0.72423
 H1419 H 0.59156 0.29483 0.67470
 H1420 H 0.56766 0.27837 0.67960
 H1421 H 0.55230 0.26267 0.69673
 H1422 H 0.57596 0.28504 0.73236
 H1423 H 0.59147 0.30042 0.71531
 H1424 H 0.55882 0.26297 0.73764
 H1425 H 0.59435 0.31995 0.69884
 H1426 H 0.53361 0.25832 0.71404
 C1427 C 0.59873 0.80827 0.18198
 C1428 C 0.59300 0.81282 0.19557
 C1429 C 0.58410 0.80198 0.20513
 C1430 C 0.57393 0.80820 0.21580
 C1431 C 0.56558 0.79819 0.22511
 C1432 C 0.56735 0.78173 0.22394
 C1433 C 0.57780 0.77557 0.21349
 C1434 C 0.58608 0.78553 0.20420
 C1435 C 0.55901 0.77053 0.23357
 C1436 C 0.54537 0.77424 0.24152
 H1437 H 0.59495 0.82472 0.19931
 H1438 H 0.57243 0.82084 0.21692
 H1439 H 0.55801 0.80343 0.23330
 H1440 H 0.57960 0.76295 0.21251
 H1441 H 0.59428 0.78026 0.19654
 H1442 H 0.56321 0.75844 0.23350
 H1443 H 0.59578 0.79684 0.17768
 H1444 H 0.53993 0.78576 0.24036
 C1445 C 1.09600 0.31762 0.19002
 C1446 C 1.08925 0.30291 0.18779
 C1447 C 1.07924 0.29505 0.19878
 C1448 C 1.06863 0.28345 0.19437
 C1449 C 1.05947 0.27537 0.20458
 C1450 C 1.06088 0.27869 0.21944
 C1451 C 1.07162 0.29014 0.22383
 C1452 C 1.08069 0.29826 0.21365
 C1453 C 1.05202 0.27001 0.23072
 C1454 C 1.03799 0.26201 0.22824
 H1455 H 1.09123 0.29694 0.17757
 H1456 H 1.06750 0.28057 0.18300
 H1457 H 1.05166 0.26630 0.20080
 H1458 H 1.07311 0.29275 0.23522
 H1459 H 1.08912 0.30670 0.21754
 H1460 H 1.05635 0.27073 0.24171
 H1461 H 1.09299 0.32435 0.19961
 H1462 H 1.03238 0.26287 0.21777
 C1463 C 1.10087 0.80642 0.67841
 C1464 C 1.09380 0.81038 0.69165
 C1465 C 1.08327 0.79978 0.69994
 C1466 C 1.07376 0.80619 0.71101
 C1467 C 1.06435 0.79649 0.71968
 C1468 C 1.06432 0.78010 0.71745
 C1469 C 1.07386 0.77369 0.70640
 C1470 C 1.08322 0.78339 0.69772
 C1471 C 1.05531 0.76922 0.72687
 C1472 C 1.04255 0.77382 0.73562
 H1473 H 1.09604 0.82186 0.69624
 H1474 H 1.07375 0.81875 0.71310
 H1475 H 1.05753 0.80186 0.72833
 H1476 H 1.07421 0.76108 0.70458
 H1477 H 1.09072 0.77788 0.68962
 H1478 H 1.05854 0.75684 0.72642
 H1479 H 1.09786 0.79558 0.67301
 H1480 H 1.03784 0.78569 0.73481
 C1481 C 0.39677 0.69334 0.68587
 C1482 C 0.40423 0.68876 0.69868
 C1483 C 0.41386 0.69949 0.70758
 C1484 C 0.42423 0.69298 0.71783
 C1485 C 0.43310 0.70269 0.72681
 C1486 C 0.43172 0.71919 0.72572
 C1487 C 0.42121 0.72568 0.71559
 C1488 C 0.41237 0.71598 0.70661
 C1489 C 0.44043 0.73003 0.73527
 C1490 C 0.45394 0.72580 0.74303
 H1491 H 0.40316 0.67669 0.70234
 H1492 H 0.42541 0.68031 0.71897
 H1493 H 0.44069 0.69720 0.73476
 H1494 H 0.41974 0.73835 0.71466
 H1495 H 0.40415 0.72152 0.69923
 H1496 H 0.43645 0.74220 0.73552
 H1497 H 0.39857 0.70498 0.68143
 H1498 H 0.45923 0.71425 0.74151
 C1499 C 0.40015 0.18140 0.18714
 C1500 C 0.40627 0.19627 0.18420
 C1501 C 0.41587 0.20490 0.19487
 C1502 C 0.42675 0.21613 0.19004
 C1503 C 0.43573 0.22461 0.19998
 C1504 C 0.43381 0.22208 0.21496
 C1505 C 0.42267 0.21110 0.21974
 C1506 C 0.41382 0.20259 0.20984
 C1507 C 0.44260 0.23096 0.22601
 C1508 C 0.45695 0.23847 0.22348
 H1509 H 0.40418 0.20168 0.17375
 H1510 H 0.42833 0.21832 0.17856
 H1511 H 0.44387 0.23330 0.19591
 H1512 H 0.42077 0.20911 0.23122
 H1513 H 0.40512 0.19449 0.21401
 H1514 H 0.43805 0.23055 0.23699
 H1515 H 0.40341 0.17532 0.19702
 H1516 H 0.46273 0.23734 0.21304
 C1517 C -0.10004 0.69339 0.18518
 C1518 C -0.09072 0.68740 0.19637
 C1519 C -0.08076 0.69767 0.20539
 C1520 C -0.06743 0.69131 0.21232
 C1521 C -0.05795 0.70080 0.22101
 C1522 C -0.06177 0.71684 0.22299
 C1523 C -0.07529 0.72306 0.21631
 C1524 C -0.08469 0.71363 0.20763
 C1525 C -0.05245 0.72747 0.23223
 C1526 C -0.03704 0.72446 0.23687
 H1527 H -0.09052 0.67485 0.19847
 H1528 H -0.06432 0.67898 0.21096
 H1529 H -0.04788 0.69545 0.22629
 H1530 H -0.07866 0.73530 0.21784
 H1531 H -0.09520 0.71884 0.20298
 H1532 H -0.05778 0.73881 0.23474
 H1533 H -0.09927 0.70570 0.18223
 H1534 H -0.03075 0.71408 0.23310
 C1535 C -0.09955 0.19396 0.68471
 C1536 C -0.09356 0.20886 0.68168
 C1537 C -0.08421 0.21770 0.69239
 C1538 C -0.07308 0.22871 0.68760
 C1539 C -0.06420 0.23723 0.69759
 C1540 C -0.06647 0.23499 0.71257
 C1541 C -0.07789 0.22428 0.71730
 C1542 C -0.08664 0.21571 0.70736
 C1543 C -0.05770 0.24387 0.72363
 C1544 C -0.04308 0.25092 0.72123
 H1545 H -0.09541 0.21404 0.67108
 H1546 H -0.07120 0.23064 0.67612
 H1547 H -0.05584 0.24572 0.69353
 H1548 H -0.08006 0.22252 0.72877
 H1549 H -0.09553 0.20779 0.71147
 H1550 H -0.06249 0.24381 0.73454
 H1551 H -0.09646 0.18812 0.69475
 H1552 H -0.03717 0.24943 0.71089
 C1553 C 0.30119 0.39558 0.32753
 C1554 C 0.30547 0.40482 0.31565
 C1555 C 0.29428 0.41482 0.30739
 C1556 C 0.30031 0.42699 0.29875
 C1557 C 0.29036 0.43599 0.28994
 C1558 C 0.27410 0.43295 0.28952
 C1559 C 0.26804 0.42079 0.29818
 C1560 C 0.27800 0.41184 0.30709
 C1561 C 0.26351 0.44134 0.27934
 C1562 C 0.26679 0.45629 0.27379
 H1563 H 0.31773 0.40494 0.31228
 H1564 H 0.31284 0.42937 0.29863
 H1565 H 0.29557 0.44491 0.28308
 H1566 H 0.25560 0.41805 0.29787
 H1567 H 0.27298 0.40227 0.31328
 H1568 H 0.25278 0.43553 0.27616
 H1569 H 0.28939 0.39637 0.33201
 H1570 H 0.27625 0.46299 0.27850
 C1571 C 0.30728 -0.09724 0.81398
 C1572 C 0.31300 -0.09133 0.80088
 C1573 C 0.30297 -0.08162 0.79122
 C1574 C 0.30987 -0.07002 0.78247
 C1575 C 0.30057 -0.06078 0.77321
 C1576 C 0.28421 -0.06317 0.77241
 C1577 C 0.27740 -0.07503 0.78090
 C1578 C 0.28664 -0.08412 0.79027
 C1579 C 0.27408 -0.05419 0.76228
 C1580 C 0.27756 -0.03899 0.75750
 H1581 H 0.32521 -0.09336 0.79780
 H1582 H 0.32246 -0.06806 0.78286
 H1583 H 0.30629 -0.05208 0.76645
 H1584 H 0.26487 -0.07728 0.78028
 H1585 H 0.28103 -0.09333 0.79650
 H1586 H 0.26314 -0.05952 0.75898
 H1587 H 0.29555 -0.09376 0.81757
 H1588 H 0.28730 -0.03280 0.76232
 C1589 C 0.80384 0.40359 0.81881
 C1590 C 0.80882 0.41124 0.80619
 C1591 C 0.79833 0.42131 0.79725
 C1592 C 0.80506 0.43283 0.78831
 C1593 C 0.79568 0.44184 0.77896
 C1594 C 0.77933 0.43935 0.77826
 C1595 C 0.77259 0.42781 0.78719
 C1596 C 0.78196 0.41892 0.79667
 C1597 C 0.76934 0.44767 0.76754
 C1598 C 0.77306 0.46243 0.76183
 H1599 H 0.82102 0.41014 0.80276
 H1600 H 0.81768 0.43473 0.78841
 H1601 H 0.80137 0.45029 0.77192
 H1602 H 0.76007 0.42551 0.78669
 H1603 H 0.77642 0.40982 0.80310
 H1604 H 0.75861 0.44199 0.76413
 H1605 H 0.79211 0.40595 0.82305
 H1606 H 0.78247 0.46910 0.76667
 C1607 C 0.80993 -0.10542 0.31506
 C1608 C 0.79513 -0.09946 0.31912
 C1609 C 0.78528 -0.09057 0.30869
 C1610 C 0.77555 -0.07810 0.31346
 C1611 C 0.76665 -0.06927 0.30352
 C1612 C 0.76722 -0.07297 0.28866
 C1613 C 0.77646 -0.08586 0.28405
 C1614 C 0.78539 -0.09455 0.29392
 C1615 C 0.75833 -0.06402 0.27755
 C1616 C 0.75246 -0.04868 0.27936
 H1617 H 0.79091 -0.10079 0.33015
 H1618 H 0.77506 -0.07504 0.32484
 H1619 H 0.75929 -0.05972 0.30754
 H1620 H 0.77690 -0.08914 0.27272
 H1621 H 0.79227 -0.10450 0.28997
 H1622 H 0.75760 -0.06939 0.26696
 H1623 H 0.81456 -0.10252 0.30443
 H1624 H 0.75471 -0.04242 0.28932
 C1625 C 0.31935 0.59903 0.69299
 C1626 C 0.30525 0.59129 0.69026
 C1627 C 0.29723 0.58148 0.70130
 C1628 C 0.28685 0.56968 0.69685
 C1629 C 0.27875 0.56057 0.70708
 C1630 C 0.28081 0.56322 0.72199
 C1631 C 0.29100 0.57517 0.72640
 C1632 C 0.29913 0.58419 0.71621
 C1633 C 0.27205 0.55444 0.73328
 C1634 C 0.26522 0.53971 0.73116
 H1635 H 0.29999 0.59225 0.67963
 H1636 H 0.28498 0.56755 0.68543
 H1637 H 0.27065 0.55178 0.70326
 H1638 H 0.29260 0.57762 0.73781
 H1639 H 0.30655 0.59354 0.72008
 H1640 H 0.27171 0.55950 0.74404
 H1641 H 0.32543 0.59703 0.70311
 H1642 H 0.26716 0.53352 0.72106
 C1643 C 0.31327 1.09687 0.18755
 C1644 C 0.29826 1.09122 0.18448
 C1645 C 0.28917 1.08140 0.19479
 C1646 C 0.27725 1.07164 0.18953
 C1647 C 0.26821 1.06252 0.19905
 C1648 C 0.27088 1.06311 0.21407
 C1649 C 0.28259 1.07310 0.21932
 C1650 C 0.29166 1.08213 0.20982
 C1651 C 0.26142 1.05403 0.22467
 C1652 C 0.25306 1.04044 0.22129
 H1653 H 0.29304 1.09386 0.17407
 H1654 H 0.27492 1.07108 0.17802
 H1655 H 0.25897 1.05532 0.19463
 H1656 H 0.28472 1.07396 0.23085
 H1657 H 0.30032 1.08993 0.21436
 H1658 H 0.26202 1.05764 0.23590
 H1659 H 0.31918 1.09321 0.19736
 H1660 H 0.25390 1.03555 0.21049
 C1661 C 0.81734 0.60010 0.18217
 C1662 C 0.82080 0.59610 0.19649
 C1663 C 0.81091 0.58572 0.20562
 C1664 C 0.81205 0.58704 0.22072
 C1665 C 0.80269 0.57786 0.22983
 C1666 C 0.79217 0.56692 0.22408
 C1667 C 0.79117 0.56536 0.20894
 C1668 C 0.80049 0.57465 0.19978
 C1669 C 0.78211 0.55794 0.23423
 C1670 C 0.77483 0.54374 0.23085
 H1671 H 0.83061 0.60176 0.20171
 H1672 H 0.82002 0.59541 0.22550
 H1673 H 0.80367 0.57932 0.24145
 H1674 H 0.78302 0.55723 0.20410
 H1675 H 0.79953 0.57304 0.18821
 H1676 H 0.78113 0.56232 0.24522
 H1677 H 0.80715 0.59523 0.17690
 H1678 H 0.77726 0.53811 0.22055
 C1679 C 0.81415 1.10439 0.68418
 C1680 C 0.80156 1.09553 0.67938
 C1681 C 0.79257 1.08527 0.68938
 C1682 C 0.78114 1.07512 0.68384
 C1683 C 0.77215 1.06570 0.69315
 C1684 C 0.77440 1.06636 0.70822
 C1685 C 0.78582 1.07652 0.71374
 C1686 C 0.79489 1.08579 0.70445
 C1687 C 0.76461 1.05737 0.71859
 C1688 C 0.75686 1.04342 0.71520
 H1689 H 0.79815 1.09624 0.66809
 H1690 H 0.77906 1.07458 0.67228
 H1691 H 0.76320 1.05827 0.68856
 H1692 H 0.78770 1.07732 0.72531
 H1693 H 0.80351 1.09355 0.70913
 H1694 H 0.76421 1.06150 0.72969
 H1695 H 0.81865 1.11068 0.67816
 H1696 H 0.75878 1.03795 0.70474
 C1697 C 0.69934 0.60378 0.32420
 C1698 C 0.69581 0.59652 0.31111
 C1699 C 0.70736 0.58657 0.30314
 C1700 C 0.70189 0.57444 0.29425
 C1701 C 0.71249 0.56510 0.28628
 C1702 C 0.72880 0.56788 0.28690
 C1703 C 0.73424 0.58019 0.29559
 C1704 C 0.72365 0.58939 0.30371
 C1705 C 0.74021 0.55886 0.27790
 C1706 C 0.73759 0.54341 0.27343
 H1707 H 0.68398 0.59758 0.30684
 H1708 H 0.68937 0.57221 0.29347
 H1709 H 0.70785 0.55604 0.27932
 H1710 H 0.74672 0.58273 0.29604
 H1711 H 0.72823 0.59897 0.31010
 H1712 H 0.75120 0.56448 0.27502
 H1713 H 0.71060 0.60150 0.32930
 H1714 H 0.72772 0.53705 0.27797
 C1715 C 0.69035 1.10242 0.81448
 C1716 C 0.68530 1.09672 0.80114
 C1717 C 0.69552 1.08667 0.79188
 C1718 C 0.68867 1.07538 0.78289
 C1719 C 0.69809 1.06592 0.77386
 C1720 C 0.71455 1.06778 0.77352
 C1721 C 0.72136 1.07928 0.78229
 C1722 C 0.71197 1.08858 0.79146
 C1723 C 0.72478 1.05862 0.76352
 C1724 C 0.72113 1.04350 0.75877
 H1725 H 0.67335 1.09909 0.79761
 H1726 H 0.67600 1.07387 0.78289
 H1727 H 0.69242 1.05748 0.76689
 H1728 H 0.73398 1.08111 0.78202
 H1729 H 0.71758 1.09752 0.79792
 H1730 H 0.73589 1.06375 0.76025
 H1731 H 0.70173 1.09861 0.81856
 H1732 H 0.71119 1.03745 0.76358
 C1733 C 0.18896 0.59916 0.82359
 C1734 C 0.18449 0.59366 0.80999
 C1735 C 0.19429 0.58293 0.80093
 C1736 C 0.19167 0.58280 0.78594
 C1737 C 0.20089 0.57331 0.77683
 C1738 C 0.21277 0.56350 0.78250
 C1739 C 0.21526 0.56335 0.79755
 C1740 C 0.20607 0.57297 0.80670
 C1741 C 0.22267 0.55427 0.77226
 C1742 C 0.23141 0.54083 0.77603
 H1743 H 0.17382 0.59834 0.80518
 H1744 H 0.18263 0.59030 0.78122
 H1745 H 0.19875 0.57367 0.76527
 H1746 H 0.22447 0.55612 0.80229
 H1747 H 0.20823 0.57248 0.81822
 H1748 H 0.22238 0.55779 0.76098
 H1749 H 0.19990 0.59518 0.82840
 H1750 H 0.23025 0.53586 0.78679
 C1751 C 0.19429 1.09995 0.32321
 C1752 C 0.18864 1.09027 0.31225
 C1753 C 0.19888 1.07990 0.30325
 C1754 C 0.19203 1.06738 0.29576
 C1755 C 0.20106 1.05799 0.28636
 C1756 C 0.21718 1.06101 0.28419
 C1757 C 0.22405 1.07352 0.29169
 C1758 C 0.21504 1.08286 0.30117
 C1759 C 0.22677 1.05227 0.27334
 C1760 C 0.22297 1.03725 0.26836
 H1761 H 0.17609 1.09017 0.31018
 H1762 H 0.17956 1.06501 0.29701
 H1763 H 0.19521 1.04879 0.28043
 H1764 H 0.23638 1.07625 0.29003
 H1765 H 0.22066 1.09268 0.30638
 H1766 H 0.23728 1.05789 0.26919
 H1767 H 0.20654 1.09920 0.32637
 H1768 H 0.21385 1.03069 0.27388
 C1769 C 0.68487 0.39790 0.68430
 C1770 C 0.69963 0.40384 0.68059
 C1771 C 0.70853 0.41414 0.69049
 C1772 C 0.71943 0.42485 0.68477
 C1773 C 0.72801 0.43465 0.69396
 C1774 C 0.72590 0.43376 0.70908
 C1775 C 0.71528 0.42276 0.71476
 C1776 C 0.70668 0.41308 0.70561
 C1777 C 0.73485 0.44354 0.71935
 C1778 C 0.74220 0.45769 0.71571
 H1779 H 0.70462 0.40126 0.67003
 H1780 H 0.72126 0.42570 0.67317
 H1781 H 0.73642 0.44263 0.68918
 H1782 H 0.71363 0.42164 0.72637
 H1783 H 0.69886 0.40455 0.71047
 H1784 H 0.73472 0.43988 0.73060
 H1785 H 0.67919 0.40161 0.69428
 H1786 H 0.74083 0.46252 0.70492
 C1787 C 0.68450 -0.10356 0.18100
 C1788 C 0.67892 -0.09804 0.19436
 C1789 C 0.68795 -0.08784 0.20424
 C1790 C 0.68347 -0.08742 0.21889
 C1791 C 0.69173 -0.07831 0.22877
 C1792 C 0.70451 -0.06918 0.22422
 C1793 C 0.70892 -0.06933 0.20950
 C1794 C 0.70069 -0.07858 0.19957
 C1795 C 0.71330 -0.06036 0.23531
 C1796 C 0.72285 -0.04742 0.23238
 H1797 H 0.66766 -0.10216 0.19830
 H1798 H 0.67367 -0.09438 0.22277
 H1799 H 0.68812 -0.07845 0.24006
 H1800 H 0.71888 -0.06263 0.20564
 H1801 H 0.70432 -0.07834 0.18833
 H1802 H 0.71151 -0.06382 0.24650
 H1803 H 0.69596 -0.10010 0.17698
 H1804 H 0.72316 -0.04242 0.22159
 C1805 C 0.18950 0.39596 0.18223
 C1806 C 0.18590 0.40108 0.19624
 C1807 C 0.19641 0.41095 0.20510
 C1808 C 0.19435 0.41086 0.22019
 C1809 C 0.20393 0.41992 0.22905
 C1810 C 0.21564 0.42951 0.22303
 C1811 C 0.21772 0.42971 0.20789
 C1812 C 0.20816 0.42054 0.19900
 C1813 C 0.22560 0.43873 0.23294
 C1814 C 0.23374 0.45228 0.22885
 H1815 H 0.17524 0.39690 0.20141
 H1816 H 0.18536 0.40363 0.22518
 H1817 H 0.20212 0.41950 0.24068
 H1818 H 0.22682 0.43673 0.20287
 H1819 H 0.20993 0.42115 0.18740
 H1820 H 0.22556 0.43530 0.24425
 H1821 H 0.20052 0.39916 0.17712
 H1822 H 0.23231 0.45698 0.21803
 C1823 C 0.18159 -0.09774 0.68397
 C1824 C 0.19572 -0.09049 0.68014
 C1825 C 0.20446 -0.07999 0.68995
 C1826 C 0.21593 -0.06999 0.68406
 C1827 C 0.22526 -0.06078 0.69308
 C1828 C 0.22334 -0.06150 0.70821
 C1829 C 0.21190 -0.07152 0.71408
 C1830 C 0.20253 -0.08065 0.70508
 C1831 C 0.23354 -0.05272 0.71822
 C1832 C 0.24175 -0.03915 0.71439
 H1833 H 0.20081 -0.09278 0.66956
 H1834 H 0.21783 -0.06947 0.67245
 H1835 H 0.23424 -0.05353 0.68817
 H1836 H 0.21034 -0.07243 0.72571
 H1837 H 0.19420 -0.08858 0.71008
 H1838 H 0.23392 -0.05669 0.72939
 H1839 H 0.17551 -0.09451 0.69388
 H1840 H 0.23993 -0.03380 0.70387
 C1841 C 0.32021 0.30364 0.40383
 C1842 C 0.32420 0.28776 0.40574
 C1843 C 0.31678 0.27773 0.41693
 C1844 C 0.31565 0.26149 0.41441
 C1845 C 0.30774 0.25181 0.42426
 C1846 C 0.30107 0.25812 0.43696
 C1847 C 0.30271 0.27431 0.43976
 C1848 C 0.31054 0.28401 0.42987
 C1849 C 0.29136 0.24785 0.44632
 C1850 C 0.28746 0.25145 0.46067
 H1851 H 0.33201 0.28208 0.39798
 H1852 H 0.32046 0.25636 0.40457
 H1853 H 0.30659 0.23939 0.42182
 H1854 H 0.29749 0.27969 0.44930
 H1855 H 0.31158 0.29640 0.43238
 H1856 H 0.28689 0.23714 0.44159
 H1857 H 0.31161 0.30923 0.41091
 H1858 H 0.29365 0.26077 0.46615
 C1859 C 0.30369 0.82793 -0.09454
 C1860 C 0.30849 0.81520 -0.08602
 C1861 C 0.29740 0.80675 -0.07642
 C1862 C 0.30310 0.79902 -0.06404
 C1863 C 0.29293 0.79029 -0.05521
 C1864 C 0.27690 0.78899 -0.05879
 C1865 C 0.27126 0.79661 -0.07124
 C1866 C 0.28136 0.80547 -0.07994
 C1867 C 0.26607 0.77881 -0.05050
 C1868 C 0.26803 0.77516 -0.03587
 H1869 H 0.32069 0.81130 -0.08637
 H1870 H 0.31547 0.79963 -0.06126
 H1871 H 0.29775 0.78417 -0.04592
 H1872 H 0.25902 0.79554 -0.07434
 H1873 H 0.27667 0.81084 -0.08967
 H1874 H 0.25588 0.77431 -0.05610
 H1875 H 0.29195 0.83287 -0.09314
 H1876 H 0.27680 0.78129 -0.02963
 C1877 C 0.81073 0.31302 -0.10214
 C1878 C 0.79822 0.31820 -0.09340
 C1879 C 0.78999 0.30763 -0.08310
 C1880 C 0.78147 0.31413 -0.07141
 C1881 C 0.77325 0.30442 -0.06174
 C1882 C 0.77338 0.28796 -0.06365
 C1883 C 0.78173 0.28153 -0.07545
 C1884 C 0.78990 0.29120 -0.08508
 C1885 C 0.76450 0.27705 -0.05416
 C1886 C 0.75789 0.28097 -0.04070
 H1887 H 0.79439 0.33040 -0.09401
 H1888 H 0.78114 0.32677 -0.06979
 H1889 H 0.76664 0.30990 -0.05302
 H1890 H 0.78183 0.26893 -0.07733
 H1891 H 0.79576 0.28572 -0.09424
 H1892 H 0.76367 0.26497 -0.05781
 H1893 H 0.81546 0.30122 -0.10083
 H1894 H 0.76009 0.29237 -0.03596
 C1895 C 0.82561 0.81468 0.40488
 C1896 C 0.81068 0.81722 0.41093
 C1897 C 0.80335 0.80571 0.42092
 C1898 C 0.79160 0.81074 0.43071
 C1899 C 0.78398 0.79987 0.43973
 C1900 C 0.78792 0.78374 0.43895
 C1901 C 0.79956 0.77875 0.42907
 C1902 C 0.80721 0.78957 0.42017
 C1903 C 0.77964 0.77160 0.44753
 C1904 C 0.77144 0.77452 0.46043
 H1905 H 0.80403 0.82773 0.40809
 H1906 H 0.78823 0.82308 0.43131
 H1907 H 0.77476 0.80409 0.44695
 H1908 H 0.80264 0.76636 0.42811
 H1909 H 0.81576 0.78513 0.41240
 H1910 H 0.78080 0.75953 0.44383
 H1911 H 0.83285 0.80495 0.40868
 H1912 H 0.77185 0.78607 0.46537
 C1913 C 0.67858 0.31002 0.59914
 C1914 C 0.69144 0.31519 0.59100
 C1915 C 0.69989 0.30486 0.58055
 C1916 C 0.70812 0.31163 0.56890
 C1917 C 0.71692 0.30216 0.55934
 C1918 C 0.71778 0.28574 0.56141
 C1919 C 0.70960 0.27902 0.57309
 C1920 C 0.70070 0.28843 0.58254
 C1921 C 0.72814 0.27550 0.55246
 C1922 C 0.73306 0.27925 0.53841
 H1923 H 0.69537 0.32721 0.59219
 H1924 H 0.70787 0.32428 0.56728
 H1925 H 0.72346 0.30780 0.55070
 H1926 H 0.71031 0.26643 0.57505
 H1927 H 0.69494 0.28285 0.59166
 H1928 H 0.73198 0.26439 0.55715
 H1929 H 0.67361 0.29859 0.59698
 H1930 H 0.72764 0.28910 0.53278
 C1931 C 0.68118 0.81128 1.09464
 C1932 C 0.69515 0.81569 1.08777
 C1933 C 0.70374 0.80482 1.07785
 C1934 C 0.71329 0.81085 1.06671
 C1935 C 0.72159 0.80065 1.05737
 C1936 C 0.72057 0.78421 1.05916
 C1937 C 0.71128 0.77826 1.07050
 C1938 C 0.70298 0.78840 1.07973
 C1939 C 0.72943 0.77277 1.05004
 C1940 C 0.73611 0.77610 1.03650
 H1941 H 0.69986 0.82732 1.08961
 H1942 H 0.71429 0.82347 1.06521
 H1943 H 0.72898 0.80569 1.04900
 H1944 H 0.71049 0.76567 1.07229
 H1945 H 0.69628 0.78328 1.08854
 H1946 H 0.72998 0.76074 1.05396
 H1947 H 0.67578 0.80022 1.09179
 H1948 H 0.73406 0.78747 1.03148
 C1949 C 0.17931 0.30719 1.10156
 C1950 C 0.19151 0.31257 1.09270
 C1951 C 0.20048 0.30217 1.08267
 C1952 C 0.20868 0.30890 1.07098
 C1953 C 0.21806 0.29953 1.06182
 C1954 C 0.21950 0.28321 1.06428
 C1955 C 0.21130 0.27650 1.07596
 C1956 C 0.20187 0.28583 1.08505
 C1957 C 0.23041 0.27309 1.05574
 C1958 C 0.23602 0.27693 1.04193
 H1959 H 0.19457 0.32492 1.09301
 H1960 H 0.20800 0.32149 1.06904
 H1961 H 0.22457 0.30522 1.05320
 H1962 H 0.21242 0.26400 1.07823
 H1963 H 0.19617 0.28026 1.09421
 H1964 H 0.23411 0.26201 1.06057
 H1965 H 0.17513 0.29526 1.10043
 H1966 H 0.23081 0.28676 1.03611
 C1967 C 0.19353 0.81672 0.59971
 C1968 C 0.18916 0.80399 0.59116
 C1969 C 0.20066 0.79589 0.58146
 C1970 C 0.19542 0.78800 0.56906
 C1971 C 0.20619 0.78015 0.55991
 C1972 C 0.22240 0.77998 0.56314
 C1973 C 0.22751 0.78761 0.57569
 C1974 C 0.21682 0.79544 0.58475
 C1975 C 0.23438 0.77151 0.55428
 C1976 C 0.23218 0.76605 0.54017
 H1977 H 0.17713 0.79987 0.59153
 H1978 H 0.18299 0.78796 0.56644
 H1979 H 0.20173 0.77406 0.55054
 H1980 H 0.23988 0.78744 0.57858
 H1981 H 0.22126 0.80080 0.59451
 H1982 H 0.24599 0.77019 0.55900
 H1983 H 0.20516 0.82168 0.59838
 H1984 H 0.22141 0.76887 0.53446
 C1985 C 0.31267 0.67617 0.59999
 C1986 C 0.31657 0.68992 0.59250
 C1987 C 0.30639 0.69719 0.58125
 C1988 C 0.31282 0.70848 0.57182
 C1989 C 0.30330 0.71642 0.56177
 C1990 C 0.28709 0.71323 0.56100
 C1991 C 0.28071 0.70187 0.57034
 C1992 C 0.29020 0.69394 0.58035
 C1993 C 0.27616 0.72226 0.55157
 C1994 C 0.28076 0.73184 0.53998
 H1995 H 0.32748 0.69577 0.59507
 H1996 H 0.32521 0.71136 0.57241
 H1997 H 0.30861 0.72536 0.55501
 H1998 H 0.26822 0.69934 0.57012
 H1999 H 0.28460 0.68574 0.58768
 H2000 H 0.26367 0.72121 0.55389
 H2001 H 0.30250 0.66946 0.59683
 H2002 H 0.29284 0.73156 0.53612
 C2003 C 0.31375 0.18218 1.10103
 C2004 C 0.31880 0.19610 1.09449
 C2005 C 0.30875 0.20534 1.08444
 C2006 C 0.31578 0.21568 1.07447
 C2007 C 0.30648 0.22503 1.06527
 C2008 C 0.28993 0.22426 1.06599
 C2009 C 0.28294 0.21405 1.07606
 C2010 C 0.29220 0.20469 1.08517
 C2011 C 0.27946 0.23437 1.05708
 C2012 C 0.28397 0.24188 1.04424
 H2013 H 0.33048 0.20041 1.09678
 H2014 H 0.32850 0.21659 1.07387
 H2015 H 0.31229 0.23306 1.05792
 H2016 H 0.27022 0.21340 1.07699
 H2017 H 0.28629 0.19734 1.09306
 H2018 H 0.26722 0.23522 1.06046
 H2019 H 0.30270 0.17703 1.09783
 H2020 H 0.29554 0.23965 1.03963
 C2021 C 0.81694 0.69078 1.09715
 C2022 C 0.80688 0.68549 1.08645
 C2023 C 0.80026 0.69659 1.07560
 C2024 C 0.78924 0.69131 1.06546
 C2025 C 0.78216 0.70189 1.05571
 C2026 C 0.78605 0.71796 1.05595
 C2027 C 0.79730 0.72313 1.06587
 C2028 C 0.80437 0.71261 1.07554
 C2029 C 0.77791 0.72996 1.04695
 C2030 C 0.76918 0.72677 1.03453
 H2031 H 0.80337 0.67324 1.08636
 H2032 H 0.78583 0.67905 1.06531
 H2033 H 0.77332 0.69752 1.04840
 H2034 H 0.80047 0.73546 1.06632
 H2035 H 0.81285 0.71716 1.08313
 H2036 H 0.77905 0.74214 1.05024
 H2037 H 0.81994 0.68367 1.10338
 H2038 H 0.76952 0.71511 1.02981
 C2039 C 0.81730 0.18869 0.59567
 C2040 C 0.82081 0.20334 0.58966
 C2041 C 0.80995 0.21163 0.57963
 C2042 C 0.81595 0.22253 0.56960
 C2043 C 0.80579 0.23093 0.56040
 C2044 C 0.78940 0.22869 0.56125
 C2045 C 0.78343 0.21794 0.57140
 C2046 C 0.79356 0.20946 0.58046
 C2047 C 0.77804 0.23793 0.55248
 C2048 C 0.78162 0.24513 0.53925
 H2049 H 0.83187 0.20888 0.59226
 H2050 H 0.82852 0.22459 0.56893
 H2051 H 0.81076 0.23944 0.55297
 H2052 H 0.77084 0.21617 0.57242
 H2053 H 0.78844 0.20159 0.58838
 H2054 H 0.76594 0.23835 0.55632
 H2055 H 0.80705 0.18239 0.59201
 H2056 H 0.79304 0.24316 0.53422
 C2057 C 0.68319 0.68632 0.40862
 C2058 C 0.69761 0.68237 0.41490
 C2059 C 0.70639 0.69368 0.42388
 C2060 C 0.71740 0.68810 0.43401
 C2061 C 0.72619 0.69866 0.44224
 C2062 C 0.72417 0.71502 0.44034
 C2063 C 0.71337 0.72053 0.43003
 C2064 C 0.70459 0.71003 0.42188
 C2065 C 0.73343 0.72680 0.44831
 C2066 C 0.74164 0.72380 0.46111
 H2067 H 0.70282 0.67084 0.41296
 H2068 H 0.71921 0.67554 0.43554
 H2069 H 0.73473 0.69394 0.44980
 H2070 H 0.71177 0.73307 0.42818
 H2071 H 0.69675 0.71483 0.41375
 H2072 H 0.73291 0.73880 0.44429
 H2073 H 0.67738 0.69733 0.41142
 H2074 H 0.74075 0.71243 0.46635
 C2075 C 0.69176 0.17852 -0.09648
 C2076 C 0.68718 0.19196 -0.08879
 C2077 C 0.69766 0.19991 -0.07843
 C2078 C 0.69098 0.20919 -0.06737
 C2079 C 0.70057 0.21772 -0.05803
 C2080 C 0.71707 0.21726 -0.05971
 C2081 C 0.72374 0.20796 -0.07076
 C2082 C 0.71417 0.19930 -0.07999
 C2083 C 0.72750 0.22742 -0.05111
 C2084 C 0.72347 0.23342 -0.03748
 H2085 H 0.67543 0.19680 -0.09031
 H2086 H 0.67828 0.21002 -0.06610
 H2087 H 0.69500 0.22513 -0.04990
 H2088 H 0.73640 0.20762 -0.07242
 H2089 H 0.71972 0.19266 -0.08867
 H2090 H 0.73885 0.23036 -0.05577
 H2091 H 0.70280 0.17262 -0.09400
 H2092 H 0.71329 0.22888 -0.03176
 C2093 C 0.18252 0.68791 -0.09262
 C2094 C 0.19660 0.68369 -0.08584
 C2095 C 0.20507 0.69501 -0.07662
 C2096 C 0.21430 0.68960 -0.06502
 C2097 C 0.22249 0.70029 -0.05637
 C2098 C 0.22171 0.71655 -0.05938
 C2099 C 0.21279 0.72184 -0.07120
 C2100 C 0.20454 0.71124 -0.07970
 C2101 C 0.23040 0.72839 -0.05095
 C2102 C 0.23540 0.72630 -0.03667
 H2103 H 0.20155 0.67198 -0.08734
 H2104 H 0.21510 0.67712 -0.06262
 H2105 H 0.22961 0.69576 -0.04758
 H2106 H 0.21220 0.73427 -0.07389
 H2107 H 0.19803 0.71578 -0.08888
 H2108 H 0.23182 0.73986 -0.05594
 H2109 H 0.17690 0.69906 -0.08996
 H2110 H 0.23237 0.71566 -0.03085
 C2111 C 0.18178 0.19339 0.40151
 C2112 C 0.19378 0.18786 0.41051
 C2113 C 0.20219 0.19794 0.42091
 C2114 C 0.21018 0.19079 0.43250
 C2115 C 0.21933 0.19975 0.44186
 C2116 C 0.22077 0.21609 0.43972
 C2117 C 0.21270 0.22326 0.42819
 C2118 C 0.20344 0.21431 0.41890
 C2119 C 0.23168 0.22566 0.44840
 C2120 C 0.23678 0.22137 0.46223
 H2121 H 0.19719 0.17553 0.40999
 H2122 H 0.20958 0.17816 0.43415
 H2123 H 0.22575 0.19373 0.45036
 H2124 H 0.21382 0.23578 0.42618
 H2125 H 0.19783 0.22018 0.40984
 H2126 H 0.23590 0.23652 0.44365
 H2127 H 0.17707 0.20521 0.40285
 H2128 H 0.23099 0.21188 0.46794
 C2129 C 0.31103 0.39961 0.68431
 C2130 C 0.31546 0.40501 0.69793
 C2131 C 0.30458 0.41451 0.70711
 C2132 C 0.31064 0.42526 0.71711
 C2133 C 0.30047 0.43419 0.72597
 C2134 C 0.28403 0.43231 0.72507
 C2135 C 0.27805 0.42128 0.71531
 C2136 C 0.28817 0.41250 0.70642
 C2137 C 0.27271 0.44106 0.73440
 C2138 C 0.27584 0.45545 0.74106
 H2139 H 0.32719 0.40240 0.70191
 H2140 H 0.32326 0.42680 0.71801
 H2141 H 0.30552 0.44226 0.73367
 H2142 H 0.26546 0.41942 0.71457
 H2143 H 0.28309 0.40389 0.69924
 H2144 H 0.26088 0.43645 0.73515
 H2145 H 0.29989 0.40348 0.67977
 H2146 H 0.28691 0.46126 0.73894
 C2147 C 0.31518 0.89461 0.18726
 C2148 C 0.30156 0.90276 0.18314
 C2149 C 0.29237 0.91260 0.19349
 C2150 C 0.28323 0.92529 0.18833
 C2151 C 0.27412 0.93445 0.19789
 C2152 C 0.27386 0.93094 0.21280
 C2153 C 0.28280 0.91810 0.21789
 C2154 C 0.29199 0.90905 0.20838
 C2155 C 0.26370 0.93968 0.22320
 C2156 C 0.25839 0.95513 0.22098
 H2157 H 0.29760 0.90209 0.17203
 H2158 H 0.28313 0.92808 0.17687
 H2159 H 0.26698 0.94396 0.19351
 H2160 H 0.28258 0.91498 0.22928
 H2161 H 0.29842 0.89902 0.21269
 H2162 H 0.26081 0.93384 0.23330
 H2163 H 0.31996 0.89642 0.19796
 H2164 H 0.26294 0.96180 0.21189
 C2165 C 0.81645 0.40269 0.17998
 C2166 C 0.82048 0.40747 0.19390
 C2167 C 0.80965 0.41714 0.20296
 C2168 C 0.81580 0.42741 0.21334
 C2169 C 0.80570 0.43655 0.22208
 C2170 C 0.78924 0.43539 0.22067
 C2171 C 0.78315 0.42483 0.21053
 C2172 C 0.79320 0.41583 0.20175
 C2173 C 0.77797 0.44438 0.22986
 C2174 C 0.78146 0.45840 0.23702
 H2175 H 0.83200 0.40444 0.19813
 H2176 H 0.82843 0.42840 0.21464
 H2177 H 0.81081 0.44424 0.23007
 H2178 H 0.77052 0.42351 0.20941
 H2179 H 0.78804 0.40761 0.19424
 H2180 H 0.76593 0.44026 0.23015
 H2181 H 0.80562 0.40702 0.17517
 H2182 H 0.79282 0.46383 0.23540
 C2183 C 0.80833 0.89808 0.67505
 C2184 C 0.81143 0.90639 0.68772
 C2185 C 0.79929 0.91627 0.69507
 C2186 C 0.80396 0.92861 0.70414
 C2187 C 0.79269 0.93785 0.71149
 C2188 C 0.77651 0.93480 0.70996
 C2189 C 0.77190 0.92229 0.70109
 C2190 C 0.78312 0.91313 0.69373
 C2191 C 0.76408 0.94377 0.71785
 C2192 C 0.76610 0.95874 0.72379
 H2193 H 0.82311 0.90575 0.69236
 H2194 H 0.81636 0.93108 0.70555
 H2195 H 0.79674 0.94709 0.71856
 H2196 H 0.75954 0.91951 0.69992
 H2197 H 0.77904 0.90336 0.68732
 H2198 H 0.75247 0.93861 0.71828
 H2199 H 0.79712 0.89970 0.66968
 H2200 H 0.77700 0.96495 0.72189
 C2201 C 0.68418 0.60346 0.67758
 C2202 C 0.69893 0.59788 0.67294
 C2203 C 0.70884 0.58662 0.68128
 C2204 C 0.72514 0.58633 0.67857
 C2205 C 0.73513 0.57647 0.68654
 C2206 C 0.72904 0.56644 0.69724
 C2207 C 0.71266 0.56637 0.69976
 C2208 C 0.70264 0.57637 0.69183
 C2209 C 0.74027 0.55709 0.70608
 C2210 C 0.73630 0.54367 0.71406
 H2211 H 0.70410 0.60291 0.66326
 H2212 H 0.73024 0.59403 0.67046
 H2213 H 0.74770 0.57678 0.68441
 H2214 H 0.70757 0.55897 0.70808
 H2215 H 0.69010 0.57599 0.69402
 H2216 H 0.75247 0.56074 0.70594
 H2217 H 0.67901 0.59913 0.68754
 H2218 H 0.72476 0.53853 0.71285
 C2219 C 0.69139 0.09741 0.17974
 C2220 C 0.68612 0.09015 0.19243
 C2221 C 0.69633 0.07983 0.20140
 C2222 C 0.68933 0.06923 0.21113
 C2223 C 0.69864 0.05979 0.22021
 C2224 C 0.71518 0.06088 0.21976
 C2225 C 0.72215 0.07164 0.21018
 C2226 C 0.71286 0.08101 0.20109
 C2227 C 0.72553 0.05164 0.22951
 C2228 C 0.72114 0.03754 0.23617
 H2229 H 0.67408 0.09214 0.19601
 H2230 H 0.67661 0.06832 0.21178
 H2231 H 0.69282 0.05200 0.22778
 H2232 H 0.73485 0.07288 0.20979
 H2233 H 0.71872 0.08945 0.19417
 H2234 H 0.73750 0.05569 0.23080
 H2235 H 0.70294 0.09452 0.17538
 H2236 H 0.70997 0.03228 0.23351
 C2237 C 0.19177 0.59468 0.17220
 C2238 C 0.18870 0.58840 0.18590
 C2239 C 0.20027 0.57860 0.19394
 C2240 C 0.19488 0.56840 0.20484
 C2241 C 0.20553 0.55933 0.21294
 C2242 C 0.22185 0.56041 0.21034
 C2243 C 0.22724 0.57079 0.19960
 C2244 C 0.21660 0.57978 0.19146
 C2245 C 0.23362 0.55160 0.21904
 C2246 C 0.23031 0.53787 0.22681
 H2247 H 0.17723 0.59040 0.19084
 H2248 H 0.18237 0.56748 0.20712
 H2249 H 0.20094 0.55184 0.22143
 H2250 H 0.23976 0.57204 0.19755
 H2251 H 0.22127 0.58792 0.18353
 H2252 H 0.24564 0.55576 0.21872
 H2253 H 0.20263 0.59169 0.16658
 H2254 H 0.21891 0.53241 0.22569
 C2255 C 0.18237 0.10210 0.67979
 C2256 C 0.19745 0.09681 0.67584
 C2257 C 0.20759 0.08686 0.68519
 C2258 C 0.22398 0.08759 0.68324
 C2259 C 0.23411 0.07873 0.69197
 C2260 C 0.22807 0.06866 0.70266
 C2261 C 0.21163 0.06769 0.70454
 C2262 C 0.20146 0.07672 0.69587
 C2263 C 0.23932 0.05991 0.71193
 C2264 C 0.23583 0.04581 0.71902
 H2265 H 0.20269 0.10121 0.66594
 H2266 H 0.22900 0.09527 0.67506
 H2267 H 0.24672 0.07971 0.69034
 H2268 H 0.20659 0.06024 0.71285
 H2269 H 0.18888 0.07564 0.69749
 H2270 H 0.25128 0.06424 0.71236
 H2271 H 0.17725 0.09862 0.69006
 H2272 H 0.22462 0.04020 0.71716
 C2273 C 0.30950 0.59680 0.31479
 C2274 C 0.31532 0.58898 0.30256
 C2275 C 0.30497 0.57975 0.29298
 C2276 C 0.31143 0.56753 0.28450
 C2277 C 0.30185 0.55881 0.27524
 C2278 C 0.28562 0.56230 0.27423
 C2279 C 0.27931 0.57477 0.28244
 C2280 C 0.28882 0.58341 0.29169
 C2281 C 0.27486 0.55364 0.26459
 C2282 C 0.27795 0.53864 0.25894
 H2283 H 0.32775 0.58960 0.29990
 H2284 H 0.32390 0.56469 0.28509
 H2285 H 0.30726 0.54958 0.26878
 H2286 H 0.26690 0.57788 0.28171
 H2287 H 0.28351 0.59315 0.29757
 H2288 H 0.26333 0.55890 0.26287
 H2289 H 0.29738 0.59515 0.31814
 H2290 H 0.28865 0.53240 0.26192
 C2291 C 0.31018 0.09734 0.81502
 C2292 C 0.31541 0.09274 0.80129
 C2293 C 0.30568 0.08336 0.79135
 C2294 C 0.31305 0.07458 0.78029
 C2295 C 0.30406 0.06628 0.77026
 C2296 C 0.28749 0.06679 0.77106
 C2297 C 0.28016 0.07574 0.78200
 C2298 C 0.28912 0.08390 0.79207
 C2299 C 0.27743 0.05876 0.76044
 C2300 C 0.28219 0.04556 0.75245
 H2301 H 0.32697 0.09629 0.79756
 H2302 H 0.32580 0.07422 0.77936
 H2303 H 0.31011 0.05985 0.76173
 H2304 H 0.26741 0.07649 0.78272
 H2305 H 0.28300 0.09100 0.80009
 H2306 H 0.26525 0.06269 0.75975
 H2307 H 0.29936 0.09261 0.81943
 H2308 H 0.29364 0.04021 0.75437
 C2309 C 0.80912 0.60182 0.80742
 C2310 C 0.81582 0.59410 0.79551
 C2311 C 0.80625 0.58535 0.78491
 C2312 C 0.81334 0.57334 0.77660
 C2313 C 0.80455 0.56497 0.76644
 C2314 C 0.78847 0.56858 0.76437
 C2315 C 0.78155 0.58090 0.77238
 C2316 C 0.79029 0.58920 0.78252
 C2317 C 0.77850 0.56008 0.75391
 C2318 C 0.78203 0.54511 0.74838
 H2319 H 0.82848 0.59429 0.79394
 H2320 H 0.82569 0.57037 0.77802
 H2321 H 0.81046 0.55589 0.76017
 H2322 H 0.76927 0.58411 0.77084
 H2323 H 0.78455 0.59880 0.78825
 H2324 H 0.76712 0.56535 0.75151
 H2325 H 0.79665 0.60067 0.80969
 H2326 H 0.79254 0.53893 0.75195
 C2327 C 0.81294 0.09279 0.31508
 C2328 C 0.79811 0.08663 0.31823
 C2329 C 0.78923 0.07640 0.30829
 C2330 C 0.77273 0.07641 0.30946
 C2331 C 0.76371 0.06741 0.30009
 C2332 C 0.77096 0.05790 0.28952
 C2333 C 0.78752 0.05753 0.28849
 C2334 C 0.79660 0.06675 0.29779
 C2335 C 0.76076 0.04928 0.27939
 C2336 C 0.76522 0.03551 0.27210
 H2337 H 0.79198 0.09057 0.32790
 H2338 H 0.76676 0.08368 0.31748
 H2339 H 0.75097 0.06793 0.30108
 H2340 H 0.79346 0.05047 0.28032
 H2341 H 0.80931 0.06622 0.29678
 H2342 H 0.74871 0.05351 0.27833
 H2343 H 0.81901 0.08960 0.30514
 H2344 H 0.77642 0.02985 0.27445
 C2345 C 0.69473 0.40034 0.32132
 C2346 C 0.69115 0.40813 0.30840
 C2347 C 0.70261 0.41805 0.30048
 C2348 C 0.69706 0.42918 0.29039
 C2349 C 0.70762 0.43825 0.28227
 C2350 C 0.72399 0.43627 0.28406
 C2351 C 0.72951 0.42504 0.29404
 C2352 C 0.71898 0.41603 0.30217
 C2353 C 0.73571 0.44501 0.27532
 C2354 C 0.73252 0.45906 0.26792
 H2355 H 0.67947 0.40698 0.30388
 H2356 H 0.68451 0.43078 0.28871
 H2357 H 0.70289 0.44647 0.27440
 H2358 H 0.74205 0.42312 0.29548
 H2359 H 0.72379 0.40721 0.30942
 H2360 H 0.74773 0.44052 0.27539
 H2361 H 0.70586 0.40237 0.32662
 H2362 H 0.72114 0.46481 0.26918
 C2363 C 0.68503 0.90484 0.81493
 C2364 C 0.68017 0.91040 0.80142
 C2365 C 0.69067 0.91955 0.79173
 C2366 C 0.68407 0.92965 0.78127
 C2367 C 0.69376 0.93820 0.77181
 C2368 C 0.71027 0.93666 0.77260
 C2369 C 0.71681 0.92631 0.78286
 C2370 C 0.70717 0.91786 0.79232
 C2371 C 0.72114 0.94507 0.76270
 C2372 C 0.71715 0.95866 0.75487
 H2373 H 0.66826 0.90817 0.79786
 H2374 H 0.67138 0.93095 0.78043
 H2375 H 0.68825 0.94570 0.76378
 H2376 H 0.72948 0.92471 0.78355
 H2377 H 0.71271 0.90974 0.79982
 H2378 H 0.73326 0.94092 0.76237
 H2379 H 0.69641 0.90814 0.81909
 H2380 H 0.70567 0.96413 0.75642
 C2381 C 0.19041 0.39769 0.82681
 C2382 C 0.18686 0.40425 0.81333
 C2383 C 0.19814 0.41414 0.80517
 C2384 C 0.19245 0.42499 0.79490
 C2385 C 0.20290 0.43421 0.78679
 C2386 C 0.21929 0.43261 0.78875
 C2387 C 0.22495 0.42157 0.79884
 C2388 C 0.21453 0.41245 0.80698
 C2389 C 0.23090 0.44156 0.78007
 C2390 C 0.22751 0.45568 0.77286
 H2391 H 0.17534 0.40236 0.80870
 H2392 H 0.17989 0.42632 0.79313
 H2393 H 0.19811 0.44225 0.77880
 H2394 H 0.23751 0.41992 0.80039
 H2395 H 0.21942 0.40381 0.81438
 H2396 H 0.24295 0.43718 0.78003
 H2397 H 0.20132 0.40065 0.83211
 H2398 H 0.21610 0.46132 0.77432
 C2399 C 0.18893 0.89601 0.31788
 C2400 C 0.18275 0.90283 0.30532
 C2401 C 0.19227 0.91245 0.29519
 C2402 C 0.18463 0.92327 0.28601
 C2403 C 0.19325 0.93219 0.27601
 C2404 C 0.20972 0.93033 0.27494
 C2405 C 0.21730 0.91931 0.28395
 C2406 C 0.20871 0.91049 0.29399
 C2407 C 0.21937 0.93914 0.26430
 C2408 C 0.21483 0.95355 0.25815
 H2409 H 0.17039 0.90129 0.30290
 H2410 H 0.17193 0.92480 0.28655
 H2411 H 0.18693 0.94024 0.26896
 H2412 H 0.22995 0.91748 0.28320
 H2413 H 0.21498 0.90188 0.30050
 H2414 H 0.23112 0.93460 0.26205
 H2415 H 0.20085 0.89858 0.32113
 H2416 H 0.20397 0.95924 0.26164
 C2417 C 0.39673 0.30586 0.67988
 C2418 C 0.40387 0.30967 0.69297
 C2419 C 0.41362 0.29820 0.70123
 C2420 C 0.42510 0.30369 0.71081
 C2421 C 0.43414 0.29308 0.71904
 C2422 C 0.43171 0.27675 0.71791
 C2423 C 0.42005 0.27133 0.70850
 C2424 C 0.41112 0.28189 0.70023
 C2425 C 0.44043 0.26504 0.72678
 C2426 C 0.45510 0.26769 0.73308
 H2427 H 0.40249 0.32149 0.69723
 H2428 H 0.42706 0.31622 0.71195
 H2429 H 0.44271 0.29773 0.72647
 H2430 H 0.41777 0.25883 0.70760
 H2431 H 0.40201 0.27722 0.69338
 H2432 H 0.43543 0.25338 0.72763
 H2433 H 0.39922 0.29457 0.67487
 H2434 H 0.46125 0.27853 0.73081
 C2435 C 0.40114 0.80252 0.18273
 C2436 C 0.40984 0.80836 0.19425
 C2437 C 0.41943 0.79805 0.20376
 C2438 C 0.43195 0.80454 0.21150
 C2439 C 0.44072 0.79526 0.22112
 C2440 C 0.43702 0.77930 0.22325
 C2441 C 0.42436 0.77288 0.21566
 C2442 C 0.41567 0.78212 0.20598
 C2443 C 0.44549 0.76929 0.23383
 C2444 C 0.46099 0.77204 0.23802
 H2445 H 0.40952 0.82087 0.19653
 H2446 H 0.43486 0.81686 0.21017
 H2447 H 0.45008 0.80074 0.22714
 H2448 H 0.42111 0.76069 0.21731
 H2449 H 0.40574 0.77684 0.20062
 H2450 H 0.43952 0.75898 0.23794
 H2451 H 0.40248 0.79030 0.17957
 H2452 H 0.46771 0.78103 0.23249
 C2453 C 0.89589 0.30590 0.17884
 C2454 C 0.90360 0.31026 0.19151
 C2455 C 0.91286 0.29904 0.20048
 C2456 C 0.92420 0.30489 0.21001
 C2457 C 0.93291 0.29466 0.21888
 C2458 C 0.93036 0.27832 0.21842
 C2459 C 0.91882 0.27252 0.20908
 C2460 C 0.91016 0.28272 0.20020
 C2461 C 0.93895 0.26699 0.22782
 C2462 C 0.95333 0.27013 0.23449
 H2463 H 0.90314 0.32247 0.19488
 H2464 H 0.92631 0.31744 0.21062
 H2465 H 0.94135 0.29966 0.22624
 H2466 H 0.91643 0.26001 0.20868
 H2467 H 0.90113 0.27777 0.19343
 H2468 H 0.93414 0.25527 0.22878
 H2469 H 0.89723 0.29405 0.17469
 H2470 H 0.95928 0.28106 0.23219
 C2471 C 0.90013 0.81124 0.68633
 C2472 C 0.90527 0.81596 0.69993
 C2473 C 0.91463 0.80531 0.70927
 C2474 C 0.92638 0.81153 0.71813
 C2475 C 0.93550 0.80159 0.72691
 C2476 C 0.93277 0.78527 0.72715
 C2477 C 0.92068 0.77914 0.71864
 C2478 C 0.91177 0.78903 0.70968
 C2479 C 0.94185 0.77451 0.73662
 C2480 C 0.95759 0.77704 0.74012
 H2481 H 0.90316 0.82797 0.70345
 H2482 H 0.92862 0.82408 0.71812
 H2483 H 0.94444 0.80672 0.73369
 H2484 H 0.91821 0.76664 0.71885
 H2485 H 0.90247 0.78396 0.70327
 H2486 H 0.93621 0.76380 0.74023
 H2487 H 0.90374 0.79983 0.68215
 H2488 H 0.96389 0.78653 0.73488
 C2489 C 0.60490 0.31868 0.30540
 C2490 C 0.59610 0.30518 0.30805
 C2491 C 0.58604 0.29794 0.29691
 C2492 C 0.57294 0.28914 0.30129
 C2493 C 0.56347 0.28178 0.29102
 C2494 C 0.56706 0.28296 0.27616
 C2495 C 0.58030 0.29157 0.27181
 C2496 C 0.58967 0.29906 0.28205
 C2497 C 0.55794 0.27449 0.26507
 C2498 C 0.54218 0.27032 0.26699
 H2499 H 0.59611 0.30006 0.31881
 H2500 H 0.57005 0.28791 0.31268
 H2501 H 0.55365 0.27482 0.29481
 H2502 H 0.58348 0.29242 0.26045
 H2503 H 0.59997 0.30532 0.27832
 H2504 H 0.56379 0.27181 0.25489
 H2505 H 0.60379 0.32477 0.29513
 H2506 H 0.53568 0.27490 0.27623
 C2507 C 0.59845 0.81796 0.81726
 C2508 C 0.59165 0.80373 0.82139
 C2509 C 0.58165 0.79461 0.81142
 C2510 C 0.56993 0.78471 0.81704
 C2511 C 0.56051 0.77585 0.80775
 C2512 C 0.56283 0.77662 0.79265
 C2513 C 0.57476 0.78627 0.78711
 C2514 C 0.58405 0.79518 0.79634
 C2515 C 0.55369 0.76711 0.78232
 C2516 C 0.53887 0.76072 0.78521
 H2517 H 0.59338 0.79933 0.83230
 H2518 H 0.56804 0.78388 0.82863
 H2519 H 0.55172 0.76821 0.81244
 H2520 H 0.57696 0.78688 0.77554
 H2521 H 0.59334 0.80221 0.79163
 H2522 H 0.55853 0.76592 0.77147
 H2523 H 0.59550 0.82315 0.80689
 H2524 H 0.53287 0.76341 0.79531
 C2525 C 0.10129 0.31146 0.82029
 C2526 C 0.09462 0.31734 0.80757
 C2527 C 0.08473 0.30757 0.79802
 C2528 C 0.07381 0.31489 0.78873
 C2529 C 0.06449 0.30590 0.77947
 C2530 C 0.06603 0.28936 0.77928
 C2531 C 0.07718 0.28212 0.78835
 C2532 C 0.08643 0.29107 0.79759
 C2533 C 0.05679 0.27919 0.76953
 C2534 C 0.04293 0.28382 0.76250
 H2535 H 0.09647 0.32954 0.80460
 H2536 H 0.07248 0.32760 0.78867
 H2537 H 0.05635 0.31198 0.77236
 H2538 H 0.07881 0.26943 0.78826
 H2539 H 0.09513 0.28499 0.80412
 H2540 H 0.06069 0.26704 0.76858
 H2541 H 0.09844 0.29970 0.82396
 H2542 H 0.03776 0.29530 0.76466
 C2543 C 0.10769 0.80404 0.32057
 C2544 C 0.10015 0.80871 0.30787
 C2545 C 0.09083 0.79778 0.29900
 C2546 C 0.07821 0.80376 0.29085
 C2547 C 0.06934 0.79378 0.28216
 C2548 C 0.07311 0.77762 0.28129
 C2549 C 0.08597 0.77170 0.28917
 C2550 C 0.09469 0.78164 0.29805
 C2551 C 0.06435 0.76694 0.27170
 C2552 C 0.04838 0.76920 0.26866
 H2553 H 0.10041 0.82100 0.30467
 H2554 H 0.07518 0.81619 0.29124
 H2555 H 0.05980 0.79881 0.27586
 H2556 H 0.08926 0.75934 0.28848
 H2557 H 0.10466 0.77675 0.30386
 H2558 H 0.07050 0.75668 0.26743
 H2559 H 0.10618 0.79219 0.32468
 H2560 H 0.04179 0.77817 0.27455
 C2561 C 0.59993 0.69601 0.68659
 C2562 C 0.59206 0.68978 0.69856
 C2563 C 0.58229 0.69978 0.70830
 C2564 C 0.56939 0.69323 0.71565
 C2565 C 0.56007 0.70249 0.72497
 C2566 C 0.56366 0.71844 0.72723
 C2567 C 0.57677 0.72486 0.72013
 C2568 C 0.58597 0.71567 0.71072
 C2569 C 0.55461 0.72849 0.73747
 C2570 C 0.53890 0.72584 0.74133
 H2571 H 0.59261 0.67720 0.70057
 H2572 H 0.56649 0.68095 0.71412
 H2573 H 0.55034 0.69702 0.73062
 H2574 H 0.57995 0.73703 0.72189
 H2575 H 0.59616 0.72096 0.70564
 H2576 H 0.56039 0.73884 0.74161
 H2577 H 0.59813 0.70828 0.68373
 H2578 H 0.53238 0.71682 0.73577
 C2579 C 0.60094 0.18665 0.18234
 C2580 C 0.59682 0.18267 0.19657
 C2581 C 0.58571 0.19200 0.20564
 C2582 C 0.58701 0.19095 0.22075
 C2583 C 0.57719 0.19997 0.22976
 C2584 C 0.56563 0.21000 0.22387
 C2585 C 0.56404 0.21080 0.20872
 C2586 C 0.57397 0.20186 0.19968
 C2587 C 0.55625 0.22016 0.23376
 C2588 C 0.54160 0.22671 0.23017
 H2589 H 0.60288 0.17291 0.20175
 H2590 H 0.59589 0.18338 0.22562
 H2591 H 0.57869 0.19918 0.24139
 H2592 H 0.55545 0.21862 0.20377
 H2593 H 0.57238 0.20270 0.18809
 H2594 H 0.56096 0.22226 0.24445
 H2595 H 0.59569 0.19688 0.17720
 H2596 H 0.53576 0.22292 0.22041
 C2597 C 0.10173 0.67892 0.18342
 C2598 C 0.09490 0.69368 0.18079
 C2599 C 0.08619 0.70260 0.19211
 C2600 C 0.07456 0.71362 0.18805
 C2601 C 0.06635 0.72240 0.19855
 C2602 C 0.06981 0.72040 0.21334
 C2603 C 0.08170 0.70965 0.21734
 C2604 C 0.08979 0.70081 0.20688
 C2605 C 0.06175 0.72960 0.22485
 C2606 C 0.04672 0.73632 0.22345
 H2607 H 0.09564 0.69874 0.17003
 H2608 H 0.07179 0.71541 0.17672
 H2609 H 0.05759 0.73092 0.19503
 H2610 H 0.08475 0.70807 0.22863
 H2611 H 0.09908 0.69287 0.21039
 H2612 H 0.06747 0.73006 0.23530
 H2613 H 0.09978 0.67312 0.19372
 H2614 H 0.04002 0.73427 0.21371
 C2615 C 0.09549 0.19437 0.67630
 C2616 C 0.08943 0.19122 0.69006
 C2617 C 0.08048 0.20326 0.69842
 C2618 C 0.06912 0.19855 0.70862
 C2619 C 0.06073 0.20980 0.71677
 C2620 C 0.06373 0.22596 0.71493
 C2621 C 0.07535 0.23059 0.70497
 C2622 C 0.08361 0.21940 0.69677
 C2623 C 0.05558 0.23830 0.72355
 C2624 C 0.04071 0.23649 0.72989
 H2625 H 0.09110 0.17963 0.69479
 H2626 H 0.06672 0.18617 0.71026
 H2627 H 0.05219 0.20578 0.72467
 H2628 H 0.07808 0.24294 0.70353
 H2629 H 0.09270 0.22343 0.68941
 H2630 H 0.06112 0.24972 0.72406
 H2631 H 0.09256 0.20542 0.67102
 H2632 H 0.03413 0.22587 0.72788
 C2633 C 0.39895 0.68146 0.31516
 C2634 C 0.40650 0.69523 0.31934
 C2635 C 0.41661 0.70424 0.30920
 C2636 C 0.42875 0.71363 0.31461
 C2637 C 0.43832 0.72236 0.30518
 C2638 C 0.43575 0.72195 0.29014
 C2639 C 0.42339 0.71283 0.28481
 C2640 C 0.41394 0.70407 0.29418
 C2641 C 0.44508 0.73128 0.27963
 C2642 C 0.46000 0.73746 0.28232
 H2643 H 0.40526 0.69935 0.33039
 H2644 H 0.43087 0.71416 0.32616
 H2645 H 0.44744 0.72960 0.30974
 H2646 H 0.42098 0.71251 0.27330
 H2647 H 0.40433 0.69749 0.28963
 H2648 H 0.44027 0.73252 0.26885
 H2649 H 0.40132 0.67652 0.30456
 H2650 H 0.46591 0.73473 0.29238
 C2651 C 0.39656 0.18760 0.82294
 C2652 C 0.40319 0.18363 0.80953
 C2653 C 0.41366 0.19421 0.80119
 C2654 C 0.42325 0.18780 0.79018
 C2655 C 0.43247 0.19756 0.78141
 C2656 C 0.43217 0.21398 0.78345
 C2657 C 0.42253 0.22038 0.79441
 C2658 C 0.41339 0.21063 0.80323
 C2659 C 0.44102 0.22485 0.77394
 C2660 C 0.45440 0.22044 0.76595
 H2661 H 0.40047 0.17235 0.80478
 H2662 H 0.42345 0.17521 0.78823
 H2663 H 0.43940 0.19223 0.77280
 H2664 H 0.42193 0.23301 0.79607
 H2665 H 0.40577 0.21609 0.81126
 H2666 H 0.43730 0.23711 0.77387
 H2667 H 0.40025 0.19811 0.82852
 H2668 H 0.45951 0.20880 0.76737
 C2669 C 0.90063 0.68200 0.81567
 C2670 C 0.90767 0.69599 0.81997
 C2671 C 0.91740 0.70541 0.80986
 C2672 C 0.92938 0.71503 0.81523
 C2673 C 0.93845 0.72426 0.80578
 C2674 C 0.93550 0.72413 0.79080
 C2675 C 0.92333 0.71473 0.78552
 C2676 C 0.91440 0.70546 0.79490
 C2677 C 0.94419 0.73407 0.78034
 C2678 C 0.95919 0.74019 0.78266
 H2679 H 0.90611 0.70010 0.83099
 H2680 H 0.93172 0.71539 0.82675
 H2681 H 0.94745 0.73169 0.81028
 H2682 H 0.92066 0.71460 0.77406
 H2683 H 0.90490 0.69867 0.79041
 H2684 H 0.93886 0.73577 0.76981
 H2685 H 0.90342 0.67712 0.80512
 H2686 H 0.96563 0.73700 0.79234
 C2687 C 0.89258 0.18789 0.32093
 C2688 C 0.90058 0.18359 0.30825
 C2689 C 0.91062 0.19468 0.30000
 C2690 C 0.92247 0.18871 0.29076
 C2691 C 0.93184 0.19891 0.28253
 C2692 C 0.92943 0.21532 0.28334
 C2693 C 0.91743 0.22124 0.29242
 C2694 C 0.90813 0.21108 0.30066
 C2695 C 0.93852 0.22663 0.27445
 C2696 C 0.95315 0.22328 0.26802
 H2697 H 0.89969 0.17163 0.30432
 H2698 H 0.92445 0.17611 0.28987
 H2699 H 0.94066 0.19386 0.27535
 H2700 H 0.91514 0.23381 0.29307
 H2701 H 0.89875 0.21615 0.30722
 H2702 H 0.93374 0.23849 0.27357
 H2703 H 0.89442 0.19938 0.32563
 H2704 H 0.95907 0.21220 0.27031
 C2705 C 0.31077 0.31959 0.59602
 C2706 C 0.31577 0.30629 0.58834
 C2707 C 0.30540 0.29770 0.57831
 C2708 C 0.31221 0.28832 0.56739
 C2709 C 0.30277 0.27921 0.55837
 C2710 C 0.28628 0.27921 0.56024
 C2711 C 0.27948 0.28857 0.57117
 C2712 C 0.28890 0.29778 0.58008
 C2713 C 0.27603 0.26864 0.55186
 C2714 C 0.28006 0.26266 0.53823
 H2715 H 0.32773 0.30195 0.58971
 H2716 H 0.32490 0.28787 0.56595
 H2717 H 0.30847 0.27178 0.55034
 H2718 H 0.26684 0.28857 0.57297
 H2719 H 0.28325 0.30446 0.58868
 H2720 H 0.26472 0.26563 0.55657
 H2721 H 0.29942 0.32495 0.59371
 H2722 H 0.29022 0.26728 0.53253
 C2723 C 0.30948 0.80587 0.10536
 C2724 C 0.29853 0.81279 0.09604
 C2725 C 0.28917 0.80309 0.08603
 C2726 C 0.28429 0.80932 0.07268
 C2727 C 0.27560 0.80014 0.06306
 C2728 C 0.27154 0.78459 0.06675
 C2729 C 0.27606 0.77858 0.08028
 C2730 C 0.28476 0.78769 0.08981
 C2731 C 0.26195 0.77449 0.05729
 C2732 C 0.25995 0.77688 0.04243
 H2733 H 0.29715 0.82549 0.09575
 H2734 H 0.28732 0.82126 0.06965
 H2735 H 0.27189 0.80536 0.05292
 H2736 H 0.27282 0.76677 0.08351
 H2737 H 0.28778 0.78270 0.10025
 H2738 H 0.25676 0.76418 0.06226
 H2739 H 0.31190 0.79334 0.10458
 H2740 H 0.26668 0.78586 0.03690
 C2741 C 0.81287 0.32658 0.09213
 C2742 C 0.81418 0.31156 0.08610
 C2743 C 0.80209 0.30516 0.07629
 C2744 C 0.80626 0.29325 0.06640
 C2745 C 0.79484 0.28652 0.05751
 C2746 C 0.77898 0.29149 0.05852
 C2747 C 0.77484 0.30331 0.06848
 C2748 C 0.78623 0.31011 0.07725
 C2749 C 0.76625 0.28395 0.05026
 C2750 C 0.76852 0.27562 0.03737
 H2751 H 0.82437 0.30425 0.08858
 H2752 H 0.81835 0.28906 0.06563
 H2753 H 0.79838 0.27713 0.05023
 H2754 H 0.76266 0.30716 0.06964
 H2755 H 0.78243 0.31885 0.08508
 H2756 H 0.75433 0.28551 0.05436
 H2757 H 0.80356 0.33450 0.08861
 H2758 H 0.77991 0.27567 0.03201
 C2759 C 0.83107 0.80919 0.59463
 C2760 C 0.81672 0.81152 0.58765
 C2761 C 0.80996 0.79977 0.57775
 C2762 C 0.79938 0.80482 0.56706
 C2763 C 0.79192 0.79389 0.55821
 C2764 C 0.79478 0.77765 0.56006
 C2765 C 0.80531 0.77259 0.57079
 C2766 C 0.81294 0.78354 0.57951
 C2767 C 0.78599 0.76578 0.55178
 C2768 C 0.78018 0.76869 0.53792
 H2769 H 0.81015 0.82237 0.58946
 H2770 H 0.79672 0.81725 0.56568
 H2771 H 0.78349 0.79816 0.55033
 H2772 H 0.80749 0.76013 0.57256
 H2773 H 0.82066 0.77921 0.58795
 H2774 H 0.78420 0.75435 0.55673
 H2775 H 0.83854 0.79923 0.59177
 H2776 H 0.78388 0.77917 0.53216
 C2777 C 0.30995 0.68314 0.39817
 C2778 C 0.31629 0.69434 0.40742
 C2779 C 0.30630 0.70339 0.41777
 C2780 C 0.31294 0.70939 0.43048
 C2781 C 0.30371 0.71820 0.44026
 C2782 C 0.28768 0.72127 0.43738
 C2783 C 0.28116 0.71546 0.42457
 C2784 C 0.29032 0.70664 0.41487
 C2785 C 0.27760 0.73130 0.44683
 C2786 C 0.28089 0.73479 0.46128
 H2787 H 0.32888 0.69635 0.40727
 H2788 H 0.32528 0.70726 0.43283
 H2789 H 0.30929 0.72288 0.44980
 H2790 H 0.26894 0.71790 0.42196
 H2791 H 0.28491 0.70276 0.40493
 H2792 H 0.26676 0.73583 0.44220
 H2793 H 0.29763 0.68011 0.39922
 H2794 H 0.29047 0.72874 0.46672
 C2795 C 0.30767 0.17514 0.90627
 C2796 C 0.31304 0.18769 0.91454
 C2797 C 0.30298 0.19611 0.92526
 C2798 C 0.31015 0.20494 0.93619
 C2799 C 0.30102 0.21413 0.94570
 C2800 C 0.28451 0.21477 0.94435
 C2801 C 0.27735 0.20584 0.93351
 C2802 C 0.28645 0.19657 0.92408
 C2803 C 0.27457 0.22568 0.95306
 C2804 C 0.27907 0.23186 0.96639
 H2805 H 0.32499 0.19173 0.91297
 H2806 H 0.32287 0.20496 0.93718
 H2807 H 0.30699 0.22119 0.95366
 H2808 H 0.26468 0.20633 0.93210
 H2809 H 0.28051 0.19034 0.91553
 H2810 H 0.26317 0.22900 0.94872
 H2811 H 0.29634 0.16998 0.90868
 H2812 H 0.28930 0.22705 0.97187
 C2813 C 0.80683 0.68462 0.89417
 C2814 C 0.81253 0.69612 0.90349
 C2815 C 0.80190 0.70485 0.91355
 C2816 C 0.80784 0.71114 0.92645
 C2817 C 0.79786 0.71929 0.93612
 C2818 C 0.78173 0.72137 0.93296
 C2819 C 0.77597 0.71538 0.91989
 C2820 C 0.78589 0.70732 0.91028
 C2821 C 0.77040 0.72984 0.94256
 C2822 C 0.77380 0.73627 0.95612
 H2823 H 0.82503 0.69858 0.90362
 H2824 H 0.82018 0.70960 0.92911
 H2825 H 0.80289 0.72389 0.94594
 H2826 H 0.76369 0.71702 0.91702
 H2827 H 0.78097 0.70329 0.90018
 H2828 H 0.75838 0.73071 0.93874
 H2829 H 0.79458 0.68124 0.89491
 H2830 H 0.78522 0.73430 0.96097
 C2831 C 0.80359 0.17470 0.40346
 C2832 C 0.80824 0.18779 0.41140
 C2833 C 0.79771 0.19616 0.42177
 C2834 C 0.80439 0.20556 0.43254
 C2835 C 0.79481 0.21454 0.44185
 C2836 C 0.77830 0.21438 0.44046
 C2837 C 0.77162 0.20495 0.42971
 C2838 C 0.78119 0.19588 0.42048
 C2839 C 0.76786 0.22492 0.44908
 C2840 C 0.77211 0.23138 0.46238
 H2841 H 0.82011 0.19213 0.41002
 H2842 H 0.81708 0.20616 0.43361
 H2843 H 0.80042 0.22203 0.44970
 H2844 H 0.75896 0.20483 0.42826
 H2845 H 0.77560 0.18918 0.41203
 H2846 H 0.75634 0.22770 0.44471
 H2847 H 0.79233 0.16929 0.40568
 H2848 H 0.78255 0.22700 0.46782
 C2849 C 0.67869 0.30849 0.40019
 C2850 C 0.69143 0.31327 0.40856
 C2851 C 0.69971 0.30299 0.41915
 C2852 C 0.71009 0.30989 0.42902
 C2853 C 0.71900 0.30056 0.43851
 C2854 C 0.71772 0.28405 0.43831
 C2855 C 0.70730 0.27716 0.42848
 C2856 C 0.69839 0.28647 0.41900
 C2857 C 0.72761 0.27357 0.44745
 C2858 C 0.73576 0.27844 0.45974
 H2859 H 0.69577 0.32513 0.40720
 H2860 H 0.71150 0.32256 0.42923
 H2861 H 0.72718 0.30633 0.44563
 H2862 H 0.70623 0.26446 0.42796
 H2863 H 0.69092 0.28059 0.41132
 H2864 H 0.72806 0.26120 0.44456
 H2865 H 0.67329 0.29719 0.40209
 H2866 H 0.73394 0.29023 0.46392
 C2867 C 0.68451 0.82527 0.90396
 C2868 C 0.68167 0.81054 0.91012
 C2869 C 0.69321 0.80273 0.91986
 C2870 C 0.68809 0.79154 0.93003
 C2871 C 0.69897 0.78361 0.93891
 C2872 C 0.71520 0.78666 0.93761
 C2873 C 0.72026 0.79773 0.92734
 C2874 C 0.70945 0.80568 0.91857
 C2875 C 0.72736 0.77792 0.94591
 C2876 C 0.72457 0.76968 0.95879
 H2877 H 0.67086 0.80447 0.90763
 H2878 H 0.67567 0.78887 0.93105
 H2879 H 0.69467 0.77484 0.94643
 H2880 H 0.73271 0.80011 0.92594
 H2881 H 0.71395 0.81374 0.91049
 H2882 H 0.73936 0.77851 0.94187
 H2883 H 0.69463 0.83191 0.90742
 H2884 H 0.71320 0.77060 0.96412
 C2885 C 0.18392 0.30980 0.90750
 C2886 C 0.19716 0.31521 0.91481
 C2887 C 0.20684 0.30500 0.92441
 C2888 C 0.21663 0.31195 0.93475
 C2889 C 0.22630 0.30262 0.94363
 C2890 C 0.22641 0.28610 0.94225
 C2891 C 0.21678 0.27921 0.93177
 C2892 C 0.20713 0.28850 0.92294
 C2893 C 0.23671 0.27560 0.95098
 C2894 C 0.24416 0.27995 0.96382
 H2895 H 0.20060 0.32738 0.91350
 H2896 H 0.21683 0.32464 0.93592
 H2897 H 0.23386 0.30843 0.95128
 H2898 H 0.21680 0.26654 0.93032
 H2899 H 0.20026 0.28268 0.91475
 H2900 H 0.23773 0.26346 0.94748
 H2901 H 0.17964 0.29805 0.90954
 H2902 H 0.24183 0.29143 0.96848
 C2903 C 0.18483 0.81497 0.40840
 C2904 C 0.19923 0.81928 0.41434
 C2905 C 0.20813 0.80875 0.42425
 C2906 C 0.21871 0.81515 0.43422
 C2907 C 0.22781 0.80528 0.44315
 C2908 C 0.22659 0.78880 0.44206
 C2909 C 0.21608 0.78246 0.43203
 C2910 C 0.20693 0.79228 0.42325
 C2911 C 0.23672 0.77778 0.45035
 C2912 C 0.24408 0.78131 0.46343
 H2913 H 0.20421 0.83060 0.41159
 H2914 H 0.22002 0.82780 0.43502
 H2915 H 0.23608 0.81055 0.45052
 H2916 H 0.21509 0.76981 0.43083
 H2917 H 0.19933 0.78688 0.41536
 H2918 H 0.23782 0.76586 0.44622
 H2919 H 0.17906 0.80442 0.41222
 H2920 H 0.24155 0.79237 0.46884
 C2921 C 0.68076 0.69726 0.59795
 C2922 C 0.69405 0.69224 0.59018
 C2923 C 0.70283 0.70286 0.58035
 C2924 C 0.71175 0.69642 0.56891
 C2925 C 0.72065 0.70616 0.55982
 C2926 C 0.72088 0.72254 0.56213
 C2927 C 0.71211 0.72893 0.57368
 C2928 C 0.70314 0.71924 0.58268
 C2929 C 0.73090 0.73315 0.55338
 C2930 C 0.73600 0.72971 0.53932
 H2931 H 0.69809 0.68014 0.59119
 H2932 H 0.71191 0.68382 0.56706
 H2933 H 0.72766 0.70075 0.55130
 H2934 H 0.71232 0.74147 0.57583
 H2935 H 0.69687 0.72457 0.59169
 H2936 H 0.73390 0.74439 0.55809
 H2937 H 0.67581 0.70887 0.59598
 H2938 H 0.73128 0.71958 0.53379
 C2939 C 0.68853 0.18623 0.09793
 C2940 C 0.68284 0.19966 0.09086
 C2941 C 0.69299 0.20906 0.08106
 C2942 C 0.68615 0.21839 0.07014
 C2943 C 0.69561 0.22751 0.06092
 C2944 C 0.71210 0.22752 0.06260
 C2945 C 0.71882 0.21845 0.07373
 C2946 C 0.70943 0.20937 0.08286
 C2947 C 0.72282 0.23705 0.05349
 C2948 C 0.71879 0.24438 0.04041
 H2949 H 0.67074 0.20345 0.09257
 H2950 H 0.67348 0.21857 0.06871
 H2951 H 0.68992 0.23464 0.05272
 H2952 H 0.73146 0.21844 0.07545
 H2953 H 0.71513 0.20291 0.09153
 H2954 H 0.73498 0.23755 0.05696
 H2955 H 0.70018 0.18169 0.09531
 H2956 H 0.70727 0.24259 0.03577
 C2957 C 0.17935 0.67847 0.08979
 C2958 C 0.17494 0.69333 0.08464
 C2959 C 0.18571 0.70293 0.07568
 C2960 C 0.17955 0.71388 0.06572
 C2961 C 0.18965 0.72352 0.05763
 C2962 C 0.20606 0.72250 0.05961
 C2963 C 0.21214 0.71169 0.06969
 C2964 C 0.20212 0.70196 0.07759
 C2965 C 0.21719 0.73305 0.05212
 C2966 C 0.21449 0.74003 0.03863
 H2967 H 0.16340 0.69814 0.08733
 H2968 H 0.16692 0.71500 0.06425
 H2969 H 0.18458 0.73202 0.05019
 H2970 H 0.22473 0.71085 0.07155
 H2971 H 0.20724 0.69404 0.08552
 H2972 H 0.22864 0.73451 0.05707
 H2973 H 0.19014 0.67297 0.08587
 H2974 H 0.20407 0.73709 0.03255
 C2975 C 0.18053 0.18554 0.59221
 C2976 C 0.19516 0.18061 0.58677
 C2977 C 0.20517 0.19081 0.57760
 C2978 C 0.21667 0.18389 0.56856
 C2979 C 0.22677 0.19329 0.56027
 C2980 C 0.22561 0.20982 0.56101
 C2981 C 0.21426 0.21670 0.57022
 C2982 C 0.20413 0.20734 0.57841
 C2983 C 0.23632 0.22030 0.55287
 C2984 C 0.24428 0.21592 0.54018
 H2985 H 0.19956 0.16893 0.58941
 H2986 H 0.21789 0.17119 0.56796
 H2987 H 0.23568 0.18757 0.55361
 H2988 H 0.21328 0.22941 0.57114
 H2989 H 0.19583 0.21312 0.58565
 H2990 H 0.23706 0.23240 0.55651
 H2991 H 0.17539 0.19660 0.58861
 H2992 H 0.24211 0.20453 0.53539
   
