data_POSCAR
  _audit_creation_date              2014-09-24
  _audit_creation_method            'ToBaCCo'
  _symmetry_space_group_name_H-M    'P1'
  _symmetry_Int_Tables_number       1
  _symmetry_cell_setting            triclinic
  loop_
  _symmetry_equiv_pos_as_xyz
 x,y,z
_cell_length_a 97.2161
_cell_length_b 97.2257
_cell_length_c 96.5430
_cell_angle_alpha 89.779800
_cell_angle_beta 90.373400
_cell_angle_gamma 90.025700
loop_
  _atom_site_label
  _atom_site_type_symbol
  _atom_site_fract_x
  _atom_site_fract_y
  _atom_site_fract_z
N1 N 0.36650 0.32726 0.33525
 N2 N 0.36371 0.33536 0.32468
 C3 C 0.37324 0.33347 0.31482
 C4 C 0.38251 0.32359 0.31940
 C5 C 0.37790 0.31993 0.33247
 H6 H 0.37324 0.33873 0.30494
 H7 H 0.38213 0.31207 0.33920
 Cu8 Cu 0.34739 0.34691 0.32426
 Cu9 Cu 0.35437 0.32589 0.35115
 Cu10 Cu 0.32717 0.34884 0.35243
 N11 N 0.33359 0.36121 0.32622
 N12 N 0.32572 0.36202 0.33720
 C13 C 0.31712 0.37279 0.33570
 C14 C 0.31971 0.37909 0.32306
 C15 C 0.33027 0.37142 0.31737
 H16 H 0.30945 0.37571 0.34319
 H17 H 0.33528 0.37318 0.30756
 N18 N 0.33048 0.33469 0.36678
 N19 N 0.34092 0.32605 0.36632
 C20 C 0.33996 0.31712 0.37695
 C21 C 0.32832 0.32021 0.38452
 C22 C 0.32261 0.33148 0.37777
 H23 H 0.34700 0.30870 0.37875
 H24 H 0.31309 0.33661 0.38030
 H25 H 0.33633 0.33279 0.34192
 H26 H 0.34801 0.34620 0.34940
 N27 N 0.36515 0.82849 -0.16803
 N28 N 0.36471 0.83870 -0.17695
 C29 C 0.37542 0.83770 -0.18564
 C30 C 0.38304 0.82609 -0.18209
 C31 C 0.37617 0.82058 -0.17074
 H32 H 0.37718 0.84472 -0.19414
 H33 H 0.37857 0.81124 -0.16514
 Cu34 Cu 0.34947 0.85155 -0.17722
 Cu35 Cu 0.35052 0.82558 -0.15464
 Cu36 Cu 0.32754 0.85265 -0.15042
 N37 N 0.33739 0.86708 -0.17438
 N38 N 0.32855 0.86746 -0.16416
 C39 C 0.32089 0.87896 -0.16540
 C40 C 0.32525 0.88626 -0.17701
 C41 C 0.33585 0.87833 -0.18232
 H42 H 0.31267 0.88165 -0.15843
 H43 H 0.34169 0.88022 -0.19161
 N44 N 0.32832 0.83656 -0.13778
 N45 N 0.33703 0.82630 -0.13950
 C46 C 0.33471 0.81666 -0.12976
 C47 C 0.32396 0.82095 -0.12150
 C48 C 0.32020 0.83367 -0.12686
 H49 H 0.34036 0.80714 -0.12886
 H50 H 0.31186 0.84010 -0.12337
 H51 H 0.33445 0.83724 -0.16279
 H52 H 0.34787 0.84648 -0.15261
 N53 N 0.86601 0.33095 -0.16635
 N54 N 0.86301 0.33931 -0.17665
 C55 C 0.87236 0.33775 -0.18674
 C56 C 0.88175 0.32782 -0.18256
 C57 C 0.87739 0.32377 -0.16953
 H58 H 0.87217 0.34326 -0.19648
 H59 H 0.88171 0.31567 -0.16316
 Cu60 Cu 0.84681 0.35090 -0.17627
 Cu61 Cu 0.85394 0.32873 -0.15048
 Cu62 Cu 0.82443 0.34891 -0.15009
 N63 N 0.83388 0.36563 -0.17261
 N64 N 0.82483 0.36473 -0.16261
 C65 C 0.81634 0.37566 -0.16332
 C66 C 0.82033 0.38397 -0.17438
 C67 C 0.83163 0.37722 -0.17990
 H68 H 0.80777 0.37721 -0.15643
 H69 H 0.83749 0.38009 -0.18893
 N70 N 0.82884 0.33519 -0.13557
 N71 N 0.84024 0.32782 -0.13555
 C72 C 0.84005 0.31911 -0.12469
 C73 C 0.82796 0.32105 -0.11744
 C74 C 0.82114 0.33140 -0.12464
 H75 H 0.84796 0.31161 -0.12247
 H76 H 0.81110 0.33557 -0.12239
 H77 H 0.83601 0.33419 -0.16047
 H78 H 0.84523 0.34834 -0.15134
 N79 N 0.86281 0.82295 0.33399
 N80 N 0.86818 0.83416 0.32865
 C81 C 0.88010 0.83092 0.32241
 C82 C 0.88221 0.81686 0.32385
 C83 C 0.87098 0.81218 0.33124
 H84 H 0.88651 0.83818 0.31690
 H85 H 0.86886 0.80174 0.33449
 Cu86 Cu 0.85842 0.85157 0.32972
 Cu87 Cu 0.84543 0.82300 0.34374
 Cu88 Cu 0.83308 0.85507 0.35292
 N89 N 0.84521 0.86655 0.32843
 N90 N 0.83536 0.86806 0.33755
 C91 C 0.82751 0.87888 0.33384
 C92 C 0.83261 0.88442 0.32157
 C93 C 0.84396 0.87627 0.31857
 H94 H 0.81849 0.88208 0.33947
 H95 H 0.85065 0.87700 0.30971
 N96 N 0.82767 0.83803 0.36260
 N97 N 0.83183 0.82582 0.35842
 C98 C 0.82636 0.81611 0.36662
 C99 C 0.81837 0.82243 0.37652
 C100 C 0.81945 0.83639 0.37369
 H101 H 0.82854 0.80524 0.36578
 H102 H 0.81459 0.84471 0.37922
 H103 H 0.83675 0.84167 0.33776
 H104 H 0.85027 0.84186 0.35155
 N105 N 0.63209 0.67027 0.33906
 N106 N 0.63209 0.65969 0.33062
 C107 C 0.62195 0.66127 0.32119
 C108 C 0.61518 0.67352 0.32384
 C109 C 0.62190 0.67891 0.33531
 H110 H 0.61993 0.65418 0.31282
 H111 H 0.61999 0.68873 0.34014
 Cu112 Cu 0.64589 0.64529 0.33199
 Cu113 Cu 0.64618 0.67285 0.35330
 Cu114 Cu 0.67369 0.65042 0.35209
 N115 N 0.66236 0.63412 0.33007
 N116 N 0.67327 0.63642 0.33782
 C117 C 0.68338 0.62780 0.33410
 C118 C 0.67859 0.61959 0.32345
 C119 C 0.66514 0.62385 0.32118
 H120 H 0.69348 0.62751 0.33884
 H121 H 0.65806 0.62004 0.31341
 N122 N 0.67229 0.66514 0.36586
 N123 N 0.66173 0.67362 0.36656
 C124 C 0.66414 0.68282 0.37672
 C125 C 0.67689 0.68001 0.38259
 C126 C 0.68168 0.66869 0.37548
 H127 H 0.65743 0.69130 0.37925
 H128 H 0.69141 0.66354 0.37705
 H129 H 0.66050 0.66342 0.34106
 H130 H 0.65262 0.65278 0.35515
 N131 N 0.63333 0.16614 -0.16359
 N132 N 0.63337 0.15548 -0.17192
 C133 C 0.62292 0.15675 -0.18107
 C134 C 0.61594 0.16886 -0.17836
 C135 C 0.62287 0.17452 -0.16714
 H136 H 0.62074 0.14949 -0.18924
 H137 H 0.62079 0.18423 -0.16218
 Cu138 Cu 0.64740 0.14126 -0.17057
 Cu139 Cu 0.64730 0.16886 -0.14931
 Cu140 Cu 0.67295 0.14430 -0.14720
 N141 N 0.66230 0.12790 -0.16944
 N142 N 0.67210 0.12911 -0.16012
 C143 C 0.68129 0.11895 -0.16177
 C144 C 0.67717 0.11085 -0.17286
 C145 C 0.66497 0.11689 -0.17744
 H146 H 0.69053 0.11793 -0.15559
 H147 H 0.65863 0.11375 -0.18609
 N148 N 0.67221 0.16034 -0.13498
 N149 N 0.66240 0.16970 -0.13559
 C150 C 0.66524 0.17966 -0.12629
 C151 C 0.67751 0.17643 -0.11967
 C152 C 0.68157 0.16411 -0.12542
 H153 H 0.65920 0.18887 -0.12487
 H154 H 0.69083 0.15844 -0.12297
 H155 H 0.66237 0.15832 -0.15974
 H156 H 0.65200 0.14847 -0.14682
 N157 N 0.13775 0.67391 -0.15941
 N158 N 0.13605 0.66509 -0.16955
 C159 C 0.12523 0.66902 -0.17739
 C160 C 0.11981 0.68095 -0.17185
 C161 C 0.12805 0.68374 -0.16042
 H162 H 0.12178 0.66382 -0.18666
 H163 H 0.12713 0.69231 -0.15340
 Cu164 Cu 0.14858 0.64974 -0.17191
 Cu165 Cu 0.15270 0.67221 -0.14596
 Cu166 Cu 0.17485 0.64448 -0.14975
 N167 N 0.16105 0.63432 -0.17407
 N168 N 0.17116 0.63215 -0.16523
 C169 C 0.17834 0.62104 -0.16927
 C170 C 0.17250 0.61605 -0.18138
 C171 C 0.16155 0.62476 -0.18411
 H172 H 0.18742 0.61718 -0.16403
 H173 H 0.15454 0.62424 -0.19284
 N174 N 0.17678 0.65814 -0.13477
 N175 N 0.16838 0.66870 -0.13337
 C176 C 0.17263 0.67634 -0.12255
 C177 C 0.18431 0.67036 -0.11684
 C178 C 0.18659 0.65880 -0.12488
 H179 H 0.16778 0.68577 -0.11931
 H180 H 0.19488 0.65149 -0.12372
 H181 H 0.16620 0.66172 -0.15859
 H182 H 0.15482 0.65103 -0.14740
 N183 N 0.13278 0.17015 0.33431
 N184 N 0.13519 0.16091 0.32476
 C185 C 0.12536 0.16170 0.31492
 C186 C 0.11626 0.17210 0.31839
 C187 C 0.12134 0.17721 0.33084
 H188 H 0.12509 0.15536 0.30576
 H189 H 0.11724 0.18562 0.33681
 Cu190 Cu 0.15138 0.14926 0.32550
 Cu191 Cu 0.14509 0.17276 0.35010
 Cu192 Cu 0.17197 0.14950 0.35362
 N193 N 0.16498 0.13499 0.32874
 N194 N 0.17318 0.13516 0.33960
 C195 C 0.18203 0.12452 0.33878
 C196 C 0.17917 0.11726 0.32675
 C197 C 0.16825 0.12424 0.32069
 H198 H 0.19004 0.12236 0.34629
 H199 H 0.16332 0.12197 0.31090
 N200 N 0.16892 0.16476 0.36667
 N201 N 0.15872 0.17362 0.36531
 C202 C 0.15975 0.18310 0.37540
 C203 C 0.17116 0.18010 0.38355
 C204 C 0.17668 0.16836 0.37768
 H205 H 0.15282 0.19169 0.37655
 H206 H 0.18592 0.16304 0.38091
 H207 H 0.16288 0.16482 0.34167
 H208 H 0.15110 0.15238 0.35044
 N209 N 0.63325 0.32722 0.66504
 N210 N 0.63371 0.33750 0.67382
 C211 C 0.62423 0.33538 0.68376
 C212 C 0.61756 0.32306 0.68102
 C213 C 0.62352 0.31826 0.66901
 H214 H 0.62270 0.34194 0.69264
 H215 H 0.62113 0.30879 0.66368
 Cu216 Cu 0.64760 0.35181 0.67185
 Cu217 Cu 0.64587 0.32552 0.64962
 Cu218 Cu 0.67033 0.35114 0.64565
 N219 N 0.66133 0.36623 0.66952
 N220 N 0.67016 0.36589 0.65927
 C221 C 0.67876 0.37669 0.66034
 C222 C 0.67523 0.38423 0.67195
 C223 C 0.66408 0.37722 0.67749
 H224 H 0.68716 0.37867 0.65334
 H225 H 0.65856 0.37974 0.68681
 N226 N 0.66873 0.33531 0.63301
 N227 N 0.65943 0.32556 0.63464
 C228 C 0.66133 0.31584 0.62498
 C229 C 0.67238 0.31956 0.61686
 C230 C 0.67679 0.33202 0.62220
 H231 H 0.65523 0.30659 0.62406
 H232 H 0.68556 0.33796 0.61882
 H233 H 0.66209 0.33641 0.65849
 H234 H 0.64982 0.34639 0.64737
 N235 N 0.63839 0.82206 1.16033
 N236 N 0.63553 0.83189 1.16916
 C237 C 0.62400 0.82853 1.17606
 C238 C 0.61945 0.81583 1.17138
 C239 C 0.62889 0.81206 1.16138
 H240 H 0.61962 0.83456 1.18431
 H241 H 0.62902 0.80265 1.15545
 Cu242 Cu 0.64813 0.84727 1.17171
 Cu243 Cu 0.65483 0.82250 1.14889
 Cu244 Cu 0.66949 0.85493 1.14573
 N245 N 0.66033 0.86311 1.17272
 N246 N 0.66866 0.86606 1.16247
 C247 C 0.67619 0.87718 1.16581
 C248 C 0.67251 0.88144 1.17898
 C249 C 0.66235 0.87223 1.18300
 H250 H 0.68397 0.88158 1.15919
 H251 H 0.65704 0.87193 1.19279
 N252 N 0.67328 0.83980 1.13281
 N253 N 0.66791 0.82741 1.13418
 C254 C 0.67283 0.81926 1.12413
 C255 C 0.68186 0.82685 1.11609
 C256 C 0.68188 0.83984 1.12194
 H257 H 0.67022 0.80852 1.12294
 H258 H 0.68783 0.84865 1.11865
 H259 H 0.66693 0.83802 1.15790
 H260 H 0.65162 0.84283 1.14717
 N261 N 0.13254 0.33017 1.16475
 N262 N 0.13342 0.34031 1.17367
 C263 C 0.12352 0.33880 1.18325
 C264 C 0.11599 0.32707 1.18019
 C265 C 0.12204 0.32189 1.16833
 H266 H 0.12197 0.34567 1.19187
 H267 H 0.11926 0.31260 1.16288
 Cu268 Cu 0.14777 0.35419 1.17208
 Cu269 Cu 0.14541 0.32811 1.14946
 Cu270 Cu 0.17071 0.35311 1.14632
 N271 N 0.16205 0.36811 1.17033
 N272 N 0.17090 0.36766 1.16012
 C273 C 0.18005 0.37793 1.16161
 C274 C 0.17685 0.38523 1.17345
 C275 C 0.16530 0.37870 1.17869
 H276 H 0.18860 0.37970 1.15474
 H277 H 0.16001 0.38113 1.18818
 N278 N 0.16886 0.33759 1.13337
 N279 N 0.15939 0.32795 1.13468
 C280 C 0.16139 0.31834 1.12488
 C281 C 0.17267 0.32209 1.11700
 C282 C 0.17707 0.33440 1.12268
 H283 H 0.15525 0.30915 1.12372
 H284 H 0.18597 0.34030 1.11961
 H285 H 0.16165 0.33826 1.15867
 H286 H 0.14989 0.34875 1.14754
 N287 N 0.13642 0.82733 0.66798
 N288 N 0.13660 0.83856 0.67551
 C289 C 0.12617 0.83814 0.68456
 C290 C 0.11905 0.82595 0.68271
 C291 C 0.12583 0.81935 0.67202
 H292 H 0.12410 0.84600 0.69216
 H293 H 0.12363 0.80924 0.66791
 Cu294 Cu 0.15112 0.85211 0.67382
 Cu295 Cu 0.15086 0.82358 0.65458
 Cu296 Cu 0.16943 0.85244 0.64439
 N297 N 0.16448 0.86639 0.66996
 N298 N 0.17178 0.86657 0.65855
 C299 C 0.18002 0.87776 0.65867
 C300 C 0.17762 0.88499 0.67078
 C301 C 0.16773 0.87741 0.67766
 H302 H 0.18709 0.88048 0.65050
 H303 H 0.16333 0.87966 0.68765
 N304 N 0.16935 0.83501 0.63391
 N305 N 0.16250 0.82400 0.63798
 C306 C 0.16497 0.81364 0.62914
 C307 C 0.17387 0.81828 0.61899
 C308 C 0.17641 0.83191 0.62237
 H309 H 0.16059 0.80346 0.63007
 H310 H 0.18325 0.83893 0.61710
 H311 H 0.16618 0.83816 0.65938
 H312 H 0.15036 0.84393 0.64997
 N313 N 0.36687 0.66635 0.66187
 N314 N 0.36678 0.65522 0.66964
 C315 C 0.37687 0.65611 0.67920
 C316 C 0.38370 0.66849 0.67736
 C317 C 0.37708 0.67468 0.66620
 H318 H 0.37881 0.64845 0.68711
 H319 H 0.37906 0.68480 0.66198
 Cu320 Cu 0.35280 0.64113 0.66744
 Cu321 Cu 0.35289 0.66984 0.64766
 Cu322 Cu 0.32506 0.64762 0.64776
 N323 N 0.33620 0.63017 0.66911
 N324 N 0.32531 0.63290 0.66147
 C325 C 0.31500 0.62446 0.66516
 C326 C 0.31965 0.61593 0.67572
 C327 C 0.33321 0.61982 0.67792
 H328 H 0.30482 0.62463 0.66059
 H329 H 0.34021 0.61583 0.68570
 N330 N 0.32674 0.66304 0.63466
 N331 N 0.33739 0.67145 0.63439
 C332 C 0.33521 0.68109 0.62453
 C333 C 0.32250 0.67865 0.61842
 C334 C 0.31751 0.66709 0.62507
 H335 H 0.34206 0.68957 0.62233
 H336 H 0.30776 0.66208 0.62316
 H337 H 0.33838 0.65990 0.65935
 H338 H 0.34613 0.65003 0.64474
 N339 N 0.36754 0.17611 1.15770
 N340 N 0.36870 0.16811 1.16865
 C341 C 0.37951 0.17230 1.17632
 C342 C 0.38545 0.18358 1.16987
 C343 C 0.37755 0.18568 1.15805
 H344 H 0.38265 0.16763 1.18601
 H345 H 0.37897 0.19353 1.15022
 Cu346 Cu 0.35601 0.15294 1.17174
 Cu347 Cu 0.35338 0.17323 1.14362
 Cu348 Cu 0.32692 0.15133 1.15318
 N349 N 0.34371 0.13718 1.17314
 N350 N 0.33233 0.13666 1.16577
 C351 C 0.32521 0.12534 1.16923
 C352 C 0.33246 0.11828 1.17943
 C353 C 0.34423 0.12613 1.18159
 H354 H 0.31527 0.12276 1.16489
 H355 H 0.35234 0.12423 1.18905
 N356 N 0.32580 0.16356 1.13704
 N357 N 0.33596 0.17167 1.13315
 C358 C 0.33203 0.17864 1.12172
 C359 C 0.31874 0.17471 1.11825
 C360 C 0.31518 0.16509 1.12819
 H361 H 0.33827 0.18629 1.11656
 H362 H 0.30557 0.15956 1.12896
 H363 H 0.34007 0.16780 1.15877
 H364 H 0.34700 0.15332 1.14823
 N365 N 0.86886 0.66961 1.16525
 N366 N 0.86734 0.66038 1.17508
 C367 C 0.87703 0.66232 1.18487
 C368 C 0.88508 0.67344 1.18102
 C369 C 0.87961 0.67777 1.16845
 H370 H 0.87796 0.65626 1.19423
 H371 H 0.88278 0.68659 1.16241
 Cu372 Cu 0.85229 0.64730 1.17485
 Cu373 Cu 0.85594 0.67108 1.14983
 Cu374 Cu 0.83102 0.64566 1.14722
 N375 N 0.83994 0.63190 1.17204
 N376 N 0.83152 0.63130 1.16136
 C377 C 0.82347 0.62010 1.16265
 C378 C 0.82705 0.61330 1.17481
 C379 C 0.83760 0.62110 1.18044
 H380 H 0.81538 0.61732 1.15545
 H381 H 0.84276 0.61943 1.19024
 N382 N 0.83240 0.66114 1.13401
 N383 N 0.84189 0.67080 1.13504
 C384 C 0.83952 0.68046 1.12531
 C385 C 0.82797 0.67676 1.11775
 C386 C 0.82378 0.66440 1.12351
 H387 H 0.84553 0.68974 1.12410
 H388 H 0.81470 0.65857 1.12073
 H389 H 0.83905 0.66156 1.15877
 H390 H 0.85159 0.65010 1.14983
 N391 N 0.86468 0.16722 0.66271
 N392 N 0.86493 0.15674 0.67136
 C393 C 0.87458 0.15909 0.68118
 C394 C 0.88058 0.17177 0.67858
 C395 C 0.87405 0.17657 0.66674
 H396 H 0.87665 0.15241 0.68993
 H397 H 0.87578 0.18630 0.66159
 Cu398 Cu 0.85187 0.14159 0.66963
 Cu399 Cu 0.85163 0.16867 0.64746
 Cu400 Cu 0.82745 0.14286 0.64466
 N401 N 0.83741 0.12771 0.66824
 N402 N 0.82808 0.12824 0.65834
 C403 C 0.81905 0.11793 0.66006
 C404 C 0.82279 0.11046 0.67172
 C405 C 0.83454 0.11699 0.67666
 H406 H 0.81005 0.11639 0.65363
 H407 H 0.84037 0.11436 0.68586
 N408 N 0.82832 0.15846 0.63172
 N409 N 0.83757 0.16834 0.63270
 C410 C 0.83485 0.17797 0.62297
 C411 C 0.82327 0.17398 0.61559
 C412 C 0.81948 0.16153 0.62140
 H413 H 0.84042 0.18753 0.62182
 H414 H 0.81067 0.15535 0.61856
 H415 H 0.83659 0.15747 0.65739
 H416 H 0.84815 0.14790 0.64536
 N417 N 0.32897 0.36687 0.66201
 N418 N 0.33786 0.36601 0.67228
 C419 C 0.33571 0.37640 0.68115
 C420 C 0.32479 0.38419 0.67627
 C421 C 0.32074 0.37781 0.66409
 H422 H 0.34140 0.37791 0.69068
 H423 H 0.31240 0.38086 0.65727
 Cu424 Cu 0.35084 0.35096 0.67382
 Cu425 Cu 0.32877 0.35357 0.64691
 Cu426 Cu 0.35472 0.32910 0.64724
 N427 N 0.36631 0.33845 0.67290
 N428 N 0.36783 0.32983 0.66258
 C429 C 0.37900 0.32197 0.66502
 C430 C 0.38483 0.32591 0.67756
 C431 C 0.37645 0.33643 0.68221
 H432 H 0.38247 0.31385 0.65827
 H433 H 0.37739 0.34195 0.69186
 N434 N 0.34044 0.33002 0.63269
 N435 N 0.33048 0.33922 0.63260
 C436 C 0.32201 0.33669 0.62180
 C437 C 0.32688 0.32531 0.61473
 C438 C 0.33859 0.32139 0.62197
 H439 H 0.31287 0.34257 0.61938
 H440 H 0.34500 0.31257 0.61991
 H441 H 0.33780 0.33721 0.65721
 H442 H 0.34964 0.34980 0.64872
 N443 N 0.32848 0.86922 0.16454
 N444 N 0.34027 0.87232 0.17047
 C445 C 0.33837 0.88282 0.17931
 C446 C 0.32459 0.88642 0.17901
 C447 C 0.31863 0.87756 0.16949
 H448 H 0.34631 0.88706 0.18593
 H449 H 0.30790 0.87708 0.16651
 Cu450 Cu 0.35657 0.86134 0.16724
 Cu451 Cu 0.32684 0.85443 0.15104
 Cu452 Cu 0.35460 0.83222 0.14855
 N453 N 0.37042 0.84708 0.16885
 N454 N 0.36958 0.83563 0.16171
 C455 C 0.37977 0.82711 0.16581
 C456 C 0.38738 0.83356 0.17614
 C457 C 0.38113 0.84627 0.17770
 H458 H 0.38108 0.81676 0.16200
 H459 H 0.38379 0.85419 0.18507
 N460 N 0.33798 0.83064 0.13670
 N461 N 0.32731 0.83893 0.13796
 C462 C 0.31749 0.83513 0.12888
 C463 C 0.32215 0.82393 0.12148
 C464 C 0.33523 0.82139 0.12668
 H465 H 0.30770 0.84026 0.12763
 H466 H 0.34212 0.81325 0.12357
 H467 H 0.34132 0.84242 0.16138
 H468 H 0.34739 0.85200 0.14573
 N469 N 0.82877 0.37174 0.15948
 N470 N 0.83778 0.37110 0.16966
 C471 C 0.83571 0.38179 0.17825
 C472 C 0.82487 0.38955 0.17308
 C473 C 0.82076 0.38286 0.16115
 H474 H 0.84150 0.38370 0.18764
 H475 H 0.81215 0.38552 0.15452
 Cu476 Cu 0.85091 0.35601 0.17083
 Cu477 Cu 0.82698 0.35736 0.14573
 Cu478 Cu 0.85053 0.33061 0.14712
 N479 N 0.86431 0.34116 0.17130
 N480 N 0.86430 0.33139 0.16192
 C481 C 0.87437 0.32233 0.16496
 C482 C 0.88100 0.32660 0.17696
 C483 C 0.87434 0.33861 0.18064
 H484 H 0.87636 0.31304 0.15919
 H485 H 0.87652 0.34495 0.18955
 N486 N 0.83570 0.33178 0.13303
 N487 N 0.82668 0.34192 0.13273
 C488 C 0.81711 0.33930 0.12298
 C489 C 0.82023 0.32695 0.11675
 C490 C 0.83215 0.32249 0.12329
 H491 H 0.80829 0.34572 0.12080
 H492 H 0.83740 0.31285 0.12157
 H493 H 0.83548 0.34134 0.15740
 H494 H 0.84751 0.35142 0.14628
 N495 N 0.83391 0.86718 0.66779
 N496 N 0.84398 0.86462 0.67657
 C497 C 0.84378 0.87414 0.68669
 C498 C 0.83302 0.88316 0.68405
 C499 C 0.82703 0.87840 0.67194
 H500 H 0.85081 0.87438 0.69540
 H501 H 0.81801 0.88246 0.66677
 Cu502 Cu 0.85584 0.84869 0.67416
 Cu503 Cu 0.82983 0.85534 0.65209
 Cu504 Cu 0.85079 0.82687 0.64768
 N505 N 0.86781 0.83291 0.67135
 N506 N 0.86562 0.82432 0.66109
 C507 C 0.87495 0.81411 0.66177
 C508 C 0.88349 0.81642 0.67305
 C509 C 0.87866 0.82847 0.67888
 H510 H 0.87545 0.80564 0.65458
 H511 H 0.88253 0.83343 0.68812
 N512 N 0.83526 0.83130 0.63521
 N513 N 0.82734 0.84217 0.63688
 C514 C 0.81757 0.84225 0.62694
 C515 C 0.81942 0.83089 0.61856
 C516 C 0.83075 0.82419 0.62414
 H517 H 0.80965 0.84998 0.62593
 H518 H 0.83520 0.81466 0.62060
 H519 H 0.83778 0.83745 0.66068
 H520 H 0.84961 0.84792 0.64971
 N521 N 0.67091 0.63434 0.66175
 N522 N 0.66047 0.63362 0.67031
 C523 C 0.66278 0.62335 0.67947
 C524 C 0.67538 0.61740 0.67652
 C525 C 0.68019 0.62464 0.66518
 H526 H 0.65606 0.62075 0.68797
 H527 H 0.68985 0.62315 0.65992
 Cu528 Cu 0.64531 0.64673 0.66918
 Cu529 Cu 0.67235 0.64829 0.64734
 Cu530 Cu 0.64619 0.67226 0.64555
 N531 N 0.63100 0.66082 0.66826
 N532 N 0.63139 0.67057 0.65881
 C533 C 0.62078 0.67919 0.66065
 C534 C 0.61325 0.67473 0.67192
 C535 C 0.62007 0.66300 0.67652
 H536 H 0.61905 0.68839 0.65458
 H537 H 0.61745 0.65669 0.68536
 N538 N 0.66196 0.67242 0.63295
 N539 N 0.67194 0.66324 0.63348
 C540 C 0.68158 0.66666 0.62406
 C541 C 0.67749 0.67864 0.61743
 C542 C 0.66499 0.68193 0.62330
 H543 H 0.69119 0.66127 0.62263
 H544 H 0.65874 0.69082 0.62092
 H545 H 0.66104 0.66274 0.65788
 H546 H 0.65159 0.65164 0.64522
 N547 N 0.67086 0.13137 0.16146
 N548 N 0.66109 0.13129 0.17083
 C549 C 0.66348 0.12102 0.17990
 C550 C 0.67541 0.11429 0.17611
 C551 C 0.67979 0.12113 0.16430
 H552 H 0.65717 0.11880 0.18882
 H553 H 0.68910 0.11920 0.15857
 Cu554 Cu 0.64667 0.14513 0.17076
 Cu555 Cu 0.67193 0.14555 0.14711
 Cu556 Cu 0.64623 0.17036 0.14709
 N557 N 0.63221 0.15897 0.17061
 N558 N 0.63206 0.16873 0.16117
 C559 C 0.62145 0.17723 0.16358
 C560 C 0.61449 0.17260 0.17519
 C561 C 0.62165 0.16094 0.17936
 H562 H 0.61929 0.18639 0.15758
 H563 H 0.61953 0.15455 0.18828
 N564 N 0.66138 0.17027 0.13367
 N565 N 0.67112 0.16081 0.13352
 C566 C 0.68019 0.16401 0.12349
 C567 C 0.67600 0.17610 0.11710
 C568 C 0.66402 0.17971 0.12381
 H569 H 0.68947 0.15829 0.12136
 H570 H 0.65777 0.18869 0.12178
 H571 H 0.66185 0.16058 0.15808
 H572 H 0.65115 0.14966 0.14637
 N573 N 0.17370 0.63364 0.15910
 N574 N 0.16392 0.63170 0.16822
 C575 C 0.16739 0.62112 0.17657
 C576 C 0.18005 0.61609 0.17245
 C577 C 0.18373 0.62433 0.16130
 H578 H 0.16134 0.61762 0.18526
 H579 H 0.19306 0.62371 0.15531
 Cu580 Cu 0.14784 0.64352 0.16842
 Cu581 Cu 0.17293 0.64849 0.14540
 Cu582 Cu 0.14543 0.67122 0.14790
 N583 N 0.13358 0.65717 0.17126
 N584 N 0.13251 0.66787 0.16299
 C585 C 0.12204 0.67582 0.16725
 C586 C 0.11622 0.66981 0.17888
 C587 C 0.12389 0.65797 0.18113
 H588 H 0.11922 0.68551 0.16250
 H589 H 0.12267 0.65058 0.18942
 N590 N 0.15972 0.67275 0.13349
 N591 N 0.17018 0.66416 0.13255
 C592 C 0.17832 0.66824 0.12206
 C593 C 0.17279 0.68003 0.11611
 C594 C 0.16097 0.68253 0.12365
 H595 H 0.18775 0.66317 0.11918
 H596 H 0.15387 0.69096 0.12222
 H597 H 0.16153 0.66144 0.15767
 H598 H 0.15183 0.65117 0.14461
 N599 N 0.16746 0.13244 0.66223
 N600 N 0.15766 0.13371 0.67146
 C601 C 0.15942 0.12413 0.68141
 C602 C 0.17090 0.11637 0.67826
 C603 C 0.17572 0.12192 0.66597
 H604 H 0.15289 0.12297 0.69036
 H605 H 0.18482 0.11884 0.66041
 Cu606 Cu 0.14375 0.14800 0.67011
 Cu607 Cu 0.16915 0.14498 0.64652
 Cu608 Cu 0.14532 0.17139 0.64445
 N609 N 0.13083 0.16324 0.66889
 N610 N 0.13162 0.17243 0.65892
 C611 C 0.12195 0.18210 0.66083
 C612 C 0.11463 0.17881 0.67263
 C613 C 0.12054 0.16674 0.67747
 H614 H 0.12041 0.19092 0.65415
 H615 H 0.11784 0.16118 0.68678
 N616 N 0.15986 0.16875 0.63069
 N617 N 0.16905 0.15880 0.63143
 C618 C 0.17786 0.16017 0.62077
 C619 C 0.17394 0.17150 0.61290
 C620 C 0.16250 0.17664 0.61956
 H621 H 0.18656 0.15352 0.61895
 H622 H 0.15676 0.18576 0.61677
 H623 H 0.16017 0.16132 0.65651
 H624 H 0.14879 0.15032 0.64549
 N625 N 0.32898 0.63601 0.33474
 N626 N 0.33691 0.63882 0.32414
 C627 C 0.33503 0.62928 0.31428
 C628 C 0.32532 0.61992 0.31887
 C629 C 0.32174 0.62450 0.33197
 H630 H 0.34029 0.62925 0.30445
 H631 H 0.31408 0.62011 0.33874
 Cu632 Cu 0.34862 0.65490 0.32384
 Cu633 Cu 0.32805 0.64827 0.35072
 Cu634 Cu 0.35245 0.67443 0.35216
 N635 N 0.36423 0.66700 0.32606
 N636 N 0.36581 0.67478 0.33706
 C637 C 0.37731 0.68239 0.33554
 C638 C 0.38325 0.67911 0.32292
 C639 C 0.37462 0.66929 0.31725
 H640 H 0.38104 0.68976 0.34304
 H641 H 0.37556 0.66439 0.30727
 N642 N 0.33797 0.67198 0.36631
 N643 N 0.32884 0.66194 0.36582
 C644 C 0.31991 0.66347 0.37630
 C645 C 0.32353 0.67506 0.38383
 C646 C 0.33509 0.68014 0.37717
 H647 H 0.31113 0.65690 0.37798
 H648 H 0.34068 0.68942 0.37969
 H649 H 0.33550 0.66627 0.34190
 H650 H 0.34851 0.65390 0.34894
 N651 N 0.32602 0.13358 0.83836
 N652 N 0.33644 0.13221 0.82989
 C653 C 0.33354 0.12218 0.82071
 C654 C 0.32054 0.11704 0.82357
 C655 C 0.31614 0.12453 0.83488
 H656 H 0.34020 0.11915 0.81234
 H657 H 0.30642 0.12355 0.84016
 Cu658 Cu 0.35257 0.14401 0.83135
 Cu659 Cu 0.32577 0.14726 0.85296
 Cu660 Cu 0.35286 0.17028 0.85423
 N661 N 0.36652 0.15835 0.83088
 N662 N 0.36678 0.16840 0.83995
 C663 C 0.37719 0.17700 0.83688
 C664 C 0.38378 0.17215 0.82520
 C665 C 0.37671 0.16027 0.82170
 H666 H 0.37938 0.18644 0.84236
 H667 H 0.37863 0.15364 0.81296
 N668 N 0.33767 0.17046 0.86767
 N669 N 0.32729 0.16174 0.86703
 C670 C 0.31806 0.16503 0.87678
 C671 C 0.32279 0.17641 0.88393
 C672 C 0.33531 0.17953 0.87792
 H673 H 0.30844 0.15971 0.87838
 H674 H 0.34186 0.18819 0.88037
 H675 H 0.33794 0.16115 0.84210
 H676 H 0.34685 0.14996 0.85518
 N677 N 0.82730 0.63301 0.83555
 N678 N 0.83447 0.63603 0.82447
 C679 C 0.83189 0.62667 0.81458
 C680 C 0.82251 0.61723 0.81967
 C681 C 0.81988 0.62155 0.83308
 H682 H 0.83639 0.62687 0.80438
 H683 H 0.81269 0.61704 0.84029
 Cu684 Cu 0.84590 0.65231 0.82344
 Cu685 Cu 0.82743 0.64491 0.85179
 Cu686 Cu 0.85137 0.67137 0.85196
 N687 N 0.86099 0.66526 0.82468
 N688 N 0.86327 0.67267 0.83581
 C689 C 0.87413 0.68099 0.83352
 C690 C 0.87885 0.67866 0.82020
 C691 C 0.87026 0.66856 0.81496
 H692 H 0.87803 0.68844 0.84084
 H693 H 0.87065 0.66394 0.80481
 N694 N 0.83828 0.66826 0.86719
 N695 N 0.82921 0.65816 0.86715
 C696 C 0.82112 0.65937 0.87834
 C697 C 0.82523 0.67083 0.88580
 C698 C 0.83619 0.67616 0.87840
 H699 H 0.81241 0.65281 0.88049
 H700 H 0.84192 0.68540 0.88071
 H701 H 0.83402 0.66309 0.84267
 H702 H 0.84767 0.65072 0.84846
 N703 N 0.82724 0.13336 0.33668
 N704 N 0.83777 0.13293 0.32823
 C705 C 0.83535 0.12324 0.31853
 C706 C 0.82254 0.11749 0.32103
 C707 C 0.81776 0.12415 0.33264
 H708 H 0.84212 0.12093 0.31000
 H709 H 0.80801 0.12250 0.33770
 Cu710 Cu 0.85310 0.14579 0.33022
 Cu711 Cu 0.82608 0.14603 0.35205
 Cu712 Cu 0.85062 0.17144 0.35373
 N713 N 0.86543 0.16165 0.33001
 N714 N 0.86427 0.17158 0.33914
 C715 C 0.87344 0.18151 0.33628
 C716 C 0.88082 0.17769 0.32472
 C717 C 0.87550 0.16496 0.32103
 H718 H 0.87455 0.19092 0.34211
 H719 H 0.87837 0.15882 0.31219
 N720 N 0.83595 0.16951 0.36754
 N721 N 0.82658 0.15974 0.36688
 C722 C 0.81751 0.16150 0.37719
 C723 C 0.82129 0.17300 0.38473
 C724 C 0.83309 0.17778 0.37830
 H725 H 0.80861 0.15506 0.37884
 H726 H 0.83889 0.18690 0.38091
 H727 H 0.83685 0.16108 0.34130
 H728 H 0.84690 0.15056 0.35420
 N729 N 0.67101 0.37023 0.33301
 N730 N 0.65952 0.37041 0.32578
 C731 C 0.66014 0.38060 0.31632
 C732 C 0.67272 0.38721 0.31770
 C733 C 0.67932 0.38028 0.32842
 H734 H 0.65195 0.38308 0.30911
 H735 H 0.68938 0.38241 0.33270
 Cu736 Cu 0.64476 0.35757 0.32965
 Cu737 Cu 0.67412 0.35746 0.34830
 Cu738 Cu 0.64904 0.33275 0.35370
 N739 N 0.63216 0.34218 0.33106
 N740 N 0.63363 0.33269 0.34068
 C741 C 0.62366 0.32320 0.33914
 C742 C 0.61554 0.32688 0.32786
 C743 C 0.62128 0.33901 0.32300
 H744 H 0.62275 0.31402 0.34541
 H745 H 0.61792 0.34500 0.31415
 N746 N 0.66551 0.33449 0.36558
 N747 N 0.67522 0.34369 0.36329
 C748 C 0.68523 0.34211 0.37286
 C749 C 0.68168 0.33141 0.38167
 C750 C 0.66908 0.32684 0.37669
 H751 H 0.69448 0.34826 0.37329
 H752 H 0.66295 0.31852 0.38081
 H753 H 0.66205 0.34233 0.33962
 H754 H 0.65394 0.35359 0.35292
 N755 N 0.66911 0.86374 0.83789
 N756 N 0.65918 0.86336 0.82858
 C757 C 0.66209 0.87240 0.81836
 C758 C 0.67458 0.87861 0.82142
 C759 C 0.67867 0.87288 0.83390
 H760 H 0.65595 0.87392 0.80910
 H761 H 0.68805 0.87504 0.83956
 Cu762 Cu 0.64422 0.85007 0.83052
 Cu763 Cu 0.66957 0.85190 0.85418
 Cu764 Cu 0.64271 0.82883 0.85798
 N765 N 0.62925 0.83682 0.83253
 N766 N 0.62870 0.82878 0.84349
 C767 C 0.61808 0.82003 0.84211
 C768 C 0.61158 0.82256 0.82954
 C769 C 0.61898 0.83337 0.82376
 H770 H 0.61567 0.81205 0.84951
 H771 H 0.61741 0.83794 0.81365
 N772 N 0.65790 0.83039 0.87148
 N773 N 0.66817 0.83912 0.86999
 C774 C 0.67744 0.83694 0.88018
 C775 C 0.67286 0.82624 0.88847
 C776 C 0.66039 0.82240 0.88264
 H777 H 0.68716 0.84227 0.88107
 H778 H 0.65384 0.81406 0.88598
 H779 H 0.65852 0.83587 0.84567
 H780 H 0.64861 0.84909 0.85538
 N781 N 0.16987 0.36674 0.83890
 N782 N 0.16158 0.36645 0.82811
 C783 C 0.16418 0.37742 0.81999
 C784 C 0.17473 0.38503 0.82596
 C785 C 0.17805 0.37788 0.83800
 H786 H 0.15890 0.37953 0.81034
 H787 H 0.18595 0.38043 0.84548
 Cu788 Cu 0.14839 0.35163 0.82528
 Cu789 Cu 0.16982 0.35238 0.85300
 Cu790 Cu 0.14417 0.32790 0.85043
 N791 N 0.13297 0.33884 0.82518
 N792 N 0.13126 0.32977 0.83514
 C793 C 0.12024 0.32192 0.83222
 C794 C 0.11470 0.32621 0.81969
 C795 C 0.12306 0.33702 0.81553
 H796 H 0.11690 0.31330 0.83845
 H797 H 0.12217 0.34297 0.80609
 N798 N 0.15820 0.32764 0.86514
 N799 N 0.16798 0.33698 0.86620
 C800 C 0.17637 0.33354 0.87682
 C801 C 0.17168 0.32137 0.88263
 C802 C 0.16012 0.31798 0.87497
 H803 H 0.18557 0.33910 0.87972
 H804 H 0.15376 0.30896 0.87625
 H805 H 0.16127 0.33685 0.84123
 H806 H 0.14911 0.34870 0.85027
 N807 N 0.17339 0.87098 0.33272
 N808 N 0.16563 0.86768 0.32206
 C809 C 0.16714 0.87711 0.31200
 C810 C 0.17639 0.88693 0.31654
 C811 C 0.18015 0.88272 0.32978
 H812 H 0.16188 0.87679 0.30210
 H813 H 0.18757 0.88757 0.33658
 Cu814 Cu 0.15433 0.85139 0.32212
 Cu815 Cu 0.17469 0.85910 0.34901
 Cu816 Cu 0.15108 0.83233 0.35106
 N817 N 0.13904 0.83903 0.32460
 N818 N 0.13767 0.83146 0.33581
 C819 C 0.12620 0.82375 0.33449
 C820 C 0.12006 0.82679 0.32180
 C821 C 0.12856 0.83653 0.31586
 H822 H 0.12257 0.81655 0.34220
 H823 H 0.12740 0.84128 0.30577
 N824 N 0.16558 0.83555 0.36525
 N825 N 0.17440 0.84585 0.36449
 C826 C 0.18350 0.84480 0.37499
 C827 C 0.18035 0.83326 0.38282
 C828 C 0.16884 0.82770 0.37632
 H829 H 0.19214 0.85164 0.37644
 H830 H 0.16353 0.81834 0.37911
 H831 H 0.16747 0.84063 0.34071
 H832 H 0.15413 0.85279 0.34723
 C833 C 0.26360 1.04052 0.25942
 C834 C 0.27067 1.03299 0.24940
 C835 C 0.26873 1.01871 0.24869
 C836 C 0.26044 1.01175 0.25841
 C837 C 0.25379 1.01958 0.26869
 C838 C 0.25488 1.03398 0.26887
 C839 C 0.25830 0.99652 0.25739
 C840 C 0.24615 0.99035 0.26236
 C841 C 0.24396 0.97617 0.26105
 C842 C 0.25368 0.96810 0.25422
 C843 C 0.26587 0.97389 0.24918
 C844 C 0.26824 0.98802 0.25110
 H845 H 0.26463 1.05162 0.25966
 H846 H 0.27368 1.01314 0.24043
 H847 H 0.24742 1.01464 0.27638
 H848 H 0.23813 0.99646 0.26700
 H849 H 0.25174 0.95721 0.25292
 H850 H 0.27797 0.99226 0.24781
 C851 C 0.24354 0.53418 0.74711
 C852 C 0.25466 0.52775 0.74065
 C853 C 0.25670 0.51358 0.74258
 C854 C 0.24731 0.50561 0.75033
 C855 C 0.23605 0.51237 0.75652
 C856 C 0.23434 0.52665 0.75524
 C857 C 0.24922 0.49037 0.75199
 C858 C 0.24374 0.48338 0.76356
 C859 C 0.24499 0.46908 0.76497
 C860 C 0.25237 0.46171 0.75506
 C861 C 0.25826 0.46836 0.74365
 C862 C 0.25639 0.48261 0.74201
 H863 H 0.24232 0.54523 0.74620
 H864 H 0.26562 0.50888 0.73795
 H865 H 0.22841 0.50666 0.76224
 H866 H 0.23859 0.48897 0.77167
 H867 H 0.25314 0.45062 0.75598
 H868 H 0.26059 0.48752 0.73291
 C869 C 0.75419 -0.03957 0.24745
 C870 C 0.76467 -0.03229 0.25422
 C871 C 0.76487 -0.01788 0.25341
 C872 C 0.75422 -0.01053 0.24664
 C873 C 0.74356 -0.01818 0.24026
 C874 C 0.74367 -0.03263 0.24032
 C875 C 0.75397 0.00497 0.24662
 C876 C 0.74592 0.01238 0.23685
 C877 C 0.74463 0.02671 0.23770
 C878 C 0.75217 0.03391 0.24767
 C879 C 0.76083 0.02699 0.25695
 C880 C 0.76146 0.01258 0.25663
 H881 H 0.75416 -0.05070 0.24783
 H882 H 0.77349 -0.01258 0.25804
 H883 H 0.73487 -0.01309 0.23548
 H884 H 0.74037 0.00718 0.22868
 H885 H 0.75149 0.04504 0.24799
 H886 H 0.76754 0.00752 0.26453
 C887 C 0.74044 0.46179 0.75571
 C888 C 0.74770 0.46850 0.76629
 C889 C 0.74762 0.48295 0.76675
 C890 C 0.74124 0.49078 0.75613
 C891 C 0.73440 0.48365 0.74536
 C892 C 0.73371 0.46924 0.74525
 C893 C 0.74234 0.50621 0.75575
 C894 C 0.73277 0.51422 0.74811
 C895 C 0.73476 0.52840 0.74626
 C896 C 0.74578 0.53488 0.75294
 C897 C 0.75493 0.52739 0.76126
 C898 C 0.75336 0.51308 0.76242
 H899 H 0.74000 0.45066 0.75569
 H900 H 0.75290 0.48793 0.77524
 H901 H 0.72995 0.48915 0.73668
 H902 H 0.72390 0.50953 0.74324
 H903 H 0.74705 0.54591 0.75188
 H904 H 0.76108 0.50745 0.76820
 C905 C 0.24476 0.46296 0.25693
 C906 C 0.25256 0.47012 0.26673
 C907 C 0.25397 0.48445 0.26554
 C908 C 0.24802 0.49172 0.25424
 C909 C 0.24066 0.48405 0.24421
 C910 C 0.23883 0.46980 0.24561
 C911 C 0.24972 0.50707 0.25271
 C912 C 0.24072 0.51484 0.24412
 C913 C 0.24285 0.52897 0.24189
 C914 C 0.25349 0.53565 0.24899
 C915 C 0.26213 0.52841 0.25808
 C916 C 0.26043 0.51416 0.25966
 H917 H 0.24352 0.45193 0.25802
 H918 H 0.25960 0.48972 0.27361
 H919 H 0.23660 0.48892 0.23498
 H920 H 0.23208 0.51007 0.23896
 H921 H 0.25477 0.54666 0.24777
 H922 H 0.26776 0.50877 0.26612
 C923 C 0.74799 1.03294 0.74919
 C924 C 0.75631 1.02595 0.73978
 C925 C 0.75667 1.01154 0.74009
 C926 C 0.74941 1.00398 0.75022
 C927 C 0.74124 1.01133 0.75971
 C928 C 0.74035 1.02574 0.75911
 C929 C 0.75073 0.98861 0.75105
 C930 C 0.74040 0.98040 0.75718
 C931 C 0.74201 0.96608 0.75839
 C932 C 0.75357 0.95980 0.75258
 C933 C 0.76381 0.96761 0.74616
 C934 C 0.76253 0.98197 0.74583
 H935 H 0.74759 1.04407 0.74889
 H936 H 0.76262 1.00635 0.73227
 H937 H 0.73586 1.00602 0.76791
 H938 H 0.73114 0.98502 0.76121
 H939 H 0.75439 0.94869 0.75281
 H940 H 0.77097 0.98787 0.74164
 C941 C 0.74636 0.53743 0.24772
 C942 C 0.75349 0.53067 0.23720
 C943 C 0.75209 0.51639 0.23581
 C944 C 0.74411 0.50868 0.24521
 C945 C 0.73707 0.51575 0.25578
 C946 C 0.73802 0.53011 0.25694
 C947 C 0.74311 0.49336 0.24388
 C948 C 0.73128 0.48624 0.24833
 C949 C 0.73019 0.47191 0.24691
 C950 C 0.74089 0.46470 0.24051
 C951 C 0.75274 0.47150 0.23599
 C952 C 0.75394 0.48572 0.23799
 H953 H 0.74702 0.54853 0.24851
 H954 H 0.75733 0.51138 0.22738
 H955 H 0.73105 0.51020 0.26334
 H956 H 0.72274 0.49180 0.25271
 H957 H 0.74028 0.45362 0.23948
 H958 H 0.76333 0.49076 0.23482
 C959 C 0.25373 -0.03727 0.74450
 C960 C 0.25990 -0.03008 0.75542
 C961 C 0.25865 -0.01572 0.75592
 C962 C 0.25201 -0.00836 0.74514
 C963 C 0.24628 -0.01589 0.73400
 C964 C 0.24664 -0.03032 0.73393
 C965 C 0.25064 0.00701 0.74583
 C966 C 0.23961 0.01382 0.73911
 C967 C 0.23798 0.02811 0.74015
 C968 C 0.24712 0.03566 0.74841
 C969 C 0.25811 0.02922 0.75523
 C970 C 0.26008 0.01502 0.75359
 H971 H 0.25426 -0.04841 0.74433
 H972 H 0.26290 -0.01043 0.76480
 H973 H 0.24120 -0.01068 0.72547
 H974 H 0.23196 0.00813 0.73332
 H975 H 0.24588 0.04671 0.74925
 H976 H 0.26888 0.01031 0.75859
 C977 C 0.24857 0.24897 1.03688
 C978 C 0.24203 0.26004 1.03030
 C979 C 0.24399 0.26216 1.01605
 C980 C 0.25150 0.25262 1.00806
 C981 C 0.25782 0.24144 1.01501
 C982 C 0.25669 0.23980 1.02937
 C983 C 0.25200 0.25372 0.99254
 C984 C 0.26227 0.24686 0.98487
 C985 C 0.26150 0.24618 0.97039
 C986 C 0.25110 0.25330 0.96336
 C987 C 0.24126 0.26079 0.97062
 C988 C 0.24157 0.26079 0.98513
 H989 H 0.24751 0.24764 1.04798
 H990 H 0.23926 0.27107 1.01129
 H991 H 0.26328 0.23361 1.00937
 H992 H 0.27066 0.24157 0.99000
 H993 H 0.25069 0.25302 0.95213
 H994 H 0.23325 0.26586 0.99043
 C995 C 0.24948 0.75197 0.53582
 C996 C 0.23971 0.75953 0.52833
 C997 C 0.24085 0.76045 0.51387
 C998 C 0.25205 0.75440 0.50684
 C999 C 0.26208 0.74733 0.51481
 C1000 C 0.26056 0.74571 0.52917
 C1001 C 0.25304 0.75514 0.49130
 C1002 C 0.26059 0.74525 0.48379
 C1003 C 0.26127 0.74578 0.46926
 C1004 C 0.25396 0.75600 0.46210
 C1005 C 0.24615 0.76576 0.46921
 C1006 C 0.24607 0.76552 0.48375
 H1007 H 0.24864 0.75117 0.54699
 H1008 H 0.23270 0.76563 0.50827
 H1009 H 0.27100 0.74281 0.51000
 H1010 H 0.26565 0.73681 0.48904
 H1011 H 0.25421 0.75627 0.45088
 H1012 H 0.24057 0.77358 0.48902
 C1013 C 0.25676 0.74575 -0.03637
 C1014 C 0.26329 0.75668 -0.02963
 C1015 C 0.26161 0.75831 -0.01529
 C1016 C 0.25414 0.74855 -0.00743
 C1017 C 0.24803 0.73737 -0.01454
 C1018 C 0.24891 0.73617 -0.02900
 C1019 C 0.25262 0.74999 0.00802
 C1020 C 0.24159 0.74358 0.01503
 C1021 C 0.24029 0.74444 0.02948
 C1022 C 0.24963 0.75253 0.03694
 C1023 C 0.26040 0.75938 0.03029
 C1024 C 0.26213 0.75774 0.01595
 H1025 H 0.25745 0.74500 -0.04755
 H1026 H 0.26622 0.76719 -0.01043
 H1027 H 0.24265 0.72938 -0.00896
 H1028 H 0.23376 0.73799 0.00940
 H1029 H 0.24881 0.75320 0.04811
 H1030 H 0.27088 0.76263 0.01116
 C1031 C 0.24962 0.24956 0.46402
 C1032 C 0.26017 0.25647 0.47108
 C1033 C 0.26078 0.25570 0.48561
 C1034 C 0.25059 0.24864 0.49322
 C1035 C 0.23987 0.24211 0.48579
 C1036 C 0.23950 0.24226 0.47124
 C1037 C 0.25111 0.24811 0.50879
 C1038 C 0.24460 0.23736 0.51619
 C1039 C 0.24452 0.23720 0.53073
 C1040 C 0.25182 0.24731 0.53798
 C1041 C 0.25882 0.25778 0.53097
 C1042 C 0.25806 0.25839 0.51645
 H1043 H 0.24929 0.24987 0.45281
 H1044 H 0.26942 0.26046 0.49080
 H1045 H 0.23156 0.23707 0.49119
 H1046 H 0.23936 0.22914 0.51080
 H1047 H 0.25200 0.24704 0.54921
 H1048 H 0.26302 0.26690 0.51126
 C1049 C 0.75420 0.75289 1.03660
 C1050 C 0.74634 0.76229 1.02891
 C1051 C 0.74568 0.76097 1.01445
 C1052 C 0.75208 0.74984 1.00761
 C1053 C 0.75943 0.74020 1.01578
 C1054 C 0.76092 0.74198 1.03013
 C1055 C 0.75119 0.74842 0.99209
 C1056 C 0.76101 0.74063 0.98472
 C1057 C 0.76008 0.73915 0.97028
 C1058 C 0.74982 0.74628 0.96298
 C1059 C 0.74027 0.75447 0.96990
 C1060 C 0.74065 0.75504 0.98442
 H1061 H 0.75477 0.75379 1.04778
 H1062 H 0.74030 0.76888 1.00870
 H1063 H 0.76422 0.73132 1.01116
 H1064 H 0.76943 0.73561 0.99003
 H1065 H 0.74936 0.74556 0.95178
 H1066 H 0.73278 0.76091 0.98954
 C1067 C 0.74969 0.25140 0.53631
 C1068 C 0.74020 0.25935 0.52886
 C1069 C 0.74149 0.26052 0.51445
 C1070 C 0.75259 0.25435 0.50741
 C1071 C 0.76243 0.24698 0.51534
 C1072 C 0.76074 0.24511 0.52964
 C1073 C 0.75359 0.25518 0.49190
 C1074 C 0.76083 0.24510 0.48437
 C1075 C 0.76145 0.24558 0.46986
 C1076 C 0.75433 0.25595 0.46271
 C1077 C 0.74685 0.26594 0.46986
 C1078 C 0.74685 0.26573 0.48439
 H1079 H 0.74868 0.25033 0.54744
 H1080 H 0.73352 0.26599 0.50886
 H1081 H 0.77131 0.24239 0.51052
 H1082 H 0.76569 0.23652 0.48961
 H1083 H 0.75447 0.25616 0.45149
 H1084 H 0.74157 0.27394 0.48968
 C1085 C 0.75356 0.24798 -0.03786
 C1086 C 0.76331 0.25536 -0.03021
 C1087 C 0.76255 0.25531 -0.01570
 C1088 C 0.75161 0.24868 -0.00873
 C1089 C 0.74164 0.24172 -0.01683
 C1090 C 0.74285 0.24099 -0.03128
 C1091 C 0.75053 0.24921 0.00681
 C1092 C 0.74269 0.23940 0.01424
 C1093 C 0.74108 0.24047 0.02864
 C1094 C 0.74800 0.25083 0.03587
 C1095 C 0.75635 0.26025 0.02890
 C1096 C 0.75726 0.25967 0.01443
 H1097 H 0.75401 0.24800 -0.04907
 H1098 H 0.77069 0.26038 -0.01002
 H1099 H 0.73290 0.23674 -0.01209
 H1100 H 0.73766 0.23096 0.00902
 H1101 H 0.74720 0.25130 0.04705
 H1102 H 0.76308 0.26764 0.00931
 C1103 C 0.74992 0.75392 0.46384
 C1104 C 0.75940 0.76216 0.47091
 C1105 C 0.75882 0.76292 0.48539
 C1106 C 0.74836 0.75609 0.49287
 C1107 C 0.73854 0.74834 0.48535
 C1108 C 0.73957 0.74690 0.47095
 C1109 C 0.74777 0.75699 0.50838
 C1110 C 0.74129 0.74663 0.51633
 C1111 C 0.74041 0.74774 0.53079
 C1112 C 0.74684 0.75876 0.53748
 C1113 C 0.75376 0.76891 0.52994
 C1114 C 0.75379 0.76821 0.51543
 H1115 H 0.75031 0.75324 0.45264
 H1116 H 0.76676 0.76869 0.49068
 H1117 H 0.73013 0.74325 0.49055
 H1118 H 0.73680 0.73770 0.51144
 H1119 H 0.74679 0.75916 0.54870
 H1120 H 0.75846 0.77660 0.50978
 C1121 C 1.03494 0.24686 0.24660
 C1122 C 1.02775 0.23637 0.25339
 C1123 C 1.01332 0.23645 0.25312
 C1124 C 1.00592 0.24738 0.24689
 C1125 C 1.01351 0.25802 0.24042
 C1126 C 1.02794 0.25766 0.24000
 C1127 C 0.99046 0.24791 0.24754
 C1128 C 0.98277 0.25598 0.23803
 C1129 C 0.96849 0.25744 0.23942
 C1130 C 0.96163 0.25007 0.24974
 C1131 C 0.96884 0.24144 0.25883
 C1132 C 0.98321 0.24065 0.25794
 H1133 H 1.04608 0.24671 0.24659
 H1134 H 1.00803 0.22785 0.25778
 H1135 H 1.00838 0.26687 0.23600
 H1136 H 0.98774 0.26137 0.22963
 H1137 H 0.95053 0.25081 0.25046
 H1138 H 0.98857 0.23461 0.26568
 C1139 C 0.53658 0.25045 0.75464
 C1140 C 0.52934 0.24006 0.76151
 C1141 C 0.51491 0.24041 0.76145
 C1142 C 0.50758 0.25142 0.75523
 C1143 C 0.51525 0.26205 0.74884
 C1144 C 0.52964 0.26130 0.74813
 C1145 C 0.49208 0.25146 0.75500
 C1146 C 0.48463 0.25893 0.74480
 C1147 C 0.47017 0.25868 0.74444
 C1148 C 0.46312 0.25013 0.75367
 C1149 C 0.47019 0.24243 0.76367
 C1150 C 0.48453 0.24360 0.76472
 H1151 H 0.54772 0.25023 0.75445
 H1152 H 0.50957 0.23177 0.76599
 H1153 H 0.51022 0.27079 0.74409
 H1154 H 0.48988 0.26499 0.73708
 H1155 H 0.45201 0.24940 0.75304
 H1156 H 0.48965 0.23806 0.77298
 C1157 C -0.03899 0.24638 0.75262
 C1158 C -0.03157 0.25669 0.75939
 C1159 C -0.01716 0.25617 0.75948
 C1160 C -0.01001 0.24512 0.75330
 C1161 C -0.01786 0.23451 0.74708
 C1162 C -0.03225 0.23539 0.74628
 C1163 C 0.00545 0.24526 0.75253
 C1164 C 0.01242 0.23804 0.74198
 C1165 C 0.02673 0.23911 0.74050
 C1166 C 0.03416 0.24780 0.74929
 C1167 C 0.02760 0.25505 0.75983
 C1168 C 0.01340 0.25334 0.76176
 H1169 H -0.05014 0.24684 0.75232
 H1170 H -0.01171 0.26479 0.76394
 H1171 H -0.01294 0.22572 0.74243
 H1172 H 0.00685 0.23195 0.73447
 H1173 H 0.04520 0.24878 0.74806
 H1174 H 0.00866 0.25870 0.77026
 C1175 C 0.46634 0.25299 0.24570
 C1176 C 0.47268 0.25943 0.25699
 C1177 C 0.48683 0.25751 0.25930
 C1178 C 0.49493 0.24998 0.24985
 C1179 C 0.48824 0.24386 0.23837
 C1180 C 0.47395 0.24501 0.23647
 C1181 C 0.51027 0.24879 0.25175
 C1182 C 0.51776 0.23801 0.24550
 C1183 C 0.53217 0.23751 0.24637
 C1184 C 0.53912 0.24716 0.25454
 C1185 C 0.53200 0.25767 0.26127
 C1186 C 0.51769 0.25869 0.25949
 H1187 H 0.45531 0.25392 0.24434
 H1188 H 0.49137 0.26210 0.26842
 H1189 H 0.49400 0.23839 0.23062
 H1190 H 0.51257 0.23011 0.23962
 H1191 H 0.55023 0.24664 0.25543
 H1192 H 0.51250 0.26730 0.26417
 C1193 C 1.03692 0.75599 0.75774
 C1194 C 1.03020 0.74530 0.76467
 C1195 C 1.01612 0.74307 0.76223
 C1196 C 1.00846 0.75194 0.75347
 C1197 C 1.01553 0.76281 0.74682
 C1198 C 1.02976 0.76459 0.74856
 C1199 C 0.99328 0.74980 0.75115
 C1200 C 0.98665 0.75521 0.73924
 C1201 C 0.97245 0.75363 0.73717
 C1202 C 0.96487 0.74578 0.74659
 C1203 C 0.97116 0.74000 0.75831
 C1204 C 0.98521 0.74238 0.76079
 H1205 H 1.04793 0.75724 0.75906
 H1206 H 1.01132 0.73437 0.76723
 H1207 H 1.01015 0.77011 0.74030
 H1208 H 0.99236 0.76062 0.73136
 H1209 H 0.95388 0.74458 0.74509
 H1210 H 0.98968 0.73835 0.77023
 C1211 C 0.53648 0.74762 0.24609
 C1212 C 0.52977 0.74165 0.25740
 C1213 C 0.51577 0.74441 0.25952
 C1214 C 0.50809 0.75232 0.24986
 C1215 C 0.51515 0.75801 0.23842
 C1216 C 0.52934 0.75606 0.23674
 C1217 C 0.49281 0.75433 0.25147
 C1218 C 0.48584 0.76507 0.24441
 C1219 C 0.47146 0.76627 0.24487
 C1220 C 0.46398 0.75723 0.25326
 C1221 C 0.47061 0.74687 0.26086
 C1222 C 0.48490 0.74526 0.25969
 H1223 H 0.54743 0.74604 0.24485
 H1224 H 0.51101 0.74016 0.26866
 H1225 H 0.50977 0.76381 0.23051
 H1226 H 0.49143 0.77267 0.23851
 H1227 H 0.45289 0.75814 0.25376
 H1228 H 0.48957 0.73659 0.26491
 C1229 C -0.03347 0.74478 0.25758
 C1230 C -0.02600 0.75254 0.26719
 C1231 C -0.01162 0.75299 0.26632
 C1232 C -0.00460 0.74634 0.25544
 C1233 C -0.01252 0.73911 0.24549
 C1234 C -0.02683 0.73793 0.24683
 C1235 C 0.01084 0.74671 0.25467
 C1236 C 0.01817 0.73652 0.24737
 C1237 C 0.03257 0.73688 0.24653
 C1238 C 0.03984 0.74710 0.25369
 C1239 C 0.03290 0.75703 0.26144
 C1240 C 0.01847 0.75707 0.26148
 H1241 H -0.04459 0.74435 0.25823
 H1242 H -0.00609 0.75834 0.27440
 H1243 H -0.00772 0.73417 0.23676
 H1244 H 0.01286 0.72802 0.24253
 H1245 H 0.05097 0.74725 0.25333
 H1246 H 0.01338 0.76535 0.26681
 C1247 C 0.46195 0.74639 0.75075
 C1248 C 0.46910 0.75682 0.75768
 C1249 C 0.48353 0.75696 0.75735
 C1250 C 0.49099 0.74632 0.75086
 C1251 C 0.48344 0.73569 0.74435
 C1252 C 0.46899 0.73590 0.74389
 C1253 C 0.50649 0.74638 0.75082
 C1254 C 0.51396 0.73870 0.74098
 C1255 C 0.52840 0.73864 0.74101
 C1256 C 0.53554 0.74683 0.75054
 C1257 C 0.52847 0.75473 0.76027
 C1258 C 0.51405 0.75419 0.76058
 H1259 H 0.45080 0.74648 0.75068
 H1260 H 0.48873 0.76562 0.76201
 H1261 H 0.48860 0.72704 0.73972
 H1262 H 0.50874 0.73290 0.73300
 H1263 H 0.54668 0.74704 0.75040
 H1264 H 0.50891 0.75976 0.76871
 C1265 C 0.39491 0.31925 0.29713
 C1266 C 0.40522 0.31279 0.28956
 C1267 C 0.41500 0.30436 0.29616
 C1268 C 0.41428 0.30260 0.31062
 C1269 C 0.40389 0.30904 0.31820
 C1270 C 0.39400 0.31735 0.31153
 C1271 C 0.42513 0.29707 0.28741
 C1272 C 0.43707 0.29175 0.29203
 C1273 C 0.44673 0.28415 0.28294
 C1274 C 0.45602 0.27473 0.28891
 C1275 C 0.46477 0.26690 0.28058
 C1276 C 0.46435 0.26835 0.26611
 C1277 C 0.45549 0.27817 0.26019
 C1278 C 0.44687 0.28606 0.26848
 H1279 H 0.38745 0.32545 0.29157
 H1280 H 0.40547 0.31427 0.27844
 H1281 H 0.42140 0.29597 0.31609
 H1282 H 0.40355 0.30738 0.32928
 H1283 H 0.42238 0.29602 0.27659
 H1284 H 0.43980 0.29258 0.30288
 H1285 H 0.45627 0.27318 0.30003
 H1286 H 0.47155 0.25942 0.28540
 H1287 H 0.45524 0.27973 0.24907
 H1288 H 0.44042 0.29365 0.26344
 C1289 C 0.39950 0.82682 0.79871
 C1290 C 0.41010 0.82076 0.79117
 C1291 C 0.41618 0.80846 0.79566
 C1292 C 0.41154 0.80237 0.80801
 C1293 C 0.40088 0.80837 0.81554
 C1294 C 0.39448 0.82057 0.81089
 C1295 C 0.42644 0.80172 0.78665
 C1296 C 0.43577 0.79261 0.79127
 C1297 C 0.44493 0.78475 0.78196
 C1298 C 0.45710 0.77905 0.78739
 C1299 C 0.46531 0.77049 0.77928
 C1300 C 0.46140 0.76729 0.76563
 C1301 C 0.44942 0.77328 0.76008
 C1302 C 0.44125 0.78188 0.76814
 H1303 H 0.39511 0.83623 0.79466
 H1304 H 0.41345 0.82563 0.78166
 H1305 H 0.41572 0.79270 0.81166
 H1306 H 0.39756 0.80317 0.82485
 H1307 H 0.42629 0.80452 0.77578
 H1308 H 0.43685 0.79080 0.80229
 H1309 H 0.46010 0.78099 0.79803
 H1310 H 0.47442 0.76589 0.78387
 H1311 H 0.44620 0.77104 0.74956
 H1312 H 0.43178 0.78574 0.76366
 C1313 C -0.10694 0.32311 0.79469
 C1314 C -0.09691 0.31654 0.78681
 C1315 C -0.08659 0.30863 0.79321
 C1316 C -0.08645 0.30749 0.80774
 C1317 C -0.09655 0.31399 0.81563
 C1318 C -0.10699 0.32175 0.80918
 C1319 C -0.07700 0.30083 0.78434
 C1320 C -0.06447 0.29664 0.78851
 C1321 C -0.05541 0.28750 0.78025
 C1322 C -0.04412 0.28124 0.78690
 C1323 C -0.03599 0.27163 0.77997
 C1324 C -0.03904 0.26804 0.76623
 C1325 C -0.04989 0.27474 0.75933
 C1326 C -0.05793 0.28444 0.76619
 H1327 H -0.11489 0.32886 0.78935
 H1328 H -0.09735 0.31746 0.77562
 H1329 H -0.07891 0.30118 0.81305
 H1330 H -0.09626 0.31276 0.82678
 H1331 H -0.08074 0.29833 0.77410
 H1332 H -0.06082 0.29952 0.79871
 H1333 H -0.04183 0.28346 0.79766
 H1334 H -0.02768 0.26658 0.78552
 H1335 H -0.05226 0.27234 0.74863
 H1336 H -0.06611 0.28931 0.76037
 C1337 C -0.09390 0.81452 0.31429
 C1338 C -0.08321 0.80643 0.30907
 C1339 C -0.08484 0.79211 0.30778
 C1340 C -0.09734 0.78611 0.31171
 C1341 C -0.10795 0.79414 0.31699
 C1342 C -0.10637 0.80844 0.31834
 C1343 C -0.07424 0.78307 0.30169
 C1344 C -0.06078 0.78608 0.30114
 C1345 C -0.05081 0.77693 0.29416
 C1346 C -0.03926 0.78273 0.28772
 C1347 C -0.03066 0.77463 0.27955
 C1348 C -0.03346 0.76057 0.27774
 C1349 C -0.04438 0.75457 0.28504
 C1350 C -0.05290 0.76264 0.29326
 H1351 H -0.09236 0.82550 0.31519
 H1352 H -0.07388 0.81150 0.30578
 H1353 H -0.09894 0.77513 0.31065
 H1354 H -0.11746 0.78910 0.31979
 H1355 H -0.07788 0.77347 0.29737
 H1356 H -0.05701 0.79575 0.30517
 H1357 H -0.03728 0.79368 0.28846
 H1358 H -0.02228 0.77948 0.27403
 H1359 H -0.04654 0.74369 0.28406
 H1360 H -0.06126 0.75766 0.29867
 C1361 C 0.60161 0.67590 0.30177
 C1362 C 0.59179 0.68264 0.29359
 C1363 C 0.58412 0.69360 0.29893
 C1364 C 0.58648 0.69772 0.31269
 C1365 C 0.59639 0.69104 0.32086
 C1366 C 0.60414 0.68011 0.31546
 C1367 C 0.57449 0.70096 0.28952
 C1368 C 0.56354 0.70818 0.29383
 C1369 C 0.55428 0.71600 0.28432
 C1370 C 0.54566 0.72616 0.28989
 C1371 C 0.53735 0.73429 0.28123
 C1372 C 0.53757 0.73244 0.26683
 C1373 C 0.54572 0.72192 0.26130
 C1374 C 0.55389 0.71371 0.26992
 H1375 H 0.60745 0.66763 0.29719
 H1376 H 0.59026 0.67934 0.28298
 H1377 H 0.58105 0.70636 0.31708
 H1378 H 0.59804 0.69453 0.33137
 H1379 H 0.57673 0.70029 0.27860
 H1380 H 0.56140 0.70874 0.30479
 H1381 H 0.54558 0.72804 0.30094
 H1382 H 0.53109 0.74231 0.28574
 H1383 H 0.54578 0.72008 0.25024
 H1384 H 0.55978 0.70563 0.26515
 C1385 C 0.59991 0.16917 0.80109
 C1386 C 0.58939 0.17532 0.79331
 C1387 C 0.58285 0.18725 0.79803
 C1388 C 0.58705 0.19294 0.81075
 C1389 C 0.59759 0.18682 0.81851
 C1390 C 0.60425 0.17493 0.81373
 C1391 C 0.57252 0.19407 0.78897
 C1392 C 0.56278 0.20256 0.79375
 C1393 C 0.55352 0.21075 0.78465
 C1394 C 0.54145 0.21628 0.79027
 C1395 C 0.53322 0.22529 0.78252
 C1396 C 0.53699 0.22909 0.76902
 C1397 C 0.54882 0.22321 0.76322
 C1398 C 0.55704 0.21420 0.77095
 H1399 H 0.60479 0.16008 0.79698
 H1400 H 0.58645 0.17081 0.78348
 H1401 H 0.58258 0.20237 0.81456
 H1402 H 0.60060 0.19158 0.82817
 H1403 H 0.57299 0.19187 0.77801
 H1404 H 0.56149 0.20366 0.80482
 H1405 H 0.53856 0.21389 0.80083
 H1406 H 0.52424 0.22977 0.78731
 H1407 H 0.55192 0.22587 0.75279
 H1408 H 0.56642 0.21049 0.76631
 C1409 C 1.10650 0.70300 0.82666
 C1410 C 1.09599 0.71101 0.82091
 C1411 C 1.08682 0.70544 0.81114
 C1412 C 1.08838 0.69160 0.80724
 C1413 C 1.09895 0.68360 0.81294
 C1414 C 1.10820 0.68924 0.82262
 C1415 C 1.07660 0.71467 0.80451
 C1416 C 1.06489 0.71029 0.79852
 C1417 C 1.05534 0.71949 0.79078
 C1418 C 1.04603 0.71362 0.78129
 C1419 C 1.03750 0.72195 0.77307
 C1420 C 1.03817 0.73632 0.77418
 C1421 C 1.04704 0.74219 0.78404
 C1422 C 1.05544 0.73389 0.79234
 H1423 H 1.11350 0.70774 0.83398
 H1424 H 1.09510 0.72168 0.82399
 H1425 H 1.08179 0.68702 0.79946
 H1426 H 1.09992 0.67303 0.80962
 H1427 H 1.07915 0.72549 0.80443
 H1428 H 1.06241 0.69944 0.79872
 H1429 H 1.04562 0.70257 0.77994
 H1430 H 1.03077 0.71719 0.76551
 H1431 H 1.04753 0.75325 0.78526
 H1432 H 1.06195 0.73890 0.79990
 C1433 C 1.10082 0.17104 0.29742
 C1434 C 1.09010 0.17627 0.28927
 C1435 C 1.08251 0.18771 0.29362
 C1436 C 1.08587 0.19382 0.30640
 C1437 C 1.09663 0.18861 0.31455
 C1438 C 1.10434 0.17722 0.31011
 C1439 C 1.07202 0.19357 0.28407
 C1440 C 1.06171 0.20173 0.28818
 C1441 C 1.05230 0.20899 0.27843
 C1442 C 1.03989 0.21434 0.28348
 C1443 C 1.03152 0.22263 0.27509
 C1444 C 1.03546 0.22586 0.26148
 C1445 C 1.04759 0.22010 0.25624
 C1446 C 1.05595 0.21180 0.26460
 H1447 H 1.10644 0.16227 0.29358
 H1448 H 1.08782 0.17145 0.27942
 H1449 H 1.08058 0.20292 0.30994
 H1450 H 1.09903 0.19374 0.32418
 H1451 H 1.07290 0.19092 0.27324
 H1452 H 1.06005 0.20330 0.29914
 H1453 H 1.03687 0.21243 0.29410
 H1454 H 1.02232 0.22708 0.27946
 H1455 H 1.05084 0.22236 0.24576
 H1456 H 1.06554 0.20820 0.26034
 C1457 C 0.60595 0.30149 0.68867
 C1458 C 0.59621 0.29451 0.69653
 C1459 C 0.58729 0.30167 0.70527
 C1460 C 0.58855 0.31605 0.70630
 C1461 C 0.59849 0.32307 0.69852
 C1462 C 0.60718 0.31585 0.68952
 C1463 C 0.57726 0.29351 0.71332
 C1464 C 0.56527 0.29827 0.71818
 C1465 C 0.55530 0.28902 0.72515
 C1466 C 0.54652 0.29419 0.73541
 C1467 C 0.53773 0.28532 0.74270
 C1468 C 0.53764 0.27118 0.73977
 C1469 C 0.54590 0.26616 0.72908
 C1470 C 0.55447 0.27498 0.72172
 H1471 H 0.61265 0.29556 0.68207
 H1472 H 0.59559 0.28341 0.69569
 H1473 H 0.58209 0.32186 0.71324
 H1474 H 0.59928 0.33414 0.69944
 H1475 H 0.57980 0.28277 0.71483
 H1476 H 0.56267 0.30905 0.71715
 H1477 H 0.54678 0.30500 0.73807
 H1478 H 0.53140 0.28937 0.75092
 H1479 H 0.54578 0.25533 0.72650
 H1480 H 0.56047 0.27071 0.71338
 C1481 C 0.60738 0.79325 0.17467
 C1482 C 0.59693 0.78529 0.18051
 C1483 C 0.58657 0.79143 0.18842
 C1484 C 0.58688 0.80576 0.19039
 C1485 C 0.59741 0.81371 0.18463
 C1486 C 0.60785 0.80753 0.17681
 C1487 C 0.57636 0.78244 0.19533
 C1488 C 0.56378 0.78668 0.19908
 C1489 C 0.55412 0.77818 0.20738
 C1490 C 0.54349 0.78484 0.21450
 C1491 C 0.53500 0.77753 0.22355
 C1492 C 0.53696 0.76337 0.22567
 C1493 C 0.54704 0.75653 0.21796
 C1494 C 0.55547 0.76381 0.20883
 H1495 H 0.61530 0.78809 0.16882
 H1496 H 0.59701 0.77426 0.17897
 H1497 H 0.57932 0.81083 0.19676
 H1498 H 0.59742 0.82469 0.18645
 H1499 H 0.57963 0.77205 0.19758
 H1500 H 0.56061 0.79708 0.19663
 H1501 H 0.54208 0.79585 0.21347
 H1502 H 0.52732 0.78307 0.22938
 H1503 H 0.54855 0.74555 0.21918
 H1504 H 0.56305 0.75809 0.20310
 C1505 C 1.10159 0.32556 0.20168
 C1506 C 1.09113 0.31945 0.20943
 C1507 C 1.08316 0.30874 0.20388
 C1508 C 1.08593 0.30424 0.19034
 C1509 C 1.09641 0.31034 0.18259
 C1510 C 1.10445 0.32101 0.18820
 C1511 C 1.07284 0.30192 0.21287
 C1512 C 1.06234 0.29431 0.20804
 C1513 C 1.05293 0.28628 0.21707
 C1514 C 1.04044 0.28147 0.21151
 C1515 C 1.03196 0.27268 0.21919
 C1516 C 1.03589 0.26842 0.23256
 C1517 C 1.04813 0.27363 0.23831
 C1518 C 1.05660 0.28237 0.23066
 H1519 H 1.10759 0.33366 0.20643
 H1520 H 1.08935 0.32300 0.21989
 H1521 H 1.08034 0.29574 0.18580
 H1522 H 1.09826 0.30656 0.17225
 H1523 H 1.07399 0.30344 0.22390
 H1524 H 1.06045 0.29385 0.19699
 H1525 H 1.03738 0.28424 0.20106
 H1526 H 1.02264 0.26875 0.21444
 H1527 H 1.05135 0.27064 0.24866
 H1528 H 1.06625 0.28550 0.23529
 C1529 C 1.10573 0.82566 0.70479
 C1530 C 1.09541 0.82031 0.71322
 C1531 C 1.08658 0.81000 0.70831
 C1532 C 1.08834 0.80504 0.69475
 C1533 C 1.09880 0.81030 0.68635
 C1534 C 1.10763 0.82065 0.69130
 C1535 C 1.07645 0.80399 0.71800
 C1536 C 1.06459 0.79817 0.71389
 C1537 C 1.05488 0.79099 0.72335
 C1538 C 1.04405 0.78339 0.71744
 C1539 C 1.03542 0.77535 0.72571
 C1540 C 1.03746 0.77472 0.74010
 C1541 C 1.04779 0.78285 0.74614
 C1542 C 1.05637 0.79096 0.73790
 H1543 H 1.11245 0.83347 0.70903
 H1544 H 1.09439 0.82417 0.72367
 H1545 H 1.08198 0.79681 0.69076
 H1546 H 1.10001 0.80623 0.67601
 H1547 H 1.07910 0.80450 0.72885
 H1548 H 1.06201 0.79823 0.70296
 H1549 H 1.04254 0.78327 0.70631
 H1550 H 1.02758 0.76911 0.72077
 H1551 H 1.04942 0.78269 0.75725
 H1552 H 1.06421 0.79690 0.74310
 C1553 C 0.39746 0.66898 0.69946
 C1554 C 0.40746 0.67492 0.70801
 C1555 C 0.41514 0.68626 0.70347
 C1556 C 0.41253 0.69165 0.69015
 C1557 C 0.40247 0.68575 0.68161
 C1558 C 0.39478 0.67438 0.68618
 C1559 C 0.42502 0.69276 0.71324
 C1560 C 0.43559 0.70067 0.70919
 C1561 C 0.44465 0.70833 0.71892
 C1562 C 0.45723 0.71348 0.71404
 C1563 C 0.46543 0.72193 0.72237
 C1564 C 0.46118 0.72553 0.73576
 C1565 C 0.44881 0.72003 0.74082
 C1566 C 0.44061 0.71158 0.73251
 H1567 H 0.39163 0.66037 0.70343
 H1568 H 0.40912 0.67069 0.71829
 H1569 H 0.41789 0.70066 0.68641
 H1570 H 0.40069 0.69019 0.67147
 H1571 H 0.42353 0.69069 0.72414
 H1572 H 0.43781 0.70162 0.69826
 H1573 H 0.46056 0.71123 0.70361
 H1574 H 0.47481 0.72615 0.71811
 H1575 H 0.44531 0.72253 0.75114
 H1576 H 0.43089 0.70813 0.73663
 C1577 C 0.39969 0.20516 0.16970
 C1578 C 0.41054 0.21313 0.17487
 C1579 C 0.41939 0.20793 0.18518
 C1580 C 0.41716 0.19449 0.19018
 C1581 C 0.40629 0.18655 0.18504
 C1582 C 0.39736 0.19182 0.17483
 C1583 C 0.42993 0.21723 0.19128
 C1584 C 0.44088 0.21280 0.19861
 C1585 C 0.45028 0.22190 0.20670
 C1586 C 0.46153 0.21586 0.21363
 C1587 C 0.46969 0.22353 0.22276
 C1588 C 0.46673 0.23744 0.22523
 C1589 C 0.45593 0.24369 0.21780
 C1590 C 0.44778 0.23604 0.20867
 H1591 H 0.39293 0.20963 0.16196
 H1592 H 0.41190 0.22348 0.17093
 H1593 H 0.42345 0.19018 0.19838
 H1594 H 0.40485 0.17630 0.18920
 H1595 H 0.42829 0.22810 0.18973
 H1596 H 0.44294 0.20188 0.19916
 H1597 H 0.46373 0.20502 0.21237
 H1598 H 0.47787 0.21840 0.22842
 H1599 H 0.45355 0.25445 0.21935
 H1600 H 0.43929 0.24128 0.20369
 C1601 C -0.10276 0.67753 0.20356
 C1602 C -0.09286 0.68429 0.21152
 C1603 C -0.08369 0.69359 0.20540
 C1604 C -0.08460 0.69602 0.19105
 C1605 C -0.09462 0.68931 0.18306
 C1606 C -0.10386 0.68006 0.18926
 C1607 C -0.07395 0.70103 0.21452
 C1608 C -0.06192 0.70634 0.21032
 C1609 C -0.05243 0.71378 0.21979
 C1610 C -0.04281 0.72304 0.21422
 C1611 C -0.03415 0.73069 0.22292
 C1612 C -0.03502 0.72921 0.23735
 C1613 C -0.04422 0.71957 0.24290
 C1614 C -0.05273 0.71184 0.23425
 H1615 H -0.10978 0.67060 0.20874
 H1616 H -0.09243 0.68231 0.22257
 H1617 H -0.07793 0.70337 0.18601
 H1618 H -0.09516 0.69146 0.17207
 H1619 H -0.07699 0.70201 0.22522
 H1620 H -0.05898 0.70550 0.19957
 H1621 H -0.04223 0.72460 0.20312
 H1622 H -0.02709 0.73805 0.21842
 H1623 H -0.04483 0.71804 0.25400
 H1624 H -0.05943 0.70435 0.23902
 C1625 C -0.10858 0.19368 0.68645
 C1626 C -0.09907 0.20093 0.69443
 C1627 C -0.08974 0.19400 0.70311
 C1628 C -0.09028 0.17955 0.70385
 C1629 C -0.09999 0.17225 0.69596
 C1630 C -0.10917 0.17927 0.68710
 C1631 C -0.08005 0.20243 0.71138
 C1632 C -0.06775 0.19815 0.71611
 C1633 C -0.05807 0.20761 0.72329
 C1634 C -0.04854 0.20240 0.73299
 C1635 C -0.03977 0.21131 0.74029
 C1636 C -0.04044 0.22556 0.73796
 C1637 C -0.04950 0.23068 0.72783
 C1638 C -0.05810 0.22183 0.72048
 H1639 H -0.11564 0.19944 0.67995
 H1640 H -0.09896 0.21206 0.69375
 H1641 H -0.08344 0.17388 0.71067
 H1642 H -0.10024 0.16114 0.69669
 H1643 H -0.08315 0.21296 0.71317
 H1644 H -0.06463 0.18756 0.71473
 H1645 H -0.04813 0.19147 0.73517
 H1646 H -0.03278 0.20715 0.74802
 H1647 H -0.04995 0.24161 0.72563
 H1648 H -0.06471 0.22622 0.71257
 C1649 C 0.31449 0.39451 0.30277
 C1650 C 0.30808 0.40601 0.29691
 C1651 C 0.29964 0.41451 0.30491
 C1652 C 0.29788 0.41136 0.31903
 C1653 C 0.30434 0.39984 0.32492
 C1654 C 0.31273 0.39128 0.31686
 C1655 C 0.29309 0.42660 0.29815
 C1656 C 0.28141 0.43242 0.30256
 C1657 C 0.27425 0.44338 0.29461
 C1658 C 0.25982 0.44368 0.29456
 C1659 C 0.25270 0.45290 0.28601
 C1660 C 0.25990 0.46222 0.27761
 C1661 C 0.27431 0.46258 0.27834
 C1662 C 0.28145 0.45320 0.28673
 H1663 H 0.32072 0.38810 0.29617
 H1664 H 0.30960 0.40818 0.28601
 H1665 H 0.29175 0.41787 0.32563
 H1666 H 0.30289 0.39780 0.33583
 H1667 H 0.29751 0.43011 0.28849
 H1668 H 0.27614 0.42811 0.31141
 H1669 H 0.25404 0.43632 0.30064
 H1670 H 0.24158 0.45246 0.28558
 H1671 H 0.28005 0.46963 0.27187
 H1672 H 0.29257 0.45348 0.28681
 C1673 C 0.32605 -0.09530 0.80568
 C1674 C 0.32005 -0.08403 0.79908
 C1675 C 0.30752 -0.07863 0.80363
 C1676 C 0.30142 -0.08439 0.81552
 C1677 C 0.30751 -0.09567 0.82226
 C1678 C 0.31972 -0.10158 0.81717
 C1679 C 0.30098 -0.06779 0.79495
 C1680 C 0.28849 -0.06233 0.79700
 C1681 C 0.28176 -0.05354 0.78637
 C1682 C 0.27244 -0.04330 0.79037
 C1683 C 0.26553 -0.03537 0.78037
 C1684 C 0.26767 -0.03777 0.76620
 C1685 C 0.27698 -0.04802 0.76223
 C1686 C 0.28391 -0.05584 0.77217
 H1687 H 0.33561 -0.09908 0.80152
 H1688 H 0.32508 -0.07976 0.79005
 H1689 H 0.29183 -0.08053 0.81952
 H1690 H 0.30230 -0.09999 0.83113
 H1691 H 0.30661 -0.06462 0.78583
 H1692 H 0.28285 -0.06444 0.80638
 H1693 H 0.27047 -0.04147 0.80124
 H1694 H 0.25827 -0.02763 0.78368
 H1695 H 0.27882 -0.05006 0.75137
 H1696 H 0.29063 -0.06397 0.76866
 C1697 C 0.81950 0.40324 0.80916
 C1698 C 0.81257 0.41437 0.80321
 C1699 C 0.79978 0.41863 0.80824
 C1700 C 0.79427 0.41178 0.81981
 C1701 C 0.80126 0.40065 0.82587
 C1702 C 0.81384 0.39595 0.82041
 C1703 C 0.79217 0.42928 0.80022
 C1704 C 0.78040 0.43533 0.80413
 C1705 C 0.77231 0.44412 0.79445
 C1706 C 0.76399 0.45475 0.79957
 C1707 C 0.75606 0.46286 0.79049
 C1708 C 0.75611 0.46026 0.77618
 C1709 C 0.76431 0.44952 0.77114
 C1710 C 0.77224 0.44153 0.78013
 H1711 H 0.82923 0.40034 0.80467
 H1712 H 0.81710 0.41945 0.79433
 H1713 H 0.78436 0.41456 0.82395
 H1714 H 0.79646 0.39548 0.83451
 H1715 H 0.79641 0.43201 0.79023
 H1716 H 0.77651 0.43388 0.81449
 H1717 H 0.76368 0.45681 0.81058
 H1718 H 0.74970 0.47098 0.79467
 H1719 H 0.76461 0.44731 0.76016
 H1720 H 0.77807 0.43311 0.77582
 C1721 C 0.83311 -0.10092 0.30080
 C1722 C 0.82713 -0.09084 0.29236
 C1723 C 0.81505 -0.08415 0.29637
 C1724 C 0.80909 -0.08768 0.30914
 C1725 C 0.81504 -0.09779 0.31760
 C1726 C 0.82705 -0.10476 0.31348
 C1727 C 0.80845 -0.07440 0.28653
 C1728 C 0.79959 -0.06459 0.29038
 C1729 C 0.79196 -0.05580 0.28037
 C1730 C 0.78648 -0.04328 0.28495
 C1731 C 0.77812 -0.03532 0.27623
 C1732 C 0.77495 -0.03982 0.26277
 C1733 C 0.78072 -0.05216 0.25804
 C1734 C 0.78910 -0.06010 0.26674
 H1735 H 0.84237 -0.10579 0.29712
 H1736 H 0.83189 -0.08837 0.28255
 H1737 H 0.79956 -0.08303 0.31245
 H1738 H 0.80994 -0.10026 0.32721
 H1739 H 0.81121 -0.07532 0.27573
 H1740 H 0.79785 -0.06278 0.30128
 H1741 H 0.78841 -0.03979 0.29543
 H1742 H 0.77366 -0.02594 0.28022
 H1743 H 0.77849 -0.05584 0.24769
 H1744 H 0.79279 -0.06985 0.26290
 C1745 C 0.29713 0.60619 0.68344
 C1746 C 0.28943 0.59652 0.69078
 C1747 C 0.29593 0.58586 0.69814
 C1748 C 0.31039 0.58522 0.69824
 C1749 C 0.31812 0.59499 0.69097
 C1750 C 0.31156 0.60554 0.68344
 C1751 C 0.28714 0.57600 0.70580
 C1752 C 0.29107 0.56333 0.70974
 C1753 C 0.28166 0.55371 0.71697
 C1754 C 0.28714 0.54361 0.72586
 C1755 C 0.27843 0.53486 0.73333
 C1756 C 0.26408 0.53607 0.73199
 C1757 C 0.25864 0.54572 0.72260
 C1758 C 0.26730 0.55438 0.71511
 H1759 H 0.29172 0.61430 0.67796
 H1760 H 0.27832 0.59736 0.69064
 H1761 H 0.31582 0.57739 0.70408
 H1762 H 0.32922 0.59422 0.69118
 H1763 H 0.27679 0.57940 0.70801
 H1764 H 0.30147 0.55988 0.70791
 H1765 H 0.29816 0.54272 0.72730
 H1766 H 0.28289 0.52747 0.74047
 H1767 H 0.24763 0.54660 0.72108
 H1768 H 0.26267 0.56151 0.70783
 C1769 C 0.33593 1.10046 0.19811
 C1770 C 0.33109 1.08946 0.20609
 C1771 C 0.31817 1.08358 0.20337
 C1772 C 0.31023 1.08887 0.19235
 C1773 C 0.31506 1.09982 0.18436
 C1774 C 0.32788 1.10592 0.18725
 C1775 C 0.31285 1.07292 0.21298
 C1776 C 0.30215 1.06468 0.21002
 C1777 C 0.29539 1.05573 0.22042
 C1778 C 0.28685 1.04500 0.21581
 C1779 C 0.27913 1.03728 0.22522
 C1780 C 0.27970 1.04025 0.23944
 C1781 C 0.28850 1.05074 0.24409
 C1782 C 0.29621 1.05844 0.23471
 H1783 H 0.34584 1.10481 0.20070
 H1784 H 0.33737 1.08570 0.21462
 H1785 H 0.30003 1.08500 0.19012
 H1786 H 0.30850 1.10368 0.17615
 H1787 H 0.31790 1.07205 0.22297
 H1788 H 0.29792 1.06455 0.19964
 H1789 H 0.28592 1.04278 0.20485
 H1790 H 0.27232 1.02935 0.22133
 H1791 H 0.28922 1.05317 0.25501
 H1792 H 0.30231 1.06685 0.23872
 C1793 C 0.82640 0.59439 0.19251
 C1794 C 0.81943 0.58395 0.19952
 C1795 C 0.80608 0.58010 0.19551
 C1796 C 0.79993 0.58678 0.18408
 C1797 C 0.80694 0.59722 0.17703
 C1798 C 0.82015 0.60133 0.18133
 C1799 C 0.79864 0.57002 0.20427
 C1800 C 0.78707 0.56349 0.20043
 C1801 C 0.77909 0.55466 0.21005
 C1802 C 0.77017 0.54465 0.20460
 C1803 C 0.76201 0.53663 0.21339
 C1804 C 0.76249 0.53864 0.22779
 C1805 C 0.77141 0.54863 0.23323
 C1806 C 0.77957 0.55659 0.22449
 H1807 H 0.83663 0.59714 0.19603
 H1808 H 0.82441 0.57904 0.20831
 H1809 H 0.78954 0.58443 0.18084
 H1810 H 0.80174 0.60242 0.16857
 H1811 H 0.80301 0.56794 0.21440
 H1812 H 0.78329 0.56443 0.18991
 H1813 H 0.76944 0.54309 0.19352
 H1814 H 0.75508 0.52910 0.20893
 H1815 H 0.77202 0.55033 0.24430
 H1816 H 0.78592 0.56449 0.22911
 C1817 C 0.80435 1.09243 0.67059
 C1818 C 0.79632 1.08224 0.67676
 C1819 C 0.79889 1.07804 0.69043
 C1820 C 0.80978 1.08421 0.69783
 C1821 C 0.81778 1.09449 0.69166
 C1822 C 0.81505 1.09886 0.67802
 C1823 C 0.78941 1.06800 0.69688
 C1824 C 0.79299 1.05980 0.70749
 C1825 C 0.78312 1.05054 0.71452
 C1826 C 0.78812 1.03883 0.72143
 C1827 C 0.77927 1.03049 0.72913
 C1828 C 0.76527 1.03383 0.73024
 C1829 C 0.76019 1.04539 0.72311
 C1830 C 0.76901 1.05366 0.71532
 H1831 H 0.80202 1.09533 0.66001
 H1832 H 0.78799 1.07768 0.67086
 H1833 H 0.81182 1.08151 0.70852
 H1834 H 0.82582 1.09928 0.69777
 H1835 H 0.77918 1.06715 0.69245
 H1836 H 0.80357 1.05962 0.71106
 H1837 H 0.79896 1.03626 0.72107
 H1838 H 0.78349 1.02174 0.73469
 H1839 H 0.74943 1.04818 0.72380
 H1840 H 0.76483 1.06279 0.71042
 C1841 C 0.70084 0.60928 0.31593
 C1842 C 0.70834 0.59912 0.30916
 C1843 C 0.70162 0.58819 0.30253
 C1844 C 0.68714 0.58781 0.30247
 C1845 C 0.67961 0.59810 0.30914
 C1846 C 0.68640 0.60885 0.31605
 C1847 C 0.71010 0.57791 0.29522
 C1848 C 0.70616 0.56489 0.29282
 C1849 C 0.71475 0.55505 0.28496
 C1850 C 0.70835 0.54421 0.27781
 C1851 C 0.71599 0.53561 0.26916
 C1852 C 0.73019 0.53771 0.26756
 C1853 C 0.73673 0.54796 0.27540
 C1854 C 0.72914 0.55645 0.28410
 H1855 H 0.70640 0.61756 0.32091
 H1856 H 0.71947 0.59978 0.30915
 H1857 H 0.68160 0.57979 0.29707
 H1858 H 0.66849 0.59755 0.30899
 H1859 H 0.72009 0.58138 0.29178
 H1860 H 0.69612 0.56145 0.29617
 H1861 H 0.69732 0.54274 0.27849
 H1862 H 0.71071 0.52776 0.26323
 H1863 H 0.74772 0.54956 0.27458
 H1864 H 0.73462 0.56416 0.29001
 C1865 C 0.69667 1.09485 0.82745
 C1866 C 0.70416 1.08425 0.82140
 C1867 C 0.69950 1.07792 0.80925
 C1868 C 0.68697 1.08229 0.80333
 C1869 C 0.67942 1.09292 0.80939
 C1870 C 0.68427 1.09955 0.82144
 C1871 C 0.70859 1.06773 0.80255
 C1872 C 0.70440 1.05867 0.79297
 C1873 C 0.71409 1.04973 0.78536
 C1874 C 0.70922 1.03752 0.77932
 C1875 C 0.71790 1.02940 0.77123
 C1876 C 0.73155 1.03346 0.76886
 C1877 C 0.73649 1.04553 0.77509
 C1878 C 0.72786 1.05361 0.78318
 H1879 H 0.70086 1.09938 0.83676
 H1880 H 0.71380 1.08113 0.82615
 H1881 H 0.68317 1.07792 0.79376
 H1882 H 0.66999 1.09609 0.80432
 H1883 H 0.71927 1.06774 0.80578
 H1884 H 0.69355 1.05763 0.79061
 H1885 H 0.69863 1.03438 0.78071
 H1886 H 0.71380 1.02022 0.76640
 H1887 H 0.74699 1.04887 0.77349
 H1888 H 0.73193 1.06314 0.78725
 C1889 C 0.17380 0.60380 0.79588
 C1890 C 0.17898 0.59333 0.78754
 C1891 C 0.18768 0.58320 0.79312
 C1892 C 0.19116 0.58377 0.80728
 C1893 C 0.18608 0.59434 0.81561
 C1894 C 0.17741 0.60451 0.80998
 C1895 C 0.19389 0.57303 0.78365
 C1896 C 0.19812 0.56050 0.78772
 C1897 C 0.20592 0.55091 0.77873
 C1898 C 0.21315 0.54002 0.78502
 C1899 C 0.22185 0.53163 0.77725
 C1900 C 0.22350 0.53398 0.76301
 C1901 C 0.21567 0.54432 0.75653
 C1902 C 0.20689 0.55263 0.76426
 H1903 H 0.16729 0.61155 0.79115
 H1904 H 0.17629 0.59322 0.77663
 H1905 H 0.19819 0.57640 0.81186
 H1906 H 0.18905 0.59458 0.82643
 H1907 H 0.19520 0.57634 0.77305
 H1908 H 0.19646 0.55734 0.79834
 H1909 H 0.21251 0.53833 0.79610
 H1910 H 0.22781 0.52375 0.78250
 H1911 H 0.21659 0.54616 0.74551
 H1912 H 0.20112 0.56045 0.75879
 C1913 C 0.18107 1.09794 0.30978
 C1914 C 0.18858 1.08756 0.30338
 C1915 C 0.20188 1.08423 0.30798
 C1916 C 0.20744 1.09135 0.31939
 C1917 C 0.19990 1.10179 0.32580
 C1918 C 0.18673 1.10539 0.32089
 C1919 C 0.20994 1.07425 0.29979
 C1920 C 0.22111 1.06757 0.30448
 C1921 C 0.22950 1.05878 0.29530
 C1922 C 0.23646 1.04731 0.30077
 C1923 C 0.24464 1.03908 0.29223
 C1924 C 0.24619 1.04239 0.27814
 C1925 C 0.23928 1.05393 0.27274
 C1926 C 0.23107 1.06205 0.28120
 H1927 H 0.17089 1.10023 0.30583
 H1928 H 0.18407 1.08226 0.29461
 H1929 H 0.21779 1.08933 0.32304
 H1930 H 0.20464 1.10736 0.33426
 H1931 H 0.20637 1.07230 0.28933
 H1932 H 0.22411 1.06829 0.31527
 H1933 H 0.23549 1.04466 0.31163
 H1934 H 0.24990 1.03027 0.29666
 H1935 H 0.24016 1.05665 0.26189
 H1936 H 0.22619 1.07103 0.27671
 C1937 C 0.69405 0.40205 0.67128
 C1938 C 0.70143 0.41278 0.67747
 C1939 C 0.69722 0.41828 0.69016
 C1940 C 0.68534 0.41299 0.69646
 C1941 C 0.67801 0.40224 0.69033
 C1942 C 0.68241 0.39643 0.67780
 C1943 C 0.70609 0.42848 0.69725
 C1944 C 0.70128 0.43758 0.70643
 C1945 C 0.71032 0.44630 0.71515
 C1946 C 0.70507 0.45854 0.72068
 C1947 C 0.71287 0.46631 0.73003
 C1948 C 0.72601 0.46185 0.73422
 C1949 C 0.73138 0.44976 0.72844
 C1950 C 0.72361 0.44203 0.71907
 H1951 H 0.69770 0.39803 0.66154
 H1952 H 0.71058 0.41666 0.67243
 H1953 H 0.68200 0.41668 0.70644
 H1954 H 0.66912 0.39829 0.69570
 H1955 H 0.71697 0.42830 0.69491
 H1956 H 0.69028 0.43867 0.70773
 H1957 H 0.69479 0.46196 0.71795
 H1958 H 0.70842 0.47552 0.73440
 H1959 H 0.74152 0.44613 0.73138
 H1960 H 0.72786 0.43244 0.71539
 C1961 C 0.67381 -0.10417 0.20059
 C1962 C 0.68009 -0.09396 0.20861
 C1963 C 0.69132 -0.08648 0.20351
 C1964 C 0.69619 -0.08946 0.19016
 C1965 C 0.68993 -0.09966 0.18214
 C1966 C 0.67872 -0.10725 0.18727
 C1967 C 0.69829 -0.07643 0.21274
 C1968 C 0.70629 -0.06618 0.20806
 C1969 C 0.71461 -0.05708 0.21717
 C1970 C 0.71986 -0.04480 0.21162
 C1971 C 0.72890 -0.03660 0.21932
 C1972 C 0.73296 -0.04057 0.23274
 C1973 C 0.72741 -0.05265 0.23846
 C1974 C 0.71838 -0.06085 0.23077
 H1975 H 0.66522 -0.10971 0.20495
 H1976 H 0.67621 -0.09198 0.21891
 H1977 H 0.70511 -0.08429 0.18600
 H1978 H 0.69413 -0.10175 0.17203
 H1979 H 0.69659 -0.07755 0.22374
 H1980 H 0.70688 -0.06428 0.19703
 H1981 H 0.71722 -0.04169 0.20115
 H1982 H 0.73313 -0.02744 0.21456
 H1983 H 0.73026 -0.05591 0.24883
 H1984 H 0.71488 -0.07037 0.23538
 C1985 C 0.19822 0.39964 0.17534
 C1986 C 0.20608 0.40972 0.18194
 C1987 C 0.20074 0.41714 0.19311
 C1988 C 0.18725 0.41431 0.19750
 C1989 C 0.17938 0.40420 0.19090
 C1990 C 0.18482 0.39662 0.17984
 C1991 C 0.20989 0.42689 0.20050
 C1992 C 0.20534 0.43698 0.20873
 C1993 C 0.21462 0.44573 0.21717
 C1994 C 0.20991 0.45859 0.22168
 C1995 C 0.21796 0.46665 0.23055
 C1996 C 0.23081 0.46189 0.23524
 C1997 C 0.23563 0.44912 0.23056
 C1998 C 0.22762 0.44109 0.22167
 H1999 H 0.20284 0.39399 0.16695
 H2000 H 0.21649 0.41158 0.17844
 H2001 H 0.18285 0.41950 0.20631
 H2002 H 0.16909 0.40223 0.19463
 H2003 H 0.22084 0.42572 0.19893
 H2004 H 0.19443 0.43908 0.20929
 H2005 H 0.19988 0.46233 0.21848
 H2006 H 0.21394 0.47639 0.23413
 H2007 H 0.24554 0.44523 0.23396
 H2008 H 0.23148 0.43108 0.21878
 C2009 C 0.17757 -0.09422 0.68584
 C2010 C 0.18423 -0.08308 0.69195
 C2011 C 0.19771 -0.07958 0.68823
 C2012 C 0.20420 -0.08715 0.67771
 C2013 C 0.19746 -0.09835 0.67152
 C2014 C 0.18423 -0.10223 0.67585
 C2015 C 0.20485 -0.06903 0.69671
 C2016 C 0.21704 -0.06327 0.69376
 C2017 C 0.22431 -0.05449 0.70399
 C2018 C 0.23268 -0.04357 0.69955
 C2019 C 0.23980 -0.03545 0.70922
 C2020 C 0.23888 -0.03837 0.72345
 C2021 C 0.23057 -0.04934 0.72784
 C2022 C 0.22342 -0.05733 0.71825
 H2023 H 0.16727 -0.09671 0.68920
 H2024 H 0.17895 -0.07742 0.69997
 H2025 H 0.21464 -0.08492 0.67465
 H2026 H 0.20285 -0.10433 0.66383
 H2027 H 0.19982 -0.06609 0.70624
 H2028 H 0.22182 -0.06494 0.68382
 H2029 H 0.23365 -0.04129 0.68861
 H2030 H 0.24623 -0.02710 0.70558
 H2031 H 0.22960 -0.05175 0.73875
 H2032 H 0.21743 -0.06592 0.72206
 C2033 C 0.32785 0.29929 0.39987
 C2034 C 0.32187 0.29142 0.41036
 C2035 C 0.31050 0.29635 0.41768
 C2036 C 0.30528 0.30947 0.41436
 C2037 C 0.31126 0.31735 0.40383
 C2038 C 0.32252 0.31229 0.39633
 C2039 C 0.30377 0.28705 0.42781
 C2040 C 0.29515 0.29130 0.43771
 C2041 C 0.28735 0.28171 0.44672
 C2042 C 0.28208 0.28654 0.45930
 C2043 C 0.27370 0.27815 0.46750
 C2044 C 0.27028 0.26479 0.46319
 C2045 C 0.27577 0.25984 0.45074
 C2046 C 0.28415 0.26820 0.44256
 H2047 H 0.33642 0.29493 0.39433
 H2048 H 0.32603 0.28131 0.41261
 H2049 H 0.29631 0.31354 0.41948
 H2050 H 0.30687 0.32731 0.40145
 H2051 H 0.30616 0.27621 0.42702
 H2052 H 0.29374 0.30220 0.43943
 H2053 H 0.28425 0.29694 0.46267
 H2054 H 0.26946 0.28231 0.47694
 H2055 H 0.27335 0.24957 0.44718
 H2056 H 0.28763 0.26417 0.43277
 C2057 C 0.31946 0.79882 -0.10899
 C2058 C 0.31309 0.79123 -0.09855
 C2059 C 0.30462 0.79767 -0.08884
 C2060 C 0.30254 0.81197 -0.08984
 C2061 C 0.30886 0.81959 -0.10041
 C2062 C 0.31740 0.81309 -0.11010
 C2063 C 0.29772 0.78887 -0.07841
 C2064 C 0.29303 0.79326 -0.06614
 C2065 C 0.28629 0.78388 -0.05603
 C2066 C 0.27701 0.78928 -0.04636
 C2067 C 0.26984 0.78055 -0.03733
 C2068 C 0.27186 0.76626 -0.03786
 C2069 C 0.28165 0.76094 -0.04701
 C2070 C 0.28888 0.76963 -0.05589
 H2071 H 0.32578 0.79338 -0.11634
 H2072 H 0.31478 0.78022 -0.09810
 H2073 H 0.29582 0.81726 -0.08275
 H2074 H 0.30703 0.83056 -0.10097
 H2075 H 0.29665 0.77813 -0.08110
 H2076 H 0.29380 0.80404 -0.06347
 H2077 H 0.27499 0.80023 -0.04608
 H2078 H 0.26237 0.78489 -0.03033
 H2079 H 0.28360 0.74998 -0.04738
 H2080 H 0.29647 0.76506 -0.06260
 C2081 C 0.82942 0.30061 -0.10147
 C2082 C 0.82415 0.29253 -0.09074
 C2083 C 0.81235 0.29661 -0.08357
 C2084 C 0.80595 0.30909 -0.08730
 C2085 C 0.81120 0.31717 -0.09807
 C2086 C 0.82290 0.31295 -0.10541
 C2087 C 0.80644 0.28705 -0.07316
 C2088 C 0.79762 0.29091 -0.06328
 C2089 C 0.79043 0.28107 -0.05401
 C2090 C 0.78435 0.28603 -0.04186
 C2091 C 0.77615 0.27746 -0.03368
 C2092 C 0.77374 0.26376 -0.03757
 C2093 C 0.78025 0.25863 -0.04942
 C2094 C 0.78845 0.26717 -0.05760
 H2095 H 0.83839 0.29692 -0.10687
 H2096 H 0.82922 0.28292 -0.08818
 H2097 H 0.79663 0.31246 -0.08231
 H2098 H 0.80594 0.32662 -0.10073
 H2099 H 0.80962 0.27641 -0.07374
 H2100 H 0.79544 0.30173 -0.06187
 H2101 H 0.78561 0.29670 -0.03891
 H2102 H 0.77113 0.28175 -0.02469
 H2103 H 0.77862 0.24808 -0.05263
 H2104 H 0.79262 0.26295 -0.06702
 C2105 C 0.80719 0.80154 0.38639
 C2106 C 0.80077 0.79452 0.39715
 C2107 C 0.79798 0.80112 0.40971
 C2108 C 0.80138 0.81513 0.41113
 C2109 C 0.80773 0.82224 0.40023
 C2110 C 0.81088 0.81543 0.38783
 C2111 C 0.79129 0.79291 0.42072
 C2112 C 0.79152 0.79597 0.43426
 C2113 C 0.78483 0.78693 0.44462
 C2114 C 0.77864 0.79275 0.45631
 C2115 C 0.77096 0.78455 0.46537
 C2116 C 0.76944 0.77040 0.46291
 C2117 C 0.77648 0.76443 0.45180
 C2118 C 0.78417 0.77258 0.44280
 H2119 H 0.80922 0.79604 0.37689
 H2120 H 0.79812 0.78379 0.39571
 H2121 H 0.79906 0.82068 0.42051
 H2122 H 0.81042 0.83295 0.40161
 H2123 H 0.78614 0.78359 0.41740
 H2124 H 0.79624 0.80539 0.43786
 H2125 H 0.77921 0.80373 0.45805
 H2126 H 0.76562 0.78939 0.47387
 H2127 H 0.77573 0.75349 0.44988
 H2128 H 0.78938 0.76765 0.43429
 C2129 C 0.67637 0.29710 0.60504
 C2130 C 0.68267 0.28915 0.59490
 C2131 C 0.69133 0.29525 0.58509
 C2132 C 0.69368 0.30953 0.58568
 C2133 C 0.68744 0.31749 0.59593
 C2134 C 0.67873 0.31134 0.60573
 C2135 C 0.69848 0.28623 0.57516
 C2136 C 0.70271 0.29042 0.56264
 C2137 C 0.71100 0.28177 0.55317
 C2138 C 0.71804 0.28826 0.54229
 C2139 C 0.72706 0.28083 0.53394
 C2140 C 0.72923 0.26675 0.53633
 C2141 C 0.72163 0.26007 0.54667
 C2142 C 0.71252 0.26745 0.55493
 H2143 H 0.66993 0.29196 0.61255
 H2144 H 0.68084 0.27816 0.59478
 H2145 H 0.70063 0.31452 0.57854
 H2146 H 0.68950 0.32842 0.59622
 H2147 H 0.70030 0.27579 0.57856
 H2148 H 0.70057 0.30088 0.55937
 H2149 H 0.71696 0.29922 0.54056
 H2150 H 0.73282 0.28622 0.52603
 H2151 H 0.72292 0.24914 0.54849
 H2152 H 0.70689 0.26182 0.56272
 C2153 C 0.70194 0.82908 1.10000
 C2154 C 0.71011 0.82399 1.08932
 C2155 C 0.70659 0.81173 1.08254
 C2156 C 0.69470 0.80462 1.08671
 C2157 C 0.68657 0.80967 1.09743
 C2158 C 0.69014 0.82189 1.10428
 C2159 C 0.71605 0.80612 1.07198
 C2160 C 0.71200 0.79733 1.06208
 C2161 C 0.72157 0.79012 1.05265
 C2162 C 0.71615 0.78367 1.04082
 C2163 C 0.72440 0.77522 1.03265
 C2164 C 0.73825 0.77296 1.03620
 C2165 C 0.74385 0.77991 1.04765
 C2166 C 0.73562 0.78835 1.05583
 H2167 H 0.70509 0.83845 1.10513
 H2168 H 0.71931 0.82957 1.08643
 H2169 H 0.69184 0.79491 1.08206
 H2170 H 0.67753 0.80389 1.10039
 H2171 H 0.72666 0.80945 1.07247
 H2172 H 0.70115 0.79510 1.06085
 H2173 H 0.70536 0.78479 1.03817
 H2174 H 0.71975 0.76990 1.02396
 H2175 H 0.75453 0.77845 1.05056
 H2176 H 0.74021 0.79287 1.06497
 C2177 C 0.17660 0.30002 1.10422
 C2178 C 0.18359 0.29230 1.09432
 C2179 C 0.19337 0.29848 1.08566
 C2180 C 0.19603 0.31263 1.08712
 C2181 C 0.18909 0.32035 1.09708
 C2182 C 0.17938 0.31411 1.10584
 C2183 C 0.20110 0.28962 1.07595
 C2184 C 0.20741 0.29425 1.06449
 C2185 C 0.21561 0.28530 1.05520
 C2186 C 0.22529 0.29141 1.04632
 C2187 C 0.23372 0.28329 1.03793
 C2188 C 0.23264 0.26890 1.03834
 C2189 C 0.22260 0.26282 1.04676
 C2190 C 0.21410 0.27090 1.05500
 H2191 H 0.16931 0.29482 1.11083
 H2192 H 0.18143 0.28140 1.09352
 H2193 H 0.20376 0.31772 1.08093
 H2194 H 0.19145 0.33118 1.09797
 H2195 H 0.20155 0.27881 1.07857
 H2196 H 0.20696 0.30509 1.06194
 H2197 H 0.22654 0.30248 1.04608
 H2198 H 0.24133 0.28822 1.03144
 H2199 H 0.22131 0.25175 1.04692
 H2200 H 0.20635 0.26573 1.06108
 C2201 C 0.17961 0.79571 0.60789
 C2202 C 0.18580 0.78802 0.59745
 C2203 C 0.19230 0.79453 0.58628
 C2204 C 0.19253 0.80900 0.58578
 C2205 C 0.18641 0.81672 0.59631
 C2206 C 0.17994 0.81016 0.60753
 C2207 C 0.19952 0.78586 0.57601
 C2208 C 0.20231 0.78985 0.56298
 C2209 C 0.21055 0.78143 0.55322
 C2210 C 0.21713 0.78803 0.54211
 C2211 C 0.22608 0.78076 0.53351
 C2212 C 0.22861 0.76673 0.53587
 C2213 C 0.22138 0.75992 0.54641
 C2214 C 0.21236 0.76714 0.55492
 H2215 H 0.17487 0.79026 0.61640
 H2216 H 0.18560 0.77689 0.59816
 H2217 H 0.19777 0.81443 0.57756
 H2218 H 0.18684 0.82782 0.59567
 H2219 H 0.20277 0.77583 0.57960
 H2220 H 0.19906 0.79992 0.55946
 H2221 H 0.21578 0.79896 0.54041
 H2222 H 0.23154 0.78624 0.52545
 H2223 H 0.22294 0.74903 0.54824
 H2224 H 0.20699 0.76145 0.56286
 C2225 C 0.30076 0.68655 0.60709
 C2226 C 0.29366 0.69440 0.59730
 C2227 C 0.30074 0.70277 0.58789
 C2228 C 0.31520 0.70334 0.58863
 C2229 C 0.32235 0.69557 0.59860
 C2230 C 0.31518 0.68702 0.60787
 C2231 C 0.29248 0.71088 0.57787
 C2232 C 0.29697 0.71529 0.56551
 C2233 C 0.28772 0.72240 0.55551
 C2234 C 0.29316 0.73193 0.54604
 C2235 C 0.28444 0.73927 0.53704
 C2236 C 0.27016 0.73714 0.53743
 C2237 C 0.26482 0.72710 0.54638
 C2238 C 0.27349 0.71973 0.55522
 H2239 H 0.29488 0.68029 0.61420
 H2240 H 0.28252 0.69386 0.59704
 H2241 H 0.32099 0.70993 0.58175
 H2242 H 0.33347 0.69615 0.59899
 H2243 H 0.28191 0.71282 0.58075
 H2244 H 0.30759 0.71377 0.56260
 H2245 H 0.30411 0.73398 0.54587
 H2246 H 0.28877 0.74692 0.53015
 H2247 H 0.25387 0.72503 0.54658
 H2248 H 0.26895 0.71194 0.56179
 C2249 C 0.29568 0.17795 1.10690
 C2250 C 0.28739 0.18335 1.09635
 C2251 C 0.29320 0.19086 1.08542
 C2252 C 0.30752 0.19290 1.08525
 C2253 C 0.31582 0.18755 1.09584
 C2254 C 0.31000 0.18005 1.10681
 C2255 C 0.28390 0.19747 1.07519
 C2256 C 0.28778 0.20112 1.06237
 C2257 C 0.27915 0.20967 1.05298
 C2258 C 0.28561 0.21706 1.04233
 C2259 C 0.27819 0.22646 1.03424
 C2260 C 0.26414 0.22863 1.03667
 C2261 C 0.25748 0.22067 1.04675
 C2262 C 0.26485 0.21119 1.05475
 H2263 H 0.29078 0.17242 1.11527
 H2264 H 0.27636 0.18180 1.09680
 H2265 H 0.31234 0.19901 1.07727
 H2266 H 0.32678 0.18940 1.09547
 H2267 H 0.27366 0.19980 1.07875
 H2268 H 0.29804 0.19861 1.05891
 H2269 H 0.29656 0.21597 1.04061
 H2270 H 0.28356 0.23247 1.02650
 H2271 H 0.24657 0.22193 1.04856
 H2272 H 0.25928 0.20526 1.06235
 C2273 C 0.82330 0.69919 1.10579
 C2274 C 0.81617 0.70713 1.09606
 C2275 C 0.80655 0.70108 1.08708
 C2276 C 0.80412 0.68684 1.08808
 C2277 C 0.81119 0.67889 1.09793
 C2278 C 0.82084 0.68499 1.10692
 C2279 C 0.79885 0.71016 1.07744
 C2280 C 0.79319 0.70598 1.06545
 C2281 C 0.78551 0.71536 1.05599
 C2282 C 0.77621 0.70975 1.04633
 C2283 C 0.76838 0.71832 1.03765
 C2284 C 0.76971 0.73267 1.03852
 C2285 C 0.77935 0.73826 1.04779
 C2286 C 0.78726 0.72974 1.05632
 H2287 H 0.83050 0.70431 1.11265
 H2288 H 0.81814 0.71809 1.09559
 H2289 H 0.79651 0.68187 1.08158
 H2290 H 0.80904 0.66799 1.09854
 H2291 H 0.79802 0.72081 1.08048
 H2292 H 0.79393 0.69528 1.06250
 H2293 H 0.77480 0.69872 1.04569
 H2294 H 0.76103 0.71377 1.03054
 H2295 H 0.78079 0.74930 1.04839
 H2296 H 0.79476 0.73455 1.06304
 C2297 C 0.80152 0.17945 0.60280
 C2298 C 0.79405 0.18721 0.59321
 C2299 C 0.80048 0.19749 0.58535
 C2300 C 0.81461 0.19995 0.58735
 C2301 C 0.82210 0.19226 0.59712
 C2302 C 0.81561 0.18193 0.60494
 C2303 C 0.79182 0.20576 0.57583
 C2304 C 0.79643 0.21200 0.56434
 C2305 C 0.78724 0.21990 0.55487
 C2306 C 0.79288 0.23005 0.54619
 C2307 C 0.78437 0.23809 0.53765
 C2308 C 0.77007 0.23611 0.53771
 C2309 C 0.76449 0.22561 0.54592
 C2310 C 0.77296 0.21749 0.55428
 H2311 H 0.79613 0.17174 0.60878
 H2312 H 0.78315 0.18520 0.59195
 H2313 H 0.81983 0.20803 0.58170
 H2314 H 0.83294 0.19441 0.59855
 H2315 H 0.78104 0.20642 0.57845
 H2316 H 0.80725 0.21152 0.56182
 H2317 H 0.80386 0.23197 0.54626
 H2318 H 0.78888 0.24611 0.53132
 H2319 H 0.75351 0.22369 0.54585
 H2320 H 0.76820 0.20932 0.56017
 C2321 C 0.69886 0.68717 0.39400
 C2322 C 0.70617 0.69471 0.40384
 C2323 C 0.69928 0.70305 0.41335
 C2324 C 0.68484 0.70390 0.41269
 C2325 C 0.67750 0.69644 0.40268
 C2326 C 0.68445 0.68794 0.39327
 C2327 C 0.70773 0.71096 0.42333
 C2328 C 0.70336 0.71534 0.43571
 C2329 C 0.71262 0.72260 0.44554
 C2330 C 0.70710 0.73196 0.45507
 C2331 C 0.71578 0.73958 0.46380
 C2332 C 0.73010 0.73791 0.46309
 C2333 C 0.73556 0.72804 0.45412
 C2334 C 0.72693 0.72037 0.44555
 H2335 H 0.70459 0.68093 0.38679
 H2336 H 0.71729 0.69397 0.40404
 H2337 H 0.67921 0.71050 0.41964
 H2338 H 0.66639 0.69726 0.40235
 H2339 H 0.71827 0.71288 0.42033
 H2340 H 0.69276 0.71379 0.43872
 H2341 H 0.69611 0.73369 0.45544
 H2342 H 0.71137 0.74711 0.47071
 H2343 H 0.74656 0.72638 0.45366
 H2344 H 0.73157 0.71272 0.43895
 C2345 C 0.69974 0.18338 -0.10879
 C2346 C 0.70736 0.19102 -0.09928
 C2347 C 0.70082 0.20000 -0.09011
 C2348 C 0.68643 0.20148 -0.09086
 C2349 C 0.67878 0.19395 -0.10059
 C2350 C 0.68538 0.18472 -0.10954
 C2351 C 0.70957 0.20784 -0.08036
 C2352 C 0.70552 0.21207 -0.06782
 C2353 C 0.71512 0.21887 -0.05795
 C2354 C 0.70990 0.22773 -0.04778
 C2355 C 0.71883 0.23468 -0.03875
 C2356 C 0.73311 0.23285 -0.03977
 C2357 C 0.73827 0.22355 -0.04951
 C2358 C 0.72940 0.21653 -0.05839
 H2359 H 0.70517 0.17657 -0.11570
 H2360 H 0.71844 0.18980 -0.09899
 H2361 H 0.68112 0.20859 -0.08416
 H2362 H 0.66772 0.19521 -0.10100
 H2363 H 0.72006 0.20961 -0.08359
 H2364 H 0.69497 0.21056 -0.06463
 H2365 H 0.69894 0.22953 -0.04707
 H2366 H 0.71463 0.24179 -0.03128
 H2367 H 0.74924 0.22176 -0.05026
 H2368 H 0.73384 0.20926 -0.06552
 C2369 C 0.20602 0.67012 -0.10251
 C2370 C 0.21435 0.67557 -0.09202
 C2371 C 0.20977 0.68657 -0.08389
 C2372 C 0.19661 0.69207 -0.08656
 C2373 C 0.18828 0.68662 -0.09704
 C2374 C 0.19291 0.67565 -0.10524
 C2375 C 0.21932 0.69262 -0.07350
 C2376 C 0.21518 0.70052 -0.06293
 C2377 C 0.22466 0.70806 -0.05347
 C2378 C 0.21920 0.71410 -0.04151
 C2379 C 0.22727 0.72267 -0.03316
 C2380 C 0.24100 0.72546 -0.03663
 C2381 C 0.24666 0.71896 -0.04825
 C2382 C 0.23859 0.71042 -0.05663
 H2383 H 0.21003 0.66177 -0.10864
 H2384 H 0.22449 0.67124 -0.09033
 H2385 H 0.19282 0.70084 -0.08091
 H2386 H 0.17826 0.69117 -0.09877
 H2387 H 0.23012 0.69032 -0.07469
 H2388 H 0.20429 0.70174 -0.06108
 H2389 H 0.20850 0.71255 -0.03885
 H2390 H 0.22254 0.72765 -0.02438
 H2391 H 0.25725 0.72080 -0.05112
 H2392 H 0.24325 0.70625 -0.06583
 C2393 C 0.17154 0.20130 0.39839
 C2394 C 0.17731 0.20919 0.40902
 C2395 C 0.18834 0.20415 0.41697
 C2396 C 0.19345 0.19092 0.41411
 C2397 C 0.18768 0.18302 0.40348
 C2398 C 0.17675 0.18817 0.39537
 C2399 C 0.19489 0.21340 0.42729
 C2400 C 0.20311 0.20899 0.43762
 C2401 C 0.21103 0.21833 0.44686
 C2402 C 0.21668 0.21297 0.45917
 C2403 C 0.22545 0.22094 0.46742
 C2404 C 0.22886 0.23443 0.46346
 C2405 C 0.22284 0.23997 0.45141
 C2406 C 0.21409 0.23202 0.44315
 H2407 H 0.16320 0.20570 0.39238
 H2408 H 0.17325 0.21939 0.41090
 H2409 H 0.20218 0.18674 0.41969
 H2410 H 0.19197 0.17296 0.40154
 H2411 H 0.19274 0.22426 0.42624
 H2412 H 0.20423 0.19807 0.43947
 H2413 H 0.21458 0.20245 0.46224
 H2414 H 0.23004 0.21633 0.47657
 H2415 H 0.22516 0.25039 0.44816
 H2416 H 0.21027 0.23652 0.43363
 C2417 C 0.32587 0.40358 0.69322
 C2418 C 0.31965 0.41425 0.70050
 C2419 C 0.30588 0.41781 0.69796
 C2420 C 0.29849 0.41058 0.68771
 C2421 C 0.30474 0.39992 0.68036
 C2422 C 0.31843 0.39617 0.68320
 C2423 C 0.29940 0.42817 0.70706
 C2424 C 0.28748 0.43460 0.70425
 C2425 C 0.28060 0.44365 0.71442
 C2426 C 0.27149 0.45388 0.70972
 C2427 C 0.26443 0.46216 0.71916
 C2428 C 0.26622 0.46021 0.73349
 C2429 C 0.27533 0.44996 0.73817
 C2430 C 0.28236 0.44172 0.72878
 H2431 H 0.33647 0.40107 0.69556
 H2432 H 0.32558 0.41959 0.70836
 H2433 H 0.28775 0.41271 0.68568
 H2434 H 0.29868 0.39428 0.67285
 H2435 H 0.30481 0.43056 0.71659
 H2436 H 0.28262 0.43339 0.69422
 H2437 H 0.26977 0.45542 0.69873
 H2438 H 0.25730 0.46982 0.71526
 H2439 H 0.27693 0.44821 0.74915
 H2440 H 0.28886 0.43362 0.73285
 C2441 C 0.30348 0.89548 0.19058
 C2442 C 0.29696 0.90486 0.19928
 C2443 C 0.30430 0.91583 0.20514
 C2444 C 0.31840 0.91717 0.20227
 C2445 C 0.32498 0.90767 0.19370
 C2446 C 0.31758 0.89672 0.18777
 C2447 C 0.29704 0.92523 0.21465
 C2448 C 0.30054 0.93844 0.21648
 C2449 C 0.29253 0.94767 0.22555
 C2450 C 0.29080 0.96151 0.22178
 C2451 C 0.28244 0.97016 0.22965
 C2452 C 0.27585 0.96516 0.24159
 C2453 C 0.27823 0.95148 0.24574
 C2454 C 0.28645 0.94282 0.23780
 H2455 H 0.29751 0.88708 0.18633
 H2456 H 0.28611 0.90353 0.20143
 H2457 H 0.32444 0.92533 0.20688
 H2458 H 0.33586 0.90891 0.19173
 H2459 H 0.28793 0.92127 0.21970
 H2460 H 0.30872 0.94292 0.21038
 H2461 H 0.29549 0.96550 0.21245
 H2462 H 0.28074 0.98060 0.22611
 H2463 H 0.27364 0.94742 0.25509
 H2464 H 0.28801 0.93232 0.24125
 C2465 C 0.81053 0.41079 0.17116
 C2466 C 0.80336 0.42163 0.17719
 C2467 C 0.80370 0.42361 0.19157
 C2468 C 0.81170 0.41467 0.19983
 C2469 C 0.81895 0.40384 0.19377
 C2470 C 0.81824 0.40166 0.17941
 C2471 C 0.79439 0.43404 0.19755
 C2472 C 0.79542 0.43899 0.21046
 C2473 C 0.78453 0.44773 0.21654
 C2474 C 0.78789 0.45714 0.22703
 C2475 C 0.77762 0.46511 0.23320
 C2476 C 0.76380 0.46360 0.22914
 C2477 C 0.76045 0.45412 0.21873
 C2478 C 0.77067 0.44625 0.21253
 H2479 H 0.80987 0.40945 0.16005
 H2480 H 0.79722 0.42830 0.17060
 H2481 H 0.81190 0.41556 0.21099
 H2482 H 0.82461 0.39682 0.20042
 H2483 H 0.78609 0.43763 0.19094
 H2484 H 0.80438 0.43670 0.21677
 H2485 H 0.79845 0.45830 0.23047
 H2486 H 0.78042 0.47219 0.24137
 H2487 H 0.74987 0.45275 0.21542
 H2488 H 0.76759 0.43874 0.20486
 C2489 C 0.83239 0.89585 0.70668
 C2490 C 0.82696 0.90613 0.71513
 C2491 C 0.81733 0.91558 0.70986
 C2492 C 0.81335 0.91461 0.69585
 C2493 C 0.81877 0.90435 0.68742
 C2494 C 0.82819 0.89470 0.69277
 C2495 C 0.81072 0.92537 0.71953
 C2496 C 0.80399 0.93672 0.71531
 C2497 C 0.79519 0.94532 0.72435
 C2498 C 0.78953 0.95743 0.71874
 C2499 C 0.77979 0.96499 0.72607
 C2500 C 0.77546 0.96062 0.73922
 C2501 C 0.78154 0.94885 0.74512
 C2502 C 0.79124 0.94124 0.73778
 H2503 H 0.83953 0.88855 0.71120
 H2504 H 0.83008 0.90651 0.72591
 H2505 H 0.80565 0.92136 0.69142
 H2506 H 0.81536 0.90387 0.67674
 H2507 H 0.81129 0.92283 0.73042
 H2508 H 0.80453 0.93974 0.70454
 H2509 H 0.79227 0.96079 0.70841
 H2510 H 0.77517 0.97391 0.72115
 H2511 H 0.77853 0.94532 0.75531
 H2512 H 0.79510 0.93194 0.74255
 C2513 C 0.69702 0.60502 0.68311
 C2514 C 0.70409 0.59502 0.69068
 C2515 C 0.69705 0.58603 0.69954
 C2516 C 0.68270 0.58733 0.70079
 C2517 C 0.67560 0.59748 0.69327
 C2518 C 0.68270 0.60644 0.68434
 C2519 C 0.70528 0.57599 0.70767
 C2520 C 0.70040 0.56411 0.71281
 C2521 C 0.70923 0.55428 0.72064
 C2522 C 0.70319 0.54519 0.73020
 C2523 C 0.71139 0.53639 0.73830
 C2524 C 0.72576 0.53658 0.73696
 C2525 C 0.73172 0.54515 0.72693
 C2526 C 0.72357 0.55379 0.71877
 H2527 H 0.70288 0.61183 0.67650
 H2528 H 0.71516 0.59431 0.68962
 H2529 H 0.67696 0.58080 0.70777
 H2530 H 0.66457 0.59830 0.69445
 H2531 H 0.71599 0.57860 0.70924
 H2532 H 0.68963 0.56155 0.71153
 H2533 H 0.69216 0.54517 0.73166
 H2534 H 0.70656 0.52979 0.74591
 H2535 H 0.74276 0.54518 0.72545
 H2536 H 0.72861 0.56002 0.71102
 C2537 C 0.67972 0.10080 0.19785
 C2538 C 0.68687 0.09076 0.20532
 C2539 C 0.69686 0.08262 0.19890
 C2540 C 0.69960 0.08474 0.18476
 C2541 C 0.69252 0.09492 0.17729
 C2542 C 0.68254 0.10310 0.18377
 C2543 C 0.70469 0.07273 0.20758
 C2544 C 0.71064 0.06125 0.20278
 C2545 C 0.71850 0.05160 0.21182
 C2546 C 0.72812 0.04264 0.20582
 C2547 C 0.73633 0.03407 0.21414
 C2548 C 0.73506 0.03438 0.22860
 C2549 C 0.72502 0.04279 0.23456
 C2550 C 0.71672 0.05118 0.22629
 H2551 H 0.67223 0.10697 0.20325
 H2552 H 0.68465 0.08940 0.21623
 H2553 H 0.70746 0.07888 0.17954
 H2554 H 0.69491 0.09641 0.16645
 H2555 H 0.70538 0.07518 0.21847
 H2556 H 0.71005 0.05893 0.19183
 H2557 H 0.72956 0.04257 0.19470
 H2558 H 0.74399 0.02758 0.20935
 H2559 H 0.72371 0.04294 0.24569
 H2560 H 0.70898 0.05729 0.23137
 C2561 C 0.20237 0.60372 0.17651
 C2562 C 0.21022 0.59370 0.18333
 C2563 C 0.20411 0.58456 0.19275
 C2564 C 0.18990 0.58561 0.19518
 C2565 C 0.18205 0.59568 0.18840
 C2566 C 0.18822 0.60494 0.17908
 C2567 C 0.21310 0.57477 0.20040
 C2568 C 0.20866 0.56309 0.20638
 C2569 C 0.21768 0.55382 0.21472
 C2570 C 0.21157 0.54442 0.22392
 C2571 C 0.21968 0.53604 0.23253
 C2572 C 0.23408 0.53693 0.23211
 C2573 C 0.24021 0.54591 0.22253
 C2574 C 0.23214 0.55417 0.21386
 H2575 H 0.20752 0.61070 0.16950
 H2576 H 0.22116 0.59318 0.18132
 H2577 H 0.18483 0.57901 0.20260
 H2578 H 0.17116 0.59626 0.19056
 H2579 H 0.22383 0.57759 0.20115
 H2580 H 0.19790 0.56034 0.20558
 H2581 H 0.20048 0.54379 0.22470
 H2582 H 0.21470 0.52918 0.23980
 H2583 H 0.25130 0.54655 0.22177
 H2584 H 0.23737 0.56072 0.20652
 C2585 C 0.17414 0.10403 0.70088
 C2586 C 0.18033 0.09381 0.70897
 C2587 C 0.18939 0.08432 0.70304
 C2588 C 0.19225 0.08533 0.68880
 C2589 C 0.18616 0.09567 0.68072
 C2590 C 0.17707 0.10516 0.68668
 C2591 C 0.19639 0.07425 0.71221
 C2592 C 0.20097 0.06197 0.70790
 C2593 C 0.20908 0.05236 0.71675
 C2594 C 0.21658 0.04183 0.71032
 C2595 C 0.22547 0.03342 0.71804
 C2596 C 0.22704 0.03541 0.73235
 C2597 C 0.21893 0.04533 0.73894
 C2598 C 0.20996 0.05364 0.73127
 H2599 H 0.16733 0.11126 0.70586
 H2600 H 0.17810 0.09336 0.71994
 H2601 H 0.19950 0.07845 0.68395
 H2602 H 0.18861 0.09624 0.66981
 H2603 H 0.19781 0.07733 0.72286
 H2604 H 0.19927 0.05903 0.69722
 H2605 H 0.21598 0.04045 0.69920
 H2606 H 0.23160 0.02581 0.71272
 H2607 H 0.21976 0.04683 0.75002
 H2608 H 0.20395 0.06112 0.73684
 C2609 C 0.32046 0.60799 0.29643
 C2610 C 0.31442 0.59740 0.28880
 C2611 C 0.30729 0.58674 0.29543
 C2612 C 0.30623 0.58694 0.30997
 C2613 C 0.31219 0.59764 0.31763
 C2614 C 0.31934 0.60830 0.31093
 C2615 C 0.30043 0.57623 0.28670
 C2616 C 0.29707 0.56355 0.29106
 C2617 C 0.28945 0.55359 0.28224
 C2618 C 0.28160 0.54325 0.28863
 C2619 C 0.27322 0.53455 0.28072
 C2620 C 0.27255 0.53604 0.26626
 C2621 C 0.28103 0.54578 0.25979
 C2622 C 0.28950 0.55437 0.26766
 H2623 H 0.32570 0.61610 0.29087
 H2624 H 0.31525 0.59759 0.27761
 H2625 H 0.30049 0.57912 0.31545
 H2626 H 0.31115 0.59757 0.32878
 H2627 H 0.29801 0.57932 0.27619
 H2628 H 0.29937 0.56049 0.30161
 H2629 H 0.28153 0.54226 0.29981
 H2630 H 0.26676 0.52710 0.28595
 H2631 H 0.28090 0.54690 0.24862
 H2632 H 0.29593 0.56166 0.26224
 C2633 C 0.29835 0.10550 0.81729
 C2634 C 0.29084 0.09568 0.80996
 C2635 C 0.29744 0.08636 0.80117
 C2636 C 0.31182 0.08719 0.79972
 C2637 C 0.31936 0.09714 0.80701
 C2638 C 0.31270 0.10639 0.81590
 C2639 C 0.28880 0.07649 0.79332
 C2640 C 0.29329 0.06451 0.78816
 C2641 C 0.28417 0.05492 0.78040
 C2642 C 0.29000 0.04561 0.77100
 C2643 C 0.28161 0.03694 0.76302
 C2644 C 0.26724 0.03747 0.76431
 C2645 C 0.26146 0.04634 0.77410
 C2646 C 0.26980 0.05486 0.78216
 H2647 H 0.29282 0.11256 0.82386
 H2648 H 0.27977 0.09536 0.81116
 H2649 H 0.31725 0.08044 0.79276
 H2650 H 0.33040 0.09755 0.80568
 H2651 H 0.27813 0.07935 0.79194
 H2652 H 0.30400 0.06168 0.78933
 H2653 H 0.30104 0.04528 0.76959
 H2654 H 0.28630 0.03015 0.75555
 H2655 H 0.25042 0.04668 0.77552
 H2656 H 0.26489 0.06129 0.78978
 C2657 C 0.81621 0.60566 0.79740
 C2658 C 0.80963 0.59524 0.79000
 C2659 C 0.80276 0.58459 0.79691
 C2660 C 0.80254 0.58459 0.81149
 C2661 C 0.80906 0.59511 0.81893
 C2662 C 0.81595 0.60578 0.81195
 C2663 C 0.79524 0.57434 0.78844
 C2664 C 0.79210 0.56158 0.79273
 C2665 C 0.78388 0.55186 0.78418
 C2666 C 0.77650 0.54133 0.79080
 C2667 C 0.76758 0.53284 0.78324
 C2668 C 0.76591 0.53477 0.76891
 C2669 C 0.77392 0.54471 0.76215
 C2670 C 0.78291 0.55308 0.76965
 H2671 H 0.82122 0.61378 0.79164
 H2672 H 0.80982 0.59557 0.77878
 H2673 H 0.79703 0.57675 0.81718
 H2674 H 0.80864 0.59491 0.83013
 H2675 H 0.79215 0.57769 0.77820
 H2676 H 0.79506 0.55827 0.80304
 H2677 H 0.77720 0.54001 0.80193
 H2678 H 0.76150 0.52524 0.78868
 H2679 H 0.77300 0.54618 0.75105
 H2680 H 0.78893 0.56054 0.76400
 C2681 C 0.80052 0.10730 0.31266
 C2682 C 0.79313 0.09732 0.30545
 C2683 C 0.79996 0.08671 0.29853
 C2684 C 0.81444 0.08652 0.29856
 C2685 C 0.82189 0.09671 0.30561
 C2686 C 0.81496 0.10707 0.31289
 C2687 C 0.79149 0.07644 0.29110
 C2688 C 0.79523 0.06332 0.28914
 C2689 C 0.78611 0.05323 0.28211
 C2690 C 0.79195 0.04202 0.27516
 C2691 C 0.78366 0.03300 0.26751
 C2692 C 0.76937 0.03505 0.26673
 C2693 C 0.76345 0.04574 0.27437
 C2694 C 0.77169 0.05465 0.28209
 H2695 H 0.79489 0.11528 0.31796
 H2696 H 0.78199 0.09779 0.30543
 H2697 H 0.82002 0.07868 0.29300
 H2698 H 0.83302 0.09635 0.30560
 H2699 H 0.78150 0.07990 0.28754
 H2700 H 0.80531 0.05988 0.29249
 H2701 H 0.80300 0.04055 0.27521
 H2702 H 0.78845 0.02482 0.26169
 H2703 H 0.75242 0.04733 0.27416
 H2704 H 0.76669 0.06268 0.28792
 C2705 C 0.69034 0.40561 0.31357
 C2706 C 0.69517 0.41702 0.30628
 C2707 C 0.68777 0.42229 0.29496
 C2708 C 0.67524 0.41610 0.29119
 C2709 C 0.67035 0.40470 0.29853
 C2710 C 0.67786 0.39928 0.30981
 C2711 C 0.69349 0.43422 0.28742
 C2712 C 0.69135 0.43647 0.27388
 C2713 C 0.69930 0.44694 0.26621
 C2714 C 0.70360 0.44399 0.25272
 C2715 C 0.71306 0.45254 0.24608
 C2716 C 0.71834 0.46425 0.25281
 C2717 C 0.71306 0.46782 0.26584
 C2718 C 0.70356 0.45929 0.27245
 H2719 H 0.69645 0.40185 0.32217
 H2720 H 0.70486 0.42162 0.30940
 H2721 H 0.66912 0.42012 0.28270
 H2722 H 0.66069 0.40019 0.29531
 H2723 H 0.70089 0.44052 0.29295
 H2724 H 0.68516 0.42933 0.26794
 H2725 H 0.70025 0.43465 0.24763
 H2726 H 0.71662 0.44972 0.23587
 H2727 H 0.71679 0.47681 0.27128
 H2728 H 0.69993 0.46210 0.28263
 C2729 C 0.69701 0.88833 0.81376
 C2730 C 0.70477 0.89757 0.80599
 C2731 C 0.69833 0.90731 0.79739
 C2732 C 0.68387 0.90736 0.79638
 C2733 C 0.67607 0.89788 0.80402
 C2734 C 0.68259 0.88839 0.81290
 C2735 C 0.70722 0.91690 0.78955
 C2736 C 0.70352 0.92965 0.78567
 C2737 C 0.71338 0.93934 0.77914
 C2738 C 0.70850 0.94982 0.77032
 C2739 C 0.71770 0.95880 0.76375
 C2740 C 0.73194 0.95746 0.76596
 C2741 C 0.73673 0.94740 0.77527
 C2742 C 0.72760 0.93851 0.78183
 H2743 H 0.70235 0.88100 0.82032
 H2744 H 0.71588 0.89723 0.80684
 H2745 H 0.67860 0.91453 0.78960
 H2746 H 0.66496 0.89812 0.80315
 H2747 H 0.71757 0.91338 0.78755
 H2748 H 0.69312 0.93318 0.78736
 H2749 H 0.69758 0.95085 0.76827
 H2750 H 0.71373 0.96651 0.75665
 H2751 H 0.74763 0.94640 0.77747
 H2752 H 0.73177 0.93110 0.78910
 C2753 C 0.17684 0.40356 0.80785
 C2754 C 0.18357 0.41494 0.80220
 C2755 C 0.19515 0.42060 0.80879
 C2756 C 0.19955 0.41496 0.82150
 C2757 C 0.19279 0.40358 0.82719
 C2758 C 0.18147 0.39759 0.82033
 C2759 C 0.20240 0.43215 0.80191
 C2760 C 0.21581 0.43485 0.80382
 C2761 C 0.22343 0.44484 0.79513
 C2762 C 0.23741 0.44244 0.79258
 C2763 C 0.24460 0.45067 0.78322
 C2764 C 0.23798 0.46159 0.77633
 C2765 C 0.22423 0.46456 0.77955
 C2766 C 0.21701 0.45628 0.78888
 H2767 H 0.16810 0.39941 0.80229
 H2768 H 0.17990 0.41916 0.79245
 H2769 H 0.20816 0.41931 0.82712
 H2770 H 0.19658 0.39946 0.83689
 H2771 H 0.19676 0.43769 0.79396
 H2772 H 0.22181 0.42847 0.81079
 H2773 H 0.24265 0.43380 0.79740
 H2774 H 0.25527 0.44831 0.78109
 H2775 H 0.21888 0.47292 0.77440
 H2776 H 0.20638 0.45873 0.79098
 C2777 C 0.18069 0.89889 0.29401
 C2778 C 0.18640 0.90963 0.28634
 C2779 C 0.19307 0.92056 0.29300
 C2780 C 0.19384 0.92062 0.30756
 C2781 C 0.18822 0.90981 0.31525
 C2782 C 0.18171 0.89876 0.30854
 C2783 C 0.20020 0.93090 0.28439
 C2784 C 0.20301 0.94371 0.28865
 C2785 C 0.21195 0.95325 0.28077
 C2786 C 0.21900 0.96359 0.28803
 C2787 C 0.22888 0.97165 0.28139
 C2788 C 0.23187 0.96949 0.26737
 C2789 C 0.22416 0.95982 0.25986
 C2790 C 0.21421 0.95185 0.26645
 H2791 H 0.17587 0.89050 0.28848
 H2792 H 0.18579 0.90928 0.27514
 H2793 H 0.19923 0.92869 0.31305
 H2794 H 0.18910 0.91004 0.32642
 H2795 H 0.20363 0.92747 0.27436
 H2796 H 0.19952 0.94705 0.29872
 H2797 H 0.21736 0.96497 0.29903
 H2798 H 0.23473 0.97904 0.28740
 H2799 H 0.22612 0.95819 0.24895
 H2800 H 0.20856 0.94445 0.26031
 C2801 C 0.40246 0.32628 0.69661
 C2802 C 0.41311 0.32013 0.70416
 C2803 C 0.41844 0.30734 0.70022
 C2804 C 0.41300 0.30089 0.68835
 C2805 C 0.40232 0.30706 0.68078
 C2806 C 0.39679 0.31974 0.68494
 C2807 C 0.42874 0.30069 0.70946
 C2808 C 0.43671 0.29003 0.70584
 C2809 C 0.44571 0.28274 0.71593
 C2810 C 0.45735 0.27563 0.71123
 C2811 C 0.46559 0.26809 0.72048
 C2812 C 0.46218 0.26734 0.73459
 C2813 C 0.45056 0.27450 0.73927
 C2814 C 0.44239 0.28204 0.73008
 H2815 H 0.39862 0.33611 0.70008
 H2816 H 0.41704 0.32531 0.71328
 H2817 H 0.41655 0.29087 0.68514
 H2818 H 0.39815 0.30165 0.67193
 H2819 H 0.42976 0.30487 0.71979
 H2820 H 0.43683 0.28656 0.69521
 H2821 H 0.46001 0.27584 0.70035
 H2822 H 0.47438 0.26251 0.71656
 H2823 H 0.44769 0.27412 0.75009
 H2824 H 0.43326 0.28694 0.73406
 C2825 C 0.40304 0.83416 0.19694
 C2826 C 0.41320 0.82825 0.20536
 C2827 C 0.41943 0.81580 0.20169
 C2828 C 0.41526 0.80933 0.18933
 C2829 C 0.40507 0.81523 0.18090
 C2830 C 0.39874 0.82766 0.18466
 C2831 C 0.42942 0.80946 0.21150
 C2832 C 0.43868 0.79992 0.20787
 C2833 C 0.44778 0.79270 0.21795
 C2834 C 0.45947 0.78585 0.21302
 C2835 C 0.46757 0.77781 0.22192
 C2836 C 0.46406 0.77634 0.23594
 C2837 C 0.45263 0.78353 0.24099
 C2838 C 0.44454 0.79157 0.23211
 H2839 H 0.39838 0.84366 0.20030
 H2840 H 0.41608 0.83338 0.21490
 H2841 H 0.41949 0.79952 0.18630
 H2842 H 0.40206 0.80992 0.17153
 H2843 H 0.42918 0.81306 0.22208
 H2844 H 0.43979 0.79727 0.19706
 H2845 H 0.46215 0.78644 0.20216
 H2846 H 0.47622 0.77225 0.21769
 H2847 H 0.44973 0.78265 0.25177
 H2848 H 0.43545 0.79636 0.23632
 C2849 C 0.89415 0.32227 0.19894
 C2850 C 0.90406 0.31512 0.20659
 C2851 C 0.91227 0.30509 0.20033
 C2852 C 0.91032 0.30227 0.18617
 C2853 C 0.90025 0.30934 0.17851
 C2854 C 0.89202 0.31939 0.18483
 C2855 C 0.92206 0.29730 0.20919
 C2856 C 0.93361 0.29134 0.20456
 C2857 C 0.94319 0.28344 0.21367
 C2858 C 0.95253 0.27422 0.20764
 C2859 C 0.96116 0.26604 0.21592
 C2860 C 0.96053 0.26691 0.23041
 C2861 C 0.95170 0.27654 0.23644
 C2862 C 0.94323 0.28482 0.22820
 H2863 H 0.88792 0.32980 0.20422
 H2864 H 0.90527 0.31739 0.21751
 H2865 H 0.91621 0.29435 0.18107
 H2866 H 0.89889 0.30690 0.16766
 H2867 H 0.91949 0.29667 0.22004
 H2868 H 0.93606 0.29196 0.19365
 H2869 H 0.95290 0.27310 0.19649
 H2870 H 0.96796 0.25871 0.21106
 H2871 H 0.95131 0.27761 0.24760
 H2872 H 0.93680 0.29223 0.23337
 C2873 C 0.89562 0.79369 0.67432
 C2874 C 0.90603 0.78522 0.67961
 C2875 C 0.91607 0.79052 0.68862
 C2876 C 0.91546 0.80449 0.69233
 C2877 C 0.90498 0.81293 0.68713
 C2878 C 0.89490 0.80761 0.67813
 C2879 C 0.92626 0.78099 0.69488
 C2880 C 0.93876 0.78504 0.69925
 C2881 C 0.94835 0.77620 0.70738
 C2882 C 0.95925 0.78257 0.71450
 C2883 C 0.96760 0.77506 0.72362
 C2884 C 0.96520 0.76099 0.72581
 C2885 C 0.95486 0.75440 0.71808
 C2886 C 0.94658 0.76188 0.70888
 H2887 H 0.88795 0.78921 0.66754
 H2888 H 0.90617 0.77446 0.67676
 H2889 H 0.92274 0.80884 0.69960
 H2890 H 0.90474 0.82360 0.69025
 H2891 H 0.92301 0.77044 0.69613
 H2892 H 0.94185 0.79560 0.69753
 H2893 H 0.96096 0.79354 0.71348
 H2894 H 0.97546 0.78041 0.72950
 H2895 H 0.95298 0.74349 0.71941
 H2896 H 0.93872 0.75636 0.70324
 C2897 C 0.59745 0.30856 0.32938
 C2898 C 0.58696 0.30070 0.32341
 C2899 C 0.58262 0.30317 0.30974
 C2900 C 0.58896 0.31379 0.30216
 C2901 C 0.59943 0.32168 0.30815
 C2902 C 0.60390 0.31905 0.32178
 C2903 C 0.57232 0.29377 0.30349
 C2904 C 0.56501 0.29669 0.29201
 C2905 C 0.55594 0.28652 0.28509
 C2906 C 0.54536 0.29119 0.27628
 C2907 C 0.53727 0.28185 0.26882
 C2908 C 0.53973 0.26765 0.26992
 C2909 C 0.55017 0.26297 0.27889
 C2910 C 0.55824 0.27227 0.28632
 H2911 H 0.60053 0.30632 0.33994
 H2912 H 0.58233 0.29253 0.32946
 H2913 H 0.58626 0.31578 0.29145
 H2914 H 0.60429 0.32953 0.30190
 H2915 H 0.57072 0.28403 0.30870
 H2916 H 0.56553 0.30687 0.28749
 H2917 H 0.54348 0.30211 0.27504
 H2918 H 0.52940 0.28575 0.26187
 H2919 H 0.55224 0.25208 0.28000
 H2920 H 0.56655 0.26823 0.29262
 C2921 C 0.59566 0.80218 0.82943
 C2922 C 0.58574 0.79398 0.82299
 C2923 C 0.58002 0.79781 0.81019
 C2924 C 0.58437 0.81018 0.80397
 C2925 C 0.59435 0.81839 0.81040
 C2926 C 0.60027 0.81441 0.82313
 C2927 C 0.57040 0.78814 0.80329
 C2928 C 0.56137 0.79186 0.79341
 C2929 C 0.55251 0.78184 0.78597
 C2930 C 0.54028 0.78646 0.77970
 C2931 C 0.53217 0.77752 0.77179
 C2932 C 0.53625 0.76381 0.76984
 C2933 C 0.54835 0.75910 0.77631
 C2934 C 0.55642 0.76801 0.78425
 H2935 H 0.59988 0.79868 0.83920
 H2936 H 0.58264 0.78448 0.82797
 H2937 H 0.58046 0.81334 0.79394
 H2938 H 0.59757 0.82773 0.80523
 H2939 H 0.57064 0.77755 0.80678
 H2940 H 0.56014 0.80262 0.79079
 H2941 H 0.53710 0.79708 0.78076
 H2942 H 0.52297 0.78146 0.76678
 H2943 H 0.55169 0.74856 0.77503
 H2944 H 0.56595 0.76411 0.78857
 C2945 C 0.10166 0.32203 0.79760
 C2946 C 0.09154 0.31505 0.79005
 C2947 C 0.08269 0.30570 0.79660
 C2948 C 0.08409 0.30354 0.81095
 C2949 C 0.09425 0.31047 0.81850
 C2950 C 0.10327 0.31968 0.81188
 C2951 C 0.07291 0.29774 0.78791
 C2952 C 0.06150 0.29161 0.79273
 C2953 C 0.05232 0.28290 0.78404
 C2954 C 0.04328 0.27368 0.79060
 C2955 C 0.03498 0.26478 0.78281
 C2956 C 0.03563 0.26491 0.76830
 C2957 C 0.04426 0.27444 0.76172
 C2958 C 0.05242 0.28342 0.76946
 H2959 H 0.10846 0.32893 0.79211
 H2960 H 0.09077 0.31683 0.77899
 H2961 H 0.07774 0.29616 0.81636
 H2962 H 0.09514 0.30845 0.82949
 H2963 H 0.07555 0.29684 0.77710
 H2964 H 0.05892 0.29258 0.80356
 H2965 H 0.04285 0.27316 0.80180
 H2966 H 0.02836 0.25754 0.78811
 H2967 H 0.04467 0.27497 0.75052
 H2968 H 0.05867 0.29073 0.76388
 C2969 C 0.10097 0.82734 0.30430
 C2970 C 0.09001 0.82109 0.29737
 C2971 C 0.08534 0.80805 0.30140
 C2972 C 0.09165 0.80148 0.31280
 C2973 C 0.10267 0.80775 0.31975
 C2974 C 0.10761 0.82063 0.31540
 C2975 C 0.07494 0.80114 0.29257
 C2976 C 0.06667 0.79102 0.29697
 C2977 C 0.05751 0.78333 0.28740
 C2978 C 0.04557 0.77709 0.29257
 C2979 C 0.03724 0.76903 0.28396
 C2980 C 0.04083 0.76687 0.27005
 C2981 C 0.05267 0.77327 0.26483
 C2982 C 0.06094 0.78137 0.27340
 H2983 H 0.10433 0.83736 0.30078
 H2984 H 0.08531 0.82637 0.28864
 H2985 H 0.08856 0.79126 0.31598
 H2986 H 0.10768 0.80224 0.32814
 H2987 H 0.07409 0.80467 0.28195
 H2988 H 0.06642 0.78836 0.30787
 H2989 H 0.04278 0.77830 0.30335
 H2990 H 0.02829 0.76403 0.28830
 H2991 H 0.05568 0.77178 0.25416
 H2992 H 0.07029 0.78564 0.26914
 C2993 C 0.59456 0.69248 0.67096
 C2994 C 0.58411 0.70005 0.67720
 C2995 C 0.58000 0.69709 0.69077
 C2996 C 0.58648 0.68623 0.69797
 C2997 C 0.59702 0.67869 0.69174
 C2998 C 0.60133 0.68186 0.67823
 C2999 C 0.56983 0.70625 0.69740
 C3000 C 0.56184 0.70240 0.70799
 C3001 C 0.55267 0.71212 0.71529
 C3002 C 0.54094 0.70706 0.72200
 C3003 C 0.53269 0.71581 0.72987
 C3004 C 0.53618 0.72975 0.73137
 C3005 C 0.54779 0.73487 0.72447
 C3006 C 0.55596 0.72616 0.71652
 H3007 H 0.59740 0.69512 0.66047
 H3008 H 0.57932 0.70837 0.67144
 H3009 H 0.58384 0.68390 0.70859
 H3010 H 0.60207 0.67070 0.69771
 H3011 H 0.56879 0.71654 0.69318
 H3012 H 0.56180 0.69176 0.71135
 H3013 H 0.53826 0.69627 0.72131
 H3014 H 0.52390 0.71157 0.73523
 H3015 H 0.55071 0.74558 0.72546
 H3016 H 0.56513 0.73037 0.71182
 C3017 C 0.59578 0.19033 0.17567
 C3018 C 0.58545 0.19747 0.18257
 C3019 C 0.58167 0.19380 0.19608
 C3020 C 0.58829 0.18255 0.20248
 C3021 C 0.59868 0.17540 0.19557
 C3022 C 0.60272 0.17937 0.18217
 C3023 C 0.57177 0.20274 0.20341
 C3024 C 0.56482 0.19909 0.21482
 C3025 C 0.55617 0.20901 0.22249
 C3026 C 0.54478 0.20431 0.23005
 C3027 C 0.53677 0.21353 0.23768
 C3028 C 0.54021 0.22756 0.23809
 C3029 C 0.55162 0.23222 0.23056
 C3030 C 0.55953 0.22308 0.22290
 H3031 H 0.59841 0.19360 0.16530
 H3032 H 0.58055 0.20610 0.17739
 H3033 H 0.58590 0.17957 0.21300
 H3034 H 0.60381 0.16706 0.20095
 H3035 H 0.57015 0.21291 0.19908
 H3036 H 0.56524 0.18859 0.21856
 H3037 H 0.54208 0.19351 0.23001
 H3038 H 0.52807 0.20967 0.24347
 H3039 H 0.55444 0.24300 0.23059
 H3040 H 0.56846 0.22705 0.21757
 C3041 C 0.10239 0.66992 0.20081
 C3042 C 0.09238 0.67574 0.20930
 C3043 C 0.08460 0.68706 0.20475
 C3044 C 0.08693 0.69234 0.19138
 C3045 C 0.09696 0.68653 0.18289
 C3046 C 0.10496 0.67538 0.18756
 C3047 C 0.07501 0.69365 0.21461
 C3048 C 0.06463 0.70194 0.21073
 C3049 C 0.05598 0.70969 0.22064
 C3050 C 0.04348 0.71530 0.21592
 C3051 C 0.03559 0.72369 0.22451
 C3052 C 0.04012 0.72677 0.23799
 C3053 C 0.05243 0.72089 0.24286
 C3054 C 0.06032 0.71251 0.23429
 H3055 H 0.10832 0.66136 0.20482
 H3056 H 0.09085 0.67150 0.21957
 H3057 H 0.08141 0.70124 0.18755
 H3058 H 0.09853 0.69095 0.17273
 H3059 H 0.07663 0.69142 0.22548
 H3060 H 0.06222 0.70314 0.19984
 H3061 H 0.03994 0.71343 0.20543
 H3062 H 0.02622 0.72821 0.22043
 H3063 H 0.05611 0.72300 0.25325
 H3064 H 0.07002 0.70875 0.23830
 C3065 C 0.10204 0.20097 0.67605
 C3066 C 0.09185 0.20876 0.68244
 C3067 C 0.08272 0.20264 0.69181
 C3068 C 0.08405 0.18852 0.69478
 C3069 C 0.09436 0.18074 0.68848
 C3070 C 0.10347 0.18690 0.67906
 C3071 C 0.07268 0.21153 0.69897
 C3072 C 0.06062 0.20700 0.70393
 C3073 C 0.05105 0.21570 0.71205
 C3074 C 0.04093 0.20922 0.72011
 C3075 C 0.03252 0.21689 0.72890
 C3076 C 0.03412 0.23120 0.72982
 C3077 C 0.04369 0.23779 0.72123
 C3078 C 0.05196 0.23017 0.71234
 H3079 H 0.10899 0.20609 0.66900
 H3080 H 0.09115 0.21965 0.68012
 H3081 H 0.07746 0.18354 0.70226
 H3082 H 0.09519 0.16992 0.69101
 H3083 H 0.07560 0.22218 0.70016
 H3084 H 0.05783 0.19631 0.70251
 H3085 H 0.03985 0.19813 0.71998
 H3086 H 0.02521 0.21159 0.73544
 H3087 H 0.04490 0.24886 0.72158
 H3088 H 0.05910 0.23575 0.70588
 C3089 C 0.40167 0.67867 0.30492
 C3090 C 0.41251 0.68485 0.29784
 C3091 C 0.41765 0.69766 0.30200
 C3092 C 0.41186 0.70411 0.31362
 C3093 C 0.40094 0.69791 0.32072
 C3094 C 0.39558 0.68522 0.31629
 C3095 C 0.42805 0.70444 0.29315
 C3096 C 0.43656 0.71443 0.29744
 C3097 C 0.44569 0.72191 0.28774
 C3098 C 0.45807 0.72762 0.29261
 C3099 C 0.46646 0.73532 0.28374
 C3100 C 0.46245 0.73767 0.26992
 C3101 C 0.45012 0.73189 0.26504
 C3102 C 0.44183 0.72412 0.27383
 H3103 H 0.39798 0.66881 0.30131
 H3104 H 0.41674 0.67971 0.28889
 H3105 H 0.41529 0.71417 0.31690
 H3106 H 0.39638 0.70332 0.32932
 H3107 H 0.42871 0.70091 0.28255
 H3108 H 0.43704 0.71712 0.30830
 H3109 H 0.46120 0.72620 0.30331
 H3110 H 0.47584 0.73983 0.28779
 H3111 H 0.44681 0.73354 0.25443
 H3112 H 0.43217 0.72026 0.26980
 C3113 C 0.39727 0.17565 0.80344
 C3114 C 0.40726 0.18260 0.79581
 C3115 C 0.41543 0.19281 0.80198
 C3116 C 0.41344 0.19590 0.81605
 C3117 C 0.40333 0.18902 0.82367
 C3118 C 0.39505 0.17890 0.81741
 C3119 C 0.42507 0.20062 0.79309
 C3120 C 0.43641 0.20705 0.79778
 C3121 C 0.44568 0.21535 0.78878
 C3122 C 0.45521 0.22433 0.79503
 C3123 C 0.46356 0.23290 0.78694
 C3124 C 0.46243 0.23269 0.77245
 C3125 C 0.45337 0.22333 0.76619
 C3126 C 0.44518 0.21468 0.77421
 H3127 H 0.39103 0.16802 0.79823
 H3128 H 0.40851 0.18010 0.78496
 H3129 H 0.41931 0.20393 0.82109
 H3130 H 0.40193 0.19172 0.83443
 H3131 H 0.42246 0.20096 0.78221
 H3132 H 0.43891 0.20655 0.80871
 H3133 H 0.45599 0.22494 0.80621
 H3134 H 0.47056 0.23999 0.79199
 H3135 H 0.45260 0.22276 0.75500
 H3136 H 0.43856 0.20756 0.76880
 C3137 C 0.89064 0.68526 0.79823
 C3138 C 0.90108 0.69198 0.79106
 C3139 C 0.91133 0.69930 0.79816
 C3140 C 0.91082 0.69993 0.81272
 C3141 C 0.90026 0.69325 0.81993
 C3142 C 0.89009 0.68580 0.81275
 C3143 C 0.92192 0.70640 0.78979
 C3144 C 0.93423 0.71059 0.79455
 C3145 C 0.94443 0.71731 0.78537
 C3146 C 0.95371 0.72695 0.79089
 C3147 C 0.96280 0.73407 0.78222
 C3148 C 0.96276 0.73159 0.76790
 C3149 C 0.95400 0.72144 0.76251
 C3150 C 0.94502 0.71430 0.77113
 H3151 H 0.88289 0.67984 0.79230
 H3152 H 0.90114 0.69141 0.77985
 H3153 H 0.91834 0.70573 0.81857
 H3154 H 0.90012 0.69388 0.83112
 H3155 H 0.91938 0.70806 0.77898
 H3156 H 0.93687 0.70941 0.80539
 H3157 H 0.95360 0.72931 0.80184
 H3158 H 0.96948 0.74186 0.78661
 H3159 H 0.95401 0.71912 0.75154
 H3160 H 0.93854 0.70646 0.76658
 C3161 C 0.89170 0.20034 0.31914
 C3162 C 0.90152 0.20831 0.31236
 C3163 C 0.91147 0.20214 0.30398
 C3164 C 0.91126 0.18776 0.30231
 C3165 C 0.90126 0.17977 0.30898
 C3166 C 0.89142 0.18598 0.31753
 C3167 C 0.92131 0.21117 0.29663
 C3168 C 0.93405 0.20733 0.29301
 C3169 C 0.94367 0.21649 0.28539
 C3170 C 0.95450 0.21057 0.27791
 C3171 C 0.96315 0.21875 0.26978
 C3172 C 0.96111 0.23303 0.26897
 C3173 C 0.95078 0.23905 0.27701
 C3174 C 0.94224 0.23092 0.28524
 H3175 H 0.88415 0.20551 0.32546
 H3176 H 0.90136 0.21937 0.31368
 H3177 H 0.91855 0.18270 0.29563
 H3178 H 0.90129 0.16873 0.30752
 H3179 H 0.91776 0.22147 0.29432
 H3180 H 0.93748 0.19697 0.29533
 H3181 H 0.95597 0.19953 0.27798
 H3182 H 0.97104 0.21387 0.26364
 H3183 H 0.94920 0.25008 0.27676
 H3184 H 0.93451 0.23604 0.29134
 C3185 C 0.32787 0.30824 0.59534
 C3186 C 0.32158 0.30081 0.58468
 C3187 C 0.30778 0.30319 0.58108
 C3188 C 0.30042 0.31335 0.58827
 C3189 C 0.30672 0.32078 0.59895
 C3190 C 0.32046 0.31817 0.60275
 C3191 C 0.30116 0.29401 0.57077
 C3192 C 0.28945 0.29701 0.56396
 C3193 C 0.28223 0.28685 0.55509
 C3194 C 0.27372 0.29145 0.54421
 C3195 C 0.26629 0.28204 0.53614
 C3196 C 0.26707 0.26788 0.53898
 C3197 C 0.27556 0.26331 0.54989
 C3198 C 0.28301 0.27266 0.55788
 H3199 H 0.33850 0.30603 0.59783
 H3200 H 0.32747 0.29301 0.57936
 H3201 H 0.28965 0.31522 0.58610
 H3202 H 0.30063 0.32822 0.60451
 H3203 H 0.30622 0.28431 0.56878
 H3204 H 0.28501 0.30718 0.56475
 H3205 H 0.27279 0.30234 0.54199
 H3206 H 0.25968 0.28585 0.52791
 H3207 H 0.27638 0.25245 0.55230
 H3208 H 0.28906 0.26874 0.56647
 C3209 C 0.30010 0.81711 0.10993
 C3210 C 0.29277 0.81000 0.09977
 C3211 C 0.29963 0.80202 0.08991
 C3212 C 0.31407 0.80109 0.09058
 C3213 C 0.32143 0.80814 0.10088
 C3214 C 0.31451 0.81629 0.11061
 C3215 C 0.29118 0.79453 0.07956
 C3216 C 0.29573 0.79026 0.06719
 C3217 C 0.28665 0.78316 0.05704
 C3218 C 0.29243 0.77415 0.04732
 C3219 C 0.28400 0.76674 0.03817
 C3220 C 0.26965 0.76825 0.03862
 C3221 C 0.26394 0.77778 0.04782
 C3222 C 0.27232 0.78523 0.05684
 H3223 H 0.29440 0.82309 0.11738
 H3224 H 0.28165 0.81079 0.09958
 H3225 H 0.31971 0.79477 0.08339
 H3226 H 0.33253 0.80729 0.10113
 H3227 H 0.28056 0.79274 0.08232
 H3228 H 0.30639 0.79174 0.06442
 H3229 H 0.30345 0.77254 0.04710
 H3230 H 0.28864 0.75947 0.03113
 H3231 H 0.25292 0.77934 0.04812
 H3232 H 0.26747 0.79258 0.06362
 C3233 C 0.79752 0.32191 0.10568
 C3234 C 0.78938 0.31495 0.09605
 C3235 C 0.79533 0.30577 0.08668
 C3236 C 0.80961 0.30343 0.08730
 C3237 C 0.81775 0.31026 0.09712
 C3238 C 0.81178 0.31963 0.10634
 C3239 C 0.78618 0.29834 0.07698
 C3240 C 0.79004 0.29436 0.06430
 C3241 C 0.78090 0.28669 0.05464
 C3242 C 0.78688 0.27953 0.04360
 C3243 C 0.77880 0.27141 0.03482
 C3244 C 0.76458 0.27027 0.03694
 C3245 C 0.75847 0.27792 0.04754
 C3246 C 0.76650 0.28616 0.05622
 H3247 H 0.79256 0.32888 0.11280
 H3248 H 0.77839 0.31677 0.09588
 H3249 H 0.81445 0.29612 0.08046
 H3250 H 0.82871 0.30829 0.09745
 H3251 H 0.77585 0.29638 0.08054
 H3252 H 0.80043 0.29648 0.06093
 H3253 H 0.79790 0.27988 0.04202
 H3254 H 0.78374 0.26555 0.02673
 H3255 H 0.74747 0.27739 0.04920
 H3256 H 0.76131 0.29197 0.06412
 C3257 C 0.79772 0.83236 0.60438
 C3258 C 0.78931 0.82775 0.59357
 C3259 C 0.79375 0.81728 0.58471
 C3260 C 0.80688 0.81151 0.58688
 C3261 C 0.81529 0.81612 0.59769
 C3262 C 0.81076 0.82650 0.60666
 C3263 C 0.78400 0.81186 0.57419
 C3264 C 0.78791 0.80447 0.56319
 C3265 C 0.77820 0.79711 0.55388
 C3266 C 0.78327 0.79160 0.54149
 C3267 C 0.77507 0.78302 0.53330
 C3268 C 0.76163 0.77971 0.53737
 C3269 C 0.75632 0.78572 0.54941
 C3270 C 0.76451 0.79426 0.55762
 H3271 H 0.79380 0.84028 0.61113
 H3272 H 0.77918 0.83224 0.59226
 H3273 H 0.81057 0.80313 0.58060
 H3274 H 0.82528 0.81141 0.59906
 H3275 H 0.77323 0.81405 0.57577
 H3276 H 0.79875 0.80343 0.56096
 H3277 H 0.79379 0.79353 0.53840
 H3278 H 0.77951 0.77841 0.52417
 H3279 H 0.74594 0.78344 0.55273
 H3280 H 0.76018 0.79799 0.56717
 C3281 C 0.30298 0.67613 0.39950
 C3282 C 0.29532 0.68260 0.40979
 C3283 C 0.30036 0.69435 0.41650
 C3284 C 0.31341 0.69941 0.41281
 C3285 C 0.32108 0.69294 0.40248
 C3286 C 0.31587 0.68134 0.39552
 C3287 C 0.29125 0.70154 0.42643
 C3288 C 0.29569 0.71064 0.43587
 C3289 C 0.28627 0.71857 0.44488
 C3290 C 0.29139 0.72416 0.45728
 C3291 C 0.28311 0.73255 0.46552
 C3292 C 0.26958 0.73569 0.46140
 C3293 C 0.26436 0.72986 0.44915
 C3294 C 0.27260 0.72147 0.44095
 H3295 H 0.29855 0.66724 0.39448
 H3296 H 0.28529 0.67850 0.41238
 H3297 H 0.31759 0.70861 0.41748
 H3298 H 0.33098 0.69723 0.39982
 H3299 H 0.28042 0.69901 0.42595
 H3300 H 0.30661 0.71230 0.43730
 H3301 H 0.30191 0.72220 0.46049
 H3302 H 0.28745 0.73701 0.47484
 H3303 H 0.25393 0.73202 0.44578
 H3304 H 0.26834 0.71772 0.43130
 C3305 C 0.30095 0.18323 0.89553
 C3306 C 0.29374 0.19093 0.90522
 C3307 C 0.30068 0.19973 0.91437
 C3308 C 0.31509 0.20076 0.91358
 C3309 C 0.32234 0.19313 0.90374
 C3310 C 0.31532 0.18428 0.89462
 C3311 C 0.29232 0.20801 0.92398
 C3312 C 0.29686 0.21310 0.93608
 C3313 C 0.28778 0.22095 0.94551
 C3314 C 0.29356 0.23040 0.95487
 C3315 C 0.28511 0.23844 0.96332
 C3316 C 0.27076 0.23715 0.96246
 C3317 C 0.26502 0.22728 0.95360
 C3318 C 0.27340 0.21915 0.94535
 H3319 H 0.29517 0.17671 0.88855
 H3320 H 0.28263 0.19004 0.90553
 H3321 H 0.32076 0.20768 0.92025
 H3322 H 0.33341 0.19416 0.90327
 H3323 H 0.28175 0.20970 0.92087
 H3324 H 0.30750 0.21172 0.93914
 H3325 H 0.30461 0.23181 0.95539
 H3326 H 0.28973 0.24594 0.97020
 H3327 H 0.25397 0.22587 0.95307
 H3328 H 0.26851 0.21146 0.93893
 C3329 C 0.80823 0.66948 0.90525
 C3330 C 0.80095 0.67557 0.91604
 C3331 C 0.80365 0.68918 0.92001
 C3332 C 0.81401 0.69653 0.91305
 C3333 C 0.82130 0.69043 0.90224
 C3334 C 0.81834 0.67691 0.89804
 C3335 C 0.79465 0.69565 0.93049
 C3336 C 0.79792 0.70709 0.93752
 C3337 C 0.78805 0.71435 0.94659
 C3338 C 0.79306 0.72303 0.95708
 C3339 C 0.78400 0.73082 0.96510
 C3340 C 0.76976 0.73022 0.96262
 C3341 C 0.76475 0.72139 0.95227
 C3342 C 0.77376 0.71359 0.94431
 H3343 H 0.80575 0.65900 0.90247
 H3344 H 0.79298 0.66969 0.92117
 H3345 H 0.81618 0.70716 0.91549
 H3346 H 0.82890 0.69655 0.89690
 H3347 H 0.78487 0.69070 0.93241
 H3348 H 0.80817 0.71137 0.93671
 H3349 H 0.80402 0.72391 0.95895
 H3350 H 0.78816 0.73763 0.97293
 H3351 H 0.75381 0.72066 0.95019
 H3352 H 0.76947 0.70737 0.93608
 C3353 C 0.80053 0.17476 0.40000
 C3354 C 0.79307 0.18133 0.41035
 C3355 C 0.79858 0.19268 0.41738
 C3356 C 0.81184 0.19729 0.41388
 C3357 C 0.81932 0.19071 0.40352
 C3358 C 0.81371 0.17946 0.39633
 C3359 C 0.78975 0.20004 0.42739
 C3360 C 0.79455 0.20876 0.43701
 C3361 C 0.78546 0.21722 0.44585
 C3362 C 0.79076 0.22274 0.45820
 C3363 C 0.78282 0.23160 0.46626
 C3364 C 0.76945 0.23523 0.46203
 C3365 C 0.76406 0.22953 0.44980
 C3366 C 0.77197 0.22069 0.44176
 H3367 H 0.79576 0.16621 0.39470
 H3368 H 0.78283 0.17765 0.41274
 H3369 H 0.81635 0.20624 0.41874
 H3370 H 0.82942 0.19463 0.40105
 H3371 H 0.77881 0.19804 0.42674
 H3372 H 0.80553 0.20979 0.43862
 H3373 H 0.80117 0.22036 0.46150
 H3374 H 0.78729 0.23598 0.47555
 H3375 H 0.75375 0.23208 0.44633
 H3376 H 0.76760 0.21705 0.43213
 C3377 C 0.70185 0.33254 0.39806
 C3378 C 0.70984 0.32700 0.40879
 C3379 C 0.70594 0.31475 0.41540
 C3380 C 0.69375 0.30817 0.41108
 C3381 C 0.68576 0.31371 0.40033
 C3382 C 0.68979 0.32588 0.39356
 C3383 C 0.71534 0.30868 0.42592
 C3384 C 0.71140 0.29942 0.43543
 C3385 C 0.72114 0.29231 0.44494
 C3386 C 0.71605 0.28627 0.45711
 C3387 C 0.72460 0.27828 0.46560
 C3388 C 0.73839 0.27601 0.46199
 C3389 C 0.74361 0.28239 0.45005
 C3390 C 0.73509 0.29043 0.44159
 H3391 H 0.70527 0.34200 0.39327
 H3392 H 0.71920 0.33226 0.41187
 H3393 H 0.69055 0.29851 0.41561
 H3394 H 0.67661 0.30820 0.39715
 H3395 H 0.72592 0.31215 0.42582
 H3396 H 0.70060 0.29690 0.43643
 H3397 H 0.70534 0.28747 0.45987
 H3398 H 0.72027 0.27334 0.47465
 H3399 H 0.75421 0.28085 0.44707
 H3400 H 0.73936 0.29459 0.43215
 C3401 C 0.69221 0.82555 0.90578
 C3402 C 0.69999 0.81866 0.91584
 C3403 C 0.69618 0.80549 0.92041
 C3404 C 0.68427 0.79939 0.91479
 C3405 C 0.67649 0.80629 0.90471
 C3406 C 0.68047 0.81938 0.89994
 C3407 C 0.70550 0.79810 0.93010
 C3408 C 0.70181 0.78714 0.93770
 C3409 C 0.71182 0.77917 0.94615
 C3410 C 0.70723 0.77170 0.95771
 C3411 C 0.71643 0.76373 0.96556
 C3412 C 0.73035 0.76293 0.96183
 C3413 C 0.73490 0.77035 0.95022
 C3414 C 0.72576 0.77832 0.94243
 H3415 H 0.69555 0.83565 0.90248
 H3416 H 0.70916 0.82356 0.91992
 H3417 H 0.68119 0.78910 0.91770
 H3418 H 0.66762 0.80111 0.90036
 H3419 H 0.71590 0.80201 0.93100
 H3420 H 0.69116 0.78394 0.93798
 H3421 H 0.69651 0.77205 0.96067
 H3422 H 0.71262 0.75802 0.97439
 H3423 H 0.74560 0.77002 0.94717
 H3424 H 0.72963 0.78354 0.93334
 C3425 C 0.17568 0.29892 0.89476
 C3426 C 0.18237 0.29094 0.90478
 C3427 C 0.19162 0.29698 0.91414
 C3428 C 0.19417 0.31120 0.91324
 C3429 C 0.18756 0.31917 0.90310
 C3430 C 0.17828 0.31310 0.89373
 C3431 C 0.19913 0.28797 0.92397
 C3432 C 0.20387 0.29221 0.93632
 C3433 C 0.21231 0.28353 0.94580
 C3434 C 0.21928 0.28991 0.95685
 C3435 C 0.22827 0.28240 0.96535
 C3436 C 0.23051 0.26838 0.96287
 C3437 C 0.22309 0.26182 0.95230
 C3438 C 0.21398 0.26925 0.94394
 H3439 H 0.16875 0.29385 0.88759
 H3440 H 0.18039 0.27998 0.90515
 H3441 H 0.20156 0.31613 0.92002
 H3442 H 0.18979 0.33007 0.90258
 H3443 H 0.20072 0.27750 0.92064
 H3444 H 0.20190 0.30269 0.93949
 H3445 H 0.21809 0.30083 0.95866
 H3446 H 0.23390 0.28766 0.97347
 H3447 H 0.22448 0.25093 0.95042
 H3448 H 0.20847 0.26366 0.93602
 C3449 C 0.20060 0.83388 0.39920
 C3450 C 0.20863 0.82800 0.40972
 C3451 C 0.20466 0.81564 0.41606
 C3452 C 0.19237 0.80929 0.41170
 C3453 C 0.18434 0.81515 0.40114
 C3454 C 0.18842 0.82745 0.39464
 C3455 C 0.21413 0.80920 0.42631
 C3456 C 0.21021 0.79972 0.43561
 C3457 C 0.22001 0.79224 0.44476
 C3458 C 0.21506 0.78594 0.45685
 C3459 C 0.22372 0.77781 0.46511
 C3460 C 0.23748 0.77567 0.46135
 C3461 C 0.24252 0.78216 0.44939
 C3462 C 0.23389 0.79033 0.44116
 H3463 H 0.20417 0.84333 0.39454
 H3464 H 0.21809 0.83306 0.41280
 H3465 H 0.18913 0.79954 0.41602
 H3466 H 0.17510 0.80982 0.39793
 H3467 H 0.22474 0.81256 0.42616
 H3468 H 0.19940 0.79733 0.43673
 H3469 H 0.20438 0.78708 0.45977
 H3470 H 0.21949 0.77273 0.47413
 H3471 H 0.25309 0.78069 0.44624
 H3472 H 0.23804 0.79463 0.43172
 C3473 C 0.68314 0.70131 0.60671
 C3474 C 0.69051 0.70943 0.59742
 C3475 C 0.70000 0.70349 0.58838
 C3476 C 0.70224 0.68919 0.58899
 C3477 C 0.69499 0.68105 0.59849
 C3478 C 0.68529 0.68704 0.60736
 C3479 C 0.70760 0.71273 0.57893
 C3480 C 0.71232 0.70904 0.56645
 C3481 C 0.71897 0.71900 0.55688
 C3482 C 0.72802 0.71419 0.54668
 C3483 C 0.73478 0.72343 0.53785
 C3484 C 0.73259 0.73764 0.53913
 C3485 C 0.72314 0.74240 0.54892
 C3486 C 0.71630 0.73321 0.55759
 H3487 H 0.67594 0.70629 0.61356
 H3488 H 0.68871 0.72043 0.59726
 H3489 H 0.70975 0.68434 0.58238
 H3490 H 0.69689 0.67008 0.59883
 H3491 H 0.70881 0.72324 0.58236
 H3492 H 0.71133 0.69848 0.56308
 H3493 H 0.73008 0.70328 0.54574
 H3494 H 0.74201 0.71953 0.53034
 H3495 H 0.72103 0.75330 0.54985
 H3496 H 0.70888 0.73737 0.56473
 C3497 C 0.68051 0.19818 0.10455
 C3498 C 0.68736 0.20585 0.09450
 C3499 C 0.69688 0.19961 0.08567
 C3500 C 0.69956 0.18546 0.08721
 C3501 C 0.69278 0.17778 0.09742
 C3502 C 0.68315 0.18406 0.10617
 C3503 C 0.70420 0.20847 0.07562
 C3504 C 0.70964 0.20404 0.06369
 C3505 C 0.71680 0.21340 0.05388
 C3506 C 0.72646 0.20796 0.04460
 C3507 C 0.73404 0.21666 0.03591
 C3508 C 0.73208 0.23095 0.03640
 C3509 C 0.72196 0.23633 0.04512
 C3510 C 0.71429 0.22767 0.05363
 H3511 H 0.67334 0.20343 0.11122
 H3512 H 0.68520 0.21676 0.09362
 H3513 H 0.70709 0.18037 0.08083
 H3514 H 0.69506 0.16692 0.09843
 H3515 H 0.70490 0.21924 0.07829
 H3516 H 0.70915 0.19323 0.06110
 H3517 H 0.72843 0.19700 0.04439
 H3518 H 0.74178 0.21230 0.02921
 H3519 H 0.72010 0.24731 0.04543
 H3520 H 0.70645 0.23229 0.05999
 C3521 C 0.17289 0.70140 0.10131
 C3522 C 0.17861 0.70955 0.09087
 C3523 C 0.19006 0.70501 0.08339
 C3524 C 0.19575 0.69208 0.08669
 C3525 C 0.19004 0.68392 0.09715
 C3526 C 0.17857 0.68849 0.10465
 C3527 C 0.19628 0.71443 0.07302
 C3528 C 0.20480 0.71027 0.06297
 C3529 C 0.21235 0.71979 0.05360
 C3530 C 0.21872 0.71435 0.04181
 C3531 C 0.22727 0.72252 0.03358
 C3532 C 0.22970 0.73634 0.03701
 C3533 C 0.22291 0.74196 0.04848
 C3534 C 0.21438 0.73379 0.05672
 H3535 H 0.16416 0.70539 0.10688
 H3536 H 0.17413 0.71954 0.08871
 H3537 H 0.20486 0.68834 0.08155
 H3538 H 0.19476 0.67408 0.09939
 H3539 H 0.19355 0.72518 0.07373
 H3540 H 0.20651 0.69938 0.06149
 H3541 H 0.21742 0.70360 0.03919
 H3542 H 0.23249 0.71784 0.02493
 H3543 H 0.22450 0.75261 0.05133
 H3544 H 0.20994 0.73843 0.06581
 C3545 C 0.17405 0.18757 0.59257
 C3546 C 0.18088 0.19442 0.58193
 C3547 C 0.19466 0.19144 0.57898
 C3548 C 0.20138 0.18106 0.58667
 C3549 C 0.19451 0.17419 0.59738
 C3550 C 0.18087 0.17762 0.60067
 C3551 C 0.20186 0.20036 0.56887
 C3552 C 0.21395 0.19741 0.56295
 C3553 C 0.22137 0.20763 0.55435
 C3554 C 0.22993 0.20321 0.54357
 C3555 C 0.23728 0.21278 0.53562
 C3556 C 0.23640 0.22690 0.53855
 C3557 C 0.22791 0.23127 0.54938
 C3558 C 0.22053 0.22177 0.55721
 H3559 H 0.16347 0.19032 0.59457
 H3560 H 0.17545 0.20234 0.57618
 H3561 H 0.21207 0.17861 0.58490
 H3562 H 0.20009 0.16661 0.60342
 H3563 H 0.19690 0.21003 0.56628
 H3564 H 0.21850 0.18733 0.56426
 H3565 H 0.23091 0.19235 0.54131
 H3566 H 0.24388 0.20915 0.52742
 H3567 H 0.22703 0.24210 0.55183
 H3568 H 0.21442 0.22554 0.56573
   
