data_POSCAR
  _audit_creation_date              2014-09-24
  _audit_creation_method            'ToBaCCo'
  _symmetry_space_group_name_H-M    'P1'
  _symmetry_Int_Tables_number       1
  _symmetry_cell_setting            triclinic
  loop_
  _symmetry_equiv_pos_as_xyz
 x,y,z
_cell_length_a 36.8995
_cell_length_b 38.2219
_cell_length_c 46.8523
_cell_angle_alpha 89.913600
_cell_angle_beta 89.951100
_cell_angle_gamma 90.018900
loop_
  _atom_site_label
  _atom_site_type_symbol
  _atom_site_fract_x
  _atom_site_fract_y
  _atom_site_fract_z
Zr1 Zr 0.24684 0.24581 0.29975
 O2 O 0.27763 0.27018 0.33226
 O3 O 0.20938 0.21703 0.32386
 O4 O 0.21523 0.28167 0.32321
 O5 O 0.30453 0.17584 0.28842
 O6 O 0.18785 0.31532 0.28922
 O7 O 0.27848 0.20958 0.32296
 O8 O 0.17086 0.19551 0.29009
 O9 O 0.19953 0.25323 0.27586
 O10 O 0.24006 0.20071 0.27512
 O11 O 0.25555 0.29173 0.27593
 O12 O 0.29492 0.24099 0.27569
 Zr13 Zr 0.24892 0.24908 0.20033
 Zr14 Zr 0.20931 0.29728 0.25037
 Zr15 Zr 0.28608 0.19719 0.24955
 Zr16 Zr 0.19423 0.20906 0.25033
 O17 O 0.34326 0.19323 0.24866
 O18 O 0.13950 0.22596 0.24961
 O19 O 0.23984 0.20265 0.22383
 O20 O 0.20115 0.25339 0.22455
 O21 O 0.25560 0.29443 0.22468
 O22 O 0.29579 0.24146 0.22460
 C23 C 0.18099 0.19998 0.31617
 C24 C 0.29887 0.18415 0.31469
 C25 C 0.19352 0.30624 0.31529
 O26 O 0.15231 0.30155 0.24669
 O27 O 0.19588 0.32186 0.21153
 O28 O 0.22098 0.28775 0.17692
 C29 C 0.20213 0.31423 0.18519
 O30 O 0.32776 0.30085 0.28819
 Zr31 Zr 0.30127 0.28568 0.24989
 O32 O 0.28639 0.27826 0.17636
 O33 O 0.22201 0.35101 0.25454
 O34 O 0.30062 0.34113 0.25075
 O35 O 0.35679 0.27144 0.24826
 O36 O 0.32226 0.30316 0.21038
 C37 C 0.31295 0.29779 0.18425
 O38 O 0.21636 0.22664 0.16796
 O39 O 0.27298 0.14328 0.24978
 O40 O 0.27779 0.21153 0.17672
 O41 O 0.30052 0.17425 0.21034
 O42 O 0.19222 0.15364 0.25206
 O43 O 0.17080 0.18897 0.21230
 C44 C 0.29577 0.18419 0.18434
 H45 H 0.23728 0.17920 0.28670
 H46 H 0.17973 0.25630 0.21206
 H47 H 0.31786 0.23821 0.21288
 H48 H 0.25880 0.31216 0.28866
 H49 H 0.12419 0.20562 0.25482
 H50 H 0.14632 0.32678 0.24799
 H51 H 0.19880 0.36393 0.25318
 H52 H 0.32530 0.34929 0.24568
 H53 H 0.16705 0.14696 0.25706
 H54 H 0.29622 0.13032 0.25045
 H55 H 0.34909 0.16795 0.24774
 H56 H 0.37086 0.29291 0.24399
 H57 H 0.14801 0.17654 0.21701
 H58 H 0.22667 0.23404 0.14933
 H59 H 0.26750 0.26238 0.35084
 H60 H 0.34642 0.31868 0.28379
 Zr61 Zr 0.75231 0.75027 0.29871
 O62 O 0.72216 0.72470 0.33106
 O63 O 0.78968 0.77900 0.32285
 O64 O 0.78494 0.71433 0.32137
 O65 O 0.69390 0.82004 0.28881
 O66 O 0.81197 0.68184 0.28649
 O67 O 0.72086 0.78593 0.32274
 O68 O 0.82730 0.80206 0.28902
 O69 O 0.79934 0.74404 0.27417
 O70 O 0.75806 0.79600 0.27456
 O71 O 0.74394 0.70481 0.27427
 O72 O 0.70380 0.75499 0.27516
 Zr73 Zr 0.74877 0.74939 0.19927
 Zr74 Zr 0.78985 0.70051 0.24810
 Zr75 Zr 0.71162 0.79953 0.24951
 Zr76 Zr 0.80367 0.78893 0.24927
 O77 O 0.65437 0.80263 0.24958
 O78 O 0.85858 0.77266 0.24792
 O79 O 0.75757 0.79535 0.22329
 O80 O 0.79697 0.74519 0.22291
 O81 O 0.74312 0.70329 0.22294
 O82 O 0.70217 0.75573 0.22410
 C83 C 0.81759 0.79682 0.31514
 C84 C 0.70029 0.81151 0.31494
 C85 C 0.80688 0.69030 0.31276
 O86 O 0.84688 0.69704 0.24403
 O87 O 0.80378 0.67736 0.20872
 O88 O 0.77713 0.71185 0.17506
 C89 C 0.79701 0.68573 0.18259
 O90 O 0.67209 0.69429 0.28715
 Zr91 Zr 0.69772 0.71081 0.24879
 O92 O 0.71110 0.72053 0.17534
 O93 O 0.77785 0.64653 0.25139
 O94 O 0.69923 0.65536 0.24889
 O95 O 0.64198 0.72432 0.24797
 O96 O 0.67628 0.69395 0.20927
 C97 C 0.68498 0.70031 0.18311
 O98 O 0.78039 0.77307 0.16680
 O99 O 0.72392 0.85361 0.25003
 O100 O 0.71906 0.78703 0.17645
 O101 O 0.69599 0.82308 0.21073
 O102 O 0.80491 0.84433 0.25160
 O103 O 0.82639 0.81018 0.21132
 C104 C 0.70062 0.81383 0.18456
 H105 H 0.76077 0.81732 0.28634
 H106 H 0.81825 0.74295 0.21017
 H107 H 0.67986 0.75896 0.21268
 H108 H 0.74121 0.68403 0.28673
 H109 H 0.87370 0.79305 0.25328
 H110 H 0.85324 0.67187 0.24497
 H111 H 0.80122 0.63395 0.24972
 H112 H 0.67461 0.64697 0.24397
 H113 H 0.83005 0.85126 0.25645
 H114 H 0.70051 0.86624 0.25115
 H115 H 0.64812 0.82783 0.24896
 H116 H 0.62815 0.70276 0.24356
 H117 H 0.84916 0.82265 0.21598
 H118 H 0.76991 0.76592 0.14819
 H119 H 0.73241 0.73217 0.34966
 H120 H 0.65358 0.67635 0.28269
 Zr121 Zr 0.75187 0.25031 -0.29877
 O122 O 0.72044 0.27561 -0.33046
 O123 O 0.78890 0.22223 -0.32369
 O124 O 0.78344 0.28667 -0.32206
 O125 O 0.69464 0.17979 -0.28781
 O126 O 0.81109 0.31919 -0.28755
 O127 O 0.72009 0.21438 -0.32218
 O128 O 0.82758 0.19895 -0.29081
 O129 O 0.79955 0.25701 -0.27521
 O130 O 0.75898 0.20455 -0.27486
 O131 O 0.74356 0.29553 -0.27409
 O132 O 0.70419 0.24478 -0.27422
 Zr133 Zr 0.75146 0.25082 -0.19919
 Zr134 Zr 0.79016 0.30027 -0.24887
 Zr135 Zr 0.71343 0.20031 -0.24882
 Zr136 Zr 0.80528 0.21211 -0.25051
 O137 O 0.65625 0.19640 -0.24765
 O138 O 0.85995 0.22923 -0.25059
 O139 O 0.76013 0.20506 -0.22354
 O140 O 0.79879 0.25569 -0.22390
 O141 O 0.74435 0.29682 -0.22273
 O142 O 0.70419 0.24388 -0.22310
 C143 C 0.81704 0.20435 -0.31670
 C144 C 0.70005 0.18856 -0.31403
 C145 C 0.80546 0.31079 -0.31373
 O146 O 0.84721 0.30460 -0.24565
 O147 O 0.80438 0.32382 -0.20988
 O148 O 0.77999 0.28884 -0.17546
 C149 C 0.79873 0.31551 -0.18359
 O150 O 0.67116 0.30503 -0.28540
 Zr151 Zr 0.69827 0.28876 -0.24764
 O152 O 0.71414 0.27914 -0.17444
 O153 O 0.77742 0.35410 -0.25212
 O154 O 0.69900 0.34422 -0.24764
 O155 O 0.64280 0.27440 -0.24570
 O156 O 0.67789 0.30518 -0.20767
 C157 C 0.68747 0.29894 -0.18171
 O158 O 0.78450 0.22756 -0.16746
 O159 O 0.72648 0.14641 -0.24976
 O160 O 0.72305 0.21261 -0.17589
 O161 O 0.69932 0.17644 -0.20979
 O162 O 0.80703 0.15672 -0.25267
 O163 O 0.82982 0.19127 -0.21315
 C164 C 0.70466 0.18563 -0.18369
 H165 H 0.76155 0.18330 -0.28674
 H166 H 0.82044 0.25828 -0.21161
 H167 H 0.68230 0.24030 -0.21122
 H168 H 0.74018 0.31631 -0.28645
 H169 H 0.87517 0.20908 -0.25633
 H170 H 0.85317 0.32985 -0.24670
 H171 H 0.80065 0.36700 -0.25084
 H172 H 0.67442 0.35225 -0.24218
 H173 H 0.83203 0.15002 -0.25815
 H174 H 0.70322 0.13346 -0.25045
 H175 H 0.65038 0.17111 -0.24700
 H176 H 0.62878 0.29573 -0.24092
 H177 H 0.85257 0.17914 -0.21840
 H178 H 0.77448 0.23448 -0.14863
 H179 H 0.73022 0.26831 -0.34926
 H180 H 0.65255 0.32270 -0.28049
 Zr181 Zr 0.24588 0.75620 -0.29888
 O182 O 0.27568 0.73221 -0.33219
 O183 O 0.20829 0.78579 -0.32239
 O184 O 0.21427 0.72017 -0.32210
 O185 O 0.30274 0.82687 -0.28790
 O186 O 0.18830 0.68553 -0.28802
 O187 O 0.27796 0.79212 -0.32207
 O188 O 0.16864 0.80365 -0.28823
 O189 O 0.19907 0.74774 -0.27455
 O190 O 0.23870 0.80101 -0.27405
 O191 O 0.25576 0.71028 -0.27529
 O192 O 0.29421 0.76144 -0.27524
 Zr193 Zr 0.24934 0.75228 -0.19928
 Zr194 Zr 0.21002 0.70376 -0.24931
 Zr195 Zr 0.28498 0.80495 -0.24894
 Zr196 Zr 0.19342 0.79162 -0.24878
 O197 O 0.34210 0.80979 -0.24837
 O198 O 0.13892 0.77412 -0.24679
 O199 O 0.23925 0.79860 -0.22271
 O200 O 0.20140 0.74733 -0.22322
 O201 O 0.25648 0.70717 -0.22391
 O202 O 0.29574 0.76078 -0.22405
 C203 C 0.17890 0.80124 -0.31451
 C204 C 0.29792 0.81814 -0.31424
 C205 C 0.19331 0.69501 -0.31409
 O206 O 0.15317 0.69847 -0.24502
 O207 O 0.19781 0.67860 -0.21049
 O208 O 0.22091 0.71364 -0.17581
 C209 C 0.20279 0.68655 -0.18401
 O210 O 0.32807 0.70234 -0.28810
 Zr211 Zr 0.30165 0.71680 -0.24955
 O212 O 0.28728 0.72298 -0.17586
 O213 O 0.22356 0.65029 -0.25397
 O214 O 0.30187 0.66135 -0.25088
 O215 O 0.35690 0.73205 -0.24818
 O216 O 0.32326 0.69910 -0.21033
 C217 C 0.31401 0.70387 -0.18409
 O218 O 0.21742 0.77440 -0.16634
 O219 O 0.27110 0.85868 -0.24900
 O220 O 0.27820 0.79028 -0.17588
 O221 O 0.29900 0.82815 -0.20990
 O222 O 0.19019 0.84695 -0.25108
 O223 O 0.17080 0.81174 -0.21043
 C224 C 0.29506 0.81821 -0.18384
 H225 H 0.23554 0.82256 -0.28553
 H226 H 0.18013 0.74405 -0.21061
 H227 H 0.31788 0.76431 -0.21249
 H228 H 0.25918 0.69001 -0.28815
 H229 H 0.12321 0.79424 -0.25178
 H230 H 0.14763 0.67315 -0.24631
 H231 H 0.20063 0.63695 -0.25233
 H232 H 0.32671 0.65351 -0.24603
 H233 H 0.16480 0.85300 -0.25589
 H234 H 0.29414 0.87199 -0.24985
 H235 H 0.34753 0.83515 -0.24745
 H236 H 0.37141 0.71081 -0.24407
 H237 H 0.14788 0.82411 -0.21479
 H238 H 0.22809 0.76683 -0.14790
 H239 H 0.26521 0.74043 -0.35052
 H240 H 0.34724 0.68497 -0.28388
 Zr241 Zr 1.25346 1.25071 0.79876
 O242 O 1.22333 1.22533 0.83123
 O243 O 1.29147 1.27885 0.82275
 O244 O 1.28603 1.21464 0.82127
 O245 O 1.19491 1.32043 0.78915
 O246 O 1.31312 1.18240 0.78627
 O247 O 1.22252 1.28661 0.82296
 O248 O 1.32792 1.30268 0.78855
 O249 O 1.30027 1.24458 0.77394
 O250 O 1.25889 1.29643 0.77454
 O251 O 1.24496 1.20523 0.77441
 O252 O 1.20471 1.25534 0.77550
 Zr253 Zr 1.24902 1.24983 0.69935
 Zr254 Zr 1.29063 1.20100 0.74800
 Zr255 Zr 1.21219 1.29986 0.74977
 Zr256 Zr 1.30422 1.28943 0.74895
 O257 O 1.15493 1.30274 0.75018
 O258 O 1.35917 1.27335 0.74738
 O259 O 1.25789 1.29581 0.72328
 O260 O 1.29743 1.24564 0.72269
 O261 O 1.24371 1.20375 0.72311
 O262 O 1.20260 1.25603 0.72442
 C263 C 1.31903 1.29700 0.81479
 C264 C 1.20179 1.31210 0.81525
 C265 C 1.30801 1.19071 0.81256
 O266 O 1.34761 1.19767 0.74354
 O267 O 1.30393 1.17772 0.70858
 O268 O 1.27703 1.21219 0.67502
 C269 C 1.29684 1.18600 0.68250
 O270 O 1.17288 1.19510 0.78766
 Zr271 Zr 1.19853 1.21114 0.74918
 O272 O 1.21128 1.22105 0.67552
 O273 O 1.27880 1.14700 0.75144
 O274 O 1.19999 1.15569 0.74991
 O275 O 1.14273 1.22434 0.74798
 O276 O 1.17781 1.19346 0.70969
 C277 C 1.18596 1.20003 0.68346
 O278 O 1.28044 1.27354 0.66679
 O279 O 1.22429 1.35399 0.75023
 O280 O 1.21910 1.28745 0.67670
 O281 O 1.19621 1.32343 0.71110
 O282 O 1.30543 1.34483 0.75119
 O283 O 1.32658 1.31067 0.71086
 C284 C 1.20070 1.31423 0.68491
 H285 H 1.26176 1.31774 0.78631
 H286 H 1.31860 1.24341 0.70983
 H287 H 1.18022 1.25914 0.71306
 H288 H 1.24233 1.18445 0.78690
 H289 H 1.37424 1.29379 0.75270
 H290 H 1.35403 1.17251 0.74441
 H291 H 1.30218 1.13446 0.74965
 H292 H 1.17537 1.14724 0.74502
 H293 H 1.33059 1.35179 0.75592
 H294 H 1.20085 1.36656 0.75144
 H295 H 1.14858 1.32792 0.74960
 H296 H 1.12911 1.20267 0.74352
 H297 H 1.34939 1.32313 0.71538
 H298 H 1.26986 1.26638 0.64822
 H299 H 1.23377 1.23271 0.84978
 H300 H 1.15416 1.17731 0.78333
 Zr301 Zr 0.74554 0.74532 0.79983
 O302 O 0.77577 0.76935 0.83284
 O303 O 0.70714 0.71704 0.82333
 O304 O 0.71365 0.78115 0.82300
 O305 O 0.80381 0.67568 0.78899
 O306 O 0.68662 0.81475 0.78880
 O307 O 0.77653 0.70884 0.82332
 O308 O 0.67035 0.69476 0.78878
 O309 O 0.69878 0.75267 0.77526
 O310 O 0.73957 0.70035 0.77490
 O311 O 0.75455 0.79145 0.77639
 O312 O 0.79419 0.74082 0.77647
 Zr313 Zr 0.75000 0.74927 0.70044
 Zr314 Zr 0.70892 0.79694 0.75017
 Zr315 Zr 0.78619 0.69720 0.74998
 Zr316 Zr 0.69437 0.70868 0.74942
 O317 O 0.84340 0.69352 0.74987
 O318 O 0.63955 0.72522 0.74801
 O319 O 0.74060 0.70264 0.72357
 O320 O 0.70164 0.75322 0.72399
 O321 O 0.75582 0.79447 0.72515
 O322 O 0.79629 0.74170 0.72541
 C323 C 0.67925 0.69963 0.81509
 C324 C 0.79735 0.68366 0.81521
 C325 C 0.69201 0.80568 0.81491
 O326 O 0.65198 0.80090 0.74579
 O327 O 0.69621 0.82167 0.71127
 O328 O 0.72242 0.78804 0.67685
 C329 C 0.70313 0.81429 0.68501
 O330 O 0.82664 0.80026 0.78979
 Zr331 Zr 0.80086 0.78572 0.75102
 O332 O 0.78821 0.77832 0.67708
 O333 O 0.72127 0.85071 0.75462
 O334 O 0.80012 0.84116 0.75267
 O335 O 0.85652 0.77200 0.74959
 O336 O 0.82183 0.80420 0.71194
 C337 C 0.81383 0.79863 0.68557
 O338 O 0.71825 0.72701 0.66750
 O339 O 0.77335 0.64323 0.74982
 O340 O 0.77943 0.71188 0.67712
 O341 O 0.80161 0.67452 0.71089
 O342 O 0.69261 0.65324 0.75084
 O343 O 0.67188 0.68874 0.71099
 C344 C 0.79733 0.68455 0.68488
 H345 H 0.73654 0.67879 0.78638
 H346 H 0.68050 0.75611 0.71120
 H347 H 0.81864 0.73866 0.71398
 H348 H 0.75745 0.81180 0.78924
 H349 H 0.62428 0.70476 0.75299
 H350 H 0.64582 0.82609 0.74708
 H351 H 0.69802 0.86354 0.75306
 H352 H 0.82486 0.84945 0.74795
 H353 H 0.66738 0.64640 0.75553
 H354 H 0.79663 0.63036 0.75074
 H355 H 0.84939 0.66827 0.74896
 H356 H 0.87040 0.79366 0.74559
 H357 H 0.64908 0.67612 0.71532
 H358 H 0.72898 0.73457 0.64907
 H359 H 0.76519 0.76150 0.85125
 H360 H 0.84547 0.81807 0.78580
 Zr361 Zr 1.25308 0.74978 0.20111
 O362 O 1.22206 0.77527 0.16927
 O363 O 1.29042 0.72185 0.17637
 O364 O 1.28494 0.78606 0.17807
 O365 O 1.19493 0.67988 0.21158
 O366 O 1.31287 0.81808 0.21275
 O367 O 1.22139 0.71408 0.17742
 O368 O 1.32778 0.69749 0.20963
 O369 O 1.30058 0.75592 0.22501
 O370 O 1.25937 0.70392 0.22504
 O371 O 1.24505 0.79506 0.22575
 O372 O 1.20506 0.74473 0.22529
 Zr373 Zr 1.25156 0.75015 0.30067
 Zr374 Zr 1.29142 0.79926 0.25128
 Zr375 Zr 1.21347 0.70014 0.25073
 Zr376 Zr 1.30544 0.71096 0.24976
 O377 O 1.15623 0.69695 0.25154
 O378 O 1.36033 0.72739 0.24998
 O379 O 1.25992 0.70433 0.27635
 O380 O 1.29923 0.75459 0.27633
 O381 O 1.24529 0.79624 0.27708
 O382 O 1.20446 0.74378 0.27644
 C383 C 1.31803 0.70337 0.18361
 C384 C 1.20090 0.68853 0.18540
 C385 C 1.30714 0.80994 0.18653
 O386 O 1.34848 0.80289 0.25490
 O387 O 1.30528 0.82270 0.29038
 O388 O 1.27999 0.78801 0.32461
 C389 C 1.29906 0.81452 0.31662
 O390 O 1.17260 0.80491 0.21395
 Zr391 Zr 1.19943 0.78873 0.25186
 O392 O 1.21419 0.77851 0.32531
 O393 O 1.27938 0.85324 0.24801
 O394 O 1.20062 0.84419 0.25139
 O395 O 1.14374 0.77520 0.25401
 O396 O 1.17970 0.80596 0.29175
 C397 C 1.18848 0.79932 0.31783
 O398 O 1.28416 0.72659 0.33252
 O399 O 1.22580 0.64608 0.24976
 O400 O 1.22264 0.71210 0.32370
 O401 O 1.19877 0.67628 0.28962
 O402 O 1.30659 0.65554 0.24764
 O403 O 1.32935 0.68985 0.28727
 C404 C 1.20406 0.68531 0.31575
 H405 H 1.26188 0.68268 0.21315
 H406 H 1.32075 0.75695 0.28878
 H407 H 1.18243 0.74047 0.28820
 H408 H 1.24199 0.81588 0.21339
 H409 H 1.37531 0.70705 0.24428
 H410 H 1.35476 0.82808 0.25395
 H411 H 1.30276 0.86588 0.24944
 H412 H 1.17611 0.85249 0.25678
 H413 H 1.33157 0.64858 0.24232
 H414 H 1.20238 0.63342 0.24892
 H415 H 1.15002 0.67173 0.25210
 H416 H 1.13012 0.79675 0.25881
 H417 H 1.35204 0.67751 0.28218
 H418 H 1.27403 0.73354 0.35131
 H419 H 1.23199 0.76799 0.15051
 H420 H 1.15397 0.82261 0.21872
 Zr421 Zr 0.74607 1.25411 0.20059
 O422 O 0.77507 1.22922 0.16729
 O423 O 0.70751 1.28267 0.17744
 O424 O 0.71341 1.21813 0.17841
 O425 O 0.80625 1.32274 0.20948
 O426 O 0.68667 1.18535 0.21335
 O427 O 0.77687 1.28987 0.17612
 O428 O 0.67232 1.30650 0.21237
 O429 O 0.69979 1.24795 0.22602
 O430 O 0.74166 1.29956 0.22505
 O431 O 0.75481 1.20826 0.22449
 O432 O 0.79546 1.25801 0.22297
 Zr433 Zr 0.75323 1.25177 0.29997
 Zr434 Zr 0.70973 1.20396 0.25152
 Zr435 Zr 0.78903 1.30223 0.24902
 Zr436 Zr 0.69701 1.29247 0.25143
 O437 O 0.84631 1.30471 0.24835
 O438 O 0.64193 1.27690 0.25385
 O439 O 0.74408 1.29806 0.27632
 O440 O 0.70415 1.24830 0.27729
 O441 O 0.75736 1.20603 0.27570
 O442 O 0.79896 1.25808 0.27409
 C443 C 0.68037 1.30100 0.18596
 C444 C 0.79865 1.31466 0.18348
 C445 C 0.69188 1.19378 0.18705
 O446 O 0.65277 1.20126 0.25646
 O447 O 0.69688 1.18050 0.29102
 O448 O 0.72520 1.21403 0.32445
 C449 C 0.70471 1.18827 0.31707
 O450 O 0.82636 1.19780 0.20992
 Zr451 Zr 0.80191 1.21351 0.24894
 O452 O 0.79138 1.22217 0.32295
 O453 O 0.72103 1.14988 0.24800
 O454 O 0.80010 1.15807 0.24784
 O455 O 0.85782 1.22640 0.24932
 O456 O 0.82351 1.19509 0.28781
 C457 C 0.81627 1.20114 0.31425
 O458 O 0.72298 1.27518 0.33329
 O459 O 0.77752 1.35648 0.24845
 O460 O 0.78392 1.28929 0.32230
 O461 O 0.80525 1.32568 0.28745
 O462 O 0.69643 1.34792 0.24962
 O463 O 0.67585 1.31337 0.29001
 C464 C 0.80150 1.31648 0.31370
 H465 H 0.73879 1.32100 0.21339
 H466 H 0.68327 1.24610 0.29046
 H467 H 0.82162 1.26095 0.28514
 H468 H 0.75705 1.18761 0.21188
 H469 H 0.62693 1.29754 0.24893
 H470 H 0.64605 1.17617 0.25562
 H471 H 0.69756 1.13750 0.25000
 H472 H 0.82480 1.14941 0.25217
 H473 H 0.67126 1.35523 0.24529
 H474 H 0.80108 1.36883 0.24706
 H475 H 0.85288 1.32984 0.24890
 H476 H 0.87143 1.20460 0.25335
 H477 H 0.65314 1.32624 0.28593
 H478 H 0.73406 1.26766 0.35159
 H479 H 0.76418 1.23697 0.14898
 H480 H 0.84520 1.17999 0.21382
 O481 O 0.46004 1.06749 0.02082
 O482 O 0.54110 0.93387 0.01919
 O483 O 0.43074 0.96091 0.01878
 O484 O 0.57028 1.04035 0.01992
 O485 O 0.48038 0.94088 0.03452
 O486 O 0.52084 1.05965 0.03660
 O487 O 0.56205 0.98144 0.03573
 O488 O 0.43874 1.01939 0.03609
 C489 C 0.44238 1.05125 0.03925
 C490 C 0.55817 0.94951 0.03827
 C491 C 0.44739 0.94424 0.03748
 C492 C 0.55395 1.05640 0.03911
 O493 O 0.54321 1.06725 -0.01872
 O494 O 0.45821 0.93575 -0.02085
 O495 O 0.43206 1.04308 -0.01854
 O496 O 0.56937 0.96011 -0.01923
 O497 O 0.51964 0.94203 -0.03630
 O498 O 0.48230 1.06167 -0.03446
 O499 O 0.56293 1.01918 -0.03516
 O500 O 0.43837 0.98464 -0.03562
 Co501 Co 0.50150 1.05785 0.00099
 Co502 Co 0.49989 0.94430 -0.00080
 Co503 Co 0.44150 1.00191 0.00020
 Co504 Co 0.55959 1.00036 0.00030
 O505 O 0.50060 1.00110 0.00016
 C506 C 0.56016 1.05122 -0.03764
 C507 C 0.44100 0.95276 -0.03907
 C508 C 0.44918 1.05912 -0.03738
 C509 C 0.55290 0.94426 -0.03844
 O510 O 0.96045 0.56733 0.52098
 O511 O 1.04110 0.43441 0.52001
 O512 O 0.93071 0.46075 0.51847
 O513 O 1.07081 0.54092 0.51945
 O514 O 0.98024 0.44132 0.53476
 O515 O 1.02140 0.55999 0.53627
 O516 O 1.06242 0.48213 0.53609
 O517 O 0.93880 0.51923 0.53609
 C518 C 0.94278 0.55105 0.53940
 C519 C 1.05828 0.45024 0.53893
 C520 C 0.94716 0.44432 0.53739
 C521 C 1.05458 0.55722 0.53853
 O522 O 1.04306 0.56697 0.48067
 O523 O 0.95891 0.43598 0.47909
 O524 O 0.93199 0.54321 0.48171
 O525 O 1.06999 0.45986 0.48152
 O526 O 1.02041 0.44195 0.46420
 O527 O 0.98209 0.56143 0.46542
 O528 O 1.06339 0.51877 0.46480
 O529 O 0.93875 0.48477 0.46426
 Co530 Co 1.00166 0.55784 0.50079
 Co531 Co 1.00022 0.44450 0.49955
 Co532 Co 0.94166 0.50190 0.50016
 Co533 Co 1.06000 0.50050 0.50044
 O534 O 1.00087 0.50118 0.50024
 C535 C 1.06023 0.55075 0.46196
 C536 C 0.94198 0.45295 0.46067
 C537 C 0.94894 0.55911 0.46271
 C538 C 1.05370 0.44398 0.46225
 O539 O 1.02154 0.45930 0.05511
 O540 O 1.02258 0.54279 -0.05591
 O541 O 1.03375 0.43585 -0.03063
 O542 O 1.03218 0.56633 0.02996
 O543 O 1.04959 0.48503 -0.04903
 O544 O 1.04787 0.51738 0.04879
 O545 O 1.04696 0.56091 -0.01858
 O546 O 1.04675 0.44120 0.01801
 C547 C 1.04797 0.44482 0.04410
 C548 C 1.04876 0.55742 -0.04467
 C549 C 1.05579 0.45342 -0.04532
 C550 C 1.05391 0.54901 0.04509
 O551 O 0.98202 0.54376 0.05412
 O552 O 0.98432 0.45786 -0.05551
 O553 O 0.97235 0.43621 0.03044
 O554 O 0.97259 0.56532 -0.03222
 O555 O 0.95718 0.51570 -0.04991
 O556 O 0.95589 0.48541 0.04844
 O557 O 0.95828 0.56093 0.01613
 O558 O 0.95919 0.44044 -0.01819
 Co559 Co 1.00193 0.50143 0.04631
 Co560 Co 1.00335 0.50041 -0.04731
 Co561 Co 1.00299 0.44417 -0.00015
 Co562 Co 1.00257 0.55763 -0.00113
 O563 O 1.00271 0.50091 -0.00056
 C564 C 0.95608 0.55806 0.04224
 C565 C 0.95792 0.44350 -0.04432
 C566 C 0.95010 0.45370 0.04493
 C567 C 0.95072 0.54731 -0.04665
 O568 O 0.52065 0.95841 0.55607
 O569 O 0.52281 1.04163 0.44536
 O570 O 0.53179 0.93432 0.47015
 O571 O 0.53044 1.06544 0.53148
 O572 O 0.54834 0.98354 0.45218
 O573 O 0.54674 1.01654 0.54973
 O574 O 0.54614 1.05926 0.48337
 O575 O 0.54514 0.93933 0.51893
 C576 C 0.54682 0.94359 0.54493
 C577 C 0.54848 1.05639 0.45727
 C578 C 0.55399 0.95177 0.45547
 C579 C 0.55249 1.04822 0.54633
 O580 O 0.48031 1.04263 0.55498
 O581 O 0.48254 0.95741 0.44558
 O582 O 0.47096 0.93490 0.53179
 O583 O 0.47261 1.06475 0.46853
 O584 O 0.45643 1.01540 0.45122
 O585 O 0.45493 0.98431 0.54968
 O586 O 0.45698 1.05964 0.51672
 O587 O 0.45754 0.93928 0.48286
 Co588 Co 0.50080 1.00048 0.54737
 Co589 Co 0.50239 0.99960 0.45387
 Co590 Co 0.50136 0.94281 0.50089
 Co591 Co 0.50155 1.05646 0.50007
 O592 O 0.50149 0.99984 0.50056
 C593 C 0.45444 1.05676 0.54281
 C594 C 0.45617 0.94290 0.45677
 C595 C 0.44922 0.95253 0.54668
 C596 C 0.45052 1.04710 0.45411
 O597 O 1.06491 1.02821 0.47019
 O598 O 0.93125 1.03109 0.52907
 O599 O 0.95466 1.01453 0.44412
 O600 O 1.04165 1.01803 0.55580
 O601 O 0.93636 1.04062 0.48030
 O602 O 1.05962 1.04123 0.51818
 O603 O 0.98231 1.04548 0.54822
 O604 O 1.01399 1.04190 0.45078
 C605 C 1.04632 1.04892 0.45516
 C606 C 0.94985 1.05217 0.54379
 C607 C 0.93979 1.04060 0.45424
 C608 C 1.05682 1.04304 0.54424
 O609 O 1.06358 0.96889 0.53199
 O610 O 0.93196 0.96749 0.47013
 O611 O 1.04335 0.97961 0.44591
 O612 O 0.95251 0.98398 0.55556
 O613 O 0.93508 0.95786 0.51914
 O614 O 1.05959 0.95589 0.48379
 O615 O 1.01189 0.95605 0.55063
 O616 O 0.98366 0.95270 0.45239
 Co617 Co 1.05627 0.99857 0.50098
 Co618 Co 0.93936 0.99922 0.49972
 Co619 Co 0.99886 0.99737 0.45363
 Co620 Co 0.99723 1.00069 0.54727
 O621 O 0.99795 0.99894 0.50041
 C622 C 1.04434 0.94878 0.54710
 C623 C 0.95100 0.94620 0.45596
 C624 C 1.05783 0.95436 0.45766
 C625 C 0.93794 0.95790 0.54525
 O626 O 0.55961 0.54197 -0.01788
 O627 O 0.43475 0.54206 0.01631
 O628 O 0.48206 0.54337 -0.04980
 O629 O 0.51205 0.54524 0.04866
 O630 O 0.43059 0.52866 -0.03185
 O631 O 0.56342 0.53023 0.03068
 O632 O 0.45201 0.51863 0.05405
 O633 O 0.54220 0.51689 -0.05480
 C634 C 0.55606 0.54296 -0.04393
 C635 C 0.43803 0.54415 0.04233
 C636 C 0.44934 0.54974 -0.04639
 C637 C 0.54478 0.55146 0.04505
 O638 O 0.55918 0.45785 0.01900
 O639 O 0.43566 0.45656 -0.01814
 O640 O 0.51422 0.45427 -0.04859
 O641 O 0.48074 0.45595 0.04908
 O642 O 0.42978 0.47008 0.03010
 O643 O 0.56484 0.46955 -0.02948
 O644 O 0.54030 0.48272 0.05564
 O645 O 0.45418 0.48050 -0.05531
 Co646 Co 0.55592 0.49988 0.00051
 Co647 Co 0.43851 0.49935 -0.00082
 Co648 Co 0.49804 0.49886 -0.04699
 Co649 Co 0.49633 0.50053 0.04668
 O650 O 0.49720 0.49966 -0.00016
 C651 C 0.55503 0.45690 0.04501
 C652 C 0.43996 0.45476 -0.04411
 C653 C 0.54685 0.44820 -0.04424
 C654 C 0.44825 0.44925 0.04504
 C655 C 0.35536 1.12820 0.12040
 C656 C 0.34389 1.11069 0.14543
 C657 C 0.32385 1.12883 0.16617
 C658 C 0.31393 1.16390 0.16174
 C659 C 0.32329 1.18033 0.13602
 C660 C 0.34378 1.16281 0.11561
 C661 C 0.37898 1.10899 0.09983
 C662 C 0.39576 1.12572 0.07658
 C663 C 0.41702 1.10682 0.05760
 C664 C 0.42195 1.07069 0.06110
 C665 C 0.40637 1.05382 0.08473
 C666 C 0.38556 1.07293 0.10447
 C667 C 0.35228 1.07524 0.14941
 C668 C 0.37192 1.05653 0.12900
 H669 H 0.34309 1.06162 0.16839
 H670 H 0.37720 1.02902 0.13279
 H671 H 0.31600 1.11569 0.18575
 H672 H 0.31572 1.20728 0.13198
 H673 H 0.42905 1.12055 0.03971
 H674 H 0.41071 1.02602 0.08787
 H675 H 0.35020 1.17685 0.09628
 H676 H 0.39315 1.15343 0.07277
 C677 C 0.85716 0.62852 0.62111
 C678 C 0.84513 0.61090 0.64592
 C679 C 0.82516 0.62911 0.66667
 C680 C 0.81581 0.66435 0.66241
 C681 C 0.82579 0.68096 0.63691
 C682 C 0.84624 0.66338 0.61653
 C683 C 0.88052 0.60915 0.60047
 C684 C 0.89777 0.62587 0.57744
 C685 C 0.91864 0.60682 0.55831
 C686 C 0.92275 0.57054 0.56145
 C687 C 0.90677 0.55366 0.58491
 C688 C 0.88632 0.57291 0.60479
 C689 C 0.85282 0.57525 0.64964
 C690 C 0.87222 0.55645 0.62914
 H691 H 0.84322 0.56156 0.66845
 H692 H 0.87692 0.52880 0.63271
 H693 H 0.81681 0.61585 0.68607
 H694 H 0.81866 0.70805 0.63302
 H695 H 0.93103 0.62059 0.54058
 H696 H 0.91049 0.52573 0.58779
 H697 H 0.85311 0.67755 0.59735
 H698 H 0.89580 0.65369 0.57390
 C699 C 0.64111 0.87046 0.12081
 C700 C 0.65230 0.88766 0.14602
 C701 C 0.67199 0.86924 0.16683
 C702 C 0.68194 0.83422 0.16227
 C703 C 0.67260 0.81801 0.13650
 C704 C 0.65239 0.83578 0.11606
 C705 C 0.61832 0.89014 0.09993
 C706 C 0.60213 0.87389 0.07624
 C707 C 0.58192 0.89330 0.05687
 C708 C 0.57745 0.92945 0.06042
 C709 C 0.59233 0.94582 0.08451
 C710 C 0.61212 0.92623 0.10459
 C711 C 0.64415 0.92315 0.15003
 C712 C 0.62523 0.94224 0.12941
 H713 H 0.65307 0.93651 0.16916
 H714 H 0.62020 0.96977 0.13323
 H715 H 0.67979 0.88218 0.18647
 H716 H 0.68012 0.79108 0.13239
 H717 H 0.57034 0.87995 0.03865
 H718 H 0.58831 0.97365 0.08769
 H719 H 0.64610 0.82190 0.09666
 H720 H 0.60446 0.84618 0.07236
 C721 C 1.14106 0.37109 0.62143
 C722 C 1.15270 0.38833 0.64649
 C723 C 1.17240 0.36981 0.66725
 C724 C 1.18193 0.33467 0.66272
 C725 C 1.17218 0.31842 0.63707
 C726 C 1.15195 0.33628 0.61671
 C727 C 1.11825 0.39085 0.60064
 C728 C 1.10153 0.37455 0.57722
 C729 C 1.08138 0.39401 0.55787
 C730 C 1.07748 0.43027 0.56117
 C731 C 1.09284 0.44671 0.58503
 C732 C 1.11258 0.42706 0.60511
 C733 C 1.14502 0.42393 0.65038
 C734 C 1.12616 0.44310 0.62977
 H735 H 1.15430 0.43733 0.66939
 H736 H 1.12151 0.47072 0.63347
 H737 H 1.18056 0.38277 0.68678
 H738 H 1.17941 0.29141 0.63299
 H739 H 1.06942 0.38058 0.53984
 H740 H 1.08924 0.47462 0.58804
 H741 H 1.14535 0.32238 0.59739
 H742 H 1.10340 0.34677 0.57353
 C743 C 0.64623 1.12879 -0.11933
 C744 C 0.65603 1.11193 -0.14505
 C745 C 0.67564 1.13032 -0.16597
 C746 C 0.68676 1.16496 -0.16110
 C747 C 0.67898 1.18067 -0.13479
 C748 C 0.65895 1.16293 -0.11418
 C749 C 0.62307 1.10942 -0.09846
 C750 C 0.60798 1.12566 -0.07431
 C751 C 0.58698 1.10663 -0.05518
 C752 C 0.58063 1.07085 -0.05941
 C753 C 0.59462 1.05448 -0.08384
 C754 C 0.61515 1.07376 -0.10371
 C755 C 0.64640 1.07688 -0.14953
 C756 C 0.62714 1.05794 -0.12898
 H757 H 0.65429 1.06375 -0.16906
 H758 H 0.62082 1.03075 -0.13323
 H759 H 0.68223 1.11770 -0.18603
 H760 H 0.68746 1.20726 -0.13038
 H761 H 0.57620 1.11998 -0.03664
 H762 H 0.58918 1.02697 -0.08751
 H763 H 0.65380 1.17643 -0.09440
 H764 H 0.61169 1.15311 -0.06992
 C765 C 1.14559 0.62840 0.37998
 C766 C 1.15560 0.61150 0.35433
 C767 C 1.17512 0.62995 0.33340
 C768 C 1.18599 0.66467 0.33824
 C769 C 1.17800 0.68044 0.36448
 C770 C 1.15804 0.66264 0.38507
 C771 C 1.12257 0.60897 0.40087
 C772 C 1.10721 0.62528 0.42486
 C773 C 1.08641 0.60620 0.44407
 C774 C 1.08051 0.57031 0.44006
 C775 C 1.09473 0.55386 0.41576
 C776 C 1.11506 0.57319 0.39579
 C777 C 1.14633 0.57633 0.34997
 C778 C 1.12725 0.55732 0.37060
 H779 H 1.15439 0.56316 0.33051
 H780 H 1.12124 0.53004 0.36646
 H781 H 1.18193 0.61729 0.31340
 H782 H 1.18631 0.70709 0.36885
 H783 H 1.07544 0.61962 0.46250
 H784 H 1.08960 0.52626 0.41224
 H785 H 1.15277 0.67618 0.40482
 H786 H 1.11055 0.65281 0.42909
 C787 C 0.35343 0.87993 -0.12269
 C788 C 0.34681 0.84394 -0.11754
 C789 C 0.32601 0.82437 -0.13682
 C790 C 0.31270 0.83981 -0.16184
 C791 C 0.31920 0.87542 -0.16692
 C792 C 0.33905 0.89535 -0.14754
 C793 C 0.37632 0.89973 -0.10182
 C794 C 0.38323 0.93594 -0.10424
 C795 C 0.40467 0.95314 -0.08411
 C796 C 0.42004 0.93460 -0.06133
 C797 C 0.41354 0.89857 -0.05884
 C798 C 0.39148 0.88119 -0.07856
 C799 C 0.36193 0.82740 -0.09369
 C800 C 0.38411 0.84554 -0.07479
 H801 H 0.35702 0.79983 -0.08983
 H802 H 0.39552 0.83145 -0.05682
 H803 H 0.32163 0.79669 -0.13302
 H804 H 0.30923 0.88786 -0.18617
 H805 H 0.40913 0.98104 -0.08629
 H806 H 0.42486 0.88412 -0.04102
 H807 H 0.34347 0.92248 -0.15279
 H808 H 0.37199 0.95157 -0.12123
 C809 C 0.85936 0.37878 0.37482
 C810 C 0.85230 0.34294 0.38026
 C811 C 0.83210 0.32315 0.36077
 C812 C 0.81983 0.33818 0.33527
 C813 C 0.82717 0.37353 0.32970
 C814 C 0.84645 0.39370 0.34927
 C815 C 0.88099 0.39898 0.39624
 C816 C 0.88763 0.43524 0.39384
 C817 C 0.90778 0.45283 0.41458
 C818 C 0.92210 0.43460 0.43794
 C819 C 0.91580 0.39855 0.44043
 C820 C 0.89497 0.38081 0.42014
 C821 C 0.86624 0.32677 0.40471
 C822 C 0.88753 0.34520 0.42404
 H823 H 0.86105 0.29929 0.40876
 H824 H 0.89804 0.33141 0.44249
 H825 H 0.82712 0.29564 0.36494
 H826 H 0.81805 0.38563 0.31005
 H827 H 0.91211 0.48074 0.41240
 H828 H 0.92628 0.38435 0.45870
 H829 H 0.85149 0.42065 0.34372
 H830 H 0.87710 0.45060 0.37640
 C831 C 1.14742 0.37892 0.12317
 C832 C 1.16467 0.34769 0.11437
 C833 C 1.18386 0.32723 0.13434
 C834 C 1.18565 0.33728 0.16320
 C835 C 1.16980 0.36907 0.17141
 C836 C 1.15117 0.38966 0.15176
 C837 C 1.12460 0.39844 0.10200
 C838 C 1.10448 0.42831 0.10947
 C839 C 1.08082 0.44361 0.09007
 C840 C 1.07689 0.43022 0.06242
 C841 C 1.09822 0.40159 0.05404
 C842 C 1.12161 0.38525 0.07383
 C843 C 1.16173 0.33663 0.08592
 C844 C 1.14080 0.35506 0.06608
 H845 H 1.17522 0.31292 0.07902
 H846 H 1.13881 0.34496 0.04454
 H847 H 1.19621 0.30287 0.12760
 H848 H 1.17122 0.37793 0.19333
 H849 H 1.06476 0.46569 0.09707
 H850 H 1.09516 0.39093 0.03274
 H851 H 1.13940 0.41354 0.15968
 H852 H 1.10558 0.43974 0.13046
 C853 C 0.64799 0.87863 0.62313
 C854 C 0.66491 0.84721 0.61434
 C855 C 0.68439 0.82690 0.63423
 C856 C 0.68681 0.83731 0.66297
 C857 C 0.67148 0.86937 0.67108
 C858 C 0.65257 0.88982 0.65152
 C859 C 0.62462 0.89786 0.60217
 C860 C 0.60444 0.92765 0.60979
 C861 C 0.58032 0.94270 0.59062
 C862 C 0.57596 0.92913 0.56307
 C863 C 0.59723 0.90051 0.55457
 C864 C 0.62105 0.88440 0.57414
 C865 C 0.66133 0.83584 0.58604
 C866 C 0.64006 0.85413 0.56634
 H867 H 0.67460 0.81201 0.57913
 H868 H 0.63761 0.84381 0.54489
 H869 H 0.69637 0.80234 0.62757
 H870 H 0.67347 0.87852 0.69290
 H871 H 0.56426 0.96473 0.59772
 H872 H 0.59381 0.88969 0.53336
 H873 H 0.64123 0.91394 0.65936
 H874 H 0.60584 0.93917 0.63073
 C875 C 1.14834 0.62362 -0.12389
 C876 C 1.16769 0.65348 -0.11470
 C877 C 1.18752 0.67374 -0.13459
 C878 C 1.18716 0.66548 -0.16404
 C879 C 1.16839 0.63506 -0.17254
 C880 C 1.14963 0.61452 -0.15294
 C881 C 1.12570 0.60393 -0.10261
 C882 C 1.10535 0.57421 -0.11009
 C883 C 1.08176 0.55887 -0.09063
 C884 C 1.07798 0.57205 -0.06288
 C885 C 1.09990 0.60030 -0.05440
 C886 C 1.12355 0.61649 -0.07422
 C887 C 1.16596 0.66360 -0.08593
 C888 C 1.14420 0.64569 -0.06621
 H889 H 1.18086 0.68635 -0.07869
 H890 H 1.14304 0.65525 -0.04447
 H891 H 1.20177 0.69680 -0.12714
 H892 H 1.16755 0.62696 -0.19469
 H893 H 1.06563 0.53686 -0.09768
 H894 H 1.09731 0.61063 -0.03296
 H895 H 1.13556 0.59209 -0.16133
 H896 H 1.10646 0.56273 -0.13106
 C897 C 0.64975 1.12813 0.38238
 C898 C 0.64987 1.11693 0.35357
 C899 C 0.66897 1.13593 0.33278
 C900 C 0.68798 1.16651 0.33991
 C901 C 0.68900 1.17692 0.36866
 C902 C 0.67017 1.15804 0.38963
 C903 C 0.62668 1.10834 0.40347
 C904 C 0.62345 1.11764 0.43256
 C905 C 0.59922 1.09989 0.45062
 C906 C 0.57768 1.07261 0.44004
 C907 C 0.58210 1.06214 0.41158
 C908 C 0.60612 1.07966 0.39334
 C909 C 0.63006 1.08740 0.34536
 C910 C 0.60865 1.06920 0.36479
 H911 H 0.63044 1.07865 0.32336
 H912 H 0.59317 1.04698 0.35718
 H913 H 0.66818 1.12725 0.31077
 H914 H 0.70356 1.20029 0.37490
 H915 H 0.59638 1.10834 0.47257
 H916 H 0.56589 1.04080 0.40327
 H917 H 0.67132 1.16767 0.41124
 H918 H 0.63873 1.13898 0.44158
 C919 C 0.85327 0.62711 0.11723
 C920 C 0.85297 0.61541 0.14594
 C921 C 0.83349 0.63389 0.16679
 C922 C 0.81426 0.66440 0.15978
 C923 C 0.81345 0.67526 0.13111
 C924 C 0.83265 0.65693 0.11011
 C925 C 0.87674 0.60796 0.09609
 C926 C 0.88015 0.61786 0.06712
 C927 C 0.90477 0.60077 0.04904
 C928 C 0.92655 0.57358 0.05948
 C929 C 0.92194 0.56246 0.08779
 C930 C 0.89750 0.57932 0.10606
 C931 C 0.87296 0.58589 0.15397
 C932 C 0.89475 0.56825 0.13448
 H933 H 0.87244 0.57672 0.17587
 H934 H 0.91035 0.54603 0.14195
 H935 H 0.83416 0.62489 0.18874
 H936 H 0.79873 0.69858 0.12494
 H937 H 0.90772 0.60968 0.02720
 H938 H 0.93830 0.54113 0.09597
 H939 H 0.83161 0.66692 0.08858
 H940 H 0.86471 0.63919 0.05822
 C941 C 0.35173 1.12643 0.61715
 C942 C 0.35097 1.11456 0.64580
 C943 C 0.33188 1.13338 0.66664
 C944 C 0.31355 1.16440 0.65967
 C945 C 0.31311 1.17543 0.63105
 C946 C 0.33191 1.15675 0.61005
 C947 C 0.37495 1.10697 0.59607
 C948 C 0.37887 1.11706 0.56719
 C949 C 0.40347 1.09979 0.54924
 C950 C 0.42468 1.07224 0.55973
 C951 C 0.41944 1.06083 0.58789
 C952 C 0.39504 1.07788 0.60604
 C953 C 0.37018 1.08455 0.65381
 C954 C 0.39176 1.06662 0.63436
 H955 H 0.36927 1.07526 0.67567
 H956 H 0.40683 1.04405 0.64182
 H957 H 0.33218 1.12425 0.68856
 H958 H 0.29903 1.19914 0.62493
 H959 H 0.40694 1.10890 0.52750
 H960 H 0.43536 1.03919 0.59606
 H961 H 0.33124 1.16690 0.58856
 H962 H 0.36392 1.13871 0.55828
 C963 C 0.85599 0.37865 -0.12206
 C964 C 0.83892 0.34731 -0.11318
 C965 C 0.81890 0.32728 -0.13293
 C966 C 0.81592 0.33802 -0.16159
 C967 C 0.83138 0.37007 -0.16974
 C968 C 0.85090 0.39016 -0.15034
 C969 C 0.87984 0.39761 -0.10130
 C970 C 0.90044 0.42706 -0.10917
 C971 C 0.92471 0.44205 -0.09011
 C972 C 0.92882 0.42880 -0.06240
 C973 C 0.90734 0.40035 -0.05372
 C974 C 0.88339 0.38424 -0.07321
 C975 C 0.84274 0.33584 -0.08488
 C976 C 0.86422 0.35405 -0.06528
 H977 H 0.82937 0.31208 -0.07787
 H978 H 0.86672 0.34374 -0.04381
 H979 H 0.80678 0.30277 -0.12621
 H980 H 0.82896 0.37954 -0.19145
 H981 H 0.94101 0.46385 -0.09741
 H982 H 0.91064 0.38969 -0.03242
 H983 H 0.86219 0.41433 -0.15819
 H984 H 0.89927 0.43835 -0.13023
 C985 C 0.35508 0.87793 0.37857
 C986 C 0.33823 0.84642 0.38729
 C987 C 0.31861 0.82628 0.36739
 C988 C 0.31586 0.83707 0.33873
 C989 C 0.33108 0.86927 0.33074
 C990 C 0.35018 0.88948 0.35029
 C991 C 0.37858 0.89701 0.39949
 C992 C 0.39898 0.92664 0.39178
 C993 C 0.42306 0.94168 0.41095
 C994 C 0.42713 0.92829 0.43862
 C995 C 0.40578 0.89970 0.44716
 C996 C 0.38205 0.88353 0.42755
 C997 C 0.34190 0.83488 0.41559
 C998 C 0.36307 0.85318 0.43533
 H999 H 0.32867 0.81099 0.42247
 H1000 H 0.36550 0.84280 0.45678
 H1001 H 0.30665 0.80164 0.37398
 H1002 H 0.32879 0.87877 0.30902
 H1003 H 0.43932 0.96356 0.40375
 H1004 H 0.40907 0.88893 0.46843
 H1005 H 0.36131 0.91377 0.34255
 H1006 H 0.39786 0.93804 0.37076
 C1007 C 1.11797 1.14694 0.38017
 C1008 C 1.15553 1.15251 0.38427
 C1009 C 1.17556 1.17141 0.36394
 C1010 C 1.15908 1.18335 0.33876
 C1011 C 1.12198 1.17755 0.33461
 C1012 C 1.10155 1.15987 0.35512
 C1013 C 1.09786 1.12542 0.40171
 C1014 C 1.06019 1.11998 0.40035
 C1015 C 1.04330 1.09659 0.41889
 C1016 C 1.06345 1.07801 0.43929
 C1017 C 1.10049 1.08541 0.44239
 C1018 C 1.11775 1.10912 0.42388
 C1019 C 1.17318 1.13774 0.40786
 C1020 C 1.15484 1.11596 0.42694
 H1021 H 1.20195 1.14195 0.41099
 H1022 H 1.17001 1.10401 0.44419
 H1023 H 1.20442 1.17523 0.36702
 H1024 H 1.10875 1.18651 0.31531
 H1025 H 1.01451 1.09207 0.41646
 H1026 H 1.11616 1.07181 0.45853
 H1027 H 1.07327 1.15565 0.35049
 H1028 H 1.04335 1.13300 0.38481
 C1029 C 0.61612 0.64406 -0.12247
 C1030 C 0.64795 0.66182 -0.11402
 C1031 C 0.66780 0.68124 -0.13418
 C1032 C 0.65640 0.68297 -0.16279
 C1033 C 0.62363 0.66708 -0.17053
 C1034 C 0.60362 0.64811 -0.15068
 C1035 C 0.59797 0.62044 -0.10140
 C1036 C 0.56883 0.59874 -0.10904
 C1037 C 0.55511 0.57451 -0.08983
 C1038 C 0.56925 0.57165 -0.06220
 C1039 C 0.59720 0.59420 -0.05369
 C1040 C 0.61225 0.61805 -0.07338
 C1041 C 0.66023 0.65926 -0.08577
 C1042 C 0.64250 0.63814 -0.06579
 H1043 H 0.68431 0.67330 -0.07914
 H1044 H 0.65346 0.63652 -0.04437
 H1045 H 0.69281 0.69386 -0.12777
 H1046 H 0.61364 0.66867 -0.19223
 H1047 H 0.53363 0.55736 -0.09696
 H1048 H 0.60853 0.59179 -0.03243
 H1049 H 0.57881 0.63640 -0.15813
 H1050 H 0.55701 0.59893 -0.13006
 C1051 C 0.87502 1.15062 0.61665
 C1052 C 0.89273 1.15940 0.64248
 C1053 C 0.87397 1.17752 0.66397
 C1054 C 0.83782 1.18772 0.65995
 C1055 C 0.82101 1.18072 0.63371
 C1056 C 0.83925 1.16236 0.61236
 C1057 C 0.89482 1.12831 0.59543
 C1058 C 0.87833 1.11487 0.57058
 C1059 C 0.89681 1.09135 0.55299
 C1060 C 0.93234 1.08115 0.55944
 C1061 C 0.94969 1.09593 0.58322
 C1062 C 0.93102 1.11864 0.60154
 C1063 C 0.92886 1.14961 0.64689
 C1064 C 0.94775 1.13007 0.62668
 H1065 H 0.94263 1.15680 0.66645
 H1066 H 0.97551 1.12271 0.63131
 H1067 H 0.88743 1.18340 0.68397
 H1068 H 0.79319 1.18851 0.62995
 H1069 H 0.88288 1.08033 0.53475
 H1070 H 0.97706 1.08800 0.58858
 H1071 H 0.82471 1.15733 0.59284
 H1072 H 0.85075 1.12106 0.56492
 C1073 C 0.37505 0.64764 0.11746
 C1074 C 0.38820 0.64772 0.14588
 C1075 C 0.37047 0.66725 0.16698
 C1076 C 0.33916 0.68647 0.16052
 C1077 C 0.32698 0.68749 0.13213
 C1078 C 0.34467 0.66842 0.11085
 C1079 C 0.39297 0.62397 0.09617
 C1080 C 0.38160 0.62100 0.06746
 C1081 C 0.39716 0.59604 0.04933
 C1082 C 0.42414 0.57351 0.05952
 C1083 C 0.43687 0.57761 0.08749
 C1084 C 0.42170 0.60248 0.10575
 C1085 C 0.41813 0.62724 0.15342
 C1086 C 0.43444 0.60499 0.13380
 H1087 H 0.42842 0.62760 0.17508
 H1088 H 0.45684 0.58884 0.14091
 H1089 H 0.38043 0.66641 0.18874
 H1090 H 0.30301 0.70226 0.12640
 H1091 H 0.38718 0.59349 0.02769
 H1092 H 0.45807 0.56058 0.09542
 H1093 H 0.33354 0.66957 0.08960
 H1094 H 0.36028 0.63711 0.05880
 C1095 C 1.11546 0.85324 0.62442
 C1096 C 1.15003 0.84026 0.61695
 C1097 C 1.17028 0.82085 0.63690
 C1098 C 1.15797 0.81669 0.66531
 C1099 C 1.12383 0.83071 0.67255
 C1100 C 1.10279 0.84821 0.65243
 C1101 C 1.09492 0.87424 0.60288
 C1102 C 1.05886 0.88483 0.60724
 C1103 C 1.04207 0.90747 0.58811
 C1104 C 1.06074 0.92034 0.56419
 C1105 C 1.09576 0.90777 0.55842
 C1106 C 1.11267 0.88424 0.57737
 C1107 C 1.16499 0.84851 0.59023
 C1108 C 1.14719 0.87090 0.57122
 H1109 H 1.19162 0.83886 0.58446
 H1110 H 1.16061 0.87782 0.55142
 H1111 H 1.19670 0.81105 0.63065
 H1112 H 1.11298 0.82830 0.69397
 H1113 H 1.01481 0.91610 0.59282
 H1114 H 1.11004 0.91677 0.53955
 H1115 H 1.07727 0.85878 0.65961
 H1116 H 1.04329 0.87625 0.62546
 C1117 C 0.61691 0.35725 0.12404
 C1118 C 0.64854 0.33928 0.11536
 C1119 C 0.66846 0.31968 0.13535
 C1120 C 0.65744 0.31804 0.16408
 C1121 C 0.62508 0.33448 0.17215
 C1122 C 0.60497 0.35362 0.15247
 C1123 C 0.59837 0.38058 0.10295
 C1124 C 0.56875 0.40177 0.11049
 C1125 C 0.55452 0.42560 0.09114
 C1126 C 0.56871 0.42862 0.06351
 C1127 C 0.59709 0.40650 0.05511
 C1128 C 0.61248 0.38295 0.07486
 C1129 C 0.66058 0.34180 0.08703
 C1130 C 0.64278 0.36297 0.06716
 H1131 H 0.68455 0.32770 0.08024
 H1132 H 0.65358 0.36455 0.04568
 H1133 H 0.69325 0.30682 0.12872
 H1134 H 0.61547 0.33314 0.19398
 H1135 H 0.53255 0.44228 0.09813
 H1136 H 0.60837 0.40890 0.03381
 H1137 H 0.58056 0.36580 0.16021
 H1138 H 0.55679 0.40134 0.13146
 C1139 C 0.88015 0.84946 0.37960
 C1140 C 0.84264 0.84347 0.38365
 C1141 C 0.82280 0.82476 0.36314
 C1142 C 0.83938 0.81343 0.33780
 C1143 C 0.87639 0.81980 0.33364
 C1144 C 0.89666 0.83727 0.35434
 C1145 C 0.90008 0.87058 0.40147
 C1146 C 0.93774 0.87621 0.40027
 C1147 C 0.95446 0.89916 0.41923
 C1148 C 0.93414 0.91717 0.43986
 C1149 C 0.89709 0.90958 0.44273
 C1150 C 0.88003 0.88623 0.42384
 C1151 C 0.82483 0.85761 0.40742
 C1152 C 0.84297 0.87910 0.42677
 H1153 H 0.79609 0.85311 0.41051
 H1154 H 0.82767 0.89055 0.44416
 H1155 H 0.79399 0.82056 0.36624
 H1156 H 0.88970 0.81137 0.31421
 H1157 H 0.98324 0.90391 0.41686
 H1158 H 0.88127 0.92276 0.45899
 H1159 H 0.92489 0.84189 0.34973
 H1160 H 0.95468 0.86367 0.38455
 C1161 C 0.38109 0.35273 -0.12225
 C1162 C 0.34867 0.33562 -0.11421
 C1163 C 0.32920 0.31607 -0.13448
 C1164 C 0.34148 0.31367 -0.16285
 C1165 C 0.37467 0.32907 -0.17019
 C1166 C 0.39435 0.34811 -0.15021
 C1167 C 0.39901 0.37638 -0.10111
 C1168 C 0.42907 0.39717 -0.10831
 C1169 C 0.44250 0.42161 -0.08919
 C1170 C 0.42717 0.42558 -0.06203
 C1171 C 0.39836 0.40379 -0.05385
 C1172 C 0.38365 0.37972 -0.07349
 C1173 C 0.33540 0.33902 -0.08629
 C1174 C 0.35270 0.36035 -0.06629
 H1175 H 0.31083 0.32553 -0.07996
 H1176 H 0.34093 0.36267 -0.04517
 H1177 H 0.30376 0.30396 -0.12841
 H1178 H 0.38527 0.32703 -0.19169
 H1179 H 0.46456 0.43823 -0.09611
 H1180 H 0.38613 0.40699 -0.03297
 H1181 H 0.41949 0.35946 -0.15738
 H1182 H 0.44188 0.39612 -0.12896
 C1183 C 1.15072 0.37752 -0.12153
 C1184 C 1.15683 0.34161 -0.11573
 C1185 C 1.17490 0.32051 -0.13586
 C1186 C 1.18530 0.33433 -0.16241
 C1187 C 1.17880 0.36980 -0.16815
 C1188 C 1.16206 0.39119 -0.14800
 C1189 C 1.13034 0.39892 -0.10003
 C1190 C 1.12471 0.43520 -0.10310
 C1191 C 1.10226 0.45326 -0.08419
 C1192 C 1.08481 0.43570 -0.06174
 C1193 C 1.09256 0.40012 -0.05717
 C1194 C 1.11536 0.38173 -0.07600
 C1195 C 1.14343 0.32672 -0.09048
 C1196 C 1.12257 0.34617 -0.07132
 H1197 H 1.14799 0.29925 -0.08596
 H1198 H 1.11165 0.33307 -0.05267
 H1199 H 1.17938 0.29300 -0.13142
 H1200 H 1.18669 0.38112 -0.18844
 H1201 H 1.09735 0.48079 -0.08795
 H1202 H 1.07985 0.38641 -0.03953
 H1203 H 1.15736 0.41808 -0.15392
 H1204 H 1.13680 0.45001 -0.12024
 C1205 C 0.64820 0.87629 0.37820
 C1206 C 0.65461 0.84041 0.38391
 C1207 C 0.67294 0.81953 0.36376
 C1208 C 0.68336 0.83353 0.33726
 C1209 C 0.67651 0.86896 0.33159
 C1210 C 0.65948 0.89013 0.35177
 C1211 C 0.62773 0.89748 0.39980
 C1212 C 0.62186 0.93374 0.39685
 C1213 C 0.59961 0.95166 0.41600
 C1214 C 0.58255 0.93398 0.43858
 C1215 C 0.59033 0.89836 0.44291
 C1216 C 0.61300 0.88013 0.42386
 C1217 C 0.64134 0.82533 0.40913
 C1218 C 0.62042 0.84458 0.42839
 H1219 H 0.64611 0.79788 0.41358
 H1220 H 0.60967 0.83135 0.44704
 H1221 H 0.67767 0.79205 0.36816
 H1222 H 0.68438 0.88043 0.31135
 H1223 H 0.59455 0.97922 0.41234
 H1224 H 0.57787 0.88456 0.46061
 H1225 H 0.65457 0.91701 0.34591
 H1226 H 0.63368 0.94867 0.37965
 C1227 C 0.85219 0.62007 -0.12226
 C1228 C 0.84508 0.65581 -0.11658
 C1229 C 0.82569 0.67616 -0.13646
 C1230 C 0.81490 0.66183 -0.16268
 C1231 C 0.82240 0.62656 -0.16836
 C1232 C 0.84047 0.60585 -0.14840
 C1233 C 0.87390 0.59952 -0.10101
 C1234 C 0.88053 0.56340 -0.10388
 C1235 C 0.90389 0.54614 -0.08516
 C1236 C 0.92134 0.56437 -0.06313
 C1237 C 0.91281 0.59979 -0.05881
 C1238 C 0.88902 0.61736 -0.07741
 C1239 C 0.85877 0.67135 -0.09175
 C1240 C 0.88084 0.65273 -0.07288
 H1241 H 0.85345 0.69870 -0.08736
 H1242 H 0.89188 0.66631 -0.05455
 H1243 H 0.82051 0.70356 -0.13211
 H1244 H 0.81431 0.61491 -0.18843
 H1245 H 0.90937 0.51870 -0.08869
 H1246 H 0.92550 0.61399 -0.04146
 H1247 H 0.84590 0.57908 -0.15423
 H1248 H 0.86843 0.54809 -0.12067
 C1249 C 0.35393 1.12066 0.37727
 C1250 C 0.34707 1.15647 0.38281
 C1251 C 0.32777 1.17682 0.36288
 C1252 C 0.31680 1.16242 0.33672
 C1253 C 0.32418 1.12710 0.33114
 C1254 C 0.34219 1.10639 0.35116
 C1255 C 0.37530 1.10002 0.39871
 C1256 C 0.38149 1.06380 0.39607
 C1257 C 0.40434 1.04638 0.41509
 C1258 C 0.42175 1.06451 0.43718
 C1259 C 0.41375 1.10012 0.44120
 C1260 C 0.39042 1.11785 0.42233
 C1261 C 0.36083 1.17204 0.40762
 C1262 C 0.38261 1.15334 0.42664
 H1263 H 0.35572 1.19946 0.41189
 H1264 H 0.39366 1.16693 0.44496
 H1265 H 0.32269 1.20426 0.36716
 H1266 H 0.31597 1.11537 0.31112
 H1267 H 0.40942 1.01883 0.41177
 H1268 H 0.42642 1.11427 0.45858
 H1269 H 0.34748 1.07956 0.34542
 H1270 H 0.36938 1.04852 0.37926
 C1271 C 1.14815 0.62432 0.12226
 C1272 C 1.15429 0.66029 0.11677
 C1273 C 1.17277 0.68100 0.13692
 C1274 C 1.18356 0.66672 0.16320
 C1275 C 1.17683 0.63124 0.16871
 C1276 C 1.15967 0.61023 0.14852
 C1277 C 1.12767 0.60326 0.10062
 C1278 C 1.12228 0.56691 0.10326
 C1279 C 1.10001 0.54905 0.08414
 C1280 C 1.08243 0.56688 0.06191
 C1281 C 1.08982 0.60262 0.05783
 C1282 C 1.11252 0.62081 0.07685
 C1283 C 1.14064 0.67561 0.09179
 C1284 C 1.11960 0.65647 0.07256
 H1285 H 1.14519 0.70314 0.08754
 H1286 H 1.10855 0.66986 0.05412
 H1287 H 1.17737 0.70854 0.13268
 H1288 H 1.18497 0.61959 0.18881
 H1289 H 1.09543 0.52140 0.08751
 H1290 H 1.07703 0.61655 0.04036
 H1291 H 1.15487 0.58328 0.15423
 H1292 H 1.13453 0.55185 0.12017
 C1293 C 0.64681 1.12399 0.62326
 C1294 C 0.65288 1.15995 0.61764
 C1295 C 0.67149 1.18077 0.63764
 C1296 C 0.68255 1.16662 0.66390
 C1297 C 0.67593 1.13114 0.66953
 C1298 C 0.65860 1.11003 0.64949
 C1299 C 0.62618 1.10282 0.60176
 C1300 C 0.62077 1.06648 0.60453
 C1301 C 0.59849 1.04851 0.58548
 C1302 C 0.58090 1.06621 0.56320
 C1303 C 0.58821 1.10195 0.55903
 C1304 C 0.61093 1.12024 0.57797
 C1305 C 0.63904 1.17515 0.59268
 C1306 C 0.61795 1.15590 0.57357
 H1307 H 0.64354 1.20266 0.58833
 H1308 H 0.60679 1.16919 0.55511
 H1309 H 0.67602 1.20830 0.63329
 H1310 H 0.68427 1.11957 0.68960
 H1311 H 0.59392 1.02087 0.58893
 H1312 H 0.57539 1.11578 0.54152
 H1313 H 0.65391 1.08309 0.65529
 H1314 H 0.63305 1.05151 0.62149
 C1315 C 0.85293 0.37498 0.11815
 C1316 C 0.84554 0.38979 0.14521
 C1317 C 0.82761 0.37004 0.16622
 C1318 C 0.81604 0.33571 0.16064
 C1319 C 0.82169 0.32170 0.13335
 C1320 C 0.84004 0.34094 0.11239
 C1321 C 0.87485 0.39600 0.09717
 C1322 C 0.88695 0.38242 0.07086
 C1323 C 0.91005 0.40189 0.05329
 C1324 C 0.92116 0.43562 0.06117
 C1325 C 0.90777 0.45010 0.08658
 C1326 C 0.88549 0.43034 0.10486
 C1327 C 0.85635 0.42413 0.15127
 C1328 C 0.87546 0.44411 0.13140
 H1329 H 0.85021 0.43566 0.17183
 H1330 H 0.88354 0.47040 0.13729
 H1331 H 0.82266 0.38145 0.18704
 H1332 H 0.81271 0.29542 0.12839
 H1333 H 0.92005 0.39015 0.03378
 H1334 H 0.91658 0.47595 0.09307
 H1335 H 0.84403 0.32863 0.09193
 H1336 H 0.88001 0.35637 0.06395
 C1337 C 0.35299 0.87622 0.62266
 C1338 C 0.35185 0.88806 0.65123
 C1339 C 0.33378 0.86837 0.67224
 C1340 C 0.31482 0.83741 0.66524
 C1341 C 0.31408 0.82723 0.63628
 C1342 C 0.33316 0.84602 0.61545
 C1343 C 0.37529 0.89652 0.60144
 C1344 C 0.38282 0.88432 0.57363
 C1345 C 0.40592 0.90307 0.55544
 C1346 C 0.42124 0.93486 0.56419
 C1347 C 0.41295 0.94778 0.59145
 C1348 C 0.39118 0.92841 0.61035
 C1349 C 0.36850 0.91971 0.65868
 C1350 C 0.38696 0.93985 0.63854
 H1351 H 0.36708 0.92919 0.68045
 H1352 H 0.39928 0.96417 0.64543
 H1353 H 0.33414 0.87775 0.69408
 H1354 H 0.29949 0.80405 0.62956
 H1355 H 0.41231 0.89242 0.53461
 H1356 H 0.42544 0.97186 0.59869
 H1357 H 0.33190 0.83662 0.59376
 H1358 H 0.37226 0.85974 0.56598
 C1359 C 0.37134 1.13454 -0.12546
 C1360 C 0.33610 1.14653 -0.11845
 C1361 C 0.31581 1.16559 -0.13849
 C1362 C 0.32949 1.17158 -0.16597
 C1363 C 0.36388 1.15870 -0.17317
 C1364 C 0.38469 1.14063 -0.15318
 C1365 C 0.39251 1.11513 -0.10324
 C1366 C 0.42901 1.10511 -0.10705
 C1367 C 0.44750 1.08700 -0.08562
 C1368 C 0.42989 1.07802 -0.06017
 C1369 C 0.39371 1.08809 -0.05607
 C1370 C 0.37522 1.10715 -0.07706
 C1371 C 0.32103 1.13874 -0.09176
 C1372 C 0.33990 1.11888 -0.07172
 H1373 H 0.29395 1.14760 -0.08646
 H1374 H 0.32683 1.11307 -0.05154
 H1375 H 0.28895 1.17493 -0.13298
 H1376 H 0.37495 1.16295 -0.19432
 H1377 H 0.47555 1.07975 -0.08904
 H1378 H 0.38020 1.08188 -0.03612
 H1379 H 0.41085 1.13125 -0.16000
 H1380 H 0.44391 1.11143 -0.12618
 C1381 C 0.87055 0.63440 0.37476
 C1382 C 0.83535 0.64641 0.38186
 C1383 C 0.81493 0.66539 0.36182
 C1384 C 0.82845 0.67127 0.33427
 C1385 C 0.86283 0.65839 0.32701
 C1386 C 0.88375 0.64040 0.34698
 C1387 C 0.89186 0.61505 0.39696
 C1388 C 0.92833 0.60498 0.39304
 C1389 C 0.94694 0.58691 0.41443
 C1390 C 0.92950 0.57803 0.43998
 C1391 C 0.89335 0.58816 0.44420
 C1392 C 0.87473 0.60717 0.42322
 C1393 C 0.82044 0.63871 0.40863
 C1394 C 0.83944 0.61893 0.42865
 H1395 H 0.79339 0.64759 0.41400
 H1396 H 0.82649 0.61321 0.44890
 H1397 H 0.78809 0.67474 0.36739
 H1398 H 0.87380 0.66256 0.30582
 H1399 H 0.97496 0.57962 0.41091
 H1400 H 0.87996 0.58202 0.46421
 H1401 H 0.90989 0.63103 0.34011
 H1402 H 0.94311 0.61122 0.37383
 C1403 C 0.63529 1.13482 0.12307
 C1404 C 0.61844 1.14190 0.14956
 C1405 C 0.63727 1.16063 0.17065
 C1406 C 0.67207 1.17388 0.16513
 C1407 C 0.68791 1.16831 0.13836
 C1408 C 0.66993 1.14887 0.11762
 C1409 C 0.61508 1.11351 0.10159
 C1410 C 0.63127 1.10154 0.07625
 C1411 C 0.61129 1.08247 0.05651
 C1412 C 0.57457 1.07507 0.06130
 C1413 C 0.55829 1.08597 0.08685
 C1414 C 0.57856 1.10446 0.10731
 C1415 C 0.58270 1.13097 0.15451
 C1416 C 0.56289 1.11339 0.13356
 H1417 H 0.56958 1.13673 0.17466
 H1418 H 0.53510 1.10613 0.13818
 H1419 H 0.62453 1.16565 0.19111
 H1420 H 0.71460 1.17860 0.13358
 H1421 H 0.62459 1.07404 0.03708
 H1422 H 0.53010 1.07965 0.09094
 H1423 H 0.68342 1.14560 0.09738
 H1424 H 0.65940 1.10629 0.07134
 C1425 C 1.13622 0.63716 0.62146
 C1426 C 1.12002 0.64313 0.64838
 C1427 C 1.13905 0.66161 0.66947
 C1428 C 1.17345 0.67565 0.66369
 C1429 C 1.18861 0.67129 0.63653
 C1430 C 1.17041 0.65210 0.61569
 C1431 C 1.11587 0.61586 0.60003
 C1432 C 1.13150 0.60489 0.57416
 C1433 C 1.11148 0.58540 0.55468
 C1434 C 1.07525 0.57664 0.56025
 C1435 C 1.05949 0.58679 0.58619
 C1436 C 1.07985 0.60561 0.60639
 C1437 C 1.08474 0.63124 0.65384
 C1438 C 1.06477 0.61359 0.63305
 H1439 H 1.07213 0.63618 0.67434
 H1440 H 1.03737 0.60547 0.63813
 H1441 H 1.12676 0.66572 0.69024
 H1442 H 1.21495 0.68225 0.63154
 H1443 H 1.12433 0.57765 0.53488
 H1444 H 1.03171 0.57946 0.59083
 H1445 H 1.18338 0.64964 0.59516
 H1446 H 1.15925 0.61070 0.56868
 C1447 C 0.63440 0.86345 -0.12088
 C1448 C 0.61832 0.85733 -0.14780
 C1449 C 0.63746 0.83878 -0.16880
 C1450 C 0.67188 0.82489 -0.16292
 C1451 C 0.68690 0.82937 -0.13575
 C1452 C 0.66855 0.84856 -0.11500
 C1453 C 0.61402 0.88492 -0.09960
 C1454 C 0.62961 0.89605 -0.07379
 C1455 C 0.60962 0.91574 -0.05445
 C1456 C 0.57345 0.92458 -0.06009
 C1457 C 0.55770 0.91428 -0.08597
 C1458 C 0.57805 0.89521 -0.10604
 C1459 C 0.58307 0.86920 -0.15335
 C1460 C 0.56305 0.88703 -0.13267
 H1461 H 0.57054 0.86413 -0.17384
 H1462 H 0.53569 0.89516 -0.13782
 H1463 H 0.62528 0.83458 -0.18957
 H1464 H 0.71324 0.81852 -0.13068
 H1465 H 0.62248 0.92360 -0.03469
 H1466 H 0.52996 0.92165 -0.09067
 H1467 H 0.68142 0.85110 -0.09445
 H1468 H 0.65733 0.89025 -0.06826
 C1469 C 1.13577 0.36357 0.37977
 C1470 C 1.11973 0.35752 0.35283
 C1471 C 1.13895 0.33915 0.33177
 C1472 C 1.17345 0.32536 0.33757
 C1473 C 1.18847 0.32982 0.36474
 C1474 C 1.17004 0.34886 0.38557
 C1475 C 1.11522 0.38482 0.40114
 C1476 C 1.13064 0.39578 0.42707
 C1477 C 1.11051 0.41535 0.44643
 C1478 C 1.07437 0.42424 0.44069
 C1479 C 1.05878 0.41403 0.41473
 C1480 C 1.07925 0.39507 0.39465
 C1481 C 1.08445 0.36930 0.34728
 C1482 C 1.06434 0.38699 0.36798
 H1483 H 1.07197 0.36429 0.32675
 H1484 H 1.03698 0.39509 0.36280
 H1485 H 1.12675 0.33497 0.31100
 H1486 H 1.21488 0.31907 0.36976
 H1487 H 1.12325 0.42312 0.46626
 H1488 H 1.03106 0.42141 0.40996
 H1489 H 1.18293 0.35141 0.40611
 H1490 H 1.15831 0.38992 0.43269
 C1491 C 0.36968 0.86732 0.12479
 C1492 C 0.33417 0.85593 0.11799
 C1493 C 0.31409 0.83630 0.13786
 C1494 C 0.32834 0.82920 0.16497
 C1495 C 0.36306 0.84140 0.17192
 C1496 C 0.38359 0.86001 0.15210
 C1497 C 0.39060 0.88740 0.10281
 C1498 C 0.42725 0.89692 0.10645
 C1499 C 0.44562 0.91549 0.08525
 C1500 C 0.42778 0.92545 0.06017
 C1501 C 0.39137 0.91606 0.05626
 C1502 C 0.37295 0.89651 0.07706
 C1503 C 0.31866 0.86491 0.09172
 C1504 C 0.33739 0.88534 0.07191
 H1505 H 0.29138 0.85652 0.08657
 H1506 H 0.32401 0.89201 0.05205
 H1507 H 0.28698 0.82747 0.13259
 H1508 H 0.37457 0.83628 0.19278
 H1509 H 0.47385 0.92221 0.08850
 H1510 H 0.37768 0.92304 0.03659
 H1511 H 0.41000 0.86885 0.15879
 H1512 H 0.44243 0.88978 0.12523
 C1513 C 0.86856 0.36769 0.62449
 C1514 C 0.83312 0.35624 0.61754
 C1515 C 0.81281 0.33678 0.63741
 C1516 C 0.82678 0.32992 0.66466
 C1517 C 0.86145 0.34216 0.67172
 C1518 C 0.88219 0.36060 0.65193
 C1519 C 0.88973 0.38761 0.60254
 C1520 C 0.92633 0.39721 0.60638
 C1521 C 0.94491 0.41569 0.58522
 C1522 C 0.92735 0.42548 0.55998
 C1523 C 0.89099 0.41598 0.55586
 C1524 C 0.87236 0.39652 0.57663
 C1525 C 0.81790 0.36501 0.59111
 C1526 C 0.83685 0.38528 0.57131
 H1527 H 0.79068 0.35658 0.58583
 H1528 H 0.82369 0.39180 0.55133
 H1529 H 0.78575 0.32790 0.63202
 H1530 H 0.87278 0.33720 0.69267
 H1531 H 0.97308 0.42249 0.58866
 H1532 H 0.87750 0.42283 0.53607
 H1533 H 0.90854 0.36947 0.65873
 H1534 H 0.94131 0.39022 0.62529
 C1535 C 1.12729 1.14283 0.61888
 C1536 C 1.11515 1.14315 0.64758
 C1537 C 1.13382 1.16260 0.66822
 C1538 C 1.16492 1.18180 0.66098
 C1539 C 1.17637 1.18229 0.63238
 C1540 C 1.15786 1.16310 0.61159
 C1541 C 1.10780 1.11982 0.59792
 C1542 C 1.11792 1.11681 0.56892
 C1543 C 1.10050 1.09285 0.55095
 C1544 C 1.07282 1.07135 0.56154
 C1545 C 1.06145 1.07541 0.58990
 C1546 C 1.07857 1.09928 0.60805
 C1547 C 1.08499 1.12333 0.65578
 C1548 C 1.06713 1.10181 0.63645
 H1549 H 1.07551 1.12384 0.67768
 H1550 H 1.04442 1.08637 0.64403
 H1551 H 1.12441 1.16218 0.69015
 H1552 H 1.20023 1.19693 0.62611
 H1553 H 1.10951 1.09029 0.52904
 H1554 H 1.03969 1.05924 0.59815
 H1555 H 1.16831 1.16399 0.59010
 H1556 H 1.13961 1.13217 0.55988
 C1557 C 0.62382 0.64687 0.11795
 C1558 C 0.60791 0.65426 0.14479
 C1559 C 0.62788 0.67192 0.16583
 C1560 C 0.66348 0.68310 0.16045
 C1561 C 0.67858 0.67723 0.13339
 C1562 C 0.65915 0.65927 0.11243
 C1563 C 0.60262 0.62540 0.09696
 C1564 C 0.61726 0.61365 0.07086
 C1565 C 0.59767 0.59096 0.05332
 C1566 C 0.56279 0.57988 0.06106
 C1567 C 0.54718 0.59295 0.08620
 C1568 C 0.56704 0.61489 0.10443
 C1569 C 0.57230 0.64368 0.15059
 C1570 C 0.55216 0.62480 0.13072
 H1571 H 0.55991 0.64979 0.17097
 H1572 H 0.52490 0.61684 0.13642
 H1573 H 0.61568 0.67694 0.18649
 H1574 H 0.70591 0.68581 0.12861
 H1575 H 0.61027 0.58123 0.03401
 H1576 H 0.52043 0.58420 0.09256
 H1577 H 0.67237 0.65517 0.09218
 H1578 H 0.64425 0.62058 0.06407
 C1579 C 1.12955 0.85550 0.38292
 C1580 C 1.11735 0.85516 0.35425
 C1581 C 1.13613 0.83599 0.33353
 C1582 C 1.16751 0.81716 0.34056
 C1583 C 1.17913 0.81671 0.36910
 C1584 C 1.16044 0.83560 0.39004
 C1585 C 1.10977 0.87818 0.40398
 C1586 C 1.11968 0.88108 0.43302
 C1587 C 1.10191 0.90477 0.45107
 C1588 C 1.07412 0.92611 0.44047
 C1589 C 1.06301 0.92212 0.41208
 C1590 C 1.08039 0.89851 0.39389
 C1591 C 1.08703 0.87472 0.34612
 C1592 C 1.06902 0.89603 0.36549
 H1593 H 1.07755 0.87420 0.32423
 H1594 H 1.04621 0.91134 0.35796
 H1595 H 1.12657 0.83637 0.31165
 H1596 H 1.20322 0.80236 0.37521
 H1597 H 1.11075 0.90731 0.47301
 H1598 H 1.04117 0.93817 0.40382
 H1599 H 1.17098 0.83483 0.41150
 H1600 H 1.14145 0.86583 0.44202
 C1601 C 0.62693 0.35226 -0.11615
 C1602 C 0.61025 0.34312 -0.14231
 C1603 C 0.63004 0.32538 -0.16339
 C1604 C 0.66627 0.31585 -0.15873
 C1605 C 0.68223 0.32331 -0.13227
 C1606 C 0.66294 0.34140 -0.11126
 C1607 C 0.60575 0.37391 -0.09524
 C1608 C 0.62087 0.38739 -0.06990
 C1609 C 0.60106 0.41022 -0.05258
 C1610 C 0.56552 0.41973 -0.05980
 C1611 C 0.54956 0.40487 -0.08408
 C1612 C 0.56952 0.38278 -0.10210
 C1613 C 0.57404 0.35209 -0.14745
 C1614 C 0.55399 0.37113 -0.12764
 H1615 H 0.56110 0.34462 -0.16729
 H1616 H 0.52622 0.37784 -0.13283
 H1617 H 0.61723 0.31909 -0.18357
 H1618 H 0.71010 0.31599 -0.12809
 H1619 H 0.61399 0.42127 -0.03390
 H1620 H 0.52229 0.41225 -0.09003
 H1621 H 0.67679 0.34687 -0.09151
 H1622 H 0.64835 0.38171 -0.06361
 C1623 C 0.87727 1.14025 0.37504
 C1624 C 0.84679 1.15966 0.38425
 C1625 C 0.82750 1.18052 0.36465
 C1626 C 0.83809 1.18208 0.33581
 C1627 C 0.86921 1.16386 0.32720
 C1628 C 0.88861 1.14342 0.34645
 C1629 C 0.89552 1.11628 0.39587
 C1630 C 0.92430 1.09418 0.38798
 C1631 C 0.93873 1.07043 0.40735
 C1632 C 0.92547 1.06826 0.43532
 C1633 C 0.89772 1.09104 0.44394
 C1634 C 0.88225 1.11464 0.42424
 C1635 C 0.83539 1.15750 0.41276
 C1636 C 0.85288 1.13567 0.43236
 H1637 H 0.81227 1.17258 0.41996
 H1638 H 0.84268 1.13460 0.45405
 H1639 H 0.80363 1.19464 0.37167
 H1640 H 0.87850 1.16498 0.30528
 H1641 H 0.96028 1.05333 0.40019
 H1642 H 0.88718 1.08937 0.46551
 H1643 H 0.91210 1.13003 0.33826
 H1644 H 0.93561 1.09404 0.36677
 C1645 C 0.37682 0.64773 -0.12153
 C1646 C 0.33936 0.65361 -0.11706
 C1647 C 0.31931 0.67337 -0.13690
 C1648 C 0.33568 0.68586 -0.16199
 C1649 C 0.37263 0.67951 -0.16657
 C1650 C 0.39305 0.66100 -0.14655
 C1651 C 0.39707 0.62576 -0.10031
 C1652 C 0.43475 0.62026 -0.10188
 C1653 C 0.45184 0.59700 -0.08330
 C1654 C 0.43194 0.57847 -0.06270
 C1655 C 0.39480 0.58568 -0.05961
 C1656 C 0.37735 0.60938 -0.07808
 C1657 C 0.32187 0.63847 -0.09351
 C1658 C 0.34029 0.61630 -0.07477
 H1659 H 0.29317 0.64284 -0.09009
 H1660 H 0.32522 0.60424 -0.05749
 H1661 H 0.29056 0.67758 -0.13349
 H1662 H 0.38579 0.68883 -0.18581
 H1663 H 0.48060 0.59266 -0.08576
 H1664 H 0.37923 0.57214 -0.04336
 H1665 H 0.42122 0.65654 -0.15150
 H1666 H 0.45146 0.63328 -0.11752
 C1667 C 0.87512 0.85846 0.62436
 C1668 C 0.84440 0.83933 0.61530
 C1669 C 0.82491 0.81885 0.63506
 C1670 C 0.83570 0.81729 0.66384
 C1671 C 0.86727 0.83492 0.67221
 C1672 C 0.88680 0.85502 0.65282
 C1673 C 0.89333 0.88237 0.60352
 C1674 C 0.92163 0.90491 0.61157
 C1675 C 0.93607 0.92861 0.59222
 C1676 C 0.92341 0.93028 0.56408
 C1677 C 0.89597 0.90722 0.55534
 C1678 C 0.88032 0.88375 0.57509
 C1679 C 0.83307 0.84133 0.58677
 C1680 C 0.85090 0.86276 0.56702
 H1681 H 0.80981 0.82638 0.57967
 H1682 H 0.84083 0.86367 0.54531
 H1683 H 0.80081 0.80500 0.62820
 H1684 H 0.87681 0.83363 0.69404
 H1685 H 0.95705 0.94619 0.59958
 H1686 H 0.88573 0.90866 0.53368
 H1687 H 0.91072 0.86787 0.66079
 H1688 H 0.93240 0.90559 0.63293
 C1689 C 0.37557 0.35231 0.12071
 C1690 C 0.33800 0.34673 0.11657
 C1691 C 0.31796 0.32752 0.13677
 C1692 C 0.33447 0.31535 0.16187
 C1693 C 0.37150 0.32144 0.16613
 C1694 C 0.39192 0.33937 0.14576
 C1695 C 0.39583 0.37371 0.09914
 C1696 C 0.43358 0.37875 0.10037
 C1697 C 0.45072 0.40180 0.08164
 C1698 C 0.43076 0.42050 0.06121
 C1699 C 0.39355 0.41356 0.05832
 C1700 C 0.37605 0.39012 0.07698
 C1701 C 0.32043 0.36171 0.09302
 C1702 C 0.33889 0.38351 0.07398
 H1703 H 0.29165 0.35758 0.08985
 H1704 H 0.32378 0.39555 0.05674
 H1705 H 0.28913 0.32348 0.13363
 H1706 H 0.38475 0.31232 0.18539
 H1707 H 0.47957 0.40589 0.08390
 H1708 H 0.37797 0.42724 0.04218
 H1709 H 0.42016 0.34369 0.15048
 H1710 H 0.45032 0.36559 0.11588
   
