data_POSCAR
  _audit_creation_date              2014-09-24
  _audit_creation_method            'ToBaCCo'
  _symmetry_space_group_name_H-M    'P1'
  _symmetry_Int_Tables_number       1
  _symmetry_cell_setting            triclinic
  loop_
  _symmetry_equiv_pos_as_xyz
 x,y,z
_cell_length_a 50.1702
_cell_length_b 53.9019
_cell_length_c 49.3576
_cell_angle_alpha 89.682300
_cell_angle_beta 90.026000
_cell_angle_gamma 89.860600
loop_
  _atom_site_label
  _atom_site_type_symbol
  _atom_site_fract_x
  _atom_site_fract_y
  _atom_site_fract_z
O1 O 0.35810 0.31810 -0.03760
 O2 O 0.31990 0.35657 0.01076
 O3 O 0.35326 0.31764 0.01347
 O4 O 0.33404 0.35857 -0.04176
 O5 O 0.29567 0.33927 -0.04664
 O6 O 0.31787 0.29427 0.00667
 O7 O 0.28497 0.33256 0.00463
 O8 O 0.32140 0.29693 -0.04577
 Cu9 Cu 0.34412 0.34040 -0.01230
 Cu10 Cu 0.30136 0.31361 -0.02084
 C11 C 0.34588 0.30098 -0.05019
 C12 C 0.29575 0.35101 0.01588
 C13 C 0.33981 0.29841 0.01895
 C14 C 0.31190 0.35629 -0.05385
 O15 O 0.68306 0.65661 0.03199
 O16 O 0.64788 0.67883 -0.02922
 O17 O 0.68022 0.64053 -0.01369
 O18 O 0.65039 0.69121 0.02356
 O19 O 0.68351 0.71590 0.01199
 O20 O 0.71200 0.66466 -0.02982
 O21 O 0.68168 0.70329 -0.03897
 O22 O 0.71777 0.67923 0.01999
 Cu23 Cu 0.66127 0.66508 0.00295
 Cu24 Cu 0.70207 0.69330 -0.01030
 C25 C 0.70713 0.66323 0.03553
 C26 C 0.65862 0.69519 -0.04431
 C27 C 0.70162 0.64323 -0.02702
 C28 C 0.66187 0.71207 0.02489
 O29 O 0.66481 0.35690 0.97356
 O30 O 0.63170 0.32430 1.03003
 O31 O 0.65915 0.36435 1.02606
 O32 O 0.63598 0.31730 0.97862
 O33 O 0.67152 0.29437 0.98719
 O34 O 0.69701 0.34430 1.03212
 O35 O 0.66893 0.30378 1.03846
 O36 O 0.70063 0.33382 0.98003
 Cu37 Cu 0.64442 0.34311 1.00126
 Cu38 Cu 0.68836 0.31708 1.01017
 C39 C 0.68815 0.35029 0.96661
 C40 C 0.64469 0.30839 1.04384
 C41 C 0.68169 0.36248 1.03759
 C42 C 0.64925 0.29750 0.97523
 O43 O 0.32295 0.64423 0.98623
 O44 O 0.36335 0.68210 1.03363
 O45 O 0.33867 0.64203 1.03846
 O46 O 0.35762 0.68213 0.98267
 O47 O 0.32323 0.70665 0.99039
 O48 O 0.30080 0.66213 1.04406
 O49 O 0.32711 0.70382 1.04257
 O50 O 0.28898 0.66940 0.99298
 Cu51 Cu 0.34833 0.65981 1.00870
 Cu52 Cu 0.30647 0.68766 1.01805
 C53 C 0.29884 0.65054 0.98163
 C54 C 0.35163 0.69948 1.04644
 C55 C 0.31692 0.64487 1.05108
 C56 C 0.34485 0.70191 0.97772
 O57 O -0.02846 0.35181 0.31472
 O58 O 0.02442 0.31738 0.35108
 O59 O 0.02335 0.35292 0.31513
 O60 O -0.02741 0.31637 0.35205
 O61 O -0.02642 0.28830 0.31980
 O62 O 0.02376 0.32480 0.28283
 O63 O 0.02493 0.28958 0.31844
 O64 O -0.02789 0.32354 0.28261
 Cu65 Cu -0.00229 0.33744 0.33650
 Cu66 Cu -0.00159 0.30380 0.29766
 C67 C -0.03671 0.34382 0.29204
 C68 C 0.03370 0.29755 0.34088
 C69 C 0.03229 0.34502 0.29267
 C70 C -0.03497 0.29561 0.34266
 O71 O -0.03323 0.63894 0.67935
 O72 O 0.01444 0.67770 0.64026
 O73 O 0.01688 0.64196 0.67879
 O74 O -0.03804 0.66623 0.63858
 O75 O -0.04079 0.69971 0.66386
 O76 O 0.01228 0.67246 0.70803
 O77 O 0.01006 0.70727 0.67056
 O78 O -0.03952 0.67069 0.70666
 Cu79 Cu -0.00864 0.65394 0.65583
 Cu80 Cu -0.01489 0.69059 0.69004
 C81 C -0.04472 0.64862 0.69977
 C82 C 0.02036 0.69923 0.64894
 C83 C 0.02331 0.65213 0.70091
 C84 C -0.04908 0.68679 0.64398
 O85 O 1.02863 0.64568 0.30685
 O86 O 0.97998 0.68542 0.34257
 O87 O 0.97712 0.64731 0.30979
 O88 O 1.03165 0.68072 0.34316
 O89 O 1.03323 0.70755 0.30936
 O90 O 0.97785 0.67437 0.27612
 O91 O 0.98188 0.71242 0.30886
 O92 O 1.02924 0.67277 0.27319
 Cu93 Cu 1.00419 0.66214 0.32901
 Cu94 Cu 1.00558 0.69446 0.28856
 C95 C 1.03691 0.65242 0.28359
 C96 C 0.97311 0.70603 0.33191
 C97 C 0.96848 0.65477 0.28700
 C98 C 1.04178 0.69989 0.33223
 O99 O 0.97647 0.31731 0.65949
 O100 O 1.02958 0.35232 0.69365
 O101 O 1.02834 0.31601 0.65792
 O102 O 0.97809 0.35276 0.69535
 O103 O 0.97897 0.32501 0.72835
 O104 O 1.02828 0.28829 0.69088
 O105 O 1.03023 0.32445 0.72652
 O106 O 0.97677 0.28981 0.69275
 Cu107 Cu 1.00320 0.33733 0.67322
 Cu108 Cu 1.00379 0.30408 0.71286
 C109 C 0.96756 0.29754 0.67026
 C110 C 1.03834 0.34480 0.71641
 C111 C 1.03638 0.29542 0.66773
 C112 C 0.97026 0.34527 0.71850
 O113 O 0.34011 0.02428 0.31323
 O114 O 0.30645 -0.02837 0.34607
 O115 O 0.34425 -0.02358 0.30943
 O116 O 0.30350 0.01964 0.35007
 O117 O 0.27259 0.01975 0.31827
 O118 O 0.31362 -0.02284 0.27739
 O119 O 0.27590 -0.02801 0.31393
 O120 O 0.30911 0.02489 0.28151
 Cu121 Cu 0.32666 -0.00220 0.33291
 Cu122 Cu 0.28975 -0.00166 0.29456
 C123 C 0.33032 0.03360 0.29171
 C124 C 0.28507 -0.03684 0.33592
 C125 C 0.33617 -0.03014 0.28613
 C126 C 0.28107 0.02707 0.34115
 O127 O 0.69574 -0.03340 0.65576
 O128 O 0.65974 0.01652 0.69053
 O129 O 0.69697 0.01472 0.65400
 O130 O 0.65719 -0.03159 0.69175
 O131 O 0.68729 -0.03175 0.72431
 O132 O 0.72743 0.01390 0.68624
 O133 O 0.69023 0.01632 0.72275
 O134 O 0.72581 -0.03405 0.68837
 Cu135 Cu 0.67436 -0.00852 0.66976
 Cu136 Cu 0.71067 -0.00905 0.70870
 C137 C 0.71725 -0.04189 0.66580
 C138 C 0.66886 0.02498 0.71262
 C139 C 0.71907 0.02214 0.66358
 C140 C 0.66519 -0.03922 0.71477
 O141 O 0.34727 0.97108 0.68495
 O142 O 0.31295 1.02281 0.65081
 O143 O 0.35016 1.01889 0.68789
 O144 O 0.31038 0.97423 0.64809
 O145 O 0.27957 0.97435 0.67993
 O146 O 0.31935 1.01841 0.71974
 O147 O 0.28232 1.02279 0.68284
 O148 O 0.31624 0.97076 0.71662
 Cu149 Cu 0.33317 0.99687 0.66460
 Cu150 Cu 0.29616 0.99667 0.70284
 C151 C 0.33772 0.96220 0.70676
 C152 C 0.29181 1.03174 0.66105
 C153 C 0.34177 1.02584 0.71096
 C154 C 0.28834 0.96635 0.65746
 O155 O 0.65354 0.98650 0.31559
 O156 O 0.68628 1.03722 0.35232
 O157 O 0.64897 1.03440 0.31494
 O158 O 0.69042 0.98881 0.35261
 O159 O 0.72117 0.99147 0.32083
 O160 O 0.67965 1.03608 0.28302
 O161 O 0.71654 1.03976 0.32010
 O162 O 0.68462 0.98849 0.28403
 Cu163 Cu 0.66679 1.01163 0.33717
 Cu164 Cu 0.70366 1.01429 0.29893
 C165 C 0.66343 0.97892 0.29343
 C166 C 0.70713 1.04718 0.34254
 C167 C 0.65700 1.04252 0.29212
 C168 C 0.71281 0.98216 0.34294
 C169 C 0.86900 0.77085 0.48962
 C170 C 0.86628 0.78614 0.46675
 C171 C 0.84945 0.80699 0.46827
 C172 C 0.83464 0.81215 0.49195
 C173 C 0.83716 0.79572 0.51432
 C174 C 0.85451 0.77537 0.51323
 C175 C 0.81738 0.83492 0.49349
 C176 C 0.81203 0.84601 0.51869
 C177 C 0.79659 0.86765 0.52053
 C178 C 0.78741 0.87914 0.49673
 C179 C 0.79255 0.86879 0.47126
 C180 C 0.80685 0.84631 0.46990
 H181 H 0.88281 0.75537 0.48939
 H182 H 0.84809 0.81920 0.45092
 H183 H 0.82546 0.79822 0.53249
 H184 H 0.81990 0.83798 0.53712
 H185 H 0.77699 0.89670 0.49807
 H186 H 0.80954 0.83781 0.45032
 C187 C 0.12686 0.22517 0.50245
 C188 C 0.13990 0.21923 0.47814
 C189 C 0.16178 0.20293 0.47893
 C190 C 0.16918 0.19063 0.50300
 C191 C 0.15591 0.19723 0.52717
 C192 C 0.13516 0.21489 0.52726
 C193 C 0.18907 0.16967 0.50254
 C194 C 0.20248 0.16231 0.52635
 C195 C 0.21736 0.14024 0.52743
 C196 C 0.22112 0.12663 0.50359
 C197 C 0.20973 0.13438 0.47900
 C198 C 0.19319 0.15552 0.47883
 H199 H 0.10943 0.23702 0.50195
 H200 H 0.17272 0.19958 0.46046
 H201 H 0.16130 0.18840 0.54604
 H202 H 0.20104 0.17335 0.54449
 H203 H 0.23189 0.10921 0.50437
 H204 H 0.18323 0.16050 0.46019
 C205 C 0.13044 0.76739 0.49401
 C206 C 0.13617 0.77801 0.51921
 C207 C 0.15644 0.79594 0.52091
 C208 C 0.17176 0.80257 0.49805
 C209 C 0.16703 0.78973 0.47361
 C210 C 0.14553 0.77325 0.47096
 C211 C 0.19043 0.82444 0.49879
 C212 C 0.19606 0.83766 0.47475
 C213 C 0.21143 0.85932 0.47488
 C214 C 0.22067 0.86854 0.49961
 C215 C 0.21537 0.85608 0.52406
 C216 C 0.20091 0.83368 0.52338
 H217 H 0.11323 0.75546 0.49216
 H218 H 0.15965 0.80507 0.54003
 H219 H 0.17956 0.79288 0.45616
 H220 H 0.18808 0.83160 0.45561
 H221 H 0.23094 0.88617 0.49989
 H222 H 0.19779 0.82375 0.54218
 C223 C 0.87523 0.22541 0.50938
 C224 C 0.86218 0.21922 0.53370
 C225 C 0.84015 0.20317 0.53287
 C226 C 0.83230 0.19171 0.50861
 C227 C 0.84575 0.19838 0.48452
 C228 C 0.86685 0.21555 0.48454
 C229 C 0.81162 0.17157 0.50859
 C230 C 0.79764 0.16592 0.48470
 C231 C 0.78229 0.14430 0.48262
 C232 C 0.77841 0.12954 0.50579
 C233 C 0.79022 0.13574 0.53064
 C234 C 0.80732 0.15642 0.53165
 H235 H 0.89273 0.23709 0.50990
 H236 H 0.82934 0.19945 0.55138
 H237 H 0.84020 0.18996 0.46558
 H238 H 0.79916 0.17794 0.46717
 H239 H 0.76724 0.11246 0.50420
 H240 H 0.81760 0.16031 0.55037
 C241 C 0.49793 0.87127 0.77828
 C242 C 0.47377 0.85891 0.78328
 C243 C 0.47402 0.83669 0.79818
 C244 C 0.49748 0.82782 0.81026
 C245 C 0.52153 0.84057 0.80510
 C246 C 0.52208 0.86204 0.78871
 C247 C 0.49656 0.80647 0.82976
 C248 C 0.51906 0.79134 0.83352
 C249 C 0.52065 0.77433 0.85516
 C250 C 0.49775 0.77035 0.87106
 C251 C 0.47394 0.78336 0.86593
 C252 C 0.47385 0.80204 0.84595
 H253 H 0.49780 0.88874 0.76736
 H254 H 0.45561 0.82655 0.80074
 H255 H 0.53989 0.83407 0.81417
 H256 H 0.53568 0.79322 0.81976
 H257 H 0.49844 0.75777 0.88817
 H258 H 0.45608 0.81314 0.84327
 C259 C 0.48818 0.12817 0.22412
 C260 C 0.46403 0.14051 0.21869
 C261 C 0.46438 0.16252 0.20338
 C262 C 0.48792 0.17109 0.19124
 C263 C 0.51192 0.15830 0.19687
 C264 C 0.51238 0.13717 0.21377
 C265 C 0.48719 0.19218 0.17132
 C266 C 0.51009 0.20656 0.16673
 C267 C 0.51144 0.22346 0.14505
 C268 C 0.48837 0.22795 0.12962
 C269 C 0.46439 0.21559 0.13529
 C270 C 0.46423 0.19711 0.15551
 H271 H 0.48805 0.11087 0.23536
 H272 H 0.44598 0.17271 0.20060
 H273 H 0.53035 0.16446 0.18782
 H274 H 0.52726 0.20434 0.17976
 H275 H 0.48919 0.24043 0.11241
 H276 H 0.44622 0.18653 0.15861
 C277 C 0.50717 0.11372 0.78135
 C278 C 0.53091 0.12654 0.78679
 C279 C 0.52985 0.14862 0.80165
 C280 C 0.50593 0.15691 0.81328
 C281 C 0.48236 0.14355 0.80778
 C282 C 0.48265 0.12232 0.79130
 C283 C 0.50582 0.17855 0.83225
 C284 C 0.48241 0.19253 0.83603
 C285 C 0.48063 0.21042 0.85649
 C286 C 0.50350 0.21602 0.87160
 C287 C 0.52785 0.20405 0.86665
 C288 C 0.52862 0.18470 0.84769
 H289 H 0.50788 0.09641 0.77035
 H290 H 0.54797 0.15913 0.80433
 H291 H 0.46365 0.14939 0.81650
 H292 H 0.46527 0.18938 0.82325
 H293 H 0.50230 0.22922 0.88798
 H294 H 0.54701 0.17450 0.84526
 C295 C 0.50623 0.88993 0.21510
 C296 C 0.53065 0.87814 0.20968
 C297 C 0.53090 0.85664 0.19380
 C298 C 0.50763 0.84795 0.18131
 C299 C 0.48334 0.86027 0.18681
 C300 C 0.48230 0.88087 0.20421
 C301 C 0.50887 0.82679 0.16175
 C302 C 0.48632 0.81186 0.15753
 C303 C 0.48561 0.79427 0.13669
 C304 C 0.50893 0.78976 0.12182
 C305 C 0.53256 0.80268 0.12725
 C306 C 0.53210 0.82186 0.14643
 H307 H 0.50592 0.90679 0.22690
 H308 H 0.54951 0.84681 0.19108
 H309 H 0.46511 0.85403 0.17746
 H310 H 0.46904 0.81404 0.17036
 H311 H 0.50870 0.77662 0.10533
 H312 H 0.54991 0.83278 0.14926
 C313 C 0.75746 0.48950 0.86937
 C314 C 0.76275 0.47017 0.85131
 C315 C 0.78241 0.47367 0.83152
 C316 C 0.79849 0.49506 0.83138
 C317 C 0.79332 0.51400 0.85039
 C318 C 0.77288 0.51119 0.86961
 C319 C 0.82242 0.49612 0.81352
 C320 C 0.83122 0.51871 0.80250
 C321 C 0.85486 0.51994 0.78723
 C322 C 0.86931 0.49802 0.78240
 C323 C 0.86055 0.47512 0.79262
 C324 C 0.83727 0.47444 0.80836
 H325 H 0.74233 0.48703 0.88475
 H326 H 0.78596 0.45911 0.81694
 H327 H 0.80615 0.53009 0.85143
 H328 H 0.81956 0.53536 0.80574
 H329 H 0.88803 0.49886 0.77154
 H330 H 0.83088 0.45691 0.81688
 C331 C 0.24287 0.49537 0.13461
 C332 C 0.22671 0.47435 0.13728
 C333 C 0.20610 0.47454 0.15651
 C334 C 0.20155 0.49531 0.17313
 C335 C 0.21825 0.51621 0.17009
 C336 C 0.23871 0.51627 0.15077
 C337 C 0.17831 0.49552 0.19212
 C338 C 0.16452 0.51770 0.19729
 C339 C 0.14102 0.51780 0.21271
 C340 C 0.13088 0.49527 0.22264
 C341 C 0.14426 0.47281 0.21783
 C342 C 0.16844 0.47330 0.20343
 H343 H 0.25827 0.49594 0.11923
 H344 H 0.19326 0.45853 0.15810
 H345 H 0.21568 0.53237 0.18273
 H346 H 0.17166 0.53497 0.18880
 H347 H 0.11186 0.49515 0.23299
 H348 H 0.17934 0.45616 0.20072
 C349 C 0.76551 0.50781 0.12827
 C350 C 0.78197 0.52800 0.13402
 C351 C 0.80251 0.52493 0.15291
 C352 C 0.80597 0.50251 0.16744
 C353 C 0.78895 0.48237 0.16135
 C354 C 0.76885 0.48502 0.14165
 C355 C 0.82775 0.50072 0.18824
 C356 C 0.84048 0.47809 0.19431
 C357 C 0.86310 0.47726 0.21128
 C358 C 0.87377 0.49964 0.22111
 C359 C 0.86127 0.52240 0.21543
 C360 C 0.83736 0.52236 0.20073
 H361 H 0.75005 0.50969 0.11305
 H362 H 0.81569 0.54039 0.15635
 H363 H 0.79065 0.46495 0.17220
 H364 H 0.83307 0.46111 0.18560
 H365 H 0.89239 0.49939 0.23220
 H366 H 0.82671 0.53970 0.19842
 C367 C 0.23646 0.50792 0.86626
 C368 C 0.22017 0.52899 0.86434
 C369 C 0.19808 0.52851 0.84679
 C370 C 0.19239 0.50746 0.83092
 C371 C 0.20954 0.48668 0.83300
 C372 C 0.23128 0.48682 0.85081
 C373 C 0.16799 0.50689 0.81336
 C374 C 0.15507 0.48429 0.80809
 C375 C 0.13159 0.48338 0.79264
 C376 C 0.12038 0.50562 0.78295
 C377 C 0.13260 0.52856 0.78818
 C378 C 0.15673 0.52889 0.80271
 H379 H 0.25285 0.50746 0.88056
 H380 H 0.18513 0.54452 0.84588
 H381 H 0.20641 0.47038 0.82073
 H382 H 0.16310 0.46718 0.81618
 H383 H 0.10157 0.50513 0.77218
 H384 H 0.16670 0.54646 0.80550
 C385 C 0.27492 0.39926 0.06707
 C386 C 0.24779 0.39563 0.06728
 C387 C 0.23534 0.37760 0.05186
 C388 C 0.25149 0.36274 0.03541
 C389 C 0.27956 0.36629 0.03444
 C390 C 0.29141 0.38482 0.05065
 O391 O 0.28262 0.41763 0.08304
 C392 C 0.25982 0.42581 0.09339
 C393 C 0.23794 0.41303 0.08431
 C394 C 0.21204 0.41906 0.09179
 C395 C 0.20852 0.43919 0.10932
 C396 C 0.23078 0.45266 0.11926
 C397 C 0.25684 0.44561 0.11117
 H398 H 0.21393 0.37515 0.05232
 H399 H 0.24200 0.34875 0.02308
 H400 H 0.31270 0.38805 0.05036
 H401 H 0.19511 0.40893 0.08401
 H402 H 0.18839 0.44457 0.11456
 H403 H 0.27432 0.45526 0.11841
 C404 C 0.73008 0.61452 0.08491
 C405 C 0.75709 0.61884 0.08496
 C406 C 0.76848 0.63916 0.07198
 C407 C 0.75144 0.65512 0.05749
 C408 C 0.72363 0.65033 0.05603
 C409 C 0.71280 0.63017 0.07081
 O410 O 0.72342 0.59333 0.09683
 C411 C 0.74673 0.58394 0.10435
 C412 C 0.76800 0.59873 0.09750
 C413 C 0.79430 0.59145 0.10160
 C414 C 0.79883 0.56806 0.11342
 C415 C 0.77716 0.55254 0.12102
 C416 C 0.75073 0.56084 0.11642
 H417 H 0.78982 0.64204 0.07202
 H418 H 0.76016 0.67031 0.04615
 H419 H 0.69183 0.62560 0.06969
 H420 H 0.81076 0.60312 0.09540
 H421 H 0.81921 0.56191 0.11614
 H422 H 0.73367 0.54966 0.12198
 C423 C 0.70449 0.39466 0.90955
 C424 C 0.72730 0.38389 0.89950
 C425 C 0.73786 0.36199 0.90996
 C426 C 0.72446 0.35080 0.93174
 C427 C 0.70102 0.36166 0.94268
 C428 C 0.69069 0.38372 0.93103
 O429 O 0.69955 0.41687 0.89894
 C430 C 0.71979 0.42030 0.88204
 C431 C 0.73725 0.40061 0.88150
 C432 C 0.76145 0.40150 0.86786
 C433 C 0.76858 0.42399 0.85546
 C434 C 0.75155 0.44509 0.85691
 C435 C 0.72610 0.44257 0.86913
 H436 H 0.75622 0.35420 0.90221
 H437 H 0.73265 0.33391 0.94035
 H438 H 0.67323 0.39279 0.93929
 H439 H 0.77520 0.38599 0.86836
 H440 H 0.78836 0.42544 0.84687
 H441 H 0.71259 0.45817 0.87083
 C442 C 0.27424 0.60318 0.93109
 C443 C 0.24723 0.60758 0.93232
 C444 C 0.23610 0.62581 0.94851
 C445 C 0.25348 0.64006 0.96421
 C446 C 0.28146 0.63574 0.96374
 C447 C 0.29196 0.61700 0.94680
 O448 O 0.28053 0.58468 0.91462
 C449 C 0.25698 0.57722 0.90547
 C450 C 0.23599 0.59056 0.91576
 C451 C 0.20955 0.58521 0.90981
 C452 C 0.20450 0.56510 0.89266
 C453 C 0.22578 0.55099 0.88153
 C454 C 0.25246 0.55749 0.88794
 H455 H 0.21478 0.62885 0.94920
 H456 H 0.24497 0.65419 0.97713
 H457 H 0.31314 0.61318 0.94601
 H458 H 0.19336 0.59577 0.91857
 H459 H 0.18396 0.56018 0.88875
 H460 H 0.26927 0.54740 0.87976
 C461 C 0.08106 0.27515 0.39534
 C462 C 0.09016 0.25354 0.38386
 C463 C 0.08252 0.24586 0.35819
 C464 C 0.06451 0.26092 0.34387
 C465 C 0.05437 0.28311 0.35543
 C466 C 0.06315 0.29044 0.38146
 O467 O 0.08968 0.27834 0.42051
 C468 C 0.10437 0.25822 0.42505
 C469 C 0.10528 0.24247 0.40326
 C470 C 0.11794 0.21956 0.40419
 C471 C 0.12989 0.21241 0.42870
 C472 C 0.12925 0.22825 0.45168
 C473 C 0.11658 0.25173 0.44948
 H474 H 0.08973 0.22862 0.34972
 H475 H 0.05804 0.25495 0.32402
 H476 H 0.05558 0.30705 0.39103
 H477 H 0.11784 0.20724 0.38694
 H478 H 0.13866 0.19408 0.42996
 H479 H 0.11558 0.26435 0.46642
 C480 C 0.06904 0.72408 0.59681
 C481 C 0.07133 0.74821 0.60542
 C482 C 0.05819 0.75719 0.62807
 C483 C 0.04188 0.74067 0.64239
 C484 C 0.03877 0.71567 0.63384
 C485 C 0.05272 0.70728 0.61069
 O486 O 0.08299 0.71954 0.57452
 C487 C 0.09417 0.74130 0.56896
 C488 C 0.08760 0.75946 0.58721
 C489 C 0.09632 0.78382 0.58474
 C490 C 0.11244 0.78978 0.56243
 C491 C 0.11975 0.77138 0.54327
 C492 C 0.11049 0.74671 0.54686
 H493 H 0.06027 0.77629 0.63438
 H494 H 0.03136 0.74757 0.65997
 H495 H 0.05075 0.68842 0.60355
 H496 H 0.09052 0.79786 0.59919
 H497 H 0.11860 0.80886 0.55981
 H498 H 0.11571 0.73213 0.53282
 C499 C 0.92509 0.73218 0.38323
 C500 C 0.92632 0.75705 0.37688
 C501 C 0.94139 0.76618 0.35545
 C502 C 0.95600 0.74901 0.34015
 C503 C 0.95566 0.72332 0.34679
 C504 C 0.93975 0.71483 0.36856
 O505 O 0.91008 0.72742 0.40472
 C506 C 0.90189 0.74976 0.41224
 C507 C 0.91136 0.76856 0.39603
 C508 C 0.90645 0.79348 0.40134
 C509 C 0.89136 0.79923 0.42446
 C510 C 0.88122 0.78011 0.44153
 C511 C 0.88633 0.75499 0.43480
 H512 H 0.94217 0.78583 0.35089
 H513 H 0.96823 0.75586 0.32367
 H514 H 0.93916 0.69540 0.37421
 H515 H 0.91456 0.80799 0.38857
 H516 H 0.88833 0.81856 0.42938
 H517 H 0.87874 0.73979 0.44693
 C518 C 0.92021 0.27488 0.61636
 C519 C 0.91167 0.25303 0.62790
 C520 C 0.91962 0.24526 0.65356
 C521 C 0.93739 0.26048 0.66778
 C522 C 0.94694 0.28292 0.65611
 C523 C 0.93782 0.29031 0.63013
 O524 O 0.91146 0.27819 0.59122
 C525 C 0.89721 0.25792 0.58673
 C526 C 0.89671 0.24193 0.60852
 C527 C 0.88445 0.21887 0.60760
 C528 C 0.87251 0.21187 0.58311
 C529 C 0.87281 0.22796 0.56015
 C530 C 0.88507 0.25153 0.56233
 H531 H 0.91286 0.22784 0.66210
 H532 H 0.94417 0.25445 0.68758
 H533 H 0.94495 0.30710 0.62044
 H534 H 0.88482 0.20637 0.62483
 H535 H 0.86396 0.19350 0.58183
 H536 H 0.88578 0.26434 0.54539
 C537 C 0.38273 0.08045 0.27259
 C538 C 0.37175 0.09029 0.24936
 C539 C 0.34693 0.08326 0.23959
 C540 C 0.33298 0.06507 0.25419
 C541 C 0.34409 0.05427 0.27797
 C542 C 0.36919 0.06244 0.28747
 O543 O 0.40720 0.08855 0.27747
 C544 C 0.41183 0.10372 0.25677
 C545 C 0.39077 0.10543 0.23902
 C546 C 0.39197 0.11887 0.21500
 C547 C 0.41598 0.13086 0.20887
 C548 C 0.43817 0.12938 0.22679
 C549 C 0.43577 0.11580 0.25131
 H550 H 0.33887 0.09106 0.22106
 H551 H 0.31383 0.05903 0.24659
 H552 H 0.37843 0.05436 0.30528
 H553 H 0.37533 0.11946 0.20105
 H554 H 0.41752 0.14047 0.18963
 H555 H 0.45221 0.11413 0.26542
 C556 C 0.61444 0.06938 0.73288
 C557 C 0.62487 0.07877 0.75645
 C558 C 0.64988 0.07212 0.76623
 C559 C 0.66464 0.05485 0.75123
 C560 C 0.65413 0.04459 0.72703
 C561 C 0.62877 0.05232 0.71761
 O562 O 0.58975 0.07702 0.72793
 C563 C 0.58442 0.09145 0.74893
 C564 C 0.60526 0.09315 0.76693
 C565 C 0.60344 0.10606 0.79112
 C566 C 0.57904 0.11748 0.79712
 C567 C 0.55710 0.11593 0.77894
 C568 C 0.56009 0.10290 0.75431
 H569 H 0.65753 0.07955 0.78501
 H570 H 0.68398 0.04913 0.75878
 H571 H 0.61999 0.04463 0.69946
 H572 H 0.61994 0.10671 0.80523
 H573 H 0.57704 0.12677 0.81641
 H574 H 0.54384 0.10124 0.74001
 C575 C 0.39165 0.91738 0.72786
 C576 C 0.38077 0.90776 0.75120
 C577 C 0.35556 0.91427 0.76045
 C578 C 0.34110 0.93170 0.74517
 C579 C 0.35209 0.94225 0.72123
 C580 C 0.37761 0.93461 0.71230
 O581 O 0.41643 0.90976 0.72343
 C582 C 0.42134 0.89513 0.74455
 C583 C 0.40016 0.89329 0.76211
 C584 C 0.40146 0.88018 0.78635
 C585 C 0.42567 0.86859 0.79284
 C586 C 0.44794 0.87012 0.77506
 C587 C 0.44552 0.88349 0.75041
 H588 H 0.34756 0.90664 0.77906
 H589 H 0.32163 0.93734 0.75234
 H590 H 0.38675 0.94253 0.69437
 H591 H 0.38469 0.87946 0.80011
 H592 H 0.42723 0.85911 0.81217
 H593 H 0.46203 0.88517 0.73642
 C594 C 0.61083 0.93437 0.26946
 C595 C 0.62231 0.92603 0.24591
 C596 C 0.64755 0.93326 0.23746
 C597 C 0.66138 0.95010 0.25377
 C598 C 0.64977 0.95938 0.27794
 C599 C 0.62426 0.95101 0.28605
 O600 O 0.58611 0.92631 0.27302
 C601 C 0.58184 0.91270 0.25115
 C602 C 0.60337 0.91193 0.23394
 C603 C 0.60270 0.90006 0.20908
 C604 C 0.57880 0.88862 0.20155
 C605 C 0.55618 0.88909 0.21892
 C606 C 0.55796 0.90118 0.24425
 H607 H 0.65602 0.92664 0.21867
 H608 H 0.68086 0.95633 0.24721
 H609 H 0.61464 0.95798 0.30411
 H610 H 0.61974 0.90017 0.19563
 H611 H 0.57773 0.88012 0.18176
 H612 H 0.54118 0.90201 0.25799
 C613 C 0.40005 0.27406 0.90582
 C614 C 0.38750 0.25313 0.89644
 C615 C 0.36129 0.24735 0.90282
 C616 C 0.34750 0.26369 0.91980
 C617 C 0.36018 0.28515 0.93030
 C618 C 0.38678 0.29051 0.92286
 O619 O 0.42549 0.27532 0.89867
 C620 C 0.42911 0.25462 0.88471
 C621 C 0.40651 0.24038 0.88280
 C622 C 0.40640 0.21699 0.87117
 C623 C 0.43072 0.20764 0.86162
 C624 C 0.45452 0.22185 0.86354
 C625 C 0.45332 0.24603 0.87466
 H626 H 0.35196 0.23059 0.89547
 H627 H 0.32719 0.25921 0.92534
 H628 H 0.39712 0.30655 0.93072
 H629 H 0.38848 0.20587 0.87055
 H630 H 0.43109 0.18887 0.85398
 H631 H 0.47086 0.25754 0.87647
 C632 C 0.60277 0.71390 0.90850
 C633 C 0.61525 0.73228 0.89387
 C634 C 0.64207 0.73788 0.89685
 C635 C 0.65654 0.72441 0.91623
 C636 C 0.64397 0.70601 0.93248
 C637 C 0.61679 0.70025 0.92799
 O638 O 0.57667 0.71301 0.90406
 C639 C 0.57262 0.73144 0.88655
 C640 C 0.59559 0.74383 0.87982
 C641 C 0.59567 0.76547 0.86451
 C642 C 0.57104 0.77496 0.85604
 C643 C 0.54675 0.76250 0.86233
 C644 C 0.54791 0.73999 0.87743
 H645 H 0.65132 0.75269 0.88535
 H646 H 0.67728 0.72913 0.91932
 H647 H 0.60646 0.68672 0.94038
 H648 H 0.61396 0.77542 0.86041
 H649 H 0.57114 0.79270 0.84573
 H650 H 0.53019 0.72975 0.88288
 C651 C 0.40693 0.72808 0.08777
 C652 C 0.39371 0.74824 0.09824
 C653 C 0.36689 0.75286 0.09358
 C654 C 0.35312 0.73614 0.07716
 C655 C 0.36635 0.71544 0.06546
 C656 C 0.39365 0.71122 0.07119
 O657 O 0.43276 0.72794 0.09362
 C658 C 0.43585 0.74858 0.10785
 C659 C 0.41256 0.76166 0.11114
 C660 C 0.41151 0.78475 0.12337
 C661 C 0.43556 0.79501 0.13228
 C662 C 0.46008 0.78196 0.12929
 C663 C 0.45992 0.75808 0.11729
 H664 H 0.35703 0.76901 0.10184
 H665 H 0.33228 0.73978 0.07302
 H666 H 0.40439 0.69580 0.06239
 H667 H 0.39299 0.79496 0.12502
 H668 H 0.43501 0.81359 0.14044
 H669 H 0.47800 0.74740 0.11462
 C670 C 0.59160 0.28493 0.09142
 C671 C 0.60443 0.26480 0.10271
 C672 C 0.63077 0.25884 0.09689
 C673 C 0.64431 0.27402 0.07832
 C674 C 0.63126 0.29448 0.06574
 C675 C 0.60464 0.30022 0.07288
 O676 O 0.56605 0.28633 0.09815
 C677 C 0.56260 0.26650 0.11378
 C678 C 0.58544 0.25269 0.11716
 C679 C 0.58576 0.22998 0.13055
 C680 C 0.56145 0.22092 0.14045
 C681 C 0.53741 0.23472 0.13716
 C682 C 0.53836 0.25820 0.12411
 H683 H 0.64031 0.24268 0.10572
 H684 H 0.66463 0.26926 0.07303
 H685 H 0.59396 0.31544 0.06341
 H686 H 0.60384 0.21909 0.13225
 H687 H 0.56134 0.20259 0.14950
 H688 H 0.52064 0.26937 0.12111
 C689 C 0.27209 0.07947 0.60852
 C690 C 0.24993 0.08969 0.62053
 C691 C 0.24087 0.08233 0.64594
 C692 C 0.25514 0.06355 0.65944
 C693 C 0.27792 0.05250 0.64734
 C694 C 0.28662 0.06089 0.62160
 O695 O 0.27635 0.08789 0.58360
 C696 C 0.25637 0.10368 0.57972
 C697 C 0.23967 0.10551 0.60171
 C698 C 0.21648 0.11964 0.60132
 C699 C 0.20994 0.13195 0.57710
 C700 C 0.22658 0.13001 0.55386
 C701 C 0.25049 0.11606 0.55559
 H702 H 0.22316 0.09040 0.65481
 H703 H 0.24815 0.05737 0.67910
 H704 H 0.30365 0.05265 0.61160
 H705 H 0.20336 0.12039 0.61870
 H706 H 0.19123 0.14196 0.57613
 H707 H 0.26365 0.11406 0.53836
 C708 C 0.72626 0.09037 0.39743
 C709 C 0.74866 0.10088 0.38626
 C710 C 0.75772 0.09513 0.36045
 C711 C 0.74327 0.07757 0.34563
 C712 C 0.72020 0.06605 0.35678
 C713 C 0.71141 0.07306 0.38299
 O714 O 0.72217 0.09703 0.42294
 C715 C 0.74253 0.11198 0.42802
 C716 C 0.75926 0.11500 0.40620
 C717 C 0.78280 0.12841 0.40758
 C718 C 0.78963 0.13881 0.43260
 C719 C 0.77292 0.13572 0.45566
 C720 C 0.74873 0.12242 0.45303
 H721 H 0.77565 0.10339 0.35227
 H722 H 0.75048 0.07265 0.32569
 H723 H 0.69421 0.06456 0.39246
 H724 H 0.79594 0.13007 0.39028
 H725 H 0.80857 0.14826 0.43421
 H726 H 0.73556 0.11953 0.47011
 C727 C 0.74105 0.91737 0.60905
 C728 C 0.76600 0.91090 0.61828
 C729 C 0.77545 0.91780 0.64362
 C730 C 0.75870 0.93243 0.65983
 C731 C 0.73314 0.93993 0.65038
 C732 C 0.72410 0.93179 0.62478
 O733 O 0.73628 0.90995 0.58397
 C734 C 0.75876 0.89867 0.57712
 C735 C 0.77764 0.89874 0.59732
 C736 C 0.80310 0.88901 0.59383
 C737 C 0.80928 0.87877 0.56849
 C738 C 0.79004 0.87838 0.54734
 C739 C 0.76437 0.88842 0.55196
 H740 H 0.79524 0.91267 0.65038
 H741 H 0.76603 0.93858 0.67929
 H742 H 0.70491 0.93740 0.61676
 H743 H 0.81780 0.88966 0.60986
 H744 H 0.82920 0.87163 0.56522
 H745 H 0.74915 0.88836 0.53640
 C746 C 0.26361 0.91808 0.39023
 C747 C 0.23864 0.91184 0.38104
 C748 C 0.22843 0.92040 0.35653
 C749 C 0.24443 0.93646 0.34111
 C750 C 0.27000 0.94376 0.35053
 C751 C 0.27982 0.93399 0.37527
 O752 O 0.26916 0.90870 0.41448
 C753 C 0.24715 0.89640 0.42083
 C754 C 0.22783 0.89779 0.40111
 C755 C 0.20274 0.88728 0.40422
 C756 C 0.19742 0.87474 0.42860
 C757 C 0.21717 0.87276 0.44919
 C758 C 0.24243 0.88380 0.44504
 H759 H 0.20865 0.91536 0.34980
 H760 H 0.23650 0.94383 0.32231
 H761 H 0.29907 0.93935 0.38323
 H762 H 0.18767 0.88903 0.38863
 H763 H 0.17774 0.86702 0.43157
 H764 H 0.25799 0.88265 0.46020
 C765 C 0.07834 0.40013 0.73920
 C766 C 0.08530 0.39269 0.76494
 C767 C 0.07928 0.36931 0.77523
 C768 C 0.06493 0.35313 0.75851
 C769 C 0.05679 0.36058 0.73211
 C770 C 0.06411 0.38435 0.72223
 O771 O 0.08540 0.42333 0.73360
 C772 C 0.09696 0.43072 0.75637
 C773 C 0.09731 0.41271 0.77619
 C774 C 0.10760 0.41676 0.80192
 C775 C 0.11831 0.44024 0.80732
 C776 C 0.11880 0.45907 0.78703
 C777 C 0.10768 0.45415 0.76121
 H778 H 0.08491 0.36391 0.79560
 H779 H 0.05943 0.33512 0.76653
 H780 H 0.05798 0.39080 0.70236
 H781 H 0.10724 0.40242 0.81735
 H782 H 0.12607 0.44374 0.82740
 H783 H 0.10776 0.46798 0.74522
 C784 C 0.07941 0.59799 0.26232
 C785 C 0.08591 0.60508 0.23634
 C786 C 0.07795 0.62756 0.22507
 C787 C 0.06237 0.64329 0.24113
 C788 C 0.05495 0.63628 0.26789
 C789 C 0.06387 0.61331 0.27866
 O790 O 0.08876 0.57572 0.26895
 C791 C 0.10132 0.56860 0.24663
 C792 C 0.10009 0.58588 0.22608
 C793 C 0.11131 0.58203 0.20073
 C794 C 0.12453 0.55945 0.19642
 C795 C 0.12648 0.54138 0.21742
 C796 C 0.11454 0.54612 0.24288
 H797 H 0.08330 0.63269 0.20456
 H798 H 0.05572 0.66073 0.23247
 H799 H 0.05849 0.60732 0.29890
 H800 H 0.10976 0.59580 0.18477
 H801 H 0.13293 0.55597 0.17660
 H802 H 0.11572 0.53282 0.25937
 C803 C 0.92011 0.39696 0.26753
 C804 C 0.91351 0.38876 0.24207
 C805 C 0.92113 0.36563 0.23243
 C806 C 0.93660 0.35051 0.24955
 C807 C 0.94430 0.35875 0.27571
 C808 C 0.93549 0.38224 0.28490
 O809 O 0.91150 0.41980 0.27246
 C810 C 0.89935 0.42619 0.24955
 C811 C 0.90009 0.40789 0.23028
 C812 C 0.88954 0.41106 0.20445
 C813 C 0.87759 0.43397 0.19827
 C814 C 0.87616 0.45314 0.21791
 C815 C 0.88732 0.44901 0.24396
 H816 H 0.91579 0.35962 0.21226
 H817 H 0.94319 0.33268 0.24205
 H818 H 0.94120 0.38926 0.30457
 H819 H 0.89079 0.39653 0.18945
 H820 H 0.86989 0.43684 0.17801
 H821 H 0.88656 0.46307 0.25952
 C822 C 0.91250 0.59621 0.72620
 C823 C 0.90194 0.60704 0.74898
 C824 C 0.90734 0.63134 0.75630
 C825 C 0.92451 0.64500 0.73957
 C826 C 0.93606 0.63418 0.71611
 C827 C 0.92969 0.60943 0.70927
 O828 O 0.90557 0.57261 0.72348
 C829 C 0.89044 0.56847 0.74509
 C830 C 0.88762 0.58893 0.76134
 C831 C 0.87376 0.58837 0.78570
 C832 C 0.86256 0.56570 0.79379
 C833 C 0.86522 0.54419 0.77745
 C834 C 0.87912 0.54587 0.75251
 H835 H 0.89894 0.63939 0.77444
 H836 H 0.92913 0.66389 0.74522
 H837 H 0.93828 0.60054 0.69168
 H838 H 0.87222 0.60464 0.79836
 H839 H 0.85261 0.56479 0.81323
 H840 H 0.88150 0.52997 0.73941
 C841 C 0.74111 0.59929 0.93077
 C842 C 0.73916 0.57851 0.94691
 C843 C 0.72469 0.57788 0.97080
 C844 C 0.71164 0.59960 0.97856
 C845 C 0.71438 0.62192 0.96330
 C846 C 0.72990 0.62188 0.93922
 O847 O 0.75241 0.59456 0.90690
 C848 C 0.75787 0.57036 0.90832
 C849 C 0.75072 0.56002 0.93276
 C850 C 0.75367 0.53503 0.93878
 C851 C 0.76338 0.51969 0.91835
 C852 C 0.76870 0.52918 0.89198
 C853 C 0.76697 0.55516 0.88720
 H854 H 0.72265 0.56098 0.98255
 H855 H 0.70006 0.59915 0.99709
 H856 H 0.73164 0.63833 0.92667
 H857 H 0.74809 0.52749 0.95833
 H858 H 0.76555 0.50008 0.92277
 H859 H 0.77073 0.56295 0.86731
 C860 C 0.27417 0.39616 0.89760
 C861 C 0.29484 0.40980 0.88695
 C862 C 0.32123 0.40597 0.89423
 C863 C 0.32661 0.38760 0.91360
 C864 C 0.30578 0.37302 0.92510
 C865 C 0.27916 0.37696 0.91622
 O866 O 0.25038 0.40515 0.89075
 C867 C 0.25625 0.42485 0.87553
 C868 C 0.28324 0.42829 0.87241
 C869 C 0.29406 0.44908 0.85978
 C870 C 0.27640 0.46749 0.85073
 C871 C 0.24856 0.46487 0.85450
 C872 C 0.23825 0.44291 0.86634
 H873 H 0.33704 0.41746 0.88617
 H874 H 0.34714 0.38500 0.91982
 H875 H 0.26268 0.36684 0.92508
 H876 H 0.31540 0.45161 0.85821
 H877 H 0.28441 0.48443 0.84210
 H878 H 0.21715 0.44098 0.87043
 C879 C 0.28022 0.60602 0.10125
 C880 C 0.30115 0.59251 0.11175
 C881 C 0.32735 0.59609 0.10381
 C882 C 0.33227 0.61405 0.08392
 C883 C 0.31120 0.62852 0.07257
 C884 C 0.28478 0.62487 0.08211
 O885 O 0.25660 0.59721 0.10880
 C886 C 0.26285 0.57777 0.12431
 C887 C 0.28991 0.57432 0.12694
 C888 C 0.30107 0.55374 0.13976
 C889 C 0.28368 0.53551 0.14958
 C890 C 0.25577 0.53814 0.14635
 C891 C 0.24512 0.55990 0.13425
 H892 H 0.34335 0.58469 0.11178
 H893 H 0.35267 0.61646 0.07722
 H894 H 0.26810 0.63491 0.07339
 H895 H 0.32245 0.55118 0.14092
 H896 H 0.29192 0.51870 0.15835
 H897 H 0.22393 0.56176 0.13056
 C898 C 0.72131 0.40135 0.08534
 C899 C 0.70140 0.41653 0.09488
 C900 C 0.67522 0.41505 0.08606
 C901 C 0.66912 0.39710 0.06667
 C902 C 0.68896 0.38050 0.05677
 C903 C 0.71551 0.38260 0.06662
 O904 O 0.74534 0.40776 0.09435
 C905 C 0.74036 0.42732 0.10995
 C906 C 0.71367 0.43314 0.11115
 C907 C 0.70390 0.45373 0.12477
 C908 C 0.72245 0.46955 0.13687
 C909 C 0.75018 0.46476 0.13493
 C910 C 0.75927 0.44291 0.12197
 H911 H 0.66009 0.42769 0.09337
 H912 H 0.64869 0.39605 0.05969
 H913 H 0.73134 0.37076 0.05919
 H914 H 0.68282 0.45804 0.12510
 H915 H 0.71535 0.48635 0.14645
 H916 H 0.78036 0.43929 0.11945
 C917 C 0.90314 0.72728 0.60639
 C918 C 0.89043 0.70966 0.59105
 C919 C 0.89625 0.68455 0.59292
 C920 C 0.91624 0.67722 0.61105
 C921 C 0.92967 0.69483 0.62755
 C922 C 0.92233 0.72026 0.62567
 O923 O 0.89740 0.75033 0.59852
 C924 C 0.88073 0.74710 0.57785
 C925 C 0.87559 0.72250 0.57277
 C926 C 0.86095 0.71457 0.55054
 C927 C 0.85197 0.73266 0.53221
 C928 C 0.85790 0.75805 0.53625
 C929 C 0.87178 0.76550 0.55984
 H930 H 0.88660 0.67115 0.57997
 H931 H 0.92130 0.65768 0.61206
 H932 H 0.93271 0.73432 0.63714
 H933 H 0.85775 0.69506 0.54668
 H934 H 0.84181 0.72682 0.51395
 H935 H 0.87750 0.78466 0.56272
 C936 C 0.92381 0.27077 0.39932
 C937 C 0.91871 0.24732 0.38987
 C938 C 0.92703 0.23932 0.36453
 C939 C 0.94162 0.25599 0.34843
 C940 C 0.94804 0.28017 0.35795
 C941 C 0.93849 0.28765 0.38376
 O942 O 0.91435 0.27454 0.42411
 C943 C 0.90321 0.25294 0.43047
 C944 C 0.90547 0.23562 0.41028
 C945 C 0.89617 0.21148 0.41309
 C946 C 0.88385 0.20494 0.43764
 C947 C 0.88062 0.22258 0.45876
 C948 C 0.89062 0.24698 0.45490
 H949 H 0.92273 0.22076 0.35752
 H950 H 0.94854 0.24966 0.32887
 H951 H 0.94290 0.30580 0.39190
 H952 H 0.89865 0.19803 0.39709
 H953 H 0.87727 0.18599 0.44022
 H954 H 0.88851 0.26105 0.47031
 C955 C 0.07786 0.27041 0.61154
 C956 C 0.08314 0.24702 0.62143
 C957 C 0.07483 0.23912 0.64688
 C958 C 0.06007 0.25583 0.66264
 C959 C 0.05343 0.27993 0.65266
 C960 C 0.06293 0.28730 0.62672
 O961 O 0.08741 0.27410 0.58674
 C962 C 0.09877 0.25250 0.58082
 C963 C 0.09656 0.23526 0.60129
 C964 C 0.10600 0.21112 0.59890
 C965 C 0.11837 0.20447 0.57446
 C966 C 0.12154 0.22202 0.55305
 C967 C 0.11148 0.24647 0.55656
 H968 H 0.07928 0.22062 0.65425
 H969 H 0.05320 0.24958 0.68231
 H970 H 0.05838 0.30540 0.61825
 H971 H 0.10354 0.19771 0.61511
 H972 H 0.12497 0.18548 0.57220
 H973 H 0.11357 0.26052 0.54096
 C974 C 0.08908 0.71948 0.38585
 C975 C 0.09881 0.74102 0.37463
 C976 C 0.09133 0.74935 0.34901
 C977 C 0.07282 0.73507 0.33450
 C978 C 0.06194 0.71296 0.34585
 C979 C 0.07076 0.70498 0.37184
 O980 O 0.09734 0.71562 0.41108
 C981 C 0.11248 0.73524 0.41599
 C982 C 0.11407 0.75135 0.39437
 C983 C 0.12721 0.77398 0.39587
 C984 C 0.13863 0.78050 0.42082
 C985 C 0.13688 0.76440 0.44372
 C986 C 0.12412 0.74111 0.44081
 H987 H 0.09898 0.76654 0.34071
 H988 H 0.06652 0.74167 0.31474
 H989 H 0.06287 0.68846 0.38146
 H990 H 0.12772 0.78662 0.37877
 H991 H 0.14760 0.79866 0.42255
 H992 H 0.12228 0.72828 0.45765
 C993 C 0.60754 0.92027 0.73747
 C994 C 0.61560 0.91408 0.76327
 C995 C 0.63982 0.92177 0.77403
 C996 C 0.65628 0.93664 0.75764
 C997 C 0.64832 0.94365 0.73103
 C998 C 0.62357 0.93508 0.72083
 O999 O 0.58365 0.91134 0.73127
 C1000 C 0.57645 0.89933 0.75368
 C1001 C 0.59526 0.90048 0.77388
 C1002 C 0.59149 0.88969 0.79924
 C1003 C 0.56739 0.87715 0.80397
 C1004 C 0.54762 0.87542 0.78341
 C1005 C 0.55243 0.88679 0.75785
 H1006 H 0.64573 0.91672 0.79442
 H1007 H 0.67503 0.94302 0.76592
 H1008 H 0.61674 0.94014 0.70073
 H1009 H 0.60645 0.89110 0.81496
 H1010 H 0.56403 0.86921 0.82386
 H1011 H 0.53799 0.88579 0.74160
 C1012 C 0.39520 0.93292 0.26008
 C1013 C 0.38705 0.92816 0.23403
 C1014 C 0.36232 0.93563 0.22414
 C1015 C 0.34543 0.94877 0.24171
 C1016 C 0.35348 0.95431 0.26862
 C1017 C 0.37876 0.94600 0.27790
 O1018 O 0.41958 0.92448 0.26536
 C1019 C 0.42699 0.91426 0.24210
 C1020 C 0.40785 0.91606 0.22226
 C1021 C 0.41174 0.90708 0.19619
 C1022 C 0.43629 0.89569 0.19036
 C1023 C 0.45640 0.89329 0.21054
 C1024 C 0.45147 0.90284 0.23683
 H1025 H 0.35633 0.93172 0.20354
 H1026 H 0.32629 0.95499 0.23411
 H1027 H 0.38567 0.94999 0.29819
 H1028 H 0.39650 0.90898 0.18079
 H1029 H 0.43971 0.88912 0.16997
 H1030 H 0.46614 0.90124 0.25283
 C1031 C 0.59825 0.08115 0.26778
 C1032 C 0.60649 0.08697 0.24195
 C1033 C 0.63110 0.07970 0.23177
 C1034 C 0.64780 0.06564 0.24876
 C1035 C 0.63969 0.05895 0.27541
 C1036 C 0.61452 0.06706 0.28505
 O1037 O 0.57401 0.08973 0.27336
 C1038 C 0.56681 0.10110 0.25052
 C1039 C 0.58594 0.09987 0.23066
 C1040 C 0.58231 0.10999 0.20496
 C1041 C 0.55802 0.12201 0.19951
 C1042 C 0.53794 0.12396 0.21973
 C1043 C 0.54258 0.11318 0.24564
 H1044 H 0.63714 0.08450 0.21135
 H1045 H 0.66687 0.05960 0.24089
 H1046 H 0.60760 0.06222 0.30516
 H1047 H 0.59755 0.10848 0.18953
 H1048 H 0.55479 0.12944 0.17936
 H1049 H 0.52790 0.11436 0.26165
 C1050 C 0.39906 0.06516 0.73642
 C1051 C 0.39039 0.07037 0.76220
 C1052 C 0.36594 0.06234 0.77209
 C1053 C 0.34985 0.04817 0.75481
 C1054 C 0.35842 0.04217 0.72817
 C1055 C 0.38341 0.05102 0.71888
 O1056 O 0.42305 0.07437 0.73110
 C1057 C 0.42968 0.08556 0.75406
 C1058 C 0.41042 0.08361 0.77374
 C1059 C 0.41349 0.09355 0.79949
 C1060 C 0.43734 0.10611 0.80516
 C1061 C 0.45753 0.10869 0.78514
 C1062 C 0.45346 0.09813 0.75918
 H1063 H 0.35955 0.06665 0.79247
 H1064 H 0.33090 0.04156 0.76240
 H1065 H 0.39067 0.04674 0.69878
 H1066 H 0.39817 0.09153 0.81476
 H1067 H 0.44016 0.11346 0.82532
 H1068 H 0.46825 0.09982 0.74332
 C1069 C 0.61368 0.74400 0.07170
 C1070 C 0.62101 0.76845 0.06893
 C1071 C 0.64264 0.77569 0.05299
 C1072 C 0.65687 0.75702 0.03913
 C1073 C 0.64913 0.73175 0.04134
 C1074 C 0.62743 0.72535 0.05829
 O1075 O 0.59212 0.74075 0.08673
 C1076 C 0.58545 0.76363 0.09360
 C1077 C 0.60237 0.78140 0.08335
 C1078 C 0.59806 0.80668 0.08747
 C1079 C 0.57536 0.81376 0.10244
 C1080 C 0.55747 0.79562 0.11279
 C1081 C 0.56305 0.77021 0.10852
 H1082 H 0.64802 0.79503 0.05084
 H1083 H 0.67330 0.76230 0.02614
 H1084 H 0.62078 0.70634 0.06044
 H1085 H 0.61140 0.82045 0.07904
 H1086 H 0.57133 0.83332 0.10527
 H1087 H 0.55005 0.75582 0.11627
 C1088 C 0.38521 0.27079 0.07189
 C1089 C 0.37735 0.24637 0.07201
 C1090 C 0.35587 0.23805 0.05657
 C1091 C 0.34246 0.25550 0.04003
 C1092 C 0.35088 0.28063 0.03906
 C1093 C 0.37226 0.28828 0.05576
 O1094 O 0.40668 0.27498 0.08681
 C1095 C 0.41273 0.25271 0.09651
 C1096 C 0.39552 0.23446 0.08815
 C1097 C 0.39931 0.20959 0.09504
 C1098 C 0.42173 0.20339 0.11096
 C1099 C 0.43988 0.22199 0.11959
 C1100 C 0.43486 0.24704 0.11241
 H1101 H 0.35010 0.21872 0.05670
 H1102 H 0.32632 0.24926 0.02721
 H1103 H 0.37943 0.30721 0.05545
 H1104 H 0.38581 0.19539 0.08796
 H1105 H 0.42533 0.18407 0.11583
 H1106 H 0.44805 0.26180 0.11871
 C1107 C 0.60398 0.26516 0.92594
 C1108 C 0.61295 0.24107 0.92772
 C1109 C 0.63476 0.23436 0.94371
 C1110 C 0.64745 0.25318 0.95866
 C1111 C 0.63799 0.27802 0.95756
 C1112 C 0.61615 0.28396 0.94056
 O1113 O 0.58250 0.26778 0.91058
 C1114 C 0.57758 0.24484 0.90255
 C1115 C 0.59550 0.22768 0.91240
 C1116 C 0.59298 0.20238 0.90730
 C1117 C 0.57100 0.19457 0.89173
 C1118 C 0.55210 0.21204 0.88166
 C1119 C 0.55595 0.23758 0.88691
 H1120 H 0.64144 0.21529 0.94504
 H1121 H 0.66404 0.24826 0.97168
 H1122 H 0.60826 0.30265 0.93927
 H1123 H 0.60707 0.18909 0.91550
 H1124 H 0.56830 0.17493 0.88827
 H1125 H 0.54217 0.25151 0.87942
 C1126 C 0.39204 0.72921 0.92647
 C1127 C 0.38504 0.75389 0.92702
 C1128 C 0.36346 0.76252 0.94212
 C1129 C 0.34905 0.74511 0.95774
 C1130 C 0.35657 0.71970 0.95806
 C1131 C 0.37803 0.71175 0.94160
 O1132 O 0.41377 0.72470 0.91205
 C1133 C 0.42088 0.74700 0.90333
 C1134 C 0.40407 0.76560 0.91185
 C1135 C 0.40882 0.79049 0.90587
 C1136 C 0.43172 0.79633 0.89059
 C1137 C 0.44939 0.77737 0.88169
 C1138 C 0.44355 0.75234 0.88812
 H1139 H 0.35838 0.78204 0.94253
 H1140 H 0.33289 0.75159 0.97042
 H1141 H 0.38457 0.69259 0.94148
 H1142 H 0.39561 0.80493 0.91305
 H1143 H 0.43595 0.81563 0.88628
 H1144 H 0.45637 0.73734 0.88159
 C1145 C 0.73753 0.93574 0.39534
 C1146 C 0.76082 0.92795 0.38337
 C1147 C 0.76951 0.93708 0.35852
 C1148 C 0.75354 0.95493 0.34544
 C1149 C 0.72934 0.96333 0.35727
 C1150 C 0.72128 0.95345 0.38265
 O1151 O 0.73327 0.92522 0.41935
 C1152 C 0.75434 0.91052 0.42260
 C1153 C 0.77177 0.91145 0.40115
 C1154 C 0.79549 0.89804 0.40071
 C1155 C 0.80172 0.88339 0.42350
 C1156 C 0.78430 0.88235 0.44618
 C1157 C 0.76003 0.89594 0.44537
 H1158 H 0.78800 0.93080 0.34957
 H1159 H 0.76011 0.96217 0.32606
 H1160 H 0.70305 0.95947 0.39237
 H1161 H 0.80902 0.89924 0.38369
 H1162 H 0.82058 0.87359 0.42382
 H1163 H 0.74616 0.89556 0.46216
 C1164 C 0.26679 0.92048 0.60376
 C1165 C 0.24355 0.91167 0.61497
 C1166 C 0.23382 0.92000 0.63969
 C1167 C 0.24869 0.93805 0.65345
 C1168 C 0.27281 0.94748 0.64238
 C1169 C 0.28192 0.93842 0.61710
 O1170 O 0.27207 0.91076 0.57968
 C1171 C 0.25169 0.89554 0.57558
 C1172 C 0.23371 0.89533 0.59658
 C1173 C 0.21041 0.88139 0.59596
 C1174 C 0.20513 0.86756 0.57249
 C1175 C 0.22307 0.86786 0.55020
 C1176 C 0.24701 0.88172 0.55223
 H1177 H 0.21536 0.91296 0.64803
 H1178 H 0.24134 0.94465 0.67273
 H1179 H 0.30012 0.94523 0.60796
 H1180 H 0.19639 0.88172 0.61261
 H1181 H 0.18650 0.85754 0.57127
 H1182 H 0.26124 0.88239 0.53577
 C1183 C 0.25862 0.07061 0.39666
 C1184 C 0.23285 0.07548 0.38868
 C1185 C 0.22180 0.06545 0.36535
 C1186 C 0.23792 0.04972 0.34966
 C1187 C 0.26454 0.04419 0.35757
 C1188 C 0.27494 0.05494 0.38148
 O1189 O 0.26526 0.08183 0.41955
 C1190 C 0.24319 0.09398 0.42624
 C1191 C 0.22273 0.09071 0.40809
 C1192 C 0.19769 0.10138 0.41161
 C1193 C 0.19355 0.11589 0.43484
 C1194 C 0.21437 0.11961 0.45394
 C1195 C 0.23961 0.10850 0.44926
 H1196 H 0.20145 0.06949 0.35946
 H1197 H 0.22954 0.04168 0.33151
 H1198 H 0.29512 0.05117 0.38816
 H1199 H 0.18178 0.09835 0.39720
 H1200 H 0.17394 0.12369 0.43817
 H1201 H 0.25608 0.11104 0.46315
 C1202 C 0.74125 0.06850 0.61027
 C1203 C 0.76705 0.07283 0.61838
 C1204 C 0.77814 0.06164 0.64122
 C1205 C 0.76205 0.04525 0.65621
 C1206 C 0.73543 0.04020 0.64809
 C1207 C 0.72496 0.05216 0.62474
 O1208 O 0.73459 0.08083 0.58790
 C1209 C 0.75668 0.09313 0.58169
 C1210 C 0.77717 0.08886 0.59962
 C1211 C 0.80226 0.09943 0.59646
 C1212 C 0.80642 0.11493 0.57385
 C1213 C 0.78556 0.11978 0.55501
 C1214 C 0.76026 0.10869 0.55930
 H1215 H 0.79851 0.06528 0.64722
 H1216 H 0.77049 0.03626 0.67392
 H1217 H 0.70479 0.04877 0.61792
 H1218 H 0.81820 0.09558 0.61066
 H1219 H 0.82609 0.12265 0.57079
 H1220 H 0.74376 0.11203 0.54562
 C1221 C 0.92365 0.60161 0.26685
 C1222 C 0.91358 0.61053 0.24280
 C1223 C 0.91965 0.63398 0.23268
 C1224 C 0.93714 0.64877 0.24780
 C1225 C 0.94816 0.63994 0.27255
 C1226 C 0.94095 0.61606 0.28230
 O1227 O 0.91613 0.57848 0.27233
 C1228 C 0.90101 0.57264 0.25120
 C1229 C 0.89885 0.59164 0.23260
 C1230 C 0.88487 0.58933 0.20849
 C1231 C 0.87255 0.56655 0.20331
 C1232 C 0.87412 0.54653 0.22220
 C1233 C 0.88872 0.54976 0.24655
 H1234 H 0.91160 0.64049 0.21357
 H1235 H 0.94245 0.66688 0.23995
 H1236 H 0.94924 0.60857 0.30088
 H1237 H 0.88385 0.60441 0.19395
 H1238 H 0.86228 0.56439 0.18418
 H1239 H 0.89051 0.53497 0.26137
 C1240 C 0.92544 0.39782 0.74118
 C1241 C 0.91931 0.39005 0.76702
 C1242 C 0.92831 0.36767 0.77776
 C1243 C 0.94452 0.35279 0.76131
 C1244 C 0.95155 0.36050 0.73467
 C1245 C 0.94159 0.38334 0.72446
 O1246 O 0.91510 0.41985 0.73503
 C1247 C 0.90227 0.42612 0.75752
 C1248 C 0.90429 0.40856 0.77771
 C1249 C 0.89289 0.41160 0.80314
 C1250 C 0.87871 0.43362 0.80793
 C1251 C 0.87598 0.45202 0.78735
 C1252 C 0.88809 0.44807 0.76176
 H1253 H 0.92325 0.36197 0.79818
 H1254 H 0.95195 0.33546 0.76958
 H1255 H 0.94664 0.38988 0.70433
 H1256 H 0.89503 0.39763 0.81882
 H1257 H 0.87020 0.43643 0.82783
 H1258 H 0.88632 0.46155 0.74551
 C1259 C 0.06965 0.60293 0.72882
 C1260 C 0.07742 0.61338 0.75288
 C1261 C 0.06889 0.63687 0.76088
 C1262 C 0.05148 0.64994 0.74346
 C1263 C 0.04305 0.63939 0.71860
 C1264 C 0.05262 0.61559 0.71124
 O1265 O 0.07905 0.58014 0.72528
 C1266 C 0.09310 0.57600 0.74762
 C1267 C 0.09285 0.59574 0.76519
 C1268 C 0.10574 0.59496 0.79014
 C1269 C 0.11922 0.57295 0.79728
 C1270 C 0.11956 0.55221 0.77959
 C1271 C 0.10637 0.55400 0.75427
 H1272 H 0.07507 0.64469 0.78002
 H1273 H 0.04431 0.66803 0.74953
 H1274 H 0.04644 0.60674 0.69263
 H1275 H 0.10511 0.61058 0.80381
 H1276 H 0.12877 0.57187 0.81693
 H1277 H 0.10623 0.53866 0.74021
 C1278 C 0.07878 0.39669 0.27098
 C1279 C 0.08929 0.38675 0.24770
 C1280 C 0.08244 0.36335 0.23834
 C1281 C 0.06390 0.34965 0.25351
 C1282 C 0.05256 0.35948 0.27757
 C1283 C 0.06036 0.38336 0.28646
 O1284 O 0.08723 0.41959 0.27576
 C1285 C 0.10337 0.42421 0.25501
 C1286 C 0.10533 0.40469 0.23730
 C1287 C 0.12030 0.40585 0.21366
 C1288 C 0.13358 0.42812 0.20785
 C1289 C 0.13182 0.44874 0.22564
 C1290 C 0.11662 0.44648 0.24977
 H1291 H 0.09083 0.35601 0.21984
 H1292 H 0.05824 0.33146 0.24634
 H1293 H 0.05197 0.39154 0.30454
 H1294 H 0.12122 0.39035 0.19984
 H1295 H 0.14445 0.42952 0.18897
 H1296 H 0.11477 0.46171 0.26385
   
