data_POSCAR
  _audit_creation_date              2014-09-24
  _audit_creation_method            'ToBaCCo'
  _symmetry_space_group_name_H-M    'P1'
  _symmetry_Int_Tables_number       1
  _symmetry_cell_setting            triclinic
  loop_
  _symmetry_equiv_pos_as_xyz
 x,y,z
_cell_length_a 63.1798
_cell_length_b 63.2017
_cell_length_c 63.1085
_cell_angle_alpha 90.000900
_cell_angle_beta 90.048300
_cell_angle_gamma 90.005500
loop_
  _atom_site_label
  _atom_site_type_symbol
  _atom_site_fract_x
  _atom_site_fract_y
  _atom_site_fract_z
C1 C 0.24851 1.05967 0.00080
 C2 C 0.25202 1.04903 0.01990
 C3 C 0.25327 1.02688 0.02019
 C4 C 0.25014 1.01502 0.00147
 C5 C 0.24605 1.02609 -0.01756
 C6 C 0.24575 1.04825 -0.01796
 C7 C 0.25127 0.99131 0.00170
 C8 C 0.25699 0.97999 -0.01674
 C9 C 0.25744 0.95786 -0.01676
 C10 C 0.25314 0.94670 0.00182
 C11 C 0.24796 0.95755 0.02037
 C12 C 0.24660 0.97968 0.02026
 H13 H 0.24798 1.07684 0.00053
 H14 H 0.25688 1.01907 0.03503
 H15 H 0.24301 1.01765 -0.03217
 H16 H 0.26122 0.98817 -0.03119
 H17 H 0.25377 0.92954 0.00182
 H18 H 0.24173 0.98761 0.03465
 C19 C 0.74766 0.55922 0.50084
 C20 C 0.75140 0.54861 0.51988
 C21 C 0.75278 0.52648 0.52017
 C22 C 0.74958 0.51460 0.50148
 C23 C 0.74528 0.52566 0.48248
 C24 C 0.74481 0.54781 0.48212
 C25 C 0.75084 0.49091 0.50170
 C26 C 0.75651 0.47962 0.48322
 C27 C 0.75710 0.45749 0.48321
 C28 C 0.75299 0.44631 0.50181
 C29 C 0.74786 0.45713 0.52040
 C30 C 0.74638 0.47926 0.52030
 H31 H 0.74700 0.57637 0.50058
 H32 H 0.75654 0.51876 0.53500
 H33 H 0.74220 0.51726 0.46787
 H34 H 0.76058 0.48783 0.46875
 H35 H 0.75373 0.42916 0.50181
 H36 H 0.74156 0.48715 0.53472
 C37 C 0.74926 1.00271 1.06046
 C38 C 0.75238 0.98379 1.04947
 C39 C 0.75286 0.98377 1.02728
 C40 C 0.74911 1.00254 1.01568
 C41 C 0.74549 1.02143 1.02714
 C42 C 0.74609 1.02157 1.04936
 C43 C 0.74899 1.00236 0.99186
 C44 C 0.75324 1.02096 0.98015
 C45 C 0.75276 1.02077 0.95796
 C46 C 0.74905 1.00189 0.94711
 C47 C 0.74527 0.98325 0.95831
 C48 C 0.74470 0.98354 0.98049
 H49 H 0.74929 1.00275 1.07767
 H50 H 0.75629 0.96903 1.01928
 H51 H 0.74207 1.03611 1.01902
 H52 H 0.75710 1.03566 0.98801
 H53 H 0.74911 1.00171 0.92991
 H54 H 0.74079 0.96900 0.98862
 C55 C 0.24927 0.50246 0.55932
 C56 C 0.25237 0.48356 0.54835
 C57 C 0.25284 0.48351 0.52618
 C58 C 0.24915 0.50228 0.51457
 C59 C 0.24557 0.52119 0.52603
 C60 C 0.24614 0.52131 0.54823
 C61 C 0.24907 0.50210 0.49076
 C62 C 0.25338 0.52069 0.47906
 C63 C 0.25292 0.52052 0.45687
 C64 C 0.24916 0.50166 0.44600
 C65 C 0.24533 0.48302 0.45719
 C66 C 0.24475 0.48329 0.47938
 H67 H 0.24928 0.50251 0.57652
 H68 H 0.25622 0.46873 0.51824
 H69 H 0.24220 0.53590 0.51796
 H70 H 0.25725 0.53538 0.48694
 H71 H 0.24923 0.50149 0.42881
 H72 H 0.24081 0.46875 0.48750
 C73 C 1.05907 0.24758 -0.00264
 C74 C 1.04819 0.25178 0.01616
 C75 C 1.02602 0.25258 0.01616
 C76 C 1.01440 0.24828 -0.00249
 C77 C 1.02573 0.24362 -0.02122
 C78 C 1.04790 0.24372 -0.02134
 C79 C 0.99067 0.24867 -0.00241
 C80 C 0.97918 0.25335 -0.02106
 C81 C 0.95700 0.25332 -0.02101
 C82 C 0.94601 0.24950 -0.00221
 C83 C 0.95705 0.24526 0.01648
 C84 C 0.97919 0.24440 0.01634
 H85 H 1.07625 0.24729 -0.00275
 H86 H 1.01800 0.25671 0.03073
 H87 H 1.01753 0.23976 -0.03576
 H88 H 0.98732 0.25720 -0.03565
 H89 H 0.92883 0.24982 -0.00207
 H90 H 0.98726 0.24027 0.03088
 C91 C 0.55969 0.74914 0.49703
 C92 C 0.54900 0.75347 0.51588
 C93 C 0.52685 0.75424 0.51613
 C94 C 0.51503 0.74983 0.49764
 C95 C 0.52617 0.74505 0.47882
 C96 C 0.54834 0.74514 0.47846
 C97 C 0.49131 0.75029 0.49799
 C98 C 0.47965 0.75490 0.47944
 C99 C 0.45750 0.75499 0.47971
 C100 C 0.44666 0.75134 0.49862
 C101 C 0.45785 0.74717 0.51724
 C102 C 0.48000 0.74621 0.51689
 H103 H 0.57686 0.74888 0.49680
 H104 H 0.51905 0.75846 0.53079
 H105 H 0.51781 0.74111 0.46438
 H106 H 0.48760 0.75860 0.46472
 H107 H 0.42950 0.75175 0.49885
 H108 H 0.48820 0.74215 0.53138
 C109 C 0.00144 0.75221 -0.05927
 C110 C 0.02031 0.75545 -0.04821
 C111 C 0.02038 0.75533 -0.02601
 C112 C 0.00169 0.75094 -0.01451
 C113 C -0.01712 0.74713 -0.02607
 C114 C -0.01732 0.74831 -0.04825
 C115 C 0.00178 0.75038 0.00929
 C116 C -0.01699 0.75405 0.02093
 C117 C -0.01701 0.75294 0.04310
 C118 C 0.00184 0.74923 0.05403
 C119 C 0.02066 0.74612 0.04291
 C120 C 0.02061 0.74618 0.02071
 H121 H 0.00140 0.75273 -0.07647
 H122 H 0.03508 0.75883 -0.01796
 H123 H -0.03170 0.74313 -0.01805
 H124 H -0.03166 0.75791 0.01298
 H125 H 0.00191 0.74876 0.07122
 H126 H 0.03529 0.74281 0.01261
 C127 C 0.50134 0.25184 0.44045
 C128 C 0.52031 0.25503 0.45136
 C129 C 0.52056 0.25489 0.47355
 C130 C 0.50196 0.25053 0.48520
 C131 C 0.48305 0.24679 0.47378
 C132 C 0.48268 0.24797 0.45162
 C133 C 0.50225 0.25000 0.50900
 C134 C 0.48356 0.25367 0.52076
 C135 C 0.48370 0.25264 0.54291
 C136 C 0.50259 0.24899 0.55373
 C137 C 0.52135 0.24587 0.54253
 C138 C 0.52116 0.24587 0.52032
 H139 H 0.50111 0.25237 0.42327
 H140 H 0.53534 0.25834 0.48149
 H141 H 0.46849 0.24284 0.48185
 H142 H 0.46880 0.25746 0.51297
 H143 H 0.50270 0.24858 0.57092
 H144 H 0.53580 0.24250 0.51213
 C145 C 1.05344 -0.00157 0.25194
 C146 C 1.04211 0.01713 0.24874
 C147 C 1.01993 0.01670 0.24832
 C148 C 1.00872 -0.00230 0.25222
 C149 C 1.02059 -0.02090 0.25597
 C150 C 1.04273 -0.02058 0.25528
 C151 C 0.98493 -0.00272 0.25245
 C152 C 0.97363 -0.02171 0.24871
 C153 C 0.95145 -0.02209 0.24947
 C154 C 0.94020 -0.00337 0.25288
 C155 C 0.95100 0.01561 0.25608
 C156 C 0.97315 0.01589 0.25643
 H157 H 1.07063 -0.00136 0.25185
 H158 H 1.01164 0.03126 0.24482
 H159 H 1.01290 -0.03575 0.25957
 H160 H 0.98183 -0.03627 0.24505
 H161 H 0.92302 -0.00354 0.25301
 H162 H 0.98093 0.03072 0.25992
 C163 C 0.55383 0.49773 0.75040
 C164 C 0.54273 0.51656 0.74736
 C165 C 0.52057 0.51647 0.74707
 C166 C 0.50911 0.49763 0.75094
 C167 C 0.52074 0.47882 0.75450
 C168 C 0.54290 0.47884 0.75369
 C169 C 0.48530 0.49763 0.75126
 C170 C 0.47370 0.47882 0.74763
 C171 C 0.45154 0.47880 0.74840
 C172 C 0.44057 0.49766 0.75172
 C173 C 0.45164 0.51651 0.75484
 C174 C 0.47380 0.51645 0.75517
 H175 H 0.57100 0.49778 0.75022
 H176 H 0.51255 0.53120 0.74371
 H177 H 0.51286 0.46406 0.75805
 H178 H 0.48160 0.46408 0.74404
 H179 H 0.42340 0.49768 0.75186
 H180 H 0.48180 0.53117 0.75859
 C181 C 0.99807 1.05358 0.74366
 C182 C 0.97941 1.04283 0.74861
 C183 C 0.97956 1.02071 0.75066
 C184 C 0.99827 1.00900 0.74679
 C185 C 1.01676 1.02026 0.74116
 C186 C 1.01674 1.04237 0.74018
 C187 C 0.99860 0.98528 0.74864
 C188 C 1.01775 0.97433 0.75255
 C189 C 1.01823 0.95218 0.75339
 C190 C 0.99945 0.94067 0.75154
 C191 C 0.98028 0.95117 0.74831
 C192 C 0.97987 0.97325 0.74637
 H193 H 0.99812 1.07073 0.74258
 H194 H 0.96511 1.01290 0.75547
 H195 H 1.03134 1.01211 0.73745
 H196 H 1.03242 0.98281 0.75503
 H197 H 0.99972 0.92353 0.75254
 H198 H 0.96490 0.98077 0.74289
 C199 C 0.49849 0.55328 0.24508
 C200 C 0.47967 0.54272 0.24973
 C201 C 0.47948 0.52062 0.25157
 C202 C 0.49805 0.50868 0.24781
 C203 C 0.51679 0.51975 0.24250
 C204 C 0.51706 0.54188 0.24171
 C205 C 0.49799 0.48496 0.24952
 C206 C 0.51693 0.47373 0.25357
 C207 C 0.51707 0.45161 0.25439
 C208 C 0.49818 0.44035 0.25234
 C209 C 0.47917 0.45110 0.24897
 C210 C 0.47910 0.47320 0.24706
 H211 H 0.49869 0.57043 0.24415
 H212 H 0.46485 0.51303 0.25614
 H213 H 0.53129 0.51144 0.23890
 H214 H 0.53171 0.48193 0.25619
 H215 H 0.49829 0.42321 0.25332
 H216 H 0.46426 0.48094 0.24349
 O217 O 0.24470 0.19527 0.22396
 O218 O 0.26645 0.18813 0.25404
 O219 O 0.18868 0.22130 0.25330
 O220 O 0.18127 0.24827 0.27495
 O221 O 0.21616 0.25158 0.19873
 O222 O 0.24609 0.27411 0.19371
 O223 O 0.24396 0.27798 0.30965
 O224 O 0.21897 0.24972 0.31410
 O225 O 0.29874 0.24873 0.28431
 O226 O 0.30528 0.22541 0.25538
 O227 O 0.27411 0.30401 0.25622
 O228 O 0.24453 0.31117 0.23191
 O229 O 0.24505 0.30378 0.28452
 O230 O 0.22155 0.31097 0.25388
 O231 O 0.29914 0.27816 0.25717
 O232 O 0.30330 0.24927 0.22959
 O233 O 0.27285 0.24943 0.30944
 O234 O 0.24664 0.22592 0.31565
 O235 O 0.24565 0.22116 0.19888
 O236 O 0.26913 0.25069 0.19385
 O237 O 0.19012 0.25157 0.22367
 O238 O 0.18496 0.27528 0.25403
 O239 O 0.21366 0.19537 0.25235
 O240 O 0.24339 0.18808 0.27668
 Zr241 Zr 0.24275 0.21172 0.25291
 O242 O 0.26239 0.22933 0.27326
 Zr243 Zr 0.20634 0.24951 0.25280
 O244 O 0.22442 0.26861 0.27340
 Zr245 Zr 0.24437 0.24951 0.21634
 O246 O 0.26398 0.26873 0.23527
 Zr247 Zr 0.24428 0.24967 0.29216
 O248 O 0.22409 0.23015 0.27358
 Zr249 Zr 0.28200 0.24959 0.25558
 O250 O 0.26407 0.23007 0.23501
 Zr251 Zr 0.24528 0.28737 0.25551
 O252 O 0.22553 0.26993 0.23473
 O253 O 0.22391 0.22993 0.23304
 O254 O 0.26458 0.26947 0.27538
 C255 C 0.24590 0.20170 0.20471
 C256 C 0.19441 0.20183 0.25292
 C257 C 0.19669 0.25244 0.20444
 C258 C 0.24435 0.29741 0.30381
 C259 C 0.29233 0.24883 0.30360
 C260 C 0.29336 0.29761 0.25685
 H261 H 0.27057 0.21946 0.28226
 H262 H 0.27321 0.27731 0.22599
 H263 H 0.21496 0.22124 0.22355
 H264 H 0.21483 0.27720 0.28229
 H265 H 0.20944 0.23794 0.31007
 H266 H 0.18642 0.25500 0.28812
 H267 H 0.31719 0.25487 0.23431
 H268 H 0.27993 0.24035 0.19851
 H269 H 0.23861 0.21363 0.31031
 H270 H 0.23066 0.19002 0.28559
 H271 H 0.25583 0.30798 0.22155
 H272 H 0.23646 0.28542 0.19869
 H273 H 0.27809 0.19305 0.24476
 H274 H 0.30068 0.21414 0.26521
 H275 H 0.18958 0.28557 0.24315
 H276 H 0.21117 0.30814 0.26526
 O277 O 0.74998 0.80044 0.21686
 O278 O 0.72621 0.80570 0.24579
 O279 O 0.80463 0.77401 0.24765
 O280 O 0.81165 0.74603 0.26819
 O281 O 0.78031 0.74629 0.19027
 O282 O 0.75121 0.72318 0.18276
 O283 O 0.74750 0.71370 0.29825
 O284 O 0.77211 0.74167 0.30539
 O285 O 0.69383 0.74272 0.27183
 O286 O 0.68800 0.76748 0.24393
 O287 O 0.72099 0.68968 0.24218
 O288 O 0.75193 0.68435 0.21908
 O289 O 0.74809 0.68904 0.27197
 O290 O 0.77375 0.68385 0.24244
 O291 O 0.69538 0.71495 0.24326
 O292 O 0.69194 0.74525 0.21685
 O293 O 0.71867 0.74141 0.29802
 O294 O 0.74417 0.76558 0.30642
 O295 O 0.75064 0.77584 0.19048
 O296 O 0.72750 0.74626 0.18302
 O297 O 0.80516 0.74562 0.21645
 O298 O 0.80938 0.72006 0.24564
 O299 O 0.77914 0.79948 0.24686
 O300 O 0.74783 0.80493 0.26992
 Zr301 Zr 0.75040 0.78261 0.24504
 O302 O 0.73020 0.76365 0.26349
 Zr303 Zr 0.78762 0.74553 0.24485
 O304 O 0.76903 0.72510 0.26360
 Zr305 Zr 0.75130 0.74667 0.20661
 O306 O 0.73127 0.72614 0.22358
 Zr307 Zr 0.74794 0.74278 0.28218
 O308 O 0.76856 0.76355 0.26564
 Zr309 Zr 0.71189 0.74392 0.24388
 O310 O 0.73034 0.76480 0.22520
 Zr311 Zr 0.74943 0.70687 0.24378
 O312 O 0.76972 0.72570 0.22485
 O313 O 0.77051 0.76571 0.22532
 O314 O 0.72889 0.72348 0.26346
 C315 C 0.75008 0.79498 0.19727
 C316 C 0.79849 0.79337 0.24795
 C317 C 0.79952 0.74583 0.19689
 C318 C 0.74741 0.69455 0.29153
 C319 C 0.69946 0.74165 0.29136
 C320 C 0.70161 0.69566 0.24231
 H321 H 0.72139 0.77286 0.27257
 H322 H 0.72267 0.71785 0.21345
 H323 H 0.77975 0.77506 0.21680
 H324 H 0.77829 0.71623 0.27258
 H325 H 0.78183 0.75359 0.30239
 H326 H 0.80615 0.73834 0.28067
 H327 H 0.67802 0.73895 0.22049
 H328 H 0.71657 0.75656 0.18747
 H329 H 0.75316 0.77774 0.30254
 H330 H 0.76026 0.80303 0.27928
 H331 H 0.74108 0.68784 0.20832
 H332 H 0.76103 0.71195 0.18754
 H333 H 0.71521 0.80097 0.23565
 H334 H 0.69213 0.77853 0.25422
 H335 H 0.80547 0.71037 0.23395
 H336 H 0.78329 0.68621 0.25465
 O337 O 0.75326 0.19591 0.78066
 O338 O 0.73022 0.18803 0.75059
 O339 O 0.80694 0.22297 0.74912
 O340 O 0.81310 0.25005 0.72727
 O341 O 0.78106 0.25294 0.80475
 O342 O 0.75074 0.27456 0.81103
 O343 O 0.74760 0.27835 0.69500
 O344 O 0.77334 0.25156 0.68913
 O345 O 0.69516 0.24845 0.72246
 O346 O 0.69141 0.22393 0.74906
 O347 O 0.71979 0.30380 0.74967
 O348 O 0.75043 0.31175 0.77257
 O349 O 0.74727 0.30422 0.72009
 O350 O 0.77227 0.31202 0.74946
 O351 O 0.69511 0.27755 0.74963
 O352 O 0.69247 0.25026 0.77710
 O353 O 0.72018 0.24882 0.69644
 O354 O 0.75006 0.22566 0.68944
 O355 O 0.75268 0.22175 0.80580
 O356 O 0.72819 0.25051 0.81154
 O357 O 0.80612 0.25330 0.77882
 O358 O 0.80951 0.27728 0.74858
 O359 O 0.78240 0.19659 0.75046
 O360 O 0.75293 0.18919 0.72754
 Zr361 Zr 0.75313 0.21241 0.75165
 O362 O 0.73225 0.22958 0.73221
 Zr363 Zr 0.78885 0.25094 0.75035
 O364 O 0.76958 0.26954 0.73037
 Zr365 Zr 0.75223 0.25007 0.78826
 O366 O 0.73160 0.26891 0.77008
 Zr367 Zr 0.74940 0.25008 0.71249
 O368 O 0.77066 0.23125 0.73040
 Zr369 Zr 0.71304 0.24949 0.75054
 O370 O 0.73207 0.23022 0.77047
 Zr371 Zr 0.74904 0.28788 0.74908
 O372 O 0.76989 0.27091 0.76914
 O373 O 0.77244 0.23100 0.77071
 O374 O 0.72938 0.26952 0.73001
 C375 C 0.75293 0.20230 0.79996
 C376 C 0.80151 0.20338 0.74938
 C377 C 0.80028 0.25414 0.79828
 C378 C 0.74686 0.29779 0.70082
 C379 C 0.70094 0.24823 0.70295
 C380 C 0.70062 0.29709 0.74974
 H381 H 0.72345 0.21949 0.72410
 H382 H 0.72264 0.27738 0.77972
 H383 H 0.78202 0.22250 0.77976
 H384 H 0.77852 0.27835 0.72103
 H385 H 0.78461 0.24162 0.69359
 H386 H 0.80797 0.25797 0.71476
 H387 H 0.67777 0.25182 0.77180
 H388 H 0.71748 0.23996 0.80712
 H389 H 0.73992 0.21456 0.69377
 H390 H 0.76252 0.19433 0.71626
 H391 H 0.73956 0.30847 0.78336
 H392 H 0.75977 0.28618 0.80566
 H393 H 0.71996 0.19089 0.76206
 H394 H 0.69407 0.21502 0.76167
 H395 H 0.80490 0.28746 0.75957
 H396 H 0.78211 0.30942 0.73755
 O397 O 0.25874 0.81091 0.77871
 O398 O 0.28089 0.81556 0.74842
 O399 O 0.20133 0.78703 0.74987
 O400 O 0.19233 0.75967 0.72932
 O401 O 0.22660 0.75772 0.80591
 O402 O 0.25493 0.73327 0.81193
 O403 O 0.25305 0.72521 0.69625
 O404 O 0.23004 0.75496 0.69053
 O405 O 0.30962 0.75161 0.72090
 O406 O 0.31732 0.77616 0.74890
 O407 O 0.28162 0.69950 0.75079
 O408 O 0.25169 0.69489 0.77513
 O409 O 0.25273 0.70031 0.72231
 O410 O 0.22866 0.69575 0.75312
 O411 O 0.30819 0.72376 0.74924
 O412 O 0.31389 0.75343 0.77563
 O413 O 0.28377 0.75135 0.69570
 O414 O 0.25936 0.77661 0.68828
 O415 O 0.25803 0.78594 0.80474
 O416 O 0.27951 0.75516 0.81114
 O417 O 0.20081 0.75822 0.78067
 O418 O 0.19436 0.73345 0.75127
 O419 O 0.22766 0.81163 0.75029
 O420 O 0.25770 0.81616 0.72572
 Zr421 Zr 0.25578 0.79354 0.75038
 O422 O 0.27445 0.77400 0.73087
 Zr423 Zr 0.21724 0.75792 0.75165
 O424 O 0.23419 0.73702 0.73194
 Zr425 Zr 0.25498 0.75709 0.78840
 O426 O 0.27350 0.73605 0.77038
 Zr427 Zr 0.25520 0.75405 0.71267
 O428 O 0.23614 0.77544 0.73030
 Zr429 Zr 0.29273 0.75331 0.74950
 O430 O 0.27587 0.77461 0.76916
 Zr431 Zr 0.25381 0.71776 0.75072
 O432 O 0.23504 0.73711 0.77067
 O433 O 0.23585 0.77719 0.77076
 O434 O 0.27419 0.73376 0.73037
 C435 C 0.25949 0.80511 0.79819
 C436 C 0.20808 0.80617 0.74977
 C437 C 0.20715 0.75795 0.80000
 C438 C 0.25239 0.70601 0.70279
 C439 C 0.30323 0.75080 0.70161
 C440 C 0.30123 0.70472 0.75012
 H441 H 0.28325 0.78295 0.72152
 H442 H 0.28217 0.72730 0.78006
 H443 H 0.22743 0.78680 0.77984
 H444 H 0.22412 0.72869 0.72331
 H445 H 0.22139 0.76756 0.69398
 H446 H 0.19727 0.75247 0.71633
 H447 H 0.32749 0.74694 0.77122
 H448 H 0.29097 0.76463 0.80620
 H449 H 0.25247 0.78973 0.69319
 H450 H 0.24488 0.81454 0.71684
 H451 H 0.26295 0.69798 0.78558
 H452 H 0.24453 0.72249 0.80732
 H453 H 0.29224 0.81023 0.75783
 H454 H 0.31370 0.78695 0.73815
 H455 H 0.19821 0.72344 0.76271
 H456 H 0.21856 0.69871 0.74151
 O457 O 0.24950 0.29997 0.71712
 O458 O 0.22552 0.30520 0.74596
 O459 O 0.30405 0.27417 0.74821
 O460 O 0.31153 0.24644 0.76871
 O461 O 0.28022 0.24588 0.69085
 O462 O 0.25146 0.22259 0.68330
 O463 O 0.24699 0.21394 0.79906
 O464 O 0.27119 0.24157 0.80646
 O465 O 0.19348 0.24208 0.77204
 O466 O 0.18692 0.26574 0.74421
 O467 O 0.22148 0.18895 0.74300
 O468 O 0.25246 0.18364 0.72039
 O469 O 0.24823 0.18901 0.77307
 O470 O 0.27437 0.18395 0.74367
 O471 O 0.19557 0.21392 0.74365
 O472 O 0.19218 0.24452 0.71684
 O473 O 0.21817 0.24160 0.79838
 O474 O 0.24692 0.26644 0.80665
 O475 O 0.25037 0.27521 0.69089
 O476 O 0.22738 0.24518 0.68355
 O477 O 0.30502 0.24564 0.71708
 O478 O 0.30925 0.22004 0.74628
 O479 O 0.27828 0.29939 0.74769
 O480 O 0.24785 0.30422 0.77049
 Zr481 Zr 0.24981 0.28221 0.74533
 O482 O 0.22955 0.26328 0.76371
 Zr483 Zr 0.28742 0.24546 0.74543
 O484 O 0.26894 0.22516 0.76443
 Zr485 Zr 0.25118 0.24610 0.70713
 O486 O 0.23137 0.22539 0.72418
 Zr487 Zr 0.24757 0.24286 0.78273
 O488 O 0.26810 0.26340 0.76596
 Zr489 Zr 0.21168 0.24311 0.74419
 O490 O 0.22997 0.26414 0.72552
 Zr491 Zr 0.24965 0.20654 0.74469
 O492 O 0.26973 0.22538 0.72555
 O493 O 0.27018 0.26541 0.72578
 O494 O 0.22881 0.22312 0.76411
 C495 C 0.24969 0.29439 0.69756
 C496 C 0.29770 0.29346 0.74869
 C497 C 0.29941 0.24566 0.69751
 C498 C 0.24721 0.19472 0.79256
 C499 C 0.19900 0.24144 0.79161
 C500 C 0.20204 0.19470 0.74291
 H501 H 0.22031 0.27252 0.77229
 H502 H 0.22294 0.21690 0.71406
 H503 H 0.27937 0.27483 0.71730
 H504 H 0.27822 0.21648 0.77357
 H505 H 0.28218 0.25201 0.80247
 H506 H 0.30659 0.23798 0.78092
 H507 H 0.17866 0.23715 0.71984
 H508 H 0.21665 0.25587 0.68752
 H509 H 0.23558 0.27666 0.80320
 H510 H 0.25769 0.29920 0.78162
 H511 H 0.24200 0.18718 0.70927
 H512 H 0.26119 0.21135 0.68827
 H513 H 0.21474 0.30060 0.73553
 H514 H 0.19163 0.27794 0.75280
 H515 H 0.30554 0.21042 0.73447
 H516 H 0.28356 0.18625 0.75616
 O517 O 0.74583 0.69596 0.72453
 O518 O 0.76764 0.68870 0.75458
 O519 O 0.68977 0.72166 0.75408
 O520 O 0.68229 0.74846 0.77590
 O521 O 0.71712 0.75235 0.69969
 O522 O 0.74700 0.77501 0.69482
 O523 O 0.74486 0.77812 0.81077
 O524 O 0.71996 0.74972 0.81503
 O525 O 0.79973 0.74916 0.78523
 O526 O 0.80634 0.72604 0.75616
 O527 O 0.77497 0.80455 0.75748
 O528 O 0.74538 0.81180 0.73323
 O529 O 0.74591 0.80408 0.78580
 O530 O 0.72240 0.81141 0.75521
 O531 O 0.80005 0.77873 0.75828
 O532 O 0.80429 0.75004 0.73051
 O533 O 0.77385 0.74967 0.81037
 O534 O 0.74772 0.72605 0.81646
 O535 O 0.74671 0.72202 0.69963
 O536 O 0.77009 0.75165 0.69477
 O537 O 0.69110 0.75211 0.72466
 O538 O 0.68589 0.77561 0.75516
 O539 O 0.71482 0.69580 0.75293
 O540 O 0.74454 0.68839 0.77717
 Zr541 Zr 0.74386 0.71221 0.75360
 O542 O 0.76344 0.72974 0.77407
 Zr543 Zr 0.70735 0.74991 0.75376
 O544 O 0.72537 0.76893 0.77447
 Zr545 Zr 0.74535 0.75025 0.71728
 O546 O 0.76492 0.76938 0.73632
 Zr547 Zr 0.74528 0.74992 0.79310
 O548 O 0.72515 0.73046 0.77440
 Zr549 Zr 0.78299 0.75015 0.75650
 O550 O 0.76511 0.73073 0.73580
 Zr551 Zr 0.74618 0.78786 0.75668
 O552 O 0.72647 0.77050 0.73581
 O553 O 0.72496 0.73051 0.73386
 O554 O 0.76553 0.76987 0.77644
 C555 C 0.74701 0.70253 0.70533
 C556 C 0.69556 0.70221 0.75355
 C557 C 0.69765 0.75311 0.70543
 C558 C 0.74521 0.79760 0.80504
 C559 C 0.79332 0.74914 0.80452
 C560 C 0.79423 0.79817 0.75807
 H561 H 0.77164 0.71983 0.78300
 H562 H 0.77413 0.77805 0.72709
 H563 H 0.71603 0.72186 0.72432
 H564 H 0.71576 0.77744 0.78341
 H565 H 0.71050 0.73791 0.81094
 H566 H 0.68743 0.75509 0.78913
 H567 H 0.81816 0.75566 0.73527
 H568 H 0.78094 0.74133 0.69937
 H569 H 0.73985 0.71372 0.81099
 H570 H 0.73184 0.69029 0.78615
 H571 H 0.75666 0.80869 0.72284
 H572 H 0.73730 0.78624 0.69985
 H573 H 0.77923 0.69368 0.74527
 H574 H 0.80175 0.71468 0.76590
 H575 H 0.69048 0.78598 0.74434
 H576 H 0.71202 0.80847 0.76655
 O577 O 0.25296 0.69654 0.28056
 O578 O 0.22993 0.68864 0.25052
 O579 O 0.30652 0.72383 0.24903
 O580 O 0.31260 0.75093 0.22721
 O581 O 0.28064 0.75362 0.30473
 O582 O 0.25026 0.77510 0.31112
 O583 O 0.24692 0.77910 0.19507
 O584 O 0.27273 0.75243 0.18910
 O585 O 0.19464 0.74899 0.22259
 O586 O 0.19099 0.72444 0.24915
 O587 O 0.21919 0.80437 0.24985
 O588 O 0.24982 0.81240 0.27267
 O589 O 0.24657 0.80493 0.22021
 O590 O 0.27167 0.81272 0.24955
 O591 O 0.19457 0.77807 0.24980
 O592 O 0.19204 0.75074 0.27723
 O593 O 0.21962 0.74948 0.19652
 O594 O 0.24957 0.72642 0.18943
 O595 O 0.25238 0.72232 0.30576
 O596 O 0.22778 0.75100 0.31159
 O597 O 0.30566 0.75412 0.27876
 O598 O 0.30893 0.77814 0.24853
 O599 O 0.28207 0.69738 0.25035
 O600 O 0.25259 0.68992 0.22744
 Zr601 Zr 0.25276 0.71310 0.25160
 O602 O 0.23180 0.73023 0.23223
 Zr603 Zr 0.28836 0.75173 0.25032
 O604 O 0.26902 0.77030 0.23038
 Zr605 Zr 0.25180 0.75068 0.28828
 O606 O 0.23111 0.76949 0.27017
 Zr607 Zr 0.24885 0.75081 0.21252
 O608 O 0.27021 0.73202 0.23036
 Zr609 Zr 0.21257 0.75006 0.25063
 O610 O 0.23167 0.73080 0.27050
 Zr611 Zr 0.24847 0.78854 0.24917
 O612 O 0.26938 0.77160 0.26918
 O613 O 0.27204 0.73170 0.27066
 O614 O 0.22882 0.77017 0.23011
 C615 C 0.25266 0.70289 0.29988
 C616 C 0.30115 0.70423 0.24927
 C617 C 0.29985 0.75490 0.29823
 C618 C 0.24613 0.79853 0.20093
 C619 C 0.20039 0.74881 0.20307
 C620 C 0.20005 0.79761 0.24995
 H621 H 0.22301 0.72013 0.22411
 H622 H 0.22215 0.77792 0.27984
 H623 H 0.28166 0.72323 0.27969
 H624 H 0.27792 0.77915 0.22104
 H625 H 0.28406 0.74253 0.19352
 H626 H 0.30742 0.75882 0.21471
 H627 H 0.17733 0.75227 0.27195
 H628 H 0.21712 0.74039 0.30718
 H629 H 0.23946 0.71529 0.19376
 H630 H 0.26218 0.69510 0.21617
 H631 H 0.23902 0.80905 0.28350
 H632 H 0.25922 0.78677 0.30575
 H633 H 0.21964 0.69147 0.26197
 H634 H 0.19368 0.71553 0.26175
 H635 H 0.30432 0.78829 0.25954
 H636 H 0.28141 0.81024 0.23754
 O637 O 0.75892 0.31049 0.27874
 O638 O 0.78122 0.31518 0.24857
 O639 O 0.70166 0.28665 0.24960
 O640 O 0.69269 0.25932 0.22903
 O641 O 0.72668 0.25728 0.30573
 O642 O 0.75496 0.23283 0.31185
 O643 O 0.75359 0.22494 0.19612
 O644 O 0.73059 0.25469 0.19035
 O645 O 0.81003 0.25126 0.22107
 O646 O 0.81763 0.27576 0.24913
 O647 O 0.78186 0.19913 0.25075
 O648 O 0.75184 0.19445 0.27491
 O649 O 0.75314 0.19999 0.22213
 O650 O 0.72888 0.19542 0.25284
 O651 O 0.80846 0.22337 0.24936
 O652 O 0.81407 0.25299 0.27582
 O653 O 0.78429 0.25106 0.19575
 O654 O 0.75993 0.27636 0.18828
 O655 O 0.75810 0.28549 0.30473
 O656 O 0.77959 0.25468 0.31114
 O657 O 0.70100 0.25782 0.28038
 O658 O 0.69467 0.23307 0.25091
 O659 O 0.72799 0.31126 0.25019
 O660 O 0.75814 0.31582 0.22576
 Zr661 Zr 0.75610 0.29317 0.25037
 O662 O 0.77484 0.27366 0.23091
 Zr663 Zr 0.71755 0.25755 0.25142
 O664 O 0.73455 0.23668 0.23174
 Zr665 Zr 0.75512 0.25666 0.28834
 O666 O 0.77369 0.23564 0.27036
 Zr667 Zr 0.75565 0.25375 0.21260
 O668 O 0.73653 0.27510 0.23018
 Zr669 Zr 0.79302 0.25292 0.24960
 O670 O 0.77610 0.27421 0.26922
 Zr671 Zr 0.75407 0.21740 0.25058
 O672 O 0.73525 0.23671 0.27049
 O673 O 0.73607 0.27679 0.27065
 O674 O 0.77455 0.23342 0.23035
 C675 C 0.75959 0.30467 0.29822
 C676 C 0.70841 0.30579 0.24957
 C677 C 0.70726 0.25752 0.29973
 C678 C 0.75290 0.20573 0.20262
 C679 C 0.80371 0.25048 0.20176
 C680 C 0.80147 0.20433 0.25018
 H681 H 0.78369 0.28262 0.22162
 H682 H 0.78231 0.22686 0.28006
 H683 H 0.72762 0.28638 0.27970
 H684 H 0.72452 0.22838 0.22305
 H685 H 0.72192 0.26728 0.19379
 H686 H 0.69770 0.25222 0.21602
 H687 H 0.82768 0.24650 0.27145
 H688 H 0.79103 0.26422 0.30630
 H689 H 0.75297 0.28946 0.19316
 H690 H 0.74535 0.31423 0.21682
 H691 H 0.76300 0.19757 0.28546
 H692 H 0.74459 0.22205 0.30718
 H693 H 0.79252 0.30984 0.25803
 H694 H 0.81405 0.28658 0.23840
 H695 H 0.69845 0.22307 0.26238
 H696 H 0.71887 0.19836 0.24114
 C697 C 0.25378 0.06036 0.03818
 C698 C 0.25481 0.07090 0.05408
 C699 C 0.25541 0.08408 0.07266
 C700 C 0.26891 0.10161 0.07335
 C701 C 0.26840 0.11536 0.09070
 C702 C 0.25430 0.11176 0.10758
 C703 C 0.24107 0.09386 0.10691
 C704 C 0.24162 0.08013 0.08954
 C705 C 0.25293 0.12701 0.12544
 C706 C 0.23313 0.13277 0.13385
 C707 C 0.23175 0.14768 0.15016
 C708 C 0.25012 0.15701 0.15830
 C709 C 0.26991 0.15125 0.15018
 C710 C 0.27133 0.13636 0.13386
 C711 C 0.24863 0.17270 0.17475
 C712 C 0.24737 0.18593 0.18845
 H713 H 0.27952 0.10491 0.06029
 H714 H 0.27858 0.12914 0.09061
 H715 H 0.23025 0.09052 0.11978
 H716 H 0.23106 0.06663 0.08914
 H717 H 0.21866 0.12611 0.12751
 H718 H 0.21634 0.15207 0.15628
 H719 H 0.28424 0.15835 0.15641
 H720 H 0.28681 0.13208 0.12790
 C721 C 0.75338 0.56061 0.53916
 C722 C 0.75446 0.57122 0.55500
 C723 C 0.75515 0.58450 0.57351
 C724 C 0.73856 0.58392 0.58818
 C725 C 0.73839 0.59789 0.60534
 C726 C 0.75480 0.61271 0.60802
 C727 C 0.77161 0.61289 0.59340
 C728 C 0.77176 0.59889 0.57625
 C729 C 0.75402 0.62835 0.62558
 C730 C 0.75986 0.64954 0.62202
 C731 C 0.75856 0.66443 0.63835
 C732 C 0.75144 0.65836 0.65843
 C733 C 0.74572 0.63730 0.66218
 C734 C 0.74698 0.62238 0.64587
 C735 C 0.74985 0.67382 0.67510
 C736 C 0.74853 0.68689 0.68894
 H737 H 0.72554 0.57295 0.58611
 H738 H 0.72509 0.59753 0.61615
 H739 H 0.78462 0.62391 0.59519
 H740 H 0.78465 0.59951 0.56496
 H741 H 0.76502 0.65471 0.60651
 H742 H 0.76297 0.68071 0.63525
 H743 H 0.74023 0.63243 0.67769
 H744 H 0.74260 0.60614 0.64916
 C745 C 0.75423 0.96534 0.06047
 C746 C 0.75523 0.94921 0.07062
 C747 C 0.75570 0.93027 0.08324
 C748 C 0.73793 0.91707 0.08392
 C749 C 0.73771 0.89942 0.09725
 C750 C 0.75529 0.89477 0.11014
 C751 C 0.77323 0.90793 0.10906
 C752 C 0.77341 0.92558 0.09570
 C753 C 0.75460 0.87669 0.12516
 C754 C 0.76292 0.87880 0.14574
 C755 C 0.76177 0.86202 0.16011
 C756 C 0.75231 0.84291 0.15413
 C757 C 0.74410 0.84058 0.13366
 C758 C 0.74522 0.85736 0.11925
 C759 C 0.75111 0.82577 0.16907
 C760 C 0.75040 0.81160 0.18182
 H761 H 0.72407 0.92065 0.07445
 H762 H 0.72357 0.88977 0.09793
 H763 H 0.78711 0.90460 0.11857
 H764 H 0.78723 0.93572 0.09532
 H765 H 0.76994 0.89356 0.15088
 H766 H 0.76815 0.86400 0.17593
 H767 H 0.73682 0.82582 0.12885
 H768 H 0.73890 0.85517 0.10345
 C769 C 0.25430 0.46409 0.56001
 C770 C 0.25522 0.44801 0.57022
 C771 C 0.25562 0.42913 0.58293
 C772 C 0.23777 0.41604 0.58372
 C773 C 0.23749 0.39845 0.59714
 C774 C 0.25508 0.39376 0.61000
 C775 C 0.27310 0.40681 0.60880
 C776 C 0.27334 0.42439 0.59536
 C777 C 0.25434 0.37575 0.62508
 C778 C 0.26269 0.37791 0.64565
 C779 C 0.26149 0.36120 0.66008
 C780 C 0.25195 0.34211 0.65419
 C781 C 0.24370 0.33973 0.63375
 C782 C 0.24486 0.35644 0.61927
 C783 C 0.25072 0.32503 0.66920
 C784 C 0.25000 0.31092 0.68202
 H785 H 0.22391 0.41966 0.57428
 H786 H 0.22329 0.38889 0.59790
 H787 H 0.28698 0.40344 0.61829
 H788 H 0.28722 0.43445 0.59489
 H789 H 0.26979 0.39267 0.65071
 H790 H 0.26791 0.36322 0.67588
 H791 H 0.23635 0.32497 0.62901
 H792 H 0.23851 0.35421 0.60349
 C793 C 0.75543 0.04002 0.94608
 C794 C 0.75699 0.05578 0.93544
 C795 C 0.75813 0.07413 0.92200
 C796 C 0.74154 0.08880 0.92191
 C797 C 0.74167 0.10564 0.90755
 C798 C 0.75840 0.10798 0.89303
 C799 C 0.77524 0.09341 0.89357
 C800 C 0.77507 0.07658 0.90795
 C801 C 0.75786 0.12505 0.87687
 C802 C 0.76407 0.12088 0.85587
 C803 C 0.76297 0.13672 0.84045
 C804 C 0.75567 0.15692 0.84579
 C805 C 0.74958 0.16129 0.86666
 C806 C 0.75065 0.14546 0.88211
 C807 C 0.75443 0.17310 0.82980
 C808 C 0.75358 0.18650 0.81624
 H809 H 0.72825 0.08694 0.93259
 H810 H 0.72836 0.11642 0.90735
 H811 H 0.78847 0.09495 0.88279
 H812 H 0.78796 0.06527 0.90784
 H813 H 0.76937 0.10526 0.85125
 H814 H 0.76768 0.13316 0.82434
 H815 H 0.74398 0.17691 0.87097
 H816 H 0.74597 0.14921 0.89818
 C817 C 0.25564 0.53977 0.44502
 C818 C 0.25722 0.55557 0.43444
 C819 C 0.25838 0.57397 0.42109
 C820 C 0.24213 0.58901 0.42156
 C821 C 0.24223 0.60594 0.40732
 C822 C 0.25859 0.60801 0.39234
 C823 C 0.27511 0.59307 0.39231
 C824 C 0.27497 0.57615 0.40658
 C825 C 0.25796 0.62518 0.37629
 C826 C 0.26349 0.62101 0.35510
 C827 C 0.26231 0.63696 0.33982
 C828 C 0.25560 0.65728 0.34546
 C829 C 0.25018 0.66165 0.36651
 C830 C 0.25133 0.64571 0.38184
 C831 C 0.25428 0.67357 0.32960
 C832 C 0.25338 0.68704 0.31611
 H833 H 0.22911 0.58736 0.43261
 H834 H 0.22916 0.61701 0.40757
 H835 H 0.28806 0.59440 0.38116
 H836 H 0.28760 0.56456 0.40603
 H837 H 0.26833 0.60531 0.35025
 H838 H 0.26651 0.63340 0.32356
 H839 H 0.24503 0.67736 0.37106
 H840 H 0.24718 0.64946 0.39805
 C841 C 0.26140 0.94639 0.96396
 C842 C 0.26393 0.93624 0.94800
 C843 C 0.26608 0.92351 0.92924
 C844 C 0.28249 0.90874 0.92765
 C845 C 0.28343 0.89504 0.91027
 C846 C 0.26790 0.89593 0.89429
 C847 C 0.25178 0.91120 0.89579
 C848 C 0.25087 0.92487 0.91317
 C849 C 0.26788 0.88034 0.87669
 C850 C 0.26245 0.88652 0.85596
 C851 C 0.26134 0.87154 0.83968
 C852 C 0.26564 0.85023 0.84392
 C853 C 0.27134 0.84399 0.86440
 C854 C 0.27247 0.85892 0.88069
 C855 C 0.26364 0.83463 0.82745
 C856 C 0.26180 0.82128 0.81394
 H857 H 0.29432 0.90751 0.94003
 H858 H 0.29619 0.88363 0.90943
 H859 H 0.23943 0.91210 0.88391
 H860 H 0.23800 0.93614 0.91434
 H861 H 0.25905 0.90292 0.85234
 H862 H 0.25693 0.87654 0.82386
 H863 H 0.27461 0.82752 0.86787
 H864 H 0.27637 0.85360 0.89653
 C865 C 0.76104 0.44604 0.46391
 C866 C 0.76356 0.43590 0.44795
 C867 C 0.76571 0.42316 0.42919
 C868 C 0.78231 0.40862 0.42747
 C869 C 0.78328 0.39491 0.41011
 C870 C 0.76758 0.39556 0.39427
 C871 C 0.75125 0.41060 0.39591
 C872 C 0.75032 0.42428 0.41328
 C873 C 0.76762 0.37996 0.37668
 C874 C 0.76190 0.38605 0.35600
 C875 C 0.76084 0.37105 0.33975
 C876 C 0.76550 0.34981 0.34394
 C877 C 0.77150 0.34366 0.36438
 C878 C 0.77257 0.35861 0.38064
 C879 C 0.76359 0.33418 0.32750
 C880 C 0.76182 0.32082 0.31399
 H881 H 0.79427 0.40758 0.43974
 H882 H 0.79619 0.38369 0.40915
 H883 H 0.73878 0.41130 0.38416
 H884 H 0.73730 0.43536 0.41456
 H885 H 0.75822 0.40239 0.35242
 H886 H 0.75621 0.37598 0.32397
 H887 H 0.77505 0.32724 0.36781
 H888 H 0.77670 0.35336 0.39644
 C889 C 0.05925 0.25446 0.03450
 C890 C 0.06945 0.25624 0.05056
 C891 C 0.08212 0.25767 0.06946
 C892 C 0.08116 0.24157 0.08465
 C893 C 0.09452 0.24210 0.10231
 C894 C 0.10908 0.25874 0.10498
 C895 C 0.10964 0.27506 0.08981
 C896 C 0.09625 0.27450 0.07216
 C897 C 0.12414 0.25862 0.12307
 C898 C 0.14541 0.26450 0.12005
 C899 C 0.15981 0.26363 0.13684
 C900 C 0.15318 0.25690 0.15689
 C901 C 0.13202 0.25121 0.16013
 C902 C 0.11757 0.25207 0.14334
 C903 C 0.16824 0.25543 0.17394
 C904 C 0.18110 0.25410 0.18799
 H905 H 0.07039 0.22838 0.08263
 H906 H 0.09390 0.22915 0.11353
 H907 H 0.12048 0.28821 0.09156
 H908 H 0.09715 0.28702 0.06047
 H909 H 0.15103 0.26929 0.10457
 H910 H 0.17617 0.26797 0.13413
 H911 H 0.12671 0.24601 0.17560
 H912 H 0.10127 0.24766 0.14623
 C913 C 0.56089 0.75650 0.53509
 C914 C 0.57128 0.75842 0.55100
 C915 C 0.58417 0.76003 0.56973
 C916 C 0.57702 0.75165 0.58896
 C917 C 0.59016 0.75190 0.60679
 C918 C 0.61067 0.76052 0.60560
 C919 C 0.61756 0.76924 0.58628
 C920 C 0.60440 0.76896 0.56847
 C921 C 0.62510 0.75979 0.62416
 C922 C 0.63845 0.77699 0.62885
 C923 C 0.65270 0.77588 0.64578
 C924 C 0.65379 0.75759 0.65823
 C925 C 0.64040 0.74050 0.65387
 C926 C 0.62613 0.74158 0.63696
 C927 C 0.66905 0.75613 0.67510
 C928 C 0.68202 0.75479 0.68905
 H929 H 0.56140 0.74465 0.59009
 H930 H 0.58432 0.74530 0.62150
 H931 H 0.63335 0.77572 0.58476
 H932 H 0.61015 0.77533 0.55361
 H933 H 0.63785 0.79131 0.61945
 H934 H 0.66298 0.78921 0.64904
 H935 H 0.64119 0.72623 0.66335
 H936 H 0.61629 0.72796 0.63358
 C937 C 0.03971 0.75824 0.94018
 C938 C 0.05574 0.75992 0.92996
 C939 C 0.07454 0.76126 0.91718
 C940 C 0.07771 0.77861 0.90378
 C941 C 0.09518 0.77913 0.89020
 C942 C 0.10970 0.76224 0.88980
 C943 C 0.10660 0.74507 0.90365
 C944 C 0.08912 0.74459 0.91721
 C945 C 0.12751 0.76211 0.87445
 C946 C 0.14760 0.75450 0.88037
 C947 C 0.16410 0.75373 0.86561
 C948 C 0.16073 0.76053 0.84477
 C949 C 0.14086 0.76828 0.83879
 C950 C 0.12436 0.76907 0.85350
 C951 C 0.17749 0.75941 0.82939
 C952 C 0.19121 0.75861 0.81615
 H953 H 0.06651 0.79159 0.90359
 H954 H 0.09728 0.79269 0.87993
 H955 H 0.11731 0.73170 0.90354
 H956 H 0.08673 0.73100 0.92740
 H957 H 0.15058 0.74924 0.89642
 H958 H 0.17944 0.74776 0.87043
 H959 H 0.13805 0.77352 0.82268
 H960 H 0.10901 0.77470 0.84835
 C961 C 0.53962 0.25780 0.43962
 C962 C 0.55560 0.25947 0.42933
 C963 C 0.57438 0.26079 0.41652
 C964 C 0.57751 0.27811 0.40307
 C965 C 0.59499 0.27862 0.38951
 C966 C 0.60955 0.26176 0.38919
 C967 C 0.60648 0.24463 0.40309
 C968 C 0.58899 0.24415 0.41663
 C969 C 0.62739 0.26165 0.37389
 C970 C 0.64749 0.25414 0.37990
 C971 C 0.66403 0.25338 0.36519
 C972 C 0.66068 0.26009 0.34432
 C973 C 0.64080 0.26773 0.33825
 C974 C 0.62427 0.26851 0.35290
 C975 C 0.67749 0.25897 0.32899
 C976 C 0.69126 0.25817 0.31581
 H977 H 0.56627 0.29105 0.40283
 H978 H 0.59707 0.29215 0.37920
 H979 H 0.61723 0.23129 0.40303
 H980 H 0.58663 0.23059 0.42687
 H981 H 0.65045 0.24896 0.39598
 H982 H 0.67939 0.24749 0.37007
 H983 H 0.63803 0.27290 0.32211
 H984 H 0.60891 0.27406 0.34769
 C985 C 0.96460 0.75476 0.05421
 C986 C 0.94868 0.75569 0.06467
 C987 C 0.93017 0.75603 0.07791
 C988 C 0.91525 0.73973 0.07645
 C989 C 0.89825 0.73895 0.09059
 C990 C 0.89601 0.75445 0.10644
 C991 C 0.91085 0.77104 0.10746
 C992 C 0.92783 0.77178 0.09330
 C993 C 0.87874 0.75290 0.12229
 C994 C 0.88273 0.75734 0.14378
 C995 C 0.86662 0.75548 0.15882
 C996 C 0.84632 0.74916 0.15262
 C997 C 0.84215 0.74476 0.13129
 C998 C 0.85825 0.74659 0.11620
 C999 C 0.82976 0.74751 0.16815
 C1000 C 0.81594 0.74648 0.18125
 H1001 H 0.91703 0.72735 0.06472
 H1002 H 0.88724 0.72586 0.08956
 H1003 H 0.90939 0.78335 0.11930
 H1004 H 0.93935 0.78442 0.09461
 H1005 H 0.89840 0.76191 0.14902
 H1006 H 0.87002 0.75892 0.17530
 H1007 H 0.82645 0.73996 0.12631
 H1008 H 0.85464 0.74328 0.09976
 C1009 C 0.46435 0.25454 0.55475
 C1010 C 0.44849 0.25539 0.56529
 C1011 C 0.43002 0.25561 0.57856
 C1012 C 0.41576 0.23868 0.57789
 C1013 C 0.39877 0.23792 0.59203
 C1014 C 0.39587 0.25407 0.60708
 C1015 C 0.41004 0.27126 0.60732
 C1016 C 0.42702 0.27199 0.59316
 C1017 C 0.37859 0.25263 0.62293
 C1018 C 0.38230 0.25823 0.64419
 C1019 C 0.36621 0.25643 0.65925
 C1020 C 0.34621 0.24902 0.65328
 C1021 C 0.34231 0.24347 0.63217
 C1022 C 0.35840 0.24524 0.61707
 C1023 C 0.32966 0.24739 0.66881
 C1024 C 0.31584 0.24635 0.68191
 H1025 H 0.41806 0.22582 0.56677
 H1026 H 0.38829 0.22436 0.59162
 H1027 H 0.40805 0.28407 0.61854
 H1028 H 0.43801 0.28513 0.59385
 H1029 H 0.39775 0.26365 0.64926
 H1030 H 0.36938 0.26077 0.67556
 H1031 H 0.32684 0.23782 0.62737
 H1032 H 0.35500 0.24102 0.60079
 C1033 C 0.94593 0.25641 0.96072
 C1034 C 0.93548 0.25854 0.94487
 C1035 C 0.92222 0.26035 0.92642
 C1036 C 0.90793 0.27717 0.92462
 C1037 C 0.89366 0.27786 0.90769
 C1038 C 0.89347 0.26169 0.89236
 C1039 C 0.90826 0.24512 0.89404
 C1040 C 0.92251 0.24446 0.91099
 C1041 C 0.87732 0.26155 0.87525
 C1042 C 0.88267 0.25519 0.85457
 C1043 C 0.86718 0.25416 0.83875
 C1044 C 0.84619 0.25946 0.84340
 C1045 C 0.84076 0.26603 0.86386
 C1046 C 0.85621 0.26708 0.87968
 C1047 C 0.83010 0.25774 0.82735
 C1048 C 0.81651 0.25615 0.81403
 H1049 H 0.90753 0.28951 0.93652
 H1050 H 0.88265 0.29096 0.90668
 H1051 H 0.90833 0.23229 0.88267
 H1052 H 0.93337 0.23127 0.91234
 H1053 H 0.89882 0.25104 0.85062
 H1054 H 0.87155 0.24909 0.82295
 H1055 H 0.82454 0.27009 0.86765
 H1056 H 0.85152 0.27172 0.89551
 C1057 C 0.44564 0.75819 0.46051
 C1058 C 0.43505 0.76021 0.44475
 C1059 C 0.42171 0.76190 0.42636
 C1060 C 0.40721 0.77854 0.42464
 C1061 C 0.39292 0.77913 0.40773
 C1062 C 0.39292 0.76301 0.39234
 C1063 C 0.40790 0.74662 0.39395
 C1064 C 0.42217 0.74606 0.41087
 C1065 C 0.37679 0.76276 0.37522
 C1066 C 0.38223 0.75657 0.35451
 C1067 C 0.36677 0.75544 0.33868
 C1068 C 0.34571 0.76047 0.34334
 C1069 C 0.34019 0.76687 0.36382
 C1070 C 0.35561 0.76802 0.37966
 C1071 C 0.32966 0.75865 0.32728
 C1072 C 0.31608 0.75698 0.31396
 H1073 H 0.40667 0.79084 0.43659
 H1074 H 0.38175 0.79209 0.40677
 H1075 H 0.40812 0.73383 0.38253
 H1076 H 0.43320 0.73300 0.41216
 H1077 H 0.39843 0.75264 0.35055
 H1078 H 0.37121 0.75050 0.32285
 H1079 H 0.32392 0.77072 0.36762
 H1080 H 0.35086 0.77252 0.39552
 C1081 C 0.05285 0.03573 0.24675
 C1082 C 0.06298 0.05187 0.24564
 C1083 C 0.07581 0.07069 0.24504
 C1084 C 0.07275 0.08667 0.26008
 C1085 C 0.08634 0.10413 0.26067
 C1086 C 0.10322 0.10581 0.24623
 C1087 C 0.10588 0.08986 0.23089
 C1088 C 0.09229 0.07241 0.23035
 C1089 C 0.11843 0.12370 0.24760
 C1090 C 0.12635 0.13329 0.22911
 C1091 C 0.14131 0.14955 0.23045
 C1092 C 0.14856 0.15644 0.25025
 C1093 C 0.14062 0.14716 0.26873
 C1094 C 0.12564 0.13092 0.26744
 C1095 C 0.16452 0.17265 0.25153
 C1096 C 0.17808 0.18606 0.25236
 H1097 H 0.06009 0.08547 0.27159
 H1098 H 0.08371 0.11627 0.27249
 H1099 H 0.11888 0.09054 0.21973
 H1100 H 0.09492 0.06004 0.21876
 H1101 H 0.12094 0.12826 0.21363
 H1102 H 0.14733 0.15664 0.21603
 H1103 H 0.14618 0.15231 0.28414
 H1104 H 0.12009 0.12366 0.28195
 C1105 C 0.55429 0.53609 0.74535
 C1106 C 0.56454 0.55214 0.74440
 C1107 C 0.57740 0.57093 0.74400
 C1108 C 0.57389 0.58707 0.75876
 C1109 C 0.58744 0.60455 0.75955
 C1110 C 0.60472 0.60608 0.74558
 C1111 C 0.60786 0.58996 0.73051
 C1112 C 0.59430 0.57249 0.72977
 C1113 C 0.61985 0.62399 0.74717
 C1114 C 0.62824 0.63341 0.72880
 C1115 C 0.64314 0.64969 0.73037
 C1116 C 0.64985 0.65678 0.75029
 C1117 C 0.64142 0.64769 0.76865
 C1118 C 0.62651 0.63142 0.76712
 C1119 C 0.66576 0.67300 0.75182
 C1120 C 0.67928 0.68642 0.75283
 H1121 H 0.56089 0.58598 0.76990
 H1122 H 0.58445 0.61683 0.77113
 H1123 H 0.62117 0.59053 0.71974
 H1124 H 0.59728 0.55999 0.71841
 H1125 H 0.62325 0.62821 0.71323
 H1126 H 0.64955 0.65664 0.71605
 H1127 H 0.64657 0.65300 0.78414
 H1128 H 0.62057 0.62430 0.78155
 C1129 C 0.96120 0.05414 0.75101
 C1130 C 0.94562 0.06507 0.75247
 C1131 C 0.92771 0.07911 0.75348
 C1132 C 0.92624 0.09400 0.76982
 C1133 C 0.91003 0.10907 0.76969
 C1134 C 0.89509 0.10948 0.75314
 C1135 C 0.89642 0.09412 0.73703
 C1136 C 0.91266 0.07908 0.73720
 C1137 C 0.87859 0.12622 0.75232
 C1138 C 0.85782 0.12142 0.74585
 C1139 C 0.84242 0.13729 0.74482
 C1140 C 0.84757 0.15815 0.75019
 C1141 C 0.86818 0.16310 0.75663
 C1142 C 0.88359 0.14726 0.75769
 C1143 C 0.83159 0.17439 0.74948
 C1144 C 0.81801 0.18779 0.74920
 H1145 H 0.93787 0.09425 0.78245
 H1146 H 0.90925 0.12047 0.78246
 H1147 H 0.88533 0.09417 0.72395
 H1148 H 0.91377 0.06778 0.72434
 H1149 H 0.85341 0.10535 0.74184
 H1150 H 0.82648 0.13326 0.73993
 H1151 H 0.87234 0.17919 0.76083
 H1152 H 0.89951 0.15153 0.76242
 C1153 C 0.46058 0.55489 0.25215
 C1154 C 0.44514 0.56601 0.25348
 C1155 C 0.42737 0.58021 0.25435
 C1156 C 0.42649 0.59585 0.27003
 C1157 C 0.41033 0.61095 0.26972
 C1158 C 0.39486 0.61065 0.25367
 C1159 C 0.39563 0.59458 0.23824
 C1160 C 0.41181 0.57950 0.23857
 C1161 C 0.37837 0.62736 0.25265
 C1162 C 0.35737 0.62228 0.24723
 C1163 C 0.34194 0.63809 0.24605
 C1164 C 0.34729 0.65917 0.25024
 C1165 C 0.36813 0.66440 0.25563
 C1166 C 0.38358 0.64861 0.25683
 C1167 C 0.33129 0.67535 0.24944
 C1168 C 0.31769 0.68871 0.24910
 H1169 H 0.43852 0.59661 0.28225
 H1170 H 0.40999 0.62294 0.28198
 H1171 H 0.38411 0.59407 0.22554
 H1172 H 0.41248 0.56760 0.22623
 H1173 H 0.35282 0.60604 0.24416
 H1174 H 0.32582 0.63387 0.24199
 H1175 H 0.37244 0.68067 0.25891
 H1176 H 0.39966 0.65307 0.26074
 C1177 C 0.03702 0.94171 0.75516
 C1178 C 0.05345 0.93203 0.75607
 C1179 C 0.07277 0.91995 0.75647
 C1180 C 0.07780 0.90753 0.77412
 C1181 C 0.09578 0.89462 0.77385
 C1182 C 0.10895 0.89392 0.75587
 C1183 C 0.10398 0.90681 0.73838
 C1184 C 0.08599 0.91970 0.73868
 C1185 C 0.12726 0.87918 0.75502
 C1186 C 0.14648 0.88531 0.74552
 C1187 C 0.16342 0.87110 0.74422
 C1188 C 0.16137 0.85060 0.75236
 C1189 C 0.14238 0.84442 0.76192
 C1190 C 0.12546 0.85857 0.76325
 C1191 C 0.17854 0.83569 0.75087
 C1192 C 0.19237 0.82256 0.75005
 H1193 H 0.06767 0.90757 0.78796
 H1194 H 0.09933 0.88511 0.78767
 H1195 H 0.11361 0.90643 0.72420
 H1196 H 0.08217 0.92914 0.72487
 H1197 H 0.14844 0.90113 0.73923
 H1198 H 0.17807 0.87608 0.73683
 H1199 H 0.14059 0.82856 0.76822
 H1200 H 0.11080 0.85322 0.77033
 C1201 C 0.53676 0.44032 0.25642
 C1202 C 0.55310 0.43053 0.25741
 C1203 C 0.57235 0.41838 0.25788
 C1204 C 0.57540 0.40297 0.27350
 C1205 C 0.59338 0.39009 0.27302
 C1206 C 0.60855 0.39244 0.25686
 C1207 C 0.60558 0.40830 0.24151
 C1208 C 0.58757 0.42116 0.24201
 C1209 C 0.62692 0.37783 0.25554
 C1210 C 0.64712 0.38529 0.24978
 C1211 C 0.66423 0.37131 0.24815
 C1212 C 0.66133 0.34973 0.25221
 C1213 C 0.64133 0.34220 0.25797
 C1214 C 0.62425 0.35611 0.25961
 C1215 C 0.67873 0.33512 0.25068
 C1216 C 0.69268 0.32214 0.24985
 H1217 H 0.56371 0.40066 0.28584
 H1218 H 0.59537 0.37823 0.28524
 H1219 H 0.61682 0.41034 0.22873
 H1220 H 0.58530 0.43296 0.22976
 H1221 H 0.64972 0.40195 0.24673
 H1222 H 0.67967 0.37732 0.24376
 H1223 H 0.63890 0.32552 0.26111
 H1224 H 0.60885 0.34980 0.26372
 C1225 C 0.94063 0.95936 0.24746
 C1226 C 0.93039 0.94329 0.24627
 C1227 C 0.91738 0.92460 0.24547
 C1228 C 0.91693 0.91069 0.26272
 C1229 C 0.90298 0.89351 0.26277
 C1230 C 0.88921 0.89007 0.24557
 C1231 C 0.89012 0.90389 0.22810
 C1232 C 0.90409 0.92105 0.22809
 C1233 C 0.87346 0.87261 0.24617
 C1234 C 0.85271 0.87592 0.23875
 C1235 C 0.83773 0.85968 0.23962
 C1236 C 0.84322 0.83991 0.24794
 C1237 C 0.86382 0.83641 0.25534
 C1238 C 0.87885 0.85266 0.25450
 C1239 C 0.82772 0.82322 0.24855
 C1240 C 0.81448 0.80947 0.24861
 H1241 H 0.92702 0.91339 0.27635
 H1242 H 0.90249 0.88332 0.27656
 H1243 H 0.87995 0.90150 0.21450
 H1244 H 0.90426 0.93175 0.21468
 H1245 H 0.84796 0.89118 0.23256
 H1246 H 0.82183 0.86257 0.23386
 H1247 H 0.86828 0.82113 0.26171
 H1248 H 0.89474 0.84955 0.26013
 C1249 C 0.43983 0.45937 0.74639
 C1250 C 0.42936 0.44345 0.74535
 C1251 C 0.41614 0.42493 0.74475
 C1252 C 0.41722 0.41001 0.76111
 C1253 C 0.40318 0.39291 0.76149
 C1254 C 0.38780 0.39057 0.74552
 C1255 C 0.38715 0.40541 0.72890
 C1256 C 0.40121 0.42248 0.72855
 C1257 C 0.37207 0.37313 0.74653
 C1258 C 0.35074 0.37693 0.74137
 C1259 C 0.33584 0.36064 0.74249
 C1260 C 0.34201 0.34034 0.74879
 C1261 C 0.36319 0.33637 0.75399
 C1262 C 0.37814 0.35267 0.75291
 C1263 C 0.32663 0.32356 0.74943
 C1264 C 0.31351 0.30971 0.74945
 H1265 H 0.42861 0.41185 0.77383
 H1266 H 0.40393 0.38190 0.77461
 H1267 H 0.37570 0.40387 0.71622
 H1268 H 0.40020 0.43397 0.71585
 H1269 H 0.34550 0.39258 0.73674
 H1270 H 0.31949 0.36388 0.73843
 H1271 H 0.36816 0.32067 0.75877
 H1272 H 0.39447 0.34921 0.75677
 C1273 C 0.05938 0.24049 0.95923
 C1274 C 0.06954 0.23841 0.94320
 C1275 C 0.08226 0.23661 0.92438
 C1276 C 0.07657 0.24758 0.90597
 C1277 C 0.08980 0.24717 0.88822
 C1278 C 0.10895 0.23580 0.88867
 C1279 C 0.11430 0.22447 0.90711
 C1280 C 0.10106 0.22491 0.92484
 C1281 C 0.12369 0.23641 0.87035
 C1282 C 0.13484 0.21818 0.86412
 C1283 C 0.14949 0.21908 0.84754
 C1284 C 0.15317 0.23819 0.83696
 C1285 C 0.14194 0.25635 0.84284
 C1286 C 0.12729 0.25548 0.85940
 C1287 C 0.16899 0.23935 0.82061
 C1288 C 0.18254 0.24034 0.80720
 H1289 H 0.06208 0.25674 0.90546
 H1290 H 0.08511 0.25584 0.87418
 H1291 H 0.12906 0.21580 0.90807
 H1292 H 0.10571 0.21650 0.93906
 H1293 H 0.13225 0.20322 0.87207
 H1294 H 0.15809 0.20493 0.84311
 H1295 H 0.14476 0.27125 0.83484
 H1296 H 0.11920 0.26986 0.86401
 C1297 C 0.55967 0.74178 0.45895
 C1298 C 0.56977 0.73960 0.44289
 C1299 C 0.58250 0.73766 0.42407
 C1300 C 0.57701 0.74878 0.40569
 C1301 C 0.59028 0.74825 0.38797
 C1302 C 0.60927 0.73660 0.38842
 C1303 C 0.61441 0.72513 0.40684
 C1304 C 0.60113 0.72570 0.42453
 C1305 C 0.62408 0.73709 0.37014
 C1306 C 0.63507 0.71875 0.36390
 C1307 C 0.64977 0.71952 0.34736
 C1308 C 0.65368 0.73861 0.33682
 C1309 C 0.64263 0.75687 0.34270
 C1310 C 0.62792 0.75613 0.35923
 C1311 C 0.66952 0.73963 0.32046
 C1312 C 0.68305 0.74056 0.30703
 H1313 H 0.56266 0.75815 0.40518
 H1314 H 0.58575 0.75703 0.37395
 H1315 H 0.62904 0.71626 0.40781
 H1316 H 0.60563 0.71718 0.43874
 H1317 H 0.63230 0.70380 0.37182
 H1318 H 0.65823 0.70528 0.34293
 H1319 H 0.64561 0.77176 0.33472
 H1320 H 0.61998 0.77059 0.36384
 C1321 C 0.96414 0.74638 0.94085
 C1322 C 0.94788 0.74530 0.93089
 C1323 C 0.92870 0.74473 0.91856
 C1324 C 0.91723 0.76337 0.91519
 C1325 C 0.89926 0.76321 0.90227
 C1326 C 0.89251 0.74437 0.89248
 C1327 C 0.90396 0.72563 0.89625
 C1328 C 0.92195 0.72583 0.90920
 C1329 C 0.87410 0.74448 0.87781
 C1330 C 0.87474 0.73284 0.85882
 C1331 C 0.85784 0.73362 0.84454
 C1332 C 0.84005 0.74602 0.84902
 C1333 C 0.83912 0.75748 0.86798
 C1334 C 0.85603 0.75672 0.88229
 C1335 C 0.82308 0.74732 0.83385
 C1336 C 0.80926 0.74827 0.82069
 H1337 H 0.92240 0.77812 0.92226
 H1338 H 0.89100 0.77796 0.89946
 H1339 H 0.89902 0.71083 0.88917
 H1340 H 0.93071 0.71131 0.91169
 H1341 H 0.88853 0.72353 0.85474
 H1342 H 0.85877 0.72476 0.82987
 H1343 H 0.82541 0.76711 0.87161
 H1344 H 0.85494 0.76566 0.89688
 C1345 C 0.46302 0.24596 0.44022
 C1346 C 0.44674 0.24494 0.43027
 C1347 C 0.42757 0.24439 0.41792
 C1348 C 0.41604 0.26302 0.41466
 C1349 C 0.39810 0.26289 0.40168
 C1350 C 0.39146 0.24411 0.39171
 C1351 C 0.40296 0.22538 0.39537
 C1352 C 0.42091 0.22554 0.40838
 C1353 C 0.37308 0.24426 0.37698
 C1354 C 0.37382 0.23275 0.35791
 C1355 C 0.35694 0.23354 0.34361
 C1356 C 0.33907 0.24582 0.34813
 C1357 C 0.33806 0.25716 0.36715
 C1358 C 0.35494 0.25639 0.38150
 C1359 C 0.32209 0.24709 0.33294
 C1360 C 0.30827 0.24800 0.31979
 H1361 H 0.42113 0.27773 0.42186
 H1362 H 0.38979 0.27763 0.39895
 H1363 H 0.39811 0.21062 0.38815
 H1364 H 0.42972 0.21104 0.41078
 H1365 H 0.38766 0.22353 0.35380
 H1366 H 0.35793 0.22477 0.32888
 H1367 H 0.32429 0.26669 0.37083
 H1368 H 0.35379 0.26524 0.39614
 C1369 C 0.04004 0.74355 0.05464
 C1370 C 0.05575 0.74210 0.06538
 C1371 C 0.07389 0.74110 0.07915
 C1372 C 0.07591 0.72449 0.09367
 C1373 C 0.09236 0.72460 0.10851
 C1374 C 0.10698 0.74139 0.10905
 C1375 C 0.10510 0.75777 0.09405
 C1376 C 0.08863 0.75762 0.07924
 C1377 C 0.12363 0.74225 0.12565
 C1378 C 0.14419 0.74928 0.12077
 C1379 C 0.15965 0.75063 0.13659
 C1380 C 0.15477 0.74499 0.15747
 C1381 C 0.13441 0.73788 0.16247
 C1382 C 0.11894 0.73651 0.14668
 C1383 C 0.17068 0.74646 0.17374
 C1384 C 0.18413 0.74761 0.18725
 H1385 H 0.06452 0.71167 0.09382
 H1386 H 0.09355 0.71163 0.11965
 H1387 H 0.11593 0.77104 0.09422
 H1388 H 0.08708 0.77068 0.06822
 H1389 H 0.14836 0.75359 0.10470
 H1390 H 0.17539 0.75607 0.13253
 H1391 H 0.13046 0.73350 0.17859
 H1392 H 0.10319 0.73134 0.15102
 C1393 C 0.54079 0.24334 0.55417
 C1394 C 0.55652 0.24190 0.56491
 C1395 C 0.57465 0.24091 0.57870
 C1396 C 0.57675 0.22420 0.59310
 C1397 C 0.59316 0.22430 0.60798
 C1398 C 0.60768 0.24118 0.60869
 C1399 C 0.60572 0.25766 0.59381
 C1400 C 0.58929 0.25752 0.57896
 C1401 C 0.62430 0.24201 0.62535
 C1402 C 0.64482 0.24924 0.62058
 C1403 C 0.66024 0.25052 0.63643
 C1404 C 0.65538 0.24463 0.65725
 C1405 C 0.63506 0.23733 0.66214
 C1406 C 0.61961 0.23602 0.64631
 C1407 C 0.67127 0.24602 0.67356
 C1408 C 0.68470 0.24710 0.68710
 H1409 H 0.56544 0.21131 0.59313
 H1410 H 0.59441 0.21125 0.61903
 H1411 H 0.61646 0.27100 0.59412
 H1412 H 0.58768 0.27066 0.56804
 H1413 H 0.64898 0.25375 0.60456
 H1414 H 0.67596 0.25611 0.63245
 H1415 H 0.63111 0.23276 0.67820
 H1416 H 0.60389 0.23071 0.65057
 C1417 C 0.94541 0.24250 0.03588
 C1418 C 0.93498 0.24088 0.05178
 C1419 C 0.92180 0.23972 0.07033
 C1420 C 0.90284 0.22829 0.06969
 C1421 C 0.88908 0.22863 0.08702
 C1422 C 0.89408 0.24048 0.10523
 C1423 C 0.91341 0.25154 0.10590
 C1424 C 0.92715 0.25118 0.08854
 C1425 C 0.87882 0.24195 0.12306
 C1426 C 0.87526 0.26142 0.13328
 C1427 C 0.86029 0.26305 0.14949
 C1428 C 0.84867 0.24526 0.15572
 C1429 C 0.85223 0.22577 0.14581
 C1430 C 0.86719 0.22411 0.12958
 C1431 C 0.83288 0.24710 0.17203
 C1432 C 0.81958 0.24868 0.18562
 H1433 H 0.89845 0.21953 0.05560
 H1434 H 0.87421 0.22017 0.08589
 H1435 H 0.91783 0.26058 0.11979
 H1436 H 0.94176 0.26014 0.08918
 H1437 H 0.88371 0.27551 0.12841
 H1438 H 0.85761 0.27823 0.15700
 H1439 H 0.84335 0.21189 0.15055
 H1440 H 0.86973 0.20886 0.12219
 C1441 C 0.44634 0.74454 0.53675
 C1442 C 0.43597 0.74303 0.55271
 C1443 C 0.42281 0.74196 0.57129
 C1444 C 0.40839 0.72533 0.57375
 C1445 C 0.39429 0.72529 0.59082
 C1446 C 0.39439 0.74194 0.60564
 C1447 C 0.40928 0.75834 0.60328
 C1448 C 0.42336 0.75834 0.58619
 C1449 C 0.37852 0.74267 0.62300
 C1450 C 0.38424 0.74965 0.64340
 C1451 C 0.36907 0.75106 0.65946
 C1452 C 0.34800 0.74553 0.65537
 C1453 C 0.34220 0.73839 0.63520
 C1454 C 0.35734 0.73696 0.61912
 C1455 C 0.33228 0.74740 0.67176
 C1456 C 0.31903 0.74899 0.68541
 H1457 H 0.40777 0.71261 0.56226
 H1458 H 0.38321 0.71231 0.59236
 H1459 H 0.40959 0.77151 0.61423
 H1460 H 0.43432 0.77139 0.58433
 H1461 H 0.40045 0.75393 0.64694
 H1462 H 0.37375 0.75655 0.67504
 H1463 H 0.32593 0.73412 0.63184
 H1464 H 0.35235 0.73183 0.60352
 C1465 C 0.24359 0.05881 0.96333
 C1466 C 0.24230 0.06852 0.94693
 C1467 C 0.24149 0.08060 0.92762
 C1468 C 0.22288 0.09106 0.92171
 C1469 C 0.22260 0.10392 0.90367
 C1470 C 0.24098 0.10653 0.89134
 C1471 C 0.25948 0.09561 0.89721
 C1472 C 0.25972 0.08276 0.91523
 C1473 C 0.24114 0.12124 0.87296
 C1474 C 0.25224 0.11610 0.85432
 C1475 C 0.25322 0.13046 0.83747
 C1476 C 0.24311 0.15010 0.83903
 C1477 C 0.23180 0.15523 0.85738
 C1478 C 0.23080 0.14091 0.87423
 C1479 C 0.24472 0.16530 0.82213
 C1480 C 0.24598 0.17849 0.80838
 H1481 H 0.20868 0.08951 0.93119
 H1482 H 0.20804 0.11190 0.89942
 H1483 H 0.27396 0.09750 0.88824
 H1484 H 0.27426 0.07485 0.91974
 H1485 H 0.26016 0.10099 0.85277
 H1486 H 0.26199 0.12632 0.82333
 H1487 H 0.22398 0.17042 0.85879
 H1488 H 0.22240 0.14548 0.88846
 C1489 C 0.74220 0.55898 0.46240
 C1490 C 0.74068 0.56876 0.44606
 C1491 C 0.73954 0.58092 0.42681
 C1492 C 0.72728 0.59935 0.42605
 C1493 C 0.72738 0.61203 0.40790
 C1494 C 0.73981 0.60648 0.39025
 C1495 C 0.75176 0.58770 0.39103
 C1496 C 0.75164 0.57504 0.40920
 C1497 C 0.74091 0.62065 0.37150
 C1498 C 0.76040 0.62450 0.36139
 C1499 C 0.76167 0.63870 0.34446
 C1500 C 0.74352 0.64922 0.33735
 C1501 C 0.72400 0.64524 0.34705
 C1502 C 0.72269 0.63105 0.36400
 C1503 C 0.74505 0.66474 0.32073
 C1504 C 0.74624 0.67814 0.30718
 H1505 H 0.71799 0.60414 0.43965
 H1506 H 0.71823 0.62651 0.40793
 H1507 H 0.76128 0.58286 0.37762
 H1508 H 0.76123 0.56083 0.40963
 H1509 H 0.77476 0.61699 0.36697
 H1510 H 0.77688 0.64176 0.33715
 H1511 H 0.70985 0.65330 0.34168
 H1512 H 0.70743 0.62824 0.37127
 C1513 C 0.74423 0.04003 0.06036
 C1514 C 0.74321 0.05601 0.07075
 C1515 C 0.74270 0.07461 0.08390
 C1516 C 0.75734 0.09091 0.08064
 C1517 C 0.75807 0.10814 0.09453
 C1518 C 0.74417 0.10927 0.11191
 C1519 C 0.72922 0.09301 0.11479
 C1520 C 0.72853 0.07579 0.10089
 C1521 C 0.74572 0.12692 0.12739
 C1522 C 0.72736 0.13606 0.13608
 C1523 C 0.72891 0.15219 0.15116
 C1524 C 0.74879 0.15941 0.15777
 C1525 C 0.76714 0.15055 0.14912
 C1526 C 0.76564 0.13442 0.13402
 C1527 C 0.75035 0.17576 0.17358
 C1528 C 0.75159 0.18943 0.18685
 H1529 H 0.76844 0.09012 0.06759
 H1530 H 0.76956 0.12053 0.09172
 H1531 H 0.71850 0.09327 0.12816
 H1532 H 0.71727 0.06317 0.10368
 H1533 H 0.71182 0.13080 0.13112
 H1534 H 0.71459 0.15899 0.15771
 H1535 H 0.78261 0.15597 0.15416
 H1536 H 0.78006 0.12751 0.12788
 C1537 C 0.24418 0.54080 0.55988
 C1538 C 0.24322 0.55672 0.57035
 C1539 C 0.24276 0.57526 0.58359
 C1540 C 0.22592 0.57852 0.59760
 C1541 C 0.22634 0.59556 0.61173
 C1542 C 0.24367 0.60955 0.61207
 C1543 C 0.26032 0.60638 0.59761
 C1544 C 0.25987 0.58933 0.58351
 C1545 C 0.24475 0.62693 0.62790
 C1546 C 0.25270 0.64695 0.62227
 C1547 C 0.25422 0.66308 0.63738
 C1548 C 0.24785 0.65940 0.65829
 C1549 C 0.23982 0.63958 0.66402
 C1550 C 0.23827 0.62345 0.64895
 C1551 C 0.24958 0.67591 0.67392
 C1552 C 0.25095 0.68966 0.68709
 H1553 H 0.21263 0.56768 0.59786
 H1554 H 0.21316 0.59773 0.62246
 H1555 H 0.27401 0.61669 0.59766
 H1556 H 0.27309 0.58685 0.57287
 H1557 H 0.25760 0.65019 0.60615
 H1558 H 0.26040 0.67839 0.63276
 H1559 H 0.23488 0.63655 0.68018
 H1560 H 0.23239 0.60813 0.65386
 C1561 C 0.74276 0.96371 0.94685
 C1562 C 0.74137 0.94764 0.93665
 C1563 C 0.74042 0.92884 0.92380
 C1564 C 0.75797 0.91538 0.92268
 C1565 C 0.75780 0.89802 0.90895
 C1566 C 0.74007 0.89393 0.89609
 C1567 C 0.72233 0.90731 0.89766
 C1568 C 0.72253 0.92467 0.91141
 C1569 C 0.74042 0.87630 0.88051
 C1570 C 0.73203 0.87916 0.86005
 C1571 C 0.73299 0.86288 0.84511
 C1572 C 0.74234 0.84351 0.85037
 C1573 C 0.75059 0.84042 0.87072
 C1574 C 0.74966 0.85670 0.88571
 C1575 C 0.74359 0.82697 0.83474
 C1576 C 0.74446 0.81340 0.82134
 H1577 H 0.77198 0.91857 0.93208
 H1578 H 0.77181 0.88820 0.90792
 H1579 H 0.70833 0.90442 0.88817
 H1580 H 0.70888 0.93502 0.91211
 H1581 H 0.72512 0.89415 0.85544
 H1582 H 0.72661 0.86547 0.82938
 H1583 H 0.75781 0.82546 0.87498
 H1584 H 0.75605 0.85394 0.90139
 C1585 C 0.24275 0.46350 0.44571
 C1586 C 0.24130 0.44744 0.43549
 C1587 C 0.24030 0.42867 0.42262
 C1588 C 0.25790 0.41529 0.42127
 C1589 C 0.25766 0.39796 0.40751
 C1590 C 0.23980 0.39380 0.39484
 C1591 C 0.22201 0.40710 0.39664
 C1592 C 0.22229 0.42443 0.41042
 C1593 C 0.24006 0.37619 0.37924
 C1594 C 0.23138 0.37901 0.35890
 C1595 C 0.23224 0.36275 0.34393
 C1596 C 0.24178 0.34343 0.34905
 C1597 C 0.25032 0.34038 0.36929
 C1598 C 0.24948 0.35665 0.38430
 C1599 C 0.24291 0.32690 0.33340
 C1600 C 0.24370 0.31330 0.32002
 H1601 H 0.27199 0.41853 0.43051
 H1602 H 0.27170 0.38821 0.40630
 H1603 H 0.20792 0.40416 0.38731
 H1604 H 0.20860 0.43471 0.41130
 H1605 H 0.22432 0.39396 0.35439
 H1606 H 0.22563 0.36530 0.32828
 H1607 H 0.25769 0.32546 0.37344
 H1608 H 0.25610 0.35390 0.39989
 C1609 C 0.24456 0.94567 0.03953
 C1610 C 0.24241 0.93489 0.05515
 C1611 C 0.24058 0.92118 0.07326
 C1612 C 0.22470 0.90576 0.07391
 C1613 C 0.22412 0.89111 0.09051
 C1614 C 0.23949 0.89166 0.10666
 C1615 C 0.25511 0.90754 0.10610
 C1616 C 0.25566 0.92216 0.08949
 C1617 C 0.23976 0.87528 0.12354
 C1618 C 0.24466 0.88069 0.14461
 C1619 C 0.24566 0.86510 0.16030
 C1620 C 0.24179 0.84390 0.15516
 C1621 C 0.23672 0.83838 0.13429
 C1622 C 0.23570 0.85394 0.11859
 C1623 C 0.24328 0.82780 0.17122
 C1624 C 0.24459 0.81437 0.18472
 H1625 H 0.21301 0.90479 0.06138
 H1626 H 0.21174 0.87926 0.09064
 H1627 H 0.26732 0.90822 0.11813
 H1628 H 0.26815 0.93389 0.08903
 H1629 H 0.24762 0.89700 0.14898
 H1630 H 0.24953 0.86956 0.17642
 H1631 H 0.23376 0.82201 0.13012
 H1632 H 0.23220 0.84921 0.10247
 C1633 C 0.74464 0.44522 0.53957
 C1634 C 0.74264 0.43439 0.55517
 C1635 C 0.74100 0.42061 0.57325
 C1636 C 0.72505 0.40526 0.57408
 C1637 C 0.72463 0.39056 0.59063
 C1638 C 0.74022 0.39097 0.60657
 C1639 C 0.75591 0.40677 0.60584
 C1640 C 0.75630 0.42145 0.58927
 C1641 C 0.74061 0.37456 0.62342
 C1642 C 0.74583 0.37991 0.64443
 C1643 C 0.74687 0.36429 0.66010
 C1644 C 0.74273 0.34314 0.65500
 C1645 C 0.73736 0.33768 0.63419
 C1646 C 0.73629 0.35326 0.61850
 C1647 C 0.74416 0.32703 0.67106
 C1648 C 0.74541 0.31361 0.68458
 H1649 H 0.71318 0.40440 0.56171
 H1650 H 0.71218 0.37878 0.59090
 H1651 H 0.76829 0.40735 0.61770
 H1652 H 0.76885 0.43312 0.58868
 H1653 H 0.74899 0.39618 0.64877
 H1654 H 0.75098 0.36871 0.67618
 H1655 H 0.73417 0.32134 0.63005
 H1656 H 0.73253 0.34857 0.60243
 C1657 C 0.03612 0.05379 0.73672
 C1658 C 0.05213 0.06394 0.73470
 C1659 C 0.07092 0.07668 0.73325
 C1660 C 0.08887 0.07134 0.74510
 C1661 C 0.10641 0.08481 0.74535
 C1662 C 0.10618 0.10383 0.73377
 C1663 C 0.08826 0.10879 0.72149
 C1664 C 0.07073 0.09531 0.72128
 C1665 C 0.12413 0.11891 0.73522
 C1666 C 0.13115 0.12993 0.71718
 C1667 C 0.14739 0.14487 0.71882
 C1668 C 0.15679 0.14898 0.73847
 C1669 C 0.15012 0.13791 0.75646
 C1670 C 0.13390 0.12296 0.75486
 C1671 C 0.17294 0.16492 0.74025
 C1672 C 0.18630 0.17845 0.74160
 H1673 H 0.08913 0.05699 0.75449
 H1674 H 0.12009 0.08044 0.75474
 H1675 H 0.08749 0.12344 0.71264
 H1676 H 0.05683 0.09968 0.71222
 H1677 H 0.12410 0.12699 0.70182
 H1678 H 0.15248 0.15334 0.70479
 H1679 H 0.15725 0.14104 0.77176
 H1680 H 0.12864 0.11496 0.76908
 C1681 C 0.53658 0.55316 0.23848
 C1682 C 0.55261 0.56331 0.23661
 C1683 C 0.57133 0.57620 0.23524
 C1684 C 0.58646 0.57543 0.25143
 C1685 C 0.60364 0.58936 0.25125
 C1686 C 0.60587 0.60432 0.23490
 C1687 C 0.59084 0.60461 0.21841
 C1688 C 0.57367 0.59066 0.21862
 C1689 C 0.62325 0.62013 0.23554
 C1690 C 0.61931 0.64136 0.23009
 C1691 C 0.63542 0.65645 0.23143
 C1692 C 0.65566 0.65056 0.23821
 C1693 C 0.65981 0.62946 0.24351
 C1694 C 0.64371 0.61432 0.24219
 C1695 C 0.67208 0.66625 0.23983
 C1696 C 0.68564 0.67960 0.24107
 H1697 H 0.58468 0.56443 0.26447
 H1698 H 0.61477 0.58891 0.26430
 H1699 H 0.59228 0.61575 0.20546
 H1700 H 0.56200 0.59145 0.20606
 H1701 H 0.60366 0.64640 0.22524
 H1702 H 0.63203 0.67276 0.22734
 H1703 H 0.67545 0.62472 0.24871
 H1704 H 0.64728 0.59807 0.24628
 C1705 C 0.05468 0.96015 0.25730
 C1706 C 0.06530 0.94435 0.25829
 C1707 C 0.07866 0.92593 0.25876
 C1708 C 0.07809 0.91145 0.24200
 C1709 C 0.09232 0.89452 0.24148
 C1710 C 0.10737 0.89192 0.25772
 C1711 C 0.10748 0.90630 0.27475
 C1712 C 0.09323 0.92321 0.27524
 C1713 C 0.12339 0.87480 0.25648
 C1714 C 0.14458 0.87883 0.26207
 C1715 C 0.15983 0.86291 0.26045
 C1716 C 0.15415 0.84277 0.25323
 C1717 C 0.13312 0.83855 0.24770
 C1718 C 0.11781 0.85446 0.24929
 C1719 C 0.16999 0.82650 0.25167
 C1720 C 0.18356 0.81316 0.25066
 H1721 H 0.06699 0.91352 0.22907
 H1722 H 0.09201 0.88389 0.22804
 H1723 H 0.11868 0.90455 0.28763
 H1724 H 0.09384 0.93437 0.28826
 H1725 H 0.14944 0.89439 0.26733
 H1726 H 0.17608 0.86635 0.26473
 H1727 H 0.12854 0.82297 0.24217
 H1728 H 0.10160 0.85083 0.24508
 C1729 C 0.55466 0.45942 0.75560
 C1730 C 0.56522 0.44355 0.75655
 C1731 C 0.57858 0.42511 0.75701
 C1732 C 0.57936 0.41159 0.73947
 C1733 C 0.59365 0.39470 0.73910
 C1734 C 0.60742 0.39116 0.75627
 C1735 C 0.60617 0.40457 0.77404
 C1736 C 0.59187 0.42144 0.77438
 C1737 C 0.62353 0.37407 0.75532
 C1738 C 0.64420 0.37767 0.76282
 C1739 C 0.65957 0.36183 0.76146
 C1740 C 0.65454 0.34218 0.75259
 C1741 C 0.63401 0.33837 0.74515
 C1742 C 0.61859 0.35421 0.74648
 C1743 C 0.67051 0.32600 0.75121
 C1744 C 0.68414 0.31268 0.75034
 H1745 H 0.56928 0.41440 0.72586
 H1746 H 0.59439 0.38484 0.72509
 H1747 H 0.61635 0.40208 0.78762
 H1748 H 0.59144 0.43185 0.78801
 H1749 H 0.64861 0.39287 0.76939
 H1750 H 0.67542 0.36497 0.76723
 H1751 H 0.62992 0.32318 0.73832
 H1752 H 0.60278 0.35088 0.74077
 C1753 C 0.93917 0.03494 0.25817
 C1754 C 0.92875 0.05088 0.25920
 C1755 C 0.91576 0.06956 0.25966
 C1756 C 0.91931 0.08588 0.24511
 C1757 C 0.90569 0.10330 0.24442
 C1758 C 0.88828 0.10456 0.25826
 C1759 C 0.88510 0.08825 0.27311
 C1760 C 0.89874 0.07086 0.27377
 C1761 C 0.87313 0.12245 0.25676
 C1762 C 0.85122 0.11881 0.25847
 C1763 C 0.83689 0.13555 0.25677
 C1764 C 0.84422 0.15615 0.25332
 C1765 C 0.86597 0.15997 0.25159
 C1766 C 0.88035 0.14323 0.25327
 C1767 C 0.82937 0.17333 0.25183
 C1768 C 0.81672 0.18757 0.25087
 H1769 H 0.93234 0.08494 0.23400
 H1770 H 0.90841 0.11546 0.23265
 H1771 H 0.87201 0.08892 0.28415
 H1772 H 0.89582 0.05828 0.28506
 H1773 H 0.84515 0.10296 0.26081
 H1774 H 0.82008 0.13242 0.25811
 H1775 H 0.87181 0.17588 0.24900
 H1776 H 0.89712 0.14656 0.25209
 C1777 C 0.44003 0.53600 0.75691
 C1778 C 0.42970 0.55201 0.75793
 C1779 C 0.41671 0.57071 0.75843
 C1780 C 0.41875 0.58603 0.74255
 C1781 C 0.40503 0.60338 0.74201
 C1782 C 0.38900 0.60558 0.75733
 C1783 C 0.38736 0.59030 0.77347
 C1784 C 0.40111 0.57297 0.77398
 C1785 C 0.37366 0.62336 0.75608
 C1786 C 0.35205 0.61988 0.76019
 C1787 C 0.33751 0.63647 0.75866
 C1788 C 0.34433 0.65676 0.75301
 C1789 C 0.36579 0.66042 0.74893
 C1790 C 0.38038 0.64383 0.75043
 C1791 C 0.32928 0.67381 0.75163
 C1792 C 0.31653 0.68797 0.75075
 H1793 H 0.43066 0.58434 0.73032
 H1794 H 0.40654 0.61472 0.72924
 H1795 H 0.37539 0.59171 0.78566
 H1796 H 0.39934 0.56117 0.78631
 H1797 H 0.34632 0.60425 0.76424
 H1798 H 0.32092 0.63346 0.76183
 H1799 H 0.37126 0.67609 0.74463
 H1800 H 0.39693 0.64706 0.74739
 C1801 C 0.96098 0.93910 0.74745
 C1802 C 0.94517 0.92842 0.74729
 C1803 C 0.92674 0.91506 0.74767
 C1804 C 0.92465 0.89867 0.73292
 C1805 C 0.90754 0.88471 0.73418
 C1806 C 0.89230 0.88692 0.75028
 C1807 C 0.89433 0.90370 0.76480
 C1808 C 0.91147 0.91764 0.76351
 C1809 C 0.87470 0.87147 0.75223
 C1810 C 0.85411 0.87822 0.75740
 C1811 C 0.83762 0.86356 0.75923
 C1812 C 0.84151 0.84200 0.75598
 C1813 C 0.86195 0.83514 0.75095
 C1814 C 0.87843 0.84975 0.74909
 C1815 C 0.82454 0.82687 0.75731
 C1816 C 0.81057 0.81391 0.75797
 H1817 H 0.93641 0.89649 0.72062
 H1818 H 0.90626 0.87214 0.72258
 H1819 H 0.88300 0.90568 0.77751
 H1820 H 0.91302 0.93018 0.77512
 H1821 H 0.85070 0.89485 0.75971
 H1822 H 0.82183 0.86905 0.76303
 H1823 H 0.86514 0.81848 0.74842
 H1824 H 0.89416 0.84401 0.74545
 C1825 C 0.45974 0.43924 0.24790
 C1826 C 0.44384 0.42868 0.24759
 C1827 C 0.42533 0.41539 0.24777
 C1828 C 0.42224 0.40047 0.23168
 C1829 C 0.40515 0.38645 0.23266
 C1830 C 0.39093 0.38712 0.24981
 C1831 C 0.39395 0.40246 0.26570
 C1832 C 0.41107 0.41646 0.26469
 C1833 C 0.37342 0.37150 0.25142
 C1834 C 0.35325 0.37766 0.25860
 C1835 C 0.33689 0.36283 0.26022
 C1836 C 0.34048 0.34167 0.25476
 C1837 C 0.36050 0.33539 0.24767
 C1838 C 0.37685 0.35018 0.24601
 C1839 C 0.32363 0.32638 0.25605
 C1840 C 0.30971 0.31335 0.25670
 H1841 H 0.43321 0.39946 0.21853
 H1842 H 0.40308 0.37504 0.22003
 H1843 H 0.38345 0.40322 0.27923
 H1844 H 0.41341 0.42783 0.27733
 H1845 H 0.35006 0.39399 0.26268
 H1846 H 0.32142 0.36788 0.26564
 H1847 H 0.36346 0.31905 0.24342
 H1848 H 0.39228 0.34486 0.24077
   
