data_POSCAR
  _audit_creation_date              2014-09-24
  _audit_creation_method            'ToBaCCo'
  _symmetry_space_group_name_H-M    'P1'
  _symmetry_Int_Tables_number       1
  _symmetry_cell_setting            triclinic
  loop_
  _symmetry_equiv_pos_as_xyz
 x,y,z
_cell_length_a 51.7391
_cell_length_b 52.8663
_cell_length_c 52.3210
_cell_angle_alpha 94.583600
_cell_angle_beta 93.702500
_cell_angle_gamma 95.061600
loop_
  _atom_site_label
  _atom_site_type_symbol
  _atom_site_fract_x
  _atom_site_fract_y
  _atom_site_fract_z
C1 C 0.70864 0.67793 0.99159
 H2 H 0.72699 0.68737 0.99981
 C3 C 0.68919 0.69247 0.98248
 H4 H 0.69298 0.71300 0.98329
 C5 C 0.68123 0.63982 0.98033
 H6 H 0.67837 0.61924 0.97944
 C7 C 0.66138 0.65352 0.97107
 H8 H 0.64312 0.64332 0.96334
 N9 N 0.70458 0.65202 0.98956
 C10 C 0.77472 0.63764 1.03176
 H11 H 0.76556 0.62172 1.04060
 C12 C 0.79988 0.64747 1.04057
 H13 H 0.80953 0.63867 1.05603
 C14 C 0.77411 0.66600 0.99901
 H15 H 0.76437 0.67241 0.98213
 C16 C 0.79903 0.67700 1.00772
 H17 H 0.80762 0.69257 0.99793
 Zn18 Zn 0.72991 0.62974 0.99833
 N19 N 0.76229 0.64702 1.01139
 C20 C 0.72763 0.61601 0.94504
 N21 N 0.73657 0.60943 0.96841
 C22 C 0.75305 0.59089 0.97039
 C23 C 0.76138 0.57836 0.94827
 C24 C 0.73559 0.60413 0.92251
 C25 C 0.71112 0.62513 1.04539
 C26 C 0.70178 0.61404 1.06660
 C27 C 0.70240 0.57265 1.04369
 C28 C 0.71185 0.58474 1.02279
 N29 N 0.71630 0.61053 1.02422
 H30 H 0.71528 0.63135 0.94375
 H31 H 0.76051 0.58654 0.98917
 H32 H 0.77517 0.56424 0.95018
 H33 H 0.72868 0.61000 0.90412
 H34 H 0.71431 0.64566 1.04575
 H35 H 0.69687 0.62703 1.08215
 H36 H 0.70043 0.55207 1.04189
 H37 H 0.71593 0.57346 1.00562
 C38 C 0.81250 0.66758 1.02868
 C39 C 0.66544 0.68015 0.97144
 C40 C 0.69749 0.58717 1.06663
 C41 C 0.75304 0.58536 0.92396
 C42 C 0.73482 0.36412 0.50702
 H43 H 0.75303 0.36929 0.51836
 C44 C 0.71586 0.34725 0.51590
 H45 H 0.71957 0.33968 0.53428
 C46 C 0.70762 0.36863 0.46976
 H47 H 0.70445 0.37718 0.45188
 C48 C 0.68805 0.35185 0.47797
 H49 H 0.67002 0.34739 0.46613
 N50 N 0.73049 0.37430 0.48426
 C51 C 0.80601 0.39327 0.45478
 H52 H 0.80521 0.41325 0.45201
 C53 C 0.82712 0.38068 0.44679
 H54 H 0.84247 0.39111 0.43775
 C55 C 0.78623 0.35511 0.46869
 H56 H 0.77011 0.34503 0.47681
 C57 C 0.80693 0.34182 0.46104
 H58 H 0.80665 0.32173 0.46387
 Zn59 Zn 0.75696 0.39776 0.47432
 N60 N 0.78613 0.38040 0.46554
 C61 C 0.79114 0.42858 0.51150
 N62 N 0.76588 0.42227 0.50270
 C63 C 0.74606 0.43092 0.51576
 C64 C 0.75125 0.44564 0.53922
 C65 C 0.79720 0.44361 0.53466
 C66 C 0.74370 0.39912 0.42202
 C67 C 0.73404 0.40889 0.39971
 C68 C 0.72641 0.44728 0.42526
 C69 C 0.73653 0.43687 0.44707
 N70 N 0.74461 0.41306 0.44509
 H71 H 0.80661 0.42117 0.50116
 H72 H 0.72614 0.42534 0.50854
 H73 H 0.73525 0.45153 0.54991
 H74 H 0.81736 0.44759 0.54192
 H75 H 0.75036 0.38026 0.42101
 H76 H 0.73370 0.39749 0.38154
 H77 H 0.71921 0.46589 0.42743
 H78 H 0.73742 0.44760 0.46562
 C79 C 0.82765 0.35453 0.44972
 C80 C 0.69208 0.34091 0.50133
 C81 C 0.72488 0.43318 0.40115
 C82 C 0.77709 0.45173 0.54912
 C83 C 0.23524 -0.12884 0.02335
 H84 H 0.25421 -0.12583 0.03368
 C85 C 0.21589 -0.14547 0.03188
 H86 H 0.22037 -0.15553 0.04860
 C87 C 0.20683 -0.11952 -0.01130
 H88 H 0.20342 -0.10926 -0.02807
 C89 C 0.18673 -0.13573 -0.00320
 H90 H 0.16784 -0.13745 -0.01367
 N91 N 0.23045 -0.11628 0.00213
 C92 C 0.30777 -0.09875 -0.02426
 H93 H 0.30911 -0.07823 -0.02437
 C94 C 0.32824 -0.11215 -0.03248
 H95 H 0.34534 -0.10183 -0.03882
 C96 C 0.28320 -0.13732 -0.01749
 H97 H 0.26547 -0.14722 -0.01221
 C98 C 0.30308 -0.15143 -0.02568
 H99 H 0.30057 -0.17202 -0.02612
 Zn100 Zn 0.25763 -0.09305 -0.00679
 N101 N 0.28584 -0.11143 -0.01679
 C102 C 0.29273 -0.06463 0.03188
 N103 N 0.26739 -0.07062 0.02318
 C104 C 0.24775 -0.06383 0.03765
 C105 C 0.25322 -0.05159 0.06230
 C106 C 0.29906 -0.05192 0.05622
 C107 C 0.25425 -0.08020 -0.05819
 C108 C 0.24435 -0.06866 -0.07934
 C109 C 0.21672 -0.04668 -0.05141
 C110 C 0.22737 -0.05854 -0.03082
 N111 N 0.24558 -0.07515 -0.03454
 H112 H 0.30814 -0.07063 0.02059
 H113 H 0.22775 -0.06929 0.03067
 H114 H 0.23739 -0.04737 0.07404
 H115 H 0.31929 -0.04823 0.06328
 H116 H 0.26825 -0.09398 -0.06099
 H117 H 0.25104 -0.07471 -0.09777
 H118 H 0.20308 -0.03294 -0.04691
 H119 H 0.22082 -0.05466 -0.01183
 C120 C 0.32589 -0.13886 -0.03343
 C121 C 0.19107 -0.14884 0.01882
 C122 C 0.22468 -0.05180 -0.07663
 C123 C 0.27915 -0.04595 0.07198
 C124 C 0.22274 0.18135 0.47872
 H125 H 0.24245 0.18504 0.47330
 C126 C 0.20290 0.19445 0.46796
 H127 H 0.20780 0.20871 0.45490
 C128 C 0.19250 0.15798 0.50198
 H129 H 0.18828 0.14325 0.51465
 C130 C 0.17211 0.17028 0.49143
 H131 H 0.15252 0.16465 0.49625
 N132 N 0.21730 0.16375 0.49568
 C133 C 0.28834 0.15130 0.54051
 H134 H 0.28306 0.13121 0.54180
 C135 C 0.31188 0.16255 0.55223
 H136 H 0.32453 0.15092 0.56248
 C137 C 0.27881 0.19022 0.52412
 H138 H 0.26595 0.20084 0.51300
 C139 C 0.30254 0.20226 0.53539
 H140 H 0.30772 0.22217 0.53295
 Zn141 Zn 0.24363 0.14454 0.50914
 N142 N 0.27251 0.16498 0.52643
 C143 C 0.28166 0.12879 0.47722
 N144 N 0.25606 0.12461 0.48156
 C145 C 0.23979 0.10735 0.46611
 C146 C 0.24941 0.09295 0.44576
 C147 C 0.29204 0.11478 0.45739
 C148 C 0.22303 0.13725 0.55559
 C149 C 0.21522 0.12457 0.57652
 C150 C 0.22193 0.08463 0.55323
 C151 C 0.22963 0.09816 0.53258
 N152 N 0.23011 0.12403 0.53422
 H153 H 0.29423 0.14308 0.48904
 H154 H 0.21941 0.10466 0.46969
 H155 H 0.23643 0.07893 0.43384
 H156 H 0.31251 0.11838 0.45438
 H157 H 0.22389 0.15782 0.55647
 H158 H 0.20951 0.13557 0.59323
 H159 H 0.22217 0.06411 0.55191
 H160 H 0.23589 0.08807 0.51563
 C161 C 0.31950 0.18823 0.54943
 C162 C 0.17707 0.18894 0.47423
 C163 C 0.21494 0.09794 0.57573
 C164 C 0.27597 0.09641 0.44152
 C165 C 0.17638 0.48365 0.21330
 H166 H 0.18595 0.48772 0.23232
 C167 C 0.19004 0.47328 0.19341
 H168 H 0.21009 0.46953 0.19733
 C169 C 0.13885 0.48376 0.18487
 H170 H 0.11884 0.48786 0.18171
 C171 C 0.15181 0.47359 0.16444
 H172 H 0.14149 0.46960 0.14567
 N173 N 0.15109 0.48825 0.20881
 C174 C 0.15229 0.53975 0.27321
 H175 H 0.14156 0.55214 0.26201
 C176 C 0.16454 0.54932 0.29699
 H177 H 0.16357 0.56917 0.30342
 C178 C 0.16584 0.49880 0.27894
 H179 H 0.16542 0.47887 0.27220
 C180 C 0.17819 0.50755 0.30296
 H181 H 0.18732 0.49419 0.31443
 Zn182 Zn 0.13111 0.50084 0.23536
 N183 N 0.15273 0.51476 0.26484
 C184 C 0.10536 0.47287 0.27108
 N185 N 0.10884 0.47349 0.24557
 C186 C 0.09994 0.45334 0.22846
 C187 C 0.08826 0.43100 0.23705
 C188 C 0.09426 0.45080 0.28050
 C189 C 0.12605 0.54473 0.21073
 C190 C 0.11444 0.56566 0.20235
 C191 C 0.07397 0.54896 0.21796
 C192 C 0.08645 0.52821 0.22610
 N193 N 0.11214 0.52675 0.22268
 H194 H 0.11226 0.48914 0.28434
 H195 H 0.10291 0.45408 0.20830
 H196 H 0.08218 0.41475 0.22338
 H197 H 0.09255 0.45027 0.30098
 H198 H 0.14643 0.54302 0.20819
 H199 H 0.12597 0.57977 0.19295
 H200 H 0.05371 0.55029 0.22141
 H201 H 0.07583 0.51364 0.23570
 C202 C 0.17708 0.53300 0.31256
 C203 C 0.17767 0.46797 0.16863
 C204 C 0.08818 0.56827 0.20633
 C205 C 0.08618 0.42933 0.26346
 C206 C -0.14232 0.01670 0.22550
 H207 H -0.13871 0.02608 0.24471
 C208 C -0.15664 0.02802 0.20681
 H209 H -0.16481 0.04551 0.21268
 C210 C -0.13619 -0.01788 0.19563
 H211 H -0.12750 -0.03542 0.19121
 C212 C -0.15041 -0.00724 0.17625
 H213 H -0.15179 -0.01694 0.15717
 N214 N -0.13221 -0.00568 0.21960
 C215 C -0.11454 -0.03973 0.29086
 H216 H -0.09450 -0.04316 0.28842
 C217 C -0.12690 -0.04857 0.31177
 H218 H -0.11621 -0.05864 0.32558
 C219 C -0.15292 -0.02267 0.27561
 H220 H -0.16314 -0.01299 0.26123
 C221 C -0.16595 -0.03088 0.29647
 H222 H -0.18614 -0.02743 0.29801
 Zn223 Zn -0.10945 -0.01722 0.24491
 N224 N -0.12762 -0.02707 0.27330
 C225 C -0.07967 0.01896 0.28066
 N226 N -0.08413 0.01039 0.25541
 C227 C -0.07330 0.02338 0.23673
 C228 C -0.05823 0.04655 0.24307
 C229 C -0.06449 0.04191 0.28787
 C230 C -0.10921 -0.06852 0.22818
 C231 C -0.09899 -0.09077 0.21899
 C232 C -0.05797 -0.06609 0.21554
 C233 C -0.06888 -0.04437 0.22520
 N234 N -0.09411 -0.04595 0.23116
 H235 H -0.08884 0.00869 0.29520
 H236 H -0.07749 0.01635 0.21677
 H237 H -0.05056 0.05712 0.22790
 H238 H -0.06218 0.04903 0.30796
 H239 H -0.12917 -0.06925 0.23330
 H240 H -0.11124 -0.10859 0.21740
 H241 H -0.03804 -0.06423 0.21030
 H242 H -0.05720 -0.02625 0.22781
 C243 C -0.15293 -0.04419 0.31472
 C244 C -0.16048 0.01652 0.18135
 C245 C -0.07302 -0.08980 0.21244
 C246 C -0.05420 0.05636 0.26890
 C247 C 0.36178 0.50755 0.73067
 H248 H 0.36341 0.51714 0.74983
 C249 C 0.34532 0.51591 0.71166
 H250 H 0.33370 0.53135 0.71676
 C251 C 0.37539 0.47607 0.70100
 H252 H 0.38752 0.46084 0.69687
 C253 C 0.35953 0.48420 0.68119
 H254 H 0.35985 0.47518 0.66192
 N255 N 0.37635 0.48791 0.72514
 C256 C 0.39534 0.45536 0.79700
 H257 H 0.41533 0.45197 0.79430
 C258 C 0.38335 0.44638 0.81808
 H259 H 0.39428 0.43639 0.83177
 C260 C 0.35648 0.47175 0.78211
 H261 H 0.34571 0.48098 0.76783
 C262 C 0.34388 0.46352 0.80316
 H263 H 0.32365 0.46669 0.80493
 Zn264 Zn 0.40001 0.47934 0.75156
 N265 N 0.38194 0.46802 0.77963
 C266 C 0.43663 0.51035 0.78593
 N267 N 0.42279 0.50884 0.76277
 C268 C 0.42359 0.52892 0.74803
 C269 C 0.43710 0.55220 0.75725
 C270 C 0.45049 0.53327 0.79587
 C271 C 0.40667 0.42888 0.73532
 C272 C 0.42003 0.40845 0.72658
 C273 C 0.45856 0.43769 0.72559
 C274 C 0.44454 0.45752 0.73466
 N275 N 0.41905 0.45279 0.73914
 H276 H 0.43618 0.49409 0.79718
 H277 H 0.41302 0.52722 0.72938
 H278 H 0.43616 0.56831 0.74579
 H279 H 0.46074 0.53432 0.81469
 H280 H 0.38638 0.42572 0.73911
 H281 H 0.40985 0.38955 0.72334
 H282 H 0.47882 0.44170 0.72197
 H283 H 0.45394 0.47671 0.73794
 C284 C 0.35738 0.45067 0.82140
 C285 C 0.34440 0.50461 0.68634
 C286 C 0.44627 0.41279 0.72147
 C287 C 0.45013 0.55483 0.78183
 C288 C 0.67305 0.98516 0.71170
 H289 H 0.68308 0.99247 0.72991
 C290 C 0.68725 0.97647 0.69139
 H291 H 0.70825 0.97742 0.69399
 C292 C 0.63348 0.97445 0.68615
 H293 H 0.61245 0.97342 0.68444
 C294 C 0.64683 0.96588 0.66537
 H295 H 0.63594 0.95810 0.64769
 N296 N 0.64665 0.98408 0.70863
 C297 C 0.64202 0.99247 0.78759
 H298 H 0.62881 0.97535 0.78641
 C299 C 0.65406 1.00215 0.81142
 H300 H 0.64915 0.99213 0.82792
 C301 C 0.66174 1.02698 0.76752
 H302 H 0.66434 1.03668 0.75030
 C303 C 0.67417 1.03744 0.79099
 H304 H 0.68706 1.05467 0.79091
 Zn305 Zn 0.62564 0.99396 0.73531
 N306 N 0.64575 1.00508 0.76631
 C307 C 0.61626 0.94284 0.74091
 N308 N 0.60387 0.96447 0.74080
 C309 C 0.57853 0.96448 0.74628
 C310 C 0.56511 0.94230 0.75351
 C311 C 0.60353 0.92027 0.74760
 C312 C 0.61368 1.03262 0.70398
 C313 C 0.60361 1.05506 0.69768
 C314 C 0.57948 1.05472 0.73566
 C315 C 0.59041 1.03234 0.74152
 N316 N 0.60714 1.02172 0.72566
 H317 H 0.63643 0.94332 0.73653
 H318 H 0.56896 0.98180 0.74600
 H319 H 0.54538 0.94301 0.75907
 H320 H 0.61396 0.90340 0.74766
 H321 H 0.62770 1.02465 0.69205
 H322 H 0.60957 1.06380 0.68070
 H323 H 0.56665 1.06335 0.74865
 H324 H 0.58630 1.02403 0.75921
 C325 C 0.67009 1.02540 0.81379
 C326 C 0.67406 0.96679 0.66783
 C327 C 0.58656 1.06651 0.71374
 C328 C 0.57785 0.91993 0.75481
 C329 C 0.00958 0.24031 -0.15650
 H330 H 0.01928 0.25941 -0.15498
 C331 C 0.01932 0.22090 -0.17159
 H332 H 0.03622 0.22545 -0.18213
 C333 C -0.02391 0.21131 -0.14404
 H334 H -0.04029 0.20754 -0.13266
 C335 C -0.01459 0.19123 -0.15865
 H336 H -0.02397 0.17215 -0.15825
 N337 N -0.01157 0.23522 -0.14301
 C338 C -0.03799 0.31010 -0.12358
 H339 H -0.03850 0.30994 -0.10296
 C340 C -0.04586 0.33098 -0.13578
 H341 H -0.05252 0.34683 -0.12442
 C342 C -0.02986 0.28903 -0.16356
 H343 H -0.02413 0.27247 -0.17441
 C344 C -0.03772 0.30942 -0.17655
 H345 H -0.03747 0.30851 -0.19728
 Zn346 Zn -0.02072 0.26170 -0.11983
 N347 N -0.02995 0.28980 -0.13752
 C348 C 0.01965 0.29536 -0.09236
 N349 N 0.00883 0.27086 -0.09664
 C350 C 0.02052 0.25139 -0.08668
 C351 C 0.04453 0.25607 -0.07257
 C352 C 0.04341 0.30095 -0.07792
 C353 C -0.07275 0.24525 -0.11656
 C354 C -0.09510 0.23646 -0.10521
 C355 C -0.06961 0.23829 -0.06469
 C356 C -0.04781 0.24720 -0.07691
 N357 N -0.04970 0.25013 -0.10245
 H358 H 0.01047 0.31051 -0.10090
 H359 H 0.01167 0.23204 -0.09069
 H360 H 0.05408 0.24029 -0.06555
 H361 H 0.05225 0.32042 -0.07540
 H362 H -0.07378 0.24835 -0.13678
 H363 H -0.11295 0.23413 -0.11737
 H364 H -0.06630 0.23492 -0.04472
 H365 H -0.02924 0.25134 -0.06602
 C366 C -0.04588 0.33072 -0.16262
 C367 C 0.00762 0.19580 -0.17232
 C368 C -0.09413 0.23229 -0.07871
 C369 C 0.05639 0.28108 -0.06840
 C370 C 0.47913 0.20534 0.17914
 H371 H 0.48287 0.22454 0.18821
 C372 C 0.47187 0.18521 0.19380
 H373 H 0.47029 0.18902 0.21426
 C374 C 0.47672 0.17693 0.14144
 H375 H 0.47849 0.17398 0.12095
 C376 C 0.46953 0.15635 0.15531
 H377 H 0.46553 0.13755 0.14526
 N378 N 0.48127 0.20081 0.15344
 C379 C 0.48490 0.27781 0.14994
 H380 H 0.46656 0.27465 0.13862
 C381 C 0.49279 0.30214 0.16155
 H382 H 0.48062 0.31736 0.15825
 C383 C 0.52308 0.26206 0.16730
 H384 H 0.53491 0.24645 0.16944
 C385 C 0.53162 0.28613 0.17952
 H386 H 0.54987 0.28859 0.19118
 Zn387 Zn 0.49035 0.22696 0.13228
 N388 N 0.50037 0.25848 0.15226
 C389 C 0.43721 0.22017 0.11463
 N390 N 0.46093 0.23151 0.11003
 C391 C 0.46334 0.24881 0.09223
 C392 C 0.44135 0.25569 0.07861
 C393 C 0.41465 0.22682 0.10171
 C394 C 0.53855 0.20831 0.12801
 C395 C 0.56062 0.20096 0.11659
 C396 C 0.54148 0.21051 0.07559
 C397 C 0.51958 0.21748 0.08782
 N398 N 0.51878 0.21689 0.11374
 H399 H 0.43557 0.20697 0.12929
 H400 H 0.48220 0.25849 0.08974
 H401 H 0.44354 0.27025 0.06528
 H402 H 0.39584 0.21833 0.10620
 H403 H 0.53704 0.20682 0.14835
 H404 H 0.57590 0.19391 0.12841
 H405 H 0.54203 0.21179 0.05508
 H406 H 0.50340 0.22340 0.07650
 C407 C 0.51667 0.30675 0.17623
 C408 C 0.46698 0.16032 0.18185
 C409 C 0.56255 0.20239 0.09008
 C410 C 0.41661 0.24508 0.08377
 C411 C 0.96155 0.71657 0.65795
 H412 H 0.94834 0.72709 0.64714
 C413 C 0.95148 0.69747 0.67240
 H414 H 0.93059 0.69355 0.67246
 C415 C 1.00464 0.70784 0.66981
 H416 H 1.02533 0.71176 0.66826
 C417 C 0.99535 0.68828 0.68431
 H418 H 1.00902 0.67740 0.69421
 N419 N 0.98770 0.72127 0.65672
 C420 C 1.02547 0.79311 0.63620
 H421 H 1.02254 0.78954 0.61552
 C422 C 1.03693 0.81666 0.64705
 H423 H 1.04286 0.83120 0.63460
 C424 C 1.02028 0.77868 0.67750
 H425 H 1.01340 0.76385 0.68918
 C426 C 1.03131 0.80227 0.68923
 H427 H 1.03322 0.80546 0.71000
 Zn428 Zn 1.00039 0.74457 0.63375
 N429 N 1.01765 0.77461 0.65141
 C430 C 0.95908 0.77329 0.62706
 N431 N 0.97180 0.75527 0.61433
 C432 C 0.96405 0.74617 0.58970
 C433 C 0.94249 0.75523 0.57702
 C434 C 0.93788 0.78314 0.61502
 C435 C 1.04890 0.73829 0.61320
 C436 C 1.06703 0.72558 0.59979
 C437 C 1.03331 0.69196 0.58566
 C438 C 1.01571 0.70541 0.59930
 N439 N 1.02374 0.72815 0.61275
 H440 H 0.96551 0.78007 0.64668
 H441 H 0.97448 0.73195 0.57987
 H442 H 0.93645 0.74802 0.55738
 H443 H 0.92809 0.79759 0.62541
 H444 H 1.05531 0.75584 0.62469
 H445 H 1.08709 0.73368 0.60117
 H446 H 1.02663 0.67378 0.57527
 H447 H 0.99579 0.69738 0.59973
 C448 C 1.03985 0.82151 0.67386
 C449 C 0.96840 0.68274 0.68548
 C450 C 1.05944 0.70197 0.58598
 C451 C 0.92938 0.77412 0.58973
 C452 C 0.49421 0.71675 0.35363
 H453 H 0.50106 0.73553 0.34879
 C454 C 0.50017 0.69541 0.33849
 H455 H 0.51227 0.69813 0.32263
 C456 C 0.47082 0.69053 0.38053
 H457 H 0.45957 0.68857 0.39702
 C458 C 0.47620 0.66865 0.36582
 H459 H 0.46879 0.65014 0.37112
 N460 N 0.48051 0.71400 0.37473
 C461 C 0.47858 0.79469 0.38750
 H462 H 0.49020 0.79762 0.40561
 C463 C 0.47222 0.81563 0.37464
 H464 H 0.47881 0.83435 0.38379
 C465 C 0.45444 0.76641 0.35551
 H466 H 0.44749 0.74709 0.34831
 C467 C 0.44741 0.78682 0.34203
 H468 H 0.43583 0.78247 0.32402
 Zn469 Zn 0.47748 0.74347 0.39734
 N470 N 0.46964 0.77071 0.37785
 C471 C 0.53007 0.75873 0.40057
 N472 N 0.51042 0.75271 0.41568
 C473 C 0.51487 0.75346 0.44171
 C474 C 0.54013 0.75965 0.45325
 C475 C 0.55538 0.76485 0.41118
 C476 C 0.42766 0.74806 0.41440
 C477 C 0.40549 0.74122 0.42703
 C478 C 0.43010 0.71294 0.45079
 C479 C 0.45178 0.72009 0.43745
 N480 N 0.45005 0.73700 0.41924
 H481 H 0.52608 0.75908 0.38014
 H482 H 0.49897 0.74925 0.45355
 H483 H 0.54352 0.75984 0.47390
 H484 H 0.57057 0.76973 0.39863
 H485 H 0.42652 0.76145 0.39994
 H486 H 0.38761 0.74960 0.42231
 H487 H 0.43146 0.69869 0.46446
 H488 H 0.46964 0.71128 0.44080
 C489 C 0.45609 0.81213 0.35155
 C490 C 0.49170 0.67089 0.34490
 C491 C 0.40641 0.72307 0.44508
 C492 C 0.56083 0.76503 0.43778
 C493 C 0.38402 -0.03399 0.28141
 C494 C 0.36221 -0.03823 0.25971
 C495 C 0.35072 -0.01678 0.25461
 C496 C 0.36182 0.00704 0.27197
 C497 C 0.40259 -0.01251 0.27270
 C498 C 0.39109 0.00903 0.26782
 C499 C 0.37151 -0.02177 0.30434
 C500 C 0.36002 -0.00032 0.29967
 H501 H 0.35927 -0.05527 0.24656
 H502 H 0.35205 0.02430 0.26793
 H503 H 0.42284 -0.01461 0.26980
 H504 H 0.37193 -0.02955 0.32289
 C505 C 0.10071 1.04687 0.75676
 C506 C 0.12011 1.05415 0.73716
 C507 C 0.13666 1.03634 0.73155
 C508 C 0.13252 1.01239 0.74618
 C509 C 0.08697 1.02089 0.74534
 C510 C 0.10366 1.00281 0.73991
 C511 C 0.11742 1.04022 0.78002
 C512 C 0.13383 1.02206 0.77482
 H513 H 0.11952 1.07129 0.72715
 H514 H 0.14633 0.99801 0.74182
 H515 H 0.06619 1.01686 0.74176
 H516 H 0.11542 1.04858 0.79929
 C517 C 0.58513 0.53321 0.25410
 C518 C 0.59887 0.54227 0.23090
 C519 C 0.61373 0.52507 0.21989
 C520 C 0.61379 0.50017 0.23315
 C521 C 0.57019 0.50758 0.24437
 C522 C 0.58484 0.48999 0.23321
 C523 C 0.60749 0.52632 0.27216
 C524 C 0.62221 0.50879 0.26149
 H525 H 0.59841 0.56118 0.22450
 H526 H 0.62688 0.48711 0.22429
 H527 H 0.54988 0.50374 0.24765
 H528 H 0.61059 0.53367 0.29215
 C529 C 0.87603 0.47953 0.76075
 C530 C 0.85775 0.47537 0.73613
 C531 C 0.84511 0.49596 0.73077
 C532 C 0.85181 0.51918 0.75033
 C533 C 0.89425 0.50311 0.75644
 C534 C 0.88174 0.52393 0.75092
 C535 C 0.85900 0.48872 0.78172
 C536 C 0.84605 0.50925 0.77653
 H537 H 0.85727 0.45916 0.72209
 H538 H 0.84120 0.53564 0.74533
 H539 H 0.91519 0.50299 0.75717
 H540 H 0.85820 0.47995 0.79970
 C541 C 0.27442 0.37882 -0.02594
 C542 C 0.24990 0.36097 -0.03437
 C543 C 0.24006 0.34794 -0.01529
 C544 C 0.25580 0.35343 0.01069
 C545 C 0.26668 0.39584 -0.00293
 C546 C 0.25682 0.38260 0.01618
 C547 C 0.29339 0.36189 -0.01372
 C548 C 0.28367 0.34800 0.00484
 H549 H 0.23999 0.36031 -0.05334
 H550 H 0.24754 0.34237 0.02591
 H551 H 0.26930 0.41641 -0.00124
 H552 H 0.31310 0.36114 -0.01940
 C553 C 0.75701 0.10374 1.03535
 C554 C 0.73445 0.11799 1.04460
 C555 C 0.72383 0.13236 1.02713
 C556 C 0.73662 0.13122 1.00148
 C557 C 0.74583 0.08829 1.01017
 C558 C 0.73488 0.10253 0.99223
 C559 C 0.77621 0.12426 1.02631
 C560 C 0.76579 0.13869 1.00868
 H561 H 0.72698 0.11616 1.06331
 H562 H 0.72801 0.14393 0.98818
 H563 H 0.74851 0.06847 1.00599
 H564 H 0.79686 0.12577 1.03190
 C565 C 0.25036 0.58771 0.54318
 C566 C 0.22534 0.59866 0.55085
 C567 C 0.21508 0.61377 0.53377
 C568 C 0.23109 0.61689 0.51027
 C569 C 0.24331 0.57415 0.51612
 C570 C 0.23321 0.58943 0.49891
 C571 C 0.26876 0.61085 0.53825
 C572 C 0.25897 0.62621 0.52112
 H573 H 0.21636 0.59442 0.56835
 H574 H 0.22281 0.62940 0.49645
 H575 H 0.24646 0.55462 0.51059
 H576 H 0.28902 0.61294 0.54543
 C577 C 0.76907 0.88340 0.46967
 C578 C 0.74749 0.86175 0.46258
 C579 C 0.73984 0.84894 0.48274
 C580 C 0.75487 0.85853 0.50841
 C581 C 0.75841 0.90015 0.49136
 C582 C 0.75113 0.88712 0.51165
 C583 C 0.79104 0.87095 0.48344
 C584 C 0.78368 0.85779 0.50339
 H585 H 0.73739 0.85856 0.44364
 H586 H 0.74884 0.84771 0.52472
 H587 H 0.75816 0.92058 0.49183
 H588 H 0.81094 0.87272 0.47800
 C589 C -0.02342 0.26695 0.37517
 C590 C -0.02852 0.24166 0.35811
 C591 C -0.00722 0.23413 0.34685
 C592 C 0.01746 0.25237 0.35330
 C593 C -0.00058 0.26274 0.39413
 C594 C 0.02085 0.25484 0.38294
 C595 C -0.01183 0.28569 0.35723
 C596 C 0.00952 0.27834 0.34597
 H597 H -0.04688 0.23012 0.35505
 H598 H 0.03424 0.24598 0.34323
 H599 H -0.00172 0.26572 0.41470
 H600 H -0.01955 0.30371 0.35420
 C601 C 1.04190 0.75301 0.09638
 C602 C 1.04986 0.73240 0.11333
 C603 C 1.03091 0.72320 0.12783
 C604 C 1.00526 0.73560 0.12415
 C605 C 1.01717 0.74061 0.08052
 C606 C 0.99766 0.73177 0.09496
 C607 C 1.03186 0.77328 0.11481
 C608 C 1.01289 0.76433 0.12934
 H609 H 1.06869 0.72492 0.11295
 H610 H 0.99039 0.72880 0.13693
 H611 H 1.01514 0.73899 0.05985
 H612 H 1.03801 0.79344 0.11493
 C613 C 0.55514 0.25006 0.59828
 C614 C 0.56167 0.22917 0.61569
 C615 C 0.54420 0.22457 0.63348
 C616 C 0.52108 0.24099 0.63192
 C617 C 0.52761 0.24107 0.58631
 C618 C 0.50959 0.23651 0.60380
 C619 C 0.55152 0.27303 0.61702
 C620 C 0.53326 0.26876 0.63415
 H621 H 0.57749 0.21741 0.61331
 H622 H 0.50691 0.23721 0.64643
 H623 H 0.52301 0.23868 0.56574
 H624 H 0.56195 0.29153 0.61581
 C625 C 0.46983 0.77121 0.88665
 C626 C 0.46385 0.74420 0.87324
 C627 C 0.48311 0.73613 0.85898
 C628 C 0.50680 0.75583 0.85943
 C629 C 0.49573 0.76971 0.90250
 C630 C 0.51507 0.76132 0.88832
 C631 C 0.47670 0.78804 0.86528
 C632 C 0.49602 0.78028 0.85113
 H633 H 0.44696 0.73165 0.87661
 H634 H 0.52243 0.74956 0.84752
 H635 H 0.49734 0.77138 0.92331
 H636 H 0.46814 0.80576 0.86280
 C637 C 0.43083 -0.12277 0.31739
 C638 C 0.41587 -0.14660 0.31298
 C639 C 0.42464 -0.16818 0.32358
 C640 C 0.44825 -0.16660 0.33901
 C641 C 0.46344 -0.14290 0.34228
 C642 C 0.45497 -0.12146 0.33164
 C643 C 0.42002 -0.09989 0.30712
 C644 C 0.43257 -0.07508 0.31202
 C645 C 0.42113 -0.05423 0.30313
 C646 C 0.39709 -0.05740 0.28859
 C647 C 0.38431 -0.08212 0.28390
 C648 C 0.39556 -0.10323 0.29296
 C649 C 0.39193 -0.14869 0.29849
 C650 C 0.38205 -0.12751 0.28860
 H651 H 0.38048 -0.16697 0.29494
 H652 H 0.36331 -0.13012 0.27774
 H653 H 0.41199 -0.18575 0.32094
 H654 H 0.48241 -0.14076 0.35259
 H655 H 0.43094 -0.03539 0.30822
 H656 H 0.36509 -0.08504 0.27410
 H657 H 0.46767 -0.10405 0.33491
 H658 H 0.45092 -0.07119 0.32323
 C659 C 0.92385 0.39234 0.79928
 C660 C 0.94155 0.39757 0.82124
 C661 C 0.95162 0.37744 0.83342
 C662 C 0.94452 0.35204 0.82388
 C663 C 0.92768 0.34697 0.80163
 C664 C 0.91749 0.36679 0.78944
 C665 C 0.91234 0.41424 0.78775
 C666 C 0.89295 0.41086 0.76734
 C667 C 0.88171 0.43167 0.75813
 C668 C 0.88986 0.45669 0.76854
 C669 C 0.90934 0.46017 0.78888
 C670 C 0.92040 0.43927 0.79864
 C671 C 0.94893 0.42281 0.83099
 C672 C 0.93876 0.44322 0.81979
 H673 H 0.96268 0.42685 0.84765
 H674 H 0.94495 0.46238 0.82818
 H675 H 0.96502 0.38153 0.85035
 H676 H 0.92183 0.32753 0.79395
 H677 H 0.86593 0.42759 0.74348
 H678 H 0.91520 0.47921 0.79778
 H679 H 0.90458 0.36161 0.77248
 H680 H 0.88548 0.39224 0.75870
 C681 C 0.04327 1.13228 0.79202
 C682 C 0.05869 1.15392 0.80413
 C683 C 0.04689 1.17454 0.81527
 C684 C 0.01970 1.17434 0.81442
 C685 C 0.00440 1.15317 0.80183
 C686 C 0.01597 1.13240 0.79077
 C687 C 0.05682 1.11013 0.78150
 C688 C 0.04349 1.08711 0.77021
 C689 C 0.05713 1.06667 0.76171
 C690 C 0.08448 1.06868 0.76412
 C691 C 0.09774 1.09185 0.77480
 C692 C 0.08432 1.11226 0.78367
 C693 C 0.08586 1.15483 0.80539
 C694 C 0.09840 1.13452 0.79523
 H695 H 0.09765 1.17148 0.81452
 H696 H 0.11948 1.13610 0.79684
 H697 H 0.05902 1.19049 0.82531
 H698 H -0.01661 1.15263 0.80051
 H699 H 0.04593 1.04940 0.75361
 H700 H 0.11885 1.09371 0.77679
 H701 H 0.00322 1.11664 0.78147
 H702 H 0.02253 1.08435 0.76812
 C703 C 0.52371 0.60686 0.30627
 C704 C 0.51564 0.62693 0.29222
 C705 C 0.50394 0.64706 0.30459
 C706 C 0.50075 0.64799 0.33109
 C707 C 0.50828 0.62778 0.34483
 C708 C 0.51951 0.60746 0.33264
 C709 C 0.53757 0.58655 0.29273
 C710 C 0.54591 0.56553 0.30479
 C711 C 0.56049 0.54823 0.29195
 C712 C 0.56767 0.55155 0.26689
 C713 C 0.55739 0.57122 0.25399
 C714 C 0.54276 0.58879 0.26675
 C715 C 0.52017 0.62730 0.26614
 C716 C 0.53359 0.60874 0.25373
 H717 H 0.51388 0.64258 0.25532
 H718 H 0.53722 0.61029 0.23371
 H719 H 0.49792 0.66238 0.29366
 H720 H 0.50649 0.62813 0.36536
 H721 H 0.56652 0.53231 0.30190
 H722 H 0.56061 0.57308 0.23399
 H723 H 0.52551 0.59291 0.34443
 H724 H 0.54154 0.56212 0.32416
 C725 C 0.54352 0.38474 0.20252
 C726 C 0.56153 0.36725 0.19547
 C727 C 0.55277 0.34177 0.18741
 C728 C 0.52624 0.33313 0.18687
 C729 C 0.50871 0.35025 0.19536
 C730 C 0.51715 0.37569 0.20301
 C731 C 0.55343 0.41209 0.20951
 C732 C 0.53687 0.43143 0.21399
 C733 C 0.54701 0.45656 0.22086
 C734 C 0.57407 0.46331 0.22391
 C735 C 0.59060 0.44412 0.21827
 C736 C 0.58054 0.41885 0.21087
 C737 C 0.58814 0.37528 0.19652
 C738 C 0.59748 0.40040 0.20454
 H739 H 0.60200 0.36187 0.19136
 H740 H 0.61828 0.40556 0.20537
 H741 H 0.56662 0.32887 0.18093
 H742 H 0.48828 0.34402 0.19602
 H743 H 0.53326 0.47058 0.22356
 H744 H 0.61143 0.44835 0.21964
 H745 H 0.50275 0.38789 0.20933
 H746 H 0.51598 0.42762 0.21196
 C747 C 0.07077 0.89734 0.70315
 C748 C 0.04770 0.88605 0.71235
 C749 C 0.03832 0.86084 0.70365
 C750 C 0.05123 0.84689 0.68531
 C751 C 0.07415 0.85803 0.67641
 C752 C 0.08392 0.88282 0.68527
 C753 C 0.07980 0.92447 0.71237
 C754 C 0.10280 0.93718 0.70485
 C755 C 0.11027 0.96250 0.71371
 C756 C 0.09500 0.97605 0.73014
 C757 C 0.07210 0.96352 0.73793
 C758 C 0.06452 0.93789 0.72933
 C759 C 0.03378 0.90020 0.72959
 C760 C 0.04192 0.92559 0.73776
 H761 H 0.01610 0.89161 0.73661
 H762 H 0.03029 0.93578 0.75088
 H763 H 0.02037 0.85242 0.71033
 H764 H 0.08444 0.84753 0.66231
 H765 H 0.12807 0.97146 0.70743
 H766 H 0.06046 0.97352 0.75118
 H767 H 0.10149 0.89034 0.67746
 H768 H 0.11543 0.92793 0.69224
 C769 C 0.93333 0.61775 0.71970
 C770 C 0.95551 0.61552 0.70546
 C771 C 0.96759 0.63703 0.69535
 C772 C 0.95765 0.66083 0.69883
 C773 C 0.93612 0.66312 0.71353
 C774 C 0.92417 0.64196 0.72393
 C775 C 0.92019 0.59407 0.72899
 C776 C 0.89763 0.59411 0.74270
 C777 C 0.88551 0.57143 0.75000
 C778 C 0.89551 0.54806 0.74403
 C779 C 0.91824 0.54786 0.73071
 C780 C 0.93055 0.57056 0.72315
 C781 C 0.96508 0.59174 0.70079
 C782 C 0.95288 0.56976 0.70942
 H783 H 0.98210 0.59002 0.68995
 H784 H 0.96089 0.55179 0.70502
 H785 H 0.98405 0.63500 0.68377
 H786 H 0.92830 0.68135 0.71675
 H787 H 0.86831 0.57234 0.76050
 H788 H 0.92600 0.52993 0.72549
 H789 H 0.90754 0.64495 0.73480
 H790 H 0.88886 0.61139 0.74784
 C791 C 0.44034 0.09546 0.22142
 C792 C 0.43095 0.11947 0.22725
 C793 C 0.44026 0.14075 0.21490
 C794 C 0.45880 0.13850 0.19661
 C795 C 0.46869 0.11489 0.19155
 C796 C 0.45968 0.09368 0.20377
 C797 C 0.42888 0.07292 0.23393
 C798 C 0.43604 0.04806 0.22849
 C799 C 0.42409 0.02753 0.23983
 C800 C 0.40478 0.03116 0.25704
 C801 C 0.39778 0.05589 0.26292
 C802 C 0.40951 0.07669 0.25140
 C803 C 0.41200 0.12198 0.24501
 C804 C 0.40161 0.10108 0.25691
 H805 H 0.40490 0.14037 0.24961
 H806 H 0.38683 0.10401 0.27033
 H807 H 0.43240 0.15888 0.21888
 H808 H 0.48341 0.11277 0.17793
 H809 H 0.42953 0.00863 0.23446
 H810 H 0.38311 0.05899 0.27641
 H811 H 0.46799 0.07608 0.19890
 H812 H 0.45046 0.04390 0.21517
 C813 C 0.31949 0.42332 -0.11397
 C814 C 0.33246 0.40668 -0.13025
 C815 C 0.34500 0.41585 -0.15109
 C816 C 0.34426 0.44130 -0.15649
 C817 C 0.33077 0.45761 -0.14092
 C818 C 0.31865 0.44883 -0.11980
 C819 C 0.30714 0.41289 -0.09138
 C820 C 0.29518 0.42805 -0.07303
 C821 C 0.28447 0.41747 -0.05198
 C822 C 0.28541 0.39143 -0.04862
 C823 C 0.29649 0.37614 -0.06742
 C824 C 0.30784 0.38665 -0.08820
 C825 C 0.33265 0.38094 -0.12584
 C826 C 0.32029 0.37106 -0.10547
 H827 H 0.34237 0.36817 -0.13845
 H828 H 0.32088 0.35096 -0.10293
 H829 H 0.35501 0.40308 -0.16344
 H830 H 0.32994 0.47733 -0.14492
 H831 H 0.27530 0.42988 -0.03870
 H832 H 0.29675 0.35588 -0.06551
 H833 H 0.30866 0.46226 -0.10841
 H834 H 0.29409 0.44817 -0.07442
 C835 C 0.80921 0.92752 0.37914
 C836 C 0.82329 0.91145 0.36337
 C837 C 0.83542 0.92084 0.34240
 C838 C 0.83351 0.94602 0.33649
 C839 C 0.81890 0.96172 0.35153
 C840 C 0.80696 0.95268 0.37268
 C841 C 0.79757 0.91699 0.40208
 C842 C 0.78438 0.93163 0.41983
 C843 C 0.77478 0.92114 0.44145
 C844 C 0.77805 0.89571 0.44598
 C845 C 0.79032 0.88084 0.42776
 C846 C 0.80043 0.89127 0.40632
 C847 C 0.82525 0.88612 0.36861
 C848 C 0.81387 0.87618 0.38949
 H849 H 0.83582 0.87377 0.35640
 H850 H 0.81602 0.85647 0.39277
 H851 H 0.84629 0.90846 0.33050
 H852 H 0.81716 0.98123 0.34723
 H853 H 0.76481 0.93322 0.45434
 H854 H 0.79258 0.86105 0.43072
 H855 H 0.79618 0.96568 0.38371
 H856 H 0.78152 0.95131 0.41757
 C857 C 0.80398 0.05462 1.12116
 C858 C 0.80352 0.02777 1.11896
 C859 C 0.81493 0.01521 1.13892
 C860 C 0.82701 0.02895 1.16148
 C861 C 0.82695 0.05571 1.16340
 C862 C 0.81570 0.06827 1.14372
 C863 C 0.79204 0.06737 1.09931
 C864 C 0.79190 0.09398 1.09965
 C865 C 0.78068 0.10499 1.07890
 C866 C 0.76926 0.09003 1.05698
 C867 C 0.76908 0.06334 1.05656
 C868 C 0.78047 0.05201 1.07744
 C869 C 0.79166 0.01359 1.09684
 C870 C 0.78035 0.02543 1.07658
 H871 H 0.79116 -0.00701 1.09512
 H872 H 0.77148 0.01358 1.05991
 H873 H 0.81354 -0.00541 1.13693
 H874 H 0.83675 0.06755 1.17957
 H875 H 0.78083 0.12556 1.07999
 H876 H 0.76001 0.05113 1.04035
 H877 H 0.81679 0.08876 1.14655
 H878 H 0.80030 0.10675 1.11570
 C879 C 0.30050 0.53557 0.62494
 C880 C 0.31224 0.55157 0.64628
 C881 C 0.32653 0.54132 0.66594
 C882 C 0.32887 0.51502 0.66534
 C883 C 0.31664 0.49905 0.64448
 C884 C 0.30272 0.50914 0.62449
 C885 C 0.28639 0.54762 0.60379
 C886 C 0.27540 0.53384 0.58089
 C887 C 0.26340 0.54624 0.56134
 C888 C 0.26196 0.57275 0.56412
 C889 C 0.27191 0.58629 0.58740
 C890 C 0.28454 0.57420 0.60678
 C891 C 0.30973 0.57778 0.64797
 C892 C 0.29589 0.58880 0.62880
 H893 H 0.31856 0.58999 0.66443
 H894 H 0.29450 0.60919 0.63101
 H895 H 0.33623 0.55406 0.68157
 H896 H 0.31765 0.47864 0.64366
 H897 H 0.25531 0.53476 0.54425
 H898 H 0.27049 0.60667 0.59007
 H899 H 0.29377 0.49595 0.60899
 H900 H 0.27619 0.51354 0.57754
 C901 C 0.20481 0.55702 0.39121
 C902 C 0.18187 0.56580 0.38028
 C903 C 0.17327 0.55819 0.35461
 C904 C 0.18723 0.54197 0.33930
 C905 C 0.21023 0.53368 0.35001
 C906 C 0.21896 0.54108 0.37558
 C907 C 0.21284 0.56500 0.41898
 C908 C 0.23479 0.55662 0.43200
 C909 C 0.24126 0.56442 0.45793
 C910 C 0.22611 0.58082 0.47154
 C911 C 0.20427 0.58930 0.45880
 C912 C 0.19745 0.58143 0.43279
 C913 C 0.16749 0.58197 0.39504
 C914 C 0.17519 0.58972 0.42068
 H915 H 0.14997 0.58875 0.38663
 H916 H 0.16338 0.60226 0.43125
 H917 H 0.15523 0.56443 0.34676
 H918 H 0.22158 0.52145 0.33856
 H919 H 0.25844 0.55789 0.46725
 H920 H 0.19222 0.60167 0.46928
 H921 H 0.23676 0.53407 0.38269
 H922 H 0.24719 0.54402 0.42258
 C923 C 0.69833 0.06010 0.88816
 C924 C 0.69313 0.03336 0.88399
 C925 C 0.68440 0.02197 0.85939
 C926 C 0.68061 0.03674 0.83832
 C927 C 0.68677 0.06334 0.84269
 C928 C 0.69544 0.07478 0.86706
 C929 C 0.70689 0.07157 0.91486
 C930 C 0.71115 0.09801 0.92124
 C931 C 0.71956 0.10782 0.94620
 C932 C 0.72428 0.09172 0.96581
 C933 C 0.71894 0.06522 0.95971
 C934 C 0.71042 0.05513 0.93457
 C935 C 0.69673 0.01809 0.90440
 C936 C 0.70533 0.02872 0.92908
 H937 H 0.69289 -0.00245 0.90125
 H938 H 0.70791 0.01603 0.94414
 H939 H 0.68133 0.00139 0.85678
 H940 H 0.68371 0.07591 0.82770
 H941 H 0.72247 0.12824 0.94953
 H942 H 0.72109 0.05216 0.97442
 H943 H 0.69948 0.09522 0.86893
 H944 H 0.70808 0.11155 0.90726
 C945 C 0.71200 0.93468 0.60353
 C946 C 0.69320 0.95220 0.59982
 C947 C 0.68146 0.96307 0.62096
 C948 C 0.68826 0.95698 0.64597
 C949 C 0.70766 0.94048 0.64976
 C950 C 0.71939 0.92942 0.62885
 C951 C 0.72294 0.92238 0.58026
 C952 C 0.74035 0.90339 0.58165
 C953 C 0.74946 0.89208 0.55935
 C954 C 0.74165 0.89951 0.53515
 C955 C 0.72445 0.91847 0.53350
 C956 C 0.71484 0.92970 0.55576
 C957 C 0.68604 0.95862 0.57506
 C958 C 0.69681 0.94779 0.55353
 H959 H 0.67180 0.97218 0.57226
 H960 H 0.69057 0.95336 0.53479
 H961 H 0.66682 0.97621 0.61794
 H962 H 0.71319 0.93548 0.66890
 H963 H 0.76293 0.87764 0.56110
 H964 H 0.71799 0.92400 0.51480
 H965 H 0.73397 0.91665 0.63292
 H966 H 0.74698 0.89680 0.59969
 C967 C 0.21497 0.43142 0.10608
 C968 C 0.20050 0.45247 0.10209
 C969 C 0.18877 0.46451 0.12262
 C970 C 0.19130 0.45607 0.14733
 C971 C 0.20623 0.43568 0.15141
 C972 C 0.21790 0.42347 0.13111
 C973 C 0.22638 0.41852 0.08340
 C974 C 0.23998 0.39666 0.08498
 C975 C 0.24988 0.38515 0.06320
 C976 C 0.24671 0.39517 0.03933
 C977 C 0.23317 0.41690 0.03752
 C978 C 0.22288 0.42848 0.05922
 C979 C 0.19773 0.46133 0.07764
 C980 C 0.20882 0.44971 0.05671
 H981 H 0.18678 0.47753 0.07461
 H982 H 0.20609 0.45730 0.03819
 H983 H 0.17765 0.48055 0.11938
 H984 H 0.20837 0.42872 0.17028
 H985 H 0.26031 0.36850 0.06516
 H986 H 0.23006 0.42448 0.01903
 H987 H 0.22897 0.40780 0.13543
 H988 H 0.24304 0.38802 0.10278
 C989 C -0.11046 0.31317 0.42085
 C990 C -0.10484 0.33789 0.43358
 C991 C -0.12500 0.35120 0.44320
 C992 C -0.15089 0.34032 0.44017
 C993 C -0.15634 0.31583 0.42755
 C994 C -0.13649 0.30241 0.41804
 C995 C -0.08850 0.29985 0.41034
 C996 C -0.09202 0.27522 0.39752
 C997 C -0.07128 0.26412 0.38680
 C998 C -0.04626 0.27723 0.38849
 C999 C -0.04242 0.30130 0.40248
 C1000 C -0.06321 0.31270 0.41317
 C1001 C -0.07922 0.34931 0.43635
 C1002 C -0.05888 0.33703 0.42628
 H1003 H -0.07487 0.36820 0.44616
 H1004 H -0.03946 0.34684 0.42860
 H1005 H -0.12051 0.37003 0.45313
 H1006 H -0.17617 0.30714 0.42452
 H1007 H -0.07545 0.24531 0.37714
 H1008 H -0.02317 0.31149 0.40443
 H1009 H -0.14206 0.28381 0.40828
 H1010 H -0.11069 0.26418 0.39532
 C1011 C 0.38522 0.81840 0.93498
 C1012 C 0.39221 0.83953 0.95323
 C1013 C 0.37283 0.85344 0.96356
 C1014 C 0.34645 0.84630 0.95626
 C1015 C 0.33960 0.82492 0.93877
 C1016 C 0.35865 0.81110 0.92829
 C1017 C 0.40644 0.80486 0.92338
 C1018 C 0.40147 0.78528 0.90339
 C1019 C 0.42182 0.77403 0.89227
 C1020 C 0.44784 0.78129 0.90120
 C1021 C 0.45297 0.80111 0.92097
 C1022 C 0.43257 0.81297 0.93197
 C1023 C 0.41845 0.84663 0.96099
 C1024 C 0.43818 0.83347 0.95077
 H1025 H 0.42383 0.86265 0.97514
 H1026 H 0.45818 0.83979 0.95733
 H1027 H 0.37822 0.86970 0.97743
 H1028 H 0.31938 0.81911 0.93277
 H1029 H 0.41697 0.76019 0.87593
 H1030 H 0.47291 0.80808 0.92710
 H1031 H 0.35207 0.79485 0.91499
 H1032 H 0.38207 0.77892 0.89534
 C1033 C 1.12837 0.80468 0.04787
 C1034 C 1.14764 0.81895 0.06491
 C1035 C 1.16785 0.83397 0.05527
 C1036 C 1.16970 0.83479 0.02869
 C1037 C 1.15092 0.82015 0.01179
 C1038 C 1.13050 0.80534 0.02119
 C1039 C 1.10644 0.78981 0.05910
 C1040 C 1.08542 0.77614 0.04402
 C1041 C 1.06479 0.76368 0.05551
 C1042 C 1.06461 0.76436 0.08244
 C1043 C 1.08608 0.77712 0.09744
 C1044 C 1.10655 0.79012 0.08615
 C1045 C 1.14664 0.81830 0.09152
 C1046 C 1.12666 0.80400 0.10191
 H1047 H 1.16152 0.82908 0.10455
 H1048 H 1.12670 0.80422 0.12264
 H1049 H 1.18190 0.84546 0.06862
 H1050 H 1.15209 0.81998 -0.00880
 H1051 H 1.04913 0.75386 0.04295
 H1052 H 1.08635 0.77767 0.11823
 H1053 H 1.11667 0.79454 0.00727
 H1054 H 1.08427 0.77521 0.02331
 C1055 C 0.63325 0.29327 0.53426
 C1056 C 0.62634 0.31428 0.52099
 C1057 C 0.64540 0.32916 0.50939
 C1058 C 0.67147 0.32361 0.51104
 C1059 C 0.67801 0.30215 0.52325
 C1060 C 0.65922 0.28711 0.53463
 C1061 C 0.61288 0.27931 0.54837
 C1062 C 0.61822 0.25933 0.56353
 C1063 C 0.59950 0.24882 0.57865
 C1064 C 0.57459 0.25758 0.57880
 C1065 C 0.56869 0.27645 0.56240
 C1066 C 0.58760 0.28757 0.54760
 C1067 C 0.60067 0.32083 0.52010
 C1068 C 0.58169 0.30771 0.53305
 H1069 H 0.59529 0.33674 0.50972
 H1070 H 0.56228 0.31394 0.53229
 H1071 H 0.64012 0.34576 0.50009
 H1072 H 0.69787 0.29710 0.52426
 H1073 H 0.60546 0.23460 0.59084
 H1074 H 0.54966 0.28359 0.56240
 H1075 H 0.66561 0.27109 0.54398
 H1076 H 0.63706 0.25210 0.56482
 C1077 C 0.39846 0.21310 0.57722
 C1078 C 0.38841 0.22037 0.55335
 C1079 C 0.36217 0.21349 0.54493
 C1080 C 0.34573 0.19933 0.55998
 C1081 C 0.35540 0.19355 0.58428
 C1082 C 0.38133 0.20037 0.59286
 C1083 C 0.42700 0.21889 0.58457
 C1084 C 0.43915 0.21066 0.60688
 C1085 C 0.46583 0.21613 0.61274
 C1086 C 0.48131 0.22997 0.59665
 C1087 C 0.46934 0.23816 0.57423
 C1088 C 0.44248 0.23251 0.56798
 C1089 C 0.40476 0.23391 0.53782
 C1090 C 0.43114 0.24010 0.54512
 H1091 H 0.39708 0.23969 0.51965
 H1092 H 0.44295 0.25055 0.53238
 H1093 H 0.35488 0.21807 0.52612
 H1094 H 0.34294 0.18313 0.59648
 H1095 H 0.47422 0.20913 0.62990
 H1096 H 0.48079 0.24923 0.56170
 H1097 H 0.38759 0.19511 0.61160
 H1098 H 0.42853 0.19971 0.61996
 C1099 C 0.89208 0.69562 0.05395
 C1100 C 0.87528 0.68486 0.07128
 C1101 C 0.84924 0.67686 0.06323
 C1102 C 0.83976 0.67783 0.03753
 C1103 C 0.85688 0.68768 0.02018
 C1104 C 0.88255 0.69667 0.02827
 C1105 C 0.91949 0.70479 0.06362
 C1106 C 0.93676 0.71861 0.04901
 C1107 C 0.96197 0.72712 0.05905
 C1108 C 0.97104 0.72165 0.08378
 C1109 C 0.95382 0.70768 0.09832
 C1110 C 0.92809 0.70001 0.08882
 C1111 C 0.88473 0.68150 0.09636
 C1112 C 0.91073 0.68829 0.10472
 H1113 H 0.87197 0.67296 0.10958
 H1114 H 0.91718 0.68488 0.12416
 H1115 H 0.83647 0.66971 0.07715
 H1116 H 0.85074 0.68797 0.00005
 H1117 H 0.97396 0.73859 0.04738
 H1118 H 0.96005 0.70279 0.11725
 H1119 H 0.89479 0.70373 0.01398
 H1120 H 0.93092 0.72371 0.03008
 C1121 C 0.60486 0.72016 0.93667
 C1122 C 0.61217 0.69723 0.92451
 C1123 C 0.63222 0.68478 0.93580
 C1124 C 0.64523 0.69453 0.95934
 C1125 C 0.63849 0.71756 0.97114
 C1126 C 0.61853 0.73025 0.96000
 C1127 C 0.58257 0.73227 0.92427
 C1128 C 0.57311 0.75474 0.93492
 C1129 C 0.55156 0.76453 0.92304
 C1130 C 0.53900 0.75227 0.90022
 C1131 C 0.54858 0.73018 0.88933
 C1132 C 0.57005 0.72015 0.90107
 C1133 C 0.59925 0.68656 0.90131
 C1134 C 0.57864 0.69775 0.88986
 H1135 H 0.60497 0.66907 0.89199
 H1136 H 0.56907 0.68855 0.87205
 H1137 H 0.63769 0.66730 0.92622
 H1138 H 0.64825 0.72547 0.98934
 H1139 H 0.54463 0.78169 0.93177
 H1140 H 0.53874 0.72004 0.87211
 H1141 H 0.61394 0.74770 0.97008
 H1142 H 0.58189 0.76486 0.95250
 C1143 C 0.11128 0.22199 0.43927
 C1144 C 0.13360 0.21889 0.42551
 C1145 C 0.15516 0.20852 0.43702
 C1146 C 0.15516 0.20173 0.46249
 C1147 C 0.13357 0.20647 0.47652
 C1148 C 0.11193 0.21632 0.46512
 C1149 C 0.08791 0.23119 0.42566
 C1150 C 0.06381 0.23190 0.43659
 C1151 C 0.04233 0.23973 0.42285
 C1152 C 0.04423 0.24752 0.39790
 C1153 C 0.06836 0.24703 0.38698
 C1154 C 0.08988 0.23838 0.40036
 C1155 C 0.13424 0.22611 0.40034
 C1156 C 0.11306 0.23613 0.38824
 H1157 H 0.15144 0.22409 0.38986
 H1158 H 0.11459 0.24151 0.36880
 H1159 H 0.17160 0.20513 0.42583
 H1160 H 0.13330 0.20247 0.49648
 H1161 H 0.02403 0.23894 0.43176
 H1162 H 0.07057 0.25312 0.36794
 H1163 H 0.09597 0.21942 0.47692
 H1164 H 0.06088 0.22577 0.45544
 C1165 C 0.56305 0.13777 0.69063
 C1166 C 0.58955 0.13480 0.69717
 C1167 C 0.59675 0.11184 0.70580
 C1168 C 0.57800 0.09156 0.70817
 C1169 C 0.55164 0.09486 0.70321
 C1170 C 0.54418 0.11770 0.69447
 C1171 C 0.55660 0.16165 0.67876
 C1172 C 0.53121 0.16584 0.66957
 C1173 C 0.52683 0.18709 0.65605
 C1174 C 0.54758 0.20464 0.65152
 C1175 C 0.57256 0.20154 0.66215
 C1176 C 0.57730 0.18015 0.67528
 C1177 C 0.60887 0.15439 0.69427
 C1178 C 0.60285 0.17665 0.68370
 H1179 H 0.62909 0.15222 0.69965
 H1180 H 0.61862 0.19096 0.68122
 H1181 H 0.61714 0.10937 0.70998
 H1182 H 0.53691 0.07936 0.70508
 H1183 H 0.50742 0.18900 0.64801
 H1184 H 0.58866 0.21530 0.65913
 H1185 H 0.52369 0.11904 0.69026
 H1186 H 0.51467 0.15248 0.67174
 C1187 C 1.05597 0.63518 0.18021
 C1188 C 1.08085 0.63699 0.19356
 C1189 C 1.09055 0.61531 0.20290
 C1190 C 1.07623 0.59136 0.19869
 C1191 C 1.05124 0.58964 0.18619
 C1192 C 1.04117 0.61125 0.17708
 C1193 C 1.04721 0.65857 0.16896
 C1194 C 1.02297 0.65900 0.15500
 C1195 C 1.01696 0.68061 0.14281
 C1196 C 1.03497 0.70216 0.14420
 C1197 C 1.05836 0.70250 0.15934
 C1198 C 1.06460 0.68102 0.17165
 C1199 C 1.09640 0.66022 0.19675
 C1200 C 1.08853 0.68171 0.18588
 H1201 H 1.11536 0.66161 0.20714
 H1202 H 1.10167 0.69901 0.18819
 H1203 H 1.10966 0.61698 0.21304
 H1204 H 1.03979 0.57138 0.18267
 H1205 H 0.99879 0.68000 0.13119
 H1206 H 1.07216 0.71933 0.16079
 H1207 H 1.02211 0.60868 0.16707
 H1208 H 1.00874 0.64265 0.15271
 C1209 C 0.95990 0.84269 0.18170
 C1210 C 0.97553 0.86188 0.19754
 C1211 C 0.96452 0.88334 0.20810
 C1212 C 0.93822 0.88672 0.20231
 C1213 C 0.92286 0.86776 0.18632
 C1214 C 0.93345 0.84600 0.17629
 C1215 C 0.97258 0.82039 0.17028
 C1216 C 0.95862 0.79960 0.15532
 C1217 C 0.97170 0.78048 0.14321
 C1218 C 0.99889 0.78179 0.14565
 C1219 C 1.01284 0.80145 0.16178
 C1220 C 0.99991 0.82056 0.17429
 C1221 C 1.00224 0.86001 0.20207
 C1222 C 1.01425 0.84003 0.19032
 H1223 H 1.01422 0.87469 0.21420
 H1224 H 1.03513 0.83993 0.19370
 H1225 H 0.97662 0.89756 0.22065
 H1226 H 0.90268 0.86998 0.18098
 H1227 H 0.96062 0.76534 0.13089
 H1228 H 1.03389 0.80219 0.16405
 H1229 H 0.92077 0.83237 0.16379
 H1230 H 0.93769 0.79799 0.15237
 C1231 C 0.48594 0.35069 0.68929
 C1232 C 0.48740 0.37449 0.67852
 C1233 C 0.47502 0.39476 0.68959
 C1234 C 0.46043 0.39163 0.71094
 C1235 C 0.45872 0.36803 0.72150
 C1236 C 0.47142 0.34783 0.71095
 C1237 C 0.49918 0.32942 0.67654
 C1238 C 0.49981 0.30524 0.68607
 C1239 C 0.51150 0.28578 0.67275
 C1240 C 0.52279 0.28989 0.64960
 C1241 C 0.52272 0.31413 0.64035
 C1242 C 0.51139 0.33383 0.65368
 C1243 C 0.50060 0.37778 0.65633
 C1244 C 0.51205 0.35780 0.64401
 H1245 H 0.50164 0.39597 0.64806
 H1246 H 0.52160 0.36118 0.62659
 H1247 H 0.47599 0.41282 0.68104
 H1248 H 0.44756 0.36524 0.73803
 H1249 H 0.51166 0.26750 0.68067
 H1250 H 0.53076 0.31765 0.62223
 H1251 H 0.46929 0.33007 0.71976
 H1252 H 0.49139 0.30096 0.70373
 C1253 C 0.47431 0.63131 0.81470
 C1254 C 0.46309 0.61280 0.82986
 C1255 C 0.45663 0.58764 0.81935
 C1256 C 0.46076 0.58042 0.79366
 C1257 C 0.47280 0.59851 0.77893
 C1258 C 0.47958 0.62360 0.78929
 C1259 C 0.47886 0.65846 0.82607
 C1260 C 0.48920 0.67862 0.81251
 C1261 C 0.49119 0.70383 0.82344
 C1262 C 0.48278 0.70947 0.84796
 C1263 C 0.47368 0.68948 0.86206
 C1264 C 0.47154 0.66420 0.85135
 C1265 C 0.45740 0.61965 0.85512
 C1266 C 0.46152 0.64480 0.86563
 H1267 H 0.44901 0.60543 0.86678
 H1268 H 0.45621 0.64922 0.88508
 H1269 H 0.44699 0.57400 0.83085
 H1270 H 0.47655 0.59334 0.75916
 H1271 H 0.49855 0.71902 0.81238
 H1272 H 0.46796 0.69365 0.88141
 H1273 H 0.48833 0.63675 0.77690
 H1274 H 0.49543 0.67540 0.79335
 C1275 C -0.02526 0.13397 0.29315
 C1276 C -0.01590 0.11378 0.30619
 C1277 C -0.02446 0.08836 0.29757
 C1278 C -0.04206 0.08270 0.27588
 C1279 C -0.04988 0.10270 0.26204
 C1280 C -0.04160 0.12799 0.27048
 C1281 C -0.01829 0.16078 0.30473
 C1282 C -0.02943 0.18186 0.29516
 C1283 C -0.02469 0.20601 0.30829
 C1284 C -0.00828 0.20987 0.33082
 C1285 C 0.00407 0.18947 0.33986
 C1286 C -0.00133 0.16483 0.32736
 C1287 C 0.00137 0.11910 0.32809
 C1288 C 0.00879 0.14410 0.33823
 H1289 H 0.00892 0.10367 0.33784
 H1290 H 0.02180 0.14717 0.35550
 H1291 H -0.01793 0.07296 0.30810
 H1292 H -0.06344 0.09885 0.24523
 H1293 H -0.03453 0.22164 0.30130
 H1294 H 0.01636 0.19247 0.35763
 H1295 H -0.04868 0.14252 0.25927
 H1296 H -0.04276 0.17995 0.27827
 C1297 C 0.05927 0.35915 0.29392
 C1298 C 0.04411 0.36915 0.27424
 C1299 C 0.05335 0.39160 0.26376
 C1300 C 0.07699 0.40497 0.27344
 C1301 C 0.09183 0.39524 0.29311
 C1302 C 0.08324 0.37255 0.30312
 C1303 C 0.04833 0.33564 0.30521
 C1304 C 0.06227 0.32344 0.32399
 C1305 C 0.05011 0.30337 0.33599
 C1306 C 0.02390 0.29516 0.32956
 C1307 C 0.01045 0.30581 0.30957
 C1308 C 0.02251 0.32578 0.29721
 C1309 C 0.01939 0.35731 0.26592
 C1310 C 0.00863 0.33638 0.27749
 H1311 H 0.00777 0.36494 0.25089
 H1312 H -0.01100 0.32853 0.27109
 H1313 H 0.04168 0.39927 0.24877
 H1314 H 0.11022 0.40527 0.30073
 H1315 H 0.06075 0.29528 0.35138
 H1316 H -0.00978 0.29915 0.30435
 H1317 H 0.09533 0.36619 0.31845
 H1318 H 0.08232 0.32950 0.33011
 C1319 C 0.54095 0.85473 0.78766
 C1320 C 0.56809 0.86123 0.79187
 C1321 C 0.57990 0.88217 0.78077
 C1322 C 0.56521 0.89689 0.76516
 C1323 C 0.53844 0.88991 0.76034
 C1324 C 0.52643 0.86914 0.77139
 C1325 C 0.52884 0.83341 0.80150
 C1326 C 0.50180 0.82666 0.80015
 C1327 C 0.49128 0.80844 0.81539
 C1328 C 0.50742 0.79620 0.83202
 C1329 C 0.53442 0.80161 0.83242
 C1330 C 0.54520 0.82039 0.81769
 C1331 C 0.58326 0.84714 0.80757
 C1332 C 0.57209 0.82706 0.82006
 H1333 H 0.60409 0.85197 0.81056
 H1334 H 0.58462 0.81707 0.83236
 H1335 H 0.60052 0.88749 0.78508
 H1336 H 0.52668 0.90055 0.74798
 H1337 H 0.47034 0.80434 0.81469
 H1338 H 0.54695 0.79243 0.84552
 H1339 H 0.50578 0.86485 0.76710
 H1340 H 0.48835 0.83578 0.78815
 C1341 C 0.66754 0.55480 0.13153
 C1342 C 0.68048 0.57961 0.13377
 C1343 C 0.69117 0.58973 0.11241
 C1344 C 0.68872 0.57610 0.08779
 C1345 C 0.67656 0.55087 0.08616
 C1346 C 0.66615 0.54050 0.10754
 C1347 C 0.65526 0.54531 0.15470
 C1348 C 0.64179 0.52088 0.15476
 C1349 C 0.62917 0.51384 0.17638
 C1350 C 0.62955 0.53103 0.19823
 C1351 C 0.64394 0.55480 0.19883
 C1352 C 0.65675 0.56202 0.17740
 C1353 C 0.68232 0.59462 0.15724
 C1354 C 0.67054 0.58610 0.17851
 H1355 H 0.69244 0.61359 0.15902
 H1356 H 0.67194 0.59874 0.19601
 H1357 H 0.70213 0.60821 0.11570
 H1358 H 0.67334 0.53919 0.06815
 H1359 H 0.61826 0.49531 0.17568
 H1360 H 0.64477 0.56793 0.21595
 H1361 H 0.65647 0.52147 0.10466
 H1362 H 0.64039 0.50717 0.13821
 C1363 C 0.18936 1.06195 0.64219
 C1364 C 0.20647 1.08457 0.64509
 C1365 C 0.21565 1.09537 0.62338
 C1366 C 0.20753 1.08450 0.59848
 C1367 C 0.19129 1.06161 0.59561
 C1368 C 0.18235 1.05040 0.61715
 C1369 C 0.17832 1.05226 0.66584
 C1370 C 0.16051 1.03035 0.66513
 C1371 C 0.14836 1.02402 0.68718
 C1372 C 0.15387 1.03916 0.71040
 C1373 C 0.17272 1.06000 0.71177
 C1374 C 0.18497 1.06664 0.68976
 C1375 C 0.21353 1.09692 0.66955
 C1376 C 0.20287 1.08825 0.69137
 H1377 H 0.22682 1.11411 0.67175
 H1378 H 0.20821 1.09905 0.70973
 H1379 H 0.22868 1.11275 0.62588
 H1380 H 0.18467 1.05283 0.57664
 H1381 H 0.13335 1.00827 0.68563
 H1382 H 0.17678 1.07184 0.72973
 H1383 H 0.16940 1.03316 0.61372
 H1384 H 0.15494 1.01846 0.64758
 C1385 C 0.18931 0.97881 0.85879
 C1386 C 0.17661 0.97754 0.88183
 C1387 C 0.18860 0.96773 0.90324
 C1388 C 0.21346 0.95853 0.90255
 C1389 C 0.22583 0.95996 0.87925
 C1390 C 0.21408 0.96994 0.85793
 C1391 C 0.17566 0.98945 0.83636
 C1392 C 0.18658 0.99192 0.81251
 C1393 C 0.17298 1.00228 0.79241
 C1394 C 0.14827 1.01044 0.79563
 C1395 C 0.13709 1.00752 0.81908
 C1396 C 0.15055 0.99740 0.83936
 C1397 C 0.15171 0.98573 0.88341
 C1398 C 0.13894 0.99536 0.86262
 H1399 H 0.14187 0.98467 0.90102
 H1400 H 0.11969 1.00145 0.86487
 H1401 H 0.17735 0.96597 0.91982
 H1402 H 0.24532 0.95457 0.87735
 H1403 H 0.18204 1.00436 0.77452
 H1404 H 0.11765 1.01297 0.82161
 H1405 H 0.22483 0.97064 0.84097
 H1406 H 0.20562 0.98617 0.80905
 C1407 C 0.68721 0.46255 0.33502
 C1408 C 0.70288 0.47919 0.35352
 C1409 C 0.71587 0.46943 0.37446
 C1410 C 0.71287 0.44327 0.37787
 C1411 C 0.69737 0.42685 0.35941
 C1412 C 0.68484 0.43627 0.33824
 C1413 C 0.67269 0.47385 0.31363
 C1414 C 0.65695 0.45895 0.29399
 C1415 C 0.64171 0.47047 0.27609
 C1416 C 0.64185 0.49701 0.27725
 C1417 C 0.65875 0.51207 0.29562
 C1418 C 0.67419 0.50072 0.31370
 C1419 C 0.70476 0.50555 0.35155
 C1420 C 0.69047 0.51610 0.33226
 H1421 H 0.71682 0.51830 0.36565
 H1422 H 0.69190 0.53667 0.33210
 H1423 H 0.72801 0.48234 0.38834
 H1424 H 0.69421 0.40667 0.36169
 H1425 H 0.62871 0.45849 0.26224
 H1426 H 0.65922 0.53266 0.29633
 H1427 H 0.67282 0.42272 0.32507
 H1428 H 0.65558 0.43841 0.29249
 C1429 C 0.79905 0.48206 0.62708
 C1430 C 0.77884 0.46210 0.62158
 C1431 C 0.77061 0.45365 0.59600
 C1432 C 0.78307 0.46386 0.57561
 C1433 C 0.80291 0.48376 0.58098
 C1434 C 0.81065 0.49298 0.60637
 C1435 C 0.80860 0.48913 0.65465
 C1436 C 0.82815 0.50911 0.66241
 C1437 C 0.83871 0.51267 0.68789
 C1438 C 0.83004 0.49637 0.70599
 C1439 C 0.80929 0.47778 0.69900
 C1440 C 0.79834 0.47422 0.67361
 C1441 C 0.76804 0.44959 0.64154
 C1442 C 0.77790 0.45521 0.66695
 H1443 H 0.75252 0.43438 0.63732
 H1444 H 0.76972 0.44414 0.68156
 H1445 H 0.75565 0.43787 0.59198
 H1446 H 0.81279 0.49185 0.56547
 H1447 H 0.85473 0.52717 0.69309
 H1448 H 0.80247 0.46535 0.71317
 H1449 H 0.82641 0.50792 0.60939
 H1450 H 0.83602 0.52166 0.64899
 C1451 C 0.30245 -0.02368 0.15156
 C1452 C 0.28333 -0.04434 0.14447
 C1453 C 0.27457 -0.05026 0.11856
 C1454 C 0.28553 -0.03675 0.09929
 C1455 C 0.30439 -0.01627 0.10624
 C1456 C 0.31258 -0.00958 0.13207
 C1457 C 0.31251 -0.01907 0.17923
 C1458 C 0.33080 0.00149 0.18851
 C1459 C 0.34192 0.00314 0.21371
 C1460 C 0.33511 -0.01565 0.23014
 C1461 C 0.31550 -0.03506 0.22174
 C1462 C 0.30399 -0.03677 0.19655
 C1463 C 0.27421 -0.05992 0.16303
 C1464 C 0.28467 -0.05650 0.18842
 H1465 H 0.25957 -0.07571 0.15760
 H1466 H 0.27780 -0.06976 0.20180
 H1467 H 0.26042 -0.06651 0.11319
 H1468 H 0.31315 -0.00573 0.09158
 H1469 H 0.35695 0.01838 0.21984
 H1470 H 0.30989 -0.04937 0.23460
 H1471 H 0.32755 0.00600 0.13625
 H1472 H 0.33725 0.01608 0.17647
 C1473 C 0.31267 0.05424 0.38239
 C1474 C 0.28869 0.06420 0.37644
 C1475 C 0.27620 0.07730 0.39590
 C1476 C 0.28751 0.08081 0.42121
 C1477 C 0.31089 0.07034 0.42707
 C1478 C 0.32329 0.05719 0.40804
 C1479 C 0.32574 0.04092 0.36112
 C1480 C 0.34984 0.03089 0.36517
 C1481 C 0.36096 0.01806 0.34503
 C1482 C 0.34852 0.01490 0.32024
 C1483 C 0.32494 0.02555 0.31566
 C1484 C 0.31339 0.03841 0.33596
 C1485 C 0.27753 0.06124 0.35111
 C1486 C 0.28957 0.04856 0.33134
 H1487 H 0.25918 0.06884 0.34649
 H1488 H 0.28007 0.04670 0.31212
 H1489 H 0.25814 0.08542 0.39123
 H1490 H 0.31974 0.07245 0.44655
 H1491 H 0.37949 0.01054 0.34891
 H1492 H 0.31522 0.02316 0.29652
 H1493 H 0.34122 0.04969 0.41393
 H1494 H 0.36048 0.03259 0.38371
 C1495 C 0.78721 0.55466 0.85649
 C1496 C 0.77783 0.53831 0.87470
 C1497 C 0.76638 0.54833 0.89647
 C1498 C 0.76386 0.57452 0.90036
 C1499 C 0.77250 0.59058 0.88194
 C1500 C 0.78403 0.58086 0.86032
 C1501 C 0.80066 0.54339 0.83430
 C1502 C 0.81184 0.55810 0.81579
 C1503 C 0.82573 0.54689 0.79654
 C1504 C 0.82883 0.52076 0.79511
 C1505 C 0.81645 0.50576 0.81262
 C1506 C 0.80290 0.51685 0.83232
 C1507 C 0.78019 0.51211 0.87126
 C1508 C 0.79231 0.50159 0.85045
 H1509 H 0.77280 0.49954 0.88505
 H1510 H 0.79394 0.48123 0.84886
 H1511 H 0.75944 0.53575 0.91045
 H1512 H 0.77095 0.61090 0.88461
 H1513 H 0.83471 0.55901 0.78335
 H1514 H 0.81771 0.48536 0.81130
 H1515 H 0.79055 0.59423 0.84705
 H1516 H 0.81066 0.57838 0.81618
 C1517 C 0.12047 0.65996 0.55629
 C1518 C 0.12006 0.68619 0.55277
 C1519 C 0.09949 0.69953 0.56140
 C1520 C 0.07926 0.68720 0.57379
 C1521 C 0.07919 0.66097 0.57626
 C1522 C 0.09942 0.64750 0.56760
 C1523 C 0.14380 0.64691 0.54872
 C1524 C 0.14673 0.62128 0.55283
 C1525 C 0.16960 0.61053 0.54732
 C1526 C 0.19013 0.62488 0.53737
 C1527 C 0.18703 0.65005 0.53206
 C1528 C 0.16420 0.66126 0.53798
 C1529 C 0.14050 0.69911 0.54132
 C1530 C 0.16204 0.68690 0.53401
 H1531 H 0.14008 0.71914 0.53839
 H1532 H 0.17755 0.69789 0.52567
 H1533 H 0.09952 0.71970 0.55897
 H1534 H 0.06397 0.65099 0.58588
 H1535 H 0.17132 0.59087 0.55106
 H1536 H 0.20286 0.66129 0.52447
 H1537 H 0.09844 0.62749 0.57052
 H1538 H 0.13187 0.60929 0.56075
 C1539 C 0.63157 0.17841 1.05647
 C1540 C 0.63326 0.19218 1.08096
 C1541 C 0.61089 0.20080 1.09116
 C1542 C 0.58635 0.19516 1.07785
 C1543 C 0.58472 0.18177 1.05343
 C1544 C 0.60700 0.17358 1.04280
 C1545 C 0.65583 0.16852 1.04687
 C1546 C 0.65661 0.15512 1.02252
 C1547 C 0.67921 0.14444 1.01551
 C1548 C 0.70136 0.14675 1.03267
 C1549 C 0.70130 0.16126 1.05626
 C1550 C 0.67888 0.17226 1.06339
 C1551 C 0.65708 0.19650 1.09563
 C1552 C 0.67932 0.18647 1.08718
 H1553 H 0.65837 0.20712 1.11434
 H1554 H 0.69708 0.18963 1.09963
 H1555 H 0.61257 0.21155 1.10981
 H1556 H 0.56605 0.17689 1.04281
 H1557 H 0.67902 0.13339 0.99713
 H1558 H 0.71864 0.16349 1.06934
 H1559 H 0.60445 0.16289 1.02423
 H1560 H 0.63988 0.15228 1.00885
 C1561 C 0.84080 0.19913 0.95602
 C1562 C 0.86184 0.21263 0.97129
 C1563 C 0.88300 0.22432 0.95969
 C1564 C 0.88435 0.22244 0.93261
 C1565 C 0.86265 0.20932 0.91776
 C1566 C 0.84143 0.19801 0.92917
 C1567 C 0.81931 0.18568 0.96916
 C1568 C 0.79774 0.17127 0.95564
 C1569 C 0.77962 0.15708 0.96869
 C1570 C 0.78239 0.15699 0.99545
 C1571 C 0.80290 0.17246 1.00923
 C1572 C 0.82136 0.18668 0.99633
 C1573 C 0.86198 0.21398 0.99817
 C1574 C 0.84227 0.20116 1.01042
 H1575 H 0.87798 0.22453 1.00996
 H1576 H 0.84369 0.20219 1.03124
 H1577 H 0.89796 0.23540 0.97225
 H1578 H 0.86218 0.20596 0.89711
 H1579 H 0.76427 0.14508 0.95760
 H1580 H 0.80497 0.17273 1.03002
 H1581 H 0.82606 0.18782 0.91649
 H1582 H 0.79485 0.17005 0.93498
 C1583 C 0.33737 0.69053 0.47663
 C1584 C 0.35978 0.69940 0.49299
 C1585 C 0.38209 0.71048 0.48273
 C1586 C 0.38234 0.71327 0.45633
 C1587 C 0.35973 0.70563 0.44036
 C1588 C 0.33753 0.69437 0.45030
 C1589 C 0.31488 0.67662 0.48797
 C1590 C 0.29274 0.66485 0.47301
 C1591 C 0.27372 0.64968 0.48408
 C1592 C 0.27610 0.64613 0.51036
 C1593 C 0.29709 0.65932 0.52571
 C1594 C 0.31671 0.67391 0.51469
 C1595 C 0.35996 0.69676 0.51941
 C1596 C 0.33878 0.68454 0.53006
 H1597 H 0.37694 0.70389 0.53201
 H1598 H 0.34011 0.68254 0.55055
 H1599 H 0.39939 0.71674 0.49523
 H1600 H 0.35949 0.70761 0.41990
 H1601 H 0.25794 0.63959 0.47168
 H1602 H 0.29890 0.65711 0.54615
 H1603 H 0.32090 0.68852 0.43698
 H1604 H 0.29029 0.66615 0.45255
 C1605 C 0.64034 0.78958 0.46379
 C1606 C 0.61989 0.79795 0.47809
 C1607 C 0.59392 0.78878 0.47054
 C1608 C 0.58804 0.77143 0.44876
 C1609 C 0.60852 0.76174 0.43594
 C1610 C 0.63430 0.77057 0.44334
 C1611 C 0.66733 0.80224 0.47023
 C1612 C 0.68824 0.79758 0.45503
 C1613 C 0.71220 0.81200 0.45993
 C1614 C 0.71613 0.83099 0.48038
 C1615 C 0.69602 0.83484 0.49657
 C1616 C 0.67148 0.82107 0.49127
 C1617 C 0.62545 0.81607 0.49921
 C1618 C 0.65074 0.82715 0.50585
 H1619 H 0.60991 0.82221 0.51046
 H1620 H 0.65390 0.84149 0.52201
 H1621 H 0.57825 0.79623 0.48073
 H1622 H 0.60453 0.74770 0.41959
 H1623 H 0.72756 0.80884 0.44723
 H1624 H 0.69889 0.84987 0.51214
 H1625 H 0.64909 0.76266 0.43241
 H1626 H 0.68623 0.78371 0.43861
 C1627 C 0.13583 0.30021 -0.03933
 C1628 C 0.11573 0.31280 -0.02814
 C1629 C 0.08967 0.30596 -0.03708
 C1630 C 0.08327 0.28624 -0.05662
 C1631 C 0.10303 0.27258 -0.06631
 C1632 C 0.12901 0.27944 -0.05784
 C1633 C 0.16348 0.31015 -0.03160
 C1634 C 0.18464 0.30160 -0.04446
 C1635 C 0.20977 0.31327 -0.03837
 C1636 C 0.21448 0.33316 -0.01890
 C1637 C 0.19389 0.34111 -0.00514
 C1638 C 0.16834 0.33030 -0.01186
 C1639 C 0.12182 0.33239 -0.00847
 C1640 C 0.14757 0.34061 -0.00014
 H1641 H 0.10644 0.34171 0.00046
 H1642 H 0.15127 0.35605 0.01493
 H1643 H 0.07435 0.31624 -0.02920
 H1644 H 0.09845 0.25719 -0.08131
 H1645 H 0.22554 0.30720 -0.04932
 H1646 H 0.19754 0.35697 0.00951
 H1647 H 0.14341 0.26851 -0.06629
 H1648 H 0.18208 0.28678 -0.06005
 C1649 C 0.35183 0.28021 0.05109
 C1650 C 0.37046 0.27052 0.03516
 C1651 C 0.39090 0.25805 0.04576
 C1652 C 0.39310 0.25487 0.07209
 C1653 C 0.37385 0.26312 0.08762
 C1654 C 0.35345 0.27567 0.07730
 C1655 C 0.33196 0.29579 0.03947
 C1656 C 0.31385 0.30812 0.05392
 C1657 C 0.29741 0.32436 0.04253
 C1658 C 0.29861 0.32863 0.01655
 C1659 C 0.31540 0.31515 0.00172
 C1660 C 0.33230 0.29928 0.01297
 C1661 C 0.36908 0.27395 0.00889
 C1662 C 0.35025 0.28784 -0.00201
 H1663 H 0.38311 0.26621 -0.00335
 H1664 H 0.35033 0.29040 -0.02236
 H1665 H 0.40556 0.25135 0.03364
 H1666 H 0.37522 0.26087 0.10804
 H1667 H 0.28451 0.33429 0.05436
 H1668 H 0.31589 0.31758 -0.01863
 H1669 H 0.33956 0.28214 0.09026
 H1670 H 0.31262 0.30613 0.07417
 C1671 C 0.86428 0.80710 0.55456
 C1672 C 0.88678 0.82266 0.56497
 C1673 C 0.90783 0.81164 0.57633
 C1674 C 0.90735 0.78515 0.57675
 C1675 C 0.88559 0.76960 0.56554
 C1676 C 0.86418 0.78040 0.55470
 C1677 C 0.84198 0.81980 0.54311
 C1678 C 0.81784 0.80648 0.53411
 C1679 C 0.79826 0.81912 0.52231
 C1680 C 0.80250 0.84512 0.51902
 C1681 C 0.82586 0.85878 0.52900
 C1682 C 0.84541 0.84645 0.54129
 C1683 C 0.88840 0.84907 0.56359
 C1684 C 0.86836 0.86066 0.55155
 H1685 H 0.90570 0.86093 0.57143
 H1686 H 0.87082 0.88110 0.55039
 H1687 H 0.92487 0.82367 0.58460
 H1688 H 0.88497 0.74907 0.56567
 H1689 H 0.78018 0.80840 0.51480
 H1690 H 0.82889 0.87905 0.52687
 H1691 H 0.84788 0.76760 0.54637
 H1692 H 0.81382 0.78633 0.53583
   
