data_POSCAR
  _audit_creation_date              2014-09-24
  _audit_creation_method            'ToBaCCo'
  _symmetry_space_group_name_H-M    'P1'
  _symmetry_Int_Tables_number       1
  _symmetry_cell_setting            triclinic
  loop_
  _symmetry_equiv_pos_as_xyz
 x,y,z
_cell_length_a 52.6326
_cell_length_b 53.0538
_cell_length_c 48.5095
_cell_angle_alpha 90.652100
_cell_angle_beta 89.307000
_cell_angle_gamma 89.806800
loop_
  _atom_site_label
  _atom_site_type_symbol
  _atom_site_fract_x
  _atom_site_fract_y
  _atom_site_fract_z
C1 C 0.39404 0.03028 0.27738
 H2 H 0.38982 0.04280 0.26058
 C3 C 0.40962 0.03845 0.29880
 H4 H 0.41763 0.05722 0.29846
 C5 C 0.38830 -0.00932 0.29878
 H6 H 0.37952 -0.02765 0.29913
 C7 C 0.40418 -0.00214 0.32020
 H8 H 0.40775 -0.01513 0.33680
 N9 N 0.38375 0.00676 0.27777
 C10 C 0.36588 -0.01938 0.19524
 H11 H 0.34562 -0.02220 0.19756
 C12 C 0.37820 -0.02649 0.17075
 H13 H 0.36726 -0.03477 0.15423
 C14 C 0.40479 -0.00594 0.21455
 H15 H 0.41504 0.00185 0.23181
 C16 C 0.41787 -0.01262 0.19035
 H17 H 0.43812 -0.00925 0.18898
 Zn18 Zn 0.36125 -0.00215 0.24930
 N19 N 0.37924 -0.00923 0.21641
 C20 C 0.33830 0.03780 0.22042
 N21 N 0.33929 0.02545 0.24480
 C22 C 0.32730 0.03455 0.26781
 C23 C 0.31446 0.05753 0.26717
 C24 C 0.32554 0.06083 0.21882
 C25 C 0.35696 -0.05323 0.25830
 C26 C 0.34507 -0.07631 0.26223
 C27 C 0.30477 -0.05448 0.26524
 C28 C 0.31760 -0.03176 0.26143
 N29 N 0.34322 -0.03159 0.25802
 H30 H 0.34844 0.03048 0.20255
 H31 H 0.32879 0.02448 0.28700
 H32 H 0.30562 0.06490 0.28587
 H33 H 0.32588 0.07102 0.19961
 H34 H 0.37726 -0.05258 0.25464
 H35 H 0.35707 -0.09281 0.26059
 H36 H 0.28451 -0.05331 0.26882
 H37 H 0.30700 -0.01430 0.26083
 C38 C 0.40455 -0.02305 0.16803
 C39 C 0.41490 0.02200 0.32036
 C40 C 0.31830 -0.07766 0.26544
 C41 C 0.31405 0.07125 0.24261
 C42 C 0.10543 0.02599 0.71771
 H43 H 0.10503 0.03850 0.73548
 C44 C 0.09059 0.03137 0.69479
 H45 H 0.07848 0.04791 0.69501
 C46 C 0.12174 -0.01089 0.69570
 H47 H 0.13430 -0.02700 0.69578
 C48 C 0.10702 -0.00643 0.67260
 H49 H 0.10816 -0.01937 0.65519
 N50 N 0.12033 0.00497 0.71788
 C51 C 0.13164 -0.01226 0.80426
 H52 H 0.15215 -0.01130 0.80504
 C53 C 0.11769 -0.01826 0.82788
 H54 H 0.12765 -0.02112 0.84698
 C55 C 0.09395 -0.00911 0.77826
 H56 H 0.08488 -0.00602 0.75872
 C57 C 0.07925 -0.01538 0.80132
 H58 H 0.05886 -0.01687 0.79926
 Zn59 Zn 0.14030 -0.00108 0.74918
 N60 N 0.11962 -0.00739 0.78026
 C61 C 0.15702 0.04245 0.77775
 N62 N 0.16036 0.02783 0.75478
 C63 C 0.17580 0.03514 0.73371
 C64 C 0.18826 0.05830 0.73501
 C65 C 0.16912 0.06572 0.77992
 C66 C 0.14644 -0.05202 0.74188
 C67 C 0.15872 -0.07521 0.73975
 C68 C 0.19903 -0.05362 0.74237
 C69 C 0.18588 -0.03068 0.74427
 N70 N 0.16005 -0.03039 0.74392
 H71 H 0.14415 0.03664 0.79396
 H72 H 0.17762 0.02339 0.71542
 H73 H 0.19968 0.06425 0.71756
 H74 H 0.16595 0.07727 0.79819
 H75 H 0.12590 -0.05121 0.74230
 H76 H 0.14747 -0.09223 0.73871
 H77 H 0.21959 -0.05371 0.74280
 H78 H 0.19627 -0.01326 0.74656
 C79 C 0.09109 -0.01981 0.82667
 C80 C 0.09106 0.01479 0.67208
 C81 C 0.18534 -0.07624 0.74012
 C82 C 0.18457 0.07413 0.75813
 C83 C 0.60551 0.52405 0.21750
 H84 H 0.60350 0.53613 0.23552
 C85 C 0.59135 0.52891 0.19395
 H86 H 0.57808 0.54455 0.19401
 C87 C 0.62526 0.48885 0.19550
 H88 H 0.63895 0.47366 0.19586
 C89 C 0.61146 0.49293 0.17167
 H90 H 0.61447 0.48060 0.15398
 N91 N 0.62173 0.50403 0.21798
 C92 C 0.63139 0.48918 0.30524
 H93 H 0.65180 0.49111 0.30661
 C94 C 0.61712 0.48310 0.32860
 H95 H 0.62667 0.48117 0.34810
 C96 C 0.59435 0.48977 0.27797
 H97 H 0.58569 0.49179 0.25803
 C98 C 0.57935 0.48338 0.30075
 H99 H 0.55914 0.48076 0.29807
 Zn100 Zn 0.64101 0.49869 0.24990
 N101 N 0.61983 0.49277 0.28070
 C102 C 0.65675 0.54344 0.27699
 N103 N 0.66082 0.52776 0.25500
 C104 C 0.67687 0.53410 0.23407
 C105 C 0.68925 0.55729 0.23446
 C106 C 0.66872 0.56685 0.27820
 C107 C 0.64738 0.44786 0.24280
 C108 C 0.65970 0.42473 0.24039
 C109 C 0.69994 0.44629 0.24424
 C110 C 0.68676 0.46918 0.24642
 N111 N 0.66094 0.46946 0.24549
 H112 H 0.64327 0.53841 0.29295
 H113 H 0.67932 0.52146 0.21657
 H114 H 0.70169 0.56217 0.21741
 H115 H 0.66443 0.57953 0.29529
 H116 H 0.62683 0.44868 0.24269
 H117 H 0.64850 0.40771 0.23866
 H118 H 0.72049 0.44620 0.24498
 H119 H 0.69709 0.48657 0.24919
 C120 C 0.59069 0.48011 0.32658
 C121 C 0.59405 0.51299 0.17081
 C122 C 0.68631 0.42373 0.24111
 C123 C 0.68481 0.57422 0.25646
 C124 C 0.89506 0.52309 0.78182
 H125 H 0.89882 0.53321 0.76298
 C126 C 0.90800 0.52957 0.80589
 H127 H 0.92244 0.54393 0.80443
 C128 C 0.87174 0.49192 0.80552
 H129 H 0.85682 0.47801 0.80567
 C130 C 0.88384 0.49795 0.83003
 H131 H 0.87728 0.48844 0.84834
 N132 N 0.87773 0.50417 0.78194
 C133 C 0.86540 0.48130 0.69662
 H134 H 0.84487 0.48043 0.69763
 C135 C 0.87820 0.47393 0.67256
 H136 H 0.86731 0.46733 0.65514
 C137 C 0.90432 0.49000 0.71879
 H138 H 0.91441 0.49582 0.73702
 C139 C 0.91794 0.48313 0.69493
 H140 H 0.93844 0.48459 0.69486
 Zn141 Zn 0.85833 0.49706 0.75033
 N142 N 0.87850 0.48935 0.71900
 C143 C 0.84079 0.53960 0.72116
 N144 N 0.83826 0.52574 0.74443
 C145 C 0.82378 0.53386 0.76615
 C146 C 0.81190 0.55733 0.76548
 C147 C 0.82913 0.56322 0.71956
 C148 C 0.85176 0.44681 0.76050
 C149 C 0.83921 0.42403 0.76393
 C150 C 0.79919 0.44591 0.75872
 C151 C 0.81257 0.46843 0.75556
 N152 N 0.83838 0.46837 0.75653
 H153 H 0.85288 0.53299 0.70441
 H154 H 0.82245 0.52254 0.78452
 H155 H 0.80101 0.56384 0.78327
 H156 H 0.83223 0.57460 0.70145
 H157 H 0.87230 0.44737 0.76069
 H158 H 0.85026 0.40698 0.76652
 H159 H 0.77865 0.44606 0.75777
 H160 H 0.80241 0.48578 0.75186
 C161 C 0.90484 0.47508 0.67131
 C162 C 0.90275 0.51680 0.83074
 C163 C 0.81261 0.42336 0.76293
 C164 C 0.81510 0.57259 0.74226
 C165 C 0.21703 0.42067 0.97318
 H166 H 0.23387 0.42358 0.96063
 C167 C 0.19473 0.43410 0.96771
 H168 H 0.19450 0.44755 0.95109
 C169 C 0.19632 0.39893 1.00942
 H170 H 0.19666 0.38494 1.02536
 C171 C 0.17373 0.41162 1.00448
 H172 H 0.15717 0.40762 1.01714
 N173 N 0.21748 0.40368 0.99399
 C174 C 0.29498 0.39059 1.02092
 H175 H 0.29291 0.37068 1.02497
 C176 C 0.31831 0.40221 1.02495
 H177 H 0.33401 0.39120 1.03265
 C178 C 0.27702 0.42880 1.00529
 H179 H 0.26098 0.43897 0.99726
 C180 C 0.30018 0.44120 1.00882
 H181 H 0.30178 0.46080 1.00313
 Zn182 Zn 0.24677 0.38402 1.00094
 N183 N 0.27516 0.40374 1.01050
 C184 C 0.27843 0.36781 0.95671
 N185 N 0.25507 0.36516 0.96869
 C186 C 0.23723 0.34989 0.95736
 C187 C 0.24290 0.33589 0.93351
 C188 C 0.28479 0.35436 0.93272
 C189 C 0.23786 0.37432 1.05619
 C190 C 0.23147 0.36054 1.07953
 C191 C 0.22901 0.32310 1.05088
 C192 C 0.23570 0.33758 1.02807
 N193 N 0.23966 0.36277 1.03108
 H194 H 0.29218 0.38048 0.96555
 H195 H 0.21859 0.34863 0.96686
 H196 H 0.22845 0.32389 0.92467
 H197 H 0.30352 0.35656 0.92357
 H198 H 0.24122 0.39437 1.05797
 H199 H 0.23066 0.37010 1.09936
 H200 H 0.22544 0.30317 1.04797
 H201 H 0.23741 0.32869 1.00802
 C202 C 0.32140 0.42762 1.01797
 C203 C 0.17270 0.42937 0.98338
 C204 C 0.22678 0.33458 1.07707
 C205 C 0.26697 0.33804 0.92094
 C206 C 0.79765 0.10680 0.97387
 H207 H 0.79488 0.12512 0.96501
 C208 C 0.82120 0.09490 0.97076
 H209 H 0.83596 0.10499 0.95988
 C210 C 0.78223 0.07323 1.00089
 H211 H 0.76717 0.06511 1.01322
 C212 C 0.80542 0.06065 0.99838
 H213 H 0.80702 0.04236 1.00782
 N214 N 0.77888 0.09611 0.98917
 C215 C 0.70560 0.09811 1.02719
 H216 H 0.70868 0.11447 1.04020
 C217 C 0.68335 0.08413 1.03021
 H218 H 0.66939 0.08993 1.04561
 C219 C 0.71901 0.07210 0.98964
 H220 H 0.73264 0.06811 0.97329
 C221 C 0.69712 0.05756 0.99201
 H222 H 0.69432 0.04198 0.97777
 Zn223 Zn 0.74928 0.11467 0.99896
 N224 N 0.72258 0.09220 1.00678
 C225 C 0.71727 0.12969 0.95593
 N226 N 0.73892 0.13574 0.96957
 C227 C 0.75329 0.15576 0.96176
 C228 C 0.74671 0.16975 0.93866
 C229 C 0.71008 0.14306 0.93268
 C230 C 0.76774 0.11997 1.05180
 C231 C 0.77500 0.13194 1.07614
 C232 C 0.75945 0.17125 1.05809
 C233 C 0.75265 0.15851 1.03388
 N234 N 0.75696 0.13331 1.03121
 H235 H 0.70570 0.11411 0.96257
 H236 H 0.77010 0.16066 0.97319
 H237 H 0.75890 0.18502 0.93217
 H238 H 0.69307 0.13760 0.92181
 H239 H 0.77085 0.09995 1.04927
 H240 H 0.78393 0.12093 1.09202
 H241 H 0.75535 0.19120 1.06013
 H242 H 0.74371 0.16870 1.01744
 C243 C 0.67859 0.06398 1.01197
 C244 C 0.82588 0.07174 0.98391
 C245 C 0.77080 0.15791 1.07965
 C246 C 0.72512 0.16308 0.92348
 C247 C 0.27938 0.58108 0.47317
 H248 H 0.26253 0.57462 0.46274
 C249 C 0.30282 0.56934 0.46771
 H250 H 0.30390 0.55359 0.45333
 C251 C 0.29887 0.60981 0.50403
 H252 H 0.29753 0.62588 0.51780
 C253 C 0.32253 0.59897 0.49891
 H254 H 0.33893 0.60637 0.50954
 N255 N 0.27771 0.60034 0.49191
 C256 C 0.19845 0.60486 0.51945
 H257 H 0.19812 0.62508 0.52257
 C258 C 0.17634 0.59100 0.52338
 H259 H 0.15900 0.60078 0.52933
 C260 C 0.22131 0.56799 0.50633
 H261 H 0.23888 0.55908 0.49988
 C262 C 0.19948 0.55334 0.50987
 H263 H 0.20043 0.53323 0.50592
 Zn264 Zn 0.24655 0.61623 0.50201
 N265 N 0.22010 0.59341 0.51019
 C266 C 0.21463 0.63097 0.45873
 N267 N 0.23623 0.63685 0.47253
 C268 C 0.25132 0.65619 0.46435
 C269 C 0.24471 0.67066 0.44162
 C270 C 0.20739 0.64483 0.43585
 C271 C 0.25965 0.62051 0.55634
 C272 C 0.26650 0.63182 0.58116
 C273 C 0.25657 0.67241 0.56179
 C274 C 0.25016 0.66027 0.53709
 N275 N 0.25216 0.63478 0.53479
 H276 H 0.20324 0.61509 0.46493
 H277 H 0.26871 0.66011 0.47525
 H278 H 0.25722 0.68565 0.43504
 H279 H 0.19020 0.63978 0.42509
 H280 H 0.26108 0.60026 0.55383
 H281 H 0.27324 0.62006 0.59764
 H282 H 0.25463 0.69269 0.56342
 H283 H 0.24379 0.67120 0.51982
 C284 C 0.17650 0.56499 0.51792
 C285 C 0.32469 0.57823 0.48093
 C286 C 0.26510 0.65813 0.58418
 C287 C 0.22256 0.66488 0.42693
 C288 C 0.71839 0.91710 0.47600
 H289 H 0.73501 0.91928 0.46293
 C290 C 0.69618 0.93065 0.47050
 H291 H 0.69580 0.94342 0.45326
 C292 C 0.69816 0.89710 0.51375
 H293 H 0.69866 0.88374 0.53033
 C294 C 0.67566 0.90997 0.50885
 H295 H 0.65934 0.90676 0.52215
 N296 N 0.71905 0.90091 0.49757
 C297 C 0.79688 0.88847 0.52351
 H298 H 0.79489 0.86872 0.52834
 C299 C 0.82033 0.90016 0.52638
 H300 H 0.83623 0.88938 0.53400
 C301 C 0.77860 0.92619 0.50689
 H302 H 0.76240 0.93610 0.49888
 C303 C 0.80186 0.93863 0.50929
 H304 H 0.80336 0.95803 0.50280
 Zn305 Zn 0.74834 0.88134 0.50468
 N306 N 0.77685 0.90132 0.51311
 C307 C 0.77944 0.86454 0.46037
 N308 N 0.75631 0.86173 0.47283
 C309 C 0.73851 0.84611 0.46201
 C310 C 0.74388 0.83217 0.43802
 C311 C 0.78553 0.85113 0.43629
 C312 C 0.74041 0.87344 0.56036
 C313 C 0.73441 0.86053 0.58439
 C314 C 0.73109 0.82218 0.55734
 C315 C 0.73739 0.83584 0.53378
 N316 N 0.74162 0.86106 0.53569
 H317 H 0.79318 0.87747 0.46877
 H318 H 0.72003 0.84470 0.47187
 H319 H 0.72939 0.82004 0.42948
 H320 H 0.80404 0.85359 0.42673
 H321 H 0.74396 0.89351 0.56125
 H322 H 0.73406 0.87075 0.60383
 H323 H 0.72734 0.80220 0.55535
 H324 H 0.73859 0.82630 0.51403
 C325 C 0.82328 0.92530 0.51831
 C326 C 0.67443 0.92692 0.48697
 C327 C 0.72949 0.83455 0.58311
 C328 C 0.76765 0.83468 0.42484
 C329 C 0.01682 0.27948 0.41905
 H330 H 0.03301 0.26696 0.42046
 C331 C 0.01587 0.30165 0.43496
 H332 H 0.03129 0.30576 0.44885
 C333 C -0.02276 0.28926 0.39907
 H334 H -0.03755 0.28473 0.38461
 C335 C -0.02444 0.31166 0.41450
 H336 H -0.04052 0.32405 0.41152
 N337 N -0.00237 0.27364 0.40158
 C338 C 0.00311 0.19203 0.38684
 H339 H 0.00226 0.19187 0.36456
 C340 C 0.00501 0.16932 0.40096
 H341 H 0.00474 0.15212 0.38882
 C342 C 0.00269 0.21511 0.42878
 H343 H 0.00175 0.23300 0.43959
 C344 C 0.00434 0.19277 0.44385
 H345 H 0.00542 0.19440 0.46603
 Zn346 Zn 0.00067 0.24408 0.37893
 N347 N 0.00249 0.21438 0.40075
 C348 C 0.04944 0.22929 0.35830
 N349 N 0.03086 0.24712 0.35686
 C350 C 0.03379 0.26759 0.34045
 C351 C 0.05577 0.27036 0.32417
 C352 C 0.07157 0.23124 0.34229
 C353 C -0.05105 0.23625 0.36931
 C354 C -0.07340 0.23376 0.35428
 C355 C -0.04912 0.24026 0.31244
 C356 C -0.02715 0.24252 0.32830
 N357 N -0.02854 0.24083 0.35627
 H358 H 0.04732 0.21356 0.37203
 H359 H 0.01897 0.28176 0.33994
 H360 H 0.05759 0.28661 0.31099
 H361 H 0.08613 0.21689 0.34400
 H362 H -0.05164 0.23479 0.39153
 H363 H -0.09116 0.23071 0.36522
 H364 H -0.04763 0.24169 0.29024
 H365 H -0.00906 0.24564 0.31819
 C366 C 0.00590 0.16915 0.43008
 C367 C -0.00489 0.31825 0.43268
 C368 C -0.07269 0.23589 0.32543
 C369 C 0.07496 0.25190 0.32479
 C370 C 0.01704 0.72006 0.08449
 H371 H 0.03450 0.73073 0.08513
 C372 C 0.01582 0.69786 0.06861
 H373 H 0.03258 0.69156 0.05732
 C374 C -0.02550 0.71468 0.09961
 H375 H -0.04153 0.72097 0.11196
 C376 C -0.02758 0.69255 0.08394
 H377 H -0.04545 0.68250 0.08415
 N378 N -0.00344 0.72799 0.09969
 C379 C -0.00033 0.80937 0.11556
 H380 H -0.00352 0.80933 0.13764
 C381 C 0.00099 0.83223 0.10164
 H382 H -0.00095 0.84968 0.11328
 C383 C 0.00619 0.78657 0.07381
 H384 H 0.00792 0.76872 0.06300
 C385 C 0.00778 0.80909 0.05903
 H386 H 0.01060 0.80832 0.03689
 Zn387 Zn -0.00078 0.75721 0.12291
 N388 N 0.00231 0.78712 0.10162
 C389 C 0.04610 0.77208 0.14631
 N390 N 0.02828 0.75356 0.14580
 C391 C 0.03123 0.73227 0.16087
 C392 C 0.05252 0.72923 0.17761
 C393 C 0.06751 0.76989 0.16284
 C394 C -0.05226 0.76804 0.13158
 C395 C -0.07549 0.77003 0.14564
 C396 C -0.05454 0.75744 0.18722
 C397 C -0.03164 0.75583 0.17224
 N398 N -0.03101 0.76059 0.14479
 H399 H 0.04387 0.78861 0.13379
 H400 H 0.01700 0.71763 0.15988
 H401 H 0.05440 0.71228 0.18965
 H402 H 0.08151 0.78480 0.16266
 H403 H -0.05117 0.77237 0.10985
 H404 H -0.09123 0.77706 0.13391
 H405 H -0.05384 0.75197 0.20855
 H406 H -0.01450 0.75019 0.18255
 C407 C 0.00498 0.83235 0.07295
 C408 C -0.00668 0.68359 0.06837
 C409 C -0.07754 0.76414 0.17407
 C410 C 0.07096 0.74830 0.17890
 C411 C 0.51911 0.22188 0.58109
 H412 H 0.53538 0.23429 0.58089
 C413 C 0.51889 0.20052 0.56392
 H414 H 0.53498 0.19691 0.55033
 C415 C 0.47847 0.21170 0.59911
 H416 H 0.46293 0.21581 0.61321
 C417 C 0.47751 0.19007 0.58239
 H418 H 0.46122 0.17776 0.58407
 N419 N 0.49903 0.22716 0.59813
 C420 C 0.50354 0.30847 0.61464
 H421 H 0.50251 0.30863 0.63693
 C422 C 0.50530 0.33120 0.60045
 H423 H 0.50540 0.34876 0.61203
 C424 C 0.50387 0.28537 0.57259
 H425 H 0.50304 0.26752 0.56174
 C426 C 0.50549 0.30769 0.55755
 H427 H 0.50630 0.30667 0.53526
 Zn428 Zn 0.50105 0.25600 0.62182
 N429 N 0.50328 0.28610 0.60067
 C430 C 0.54902 0.27015 0.64378
 N431 N 0.53059 0.25222 0.64399
 C432 C 0.53329 0.23091 0.65909
 C433 C 0.55493 0.22725 0.67514
 C434 C 0.57081 0.26734 0.65964
 C435 C 0.44901 0.26383 0.63131
 C436 C 0.42623 0.26594 0.64628
 C437 C 0.44931 0.25763 0.68792
 C438 C 0.47172 0.25581 0.67214
 N439 N 0.47114 0.25860 0.64429
 H440 H 0.54707 0.28661 0.63110
 H441 H 0.51859 0.21671 0.65863
 H442 H 0.55660 0.21029 0.68720
 H443 H 0.58530 0.28177 0.65890
 H444 H 0.44905 0.26615 0.60918
 H445 H 0.40879 0.26957 0.63538
 H446 H 0.45015 0.25532 0.71004
 H447 H 0.48952 0.25214 0.68222
 C448 C 0.50642 0.33103 0.57148
 C449 C 0.49794 0.18413 0.56450
 C450 C 0.42611 0.26270 0.67500
 C451 C 0.57400 0.24571 0.67569
 C452 C 0.51779 0.78098 0.91947
 H453 H 0.53406 0.76855 0.92091
 C454 C 0.51687 0.80335 0.93503
 H455 H 0.53241 0.80774 0.94867
 C456 C 0.47796 0.79028 0.89978
 H457 H 0.46306 0.78550 0.88557
 C458 C 0.47632 0.81286 0.91486
 H459 H 0.46013 0.82513 0.91186
 N460 N 0.49845 0.77479 0.90235
 C461 C 0.50391 0.69296 0.88944
 H462 H 0.50296 0.69230 0.86717
 C463 C 0.50602 0.67060 0.90416
 H464 H 0.50641 0.65280 0.89303
 C465 C 0.50394 0.71702 0.93085
 H466 H 0.50293 0.73513 0.94121
 C467 C 0.50584 0.69503 0.94645
 H468 H 0.50661 0.69651 0.96870
 Zn469 Zn 0.50119 0.74483 0.88032
 N470 N 0.50339 0.71563 0.90281
 C471 C 0.54991 0.72995 0.86000
 N472 N 0.53111 0.74747 0.85777
 C473 C 0.53395 0.76753 0.84074
 C474 C 0.55618 0.77030 0.82485
 C475 C 0.57227 0.73189 0.84440
 C476 C 0.44952 0.73678 0.87281
 C477 C 0.42646 0.73481 0.85905
 C478 C 0.44889 0.74095 0.81595
 C479 C 0.47163 0.74282 0.83061
 N480 N 0.47145 0.74119 0.85861
 H481 H 0.54788 0.71459 0.87423
 H482 H 0.51897 0.78149 0.83964
 H483 H 0.55802 0.78630 0.81132
 H484 H 0.58705 0.71787 0.84688
 H485 H 0.44993 0.73518 0.89501
 H486 H 0.40927 0.73142 0.87089
 H487 H 0.44928 0.74304 0.79378
 H488 H 0.48929 0.74593 0.81961
 C489 C 0.50719 0.67142 0.93307
 C490 C 0.49598 0.81978 0.93274
 C491 C 0.42581 0.73729 0.83025
 C492 C 0.57569 0.75224 0.82648
 C493 C -0.22335 0.64596 0.97145
 H494 H -0.21374 0.64808 0.99092
 C495 C -0.21483 0.65923 0.94844
 H496 H -0.19868 0.67169 0.95032
 C497 C -0.25568 0.62649 0.94517
 H498 H -0.27127 0.61338 0.94384
 C499 C -0.24772 0.63926 0.92166
 H500 H -0.25784 0.63637 0.90259
 N501 N -0.24359 0.63018 0.96948
 C502 C -0.26839 0.62158 1.05473
 H503 H -0.26739 0.60127 1.05626
 C504 C -0.27580 0.63609 1.07761
 H505 H -0.27928 0.62626 1.09665
 C506 C -0.26351 0.65812 1.02776
 H507 H -0.25935 0.66655 1.00805
 C508 C -0.27101 0.67341 1.05003
 H509 H -0.27275 0.69340 1.04642
 Zn510 Zn -0.25276 0.61138 1.00082
 N511 N -0.26189 0.63276 1.03065
 C512 C -0.21087 0.59565 1.03283
 N513 N -0.22407 0.59169 1.00925
 C514 C -0.21523 0.57583 0.98911
 C515 C -0.19195 0.56357 0.99198
 C516 C -0.18745 0.58379 1.03655
 C517 C -0.30316 0.60428 0.98822
 C518 C -0.32599 0.59153 0.98476
 C519 C -0.30389 0.55229 0.99262
 C520 C -0.28136 0.56585 0.99584
 N521 N -0.28148 0.59138 0.99364
 H522 H -0.21787 0.60885 1.04826
 H523 H -0.22582 0.57355 0.97027
 H524 H -0.18477 0.55185 0.97519
 H525 H -0.17694 0.58752 1.05519
 H526 H -0.30273 0.62463 0.98714
 H527 H -0.34315 0.60227 0.98121
 H528 H -0.30360 0.53199 0.99461
 H529 H -0.26400 0.55604 1.00074
 C530 C -0.27693 0.66266 1.07587
 C531 C -0.22702 0.65586 0.92311
 C532 C -0.32662 0.56521 0.98720
 C533 C -0.17749 0.56789 1.01571
 C534 C -0.22502 0.35062 0.53436
 H535 H -0.21531 0.34675 0.51497
 C536 C -0.21792 0.33870 0.55721
 H537 H -0.20214 0.32562 0.55577
 C538 C -0.25633 0.37496 0.55866
 H539 H -0.27061 0.38963 0.55938
 C540 C -0.24914 0.36244 0.58435
 H541 H -0.26010 0.36721 0.60268
 N542 N -0.24513 0.36898 0.53546
 C543 C -0.26506 0.37759 0.44903
 H544 H -0.26371 0.39789 0.44774
 C545 C -0.27137 0.36341 0.42575
 H546 H -0.27415 0.37298 0.40643
 C547 C -0.26235 0.34068 0.47588
 H548 H -0.25932 0.33200 0.49561
 C549 C -0.26889 0.32575 0.45315
 H550 H -0.27063 0.30558 0.45565
 Zn551 Zn -0.25255 0.38742 0.50344
 N552 N -0.26016 0.36607 0.47328
 C553 C -0.20910 0.40289 0.47286
 N554 N -0.22356 0.40705 0.49590
 C555 C -0.21603 0.42333 0.51602
 C556 C -0.19288 0.43589 0.51364
 C557 C -0.18580 0.41507 0.46964
 C558 C -0.30331 0.39454 0.51504
 C559 C -0.32646 0.40709 0.51789
 C560 C -0.30480 0.44629 0.50894
 C561 C -0.28196 0.43288 0.50644
 N562 N -0.28171 0.40747 0.50943
 H563 H -0.21506 0.38936 0.45746
 H564 H -0.22763 0.42581 0.53442
 H565 H -0.18679 0.44802 0.53039
 H566 H -0.17436 0.41126 0.45135
 H567 H -0.30256 0.37423 0.51671
 H568 H -0.34321 0.39570 0.52102
 H569 H -0.30410 0.46656 0.50700
 H570 H -0.26455 0.44274 0.50164
 C571 C -0.27321 0.33707 0.42752
 C572 C -0.23062 0.34470 0.58419
 C573 C -0.32779 0.43347 0.51454
 C574 C -0.17722 0.43147 0.49044
 C575 C 0.27779 -0.15109 0.03784
 H576 H 0.28671 -0.15608 0.01831
 C577 C 0.28463 -0.16290 0.06086
 H578 H 0.29943 -0.17706 0.05943
 C579 C 0.24891 -0.12404 0.06228
 H580 H 0.23562 -0.10849 0.06293
 C581 C 0.25594 -0.13631 0.08815
 H582 H 0.24579 -0.13034 0.10661
 N583 N 0.25890 -0.13148 0.03893
 C584 C 0.23699 -0.12366 -0.04696
 H585 H 0.23862 -0.10338 -0.04830
 C586 C 0.22975 -0.13769 -0.06998
 H587 H 0.22660 -0.12804 -0.08918
 C588 C 0.23981 -0.16061 -0.02018
 H589 H 0.24319 -0.16934 -0.00055
 C590 C 0.23234 -0.17541 -0.04268
 H591 H 0.23032 -0.19554 -0.04013
 Zn592 Zn 0.25089 -0.11365 0.00668
 N593 N 0.24239 -0.13527 -0.02290
 C594 C 0.29343 -0.09877 -0.02557
 N595 N 0.27953 -0.09406 -0.00225
 C596 C 0.28721 -0.07688 0.01687
 C597 C 0.30992 -0.06382 0.01309
 C598 C 0.31626 -0.08613 -0.03019
 C599 C 0.20066 -0.10664 0.01998
 C600 C 0.17730 -0.09447 0.02228
 C601 C 0.19795 -0.05543 0.01027
 C602 C 0.22105 -0.06846 0.00834
 N603 N 0.22185 -0.09364 0.01292
 H604 H 0.28737 -0.11299 -0.04015
 H605 H 0.27603 -0.07394 0.03550
 H606 H 0.31615 -0.05089 0.02903
 H607 H 0.32724 -0.09032 -0.04870
 H608 H 0.20194 -0.12671 0.02347
 H609 H 0.16118 -0.10557 0.02880
 H610 H 0.19795 -0.03570 0.00496
 H611 H 0.23810 -0.05865 0.00207
 C612 C 0.22747 -0.16398 -0.06812
 C613 C 0.27302 -0.15541 0.08799
 C614 C 0.17527 -0.06848 0.01669
 C615 C 0.32496 -0.06869 -0.01050
 C616 C 0.27732 1.14836 0.46542
 H617 H 0.28723 1.15062 0.48470
 C618 C 0.28541 1.16156 0.44219
 H619 H 0.30152 1.17412 0.44368
 C620 C 0.24472 1.12855 0.43985
 H621 H 0.22921 1.11530 0.43889
 C622 C 0.25225 1.14122 0.41613
 H623 H 0.24189 1.13814 0.39724
 N624 N 0.25717 1.13243 0.46389
 C625 C 0.23510 1.12326 0.54980
 H626 H 0.23650 1.10296 0.55111
 C627 C 0.22806 1.13748 0.57299
 H628 H 0.22482 1.12795 0.59232
 C629 C 0.23833 1.16015 0.52289
 H630 H 0.24186 1.16879 0.50316
 C631 C 0.23106 1.17511 0.54552
 H632 H 0.22927 1.19527 0.54297
 Zn633 Zn 0.24883 1.11357 0.49537
 N634 N 0.24058 1.13477 0.52557
 C635 C 0.29183 1.09825 0.52556
 N636 N 0.27766 1.09380 0.50276
 C637 C 0.28573 1.07766 0.48252
 C638 C 0.30927 1.06570 0.48439
 C639 C 0.31551 1.08670 0.52825
 C640 C 0.19822 1.10728 0.48460
 C641 C 0.17486 1.09519 0.48326
 C642 C 0.19618 1.05554 0.49124
 C643 C 0.21928 1.06847 0.49239
 N644 N 0.21975 1.09391 0.48932
 H645 H 0.28543 1.11170 0.54102
 H646 H 0.27435 1.07502 0.46429
 H647 H 0.31585 1.05380 0.46747
 H648 H 0.32681 1.09087 0.54624
 H649 H 0.19919 1.12755 0.48263
 H650 H 0.15791 1.10625 0.47969
 H651 H 0.19589 1.03542 0.49469
 H652 H 0.23658 1.05833 0.49679
 C653 C 0.22611 1.16382 0.57112
 C654 C 0.27288 1.15792 0.41710
 C655 C 0.17355 1.06907 0.48719
 C656 C 0.32474 1.07064 0.50719
 C657 C 0.15165 0.45488 0.27518
 H658 H 0.13671 0.45931 0.28992
 C659 C 0.16486 0.43217 0.27721
 H660 H 0.16001 0.41938 0.29367
 C661 C 0.17452 0.46505 0.23441
 H662 H 0.17769 0.47777 0.21745
 C663 C 0.18819 0.44255 0.23565
 H664 H 0.20225 0.43824 0.21979
 N665 N 0.15657 0.47068 0.25391
 C666 C 0.14085 0.54954 0.24041
 H667 H 0.12056 0.54770 0.23779
 C668 C 0.15203 0.57319 0.23955
 H669 H 0.14025 0.58956 0.23588
 C670 C 0.18072 0.53018 0.24857
 H671 H 0.19161 0.51336 0.25269
 C672 C 0.19277 0.55363 0.24784
 H673 H 0.21301 0.55477 0.25137
 Zn674 Zn 0.13605 0.49914 0.24813
 N675 N 0.15518 0.52872 0.24497
 C676 C 0.12627 0.50895 0.30287
 N677 N 0.11420 0.50524 0.27856
 C678 C 0.08865 0.50843 0.27652
 C679 C 0.07414 0.51502 0.29987
 C680 C 0.11256 0.51534 0.32665
 C681 C 0.12857 0.50450 0.19200
 C682 C 0.11808 0.50002 0.16626
 C683 C 0.08760 0.47232 0.18762
 C684 C 0.09915 0.47705 0.21299
 N685 N 0.11875 0.49348 0.21480
 H686 H 0.14670 0.50692 0.30370
 H687 H 0.07957 0.50648 0.25676
 H688 H 0.05385 0.51770 0.29788
 H689 H 0.12259 0.51737 0.34590
 H690 H 0.14522 0.51627 0.19359
 H691 H 0.12798 0.50833 0.14904
 H692 H 0.07117 0.46024 0.18802
 H693 H 0.09228 0.46772 0.23133
 C694 C 0.17823 0.57550 0.24369
 C695 C 0.18310 0.42557 0.25700
 C696 C 0.09662 0.48414 0.16326
 C697 C 0.08611 0.51849 0.32542
 C698 C -0.15059 1.04187 0.27919
 H699 H -0.13715 1.03688 0.29490
 C700 C -0.16420 1.06444 0.28162
 H701 H -0.16119 1.07662 0.29934
 C702 C -0.16917 1.03329 0.23581
 H703 H -0.17046 1.02127 0.21772
 C704 C -0.18317 1.05557 0.23742
 H705 H -0.19562 1.06039 0.22066
 N706 N -0.15315 1.02699 0.25639
 C707 C -0.13769 0.94856 0.23709
 H708 H -0.11725 0.94962 0.23470
 C709 C -0.14986 0.92540 0.23488
 H710 H -0.13870 0.90865 0.23032
 C711 C -0.17691 0.96924 0.24655
 H712 H -0.18721 0.98627 0.25197
 C713 C -0.18990 0.94639 0.24455
 H714 H -0.21021 0.94604 0.24835
 Zn715 Zn -0.13204 0.99900 0.24931
 N716 N -0.15125 0.96981 0.24296
 C717 C -0.12394 0.98680 0.30376
 N718 N -0.11149 0.99172 0.27973
 C719 C -0.08585 0.98909 0.27738
 C720 C -0.07165 0.98173 0.30010
 C721 C -0.11051 0.97968 0.32701
 C722 C -0.11834 0.99598 0.19319
 C723 C -0.10675 1.00409 0.16891
 C724 C -0.08347 1.03492 0.19543
 C725 C -0.09589 1.02643 0.21917
 N726 N -0.11277 1.00717 0.21766
 H727 H -0.14443 0.98848 0.30482
 H728 H -0.07645 0.99216 0.25778
 H729 H -0.05129 0.97947 0.29776
 H730 H -0.12083 0.97669 0.34612
 H731 H -0.13234 0.98116 0.19232
 H732 H -0.11129 0.99412 0.15004
 H733 H -0.07073 1.05076 0.19742
 H734 H -0.09251 1.03561 0.23881
 C735 C -0.17624 0.92406 0.23910
 C736 C -0.18034 1.07175 0.26026
 C737 C -0.08900 1.02400 0.16952
 C738 C -0.08397 0.97704 0.32542
 C739 C 0.33773 0.53602 -0.21842
 H740 H 0.34686 0.52697 -0.20133
 C741 C 0.32353 0.55798 -0.21380
 H742 H 0.32190 0.56572 -0.19309
 C743 C 0.32869 0.53708 -0.26615
 H744 H 0.33119 0.52903 -0.28658
 C745 C 0.31433 0.55898 -0.26247
 H746 H 0.30608 0.56780 -0.28030
 N747 N 0.34063 0.52652 -0.24443
 C748 C 0.35816 0.44982 -0.27445
 H749 H 0.37784 0.45205 -0.28065
 C750 C 0.34661 0.42771 -0.27814
 H751 H 0.35715 0.41271 -0.28837
 C752 C 0.32066 0.46914 -0.25585
 H753 H 0.31098 0.48499 -0.24619
 C754 C 0.30708 0.44508 -0.25946
 H755 H 0.28782 0.44432 -0.25157
 Zn756 Zn 0.36323 0.49983 -0.25287
 N757 N 0.34466 0.47072 -0.26218
 C758 C 0.38421 0.46855 -0.21199
 N759 N 0.38370 0.49249 -0.22186
 C760 C 0.39596 0.51153 -0.20860
 C761 C 0.40872 0.50699 -0.18410
 C762 C 0.39701 0.46312 -0.18772
 C763 C 0.37488 0.50243 -0.30913
 C764 C 0.38713 0.51083 -0.33290
 C765 C 0.41571 0.53490 -0.30439
 C766 C 0.40285 0.52603 -0.28107
 N767 N 0.38295 0.50991 -0.28380
 H768 H 0.37408 0.45366 -0.22237
 H769 H 0.39478 0.53054 -0.21624
 H770 H 0.41788 0.52248 -0.17348
 H771 H 0.39661 0.44413 -0.17977
 H772 H 0.35853 0.49029 -0.31098
 H773 H 0.38061 0.50422 -0.35279
 H774 H 0.43144 0.54778 -0.30184
 H775 H 0.40866 0.53229 -0.26090
 C776 C 0.31960 0.42442 -0.26916
 C777 C 0.31215 0.57007 -0.23613
 C778 C 0.40780 0.52734 -0.33074
 C779 C 0.40901 0.48259 -0.17320
 C780 C 0.67516 -0.03264 -0.22861
 H781 H 0.68059 -0.01595 -0.21713
 C782 C 0.68619 -0.05487 -0.22329
 H783 H 0.70031 -0.05564 -0.20729
 C784 C 0.64750 -0.05113 -0.26157
 H785 H 0.63189 -0.05008 -0.27569
 C786 C 0.65883 -0.07585 -0.25633
 H787 H 0.65222 -0.09146 -0.26881
 N788 N 0.65567 -0.03099 -0.24904
 C789 C 0.64728 0.04738 -0.27362
 H790 H 0.62704 0.04641 -0.27707
 C791 C 0.65999 0.07001 -0.27748
 H792 H 0.64871 0.08613 -0.28326
 C793 C 0.68514 0.02737 -0.25960
 H794 H 0.69488 0.01062 -0.25292
 C795 C 0.69868 0.04980 -0.26289
 H796 H 0.71889 0.04950 -0.25912
 Zn797 Zn 0.63819 -0.00059 -0.25666
 N798 N 0.65973 0.02687 -0.26411
 C799 C 0.62056 0.02978 -0.21199
 N800 N 0.61751 0.00750 -0.22575
 C801 C 0.60128 -0.01038 -0.21632
 C802 C 0.58775 -0.00643 -0.19174
 C803 C 0.60723 0.03459 -0.18744
 C804 C 0.63278 -0.01149 -0.31171
 C805 C 0.62076 -0.01679 -0.33646
 C806 C 0.58028 -0.00930 -0.31368
 C807 C 0.59313 -0.00446 -0.28913
 N808 N 0.61891 -0.00579 -0.28866
 H809 H 0.63398 0.04353 -0.21942
 H810 H 0.59945 -0.02802 -0.22751
 H811 H 0.57522 -0.02104 -0.18421
 H812 H 0.61047 0.05205 -0.17627
 H813 H 0.65328 -0.01241 -0.31061
 H814 H 0.63223 -0.02193 -0.35434
 H815 H 0.55978 -0.00765 -0.31389
 H816 H 0.58256 0.00041 -0.27057
 C817 C 0.68607 0.07193 -0.27136
 C818 C 0.67771 -0.07823 -0.23797
 C819 C 0.59416 -0.01560 -0.33778
 C820 C 0.59100 0.01613 -0.17678
 C821 C 0.02728 0.25724 0.82339
 H822 H 0.00969 0.26272 0.81393
 C823 C 0.04920 0.25449 0.80695
 H824 H 0.04815 0.25797 0.78504
 C825 C 0.04997 0.24519 0.86297
 H826 H 0.05008 0.24105 0.88474
 C827 C 0.07223 0.24208 0.84732
 H828 H 0.08947 0.23630 0.85749
 N829 N 0.02807 0.25291 0.85099
 C830 C -0.04886 0.23817 0.85408
 H831 H -0.04563 0.22257 0.86771
 C832 C -0.07100 0.23874 0.83851
 H833 H -0.08457 0.22356 0.84054
 C834 C -0.03570 0.27721 0.83566
 H835 H -0.02190 0.29226 0.83479
 C836 C -0.05774 0.27861 0.81983
 H837 H -0.06057 0.29465 0.80659
 Zn838 Zn -0.00150 0.25560 0.87417
 N839 N -0.03158 0.25713 0.85232
 C840 C -0.01953 0.30116 0.89916
 N841 N 0.00068 0.28513 0.89716
 C842 C 0.02254 0.29014 0.91091
 C843 C 0.02496 0.31231 0.92660
 C844 C -0.01796 0.32347 0.91469
 C845 C 0.00129 0.20369 0.88307
 C846 C 0.00123 0.18126 0.89782
 C847 C -0.00700 0.20529 0.93958
 C848 C -0.00661 0.22738 0.92399
 N849 N -0.00254 0.22617 0.89624
 H850 H -0.03693 0.29678 0.88859
 H851 H 0.03829 0.27711 0.90953
 H852 H 0.04257 0.31594 0.93721
 H853 H -0.03409 0.33619 0.91531
 H854 H 0.00444 0.20324 0.86099
 H855 H 0.00412 0.16359 0.88682
 H856 H -0.01004 0.20657 0.96167
 H857 H -0.00958 0.24547 0.93404
 C858 C -0.07571 0.25912 0.82103
 C859 C 0.07211 0.24680 0.81889
 C860 C -0.00286 0.18182 0.92650
 C861 C 0.00461 0.32948 0.92846
 C862 C 0.46752 0.26639 0.16195
 H863 H 0.47965 0.28280 0.16261
 C864 C 0.44530 0.26578 0.17808
 H865 H 0.44075 0.28173 0.19137
 C866 C 0.45882 0.22580 0.14370
 H867 H 0.46381 0.21042 0.12989
 C868 C 0.43641 0.22444 0.15940
 H869 H 0.42444 0.20801 0.15725
 N870 N 0.47395 0.24652 0.14528
 C871 C 0.55639 0.25010 0.13158
 H872 H 0.55702 0.24827 0.10935
 C873 C 0.57901 0.25135 0.14632
 H874 H 0.59693 0.25075 0.13515
 C875 C 0.53218 0.25322 0.17293
 H876 H 0.51392 0.25354 0.18332
 C877 C 0.55440 0.25464 0.18851
 H878 H 0.55291 0.25596 0.21076
 Zn879 Zn 0.50383 0.24881 0.12273
 N880 N 0.53353 0.25120 0.14493
 C881 C 0.51896 0.29619 0.10102
 N882 N 0.50070 0.27811 0.10038
 C883 C 0.47959 0.28101 0.08474
 C884 C 0.47644 0.30257 0.06868
 C885 C 0.51666 0.31790 0.08518
 C886 C 0.51246 0.19720 0.11346
 C887 C 0.51497 0.17459 0.09859
 C888 C 0.50725 0.19739 0.05672
 C889 C 0.50500 0.21964 0.07242
 N890 N 0.50728 0.21911 0.10034
 H891 H 0.53530 0.29401 0.11403
 H892 H 0.46514 0.26656 0.08482
 H893 H 0.45961 0.30442 0.05624
 H894 H 0.53131 0.33214 0.08634
 H895 H 0.51436 0.19728 0.13565
 H896 H 0.51848 0.15733 0.10962
 H897 H 0.50533 0.19819 0.03455
 H898 H 0.50134 0.23726 0.06224
 C899 C 0.57826 0.25361 0.17523
 C900 C 0.42928 0.24464 0.17687
 C901 C 0.51222 0.17440 0.06980
 C902 C 0.49520 0.32136 0.06866
 C903 C -0.03263 0.76684 0.66476
 H904 H -0.02034 0.78315 0.66506
 C905 C -0.05348 0.76638 0.68088
 H906 H -0.05694 0.78234 0.69446
 C907 C -0.04034 0.72566 0.64688
 H908 H -0.03551 0.70999 0.63342
 C909 C -0.06358 0.72429 0.66423
 H910 H -0.07517 0.70768 0.66178
 N911 N -0.02602 0.74560 0.64747
 C912 C 0.05649 0.75021 0.63498
 H913 H 0.05773 0.74868 0.61275
 C914 C 0.07864 0.75270 0.65039
 H915 H 0.09686 0.75279 0.63979
 C916 C 0.03122 0.75135 0.67569
 H917 H 0.01275 0.75064 0.68556
 C918 C 0.05293 0.75370 0.69192
 H919 H 0.05081 0.75515 0.71411
 Zn920 Zn 0.00395 0.74755 0.62499
 N921 N 0.03331 0.75006 0.64769
 C922 C 0.01923 0.79516 0.60401
 N923 N 0.00120 0.77688 0.60249
 C924 C -0.01933 0.77967 0.58595
 C925 C -0.02202 0.80125 0.56978
 C926 C 0.01738 0.81687 0.58812
 C927 C 0.01251 0.69582 0.61630
 C928 C 0.01487 0.67303 0.60172
 C929 C 0.00746 0.69543 0.55954
 C930 C 0.00535 0.71787 0.57495
 N931 N 0.00751 0.71763 0.60289
 H932 H 0.03501 0.79318 0.61782
 H933 H -0.03368 0.76513 0.58537
 H934 H -0.03837 0.80300 0.55659
 H935 H 0.03186 0.83122 0.58999
 H936 H 0.01432 0.69610 0.63849
 H937 H 0.01819 0.65586 0.61299
 H938 H 0.00559 0.69602 0.53735
 H939 H 0.00184 0.73540 0.56452
 C940 C 0.07706 0.75467 0.67928
 C941 C -0.07053 0.74386 0.68087
 C942 C 0.01216 0.67254 0.57292
 C943 C -0.00340 0.82017 0.57061
 C944 C 0.53187 0.77245 0.33548
 H945 H 0.51948 0.78874 0.33500
 C946 C 0.55358 0.77143 0.31856
 H947 H 0.55752 0.78693 0.30486
 C948 C 0.54174 0.73256 0.35404
 H949 H 0.53745 0.71764 0.36829
 C950 C 0.56365 0.73081 0.33758
 H951 H 0.57594 0.71454 0.33958
 N952 N 0.52623 0.75308 0.35262
 C953 C 0.44441 0.75554 0.36886
 H954 H 0.44458 0.75386 0.39106
 C955 C 0.42132 0.75613 0.35505
 H956 H 0.40377 0.75514 0.36687
 C957 C 0.46718 0.75894 0.32665
 H958 H 0.48508 0.75962 0.31559
 C959 C 0.44444 0.75974 0.31199
 H960 H 0.44511 0.76098 0.28973
 Zn961 Zn 0.49687 0.75546 0.37588
 N962 N 0.46675 0.75709 0.35463
 C963 C 0.48126 0.80312 0.39708
 N964 N 0.49970 0.78514 0.39821
 C965 C 0.52074 0.78871 0.41382
 C966 C 0.52373 0.81102 0.42918
 C967 C 0.48338 0.82552 0.41222
 C968 C 0.48930 0.70425 0.38365
 C969 C 0.48776 0.68137 0.39742
 C970 C 0.49554 0.70351 0.44025
 C971 C 0.49698 0.72609 0.42556
 N972 N 0.49430 0.72596 0.39768
 H973 H 0.46500 0.80040 0.38405
 H974 H 0.53535 0.77432 0.41408
 H975 H 0.54058 0.81354 0.44149
 H976 H 0.46865 0.83970 0.41057
 H977 H 0.48685 0.70472 0.36155
 H978 H 0.48387 0.66434 0.38572
 H979 H 0.49840 0.70383 0.46231
 H980 H 0.50056 0.74360 0.43642
 C981 C 0.42110 0.75820 0.32621
 C982 C 0.56989 0.75040 0.31950
 C983 C 0.49125 0.68068 0.42607
 C984 C 0.50485 0.82979 0.42853
 B985 B -0.00990 0.02280 1.02538
 B986 B -0.02485 0.01701 0.99593
 B987 B -0.00043 0.03694 0.99655
 B988 B 0.02139 0.02627 1.01887
 B989 B 0.00970 -0.00128 1.03194
 B990 B -0.01935 -0.00674 1.01771
 B991 B 0.01595 -0.00744 0.97641
 B992 B 0.03096 -0.00167 1.00583
 B993 B 0.00649 -0.02157 1.00523
 B994 B -0.01529 -0.01089 0.98295
 B995 B -0.00362 0.01664 0.96987
 B996 B 0.02545 0.02211 0.98406
 B997 B 0.48495 0.52057 0.52250
 B998 B 0.47040 0.51434 0.49289
 B999 B 0.49451 0.53466 0.49371
 B1000 B 0.51624 0.52452 0.51636
 B1001 B 0.50489 0.49688 0.52950
 B1002 B 0.47606 0.49081 0.51497
 B1003 B 0.51187 0.49048 0.47410
 B1004 B 0.52645 0.49670 0.50366
 B1005 B 0.50234 0.47637 0.50292
 B1006 B 0.48061 0.48651 0.48025
 B1007 B 0.49196 0.51416 0.46713
 B1008 B 0.52076 0.52023 0.48165
 B1009 B 0.51683 0.99507 0.51535
 B1010 B 0.53241 0.99942 0.48571
 B1011 B 0.50792 0.97961 0.48707
 B1012 B 0.48571 0.99132 0.50907
 B1013 B 0.49715 1.01943 0.52124
 B1014 B 0.52652 1.02420 0.50677
 B1015 B 0.49198 1.02299 0.46557
 B1016 B 0.47638 1.01859 0.49521
 B1017 B 0.50088 1.03845 0.49393
 B1018 B 0.52314 1.02672 0.47188
 B1019 B 0.51167 0.99857 0.45973
 B1020 B 0.48233 0.99381 0.47418
 B1021 B 0.01637 0.49366 1.01947
 B1022 B 0.02964 0.49867 0.98866
 B1023 B 0.00597 0.47804 0.99190
 B1024 B -0.01499 0.48894 1.01579
 B1025 B -0.00366 0.51738 1.02717
 B1026 B 0.02443 0.52317 1.01033
 B1027 B -0.01293 0.52098 0.97219
 B1028 B -0.02619 0.51596 1.00300
 B1029 B -0.00254 0.53664 0.99979
 B1030 B 0.01847 0.52573 0.97586
 B1031 B 0.00712 0.49726 0.96452
 B1032 B -0.02093 0.49148 0.98137
 B1033 B 0.01383 0.51003 0.47697
 B1034 B 0.02928 0.50432 0.50604
 B1035 B 0.00542 0.52512 0.50602
 B1036 B -0.01717 0.51476 0.48426
 B1037 B -0.00660 0.48653 0.47094
 B1038 B 0.02260 0.48032 0.48443
 B1039 B -0.01190 0.48177 0.52657
 B1040 B -0.02731 0.48746 0.49750
 B1041 B -0.00343 0.46670 0.49755
 B1042 B 0.01911 0.47704 0.51933
 B1043 B 0.00854 0.50526 0.53265
 B1044 B -0.02064 0.51150 0.51912
 B1045 B 0.51562 0.01164 -0.02567
 B1046 B 0.52972 0.00642 0.00430
 B1047 B 0.50616 0.02742 0.00256
 B1048 B 0.48440 0.01684 -0.02006
 B1049 B 0.49521 -0.01177 -0.03214
 B1050 B 0.52370 -0.01795 -0.01703
 B1051 B 0.48755 -0.01530 0.02330
 B1052 B 0.47344 -0.01008 -0.00663
 B1053 B 0.49704 -0.03103 -0.00489
 B1054 B 0.51875 -0.02046 0.01773
 B1055 B 0.50794 0.00811 0.02985
 B1056 B 0.47944 0.01432 0.01472
 B1057 B 0.48361 0.48355 -0.02377
 B1058 B 0.46914 0.48843 0.00658
 B1059 B 0.49260 0.46730 0.00369
 B1060 B 0.51472 0.47805 -0.01871
 B1061 B 0.50430 0.50689 -0.02944
 B1062 B 0.47564 0.51309 -0.01377
 B1063 B 0.51125 0.50955 0.02608
 B1064 B 0.52574 0.50465 -0.00423
 B1065 B 0.50228 0.52578 -0.00134
 B1066 B 0.48014 0.51505 0.02105
 B1067 B 0.49058 0.48620 0.03177
 B1068 B 0.51923 0.48001 0.01610
 B1069 B -0.01279 0.98118 0.47581
 B1070 B -0.02907 0.98637 0.50501
 B1071 B -0.00482 0.96602 0.50436
 B1072 B 0.01812 0.97695 0.48307
 B1073 B 0.00736 1.00508 0.47071
 B1074 B -0.02229 1.01067 0.48427
 B1075 B 0.01114 1.00950 0.52651
 B1076 B 0.02740 1.00429 0.49732
 B1077 B 0.00315 1.02465 0.49797
 B1078 B -0.01977 1.01374 0.51928
 B1079 B -0.00901 0.98559 0.53164
 B1080 B 0.02062 0.98000 0.51805
 B1081 B 0.76640 0.23472 0.22825
 B1082 B 0.75995 0.21936 0.25725
 B1083 B 0.78117 0.24261 0.25726
 B1084 B 0.77144 0.26533 0.23572
 B1085 B 0.74311 0.25547 0.22247
 B1086 B 0.73625 0.22656 0.23581
 B1087 B 0.73732 0.26046 0.27820
 B1088 B 0.74382 0.27583 0.24920
 B1089 B 0.72256 0.25255 0.24913
 B1090 B 0.73233 0.22982 0.27070
 B1091 B 0.76067 0.23970 0.28397
 B1092 B 0.76754 0.26861 0.27065
 B1093 B 0.73984 0.76382 0.73315
 B1094 B 0.74508 0.77899 0.76280
 B1095 B 0.72486 0.75486 0.76182
 B1096 B 0.73598 0.73292 0.73928
 B1097 B 0.76410 0.74415 0.72638
 B1098 B 0.76950 0.77312 0.74096
 B1099 B 0.76899 0.73846 0.78182
 B1100 B 0.76372 0.72336 0.75216
 B1101 B 0.78396 0.74746 0.75311
 B1102 B 0.77288 0.76941 0.77573
 B1103 B 0.74471 0.75816 0.78863
 B1104 B 0.73931 0.72923 0.77400
 B1105 B 0.26249 0.26373 0.77095
 B1106 B 0.25728 0.27937 0.74199
 B1107 B 0.27802 0.25554 0.74206
 B1108 B 0.26713 0.23300 0.76336
 B1109 B 0.23858 0.24357 0.77636
 B1110 B 0.23273 0.27274 0.76314
 B1111 B 0.23451 0.23899 0.72059
 B1112 B 0.23973 0.22330 0.74952
 B1113 B 0.21900 0.24716 0.74948
 B1114 B 0.22990 0.26971 0.72818
 B1115 B 0.25843 0.25911 0.71517
 B1116 B 0.26429 0.22996 0.72838
 B1117 B 0.23018 0.73883 0.27893
 B1118 B 0.23650 0.72319 0.24966
 B1119 B 0.21569 0.74698 0.24997
 B1120 B 0.22575 0.76954 0.27205
 B1121 B 0.25382 0.75899 0.28526
 B1122 B 0.26022 0.72988 0.27138
 B1123 B 0.25995 0.76364 0.22969
 B1124 B 0.25362 0.77925 0.25898
 B1125 B 0.27436 0.75545 0.25861
 B1126 B 0.26435 0.73292 0.23654
 B1127 B 0.23628 0.74346 0.22328
 B1128 B 0.22989 0.77261 0.23721
 B1129 B 0.26433 0.73425 0.73272
 B1130 B 0.25751 0.71923 0.76184
 B1131 B 0.27907 0.74220 0.76174
 B1132 B 0.26974 0.76487 0.73990
 B1133 B 0.24135 0.75527 0.72659
 B1134 B 0.23401 0.72658 0.74018
 B1135 B 0.23535 0.76080 0.78222
 B1136 B 0.24220 0.77585 0.75311
 B1137 B 0.22065 0.75285 0.75316
 B1138 B 0.22997 0.73019 0.77501
 B1139 B 0.25837 0.73979 0.78834
 B1140 B 0.26570 0.76850 0.77478
 B1141 B 0.23641 0.26100 0.22492
 B1142 B 0.24217 0.27748 0.25358
 B1143 B 0.22186 0.25344 0.25436
 B1144 B 0.23255 0.23046 0.23282
 B1145 B 0.26053 0.24098 0.21877
 B1146 B 0.26622 0.27052 0.23166
 B1147 B 0.26628 0.23787 0.27439
 B1148 B 0.26051 0.22143 0.24570
 B1149 B 0.28082 0.24547 0.24495
 B1150 B 0.27014 0.26844 0.26652
 B1151 B 0.24216 0.25792 0.28057
 B1152 B 0.23646 0.22838 0.26766
 B1153 B 0.76136 0.76387 0.27285
 B1154 B 0.75621 0.78024 0.24435
 B1155 B 0.77658 0.75611 0.24363
 B1156 B 0.76549 0.73326 0.26441
 B1157 B 0.73717 0.74397 0.27790
 B1158 B 0.73171 0.77351 0.26548
 B1159 B 0.73270 0.74068 0.22206
 B1160 B 0.73786 0.72430 0.25055
 B1161 B 0.71750 0.74847 0.25125
 B1162 B 0.72861 0.77132 0.23048
 B1163 B 0.75689 0.76058 0.21699
 B1164 B 0.76238 0.73106 0.22940
 B1165 B 0.73453 0.23379 0.77315
 B1166 B 0.74148 0.21912 0.74342
 B1167 B 0.71963 0.24200 0.74444
 B1168 B 0.72873 0.26444 0.76714
 B1169 B 0.75727 0.25486 0.78004
 B1170 B 0.76495 0.22636 0.76532
 B1171 B 0.76303 0.26110 0.72463
 B1172 B 0.75605 0.27571 0.75434
 B1173 B 0.77791 0.25289 0.75331
 B1174 B 0.76886 0.23044 0.73058
 B1175 B 0.74030 0.24003 0.71768
 B1176 B 0.73263 0.26850 0.73244
 C1177 C 0.45886 1.03831 0.39149
 C1178 C 0.46655 1.01931 0.37292
 C1179 C 0.45287 1.01487 0.34898
 C1180 C 0.43147 1.02957 0.34319
 C1181 C 0.42464 1.04964 0.36098
 C1182 C 0.43820 1.05385 0.38529
 C1183 C 0.46998 1.03842 0.41834
 C1184 C 0.47960 1.03443 0.44022
 H1185 H 0.48232 1.00698 0.37771
 H1186 H 0.45836 0.99932 0.33549
 H1187 H 0.40801 1.06101 0.35687
 H1188 H 0.43186 1.06833 0.39975
 C1189 C -0.05677 0.53189 0.90446
 C1190 C -0.05778 0.55024 0.88409
 C1191 C -0.07137 0.54559 0.85987
 C1192 C -0.08402 0.52231 0.85552
 C1193 C -0.08267 0.50424 0.87668
 C1194 C -0.06939 0.50908 0.90073
 C1195 C -0.04105 0.53432 0.92828
 C1196 C -0.02812 0.53170 0.94831
 H1197 H -0.04788 0.56795 0.88675
 H1198 H -0.07222 0.56060 0.84504
 H1199 H -0.09058 0.48558 0.87447
 H1200 H -0.06822 0.49449 0.91615
 C1201 C 0.04954 -0.02840 0.90262
 C1202 C 0.07198 -0.04211 0.89817
 C1203 C 0.08496 -0.04036 0.87290
 C1204 C 0.07580 -0.02455 0.85203
 C1205 C 0.05266 -0.01172 0.85645
 C1206 C 0.03966 -0.01370 0.88152
 C1207 C 0.03842 -0.02586 0.92964
 C1208 C 0.02869 -0.02021 0.95140
 H1209 H 0.07993 -0.05333 0.91449
 H1210 H 0.10248 -0.05084 0.87000
 H1211 H 0.04523 0.00093 0.84115
 H1212 H 0.02251 -0.00267 0.88495
 C1213 C 0.54750 0.47007 0.40124
 C1214 C 0.53743 0.48395 0.37959
 C1215 C 0.55104 0.48640 0.35495
 C1216 C 0.57499 0.47489 0.35153
 C1217 C 0.58441 0.45987 0.37295
 C1218 C 0.57081 0.45765 0.39777
 C1219 C 0.53559 0.47239 0.42790
 C1220 C 0.52524 0.47786 0.44938
 H1221 H 0.51960 0.49403 0.38228
 H1222 H 0.54336 0.49843 0.33920
 H1223 H 0.60257 0.45038 0.37081
 H1224 H 0.57891 0.44711 0.41455
 C1225 C 0.55026 0.52177 0.09765
 C1226 C 0.55332 0.49805 0.10944
 C1227 C 0.56723 0.49541 0.13342
 C1228 C 0.57835 0.51651 0.14606
 C1229 C 0.57478 0.54049 0.13451
 C1230 C 0.56084 0.54309 0.11024
 C1231 C 0.53672 0.52300 0.07223
 C1232 C 0.52529 0.51994 0.05116
 H1233 H 0.54513 0.48144 0.09987
 H1234 H 0.56932 0.47681 0.14211
 H1235 H 0.58328 0.55701 0.14386
 H1236 H 0.55859 0.56153 0.10121
 C1237 C 0.04621 1.02415 0.59993
 C1238 C 0.04597 1.00138 0.61417
 C1239 C 0.06006 0.99870 0.63804
 C1240 C 0.07456 1.01883 0.64813
 C1241 C 0.07403 1.04207 0.63442
 C1242 C 0.06002 1.04466 0.61018
 C1243 C 0.03381 1.02471 0.57377
 C1244 C 0.02351 1.02095 0.55213
 H1245 H 0.03542 0.98536 0.60634
 H1246 H 0.05996 0.98073 0.64842
 H1247 H 0.08519 1.05779 0.64185
 H1248 H 0.06048 1.06229 0.59916
 C1249 C -0.05345 0.46268 0.59571
 C1250 C -0.07798 0.47282 0.59528
 C1251 C -0.09179 0.47609 0.61976
 C1252 C -0.08131 0.46915 0.64514
 C1253 C -0.05705 0.45784 0.64522
 C1254 C -0.04313 0.45479 0.62063
 C1255 C -0.03781 0.46479 0.57144
 C1256 C -0.02556 0.46991 0.55120
 H1257 H -0.08592 0.47948 0.57617
 H1258 H -0.11016 0.48526 0.61888
 H1259 H -0.04859 0.45190 0.66432
 H1260 H -0.02398 0.44726 0.62122
 C1261 C 0.44522 -0.03501 0.09189
 C1262 C 0.42003 -0.02658 0.09168
 C1263 C 0.40643 -0.02369 0.11638
 C1264 C 0.41791 -0.02917 0.14167
 C1265 C 0.44282 -0.03895 0.14153
 C1266 C 0.45644 -0.04170 0.11676
 C1267 C 0.46057 -0.03221 0.06752
 C1268 C 0.47300 -0.02685 0.04751
 H1269 H 0.41135 -0.02089 0.07257
 H1270 H 0.38743 -0.01584 0.11576
 H1271 H 0.45202 -0.04375 0.16061
 H1272 H 0.47606 -0.04792 0.11715
 C1273 C 0.39566 0.46079 0.01604
 C1274 C 0.37485 0.47511 0.02545
 C1275 C 0.35062 0.46434 0.02649
 C1276 C 0.34705 0.43912 0.01813
 C1277 C 0.36819 0.42495 0.00885
 C1278 C 0.39229 0.43571 0.00787
 C1279 C 0.42051 0.47167 0.01386
 C1280 C 0.44172 0.47971 0.01118
 H1281 H 0.37732 0.49459 0.03178
 H1282 H 0.33474 0.47565 0.03388
 H1283 H 0.36603 0.40568 0.00169
 H1284 H 0.40827 0.42454 0.00038
 C1285 C -0.10247 0.95818 0.51337
 C1286 C -0.12303 0.97275 0.52297
 C1287 C -0.14726 0.96209 0.52489
 C1288 C -0.15108 0.93674 0.51728
 C1289 C -0.13021 0.92232 0.50770
 C1290 C -0.10609 0.93298 0.50582
 C1291 C -0.07757 0.96887 0.51090
 C1292 C -0.05639 0.97703 0.50846
 H1293 H -0.12035 0.99231 0.52888
 H1294 H -0.16295 0.97359 0.53247
 H1295 H -0.13260 0.90292 0.50112
 H1296 H -0.09029 0.92160 0.49825
 C1297 C -0.09926 0.04201 0.98659
 C1298 C -0.10644 0.05702 0.96455
 C1299 C -0.13125 0.06632 0.96318
 C1300 C -0.14943 0.06083 0.98398
 C1301 C -0.14180 0.04502 1.00572
 C1302 C -0.11699 0.03583 1.00698
 C1303 C -0.07353 0.03347 0.98891
 C1304 C -0.05203 0.02629 0.99158
 H1305 H -0.09281 0.06169 0.94850
 H1306 H -0.13607 0.07737 0.94538
 H1307 H -0.15431 0.04076 1.02286
 H1308 H -0.11149 0.02435 1.02427
 C1309 C 0.39776 0.54281 0.47945
 C1310 C 0.39570 0.56879 0.47553
 C1311 C 0.37181 0.58015 0.47445
 C1312 C 0.34965 0.56563 0.47732
 C1313 C 0.35184 0.53935 0.47987
 C1314 C 0.37583 0.52800 0.48105
 C1315 C 0.42237 0.53188 0.48361
 C1316 C 0.44331 0.52363 0.48762
 H1317 H 0.41258 0.58040 0.47421
 H1318 H 0.37062 0.60041 0.47221
 H1319 H 0.33506 0.52780 0.48240
 H1320 H 0.37727 0.50785 0.48413
 C1321 C 0.10380 0.52906 0.51557
 C1322 C 0.10975 0.54511 0.53761
 C1323 C 0.13387 0.55588 0.53915
 C1324 C 0.15231 0.55078 0.51856
 C1325 C 0.14645 0.53385 0.49706
 C1326 C 0.12229 0.52310 0.49555
 C1327 C 0.07832 0.51995 0.51262
 C1328 C 0.05681 0.51286 0.50986
 H1329 H 0.09555 0.54981 0.55321
 H1330 H 0.13794 0.56866 0.55608
 H1331 H 0.16011 0.52985 0.48071
 H1332 H 0.11780 0.51077 0.47834
 C1333 C 0.60434 0.03100 0.01141
 C1334 C 0.61611 0.03609 0.03657
 C1335 C 0.64061 0.04621 0.03690
 C1336 C 0.65352 0.05136 0.01203
 C1337 C 0.64160 0.04575 -0.01311
 C1338 C 0.61719 0.03564 -0.01338
 C1339 C 0.57872 0.02200 0.01063
 C1340 C 0.55715 0.01489 0.00868
 H1341 H 0.60624 0.03256 0.05587
 H1342 H 0.64938 0.05018 0.05655
 H1343 H 0.65078 0.04997 -0.03260
 H1344 H 0.60813 0.03191 -0.03295
 C1345 C 0.60394 0.96628 0.47827
 C1346 C 0.62684 0.97951 0.47616
 C1347 C 0.65001 0.96658 0.47775
 C1348 C 0.65034 0.94038 0.48175
 C1349 C 0.62723 0.92721 0.48281
 C1350 C 0.60419 0.94009 0.48109
 C1351 C 0.58003 0.97933 0.47953
 C1352 C 0.55941 0.98903 0.48166
 H1353 H 0.62679 0.99982 0.47408
 H1354 H 0.66757 0.97714 0.47706
 H1355 H 0.62699 0.90698 0.48555
 H1356 H 0.58655 0.92970 0.48274
 C1357 C 0.10158 0.46770 0.97603
 C1358 C 0.12420 0.48153 0.97537
 C1359 C 0.14763 0.46900 0.97628
 C1360 C 0.14850 0.44260 0.97818
 C1361 C 0.12570 0.42889 0.97760
 C1362 C 0.10241 0.44138 0.97655
 C1363 C 0.07741 0.48012 0.97879
 C1364 C 0.05665 0.48919 0.98240
 H1365 H 0.12370 0.50194 0.97515
 H1366 H 0.16495 0.47994 0.97689
 H1367 H 0.12591 0.40851 0.97876
 H1368 H 0.08500 0.43053 0.97714
 C1369 C -0.00712 0.39082 0.47399
 C1370 C -0.02948 0.37689 0.47093
 C1371 C -0.02874 0.35304 0.45815
 C1372 C -0.00562 0.34282 0.44807
 C1373 C 0.01678 0.35683 0.45176
 C1374 C 0.01600 0.38058 0.46459
 C1375 C -0.00777 0.41638 0.48461
 C1376 C -0.00694 0.43825 0.49179
 H1377 H -0.04753 0.38464 0.47794
 H1378 H -0.04631 0.34269 0.45599
 H1379 H 0.03484 0.34987 0.44389
 H1380 H 0.03341 0.39127 0.46651
 C1381 C 0.49349 -0.10719 -0.02708
 C1382 C 0.47123 -0.12136 -0.02962
 C1383 C 0.47207 -0.14537 -0.04202
 C1384 C 0.49520 -0.15550 -0.05222
 C1385 C 0.51750 -0.14125 -0.04901
 C1386 C 0.51662 -0.11734 -0.03657
 C1387 C 0.49270 -0.08150 -0.01692
 C1388 C 0.49347 -0.05954 -0.01014
 H1389 H 0.45317 -0.11368 -0.02253
 H1390 H 0.45459 -0.15592 -0.04380
 H1391 H 0.53554 -0.14815 -0.05699
 H1392 H 0.53394 -0.10646 -0.03504
 C1393 C 0.00792 -0.09627 1.03125
 C1394 C 0.02489 -0.11559 1.02357
 C1395 C 0.02373 -0.13903 1.03669
 C1396 C 0.00571 -0.14333 1.05784
 C1397 C -0.01145 -0.12389 1.06503
 C1398 C -0.01033 -0.10063 1.05186
 C1399 C 0.00936 -0.07150 1.01924
 C1400 C 0.00915 -0.04997 1.01133
 H1401 H 0.03920 -0.11243 1.00776
 H1402 H 0.03732 -0.15355 1.03083
 H1403 H -0.02581 -0.12668 1.08087
 H1404 H -0.02359 -0.08588 1.05802
 C1405 C 0.50946 0.40185 0.52878
 C1406 C 0.52428 0.39800 0.55215
 C1407 C 0.52367 0.37485 0.56567
 C1408 C 0.50820 0.35511 0.55605
 C1409 C 0.49390 0.35890 0.53208
 C1410 C 0.49445 0.38215 0.51863
 C1411 C 0.50793 0.42671 0.51707
 C1412 C 0.50599 0.44815 0.50920
 H1413 H 0.53586 0.41312 0.56032
 H1414 H 0.53519 0.37244 0.58381
 H1415 H 0.48161 0.34420 0.52429
 H1416 H 0.48265 0.38496 0.50077
 C1417 C 0.49744 1.11392 0.51863
 C1418 C 0.52013 1.12334 0.52936
 C1419 C 0.52037 1.14636 0.54368
 C1420 C 0.49787 1.16045 0.54756
 C1421 C 0.47522 1.15111 0.53610
 C1422 C 0.47501 1.12797 0.52183
 C1423 C 0.49708 1.08875 0.50700
 C1424 C 0.49790 1.06701 0.49938
 H1425 H 0.53755 1.11248 0.52741
 H1426 H 0.53805 1.15264 0.55258
 H1427 H 0.45761 1.16157 0.53836
 H1428 H 0.45727 1.12080 0.51386
 C1429 C -0.00945 0.61173 1.02564
 C1430 C 0.00394 0.63185 1.01400
 C1431 C 0.00455 0.65535 1.02756
 C1432 C -0.00812 0.65903 1.05307
 C1433 C -0.02178 0.63872 1.06432
 C1434 C -0.02244 0.61535 1.05072
 C1435 C -0.00807 0.58672 1.01358
 C1436 C -0.00628 0.56508 1.00569
 H1437 H 0.01428 0.62926 0.99473
 H1438 H 0.01500 0.67059 1.01812
 H1439 H -0.03135 0.64059 1.08411
 H1440 H -0.03255 0.59987 1.06018
 C1441 C 0.51093 0.60093 -0.02386
 C1442 C 0.49545 0.62051 -0.01361
 C1443 C 0.49483 0.64379 -0.02702
 C1444 C 0.50948 0.64766 -0.05107
 C1445 C 0.52557 0.62812 -0.06066
 C1446 C 0.52626 0.60497 -0.04717
 C1447 C 0.50903 0.57585 -0.01279
 C1448 C 0.50669 0.55418 -0.00584
 H1449 H 0.48324 0.61754 0.00419
 H1450 H 0.48211 0.65837 -0.01925
 H1451 H 0.53735 0.63062 -0.07887
 H1452 H 0.53818 0.58994 -0.05546
 C1453 C 0.01004 1.09918 0.47251
 C1454 C 0.00007 1.12055 0.48593
 C1455 C -0.00077 1.14377 0.47235
 C1456 C 0.00803 1.14605 0.44475
 C1457 C 0.01870 1.12427 0.43197
 C1458 C 0.01963 1.10126 0.44566
 C1459 C 0.00861 1.07454 0.48483
 C1460 C 0.00677 1.05307 0.49266
 H1461 H -0.00773 1.11915 0.50662
 H1462 H -0.00971 1.15940 0.48321
 H1463 H 0.02698 1.12481 0.41148
 H1464 H 0.02751 1.08489 0.43503
 C1465 C 0.78933 0.69824 0.85045
 C1466 C 0.78547 0.67221 0.84852
 C1467 C 0.78152 0.65814 0.87231
 C1468 C 0.78113 0.67000 0.89838
 C1469 C 0.78655 0.69591 0.90028
 C1470 C 0.79049 0.70997 0.87640
 C1471 C 0.78675 0.71317 0.82616
 C1472 C 0.78128 0.72502 0.80607
 H1473 H 0.78400 0.66301 0.82856
 H1474 H 0.77777 0.63816 0.87026
 H1475 H 0.78616 0.70557 0.92006
 H1476 H 0.79292 0.73020 0.87811
 C1477 C 0.28805 0.19955 0.34373
 C1478 C 0.28455 0.17346 0.34221
 C1479 C 0.28099 0.15965 0.36624
 C1480 C 0.28067 0.17184 0.39212
 C1481 C 0.28576 0.19783 0.39360
 C1482 C 0.28928 0.21164 0.36947
 C1483 C 0.28494 0.21410 0.31925
 C1484 C 0.27902 0.22542 0.29896
 H1485 H 0.28302 0.16399 0.32240
 H1486 H 0.27748 0.13959 0.36453
 H1487 H 0.28542 0.20773 0.41325
 H1488 H 0.29143 0.23192 0.37085
 C1489 C 0.71781 0.29475 0.35226
 C1490 C 0.73260 0.28518 0.37352
 C1491 C 0.73467 0.29843 0.39838
 C1492 C 0.72190 0.32153 0.40243
 C1493 C 0.70604 0.33041 0.38139
 C1494 C 0.70416 0.31717 0.35636
 C1495 C 0.72003 0.28323 0.32539
 C1496 C 0.72522 0.27329 0.30361
 H1497 H 0.74358 0.26804 0.37038
 H1498 H 0.74736 0.29120 0.41383
 H1499 H 0.69559 0.34790 0.38398
 H1500 H 0.69286 0.32488 0.33993
 C1501 C 0.21636 0.79457 0.85653
 C1502 C 0.23134 0.78452 0.87736
 C1503 C 0.23400 0.79743 0.90235
 C1504 C 0.22163 0.82066 0.90693
 C1505 C 0.20544 0.82994 0.88640
 C1506 C 0.20299 0.81706 0.86124
 C1507 C 0.21824 0.78351 0.82944
 C1508 C 0.22330 0.77378 0.80753
 H1509 H 0.24209 0.76731 0.87375
 H1510 H 0.24690 0.78988 0.91741
 H1511 H 0.19526 0.84754 0.88945
 H1512 H 0.19153 0.82512 0.84514
 C1513 C 0.28357 0.80349 0.16136
 C1514 C 0.27806 0.82921 0.16282
 C1515 C 0.27579 0.84312 0.13875
 C1516 C 0.27882 0.83149 0.11251
 C1517 C 0.28643 0.80590 0.11155
 C1518 C 0.28843 0.79198 0.13578
 C1519 C 0.27945 0.78849 0.18543
 C1520 C 0.27292 0.77678 0.20537
 H1521 H 0.27427 0.83832 0.18257
 H1522 H 0.27145 0.86299 0.14096
 H1523 H 0.28874 0.79580 0.09220
 H1524 H 0.29233 0.77194 0.13441
 C1525 C 0.78307 0.30354 0.65699
 C1526 C 0.78906 0.29288 0.63125
 C1527 C 0.78581 0.30687 0.60725
 C1528 C 0.77588 0.33167 0.60857
 C1529 C 0.77153 0.34257 0.63498
 C1530 C 0.77503 0.32861 0.65883
 C1531 C 0.78048 0.28792 0.68082
 C1532 C 0.77507 0.27545 0.70058
 H1533 H 0.79487 0.27331 0.62958
 H1534 H 0.78918 0.29729 0.58776
 H1535 H 0.76532 0.36192 0.63751
 H1536 H 0.77031 0.33705 0.67870
 C1537 C 0.21559 0.20600 0.64636
 C1538 C 0.20193 0.18375 0.64223
 C1539 C 0.20424 0.17060 0.61715
 C1540 C 0.22056 0.17941 0.59613
 C1541 C 0.23327 0.20240 0.60017
 C1542 C 0.23075 0.21557 0.62508
 C1543 C 0.21764 0.21717 0.67330
 C1544 C 0.22272 0.22672 0.69512
 H1545 H 0.19036 0.17605 0.65870
 H1546 H 0.19384 0.15319 0.61452
 H1547 H 0.24629 0.20956 0.58472
 H1548 H 0.24173 0.23258 0.62826
 C1549 C 0.71194 0.70636 0.14895
 C1550 C 0.72315 0.71712 0.12571
 C1551 C 0.72578 0.70320 0.10126
 C1552 C 0.71736 0.67792 0.09952
 C1553 C 0.70448 0.66802 0.12282
 C1554 C 0.70205 0.68203 0.14731
 C1555 C 0.71487 0.71866 0.17521
 C1556 C 0.72050 0.72870 0.19662
 H1557 H 0.73131 0.73582 0.12694
 H1558 H 0.73632 0.71195 0.08472
 H1559 H 0.69626 0.64939 0.12254
 H1560 H 0.69334 0.67349 0.16526
 C1561 C 0.21025 0.64955 0.24475
 C1562 C 0.22316 0.62993 0.23098
 C1563 C 0.21302 0.60559 0.23093
 C1564 C 0.18985 0.60081 0.24456
 C1565 C 0.17730 0.62061 0.25868
 C1566 C 0.18745 0.64481 0.25875
 C1567 C 0.22019 0.67462 0.24498
 C1568 C 0.22774 0.69593 0.24622
 H1569 H 0.24091 0.63348 0.22019
 H1570 H 0.22297 0.59067 0.21980
 H1571 H 0.15965 0.61735 0.26976
 H1572 H 0.17747 0.65987 0.26968
 C1573 C 0.71913 0.14463 0.73118
 C1574 C 0.69947 0.13953 0.71295
 C1575 C 0.68933 0.11533 0.71115
 C1576 C 0.69850 0.09563 0.72782
 C1577 C 0.71938 0.10092 0.74504
 C1578 C 0.72941 0.12524 0.74681
 C1579 C 0.72760 0.17008 0.73498
 C1580 C 0.73399 0.19160 0.73851
 H1581 H 0.69160 0.15440 0.70049
 H1582 H 0.67438 0.11224 0.69640
 H1583 H 0.72700 0.08694 0.75875
 H1584 H 0.74463 0.12909 0.76108
 C1585 C 0.78605 0.14546 0.26135
 C1586 C 0.79631 0.13541 0.23690
 C1587 C 0.80689 0.11129 0.23654
 C1588 C 0.80736 0.09689 0.26069
 C1589 C 0.79686 0.10709 0.28520
 C1590 C 0.78622 0.13130 0.28550
 C1591 C 0.77616 0.17066 0.26146
 C1592 C 0.76854 0.19199 0.26036
 H1593 H 0.79647 0.14636 0.21818
 H1594 H 0.81529 0.10418 0.21749
 H1595 H 0.79684 0.09635 0.30405
 H1596 H 0.77835 0.13901 0.30455
 C1597 C 0.28031 0.64438 0.76897
 C1598 C 0.26828 0.62575 0.75328
 C1599 C 0.27796 0.60121 0.75252
 C1600 C 0.29988 0.59509 0.76739
 C1601 C 0.31130 0.61377 0.78386
 C1602 C 0.30158 0.63829 0.78458
 C1603 C 0.27193 0.67006 0.76751
 C1604 C 0.26536 0.69168 0.76550
 H1605 H 0.25182 0.63034 0.74108
 H1606 H 0.26864 0.58715 0.73989
 H1607 H 0.32842 0.60974 0.79518
 H1608 H 0.31111 0.65267 0.79663
 C1609 C 0.28598 0.35185 0.73322
 C1610 C 0.27052 0.37320 0.73176
 C1611 C 0.28142 0.39714 0.73037
 C1612 C 0.30815 0.40020 0.73054
 C1613 C 0.32335 0.37817 0.73140
 C1614 C 0.31234 0.35434 0.73277
 C1615 C 0.27501 0.32731 0.73593
 C1616 C 0.26663 0.30642 0.73851
 H1617 H 0.25002 0.37137 0.73182
 H1618 H 0.26867 0.41303 0.72854
 H1619 H 0.34381 0.37901 0.73257
 H1620 H 0.32446 0.33784 0.73406
 C1621 C 0.78684 0.85223 0.24020
 C1622 C 0.81043 0.85532 0.25266
 C1623 C 0.82240 0.87870 0.25222
 C1624 C 0.81091 0.89931 0.23926
 C1625 C 0.78708 0.89608 0.22689
 C1626 C 0.77512 0.87259 0.22732
 C1627 C 0.77496 0.82799 0.24080
 C1628 C 0.76601 0.80723 0.24194
 H1629 H 0.81956 0.83965 0.26278
 H1630 H 0.84051 0.88074 0.26237
 H1631 H 0.77790 0.91161 0.21663
 H1632 H 0.75684 0.87030 0.21760
 C1633 C 0.71343 0.85064 0.77064
 C1634 C 0.72679 0.87266 0.77692
 C1635 C 0.71476 0.89617 0.77522
 C1636 C 0.68926 0.89800 0.76662
 C1637 C 0.67586 0.87532 0.76172
 C1638 C 0.68787 0.85201 0.76364
 C1639 C 0.72589 0.82657 0.76955
 C1640 C 0.73511 0.80588 0.76729
 H1641 H 0.74668 0.87172 0.78232
 H1642 H 0.72611 0.91279 0.77893
 H1643 H 0.65589 0.87530 0.75672
 H1644 H 0.67726 0.83500 0.75913
 C1645 C 0.21574 0.35145 0.25746
 C1646 C 0.21313 0.36511 0.28217
 C1647 C 0.20298 0.38949 0.28204
 C1648 C 0.19536 0.40041 0.25716
 C1649 C 0.19842 0.38660 0.23241
 C1650 C 0.20855 0.36227 0.23259
 C1651 C 0.22521 0.32609 0.25744
 C1652 C 0.23284 0.30473 0.25646
 H1653 H 0.21870 0.35685 0.30152
 H1654 H 0.20104 0.39977 0.30137
 H1655 H 0.19232 0.39431 0.21299
 H1656 H 0.21042 0.35176 0.21338
 C1657 C 0.14289 0.24128 0.77355
 C1658 C 0.13635 0.22290 0.79284
 C1659 C 0.11303 0.22425 0.80696
 C1660 C 0.09587 0.24408 0.80207
 C1661 C 0.10222 0.26196 0.78192
 C1662 C 0.12560 0.26062 0.76786
 C1663 C 0.16839 0.24201 0.76230
 C1664 C 0.19033 0.24352 0.75493
 H1665 H 0.14962 0.20796 0.79761
 H1666 H 0.10858 0.20997 0.82202
 H1667 H 0.08958 0.27759 0.77785
 H1668 H 0.13057 0.27517 0.75328
 C1669 C 0.64122 0.74681 0.27497
 C1670 C 0.63203 0.76987 0.28534
 C1671 C 0.60857 0.77116 0.29911
 C1672 C 0.59385 0.74933 0.30281
 C1673 C 0.60292 0.72632 0.29159
 C1674 C 0.62648 0.72507 0.27786
 C1675 C 0.66676 0.74542 0.26394
 C1676 C 0.68877 0.74563 0.25669
 H1677 H 0.64340 0.78678 0.28355
 H1678 H 0.60245 0.78909 0.30780
 H1679 H 0.59194 0.70921 0.29372
 H1680 H 0.63345 0.70707 0.27011
 C1681 C 0.64849 0.25610 0.22030
 C1682 C 0.62807 0.27157 0.22855
 C1683 C 0.60507 0.27062 0.21418
 C1684 C 0.60228 0.25431 0.19125
 C1685 C 0.62285 0.23871 0.18343
 C1686 C 0.64568 0.23962 0.19780
 C1687 C 0.67279 0.25715 0.23384
 C1688 C 0.69415 0.25640 0.24271
 H1689 H 0.63000 0.28449 0.24583
 H1690 H 0.58967 0.28301 0.22060
 H1691 H 0.62126 0.22564 0.16623
 H1692 H 0.66129 0.22753 0.19120
 C1693 C 0.14626 0.76051 0.72568
 C1694 C 0.14319 0.77440 0.70157
 C1695 C 0.12052 0.77293 0.68685
 C1696 C 0.10050 0.75748 0.69599
 C1697 C 0.10344 0.74418 0.72072
 C1698 C 0.12621 0.74559 0.73537
 C1699 C 0.17093 0.75938 0.73836
 C1700 C 0.19235 0.75740 0.74679
 H1701 H 0.15861 0.78584 0.69369
 H1702 H 0.11876 0.78370 0.66814
 H1703 H 0.08852 0.73194 0.72819
 H1704 H 0.12845 0.73445 0.75377
 C1705 C 0.85972 0.74303 0.72688
 C1706 C 0.87165 0.76582 0.72079
 C1707 C 0.89476 0.76608 0.70622
 C1708 C 0.90659 0.74342 0.69709
 C1709 C 0.89449 0.72049 0.70424
 C1710 C 0.87134 0.72038 0.71881
 C1711 C 0.83442 0.74321 0.73880
 C1712 C 0.81262 0.74430 0.74683
 H1713 H 0.86264 0.78355 0.72651
 H1714 H 0.90230 0.78432 0.70091
 H1715 H 0.90287 0.70238 0.69915
 H1716 H 0.86230 0.70256 0.72337
 C1717 C 0.35695 0.24258 0.21978
 C1718 C 0.37182 0.22071 0.21742
 C1719 C 0.39558 0.22144 0.20406
 C1720 C 0.40478 0.24405 0.19272
 C1721 C 0.38984 0.26600 0.19571
 C1722 C 0.36617 0.26523 0.20909
 C1723 C 0.33142 0.24176 0.23102
 C1724 C 0.30949 0.24235 0.23868
 H1725 H 0.36486 0.20302 0.22544
 H1726 H 0.40669 0.20426 0.20248
 H1727 H 0.39603 0.28363 0.18688
 H1728 H 0.35474 0.28224 0.21047
 C1729 C 0.34929 0.75904 0.28464
 C1730 C 0.36870 0.77532 0.27618
 C1731 C 0.39229 0.77485 0.28933
 C1732 C 0.39661 0.75822 0.31124
 C1733 C 0.37707 0.74175 0.31925
 C1734 C 0.35365 0.74218 0.30606
 C1735 C 0.32443 0.75975 0.27253
 C1736 C 0.30280 0.75891 0.26461
 H1737 H 0.36550 0.78855 0.25971
 H1738 H 0.40693 0.78787 0.28285
 H1739 H 0.37990 0.72846 0.33572
 H1740 H 0.33880 0.72947 0.31279
 C1741 C 0.85349 0.26055 0.77727
 C1742 C 0.86771 0.23826 0.77861
 C1743 C 0.89103 0.23799 0.79214
 C1744 C 0.90053 0.26003 0.80465
 C1745 C 0.88652 0.28258 0.80242
 C1746 C 0.86309 0.28278 0.78893
 C1747 C 0.82801 0.25971 0.76655
 C1748 C 0.80624 0.25767 0.75926
 H1749 H 0.86044 0.22088 0.76986
 H1750 H 0.90149 0.22042 0.79314
 H1751 H 0.89317 0.29980 0.81204
 H1752 H 0.85214 0.30009 0.78835
 C1753 C 0.55564 0.97553 0.58523
 C1754 C 0.54456 0.96613 0.60936
 C1755 C 0.55735 0.96828 0.63440
 C1756 C 0.58121 0.98017 0.63554
 C1757 C 0.59238 0.98890 0.61095
 C1758 C 0.57971 0.98652 0.58603
 C1759 C 0.54115 0.97797 0.56058
 C1760 C 0.52977 0.98324 0.54011
 H1761 H 0.52574 0.95794 0.60899
 H1762 H 0.54841 0.96105 0.65288
 H1763 H 0.61045 0.99859 0.61108
 H1764 H 0.58818 0.99436 0.56756
 C1765 C 0.05923 0.47647 1.08722
 C1766 C 0.05438 0.45928 1.10814
 C1767 C 0.06724 0.46124 1.13320
 C1768 C 0.08509 0.48084 1.13815
 C1769 C 0.08993 0.49753 1.11599
 C1770 C 0.07728 0.49524 1.09108
 C1771 C 0.04384 0.47762 1.06306
 C1772 C 0.03131 0.48222 1.04317
 H1773 H 0.04030 0.44465 1.10533
 H1774 H 0.06313 0.44685 1.14812
 H1775 H 0.10206 0.51378 1.11777
 H1776 H 0.08077 0.50903 1.07515
 C1777 C -0.05063 0.04259 1.09523
 C1778 C -0.03913 0.04751 1.12053
 C1779 C -0.05223 0.04274 1.14519
 C1780 C -0.07692 0.03227 1.14491
 C1781 C -0.08875 0.02910 1.11909
 C1782 C -0.07571 0.03418 1.09460
 C1783 C -0.03557 0.04073 1.07044
 C1784 C -0.02356 0.03543 1.04993
 H1785 H -0.01949 0.05354 1.12123
 H1786 H -0.04196 0.04527 1.16419
 H1787 H -0.10812 0.02255 1.11752
 H1788 H -0.08478 0.03020 1.07509
 C1789 C 0.44775 0.54298 0.59402
 C1790 C 0.42121 0.54437 0.59491
 C1791 C 0.40817 0.54082 0.61981
 C1792 C 0.42154 0.53557 0.64406
 C1793 C 0.44825 0.53590 0.64328
 C1794 C 0.46125 0.53950 0.61837
 C1795 C 0.46065 0.53960 0.56801
 C1796 C 0.47146 0.53348 0.54699
 H1797 H 0.41056 0.54668 0.57612
 H1798 H 0.38759 0.54112 0.61988
 H1799 H 0.45908 0.53170 0.66151
 H1800 H 0.48178 0.53789 0.61780
 C1801 C 0.44347 0.47072 -0.09475
 C1802 C 0.44825 0.45363 -0.11641
 C1803 C 0.43662 0.45708 -0.14194
 C1804 C 0.42049 0.47789 -0.14604
 C1805 C 0.41538 0.49452 -0.12394
 C1806 C 0.42676 0.49092 -0.09850
 C1807 C 0.45766 0.47006 -0.06968
 C1808 C 0.46942 0.47325 -0.04883
 H1809 H 0.46145 0.43815 -0.11383
 H1810 H 0.44085 0.44403 -0.15871
 H1811 H 0.40271 0.51044 -0.12642
 H1812 H 0.42313 0.50440 -0.08195
 C1813 C -0.04419 0.96385 0.40067
 C1814 C -0.06698 0.95123 0.39566
 C1815 C -0.07937 0.95447 0.37057
 C1816 C -0.06928 0.97069 0.35041
 C1817 C -0.04578 0.98235 0.35528
 C1818 C -0.03336 0.97891 0.38020
 C1819 C -0.03373 0.96503 0.42784
 C1820 C -0.02465 0.96957 0.44998
 H1821 H -0.07566 0.93975 0.41150
 H1822 H -0.09719 0.94483 0.36728
 H1823 H -0.03761 0.99524 0.34051
 H1824 H -0.01593 0.98912 0.38407
 C1825 C 0.04608 0.52898 0.40224
 C1826 C 0.06887 0.54177 0.39759
 C1827 C 0.08129 0.53952 0.37201
 C1828 C 0.07121 0.52410 0.35097
 C1829 C 0.04766 0.51235 0.35551
 C1830 C 0.03522 0.51480 0.38096
 C1831 C 0.03554 0.52688 0.42953
 C1832 C 0.02629 0.52183 0.45157
 H1833 H 0.07755 0.55261 0.41401
 H1834 H 0.09915 0.54921 0.36900
 H1835 H 0.03950 0.50010 0.33999
 H1836 H 0.01775 0.50451 0.38451
 C1837 C 0.55565 0.02497 -0.09716
 C1838 C 0.56804 0.00248 -0.10452
 C1839 C 0.57956 -0.00024 -0.13037
 C1840 C 0.57892 0.01956 -0.14929
 C1841 C 0.56700 0.04242 -0.14157
 C1842 C 0.55521 0.04505 -0.11562
 C1843 C 0.54170 0.02569 -0.07157
 C1844 C 0.52997 0.02236 -0.05050
 H1845 H 0.56834 -0.01322 -0.09042
 H1846 H 0.58901 -0.01786 -0.13557
 H1847 H 0.56626 0.05795 -0.15585
 H1848 H 0.54541 0.06243 -0.11021
 C1849 C 0.60028 0.52978 -0.01347
 C1850 C 0.60627 0.54802 -0.03307
 C1851 C 0.63040 0.55890 -0.03354
 C1852 C 0.64880 0.55172 -0.01431
 C1853 C 0.64283 0.53279 0.00476
 C1854 C 0.61867 0.52194 0.00519
 C1855 C 0.57480 0.52038 -0.01129
 C1856 C 0.55329 0.51310 -0.00871
 H1857 H 0.59212 0.55425 -0.04756
 H1858 H 0.63455 0.57323 -0.04865
 H1859 H 0.65646 0.52713 0.02005
 H1860 H 0.61412 0.50796 0.02058
 C1861 C 0.10058 1.03343 0.49116
 C1862 C 0.10434 1.05683 0.50392
 C1863 C 0.12811 1.06828 0.50268
 C1864 C 0.14849 1.05648 0.48858
 C1865 C 0.14465 1.03278 0.47603
 C1866 C 0.12075 1.02134 0.47727
 C1867 C 0.07586 1.02218 0.49244
 C1868 C 0.05474 1.01372 0.49416
 H1869 H 0.08886 1.06625 0.51484
 H1870 H 0.13061 1.08628 0.51302
 H1871 H 0.15998 1.02335 0.46492
 H1872 H 0.11797 1.00318 0.46732
 C1873 C 0.10321 -0.03233 1.01456
 C1874 C 0.12498 -0.01811 1.01959
 C1875 C 0.14875 -0.02992 1.02059
 C1876 C 0.15118 -0.05630 1.01656
 C1877 C 0.12873 -0.07022 1.01167
 C1878 C 0.10513 -0.05833 1.01071
 C1879 C 0.07882 -0.02047 1.01244
 C1880 C 0.05796 -0.01156 1.00998
 H1881 H 0.12361 0.00210 1.02272
 H1882 H 0.16495 -0.01825 1.02534
 H1883 H 0.12916 -0.09020 1.00714
 H1884 H 0.08835 -0.06945 1.00645
 C1885 C 0.59998 0.46932 0.51404
 C1886 C 0.62058 0.48027 0.50037
 C1887 C 0.64460 0.46900 0.50124
 C1888 C 0.64843 0.44627 0.51563
 C1889 C 0.62742 0.43609 0.53016
 C1890 C 0.60351 0.44746 0.52925
 C1891 C 0.57490 0.47959 0.51121
 C1892 C 0.55368 0.48751 0.50828
 H1893 H 0.61795 0.49715 0.48834
 H1894 H 0.65958 0.47749 0.48910
 H1895 H 0.62926 0.41952 0.54276
 H1896 H 0.58766 0.43896 0.54014
 C1897 C -0.10179 0.46200 0.48973
 C1898 C -0.12229 0.47697 0.49866
 C1899 C -0.14696 0.46731 0.49826
 C1900 C -0.15138 0.44251 0.48894
 C1901 C -0.13066 0.42780 0.47954
 C1902 C -0.10603 0.43749 0.47997
 C1903 C -0.07629 0.47131 0.49171
 C1904 C -0.05480 0.47869 0.49389
 H1905 H -0.11916 0.49597 0.50629
 H1906 H -0.16255 0.47916 0.50538
 H1907 H -0.13337 0.40851 0.47271
 H1908 H -0.09024 0.42570 0.47321
 C1909 C 0.39938 -0.03619 -0.01498
 C1910 C 0.37868 -0.02141 -0.00622
 C1911 C 0.35429 -0.03172 -0.00550
 C1912 C 0.35036 -0.05697 -0.01349
 C1913 C 0.37124 -0.07147 -0.02287
 C1914 C 0.39559 -0.06113 -0.02357
 C1915 C 0.42470 -0.02642 -0.01337
 C1916 C 0.44607 -0.01882 -0.01109
 H1917 H 0.38148 -0.00211 0.00059
 H1918 H 0.33855 -0.02005 0.00157
 H1919 H 0.36892 -0.09107 -0.02871
 H1920 H 0.41156 -0.07278 -0.03011
 C1921 C 0.40158 1.04345 0.50503
 C1922 C 0.39623 1.06780 0.51483
 C1923 C 0.37113 1.07639 0.51625
 C1924 C 0.35108 1.06071 0.50783
 C1925 C 0.35664 1.03609 0.49850
 C1926 C 0.38176 1.02752 0.49712
 C1927 C 0.42744 1.03508 0.50220
 C1928 C 0.44905 1.02799 0.49938
 H1929 H 0.41148 1.08029 0.52086
 H1930 H 0.36751 1.09559 0.52308
 H1931 H 0.34158 1.02354 0.49210
 H1932 H 0.38575 1.00862 0.48953
 C1933 C -0.10103 0.53967 1.01602
 C1934 C -0.10642 0.56379 1.02647
 C1935 C -0.13145 0.57265 1.02729
 C1936 C -0.15139 0.55748 1.01755
 C1937 C -0.14583 0.53298 1.00779
 C1938 C -0.12078 0.52416 1.00701
 C1939 C -0.07514 0.53142 1.01281
 C1940 C -0.05352 0.52462 1.00915
 H1941 H -0.09121 0.57600 1.03329
 H1942 H -0.13506 0.59173 1.03451
 H1943 H -0.16080 0.52080 1.00040
 H1944 H -0.11677 0.50546 0.99882
 C1945 C 0.01375 0.60056 0.53042
 C1946 C -0.00341 0.61931 0.52253
 C1947 C -0.00344 0.64297 0.53574
 C1948 C 0.01359 0.64818 0.55723
 C1949 C 0.03123 0.62943 0.56446
 C1950 C 0.03128 0.60585 0.55119
 C1951 C 0.01182 0.57522 0.51934
 C1952 C 0.00954 0.55351 0.51190
 H1953 H -0.01728 0.61541 0.50674
 H1954 H -0.01745 0.65683 0.52985
 H1955 H 0.04484 0.63290 0.58062
 H1956 H 0.04457 0.59150 0.55763
 C1957 C 0.51447 0.10288 0.02652
 C1958 C 0.53204 0.10819 0.04722
 C1959 C 0.53180 0.13165 0.06073
 C1960 C 0.51390 0.15025 0.05380
 C1961 C 0.49684 0.14505 0.03233
 C1962 C 0.49707 0.12151 0.01889
 C1963 C 0.51263 0.07756 0.01541
 C1964 C 0.51037 0.05583 0.00807
 H1965 H 0.54550 0.09391 0.05349
 H1966 H 0.54543 0.13514 0.07686
 H1967 H 0.48264 0.15880 0.02667
 H1968 H 0.48315 0.11757 0.00316
 C1969 C -0.00301 0.11144 0.97012
 C1970 C -0.02093 0.13013 0.97705
 C1971 C -0.02061 0.15332 0.96338
 C1972 C -0.00250 0.15797 0.94242
 C1973 C 0.01567 0.13921 0.93607
 C1974 C 0.01539 0.11621 0.94979
 C1975 C -0.00385 0.08675 0.98236
 C1976 C -0.00328 0.06529 0.99041
 H1977 H -0.03538 0.12663 0.99262
 H1978 H -0.03496 0.16730 0.96859
 H1979 H 0.03009 0.14231 0.92038
 H1980 H 0.02935 0.10192 0.94419
 C1981 C 0.49049 0.60889 0.46686
 C1982 C 0.47893 0.62987 0.47963
 C1983 C 0.47933 0.65338 0.46662
 C1984 C 0.49117 0.65610 0.44061
 C1985 C 0.50292 0.63491 0.42821
 C1986 C 0.50255 0.61157 0.44120
 C1987 C 0.49021 0.58432 0.47933
 C1988 C 0.49120 0.56291 0.48745
 H1989 H 0.46951 0.62803 0.49948
 H1990 H 0.46998 0.66930 0.47661
 H1991 H 0.51261 0.63640 0.40848
 H1992 H 0.51168 0.59553 0.43115
 C1993 C 0.51119 0.90265 0.46787
 C1994 C 0.48821 0.88948 0.46886
 C1995 C 0.48643 0.86542 0.45698
 C1996 C 0.50762 0.85412 0.44381
 C1997 C 0.53094 0.86707 0.44387
 C1998 C 0.53267 0.89123 0.45571
 C1999 C 0.51176 0.92873 0.47667
 C2000 C 0.51094 0.95092 0.48249
 H2001 H 0.47142 0.89813 0.47806
 H2002 H 0.46831 0.85583 0.45763
 H2003 H 0.54753 0.85900 0.43368
 H2004 H 0.55050 0.90132 0.45454
 C2005 C 0.01022 0.40174 0.96966
 C2006 C -0.01203 0.38748 0.97203
 C2007 C -0.01361 0.36372 0.95933
 C2008 C 0.00703 0.35381 0.94393
 C2009 C 0.02961 0.36797 0.94237
 C2010 C 0.03113 0.39178 0.95506
 C2011 C 0.01046 0.42750 0.97968
 C2012 C 0.00945 0.44948 0.98645
 H2013 H -0.02843 0.39501 0.98308
 H2014 H -0.03113 0.35321 0.96128
 H2015 H 0.04575 0.36108 0.93043
 H2016 H 0.04834 0.40273 0.95274
 C2017 C 0.48843 0.39140 0.02494
 C2018 C 0.51160 0.37835 0.02517
 C2019 C 0.51357 0.35524 0.03861
 C2020 C 0.49237 0.34474 0.05216
 C2021 C 0.46890 0.35750 0.05097
 C2022 C 0.46699 0.38073 0.03757
 C2023 C 0.48773 0.41689 0.01476
 C2024 C 0.48871 0.43878 0.00816
 H2025 H 0.52840 0.38645 0.01571
 H2026 H 0.53182 0.34576 0.03878
 H2027 H 0.45228 0.35008 0.06139
 H2028 H 0.44902 0.39076 0.03790
 C2029 C -0.00866 0.89022 0.52662
 C2030 C 0.01451 0.87729 0.52798
 C2031 C 0.01601 0.85417 0.54147
 C2032 C -0.00566 0.84355 0.55397
 C2033 C -0.02911 0.85620 0.55164
 C2034 C -0.03055 0.87943 0.53818
 C2035 C -0.00911 0.91566 0.51622
 C2036 C -0.00816 0.93749 0.50936
 H2037 H 0.03164 0.88546 0.51933
 H2038 H 0.03427 0.84478 0.54252
 H2039 H -0.04610 0.84867 0.56122
 H2040 H -0.04856 0.88936 0.53760
 C2041 C 0.21565 0.29320 0.15168
 C2042 C 0.22871 0.28219 0.12931
 C2043 C 0.23140 0.29519 0.10464
 C2044 C 0.22099 0.31947 0.10196
 C2045 C 0.20664 0.32982 0.12409
 C2046 C 0.20417 0.31682 0.14890
 C2047 C 0.21822 0.28206 0.17830
 C2048 C 0.22381 0.27269 0.19984
 H2049 H 0.23809 0.26411 0.13146
 H2050 H 0.24286 0.28679 0.08828
 H2051 H 0.19798 0.34827 0.12253
 H2052 H 0.19430 0.32565 0.16622
 C2053 C 0.71948 0.79591 0.65966
 C2054 C 0.73217 0.78409 0.63753
 C2055 C 0.73451 0.79621 0.61227
 C2056 C 0.72411 0.82038 0.60876
 C2057 C 0.71017 0.83156 0.63072
 C2058 C 0.70804 0.81945 0.65611
 C2059 C 0.72205 0.78542 0.68661
 C2060 C 0.72753 0.77617 0.70827
 H2061 H 0.74147 0.76604 0.64023
 H2062 H 0.74565 0.78719 0.59603
 H2063 H 0.70154 0.84996 0.62853
 H2064 H 0.69841 0.82888 0.67322
 C2065 C 0.28129 0.69472 0.66145
 C2066 C 0.28833 0.70626 0.63672
 C2067 C 0.28378 0.69409 0.61151
 C2068 C 0.27183 0.67038 0.61080
 C2069 C 0.26562 0.65868 0.63587
 C2070 C 0.27036 0.67075 0.66096
 C2071 C 0.28045 0.70895 0.68676
 C2072 C 0.27607 0.72054 0.70774
 H2073 H 0.29635 0.72504 0.63686
 H2074 H 0.28917 0.70344 0.59262
 H2075 H 0.25602 0.64067 0.63617
 H2076 H 0.26425 0.66193 0.67996
 C2077 C 0.78490 0.19586 0.15668
 C2078 C 0.77676 0.17080 0.15631
 C2079 C 0.77291 0.15827 0.13128
 C2080 C 0.77713 0.17065 0.10613
 C2081 C 0.78631 0.19555 0.10669
 C2082 C 0.79004 0.20811 0.13184
 C2083 C 0.78316 0.20996 0.18207
 C2084 C 0.77831 0.22134 0.20308
 H2085 H 0.77207 0.16135 0.17539
 H2086 H 0.76543 0.13930 0.13169
 H2087 H 0.79007 0.20549 0.08771
 H2088 H 0.79590 0.22767 0.13188
 C2089 C 0.71405 0.19941 0.84603
 C2090 C 0.71008 0.17345 0.84827
 C2091 C 0.71252 0.16179 0.87381
 C2092 C 0.71925 0.17594 0.89733
 C2093 C 0.72209 0.20216 0.89509
 C2094 C 0.71951 0.21380 0.86958
 C2095 C 0.71702 0.21063 0.81939
 C2096 C 0.72253 0.22051 0.79794
 H2097 H 0.70636 0.16207 0.83008
 H2098 H 0.71052 0.14151 0.87485
 H2099 H 0.72701 0.21354 0.91290
 H2100 H 0.72298 0.23385 0.86800
 C2101 C 0.20968 0.70420 0.35158
 C2102 C 0.21626 0.71761 0.37546
 C2103 C 0.21948 0.70499 0.40029
 C2104 C 0.21620 0.67875 0.40154
 C2105 C 0.20835 0.66560 0.37775
 C2106 C 0.20526 0.67825 0.35288
 C2107 C 0.21231 0.71619 0.32531
 C2108 C 0.21777 0.72627 0.30396
 H2109 H 0.22014 0.73763 0.37457
 H2110 H 0.22523 0.71562 0.41834
 H2111 H 0.20597 0.64534 0.37801
 H2112 H 0.20072 0.66760 0.33440
 C2113 C 0.77993 0.79614 0.34763
 C2114 C 0.76951 0.78330 0.37011
 C2115 C 0.76624 0.79559 0.39551
 C2116 C 0.77337 0.82093 0.39873
 C2117 C 0.78489 0.83339 0.37638
 C2118 C 0.78799 0.82109 0.35089
 C2119 C 0.77804 0.78503 0.32062
 C2120 C 0.77316 0.77563 0.29864
 H2121 H 0.76283 0.76411 0.36768
 H2122 H 0.75760 0.78549 0.41246
 H2123 H 0.79034 0.85299 0.37823
 H2124 H 0.79557 0.83136 0.33348
 C2125 C 0.28031 0.29795 0.84493
 C2126 C 0.26961 0.28558 0.86758
 C2127 C 0.26603 0.29840 0.89260
 C2128 C 0.27313 0.32380 0.89529
 C2129 C 0.28497 0.33578 0.87283
 C2130 C 0.28836 0.32295 0.84769
 C2131 C 0.27869 0.28625 0.81819
 C2132 C 0.27401 0.27627 0.79646
 H2133 H 0.26295 0.26635 0.86553
 H2134 H 0.25715 0.28866 0.90967
 H2135 H 0.29043 0.35541 0.87431
 H2136 H 0.29618 0.33285 0.83013
 C2137 C 0.77855 0.35033 0.76401
 C2138 C 0.76986 0.36845 0.74559
 C2139 C 0.78015 0.39269 0.74603
 C2140 C 0.79935 0.39891 0.76478
 C2141 C 0.80729 0.38081 0.78384
 C2142 C 0.79696 0.35663 0.78340
 C2143 C 0.77002 0.32480 0.76164
 C2144 C 0.76355 0.30323 0.75895
 H2145 H 0.75574 0.36362 0.73036
 H2146 H 0.77393 0.40617 0.73091
 H2147 H 0.82188 0.38521 0.79867
 H2148 H 0.80383 0.34266 0.79767
 C2149 C 0.28232 0.85178 0.26786
 C2150 C 0.30766 0.85399 0.27539
 C2151 C 0.31944 0.87748 0.27541
 C2152 C 0.30618 0.89959 0.26760
 C2153 C 0.28004 0.89686 0.26119
 C2154 C 0.26842 0.87322 0.26115
 C2155 C 0.27119 0.82725 0.26558
 C2156 C 0.26281 0.80633 0.26305
 H2157 H 0.31849 0.83745 0.28100
 H2158 H 0.33882 0.87794 0.28248
 H2159 H 0.26859 0.91238 0.25417
 H2160 H 0.24874 0.87159 0.25507
 C2161 C 0.21887 0.85023 0.74291
 C2162 C 0.22825 0.86961 0.75970
 C2163 C 0.21809 0.89392 0.75801
 C2164 C 0.19834 0.89898 0.73959
 C2165 C 0.18968 0.87955 0.72215
 C2166 C 0.19987 0.85531 0.72385
 C2167 C 0.22763 0.82484 0.74621
 C2168 C 0.23433 0.80336 0.74917
 H2169 H 0.24290 0.86579 0.77460
 H2170 H 0.22490 0.90845 0.77189
 H2171 H 0.17468 0.88301 0.70757
 H2172 H 0.19252 0.84041 0.71076
 C2173 C 0.72004 0.35026 0.24115
 C2174 C 0.72911 0.36902 0.25897
 C2175 C 0.71887 0.39333 0.25823
 C2176 C 0.69935 0.39901 0.23975
 C2177 C 0.69101 0.38023 0.22130
 C2178 C 0.70129 0.35599 0.22204
 C2179 C 0.72885 0.32480 0.24348
 C2180 C 0.73565 0.30329 0.24576
 H2181 H 0.74357 0.36467 0.27392
 H2182 H 0.72543 0.40737 0.27285
 H2183 H 0.67620 0.38421 0.20665
 H2184 H 0.69418 0.34157 0.20817
 C2185 C 0.71304 0.64995 0.25476
 C2186 C 0.70445 0.63842 0.23057
 C2187 C 0.69567 0.61364 0.23106
 C2188 C 0.69541 0.60005 0.25581
 C2189 C 0.70432 0.61174 0.28000
 C2190 C 0.71310 0.63657 0.27944
 C2191 C 0.72159 0.67557 0.25410
 C2192 C 0.72870 0.69705 0.25296
 H2193 H 0.70429 0.64868 0.21138
 H2194 H 0.68851 0.60533 0.21222
 H2195 H 0.70453 0.60168 0.29928
 H2196 H 0.71981 0.64536 0.29825
 C2197 C 0.21430 0.14932 0.75683
 C2198 C 0.22932 0.12914 0.74731
 C2199 C 0.21990 0.10456 0.74820
 C2200 C 0.19532 0.09992 0.75864
 C2201 C 0.18054 0.12034 0.76849
 C2202 C 0.18999 0.14488 0.76757
 C2203 C 0.22344 0.17469 0.75476
 C2204 C 0.23077 0.19604 0.75270
 H2205 H 0.24818 0.13244 0.73895
 H2206 H 0.23178 0.08920 0.74069
 H2207 H 0.16138 0.11745 0.77618
 H2208 H 0.17817 0.16042 0.77482
 C2209 C 0.28607 0.14714 0.24158
 C2210 C 0.27996 0.13049 0.22010
 C2211 C 0.28882 0.10561 0.22045
 C2212 C 0.30368 0.09718 0.24244
 C2213 C 0.30960 0.11409 0.26394
 C2214 C 0.30091 0.13892 0.26343
 C2215 C 0.27707 0.17267 0.24160
 C2216 C 0.26972 0.19414 0.24268
 H2217 H 0.26843 0.13673 0.20311
 H2218 H 0.28398 0.09293 0.20369
 H2219 H 0.32143 0.10824 0.28083
 H2220 H 0.30592 0.15176 0.27999
 C2221 C 0.78915 0.64923 0.74409
 C2222 C 0.78546 0.63439 0.72044
 C2223 C 0.79381 0.60932 0.71972
 C2224 C 0.80569 0.59889 0.74279
 C2225 C 0.80934 0.61403 0.76637
 C2226 C 0.80118 0.63905 0.76695
 C2227 C 0.78036 0.67483 0.74541
 C2228 C 0.77304 0.69625 0.74768
 H2229 H 0.77612 0.64216 0.70264
 H2230 H 0.79077 0.59802 0.70134
 H2231 H 0.81891 0.60664 0.78421
 H2232 H 0.80434 0.65048 0.78522
 C2233 C 0.85136 0.76366 0.21590
 C2234 C 0.87382 0.76416 0.23090
 C2235 C 0.89746 0.76461 0.21720
 C2236 C 0.89936 0.76451 0.18788
 C2237 C 0.87604 0.76426 0.17337
 C2238 C 0.85263 0.76386 0.18719
 C2239 C 0.82675 0.76191 0.22922
 C2240 C 0.80519 0.75981 0.23771
 H2241 H 0.87310 0.76417 0.25323
 H2242 H 0.91394 0.76593 0.23015
 H2243 H 0.87520 0.76285 0.15121
 H2244 H 0.83534 0.76312 0.17527
 C2245 C 0.35411 0.26398 0.71840
 C2246 C 0.35949 0.28199 0.69829
 C2247 C 0.38313 0.28203 0.68475
 C2248 C 0.40181 0.26402 0.69108
 C2249 C 0.39655 0.24653 0.71200
 C2250 C 0.37283 0.24645 0.72545
 C2251 C 0.32859 0.26189 0.72942
 C2252 C 0.30668 0.25955 0.73666
 H2253 H 0.34514 0.29557 0.69250
 H2254 H 0.38667 0.29597 0.66904
 H2255 H 0.41039 0.23225 0.71718
 H2256 H 0.36883 0.23221 0.74072
 C2257 C 0.35359 0.73629 0.78900
 C2258 C 0.37474 0.72445 0.77662
 C2259 C 0.39835 0.72483 0.78982
 C2260 C 0.40103 0.73695 0.81564
 C2261 C 0.37966 0.74891 0.82767
 C2262 C 0.35622 0.74854 0.81449
 C2263 C 0.32894 0.73630 0.77622
 C2264 C 0.30743 0.73777 0.76792
 H2265 H 0.37297 0.71490 0.75688
 H2266 H 0.41438 0.71531 0.78009
 H2267 H 0.38109 0.75884 0.84721
 H2268 H 0.34008 0.75790 0.82425
 C2269 C 0.85651 0.23365 0.28164
 C2270 C 0.86119 0.21649 0.30272
 C2271 C 0.88446 0.21671 0.31639
 C2272 C 0.90346 0.23417 0.30924
 C2273 C 0.89890 0.25078 0.28738
 C2274 C 0.87556 0.25058 0.27378
 C2275 C 0.83129 0.23563 0.27041
 C2276 C 0.80960 0.23808 0.26298
 H2277 H 0.84657 0.20341 0.30916
 H2278 H 0.88747 0.20344 0.33283
 H2279 H 0.91299 0.26462 0.28155
 H2280 H 0.87208 0.26418 0.25776
 C2281 C 0.14569 0.25717 0.27941
 C2282 C 0.13281 0.23418 0.28099
 C2283 C 0.10950 0.23266 0.29502
 C2284 C 0.09864 0.25414 0.30781
 C2285 C 0.11126 0.27739 0.30531
 C2286 C 0.13469 0.27885 0.29133
 C2287 C 0.17126 0.25767 0.26824
 C2288 C 0.19320 0.25676 0.26062
 H2289 H 0.14116 0.21722 0.27205
 H2290 H 0.10012 0.21456 0.29619
 H2291 H 0.10354 0.29422 0.31513
 H2292 H 0.14458 0.29671 0.29057
 C2293 C 0.64793 0.75801 0.78421
 C2294 C 0.63612 0.77970 0.79512
 C2295 C 0.61217 0.77808 0.80799
 C2296 C 0.59983 0.75467 0.81033
 C2297 C 0.61151 0.73318 0.79846
 C2298 C 0.63534 0.73485 0.78556
 C2299 C 0.67390 0.75871 0.77422
 C2300 C 0.69606 0.75795 0.76744
 H2301 H 0.64576 0.79770 0.79448
 H2302 H 0.60381 0.79493 0.81712
 H2303 H 0.60238 0.71495 0.79955
 H2304 H 0.64429 0.71790 0.77735
 C2305 C 0.64396 0.23777 0.72020
 C2306 C 0.63085 0.26077 0.72045
 C2307 C 0.60777 0.26311 0.70670
 C2308 C 0.59737 0.24245 0.69236
 C2309 C 0.61020 0.21912 0.69302
 C2310 C 0.63341 0.21684 0.70672
 C2311 C 0.66940 0.23678 0.73102
 C2312 C 0.69123 0.23773 0.73842
 H2313 H 0.63886 0.27717 0.73058
 H2314 H 0.59822 0.28123 0.70692
 H2315 H 0.60283 0.20292 0.68199
 H2316 H 0.64351 0.19901 0.70604
 C2317 C 0.14010 0.74253 0.22521
 C2318 C 0.12631 0.76513 0.22513
 C2319 C 0.10344 0.76674 0.21085
 C2320 C 0.09396 0.74575 0.19629
 C2321 C 0.10744 0.72280 0.19735
 C2322 C 0.13042 0.72126 0.21160
 C2323 C 0.16542 0.74225 0.23641
 C2324 C 0.18718 0.74337 0.24397
 H2325 H 0.13365 0.78179 0.23537
 H2326 H 0.09336 0.78456 0.21080
 H2327 H 0.10080 0.70637 0.18617
 H2328 H 0.14105 0.70373 0.21118
   
