data_POSCAR
  _audit_creation_date              2014-09-24
  _audit_creation_method            'ToBaCCo'
  _symmetry_space_group_name_H-M    'P1'
  _symmetry_Int_Tables_number       1
  _symmetry_cell_setting            triclinic
  loop_
  _symmetry_equiv_pos_as_xyz
 x,y,z
_cell_length_a 57.3768
_cell_length_b 57.3500
_cell_length_c 57.3620
_cell_angle_alpha 90.014100
_cell_angle_beta 90.033400
_cell_angle_gamma 90.020900
loop_
  _atom_site_label
  _atom_site_type_symbol
  _atom_site_fract_x
  _atom_site_fract_y
  _atom_site_fract_z
O1 O 0.31642 0.34935 0.02251
 O2 O 0.34868 0.31745 -0.02272
 O3 O 0.31645 0.34948 -0.02267
 O4 O 0.34874 0.31743 0.02249
 O5 O 0.32168 0.28996 0.02251
 O6 O 0.28925 0.32215 -0.02281
 O7 O 0.32160 0.28999 -0.02285
 O8 O 0.28923 0.32200 0.02252
 Cu9 Cu 0.33530 0.33618 -0.00009
 Cu10 Cu 0.30270 0.30325 -0.00017
 C11 C 0.29730 0.34119 0.03002
 C12 C 0.34071 0.29826 -0.03030
 C13 C 0.29732 0.34138 -0.03024
 C14 C 0.34078 0.29823 0.03002
 O15 O 0.68322 0.65102 0.02235
 O16 O 0.65149 0.68292 -0.02325
 O17 O 0.68364 0.65081 -0.02283
 O18 O 0.65106 0.68307 0.02196
 O19 O 0.67822 0.71044 0.02221
 O20 O 0.71093 0.67805 -0.02273
 O21 O 0.67865 0.71030 -0.02316
 O22 O 0.71051 0.67826 0.02261
 Cu23 Cu 0.66461 0.66422 -0.00047
 Cu24 Cu 0.69733 0.69703 -0.00026
 C25 C 0.70228 0.65912 0.03006
 C26 C 0.65958 0.70207 -0.03078
 C27 C 0.70287 0.65884 -0.03021
 C28 C 0.65903 0.70225 0.02955
 O29 O 0.65143 0.31725 1.02272
 O30 O 0.68369 0.34926 0.97756
 O31 O 0.65143 0.31727 0.97752
 O32 O 0.68359 0.34937 1.02274
 O33 O 0.71084 0.32211 1.02289
 O34 O 0.67852 0.28986 0.97750
 O35 O 0.71092 0.32197 0.97755
 O36 O 0.67855 0.28986 1.02286
 Cu37 Cu 0.66480 0.33603 1.00013
 Cu38 Cu 0.69746 0.30317 1.00021
 C39 C 0.65943 0.29809 1.03030
 C40 C 0.70283 0.34114 0.97006
 C41 C 0.65942 0.29809 0.96998
 C42 C 0.70273 0.34130 1.03032
 O43 O 0.34869 0.68287 1.02337
 O44 O 0.31695 0.65081 0.97784
 O45 O 0.34910 0.68292 0.97818
 O46 O 0.31656 0.65069 1.02304
 O47 O 0.28926 0.67789 1.02291
 O48 O 0.32191 0.71024 0.97790
 O49 O 0.28964 0.67801 0.97756
 O50 O 0.32151 0.71020 1.02324
 Cu51 Cu 0.33556 0.66408 1.00064
 Cu52 Cu 0.30282 0.69685 1.00040
 C53 C 0.34061 0.70204 1.03085
 C54 C 0.29787 0.65888 0.97013
 C55 C 0.34112 0.70209 0.97058
 C56 C 0.29734 0.65871 1.03041
 O57 O -0.02287 0.34853 0.31674
 O58 O 0.02262 0.31664 0.34865
 O59 O 0.02231 0.34887 0.31658
 O60 O -0.02255 0.31636 0.34884
 O61 O -0.02257 0.28908 0.32159
 O62 O 0.02244 0.32171 0.28921
 O63 O 0.02275 0.28935 0.32140
 O64 O -0.02289 0.32136 0.28937
 Cu65 Cu -0.00012 0.33534 0.33545
 Cu66 Cu -0.00006 0.30262 0.30263
 C67 C -0.03044 0.34046 0.29760
 C68 C 0.03022 0.29753 0.34056
 C69 C 0.02981 0.34091 0.29737
 C70 C -0.03001 0.29715 0.34080
 O71 O 0.02258 0.68294 0.65086
 O72 O -0.02279 0.65143 0.68330
 O73 O -0.02260 0.68337 0.65096
 O74 O 0.02239 0.65093 0.68308
 O75 O 0.02288 0.67826 0.71028
 O76 O -0.02228 0.71084 0.67802
 O77 O -0.02246 0.67878 0.71049
 O78 O 0.02306 0.71040 0.67793
 Cu79 Cu -0.00015 0.66441 0.66432
 Cu80 Cu 0.00033 0.69735 0.69693
 C81 C 0.03037 0.70205 0.65880
 C82 C -0.03015 0.65965 0.70245
 C83 C -0.02992 0.70265 0.65892
 C84 C 0.03012 0.65899 0.70217
 O85 O 1.02279 0.65154 0.31661
 O86 O 0.97754 0.68320 0.34907
 O87 O 0.97760 0.65113 0.31689
 O88 O 1.02272 0.68353 0.34892
 O89 O 1.02245 0.71095 0.32183
 O90 O 0.97717 0.67842 0.28966
 O91 O 0.97711 0.71062 0.32196
 O92 O 1.02251 0.67884 0.28939
 Cu93 Cu 1.00021 0.66460 0.33560
 Cu94 Cu 0.99978 0.69748 0.30295
 C95 C 1.03015 0.65971 0.29745
 C96 C 0.96980 0.70232 0.34111
 C97 C 0.96988 0.65918 0.29781
 C98 C 1.03008 0.70278 0.34092
 O99 O 0.97698 0.31691 0.65087
 O100 O 1.02246 0.34873 0.68295
 O101 O 1.02215 0.31664 0.65074
 O102 O 0.97727 0.34907 0.68304
 O103 O 0.97710 0.32185 0.71033
 O104 O 1.02212 0.28929 0.67791
 O105 O 1.02243 0.32150 0.71024
 O106 O 0.97680 0.28956 0.67805
 Cu107 Cu 0.99972 0.33558 0.66417
 Cu108 Cu 0.99959 0.30279 0.69689
 C109 C 0.96936 0.29777 0.65890
 C110 C 1.03000 0.34061 0.70208
 C111 C 1.02958 0.29742 0.65874
 C112 C 0.96975 0.34107 0.70222
 O113 O 0.34886 0.02346 0.31744
 O114 O 0.31682 -0.02218 0.34900
 O115 O 0.34912 -0.02176 0.31707
 O116 O 0.31661 0.02301 0.34944
 O117 O 0.28942 0.02317 0.32210
 O118 O 0.32206 -0.02175 0.28961
 O119 O 0.28963 -0.02217 0.32165
 O120 O 0.32179 0.02362 0.28998
 Cu121 Cu 0.33559 0.00062 0.33599
 Cu122 Cu 0.30298 0.00073 0.30305
 C123 C 0.34086 0.03112 0.29831
 C124 C 0.29774 -0.02975 0.34079
 C125 C 0.34120 -0.02920 0.29781
 C126 C 0.29745 0.03051 0.34137
 O127 O 0.68333 -0.02223 0.65105
 O128 O 0.65110 0.02331 0.68256
 O129 O 0.68339 0.02296 0.65060
 O130 O 0.65095 -0.02192 0.68289
 O131 O 0.67796 -0.02182 0.71041
 O132 O 0.71054 0.02321 0.67798
 O133 O 0.67813 0.02356 0.71007
 O134 O 0.71047 -0.02212 0.67844
 Cu135 Cu 0.66446 0.00052 0.66402
 Cu136 Cu 0.69701 0.00073 0.69701
 C137 C 0.70241 -0.02973 0.65929
 C138 C 0.65906 0.03101 0.70170
 C139 C 0.70252 0.03052 0.65869
 C140 C 0.65886 -0.02935 0.70215
 O141 O 0.31600 1.02261 0.65152
 O142 O 0.34837 0.97740 0.68340
 O143 O 0.31629 0.97740 0.65122
 O144 O 0.34826 1.02260 0.68354
 O145 O 0.32113 1.02242 0.71091
 O146 O 0.28900 0.97706 0.67842
 O147 O 0.32120 0.97707 0.71073
 O148 O 0.28874 1.02242 0.67876
 Cu149 Cu 0.33497 1.00003 0.66467
 Cu150 Cu 0.30226 0.99972 0.69747
 C151 C 0.29684 1.03002 0.65964
 C152 C 0.34037 0.96973 0.70252
 C153 C 0.29719 0.96971 0.65923
 C154 C 0.34024 1.03002 0.70274
 O155 O 0.65163 0.97769 0.31718
 O156 O 0.68393 1.02302 0.34902
 O157 O 0.65164 1.02291 0.31701
 O158 O 0.68375 0.97782 0.34932
 O159 O 0.71101 0.97753 0.32208
 O160 O 0.67875 1.02279 0.28962
 O161 O 0.71117 1.02289 0.32175
 O162 O 0.67876 0.97742 0.28982
 Cu163 Cu 0.66501 1.00039 0.33587
 Cu164 Cu 0.69767 1.00015 0.30305
 C165 C 0.65963 0.97001 0.29806
 C166 C 0.70309 1.03047 0.34090
 C167 C 0.65963 1.03033 0.29779
 C168 C 0.70286 0.97017 0.34128
 C169 C 0.87740 0.77335 0.48862
 C170 C 0.87831 0.77415 0.51247
 C171 C 0.86230 0.79086 0.51948
 N172 N 0.85170 0.80022 0.50063
 C173 C 0.86090 0.78963 0.48172
 C174 C 0.85763 0.79673 0.54298
 C175 C 0.84069 0.81310 0.55038
 C176 C 0.83412 0.81643 0.57341
 C177 C 0.81718 0.83337 0.57345
 C178 C 0.81379 0.84001 0.55043
 N179 N 0.82845 0.82780 0.53655
 C180 C 0.79743 0.85700 0.54312
 C181 C 0.79157 0.86188 0.51965
 C182 C 0.77494 0.87805 0.51277
 C183 C 0.77410 0.87732 0.48891
 C184 C 0.79028 0.86078 0.48188
 N185 N 0.80085 0.85138 0.50072
 C186 C 0.79560 0.85556 0.45838
 C187 C 0.81260 0.83923 0.45103
 C188 C 0.82016 0.83686 0.42818
 C189 C 0.83701 0.81985 0.42814
 C190 C 0.83938 0.81221 0.45097
 N191 N 0.82409 0.82380 0.46473
 C192 C 0.85558 0.79505 0.45825
 H193 H 0.88791 0.76218 0.47763
 H194 H 0.88950 0.76358 0.52338
 H195 H 0.82056 0.82022 0.48206
 H196 H 0.84064 0.80741 0.58865
 H197 H 0.80820 0.83986 0.58872
 H198 H 0.76444 0.88921 0.52376
 H199 H 0.76299 0.88797 0.47800
 H200 H 0.84669 0.81406 0.41302
 H201 H 0.83115 0.83057 0.51895
 H202 H 0.81442 0.84663 0.41309
 C203 C 0.21618 0.11520 0.51299
 C204 C 0.21633 0.11516 0.48908
 C205 C 0.20416 0.13483 0.48204
 N206 N 0.19679 0.14696 0.50086
 C207 C 0.20393 0.13490 0.51981
 C208 C 0.20122 0.14189 0.45863
 C209 C 0.18719 0.16087 0.45162
 C210 C 0.18708 0.17051 0.42944
 C211 C 0.17017 0.18753 0.42934
 C212 C 0.16040 0.18782 0.45146
 N213 N 0.17077 0.17141 0.46484
 C214 C 0.14144 0.20198 0.45826
 C215 C 0.13417 0.20508 0.48158
 C216 C 0.11447 0.21734 0.48835
 C217 C 0.11427 0.21734 0.51225
 C218 C 0.13386 0.20508 0.51935
 N219 N 0.14609 0.19780 0.50057
 C220 C 0.14076 0.20197 0.54279
 C221 C 0.15965 0.18784 0.54984
 C222 C 0.16915 0.18757 0.57209
 C223 C 0.18613 0.17061 0.57219
 C224 C 0.18654 0.16098 0.55000
 N225 N 0.17024 0.17147 0.53658
 C226 C 0.20071 0.14204 0.54316
 H227 H 0.22433 0.10228 0.52406
 H228 H 0.22461 0.10220 0.47815
 H229 H 0.16479 0.16590 0.52026
 H230 H 0.19789 0.16563 0.41478
 H231 H 0.16543 0.19829 0.41458
 H232 H 0.10164 0.22559 0.47723
 H233 H 0.10127 0.22559 0.52315
 H234 H 0.19679 0.16577 0.58699
 H235 H 0.16509 0.16587 0.48108
 H236 H 0.16420 0.19831 0.58679
 C237 C 0.12305 0.77291 0.51126
 C238 C 0.12213 0.77378 0.48741
 C239 C 0.13814 0.79053 0.48046
 N240 N 0.14873 0.79986 0.49934
 C241 C 0.13954 0.78920 0.51822
 C242 C 0.14279 0.79649 0.45698
 C243 C 0.15974 0.81288 0.44963
 C244 C 0.16627 0.81630 0.42660
 C245 C 0.18324 0.83322 0.42661
 C246 C 0.18669 0.83976 0.44965
 N247 N 0.17203 0.82751 0.46350
 C248 C 0.20308 0.85670 0.45702
 C249 C 0.20899 0.86148 0.48050
 C250 C 0.22568 0.87758 0.48743
 C251 C 0.22651 0.87679 0.51129
 C252 C 0.21027 0.86028 0.51826
 N253 N 0.19967 0.85096 0.49939
 C254 C 0.20489 0.85505 0.54175
 C255 C 0.18785 0.83874 0.54904
 C256 C 0.18022 0.83637 0.57187
 C257 C 0.16335 0.81938 0.57186
 C258 C 0.16103 0.81173 0.54902
 N259 N 0.17637 0.82331 0.53531
 C260 C 0.14483 0.79458 0.54170
 H261 H 0.11254 0.76170 0.52222
 H262 H 0.11095 0.76322 0.47647
 H263 H 0.17995 0.81973 0.51798
 H264 H 0.15970 0.80735 0.41133
 H265 H 0.19220 0.83977 0.41135
 H266 H 0.23623 0.88874 0.47647
 H267 H 0.23767 0.88738 0.52223
 H268 H 0.15363 0.81359 0.58696
 H269 H 0.16937 0.83019 0.48112
 H270 H 0.18595 0.84613 0.58698
 C271 C 0.88513 0.21724 0.51106
 C272 C 0.88530 0.21716 0.48715
 C273 C 0.86570 0.20485 0.48011
 N274 N 0.85351 0.19761 0.49892
 C275 C 0.86544 0.20497 0.51788
 C276 C 0.85878 0.20167 0.45668
 C277 C 0.83988 0.18750 0.44968
 C278 C 0.83036 0.18717 0.42744
 C279 C 0.81337 0.17021 0.42740
 C280 C 0.81299 0.16063 0.44961
 N281 N 0.82931 0.17116 0.46298
 C282 C 0.79881 0.14171 0.45650
 C283 C 0.79563 0.13462 0.47988
 C284 C 0.78338 0.11493 0.48676
 C285 C 0.78328 0.11494 0.51067
 C286 C 0.79547 0.13464 0.51765
 N287 N 0.80280 0.14672 0.49879
 C288 C 0.79846 0.14174 0.54104
 C289 C 0.81249 0.16076 0.54800
 C290 C 0.81263 0.17045 0.57016
 C291 C 0.82954 0.18749 0.57021
 C292 C 0.83926 0.18775 0.54807
 N293 N 0.82888 0.17130 0.53473
 C294 C 0.85820 0.20192 0.54122
 H295 H 0.89796 0.22554 0.52214
 H296 H 0.89828 0.22540 0.47622
 H297 H 0.83454 0.16573 0.51849
 H298 H 0.83528 0.19788 0.41271
 H299 H 0.80269 0.16532 0.41262
 H300 H 0.77520 0.10199 0.47572
 H301 H 0.77501 0.10201 0.52164
 H302 H 0.83429 0.19829 0.58494
 H303 H 0.83477 0.16564 0.47931
 H304 H 0.80184 0.16559 0.58485
 C305 C 0.48857 0.77394 0.87767
 C306 C 0.51242 0.77320 0.87671
 C307 C 0.51924 0.78961 0.86030
 N308 N 0.50029 0.80022 0.85121
 C309 C 0.48149 0.79074 0.86178
 C310 C 0.54268 0.79515 0.85501
 C311 C 0.54985 0.81240 0.83886
 C312 C 0.57263 0.82021 0.83655
 C313 C 0.57251 0.83723 0.81971
 C314 C 0.54966 0.83945 0.81209
 N315 N 0.53605 0.82391 0.82355
 C316 C 0.54224 0.85571 0.79505
 C317 C 0.51872 0.86079 0.78969
 C318 C 0.51161 0.87720 0.77341
 C319 C 0.48775 0.87786 0.77428
 C320 C 0.48096 0.86178 0.79103
 N321 N 0.49993 0.85140 0.80036
 C322 C 0.45753 0.85691 0.79701
 C323 C 0.45029 0.83996 0.81345
 C324 C 0.42728 0.83338 0.81701
 C325 C 0.42741 0.81644 0.83395
 C326 C 0.45048 0.81304 0.84036
 N327 N 0.46425 0.82772 0.82802
 C328 C 0.45797 0.79662 0.85722
 H329 H 0.47771 0.76327 0.88881
 H330 H 0.52346 0.76199 0.88713
 H331 H 0.48188 0.83040 0.83056
 H332 H 0.58778 0.81450 0.84626
 H333 H 0.58754 0.84710 0.81400
 H334 H 0.52246 0.88781 0.76220
 H335 H 0.47671 0.88892 0.76372
 H336 H 0.41220 0.80745 0.84058
 H337 H 0.51875 0.82020 0.81995
 H338 H 0.41197 0.83991 0.80813
 C339 C 0.48804 0.12399 0.22730
 C340 C 0.51188 0.12307 0.22645
 C341 C 0.51886 0.13896 0.20961
 N342 N 0.50000 0.14950 0.20021
 C343 C 0.48111 0.14038 0.21091
 C344 C 0.54235 0.14355 0.20362
 C345 C 0.54972 0.16041 0.18716
 C346 C 0.57278 0.16683 0.18364
 C347 C 0.57279 0.18377 0.16669
 C348 C 0.54975 0.18731 0.16023
 N349 N 0.53587 0.17274 0.17255
 C350 C 0.54240 0.20374 0.14332
 C351 C 0.51894 0.20971 0.13857
 C352 C 0.51205 0.22648 0.12256
 C353 C 0.48820 0.22732 0.12331
 C354 C 0.48119 0.21100 0.13973
 N355 N 0.50003 0.20034 0.14902
 C356 C 0.45770 0.20559 0.14490
 C357 C 0.45038 0.18854 0.16119
 C358 C 0.42756 0.18087 0.16350
 C359 C 0.42754 0.16403 0.18052
 C360 C 0.45036 0.16177 0.18824
 N361 N 0.46408 0.17711 0.17667
 C362 C 0.45764 0.14564 0.20546
 H363 H 0.47706 0.11356 0.23855
 H364 H 0.52281 0.11195 0.23708
 H365 H 0.48138 0.18075 0.18032
 H366 H 0.58803 0.16022 0.19255
 H367 H 0.58807 0.19266 0.16009
 H368 H 0.52303 0.23707 0.11146
 H369 H 0.47728 0.23853 0.11277
 H370 H 0.41244 0.15430 0.18629
 H371 H 0.51822 0.17018 0.16996
 H372 H 0.41247 0.18656 0.15369
 C373 C 0.48799 0.12285 0.77381
 C374 C 0.51184 0.12375 0.77291
 C375 C 0.51881 0.14027 0.78917
 N376 N 0.49995 0.14949 0.79982
 C377 C 0.48106 0.13889 0.79053
 C378 C 0.54229 0.14558 0.79451
 C379 C 0.54964 0.16179 0.81165
 C380 C 0.57248 0.16412 0.81926
 C381 C 0.57251 0.18099 0.83626
 C382 C 0.54969 0.18860 0.83867
 N383 N 0.53594 0.17711 0.82326
 C384 C 0.54241 0.20563 0.85500
 C385 C 0.51893 0.21102 0.86024
 C386 C 0.51198 0.22727 0.87677
 C387 C 0.48813 0.22646 0.87755
 C388 C 0.48118 0.20979 0.86144
 N389 N 0.50006 0.20045 0.85092
 C390 C 0.45770 0.20392 0.85665
 C391 C 0.45032 0.18752 0.83971
 C392 C 0.42728 0.18411 0.83316
 C393 C 0.42725 0.16713 0.81626
 C394 C 0.45027 0.16055 0.81285
 N395 N 0.46415 0.17283 0.82748
 C396 C 0.45759 0.14357 0.79649
 H397 H 0.47704 0.11165 0.76328
 H398 H 0.52278 0.11322 0.76172
 H399 H 0.48176 0.17013 0.83019
 H400 H 0.58757 0.15441 0.81344
 H401 H 0.58763 0.18672 0.84600
 H402 H 0.52293 0.23841 0.88736
 H403 H 0.47718 0.23702 0.88871
 H404 H 0.41198 0.16057 0.80730
 H405 H 0.51860 0.18068 0.81971
 H406 H 0.41204 0.19310 0.83969
 C407 C 0.51192 0.77374 0.12285
 C408 C 0.48806 0.77454 0.12221
 C409 C 0.48123 0.79124 0.13833
 N410 N 0.50020 0.80061 0.14872
 C411 C 0.51900 0.79002 0.13929
 C412 C 0.45779 0.79711 0.14326
 C413 C 0.45055 0.81354 0.16021
 C414 C 0.42756 0.81696 0.16690
 C415 C 0.42767 0.83398 0.18378
 C416 C 0.45071 0.84057 0.18703
 N417 N 0.46448 0.82826 0.17233
 C418 C 0.45817 0.85757 0.20332
 C419 C 0.48169 0.86226 0.20913
 C420 C 0.48875 0.87831 0.22579
 C421 C 0.51260 0.87741 0.22655
 C422 C 0.51945 0.86087 0.21027
 N423 N 0.50050 0.85165 0.19973
 C424 C 0.54289 0.85555 0.20480
 C425 C 0.55010 0.83932 0.18764
 C426 C 0.57289 0.83696 0.17991
 C427 C 0.57279 0.82007 0.16293
 C428 C 0.54993 0.81247 0.16065
 N429 N 0.53630 0.82399 0.17612
 C430 C 0.54252 0.79541 0.14439
 H431 H 0.52279 0.76258 0.11221
 H432 H 0.47703 0.76396 0.11114
 H433 H 0.51899 0.82044 0.17976
 H434 H 0.41227 0.80795 0.16049
 H435 H 0.41247 0.84054 0.19282
 H436 H 0.47788 0.88952 0.23638
 H437 H 0.52362 0.88794 0.23768
 H438 H 0.58783 0.81431 0.15312
 H439 H 0.48207 0.83096 0.16951
 H440 H 0.58803 0.84666 0.18564
 C441 C 0.78337 0.48834 0.88542
 C442 C 0.78332 0.51226 0.88555
 C443 C 0.79549 0.51931 0.86589
 N444 N 0.80276 0.50051 0.85369
 C445 C 0.79557 0.48154 0.86568
 C446 C 0.79851 0.54274 0.85891
 C447 C 0.81256 0.54977 0.83995
 C448 C 0.81276 0.57198 0.83039
 C449 C 0.82964 0.57207 0.81335
 C450 C 0.83930 0.54989 0.81297
 N451 N 0.82891 0.53650 0.82934
 C452 C 0.85820 0.54305 0.79875
 C453 C 0.86536 0.51970 0.79556
 C454 C 0.88502 0.51288 0.78324
 C455 C 0.88511 0.48897 0.78315
 C456 C 0.86550 0.48192 0.79541
 N457 N 0.85337 0.50074 0.80278
 C458 C 0.85850 0.45850 0.79843
 C459 C 0.83960 0.45149 0.81256
 C460 C 0.82999 0.42929 0.81276
 C461 C 0.81305 0.42921 0.82974
 C462 C 0.81277 0.45136 0.83946
 N463 N 0.82911 0.46474 0.82900
 C464 C 0.79868 0.45820 0.85845
 H465 H 0.77520 0.47725 0.89831
 H466 H 0.77510 0.52318 0.89855
 H467 H 0.83465 0.48101 0.83462
 H468 H 0.80201 0.58668 0.83534
 H469 H 0.83442 0.58684 0.80263
 H470 H 0.89788 0.52397 0.77502
 H471 H 0.89805 0.47804 0.77485
 H472 H 0.80233 0.41444 0.83454
 H473 H 0.83453 0.52022 0.83481
 H474 H 0.83484 0.41460 0.80195
 C475 C 0.21678 0.51217 0.11461
 C476 C 0.21672 0.48826 0.11472
 C477 C 0.20446 0.48145 0.13442
 N478 N 0.19725 0.50042 0.14641
 C479 C 0.20457 0.51922 0.13424
 C480 C 0.20131 0.45811 0.14162
 C481 C 0.18715 0.45127 0.16058
 C482 C 0.18682 0.42911 0.17027
 C483 C 0.16982 0.42919 0.18720
 C484 C 0.16025 0.45140 0.18739
 N485 N 0.17080 0.46465 0.17100
 C486 C 0.14131 0.45841 0.20148
 C487 C 0.13433 0.48183 0.20451
 C488 C 0.11470 0.48888 0.21672
 C489 C 0.11482 0.51279 0.21665
 C490 C 0.13451 0.51961 0.20439
 N491 N 0.14649 0.50065 0.19718
 C492 C 0.14170 0.54296 0.20123
 C493 C 0.16065 0.54980 0.18707
 C494 C 0.17033 0.57197 0.18673
 C495 C 0.18726 0.57189 0.16973
 C496 C 0.18746 0.54967 0.16016
 N497 N 0.17107 0.53641 0.17071
 C498 C 0.20154 0.54265 0.14122
 H499 H 0.22505 0.52309 0.10163
 H500 H 0.22492 0.47717 0.10185
 H501 H 0.16546 0.52013 0.16522
 H502 H 0.19753 0.41434 0.16548
 H503 H 0.16492 0.41449 0.19798
 H504 H 0.10174 0.47795 0.22499
 H505 H 0.10195 0.52388 0.22485
 H506 H 0.19804 0.58658 0.16483
 H507 H 0.16530 0.48093 0.16538
 H508 H 0.16554 0.58674 0.19745
 C509 C 0.87654 0.51162 0.22689
 C510 C 0.87724 0.48775 0.22607
 C511 C 0.86120 0.48088 0.20930
 N512 N 0.85079 0.49982 0.19993
 C513 C 0.86014 0.51866 0.21057
 C514 C 0.85637 0.45741 0.20337
 C515 C 0.83945 0.45010 0.18692
 C516 C 0.83288 0.42707 0.18343
 C517 C 0.81598 0.42712 0.16644
 C518 C 0.81260 0.45018 0.15993
 N519 N 0.82724 0.46400 0.17227
 C520 C 0.79625 0.45759 0.14298
 C521 C 0.79039 0.48109 0.13831
 C522 C 0.77367 0.48811 0.12229
 C523 C 0.77290 0.51197 0.12318
 C524 C 0.78922 0.51887 0.13967
 N525 N 0.79979 0.49995 0.14888
 C526 C 0.79471 0.54234 0.14494
 C527 C 0.81187 0.54959 0.16116
 C528 C 0.81962 0.57240 0.16346
 C529 C 0.83657 0.57235 0.18037
 C530 C 0.83880 0.54952 0.18804
 N531 N 0.82334 0.53584 0.17655
 C532 C 0.85503 0.54217 0.20515
 H533 H 0.88713 0.52252 0.23809
 H534 H 0.88831 0.47675 0.23666
 H535 H 0.81965 0.51854 0.18016
 H536 H 0.83938 0.41179 0.19238
 H537 H 0.80701 0.41188 0.15984
 H538 H 0.76307 0.47720 0.11112
 H539 H 0.76175 0.52297 0.11266
 H540 H 0.84639 0.58742 0.18610
 H541 H 0.82995 0.48163 0.16965
 H542 H 0.81393 0.58752 0.15370
 C543 C 0.12234 0.48761 0.77426
 C544 C 0.12305 0.51147 0.77346
 C545 C 0.13945 0.51850 0.78981
 N546 N 0.14877 0.49965 0.80044
 C547 C 0.13836 0.48072 0.79103
 C548 C 0.14458 0.54201 0.79525
 C549 C 0.16082 0.54935 0.81235
 C550 C 0.16311 0.57219 0.82002
 C551 C 0.18008 0.57222 0.83692
 C552 C 0.18780 0.54941 0.83921
 N553 N 0.17628 0.53566 0.82383
 C554 C 0.20497 0.54214 0.85540
 C555 C 0.21043 0.51866 0.86065
 C556 C 0.22676 0.51175 0.87710
 C557 C 0.22597 0.48789 0.87797
 C558 C 0.20922 0.48089 0.86198
 N559 N 0.19982 0.49975 0.85144
 C560 C 0.20332 0.45738 0.85730
 C561 C 0.18694 0.44998 0.84036
 C562 C 0.18353 0.42692 0.83384
 C563 C 0.16662 0.42689 0.81686
 C564 C 0.16008 0.44992 0.81338
 N565 N 0.17231 0.46381 0.82804
 C566 C 0.14317 0.45724 0.79693
 H567 H 0.11127 0.47661 0.76364
 H568 H 0.11250 0.52239 0.76226
 H569 H 0.16964 0.48144 0.83066
 H570 H 0.15331 0.58727 0.81430
 H571 H 0.18581 0.58734 0.84667
 H572 H 0.23795 0.52274 0.88761
 H573 H 0.23658 0.47697 0.88912
 H574 H 0.16009 0.41161 0.80790
 H575 H 0.17993 0.51836 0.82021
 H576 H 0.19249 0.41168 0.84043
 C577 C 0.26025 0.38177 0.07573
 C578 C 0.26591 0.37878 0.10173
 C579 C 0.25373 0.39353 0.11586
 C580 C 0.23713 0.40979 0.10257
 C581 C 0.22156 0.39352 0.08809
 C582 C 0.23372 0.37879 0.07397
 C583 C 0.26468 0.40766 0.07061
 C584 C 0.25254 0.42236 0.08470
 C585 C 0.27339 0.36630 0.06020
 C586 C 0.28428 0.35439 0.04676
 C587 C 0.22414 0.42602 0.11739
 C588 C 0.21365 0.44020 0.12881
 H589 H 0.27833 0.36617 0.10844
 H590 H 0.25571 0.39357 0.13469
 H591 H 0.20265 0.39354 0.08891
 H592 H 0.22523 0.36617 0.06268
 H593 H 0.27636 0.41390 0.05709
 H594 H 0.25382 0.44120 0.08324
 C595 C 0.73823 0.61855 0.07667
 C596 C 0.73636 0.59281 0.06961
 C597 C 0.74801 0.57809 0.08410
 C598 C 0.76042 0.59052 0.10428
 C599 C 0.74132 0.60468 0.11654
 C600 C 0.72963 0.61944 0.10200
 C601 C 0.76450 0.62348 0.07807
 C602 C 0.77618 0.60873 0.09261
 C603 C 0.72558 0.63403 0.06074
 C604 C 0.71502 0.64594 0.04704
 C605 C 0.77288 0.57429 0.11958
 C606 C 0.78290 0.56016 0.13146
 H607 H 0.72671 0.58666 0.05452
 H608 H 0.74833 0.55935 0.08143
 H609 H 0.73735 0.60329 0.13499
 H610 H 0.71565 0.63069 0.10799
 H611 H 0.77315 0.63736 0.06855
 H612 H 0.79483 0.60997 0.09554
 C613 C 0.73983 0.38180 0.92438
 C614 C 0.73503 0.40767 0.92921
 C615 C 0.74715 0.42240 0.91512
 C616 C 0.76291 0.40985 0.89754
 C617 C 0.74666 0.39325 0.88421
 C618 C 0.73450 0.37848 0.89835
 C619 C 0.76638 0.37918 0.92646
 C620 C 0.77852 0.39393 0.91234
 C621 C 0.72671 0.36631 0.93990
 C622 C 0.71583 0.35438 0.95334
 C623 C 0.77588 0.42610 0.88271
 C624 C 0.78635 0.44029 0.87129
 H625 H 0.72313 0.41390 0.94254
 H626 H 0.74562 0.44123 0.91638
 H627 H 0.74490 0.39308 0.86537
 H628 H 0.72232 0.36565 0.89162
 H629 H 0.77488 0.36679 0.93796
 H630 H 0.79743 0.39418 0.91174
 C631 C 0.26180 0.61826 0.92358
 C632 C 0.26291 0.59261 0.93111
 C633 C 0.25119 0.57792 0.91663
 C634 C 0.23946 0.59027 0.89601
 C635 C 0.25914 0.60378 0.88390
 C636 C 0.27090 0.61851 0.89841
 C637 C 0.23569 0.62377 0.92159
 C638 C 0.22393 0.60905 0.90707
 C639 C 0.27452 0.63373 0.93949
 C640 C 0.28513 0.64565 0.95317
 C641 C 0.22692 0.57407 0.88073
 C642 C 0.21683 0.55995 0.86887
 H643 H 0.27213 0.58651 0.94648
 H644 H 0.25036 0.55924 0.91960
 H645 H 0.26342 0.60197 0.86555
 H646 H 0.28526 0.62933 0.89250
 H647 H 0.22720 0.63801 0.93071
 H648 H 0.20537 0.61067 0.90376
 C649 C 0.07588 0.26074 0.38145
 C650 C 0.07026 0.26485 0.40727
 C651 C 0.08428 0.25278 0.42211
 C652 C 0.10258 0.23774 0.40971
 C653 C 0.11589 0.25469 0.39383
 C654 C 0.10183 0.26680 0.37895
 C655 C 0.07457 0.23419 0.37820
 C656 C 0.08862 0.22210 0.39307
 C657 C 0.06042 0.27380 0.36583
 C658 C 0.04699 0.28461 0.35383
 C659 C 0.11732 0.22481 0.42608
 C660 C 0.12868 0.21434 0.44032
 H661 H 0.05647 0.27628 0.41338
 H662 H 0.08249 0.25387 0.44092
 H663 H 0.13467 0.25694 0.39422
 H664 H 0.10856 0.27943 0.36658
 H665 H 0.06363 0.22566 0.36532
 H666 H 0.08971 0.20320 0.39293
 C667 C 0.07679 0.73788 0.61791
 C668 C 0.06936 0.73644 0.59225
 C669 C 0.08381 0.74811 0.57751
 C670 C 0.10430 0.76011 0.58984
 C671 C 0.11649 0.74065 0.60358
 C672 C 0.10201 0.72894 0.61836
 C673 C 0.07859 0.76407 0.62318
 C674 C 0.09306 0.77577 0.60840
 C675 C 0.06092 0.72523 0.63345
 C676 C 0.04728 0.71469 0.64545
 C677 C 0.11954 0.77260 0.57359
 C678 C 0.13138 0.78268 0.55948
 H679 H 0.05408 0.72706 0.58618
 H680 H 0.08090 0.74873 0.55881
 H681 H 0.13487 0.73646 0.60189
 H682 H 0.10797 0.71472 0.62934
 H683 H 0.06935 0.77265 0.63729
 H684 H 0.09624 0.79437 0.60985
 C685 C 0.92349 0.73828 0.38197
 C686 C 0.92990 0.73541 0.40779
 C687 C 0.91548 0.74711 0.42253
 C688 C 0.89603 0.76057 0.41005
 C689 C 0.88345 0.74231 0.39504
 C690 C 0.89791 0.73057 0.38025
 C691 C 0.92309 0.76473 0.37783
 C692 C 0.90864 0.77645 0.39260
 C693 C 0.93932 0.72559 0.36645
 C694 C 0.95294 0.71502 0.35445
 C695 C 0.88082 0.77309 0.42630
 C696 C 0.86900 0.78317 0.44044
 H697 H 0.94450 0.72506 0.41396
 H698 H 0.91773 0.74678 0.44132
 H699 H 0.86486 0.73892 0.39591
 H700 H 0.89170 0.71713 0.36845
 H701 H 0.93323 0.77346 0.36445
 H702 H 0.90639 0.79523 0.39188
 C703 C 0.92375 0.26094 0.61793
 C704 C 0.89784 0.26726 0.62013
 C705 C 0.88379 0.25511 0.60526
 C706 C 0.89707 0.23786 0.58968
 C707 C 0.91074 0.22229 0.60661
 C708 C 0.92477 0.23443 0.62147
 C709 C 0.92963 0.26471 0.59211
 C710 C 0.91562 0.25260 0.57728
 C711 C 0.93920 0.27404 0.63354
 C712 C 0.95261 0.28487 0.64557
 C713 C 0.88233 0.22487 0.57333
 C714 C 0.87098 0.21436 0.55911
 H715 H 0.89112 0.28010 0.63231
 H716 H 0.86503 0.25752 0.60469
 H717 H 0.90946 0.20340 0.60694
 H718 H 0.93552 0.22594 0.63454
 H719 H 0.94358 0.27595 0.58600
 H720 H 0.91758 0.25346 0.55848
 C721 C 0.38151 0.07765 0.26234
 C722 C 0.37648 0.07902 0.23609
 C723 C 0.39122 0.09351 0.22434
 C724 C 0.40952 0.10517 0.24002
 C725 C 0.42193 0.08497 0.25241
 C726 C 0.40722 0.07052 0.26413
 C727 C 0.38073 0.10300 0.27093
 C728 C 0.39547 0.11748 0.25918
 C729 C 0.36603 0.06177 0.27505
 C730 C 0.35410 0.04809 0.28562
 C731 C 0.42574 0.12040 0.22748
 C732 C 0.43985 0.13223 0.21738
 H733 H 0.36255 0.06952 0.22749
 H734 H 0.38992 0.09642 0.20569
 H735 H 0.44065 0.08226 0.25202
 H736 H 0.41336 0.05543 0.27377
 H737 H 0.36956 0.10904 0.28496
 H738 H 0.39694 0.13594 0.26313
 C739 C 0.61834 0.07750 0.73763
 C740 C 0.62380 0.07944 0.76377
 C741 C 0.60907 0.09393 0.77551
 C742 C 0.59035 0.10504 0.75994
 C743 C 0.57801 0.08444 0.74814
 C744 C 0.59270 0.06998 0.73643
 C745 C 0.61863 0.10270 0.72858
 C746 C 0.60389 0.11719 0.74032
 C747 C 0.63382 0.06162 0.72494
 C748 C 0.64577 0.04795 0.71438
 C749 C 0.57414 0.12029 0.77247
 C750 C 0.56005 0.13213 0.78259
 H751 H 0.63801 0.07030 0.77229
 H752 H 0.61066 0.09721 0.79408
 H753 H 0.55933 0.08147 0.74890
 H754 H 0.58661 0.05463 0.72717
 H755 H 0.62947 0.10863 0.71425
 H756 H 0.60210 0.13555 0.73606
 C757 C 0.38120 0.92381 0.73908
 C758 C 0.40537 0.92152 0.72786
 C759 C 0.42010 0.90729 0.73984
 C760 C 0.40925 0.89672 0.76188
 C761 C 0.38700 0.88442 0.75347
 C762 C 0.37223 0.89868 0.74146
 C763 C 0.38594 0.93192 0.76414
 C764 C 0.40068 0.91768 0.77613
 C765 C 0.36569 0.93945 0.72611
 C766 C 0.35371 0.95295 0.71536
 C767 C 0.42549 0.88171 0.77468
 C768 C 0.43965 0.87008 0.78495
 H769 H 0.41046 0.93029 0.71189
 H770 H 0.43781 0.90388 0.73413
 H771 H 0.38318 0.86616 0.75668
 H772 H 0.35575 0.89265 0.73437
 H773 H 0.37833 0.94746 0.77182
 H774 H 0.40571 0.92101 0.79407
 C775 C 0.61897 0.92360 0.26185
 C776 C 0.61930 0.89837 0.27081
 C777 C 0.60460 0.88388 0.25899
 C778 C 0.59104 0.89607 0.23939
 C779 C 0.60975 0.90728 0.22389
 C780 C 0.62445 0.92177 0.23571
 C781 C 0.59331 0.93105 0.26303
 C782 C 0.57865 0.91659 0.25124
 C783 C 0.63441 0.93948 0.27464
 C784 C 0.64634 0.95312 0.28529
 C785 C 0.57485 0.88082 0.22678
 C786 C 0.56074 0.86898 0.21667
 H787 H 0.63015 0.89242 0.28513
 H788 H 0.60285 0.86551 0.26317
 H789 H 0.61135 0.90407 0.20531
 H790 H 0.63864 0.93099 0.22725
 H791 H 0.58719 0.94635 0.27233
 H792 H 0.55997 0.91952 0.25045
 C793 C 0.38151 0.26178 0.92372
 C794 C 0.38012 0.23521 0.92668
 C795 C 0.39488 0.22327 0.91241
 C796 C 0.40957 0.23907 0.89659
 C797 C 0.42202 0.25592 0.91323
 C798 C 0.40729 0.26785 0.92747
 C799 C 0.37706 0.26613 0.89768
 C800 C 0.39183 0.25417 0.88339
 C801 C 0.36600 0.27470 0.93940
 C802 C 0.35402 0.28542 0.95291
 C803 C 0.42580 0.22631 0.88156
 C804 C 0.43992 0.21603 0.86989
 H805 H 0.36853 0.22655 0.93887
 H806 H 0.39593 0.20437 0.91236
 H807 H 0.44079 0.25830 0.91376
 H808 H 0.41345 0.28044 0.94021
 H809 H 0.36349 0.27754 0.89106
 H810 H 0.39093 0.25532 0.86452
 C811 C 0.61904 0.73829 0.92279
 C812 C 0.62161 0.76490 0.92423
 C813 C 0.60684 0.77667 0.90980
 C814 C 0.59097 0.76066 0.89536
 C815 C 0.57845 0.74528 0.91330
 C816 C 0.59318 0.73354 0.92770
 C817 C 0.62238 0.73236 0.89690
 C818 C 0.60760 0.74413 0.88246
 C819 C 0.63453 0.72554 0.93863
 C820 C 0.64644 0.71489 0.95228
 C821 C 0.57471 0.77321 0.88017
 C822 C 0.56055 0.78329 0.86838
 H823 H 0.63397 0.77372 0.93554
 H824 H 0.60655 0.79557 0.90874
 H825 H 0.55963 0.74373 0.91458
 H826 H 0.58698 0.72194 0.94131
 H827 H 0.63523 0.72004 0.89049
 H828 H 0.60779 0.74192 0.86366
 C829 C 0.38129 0.73884 0.07674
 C830 C 0.40713 0.73369 0.07215
 C831 C 0.42190 0.74571 0.08630
 C832 C 0.40943 0.76174 0.10370
 C833 C 0.39254 0.74577 0.11697
 C834 C 0.37772 0.73372 0.10277
 C835 C 0.37903 0.76543 0.07451
 C836 C 0.39383 0.77747 0.08869
 C837 C 0.36575 0.72582 0.06116
 C838 C 0.35381 0.71500 0.04767
 C839 C 0.42573 0.77460 0.11861
 C840 C 0.43991 0.78494 0.13017
 H841 H 0.41329 0.72162 0.05893
 H842 H 0.44071 0.74393 0.08520
 H843 H 0.39221 0.74412 0.13582
 H844 H 0.36470 0.72173 0.10946
 H845 H 0.36684 0.77403 0.06286
 H846 H 0.39432 0.79639 0.08920
 C847 C 0.61863 0.26154 0.07623
 C848 C 0.60668 0.24076 0.06433
 C849 C 0.59194 0.22882 0.07858
 C850 C 0.59057 0.23882 0.10336
 C851 C 0.58389 0.26452 0.10011
 C852 C 0.59864 0.27646 0.08587
 C853 C 0.63065 0.25123 0.09783
 C854 C 0.61586 0.23926 0.11212
 C855 C 0.63415 0.27447 0.06057
 C856 C 0.64612 0.28521 0.04707
 C857 C 0.57433 0.22607 0.11839
 C858 C 0.56021 0.21581 0.13007
 H859 H 0.60958 0.23583 0.04629
 H860 H 0.58220 0.21367 0.07275
 H861 H 0.56889 0.27264 0.10832
 H862 H 0.59628 0.29482 0.08187
 H863 H 0.64910 0.25315 0.10156
 H864 H 0.62164 0.23091 0.12809
 C865 C 0.25971 0.07585 0.61922
 C866 C 0.26434 0.07105 0.59332
 C867 C 0.25217 0.08520 0.57870
 C868 C 0.23653 0.10281 0.59136
 C869 C 0.25290 0.11606 0.60789
 C870 C 0.26511 0.10187 0.62256
 C871 C 0.23317 0.07383 0.62199
 C872 C 0.22097 0.08802 0.60734
 C873 C 0.27288 0.06026 0.63462
 C874 C 0.28380 0.04678 0.64647
 C875 C 0.22350 0.11770 0.57520
 C876 C 0.21302 0.12917 0.56106
 H877 H 0.27618 0.05770 0.58701
 H878 H 0.25359 0.08397 0.55986
 H879 H 0.25472 0.13490 0.60808
 H880 H 0.27739 0.10854 0.63533
 H881 H 0.22470 0.06233 0.63441
 H882 H 0.20206 0.08867 0.60719
 C883 C 0.73961 0.07543 0.38056
 C884 C 0.76611 0.07413 0.37709
 C885 C 0.77834 0.08832 0.39173
 C886 C 0.76286 0.10241 0.40839
 C887 C 0.74796 0.08418 0.42107
 C888 C 0.73575 0.07002 0.40647
 C889 C 0.73351 0.10137 0.37790
 C890 C 0.74576 0.11558 0.39255
 C891 C 0.72640 0.05983 0.36519
 C892 C 0.71545 0.04633 0.35337
 C893 C 0.77592 0.11732 0.42453
 C894 C 0.78645 0.12880 0.43864
 H895 H 0.77452 0.06308 0.36423
 H896 H 0.79723 0.08944 0.39141
 H897 H 0.74705 0.08254 0.43991
 H898 H 0.72440 0.05626 0.41280
 H899 H 0.72076 0.10799 0.36558
 H900 H 0.74350 0.13437 0.39279
 C901 C 0.73926 0.92411 0.61904
 C902 C 0.73435 0.92866 0.59315
 C903 C 0.74637 0.91439 0.57853
 C904 C 0.76216 0.89691 0.59119
 C905 C 0.74597 0.88380 0.60799
 C906 C 0.73391 0.89812 0.62265
 C907 C 0.76583 0.92616 0.62154
 C908 C 0.77787 0.91185 0.60689
 C909 C 0.72623 0.93982 0.63442
 C910 C 0.71540 0.95339 0.64623
 C911 C 0.77501 0.88186 0.57504
 C912 C 0.78533 0.87020 0.56095
 H913 H 0.72244 0.94195 0.58683
 H914 H 0.74476 0.91545 0.55969
 H915 H 0.74417 0.86496 0.60836
 H916 H 0.72177 0.89155 0.63559
 H917 H 0.77441 0.93778 0.63378
 H918 H 0.79678 0.91121 0.60657
 C919 C 0.26106 0.92399 0.38110
 C920 C 0.23540 0.93090 0.38420
 C921 C 0.22341 0.91657 0.39886
 C922 C 0.23826 0.89675 0.40898
 C923 C 0.25910 0.90890 0.42054
 C924 C 0.27108 0.92321 0.40590
 C925 C 0.26047 0.89847 0.37301
 C926 C 0.24846 0.88412 0.38770
 C927 C 0.27404 0.93974 0.36571
 C928 C 0.28482 0.95334 0.35387
 C929 C 0.22546 0.88166 0.42514
 C930 C 0.21518 0.86996 0.43923
 H931 H 0.22734 0.94570 0.37559
 H932 H 0.20508 0.91910 0.40281
 H933 H 0.26405 0.90646 0.43865
 H934 H 0.28628 0.93302 0.41147
 H935 H 0.26872 0.89223 0.35717
 H936 H 0.24640 0.86558 0.38445
 C937 C 0.07612 0.38113 0.73879
 C938 C 0.10210 0.37745 0.73354
 C939 C 0.11641 0.39217 0.74558
 C940 C 0.10329 0.40909 0.76164
 C941 C 0.08829 0.39351 0.77738
 C942 C 0.07400 0.37880 0.76536
 C943 C 0.07162 0.40701 0.73371
 C944 C 0.08588 0.42169 0.74571
 C945 C 0.06042 0.36568 0.72579
 C946 C 0.04686 0.35379 0.71500
 C947 C 0.11833 0.42529 0.77447
 C948 C 0.12998 0.43942 0.78479
 H949 H 0.10868 0.36442 0.72149
 H950 H 0.13525 0.39176 0.74384
 H951 H 0.08889 0.39394 0.79630
 H952 H 0.06234 0.36663 0.77398
 H953 H 0.05838 0.41326 0.72172
 H954 H 0.08486 0.44051 0.74399
 C955 C 0.07585 0.61925 0.26026
 C956 C 0.07428 0.62242 0.23373
 C957 C 0.08839 0.60770 0.22155
 C958 C 0.10267 0.59126 0.23710
 C959 C 0.08464 0.57867 0.25231
 C960 C 0.07056 0.59336 0.26447
 C961 C 0.10182 0.62208 0.26611
 C962 C 0.11595 0.60734 0.25390
 C963 C 0.06033 0.63470 0.27343
 C964 C 0.04689 0.64658 0.28436
 C965 C 0.11749 0.57503 0.22408
 C966 C 0.12889 0.56086 0.21359
 H967 H 0.06311 0.63515 0.22527
 H968 H 0.08932 0.60781 0.20265
 H969 H 0.08307 0.55984 0.25344
 H970 H 0.05693 0.58711 0.27602
 H971 H 0.10852 0.63456 0.27866
 H972 H 0.13475 0.60719 0.25600
 C973 C 0.92342 0.38110 0.26113
 C974 C 0.92539 0.37876 0.23454
 C975 C 0.91109 0.39353 0.22261
 C976 C 0.89625 0.40917 0.23845
 C977 C 0.91380 0.42169 0.25429
 C978 C 0.92807 0.40696 0.26619
 C979 C 0.89745 0.37751 0.26651
 C980 C 0.88314 0.39229 0.25457
 C981 C 0.93913 0.36559 0.27402
 C982 C 0.95269 0.35366 0.28475
 C983 C 0.88121 0.42542 0.22572
 C984 C 0.86956 0.43957 0.21546
 H985 H 0.93694 0.36656 0.22584
 H986 H 0.91039 0.39397 0.20370
 H987 H 0.91492 0.44051 0.25602
 H988 H 0.94141 0.41316 0.27811
 H989 H 0.89089 0.36450 0.27859
 H990 H 0.86432 0.39195 0.25641
 C991 C 0.92409 0.61929 0.73968
 C992 C 0.92931 0.59340 0.73543
 C993 C 0.91522 0.57872 0.74760
 C994 C 0.89725 0.59133 0.76286
 C995 C 0.88398 0.60745 0.74611
 C996 C 0.89812 0.62217 0.73390
 C997 C 0.92573 0.62244 0.76621
 C998 C 0.91161 0.60773 0.77840
 C999 C 0.93963 0.63472 0.72649
 C1000 C 0.95308 0.64657 0.71555
 C1001 C 0.88242 0.57512 0.77589
 C1002 C 0.87101 0.56095 0.78639
 H1003 H 0.94289 0.58713 0.72384
 H1004 H 0.91673 0.55989 0.74644
 H1005 H 0.86517 0.60734 0.74405
 H1006 H 0.89142 0.63468 0.72137
 H1007 H 0.93695 0.63514 0.77466
 H1008 H 0.91072 0.60782 0.79731
 C1009 C 0.73943 0.61878 0.92521
 C1010 C 0.73309 0.62113 0.89929
 C1011 C 0.74529 0.60640 0.88515
 C1012 C 0.76259 0.59080 0.89833
 C1013 C 0.74791 0.57821 0.91681
 C1014 C 0.73576 0.59290 0.93091
 C1015 C 0.76592 0.62243 0.92626
 C1016 C 0.77810 0.60771 0.91212
 C1017 C 0.72625 0.63426 0.94073
 C1018 C 0.71529 0.64621 0.95411
 C1019 C 0.77562 0.57460 0.88345
 C1020 C 0.78613 0.56051 0.87193
 H1021 H 0.72022 0.63330 0.89265
 H1022 H 0.74286 0.60595 0.86638
 H1023 H 0.74713 0.55939 0.91865
 H1024 H 0.72456 0.58664 0.94483
 H1025 H 0.77436 0.63545 0.93711
 H1026 H 0.79698 0.60813 0.91086
 C1027 C 0.26124 0.38132 0.92468
 C1028 C 0.23524 0.38330 0.93066
 C1029 C 0.22328 0.39801 0.91635
 C1030 C 0.23848 0.40932 0.89746
 C1031 C 0.24992 0.38883 0.88457
 C1032 C 0.26191 0.37409 0.89890
 C1033 C 0.27037 0.40647 0.92507
 C1034 C 0.25842 0.42117 0.91079
 C1035 C 0.27421 0.36585 0.94039
 C1036 C 0.28503 0.35394 0.95392
 C1037 C 0.22570 0.42552 0.88237
 C1038 C 0.21542 0.43961 0.87063
 H1039 H 0.22695 0.37392 0.94485
 H1040 H 0.20473 0.40124 0.91828
 H1041 H 0.24868 0.38612 0.86588
 H1042 H 0.27095 0.35876 0.89249
 H1043 H 0.28498 0.41224 0.93565
 H1044 H 0.26279 0.43952 0.90913
 C1045 C 0.26077 0.61868 0.07502
 C1046 C 0.26451 0.59279 0.06939
 C1047 C 0.25233 0.57811 0.08348
 C1048 C 0.23755 0.59070 0.10187
 C1049 C 0.22206 0.60753 0.08798
 C1050 C 0.23427 0.62225 0.07386
 C1051 C 0.26700 0.62111 0.10095
 C1052 C 0.25478 0.60639 0.11508
 C1053 C 0.27397 0.63415 0.05950
 C1054 C 0.28493 0.64609 0.04611
 C1055 C 0.22450 0.57451 0.11674
 C1056 C 0.21397 0.56042 0.12824
 H1057 H 0.27577 0.58652 0.05553
 H1058 H 0.25315 0.55928 0.08168
 H1059 H 0.20318 0.60790 0.08916
 H1060 H 0.22585 0.63521 0.06295
 H1061 H 0.27982 0.63334 0.10762
 H1062 H 0.25713 0.60600 0.13386
 C1063 C 0.73862 0.38137 0.07548
 C1064 C 0.76518 0.37999 0.07263
 C1065 C 0.77708 0.39476 0.08697
 C1066 C 0.76123 0.40946 0.10275
 C1067 C 0.74609 0.39170 0.11586
 C1068 C 0.73418 0.37691 0.10150
 C1069 C 0.73258 0.40716 0.07173
 C1070 C 0.74445 0.42190 0.08605
 C1071 C 0.72573 0.36584 0.05974
 C1072 C 0.71498 0.35389 0.04619
 C1073 C 0.77394 0.42571 0.11786
 C1074 C 0.78417 0.43982 0.12962
 H1075 H 0.77389 0.36840 0.06047
 H1076 H 0.79597 0.39582 0.08709
 H1077 H 0.74486 0.39079 0.13472
 H1078 H 0.72275 0.36333 0.10807
 H1079 H 0.72005 0.41332 0.05895
 H1080 H 0.74208 0.44068 0.08552
 C1081 C 0.92503 0.73878 0.61898
 C1082 C 0.92604 0.76533 0.62231
 C1083 C 0.91171 0.77731 0.60760
 C1084 C 0.89779 0.76155 0.59102
 C1085 C 0.88484 0.74439 0.60696
 C1086 C 0.89918 0.73240 0.62168
 C1087 C 0.93047 0.73483 0.59309
 C1088 C 0.91617 0.74678 0.57842
 C1089 C 0.94075 0.72580 0.63444
 C1090 C 0.95428 0.71498 0.64635
 C1091 C 0.88269 0.77434 0.57483
 C1092 C 0.87095 0.78462 0.56074
 H1093 H 0.93700 0.77395 0.63512
 H1094 H 0.91039 0.79619 0.60781
 H1095 H 0.86608 0.74190 0.60674
 H1096 H 0.89270 0.71965 0.63407
 H1097 H 0.94435 0.72359 0.58682
 H1098 H 0.91781 0.74577 0.55959
 C1099 C 0.92524 0.26067 0.38074
 C1100 C 0.92995 0.26546 0.40664
 C1101 C 0.91579 0.25331 0.42128
 C1102 C 0.89827 0.23752 0.40864
 C1103 C 0.91314 0.22194 0.39278
 C1104 C 0.92733 0.23411 0.37810
 C1105 C 0.89923 0.26597 0.37731
 C1106 C 0.88503 0.25378 0.39200
 C1107 C 0.94082 0.27384 0.36531
 C1108 C 0.95426 0.28477 0.35340
 C1109 C 0.88334 0.22451 0.42481
 C1110 C 0.87179 0.21402 0.43889
 H1111 H 0.94325 0.27737 0.41294
 H1112 H 0.91697 0.25482 0.44012
 H1113 H 0.91254 0.20302 0.39300
 H1114 H 0.93888 0.22562 0.36576
 H1115 H 0.89255 0.27817 0.36447
 H1116 H 0.86619 0.25553 0.39174
 C1117 C 0.07430 0.26099 0.61872
 C1118 C 0.07306 0.23447 0.62213
 C1119 C 0.08723 0.22230 0.60744
 C1120 C 0.10125 0.23786 0.59079
 C1121 C 0.11441 0.25496 0.60665
 C1122 C 0.10023 0.26714 0.62135
 C1123 C 0.06883 0.26490 0.59283
 C1124 C 0.08298 0.25276 0.57817
 C1125 C 0.05874 0.27414 0.63418
 C1126 C 0.04531 0.28506 0.64611
 C1127 C 0.11618 0.22485 0.57461
 C1128 C 0.12773 0.21435 0.56054
 H1129 H 0.06205 0.22599 0.63498
 H1130 H 0.08837 0.20341 0.60771
 H1131 H 0.13319 0.25727 0.60639
 H1132 H 0.10685 0.27988 0.63368
 H1133 H 0.05504 0.27624 0.58654
 H1134 H 0.08130 0.25371 0.55933
 C1135 C 0.07524 0.73882 0.38085
 C1136 C 0.06841 0.76450 0.38402
 C1137 C 0.08276 0.77643 0.39874
 C1138 C 0.10253 0.76150 0.40886
 C1139 C 0.11513 0.75131 0.38756
 C1140 C 0.10076 0.73936 0.37281
 C1141 C 0.07599 0.72874 0.40562
 C1142 C 0.09032 0.74065 0.42032
 C1143 C 0.05949 0.72589 0.36538
 C1144 C 0.04593 0.71509 0.35347
 C1145 C 0.11766 0.77423 0.42508
 C1146 C 0.12943 0.78446 0.43918
 H1147 H 0.05364 0.77262 0.37542
 H1148 H 0.08028 0.79476 0.40275
 H1149 H 0.13367 0.75332 0.38433
 H1150 H 0.10699 0.73113 0.35695
 H1151 H 0.06614 0.71354 0.41114
 H1152 H 0.09273 0.73566 0.43842
 C1153 C 0.61809 0.92433 0.73836
 C1154 C 0.61896 0.89898 0.72977
 C1155 C 0.60425 0.88444 0.74149
 C1156 C 0.59013 0.89669 0.76064
 C1157 C 0.57768 0.91686 0.74825
 C1158 C 0.59235 0.93137 0.73656
 C1159 C 0.62309 0.92295 0.76463
 C1160 C 0.60838 0.90841 0.77635
 C1161 C 0.63357 0.94024 0.72566
 C1162 C 0.64554 0.95386 0.71502
 C1163 C 0.57396 0.88134 0.77315
 C1164 C 0.55992 0.86936 0.78320
 H1165 H 0.63017 0.89299 0.71576
 H1166 H 0.60285 0.86598 0.73752
 H1167 H 0.55894 0.91951 0.74861
 H1168 H 0.58618 0.94644 0.72692
 H1169 H 0.63697 0.93250 0.77325
 H1170 H 0.60967 0.90549 0.79500
 C1171 C 0.38212 0.92497 0.26116
 C1172 C 0.37990 0.92706 0.23457
 C1173 C 0.39465 0.91276 0.22264
 C1174 C 0.41017 0.89777 0.23847
 C1175 C 0.39319 0.88465 0.25447
 C1176 C 0.37843 0.89897 0.26641
 C1177 C 0.40798 0.92948 0.26635
 C1178 C 0.42269 0.91521 0.25443
 C1179 C 0.36660 0.94065 0.27409
 C1180 C 0.35459 0.95412 0.28486
 C1181 C 0.42639 0.88268 0.22571
 C1182 C 0.44046 0.87093 0.21544
 H1183 H 0.36778 0.93871 0.22588
 H1184 H 0.39516 0.91215 0.20373
 H1185 H 0.39277 0.86581 0.25622
 H1186 H 0.36536 0.89239 0.27841
 H1187 H 0.41419 0.94274 0.27835
 H1188 H 0.44151 0.91624 0.25624
 C1189 C 0.61873 0.07624 0.26119
 C1190 C 0.62020 0.07349 0.23460
 C1191 C 0.60538 0.08778 0.22272
 C1192 C 0.59056 0.10341 0.23859
 C1193 C 0.60819 0.11658 0.25385
 C1194 C 0.62302 0.10228 0.26574
 C1195 C 0.59296 0.07230 0.26713
 C1196 C 0.57817 0.08656 0.25527
 C1197 C 0.63432 0.06056 0.27406
 C1198 C 0.64633 0.04707 0.28482
 C1199 C 0.57426 0.11847 0.22590
 C1200 C 0.56012 0.13020 0.21568
 H1201 H 0.63188 0.06143 0.22588
 H1202 H 0.60437 0.08796 0.20382
 H1203 H 0.60898 0.13545 0.25516
 H1204 H 0.63652 0.10890 0.27724
 H1205 H 0.58684 0.05944 0.27959
 H1206 H 0.55940 0.08590 0.25758
 C1207 C 0.38108 0.07607 0.73925
 C1208 C 0.40682 0.07241 0.73299
 C1209 C 0.42163 0.08671 0.74478
 C1210 C 0.40929 0.10333 0.76172
 C1211 C 0.39477 0.08746 0.77764
 C1212 C 0.37994 0.07313 0.76582
 C1213 C 0.37654 0.10211 0.73493
 C1214 C 0.39139 0.11645 0.74676
 C1215 C 0.36549 0.06034 0.72643
 C1216 C 0.35350 0.04681 0.71570
 C1217 C 0.42562 0.11844 0.77434
 C1218 C 0.43978 0.13020 0.78450
 H1219 H 0.41290 0.05968 0.72036
 H1220 H 0.44038 0.08623 0.74226
 H1221 H 0.39599 0.08752 0.79653
 H1222 H 0.36845 0.06091 0.77459
 H1223 H 0.36286 0.10868 0.72363
 H1224 H 0.39043 0.13532 0.74560
 C1225 C 0.61827 0.73854 0.07582
 C1226 C 0.61899 0.72983 0.10112
 C1227 C 0.60431 0.74160 0.11566
 C1228 C 0.59037 0.76091 0.10345
 C1229 C 0.57790 0.74870 0.08317
 C1230 C 0.59254 0.73696 0.06867
 C1231 C 0.62345 0.76477 0.07736
 C1232 C 0.60878 0.77654 0.09190
 C1233 C 0.63371 0.72579 0.05992
 C1234 C 0.64567 0.71512 0.04632
 C1235 C 0.57424 0.77347 0.11879
 C1236 C 0.56021 0.78355 0.13076
 H1237 H 0.63007 0.71570 0.10710
 H1238 H 0.60282 0.73755 0.13409
 H1239 H 0.55918 0.74922 0.08044
 H1240 H 0.58635 0.72744 0.05352
 H1241 H 0.63743 0.77333 0.06792
 H1242 H 0.61019 0.79517 0.09491
 C1243 C 0.38158 0.26212 0.07641
 C1244 C 0.38462 0.23629 0.07007
 C1245 C 0.39936 0.22461 0.08458
 C1246 C 0.40962 0.23989 0.10402
 C1247 C 0.38843 0.25041 0.11652
 C1248 C 0.37367 0.26211 0.10199
 C1249 C 0.40639 0.27213 0.07685
 C1250 C 0.42111 0.26045 0.09134
 C1251 C 0.36607 0.27480 0.06051
 C1252 C 0.35409 0.28541 0.04687
 C1253 C 0.42585 0.22741 0.11934
 C1254 C 0.43994 0.21739 0.13129
 H1255 H 0.37592 0.22791 0.05549
 H1256 H 0.40328 0.20621 0.08243
 H1257 H 0.38528 0.24878 0.13511
 H1258 H 0.35787 0.27052 0.10813
 H1259 H 0.41192 0.28710 0.06668
 H1260 H 0.43924 0.26543 0.09357
 C1261 C 0.61865 0.26201 0.92351
 C1262 C 0.61959 0.27059 0.89817
 C1263 C 0.60481 0.25893 0.88362
 C1264 C 0.59057 0.23985 0.89586
 C1265 C 0.57819 0.25232 0.91602
 C1266 C 0.59292 0.26395 0.93053
 C1267 C 0.62349 0.23572 0.92214
 C1268 C 0.60872 0.22406 0.90759
 C1269 C 0.63418 0.27466 0.93944
 C1270 C 0.64615 0.28526 0.95310
 C1271 C 0.57432 0.22742 0.88053
 C1272 C 0.56020 0.21741 0.86859
 H1273 H 0.63088 0.28455 0.89218
 H1274 H 0.60344 0.26289 0.86516
 H1275 H 0.55945 0.25205 0.91866
 H1276 H 0.58680 0.27364 0.94560
 H1277 H 0.63732 0.22703 0.93170
 H1278 H 0.60990 0.20539 0.90468
 C1279 C 0.38202 0.73870 0.92469
 C1280 C 0.38017 0.76529 0.92716
 C1281 C 0.39490 0.77724 0.91284
 C1282 C 0.41003 0.76142 0.89746
 C1283 C 0.39268 0.74579 0.88434
 C1284 C 0.37794 0.73383 0.89867
 C1285 C 0.40786 0.73315 0.92882
 C1286 C 0.42255 0.74507 0.91453
 C1287 C 0.36651 0.72576 0.94039
 C1288 C 0.35451 0.71501 0.95388
 C1289 C 0.42622 0.77418 0.88235
 C1290 C 0.44027 0.78448 0.87059
 H1291 H 0.36831 0.77397 0.93907
 H1292 H 0.39564 0.79615 0.91248
 H1293 H 0.39201 0.74428 0.86549
 H1294 H 0.36464 0.72207 0.89210
 H1295 H 0.41407 0.72089 0.94184
 H1296 H 0.44135 0.74303 0.91531
 C1297 C 0.73901 0.92388 0.38216
 C1298 C 0.76327 0.91687 0.37331
 C1299 C 0.77497 0.90237 0.38810
 C1300 C 0.76123 0.89634 0.41027
 C1301 C 0.73802 0.88627 0.40154
 C1302 C 0.72633 0.90076 0.38676
 C1303 C 0.74325 0.93441 0.40639
 C1304 C 0.75492 0.91995 0.42115
 C1305 C 0.72632 0.93975 0.36661
 C1306 C 0.71570 0.95335 0.35461
 C1307 C 0.77372 0.88106 0.42653
 C1308 C 0.78376 0.86914 0.44063
 H1309 H 0.77059 0.92272 0.35687
 H1310 H 0.79230 0.89580 0.38434
 H1311 H 0.73138 0.86925 0.40650
 H1312 H 0.70967 0.89615 0.37905
 H1313 H 0.73758 0.95173 0.41153
 H1314 H 0.75922 0.92488 0.43891
 C1315 C 0.26121 0.92336 0.61824
 C1316 C 0.23523 0.92066 0.62406
 C1317 C 0.22360 0.90616 0.60921
 C1318 C 0.23911 0.89581 0.59001
 C1319 C 0.25924 0.88390 0.60301
 C1320 C 0.27088 0.89839 0.61786
 C1321 C 0.26179 0.93139 0.59273
 C1322 C 0.25019 0.91694 0.57792
 C1323 C 0.27383 0.93923 0.63385
 C1324 C 0.28440 0.95285 0.64589
 C1325 C 0.22669 0.88053 0.57369
 C1326 C 0.21669 0.86862 0.55954
 H1327 H 0.22674 0.92931 0.63858
 H1328 H 0.20515 0.90240 0.61101
 H1329 H 0.26392 0.86569 0.60078
 H1330 H 0.28552 0.89260 0.62836
 H1331 H 0.27056 0.94709 0.58681
 H1332 H 0.24903 0.92025 0.55931
 C1333 C 0.26030 0.07588 0.38235
 C1334 C 0.26402 0.07006 0.40820
 C1335 C 0.25188 0.08411 0.42296
 C1336 C 0.23717 0.10264 0.41048
 C1337 C 0.22164 0.08891 0.39354
 C1338 C 0.23380 0.07483 0.37875
 C1339 C 0.26661 0.10180 0.38010
 C1340 C 0.25444 0.11589 0.39490
 C1341 C 0.27345 0.06042 0.36678
 C1342 C 0.28436 0.04709 0.35475
 C1343 C 0.22417 0.11745 0.42675
 C1344 C 0.21365 0.12893 0.44087
 H1345 H 0.27523 0.05612 0.41438
 H1346 H 0.25270 0.08219 0.44178
 H1347 H 0.20276 0.09017 0.39316
 H1348 H 0.22534 0.06404 0.36570
 H1349 H 0.27946 0.10851 0.36794
 H1350 H 0.25686 0.13466 0.39542
 C1351 C 0.73960 0.07587 0.61762
 C1352 C 0.73585 0.06995 0.59179
 C1353 C 0.74794 0.08397 0.57697
 C1354 C 0.76264 0.10257 0.58937
 C1355 C 0.77822 0.08894 0.60632
 C1356 C 0.76611 0.07490 0.62118
 C1357 C 0.73325 0.10179 0.61979
 C1358 C 0.74537 0.11584 0.60492
 C1359 C 0.72649 0.06043 0.63325
 C1360 C 0.71560 0.04711 0.64531
 C1361 C 0.77559 0.11736 0.57302
 C1362 C 0.78607 0.12881 0.55885
 H1363 H 0.72465 0.05596 0.58568
 H1364 H 0.74709 0.08197 0.55816
 H1365 H 0.79709 0.09025 0.60667
 H1366 H 0.77461 0.06417 0.63426
 H1367 H 0.72041 0.10851 0.63196
 H1368 H 0.74293 0.13461 0.60435
 C1369 C 0.92350 0.61832 0.26173
 C1370 C 0.89803 0.61972 0.26982
 C1371 C 0.88350 0.60494 0.25812
 C1372 C 0.89590 0.59024 0.23951
 C1373 C 0.91565 0.57778 0.25254
 C1374 C 0.93014 0.59252 0.26420
 C1375 C 0.92266 0.62276 0.23534
 C1376 C 0.90814 0.60799 0.22366
 C1377 C 0.93940 0.63385 0.27440
 C1378 C 0.95303 0.64585 0.28500
 C1379 C 0.88058 0.57400 0.22703
 C1380 C 0.86863 0.55991 0.21699
 H1381 H 0.89194 0.63131 0.28348
 H1382 H 0.86497 0.60387 0.26177
 H1383 H 0.91805 0.55900 0.25262
 H1384 H 0.94494 0.58635 0.27426
 H1385 H 0.93256 0.63633 0.22662
 H1386 H 0.90559 0.60891 0.20492
 C1387 C 0.92438 0.38214 0.73929
 C1388 C 0.93027 0.40799 0.73564
 C1389 C 0.91625 0.42276 0.74778
 C1390 C 0.89767 0.41030 0.76242
 C1391 C 0.91131 0.39330 0.77795
 C1392 C 0.92536 0.37850 0.76579
 C1393 C 0.89847 0.37996 0.73291
 C1394 C 0.88441 0.39478 0.74508
 C1395 C 0.93982 0.36655 0.72614
 C1396 C 0.95315 0.35449 0.71525
 C1397 C 0.88288 0.42659 0.77544
 C1398 C 0.87143 0.44072 0.78598
 H1399 H 0.94425 0.41415 0.72447
 H1400 H 0.91822 0.44158 0.74700
 H1401 H 0.91001 0.39290 0.79683
 H1402 H 0.93610 0.36541 0.77425
 H1403 H 0.89177 0.36783 0.72001
 H1404 H 0.86566 0.39535 0.74262
 C1405 C 0.07632 0.61812 0.73843
 C1406 C 0.08221 0.59580 0.72489
 C1407 C 0.09664 0.58107 0.73664
 C1408 C 0.10380 0.59007 0.76080
 C1409 C 0.08077 0.59489 0.77351
 C1410 C 0.06633 0.60962 0.76175
 C1411 C 0.10001 0.62899 0.74458
 C1412 C 0.11448 0.61422 0.75636
 C1413 C 0.06048 0.63364 0.72568
 C1414 C 0.04691 0.64564 0.71502
 C1415 C 0.11907 0.57384 0.77335
 C1416 C 0.13099 0.55976 0.78341
 H1417 H 0.07563 0.59191 0.70757
 H1418 H 0.10241 0.56456 0.72939
 H1419 H 0.07622 0.58741 0.79029
 H1420 H 0.04941 0.61477 0.76847
 H1421 H 0.10497 0.64670 0.74010
 H1422 H 0.13183 0.61927 0.76198
 C1423 C 0.07523 0.38203 0.26041
 C1424 C 0.07412 0.37855 0.23389
 C1425 C 0.08821 0.39337 0.22176
 C1426 C 0.10201 0.41020 0.23735
 C1427 C 0.11525 0.39450 0.25453
 C1428 C 0.10115 0.37967 0.26666
 C1429 C 0.06950 0.40788 0.26425
 C1430 C 0.08356 0.42266 0.25215
 C1431 C 0.05976 0.36642 0.27351
 C1432 C 0.04641 0.35435 0.28437
 C1433 C 0.11684 0.42649 0.22438
 C1434 C 0.12833 0.44063 0.21388
 H1435 H 0.06328 0.36557 0.22538
 H1436 H 0.08943 0.39307 0.20288
 H1437 H 0.13402 0.39496 0.25692
 H1438 H 0.10784 0.36743 0.27945
 H1439 H 0.05561 0.41404 0.27552
 H1440 H 0.08170 0.44148 0.25306
   
