data_POSCAR
  _audit_creation_date              2014-09-24
  _audit_creation_method            'ToBaCCo'
  _symmetry_space_group_name_H-M    'P1'
  _symmetry_Int_Tables_number       1
  _symmetry_cell_setting            triclinic
  loop_
  _symmetry_equiv_pos_as_xyz
 x,y,z
_cell_length_a 57.6961
_cell_length_b 56.0728
_cell_length_c 58.3714
_cell_angle_alpha 89.964800
_cell_angle_beta 90.053300
_cell_angle_gamma 90.120000
loop_
  _atom_site_label
  _atom_site_type_symbol
  _atom_site_fract_x
  _atom_site_fract_y
  _atom_site_fract_z
C1 C 1.21885 0.25885 0.28565
 H2 H 1.21793 0.23960 0.28653
 C3 C 1.20559 0.27270 0.30058
 H4 H 1.19432 0.26412 0.31293
 C5 C 1.23490 0.29362 0.26873
 H6 H 1.24660 0.30173 0.25657
 C7 C 1.22193 0.30813 0.28334
 H8 H 1.22351 0.32735 0.28220
 N9 N 1.23295 0.26945 0.26995
 C10 C 1.24212 0.21707 0.21539
 H11 H 1.26084 0.21674 0.21449
 C12 C 1.22902 0.20312 0.20036
 H13 H 1.23764 0.19194 0.18789
 C14 C 1.20794 0.23223 0.23257
 H15 H 1.19979 0.24382 0.24491
 C16 C 1.19418 0.21856 0.21784
 H17 H 1.17547 0.21950 0.21904
 Zn18 Zn 1.25080 0.24942 0.25069
 N19 N 1.23147 0.23102 0.23127
 C20 C 1.26724 0.20510 0.26804
 N21 N 1.26871 0.22927 0.26980
 C22 C 1.28288 0.23979 0.28548
 C23 C 1.29698 0.22591 0.29963
 C24 C 1.28103 0.19053 0.28186
 C25 C 1.26036 0.28231 0.21574
 C26 C 1.27402 0.29566 0.20068
 C27 C 1.30818 0.27841 0.21794
 C28 C 1.29391 0.26539 0.23268
 N29 N 1.27045 0.26773 0.23150
 H30 H 1.25548 0.19704 0.25590
 H31 H 1.28344 0.25903 0.28673
 H32 H 1.30846 0.23454 0.31180
 H33 H 1.27991 0.17131 0.28009
 H34 H 1.24166 0.28349 0.21488
 H35 H 1.26586 0.30729 0.18824
 H36 H 1.32683 0.27647 0.21900
 H37 H 1.30162 0.25325 0.24483
 C38 C 1.20484 0.20381 0.20167
 C39 C 1.20710 0.29756 0.29936
 C40 C 1.29815 0.29369 0.20183
 C41 C 1.29619 0.20103 0.29767
 C42 C 0.71788 -0.24016 0.28551
 H43 H 0.71740 -0.25941 0.28669
 C44 C 0.70368 -0.22641 0.29964
 H45 H 0.69218 -0.23506 0.31175
 C46 C 0.73335 -0.20529 0.26823
 H47 H 0.74507 -0.19710 0.25614
 C48 C 0.71945 -0.19089 0.28204
 H49 H 0.72036 -0.17166 0.28040
 N50 N 0.73201 -0.22947 0.26990
 C51 C 0.74045 -0.28201 0.21556
 H52 H 0.75915 -0.28319 0.21475
 C53 C 0.72681 -0.29519 0.20036
 H54 H 0.73497 -0.30669 0.18784
 C55 C 0.70689 -0.26523 0.23253
 H56 H 0.69917 -0.25319 0.24474
 C57 C 0.69262 -0.27808 0.21765
 H58 H 0.67398 -0.27613 0.21866
 Zn59 Zn 0.74995 -0.24942 0.25074
 N60 N 0.73034 -0.26758 0.23140
 C61 C 0.76592 -0.29372 0.26852
 N62 N 0.76781 -0.26955 0.26990
 C63 C 0.78189 -0.25904 0.28568
 C64 C 0.79523 -0.27296 0.30051
 C65 C 0.77896 -0.30830 0.28303
 C66 C 0.75855 -0.21684 0.21564
 C67 C 0.77161 -0.20273 0.20074
 C68 C 0.80649 -0.21814 0.21824
 C69 C 0.79277 -0.23198 0.23284
 N70 N 0.76924 -0.23084 0.23148
 H71 H 0.75423 -0.30176 0.25630
 H72 H 0.78275 -0.23979 0.28668
 H73 H 0.80651 -0.26445 0.31290
 H74 H 0.77746 -0.32752 0.28175
 H75 H 0.73983 -0.21658 0.21469
 H76 H 0.76296 -0.19148 0.18830
 H77 H 0.82521 -0.21900 0.21950
 H78 H 0.80095 -0.24362 0.24516
 C79 C 0.70268 -0.29320 0.20145
 C80 C 0.70434 -0.20156 0.29772
 C81 C 0.79579 -0.20332 0.20212
 C82 C 0.79380 -0.29782 0.29911
 C83 C 0.71895 0.25882 -0.21409
 H84 H 0.71939 0.23955 -0.21321
 C85 C 0.70497 0.27163 -0.19899
 H86 H 0.69454 0.26224 -0.18645
 C87 C 0.73199 0.29465 -0.23149
 H88 H 0.74271 0.30357 -0.24401
 C89 C 0.71824 0.30815 -0.21670
 H90 H 0.71826 0.32743 -0.21800
 N91 N 0.73182 0.27041 -0.23017
 C92 C 0.74024 0.21833 -0.28500
 H93 H 0.75892 0.21801 -0.28664
 C94 C 0.72654 0.20397 -0.29915
 H95 H 0.73464 0.19248 -0.31171
 C96 C 0.70677 0.23376 -0.26674
 H97 H 0.69907 0.24561 -0.25435
 C98 C 0.69245 0.21971 -0.28054
 H99 H 0.67380 0.22062 -0.27856
 Zn100 Zn 0.74984 0.25138 -0.25013
 N101 N 0.73023 0.23256 -0.26894
 C102 C 0.76732 0.20745 -0.23288
 N103 N 0.76874 0.23165 -0.23152
 C104 C 0.78286 0.24246 -0.21596
 C105 C 0.79667 0.22882 -0.20131
 C106 C 0.78084 0.19315 -0.21855
 C107 C 0.75705 0.28493 -0.28502
 C108 C 0.76963 0.29941 -0.30003
 C109 C 0.80506 0.28395 -0.28362
 C110 C 0.79178 0.26978 -0.26891
 N111 N 0.76822 0.27072 -0.26967
 H112 H 0.75557 0.19915 -0.24487
 H113 H 0.78332 0.26172 -0.21494
 H114 H 0.80793 0.23756 -0.18904
 H115 H 0.77964 0.17391 -0.21976
 H116 H 0.73830 0.28503 -0.28551
 H117 H 0.76049 0.31076 -0.31206
 H118 H 0.82381 0.28311 -0.28276
 H119 H 0.80036 0.25797 -0.25702
 C120 C 0.70243 0.20458 -0.29678
 C121 C 0.70450 0.29651 -0.20041
 C122 C 0.79389 0.29898 -0.29929
 C123 C 0.79565 0.20394 -0.20265
 C124 C 1.21679 -0.24141 -0.21595
 H125 H 1.21627 -0.26067 -0.21501
 C126 C 1.20313 -0.22780 -0.20118
 H127 H 1.19193 -0.23657 -0.18889
 C128 C 1.23244 -0.20635 -0.23271
 H129 H 1.24422 -0.19803 -0.24465
 C130 C 1.21908 -0.19209 -0.21825
 H131 H 1.22042 -0.17285 -0.21931
 N132 N 1.23094 -0.23055 -0.23144
 C133 C 1.24320 -0.28382 -0.28467
 H134 H 1.26195 -0.28386 -0.28496
 C135 C 1.23079 -0.29830 -0.29981
 H136 H 1.23997 -0.30964 -0.31176
 C137 C 1.20826 -0.26876 -0.26898
 H138 H 1.19953 -0.25697 -0.25720
 C139 C 1.19518 -0.28296 -0.28384
 H140 H 1.17643 -0.28222 -0.28330
 Zn141 Zn 1.24996 -0.25022 -0.24985
 N142 N 1.23183 -0.26964 -0.26948
 C143 C 1.26790 -0.29333 -0.23091
 N144 N 1.26792 -0.26909 -0.22970
 C145 C 1.28056 -0.25733 -0.21356
 C146 C 1.29450 -0.26998 -0.19825
 C147 C 1.28161 -0.30667 -0.21590
 C148 C 1.25960 -0.21716 -0.28465
 C149 C 1.27331 -0.20267 -0.29865
 C150 C 1.30737 -0.21825 -0.27977
 C151 C 1.29304 -0.23243 -0.26612
 N152 N 1.26959 -0.23136 -0.26852
 H153 H 1.25734 -0.30238 -0.24348
 H154 H 1.27998 -0.23807 -0.21278
 H155 H 1.30475 -0.26046 -0.18565
 H156 H 1.28174 -0.32595 -0.21710
 H157 H 1.24093 -0.21694 -0.28644
 H158 H 1.26523 -0.19119 -0.31126
 H159 H 1.32601 -0.21904 -0.27761
 H160 H 1.30072 -0.24426 -0.25367
 C161 C 1.20656 -0.29790 -0.29934
 C162 C 1.20433 -0.20292 -0.20235
 C163 C 1.29740 -0.20314 -0.29606
 C164 C 1.29513 -0.29485 -0.19955
 C165 C 0.25993 0.21655 0.71587
 H166 H 0.24126 0.21615 0.71416
 C167 C 0.27367 0.20222 0.70181
 H168 H 0.26560 0.19068 0.68923
 C169 C 0.29337 0.23215 0.73425
 H170 H 0.30103 0.24406 0.74666
 C171 C 0.30772 0.21814 0.72054
 H172 H 0.32636 0.21913 0.72260
 N173 N 0.26991 0.23084 0.73195
 C174 C 0.21720 0.24046 0.78467
 H175 H 0.21664 0.25972 0.78560
 C176 C 0.20355 0.22676 0.79944
 H177 H 0.19233 0.23551 0.81170
 C178 C 0.23292 0.20553 0.76791
 H179 H 0.24471 0.19730 0.75596
 C180 C 0.21958 0.19116 0.78236
 H181 H 0.22098 0.17192 0.78124
 Zn182 Zn 0.25025 0.24954 0.75065
 N183 N 0.23136 0.22972 0.76917
 C184 C 0.20838 0.26773 0.73164
 N185 N 0.23195 0.26876 0.73102
 C186 C 0.24321 0.28298 0.71573
 C187 C 0.23069 0.29736 0.70060
 C188 C 0.19520 0.28182 0.71680
 C189 C 0.28098 0.25711 0.78682
 C190 C 0.29493 0.26997 0.80198
 C191 C 0.28173 0.30645 0.78420
 C192 C 0.26801 0.29290 0.76935
 N193 N 0.26818 0.26865 0.77068
 H194 H 0.19973 0.25592 0.74350
 H195 H 0.26195 0.28315 0.71535
 H196 H 0.23978 0.30873 0.68858
 H197 H 0.17645 0.28098 0.71745
 H198 H 0.28052 0.23784 0.78770
 H199 H 0.30532 0.26062 0.81456
 H200 H 0.28174 0.32572 0.78288
 H201 H 0.25733 0.30177 0.75678
 C202 C 0.20477 0.20187 0.79827
 C203 C 0.29777 0.20294 0.70429
 C204 C 0.29542 0.29485 0.80054
 C205 C 0.20646 0.29681 0.70120
 C206 C 0.75664 0.71566 0.71490
 H207 H 0.73790 0.71546 0.71431
 C208 C 0.76933 0.70118 0.70002
 H209 H 0.76036 0.68972 0.68798
 C210 C 0.79129 0.73102 0.73111
 H211 H 0.79982 0.74291 0.74299
 C212 C 0.80463 0.71684 0.71653
 H213 H 0.82337 0.71768 0.71742
 N214 N 0.76773 0.72998 0.73023
 C215 C 0.71825 0.74187 0.78555
 H216 H 0.71869 0.76115 0.78631
 C217 C 0.70426 0.72909 0.80073
 H218 H 0.69385 0.73856 0.81320
 C219 C 0.73135 0.70601 0.76841
 H220 H 0.74211 0.69707 0.75597
 C221 C 0.71761 0.69251 0.78329
 H222 H 0.71771 0.67322 0.78209
 Zn223 Zn 0.74927 0.74929 0.74963
 N224 N 0.73115 0.73025 0.76958
 C225 C 0.70629 0.76673 0.73278
 N226 N 0.72976 0.76802 0.73069
 C227 C 0.73986 0.78233 0.71470
 C228 C 0.72623 0.79670 0.70053
 C229 C 0.69204 0.78078 0.71895
 C230 C 0.78209 0.75836 0.78394
 C231 C 0.79570 0.77205 0.79876
 C232 C 0.77994 0.80766 0.78144
 C233 C 0.76663 0.79331 0.76693
 N234 N 0.76808 0.76912 0.76828
 H235 H 0.69853 0.75481 0.74513
 H236 H 0.75854 0.78273 0.71316
 H237 H 0.73441 0.80827 0.68804
 H238 H 0.67339 0.77980 0.72086
 H239 H 0.78258 0.73910 0.78495
 H240 H 0.80683 0.76335 0.81115
 H241 H 0.77868 0.82690 0.78027
 H242 H 0.75495 0.80157 0.75486
 C243 C 0.70384 0.70418 0.79950
 C244 C 0.79354 0.70173 0.70091
 C245 C 0.79461 0.79693 0.79748
 C246 C 0.70211 0.79600 0.70279
 C247 C 0.75870 0.21740 0.21365
 H248 H 0.73997 0.21706 0.21261
 C249 C 0.77185 0.20348 0.19873
 H250 H 0.76327 0.19230 0.18618
 C251 C 0.79281 0.23251 0.23118
 H252 H 0.80091 0.24406 0.24364
 C253 C 0.80662 0.21886 0.21657
 H254 H 0.82532 0.21976 0.21796
 N255 N 0.76929 0.23128 0.22968
 C256 C 0.71783 0.23953 0.28368
 H257 H 0.71737 0.25876 0.28509
 C258 C 0.70365 0.22552 0.29765
 H259 H 0.69217 0.23395 0.30988
 C260 C 0.73331 0.20498 0.26599
 H261 H 0.74503 0.19701 0.25381
 C262 C 0.71942 0.19032 0.27964
 H263 H 0.72034 0.17112 0.27778
 Zn264 Zn 0.74991 0.24946 0.24907
 N265 N 0.73196 0.22913 0.26794
 C266 C 0.70687 0.26529 0.23104
 N267 N 0.73032 0.26780 0.22994
 C268 C 0.74041 0.28260 0.21436
 C269 C 0.72674 0.29608 0.19944
 C270 C 0.69259 0.27843 0.21644
 C271 C 0.78166 0.25870 0.28427
 C272 C 0.79478 0.27245 0.29946
 C273 C 0.77847 0.30798 0.28246
 C274 C 0.76566 0.29357 0.26757
 N275 N 0.76765 0.26940 0.26857
 H276 H 0.69917 0.25297 0.24304
 H277 H 0.75910 0.28390 0.21356
 H278 H 0.73488 0.30792 0.18717
 H279 H 0.67394 0.27639 0.21747
 H280 H 0.78260 0.23945 0.28495
 H281 H 0.80598 0.26380 0.31183
 H282 H 0.77685 0.32720 0.28154
 H283 H 0.75402 0.30174 0.25541
 C284 C 0.70433 0.20071 0.29545
 C285 C 0.79601 0.20414 0.20029
 C286 C 0.79319 0.29732 0.29850
 C287 C 0.70261 0.29398 0.20055
 C288 C 0.25993 0.71782 0.21541
 H289 H 0.24124 0.71664 0.21449
 C290 C 0.27358 0.70456 0.20032
 H291 H 0.26541 0.69303 0.18780
 C292 C 0.29350 0.73461 0.23253
 H293 H 0.30123 0.74666 0.24477
 C294 C 0.30777 0.72169 0.21777
 H295 H 0.32643 0.72362 0.21891
 N296 N 0.27004 0.73229 0.23127
 C297 C 0.21842 0.74083 0.28540
 H298 H 0.21760 0.76008 0.28635
 C299 C 0.20511 0.72692 0.30030
 H300 H 0.19391 0.73545 0.31271
 C301 C 0.23427 0.70613 0.26833
 H302 H 0.24592 0.69808 0.25613
 C303 C 0.22125 0.69157 0.28292
 H304 H 0.22274 0.67235 0.28172
 Zn305 Zn 0.25042 0.75047 0.25052
 N306 N 0.23245 0.73030 0.26965
 C307 C 0.20765 0.76773 0.23244
 N308 N 0.23119 0.76903 0.23119
 C309 C 0.24187 0.78316 0.21543
 C310 C 0.22881 0.79721 0.20049
 C311 C 0.19393 0.78150 0.21779
 C312 C 0.28237 0.75973 0.28550
 C313 C 0.29645 0.77344 0.29986
 C314 C 0.28088 0.80903 0.28224
 C315 C 0.26711 0.79463 0.26820
 N316 N 0.26839 0.77044 0.26980
 H317 H 0.19946 0.75599 0.24468
 H318 H 0.26060 0.78355 0.21457
 H319 H 0.23747 0.80854 0.18812
 H320 H 0.17521 0.78048 0.21894
 H321 H 0.28279 0.74048 0.28661
 H322 H 0.30775 0.76466 0.31207
 H323 H 0.27989 0.82827 0.28062
 H324 H 0.25550 0.80284 0.25603
 C325 C 0.20651 0.70206 0.29901
 C326 C 0.29772 0.70651 0.20156
 C327 C 0.29582 0.79834 0.29811
 C328 C 0.20463 0.79643 0.20175
 N329 N 1.02443 -0.04233 0.02435
 N330 N 1.04001 -0.05885 0.02904
 N331 N 0.97580 -0.02566 0.04018
 N332 N 0.96012 -0.03033 0.05603
 N333 N 0.97573 -0.04229 0.02434
 N334 N 0.96001 -0.05873 0.02898
 N335 N 1.02451 -0.02569 0.04019
 N336 N 1.04013 -0.03045 0.05609
 C337 C 1.04983 -0.05096 0.04867
 C338 C 0.95025 -0.05079 0.04858
 N339 N 0.97591 0.04229 0.02401
 N340 N 0.96023 0.05875 0.02852
 N341 N 1.02461 0.02578 0.04000
 N342 N 1.04024 0.03064 0.05587
 N343 N 1.02461 0.04231 0.02404
 N344 N 1.04025 0.05887 0.02863
 N345 N 0.97591 0.02576 0.03998
 N346 N 0.96023 0.03052 0.05578
 Mn347 Mn 1.00021 0.00005 0.04030
 C348 C 0.95043 0.05092 0.04817
 C349 C 1.05003 0.05110 0.04831
 N350 N 0.97568 -0.04246 -0.02509
 N351 N 0.95994 -0.05893 -0.02961
 N352 N 1.02442 -0.02594 -0.04102
 N353 N 1.04017 -0.03065 -0.05676
 N354 N 1.02439 -0.04247 -0.02506
 N355 N 1.04012 -0.05889 -0.02951
 N356 N 0.97571 -0.02593 -0.04105
 N357 N 0.95999 -0.03070 -0.05686
 Mn358 Mn 1.00006 -0.04261 -0.00036
 C359 C 0.95013 -0.05111 -0.04927
 C360 C 1.04998 -0.05103 -0.04912
 N361 N 1.02458 0.04212 -0.02538
 N362 N 1.04037 0.05852 -0.02996
 N363 N 0.97584 0.02550 -0.04126
 N364 N 0.96035 0.03032 -0.05727
 N365 N 0.97587 0.04215 -0.02543
 N366 N 0.96041 0.05875 -0.03026
 N367 N 1.02454 0.02549 -0.04122
 N368 N 1.04029 0.03011 -0.05700
 Mn369 Mn 1.00024 0.04244 -0.00069
 Mn370 Mn 1.00013 -0.00022 -0.04134
 Cl371 Cl 1.00016 -0.00008 -0.00052
 C372 C 1.05018 0.05055 -0.04952
 C373 C 0.95068 0.05087 -0.04994
 N374 N 1.02427 0.52489 0.54079
 N375 N 1.04014 0.52954 0.55649
 N376 N 0.97554 0.54138 0.52483
 N377 N 0.95984 0.55781 0.52938
 N378 N 0.97556 0.52482 0.54077
 N379 N 0.95986 0.52953 0.55657
 N380 N 1.02427 0.54144 0.52485
 N381 N 1.04015 0.55781 0.52927
 C382 C 1.05004 0.54992 0.54885
 C383 C 0.95004 0.54994 0.54902
 N384 N 0.97560 0.52462 0.45950
 N385 N 0.95998 0.52931 0.44358
 N386 N 1.02429 0.54135 0.47540
 N387 N 1.03997 0.55786 0.47077
 N388 N 1.02431 0.52471 0.45956
 N389 N 1.04000 0.52945 0.44373
 N390 N 0.97557 0.54125 0.47535
 N391 N 0.95993 0.55771 0.47062
 Mn392 Mn 0.99991 0.54158 0.50011
 C393 C 0.95018 0.54977 0.45098
 C394 C 1.04979 0.54996 0.45118
 N395 N 0.97552 0.47337 0.54092
 N396 N 0.95976 0.46872 0.55670
 N397 N 1.02422 0.45681 0.52509
 N398 N 1.04002 0.44047 0.52964
 N399 N 1.02424 0.47344 0.54095
 N400 N 1.04005 0.46885 0.55671
 N401 N 0.97549 0.45675 0.52507
 N402 N 0.95971 0.44032 0.52964
 Mn403 Mn 0.99990 0.49913 0.54106
 C404 C 0.94989 0.44826 0.54922
 C405 C 1.04990 0.44845 0.54920
 N406 N 1.02428 0.47323 0.45972
 N407 N 1.04001 0.46850 0.44395
 N408 N 0.97552 0.45664 0.47561
 N409 N 0.95967 0.44026 0.47115
 N410 N 0.97556 0.47319 0.45966
 N411 N 0.95975 0.46851 0.44392
 N412 N 1.02424 0.45668 0.47566
 N413 N 1.03995 0.44023 0.47116
 Mn414 Mn 0.99994 0.49894 0.45941
 Mn415 Mn 0.99986 0.45649 0.50036
 Cl416 Cl 0.99990 0.49904 0.50023
 C417 C 1.04980 0.44808 0.45154
 C418 C 0.94983 0.44813 0.45153
 N419 N 0.47444 0.04261 0.47551
 N420 N 0.46975 0.05905 0.45999
 N421 N 0.45851 0.02618 0.52374
 N422 N 0.44264 0.03085 0.53937
 N423 N 0.47462 0.04277 0.52365
 N424 N 0.47015 0.05919 0.53923
 N425 N 0.45833 0.02602 0.47561
 N426 N 0.44225 0.03071 0.46016
 C427 C 0.44984 0.05114 0.45039
 C428 C 0.45036 0.05127 0.54904
 N429 N 0.47445 -0.04180 0.52398
 N430 N 0.46989 -0.05813 0.53965
 N431 N 0.45821 -0.02542 0.47582
 N432 N 0.44192 -0.03043 0.46066
 N433 N 0.47425 -0.04201 0.47585
 N434 N 0.46930 -0.05876 0.46071
 N435 N 0.45840 -0.02521 0.52394
 N436 N 0.44249 -0.02980 0.53958
 Mn437 Mn 0.45815 0.00039 0.49978
 C438 C 0.45013 -0.05016 0.54939
 C439 C 0.44932 -0.05102 0.45117
 N440 N 0.52461 0.04279 0.52354
 N441 N 0.52935 0.05932 0.53897
 N442 N 0.54047 0.02600 0.47545
 N443 N 0.55635 0.03054 0.45977
 N444 N 0.52443 0.04259 0.47540
 N445 N 0.52896 0.05889 0.45969
 N446 N 0.54065 0.02619 0.52358
 N447 N 0.55673 0.03097 0.53902
 Mn448 Mn 0.49952 0.04292 0.49953
 C449 C 0.54922 0.05146 0.54864
 C450 C 0.54871 0.05089 0.44994
 N451 N 0.52426 -0.04198 0.47573
 N452 N 0.52881 -0.05847 0.46024
 N453 N 0.54055 -0.02523 0.52377
 N454 N 0.55666 -0.02996 0.53918
 N455 N 0.52444 -0.04183 0.52387
 N456 N 0.52917 -0.05830 0.53935
 N457 N 0.54037 -0.02539 0.47565
 N458 N 0.55630 -0.03012 0.46010
 Mn459 Mn 0.49935 -0.04213 0.49986
 Mn460 Mn 0.54072 0.00039 0.49961
 Cl461 Cl 0.49944 0.00039 0.49969
 C462 C 0.54863 -0.05058 0.45047
 C463 C 0.54909 -0.05040 0.54893
 N464 N 0.54114 0.52584 0.02489
 N465 N 0.55715 0.54205 0.02934
 N466 N 0.52506 0.47575 0.04096
 N467 N 0.52968 0.45959 0.05677
 N468 N 0.54111 0.47574 0.02501
 N469 N 0.55709 0.45958 0.02953
 N470 N 0.52509 0.52586 0.04084
 N471 N 0.52975 0.54207 0.05659
 C472 C 0.54958 0.55220 0.04894
 C473 C 0.54948 0.44949 0.04917
 N474 N 0.45895 0.47560 0.02517
 N475 N 0.44292 0.45948 0.02980
 N476 N 0.47510 0.52578 0.04096
 N477 N 0.47043 0.54185 0.05682
 N478 N 0.45897 0.52571 0.02506
 N479 N 0.44290 0.54174 0.02966
 N480 N 0.47508 0.47566 0.04107
 N481 N 0.47044 0.45957 0.05696
 Mn482 Mn 0.50009 0.50076 0.04118
 C483 C 0.45055 0.44945 0.04946
 C484 C 0.45052 0.55184 0.04929
 N485 N 0.54103 0.47564 -0.02439
 N486 N 0.55715 0.45970 -0.02905
 N487 N 0.52493 0.52570 -0.04041
 N488 N 0.52969 0.54163 -0.05641
 N489 N 0.54106 0.52575 -0.02450
 N490 N 0.55721 0.54171 -0.02924
 N491 N 0.52491 0.47558 -0.04030
 N492 N 0.52963 0.45960 -0.05621
 Mn493 Mn 0.54129 0.50074 0.00026
 C494 C 0.54957 0.44964 -0.04872
 C495 C 0.54964 0.55167 -0.04896
 N496 N 0.45889 0.52561 -0.02433
 N497 N 0.44289 0.54174 -0.02885
 N498 N 0.47490 0.47551 -0.04018
 N499 N 0.47018 0.45935 -0.05597
 N500 N 0.45886 0.47551 -0.02422
 N501 N 0.44280 0.45937 -0.02871
 N502 N 0.47493 0.52562 -0.04029
 N503 N 0.47027 0.54175 -0.05611
 Mn504 Mn 0.45871 0.50061 0.00041
 Mn505 Mn 0.49991 0.50060 -0.04051
 Cl506 Cl 0.50000 0.50068 0.00033
 C507 C 0.45046 0.55183 -0.04850
 C508 C 0.45034 0.44926 -0.04834
 C509 C 1.19105 0.18940 0.18645
 C510 C 1.17958 0.17723 0.17371
 C511 C 1.16593 0.16262 0.15854
 C512 C 1.14636 0.17212 0.14772
 C513 C 1.13298 0.15789 0.13314
 C514 C 1.13900 0.13392 0.12919
 C515 C 1.15876 0.12457 0.14010
 C516 C 1.17212 0.13885 0.15466
 C517 C 1.12452 0.11869 0.11403
 C518 C 1.11959 0.09491 0.12006
 C519 C 1.10534 0.08082 0.10616
 C520 C 1.09588 0.09026 0.08603
 C521 C 1.10090 0.11379 0.07973
 C522 C 1.11513 0.12792 0.09361
 C523 C 1.08027 0.07614 0.07235
 C524 C 1.06674 0.06456 0.06119
 H525 H 1.14137 0.19048 0.15066
 H526 H 1.11770 0.16551 0.12526
 H527 H 1.16399 0.10629 0.13720
 H528 H 1.18728 0.13134 0.16290
 H529 H 1.12630 0.08737 0.13581
 H530 H 1.10145 0.06267 0.11128
 H531 H 1.09365 0.12128 0.06419
 H532 H 1.11884 0.14605 0.08834
 C533 C 1.19339 0.68732 0.68524
 C534 C 1.18223 0.67497 0.67239
 C535 C 1.16870 0.66031 0.65717
 C536 C 1.15114 0.67053 0.64387
 C537 C 1.13764 0.65626 0.62943
 C538 C 1.14152 0.63153 0.62810
 C539 C 1.15934 0.62145 0.64142
 C540 C 1.17283 0.63576 0.65585
 C541 C 1.12671 0.61629 0.61326
 C542 C 1.11894 0.59389 0.62101
 C543 C 1.10425 0.57996 0.60742
 C544 C 1.09717 0.58818 0.58588
 C545 C 1.10505 0.61028 0.57787
 C546 C 1.11973 0.62425 0.59145
 C547 C 1.08108 0.57439 0.57244
 C548 C 1.06717 0.56307 0.56148
 H549 H 1.14774 0.68950 0.64482
 H550 H 1.12386 0.66452 0.61965
 H551 H 1.16293 0.60252 0.64058
 H552 H 1.18641 0.62767 0.66604
 H553 H 1.12374 0.58740 0.63783
 H554 H 1.09813 0.56295 0.61385
 H555 H 1.09966 0.61683 0.56123
 H556 H 1.12565 0.64127 0.58487
 C557 C 0.68791 0.18972 0.68912
 C558 C 0.67557 0.17730 0.67746
 C559 C 0.66069 0.16252 0.66364
 C560 C 0.64700 0.17278 0.64647
 C561 C 0.63245 0.15848 0.63310
 C562 C 0.63140 0.13368 0.63672
 C563 C 0.64522 0.12354 0.65404
 C564 C 0.65975 0.13789 0.66741
 C565 C 0.61615 0.11846 0.62231
 C566 C 0.62391 0.09617 0.61438
 C567 C 0.60981 0.08216 0.60027
 C568 C 0.58777 0.09019 0.59393
 C569 C 0.57978 0.11221 0.60193
 C570 C 0.59386 0.12626 0.61603
 C571 C 0.57375 0.07627 0.57851
 C572 C 0.56233 0.06481 0.56515
 H573 H 0.64763 0.19183 0.64339
 H574 H 0.62229 0.16678 0.61969
 H575 H 0.64459 0.10456 0.65742
 H576 H 0.67020 0.12978 0.68072
 H577 H 0.64108 0.08980 0.61866
 H578 H 0.61622 0.06521 0.59405
 H579 H 0.56275 0.11861 0.59711
 H580 H 0.58728 0.14319 0.62210
 C581 C 0.68822 0.69355 0.18589
 C582 C 0.67595 0.68251 0.17297
 C583 C 0.66115 0.66931 0.15770
 C584 C 0.63742 0.67435 0.15672
 C585 C 0.62293 0.66121 0.14224
 C586 C 0.63200 0.64284 0.12853
 C587 C 0.65592 0.63805 0.12951
 C588 C 0.67038 0.65120 0.14401
 C589 C 0.61655 0.62839 0.11363
 C590 C 0.62373 0.62148 0.09159
 C591 C 0.60953 0.60707 0.07795
 C592 C 0.58798 0.59941 0.08615
 C593 C 0.58053 0.60646 0.10792
 C594 C 0.59469 0.62088 0.12157
 C595 C 0.57402 0.58341 0.07268
 C596 C 0.56264 0.56947 0.06168
 H597 H 0.63012 0.68838 0.16721
 H598 H 0.60465 0.66551 0.14167
 H599 H 0.66337 0.62381 0.11941
 H600 H 0.68871 0.64710 0.14470
 H601 H 0.64033 0.62723 0.08489
 H602 H 0.61548 0.60169 0.06114
 H603 H 0.56395 0.60048 0.11449
 H604 H 0.58881 0.62563 0.13857
 C605 C 0.80954 -0.18872 0.18706
 C606 C 0.82097 -0.17636 0.17448
 C607 C 0.83459 -0.16150 0.15953
 C608 C 0.85132 -0.14613 0.16870
 C609 C 0.86459 -0.13170 0.15423
 C610 C 0.86131 -0.13245 0.13035
 C611 C 0.84441 -0.14794 0.12129
 C612 C 0.83113 -0.16235 0.13581
 C613 C 0.87569 -0.11738 0.11497
 C614 C 0.88443 -0.12665 0.09432
 C615 C 0.89864 -0.11272 0.08026
 C616 C 0.90426 -0.08935 0.08660
 C617 C 0.89541 -0.07985 0.10694
 C618 C 0.88120 -0.09375 0.12104
 C619 C 0.91989 -0.07547 0.07275
 C620 C 0.93347 -0.06406 0.06150
 H621 H 0.85417 -0.14537 0.18704
 H622 H 0.87769 -0.12023 0.16170
 H623 H 0.84129 -0.14872 0.10301
 H624 H 0.81816 -0.17413 0.12854
 H625 H 0.88074 -0.14486 0.08932
 H626 H 0.90553 -0.12030 0.06461
 H627 H 0.89967 -0.06179 0.11203
 H628 H 0.87450 -0.08601 0.13667
 C629 C 0.80604 0.31246 0.68688
 C630 C 0.81736 0.32489 0.67422
 C631 C 0.83106 0.33971 0.65927
 C632 C 0.84620 0.35670 0.66853
 C633 C 0.85983 0.37084 0.65409
 C634 C 0.85852 0.36818 0.63015
 C635 C 0.84315 0.35113 0.62100
 C636 C 0.82952 0.33701 0.63548
 C637 C 0.87344 0.38285 0.61486
 C638 C 0.88415 0.37259 0.59559
 C639 C 0.89885 0.38618 0.58168
 C640 C 0.90301 0.41019 0.58678
 C641 C 0.89221 0.42065 0.60573
 C642 C 0.87751 0.40709 0.61967
 C643 C 0.91903 0.42384 0.57312
 C644 C 0.93287 0.43510 0.56200
 H645 H 0.84760 0.35889 0.68692
 H646 H 0.87172 0.38354 0.66169
 H647 H 0.84154 0.34885 0.60265
 H648 H 0.81782 0.32395 0.62812
 H649 H 0.88162 0.35391 0.59159
 H650 H 0.90722 0.37786 0.56714
 H651 H 0.89531 0.43922 0.60986
 H652 H 0.86929 0.41559 0.63419
 C653 C 0.31191 -0.18809 0.69006
 C654 C 0.32425 -0.17549 0.67860
 C655 C 0.33913 -0.16050 0.66504
 C656 C 0.36316 -0.16126 0.66820
 C657 C 0.37766 -0.14683 0.65493
 C658 C 0.36829 -0.13141 0.63832
 C659 C 0.34409 -0.13071 0.63535
 C660 C 0.32962 -0.14518 0.64863
 C661 C 0.38367 -0.11639 0.62390
 C662 C 0.37750 -0.09277 0.61851
 C663 C 0.39163 -0.07892 0.60430
 C664 C 0.41209 -0.08845 0.59533
 C665 C 0.41852 -0.11181 0.60082
 C666 C 0.40443 -0.12570 0.61503
 C667 C 0.42594 -0.07465 0.57971
 C668 C 0.43720 -0.06332 0.56615
 H669 H 0.37068 -0.17302 0.68092
 H670 H 0.39619 -0.14755 0.65780
 H671 H 0.33637 -0.11928 0.62248
 H672 H 0.31104 -0.14450 0.64601
 H673 H 0.36179 -0.08501 0.62532
 H674 H 0.38648 -0.06086 0.60013
 H675 H 0.43425 -0.11942 0.59383
 H676 H 0.40950 -0.14391 0.61862
 C677 C 0.31261 0.30714 0.18645
 C678 C 0.32487 0.31837 0.17365
 C679 C 0.33963 0.33180 0.15851
 C680 C 0.36351 0.32751 0.15817
 C681 C 0.37793 0.34084 0.14377
 C682 C 0.36862 0.35865 0.12950
 C683 C 0.34455 0.36270 0.12986
 C684 C 0.33017 0.34937 0.14428
 C685 C 0.38396 0.37325 0.11462
 C686 C 0.37702 0.37950 0.09229
 C687 C 0.39111 0.39397 0.07862
 C688 C 0.41233 0.40237 0.08705
 C689 C 0.41953 0.39600 0.10911
 C690 C 0.40547 0.38152 0.12281
 C691 C 0.42620 0.41836 0.07347
 C692 C 0.43752 0.43226 0.06236
 H693 H 0.37100 0.31391 0.16908
 H694 H 0.39633 0.33710 0.14368
 H695 H 0.33690 0.37651 0.11933
 H696 H 0.31172 0.35288 0.14447
 H697 H 0.36070 0.37316 0.08539
 H698 H 0.38536 0.39882 0.06157
 H699 H 0.43585 0.40254 0.11586
 H700 H 0.41117 0.37729 0.14002
 C701 C 0.80965 0.18949 -0.18768
 C702 C 0.82139 0.17730 -0.17524
 C703 C 0.83547 0.16267 -0.16052
 C704 C 0.85925 0.16054 -0.16469
 C705 C 0.87296 0.14616 -0.15058
 C706 C 0.86305 0.13368 -0.13208
 C707 C 0.83913 0.13602 -0.12797
 C708 C 0.82544 0.15040 -0.14213
 C709 C 0.87763 0.11830 -0.11720
 C710 C 0.87444 0.11802 -0.09330
 C711 C 0.88856 0.10389 -0.07931
 C712 C 0.90597 0.08982 -0.08904
 C713 C 0.90912 0.08980 -0.11280
 C714 C 0.89506 0.10392 -0.12680
 C715 C 0.92110 0.07588 -0.07472
 C716 C 0.93430 0.06436 -0.06314
 H717 H 0.86721 0.17000 -0.17884
 H718 H 0.89137 0.14502 -0.15400
 H719 H 0.83094 0.12643 -0.11404
 H720 H 0.80703 0.15186 -0.13878
 H721 H 0.86135 0.12909 -0.08537
 H722 H 0.88605 0.10412 -0.06092
 H723 H 0.92254 0.07897 -0.12052
 H724 H 0.89773 0.10348 -0.14515
 C725 C 0.80757 0.68747 0.31404
 C726 C 0.81922 0.67511 0.32641
 C727 C 0.83332 0.66033 0.34099
 C728 C 0.85620 0.65524 0.33479
 C729 C 0.86995 0.64085 0.34885
 C730 C 0.86099 0.63134 0.36934
 C731 C 0.83797 0.63661 0.37545
 C732 C 0.82423 0.65099 0.36134
 C733 C 0.87568 0.61609 0.38425
 C734 C 0.87509 0.61860 0.40824
 C735 C 0.88945 0.60468 0.42218
 C736 C 0.90451 0.58804 0.41234
 C737 C 0.90501 0.58523 0.38853
 C738 C 0.89070 0.59913 0.37457
 C739 C 0.92001 0.57436 0.42650
 C740 C 0.93350 0.56305 0.43794
 H741 H 0.86343 0.66243 0.31912
 H742 H 0.88769 0.63743 0.34383
 H743 H 0.83050 0.62934 0.39097
 H744 H 0.80652 0.65477 0.36628
 H745 H 0.86392 0.63168 0.41619
 H746 H 0.88901 0.60709 0.44058
 H747 H 0.91659 0.57240 0.38073
 H748 H 0.89132 0.59653 0.35620
 C749 C 0.30971 0.18772 0.31028
 C750 C 0.32230 0.17542 0.32179
 C751 C 0.33742 0.16077 0.33541
 C752 C 0.36146 0.16388 0.33413
 C753 C 0.37618 0.14971 0.34741
 C754 C 0.36703 0.13221 0.36215
 C755 C 0.34283 0.12917 0.36325
 C756 C 0.32814 0.14337 0.34996
 C757 C 0.38261 0.11740 0.37657
 C758 C 0.37805 0.09297 0.37985
 C759 C 0.39234 0.07922 0.39398
 C760 C 0.41137 0.08968 0.40498
 C761 C 0.41620 0.11389 0.40163
 C762 C 0.40195 0.12767 0.38750
 C763 C 0.42537 0.07582 0.42043
 C764 C 0.43675 0.06441 0.43384
 H765 H 0.36882 0.17725 0.32286
 H766 H 0.39473 0.15228 0.34598
 H767 H 0.33524 0.11609 0.37466
 H768 H 0.30956 0.14084 0.35112
 H769 H 0.36348 0.08448 0.37143
 H770 H 0.38843 0.06049 0.39648
 H771 H 0.43080 0.12220 0.41019
 H772 H 0.40574 0.14648 0.38556
 C773 C 0.30984 0.69186 -0.18430
 C774 C 0.32235 0.68084 -0.17162
 C775 C 0.33745 0.66771 -0.15661
 C776 C 0.36127 0.67245 -0.15652
 C777 C 0.37603 0.65944 -0.14223
 C778 C 0.36712 0.64152 -0.12782
 C779 C 0.34312 0.63701 -0.12793
 C780 C 0.32839 0.65003 -0.14225
 C781 C 0.38282 0.62724 -0.11307
 C782 C 0.37624 0.62100 -0.09064
 C783 C 0.39065 0.60678 -0.07710
 C784 C 0.41180 0.59863 -0.08576
 C785 C 0.41865 0.60501 -0.10792
 C786 C 0.40429 0.61925 -0.12149
 C787 C 0.42592 0.58279 -0.07233
 C788 C 0.43737 0.56897 -0.06132
 H789 H 0.36845 0.68615 -0.16754
 H790 H 0.39439 0.66351 -0.14233
 H791 H 0.33578 0.62311 -0.11728
 H792 H 0.30998 0.64618 -0.14224
 H793 H 0.35996 0.62714 -0.08358
 H794 H 0.38516 0.60190 -0.05997
 H795 H 0.43492 0.59864 -0.11485
 H796 H 0.40969 0.62349 -0.13878
 C797 C 1.19076 -0.18852 -0.18704
 C798 C 1.17948 -0.17636 -0.17421
 C799 C 1.16602 -0.16178 -0.15895
 C800 C 1.14759 -0.17176 -0.14667
 C801 C 1.13433 -0.15754 -0.13205
 C802 C 1.13935 -0.13311 -0.12954
 C803 C 1.15801 -0.12327 -0.14187
 C804 C 1.17125 -0.13753 -0.15647
 C805 C 1.12491 -0.11790 -0.11443
 C806 C 1.11845 -0.09481 -0.12139
 C807 C 1.10417 -0.08081 -0.10754
 C808 C 1.09621 -0.08965 -0.08655
 C809 C 1.10278 -0.11245 -0.07932
 C810 C 1.11705 -0.12650 -0.09315
 C811 C 1.08049 -0.07573 -0.07292
 C812 C 1.06684 -0.06431 -0.06184
 H813 H 1.14336 -0.19050 -0.14851
 H814 H 1.11989 -0.16557 -0.12304
 H815 H 1.16247 -0.10460 -0.14009
 H816 H 1.18554 -0.12965 -0.16586
 H817 H 1.12396 -0.08781 -0.13780
 H818 H 1.09905 -0.06324 -0.11337
 H819 H 1.09669 -0.11947 -0.06310
 H820 H 1.12196 -0.14406 -0.08719
 C821 C 1.19352 0.31220 0.31450
 C822 C 1.18208 0.32449 0.32711
 C823 C 1.16832 0.33917 0.34205
 C824 C 1.15575 0.35836 0.33310
 C825 C 1.14210 0.37244 0.34751
 C826 C 1.14082 0.36750 0.37112
 C827 C 1.15362 0.34824 0.37998
 C828 C 1.16727 0.33419 0.36553
 C829 C 1.12586 0.38212 0.38633
 C830 C 1.11247 0.37125 0.40358
 C831 C 1.09782 0.38490 0.41740
 C832 C 1.09636 0.40959 0.41422
 C833 C 1.10980 0.42063 0.39729
 C834 C 1.12446 0.40701 0.38344
 C835 C 1.08046 0.42344 0.42777
 C836 C 1.06671 0.43482 0.43880
 H837 H 1.15637 0.36234 0.31494
 H838 H 1.13221 0.38691 0.34010
 H839 H 1.15323 0.34416 0.39810
 H840 H 1.17698 0.31942 0.37266
 H841 H 1.11291 0.35212 0.40604
 H842 H 1.08739 0.37615 0.43036
 H843 H 1.10880 0.43973 0.39466
 H844 H 1.13475 0.41595 0.37052
 C845 C 0.68930 -0.18707 0.31153
 C846 C 0.67656 -0.17491 0.32292
 C847 C 0.66123 -0.16042 0.33642
 C848 C 0.64968 -0.17028 0.35524
 C849 C 0.63476 -0.15622 0.36836
 C850 C 0.63121 -0.13208 0.36280
 C851 C 0.64288 -0.12234 0.34381
 C852 C 0.65779 -0.13644 0.33070
 C853 C 0.61566 -0.11706 0.37698
 C854 C 0.62194 -0.09352 0.38258
 C855 C 0.60767 -0.07966 0.39658
 C856 C 0.58694 -0.08911 0.40510
 C857 C 0.58038 -0.11240 0.39938
 C858 C 0.59463 -0.12630 0.38540
 C859 C 0.57293 -0.07529 0.42051
 C860 C 0.56158 -0.06389 0.43390
 H861 H 0.65226 -0.18881 0.35983
 H862 H 0.62629 -0.16414 0.38307
 H863 H 0.64030 -0.10390 0.33895
 H864 H 0.66659 -0.12866 0.31610
 H865 H 0.63815 -0.08601 0.37661
 H866 H 0.61299 -0.06171 0.40103
 H867 H 0.56437 -0.11990 0.40592
 H868 H 0.58917 -0.14424 0.38114
 C869 C 0.68973 0.31000 -0.18542
 C870 C 0.67717 0.32125 -0.17298
 C871 C 0.66202 0.33467 -0.15829
 C872 C 0.64785 0.35246 -0.16756
 C873 C 0.63309 0.36553 -0.15336
 C874 C 0.63232 0.36098 -0.12965
 C875 C 0.64662 0.34303 -0.12051
 C876 C 0.66136 0.32996 -0.13475
 C877 C 0.61691 0.37515 -0.11454
 C878 C 0.62471 0.38302 -0.09298
 C879 C 0.61051 0.39711 -0.07913
 C880 C 0.58831 0.40348 -0.08660
 C881 C 0.58025 0.39547 -0.10787
 C882 C 0.59443 0.38139 -0.12175
 C883 C 0.57423 0.41911 -0.07291
 C884 C 0.56276 0.43273 -0.06170
 H885 H 0.64826 0.35629 -0.18575
 H886 H 0.62256 0.37946 -0.16087
 H887 H 0.64623 0.33892 -0.10238
 H888 H 0.67220 0.31617 -0.12742
 H889 H 0.64202 0.37878 -0.08707
 H890 H 0.61698 0.40335 -0.06276
 H891 H 0.56311 0.40032 -0.11383
 H892 H 0.58781 0.37534 -0.13812
 C893 C 1.19187 0.18814 -0.18730
 C894 C 1.18050 0.17592 -0.17453
 C895 C 1.16694 0.16127 -0.15935
 C896 C 1.17127 0.13677 -0.15780
 C897 C 1.15791 0.12247 -0.14328
 C898 C 1.14002 0.13251 -0.13008
 C899 C 1.13590 0.15719 -0.13165
 C900 C 1.14928 0.17145 -0.14620
 C901 C 1.12544 0.11728 -0.11503
 C902 C 1.11855 0.12536 -0.09326
 C903 C 1.10419 0.11131 -0.07945
 C904 C 1.09655 0.08902 -0.08718
 C905 C 1.10353 0.08070 -0.10868
 C906 C 1.11790 0.09470 -0.12252
 C907 C 1.08077 0.07514 -0.07349
 C908 C 1.06708 0.06376 -0.06235
 H909 H 1.18496 0.12872 -0.16786
 H910 H 1.16169 0.10359 -0.14223
 H911 H 1.12206 0.16540 -0.12197
 H912 H 1.14574 0.19039 -0.14731
 H913 H 1.12430 0.14251 -0.08690
 H914 H 1.09886 0.11794 -0.06284
 H915 H 1.09759 0.06353 -0.11489
 H916 H 1.12265 0.08811 -0.13930
 C917 C 1.19294 0.68738 0.31419
 C918 C 1.18151 0.67509 0.32688
 C919 C 1.16776 0.66045 0.34195
 C920 C 1.17119 0.63576 0.34266
 C921 C 1.15759 0.62150 0.35703
 C922 C 1.14035 0.63176 0.37092
 C923 C 1.13715 0.65663 0.37017
 C924 C 1.15076 0.67085 0.35578
 C925 C 1.12551 0.61659 0.38582
 C926 C 1.11927 0.62425 0.40793
 C927 C 1.10471 0.61029 0.42165
 C928 C 1.09621 0.58849 0.41348
 C929 C 1.10251 0.58060 0.39162
 C930 C 1.11708 0.59452 0.37789
 C931 C 1.08035 0.57465 0.42716
 C932 C 1.06665 0.56325 0.43832
 H933 H 1.18434 0.62752 0.33207
 H934 H 1.16068 0.60246 0.35742
 H935 H 1.12382 0.66505 0.38039
 H936 H 1.14790 0.68994 0.35531
 H937 H 1.12571 0.64100 0.41465
 H938 H 1.09993 0.61659 0.43854
 H939 H 1.09592 0.56383 0.38507
 H940 H 1.12130 0.58826 0.36085
 C941 C 0.68933 0.18597 0.30913
 C942 C 0.67661 0.17366 0.32047
 C943 C 0.66132 0.15902 0.33394
 C944 C 0.67038 0.14134 0.34827
 C945 C 0.65554 0.12725 0.36152
 C946 C 0.63140 0.13070 0.36059
 C947 C 0.62245 0.14845 0.34604
 C948 C 0.63734 0.16251 0.33280
 C949 C 0.61568 0.11609 0.37506
 C950 C 0.59674 0.12668 0.38628
 C951 C 0.58243 0.11311 0.40056
 C952 C 0.58682 0.08880 0.40377
 C953 C 0.60542 0.07803 0.39245
 C954 C 0.61976 0.09157 0.37817
 C955 C 0.57289 0.07519 0.41947
 C956 C 0.56160 0.06397 0.43311
 H957 H 0.68893 0.13854 0.34931
 H958 H 0.66297 0.11396 0.37279
 H959 H 0.60395 0.15133 0.34476
 H960 H 0.63014 0.17611 0.32170
 H961 H 0.59333 0.14557 0.38447
 H962 H 0.56817 0.12165 0.40937
 H963 H 0.60898 0.05923 0.39484
 H964 H 0.63402 0.08286 0.36953
 C965 C 0.68995 0.69143 -0.18613
 C966 C 0.67750 0.68025 -0.17346
 C967 C 0.66251 0.66695 -0.15844
 C968 C 0.67161 0.64897 -0.14448
 C969 C 0.65700 0.63587 -0.13007
 C970 C 0.63306 0.64058 -0.12948
 C971 C 0.62410 0.65878 -0.14351
 C972 C 0.63874 0.67187 -0.15789
 C973 C 0.61747 0.62629 -0.11456
 C974 C 0.59567 0.61870 -0.12260
 C975 C 0.58135 0.60454 -0.10885
 C976 C 0.58858 0.59784 -0.08688
 C977 C 0.61009 0.60556 -0.07861
 C978 C 0.62445 0.61970 -0.09233
 C979 C 0.57440 0.58220 -0.07323
 C980 C 0.56287 0.56857 -0.06201
 H981 H 0.68997 0.64497 -0.14482
 H982 H 0.66438 0.62176 -0.11972
 H983 H 0.60580 0.66302 -0.14323
 H984 H 0.63153 0.68580 -0.16859
 H985 H 0.58993 0.62320 -0.13972
 H986 H 0.56479 0.59853 -0.11548
 H987 H 0.61587 0.60045 -0.06164
 H988 H 0.64099 0.62552 -0.08555
 C989 C 0.80825 -0.18859 -0.18725
 C990 C 0.81965 -0.17640 -0.17446
 C991 C 0.83327 -0.16181 -0.15925
 C992 C 0.82853 -0.13744 -0.15715
 C993 C 0.84194 -0.12319 -0.14260
 C994 C 0.86028 -0.13316 -0.12991
 C995 C 0.86481 -0.15772 -0.13205
 C996 C 0.85139 -0.17192 -0.14663
 C997 C 0.87489 -0.11798 -0.11482
 C998 C 0.88242 -0.12643 -0.09336
 C999 C 0.89680 -0.11242 -0.07952
 C1000 C 0.90383 -0.08979 -0.08691
 C1001 C 0.89622 -0.08110 -0.10810
 C1002 C 0.88183 -0.09507 -0.12196
 C1003 C 0.91960 -0.07588 -0.07321
 C1004 C 0.93327 -0.06444 -0.06207
 H1005 H 0.81450 -0.12944 -0.16679
 H1006 H 0.83785 -0.10442 -0.14112
 H1007 H 0.87900 -0.16587 -0.12278
 H1008 H 0.85524 -0.19075 -0.14817
 H1009 H 0.87713 -0.14385 -0.08726
 H1010 H 0.90260 -0.11932 -0.06316
 H1011 H 0.90168 -0.06367 -0.11405
 H1012 H 0.87659 -0.08819 -0.13850
 C1013 C 0.80658 0.31184 0.31397
 C1014 C 0.81786 0.32400 0.32688
 C1015 C 0.83146 0.33850 0.34219
 C1016 C 0.82718 0.36299 0.34392
 C1017 C 0.84069 0.37715 0.35847
 C1018 C 0.85867 0.36696 0.37151
 C1019 C 0.86271 0.34229 0.36975
 C1020 C 0.84919 0.32817 0.35518
 C1021 C 0.87346 0.38205 0.38651
 C1022 C 0.88063 0.37376 0.40815
 C1023 C 0.89526 0.38762 0.42188
 C1024 C 0.90290 0.40994 0.41420
 C1025 C 0.89564 0.41847 0.39284
 C1026 C 0.88100 0.40465 0.37909
 C1027 C 0.91892 0.42366 0.42779
 C1028 C 0.93277 0.43496 0.43884
 H1029 H 0.81346 0.37116 0.33398
 H1030 H 0.83697 0.39603 0.35965
 H1031 H 0.87661 0.33397 0.37929
 H1032 H 0.85270 0.30925 0.35391
 H1033 H 0.87489 0.35658 0.41447
 H1034 H 0.90079 0.38084 0.43838
 H1035 H 0.90157 0.43566 0.38666
 H1036 H 0.87605 0.41140 0.36240
 C1037 C 0.30924 -0.18852 0.31104
 C1038 C 0.32171 -0.17643 0.32290
 C1039 C 0.33667 -0.16207 0.33703
 C1040 C 0.34681 -0.17188 0.35666
 C1041 C 0.36131 -0.15796 0.37046
 C1042 C 0.36588 -0.13401 0.36477
 C1043 C 0.35568 -0.12435 0.34493
 C1044 C 0.34116 -0.13830 0.33117
 C1045 C 0.38105 -0.11915 0.37960
 C1046 C 0.39710 -0.10311 0.36994
 C1047 C 0.41132 -0.08912 0.38400
 C1048 C 0.40965 -0.09097 0.40785
 C1049 C 0.39373 -0.10686 0.41760
 C1050 C 0.37952 -0.12085 0.40360
 C1051 C 0.42410 -0.07658 0.42247
 C1052 C 0.43584 -0.06476 0.43525
 H1053 H 0.34353 -0.19029 0.36130
 H1054 H 0.36915 -0.16601 0.38544
 H1055 H 0.35863 -0.10590 0.34026
 H1056 H 0.33337 -0.13053 0.31602
 H1057 H 0.39887 -0.10159 0.35154
 H1058 H 0.42362 -0.07691 0.37627
 H1059 H 0.39222 -0.10836 0.43605
 H1060 H 0.36712 -0.13276 0.41156
 C1061 C 0.31020 0.30838 -0.18443
 C1062 C 0.32277 0.31965 -0.17198
 C1063 C 0.33795 0.33310 -0.15728
 C1064 C 0.33811 0.32890 -0.13364
 C1065 C 0.35286 0.34203 -0.11939
 C1066 C 0.36768 0.35952 -0.12863
 C1067 C 0.36742 0.36355 -0.15243
 C1068 C 0.35265 0.35042 -0.16663
 C1069 C 0.38309 0.37379 -0.11353
 C1070 C 0.40581 0.37946 -0.12043
 C1071 C 0.41999 0.39371 -0.10662
 C1072 C 0.41167 0.40244 -0.08574
 C1073 C 0.38922 0.39662 -0.07857
 C1074 C 0.37502 0.38236 -0.09234
 C1075 C 0.42573 0.41829 -0.07221
 C1076 C 0.43719 0.43212 -0.06115
 H1077 H 0.32686 0.31546 -0.12624
 H1078 H 0.35285 0.33834 -0.10118
 H1079 H 0.37836 0.37713 -0.16002
 H1080 H 0.35262 0.35385 -0.18490
 H1081 H 0.41262 0.37287 -0.13649
 H1082 H 0.43733 0.39814 -0.11234
 H1083 H 0.38256 0.40343 -0.06251
 H1084 H 0.35753 0.37856 -0.08669
 C1085 C 1.19087 -0.18909 0.18660
 C1086 C 1.17941 -0.17688 0.17391
 C1087 C 1.16575 -0.16225 0.15881
 C1088 C 1.17160 -0.13826 0.15546
 C1089 C 1.15821 -0.12397 0.14095
 C1090 C 1.13879 -0.13352 0.12957
 C1091 C 1.13313 -0.15769 0.13298
 C1092 C 1.14652 -0.17193 0.14751
 C1093 C 1.12430 -0.11829 0.11444
 C1094 C 1.11541 -0.12730 0.09371
 C1095 C 1.10117 -0.11320 0.07985
 C1096 C 1.09565 -0.08992 0.08649
 C1097 C 1.10462 -0.08069 0.10694
 C1098 C 1.11888 -0.09475 0.12082
 C1099 C 1.08004 -0.07585 0.07280
 C1100 C 1.06652 -0.06432 0.06160
 H1101 H 1.18649 -0.13059 0.16407
 H1102 H 1.16318 -0.10552 0.13847
 H1103 H 1.11810 -0.16549 0.12473
 H1104 H 1.14180 -0.19046 0.15003
 H1105 H 1.11952 -0.14523 0.08819
 H1106 H 1.09431 -0.12053 0.06407
 H1107 H 1.10034 -0.06274 0.11231
 H1108 H 1.12520 -0.08740 0.13680
 C1109 C 1.19318 0.31150 0.68582
 C1110 C 1.18194 0.32378 0.67300
 C1111 C 1.16835 0.33839 0.65781
 C1112 C 1.17253 0.36294 0.65639
 C1113 C 1.15899 0.37720 0.64199
 C1114 C 1.14108 0.36706 0.62879
 C1115 C 1.13714 0.34232 0.63023
 C1116 C 1.15068 0.32811 0.64465
 C1117 C 1.12627 0.38224 0.61392
 C1118 C 1.11918 0.37418 0.59217
 C1119 C 1.10454 0.38812 0.57856
 C1120 C 1.09682 0.41027 0.58646
 C1121 C 1.10400 0.41858 0.60793
 C1122 C 1.11865 0.40469 0.62157
 C1123 C 1.08080 0.42405 0.57295
 C1124 C 1.06695 0.43534 0.56193
 H1125 H 1.18619 0.37107 0.66647
 H1126 H 1.16264 0.39612 0.64105
 H1127 H 1.12328 0.33403 0.62056
 H1128 H 1.14723 0.30914 0.64568
 H1129 H 1.12499 0.35714 0.58567
 H1130 H 1.09908 0.38150 0.56197
 H1131 H 1.09800 0.43564 0.61428
 H1132 H 1.12354 0.41126 0.63833
 C1133 C 0.68767 -0.18909 0.68871
 C1134 C 0.67538 -0.17662 0.67708
 C1135 C 0.66054 -0.16179 0.66332
 C1136 C 0.65964 -0.13718 0.66724
 C1137 C 0.64513 -0.12278 0.65396
 C1138 C 0.63129 -0.13283 0.63659
 C1139 C 0.63231 -0.15759 0.63282
 C1140 C 0.64684 -0.17195 0.64610
 C1141 C 0.61604 -0.11754 0.62229
 C1142 C 0.59373 -0.12536 0.61599
 C1143 C 0.57966 -0.11126 0.60198
 C1144 C 0.58766 -0.08916 0.59409
 C1145 C 0.60972 -0.08110 0.60045
 C1146 C 0.62382 -0.09517 0.61448
 C1147 C 0.57365 -0.07520 0.57873
 C1148 C 0.56223 -0.06374 0.56541
 H1149 H 0.67010 -0.12915 0.68060
 H1150 H 0.64452 -0.10383 0.65746
 H1151 H 0.62212 -0.16581 0.61937
 H1152 H 0.64743 -0.19097 0.64291
 H1153 H 0.58713 -0.14235 0.62198
 H1154 H 0.56262 -0.11768 0.59714
 H1155 H 0.61615 -0.06409 0.59432
 H1156 H 0.64100 -0.08878 0.61878
 C1157 C 0.68811 0.30766 0.18544
 C1158 C 0.67574 0.31910 0.17296
 C1159 C 0.66078 0.33279 0.15829
 C1160 C 0.64916 0.35268 0.16701
 C1161 C 0.63450 0.36597 0.15288
 C1162 C 0.63127 0.35953 0.12980
 C1163 C 0.64303 0.33950 0.12119
 C1164 C 0.65768 0.32621 0.13537
 C1165 C 0.61589 0.37386 0.11477
 C1166 C 0.62246 0.37918 0.09212
 C1167 C 0.60839 0.39348 0.07829
 C1168 C 0.58756 0.40256 0.08688
 C1169 C 0.58070 0.39706 0.10926
 C1170 C 0.59475 0.38279 0.12312
 C1171 C 0.57377 0.41844 0.07316
 C1172 C 0.56250 0.43230 0.06201
 H1173 H 0.65147 0.35795 0.18473
 H1174 H 0.62596 0.38150 0.15993
 H1175 H 0.64070 0.33395 0.10357
 H1176 H 0.66654 0.31078 0.12848
 H1177 H 0.63876 0.37281 0.08531
 H1178 H 0.61393 0.39777 0.06104
 H1179 H 0.56463 0.40403 0.11608
 H1180 H 0.58908 0.37874 0.14037
 C1181 C 0.80985 0.18962 0.18532
 C1182 C 0.82137 0.17729 0.17286
 C1183 C 0.83510 0.16243 0.15810
 C1184 C 0.82947 0.16027 0.13487
 C1185 C 0.84278 0.14575 0.12056
 C1186 C 0.86190 0.13316 0.12935
 C1187 C 0.86740 0.13544 0.15274
 C1188 C 0.85408 0.14999 0.16700
 C1189 C 0.87621 0.11787 0.11419
 C1190 C 0.88449 0.09571 0.12199
 C1191 C 0.89860 0.08168 0.10800
 C1192 C 0.90461 0.08957 0.08605
 C1193 C 0.89623 0.11144 0.07801
 C1194 C 0.88209 0.12550 0.09197
 C1195 C 0.92017 0.07570 0.07220
 C1196 C 0.93370 0.06426 0.06100
 H1197 H 0.81476 0.16977 0.12782
 H1198 H 0.83797 0.14414 0.10269
 H1199 H 0.88220 0.12626 0.15995
 H1200 H 0.85862 0.15157 0.18495
 H1201 H 0.88000 0.08921 0.13888
 H1202 H 0.90501 0.06479 0.11439
 H1203 H 0.90091 0.11779 0.06109
 H1204 H 0.87623 0.14259 0.08558
 C1205 C 0.80701 0.68685 0.68588
 C1206 C 0.81846 0.67438 0.67344
 C1207 C 0.83234 0.65949 0.65879
 C1208 C 0.82604 0.65597 0.63587
 C1209 C 0.83968 0.64165 0.62164
 C1210 C 0.85981 0.63063 0.63019
 C1211 C 0.86595 0.63425 0.65327
 C1212 C 0.85231 0.64858 0.66744
 C1213 C 0.87452 0.61562 0.61509
 C1214 C 0.88450 0.59444 0.62343
 C1215 C 0.89897 0.58074 0.60948
 C1216 C 0.90366 0.58796 0.58700
 C1217 C 0.89359 0.60884 0.57843
 C1218 C 0.87909 0.62257 0.59235
 C1219 C 0.91947 0.57440 0.57309
 C1220 C 0.93316 0.56316 0.56185
 H1221 H 0.81059 0.66429 0.62900
 H1222 H 0.83434 0.63900 0.60404
 H1223 H 0.88151 0.62632 0.66028
 H1224 H 0.85740 0.65125 0.68513
 H1225 H 0.88107 0.58843 0.64073
 H1226 H 0.90666 0.56461 0.61630
 H1227 H 0.89720 0.61468 0.56110
 H1228 H 0.87191 0.63892 0.58551
 C1229 C 0.31231 0.18809 0.69031
 C1230 C 0.32465 0.17566 0.67875
 C1231 C 0.33954 0.16088 0.66506
 C1232 C 0.32999 0.14476 0.64937
 C1233 C 0.34446 0.13049 0.63598
 C1234 C 0.36871 0.13217 0.63811
 C1235 C 0.37813 0.14838 0.65400
 C1236 C 0.36362 0.16262 0.66738
 C1237 C 0.38408 0.11731 0.62359
 C1238 C 0.40426 0.12711 0.61384
 C1239 C 0.41834 0.11334 0.59958
 C1240 C 0.41248 0.08961 0.59493
 C1241 C 0.39260 0.07960 0.60476
 C1242 C 0.37848 0.09335 0.61902
 C1243 C 0.42630 0.07584 0.57930
 C1244 C 0.43752 0.06450 0.56576
 H1245 H 0.31136 0.14332 0.64740
 H1246 H 0.33669 0.11843 0.62367
 H1247 H 0.39671 0.14987 0.65624
 H1248 H 0.37119 0.17499 0.67954
 H1249 H 0.40887 0.14559 0.61679
 H1250 H 0.43361 0.12130 0.59192
 H1251 H 0.38789 0.06125 0.60124
 H1252 H 0.36323 0.08521 0.62651
 C1253 C 0.31218 0.69315 0.18616
 C1254 C 0.32444 0.68199 0.17336
 C1255 C 0.33922 0.66865 0.15823
 C1256 C 0.32984 0.65084 0.14422
 C1257 C 0.34425 0.63760 0.12980
 C1258 C 0.36827 0.64201 0.12923
 C1259 C 0.37750 0.66007 0.14330
 C1260 C 0.36305 0.67329 0.15769
 C1261 C 0.38366 0.62752 0.11437
 C1262 C 0.40531 0.61964 0.12247
 C1263 C 0.41942 0.60526 0.10879
 C1264 C 0.41212 0.59862 0.08683
 C1265 C 0.39076 0.60662 0.07849
 C1266 C 0.37661 0.62099 0.09214
 C1267 C 0.42606 0.58274 0.07327
 C1268 C 0.43743 0.56893 0.06217
 H1269 H 0.31142 0.64705 0.14456
 H1270 H 0.33667 0.62361 0.11943
 H1271 H 0.39587 0.66408 0.14305
 H1272 H 0.37048 0.68708 0.16843
 H1273 H 0.41109 0.62409 0.13959
 H1274 H 0.43585 0.59903 0.11548
 H1275 H 0.38493 0.60156 0.06152
 H1276 H 0.36019 0.62702 0.08531
   
