data_POSCAR
  _audit_creation_date              2014-09-24
  _audit_creation_method            'ToBaCCo'
  _symmetry_space_group_name_H-M    'P1'
  _symmetry_Int_Tables_number       1
  _symmetry_cell_setting            triclinic
  loop_
  _symmetry_equiv_pos_as_xyz
 x,y,z
_cell_length_a 49.9047
_cell_length_b 50.7657
_cell_length_c 46.0444
_cell_angle_alpha 89.795600
_cell_angle_beta 87.398200
_cell_angle_gamma 88.173700
loop_
  _atom_site_label
  _atom_site_type_symbol
  _atom_site_fract_x
  _atom_site_fract_y
  _atom_site_fract_z
C1 C 0.35542 -0.01390 0.26110
 C2 C 0.14140 0.00872 0.73521
 C3 C 0.63069 0.51264 0.25986
 C4 C 0.86949 0.47888 0.75211
 C5 C 0.24256 0.39538 0.98736
 C6 C 0.74846 0.13224 1.02506
 C7 C 0.25487 0.62359 0.49762
 C8 C 0.74656 0.86700 0.51082
 C9 C 0.02058 0.23778 0.37350
 C10 C -0.01917 0.75619 0.11268
 C11 C 0.50409 0.24452 0.61134
 C12 C 0.51025 0.74629 0.88640
 C13 C -0.26754 0.62435 1.00766
 C14 C -0.23659 0.38728 0.50626
 C15 C 0.25777 -0.10930 -0.01043
 C16 C 0.23439 1.10763 0.48996
 C17 C 0.14577 0.49539 0.21170
 C18 C -0.14802 1.00667 0.25649
 C19 C 0.36189 0.50236 -0.23874
 C20 C 0.64210 -0.01635 -0.24905
 C21 C -0.00500 0.25084 0.87177
 C22 C 0.52314 0.24618 0.13029
 C23 C 0.02334 0.73227 0.60988
 C24 C 0.46688 0.74866 0.37877
 B25 B -0.01503 0.01417 1.02299
 B26 B -0.03220 0.00972 0.99297
 B27 B -0.00786 0.03221 0.99246
 B28 B 0.01715 0.02058 1.01296
 B29 B 0.00821 -0.00996 1.02521
 B30 B -0.02231 -0.01672 1.01256
 B31 B 0.01253 -0.01182 0.96585
 B32 B 0.02974 -0.00676 0.99611
 B33 B 0.00564 -0.02943 0.99576
 B34 B -0.01985 -0.01768 0.97572
 B35 B -0.01102 0.01251 0.96371
 B36 B 0.01998 0.01906 0.97580
 B37 B 0.49825 0.52812 0.54643
 B38 B 0.48082 0.51957 0.51741
 B39 B 0.50756 0.53910 0.51314
 B40 B 0.53120 0.52887 0.53617
 B41 B 0.51868 0.50249 0.55477
 B42 B 0.48737 0.49708 0.54331
 B43 B 0.52311 0.48942 0.49718
 B44 B 0.54039 0.49783 0.52630
 B45 B 0.51355 0.47839 0.53043
 B46 B 0.49018 0.48865 0.50743
 B47 B 0.50254 0.51505 0.48899
 B48 B 0.53403 0.52046 0.50036
 B49 B 0.49958 0.97485 0.54140
 B50 B 0.51998 0.97795 0.51121
 B51 B 0.49369 0.95762 0.51053
 B52 B 0.46792 0.97130 0.53106
 B53 B 0.47818 1.00082 0.54305
 B54 B 0.51075 1.00484 0.53079
 B55 B 0.47927 1.00308 0.48387
 B56 B 0.45941 0.99978 0.51432
 B57 B 0.48547 1.02019 0.51417
 B58 B 0.51147 1.00645 0.49383
 B59 B 0.50093 0.97722 0.48157
 B60 B 0.46853 0.97309 0.49413
 B61 B -0.00306 0.48333 1.01599
 B62 B 0.01327 0.49384 0.98529
 B63 B -0.01363 0.47454 0.98328
 B64 B -0.03621 0.48306 1.01020
 B65 B -0.02320 0.50825 1.02877
 B66 B 0.00765 0.51470 1.01364
 B67 B -0.02953 0.52485 0.97277
 B68 B -0.04576 0.51463 1.00357
 B69 B -0.01904 0.53381 1.00558
 B70 B 0.00372 0.52529 0.97875
 B71 B -0.00932 0.50013 0.96016
 B72 B -0.04032 0.49376 0.97566
 B73 B 0.03621 0.49656 0.46128
 B74 B 0.05404 0.49164 0.49129
 B75 B 0.03085 0.51667 0.49020
 B76 B 0.00456 0.50642 0.47162
 B77 B 0.01166 0.47470 0.46177
 B78 B 0.04265 0.46567 0.47364
 B79 B 0.00912 0.47658 0.52114
 B80 B -0.00851 0.48126 0.49111
 B81 B 0.01474 0.45627 0.49198
 B82 B 0.04090 0.46651 0.51077
 B83 B 0.03355 0.49838 0.52088
 B84 B 0.00289 0.50751 0.50858
 B85 B 0.52909 0.01240 -0.01093
 B86 B 0.54170 0.00492 0.02159
 B87 B 0.51520 0.02633 0.01986
 B88 B 0.49520 0.01662 -0.00616
 B89 B 0.50917 -0.01148 -0.02045
 B90 B 0.53823 -0.01908 -0.00346
 B91 B 0.49660 -0.02077 0.03703
 B92 B 0.48365 -0.01272 0.00493
 B93 B 0.50983 -0.03458 0.00585
 B94 B 0.53037 -0.02495 0.03223
 B95 B 0.51629 0.00355 0.04679
 B96 B 0.48730 0.01086 0.02979
 B97 B 0.48146 0.47992 -0.01226
 B98 B 0.46452 0.48688 0.01952
 B99 B 0.49066 0.46514 0.01901
 B100 B 0.51438 0.47522 -0.00547
 B101 B 0.50260 0.50393 -0.01995
 B102 B 0.47143 0.51125 -0.00440
 B103 B 0.50742 0.51190 0.03817
 B104 B 0.52446 0.50432 0.00667
 B105 B 0.49822 0.52635 0.00714
 B106 B 0.47448 0.51619 0.03172
 B107 B 0.48631 0.48734 0.04613
 B108 B 0.51741 0.48028 0.03096
 B109 B -0.02299 0.97141 0.47575
 B110 B -0.03710 0.97828 0.50890
 B111 B -0.00984 0.95774 0.50595
 B112 B 0.01069 0.96859 0.47853
 B113 B -0.00416 0.99664 0.46511
 B114 B -0.03394 1.00253 0.48408
 B115 B 0.00639 1.00568 0.52182
 B116 B 0.02036 0.99846 0.48859
 B117 B -0.00685 1.01920 0.49220
 B118 B -0.02739 1.00829 0.51938
 B119 B -0.01259 0.98041 0.53270
 B120 B 0.01728 0.97453 0.51398
 B121 B 0.78963 0.26042 0.23144
 B122 B 0.77718 0.24171 0.25914
 B123 B 0.79761 0.26691 0.26575
 B124 B 0.79077 0.29203 0.24316
 B125 B 0.76554 0.28259 0.22229
 B126 B 0.75730 0.25113 0.23187
 B127 B 0.74622 0.28295 0.27870
 B128 B 0.75887 0.30194 0.25153
 B129 B 0.73834 0.27705 0.24445
 B130 B 0.74515 0.25158 0.26702
 B131 B 0.77045 0.26103 0.28784
 B132 B 0.77846 0.29229 0.27839
 B133 B 0.75256 0.75231 0.73922
 B134 B 0.76411 0.77037 0.76637
 B135 B 0.74239 0.74589 0.77372
 B136 B 0.74986 0.72073 0.75057
 B137 B 0.77665 0.72985 0.72892
 B138 B 0.78520 0.76063 0.73853
 B139 B 0.79255 0.72809 0.78513
 B140 B 0.78120 0.70988 0.75763
 B141 B 0.80282 0.73432 0.75053
 B142 B 0.79526 0.75956 0.77342
 B143 B 0.76847 0.75059 0.79502
 B144 B 0.76002 0.71950 0.78546
 B145 B 0.25602 0.27283 0.75604
 B146 B 0.25358 0.28918 0.72437
 B147 B 0.27374 0.26204 0.72593
 B148 B 0.25909 0.24023 0.74883
 B149 B 0.22905 0.25414 0.76118
 B150 B 0.22596 0.28463 0.74600
 B151 B 0.22740 0.24874 0.70224
 B152 B 0.23053 0.23201 0.73385
 B153 B 0.20998 0.25916 0.73209
 B154 B 0.22474 0.28124 0.70943
 B155 B 0.25458 0.26737 0.69706
 B156 B 0.25790 0.23678 0.71190
 B157 B 0.20518 0.73717 0.27178
 B158 B 0.21130 0.72544 0.23768
 B159 B 0.18977 0.75138 0.24309
 B160 B 0.20114 0.77041 0.26960
 B161 B 0.23066 0.75625 0.28009
 B162 B 0.23654 0.72805 0.26024
 B163 B 0.23745 0.76975 0.22270
 B164 B 0.23069 0.78168 0.25666
 B165 B 0.25266 0.75579 0.25108
 B166 B 0.24122 0.73652 0.22476
 B167 B 0.21195 0.75083 0.21414
 B168 B 0.20563 0.77887 0.23363
 B169 B 0.28870 0.74589 0.71576
 B170 B 0.27914 0.73196 0.74778
 B171 B 0.29929 0.75809 0.74743
 B172 B 0.28998 0.77891 0.72070
 B173 B 0.26341 0.76551 0.70485
 B174 B 0.25679 0.73615 0.72156
 B175 B 0.24864 0.77538 0.76183
 B176 B 0.25831 0.78934 0.73001
 B177 B 0.23810 0.76323 0.73021
 B178 B 0.24735 0.74236 0.75701
 B179 B 0.27386 0.75582 0.77292
 B180 B 0.28065 0.78502 0.75615
 B181 B 0.25701 0.26197 0.21254
 B182 B 0.25799 0.28050 0.24279
 B183 B 0.23564 0.25626 0.24110
 B184 B 0.25046 0.23082 0.22220
 B185 B 0.28253 0.23952 0.21274
 B186 B 0.28685 0.27050 0.22545
 B187 B 0.27728 0.23838 0.27202
 B188 B 0.27618 0.21985 0.24165
 B189 B 0.29858 0.24421 0.24387
 B190 B 0.28355 0.26970 0.26250
 B191 B 0.25173 0.26100 0.27182
 B192 B 0.24760 0.22994 0.25934
 B193 B 0.73925 0.78246 0.26447
 B194 B 0.73286 0.79766 0.23280
 B195 B 0.75174 0.76957 0.23271
 B196 B 0.73957 0.74948 0.25894
 B197 B 0.71250 0.76527 0.27539
 B198 B 0.70848 0.79543 0.25909
 B199 B 0.70149 0.75786 0.21830
 B200 B 0.70844 0.74228 0.24984
 B201 B 0.68921 0.77033 0.25024
 B202 B 0.70136 0.79074 0.22391
 B203 B 0.72864 0.77488 0.20733
 B204 B 0.73268 0.74482 0.22322
 B205 B 0.72557 0.22536 0.78121
 B206 B 0.73176 0.20971 0.74910
 B207 B 0.71027 0.23597 0.75066
 B208 B 0.72132 0.25809 0.77425
 B209 B 0.75056 0.24555 0.78687
 B210 B 0.75717 0.21523 0.77123
 B211 B 0.75805 0.25205 0.72819
 B212 B 0.75100 0.26792 0.75993
 B213 B 0.77301 0.24177 0.75838
 B214 B 0.76187 0.21931 0.73478
 B215 B 0.73260 0.23204 0.72219
 B216 B 0.72618 0.26215 0.73744
 C217 C 0.36957 0.98941 0.34173
 C218 C 0.39355 1.00303 0.34266
 C219 C 0.40734 1.00924 0.31616
 C220 C 0.39551 1.00407 0.28939
 C221 C 0.37135 0.99016 0.28878
 C222 C 0.35876 0.98348 0.31570
 C223 C 0.43283 1.02009 0.31696
 C224 C 0.44523 1.02332 0.34347
 C225 C 0.43169 1.01751 0.37025
 C226 C 0.40460 1.00933 0.36946
 C227 C 0.38916 1.00731 0.39564
 C228 C 0.40104 1.00784 0.42188
 C229 C 0.42840 1.01170 0.42295
 C230 C 0.44400 1.01854 0.39786
 C231 C 0.47131 1.02430 0.40182
 C232 C 0.48249 1.02181 0.42950
 C233 C 0.46697 1.01285 0.45363
 C234 C 0.44012 1.00740 0.44921
 H235 H 0.35892 0.98219 0.36089
 H236 H 0.40507 1.01088 0.26930
 H237 H 0.33970 0.97390 0.31710
 H238 H 0.44377 1.02497 0.29690
 H239 H 0.46537 1.03051 0.34253
 H240 H 0.36774 1.00489 0.39648
 H241 H 0.38878 1.00445 0.44153
 H242 H 0.48452 1.02994 0.38382
 H243 H 0.50358 1.02543 0.43160
 H244 H 0.42798 0.99776 0.46573
 C245 C -0.12082 0.48788 0.83282
 C246 C -0.10098 0.50681 0.83346
 C247 C -0.08613 0.51236 0.80741
 C248 C -0.09414 0.50208 0.78069
 C249 C -0.11534 0.48421 0.78000
 C250 C -0.12769 0.47688 0.80690
 C251 C -0.06380 0.52835 0.80854
 C252 C -0.05543 0.53764 0.83522
 C253 C -0.07053 0.53308 0.86139
 C254 C -0.09495 0.51950 0.85966
 C255 C -0.11289 0.51909 0.88414
 C256 C -0.10530 0.52768 0.91085
 C257 C -0.07941 0.53634 0.91412
 C258 C -0.06197 0.54046 0.88949
 C259 C -0.03599 0.54933 0.89461
 C260 C -0.02662 0.54974 0.92296
 C261 C -0.04290 0.54137 0.94684
 C262 C -0.07014 0.53782 0.94216
 H263 H -0.13131 0.48101 0.85229
 H264 H -0.08461 0.50883 0.76055
 H265 H -0.14445 0.46387 0.80812
 H266 H -0.05212 0.53284 0.78883
 H267 H -0.03744 0.54889 0.83475
 H268 H -0.13302 0.51206 0.88312
 H269 H -0.11917 0.52568 0.92950
 H270 H -0.02171 0.55351 0.87703
 H271 H -0.00559 0.55328 0.92558
 H272 H -0.08338 0.53106 0.95949
 C273 C 0.08768 0.02230 0.79618
 C274 C 0.08973 -0.00015 0.81410
 C275 C 0.11233 -0.01738 0.80975
 C276 C 0.12993 -0.01422 0.78526
 C277 C 0.12562 0.00645 0.76511
 C278 C 0.10546 0.02566 0.77255
 C279 C 0.11690 -0.03769 0.82974
 C280 C 0.09961 -0.04085 0.85415
 C281 C 0.07611 -0.02480 0.85836
 C282 C 0.07041 -0.00535 0.83681
 C283 C 0.04519 0.00792 0.83797
 C284 C 0.02727 0.00466 0.86129
 C285 C 0.03410 -0.01141 0.88455
 C286 C 0.05816 -0.02700 0.88338
 C287 C 0.06356 -0.04296 0.90794
 C288 C 0.04731 -0.04079 0.93364
 C289 C 0.02553 -0.02262 0.93548
 C290 C 0.01763 -0.01035 0.90975
 H291 H 0.07271 0.03783 0.80023
 H292 H 0.14661 -0.02818 0.78189
 H293 H 0.10272 0.04294 0.75898
 H294 H 0.13428 -0.05092 0.82681
 H295 H 0.10468 -0.05654 0.86897
 H296 H 0.03865 0.02076 0.82077
 H297 H 0.00840 0.01590 0.86175
 H298 H 0.08110 -0.05587 0.90860
 H299 H 0.05309 -0.05179 0.95266
 H300 H -0.00020 0.00234 0.90965
 C301 C 0.57323 0.51127 0.31953
 C302 C 0.58257 0.49278 0.33987
 C303 C 0.60931 0.48308 0.33619
 C304 C 0.62485 0.48927 0.31094
 C305 C 0.61489 0.50646 0.28932
 C306 C 0.58925 0.51839 0.29545
 C307 C 0.62045 0.46745 0.35796
 C308 C 0.60587 0.46238 0.38383
 C309 C 0.57892 0.47136 0.38802
 C310 C 0.56661 0.48489 0.36461
 C311 C 0.53867 0.48997 0.36650
 C312 C 0.52372 0.48485 0.39185
 C313 C 0.53628 0.47553 0.41648
 C314 C 0.56391 0.46812 0.41495
 C315 C 0.57556 0.45961 0.44100
 C316 C 0.56132 0.46238 0.46783
 C317 C 0.53504 0.47310 0.46933
 C318 C 0.52178 0.47602 0.44317
 H319 H 0.55394 0.52138 0.32235
 H320 H 0.64466 0.48048 0.30898
 H321 H 0.58105 0.53316 0.28104
 H322 H 0.64096 0.45983 0.35543
 H323 H 0.61599 0.45083 0.39996
 H324 H 0.52783 0.49773 0.34842
 H325 H 0.50243 0.48992 0.39273
 H326 H 0.59624 0.45291 0.44165
 H327 H 0.57158 0.45743 0.48729
 H328 H 0.50086 0.48251 0.44356
 C329 C 0.56908 0.50544 0.21270
 C330 C 0.57375 0.52327 0.18964
 C331 C 0.59797 0.53697 0.18868
 C332 C 0.61557 0.53458 0.21161
 C333 C 0.61035 0.51750 0.23541
 C334 C 0.58728 0.50216 0.23448
 C335 C 0.60490 0.55225 0.16430
 C336 C 0.58900 0.55286 0.14018
 C337 C 0.56467 0.53939 0.14033
 C338 C 0.55601 0.52630 0.16644
 C339 C 0.52989 0.51653 0.16859
 C340 C 0.51396 0.51656 0.14478
 C341 C 0.52378 0.52565 0.11788
 C342 C 0.54894 0.53780 0.11521
 C343 C 0.55780 0.54633 0.08716
 C344 C 0.54350 0.54044 0.06262
 C345 C 0.51993 0.52611 0.06529
 C346 C 0.50918 0.52100 0.09338
 H347 H 0.55233 0.49250 0.21348
 H348 H 0.63378 0.54547 0.20997
 H349 H 0.58357 0.48685 0.25045
 H350 H 0.62338 0.56294 0.16335
 H351 H 0.59603 0.56438 0.12182
 H352 H 0.52121 0.50888 0.18865
 H353 H 0.49431 0.50808 0.14710
 H354 H 0.57646 0.55616 0.08325
 H355 H 0.55155 0.54641 0.04156
 H356 H 0.49022 0.51129 0.09636
 C357 C 0.07473 1.00993 0.69421
 C358 C 0.08106 1.02284 0.66785
 C359 C 0.10761 1.03125 0.66301
 C360 C 0.12666 1.02756 0.68446
 C361 C 0.12037 1.01478 0.71119
 C362 C 0.09381 1.00577 0.71487
 C363 C 0.11530 1.04257 0.63632
 C364 C 0.09769 1.04409 0.61374
 C365 C 0.07127 1.03504 0.61734
 C366 C 0.06236 1.02594 0.64545
 C367 C 0.03518 1.01960 0.65007
 C368 C 0.01822 1.01857 0.62718
 C369 C 0.02763 1.02397 0.59894
 C370 C 0.05377 1.03353 0.59364
 C371 C 0.06158 1.03979 0.56457
 C372 C 0.04545 1.03352 0.54170
 C373 C 0.02116 1.02075 0.54692
 C374 C 0.01146 1.01834 0.57586
 H375 H 0.05549 1.00149 0.69907
 H376 H 0.14634 1.03435 0.67913
 H377 H 0.08743 0.99451 0.73378
 H378 H 0.13551 1.04939 0.63243
 H379 H 0.10549 1.05223 0.59356
 H380 H 0.02641 1.01501 0.67123
 H381 H -0.00216 1.01233 0.63149
 H382 H 0.08045 1.04852 0.55863
 H383 H 0.05250 1.03840 0.51999
 H384 H -0.00802 1.01012 0.58069
 C385 C -0.11435 0.47603 0.67038
 C386 C -0.08628 0.47250 0.66776
 C387 C -0.07234 0.46649 0.69316
 C388 C -0.08591 0.46846 0.72088
 C389 C -0.11361 0.47537 0.72325
 C390 C -0.12763 0.47682 0.69741
 C391 C -0.04514 0.45867 0.69033
 C392 C -0.03172 0.45710 0.66290
 C393 C -0.04454 0.46528 0.63747
 C394 C -0.07191 0.47439 0.64049
 C395 C -0.08384 0.48676 0.61665
 C396 C -0.06970 0.48977 0.59047
 C397 C -0.04362 0.47945 0.58652
 C398 C -0.03087 0.46604 0.60932
 C399 C -0.00513 0.45423 0.60271
 C400 C 0.00726 0.45618 0.57460
 C401 C -0.00520 0.47069 0.55262
 C402 C -0.03028 0.48297 0.55964
 H403 H -0.12666 0.47757 0.65173
 H404 H -0.07500 0.46445 0.74028
 H405 H -0.14924 0.47973 0.69818
 H406 H -0.03421 0.45347 0.70944
 H407 H -0.01083 0.45085 0.66227
 H408 H -0.10370 0.49585 0.61820
 H409 H -0.07947 0.50007 0.57297
 H410 H 0.00549 0.44294 0.61870
 H411 H 0.02685 0.44686 0.57031
 H412 H -0.04005 0.49541 0.54391
 C413 C 0.36918 -0.02522 0.17989
 C414 C 0.39701 -0.03063 0.17672
 C415 C 0.41156 -0.03358 0.20232
 C416 C 0.39881 -0.02848 0.22991
 C417 C 0.37159 -0.01999 0.23230
 C418 C 0.35694 -0.02012 0.20691
 C419 C 0.43869 -0.04140 0.20005
 C420 C 0.45188 -0.04528 0.17292
 C421 C 0.43859 -0.04055 0.14685
 C422 C 0.41071 -0.03291 0.14894
 C423 C 0.39767 -0.02608 0.12328
 C424 C 0.41155 -0.02538 0.09672
 C425 C 0.43876 -0.03217 0.09439
 C426 C 0.45248 -0.04133 0.11885
 C427 C 0.47978 -0.04950 0.11416
 C428 C 0.49323 -0.04603 0.08697
 C429 C 0.48007 -0.03400 0.06379
 C430 C 0.45257 -0.02787 0.06791
 H431 H 0.35605 -0.02506 0.16197
 H432 H 0.41008 -0.03150 0.24922
 H433 H 0.33552 -0.01578 0.20800
 H434 H 0.44997 -0.04421 0.21945
 H435 H 0.47293 -0.05075 0.17300
 H436 H 0.37700 -0.01943 0.12304
 H437 H 0.40096 -0.01869 0.07786
 H438 H 0.49136 -0.05800 0.13125
 H439 H 0.51448 -0.05106 0.08484
 H440 H 0.44190 -0.01723 0.05151
 C441 C 0.31486 0.41635 -0.03029
 C442 C 0.32135 0.42868 -0.00449
 C443 C 0.30047 0.43605 0.01577
 C444 C 0.27460 0.42631 0.01265
 C445 C 0.26845 0.41179 -0.01235
 C446 C 0.28906 0.40844 -0.03431
 C447 C 0.30603 0.45240 0.03908
 C448 C 0.33194 0.46171 0.04197
 C449 C 0.35354 0.45254 0.02342
 C450 C 0.34815 0.43397 0.00150
 C451 C 0.36962 0.41992 -0.01277
 C452 C 0.39579 0.42510 -0.00706
 C453 C 0.40138 0.44578 0.01126
 C454 C 0.38051 0.46046 0.02616
 C455 C 0.38757 0.48308 0.04169
 C456 C 0.41423 0.49145 0.04062
 C457 C 0.43462 0.47661 0.02556
 C458 C 0.42789 0.45272 0.01306
 H459 H 0.32958 0.41269 -0.04788
 H460 H 0.25950 0.42917 0.03012
 H461 H 0.28658 0.39776 -0.05413
 H462 H 0.29018 0.45857 0.05469
 H463 H 0.33503 0.47474 0.05993
 H464 H 0.36657 0.40386 -0.02747
 H465 H 0.41181 0.41374 -0.01835
 H466 H 0.37254 0.49555 0.05290
 H467 H 0.41870 0.50985 0.05091
 H468 H 0.44306 0.44063 0.00150
 C469 C -0.17811 0.87146 0.52139
 C470 C -0.17419 0.89852 0.52495
 C471 C -0.19707 0.91509 0.53077
 C472 C -0.22304 0.90517 0.52834
 C473 C -0.22642 0.87912 0.51857
 C474 C -0.20357 0.86211 0.51856
 C475 C -0.19369 0.94138 0.53845
 C476 C -0.16807 0.95174 0.53893
 C477 C -0.14489 0.93635 0.53059
 C478 C -0.14825 0.90937 0.52308
 C479 C -0.12591 0.89433 0.51194
 C480 C -0.10104 0.90515 0.50816
 C481 C -0.09722 0.93116 0.51585
 C482 C -0.11862 0.94707 0.52804
 C483 C -0.11267 0.97309 0.53630
 C484 C -0.08674 0.98284 0.53155
 C485 C -0.06611 0.96715 0.51810
 C486 C -0.07198 0.94138 0.51030
 H487 H -0.16186 0.85692 0.52106
 H488 H -0.24017 0.91775 0.53452
 H489 H -0.20510 0.84114 0.51612
 H490 H -0.21101 0.95418 0.54370
 H491 H -0.16710 0.97225 0.54462
 H492 H -0.12728 0.87440 0.50430
 H493 H -0.08461 0.89301 0.49873
 H494 H -0.12760 0.98627 0.54650
 H495 H -0.08310 1.00292 0.53772
 H496 H -0.05719 0.92921 0.49833
 C497 C -0.17622 0.11957 1.00950
 C498 C -0.17317 0.09214 1.00692
 C499 C -0.19628 0.07755 1.00281
 C500 C -0.22209 0.08987 1.00724
 C501 C -0.22487 0.11673 1.01586
 C502 C -0.20142 0.13149 1.01292
 C503 C -0.19307 0.05106 0.99437
 C504 C -0.16738 0.03901 0.99067
 C505 C -0.14413 0.05260 0.99735
 C506 C -0.14761 0.07920 1.00713
 C507 C -0.12582 0.09193 1.01860
 C508 C -0.10090 0.07958 1.01924
 C509 C -0.09646 0.05458 1.00736
 C510 C -0.11757 0.04069 0.99563
 C511 C -0.11081 0.01589 0.98255
 C512 C -0.08401 0.00583 0.98103
 C513 C -0.06343 0.01981 0.99324
 C514 C -0.07059 0.04372 1.00720
 H515 H -0.15931 0.13237 1.00809
 H516 H -0.23944 0.07869 1.00275
 H517 H -0.20220 0.15268 1.01366
 H518 H -0.21049 0.03961 0.99041
 H519 H -0.16627 0.01863 0.98401
 H520 H -0.12789 0.11112 1.02864
 H521 H -0.08477 0.09001 1.02864
 H522 H -0.12572 0.00439 0.97261
 H523 H -0.07947 -0.01288 0.97043
 H524 H -0.05565 0.05471 1.01782
 C525 C 0.32910 0.61221 0.47327
 C526 C 0.33576 0.58760 0.48600
 C527 C 0.31469 0.57372 0.50012
 C528 C 0.28830 0.58426 0.50149
 C529 C 0.28191 0.60908 0.48944
 C530 C 0.30291 0.62281 0.47542
 C531 C 0.32014 0.54982 0.51396
 C532 C 0.34625 0.53985 0.51534
 C533 C 0.36815 0.55332 0.50256
 C534 C 0.36271 0.57693 0.48647
 C535 C 0.38441 0.58918 0.47169
 C536 C 0.41063 0.57951 0.47369
 C537 C 0.41642 0.55751 0.49081
 C538 C 0.39532 0.54405 0.50545
 C539 C 0.40241 0.52219 0.52294
 C540 C 0.42918 0.51440 0.52598
 C541 C 0.45014 0.52810 0.51197
 C542 C 0.44332 0.54917 0.49365
 H543 H 0.34387 0.62450 0.46282
 H544 H 0.27299 0.57368 0.51369
 H545 H 0.29935 0.64253 0.46711
 H546 H 0.30406 0.53895 0.52451
 H547 H 0.34854 0.52135 0.52658
 H548 H 0.38179 0.60628 0.45807
 H549 H 0.42664 0.58973 0.46215
 H550 H 0.38786 0.51100 0.53527
 H551 H 0.43331 0.49777 0.54004
 H552 H 0.45880 0.55942 0.48161
 C553 C 0.18887 0.59246 0.52610
 C554 C 0.18695 0.57033 0.50792
 C555 C 0.20623 0.56699 0.48467
 C556 C 0.22842 0.58339 0.48220
 C557 C 0.23123 0.60451 0.50160
 C558 C 0.21002 0.60967 0.52224
 C559 C 0.20294 0.54759 0.46377
 C560 C 0.18030 0.53215 0.46493
 C561 C 0.16103 0.53435 0.48827
 C562 C 0.16567 0.55230 0.51119
 C563 C 0.14931 0.55125 0.53692
 C564 C 0.12786 0.53449 0.53936
 C565 C 0.12090 0.51955 0.51563
 C566 C 0.13718 0.51940 0.48961
 C567 C 0.12810 0.50531 0.46566
 C568 C 0.10262 0.49444 0.46679
 C569 C 0.08568 0.49684 0.49187
 C570 C 0.09667 0.50626 0.51717
 H571 H 0.17349 0.59765 0.54251
 H572 H 0.24342 0.57980 0.46484
 H573 H 0.20977 0.62706 0.53577
 H574 H 0.21757 0.54487 0.44581
 H575 H 0.17883 0.51794 0.44777
 H576 H 0.15322 0.56276 0.55585
 H577 H 0.11568 0.53442 0.55946
 H578 H 0.13934 0.50407 0.44512
 H579 H 0.09593 0.48503 0.44751
 H580 H 0.08513 0.50576 0.53767
 C581 C 0.67410 0.11984 0.04088
 C582 C 0.67251 0.09226 0.04088
 C583 C 0.69649 0.07710 0.04348
 C584 C 0.72158 0.08944 0.04059
 C585 C 0.72285 0.11673 0.03404
 C586 C 0.69868 0.13166 0.03793
 C587 C 0.69496 0.04989 0.04836
 C588 C 0.67017 0.03752 0.04917
 C589 C 0.64618 0.05176 0.04341
 C590 C 0.64777 0.07953 0.03843
 C591 C 0.62515 0.09366 0.02870
 C592 C 0.60174 0.08118 0.02370
 C593 C 0.59949 0.05439 0.02939
 C594 C 0.62092 0.03931 0.04062
 C595 C 0.61599 0.01252 0.04761
 C596 C 0.59081 0.00149 0.04301
 C597 C 0.57029 0.01651 0.03023
 C598 C 0.57582 0.04268 0.02275
 H599 H 0.65658 0.13280 0.04333
 H600 H 0.73958 0.07779 0.04415
 H601 H 0.69854 0.15292 0.03785
 H602 H 0.71308 0.03800 0.05118
 H603 H 0.67048 0.01647 0.05259
 H604 H 0.62553 0.11422 0.02276
 H605 H 0.58515 0.09269 0.01518
 H606 H 0.63110 -0.00009 0.05705
 H607 H 0.58772 -0.01893 0.04866
 H608 H 0.56227 0.05416 0.00986
 C609 C 0.69969 0.92896 0.49552
 C610 C 0.67392 0.91854 0.50037
 C611 C 0.67283 0.89117 0.50631
 C612 C 0.69618 0.87560 0.50843
 C613 C 0.72184 0.88627 0.50687
 C614 C 0.72310 0.91303 0.49821
 C615 C 0.64836 0.87906 0.51018
 C616 C 0.62473 0.89379 0.51058
 C617 C 0.62464 0.92140 0.50706
 C618 C 0.64918 0.93385 0.49958
 C619 C 0.64773 0.96084 0.49159
 C620 C 0.62297 0.97489 0.49111
 C621 C 0.59904 0.96312 0.50050
 C622 C 0.60033 0.93659 0.51006
 C623 C 0.57732 0.92607 0.52330
 C624 C 0.55326 0.93993 0.52388
 C625 C 0.55025 0.96515 0.51177
 C626 C 0.57381 0.97721 0.50076
 H627 H 0.70233 0.94934 0.48965
 H628 H 0.69403 0.85469 0.51165
 H629 H 0.74202 0.92175 0.49229
 H630 H 0.64743 0.85795 0.51357
 H631 H 0.60658 0.88283 0.51293
 H632 H 0.66541 0.97135 0.48485
 H633 H 0.62267 0.99527 0.48404
 H634 H 0.57726 0.90705 0.53384
 H635 H 0.53657 0.92936 0.53227
 H636 H 0.57256 0.99714 0.49234
 C637 C 0.19083 0.45455 0.99419
 C638 C 0.16660 0.44244 0.98824
 C639 C 0.16775 0.41514 0.98214
 C640 C 0.19176 0.40041 0.98447
 C641 C 0.21610 0.41247 0.99002
 C642 C 0.21513 0.44002 0.99416
 C643 C 0.14509 0.40272 0.97295
 C644 C 0.12145 0.41708 0.96874
 C645 C 0.11913 0.44419 0.97533
 C646 C 0.14148 0.45664 0.98709
 C647 C 0.13763 0.48241 0.99832
 C648 C 0.11260 0.49537 0.99832
 C649 C 0.09099 0.48379 0.98563
 C650 C 0.09455 0.45876 0.97234
 C651 C 0.07322 0.44923 0.95670
 C652 C 0.04817 0.46217 0.95795
 C653 C 0.04329 0.48438 0.97564
 C654 C 0.06543 0.49632 0.98745
 H655 H 0.19183 0.47556 0.99717
 H656 H 0.19189 0.37936 0.98047
 H657 H 0.23299 0.45102 0.99656
 H658 H 0.14583 0.38179 0.96824
 H659 H 0.10473 0.40614 0.96169
 H660 H 0.15327 0.49235 1.00893
 H661 H 0.11010 0.51455 1.00854
 H662 H 0.07545 0.43182 0.94331
 H663 H 0.03253 0.45398 0.94576
 H664 H 0.06256 0.51442 0.99976
 C665 C 0.04267 0.28627 0.43288
 C666 C 0.02230 0.30645 0.43319
 C667 C 0.00097 0.30314 0.41447
 C668 C 0.00084 0.28178 0.39545
 C669 C 0.02053 0.26124 0.39551
 C670 C 0.04166 0.26416 0.41451
 C671 C -0.02050 0.32128 0.41440
 C672 C -0.02083 0.34352 0.43148
 C673 C 0.00105 0.34937 0.44841
 C674 C 0.02248 0.33012 0.45045
 C675 C 0.04338 0.33564 0.46905
 C676 C 0.04390 0.35965 0.48395
 C677 C 0.02402 0.37937 0.48043
 C678 C 0.00236 0.37426 0.46262
 C679 C -0.01619 0.39507 0.45764
 C680 C -0.01286 0.41996 0.46863
 C681 C 0.00811 0.42560 0.48680
 C682 C 0.02639 0.40470 0.49303
 H683 H 0.05966 0.28712 0.44645
 H684 H -0.01478 0.28219 0.38005
 H685 H 0.05776 0.24935 0.41479
 H686 H -0.03740 0.31826 0.40091
 H687 H -0.03875 0.35581 0.43072
 H688 H 0.05986 0.32183 0.47218
 H689 H 0.06061 0.36318 0.49750
 H690 H -0.03242 0.39362 0.44318
 H691 H -0.02596 0.43524 0.46040
 H692 H 0.04362 0.40861 0.50566
 C693 C 0.52280 -0.20814 -0.04748
 C694 C 0.50748 -0.18514 -0.05354
 C695 C 0.49150 -0.18565 -0.07822
 C696 C 0.49182 -0.20774 -0.09644
 C697 C 0.50766 -0.23052 -0.09101
 C698 C 0.52288 -0.23012 -0.06576
 C699 C 0.47551 -0.16379 -0.08519
 C700 C 0.47668 -0.14064 -0.06970
 C701 C 0.49430 -0.13830 -0.04678
 C702 C 0.50831 -0.16128 -0.03696
 C703 C 0.52283 -0.15926 -0.01137
 C704 C 0.52450 -0.13521 0.00321
 C705 C 0.51296 -0.11204 -0.00794
 C706 C 0.49832 -0.11353 -0.03357
 C707 C 0.48952 -0.08994 -0.04638
 C708 C 0.49381 -0.06601 -0.03378
 C709 C 0.50659 -0.06389 -0.00715
 C710 C 0.51643 -0.08731 0.00561
 H711 H 0.53575 -0.20942 -0.02939
 H712 H 0.48006 -0.20640 -0.11551
 H713 H 0.53616 -0.24659 -0.06064
 H714 H 0.46234 -0.16437 -0.10325
 H715 H 0.46322 -0.12484 -0.07607
 H716 H 0.53288 -0.17608 -0.00188
 H717 H 0.53573 -0.13460 0.02278
 H718 H 0.48018 -0.08912 -0.06703
 H719 H 0.48608 -0.04903 -0.04530
 H720 H 0.52715 -0.08628 0.02551
 C721 C 0.02300 -0.18282 1.09050
 C722 C 0.01044 -0.17322 1.06559
 C723 C -0.00975 -0.18859 1.05425
 C724 C -0.01844 -0.21126 1.06903
 C725 C -0.00772 -0.21943 1.09568
 C726 C 0.01423 -0.20526 1.10500
 C727 C -0.02164 -0.18092 1.02858
 C728 C -0.01497 -0.15749 1.01472
 C729 C 0.00355 -0.14043 1.02644
 C730 C 0.01674 -0.14864 1.05211
 C731 C 0.03458 -0.13129 1.06450
 C732 C 0.03785 -0.10610 1.05367
 C733 C 0.02408 -0.09736 1.02968
 C734 C 0.00797 -0.11471 1.01462
 C735 C -0.00409 -0.10489 0.98932
 C736 C -0.00266 -0.07826 0.98157
 C737 C 0.01078 -0.06058 0.99871
 C738 C 0.02507 -0.07076 1.02191
 H739 H 0.03986 -0.17353 1.09948
 H740 H -0.03435 -0.22233 1.06008
 H741 H 0.02537 -0.21096 1.12354
 H742 H -0.03675 -0.19289 1.01942
 H743 H -0.02565 -0.15271 0.99548
 H744 H 0.04533 -0.13595 1.08369
 H745 H 0.05067 -0.09300 1.06485
 H746 H -0.01541 -0.11708 0.97555
 H747 H -0.01343 -0.07133 0.96299
 H748 H 0.03527 -0.05776 1.03577
 C749 C 0.51577 0.29925 0.55201
 C750 C 0.51918 0.32194 0.56892
 C751 C 0.51947 0.31848 0.59938
 C752 C 0.51669 0.29350 0.61200
 C753 C 0.51293 0.27065 0.59551
 C754 C 0.51212 0.27447 0.56500
 C755 C 0.52131 0.34019 0.61755
 C756 C 0.52107 0.36551 0.60634
 C757 C 0.51941 0.37014 0.57626
 C758 C 0.52053 0.34809 0.55703
 C759 C 0.52290 0.35308 0.52681
 C760 C 0.52326 0.37882 0.51588
 C761 C 0.51990 0.40052 0.53450
 C762 C 0.51705 0.39624 0.56489
 C763 C 0.51070 0.41818 0.58285
 C764 C 0.50898 0.44344 0.57139
 C765 C 0.51417 0.44828 0.54160
 C766 C 0.51901 0.42645 0.52309
 H767 H 0.51397 0.30036 0.52877
 H768 H 0.51495 0.29290 0.63520
 H769 H 0.50669 0.25900 0.55066
 H770 H 0.52217 0.33765 0.64089
 H771 H 0.52280 0.38119 0.62182
 H772 H 0.52526 0.33736 0.51112
 H773 H 0.52552 0.38174 0.49258
 H774 H 0.50600 0.41636 0.60584
 H775 H 0.50400 0.45938 0.58643
 H776 H 0.52172 0.42945 0.49989
 C777 C 0.51988 1.19132 0.55159
 C778 C 0.49820 1.17417 0.55524
 C779 C 0.47693 1.18202 0.57508
 C780 C 0.47801 1.20525 0.59135
 C781 C 0.50037 1.22161 0.58914
 C782 C 0.52092 1.21435 0.56821
 C783 C 0.45484 1.16617 0.57955
 C784 C 0.45436 1.14159 0.56676
 C785 C 0.47613 1.13177 0.54894
 C786 C 0.49740 1.14896 0.54119
 C787 C 0.51720 1.14001 0.52024
 C788 C 0.51694 1.11460 0.50859
 C789 C 0.49772 1.09672 0.51828
 C790 C 0.47734 1.10514 0.53896
 C791 C 0.46002 1.08610 0.55066
 C792 C 0.46268 1.05998 0.54219
 C793 C 0.48173 1.05144 0.52048
 C794 C 0.49931 1.07021 0.50853
 H795 H 0.53700 1.18683 0.53714
 H796 H 0.46160 1.20947 0.60690
 H797 H 0.53888 1.22576 0.56608
 H798 H 0.43800 1.17248 0.59386
 H799 H 0.43642 1.13068 0.57110
 H800 H 0.53311 1.15236 0.51225
 H801 H 0.53260 1.10858 0.49269
 H802 H 0.44523 1.09036 0.56793
 H803 H 0.44969 1.04631 0.55352
 H804 H 0.51502 1.06400 0.49277
 C805 C -0.00686 0.70702 1.04879
 C806 C -0.02352 0.68608 1.05695
 C807 C -0.04064 0.68947 1.08214
 C808 C -0.04101 0.71292 1.09819
 C809 C -0.02359 0.73345 1.09081
 C810 C -0.00647 0.72979 1.06567
 C811 C -0.05648 0.66890 1.09215
 C812 C -0.05397 0.64429 1.07921
 C813 C -0.03596 0.63956 1.05516
 C814 C -0.02238 0.66125 1.04225
 C815 C -0.00801 0.65720 1.01539
 C816 C -0.00582 0.63235 1.00250
 C817 C -0.01662 0.61043 1.01659
 C818 C -0.03121 0.61378 1.04354
 C819 C -0.03938 0.59108 1.05871
 C820 C -0.03440 0.56619 1.04702
 C821 C -0.02182 0.56277 1.01926
 C822 C -0.01270 0.58512 1.00423
 H823 H 0.00759 0.70557 1.03068
 H824 H -0.05384 0.71407 1.11763
 H825 H 0.00876 0.74378 1.05984
 H826 H -0.07018 0.67151 1.11095
 H827 H -0.06680 0.62933 1.08821
 H828 H 0.00121 0.67311 1.00347
 H829 H 0.00519 0.63014 0.98177
 H830 H -0.04886 0.59185 1.08023
 H831 H -0.04141 0.54961 1.05973
 H832 H -0.00240 0.58286 0.98311
 C833 C 0.51985 0.67094 -0.10498
 C834 C 0.51183 0.66610 -0.07575
 C835 C 0.50606 0.68802 -0.05754
 C836 C 0.50539 0.71364 -0.06931
 C837 C 0.51331 0.71862 -0.09880
 C838 C 0.52039 0.69643 -0.11611
 C839 C 0.50034 0.68414 -0.02781
 C840 C 0.50052 0.65885 -0.01583
 C841 C 0.50449 0.63635 -0.03360
 C842 C 0.50886 0.64020 -0.06426
 C843 C 0.50851 0.61820 -0.08278
 C844 C 0.50453 0.59323 -0.07177
 C845 C 0.50214 0.58895 -0.04190
 C846 C 0.50301 0.61011 -0.02216
 C847 C 0.50240 0.60388 0.00797
 C848 C 0.50114 0.57759 0.01770
 C849 C 0.49985 0.55687 -0.00222
 C850 C 0.49909 0.56328 -0.03191
 H851 H 0.52616 0.65536 -0.11986
 H852 H 0.49714 0.72930 -0.05548
 H853 H 0.52548 0.69828 -0.13895
 H854 H 0.49606 0.70085 -0.01357
 H855 H 0.49602 0.65738 0.00725
 H856 H 0.50983 0.61981 -0.10614
 H857 H 0.50374 0.57698 -0.08690
 H858 H 0.50371 0.61885 0.02437
 H859 H 0.50095 0.57362 0.04080
 H860 H 0.49731 0.54802 -0.04801
 C861 C 0.00810 1.16385 0.38100
 C862 C 0.00585 1.15933 0.41117
 C863 C 0.01110 1.18043 0.42992
 C864 C 0.01591 1.20585 0.41857
 C865 C 0.01729 1.21035 0.38826
 C866 C 0.01369 1.18859 0.36999
 C867 C 0.01160 1.17590 0.45986
 C868 C 0.00768 1.15078 0.47138
 C869 C 0.00168 1.12939 0.45347
 C870 C -0.00073 1.13426 0.42311
 C871 C -0.01028 1.11414 0.40562
 C872 C -0.01526 1.08938 0.41684
 C873 C -0.01059 1.08352 0.44577
 C874 C -0.00220 1.10331 0.46467
 C875 C 0.00235 1.09588 0.49376
 C876 C -0.00019 1.06971 0.50305
 C877 C -0.00703 1.04998 0.48371
 C878 C -0.01376 1.05765 0.45556
 H879 H 0.00645 1.14845 0.36519
 H880 H 0.01833 1.22182 0.43355
 H881 H 0.01516 1.19090 0.34656
 H882 H 0.01569 1.19181 0.47449
 H883 H 0.00878 1.14886 0.49461
 H884 H -0.01482 1.11716 0.38317
 H885 H -0.02230 1.07446 0.40247
 H886 H 0.00865 1.10965 0.50964
 H887 H 0.00336 1.06517 0.52545
 H888 H -0.02023 1.04310 0.44043
 C889 C 0.75937 0.62873 0.92854
 C890 C 0.76974 0.65411 0.92577
 C891 C 0.76495 0.67167 0.94944
 C892 C 0.75158 0.66332 0.97543
 C893 C 0.74179 0.63756 0.97835
 C894 C 0.74625 0.62069 0.95414
 C895 C 0.77400 0.69738 0.94719
 C896 C 0.78664 0.70634 0.92159
 C897 C 0.79161 0.68957 0.89737
 C898 C 0.78423 0.66268 0.90009
 C899 C 0.79150 0.64525 0.87696
 C900 C 0.80233 0.65439 0.85066
 C901 C 0.80620 0.68118 0.84638
 C902 C 0.80243 0.69895 0.87002
 C903 C 0.80816 0.72565 0.86449
 C904 C 0.81166 0.73480 0.83594
 C905 C 0.80927 0.71765 0.81229
 C906 C 0.81148 0.69064 0.81804
 H907 H 0.76109 0.61439 0.91132
 H908 H 0.75080 0.67656 0.99372
 H909 H 0.74050 0.60035 0.95523
 H910 H 0.77068 0.71097 0.96519
 H911 H 0.79221 0.72667 0.92143
 H912 H 0.78875 0.62431 0.87834
 H913 H 0.80623 0.64053 0.83300
 H914 H 0.80779 0.74030 0.88138
 H915 H 0.81230 0.75590 0.83251
 H916 H 0.81412 0.67694 0.80034
 C917 C 0.22578 0.16800 0.43944
 C918 C 0.24505 0.16216 0.41677
 C919 C 0.25610 0.13613 0.41517
 C920 C 0.24963 0.11767 0.43699
 C921 C 0.23470 0.12552 0.46238
 C922 C 0.22083 0.15009 0.46177
 C923 C 0.27437 0.12898 0.39252
 C924 C 0.28256 0.14734 0.37176
 C925 C 0.27280 0.17373 0.37296
 C926 C 0.25355 0.18120 0.39571
 C927 C 0.24356 0.20753 0.39678
 C928 C 0.24998 0.22524 0.37486
 C929 C 0.26738 0.21776 0.35169
 C930 C 0.28051 0.19264 0.35132
 C931 C 0.30011 0.18746 0.32866
 C932 C 0.30261 0.20451 0.30479
 C933 C 0.28520 0.22656 0.30276
 C934 C 0.27019 0.23465 0.32783
 H935 H 0.21460 0.18646 0.44114
 H936 H 0.25861 0.09795 0.43576
 H937 H 0.20678 0.15617 0.47922
 H938 H 0.28270 0.10902 0.39101
 H939 H 0.29632 0.14014 0.35466
 H940 H 0.23014 0.21507 0.41395
 H941 H 0.24062 0.24482 0.37570
 H942 H 0.31285 0.16990 0.32811
 H943 H 0.31610 0.19884 0.28666
 H944 H 0.25831 0.25288 0.32790
 C945 C 0.76831 0.33453 0.44682
 C946 C 0.74809 0.34278 0.42808
 C947 C 0.73708 0.36862 0.43118
 C948 C 0.74277 0.38372 0.45555
 C949 C 0.76007 0.37361 0.47671
 C950 C 0.77481 0.35016 0.47004
 C951 C 0.72028 0.37893 0.41013
 C952 C 0.71487 0.36414 0.38569
 C953 C 0.72450 0.33780 0.38269
 C954 C 0.73947 0.32649 0.40557
 C955 C 0.74487 0.29911 0.40572
 C956 C 0.73869 0.28367 0.38240
 C957 C 0.72840 0.29530 0.35763
 C958 C 0.72060 0.32238 0.35742
 C959 C 0.71133 0.33309 0.33110
 C960 C 0.71452 0.31863 0.30518
 C961 C 0.72669 0.29336 0.30521
 C962 C 0.72888 0.28057 0.33210
 H963 H 0.77964 0.31620 0.44363
 H964 H 0.73329 0.40310 0.45807
 H965 H 0.78997 0.34274 0.48430
 H966 H 0.71180 0.39879 0.41219
 H967 H 0.70230 0.37346 0.36993
 H968 H 0.75364 0.28916 0.42394
 H969 H 0.74403 0.26281 0.38289
 H970 H 0.70415 0.35327 0.32932
 H971 H 0.70964 0.32816 0.28500
 H972 H 0.73570 0.26011 0.33291
 C973 C 0.26349 0.87832 0.90702
 C974 C 0.24322 0.86036 0.90253
 C975 C 0.22923 0.84990 0.92705
 C976 C 0.23333 0.86000 0.95499
 C977 C 0.25427 0.87753 0.95957
 C978 C 0.26906 0.88637 0.93475
 C979 C 0.21176 0.82921 0.92330
 C980 C 0.20948 0.81776 0.89589
 C981 C 0.22274 0.82831 0.87092
 C982 C 0.23756 0.85159 0.87431
 C983 C 0.24632 0.86556 0.84941
 C984 C 0.24421 0.85512 0.82204
 C985 C 0.23420 0.83005 0.81871
 C986 C 0.22255 0.81641 0.84272
 C987 C 0.21353 0.79067 0.83767
 C988 C 0.21869 0.77823 0.81056
 C989 C 0.23232 0.79131 0.78761
 C990 C 0.23825 0.81786 0.79181
 H991 H 0.27616 0.88574 0.88941
 H992 H 0.22062 0.85377 0.97327
 H993 H 0.28449 0.90071 0.93621
 H994 H 0.20086 0.82093 0.94188
 H995 H 0.19670 0.80109 0.89459
 H996 H 0.25481 0.88481 0.85060
 H997 H 0.25214 0.86606 0.80346
 H998 H 0.20452 0.77901 0.85491
 H999 H 0.21392 0.75769 0.80839
 H1000 H 0.24967 0.82846 0.77544
 C1001 C 0.25989 0.82696 0.03712
 C1002 C 0.26052 0.83724 0.06561
 C1003 C 0.26163 0.86492 0.06846
 C1004 C 0.26034 0.88137 0.04396
 C1005 C 0.25766 0.87117 0.01580
 C1006 C 0.25896 0.84354 0.01284
 C1007 C 0.26394 0.87616 0.09578
 C1008 C 0.26465 0.86058 0.12059
 C1009 C 0.26258 0.83295 0.11917
 C1010 C 0.26025 0.82108 0.09124
 C1011 C 0.25670 0.79362 0.09000
 C1012 C 0.25445 0.77845 0.11511
 C1013 C 0.25616 0.78981 0.14247
 C1014 C 0.26135 0.81693 0.14489
 C1015 C 0.26450 0.82692 0.17312
 C1016 C 0.25946 0.81145 0.19780
 C1017 C 0.25123 0.78541 0.19553
 C1018 C 0.25142 0.77436 0.16748
 H1019 H 0.26089 0.80613 0.03270
 H1020 H 0.26121 0.90254 0.04671
 H1021 H 0.26026 0.83425 -0.00823
 H1022 H 0.26499 0.89735 0.09806
 H1023 H 0.26589 0.87100 0.14079
 H1024 H 0.25443 0.78332 0.06990
 H1025 H 0.25074 0.75762 0.11308
 H1026 H 0.27050 0.84676 0.17697
 H1027 H 0.26183 0.82044 0.21851
 H1028 H 0.24619 0.75398 0.16484
 C1029 C 0.75068 0.32404 0.55211
 C1030 C 0.76217 0.33005 0.57868
 C1031 C 0.77054 0.35616 0.58257
 C1032 C 0.76878 0.37475 0.55997
 C1033 C 0.76081 0.36743 0.53222
 C1034 C 0.74996 0.34231 0.52955
 C1035 C 0.78110 0.36347 0.60877
 C1036 C 0.78383 0.34536 0.63124
 C1037 C 0.77613 0.31901 0.62833
 C1038 C 0.76509 0.31124 0.60161
 C1039 C 0.75728 0.28491 0.59872
 C1040 C 0.75807 0.26740 0.62182
 C1041 C 0.76739 0.27511 0.64843
 C1042 C 0.77792 0.30044 0.65169
 C1043 C 0.78922 0.30610 0.67853
 C1044 C 0.78635 0.28892 0.70219
 C1045 C 0.77177 0.26591 0.70007
 C1046 C 0.76482 0.25803 0.67226
 H1047 H 0.74203 0.30537 0.54785
 H1048 H 0.77542 0.39461 0.56326
 H1049 H 0.74057 0.33647 0.50999
 H1050 H 0.78740 0.38346 0.61196
 H1051 H 0.79167 0.35279 0.65092
 H1052 H 0.74991 0.27718 0.57898
 H1053 H 0.75071 0.24775 0.61898
 H1054 H 0.79979 0.32389 0.68217
 H1055 H 0.79465 0.29443 0.72240
 H1056 H 0.75530 0.23939 0.66935
 C1057 C 0.20366 0.12823 0.56575
 C1058 C 0.21392 0.15364 0.56924
 C1059 C 0.23108 0.16333 0.54660
 C1060 C 0.23851 0.14776 0.52250
 C1061 C 0.22689 0.12336 0.51804
 C1062 C 0.21003 0.11345 0.54064
 C1063 C 0.24074 0.18868 0.54780
 C1064 C 0.23366 0.20493 0.57105
 C1065 C 0.21749 0.19598 0.59476
 C1066 C 0.20818 0.16965 0.59442
 C1067 C 0.19470 0.15993 0.61973
 C1068 C 0.19196 0.17493 0.64505
 C1069 C 0.20145 0.20048 0.64563
 C1070 C 0.21244 0.21190 0.61986
 C1071 C 0.21902 0.23867 0.62066
 C1072 C 0.22038 0.25153 0.64705
 C1073 C 0.21470 0.23827 0.67333
 C1074 C 0.20187 0.21414 0.67211
 H1075 H 0.19017 0.11949 0.58169
 H1076 H 0.25259 0.15542 0.50627
 H1077 H 0.20172 0.09410 0.53915
 H1078 H 0.25384 0.19614 0.53043
 H1079 H 0.24251 0.22402 0.57056
 H1080 H 0.18754 0.14015 0.62125
 H1081 H 0.18312 0.16614 0.66457
 H1082 H 0.22427 0.24982 0.60136
 H1083 H 0.22784 0.27133 0.64672
 H1084 H 0.19400 0.20503 0.69172
 C1085 C 0.70589 0.63943 0.08516
 C1086 C 0.69797 0.66626 0.08499
 C1087 C 0.70111 0.68029 0.05841
 C1088 C 0.71134 0.66738 0.03289
 C1089 C 0.72093 0.64096 0.03386
 C1090 C 0.71689 0.62727 0.06032
 C1091 C 0.69442 0.70721 0.05769
 C1092 C 0.68692 0.72084 0.08317
 C1093 C 0.68477 0.70777 0.11029
 C1094 C 0.68824 0.67976 0.11070
 C1095 C 0.68261 0.66621 0.13702
 C1096 C 0.67781 0.67970 0.16294
 C1097 C 0.67860 0.70708 0.16358
 C1098 C 0.68070 0.72163 0.13726
 C1099 C 0.68077 0.74939 0.13943
 C1100 C 0.68318 0.76154 0.16633
 C1101 C 0.68524 0.74650 0.19193
 C1102 C 0.67959 0.71974 0.19051
 H1103 H 0.70476 0.62734 0.10442
 H1104 H 0.71097 0.67793 0.01253
 H1105 H 0.72224 0.60651 0.06187
 H1106 H 0.69622 0.71811 0.03745
 H1107 H 0.68308 0.74175 0.08096
 H1108 H 0.68216 0.64504 0.13840
 H1109 H 0.67516 0.66848 0.18290
 H1110 H 0.68125 0.76211 0.12064
 H1111 H 0.68613 0.78258 0.16650
 H1112 H 0.67846 0.70802 0.20995
 C1113 C 0.19750 0.55097 0.20311
 C1114 C 0.18044 0.57379 0.20325
 C1115 C 0.15237 0.57015 0.20467
 C1116 C 0.14212 0.54490 0.20573
 C1117 C 0.15902 0.52234 0.20752
 C1118 C 0.18696 0.52572 0.20544
 C1119 C 0.13444 0.59174 0.20605
 C1120 C 0.14371 0.61695 0.20864
 C1121 C 0.17140 0.62146 0.20911
 C1122 C 0.19007 0.60005 0.20358
 C1123 C 0.21747 0.60580 0.19893
 C1124 C 0.22627 0.63158 0.20114
 C1125 C 0.20843 0.65211 0.21006
 C1126 C 0.18091 0.64685 0.21508
 C1127 C 0.16414 0.66644 0.22842
 C1128 C 0.17412 0.69051 0.23573
 C1129 C 0.20067 0.69721 0.22809
 C1130 C 0.21789 0.67753 0.21532
 H1131 H 0.21906 0.55211 0.20256
 H1132 H 0.12054 0.54271 0.20709
 H1133 H 0.20094 0.50903 0.20602
 H1134 H 0.11296 0.58905 0.20634
 H1135 H 0.12875 0.63280 0.20972
 H1136 H 0.23243 0.59077 0.19289
 H1137 H 0.24740 0.63521 0.19719
 H1138 H 0.14372 0.66288 0.23575
 H1139 H 0.16105 0.70321 0.24914
 H1140 H 0.23890 0.68147 0.21093
 C1141 C 0.69257 0.03597 0.72076
 C1142 C 0.68711 0.05764 0.73965
 C1143 C 0.66727 0.05440 0.76218
 C1144 C 0.65418 0.03083 0.76587
 C1145 C 0.65993 0.00863 0.74802
 C1146 C 0.67865 0.01227 0.72444
 C1147 C 0.65962 0.07500 0.78091
 C1148 C 0.66985 0.09954 0.77663
 C1149 C 0.68855 0.10435 0.75359
 C1150 C 0.69922 0.08287 0.73641
 C1151 C 0.72167 0.08760 0.71741
 C1152 C 0.73316 0.11260 0.71583
 C1153 C 0.72125 0.13414 0.73117
 C1154 C 0.69757 0.13012 0.74839
 C1155 C 0.68312 0.15208 0.75972
 C1156 C 0.69368 0.17669 0.75805
 C1157 C 0.71914 0.18102 0.74471
 C1158 C 0.73247 0.15959 0.73002
 H1159 H 0.70651 0.03738 0.70223
 H1160 H 0.63775 0.03122 0.78187
 H1161 H 0.68211 -0.00311 0.70835
 H1162 H 0.64505 0.07230 0.79881
 H1163 H 0.66345 0.11439 0.79242
 H1164 H 0.73139 0.07193 0.70465
 H1165 H 0.75108 0.11520 0.70208
 H1166 H 0.66339 0.15076 0.77018
 H1167 H 0.68218 0.19199 0.76961
 H1168 H 0.75153 0.16248 0.71844
 C1169 C 0.79559 0.06214 0.26439
 C1170 C 0.81128 0.08483 0.26353
 C1171 C 0.83931 0.08107 0.26537
 C1172 C 0.85116 0.05592 0.26298
 C1173 C 0.83585 0.03325 0.26063
 C1174 C 0.80776 0.03678 0.26465
 C1175 C 0.85554 0.10240 0.26957
 C1176 C 0.84440 0.12763 0.27199
 C1177 C 0.81676 0.13255 0.26846
 C1178 C 0.80023 0.11110 0.26230
 C1179 C 0.77388 0.11678 0.25363
 C1180 C 0.76430 0.14284 0.25072
 C1181 C 0.77988 0.16392 0.25856
 C1182 C 0.80557 0.15857 0.26943
 C1183 C 0.81899 0.17939 0.28165
 C1184 C 0.80867 0.20493 0.28037
 C1185 C 0.78548 0.21132 0.26535
 C1186 C 0.77036 0.19030 0.25560
 H1187 H 0.77395 0.06368 0.26670
 H1188 H 0.87279 0.05390 0.26343
 H1189 H 0.79497 0.02057 0.26963
 H1190 H 0.87703 0.09954 0.27140
 H1191 H 0.85823 0.14322 0.27483
 H1192 H 0.76098 0.10132 0.24726
 H1193 H 0.74443 0.14649 0.24272
 H1194 H 0.83714 0.17630 0.29331
 H1195 H 0.81960 0.21929 0.29125
 H1196 H 0.75141 0.19439 0.24562
 C1197 C 0.30316 0.55508 0.77496
 C1198 C 0.31793 0.57845 0.77559
 C1199 C 0.34619 0.57547 0.77569
 C1200 C 0.35876 0.55077 0.77269
 C1201 C 0.34445 0.52789 0.76777
 C1202 C 0.31627 0.53017 0.77183
 C1203 C 0.36218 0.59722 0.77821
 C1204 C 0.35098 0.62234 0.77744
 C1205 C 0.32329 0.62654 0.77399
 C1206 C 0.30610 0.60460 0.77574
 C1207 C 0.27807 0.60981 0.77684
 C1208 C 0.26747 0.63563 0.77506
 C1209 C 0.28435 0.65688 0.77013
 C1210 C 0.31247 0.65217 0.76861
 C1211 C 0.32895 0.67272 0.75915
 C1212 C 0.31809 0.69723 0.75255
 C1213 C 0.29051 0.70318 0.75669
 C1214 C 0.27357 0.68257 0.76535
 H1215 H 0.28153 0.55546 0.77678
 H1216 H 0.38037 0.54945 0.77353
 H1217 H 0.30408 0.51314 0.77414
 H1218 H 0.38375 0.59484 0.77973
 H1219 H 0.36449 0.63831 0.77974
 H1220 H 0.26389 0.59428 0.77926
 H1221 H 0.24588 0.63882 0.77615
 H1222 H 0.35019 0.66982 0.75431
 H1223 H 0.33160 0.71091 0.74227
 H1224 H 0.25203 0.68612 0.76696
 C1225 C 0.35733 0.42866 0.74631
 C1226 C 0.33034 0.42491 0.74066
 C1227 C 0.31354 0.44751 0.73701
 C1228 C 0.32298 0.47285 0.74283
 C1229 C 0.34902 0.47597 0.75309
 C1230 C 0.36634 0.45347 0.75190
 C1231 C 0.28768 0.44450 0.72720
 C1232 C 0.27817 0.41949 0.72163
 C1233 C 0.29388 0.39642 0.72682
 C1234 C 0.32007 0.39938 0.73746
 C1235 C 0.33492 0.37679 0.74597
 C1236 C 0.32500 0.35196 0.74336
 C1237 C 0.30004 0.34856 0.73196
 C1238 C 0.28418 0.37045 0.72292
 C1239 C 0.25921 0.36518 0.71101
 C1240 C 0.25006 0.33935 0.70971
 C1241 C 0.26543 0.31803 0.72027
 C1242 C 0.29054 0.32314 0.73096
 H1243 H 0.37232 0.41286 0.74555
 H1244 H 0.31053 0.48969 0.73736
 H1245 H 0.38751 0.45483 0.75494
 H1246 H 0.27467 0.46163 0.72380
 H1247 H 0.25801 0.41877 0.71428
 H1248 H 0.35388 0.37772 0.75618
 H1249 H 0.33695 0.33520 0.75068
 H1250 H 0.24627 0.38061 0.70276
 H1251 H 0.23046 0.33627 0.70138
 H1252 H 0.30221 0.30761 0.74094
 C1253 C 0.84301 0.93221 0.24911
 C1254 C 0.81656 0.92933 0.24067
 C1255 C 0.80067 0.95253 0.23678
 C1256 C 0.81111 0.97755 0.24204
 C1257 C 0.83717 0.98020 0.25257
 C1258 C 0.85292 0.95674 0.25432
 C1259 C 0.77468 0.95060 0.22700
 C1260 C 0.76383 0.92611 0.22209
 C1261 C 0.77870 0.90242 0.22666
 C1262 C 0.80573 0.90419 0.23553
 C1263 C 0.82103 0.88071 0.23953
 C1264 C 0.81006 0.85640 0.23663
 C1265 C 0.78348 0.85430 0.22956
 C1266 C 0.76743 0.87696 0.22357
 C1267 C 0.74056 0.87292 0.21617
 C1268 C 0.72994 0.84759 0.21683
 C1269 C 0.74571 0.82556 0.22484
 C1270 C 0.77267 0.82941 0.23031
 H1271 H 0.85720 0.91603 0.25134
 H1272 H 0.79939 0.99446 0.23536
 H1273 H 0.87388 0.95690 0.25872
 H1274 H 0.76243 0.96823 0.22344
 H1275 H 0.74357 0.92634 0.21493
 H1276 H 0.84155 0.88010 0.24566
 H1277 H 0.82244 0.83895 0.24079
 H1278 H 0.72703 0.88897 0.21073
 H1279 H 0.70897 0.84553 0.21251
 H1280 H 0.78498 0.81355 0.23857
 C1281 C 0.65682 0.91157 0.77226
 C1282 C 0.68489 0.90856 0.76886
 C1283 C 0.69935 0.92962 0.75639
 C1284 C 0.68627 0.95405 0.75110
 C1285 C 0.65811 0.95721 0.75498
 C1286 C 0.64382 0.93504 0.76482
 C1287 C 0.72672 0.92596 0.74906
 C1288 C 0.73950 0.90138 0.75244
 C1289 C 0.72578 0.88020 0.76553
 C1290 C 0.69881 0.88478 0.77624
 C1291 C 0.68676 0.86572 0.79446
 C1292 C 0.70000 0.84195 0.80014
 C1293 C 0.72483 0.83571 0.78631
 C1294 C 0.73793 0.85456 0.76843
 C1295 C 0.76174 0.84641 0.75279
 C1296 C 0.77090 0.82010 0.75342
 C1297 C 0.75729 0.80130 0.77052
 C1298 C 0.73569 0.81010 0.78882
 H1299 H 0.64432 0.89562 0.77944
 H1300 H 0.69846 0.97014 0.74395
 H1301 H 0.62212 0.93608 0.76734
 H1302 H 0.73810 0.94192 0.73956
 H1303 H 0.76048 0.89970 0.74570
 H1304 H 0.66733 0.86912 0.80532
 H1305 H 0.68999 0.82772 0.81413
 H1306 H 0.77245 0.85944 0.73814
 H1307 H 0.78812 0.81441 0.73945
 H1308 H 0.72573 0.79664 0.80334
 C1309 C 0.19006 0.43420 0.18692
 C1310 C 0.20213 0.42646 0.21268
 C1311 C 0.19623 0.44161 0.23797
 C1312 C 0.18060 0.46510 0.23645
 C1313 C 0.16702 0.47204 0.21103
 C1314 C 0.17226 0.45572 0.18643
 C1315 C 0.20472 0.43237 0.26480
 C1316 C 0.21689 0.40736 0.26713
 C1317 C 0.22298 0.39175 0.24221
 C1318 C 0.21796 0.40283 0.21445
 C1319 C 0.22864 0.38986 0.18929
 C1320 C 0.24151 0.36539 0.19108
 C1321 C 0.24306 0.35260 0.21782
 C1322 C 0.23370 0.36540 0.24381
 C1323 C 0.23423 0.35077 0.27000
 C1324 C 0.24236 0.32411 0.26984
 C1325 C 0.25088 0.31145 0.24378
 C1326 C 0.25308 0.32665 0.21841
 H1327 H 0.19218 0.42255 0.16731
 H1328 H 0.17743 0.47699 0.25587
 H1329 H 0.16244 0.45823 0.16637
 H1330 H 0.20044 0.44383 0.28439
 H1331 H 0.22194 0.40087 0.28860
 H1332 H 0.22777 0.39858 0.16791
 H1333 H 0.24900 0.35583 0.17117
 H1334 H 0.22700 0.35899 0.29057
 H1335 H 0.24130 0.31327 0.29013
 H1336 H 0.26190 0.31828 0.19859
 C1337 C 0.04540 0.22435 0.81139
 C1338 C 0.06369 0.24493 0.80751
 C1339 C 0.05838 0.26820 0.82385
 C1340 C 0.03736 0.26969 0.84498
 C1341 C 0.01879 0.24945 0.84867
 C1342 C 0.02326 0.22679 0.83122
 C1343 C 0.07429 0.29005 0.81941
 C1344 C 0.09545 0.28942 0.79895
 C1345 C 0.10250 0.26629 0.78318
 C1346 C 0.08718 0.24329 0.78840
 C1347 C 0.09685 0.21928 0.77577
 C1348 C 0.12141 0.21766 0.75992
 C1349 C 0.13634 0.24015 0.75456
 C1350 C 0.12587 0.26497 0.76424
 C1351 C 0.13965 0.28757 0.75519
 C1352 C 0.16507 0.28532 0.74172
 C1353 C 0.17783 0.26051 0.73695
 C1354 C 0.16224 0.23805 0.74094
 H1355 H 0.04733 0.20644 0.79882
 H1356 H 0.03618 0.28696 0.85853
 H1357 H 0.00957 0.21069 0.83318
 H1358 H 0.07024 0.30798 0.83181
 H1359 H 0.10710 0.30694 0.79736
 H1360 H 0.08671 0.20104 0.77948
 H1361 H 0.12897 0.19856 0.75221
 H1362 H 0.13141 0.30727 0.75874
 H1363 H 0.17536 0.30337 0.73682
 H1364 H 0.17042 0.21888 0.73480
 C1365 C 0.51465 0.74292 0.30919
 C1366 C 0.53949 0.74993 0.32013
 C1367 C 0.53991 0.75583 0.35016
 C1368 C 0.51686 0.75382 0.36827
 C1369 C 0.49170 0.74922 0.35704
 C1370 C 0.49121 0.74271 0.32729
 C1371 C 0.56328 0.76419 0.36215
 C1372 C 0.58596 0.76841 0.34464
 C1373 C 0.58651 0.76319 0.31455
 C1374 C 0.56380 0.75177 0.30248
 C1375 C 0.56664 0.74214 0.27366
 C1376 C 0.59104 0.74361 0.25747
 C1377 C 0.61272 0.75658 0.26853
 C1378 C 0.60975 0.76793 0.29658
 C1379 C 0.62999 0.78414 0.30569
 C1380 C 0.65374 0.78629 0.28940
 C1381 C 0.65874 0.77212 0.26335
 C1382 C 0.63749 0.75810 0.25230
 H1383 H 0.51264 0.73831 0.28656
 H1384 H 0.51814 0.75725 0.39140
 H1385 H 0.47290 0.73685 0.31782
 H1386 H 0.56381 0.76831 0.38521
 H1387 H 0.60337 0.77471 0.35550
 H1388 H 0.55065 0.73220 0.26366
 H1389 H 0.59277 0.73498 0.23595
 H1390 H 0.62784 0.79567 0.32537
 H1391 H 0.66875 0.79831 0.29853
 H1392 H 0.64041 0.74770 0.23188
 C1393 C 0.56933 0.24617 0.19615
 C1394 C 0.58925 0.26409 0.18762
 C1395 C 0.58667 0.27718 0.16064
 C1396 C 0.56481 0.27281 0.14343
 C1397 C 0.54555 0.25397 0.15109
 C1398 C 0.54827 0.24103 0.17815
 C1399 C 0.60644 0.29410 0.15031
 C1400 C 0.62989 0.29646 0.16490
 C1401 C 0.63395 0.28269 0.19104
 C1402 C 0.61241 0.26837 0.20401
 C1403 C 0.61499 0.25883 0.23266
 C1404 C 0.63861 0.26193 0.24731
 C1405 C 0.66102 0.27296 0.23323
 C1406 C 0.65902 0.28274 0.20453
 C1407 C 0.68266 0.29017 0.18930
 C1408 C 0.70722 0.28816 0.20211
 C1409 C 0.70923 0.28077 0.23140
 C1410 C 0.68577 0.27317 0.24693
 H1411 H 0.57038 0.23469 0.21585
 H1412 H 0.56390 0.28390 0.12360
 H1413 H 0.53455 0.22590 0.18506
 H1414 H 0.60431 0.30476 0.13006
 H1415 H 0.64444 0.30971 0.15556
 H1416 H 0.59875 0.24942 0.24448
 H1417 H 0.63973 0.25447 0.26932
 H1418 H 0.68308 0.29564 0.16662
 H1419 H 0.72480 0.29204 0.18836
 H1420 H 0.68702 0.26593 0.26902
 C1421 C 0.07129 0.72399 0.67396
 C1422 C 0.09002 0.74395 0.66887
 C1423 C 0.08573 0.76129 0.64520
 C1424 C 0.06375 0.75857 0.62753
 C1425 C 0.04556 0.73805 0.63190
 C1426 C 0.04981 0.72107 0.65582
 C1427 C 0.10384 0.78102 0.63864
 C1428 C 0.12711 0.78284 0.65370
 C1429 C 0.13314 0.76505 0.67630
 C1430 C 0.11347 0.74662 0.68549
 C1431 C 0.11809 0.73158 0.71081
 C1432 C 0.14173 0.73363 0.72569
 C1433 C 0.16223 0.74978 0.71524
 C1434 C 0.15825 0.76524 0.68998
 C1435 C 0.18013 0.77921 0.67825
 C1436 C 0.20464 0.77833 0.69126
 C1437 C 0.20849 0.76447 0.71737
 C1438 C 0.18696 0.75004 0.72922
 H1439 H 0.07343 0.70949 0.69092
 H1440 H 0.06183 0.77216 0.60960
 H1441 H 0.03696 0.70450 0.65971
 H1442 H 0.10035 0.79485 0.62111
 H1443 H 0.13990 0.79880 0.64745
 H1444 H 0.10346 0.71834 0.71995
 H1445 H 0.14434 0.72179 0.74505
 H1446 H 0.17944 0.78995 0.65805
 H1447 H 0.22074 0.78895 0.68051
 H1448 H 0.18969 0.73829 0.74861
 C1449 C 0.94845 0.71506 0.62534
 C1450 C 0.94299 0.72335 0.65425
 C1451 C 0.96477 0.73186 0.66991
 C1452 C 0.99029 0.73441 0.65597
 C1453 C 0.99591 0.72643 0.62669
 C1454 C 0.97406 0.71666 0.61205
 C1455 C 0.96082 0.73844 0.69929
 C1456 C 0.93568 0.73659 0.71347
 C1457 C 0.91303 0.72950 0.69833
 C1458 C 0.91661 0.72388 0.66792
 C1459 C 0.89360 0.72036 0.65182
 C1460 C 0.86802 0.72232 0.66489
 C1461 C 0.86428 0.72656 0.69472
 C1462 C 0.88668 0.72912 0.71215
 C1463 C 0.88159 0.73138 0.74261
 C1464 C 0.85531 0.73192 0.75487
 C1465 C 0.83314 0.73066 0.73729
 C1466 C 0.83809 0.72853 0.70706
 H1467 H 0.93330 0.70698 0.61232
 H1468 H 1.00523 0.74401 0.66804
 H1469 H 0.97574 0.71086 0.58972
 H1470 H 0.97743 0.74492 0.71156
 H1471 H 0.93430 0.74214 0.73608
 H1472 H 0.89462 0.71739 0.62863
 H1473 H 0.85092 0.72026 0.65145
 H1474 H 0.89757 0.73233 0.75753
 H1475 H 0.85244 0.73404 0.77818
 H1476 H 0.82145 0.72831 0.69276
 C1477 C 0.46072 0.21041 0.16318
 C1478 C 0.45001 0.22846 0.18417
 C1479 C 0.46413 0.25181 0.18830
 C1480 C 0.48785 0.25667 0.17175
 C1481 C 0.49754 0.23939 0.14942
 C1482 C 0.48378 0.21572 0.14635
 C1483 C 0.45404 0.27062 0.20826
 C1484 C 0.42926 0.26767 0.22274
 C1485 C 0.41377 0.24535 0.21820
 C1486 C 0.42512 0.22472 0.20002
 C1487 C 0.41076 0.20135 0.19757
 C1488 C 0.38485 0.19949 0.20935
 C1489 C 0.37232 0.22068 0.22419
 C1490 C 0.38688 0.24342 0.23006
 C1491 C 0.37323 0.26384 0.24607
 C1492 C 0.34574 0.26284 0.25288
 C1493 C 0.33077 0.24140 0.24427
 C1494 C 0.34482 0.21974 0.23171
 H1495 H 0.45131 0.19223 0.15840
 H1496 H 0.49826 0.27474 0.17526
 H1497 H 0.49027 0.20071 0.13090
 H1498 H 0.46494 0.28836 0.21191
 H1499 H 0.42263 0.28348 0.23711
 H1500 H 0.41885 0.18415 0.18624
 H1501 H 0.37411 0.18163 0.20574
 H1502 H 0.38281 0.28152 0.25235
 H1503 H 0.33607 0.27987 0.26340
 H1504 H 0.33436 0.20265 0.22588
 C1505 C 0.39517 0.73036 0.36075
 C1506 C 0.39020 0.74543 0.33564
 C1507 C 0.40914 0.76437 0.32689
 C1508 C 0.43348 0.76588 0.34121
 C1509 C 0.43969 0.74823 0.36390
 C1510 C 0.41918 0.73194 0.37462
 C1511 C 0.40358 0.78154 0.30395
 C1512 C 0.37965 0.78020 0.28947
 C1513 C 0.36070 0.76086 0.29672
 C1514 C 0.36665 0.74270 0.31961
 C1515 C 0.34924 0.72183 0.32539
 C1516 C 0.32566 0.71989 0.31115
 C1517 C 0.31851 0.73849 0.29037
 C1518 C 0.33594 0.75892 0.28216
 C1519 C 0.32738 0.77660 0.26020
 C1520 C 0.30191 0.77477 0.24849
 C1521 C 0.28404 0.75559 0.25848
 C1522 C 0.29341 0.73686 0.27852
 H1523 H 0.38059 0.71756 0.37076
 H1524 H 0.44796 0.78032 0.33420
 H1525 H 0.42148 0.72016 0.39402
 H1526 H 0.41779 0.79635 0.29727
 H1527 H 0.37672 0.79432 0.27229
 H1528 H 0.35349 0.70623 0.34060
 H1529 H 0.31265 0.70377 0.31683
 H1530 H 0.33952 0.79252 0.25231
 H1531 H 0.29584 0.78933 0.23281
 H1532 H 0.28066 0.72133 0.28650
 C1533 C 0.91851 0.25576 0.86595
 C1534 C 0.91444 0.25224 0.83613
 C1535 C 0.93716 0.25226 0.81663
 C1536 C 0.96330 0.25240 0.82734
 C1537 C 0.96718 0.25288 0.85761
 C1538 C 0.94416 0.25616 0.87629
 C1539 C 0.93350 0.25190 0.78665
 C1540 C 0.90780 0.25115 0.77579
 C1541 C 0.88475 0.24934 0.79459
 C1542 C 0.88844 0.24895 0.82526
 C1543 C 0.86628 0.24394 0.84429
 C1544 C 0.84111 0.24048 0.83399
 C1545 C 0.83677 0.24239 0.80440
 C1546 C 0.85819 0.24715 0.78408
 C1547 C 0.85183 0.24942 0.75436
 C1548 C 0.82522 0.24742 0.74565
 C1549 C 0.80418 0.24301 0.76618
 C1550 C 0.81075 0.23955 0.79537
 H1551 H 0.90221 0.25859 0.88192
 H1552 H 0.98030 0.25198 0.81193
 H1553 H 0.94610 0.25793 0.89954
 H1554 H 0.95068 0.25232 0.77141
 H1555 H 0.90663 0.25099 0.75247
 H1556 H 0.86793 0.24143 0.86740
 H1557 H 0.82475 0.23646 0.84952
 H1558 H 0.86691 0.25325 0.73750
 H1559 H 0.82125 0.24930 0.72285
 H1560 H 0.79535 0.23525 0.81188
 C1561 C 0.59245 1.00698 0.69487
 C1562 C 0.58535 0.98353 0.68123
 C1563 C 0.60052 0.96023 0.68684
 C1564 C 0.62041 0.96026 0.70762
 C1565 C 0.62503 0.98324 0.72374
 C1566 C 0.61149 1.00671 0.71579
 C1567 C 0.59549 0.93706 0.67188
 C1568 C 0.57576 0.93665 0.65134
 C1569 C 0.55973 0.95931 0.64568
 C1570 C 0.56412 0.98282 0.66169
 C1571 C 0.54698 1.00501 0.65790
 C1572 C 0.52895 1.00574 0.63620
 C1573 C 0.52658 0.98405 0.61825
 C1574 C 0.54021 0.95992 0.62376
 C1575 C 0.53377 0.93799 0.60658
 C1576 C 0.51757 0.94131 0.58240
 C1577 C 0.50936 0.96668 0.57355
 C1578 C 0.51157 0.98715 0.59384
 H1579 H 0.58359 1.02602 0.69002
 H1580 H 0.63149 0.94206 0.71147
 H1581 H 0.61462 1.02502 0.72690
 H1582 H 0.60715 0.91913 0.67582
 H1583 H 0.57357 0.91835 0.63999
 H1584 H 0.54717 1.02242 0.67118
 H1585 H 0.51728 1.02381 0.63289
 H1586 H 0.54117 0.91829 0.61116
 H1587 H 0.51234 0.92414 0.57034
 H1588 H 0.50325 1.00672 0.58992
 C1589 C 0.12224 0.49056 1.13340
 C1590 C 0.09630 0.48056 1.13714
 C1591 C 0.08409 0.48093 1.16544
 C1592 C 0.09906 0.48717 1.18950
 C1593 C 0.12653 0.49301 1.18601
 C1594 C 0.13656 0.49753 1.15731
 C1595 C 0.05709 0.47480 1.16954
 C1596 C 0.04192 0.46867 1.14599
 C1597 C 0.05365 0.46714 1.11752
 C1598 C 0.08170 0.47144 1.11348
 C1599 C 0.09443 0.46600 1.08608
 C1600 C 0.07969 0.45945 1.06248
 C1601 C 0.05175 0.45933 1.06508
 C1602 C 0.03831 0.46236 1.09271
 C1603 C 0.00995 0.46226 1.09383
 C1604 C -0.00410 0.46387 1.06828
 C1605 C 0.00968 0.46525 1.04100
 C1606 C 0.03715 0.45868 1.03983
 H1607 H 0.13181 0.49343 1.11218
 H1608 H 0.08887 0.48731 1.21065
 H1609 H 0.15679 0.50427 1.15332
 H1610 H 0.04746 0.47517 1.19112
 H1611 H 0.02115 0.46456 1.15087
 H1612 H 0.11594 0.46644 1.08245
 H1613 H 0.09016 0.45614 1.04162
 H1614 H -0.00193 0.46364 1.11392
 H1615 H -0.02566 0.46719 1.07024
 H1616 H 0.04784 0.45593 1.01928
 C1617 C -0.13453 0.01250 1.17450
 C1618 C -0.10702 0.01713 1.17082
 C1619 C -0.09266 0.02233 1.19581
 C1620 C -0.10509 0.01923 1.22384
 C1621 C -0.13182 0.01063 1.22722
 C1622 C -0.14648 0.00968 1.20184
 C1623 C -0.06624 0.03076 1.19237
 C1624 C -0.05382 0.03344 1.16465
 C1625 C -0.06702 0.02648 1.13938
 C1626 C -0.09380 0.01738 1.14290
 C1627 C -0.10630 0.00729 1.11868
 C1628 C -0.09337 0.00639 1.09174
 C1629 C -0.06766 0.01586 1.08766
 C1630 C -0.05421 0.02692 1.11082
 C1631 C -0.02845 0.03713 1.10419
 C1632 C -0.01642 0.03513 1.07589
 C1633 C -0.02956 0.02263 1.05364
 C1634 C -0.05509 0.01293 1.06039
 H1635 H -0.14771 0.01189 1.15661
 H1636 H -0.09413 0.02456 1.24251
 H1637 H -0.16784 0.00715 1.20283
 H1638 H -0.05506 0.03533 1.21124
 H1639 H -0.03341 0.03988 1.16364
 H1640 H -0.12563 -0.00164 1.12012
 H1641 H -0.10356 -0.00217 1.07389
 H1642 H -0.01719 0.04657 1.12044
 H1643 H 0.00357 0.04238 1.07179
 H1644 H -0.06533 0.00171 1.04465
 C1645 C 0.37859 0.52220 0.68240
 C1646 C 0.40481 0.53148 0.68252
 C1647 C 0.41857 0.52938 0.70868
 C1648 C 0.40552 0.51994 0.73424
 C1649 C 0.37935 0.51008 0.73388
 C1650 C 0.36631 0.51190 0.70736
 C1651 C 0.44529 0.53679 0.70908
 C1652 C 0.45916 0.54408 0.68351
 C1653 C 0.44625 0.54566 0.65686
 C1654 C 0.41809 0.54173 0.65710
 C1655 C 0.40419 0.54782 0.63180
 C1656 C 0.41792 0.55357 0.60583
 C1657 C 0.44588 0.55263 0.60411
 C1658 C 0.46050 0.54974 0.62969
 C1659 C 0.48880 0.54863 0.62649
 C1660 C 0.50153 0.54594 0.59897
 C1661 C 0.48647 0.54483 0.57392
 C1662 C 0.45916 0.55193 0.57668
 H1663 H 0.36716 0.52204 0.66309
 H1664 H 0.41553 0.52187 0.75434
 H1665 H 0.34578 0.50614 0.70591
 H1666 H 0.45593 0.53580 0.72908
 H1667 H 0.47998 0.54865 0.68527
 H1668 H 0.38259 0.54812 0.63144
 H1669 H 0.40659 0.55676 0.58651
 H1670 H 0.50150 0.54709 0.64478
 H1671 H 0.52300 0.54198 0.59770
 H1672 H 0.44748 0.55413 0.55774
 C1673 C 0.36832 0.48882 -0.15745
 C1674 C 0.39567 0.48233 -0.15420
 C1675 C 0.41255 0.48031 -0.17965
 C1676 C 0.40254 0.48702 -0.20700
 C1677 C 0.37562 0.49611 -0.20963
 C1678 C 0.35868 0.49525 -0.18437
 C1679 C 0.43921 0.47138 -0.17761
 C1680 C 0.44971 0.46542 -0.15069
 C1681 C 0.43409 0.46901 -0.12458
 C1682 C 0.40663 0.47778 -0.12650
 C1683 C 0.39130 0.48327 -0.10064
 C1684 C 0.40264 0.48179 -0.07396
 C1685 C 0.42946 0.47410 -0.07181
 C1686 C 0.44528 0.46599 -0.09655
 C1687 C 0.47192 0.45670 -0.09197
 C1688 C 0.48280 0.45798 -0.06431
 C1689 C 0.46765 0.46892 -0.04060
 C1690 C 0.44084 0.47654 -0.04504
 H1691 H 0.35347 0.48844 -0.13975
 H1692 H 0.41560 0.48371 -0.22605
 H1693 H 0.33733 0.49929 -0.18540
 H1694 H 0.45223 0.46925 -0.19701
 H1695 H 0.47057 0.45918 -0.15086
 H1696 H 0.37079 0.49053 -0.10018
 H1697 H 0.39042 0.48753 -0.05479
 H1698 H 0.48494 0.44897 -0.10945
 H1699 H 0.50367 0.45218 -0.06205
 H1700 H 0.42891 0.48689 -0.02833
 C1701 C -0.13746 0.99786 0.33784
 C1702 C -0.11119 0.98701 0.33944
 C1703 C -0.09539 0.98465 0.31320
 C1704 C -0.10600 0.99246 0.28647
 C1705 C -0.13261 1.00276 0.28502
 C1706 C -0.14787 1.00499 0.31141
 C1707 C -0.06934 0.97374 0.31366
 C1708 C -0.05839 0.96566 0.33967
 C1709 C -0.07321 0.96801 0.36645
 C1710 C -0.10025 0.97839 0.36617
 C1711 C -0.11548 0.98005 0.39273
 C1712 C -0.10412 0.97419 0.41886
 C1713 C -0.07730 0.96605 0.41971
 C1714 C -0.06169 0.96148 0.39371
 C1715 C -0.03487 0.95203 0.39648
 C1716 C -0.02335 0.95074 0.42376
 C1717 C -0.03809 0.95896 0.44906
 C1718 C -0.06562 0.96473 0.44666
 H1719 H -0.15100 1.00067 0.35648
 H1720 H -0.09413 0.98802 0.26683
 H1721 H -0.16873 1.01154 0.31168
 H1722 H -0.05715 0.97159 0.29366
 H1723 H -0.03805 0.95786 0.33812
 H1724 H -0.13622 0.98647 0.39441
 H1725 H -0.11631 0.97699 0.43878
 H1726 H -0.02185 0.94689 0.37792
 H1727 H -0.00211 0.94589 0.42451
 H1728 H -0.07764 0.97198 0.46513
 C1729 C 0.10325 0.46954 0.27752
 C1730 C 0.10244 0.49056 0.29772
 C1731 C 0.11765 0.51284 0.29044
 C1732 C 0.13147 0.51451 0.26323
 C1733 C 0.13033 0.49443 0.24204
 C1734 C 0.11719 0.47136 0.25066
 C1735 C 0.11923 0.53330 0.31046
 C1736 C 0.10589 0.53228 0.33762
 C1737 C 0.08987 0.51082 0.34572
 C1738 C 0.08773 0.48991 0.32512
 C1739 C 0.07057 0.46912 0.33234
 C1740 C 0.05702 0.46803 0.35914
 C1741 C 0.05981 0.48755 0.37987
 C1742 C 0.07592 0.50945 0.37367
 C1743 C 0.07749 0.52861 0.39597
 C1744 C 0.06421 0.52551 0.42334
 C1745 C 0.04900 0.50324 0.42944
 C1746 C 0.04670 0.48475 0.40705
 H1747 H 0.09380 0.45109 0.28198
 H1748 H 0.14362 0.53149 0.25934
 H1749 H 0.11745 0.45462 0.23611
 H1750 H 0.13106 0.55036 0.30511
 H1751 H 0.10829 0.54882 0.35175
 H1752 H 0.06681 0.45345 0.31753
 H1753 H 0.04429 0.45146 0.36376
 H1754 H 0.08929 0.54593 0.39319
 H1755 H 0.06676 0.54005 0.44003
 H1756 H 0.03530 0.46717 0.41080
 C1757 C 0.58010 -0.00326 -0.19598
 C1758 C 0.59269 0.00186 -0.16979
 C1759 C 0.62069 -0.00363 -0.16917
 C1760 C 0.63536 -0.01243 -0.19406
 C1761 C 0.62338 -0.01363 -0.22106
 C1762 C 0.59514 -0.01083 -0.22109
 C1763 C 0.63437 0.00100 -0.14417
 C1764 C 0.62079 0.01027 -0.11927
 C1765 C 0.59267 0.01472 -0.11815
 C1766 C 0.57853 0.01176 -0.14413
 C1767 C 0.55088 0.01889 -0.14346
 C1768 C 0.53706 0.02636 -0.11763
 C1769 C 0.55006 0.02633 -0.09141
 C1770 C 0.57814 0.02100 -0.09157
 C1771 C 0.59023 0.01936 -0.06468
 C1772 C 0.57486 0.01950 -0.03900
 C1773 C 0.54681 0.02378 -0.03817
 C1774 C 0.53488 0.02912 -0.06483
 H1775 H 0.55869 -0.00130 -0.19786
 H1776 H 0.65692 -0.01559 -0.19326
 H1777 H 0.58430 -0.01393 -0.24049
 H1778 H 0.65593 -0.00234 -0.14390
 H1779 H 0.63316 0.01409 -0.10130
 H1780 H 0.53926 0.01870 -0.16262
 H1781 H 0.51569 0.03079 -0.11797
 H1782 H 0.61121 0.01454 -0.06252
 H1783 H 0.58542 0.01249 -0.02064
 H1784 H 0.51326 0.03177 -0.06522
 C1785 C 0.66164 0.60925 -0.01511
 C1786 C 0.66023 0.58169 -0.01314
 C1787 C 0.68339 0.56713 -0.00520
 C1788 C 0.70766 0.57989 -0.00175
 C1789 C 0.70820 0.60761 -0.00024
 C1790 C 0.68487 0.62179 -0.00833
 C1791 C 0.68190 0.54007 0.00016
 C1792 C 0.65728 0.52783 0.00030
 C1793 C 0.63385 0.54181 -0.00770
 C1794 C 0.63616 0.56832 -0.01750
 C1795 C 0.61441 0.58056 -0.03134
 C1796 C 0.59034 0.56793 -0.03335
 C1797 C 0.58659 0.54362 -0.01981
 C1798 C 0.60810 0.53039 -0.00627
 C1799 C 0.60251 0.50723 0.00970
 C1800 C 0.57623 0.49855 0.01322
 C1801 C 0.55498 0.51190 -0.00020
 C1802 C 0.56100 0.53323 -0.01841
 H1803 H 0.64453 0.62175 -0.01999
 H1804 H 0.72560 0.56776 -0.00166
 H1805 H 0.68456 0.64309 -0.00943
 H1806 H 0.69954 0.52867 0.00614
 H1807 H 0.65718 0.50716 0.00592
 H1808 H 0.61577 0.59971 -0.04147
 H1809 H 0.57400 0.57802 -0.04401
 H1810 H 0.61771 0.49664 0.02142
 H1811 H 0.57259 0.48174 0.02720
 H1812 H 0.54559 0.54281 -0.03050
 C1813 C 0.19502 1.04328 0.48005
 C1814 C 0.16863 1.05377 0.47766
 C1815 C 0.16522 1.08138 0.47523
 C1816 C 0.18643 1.09766 0.48020
 C1817 C 0.21259 1.08748 0.48422
 C1818 C 0.21682 1.05996 0.48181
 C1819 C 0.14054 1.09276 0.46830
 C1820 C 0.11892 1.07712 0.46382
 C1821 C 0.12072 1.04971 0.46866
 C1822 C 0.14546 1.03805 0.47741
 C1823 C 0.14556 1.01188 0.48792
 C1824 C 0.12170 0.99828 0.49132
 C1825 C 0.09761 1.00939 0.48179
 C1826 C 0.09768 1.03421 0.46780
 C1827 C 0.07446 1.04287 0.45390
 C1828 C 0.05081 1.02941 0.45779
 C1829 C 0.04912 1.00801 0.47702
 C1830 C 0.07316 0.99673 0.48710
 H1831 H 0.19929 1.02229 0.47929
 H1832 H 0.18236 1.11867 0.48105
 H1833 H 0.23667 1.05091 0.48124
 H1834 H 0.13797 1.11395 0.46607
 H1835 H 0.10028 1.08722 0.45897
 H1836 H 0.16348 1.00246 0.49595
 H1837 H 0.12209 0.97902 0.50155
 H1838 H 0.07424 1.05993 0.43980
 H1839 H 0.03365 1.03658 0.44645
 H1840 H 0.07274 0.97897 0.50021
 C1841 C 0.20689 -0.05441 0.96842
 C1842 C 0.18513 -0.05767 0.98868
 C1843 C 0.18911 -0.07527 1.01211
 C1844 C 0.21262 -0.09107 1.01312
 C1845 C 0.23400 -0.08869 0.99225
 C1846 C 0.23079 -0.06939 0.97040
 C1847 C 0.16917 -0.07785 1.03403
 C1848 C 0.14521 -0.06340 1.03321
 C1849 C 0.13969 -0.04663 1.00958
 C1850 C 0.15946 -0.04453 0.98633
 C1851 C 0.15227 -0.03073 0.96096
 C1852 C 0.12638 -0.02004 0.95819
 C1853 C 0.10715 -0.02147 0.98111
 C1854 C 0.11422 -0.03337 1.00766
 C1855 C 0.09548 -0.03142 1.03142
 C1856 C 0.06961 -0.02143 1.02783
 C1857 C 0.06100 -0.01390 1.00028
 C1858 C 0.08070 -0.01168 0.97763
 H1859 H 0.20602 -0.04038 0.95082
 H1860 H 0.21316 -0.10607 1.02976
 H1861 H 0.24651 -0.06664 0.95381
 H1862 H 0.17207 -0.09129 1.05206
 H1863 H 0.13060 -0.06707 1.05062
 H1864 H 0.16584 -0.02922 0.94217
 H1865 H 0.12133 -0.01074 0.93784
 H1866 H 0.10040 -0.03715 1.05318
 H1867 H 0.05620 -0.02030 1.04694
 H1868 H 0.07539 -0.00294 0.95711
 C1869 C 0.71852 0.45165 0.51550
 C1870 C 0.69275 0.44097 0.51894
 C1871 C 0.69125 0.41336 0.52173
 C1872 C 0.71398 0.39722 0.51649
 C1873 C 0.73979 0.40750 0.51235
 C1874 C 0.74175 0.43515 0.51374
 C1875 C 0.66702 0.40180 0.52963
 C1876 C 0.64417 0.41732 0.53550
 C1877 C 0.64432 0.44476 0.53091
 C1878 C 0.66839 0.45651 0.52032
 C1879 C 0.66675 0.48262 0.50965
 C1880 C 0.64189 0.49613 0.50835
 C1881 C 0.61852 0.48509 0.52045
 C1882 C 0.62036 0.46027 0.53430
 C1883 C 0.59818 0.45182 0.55128
 C1884 C 0.57385 0.46567 0.55101
 C1885 C 0.57019 0.48716 0.53224
 C1886 C 0.59318 0.49798 0.51845
 H1887 H 0.72111 0.47271 0.51558
 H1888 H 0.71142 0.37616 0.51580
 H1889 H 0.76082 0.44449 0.51345
 H1890 H 0.66584 0.38060 0.53195
 H1891 H 0.62598 0.40721 0.54144
 H1892 H 0.68415 0.49206 0.50010
 H1893 H 0.64099 0.51539 0.49817
 H1894 H 0.59949 0.43482 0.56542
 H1895 H 0.55787 0.45889 0.56525
 H1896 H 0.59131 0.51581 0.50560
 C1897 C -0.16060 0.39220 0.51598
 C1898 C -0.15427 0.41660 0.50339
 C1899 C -0.17410 0.42985 0.48731
 C1900 C -0.20041 0.42015 0.48722
 C1901 C -0.20769 0.39809 0.50436
 C1902 C -0.18641 0.38312 0.51607
 C1903 C -0.16735 0.45249 0.47154
 C1904 C -0.14142 0.46223 0.47169
 C1905 C -0.12142 0.45010 0.48849
 C1906 C -0.12846 0.42743 0.50535
 C1907 C -0.10978 0.41651 0.52443
 C1908 C -0.08422 0.42585 0.52530
 C1909 C -0.07631 0.44668 0.50760
 C1910 C -0.09463 0.45962 0.48929
 C1911 C -0.08494 0.48104 0.47236
 C1912 C -0.05809 0.48861 0.47335
 C1913 C -0.04006 0.47510 0.49113
 C1914 C -0.04979 0.45426 0.50817
 H1915 H -0.14579 0.37913 0.52522
 H1916 H -0.21518 0.42990 0.47402
 H1917 H -0.18929 0.36378 0.52536
 H1918 H -0.18221 0.46272 0.45884
 H1919 H -0.13772 0.47964 0.45884
 H1920 H -0.11451 0.40095 0.53961
 H1921 H -0.07041 0.41650 0.53999
 H1922 H -0.09748 0.49195 0.45780
 H1923 H -0.05136 0.50470 0.45966
 H1924 H -0.03631 0.44282 0.52139
 C1925 C 0.33440 -0.10735 -0.01101
 C1926 C 0.33994 -0.08056 -0.00757
 C1927 C 0.31821 -0.06194 -0.00761
 C1928 C 0.29147 -0.07049 -0.00744
 C1929 C 0.28613 -0.09755 -0.00998
 C1930 C 0.30826 -0.11547 -0.01257
 C1931 C 0.32351 -0.03502 -0.00806
 C1932 C 0.34989 -0.02639 -0.00898
 C1933 C 0.37193 -0.04442 -0.00728
 C1934 C 0.36653 -0.07182 -0.00473
 C1935 C 0.38761 -0.08964 0.00199
 C1936 C 0.41331 -0.08112 0.00535
 C1937 C 0.41935 -0.05480 0.00072
 C1938 C 0.39913 -0.03613 -0.00669
 C1939 C 0.40715 -0.01013 -0.01303
 C1940 C 0.43405 -0.00305 -0.01115
 C1941 C 0.45370 -0.02140 -0.00211
 C1942 C 0.44560 -0.04712 0.00425
 H1943 H 0.35000 -0.12244 -0.01373
 H1944 H 0.27520 -0.05596 -0.00558
 H1945 H 0.30520 -0.13627 -0.01574
 H1946 H 0.30714 -0.02048 -0.00839
 H1947 H 0.35247 -0.00537 -0.00957
 H1948 H 0.38448 -0.11023 0.00639
 H1949 H 0.42875 -0.09541 0.01126
 H1950 H 0.39311 0.00497 -0.01994
 H1951 H 0.43921 0.01712 -0.01585
 H1952 H 0.45934 -0.06130 0.01353
 C1953 C 0.31149 1.10311 0.48993
 C1954 C 0.31709 1.07859 0.50301
 C1955 C 0.29524 1.06482 0.51563
 C1956 C 0.26864 1.07449 0.51264
 C1957 C 0.26322 1.09665 0.49501
 C1958 C 0.28537 1.11188 0.48630
 C1959 C 0.30014 1.04150 0.53096
 C1960 C 0.32618 1.03103 0.53295
 C1961 C 0.34842 1.04342 0.51931
 C1962 C 0.34369 1.06770 0.50422
 C1963 C 0.36557 1.08000 0.48991
 C1964 C 0.39124 1.06929 0.49052
 C1965 C 0.39625 1.04576 0.50503
 C1966 C 0.37520 1.03232 0.51973
 C1967 C 0.38202 1.00820 0.53364
 C1968 C 0.40849 0.99793 0.53234
 C1969 C 0.42904 1.01137 0.51735
 C1970 C 0.42244 1.03545 0.50414
 H1971 H 0.32675 1.11637 0.48248
 H1972 H 0.25226 1.06451 0.52371
 H1973 H 0.28281 1.13110 0.47645
 H1974 H 0.28364 1.03102 0.54121
 H1975 H 0.32821 1.01291 0.54501
 H1976 H 0.36363 1.09774 0.47724
 H1977 H 0.40736 1.07943 0.47905
 H1978 H 0.36738 0.99669 0.54544
 H1979 H 0.41271 0.97930 0.54295
 H1980 H 0.43772 1.04608 0.49198
 C1981 C -0.19388 0.62010 1.02668
 C1982 C -0.18778 0.59292 1.02758
 C1983 C -0.20943 0.57569 1.03040
 C1984 C -0.23595 0.58544 1.02735
 C1985 C -0.24088 0.61181 1.01867
 C1986 C -0.21984 0.62920 1.02254
 C1987 C -0.20430 0.54891 1.03554
 C1988 C -0.17801 0.53869 1.03558
 C1989 C -0.15587 0.55490 1.02966
 C1990 C -0.16099 0.58252 1.02574
 C1991 C -0.13944 0.59878 1.01788
 C1992 C -0.11375 0.58841 1.01322
 C1993 C -0.10839 0.56159 1.01673
 C1994 C -0.12894 0.54445 1.02597
 C1995 C -0.12161 0.51753 1.03001
 C1996 C -0.09524 0.50816 1.02391
 C1997 C -0.07542 0.52518 1.01328
 C1998 C -0.08250 0.55187 1.00987
 H1999 H -0.17904 0.63484 1.02898
 H2000 H -0.25206 0.57265 1.03324
 H2001 H -0.22326 0.65027 1.02173
 H2002 H -0.22073 0.53558 1.03862
 H2003 H -0.17573 0.51774 1.03892
 H2004 H -0.14197 0.61954 1.01340
 H2005 H -0.09796 0.60153 1.00624
 H2006 H -0.13577 0.50324 1.03779
 H2007 H -0.09063 0.48738 1.02692
 H2008 H -0.06828 0.56524 1.00011
 C2009 C 0.06125 0.66799 0.58216
 C2010 C 0.04603 0.66002 0.55889
 C2011 C 0.02621 0.67803 0.54915
 C2012 C 0.02031 0.70180 0.56435
 C2013 C 0.03284 0.70786 0.59046
 C2014 C 0.05493 0.69120 0.59729
 C2015 C 0.01202 0.67192 0.52468
 C2016 C 0.01605 0.64766 0.51070
 C2017 C 0.03424 0.62827 0.52097
 C2018 C 0.04973 0.63478 0.54527
 C2019 C 0.06738 0.61532 0.55631
 C2020 C 0.06872 0.59001 0.54531
 C2021 C 0.05299 0.58303 0.52253
 C2022 C 0.03648 0.60210 0.50898
 C2023 C 0.02203 0.59357 0.48504
 C2024 C 0.02229 0.56683 0.47697
 C2025 C 0.03682 0.54767 0.49245
 C2026 C 0.05257 0.55649 0.51467
 H2027 H 0.07842 0.65680 0.58934
 H2028 H 0.00567 0.71556 0.55571
 H2029 H 0.06818 0.69547 0.61428
 H2030 H -0.00287 0.68579 0.51665
 H2031 H 0.00384 0.64427 0.49245
 H2032 H 0.07958 0.61851 0.57457
 H2033 H 0.08172 0.57547 0.55541
 H2034 H 0.00980 0.60695 0.47266
 H2035 H 0.00984 0.56103 0.45958
 H2036 H 0.06275 0.54260 0.52818
 C2037 C 0.55363 0.17741 0.11060
 C2038 C 0.53752 0.16988 0.08783
 C2039 C 0.52171 0.18971 0.07459
 C2040 C 0.51900 0.21495 0.08691
 C2041 C 0.53243 0.22141 0.11223
 C2042 C 0.55115 0.20262 0.12248
 C2043 C 0.50744 0.18380 0.05019
 C2044 C 0.50781 0.15830 0.03923
 C2045 C 0.52139 0.13741 0.05329
 C2046 C 0.53591 0.14326 0.07846
 C2047 C 0.54661 0.12218 0.09479
 C2048 C 0.54283 0.09626 0.08716
 C2049 C 0.52944 0.09029 0.06224
 C2050 C 0.51970 0.11067 0.04410
 C2051 C 0.50870 0.10331 0.01759
 C2052 C 0.50713 0.07678 0.00988
 C2053 C 0.51569 0.05675 0.02867
 C2054 C 0.52612 0.06388 0.05525
 H2055 H 0.56817 0.16410 0.11993
 H2056 H 0.50454 0.22885 0.07813
 H2057 H 0.56333 0.20650 0.14060
 H2058 H 0.49551 0.19897 0.03970
 H2059 H 0.49578 0.15521 0.02075
 H2060 H 0.55669 0.12508 0.11469
 H2061 H 0.55064 0.08067 0.10088
 H2062 H 0.50210 0.11763 0.00189
 H2063 H 0.49936 0.07202 -0.01098
 H2064 H 0.53328 0.04879 0.06996
 C2065 C 0.02223 0.19679 0.92381
 C2066 C 0.00074 0.17929 0.92681
 C2067 C -0.02185 0.18466 0.90995
 C2068 C -0.02294 0.20651 0.89156
 C2069 C -0.00270 0.22521 0.89039
 C2070 C 0.02058 0.21911 0.90573
 C2071 C -0.04375 0.16838 0.91158
 C2072 C -0.04335 0.14598 0.92853
 C2073 C -0.02060 0.13853 0.94404
 C2074 C 0.00105 0.15618 0.94492
 C2075 C 0.02196 0.14991 0.96376
 C2076 C 0.02223 0.12648 0.97995
 C2077 C 0.00246 0.10785 0.97685
 C2078 C -0.01886 0.11371 0.95833
 C2079 C -0.03656 0.09366 0.95255
 C2080 C -0.03325 0.06890 0.96437
 C2081 C -0.01336 0.06287 0.98432
 C2082 C 0.00455 0.08283 0.99058
 H2083 H 0.04059 0.19363 0.93498
 H2084 H -0.03999 0.20840 0.87801
 H2085 H 0.03733 0.23217 0.90426
 H2086 H -0.06151 0.17300 0.89956
 H2087 H -0.06152 0.13500 0.92941
 H2088 H 0.03827 0.16296 0.96662
 H2089 H 0.03869 0.12241 0.99402
 H2090 H -0.05182 0.09565 0.93678
 H2091 H -0.04591 0.05403 0.95617
 H2092 H 0.02117 0.07835 1.00431
 C2093 C 0.47828 0.67460 0.39168
 C2094 C 0.48491 0.67252 0.42104
 C2095 C 0.48372 0.69575 0.43800
 C2096 C 0.47863 0.72052 0.42494
 C2097 C 0.47210 0.72243 0.39543
 C2098 C 0.47199 0.69887 0.37937
 C2099 C 0.48752 0.69400 0.46787
 C2100 C 0.49165 0.66957 0.48129
 C2101 C 0.49388 0.64606 0.46494
 C2102 C 0.49216 0.64796 0.43409
 C2103 C 0.49860 0.62544 0.41703
 C2104 C 0.50496 0.60146 0.42970
 C2105 C 0.50425 0.59870 0.45983
 C2106 C 0.49836 0.62072 0.47806
 C2107 C 0.49661 0.61615 0.50849
 C2108 C 0.50000 0.59064 0.52000
 C2109 C 0.50571 0.56899 0.50165
 C2110 C 0.50889 0.57369 0.47161
 H2111 H 0.47688 0.65767 0.37783
 H2112 H 0.48015 0.73800 0.43796
 H2113 H 0.46702 0.69930 0.35671
 H2114 H 0.48661 0.71161 0.48116
 H2115 H 0.49406 0.66975 0.50445
 H2116 H 0.49986 0.62597 0.39360
 H2117 H 0.50984 0.58469 0.41569
 H2118 H 0.49160 0.63175 0.52381
 H2119 H 0.49788 0.58801 0.54327
 H2120 H 0.51379 0.55752 0.45681
 C2121 C 0.44823 0.79727 0.44225
 C2122 C 0.46511 0.81865 0.43589
 C2123 C 0.48023 0.81781 0.40908
 C2124 C 0.47864 0.79661 0.39005
 C2125 C 0.46498 0.77374 0.39824
 C2126 C 0.44810 0.77535 0.42363
 C2127 C 0.49752 0.83788 0.40137
 C2128 C 0.50159 0.85809 0.42049
 C2129 C 0.48773 0.85955 0.44786
 C2130 C 0.46781 0.84072 0.45492
 C2131 C 0.45117 0.84510 0.48027
 C2132 C 0.45367 0.86752 0.49756
 C2133 C 0.47398 0.88539 0.49141
 C2134 C 0.49224 0.88036 0.46750
 C2135 C 0.51436 0.89660 0.46372
 C2136 C 0.51595 0.91937 0.47978
 C2137 C 0.49616 0.92680 0.50130
 C2138 C 0.47577 0.90878 0.50798
 H2139 H 0.43573 0.79651 0.46194
 H2140 H 0.48911 0.79782 0.36901
 H2141 H 0.43546 0.75908 0.42967
 H2142 H 0.50870 0.83758 0.38061
 H2143 H 0.51503 0.87304 0.41268
 H2144 H 0.43520 0.83212 0.48648
 H2145 H 0.43968 0.87080 0.51598
 H2146 H 0.53056 0.89252 0.44790
 H2147 H 0.53201 0.93219 0.47323
 H2148 H 0.46036 0.91371 0.52458
 C2149 C -0.00113 0.29955 0.93699
 C2150 C -0.00453 0.32428 0.92324
 C2151 C -0.00915 0.32428 0.89311
 C2152 C -0.00917 0.30071 0.87755
 C2153 C -0.00425 0.27613 0.89084
 C2154 C -0.00137 0.27603 0.92122
 C2155 C -0.01359 0.34784 0.87836
 C2156 C -0.01435 0.37158 0.89297
 C2157 C -0.01055 0.37274 0.92315
 C2158 C -0.00420 0.34893 0.93830
 C2159 C 0.00273 0.35075 0.96766
 C2160 C 0.00290 0.37501 0.98183
 C2161 C -0.00478 0.39826 0.96771
 C2162 C -0.01232 0.39715 0.93840
 C2163 C -0.02204 0.42048 0.92551
 C2164 C -0.02258 0.44414 0.94024
 C2165 C -0.01363 0.44591 0.96871
 C2166 C -0.00514 0.42262 0.98258
 H2167 H 0.00098 0.29769 0.96011
 H2168 H -0.01254 0.30141 0.85444
 H2169 H 0.00013 0.25799 0.93351
 H2170 H -0.01661 0.34794 0.85518
 H2171 H -0.01715 0.38884 0.87965
 H2172 H 0.00888 0.33374 0.98007
 H2173 H 0.00874 0.37551 1.00421
 H2174 H -0.03008 0.42115 0.90419
 H2175 H -0.03012 0.46125 0.92872
 H2176 H 0.00119 0.42334 1.00473
 C2177 C 0.53143 0.29585 0.06635
 C2178 C 0.50987 0.31420 0.07132
 C2179 C 0.49081 0.30850 0.09404
 C2180 C 0.49403 0.28612 0.11166
 C2181 C 0.51698 0.26926 0.10862
 C2182 C 0.53471 0.27390 0.08443
 C2183 C 0.46877 0.32555 0.09970
 C2184 C 0.46643 0.34932 0.08508
 C2185 C 0.48611 0.35697 0.06403
 C2186 C 0.50701 0.33839 0.05539
 C2187 C 0.52449 0.34497 0.03162
 C2188 C 0.52256 0.36951 0.01800
 C2189 C 0.50398 0.38882 0.02829
 C2190 C 0.48571 0.38278 0.05168
 C2191 C 0.46899 0.40336 0.06333
 C2192 C 0.47049 0.42877 0.05244
 C2193 C 0.48770 0.43483 0.02849
 C2194 C 0.50430 0.41448 0.01630
 H2195 H 0.54671 0.29837 0.04937
 H2196 H 0.47847 0.28269 0.12803
 H2197 H 0.55220 0.26105 0.08030
 H2198 H 0.45358 0.32090 0.11635
 H2199 H 0.44873 0.36131 0.09063
 H2200 H 0.53988 0.33146 0.02293
 H2201 H 0.53653 0.37377 0.00000
 H2202 H 0.45571 0.40092 0.08219
 H2203 H 0.45822 0.44388 0.06357
 H2204 H 0.51843 0.41882 -0.00152
 C2205 C 0.03096 0.78511 0.54859
 C2206 C 0.01281 0.80559 0.55824
 C2207 C -0.00238 0.80120 0.58446
 C2208 C 0.00085 0.77774 0.60028
 C2209 C 0.01859 0.75717 0.59053
 C2210 C 0.03385 0.76159 0.56446
 C2211 C -0.02073 0.82036 0.59521
 C2212 C -0.02364 0.84440 0.58129
 C2213 C -0.00789 0.85056 0.55607
 C2214 C 0.00972 0.83050 0.54351
 C2215 C 0.02361 0.83621 0.51687
 C2216 C 0.02107 0.86091 0.50356
 C2217 C 0.00520 0.88120 0.51654
 C2218 C -0.00923 0.87623 0.54316
 C2219 C -0.02359 0.89752 0.55665
 C2220 C -0.02381 0.92243 0.54431
 C2221 C -0.01035 0.92760 0.51746
 C2222 C 0.00420 0.90662 0.50361
 H2223 H 0.04375 0.78693 0.52925
 H2224 H -0.01037 0.77599 0.62079
 H2225 H 0.04891 0.74718 0.55669
 H2226 H -0.03296 0.81683 0.61483
 H2227 H -0.03878 0.85768 0.59085
 H2228 H 0.03656 0.82184 0.50562
 H2229 H 0.03219 0.86435 0.48320
 H2230 H -0.03407 0.89605 0.57751
 H2231 H -0.03478 0.93783 0.55643
 H2232 H 0.01540 0.91022 0.48334
 C2233 C 0.27282 0.34320 0.03831
 C2234 C 0.25248 0.33959 0.06015
 C2235 C 0.22830 0.35478 0.05817
 C2236 C 0.22481 0.37262 0.03511
 C2237 C 0.24497 0.37562 0.01300
 C2238 C 0.26912 0.36078 0.01555
 C2239 C 0.20775 0.35241 0.07945
 C2240 C 0.21067 0.33551 0.10292
 C2241 C 0.23437 0.32000 0.10601
 C2242 C 0.25558 0.32197 0.08417
 C2243 C 0.27934 0.30652 0.08730
 C2244 C 0.28301 0.29108 0.11174
 C2245 C 0.26291 0.28966 0.13362
 C2246 C 0.23794 0.30319 0.13064
 C2247 C 0.21777 0.29953 0.15276
 C2248 C 0.22301 0.28482 0.17764
 C2249 C 0.24855 0.27352 0.18172
 C2250 C 0.26804 0.27522 0.15886
 H2251 H 0.29203 0.33295 0.03809
 H2252 H 0.20632 0.38425 0.03502
 H2253 H 0.28540 0.36257 -0.00063
 H2254 H 0.18919 0.36397 0.07812
 H2255 H 0.19402 0.33548 0.11863
 H2256 H 0.29583 0.30610 0.07140
 H2257 H 0.30194 0.28024 0.11362
 H2258 H 0.19778 0.30801 0.15178
 H2259 H 0.20712 0.28347 0.19403
 H2260 H 0.28788 0.26634 0.16112
 C2261 C 0.72442 0.80710 0.55836
 C2262 C 0.72725 0.81667 0.58668
 C2263 C 0.73171 0.84383 0.58994
 C2264 C 0.73800 0.85943 0.56546
 C2265 C 0.73873 0.84887 0.53710
 C2266 C 0.72883 0.82331 0.53422
 C2267 C 0.73022 0.85510 0.61761
 C2268 C 0.72524 0.83965 0.64218
 C2269 C 0.72358 0.81203 0.63997
 C2270 C 0.72558 0.80027 0.61182
 C2271 C 0.72828 0.77256 0.60972
 C2272 C 0.73097 0.75703 0.63444
 C2273 C 0.72906 0.76838 0.66204
 C2274 C 0.72276 0.79561 0.66511
 C2275 C 0.71685 0.80534 0.69340
 C2276 C 0.72182 0.78966 0.71762
 C2277 C 0.73444 0.76471 0.71433
 C2278 C 0.73529 0.75321 0.68653
 H2279 H 0.71763 0.78749 0.55445
 H2280 H 0.74233 0.87998 0.56850
 H2281 H 0.72375 0.81569 0.51338
 H2282 H 0.73307 0.87601 0.62032
 H2283 H 0.72497 0.84953 0.66292
 H2284 H 0.73084 0.76262 0.58906
 H2285 H 0.73517 0.73607 0.63189
 H2286 H 0.70867 0.82505 0.69723
 H2287 H 0.71699 0.79781 0.73878
 H2288 H 0.74284 0.73311 0.68348
 C2289 C 0.27063 0.63197 0.57782
 C2290 C 0.28160 0.65721 0.57899
 C2291 C 0.28244 0.67242 0.55314
 C2292 C 0.27300 0.66222 0.52712
 C2293 C 0.26129 0.63726 0.52645
 C2294 C 0.26124 0.62223 0.55220
 C2295 C 0.29271 0.69771 0.55345
 C2296 C 0.30089 0.70876 0.57917
 C2297 C 0.29970 0.69461 0.60564
 C2298 C 0.29109 0.66797 0.60515
 C2299 C 0.29168 0.65307 0.63105
 C2300 C 0.29674 0.66467 0.65725
 C2301 C 0.30205 0.69138 0.65864
 C2302 C 0.30538 0.70643 0.63292
 C2303 C 0.31237 0.73309 0.63611
 C2304 C 0.31201 0.74492 0.66369
 C2305 C 0.30428 0.73074 0.68886
 C2306 C 0.30153 0.70342 0.68591
 H2307 H 0.26884 0.61905 0.59633
 H2308 H 0.27534 0.67359 0.50729
 H2309 H 0.25432 0.60224 0.55255
 H2310 H 0.29374 0.70943 0.53372
 H2311 H 0.30772 0.72866 0.57772
 H2312 H 0.28760 0.63239 0.63210
 H2313 H 0.29533 0.65281 0.67687
 H2314 H 0.31652 0.74573 0.61771
 H2315 H 0.31480 0.76596 0.66483
 H2316 H 0.29489 0.69164 0.70409
 C2317 C 0.76806 0.14609 0.10333
 C2318 C 0.77874 0.17150 0.10186
 C2319 C 0.77661 0.18565 0.07554
 C2320 C 0.76597 0.17388 0.05118
 C2321 C 0.75557 0.14826 0.05245
 C2322 C 0.75700 0.13481 0.07922
 C2323 C 0.78568 0.21137 0.07340
 C2324 C 0.79554 0.22385 0.09736
 C2325 C 0.79781 0.21059 0.12416
 C2326 C 0.79104 0.18344 0.12577
 C2327 C 0.79694 0.16911 0.15114
 C2328 C 0.80619 0.18155 0.17536
 C2329 C 0.80901 0.20880 0.17551
 C2330 C 0.80570 0.22366 0.14976
 C2331 C 0.80854 0.25127 0.15152
 C2332 C 0.80952 0.26363 0.17856
 C2333 C 0.80797 0.24881 0.20441
 C2334 C 0.81248 0.22150 0.20199
 H2335 H 0.76779 0.13442 0.12294
 H2336 H 0.76792 0.18433 0.03079
 H2337 H 0.75042 0.11478 0.08140
 H2338 H 0.78448 0.22225 0.05318
 H2339 H 0.80164 0.24385 0.09408
 H2340 H 0.79458 0.14813 0.15290
 H2341 H 0.80939 0.16997 0.19482
 H2342 H 0.80724 0.26408 0.13290
 H2343 H 0.80783 0.28495 0.17925
 H2344 H 0.81508 0.20964 0.22105
 C2345 C 0.72195 0.18743 0.97277
 C2346 C 0.72237 0.17402 0.94589
 C2347 C 0.73006 0.14692 0.94609
 C2348 C 0.73888 0.13465 0.97135
 C2349 C 0.74038 0.14838 0.99767
 C2350 C 0.72991 0.17462 0.99817
 C2351 C 0.72854 0.13182 0.92113
 C2352 C 0.72144 0.14335 0.89527
 C2353 C 0.71662 0.17083 0.89301
 C2354 C 0.71547 0.18627 0.91891
 C2355 C 0.70823 0.21336 0.91659
 C2356 C 0.70397 0.22518 0.88960
 C2357 C 0.70770 0.21077 0.86382
 C2358 C 0.71393 0.18336 0.86546
 C2359 C 0.72009 0.16985 0.83937
 C2360 C 0.72184 0.18308 0.81320
 C2361 C 0.71527 0.21017 0.81059
 C2362 C 0.70738 0.22379 0.83644
 H2363 H 0.71491 0.20764 0.97503
 H2364 H 0.74408 0.11380 0.97059
 H2365 H 0.72660 0.18530 1.01830
 H2366 H 0.73312 0.11079 0.92150
 H2367 H 0.71998 0.13003 0.87730
 H2368 H 0.70621 0.22610 0.93528
 H2369 H 0.69909 0.24612 0.88886
 H2370 H 0.72665 0.14944 0.83851
 H2371 H 0.73114 0.17180 0.79553
 H2372 H 0.70366 0.24492 0.83562
 C2373 C 0.21960 0.68066 0.45599
 C2374 C 0.22295 0.67220 0.42673
 C2375 C 0.23698 0.64786 0.42153
 C2376 C 0.24866 0.63385 0.44417
 C2377 C 0.24579 0.64242 0.47316
 C2378 C 0.23009 0.66558 0.47877
 C2379 C 0.23910 0.63715 0.39374
 C2380 C 0.22740 0.64993 0.37076
 C2381 C 0.21387 0.67462 0.37440
 C2382 C 0.21259 0.68657 0.40249
 C2383 C 0.20225 0.71279 0.40489
 C2384 C 0.19478 0.72716 0.38033
 C2385 C 0.19588 0.71551 0.35276
 C2386 C 0.20355 0.68854 0.35015
 C2387 C 0.20197 0.67671 0.32283
 C2388 C 0.19878 0.69189 0.29814
 C2389 C 0.19498 0.71949 0.29942
 C2390 C 0.19129 0.73079 0.32746
 H2391 H 0.20785 0.69818 0.46196
 H2392 H 0.25940 0.61545 0.43914
 H2393 H 0.22545 0.67191 0.50089
 H2394 H 0.24981 0.61851 0.38968
 H2395 H 0.23069 0.64050 0.34992
 H2396 H 0.20135 0.72322 0.42529
 H2397 H 0.18856 0.74770 0.38288
 H2398 H 0.20483 0.65577 0.31951
 H2399 H 0.20299 0.68148 0.27827
 H2400 H 0.18801 0.75192 0.32953
 C2401 C 0.76752 0.81434 0.45123
 C2402 C 0.76513 0.82881 0.42523
 C2403 C 0.75874 0.85609 0.42786
 C2404 C 0.75280 0.86759 0.45514
 C2405 C 0.75252 0.85266 0.48100
 C2406 C 0.76207 0.82617 0.47831
 C2407 C 0.75841 0.87201 0.40321
 C2408 C 0.76211 0.86113 0.37576
 C2409 C 0.76540 0.83361 0.37183
 C2410 C 0.76856 0.81730 0.39684
 C2411 C 0.77396 0.79003 0.39253
 C2412 C 0.77416 0.77884 0.36490
 C2413 C 0.76827 0.79416 0.34063
 C2414 C 0.76433 0.82183 0.34380
 C2415 C 0.75673 0.83640 0.31932
 C2416 C 0.75088 0.82393 0.29385
 C2417 C 0.75417 0.79648 0.29035
 C2418 C 0.76411 0.78183 0.31377
 H2419 H 0.77399 0.79389 0.45147
 H2420 H 0.74859 0.88855 0.45595
 H2421 H 0.76619 0.81416 0.49705
 H2422 H 0.75480 0.89312 0.40510
 H2423 H 0.76199 0.87496 0.35798
 H2424 H 0.77741 0.77661 0.41023
 H2425 H 0.77749 0.75771 0.36279
 H2426 H 0.75243 0.85731 0.31981
 H2427 H 0.74120 0.83617 0.27806
 H2428 H 0.76601 0.76055 0.31215
 C2429 C 0.24064 0.38530 0.90503
 C2430 C 0.24905 0.35867 0.90090
 C2431 C 0.25181 0.34274 0.92594
 C2432 C 0.24722 0.35356 0.95387
 C2433 C 0.24178 0.38084 0.95770
 C2434 C 0.23741 0.39607 0.93267
 C2435 C 0.25969 0.31619 0.92303
 C2436 C 0.26503 0.30503 0.89575
 C2437 C 0.26251 0.32004 0.87012
 C2438 C 0.25450 0.34735 0.87282
 C2439 C 0.25198 0.36249 0.84730
 C2440 C 0.25471 0.35102 0.82020
 C2441 C 0.26102 0.32426 0.81729
 C2442 C 0.26652 0.30853 0.84179
 C2443 C 0.27456 0.28179 0.83665
 C2444 C 0.27437 0.27086 0.80865
 C2445 C 0.26605 0.28613 0.78505
 C2446 C 0.26015 0.31303 0.78989
 H2447 H 0.23698 0.39876 0.88746
 H2448 H 0.24881 0.34050 0.97227
 H2449 H 0.23271 0.41700 0.93450
 H2450 H 0.26189 0.30388 0.94212
 H2451 H 0.27073 0.28438 0.89542
 H2452 H 0.24721 0.38330 0.84731
 H2453 H 0.25134 0.36323 0.80125
 H2454 H 0.28029 0.26865 0.85389
 H2455 H 0.27897 0.25000 0.80595
 H2456 H 0.25213 0.32528 0.77300
 C2457 C 0.85806 0.40588 0.76872
 C2458 C 0.83063 0.40275 0.76389
 C2459 C 0.81619 0.42440 0.75197
 C2460 C 0.82833 0.44891 0.74775
 C2461 C 0.85507 0.45238 0.75511
 C2462 C 0.86999 0.43001 0.76397
 C2463 C 0.78975 0.42140 0.74424
 C2464 C 0.77750 0.39725 0.74756
 C2465 C 0.79097 0.37525 0.75981
 C2466 C 0.81744 0.37854 0.76952
 C2467 C 0.82970 0.35773 0.78504
 C2468 C 0.81733 0.33382 0.78920
 C2469 C 0.79261 0.32942 0.77746
 C2470 C 0.77900 0.35004 0.76266
 C2471 C 0.75442 0.34419 0.75043
 C2472 C 0.74482 0.31866 0.75131
 C2473 C 0.75907 0.29796 0.76471
 C2474 C 0.78202 0.30412 0.77944
 H2475 H 0.87104 0.38984 0.77547
 H2476 H 0.81692 0.46511 0.73851
 H2477 H 0.89111 0.43144 0.76800
 H2478 H 0.77849 0.43781 0.73512
 H2479 H 0.75709 0.39664 0.74098
 H2480 H 0.84875 0.35957 0.79485
 H2481 H 0.82767 0.31830 0.80096
 H2482 H 0.74279 0.35853 0.73864
 H2483 H 0.72664 0.31510 0.74020
 H2484 H 0.79266 0.28898 0.79117
 C2485 C 0.33973 0.91410 0.27803
 C2486 C 0.31192 0.91261 0.27453
 C2487 C 0.29804 0.93543 0.26438
 C2488 C 0.31144 0.95931 0.25999
 C2489 C 0.33893 0.96084 0.26516
 C2490 C 0.35284 0.93750 0.27306
 C2491 C 0.27099 0.93410 0.25826
 C2492 C 0.25772 0.91043 0.26088
 C2493 C 0.27084 0.88719 0.27074
 C2494 C 0.29785 0.88880 0.27938
 C2495 C 0.30995 0.86657 0.29265
 C2496 C 0.29715 0.84273 0.29471
 C2497 C 0.27204 0.83999 0.28324
 C2498 C 0.25821 0.86223 0.27167
 C2499 C 0.23285 0.85819 0.26027
 C2500 C 0.22317 0.83285 0.25772
 C2501 C 0.23829 0.81064 0.26663
 C2502 C 0.26136 0.81477 0.28194
 H2503 H 0.35217 0.89727 0.28364
 H2504 H 0.30050 0.97636 0.25192
 H2505 H 0.37427 0.93754 0.27589
 H2506 H 0.26009 0.95142 0.25068
 H2507 H 0.23698 0.91106 0.25532
 H2508 H 0.32937 0.86706 0.30193
 H2509 H 0.30754 0.82598 0.30428
 H2510 H 0.22070 0.87393 0.25146
 H2511 H 0.20448 0.83074 0.24706
 H2512 H 0.27206 0.79819 0.29131
 C2513 C 0.15009 0.93465 0.71878
 C2514 C 0.17759 0.92915 0.72183
 C2515 C 0.19450 0.95055 0.72557
 C2516 C 0.18334 0.97622 0.72992
 C2517 C 0.15542 0.98156 0.72789
 C2518 C 0.13941 0.96005 0.72182
 C2519 C 0.22232 0.94598 0.72544
 C2520 C 0.23351 0.92056 0.72168
 C2521 C 0.21707 0.89851 0.72013
 C2522 C 0.18862 0.90296 0.72173
 C2523 C 0.17193 0.88118 0.72524
 C2524 C 0.18265 0.85587 0.72720
 C2525 C 0.21024 0.85112 0.72413
 C2526 C 0.22788 0.87204 0.71903
 C2527 C 0.25546 0.86539 0.71370
 C2528 C 0.26498 0.83904 0.71493
 C2529 C 0.24746 0.81868 0.72239
 C2530 C 0.22017 0.82541 0.72733
 H2531 H 0.13622 0.91967 0.71365
 H2532 H 0.19659 0.99155 0.73578
 H2533 H 0.11801 0.96220 0.72052
 H2534 H 0.23558 0.96223 0.72797
 H2535 H 0.25509 0.91848 0.72185
 H2536 H 0.15044 0.88319 0.72855
 H2537 H 0.16912 0.83980 0.73106
 H2538 H 0.26997 0.88014 0.70826
 H2539 H 0.28627 0.83483 0.71131
 H2540 H 0.20635 0.81100 0.73559
 C2541 C 0.66026 0.44911 0.22148
 C2542 C 0.68307 0.44280 0.23738
 C2543 C 0.68957 0.46041 0.25956
 C2544 C 0.67377 0.48343 0.26514
 C2545 C 0.64977 0.48868 0.25075
 C2546 C 0.64405 0.47128 0.22809
 C2547 C 0.71126 0.45448 0.27678
 C2548 C 0.72549 0.43057 0.27378
 C2549 C 0.71906 0.41194 0.25268
 C2550 C 0.69877 0.41900 0.23289
 C2551 C 0.69455 0.40182 0.20959
 C2552 C 0.70786 0.37747 0.20724
 C2553 C 0.72553 0.36909 0.22820
 C2554 C 0.73177 0.38628 0.25095
 C2555 C 0.74959 0.37655 0.27173
 C2556 C 0.75917 0.35044 0.27091
 C2557 C 0.75149 0.33294 0.24936
 C2558 C 0.73617 0.34318 0.22703
 H2559 H 0.65356 0.43668 0.20452
 H2560 H 0.67949 0.49681 0.28193
 H2561 H 0.62683 0.47405 0.21504
 H2562 H 0.71663 0.46800 0.29358
 H2563 H 0.74159 0.42731 0.28833
 H2564 H 0.68107 0.40666 0.19261
 H2565 H 0.70346 0.36464 0.18941
 H2566 H 0.75547 0.38815 0.28979
 H2567 H 0.77166 0.34382 0.28828
 H2568 H 0.73171 0.33091 0.20904
 C2569 C 0.68325 0.56627 0.24575
 C2570 C 0.67211 0.58828 0.26130
 C2571 C 0.64842 0.58449 0.27864
 C2572 C 0.63626 0.55987 0.27962
 C2573 C 0.64686 0.53816 0.26328
 C2574 C 0.67082 0.54203 0.24656
 C2575 C 0.63630 0.60555 0.29421
 C2576 C 0.64657 0.63064 0.29214
 C2577 C 0.66966 0.63573 0.27443
 C2578 C 0.68305 0.61404 0.25935
 C2579 C 0.70664 0.61893 0.24237
 C2580 C 0.71613 0.64415 0.23903
 C2581 C 0.70273 0.66560 0.25254
 C2582 C 0.67959 0.66183 0.27082
 C2583 C 0.66725 0.68449 0.28430
 C2584 C 0.67679 0.70971 0.27859
 C2585 C 0.69865 0.71343 0.25899
 C2586 C 0.71225 0.69093 0.24725
 H2587 H 0.70100 0.56724 0.23167
 H2588 H 0.61785 0.55836 0.29253
 H2589 H 0.67939 0.52672 0.23239
 H2590 H 0.61826 0.60275 0.30774
 H2591 H 0.63564 0.64574 0.30453
 H2592 H 0.71831 0.60365 0.23108
 H2593 H 0.73405 0.64694 0.22528
 H2594 H 0.65003 0.68353 0.29917
 H2595 H 0.66684 0.72625 0.28967
 H2596 H 0.72981 0.69299 0.23283
 C2597 C 0.19562 0.05903 0.71279
 C2598 C 0.19200 0.07865 0.73446
 C2599 C 0.17557 0.07261 0.75924
 C2600 C 0.16161 0.04910 0.76075
 C2601 C 0.16178 0.03151 0.73695
 C2602 C 0.18104 0.03597 0.71427
 C2603 C 0.17226 0.09048 0.78215
 C2604 C 0.18310 0.11523 0.78003
 C2605 C 0.19774 0.12315 0.75474
 C2606 C 0.20348 0.10412 0.73221
 C2607 C 0.21971 0.11152 0.70782
 C2608 C 0.22915 0.13686 0.70496
 C2609 C 0.22227 0.15603 0.72583
 C2610 C 0.20648 0.14956 0.75102
 C2611 C 0.19933 0.17010 0.77092
 C2612 C 0.20701 0.19590 0.76554
 C2613 C 0.22182 0.20237 0.74005
 C2614 C 0.23053 0.18188 0.72112
 H2615 H 0.20899 0.06111 0.69396
 H2616 H 0.14995 0.04550 0.78057
 H2617 H 0.18431 0.02183 0.69682
 H2618 H 0.16037 0.08562 0.80162
 H2619 H 0.17940 0.12784 0.79864
 H2620 H 0.22532 0.09823 0.69026
 H2621 H 0.24125 0.14173 0.68565
 H2622 H 0.18712 0.16715 0.79047
 H2623 H 0.20065 0.21096 0.78119
 H2624 H 0.24284 0.18618 0.70179
 C2625 C 0.30550 0.04463 0.27893
 C2626 C 0.31406 0.06434 0.25908
 C2627 C 0.33474 0.05722 0.23828
 C2628 C 0.34754 0.03229 0.23897
 C2629 C 0.33887 0.01246 0.25846
 C2630 C 0.31761 0.01930 0.27852
 C2631 C 0.34312 0.07520 0.21707
 C2632 C 0.33116 0.10013 0.21567
 C2633 C 0.31102 0.10854 0.23635
 C2634 C 0.30321 0.09086 0.25925
 C2635 C 0.28589 0.10072 0.28210
 C2636 C 0.27695 0.12705 0.28272
 C2637 C 0.28378 0.14418 0.25994
 C2638 C 0.29970 0.13470 0.23577
 C2639 C 0.30353 0.15179 0.21179
 C2640 C 0.29480 0.17808 0.21331
 C2641 C 0.28295 0.18867 0.23914
 C2642 C 0.27531 0.17091 0.26134
 H2643 H 0.28928 0.04815 0.29486
 H2644 H 0.36490 0.02879 0.22441
 H2645 H 0.31061 0.00516 0.29452
 H2646 H 0.35907 0.06989 0.20118
 H2647 H 0.33918 0.11298 0.19897
 H2648 H 0.28001 0.08884 0.30062
 H2649 H 0.26466 0.13409 0.30130
 H2650 H 0.31299 0.14530 0.19141
 H2651 H 0.29870 0.19041 0.19446
 H2652 H 0.26336 0.17795 0.28012
 C2653 C 0.81438 0.53226 0.77197
 C2654 C 0.82290 0.55423 0.75533
 C2655 C 0.84521 0.55016 0.73559
 C2656 C 0.85916 0.52585 0.73407
 C2657 C 0.85074 0.50389 0.75049
 C2658 C 0.82812 0.50775 0.76968
 C2659 C 0.85434 0.57063 0.71797
 C2660 C 0.84186 0.59530 0.71939
 C2661 C 0.81992 0.60076 0.73908
 C2662 C 0.81071 0.58018 0.75799
 C2663 C 0.79054 0.58664 0.77959
 C2664 C 0.78033 0.61242 0.78306
 C2665 C 0.78898 0.63256 0.76448
 C2666 C 0.80796 0.62662 0.74145
 C2667 C 0.81428 0.64691 0.72156
 C2668 C 0.80485 0.67259 0.72640
 C2669 C 0.78891 0.67938 0.75122
 C2670 C 0.77933 0.65875 0.76904
 H2671 H 0.79731 0.53343 0.78715
 H2672 H 0.87751 0.52454 0.72061
 H2673 H 0.82150 0.49197 0.78384
 H2674 H 0.87154 0.56760 0.70296
 H2675 H 0.85084 0.61011 0.70562
 H2676 H 0.78300 0.57234 0.79499
 H2677 H 0.76563 0.61665 0.80062
 H2678 H 0.82619 0.64354 0.70174
 H2679 H 0.81007 0.68702 0.71018
 H2680 H 0.76556 0.66321 0.78737
 C2681 C 0.90939 0.78688 0.12943
 C2682 C 0.89993 0.77225 0.15363
 C2683 C 0.91844 0.75498 0.16699
 C2684 C 0.94452 0.75072 0.15451
 C2685 C 0.95338 0.76393 0.12880
 C2686 C 0.93527 0.78276 0.11739
 C2687 C 0.91059 0.74156 0.19235
 C2688 C 0.88463 0.74475 0.20457
 C2689 C 0.86507 0.76076 0.19116
 C2690 C 0.87271 0.77411 0.16478
 C2691 C 0.85267 0.78785 0.14958
 C2692 C 0.82612 0.78870 0.15978
 C2693 C 0.81849 0.77658 0.18591
 C2694 C 0.83785 0.76312 0.20252
 C2695 C 0.82904 0.75271 0.22980
 C2696 C 0.80206 0.75502 0.23954
 C2697 C 0.78284 0.76737 0.22233
 C2698 C 0.79141 0.77793 0.19539
 H2699 H 0.89731 0.80197 0.11931
 H2700 H 0.95746 0.73594 0.16421
 H2701 H 0.94027 0.79468 0.09881
 H2702 H 0.92467 0.72839 0.20290
 H2703 H 0.88015 0.73346 0.22394
 H2704 H 0.85662 0.79729 0.12891
 H2705 H 0.81136 0.79906 0.14703
 H2706 H 0.84260 0.74316 0.24436
 H2707 H 0.79628 0.74699 0.26064
 H2708 H 0.77705 0.78796 0.18188
 C2709 C 0.43148 0.27143 0.62391
 C2710 C 0.42336 0.26179 0.65160
 C2711 C 0.44195 0.24559 0.66639
 C2712 C 0.46811 0.24049 0.65421
 C2713 C 0.47641 0.25127 0.62701
 C2714 C 0.45708 0.26598 0.61190
 C2715 C 0.43405 0.23401 0.69288
 C2716 C 0.40793 0.23765 0.70466
 C2717 C 0.38870 0.25364 0.69069
 C2718 C 0.39696 0.26669 0.66428
 C2719 C 0.37857 0.28425 0.65129
 C2720 C 0.35235 0.28728 0.66207
 C2721 C 0.34338 0.27329 0.68648
 C2722 C 0.36137 0.25683 0.70178
 C2723 C 0.35087 0.24389 0.72702
 C2724 C 0.32352 0.24643 0.73566
 C2725 C 0.30572 0.26187 0.71952
 C2726 C 0.31619 0.27548 0.69517
 H2727 H 0.41818 0.28238 0.61021
 H2728 H 0.48155 0.22728 0.66552
 H2729 H 0.46150 0.27302 0.59007
 H2730 H 0.44807 0.22154 0.70440
 H2731 H 0.40339 0.22764 0.72486
 H2732 H 0.38382 0.29622 0.63266
 H2733 H 0.33880 0.30053 0.65087
 H2734 H 0.36311 0.23121 0.74018
 H2735 H 0.31622 0.23563 0.75458
 H2736 H 0.30300 0.28772 0.68234
 C2737 C 0.43639 0.73356 0.86940
 C2738 C 0.43283 0.74553 0.84204
 C2739 C 0.45495 0.75864 0.82905
 C2740 C 0.47958 0.75930 0.84309
 C2741 C 0.48352 0.74580 0.86964
 C2742 C 0.46080 0.73407 0.88285
 C2743 C 0.45227 0.77125 0.80224
 C2744 C 0.42824 0.77093 0.78786
 C2745 C 0.40559 0.75811 0.79988
 C2746 C 0.40792 0.74541 0.82760
 C2747 C 0.38516 0.73318 0.84016
 C2748 C 0.36095 0.73370 0.82667
 C2749 C 0.35830 0.74590 0.79979
 C2750 C 0.38050 0.75786 0.78552
 C2751 C 0.37638 0.76899 0.75761
 C2752 C 0.35116 0.76859 0.74504
 C2753 C 0.32914 0.75728 0.75982
 C2754 C 0.33324 0.74610 0.78733
 H2755 H 0.42067 0.72370 0.88143
 H2756 H 0.49543 0.77102 0.83351
 H2757 H 0.46150 0.72524 0.90416
 H2758 H 0.46902 0.78148 0.79215
 H2759 H 0.42789 0.78127 0.76741
 H2760 H 0.38511 0.72313 0.86076
 H2761 H 0.34401 0.72430 0.83749
 H2762 H 0.39226 0.77805 0.74492
 H2763 H 0.34885 0.77743 0.72383
 H2764 H 0.31680 0.73697 0.79931
 C2765 C 0.97417 0.24533 0.30750
 C2766 C 0.94834 0.24442 0.32140
 C2767 C 0.94692 0.24054 0.35190
 C2768 C 0.97019 0.23777 0.36745
 C2769 C 0.99587 0.24033 0.35398
 C2770 C 0.99742 0.24318 0.32344
 C2771 C 0.92223 0.23981 0.36709
 C2772 C 0.89871 0.24440 0.35297
 C2773 C 0.89899 0.24956 0.32283
 C2774 C 0.92391 0.24775 0.30639
 C2775 C 0.92335 0.24907 0.27573
 C2776 C 0.89919 0.25263 0.26179
 C2777 C 0.87492 0.25633 0.27783
 C2778 C 0.87488 0.25584 0.30863
 C2779 C 0.85079 0.26245 0.32430
 C2780 C 0.82726 0.26710 0.31021
 C2781 C 0.82638 0.26498 0.27979
 C2782 C 0.85062 0.26045 0.26354
 H2783 H 0.97704 0.24831 0.28439
 H2784 H 0.96842 0.23475 0.39080
 H2785 H 1.01641 0.24354 0.31133
 H2786 H 0.92107 0.23620 0.39034
 H2787 H 0.88043 0.24303 0.36621
 H2788 H 0.94126 0.24660 0.26189
 H2789 H 0.89960 0.25297 0.23824
 H2790 H 0.84952 0.26474 0.34760
 H2791 H 0.80941 0.27157 0.32375
 H2792 H 0.85062 0.25987 0.24003
 C2793 C 0.08745 0.21616 0.33338
 C2794 C 0.09327 0.23826 0.31601
 C2795 C 0.07775 0.26173 0.32101
 C2796 C 0.05474 0.26156 0.33990
 C2797 C 0.04742 0.23845 0.35511
 C2798 C 0.06561 0.21659 0.35314
 C2799 C 0.08551 0.28503 0.30718
 C2800 C 0.10909 0.28561 0.28968
 C2801 C 0.12468 0.26235 0.28375
 C2802 C 0.11513 0.23808 0.29515
 C2803 C 0.12753 0.21426 0.28518
 C2804 C 0.15048 0.21422 0.26715
 C2805 C 0.16250 0.23783 0.25957
 C2806 C 0.14975 0.26229 0.26744
 C2807 C 0.16366 0.28547 0.26051
 C2808 C 0.19024 0.28407 0.24938
 C2809 C 0.20342 0.25968 0.24356
 C2810 C 0.18823 0.23689 0.24620
 H2811 H 0.10026 0.19859 0.33299
 H2812 H 0.04210 0.27926 0.34235
 H2813 H 0.06331 0.19927 0.36656
 H2814 H 0.07376 0.30314 0.31073
 H2815 H 0.11431 0.30439 0.28035
 H2816 H 0.11953 0.19530 0.29081
 H2817 H 0.15980 0.19545 0.26059
 H2818 H 0.15533 0.30484 0.26562
 H2819 H 0.20048 0.30224 0.24627
 H2820 H 0.19752 0.21778 0.24105
 C2821 C 0.56252 0.74246 0.81997
 C2822 C 0.58604 0.75197 0.83166
 C2823 C 0.58414 0.76042 0.86092
 C2824 C 0.55981 0.75972 0.87729
 C2825 C 0.53611 0.75020 0.86603
 C2826 C 0.53843 0.74119 0.83688
 C2827 C 0.60679 0.76909 0.87427
 C2828 C 0.63172 0.76787 0.85988
 C2829 C 0.63496 0.75832 0.83119
 C2830 C 0.61163 0.75225 0.81602
 C2831 C 0.61485 0.74687 0.78592
 C2832 C 0.64020 0.74665 0.77154
 C2833 C 0.66340 0.75019 0.78688
 C2834 C 0.66091 0.75508 0.81717
 C2835 C 0.68448 0.75510 0.83281
 C2836 C 0.70954 0.75180 0.81882
 C2837 C 0.71254 0.74953 0.78838
 C2838 C 0.68912 0.74823 0.77252
 H2839 H 0.56252 0.73458 0.79824
 H2840 H 0.56037 0.76598 0.89940
 H2841 H 0.52189 0.73187 0.82711
 H2842 H 0.60537 0.77632 0.89644
 H2843 H 0.64818 0.77525 0.87153
 H2844 H 0.59794 0.74349 0.77280
 H2845 H 0.64171 0.74286 0.74837
 H2846 H 0.68416 0.75632 0.85621
 H2847 H 0.72670 0.75145 0.83236
 H2848 H 0.69082 0.74491 0.74928
 C2849 C 0.56488 0.20771 0.64558
 C2850 C 0.57178 0.22507 0.66762
 C2851 C 0.55293 0.24532 0.67572
 C2852 C 0.53001 0.24995 0.65933
 C2853 C 0.52585 0.23563 0.63357
 C2854 C 0.54242 0.21270 0.62932
 C2855 C 0.55737 0.26108 0.69977
 C2856 C 0.58085 0.25799 0.71498
 C2857 C 0.60125 0.23940 0.70615
 C2858 C 0.59656 0.22276 0.68192
 C2859 C 0.61738 0.20537 0.67153
 C2860 C 0.64208 0.20445 0.68393
 C2861 C 0.64702 0.22043 0.70748
 C2862 C 0.62664 0.23754 0.71971
 C2863 C 0.63301 0.25239 0.74444
 C2864 C 0.65889 0.25100 0.75545
 C2865 C 0.67928 0.23496 0.74213
 C2866 C 0.67277 0.21980 0.71810
 H2867 H 0.57632 0.18981 0.64052
 H2868 H 0.51528 0.26453 0.66725
 H2869 H 0.53862 0.19784 0.61360
 H2870 H 0.54277 0.27634 0.70660
 H2871 H 0.58296 0.27125 0.73290
 H2872 H 0.61572 0.19306 0.65274
 H2873 H 0.65770 0.19129 0.67461
 H2874 H 0.61848 0.26535 0.75562
 H2875 H 0.66309 0.26313 0.77390
 H2876 H 0.68804 0.20748 0.70692
 C2877 C 0.04182 0.71969 0.14472
 C2878 C 0.04832 0.73680 0.16714
 C2879 C 0.02871 0.75581 0.17687
 C2880 C 0.00547 0.76032 0.16097
 C2881 C 0.00161 0.74623 0.13499
 C2882 C 0.01919 0.72444 0.12888
 C2883 C 0.03333 0.77113 0.20125
 C2884 C 0.05760 0.76870 0.21523
 C2885 C 0.07876 0.75193 0.20416
 C2886 C 0.07406 0.73621 0.17926
 C2887 C 0.09582 0.72213 0.16544
 C2888 C 0.12141 0.72361 0.17523
 C2889 C 0.12621 0.73813 0.19992
 C2890 C 0.10500 0.75147 0.21574
 C2891 C 0.11130 0.76393 0.24205
 C2892 C 0.13777 0.76333 0.25163
 C2893 C 0.15876 0.75107 0.23483
 C2894 C 0.15249 0.73938 0.20849
 H2895 H 0.05422 0.70265 0.13854
 H2896 H -0.00818 0.77659 0.16710
 H2897 H 0.01664 0.71121 0.11103
 H2898 H 0.01826 0.78547 0.20928
 H2899 H 0.05996 0.78150 0.23353
 H2900 H 0.09407 0.71114 0.14567
 H2901 H 0.13770 0.71324 0.16324
 H2902 H 0.09609 0.77374 0.25587
 H2903 H 0.14182 0.77285 0.27190
 H2904 H 0.16814 0.73008 0.19465
   
