data_POSCAR
  _audit_creation_date              2014-09-24
  _audit_creation_method            'ToBaCCo'
  _symmetry_space_group_name_H-M    'P1'
  _symmetry_Int_Tables_number       1
  _symmetry_cell_setting            triclinic
  loop_
  _symmetry_equiv_pos_as_xyz
 x,y,z
_cell_length_a 49.8458
_cell_length_b 49.8459
_cell_length_c 49.8459
_cell_angle_alpha 90.000200
_cell_angle_beta 90.000100
_cell_angle_gamma 89.999900
loop_
  _atom_site_label
  _atom_site_type_symbol
  _atom_site_fract_x
  _atom_site_fract_y
  _atom_site_fract_z
N1 N 0.34854 1.34850 0.34857
 N2 N 0.34858 0.84860 0.84856
 N3 N 0.84847 1.34861 0.84850
 N4 N 0.84856 0.84853 0.34843
 N5 N 0.65153 0.65150 0.34860
 N6 N 0.65143 0.15159 0.84857
 N7 N 1.15143 0.65147 0.84857
 N8 N 1.15149 0.15143 0.34851
 N9 N 0.65146 1.34852 0.65144
 N10 N 0.65144 0.84853 1.15142
 N11 N 1.15143 1.34853 1.15139
 N12 N 1.15144 0.84852 0.65143
 N13 N 0.34854 0.65149 0.65144
 N14 N 0.34852 0.15145 1.15150
 N15 N 0.84851 0.65138 1.15150
 N16 N 0.84859 0.15141 0.65153
 N17 N 1.34858 0.34858 0.65146
 N18 N 1.34856 0.84859 1.15146
 N19 N 0.84854 0.34860 1.15147
 N20 N 0.84862 0.84860 0.65145
 N21 N 0.65149 0.65150 0.65142
 N22 N 0.65143 1.15148 1.15143
 N23 N 0.15142 0.65144 1.15139
 N24 N 0.15143 1.15145 0.65143
 N25 N 1.34858 0.65141 0.34860
 N26 N 1.34852 1.15153 0.84854
 N27 N 0.84853 0.65144 0.84843
 N28 N 0.84853 1.15135 0.34849
 N29 N 0.65145 0.34851 0.34860
 N30 N 0.65140 0.84855 0.84862
 N31 N 0.15143 0.34855 0.84860
 N32 N 0.15149 0.84849 0.34852
 O33 O 0.97364 0.90325 0.86626
 O34 O 0.97355 0.87208 0.83485
 C35 C 0.96444 0.89389 0.84442
 C36 C 0.94246 0.90820 0.83043
 C37 C 0.93301 0.89915 0.80546
 H38 H 0.94230 0.88204 0.79577
 O39 O 1.02612 1.09709 0.86646
 O40 O 1.02615 1.12833 0.83512
 C41 C 1.03528 1.10650 0.84461
 C42 C 1.05721 1.09222 0.83052
 C43 C 1.06657 1.10134 0.80555
 H44 H 1.05725 1.11848 0.79595
 O45 O 0.86624 0.97401 0.90326
 O46 O 0.83486 0.97405 0.87207
 C47 C 0.84439 0.96486 0.89386
 C48 C 0.83036 0.94287 0.90809
 C49 C 0.80539 0.93349 0.89897
 H50 H 0.79575 0.94286 0.88187
 O51 O 1.13362 1.02619 0.90289
 O52 O 1.16496 1.02626 0.87166
 C53 C 1.15546 1.03537 0.89350
 C54 C 1.16952 1.05729 0.90781
 C55 C 1.19449 1.06672 0.89873
 H56 H 1.20411 1.05746 0.88156
 O57 O 0.90293 0.86630 0.97375
 O58 O 0.87171 0.83495 0.97369
 C59 C 0.89352 0.84448 0.96455
 C60 C 0.90779 0.83048 0.94255
 C61 C 0.89872 0.80551 0.93311
 H62 H 0.88161 0.79584 0.94241
 O63 O 1.09705 1.13353 0.97391
 O64 O 1.12828 1.16487 0.97390
 C65 C 1.10645 1.15538 0.96476
 C66 C 1.09218 1.16946 0.94282
 C67 C 1.10131 1.19442 0.93344
 H68 H 1.11846 1.20402 0.94275
 O69 O 0.90300 1.02639 0.86658
 O70 O 0.87178 1.02647 0.83523
 C71 C 0.89361 1.03558 0.84475
 C72 C 0.90788 1.05755 0.83072
 C73 C 0.89879 1.06694 0.80574
 H74 H 0.88167 1.05761 0.79611
 O75 O 1.09681 0.97393 0.86613
 O76 O 1.12797 0.97390 0.83473
 C77 C 1.10617 0.96476 0.84427
 C78 C 1.09186 0.94280 0.83025
 C79 C 1.10094 0.93335 0.80529
 H80 H 1.11807 0.94263 0.79563
 O81 O 1.02599 0.86646 0.90291
 O82 O 1.02598 0.83513 0.87167
 C83 C 1.03515 0.84462 0.89349
 C84 C 1.05713 0.83057 0.90772
 C85 C 1.06650 0.80560 0.89859
 H86 H 1.05714 0.79598 0.88148
 O87 O 0.97385 1.13385 0.90328
 O88 O 0.97383 1.16524 0.87210
 C89 C 0.96468 1.15571 0.89391
 C90 C 0.94272 1.16975 0.90819
 C91 C 0.93332 1.19471 0.89907
 H92 H 0.94264 1.20434 0.88195
 O93 O 0.86631 1.09718 0.97400
 O94 O 0.83495 1.12839 0.97402
 C95 C 0.84446 1.10658 0.96485
 C96 C 0.83041 1.09231 0.94289
 C97 C 0.80544 1.10141 0.93347
 H98 H 0.79581 1.11855 0.94276
 O99 O 1.13362 0.90306 0.97358
 O100 O 1.16497 0.87184 0.97349
 C101 C 1.15545 0.89367 0.96438
 C102 C 1.16946 0.90796 0.94240
 C103 C 1.19444 0.89890 0.93298
 H104 H 1.20411 0.88178 0.94227
 O105 O 0.97379 1.09714 0.86652
 O106 O 0.97374 1.12836 0.83518
 C107 C 0.96460 1.10655 0.84470
 C108 C 0.94261 1.09228 0.83068
 C109 C 0.93319 1.10135 0.80570
 H110 H 0.94250 1.11847 0.79604
 O111 O 1.02598 0.90323 0.86621
 O112 O 1.02596 0.87206 0.83481
 C113 C 1.03513 0.89385 0.84435
 C114 C 1.05709 0.90811 0.83030
 C115 C 1.06648 0.89899 0.80534
 H116 H 1.05714 0.88187 0.79572
 O117 O 1.13354 0.97386 0.90286
 O118 O 1.16488 0.97385 0.87164
 C119 C 1.15537 0.96469 0.89345
 C120 C 1.16941 0.94272 0.90770
 C121 C 1.19439 0.93334 0.89859
 H122 H 1.20402 0.94268 0.88148
 O123 O 0.86625 1.02637 0.90330
 O124 O 0.83487 1.02645 0.87211
 C125 C 0.84441 1.03557 0.89392
 C126 C 0.83040 1.05755 0.90820
 C127 C 0.80543 1.06696 0.89910
 H128 H 0.79579 1.05763 0.88198
 O129 O 0.90306 1.13389 0.97401
 O130 O 0.87188 1.16528 0.97402
 C131 C 0.89368 1.15575 0.96486
 C132 C 0.90796 1.16978 0.94289
 C133 C 0.89888 1.19474 0.93345
 H134 H 0.88174 1.20439 0.94274
 O135 O 1.09686 0.86634 0.97357
 O136 O 1.12804 0.83496 0.97347
 C137 C 1.10622 0.84450 0.96436
 C138 C 1.09192 0.83050 0.94239
 C139 C 1.10097 0.80553 0.93294
 H140 H 1.11809 0.79586 0.94222
 O141 O 1.09682 1.02627 0.86622
 O142 O 1.12798 1.02632 0.83481
 C143 C 1.10619 1.03547 0.84437
 C144 C 1.09191 1.05747 0.83040
 C145 C 1.10096 1.06691 0.80542
 H146 H 1.11806 1.05760 0.79573
 O147 O 0.90293 0.97404 0.86647
 O148 O 0.87171 0.97408 0.83512
 C149 C 0.89352 0.96491 0.84462
 C150 C 0.90776 0.94295 0.83054
 C151 C 0.89863 0.93359 0.80557
 H152 H 0.88150 0.94294 0.79596
 O153 O 1.02620 1.13378 0.90324
 O154 O 1.02624 1.16518 0.87207
 C155 C 1.03540 1.15562 0.89386
 C156 C 1.05741 1.16959 0.90813
 C157 C 1.06687 1.19456 0.89907
 H158 H 1.05756 1.20425 0.88197
 O159 O 0.97365 0.86646 0.90296
 O160 O 0.97358 0.83514 0.87171
 C161 C 0.96446 0.84463 0.89355
 C162 C 0.94251 0.83057 0.90782
 C163 C 0.93313 0.80561 0.89870
 H164 H 0.94245 0.79599 0.88156
 O165 O 1.13374 1.09675 0.97385
 O166 O 1.16513 1.12792 0.97385
 C167 C 1.15558 1.10613 0.96468
 C168 C 1.16958 1.09190 0.94266
 C169 C 1.19454 1.10101 0.93326
 H170 H 1.20420 1.11809 0.94262
 O171 O 0.86621 0.90305 0.97382
 O172 O 0.83482 0.87188 0.97376
 C173 C 0.84436 0.89370 0.96465
 C174 C 0.83033 0.90803 0.94271
 C175 C 0.80536 0.89898 0.93327
 H176 H 0.79571 0.88183 0.94253
 Cu177 Cu 0.99982 0.88797 0.88772
 Cu178 Cu 0.99976 0.85046 0.85012
 Cu179 Cu 0.99999 1.11234 0.88800
 Cu180 Cu 0.99999 1.14993 0.85048
 Cu181 Cu 0.88773 1.00020 0.88803
 Cu182 Cu 0.85016 1.00027 0.85049
 Cu183 Cu 1.11207 1.00006 0.88765
 Cu184 Cu 1.14959 1.00008 0.85006
 C185 C 0.92986 0.93028 0.84267
 H186 H 0.93678 0.93713 0.86210
 C187 C 0.91123 0.91183 0.79308
 C188 C 1.06985 1.07010 0.84265
 H189 H 1.06299 1.06319 0.86208
 C190 C 1.08831 1.08871 0.79305
 C191 C 0.84253 0.93016 0.93015
 H192 H 0.86196 0.93703 0.93706
 C193 C 0.79294 0.91169 0.91153
 C194 C 1.15737 1.06986 0.92997
 H195 H 1.13794 1.06296 0.93685
 C196 C 1.20695 1.08845 0.91143
 C197 C 0.92987 0.84271 0.92993
 H198 H 0.93674 0.86214 0.93684
 C199 C 0.91137 0.79313 0.91131
 C200 C 1.07005 1.15734 0.93019
 H201 H 1.06313 1.13792 0.93706
 C202 C 1.08868 1.20692 0.91170
 C203 C 0.92998 1.07020 0.84289
 H204 H 0.93687 1.06332 0.86232
 C205 C 0.91142 1.08870 0.79329
 C206 C 1.06976 0.93020 0.84246
 H207 H 1.06288 0.93711 0.86189
 C208 C 1.08827 0.91158 0.79288
 C209 C 1.06981 0.84272 0.92980
 H210 H 1.06295 0.86215 0.93672
 C211 C 1.08828 0.79313 0.91118
 C212 C 0.93007 1.15758 0.93028
 H213 H 0.93696 1.13816 0.93718
 C214 C 0.91153 1.20715 0.91167
 C215 C 0.84259 1.07019 0.93028
 H216 H 0.86201 1.06330 0.93717
 C217 C 0.79301 1.08875 0.91170
 C218 C 1.15725 0.93006 0.92979
 H219 H 1.13782 0.93692 0.93669
 C220 C 1.20685 0.91157 0.91120
 O221 O 1.02617 0.90285 1.13350
 O222 O 1.02619 0.87162 1.16484
 C223 C 1.03534 0.89344 1.15534
 C224 C 1.05730 0.90769 1.16940
 C225 C 1.06667 0.89858 1.19437
 H226 H 1.05734 0.88145 1.20399
 O227 O 0.97395 1.09686 1.13372
 O228 O 0.97395 1.12802 1.16513
 C229 C 0.96479 1.10623 1.15558
 C230 C 0.94281 1.09195 1.16959
 C231 C 0.93337 1.10102 1.19456
 H232 H 0.94267 1.11814 1.20422
 O233 O 0.86641 1.02617 1.09690
 O234 O 0.83507 1.02617 1.12814
 C235 C 0.84458 1.03534 1.10633
 C236 C 0.83054 1.05735 1.09211
 C237 C 0.80558 1.06672 1.10124
 H238 H 0.79594 1.05735 1.11834
 O239 O 1.13367 0.97359 1.09689
 O240 O 1.16505 0.97349 1.12808
 C241 C 1.15551 0.96439 1.10625
 C242 C 1.16953 0.94244 1.09193
 C243 C 1.19450 0.93299 1.10099
 H244 H 1.20415 0.94225 1.11813
 O245 O 1.09688 0.86629 1.02591
 O246 O 1.12807 0.83491 1.02588
 C247 C 1.10627 0.84443 1.03505
 C248 C 1.09201 0.83038 1.05702
 C249 C 1.10114 0.80542 1.06641
 H250 H 1.11827 0.79580 1.05707
 O251 O 0.90311 1.13382 1.02634
 O252 O 0.87193 1.16522 1.02645
 C253 C 0.89375 1.15566 1.03555
 C254 C 0.90807 1.16964 1.05753
 C255 C 0.89903 1.19462 1.06699
 H256 H 0.88190 1.20430 1.05771
 O257 O 0.90316 0.97375 1.13354
 O258 O 0.87199 0.97372 1.16493
 C259 C 0.89378 0.96457 1.15538
 C260 C 0.90804 0.94257 1.16939
 C261 C 0.89894 0.93317 1.19435
 H262 H 0.88183 0.94251 1.20400
 O263 O 1.09699 1.02592 1.13369
 O264 O 1.12820 1.02591 1.16505
 C265 C 1.10639 1.03508 1.15553
 C266 C 1.09214 1.05707 1.16956
 C267 C 1.10124 1.06649 1.19453
 H268 H 1.11836 1.05717 1.20418
 O269 O 0.97380 0.86617 1.09674
 O270 O 0.97378 0.83477 1.12791
 C271 C 0.96463 0.84432 1.10611
 C272 C 0.94264 0.83031 1.09186
 C273 C 0.93324 0.80534 1.10096
 H274 H 0.94258 0.79570 1.11807
 O275 O 1.02631 1.13359 1.09701
 O276 O 1.02640 1.16492 1.12824
 C277 C 1.03551 1.15541 1.10642
 C278 C 1.05750 1.16941 1.09214
 C279 C 1.06693 1.19439 1.10120
 H280 H 1.05762 1.20406 1.11831
 O281 O 0.86625 0.90300 1.02615
 O282 O 0.83485 0.87183 1.02618
 C283 C 0.84441 0.89362 1.03533
 C284 C 0.83041 0.90792 1.05731
 C285 C 0.80543 0.89886 1.06675
 H286 H 0.79576 0.88174 1.05747
 O287 O 1.13379 1.09672 1.02621
 O288 O 1.16519 1.12789 1.02626
 C289 C 1.15564 1.10609 1.03539
 C290 C 1.16966 1.09179 1.05736
 C291 C 1.19462 1.10087 1.06681
 H292 H 1.20428 1.11800 1.05752
 O293 O 1.02629 1.09677 1.13367
 O294 O 1.02636 1.12794 1.16507
 C295 C 1.03548 1.10613 1.15552
 C296 C 1.05744 1.09183 1.16954
 C297 C 1.06685 1.10092 1.19451
 H298 H 1.05755 1.11805 1.20414
 O299 O 0.97384 0.90288 1.13350
 O300 O 0.97379 0.87166 1.16484
 C301 C 0.96466 0.89348 1.15533
 C302 C 0.94270 0.90777 1.16937
 C303 C 0.93328 0.89869 1.19434
 H304 H 0.94256 0.88155 1.20398
 O305 O 1.13370 1.02592 1.09693
 O306 O 1.16508 1.02590 1.12813
 C307 C 1.15556 1.03507 1.10632
 C308 C 1.16961 1.05704 1.09207
 C309 C 1.19457 1.06643 1.10119
 H310 H 1.20418 1.05710 1.11832
 O311 O 0.86638 0.97381 1.09685
 O312 O 0.83505 0.97378 1.12808
 C313 C 0.84454 0.96464 1.10626
 C314 C 0.83048 0.94268 1.09200
 C315 C 0.80551 0.93331 1.10112
 H316 H 0.79589 0.94266 1.11824
 O317 O 1.09706 1.13347 1.02625
 O318 O 1.12829 1.16481 1.02629
 C319 C 1.10647 1.15530 1.03543
 C320 C 1.09221 1.16935 1.05740
 C321 C 1.10132 1.19432 1.06677
 H322 H 1.11844 1.20394 1.05743
 O323 O 0.90295 0.86622 1.02609
 O324 O 0.87173 0.83487 1.02611
 C325 C 0.89355 0.84437 1.03525
 C326 C 0.90785 0.83032 1.05720
 C327 C 0.89876 0.80535 1.06663
 H328 H 0.88161 0.79572 1.05735
 O329 O 1.09695 0.97358 1.13364
 O330 O 1.12816 0.97349 1.16501
 C331 C 1.10634 0.96438 1.15548
 C332 C 1.09205 0.94240 1.16948
 C333 C 1.10111 0.93296 1.19445
 H334 H 1.11822 0.94225 1.20412
 O335 O 0.90318 1.02611 1.13361
 O336 O 0.87200 1.02611 1.16500
 C337 C 0.89381 1.03526 1.15547
 C338 C 0.90809 1.05721 1.16952
 C339 C 0.89898 1.06660 1.19449
 H340 H 0.88184 1.05727 1.20411
 O341 O 0.97396 1.13362 1.09701
 O342 O 0.97399 1.16495 1.12825
 C343 C 0.96482 1.15546 1.10644
 C344 C 0.94285 1.16954 1.09220
 C345 C 0.93349 1.19451 1.10134
 H346 H 0.94285 1.20412 1.11846
 O347 O 1.02615 0.86617 1.09671
 O348 O 1.02620 0.83477 1.12788
 C349 C 1.03534 0.84432 1.10608
 C350 C 1.05731 0.83032 1.09178
 C351 C 1.06676 0.80535 1.10085
 H352 H 1.05748 0.79569 1.11798
 O353 O 1.13363 0.90301 1.02593
 O354 O 1.16499 0.87179 1.02590
 C355 C 1.15547 0.89359 1.03509
 C356 C 1.16951 0.90781 1.05709
 C357 C 1.19447 0.89868 1.06647
 H358 H 1.20411 0.88158 1.05710
 O359 O 0.86635 1.09712 1.02633
 O360 O 0.83500 1.12833 1.02643
 C361 C 0.84452 1.10650 1.03553
 C362 C 0.83051 1.09218 1.05749
 C363 C 0.80554 1.10123 1.06694
 H364 H 0.79588 1.11838 1.05768
 Cu365 Cu 0.99999 0.88765 1.11199
 Cu366 Cu 0.99999 0.85006 1.14951
 Cu367 Cu 1.00012 1.11209 1.11222
 Cu368 Cu 1.00018 1.14960 1.14982
 Cu369 Cu 0.88771 0.88776 0.99996
 Cu370 Cu 0.85013 0.85024 0.99993
 Cu371 Cu 1.11212 0.88780 0.99975
 Cu372 Cu 1.14966 0.85023 0.99968
 Cu373 Cu 0.88783 1.11238 1.00016
 Cu374 Cu 0.85030 1.14995 1.00024
 Cu375 Cu 1.11228 1.11199 1.00006
 Cu376 Cu 1.14987 1.14951 1.00008
 Cu377 Cu 0.88791 0.99996 1.11209
 Cu378 Cu 0.85039 0.99994 1.14968
 Cu379 Cu 1.11220 0.99976 1.11217
 Cu380 Cu 1.14977 0.99969 1.14971
 C381 C 1.06996 0.92979 1.15725
 H382 H 1.06309 0.93670 1.13783
 C383 C 1.08844 0.91118 1.20685
 C384 C 0.93019 1.06985 1.15737
 H385 H 0.93709 1.06298 1.13794
 C386 C 0.91159 1.08836 1.20696
 C387 C 0.84271 1.07005 1.07005
 H388 H 0.86214 1.06318 1.06313
 C389 C 0.79312 1.08852 1.08868
 C390 C 1.15733 0.92987 1.06979
 H391 H 1.13791 0.93679 1.06293
 C392 C 1.20692 0.91124 1.08828
 C393 C 1.06991 0.84253 1.06968
 H394 H 1.06300 0.86196 1.06281
 C395 C 1.08854 0.79295 1.08818
 C396 C 0.93017 1.15741 1.07011
 H397 H 0.93701 1.13798 1.06319
 C398 C 0.91172 1.20700 1.08876
 C399 C 0.93011 0.92990 1.15719
 H400 H 0.93700 0.93678 1.13777
 C401 C 0.91153 0.91137 1.20678
 C402 C 1.07005 1.06971 1.15737
 H403 H 1.06316 1.06283 1.13795
 C404 C 1.08862 1.08828 1.20695
 C405 C 0.92997 0.84250 1.06979
 H406 H 0.93686 0.86192 1.06289
 C407 C 0.91143 0.79292 1.08838
 C408 C 1.07012 1.15719 1.07005
 H409 H 1.06322 1.13776 1.06319
 C410 C 1.08871 1.20679 1.08853
 C411 C 0.84263 0.93001 1.06991
 H412 H 0.86206 0.93688 1.06300
 C413 C 0.79304 0.91154 1.08853
 C414 C 1.15745 1.06969 1.06997
 H415 H 1.13803 1.06281 1.06306
 C416 C 1.20703 1.08821 1.08859
 O417 O 0.97363 0.40305 0.36632
 O418 O 0.97353 0.37187 0.33493
 C419 C 0.96442 0.39369 0.34448
 C420 C 0.94245 0.40801 0.33050
 C421 C 0.93299 0.39897 0.30552
 H422 H 0.94226 0.38184 0.29584
 O423 O 1.02615 0.59695 0.36636
 O424 O 1.02617 0.62816 0.33500
 C425 C 1.03530 0.60634 0.34451
 C426 C 1.05723 0.59205 0.33043
 C427 C 1.06660 0.60117 0.30545
 H428 H 1.05729 0.61832 0.29586
 O429 O 0.86628 0.47394 0.40327
 O430 O 0.83489 0.47396 0.37209
 C431 C 0.84443 0.46479 0.39388
 C432 C 0.83038 0.44281 0.40813
 C433 C 0.80542 0.43343 0.39901
 H434 H 0.79579 0.44278 0.38190
 O435 O 1.13356 0.52605 0.40286
 O436 O 1.16490 0.52606 0.37163
 C437 C 1.15540 0.53520 0.39346
 C438 C 1.16948 0.55714 0.40774
 C439 C 1.19445 0.56652 0.39863
 H440 H 1.20405 0.55721 0.38148
 O441 O 0.90292 0.36625 0.47384
 O442 O 0.87170 0.33490 0.47382
 C443 C 0.89351 0.34442 0.46466
 C444 C 0.90777 0.33039 0.44267
 C445 C 0.89869 0.30542 0.43325
 H446 H 0.88157 0.29576 0.44256
 O447 O 1.09705 0.63349 0.47378
 O448 O 1.12829 0.66482 0.47374
 C449 C 1.10645 0.65533 0.46461
 C450 C 1.09218 0.66940 0.44267
 C451 C 1.10130 0.69437 0.43329
 H452 H 1.11845 0.70397 0.44261
 O453 O 0.90304 0.52627 0.36652
 O454 O 0.87180 0.52635 0.33519
 C455 C 0.89363 0.53546 0.34469
 C456 C 0.90790 0.55743 0.33064
 C457 C 0.89878 0.56681 0.30568
 H458 H 0.88165 0.55749 0.29606
 O459 O 1.09676 0.47376 0.36613
 O460 O 1.12792 0.47370 0.33473
 C461 C 1.10611 0.46458 0.34428
 C462 C 1.09181 0.44261 0.33027
 C463 C 1.10086 0.43317 0.30530
 H464 H 1.11799 0.44246 0.29563
 O465 O 1.02598 0.36625 0.40296
 O466 O 1.02597 0.33490 0.37174
 C467 C 1.03514 0.34441 0.39355
 C468 C 1.05712 0.33038 0.40780
 C469 C 1.06655 0.30541 0.39870
 H470 H 1.05724 0.29577 0.38158
 O471 O 0.97388 0.63373 0.40317
 O472 O 0.97386 0.66511 0.37198
 C473 C 0.96473 0.65559 0.39380
 C474 C 0.94278 0.66965 0.40809
 C475 C 0.93339 0.69461 0.39897
 H476 H 0.94270 0.70422 0.38183
 O477 O 0.86644 0.59715 0.47401
 O478 O 0.83509 0.62836 0.47400
 C479 C 0.84459 0.60655 0.46485
 C480 C 0.83054 0.59227 0.44289
 C481 C 0.80557 0.60136 0.43347
 H482 H 0.79594 0.61851 0.44276
 O483 O 1.13352 0.40301 0.47363
 O484 O 1.16487 0.37179 0.47357
 C485 C 1.15535 0.39361 0.46444
 C486 C 1.16938 0.40786 0.44246
 C487 C 1.19435 0.39877 0.43307
 H488 H 1.20399 0.38166 0.44241
 O489 O 0.97381 0.59702 0.36641
 O490 O 0.97376 0.62823 0.33504
 C491 C 0.96462 0.60643 0.34458
 C492 C 0.94262 0.59216 0.33058
 C493 C 0.93318 0.60123 0.30561
 H494 H 0.94248 0.61835 0.29594
 O495 O 1.02597 0.40303 0.36627
 O496 O 1.02593 0.37185 0.33488
 C497 C 1.03510 0.39365 0.34441
 C498 C 1.05706 0.40791 0.33034
 C499 C 1.06643 0.39879 0.30537
 H500 H 1.05709 0.38166 0.29576
 O501 O 1.13354 0.47372 0.40281
 O502 O 1.16489 0.47366 0.37159
 C503 C 1.15537 0.46453 0.39341
 C504 C 1.16939 0.44255 0.40769
 C505 C 1.19437 0.43313 0.39862
 H506 H 1.20403 0.44243 0.38149
 O507 O 0.86635 0.52629 0.40332
 O508 O 0.83496 0.52637 0.37214
 C509 C 0.84451 0.53550 0.39394
 C510 C 0.83051 0.55749 0.40821
 C511 C 0.80555 0.56690 0.39912
 H512 H 0.79589 0.55756 0.38202
 O513 O 0.90318 0.63387 0.47400
 O514 O 0.87201 0.66526 0.47400
 C515 C 0.89381 0.65572 0.46483
 C516 C 0.90808 0.66972 0.44284
 C517 C 0.89899 0.69469 0.43340
 H518 H 0.88188 0.70436 0.44270
 O519 O 1.09678 0.36628 0.47366
 O520 O 1.12797 0.33489 0.47360
 C521 C 1.10615 0.34443 0.46448
 C522 C 1.09186 0.33040 0.44252
 C523 C 1.10096 0.30544 0.43311
 H524 H 1.11810 0.29581 0.44242
 O525 O 1.09682 0.52610 0.36614
 O526 O 1.12798 0.52612 0.33473
 C527 C 1.10619 0.53528 0.34429
 C528 C 1.09192 0.55729 0.33031
 C529 C 1.10098 0.56673 0.30533
 H530 H 1.11808 0.55742 0.29565
 O531 O 0.90299 0.47393 0.36650
 O532 O 0.87176 0.47395 0.33517
 C533 C 0.89357 0.46478 0.34466
 C534 C 0.90779 0.44280 0.33059
 C535 C 0.89865 0.43345 0.30562
 H536 H 0.88154 0.44281 0.29601
 O537 O 1.02623 0.63369 0.40309
 O538 O 1.02627 0.66507 0.37191
 C539 C 1.03542 0.65552 0.39370
 C540 C 1.05743 0.66951 0.40797
 C541 C 1.06687 0.69448 0.39890
 H542 H 1.05756 0.70416 0.38180
 O543 O 0.97364 0.36631 0.40305
 O544 O 0.97356 0.33496 0.37183
 C545 C 0.96445 0.34447 0.39366
 C546 C 0.94249 0.33043 0.40794
 C547 C 0.93310 0.30547 0.39884
 H548 H 0.94242 0.29584 0.38171
 O549 O 1.13376 0.59672 0.47371
 O550 O 1.16517 0.62789 0.47367
 C551 C 1.15560 0.60610 0.46452
 C552 C 1.16958 0.59183 0.44251
 C553 C 1.19456 0.60089 0.43307
 H554 H 1.20424 0.61799 0.44239
 O555 O 0.86624 0.40303 0.47388
 O556 O 0.83483 0.37187 0.47386
 C557 C 0.84438 0.39368 0.46472
 C558 C 0.83036 0.40799 0.44277
 C559 C 0.80538 0.39893 0.43333
 H560 H 0.79573 0.38179 0.44259
 Cu561 Cu 0.99981 0.38778 0.38778
 Cu562 Cu 0.99974 0.35025 0.35020
 Cu563 Cu 1.00002 0.61222 0.38788
 Cu564 Cu 1.00001 0.64979 0.35034
 Cu565 Cu 0.88780 0.50010 0.38803
 Cu566 Cu 0.85020 0.50016 0.35051
 Cu567 Cu 1.11204 0.49991 0.38761
 Cu568 Cu 1.14956 0.49989 0.35002
 C569 C 0.92987 0.43011 0.34273
 H570 H 0.93679 0.43696 0.36216
 C571 C 0.91123 0.41167 0.29313
 C572 C 1.06986 0.56993 0.34255
 H573 H 1.06300 0.56302 0.36198
 C574 C 1.08834 0.58854 0.29296
 C575 C 0.84256 0.43012 0.43020
 H576 H 0.86198 0.43698 0.43710
 C577 C 0.79297 0.41163 0.41158
 C578 C 1.15734 0.56977 0.42987
 H579 H 1.13792 0.56290 0.43677
 C580 C 1.20694 0.58826 0.41126
 C581 C 0.92986 0.34260 0.43004
 H582 H 0.93674 0.36203 0.43693
 C583 C 0.91133 0.29301 0.41147
 C584 C 1.07006 0.65727 0.43004
 H585 H 1.06315 0.63784 0.43691
 C586 C 1.08868 0.70686 0.41155
 C587 C 0.93000 0.57007 0.34279
 H588 H 0.93691 0.56319 0.36222
 C589 C 0.91140 0.58858 0.29321
 C590 C 1.06972 0.43000 0.34250
 H591 H 1.06286 0.43691 0.36193
 C592 C 1.08820 0.41140 0.29290
 C593 C 1.06976 0.34257 0.42990
 H594 H 1.06286 0.36199 0.43679
 C595 C 1.08834 0.29300 0.41134
 C596 C 0.93016 0.65750 0.43021
 H597 H 0.93704 0.63808 0.43712
 C598 C 0.91163 0.70708 0.41159
 C599 C 0.84271 0.57014 0.43029
 H600 H 0.86214 0.56325 0.43717
 C601 C 0.79313 0.58870 0.41172
 C602 C 1.15720 0.42995 0.42979
 H603 H 1.13777 0.43684 0.43667
 C604 C 1.20680 0.41137 0.41129
 O605 O 1.02622 0.40298 0.63358
 O606 O 1.02624 0.37177 0.66494
 C607 C 1.03539 0.39357 0.65542
 C608 C 1.05738 0.40782 0.66945
 C609 C 1.06676 0.39871 0.69442
 H610 H 1.05740 0.38161 0.70406
 O611 O 0.97408 0.59687 0.63373
 O612 O 0.97409 0.62804 0.66512
 C613 C 0.96492 0.60625 0.65558
 C614 C 0.94293 0.59199 0.66958
 C615 C 0.93349 0.60107 0.69455
 H616 H 0.94279 0.61819 0.70421
 O617 O 0.86646 0.52621 0.59692
 O618 O 0.83513 0.52624 0.62816
 C619 C 0.84464 0.53539 0.60634
 C620 C 0.83061 0.55739 0.59212
 C621 C 0.80564 0.56677 0.60123
 H622 H 0.79600 0.55741 0.61833
 O623 O 1.13377 0.47363 0.59683
 O624 O 1.16518 0.47354 0.62800
 C625 C 1.15562 0.46443 0.60619
 C626 C 1.16961 0.44246 0.59188
 C627 C 1.19459 0.43301 0.60092
 H628 H 1.20426 0.44229 0.61804
 O629 O 1.09682 0.36628 0.52601
 O630 O 1.12800 0.33490 0.52599
 C631 C 1.10621 0.34443 0.53516
 C632 C 1.09196 0.33039 0.55714
 C633 C 1.10108 0.30543 0.56653
 H634 H 1.11819 0.29580 0.55718
 O635 O 0.90324 0.63381 0.52634
 O636 O 0.87207 0.66521 0.52642
 C637 C 0.89388 0.65566 0.53554
 C638 C 0.90820 0.66964 0.55752
 C639 C 0.89915 0.69461 0.56698
 H640 H 0.88202 0.70429 0.55770
 O641 O 0.90319 0.47381 0.63362
 O642 O 0.87201 0.47381 0.66501
 C643 C 0.89381 0.46465 0.65546
 C644 C 0.90806 0.44266 0.66949
 C645 C 0.89895 0.43327 0.69446
 H646 H 0.88183 0.44261 0.70409
 O647 O 1.09711 0.52598 0.63361
 O648 O 1.12833 0.52596 0.66496
 C649 C 1.10652 0.53513 0.65545
 C650 C 1.09228 0.55711 0.66950
 C651 C 1.10140 0.56648 0.69448
 H652 H 1.11852 0.55713 0.70410
 O653 O 0.97382 0.36629 0.59687
 O654 O 0.97380 0.33491 0.62806
 C655 C 0.96464 0.34445 0.60626
 C656 C 0.94266 0.33042 0.59200
 C657 C 0.93327 0.30545 0.60111
 H658 H 0.94262 0.29581 0.61822
 O659 O 1.02644 0.63356 0.59698
 O660 O 1.02654 0.66491 0.62820
 C661 C 1.03565 0.65539 0.60637
 C662 C 1.05763 0.66939 0.59207
 C663 C 1.06707 0.69436 0.60114
 H664 H 1.05779 0.70402 0.61826
 O665 O 0.86627 0.40301 0.52621
 O666 O 0.83487 0.37185 0.52627
 C667 C 0.84443 0.39365 0.53541
 C668 C 0.83043 0.40795 0.55739
 C669 C 0.80546 0.39890 0.56684
 H670 H 0.79579 0.38177 0.55756
 O671 O 1.13380 0.59667 0.52607
 O672 O 1.16520 0.62785 0.52607
 C673 C 1.15566 0.60604 0.53522
 C674 C 1.16970 0.59177 0.55719
 C675 C 1.19466 0.60089 0.56659
 H676 H 1.20429 0.61801 0.55726
 O677 O 1.02643 0.59682 0.63372
 O678 O 1.02651 0.62800 0.66511
 C679 C 1.03562 0.60618 0.65556
 C680 C 1.05759 0.59187 0.66956
 C681 C 1.06703 0.60093 0.69454
 H682 H 1.05775 0.61805 0.70421
 O683 O 0.97387 0.40298 0.63364
 O684 O 0.97383 0.37177 0.66500
 C685 C 0.96470 0.39359 0.65549
 C686 C 0.94274 0.40789 0.66952
 C687 C 0.93330 0.39881 0.69449
 H688 H 0.94258 0.38167 0.70414
 O689 O 1.13384 0.52596 0.59687
 O690 O 1.16524 0.52595 0.62804
 C691 C 1.15570 0.53511 0.60624
 C692 C 1.16972 0.55708 0.59195
 C693 C 1.19469 0.56652 0.60104
 H694 H 1.20434 0.55723 0.61818
 O695 O 0.86643 0.47385 0.59690
 O696 O 0.83509 0.47384 0.62813
 C697 C 0.84459 0.46469 0.60631
 C698 C 0.83052 0.44272 0.59207
 C699 C 0.80555 0.43335 0.60120
 H700 H 0.79594 0.44270 0.61833
 O701 O 1.09711 0.63346 0.52613
 O702 O 1.12835 0.66479 0.52614
 C703 C 1.10654 0.65529 0.53530
 C704 C 1.09231 0.66933 0.55729
 C705 C 1.10143 0.69430 0.56667
 H706 H 1.11854 0.70392 0.55732
 O707 O 0.90298 0.36625 0.52617
 O708 O 0.87176 0.33491 0.52624
 C709 C 0.89359 0.34442 0.53536
 C710 C 0.90788 0.33039 0.55732
 C711 C 0.89881 0.30542 0.56675
 H712 H 0.88167 0.29577 0.55747
 O713 O 1.09708 0.47364 0.63362
 O714 O 1.12831 0.47355 0.66496
 C715 C 1.10648 0.46444 0.65545
 C716 C 1.09218 0.44248 0.66947
 C717 C 1.10124 0.43305 0.69445
 H718 H 1.11837 0.44233 0.70410
 O719 O 0.90325 0.52616 0.63362
 O720 O 0.87207 0.52620 0.66501
 C721 C 0.89388 0.53533 0.65547
 C722 C 0.90817 0.55728 0.66952
 C723 C 0.89906 0.56668 0.69448
 H724 H 0.88192 0.55737 0.70410
 O725 O 0.97409 0.63364 0.59703
 O726 O 0.97413 0.66498 0.62825
 C727 C 0.96495 0.65548 0.60644
 C728 C 0.94298 0.66955 0.59220
 C729 C 0.93361 0.69452 0.60134
 H730 H 0.94296 0.70413 0.61846
 O731 O 1.02616 0.36623 0.59686
 O732 O 1.02621 0.33485 0.62805
 C733 C 1.03533 0.34438 0.60623
 C734 C 1.05729 0.33036 0.59193
 C735 C 1.06673 0.30539 0.60100
 H736 H 1.05745 0.29573 0.61813
 O737 O 1.13361 0.40297 0.52598
 O738 O 1.16495 0.37174 0.52596
 C739 C 1.15545 0.39355 0.53513
 C740 C 1.16953 0.40779 0.55709
 C741 C 1.19450 0.39866 0.56645
 H742 H 1.20411 0.38154 0.55710
 O743 O 0.86646 0.59713 0.52633
 O744 O 0.83511 0.62835 0.52642
 C745 C 0.84462 0.60652 0.53553
 C746 C 0.83060 0.59221 0.55748
 C747 C 0.80562 0.60127 0.56692
 H748 H 0.79597 0.61842 0.55765
 Cu749 Cu 1.00002 0.38775 0.61211
 Cu750 Cu 1.00002 0.35018 0.64966
 Cu751 Cu 1.00025 0.61210 0.61224
 Cu752 Cu 1.00032 0.64963 0.64981
 Cu753 Cu 0.88773 0.38776 0.50002
 Cu754 Cu 0.85014 0.35024 0.50005
 Cu755 Cu 1.11206 0.38777 0.49983
 Cu756 Cu 1.14959 0.35018 0.49977
 Cu757 Cu 0.88795 0.61237 0.50016
 Cu758 Cu 0.85043 0.64995 0.50022
 Cu759 Cu 1.11230 0.61196 0.49992
 Cu760 Cu 1.14990 0.64948 0.49990
 Cu761 Cu 0.88796 0.50000 0.61213
 Cu762 Cu 0.85043 0.50003 0.64972
 Cu763 Cu 1.11232 0.49980 0.61211
 Cu764 Cu 1.14991 0.49975 0.64963
 C765 C 1.07006 0.42989 0.65727
 H766 H 1.06320 0.43678 0.63784
 C767 C 1.08855 0.41130 0.70687
 C768 C 0.93029 0.56990 0.65737
 H769 H 0.93719 0.56302 0.63795
 C770 C 0.91169 0.58844 0.70694
 C771 C 0.84279 0.57008 0.57005
 H772 H 0.86222 0.56321 0.56315
 C773 C 0.79320 0.58857 0.58866
 C774 C 1.15738 0.42988 0.56977
 H775 H 1.13795 0.43679 0.56292
 C776 C 1.20698 0.41124 0.58823
 C777 C 1.06988 0.34256 0.56981
 H778 H 1.06298 0.36199 0.56294
 C779 C 1.08849 0.29297 0.58832
 C780 C 0.93030 0.65741 0.57011
 H781 H 0.93716 0.63799 0.56319
 C782 C 0.91183 0.70700 0.58875
 C783 C 0.93014 0.43000 0.65732
 H784 H 0.93704 0.43688 0.63790
 C785 C 0.91154 0.41148 0.70690
 C786 C 1.07019 0.56977 0.65735
 H787 H 1.06328 0.56291 0.63792
 C788 C 1.08880 0.58825 0.70694
 C789 C 0.92999 0.34259 0.56992
 H790 H 0.93687 0.36202 0.56302
 C791 C 0.91149 0.29300 0.58851
 C792 C 1.07022 0.65718 0.56997
 H793 H 1.06331 0.63775 0.56310
 C794 C 1.08884 0.70676 0.58846
 C795 C 0.84266 0.43005 0.56997
 H796 H 0.86209 0.43691 0.56306
 C797 C 0.79308 0.41158 0.58862
 C798 C 1.15753 0.56968 0.56984
 H799 H 1.13810 0.56278 0.56296
 C800 C 1.20710 0.58829 0.58838
 O801 O 0.59707 1.02602 0.63375
 O802 O 0.62828 1.02602 0.66512
 C803 C 0.60647 1.03518 0.65560
 C804 C 0.59221 1.05717 0.66962
 C805 C 0.60130 1.06660 0.69459
 H806 H 0.61842 1.05729 0.70424
 O807 O 0.40319 0.97379 0.63375
 O808 O 0.37202 0.97375 0.66515
 C809 C 0.39382 0.96460 0.65559
 C810 C 0.40809 0.94260 0.66958
 C811 C 0.39903 0.93316 0.69455
 H812 H 0.38192 0.94247 0.70423
 O813 O 0.52633 1.13360 0.59703
 O814 O 0.52641 1.16496 0.62824
 C815 C 0.53553 1.15543 0.60642
 C816 C 0.55752 1.16942 0.59214
 C817 C 0.56696 1.19440 0.60119
 H818 H 0.55766 1.20407 0.61831
 O819 O 0.47385 0.86631 0.59679
 O820 O 0.47382 0.83491 0.62795
 C821 C 0.46466 0.84447 0.60616
 C822 C 0.44266 0.83047 0.59191
 C823 C 0.43325 0.80550 0.60101
 H824 H 0.44261 0.79585 0.61810
 O825 O 0.63378 1.09670 0.52620
 O826 O 0.66517 1.12788 0.52622
 C827 C 0.65564 1.10607 0.53536
 C828 C 0.66967 1.09181 0.55733
 C829 C 0.69464 1.10091 0.56672
 H830 H 0.70428 1.11803 0.55739
 O831 O 0.36622 0.90317 0.52621
 O832 O 0.33482 0.87200 0.52625
 C833 C 0.34438 0.89380 0.53540
 C834 C 0.33039 0.90807 0.55740
 C835 C 0.30542 0.89901 0.56684
 H836 H 0.29573 0.88191 0.55752
 O837 O 0.47399 1.09689 0.63380
 O838 O 0.47399 1.12809 0.66518
 C839 C 0.46483 1.10628 0.65565
 C840 C 0.44286 1.09201 0.66968
 C841 C 0.43342 1.10111 0.69465
 H842 H 0.44272 1.11824 0.70429
 O843 O 0.52624 0.90296 0.63355
 O844 O 0.52626 0.87172 0.66488
 C845 C 0.53541 0.89354 0.65538
 C846 C 0.55738 0.90779 0.66944
 C847 C 0.56674 0.89867 0.69442
 H848 H 0.55739 0.88155 0.70403
 O849 O 0.63375 0.97369 0.59696
 O850 O 0.66514 0.97360 0.62815
 C851 C 0.65560 0.96449 0.60633
 C852 C 0.66960 0.94254 0.59200
 C853 C 0.69458 0.93309 0.60105
 H854 H 0.70424 0.94235 0.61819
 O855 O 0.36647 1.02619 0.59707
 O856 O 0.33513 1.02621 0.62830
 C857 C 0.34464 1.03537 0.60649
 C858 C 0.33059 1.05735 0.59224
 C859 C 0.30562 1.06672 0.60136
 H860 H 0.29600 1.05738 0.61848
 O861 O 0.40312 1.13373 0.52637
 O862 O 0.37194 1.16512 0.52644
 C863 C 0.39375 1.15557 0.53556
 C864 C 0.40806 1.16957 0.55753
 C865 C 0.39902 1.19455 0.56698
 H866 H 0.38189 1.20422 0.55770
 O867 O 0.59692 0.86636 0.52601
 O868 O 0.62812 0.83499 0.52600
 C869 C 0.60631 0.84451 0.53516
 C870 C 0.59205 0.83045 0.55711
 C871 C 0.60117 0.80548 0.56649
 H872 H 0.61830 0.79587 0.55717
 O873 O 0.40324 1.02614 0.63378
 O874 O 0.37206 1.02616 0.66517
 C875 C 0.39387 1.03530 0.65563
 C876 C 0.40815 1.05727 0.66967
 C877 C 0.39904 1.06668 0.69463
 H878 H 0.38191 1.05736 0.70426
 O879 O 0.59704 0.97368 0.63371
 O880 O 0.62824 0.97359 0.66508
 C881 C 0.60642 0.96448 0.65554
 C882 C 0.59213 0.94250 0.66954
 C883 C 0.60117 0.93306 0.69452
 H884 H 0.61828 0.94235 0.70420
 O885 O 0.52620 0.86624 0.59679
 O886 O 0.52623 0.83484 0.62795
 C887 C 0.53537 0.84439 0.60615
 C888 C 0.55734 0.83038 0.59185
 C889 C 0.56678 0.80541 0.60092
 H890 H 0.55749 0.79574 0.61804
 O891 O 0.47398 1.13360 0.59704
 O892 O 0.47400 1.16497 0.62824
 C893 C 0.46483 1.15545 0.60644
 C894 C 0.44285 1.16951 0.59220
 C895 C 0.43349 1.19448 0.60132
 H896 H 0.44284 1.20410 0.61844
 O897 O 0.36637 1.09701 0.52636
 O898 O 0.33501 1.12822 0.52644
 C899 C 0.34454 1.10640 0.53556
 C900 C 0.33053 1.09211 0.55754
 C901 C 0.30556 1.10117 0.56698
 H902 H 0.29589 1.11829 0.55769
 O903 O 0.63367 0.90310 0.52603
 O904 O 0.66502 0.87188 0.52601
 C905 C 0.65551 0.89368 0.53518
 C906 C 0.66956 0.90790 0.55718
 C907 C 0.69453 0.89878 0.56654
 H908 H 0.70415 0.88168 0.55717
 O909 O 0.47391 0.90299 0.63358
 O910 O 0.47387 0.87175 0.66491
 C911 C 0.46474 0.89358 0.65541
 C912 C 0.44280 0.90785 0.66948
 C913 C 0.43342 0.89874 0.69445
 H914 H 0.44274 0.88160 0.70406
 O915 O 0.52633 1.09681 0.63372
 O916 O 0.52640 1.12801 0.66510
 C917 C 0.53552 1.10619 0.65556
 C918 C 0.55748 1.09190 0.66959
 C919 C 0.56688 1.10100 0.69455
 H920 H 0.55757 1.11813 0.70418
 O921 O 0.36643 0.97385 0.59703
 O922 O 0.33509 0.97382 0.62827
 C923 C 0.34458 0.96469 0.60644
 C924 C 0.33050 0.94276 0.59216
 C925 C 0.30553 0.93338 0.60128
 H926 H 0.29593 0.94270 0.61843
 O927 O 0.63380 1.02601 0.59701
 O928 O 0.66519 1.02601 0.62820
 C929 C 0.65566 1.03517 0.60639
 C930 C 0.66969 1.05713 0.59211
 C931 C 0.69466 1.06656 0.60118
 H932 H 0.70431 1.05727 0.61832
 O933 O 0.40293 0.86641 0.52616
 O934 O 0.37170 0.83506 0.52621
 C935 C 0.39353 0.84457 0.53533
 C936 C 0.40784 0.83051 0.55727
 C937 C 0.39875 0.80554 0.56670
 H938 H 0.38159 0.79591 0.55742
 O939 O 0.59706 1.13346 0.52625
 O940 O 0.62829 1.16479 0.52627
 C941 C 0.60648 1.15529 0.53542
 C942 C 0.59223 1.16934 0.55739
 C943 C 0.60135 1.19431 0.56677
 H944 H 0.61848 1.20393 0.55743
 Cu945 Cu 0.61229 0.99986 0.61224
 Cu946 Cu 0.64985 0.99980 0.64978
 Cu947 Cu 0.38796 0.99999 0.61228
 Cu948 Cu 0.35044 0.99999 0.64987
 Cu949 Cu 0.50015 1.11210 0.61227
 Cu950 Cu 0.50021 1.14965 0.64983
 Cu951 Cu 0.50005 0.88776 0.61205
 Cu952 Cu 0.50005 0.85016 0.64956
 C953 C 0.57011 1.06980 0.65742
 H954 H 0.56322 1.06291 0.63800
 C955 C 0.58865 1.08838 0.70700
 C956 C 0.43016 0.92997 0.65735
 H957 H 0.43703 0.93688 0.63792
 C958 C 0.41167 0.91136 0.70694
 C959 C 0.57013 1.15720 0.57005
 H960 H 0.56322 1.13777 0.56318
 C961 C 0.58874 1.20679 0.58853
 C962 C 0.42998 0.84268 0.56986
 H963 H 0.43686 0.86210 0.56297
 C964 C 0.41144 0.79309 0.58843
 C965 C 0.65750 1.06973 0.56999
 H966 H 0.63807 1.06283 0.56311
 C967 C 0.70708 1.08832 0.58851
 C968 C 0.34263 0.93013 0.57003
 H969 H 0.36206 0.93700 0.56312
 C970 C 0.29304 0.91164 0.58864
 C971 C 0.43024 1.06991 0.65750
 H972 H 0.43714 1.06301 0.63807
 C973 C 0.41164 1.08846 0.70707
 C974 C 0.57004 0.92989 0.65730
 H975 H 0.56319 0.93680 0.63787
 C976 C 0.58850 0.91128 0.70691
 C977 C 0.65739 0.92997 0.56988
 H978 H 0.63797 0.93688 0.56302
 C979 C 0.70699 0.91134 0.58834
 C980 C 0.34275 1.07001 0.57015
 H981 H 0.36218 1.06314 0.56325
 C982 C 0.29316 1.08850 0.58875
 C983 C 0.43017 1.15735 0.57012
 H984 H 0.43703 1.13792 0.56321
 C985 C 0.41171 1.20695 0.58874
 C986 C 0.56995 0.84260 0.56976
 H987 H 0.56304 0.86202 0.56290
 C988 C 0.58856 0.79301 0.58826
 O989 O 0.59682 0.97380 0.36618
 O990 O 0.62798 0.97377 0.33477
 C991 C 0.60618 0.96463 0.34432
 C992 C 0.59188 0.94265 0.33032
 C993 C 0.60095 0.93320 0.30535
 H994 H 0.61807 0.94249 0.29568
 O995 O 0.40306 1.02634 0.36640
 O996 O 0.37185 1.02642 0.33504
 C997 C 0.39367 1.03554 0.34457
 C998 C 0.40796 1.05751 0.33056
 C999 C 0.39888 1.06695 0.30559
 H1000 H 0.38176 1.05766 0.29592
 O1001 O 0.47389 1.13372 0.40328
 O1002 O 0.47387 1.16512 0.37211
 C1003 C 0.46473 1.15557 0.39391
 C1004 C 0.44276 1.16961 0.40819
 C1005 C 0.43336 1.19457 0.39909
 H1006 H 0.44268 1.20420 0.38196
 O1007 O 0.52601 0.86631 0.40301
 O1008 O 0.52601 0.83494 0.37181
 C1009 C 0.53518 0.84447 0.39361
 C1010 C 0.55718 0.83046 0.40786
 C1011 C 0.56660 0.80549 0.39877
 H1012 H 0.55728 0.79582 0.38167
 O1013 O 0.63365 0.90312 0.47367
 O1014 O 0.66500 0.87190 0.47361
 C1015 C 0.65548 0.89371 0.46448
 C1016 C 0.66950 0.90797 0.44249
 C1017 C 0.69447 0.89886 0.43309
 H1018 H 0.70411 0.88175 0.44243
 O1019 O 0.36633 1.09705 0.47402
 O1020 O 0.33498 1.12827 0.47402
 C1021 C 0.34449 1.10646 0.46485
 C1022 C 0.33047 1.09220 0.44286
 C1023 C 0.30550 1.10129 0.43344
 H1024 H 0.29585 1.11841 0.44275
 O1025 O 0.52620 1.09700 0.36645
 O1026 O 0.52622 1.12824 0.33513
 C1027 C 0.53535 1.10641 0.34461
 C1028 C 0.55728 1.09213 0.33052
 C1029 C 0.56665 1.10126 0.30555
 H1030 H 0.55734 1.11842 0.29596
 O1031 O 0.47368 0.90309 0.36632
 O1032 O 0.47359 0.87190 0.33494
 C1033 C 0.46448 0.89372 0.34448
 C1034 C 0.44252 0.90804 0.33047
 C1035 C 0.43307 0.89898 0.30549
 H1036 H 0.44234 0.88185 0.29583
 O1037 O 0.63362 1.02610 0.40290
 O1038 O 0.66496 1.02616 0.37168
 C1039 C 0.65545 1.03528 0.39351
 C1040 C 0.66951 1.05722 0.40781
 C1041 C 0.69448 1.06664 0.39873
 H1042 H 0.70410 1.05737 0.38157
 O1043 O 0.36631 0.97400 0.40314
 O1044 O 0.33494 0.97402 0.37194
 C1045 C 0.34446 0.96485 0.39375
 C1046 C 0.33041 0.94288 0.40800
 C1047 C 0.30545 0.93349 0.39887
 H1048 H 0.29583 0.94281 0.38173
 O1049 O 0.59704 1.13352 0.47391
 O1050 O 0.62827 1.16485 0.47388
 C1051 C 0.60644 1.15536 0.46475
 C1052 C 0.59217 1.16944 0.44282
 C1053 C 0.60129 1.19441 0.43345
 H1054 H 0.61844 1.20401 0.44277
 O1055 O 0.40291 0.86645 0.47383
 O1056 O 0.37169 0.83510 0.47381
 C1057 C 0.39350 0.84461 0.46466
 C1058 C 0.40776 0.83057 0.44269
 C1059 C 0.39866 0.80559 0.43332
 H1060 H 0.38154 0.79597 0.44265
 O1061 O 0.40306 0.97399 0.36641
 O1062 O 0.37184 0.97401 0.33505
 C1063 C 0.39365 0.96484 0.34456
 C1064 C 0.40787 0.94285 0.33052
 C1065 C 0.39875 0.93348 0.30554
 H1066 H 0.38164 0.94284 0.29592
 O1067 O 0.59687 1.02615 0.36618
 O1068 O 0.62803 1.02620 0.33478
 C1069 C 0.60624 1.03535 0.34434
 C1070 C 0.59197 1.05736 0.33037
 C1071 C 0.60102 1.06682 0.30540
 H1072 H 0.61812 1.05750 0.29570
 O1073 O 0.47366 0.86634 0.40305
 O1074 O 0.47359 0.83497 0.37185
 C1075 C 0.46446 0.84451 0.39366
 C1076 C 0.44248 0.83050 0.40795
 C1077 C 0.43305 0.80552 0.39889
 H1078 H 0.44236 0.79585 0.38178
 O1079 O 0.52624 1.13372 0.40321
 O1080 O 0.52628 1.16513 0.37205
 C1081 C 0.53542 1.15557 0.39384
 C1082 C 0.55742 1.16955 0.40812
 C1083 C 0.56686 1.19453 0.39906
 H1084 H 0.55755 1.20421 0.38196
 O1085 O 0.36619 0.90320 0.47386
 O1086 O 0.33480 0.87203 0.47382
 C1087 C 0.34434 0.89383 0.46468
 C1088 C 0.33034 0.90812 0.44271
 C1089 C 0.30537 0.89905 0.43325
 H1090 H 0.29571 0.88192 0.44253
 O1091 O 0.63371 1.09671 0.47384
 O1092 O 0.66510 1.12789 0.47381
 C1093 C 0.65555 1.10610 0.46465
 C1094 C 0.66955 1.09185 0.44264
 C1095 C 0.69451 1.10095 0.43324
 H1096 H 0.70417 1.11805 0.44259
 O1097 O 0.52601 0.90307 0.36630
 O1098 O 0.52600 0.87187 0.33493
 C1099 C 0.53516 0.89368 0.34445
 C1100 C 0.55713 0.90794 0.33040
 C1101 C 0.56651 0.89882 0.30543
 H1102 H 0.55718 0.88169 0.29581
 O1103 O 0.47386 1.09704 0.36648
 O1104 O 0.47383 1.12828 0.33515
 C1105 C 0.46468 1.10646 0.34465
 C1106 C 0.44271 1.09222 0.33061
 C1107 C 0.43332 1.10134 0.30564
 H1108 H 0.44265 1.11846 0.29602
 O1109 O 0.36638 1.02634 0.40320
 O1110 O 0.33501 1.02641 0.37201
 C1111 C 0.34454 1.03553 0.39382
 C1112 C 0.33051 1.05749 0.40811
 C1113 C 0.30554 1.06690 0.39902
 H1114 H 0.29592 1.05759 0.38188
 O1115 O 0.63363 0.97378 0.40284
 O1116 O 0.66497 0.97375 0.37161
 C1117 C 0.65546 0.96461 0.39343
 C1118 C 0.66950 0.94264 0.40771
 C1119 C 0.69447 0.93321 0.39862
 H1120 H 0.70411 0.94250 0.38148
 O1121 O 0.59687 0.86641 0.47368
 O1122 O 0.62806 0.83503 0.47361
 C1123 C 0.60625 0.84457 0.46449
 C1124 C 0.59195 0.83052 0.44255
 C1125 C 0.60105 0.80556 0.43315
 H1126 H 0.61819 0.79594 0.44245
 O1127 O 0.40310 1.13376 0.47403
 O1128 O 0.37192 1.16515 0.47403
 C1129 C 0.39372 1.15561 0.46487
 C1130 C 0.40801 1.16963 0.44290
 C1131 C 0.39892 1.19460 0.43347
 H1132 H 0.38179 1.20425 0.44276
 Cu1133 Cu 0.61211 0.99996 0.38765
 Cu1134 Cu 0.64962 0.99997 0.35006
 Cu1135 Cu 0.38783 1.00016 0.38791
 Cu1136 Cu 0.35026 1.00022 0.35037
 Cu1137 Cu 0.61227 1.11197 0.50005
 Cu1138 Cu 0.64986 1.14949 0.50004
 Cu1139 Cu 0.61216 0.88788 0.49985
 Cu1140 Cu 0.64969 0.85031 0.49980
 Cu1141 Cu 0.38785 1.11226 0.50019
 Cu1142 Cu 0.35032 1.14983 0.50024
 Cu1143 Cu 0.38769 0.88793 0.50002
 Cu1144 Cu 0.35010 0.85041 0.50002
 Cu1145 Cu 0.50005 1.11224 0.38798
 Cu1146 Cu 0.50005 1.14984 0.35047
 Cu1147 Cu 0.49984 0.88782 0.38780
 Cu1148 Cu 0.49979 0.85028 0.35024
 C1149 C 0.56979 0.93004 0.34254
 H1150 H 0.56292 0.93695 0.36197
 C1151 C 0.58828 0.91142 0.29296
 C1152 C 0.43006 1.07012 0.34276
 H1153 H 0.43693 1.06321 0.36219
 C1154 C 0.41154 1.08873 0.29318
 C1155 C 0.43011 1.15743 0.43029
 H1156 H 0.43699 1.13801 0.43718
 C1157 C 0.41158 1.20702 0.41169
 C1158 C 0.56982 0.84268 0.42994
 H1159 H 0.56293 0.86210 0.43682
 C1160 C 0.58841 0.79309 0.41140
 C1161 C 0.65732 0.93004 0.42983
 H1162 H 0.63789 0.93694 0.43672
 C1163 C 0.70690 0.91146 0.41129
 C1164 C 0.34267 1.07011 0.43023
 H1165 H 0.36210 1.06323 0.43712
 C1166 C 0.29309 1.08866 0.41165
 C1167 C 0.56991 1.07000 0.34263
 H1168 H 0.56305 1.06308 0.36206
 C1169 C 0.58839 1.08864 0.29304
 C1170 C 0.42995 0.93015 0.34268
 H1171 H 0.43686 0.93701 0.36211
 C1172 C 0.41132 0.91169 0.29308
 C1173 C 0.65734 1.06980 0.42996
 H1174 H 0.63792 1.06290 0.43684
 C1175 C 0.70693 1.08838 0.41142
 C1176 C 0.34255 0.93023 0.43010
 H1177 H 0.36197 0.93710 0.43702
 C1178 C 0.29298 0.91171 0.41146
 C1179 C 0.57005 1.15731 0.43019
 H1180 H 0.56314 1.13788 0.43705
 C1181 C 0.58866 1.20690 0.41170
 C1182 C 0.42986 0.84272 0.43004
 H1183 H 0.43676 0.86215 0.43690
 C1184 C 0.41127 0.79312 0.41156
 O1185 O 0.59704 0.52598 1.13379
 O1186 O 0.62826 0.52596 1.16514
 C1187 C 0.60645 0.53514 1.15563
 C1188 C 0.59221 0.55713 1.16966
 C1189 C 0.60131 0.56655 1.19462
 H1190 H 0.61842 0.55723 1.20428
 O1191 O 0.40323 0.47382 1.13377
 O1192 O 0.37206 0.47380 1.16517
 C1193 C 0.39384 0.46464 1.15561
 C1194 C 0.40809 0.44263 1.16961
 C1195 C 0.39899 0.43323 1.19458
 H1196 H 0.38189 0.44258 1.20424
 O1197 O 0.52640 0.63359 1.09701
 O1198 O 0.52649 0.66495 1.12822
 C1199 C 0.53560 0.65542 1.10640
 C1200 C 0.55757 0.66943 1.09210
 C1201 C 0.56700 0.69441 1.10115
 H1202 H 0.55771 0.70408 1.11828
 O1203 O 0.47375 0.36623 1.09687
 O1204 O 0.47372 0.33482 1.12802
 C1205 C 0.46456 0.34439 1.10623
 C1206 C 0.44255 0.33040 1.09196
 C1207 C 0.43311 0.30543 1.10102
 H1208 H 0.44242 0.29575 1.11812
 O1209 O 0.63372 0.59667 1.02614
 O1210 O 0.66512 0.62785 1.02617
 C1211 C 0.65557 0.60605 1.03532
 C1212 C 0.66960 0.59178 1.05730
 C1213 C 0.69456 0.60088 1.06670
 H1214 H 0.70420 0.61800 1.05736
 O1215 O 0.36622 0.40319 1.02623
 O1216 O 0.33482 0.37203 1.02627
 C1217 C 0.34438 0.39382 1.03543
 C1218 C 0.33041 0.40809 1.05744
 C1219 C 0.30544 0.39903 1.06688
 H1220 H 0.29575 0.38193 1.05757
 O1221 O 0.47406 0.59688 1.13376
 O1222 O 0.47408 0.62807 1.16514
 C1223 C 0.46491 0.60627 1.15561
 C1224 C 0.44294 0.59201 1.16966
 C1225 C 0.43356 0.60112 1.19463
 H1226 H 0.44289 0.61825 1.20425
 O1227 O 0.52616 0.40290 1.13359
 O1228 O 0.52618 0.37166 1.16492
 C1229 C 0.53534 0.39348 1.15541
 C1230 C 0.55732 0.40772 1.16946
 C1231 C 0.56670 0.39860 1.19443
 H1232 H 0.55736 0.38148 1.20405
 O1233 O 0.63369 0.47365 1.09697
 O1234 O 0.66509 0.47356 1.12814
 C1235 C 0.65554 0.46445 1.10632
 C1236 C 0.66954 0.44250 1.09199
 C1237 C 0.69451 0.43304 1.10103
 H1238 H 0.70418 0.44230 1.11816
 O1239 O 0.36650 0.52622 1.09711
 O1240 O 0.33516 0.52625 1.12834
 C1241 C 0.34467 0.53540 1.10653
 C1242 C 0.33063 0.55738 1.09228
 C1243 C 0.30565 0.56675 1.10139
 H1244 H 0.29602 0.55740 1.11850
 O1245 O 0.40319 0.63378 1.02642
 O1246 O 0.37201 0.66517 1.02652
 C1247 C 0.39383 0.65562 1.03562
 C1248 C 0.40815 0.66963 1.05758
 C1249 C 0.39910 0.69460 1.06703
 H1250 H 0.38197 0.70427 1.05775
 O1251 O 0.59680 0.36637 1.02602
 O1252 O 0.62799 0.33498 1.02597
 C1253 C 0.60619 0.34450 1.03515
 C1254 C 0.59194 0.33044 1.05711
 C1255 C 0.60108 0.30547 1.06649
 H1256 H 0.61821 0.29586 1.05715
 O1257 O 0.40325 0.52617 1.13384
 O1258 O 0.37208 0.52621 1.16523
 C1259 C 0.39389 0.53534 1.15569
 C1260 C 0.40819 0.55731 1.16971
 C1261 C 0.39912 0.56674 1.19468
 H1262 H 0.38199 0.55745 1.20434
 O1263 O 0.59697 0.47363 1.13371
 O1264 O 0.62819 0.47353 1.16506
 C1265 C 0.60636 0.46442 1.15553
 C1266 C 0.59207 0.44243 1.16953
 C1267 C 0.60114 0.43298 1.19450
 H1268 H 0.61826 0.44228 1.20417
 O1269 O 0.52609 0.36619 1.09683
 O1270 O 0.52614 0.33478 1.12798
 C1271 C 0.53527 0.34434 1.10618
 C1272 C 0.55724 0.33034 1.09187
 C1273 C 0.56670 0.30537 1.10093
 H1274 H 0.55742 0.29570 1.11805
 O1275 O 0.47405 0.63365 1.09706
 O1276 O 0.47409 0.66500 1.12828
 C1277 C 0.46491 0.65550 1.10647
 C1278 C 0.44294 0.66956 1.09224
 C1279 C 0.43358 0.69453 1.10137
 H1280 H 0.44293 0.70415 1.11848
 O1281 O 0.36643 0.59706 1.02643
 O1282 O 0.33508 0.62828 1.02653
 C1283 C 0.34461 0.60645 1.03564
 C1284 C 0.33059 0.59216 1.05760
 C1285 C 0.30561 0.60121 1.06703
 H1286 H 0.29595 0.61833 1.05774
 O1287 O 0.63357 0.40308 1.02603
 O1288 O 0.66491 0.37186 1.02598
 C1289 C 0.65541 0.39366 1.03517
 C1290 C 0.66947 0.40787 1.05716
 C1291 C 0.69445 0.39874 1.06652
 H1292 H 0.70406 0.38163 1.05714
 O1293 O 0.47382 0.40291 1.13366
 O1294 O 0.47378 0.37167 1.16499
 C1295 C 0.46466 0.39351 1.15550
 C1296 C 0.44272 0.40781 1.16957
 C1297 C 0.43330 0.39872 1.19454
 H1298 H 0.44257 0.38156 1.20416
 O1299 O 0.52639 0.59683 1.13374
 O1300 O 0.52648 0.62803 1.16511
 C1301 C 0.53558 0.60621 1.15558
 C1302 C 0.55753 0.59191 1.16961
 C1303 C 0.56694 0.60100 1.19458
 H1304 H 0.55765 0.61814 1.20420
 O1305 O 0.36645 0.47388 1.09708
 O1306 O 0.33511 0.47386 1.12831
 C1307 C 0.34461 0.46472 1.10648
 C1308 C 0.33053 0.44278 1.09221
 C1309 C 0.30556 0.43340 1.10133
 H1310 H 0.29596 0.44272 1.11847
 O1311 O 0.63371 0.52598 1.09700
 O1312 O 0.66511 0.52597 1.12817
 C1313 C 0.65557 0.53513 1.10637
 C1314 C 0.66960 0.55709 1.09208
 C1315 C 0.69457 0.56653 1.10116
 H1316 H 0.70421 0.55724 1.11830
 O1317 O 0.40293 0.36643 1.02616
 O1318 O 0.37169 0.33509 1.02618
 C1319 C 0.39352 0.34458 1.03531
 C1320 C 0.40780 0.33051 1.05725
 C1321 C 0.39868 0.30554 1.06663
 H1322 H 0.38153 0.29594 1.05732
 O1323 O 0.59706 0.63349 1.02618
 O1324 O 0.62830 0.66482 1.02620
 C1325 C 0.60648 0.65532 1.03535
 C1326 C 0.59224 0.66937 1.05733
 C1327 C 0.60136 0.69435 1.06669
 H1328 H 0.61847 0.70397 1.05734
 Cu1329 Cu 0.61222 0.49982 1.11225
 Cu1330 Cu 0.64981 0.49975 1.14977
 Cu1331 Cu 0.38798 0.50002 1.11232
 Cu1332 Cu 0.35046 0.50003 1.14991
 Cu1333 Cu 0.50022 0.61211 1.11226
 Cu1334 Cu 0.50029 0.64966 1.14983
 Cu1335 Cu 0.49995 0.38769 1.11211
 Cu1336 Cu 0.49995 0.35008 1.14962
 C1337 C 0.57013 0.56978 1.15745
 H1338 H 0.56324 0.56289 1.13803
 C1339 C 0.58870 0.58835 1.20703
 C1340 C 0.43014 0.42995 1.15741
 H1341 H 0.43703 0.43684 1.13798
 C1342 C 0.41157 0.41141 1.20699
 C1343 C 0.57016 0.65721 1.07000
 H1344 H 0.56326 0.63778 1.06314
 C1345 C 0.58876 0.70681 1.08847
 C1346 C 0.42992 0.34264 1.06989
 H1347 H 0.43683 0.36207 1.06302
 C1348 C 0.41130 0.29305 1.08838
 C1349 C 0.65741 0.56969 1.06996
 H1350 H 0.63799 0.56280 1.06307
 C1351 C 0.70700 0.58829 1.08849
 C1352 C 0.34265 0.43015 1.07007
 H1353 H 0.36208 0.43702 1.06316
 C1354 C 0.29307 0.41166 1.08869
 C1355 C 0.43029 0.56991 1.15750
 H1356 H 0.43716 0.56301 1.13807
 C1357 C 0.41178 0.58852 1.20709
 C1358 C 0.56998 0.42982 1.15731
 H1359 H 0.56311 0.43673 1.13789
 C1360 C 0.58847 0.41120 1.20690
 C1361 C 0.65732 0.42994 1.06986
 H1362 H 0.63789 0.43686 1.06302
 C1363 C 0.70692 0.41130 1.08831
 C1364 C 0.34280 0.57005 1.07021
 H1365 H 0.36224 0.56319 1.06331
 C1366 C 0.29319 0.58853 1.08879
 C1367 C 0.43026 0.65741 1.07016
 H1368 H 0.43711 0.63798 1.06325
 C1369 C 0.41179 0.70700 1.08879
 C1370 C 0.56984 0.34257 1.06977
 H1371 H 0.56292 0.36200 1.06291
 C1372 C 0.58849 0.29299 1.08826
 O1373 O 0.59678 0.47392 0.86611
 O1374 O 0.62795 0.47387 0.83471
 C1375 C 0.60614 0.46474 0.84425
 C1376 C 0.59183 0.44278 0.83024
 C1377 C 0.60090 0.43332 0.80528
 H1378 H 0.61803 0.44259 0.79562
 O1379 O 0.40296 0.52644 0.86650
 O1380 O 0.37173 0.52652 0.83516
 C1381 C 0.39356 0.53563 0.84467
 C1382 C 0.40783 0.55759 0.83063
 C1383 C 0.39874 0.56698 0.80566
 H1384 H 0.38161 0.55766 0.79603
 O1385 O 0.47381 0.63383 0.90321
 O1386 O 0.47378 0.66524 0.87205
 C1387 C 0.46465 0.65569 0.89386
 C1388 C 0.44269 0.66972 0.90817
 C1389 C 0.43325 0.69469 0.89910
 H1390 H 0.44253 0.70434 0.88196
 O1391 O 0.52595 0.36647 0.90293
 O1392 O 0.52593 0.33511 0.87172
 C1393 C 0.53510 0.34463 0.89352
 C1394 C 0.55708 0.33059 0.90778
 C1395 C 0.56650 0.30562 0.89868
 H1396 H 0.55719 0.29597 0.88156
 O1397 O 0.63351 0.40315 0.97367
 O1398 O 0.66485 0.37192 0.97358
 C1399 C 0.65533 0.39375 0.96446
 C1400 C 0.66936 0.40801 0.94248
 C1401 C 0.69433 0.39890 0.93308
 H1402 H 0.70396 0.38179 0.94243
 O1403 O 0.36638 0.59710 0.97409
 O1404 O 0.33503 0.62833 0.97413
 C1405 C 0.34453 0.60652 0.96495
 C1406 C 0.33047 0.59228 0.94298
 C1407 C 0.30550 0.60141 0.93361
 H1408 H 0.29588 0.61853 0.94296
 O1409 O 0.52609 0.59708 0.86638
 O1410 O 0.52612 0.62832 0.83506
 C1411 C 0.53526 0.60649 0.84454
 C1412 C 0.55720 0.59222 0.83047
 C1413 C 0.56659 0.60135 0.80550
 H1414 H 0.55727 0.61850 0.79591
 O1415 O 0.47360 0.40327 0.86627
 O1416 O 0.47350 0.37208 0.83489
 C1417 C 0.46439 0.39390 0.84444
 C1418 C 0.44241 0.40820 0.83045
 C1419 C 0.43295 0.39915 0.80548
 H1420 H 0.44223 0.38202 0.79580
 O1421 O 0.63361 0.52618 0.90284
 O1422 O 0.66496 0.52622 0.87162
 C1423 C 0.65546 0.53534 0.89345
 C1424 C 0.66952 0.55727 0.90776
 C1425 C 0.69449 0.56670 0.89867
 H1426 H 0.70412 0.55743 0.88151
 O1427 O 0.36621 0.47409 0.90322
 O1428 O 0.33481 0.47412 0.87205
 C1429 C 0.34435 0.46495 0.89384
 C1430 C 0.33031 0.44298 0.90809
 C1431 C 0.30534 0.43359 0.89898
 H1432 H 0.29571 0.44293 0.88186
 O1433 O 0.59700 0.63350 0.97384
 O1434 O 0.62824 0.66483 0.97382
 C1435 C 0.60641 0.65534 0.96469
 C1436 C 0.59213 0.66943 0.94275
 C1437 C 0.60126 0.69441 0.93339
 H1438 H 0.61841 0.70400 0.94271
 O1439 O 0.40287 0.36648 0.97382
 O1440 O 0.37164 0.33514 0.97377
 C1441 C 0.39345 0.34465 0.96462
 C1442 C 0.40771 0.33064 0.94263
 C1443 C 0.39863 0.30566 0.93321
 H1444 H 0.38152 0.29600 0.94252
 O1445 O 0.40290 0.47409 0.86644
 O1446 O 0.37167 0.47412 0.83511
 C1447 C 0.39348 0.46494 0.84460
 C1448 C 0.40771 0.44297 0.83054
 C1449 C 0.39858 0.43359 0.80557
 H1450 H 0.38145 0.44294 0.79596
 O1451 O 0.59681 0.52626 0.86617
 O1452 O 0.62798 0.52630 0.83477
 C1453 C 0.60619 0.53546 0.84433
 C1454 C 0.59191 0.55747 0.83036
 C1455 C 0.60098 0.56692 0.80539
 H1456 H 0.61808 0.55761 0.79571
 O1457 O 0.47360 0.36654 0.90301
 O1458 O 0.47352 0.33518 0.87180
 C1459 C 0.46441 0.34471 0.89362
 C1460 C 0.44244 0.33067 0.90790
 C1461 C 0.43305 0.30570 0.89881
 H1462 H 0.44237 0.29607 0.88168
 O1463 O 0.52616 0.63377 0.90316
 O1464 O 0.52620 0.66519 0.87200
 C1465 C 0.53535 0.65562 0.89379
 C1466 C 0.55737 0.66958 0.90806
 C1467 C 0.56681 0.69456 0.89902
 H1468 H 0.55750 0.70426 0.88193
 O1469 O 0.36616 0.40324 0.97389
 O1470 O 0.33476 0.37208 0.97385
 C1471 C 0.34430 0.39389 0.96472
 C1472 C 0.33027 0.40820 0.94277
 C1473 C 0.30530 0.39913 0.93333
 H1474 H 0.29565 0.38199 0.94261
 O1475 O 0.63373 0.59674 0.97378
 O1476 O 0.66512 0.62792 0.97377
 C1477 C 0.65557 0.60613 0.96460
 C1478 C 0.66957 0.59189 0.94259
 C1479 C 0.69454 0.60099 0.93319
 H1480 H 0.70420 0.61809 0.94255
 O1481 O 0.52595 0.40324 0.86622
 O1482 O 0.52591 0.37205 0.83485
 C1483 C 0.53508 0.39385 0.84437
 C1484 C 0.55706 0.40809 0.83031
 C1485 C 0.56644 0.39896 0.80535
 H1486 H 0.55710 0.38183 0.79574
 O1487 O 0.47375 0.59715 0.86642
 O1488 O 0.47371 0.62838 0.83508
 C1489 C 0.46456 0.60657 0.84460
 C1490 C 0.44257 0.59231 0.83058
 C1491 C 0.43315 0.60139 0.80561
 H1492 H 0.44246 0.61850 0.79594
 O1493 O 0.36624 0.52644 0.90325
 O1494 O 0.33484 0.52653 0.87208
 C1495 C 0.34439 0.53564 0.89389
 C1496 C 0.33039 0.55761 0.90820
 C1497 C 0.30542 0.56706 0.89915
 H1498 H 0.29575 0.55778 0.88203
 O1499 O 0.63353 0.47386 0.90283
 O1500 O 0.66488 0.47381 0.87161
 C1501 C 0.65536 0.46467 0.89343
 C1502 C 0.66938 0.44269 0.90770
 C1503 C 0.69435 0.43326 0.89863
 H1504 H 0.70400 0.44255 0.88149
 O1505 O 0.59674 0.36644 0.97367
 O1506 O 0.62792 0.33506 0.97358
 C1507 C 0.60611 0.34461 0.96447
 C1508 C 0.59182 0.33059 0.94250
 C1509 C 0.60090 0.30563 0.93309
 H1510 H 0.61803 0.29599 0.94240
 O1511 O 0.40315 0.63379 0.97408
 O1512 O 0.37198 0.66519 0.97411
 C1513 C 0.39377 0.65565 0.96493
 C1514 C 0.40802 0.66969 0.94295
 C1515 C 0.39890 0.69465 0.93357
 H1516 H 0.38179 0.70428 0.94291
 Cu1517 Cu 0.61206 0.50006 0.88761
 Cu1518 Cu 0.64958 0.50005 0.85002
 Cu1519 Cu 0.38770 0.50026 0.88798
 Cu1520 Cu 0.35011 0.50033 0.85046
 Cu1521 Cu 0.61225 0.61197 0.99998
 Cu1522 Cu 0.64985 0.64949 0.99999
 Cu1523 Cu 0.61203 0.38789 0.99986
 Cu1524 Cu 0.64956 0.35031 0.99977
 Cu1525 Cu 0.38791 0.61231 1.00025
 Cu1526 Cu 0.35038 0.64989 1.00033
 Cu1527 Cu 0.38767 0.38796 1.00002
 Cu1528 Cu 0.35008 0.35044 1.00002
 Cu1529 Cu 0.49995 0.61233 0.88791
 Cu1530 Cu 0.49995 0.64993 0.85041
 Cu1531 Cu 0.49978 0.38801 0.88774
 Cu1532 Cu 0.49971 0.35046 0.85017
 C1533 C 0.56972 0.43019 0.84246
 H1534 H 0.56285 0.43711 0.86188
 C1535 C 0.58823 0.41154 0.79289
 C1536 C 0.42994 0.57022 0.84279
 H1537 H 0.43683 0.56335 0.86222
 C1538 C 0.41136 0.58874 0.79319
 C1539 C 0.43010 0.65752 0.93028
 H1540 H 0.43700 0.63809 0.93715
 C1541 C 0.41149 0.70710 0.91178
 C1542 C 0.56972 0.34277 0.92988
 H1543 H 0.56283 0.36220 0.93677
 C1544 C 0.58828 0.29319 0.91132
 C1545 C 0.65718 0.43009 0.92982
 H1546 H 0.63776 0.43699 0.93670
 C1547 C 0.70677 0.41150 0.91130
 C1548 C 0.34262 0.57019 0.93031
 H1549 H 0.36204 0.56328 0.93716
 C1550 C 0.29303 0.58883 0.91183
 C1551 C 0.56984 0.57009 0.84260
 H1552 H 0.56297 0.56318 0.86202
 C1553 C 0.58834 0.58873 0.79302
 C1554 C 0.42981 0.43030 0.84268
 H1555 H 0.43674 0.43716 0.86210
 C1556 C 0.41117 0.41182 0.79309
 C1557 C 0.65737 0.56984 0.92991
 H1558 H 0.63794 0.56295 0.93679
 C1559 C 0.70695 0.58843 0.91136
 C1560 C 0.34247 0.43031 0.93018
 H1561 H 0.36190 0.43718 0.93708
 C1562 C 0.29289 0.41180 0.91157
 C1563 C 0.57000 0.65732 0.93012
 H1564 H 0.56309 0.63789 0.93697
 C1565 C 0.58863 0.70692 0.91166
 C1566 C 0.42981 0.34284 0.93000
 H1567 H 0.43669 0.36227 0.93689
 C1568 C 0.41128 0.29325 0.91143
 C1569 C 1.11794 1.11845 1.27723
 C1570 C 1.12637 1.10148 1.29796
 C1571 C 1.13718 1.11231 1.32148
 C1572 C 1.13968 1.14024 1.32451
 C1573 C 1.13101 1.15713 1.30364
 C1574 C 1.12021 1.14629 1.28016
 C1575 C 1.10739 1.10740 1.25274
 C1576 C 1.09874 1.09848 1.23199
 H1577 H 1.12471 1.07991 1.29589
 H1578 H 1.14361 1.09894 1.33735
 H1579 H 1.13299 1.17869 1.30540
 H1580 H 1.11383 1.15960 1.26421
 C1581 C 1.11882 0.61760 0.77728
 C1582 C 1.14663 0.61995 0.78031
 C1583 C 1.15736 0.63086 0.80380
 C1584 C 1.14037 0.63954 0.82458
 C1585 C 1.11246 0.63694 0.82145
 C1586 C 1.10175 0.62604 0.79793
 C1587 C 1.10787 0.60700 0.75277
 C1588 C 1.09900 0.59834 0.73200
 H1589 H 1.16002 0.61357 0.76441
 H1590 H 1.17890 0.63291 0.80562
 H1591 H 1.09901 0.64338 0.83725
 H1592 H 1.08019 0.62432 0.79579
 C1593 C 0.61792 1.11858 0.77729
 C1594 C 0.62633 1.10162 0.79804
 C1595 C 0.63712 1.11246 0.82156
 C1596 C 0.63963 1.14039 0.82458
 C1597 C 0.63098 1.15727 0.80369
 C1598 C 0.62019 1.14642 0.78021
 C1599 C 0.60739 1.10752 0.75280
 C1600 C 0.59876 1.09859 0.73205
 H1601 H 0.62467 1.08005 0.79598
 H1602 H 0.64354 1.09910 0.83744
 H1603 H 0.63296 1.17883 0.80544
 H1604 H 0.61382 1.15972 0.76424
 C1605 C 0.61799 0.61853 1.27732
 C1606 C 0.62642 0.60156 1.29805
 C1607 C 0.63722 0.61238 1.32157
 C1608 C 0.63973 0.64032 1.32461
 C1609 C 0.63107 0.65720 1.30373
 C1610 C 0.62027 0.64636 1.28025
 C1611 C 0.60746 0.60748 1.25283
 C1612 C 0.59881 0.59856 1.23208
 H1613 H 0.62476 0.57998 1.29599
 H1614 H 0.64364 0.59901 1.33744
 H1615 H 0.63305 0.67876 1.30549
 H1616 H 0.61389 0.65967 1.26429
 C1617 C 0.88141 0.88210 1.27711
 C1618 C 0.89841 0.87373 1.29784
 C1619 C 0.88763 0.86292 1.32137
 C1620 C 0.85970 0.86035 1.32442
 C1621 C 0.84278 0.86897 1.30356
 C1622 C 0.85358 0.87978 1.28006
 C1623 C 0.89243 0.89264 1.25260
 C1624 C 0.90132 0.90127 1.23184
 H1625 H 0.91998 0.87543 1.29575
 H1626 H 0.90102 0.85654 1.33724
 H1627 H 0.82123 0.86694 1.30533
 H1628 H 0.84025 0.88611 1.26411
 C1629 C 0.88137 0.38220 0.77721
 C1630 C 0.89836 0.37382 0.79794
 C1631 C 0.88756 0.36301 0.82147
 C1632 C 0.85963 0.36044 0.82450
 C1633 C 0.84272 0.36906 0.80363
 C1634 C 0.85354 0.37987 0.78014
 C1635 C 0.89240 0.39274 0.75271
 C1636 C 0.90132 0.40138 0.73195
 H1637 H 0.91993 0.37553 0.79588
 H1638 H 0.90094 0.35662 0.83734
 H1639 H 0.82117 0.36703 0.80538
 H1640 H 0.84022 0.38621 0.76418
 C1641 C 0.38235 0.88131 0.77727
 C1642 C 0.37389 0.89835 0.79792
 C1643 C 0.36302 0.88761 0.82145
 C1644 C 0.36047 0.85969 0.82456
 C1645 C 0.36918 0.84273 0.80377
 C1646 C 0.38005 0.85349 0.78028
 C1647 C 0.39293 0.89228 0.75275
 C1648 C 0.40158 0.90116 0.73199
 H1649 H 0.37557 0.91992 0.79579
 H1650 H 0.35656 0.90104 0.83726
 H1651 H 0.36717 0.82118 0.80559
 H1652 H 0.38645 0.84012 0.76438
 C1653 C 0.38143 0.38211 1.27729
 C1654 C 0.39842 0.37373 1.29802
 C1655 C 0.38762 0.36291 1.32155
 C1656 C 0.35969 0.36033 1.32458
 C1657 C 0.34278 0.36895 1.30370
 C1658 C 0.35360 0.37977 1.28022
 C1659 C 0.39246 0.39265 1.25279
 C1660 C 0.40136 0.40130 1.23204
 H1661 H 0.41999 0.37544 1.29596
 H1662 H 0.40100 0.35652 1.33742
 H1663 H 0.32123 0.36691 1.30546
 H1664 H 0.34027 0.38610 1.26426
 C1665 C 0.88136 1.11790 0.72291
 C1666 C 0.89839 1.12631 0.70221
 C1667 C 0.88763 1.13709 0.67866
 C1668 C 0.85970 1.13961 0.67556
 C1669 C 0.84276 1.13097 0.69639
 C1670 C 0.85354 1.12018 0.71991
 C1671 C 0.89236 1.10739 0.74744
 C1672 C 0.90124 1.09877 0.76822
 H1673 H 0.91996 1.12464 0.70434
 H1674 H 0.90104 1.14350 0.66282
 H1675 H 0.82121 1.13296 0.69458
 H1676 H 0.84019 1.11382 0.73584
 C1677 C 0.88131 0.61783 0.22286
 C1678 C 0.89833 0.62624 0.20217
 C1679 C 0.88756 0.63705 0.17862
 C1680 C 0.85963 0.63958 0.17553
 C1681 C 0.84269 0.63093 0.19636
 C1682 C 0.85348 0.62012 0.21987
 C1683 C 0.89230 0.60730 0.24738
 C1684 C 0.90119 0.59866 0.26815
 H1685 H 0.91989 0.62457 0.20428
 H1686 H 0.90096 0.64346 0.16278
 H1687 H 0.82114 0.63292 0.19456
 H1688 H 0.84013 0.61376 0.23580
 C1689 C 0.38224 1.11877 0.22283
 C1690 C 0.37384 1.10172 0.20216
 C1691 C 0.36299 1.11245 0.17862
 C1692 C 0.36039 1.14037 0.17551
 C1693 C 0.36903 1.15734 0.19633
 C1694 C 0.37988 1.14659 0.21983
 C1695 C 0.39280 1.10781 0.24736
 C1696 C 0.40145 1.09893 0.26812
 H1697 H 0.37556 1.08016 0.20428
 H1698 H 0.35659 1.09902 0.16279
 H1699 H 0.36698 1.17888 0.19451
 H1700 H 0.38623 1.15996 0.23575
 C1701 C 0.38131 0.61797 0.72282
 C1702 C 0.39834 0.62639 0.70214
 C1703 C 0.38758 0.63719 0.67858
 C1704 C 0.35966 0.63969 0.67547
 C1705 C 0.34271 0.63103 0.69630
 C1706 C 0.35349 0.62024 0.71981
 C1707 C 0.39230 0.60745 0.74735
 C1708 C 0.40118 0.59882 0.76813
 H1709 H 0.41991 0.62474 0.70427
 H1710 H 0.40099 0.64361 0.66275
 H1711 H 0.32116 0.63301 0.69448
 H1712 H 0.34013 0.61387 0.73574
 C1713 C 1.11761 0.88139 0.72262
 C1714 C 1.11996 0.85357 0.71969
 C1715 C 1.13085 0.84275 0.69623
 C1716 C 1.13952 0.85966 0.67538
 C1717 C 1.13692 0.88759 0.67841
 C1718 C 1.12604 0.89839 0.70190
 C1719 C 1.10703 0.89243 0.74710
 C1720 C 1.09837 0.90135 0.76784
 H1721 H 1.11359 0.84024 0.73563
 H1722 H 1.13290 0.82120 0.69448
 H1723 H 1.14335 0.90098 0.66255
 H1724 H 1.12432 0.91996 0.70397
 C1725 C 1.11757 0.38130 0.22261
 C1726 C 1.12599 0.39832 0.20193
 C1727 C 1.13690 0.38757 0.17842
 C1728 C 1.13952 0.35964 0.17537
 C1729 C 1.13085 0.34270 0.19619
 C1730 C 1.11994 0.35348 0.21966
 C1731 C 1.10697 0.39229 0.24711
 C1732 C 1.09830 0.40118 0.26786
 H1733 H 1.12426 0.41989 0.20402
 H1734 H 1.14332 0.40097 0.16259
 H1735 H 1.13292 0.32115 0.19441
 H1736 H 1.11358 0.34012 0.23558
 C1737 C 0.61764 0.88131 0.22267
 C1738 C 0.61999 0.85349 0.21970
 C1739 C 0.63088 0.84271 0.19623
 C1740 C 0.63954 0.85965 0.17540
 C1741 C 0.63695 0.88757 0.17846
 C1742 C 0.62606 0.89833 0.20197
 C1743 C 0.60705 0.89231 0.24716
 C1744 C 0.59838 0.90120 0.26791
 H1745 H 0.61362 0.84014 0.23563
 H1746 H 0.63293 0.82116 0.19445
 H1747 H 0.64337 0.90098 0.16263
 H1748 H 0.62434 0.91990 0.20407
 C1749 C 0.61761 0.38137 0.72263
 C1750 C 0.61997 0.35354 0.71970
 C1751 C 0.63087 0.34274 0.69624
 C1752 C 0.63955 0.35966 0.67540
 C1753 C 0.63695 0.38758 0.67844
 C1754 C 0.62605 0.39837 0.70193
 C1755 C 0.60701 0.39239 0.74711
 C1756 C 0.59834 0.40130 0.76785
 H1757 H 0.61359 0.34021 0.73564
 H1758 H 0.63292 0.32119 0.69448
 H1759 H 0.64338 0.40097 0.66259
 H1760 H 0.62433 0.41994 0.70400
 C1761 C 1.27730 1.11761 1.11871
 C1762 C 1.28026 1.11996 1.14654
 C1763 C 1.30372 1.13086 1.15732
 C1764 C 1.32455 1.13954 1.14038
 C1765 C 1.32149 1.13694 1.11246
 C1766 C 1.29799 1.12604 1.10169
 C1767 C 1.25281 1.10700 1.10771
 C1768 C 1.23206 1.09832 1.09881
 H1769 H 1.26433 1.11359 1.15988
 H1770 H 1.30550 1.13291 1.17887
 H1771 H 1.33733 1.14337 1.09906
 H1772 H 1.29590 1.12432 1.08013
 C1773 C 1.27735 0.61851 0.61773
 C1774 C 1.28027 0.64634 0.62000
 C1775 C 1.30373 0.65719 0.63086
 C1776 C 1.32458 0.64031 0.63958
 C1777 C 1.32156 0.61237 0.63706
 C1778 C 1.29806 0.60154 0.62620
 C1779 C 1.25287 0.60745 0.60716
 C1780 C 1.23214 0.59852 0.59849
 H1781 H 1.26433 0.65965 0.61359
 H1782 H 1.30548 0.67875 0.63284
 H1783 H 1.33741 0.59900 0.64352
 H1784 H 1.29600 0.57997 0.62455
 C1785 C 0.77736 1.11849 0.61784
 C1786 C 0.78030 1.14632 0.62012
 C1787 C 0.80377 1.15715 0.63096
 C1788 C 0.82461 1.14025 0.63967
 C1789 C 0.82157 1.11231 0.63716
 C1790 C 0.79806 1.10150 0.62631
 C1791 C 0.75287 1.10745 0.60728
 C1792 C 0.73212 1.09854 0.59862
 H1793 H 0.76436 1.15964 0.61371
 H1794 H 0.80554 1.17870 0.63295
 H1795 H 0.83741 1.09894 0.64362
 H1796 H 0.79598 1.07993 0.62465
 C1797 C 0.77727 0.61846 1.11783
 C1798 C 0.78021 0.64629 1.12011
 C1799 C 0.80368 0.65711 1.13095
 C1800 C 0.82453 0.64021 1.13966
 C1801 C 0.82148 0.61228 1.13714
 C1802 C 0.79797 0.60147 1.12630
 C1803 C 0.75278 0.60742 1.10727
 C1804 C 0.73204 0.59850 1.09861
 H1805 H 0.76427 0.65961 1.11371
 H1806 H 0.80545 0.67867 1.13294
 H1807 H 0.83733 0.59890 1.14359
 H1808 H 0.79589 0.57990 1.12464
 C1809 C 1.27723 0.88230 0.88120
 C1810 C 1.29790 0.87392 0.89826
 C1811 C 1.32145 0.86307 0.88754
 C1812 C 1.32456 0.86046 0.85963
 C1813 C 1.30375 0.86909 0.84265
 C1814 C 1.28024 0.87994 0.85339
 C1815 C 1.25269 0.89285 0.89216
 C1816 C 1.23192 0.90149 0.90102
 H1817 H 1.29577 0.87564 0.91983
 H1818 H 1.33727 0.85668 0.90098
 H1819 H 1.30557 0.86704 0.82110
 H1820 H 1.26432 0.88628 0.84001
 C1821 C 1.27716 0.38130 0.38208
 C1822 C 1.29786 0.39832 0.37367
 C1823 C 1.32141 0.38755 0.36288
 C1824 C 1.32451 0.35962 0.36037
 C1825 C 1.30368 0.34268 0.36902
 C1826 C 1.28016 0.35347 0.37981
 C1827 C 1.25264 0.39229 0.39260
 C1828 C 1.23186 0.40118 0.40121
 H1829 H 1.29574 0.41989 0.37533
 H1830 H 1.33725 0.40095 0.35647
 H1831 H 1.30549 0.32113 0.36704
 H1832 H 1.26423 0.34012 0.38618
 C1833 C 0.77723 0.88136 0.38201
 C1834 C 0.78022 0.85353 0.37975
 C1835 C 0.80372 0.84273 0.36893
 C1836 C 0.82455 0.85966 0.36025
 C1837 C 0.82146 0.88759 0.36275
 C1838 C 0.79792 0.89837 0.37357
 C1839 C 0.75272 0.89236 0.39256
 C1840 C 0.73195 0.90125 0.40120
 H1841 H 0.76429 0.84018 0.38614
 H1842 H 0.80552 0.82118 0.36696
 H1843 H 0.83729 0.90099 0.35631
 H1844 H 0.79580 0.91994 0.37522
 C1845 C 0.77711 0.38141 0.88204
 C1846 C 0.78011 0.35358 0.87977
 C1847 C 0.80362 0.34280 0.86896
 C1848 C 0.82445 0.35973 0.86030
 C1849 C 0.82135 0.38766 0.86281
 C1850 C 0.79781 0.39843 0.87361
 C1851 C 0.75259 0.39241 0.89257
 C1852 C 0.73183 0.40130 0.90121
 H1853 H 0.76418 0.34024 0.88614
 H1854 H 0.80543 0.32124 0.86698
 H1855 H 0.83719 0.40107 0.85638
 H1856 H 0.79569 0.42000 0.87527
 C1857 C 0.72271 0.88227 1.11864
 C1858 C 0.70203 0.87382 1.10161
 C1859 C 0.67851 0.86296 1.11238
 C1860 C 0.67542 0.86042 1.14031
 C1861 C 0.69623 0.86912 1.15725
 C1862 C 0.71972 0.87998 1.14646
 C1863 C 0.74722 0.89282 1.10764
 C1864 C 0.76798 0.90146 1.09874
 H1865 H 0.70415 0.87549 1.08005
 H1866 H 0.66268 0.85651 1.09897
 H1867 H 0.69443 0.86712 1.17880
 H1868 H 0.73564 0.88637 1.15981
 C1869 C 0.72275 0.38227 0.61871
 C1870 C 0.71974 0.37998 0.64653
 C1871 C 0.69625 0.36911 0.65730
 C1872 C 0.67546 0.36040 0.64034
 C1873 C 0.67857 0.36293 0.61242
 C1874 C 0.70210 0.37379 0.60167
 C1875 C 0.74726 0.39285 0.60773
 C1876 C 0.76802 0.40150 0.59884
 H1877 H 0.73564 0.38639 0.65989
 H1878 H 0.69443 0.36712 0.67885
 H1879 H 0.66276 0.35646 0.59900
 H1880 H 0.70423 0.37546 0.58010
 C1881 C 0.22272 0.88230 0.61871
 C1882 C 0.20207 0.87383 0.60167
 C1883 C 0.17855 0.86295 0.61241
 C1884 C 0.17544 0.86041 0.64033
 C1885 C 0.19623 0.86912 0.65729
 C1886 C 0.21971 0.88001 0.64653
 C1887 C 0.24723 0.89289 0.60773
 C1888 C 0.26799 0.90155 0.59885
 H1889 H 0.20420 0.87551 0.58010
 H1890 H 0.16274 0.85649 0.59899
 H1891 H 0.19441 0.86712 0.67884
 H1892 H 0.23561 0.88641 0.65990
 C1893 C 0.22273 0.38232 1.11873
 C1894 C 0.21971 0.38001 1.14655
 C1895 C 0.19621 0.36913 1.15729
 C1896 C 0.17543 0.36042 1.14032
 C1897 C 0.17856 0.36296 1.11239
 C1898 C 0.20209 0.37385 1.10167
 C1899 C 0.24725 0.39291 1.10777
 C1900 C 0.26801 0.40157 1.09890
 H1901 H 0.23560 0.38642 1.15992
 H1902 H 0.19438 0.36712 1.17884
 H1903 H 0.16276 0.35651 1.09896
 H1904 H 0.20424 0.37553 1.08011
 C1905 C 0.72272 1.11806 0.88153
 C1906 C 0.70199 1.12649 0.89851
 C1907 C 0.67847 1.13729 0.88768
 C1908 C 0.67543 1.13980 0.85975
 C1909 C 0.69630 1.13113 0.84286
 C1910 C 0.71979 1.12033 0.85370
 C1911 C 0.74721 1.10752 0.89258
 C1912 C 0.76796 1.09887 0.90150
 H1913 H 0.70407 1.12484 0.92008
 H1914 H 0.66260 1.14372 0.90105
 H1915 H 0.69454 1.13310 0.82130
 H1916 H 0.73574 1.11395 0.84039
 C1917 C 0.72283 0.61798 0.38156
 C1918 C 0.70210 0.62640 0.39853
 C1919 C 0.67857 0.63719 0.38771
 C1920 C 0.67553 0.63970 0.35978
 C1921 C 0.69640 0.63104 0.34289
 C1922 C 0.71989 0.62025 0.35372
 C1923 C 0.74733 0.60745 0.39260
 C1924 C 0.76808 0.59881 0.40152
 H1925 H 0.70417 0.62474 0.42011
 H1926 H 0.66270 0.64361 0.40108
 H1927 H 0.69464 0.63302 0.32133
 H1928 H 0.73585 0.61388 0.34041
 C1929 C 0.22279 1.11792 0.38147
 C1930 C 0.20205 1.12634 0.39844
 C1931 C 0.17853 1.13713 0.38762
 C1932 C 0.17549 1.13963 0.35968
 C1933 C 0.19636 1.13097 0.34280
 C1934 C 0.21985 1.12018 0.35364
 C1935 C 0.24729 1.10740 0.39252
 C1936 C 0.26804 1.09876 0.40144
 H1937 H 0.20413 1.12469 0.42002
 H1938 H 0.16266 1.14355 0.40099
 H1939 H 0.19460 1.13295 0.32124
 H1940 H 0.23581 1.11381 0.34033
 C1941 C 0.22270 0.61885 0.88247
 C1942 C 0.21969 0.64667 0.88009
 C1943 C 0.19621 0.65740 0.86917
 C1944 C 0.17542 0.64041 0.86050
 C1945 C 0.17853 0.61250 0.86313
 C1946 C 0.20205 0.60179 0.87404
 C1947 C 0.24721 0.60791 0.89308
 C1948 C 0.26797 0.59904 0.90175
 H1949 H 0.23559 0.66005 0.88646
 H1950 H 0.19439 0.67894 0.86710
 H1951 H 0.16272 0.59905 0.85670
 H1952 H 0.20418 0.58023 0.87578
 C1953 C 1.11874 1.27718 1.11774
 C1954 C 1.10169 1.29787 1.12611
 C1955 C 1.11243 1.32142 1.13693
 C1956 C 1.14035 1.32452 1.13952
 C1957 C 1.15732 1.30370 1.13090
 C1958 C 1.14656 1.28019 1.12008
 C1959 C 1.10777 1.25264 1.10721
 C1960 C 1.09890 1.23186 1.09860
 H1961 H 1.08013 1.29575 1.12439
 H1962 H 1.09900 1.33726 1.14332
 H1963 H 1.17886 1.30551 1.13295
 H1964 H 1.15993 1.26426 1.11375
 C1965 C 1.11884 0.77714 0.61774
 C1966 C 1.10177 0.79780 0.62613
 C1967 C 1.11247 0.82136 0.63698
 C1968 C 1.14039 0.82449 0.63958
 C1969 C 1.15738 0.80368 0.63096
 C1970 C 1.14665 0.78017 0.62011
 C1971 C 1.10790 0.75260 0.60718
 C1972 C 1.09904 0.73183 0.59853
 H1973 H 1.08021 0.79566 0.62440
 H1974 H 1.09903 0.83717 0.64337
 H1975 H 1.17892 0.80552 0.63301
 H1976 H 1.16004 0.76426 0.61377
 C1977 C 0.61878 1.27716 0.61778
 C1978 C 0.64660 1.28016 0.62014
 C1979 C 0.65735 1.30367 0.63097
 C1980 C 0.64038 1.32450 0.63959
 C1981 C 0.61246 1.32139 0.63699
 C1982 C 0.60173 1.29784 0.62616
 C1983 C 0.60782 1.25263 0.60724
 C1984 C 0.59894 1.23185 0.59860
 H1985 H 0.65998 1.26424 0.61380
 H1986 H 0.67890 1.30549 0.63302
 H1987 H 0.59903 1.33723 0.64338
 H1988 H 0.58017 1.29572 0.62444
 C1989 C 0.61878 0.77718 1.11773
 C1990 C 0.60172 0.79786 1.12612
 C1991 C 0.61245 0.82140 1.13697
 C1992 C 0.64036 0.82451 1.13957
 C1993 C 0.65734 0.80370 1.13093
 C1994 C 0.64660 0.78019 1.12008
 C1995 C 0.60783 0.75265 1.10718
 C1996 C 0.59896 0.73188 1.09854
 H1997 H 0.58016 0.79572 1.12441
 H1998 H 0.59901 0.83723 1.14337
 H1999 H 0.67889 0.80552 1.13298
 H2000 H 0.65998 0.76428 1.11374
 C2001 C 0.88217 1.27740 0.88146
 C2002 C 0.87989 1.28033 0.85363
 C2003 C 0.86904 1.30379 0.84279
 C2004 C 0.86033 1.32464 0.85968
 C2005 C 0.86285 1.32161 0.88761
 C2006 C 0.87370 1.29812 0.89844
 C2007 C 0.89275 1.25292 0.89252
 C2008 C 0.90141 1.23219 0.90144
 H2009 H 0.88630 1.26438 0.84032
 H2010 H 0.86705 1.30554 0.82123
 H2011 H 0.85639 1.33747 0.90098
 H2012 H 0.87537 1.29605 0.92001
 C2013 C 0.88227 0.77733 0.38139
 C2014 C 0.87382 0.79805 0.39836
 C2015 C 0.86296 0.82154 0.38754
 C2016 C 0.86042 0.82456 0.35961
 C2017 C 0.86911 0.80371 0.34272
 C2018 C 0.87997 0.78025 0.35356
 C2019 C 0.89285 0.75285 0.39244
 C2020 C 0.90151 0.73211 0.40136
 H2021 H 0.87550 0.79599 0.41993
 H2022 H 0.85652 0.83740 0.40091
 H2023 H 0.86711 0.80546 0.32116
 H2024 H 0.88636 0.76430 0.34024
 C2025 C 0.38223 1.27728 0.38151
 C2026 C 0.37376 1.29799 0.39849
 C2027 C 0.36291 1.32149 0.38768
 C2028 C 0.36039 1.32452 0.35974
 C2029 C 0.36910 1.30368 0.34285
 C2030 C 0.37995 1.28022 0.35368
 C2031 C 0.39280 1.25280 0.39256
 C2032 C 0.40146 1.23205 0.40147
 H2033 H 0.37542 1.29591 0.42006
 H2034 H 0.35645 1.33734 0.40105
 H2035 H 0.36712 1.30544 0.32129
 H2036 H 0.38636 1.26428 0.34036
 C2037 C 0.38137 0.77738 0.88240
 C2038 C 0.39839 0.79808 0.87398
 C2039 C 0.38762 0.82158 0.86308
 C2040 C 0.35970 0.82463 0.86047
 C2041 C 0.34276 0.80380 0.86915
 C2042 C 0.35355 0.78034 0.88004
 C2043 C 0.39237 0.75289 0.89300
 C2044 C 0.40127 0.73214 0.90167
 H2045 H 0.41996 0.79599 0.87570
 H2046 H 0.40103 0.83741 0.85665
 H2047 H 0.32121 0.80558 0.86709
 H2048 H 0.34020 0.76441 0.88642
 C2049 C 1.11759 0.72277 0.88117
 C2050 C 1.12600 0.70212 0.89824
 C2051 C 1.13689 0.67859 0.88754
 C2052 C 1.13951 0.67547 0.85962
 C2053 C 1.13085 0.69626 0.84263
 C2054 C 1.11996 0.71975 0.85335
 C2055 C 1.10700 0.74730 0.89211
 C2056 C 1.09835 0.76807 0.90098
 H2057 H 1.12427 0.70426 0.91980
 H2058 H 1.14331 0.66278 0.90098
 H2059 H 1.13292 0.69443 0.82109
 H2060 H 1.11360 0.73565 0.83997
 C2061 C 1.11852 0.22271 0.38204
 C2062 C 1.10155 0.20197 0.37362
 C2063 C 1.11237 0.17845 0.36282
 C2064 C 1.14031 0.17542 0.36030
 C2065 C 1.15719 0.19630 0.36896
 C2066 C 1.14635 0.21978 0.37976
 C2067 C 1.10747 0.24720 0.39258
 C2068 C 1.09855 0.26795 0.40122
 H2069 H 1.07997 0.20404 0.37529
 H2070 H 1.09900 0.16258 0.35641
 H2071 H 1.17875 0.19454 0.36697
 H2072 H 1.15966 0.23575 0.38612
 C2073 C 0.61858 0.72279 0.38213
 C2074 C 0.60160 0.70206 0.37371
 C2075 C 0.61242 0.67853 0.36292
 C2076 C 0.64036 0.67550 0.36040
 C2077 C 0.65725 0.69637 0.36905
 C2078 C 0.64641 0.71986 0.37985
 C2079 C 0.60753 0.74729 0.39266
 C2080 C 0.59862 0.76804 0.40130
 H2081 H 0.58003 0.70413 0.37538
 H2082 H 0.59905 0.66266 0.35650
 H2083 H 0.67881 0.69461 0.36706
 H2084 H 0.65973 0.73582 0.38621
 C2085 C 0.61845 0.22289 0.88205
 C2086 C 0.64629 0.21996 0.87979
 C2087 C 0.65713 0.19647 0.86901
 C2088 C 0.64025 0.17559 0.86036
 C2089 C 0.61231 0.17862 0.86286
 C2090 C 0.60148 0.20215 0.87364
 C2091 C 0.60740 0.24739 0.89257
 C2092 C 0.59848 0.26814 0.90121
 H2093 H 0.65959 0.23592 0.88616
 H2094 H 0.67869 0.19471 0.86703
 H2095 H 0.59895 0.16274 0.85644
 H2096 H 0.57991 0.20422 0.87529
 C2097 C 0.88213 0.72263 1.11856
 C2098 C 0.87982 0.71971 1.14639
 C2099 C 0.86899 0.69623 1.15723
 C2100 C 0.86035 0.67536 1.14033
 C2101 C 0.86291 0.67838 1.11240
 C2102 C 0.87374 0.70189 1.10159
 C2103 C 0.89268 0.74713 1.10751
 C2104 C 0.90133 0.76787 1.09860
 H2105 H 0.88617 0.73568 1.15971
 H2106 H 0.86697 0.69449 1.17878
 H2107 H 0.85651 0.66251 1.09903
 H2108 H 0.87543 0.70395 1.08001
 C2109 C 0.88221 0.22269 0.61865
 C2110 C 0.87987 0.21976 0.64648
 C2111 C 0.86904 0.19628 0.65729
 C2112 C 0.86042 0.17541 0.64038
 C2113 C 0.86301 0.17844 0.61245
 C2114 C 0.87383 0.20196 0.60166
 C2115 C 0.89275 0.24720 0.60763
 C2116 C 0.90139 0.26795 0.59872
 H2117 H 0.88620 0.23572 0.65981
 H2118 H 0.86700 0.19452 0.67885
 H2119 H 0.85662 0.16257 0.59907
 H2120 H 0.87554 0.20403 0.58009
 C2121 C 0.38214 0.72278 0.61857
 C2122 C 0.37980 0.71985 0.64639
 C2123 C 0.36898 0.69636 0.65721
 C2124 C 0.36037 0.67549 0.64030
 C2125 C 0.36296 0.67852 0.61237
 C2126 C 0.37377 0.70205 0.60157
 C2127 C 0.39269 0.74729 0.60754
 C2128 C 0.40133 0.76804 0.59864
 H2129 H 0.38613 0.73581 0.65972
 H2130 H 0.36694 0.69460 0.67876
 H2131 H 0.35658 0.66265 0.59898
 H2132 H 0.37549 0.70412 0.58000
 C2133 C 0.38124 0.22273 1.11772
 C2134 C 0.35341 0.21972 1.12003
 C2135 C 0.34265 0.19624 1.13091
 C2136 C 0.35961 0.17544 1.13961
 C2137 C 0.38754 0.17855 1.13706
 C2138 C 0.39828 0.20208 1.12618
 C2139 C 0.39221 0.24724 1.10713
 C2140 C 0.40109 0.26800 1.09847
 H2141 H 0.34005 0.23563 1.11363
 H2142 H 0.32110 0.19442 1.13292
 H2143 H 0.40096 0.16274 1.14351
 H2144 H 0.41984 0.20421 1.12450
 C2145 C 1.11764 1.11876 0.72272
 C2146 C 1.12610 1.10171 0.70207
 C2147 C 1.13699 1.11244 0.67855
 C2148 C 1.13955 1.14036 0.67543
 C2149 C 1.13085 1.15733 0.69622
 C2150 C 1.11996 1.14658 0.71971
 C2151 C 1.10705 1.10779 0.74723
 C2152 C 1.09840 1.09892 0.76799
 H2153 H 1.12441 1.08014 0.70420
 H2154 H 1.14344 1.09901 0.66274
 H2155 H 1.13287 1.17888 0.69440
 H2156 H 1.11356 1.15995 0.73561
 C2157 C 1.11765 0.61865 0.22265
 C2158 C 1.11993 0.64648 0.21965
 C2159 C 1.13080 0.65726 0.19618
 C2160 C 1.13952 0.64032 0.17537
 C2161 C 1.13699 0.61239 0.17846
 C2162 C 1.12612 0.60163 0.20198
 C2163 C 1.10708 0.60765 0.24715
 C2164 C 1.09843 0.59875 0.26791
 H2165 H 1.11352 0.65983 0.23557
 H2166 H 1.13280 0.67881 0.19437
 H2167 H 1.14345 0.59899 0.16264
 H2168 H 1.12445 0.58006 0.20409
 C2169 C 0.61768 1.11873 0.22272
 C2170 C 0.61998 1.14656 0.21972
 C2171 C 0.63085 1.15733 0.19623
 C2172 C 0.63955 1.14038 0.17543
 C2173 C 0.63701 1.11245 0.17853
 C2174 C 0.62614 1.10170 0.20205
 C2175 C 0.60711 1.10775 0.24723
 C2176 C 0.59847 1.09885 0.26799
 H2177 H 0.61358 1.15992 0.23563
 H2178 H 0.63285 1.17888 0.19442
 H2179 H 0.64346 1.09904 0.16271
 H2180 H 0.62447 1.08013 0.20417
 C2181 C 0.61770 0.61879 0.72271
 C2182 C 0.62001 0.64661 0.71970
 C2183 C 0.63090 0.65737 0.69621
 C2184 C 0.63961 0.64040 0.67542
 C2185 C 0.63706 0.61248 0.67853
 C2186 C 0.62617 0.60174 0.70205
 C2187 C 0.60710 0.60782 0.74721
 C2188 C 0.59844 0.59894 0.76797
 H2189 H 0.61361 0.65998 0.73559
 H2190 H 0.63292 0.67892 0.69439
 H2191 H 0.64351 0.59906 0.66272
 H2192 H 0.62448 0.58018 0.70419
 C2193 C 0.88121 0.88248 0.72274
 C2194 C 0.85340 0.88010 0.71972
 C2195 C 0.84268 0.86918 0.69623
 C2196 C 0.85967 0.86052 0.67545
 C2197 C 0.88758 0.86314 0.67857
 C2198 C 0.89829 0.87405 0.70209
 C2199 C 0.89215 0.89308 0.74726
 C2200 C 0.90102 0.90175 0.76802
 H2201 H 0.84001 0.88646 0.73562
 H2202 H 0.82113 0.86712 0.69441
 H2203 H 0.90103 0.85672 0.66276
 H2204 H 0.91985 0.87579 0.70423
 C2205 C 0.88118 0.38240 0.22278
 C2206 C 0.89824 0.37399 0.20211
 C2207 C 0.88752 0.36311 0.17858
 C2208 C 0.85960 0.36051 0.17547
 C2209 C 0.84263 0.36917 0.19626
 C2210 C 0.85336 0.38005 0.21976
 C2211 C 0.89214 0.39297 0.24730
 C2212 C 0.90101 0.40161 0.26807
 H2213 H 0.91980 0.37571 0.20425
 H2214 H 0.90096 0.35670 0.16277
 H2215 H 0.82108 0.36712 0.19444
 H2216 H 0.83998 0.38641 0.23567
 C2217 C 0.38125 0.88241 0.22274
 C2218 C 0.35343 0.88005 0.21975
 C2219 C 0.34267 0.86917 0.19626
 C2220 C 0.35964 0.86051 0.17545
 C2221 C 0.38756 0.86312 0.17854
 C2222 C 0.39829 0.87399 0.20207
 C2223 C 0.39222 0.89297 0.24726
 C2224 C 0.40111 0.90161 0.26803
 H2225 H 0.34006 0.88641 0.23566
 H2226 H 0.32113 0.86712 0.19445
 H2227 H 0.40098 0.85670 0.16272
 H2228 H 0.41986 0.87571 0.20419
 C2229 C 0.38116 0.38245 0.72276
 C2230 C 0.35335 0.38008 0.71973
 C2231 C 0.34263 0.36917 0.69624
 C2232 C 0.35963 0.36049 0.67546
 C2233 C 0.38754 0.36310 0.67859
 C2234 C 0.39824 0.37401 0.70212
 C2235 C 0.39210 0.39306 0.74728
 C2236 C 0.40096 0.40173 0.76804
 H2237 H 0.33995 0.38646 0.73562
 H2238 H 0.32109 0.36711 0.69440
 H2239 H 0.40099 0.35667 0.66280
 H2240 H 0.41980 0.37574 0.70427
 C2241 C 1.11775 0.88115 1.27719
 C2242 C 1.12012 0.85333 1.28020
 C2243 C 1.13099 0.84259 1.30370
 C2244 C 1.13962 0.85956 1.32451
 C2245 C 1.13701 0.88748 1.32141
 C2246 C 1.12615 0.89821 1.29787
 C2247 C 1.10718 0.89211 1.25267
 C2248 C 1.09852 0.90098 1.23191
 H2249 H 1.11378 0.83996 1.26428
 H2250 H 1.13305 0.82105 1.30551
 H2251 H 1.14341 0.90091 1.33723
 H2252 H 1.12442 0.91977 1.29574
 C2253 C 1.11778 0.38126 0.77725
 C2254 C 1.12012 0.35344 0.78025
 C2255 C 1.13095 0.34268 0.80376
 C2256 C 1.13957 0.35964 0.82459
 C2257 C 1.13698 0.38756 0.82149
 C2258 C 1.12615 0.39830 0.79794
 C2259 C 1.10724 0.39223 0.75272
 C2260 C 1.09862 0.40111 0.73194
 H2261 H 1.11379 0.34007 0.76432
 H2262 H 1.13300 0.32113 0.80557
 H2263 H 1.14337 0.40098 0.83733
 H2264 H 1.12444 0.41986 0.79582
 C2265 C 0.61772 0.88124 0.77728
 C2266 C 0.62007 0.85342 0.78029
 C2267 C 0.63091 0.84267 0.80379
 C2268 C 0.63954 0.85963 0.82461
 C2269 C 0.63695 0.88755 0.82151
 C2270 C 0.62611 0.89829 0.79796
 C2271 C 0.60718 0.89220 0.75275
 C2272 C 0.59856 0.90108 0.73197
 H2273 H 0.61373 0.84005 0.76436
 H2274 H 0.63295 0.82112 0.80561
 H2275 H 0.64334 0.90098 0.83734
 H2276 H 0.62439 0.91985 0.79584
 C2277 C 0.61776 0.38117 1.27725
 C2278 C 0.62615 0.39823 1.29793
 C2279 C 0.63700 0.38750 1.32147
 C2280 C 0.63960 0.35958 1.32458
 C2281 C 0.63096 0.34261 1.30377
 C2282 C 0.62011 0.35336 1.28026
 C2283 C 0.60720 0.39213 1.25273
 C2284 C 0.59855 0.40100 1.23196
 H2285 H 0.62444 0.41979 1.29580
 H2286 H 0.64341 0.40094 1.33730
 H2287 H 0.63300 0.32106 1.30559
 H2288 H 0.61376 0.33998 1.26435
 C2289 C 0.88142 1.11768 1.27724
 C2290 C 0.89842 1.12613 1.29795
 C2291 C 0.88761 1.13698 1.32146
 C2292 C 0.85968 1.13951 1.32451
 C2293 C 0.84278 1.13082 1.30366
 C2294 C 0.85360 1.11997 1.28019
 C2295 C 0.89246 1.10712 1.25275
 C2296 C 0.90137 1.09847 1.23200
 H2297 H 0.91999 1.12446 1.29586
 H2298 H 0.90100 1.14342 1.33731
 H2299 H 0.82122 1.13281 1.30543
 H2300 H 0.84027 1.11358 1.26425
 C2301 C 0.88149 0.61776 0.77721
 C2302 C 0.89846 0.62622 0.79793
 C2303 C 0.88764 0.63706 0.82143
 C2304 C 0.85971 0.63958 0.82446
 C2305 C 0.84282 0.63089 0.80361
 C2306 C 0.85366 0.62004 0.78014
 C2307 C 0.89254 0.60720 0.75272
 C2308 C 0.90146 0.59855 0.73198
 H2309 H 0.92004 0.62455 0.79586
 H2310 H 0.90101 0.64351 0.83729
 H2311 H 0.82126 0.63288 0.80536
 H2312 H 0.84034 0.61365 0.76419
 C2313 C 0.38146 1.11784 0.77732
 C2314 C 0.39844 1.12631 0.79802
 C2315 C 0.38762 1.13716 0.82153
 C2316 C 0.35969 1.13968 0.82456
 C2317 C 0.34279 1.13097 0.80371
 C2318 C 0.35363 1.12012 0.78025
 C2319 C 0.39250 1.10726 0.75284
 C2320 C 0.40142 1.09859 0.73210
 H2321 H 0.42001 1.12465 0.79595
 H2322 H 0.40100 1.14362 0.83738
 H2323 H 0.32124 1.13296 0.80548
 H2324 H 0.34031 1.11371 0.76431
 C2325 C 0.38242 0.61863 1.27737
 C2326 C 0.38006 0.64645 1.28033
 C2327 C 0.36917 0.65723 1.30380
 C2328 C 0.36050 0.64029 1.32463
 C2329 C 0.36310 0.61237 1.32157
 C2330 C 0.37399 0.60161 1.29806
 C2331 C 0.39301 0.60763 1.25288
 C2332 C 0.40168 0.59873 1.23213
 H2333 H 0.38643 0.65980 1.26440
 H2334 H 0.36711 0.67878 1.30558
 H2335 H 0.35668 0.59896 1.33741
 H2336 H 0.37572 0.58004 1.29597
 C2337 C 1.11874 1.27725 0.88236
 C2338 C 1.14656 1.28027 0.88007
 C2339 C 1.15731 1.30376 0.86919
 C2340 C 1.14034 1.32455 0.86047
 C2341 C 1.11242 1.32142 0.86301
 C2342 C 1.10169 1.29789 0.87389
 C2343 C 1.10777 1.25273 0.89295
 C2344 C 1.09890 1.23197 0.90161
 H2345 H 1.15993 1.26438 0.88647
 H2346 H 1.17886 1.30559 0.86719
 H2347 H 1.09899 1.33722 0.85655
 H2348 H 1.08012 1.29575 0.87556
 C2349 C 1.11876 0.77719 0.38226
 C2350 C 1.14658 0.78020 0.37996
 C2351 C 1.15735 0.80369 0.36910
 C2352 C 1.14039 0.82449 0.36041
 C2353 C 1.11247 0.82139 0.36296
 C2354 C 1.10172 0.79786 0.37381
 C2355 C 1.10777 0.75268 0.39282
 C2356 C 1.09889 0.73191 0.40146
 H2357 H 1.15994 0.76429 0.38635
 H2358 H 1.17890 0.80551 0.36709
 H2359 H 1.09905 0.83721 0.35651
 H2360 H 1.08015 0.79573 0.37549
 C2361 C 0.61873 1.27722 0.38237
 C2362 C 0.64655 1.28023 0.38006
 C2363 C 0.65732 1.30372 0.36919
 C2364 C 0.64036 1.32451 0.36048
 C2365 C 0.61243 1.32141 0.36304
 C2366 C 0.60169 1.29788 0.37391
 C2367 C 0.60776 1.25271 0.39296
 C2368 C 0.59887 1.23196 0.40162
 H2369 H 0.65992 1.26432 0.38646
 H2370 H 0.67887 1.30553 0.36717
 H2371 H 0.59901 1.33722 0.35659
 H2372 H 0.58013 1.29576 0.37560
 C2373 C 0.61869 0.77726 0.88237
 C2374 C 0.64651 0.78027 0.88007
 C2375 C 0.65727 0.80376 0.86920
 C2376 C 0.64031 0.82456 0.86050
 C2377 C 0.61239 0.82145 0.86306
 C2378 C 0.60165 0.79792 0.87392
 C2379 C 0.60772 0.75274 0.89294
 C2380 C 0.59884 0.73197 0.90159
 H2381 H 0.65988 0.76436 0.88646
 H2382 H 0.67882 0.80558 0.86719
 H2383 H 0.59896 0.83726 0.85661
 H2384 H 0.58008 0.79578 0.87561
 C2385 C 0.88240 1.27733 1.11882
 C2386 C 0.88003 1.28033 1.14663
 C2387 C 0.86912 1.30381 1.15738
 C2388 C 0.86046 1.32461 1.14040
 C2389 C 0.86307 1.32151 1.11248
 C2390 C 0.87398 1.29799 1.10176
 C2391 C 0.89299 1.25281 1.10786
 C2392 C 0.90164 1.23205 1.09898
 H2393 H 0.88639 1.26442 1.16001
 H2394 H 0.86706 1.30563 1.17892
 H2395 H 0.85665 1.33732 1.09905
 H2396 H 0.87571 1.29586 1.08020
 C2397 C 0.88249 0.77733 0.61881
 C2398 C 0.88013 0.78034 0.64662
 C2399 C 0.86922 0.80383 0.65736
 C2400 C 0.86054 0.82461 0.64038
 C2401 C 0.86314 0.82150 0.61246
 C2402 C 0.87405 0.79798 0.60175
 C2403 C 0.89309 0.75281 0.60785
 C2404 C 0.90175 0.73205 0.59897
 H2405 H 0.88651 0.76444 0.66000
 H2406 H 0.86717 0.80565 0.67891
 H2407 H 0.85670 0.83731 0.59902
 H2408 H 0.87577 0.79584 0.58018
 C2409 C 0.38242 1.27730 0.61879
 C2410 C 0.38006 1.28030 0.64661
 C2411 C 0.36917 1.30379 0.65736
 C2412 C 0.36051 1.32459 0.64038
 C2413 C 0.36311 1.32149 0.61247
 C2414 C 0.37400 1.29796 0.60174
 C2415 C 0.39299 1.25278 0.60783
 C2416 C 0.40163 1.23201 0.59895
 H2417 H 0.38643 1.26439 0.65999
 H2418 H 0.36712 1.30561 0.67890
 H2419 H 0.35669 1.33730 0.59903
 H2420 H 0.37572 1.29584 0.58018
 C2421 C 0.38243 0.77732 1.11883
 C2422 C 0.38006 0.78033 1.14664
 C2423 C 0.36915 0.80381 1.15738
 C2424 C 0.36047 0.82460 1.14040
 C2425 C 0.36309 0.82149 1.11248
 C2426 C 0.37400 0.79798 1.10176
 C2427 C 0.39304 0.75281 1.10787
 C2428 C 0.40171 0.73205 1.09900
 H2429 H 0.38644 0.76443 1.16002
 H2430 H 0.36709 0.80563 1.17892
 H2431 H 0.35665 0.83730 1.09904
 H2432 H 0.37573 0.79584 1.08020
 C2433 C 0.88211 0.72279 0.88122
 C2434 C 0.87982 0.71979 0.85340
 C2435 C 0.86901 0.69629 0.84261
 C2436 C 0.86035 0.67546 0.85955
 C2437 C 0.86287 0.67855 0.88748
 C2438 C 0.87369 0.70210 0.89825
 C2439 C 0.89265 0.74730 0.89222
 C2440 C 0.90129 0.76807 0.90111
 H2441 H 0.88620 0.73572 0.84005
 H2442 H 0.86701 0.69448 0.82106
 H2443 H 0.85645 0.66272 0.90089
 H2444 H 0.87536 0.70421 0.91981
 C2445 C 0.88209 0.22267 0.38135
 C2446 C 0.87981 0.21970 0.35352
 C2447 C 0.86901 0.19620 0.34272
 C2448 C 0.86035 0.17536 0.35964
 C2449 C 0.86287 0.17843 0.38757
 C2450 C 0.87367 0.20196 0.39835
 C2451 C 0.89261 0.24719 0.39237
 C2452 C 0.90124 0.26795 0.40127
 H2453 H 0.88618 0.23564 0.34019
 H2454 H 0.86702 0.19441 0.32116
 H2455 H 0.85645 0.16258 0.40096
 H2456 H 0.87533 0.20406 0.41992
 C2457 C 0.38125 0.72275 0.38230
 C2458 C 0.39830 0.70207 0.37391
 C2459 C 0.38758 0.67852 0.36307
 C2460 C 0.35966 0.67542 0.36047
 C2461 C 0.34269 0.69623 0.36911
 C2462 C 0.35343 0.71974 0.37995
 C2463 C 0.39221 0.74728 0.39285
 C2464 C 0.40108 0.76805 0.40148
 H2465 H 0.41987 0.70420 0.37563
 H2466 H 0.40101 0.66270 0.35667
 H2467 H 0.32114 0.69441 0.36706
 H2468 H 0.34006 0.73566 0.38630
 C2469 C 0.38204 0.22289 0.88135
 C2470 C 0.37977 0.21990 0.85352
 C2471 C 0.36898 0.19639 0.84273
 C2472 C 0.36032 0.17556 0.85966
 C2473 C 0.36283 0.17865 0.88759
 C2474 C 0.37362 0.20220 0.89837
 C2475 C 0.39256 0.24742 0.89235
 C2476 C 0.40119 0.26819 0.90124
 H2477 H 0.38614 0.23583 0.84018
 H2478 H 0.36699 0.19458 0.82118
 H2479 H 0.35641 0.16281 0.90099
 H2480 H 0.37528 0.20431 0.91993
 C2481 C 1.11865 0.72267 1.11757
 C2482 C 1.10163 0.70198 1.12598
 C2483 C 1.11239 0.67847 1.13688
 C2484 C 1.14031 0.67542 1.13950
 C2485 C 1.15725 0.69625 1.13084
 C2486 C 1.14648 0.71972 1.11994
 C2487 C 1.10766 0.74717 1.10696
 C2488 C 1.09877 0.76791 1.09829
 H2489 H 1.08007 0.70407 1.12424
 H2490 H 1.09898 0.66263 1.14329
 H2491 H 1.17880 0.69447 1.13290
 H2492 H 1.15983 0.73565 1.11358
 C2493 C 1.11862 0.22268 0.61764
 C2494 C 1.10161 0.20198 0.62605
 C2495 C 1.11238 0.17847 0.63692
 C2496 C 1.14031 0.17542 0.63953
 C2497 C 1.15724 0.19626 0.63087
 C2498 C 1.14645 0.21973 0.61999
 C2499 C 1.10761 0.24718 0.60706
 C2500 C 1.09871 0.26793 0.59841
 H2501 H 1.08004 0.20406 0.62433
 H2502 H 1.09899 0.16262 0.64334
 H2503 H 1.17879 0.19449 0.63292
 H2504 H 1.15979 0.23567 0.61363
 C2505 C 0.61869 0.72272 0.61761
 C2506 C 0.64651 0.71977 0.61997
 C2507 C 0.65730 0.69630 0.63086
 C2508 C 0.64037 0.67547 0.63952
 C2509 C 0.61245 0.67852 0.63691
 C2510 C 0.60167 0.70203 0.62603
 C2511 C 0.60769 0.74722 0.60702
 C2512 C 0.59878 0.76797 0.59836
 H2513 H 0.65986 0.73571 0.61361
 H2514 H 0.67885 0.69453 0.63291
 H2515 H 0.59904 0.66268 0.64333
 H2516 H 0.58011 0.70411 0.62431
 C2517 C 0.61863 0.22271 1.11761
 C2518 C 0.64645 0.21975 1.11996
 C2519 C 0.65724 0.19629 1.13086
 C2520 C 0.64031 0.17546 1.13953
 C2521 C 0.61238 0.17851 1.13694
 C2522 C 0.60161 0.20202 1.12605
 C2523 C 0.60763 0.24720 1.10702
 C2524 C 0.59872 0.26795 1.09835
 H2525 H 0.65980 0.23568 1.11359
 H2526 H 0.67879 0.19451 1.13290
 H2527 H 0.59898 0.16268 1.14337
 H2528 H 0.58005 0.20411 1.12433
 C2529 C 1.27724 1.11862 0.88214
 C2530 C 1.29798 1.10163 0.87376
 C2531 C 1.32150 1.11244 0.86294
 C2532 C 1.32453 1.14037 0.86037
 C2533 C 1.30365 1.15727 0.86899
 C2534 C 1.28017 1.14644 0.87981
 C2535 C 1.25274 1.10758 0.89268
 C2536 C 1.23199 1.09866 0.90133
 H2537 H 1.29592 1.08006 0.87546
 H2538 H 1.33738 1.09906 0.85655
 H2539 H 1.30540 1.17883 0.86696
 H2540 H 1.26420 1.15976 0.88615
 C2541 C 1.27727 0.61761 0.38125
 C2542 C 1.28030 0.61993 0.35343
 C2543 C 1.30379 0.63082 0.34269
 C2544 C 1.32457 0.63952 0.35967
 C2545 C 1.32145 0.63696 0.38759
 C2546 C 1.29792 0.62607 0.39831
 C2547 C 1.25276 0.60702 0.39220
 C2548 C 1.23199 0.59835 0.40107
 H2549 H 1.26441 0.61354 0.34005
 H2550 H 1.30562 0.63284 0.32115
 H2551 H 1.33725 0.64341 0.40103
 H2552 H 1.29577 0.62438 0.41987
 C2553 C 0.77723 1.11850 0.38211
 C2554 C 0.79795 1.10149 0.37372
 C2555 C 0.82148 1.11228 0.36289
 C2556 C 0.82453 1.14021 0.36032
 C2557 C 0.80367 1.15713 0.36896
 C2558 C 0.78018 1.14632 0.37979
 C2559 C 0.75273 1.10748 0.39267
 C2560 C 0.73197 1.09858 0.40132
 H2561 H 0.79587 1.07993 0.37542
 H2562 H 0.83734 1.09889 0.35649
 H2563 H 0.80544 1.17868 0.36693
 H2564 H 0.76423 1.15966 0.38614
 C2565 C 0.77725 0.61857 0.88205
 C2566 C 0.78019 0.64639 0.87973
 C2567 C 0.80368 0.65721 0.86890
 C2568 C 0.82454 0.64029 0.86026
 C2569 C 0.82150 0.61237 0.86283
 C2570 C 0.79797 0.60157 0.87366
 C2571 C 0.75275 0.60754 0.89261
 C2572 C 0.73199 0.59864 0.90126
 H2573 H 0.76424 0.65972 0.88608
 H2574 H 0.80544 0.67876 0.86687
 H2575 H 0.83736 0.59898 0.85643
 H2576 H 0.79590 0.58000 0.87536
 C2577 C 1.27725 0.88122 1.11763
 C2578 C 1.29790 0.89828 1.12606
 C2579 C 1.32143 0.88757 1.13696
 C2580 C 1.32456 0.85966 1.13956
 C2581 C 1.30377 0.84267 1.13088
 C2582 C 1.28028 0.85340 1.11998
 C2583 C 1.25274 0.89216 1.10703
 C2584 C 1.23197 0.90103 1.09837
 H2585 H 1.29576 0.91985 1.12435
 H2586 H 1.33724 0.90101 1.14339
 H2587 H 1.30560 0.82113 1.13293
 H2588 H 1.26438 0.84002 1.11360
 C2589 C 1.27731 0.38121 0.61757
 C2590 C 1.28032 0.35339 0.61994
 C2591 C 1.30380 0.34266 0.63085
 C2592 C 1.32459 0.35964 0.63953
 C2593 C 1.32148 0.38756 0.63691
 C2594 C 1.29796 0.39827 0.62600
 C2595 C 1.25279 0.39216 0.60697
 C2596 C 1.23203 0.40103 0.59831
 H2597 H 1.26442 0.34001 0.61357
 H2598 H 1.30562 0.32111 0.63292
 H2599 H 1.33729 0.40100 0.64334
 H2600 H 1.29583 0.41983 0.62427
 C2601 C 0.77733 0.88127 0.61762
 C2602 C 0.78034 0.85346 0.61997
 C2603 C 0.80383 0.84271 0.63085
 C2604 C 0.82463 0.85968 0.63953
 C2605 C 0.82153 0.88760 0.63692
 C2606 C 0.79800 0.89833 0.62604
 C2607 C 0.75281 0.89224 0.60705
 C2608 C 0.73205 0.90112 0.59841
 H2609 H 0.76443 0.84008 0.61360
 H2610 H 0.80565 0.82116 0.63290
 H2611 H 0.83734 0.90103 0.64335
 H2612 H 0.79587 0.91989 0.62433
 C2613 C 0.77725 0.38124 1.11762
 C2614 C 0.79791 0.39831 1.12606
 C2615 C 0.82143 0.38759 1.13696
 C2616 C 0.82455 0.35967 1.13956
 C2617 C 0.80376 0.34269 1.13087
 C2618 C 0.78027 0.35343 1.11997
 C2619 C 0.75274 0.39220 1.10703
 C2620 C 0.73197 0.40108 1.09838
 H2621 H 0.79577 0.41987 1.12435
 H2622 H 0.83724 0.40102 1.14340
 H2623 H 0.80558 0.32114 1.13292
 H2624 H 0.76437 0.34005 1.11359
 C2625 C 0.72277 1.11779 1.11874
 C2626 C 0.71977 1.12014 1.14656
 C2627 C 0.69626 1.13099 1.15731
 C2628 C 0.67544 1.13962 1.14035
 C2629 C 0.67854 1.13703 1.11243
 C2630 C 0.70209 1.12618 1.10170
 C2631 C 0.74729 1.10723 1.10777
 C2632 C 0.76806 1.09860 1.09889
 H2633 H 0.73569 1.11379 1.15993
 H2634 H 0.69445 1.13303 1.17886
 H2635 H 0.66272 1.14343 1.09900
 H2636 H 0.70421 1.12446 1.08013
 C2637 C 0.72283 0.61782 0.61872
 C2638 C 0.70215 0.62621 0.60167
 C2639 C 0.67860 0.63705 0.61241
 C2640 C 0.67550 0.63963 0.64033
 C2641 C 0.69632 0.63099 0.65730
 C2642 C 0.71983 0.62015 0.64654
 C2643 C 0.74736 0.60728 0.60774
 C2644 C 0.76813 0.59865 0.59886
 H2645 H 0.70427 0.62451 0.58011
 H2646 H 0.66277 0.64345 0.59899
 H2647 H 0.69451 0.63303 0.67884
 H2648 H 0.73575 0.61381 0.65990
 C2649 C 0.22279 1.11776 0.61877
 C2650 C 0.20211 1.12616 0.60172
 C2651 C 0.17856 1.13700 0.61244
 C2652 C 0.17545 1.13959 0.64036
 C2653 C 0.19626 1.13095 0.65734
 C2654 C 0.21977 1.12010 0.64659
 C2655 C 0.24732 1.10721 0.60782
 C2656 C 0.26809 1.09857 0.59895
 H2657 H 0.20425 1.12444 0.58016
 H2658 H 0.16274 1.14340 0.59901
 H2659 H 0.19444 1.13299 0.67888
 H2660 H 0.23569 1.11376 0.65997
 C2661 C 0.22280 0.61777 1.11877
 C2662 C 0.21978 0.62012 1.14659
 C2663 C 0.19626 0.63096 1.15732
 C2664 C 0.17545 0.63959 1.14033
 C2665 C 0.17858 0.63700 1.11242
 C2666 C 0.20213 0.62616 1.10170
 C2667 C 0.24734 0.60723 1.10783
 C2668 C 0.26812 0.59860 1.09897
 H2669 H 0.23569 0.61378 1.15997
 H2670 H 0.19442 0.63300 1.17886
 H2671 H 0.16276 0.64339 1.09898
 H2672 H 0.20428 0.62444 1.08014
 C2673 C 0.72264 0.88236 0.88141
 C2674 C 0.70195 0.87394 0.89843
 C2675 C 0.67844 0.86306 0.88766
 C2676 C 0.67538 0.86046 0.85974
 C2677 C 0.69621 0.86912 0.84280
 C2678 C 0.71968 0.88001 0.85359
 C2679 C 0.74714 0.89294 0.89241
 C2680 C 0.76789 0.90160 0.90131
 H2681 H 0.70404 0.87566 0.92000
 H2682 H 0.66260 0.85663 0.90107
 H2683 H 0.69443 0.86707 0.82125
 H2684 H 0.73561 0.88637 0.84024
 C2685 C 0.72268 0.38231 0.38143
 C2686 C 0.70197 0.37388 0.39844
 C2687 C 0.67847 0.36301 0.38766
 C2688 C 0.67542 0.36041 0.35973
 C2689 C 0.69626 0.36908 0.34280
 C2690 C 0.71973 0.37996 0.35360
 C2691 C 0.74717 0.39288 0.39244
 C2692 C 0.76792 0.40153 0.40135
 H2693 H 0.70406 0.37560 0.42000
 H2694 H 0.66262 0.35658 0.40105
 H2695 H 0.69449 0.36704 0.32125
 H2696 H 0.73567 0.38633 0.34026
 C2697 C 0.22271 0.88232 0.38132
 C2698 C 0.20202 0.87388 0.39834
 C2699 C 0.17852 0.86298 0.38757
 C2700 C 0.17546 0.86040 0.35965
 C2701 C 0.19628 0.86909 0.34271
 C2702 C 0.21975 0.87998 0.35350
 C2703 C 0.24720 0.89292 0.39233
 C2704 C 0.26795 0.90160 0.40123
 H2705 H 0.20412 0.87559 0.41991
 H2706 H 0.16269 0.85655 0.40097
 H2707 H 0.19451 0.86705 0.32116
 H2708 H 0.23568 0.88637 0.34015
 C2709 C 0.22263 0.38241 0.88143
 C2710 C 0.20193 0.37397 0.89843
 C2711 C 0.17843 0.36307 0.88766
 C2712 C 0.17540 0.36047 0.85973
 C2713 C 0.19623 0.36914 0.84280
 C2714 C 0.21969 0.38005 0.85360
 C2715 C 0.24711 0.39301 0.89244
 C2716 C 0.26785 0.40169 0.90134
 H2717 H 0.20401 0.37570 0.92000
 H2718 H 0.16259 0.35664 0.90105
 H2719 H 0.19446 0.36709 0.82125
 H2720 H 0.23562 0.38642 0.84026
   
