data_POSCAR
  _audit_creation_date              2014-09-24
  _audit_creation_method            'ToBaCCo'
  _symmetry_space_group_name_H-M    'P1'
  _symmetry_Int_Tables_number       1
  _symmetry_cell_setting            triclinic
  loop_
  _symmetry_equiv_pos_as_xyz
 x,y,z
_cell_length_a 53.3632
_cell_length_b 54.0468
_cell_length_c 40.3311
_cell_angle_alpha 87.961600
_cell_angle_beta 90.969800
_cell_angle_gamma 88.253100
loop_
  _atom_site_label
  _atom_site_type_symbol
  _atom_site_fract_x
  _atom_site_fract_y
  _atom_site_fract_z
C1 C 0.29569 -0.01699 0.22345
 C2 C 0.30918 0.00462 0.21657
 C3 C 0.32718 0.00463 0.19166
 C4 C 0.33376 -0.01713 0.17577
 C5 C 0.32033 -0.03839 0.18251
 C6 C 0.30159 -0.03886 0.20672
 C7 C 0.31123 0.02419 0.24106
 C8 C 0.33260 0.02342 0.26193
 C9 C 0.33906 0.04359 0.28160
 C10 C 0.32261 0.06464 0.27975
 C11 C 0.30144 0.06572 0.25843
 C12 C 0.29575 0.04549 0.23915
 H13 H 0.28314 -0.01760 0.24430
 H14 H 0.33826 0.02093 0.18759
 H15 H 0.34511 0.00751 0.25985
 H16 H 0.28006 0.04680 0.22169
 H17 H 0.32601 -0.05543 0.17092
 H18 H 0.32593 0.08059 0.29442
 C19 C 0.20601 -0.04341 0.76497
 C20 C 0.19284 -0.02212 0.77476
 C21 C 0.17445 -0.02434 0.79897
 C22 C 0.16852 -0.04752 0.81356
 C23 C 0.18189 -0.06859 0.80329
 C24 C 0.20050 -0.06666 0.77921
 C25 C 0.19225 0.00094 0.75386
 C26 C 0.17237 0.00426 0.73101
 C27 C 0.16688 0.02720 0.71394
 C28 C 0.18293 0.04687 0.72045
 C29 C 0.20286 0.04383 0.74377
 C30 C 0.20744 0.02087 0.76055
 H31 H 0.21919 -0.04213 0.74487
 H32 H 0.16312 -0.00794 0.80360
 H33 H 0.15992 -0.01105 0.72961
 H34 H 0.22201 0.01885 0.77957
 H35 H 0.17725 -0.08675 0.81276
 H36 H 0.18014 0.06483 0.70809
 C37 C 0.70419 0.46544 0.29239
 C38 C 0.69190 0.48848 0.29587
 C39 C 0.67394 0.49117 0.32049
 C40 C 0.66832 0.47135 0.34248
 C41 C 0.68248 0.44913 0.34052
 C42 C 0.69917 0.44541 0.31426
 C43 C 0.69197 0.50759 0.26885
 C44 C 0.67428 0.50577 0.24305
 C45 C 0.66901 0.52569 0.22036
 C46 C 0.68291 0.54714 0.22310
 C47 C 0.69989 0.54977 0.24979
 C48 C 0.70465 0.52976 0.27246
 H49 H 0.71587 0.46264 0.27105
 H50 H 0.66263 0.50815 0.31986
 H51 H 0.66302 0.48944 0.24282
 H52 H 0.71653 0.53207 0.29411
 H53 H 0.67914 0.43388 0.35783
 H54 H 0.67934 0.56269 0.20581
 C55 C 0.79703 0.46561 0.73495
 C56 C 0.80898 0.48811 0.73099
 C57 C 0.82309 0.49279 0.70280
 C58 C 0.82503 0.47571 0.67725
 C59 C 0.81187 0.45353 0.68095
 C60 C 0.79851 0.44809 0.71008
 C61 C 0.81037 0.50568 0.75800
 C62 C 0.83004 0.50246 0.78143
 C63 C 0.83627 0.52150 0.80308
 C64 C 0.82056 0.54293 0.80195
 C65 C 0.80227 0.54729 0.77670
 C66 C 0.79685 0.52831 0.75519
 H67 H 0.78713 0.46154 0.75765
 H68 H 0.83391 0.50935 0.70263
 H69 H 0.84182 0.48598 0.77964
 H70 H 0.78367 0.53177 0.73469
 H71 H 0.81285 0.43977 0.66221
 H72 H 0.82319 0.55728 0.81956
 C73 C 0.24436 0.41184 1.03697
 C74 C 0.26001 0.42421 1.01459
 C75 C 0.28030 0.43719 1.02671
 C76 C 0.28487 0.43819 1.06100
 C77 C 0.26889 0.42616 1.08324
 C78 C 0.24874 0.41218 1.07166
 C79 C 0.25515 0.42299 0.97845
 C80 C 0.23437 0.43614 0.96428
 C81 C 0.22688 0.43250 0.93139
 C82 C 0.24100 0.41628 0.91209
 C83 C 0.26200 0.40298 0.92573
 C84 C 0.26896 0.40639 0.95912
 H85 H 0.22869 0.40205 1.02698
 H86 H 0.29315 0.44565 1.00946
 H87 H 0.22279 0.44767 0.97974
 H88 H 0.28434 0.39538 0.97043
 H89 H 0.27399 0.42567 1.10937
 H90 H 0.23434 0.41243 0.88732
 C91 C 0.75394 0.09350 1.03234
 C92 C 0.74464 0.07723 1.00893
 C93 C 0.72528 0.06150 1.01723
 C94 C 0.71508 0.06127 1.04897
 C95 C 0.72505 0.07694 1.07262
 C96 C 0.74438 0.09365 1.06486
 C97 C 0.75314 0.07799 0.97440
 C98 C 0.77353 0.06313 0.96472
 C99 C 0.78131 0.06395 0.93159
 C100 C 0.76825 0.07957 0.90812
 C101 C 0.74774 0.09447 0.91773
 C102 C 0.74020 0.09336 0.95086
 H103 H 0.76884 0.10559 1.02506
 H104 H 0.71742 0.05033 0.99810
 H105 H 0.78406 0.05186 0.98323
 H106 H 0.72454 0.10493 0.95855
 H107 H 0.71645 0.07700 1.09662
 H108 H 0.77519 0.08148 0.88308
 C109 C 0.24457 0.60222 0.51533
 C110 C 0.23110 0.58951 0.49148
 C111 C 0.20861 0.57848 0.49984
 C112 C 0.19942 0.57959 0.53218
 C113 C 0.21300 0.59247 0.55592
 C114 C 0.23562 0.60392 0.54770
 C115 C 0.23999 0.58876 0.45726
 C116 C 0.26209 0.57557 0.45022
 C117 C 0.27243 0.57739 0.41852
 C118 C 0.26038 0.59253 0.39371
 C119 C 0.23831 0.60607 0.40083
 C120 C 0.22794 0.60365 0.43243
 H121 H 0.26191 0.61086 0.50857
 H122 H 0.19811 0.56933 0.48084
 H123 H 0.27208 0.56509 0.46999
 H124 H 0.21152 0.61483 0.43843
 H125 H 0.20585 0.59369 0.58081
 H126 H 0.26941 0.59563 0.37011
 C127 C 0.74613 0.91014 0.54452
 C128 C 0.75937 0.92340 0.52064
 C129 C 0.77949 0.93744 0.53024
 C130 C 0.78650 0.93884 0.56393
 C131 C 0.77251 0.92615 0.58807
 C132 C 0.75308 0.91069 0.57819
 C133 C 0.75253 0.92206 0.48542
 C134 C 0.73209 0.93647 0.47291
 C135 C 0.72382 0.93428 0.44016
 C136 C 0.73632 0.91767 0.41981
 C137 C 0.75732 0.90329 0.43182
 C138 C 0.76528 0.90554 0.46493
 H139 H 0.73104 0.89856 0.53670
 H140 H 0.79006 0.94704 0.51125
 H141 H 0.72173 0.94839 0.48926
 H142 H 0.78105 0.89437 0.47486
 H143 H 0.77869 0.92576 0.61383
 H144 H 0.72884 0.91507 0.39507
 C145 C -0.03989 0.25119 0.39564
 C146 C -0.01742 0.25134 0.41409
 C147 C -0.01055 0.23123 0.43559
 C148 C -0.02710 0.21178 0.44093
 C149 C -0.04967 0.21197 0.42225
 C150 C -0.05614 0.23114 0.39834
 C151 C -0.00160 0.27315 0.41118
 C152 C -0.00984 0.29573 0.42408
 C153 C 0.00404 0.31710 0.41893
 C154 C 0.02604 0.31586 0.40048
 C155 C 0.03467 0.29336 0.38804
 C156 C 0.02088 0.27194 0.39370
 H157 H -0.04469 0.26728 0.37983
 H158 H 0.00693 0.23162 0.44964
 H159 H -0.02718 0.29671 0.43765
 H160 H 0.02730 0.25450 0.38385
 H161 H -0.06076 0.19565 0.42456
 H162 H 0.03699 0.33229 0.39687
 C163 C -0.03172 0.74331 0.11072
 C164 C -0.00974 0.74445 0.09220
 C165 C -0.00470 0.76579 0.07305
 C166 C -0.02178 0.78582 0.07142
 C167 C -0.04381 0.78464 0.08959
 C168 C -0.04923 0.76344 0.10967
 C169 C 0.00822 0.72338 0.09174
 C170 C 0.00283 0.70266 0.07329
 C171 C 0.02203 0.68535 0.06571
 C172 C 0.04646 0.68886 0.07819
 C173 C 0.05131 0.70853 0.09891
 C174 C 0.03222 0.72589 0.10519
 H175 H -0.03536 0.72638 0.12474
 H176 H 0.01243 0.76664 0.05901
 H177 H -0.01581 0.70127 0.06255
 H178 H 0.03635 0.74205 0.11926
 H179 H -0.05594 0.80108 0.08925
 H180 H 0.06149 0.67560 0.07338
 C181 C 0.46969 0.25816 0.61287
 C182 C 0.49015 0.26088 0.59166
 C183 C 0.49226 0.28268 0.57221
 C184 C 0.47398 0.30164 0.57355
 C185 C 0.45355 0.29890 0.59451
 C186 C 0.45127 0.27723 0.61431
 C187 C 0.50866 0.24056 0.58767
 C188 C 0.50338 0.22190 0.56565
 C189 C 0.52181 0.20395 0.55841
 C190 C 0.54560 0.20473 0.57357
 C191 C 0.55091 0.22298 0.59640
 C192 C 0.53234 0.24099 0.60323
 H193 H 0.46777 0.24109 0.62739
 H194 H 0.50812 0.28486 0.55602
 H195 H 0.48504 0.22160 0.55369
 H196 H 0.53642 0.25558 0.62008
 H197 H 0.43947 0.31374 0.59555
 H198 H 0.55965 0.19048 0.56870
 C199 C 0.46852 0.74022 0.90444
 C200 C 0.49168 0.73894 0.92117
 C201 C 0.49800 0.71856 0.94271
 C202 C 0.48011 0.70049 0.94973
 C203 C 0.45675 0.70239 0.93297
 C204 C 0.45122 0.72160 0.90932
 C205 C 0.50867 0.75958 0.91606
 C206 C 0.50325 0.78226 0.93051
 C207 C 0.51736 0.80306 0.92266
 C208 C 0.53728 0.80083 0.90053
 C209 C 0.54288 0.77821 0.88565
 C210 C 0.52812 0.75769 0.89338
 H211 H 0.46404 0.75585 0.88757
 H212 H 0.51614 0.71758 0.95525
 H213 H 0.48748 0.78389 0.94696
 H214 H 0.53114 0.74036 0.88114
 H215 H 0.44356 0.68772 0.93652
 H216 H 0.54873 0.81670 0.89559
 C217 C -0.27832 0.54818 1.02374
 C218 C -0.25571 0.56103 1.02415
 C219 C -0.25283 0.58057 1.04575
 C220 C -0.27157 0.58677 1.06827
 C221 C -0.29254 0.57194 1.07004
 C222 C -0.29764 0.55440 1.04584
 C223 C -0.23772 0.55925 0.99683
 C224 C -0.24144 0.57587 0.96957
 C225 C -0.22222 0.58065 0.94673
 C226 C -0.19974 0.56642 0.95081
 C227 C -0.19529 0.55019 0.97860
 C228 C -0.21450 0.54655 1.00151
 H229 H -0.28147 0.53527 1.00430
 H230 H -0.23670 0.59206 1.04285
 H231 H -0.25861 0.58705 0.96906
 H232 H -0.21084 0.53537 1.02401
 H233 H -0.30572 0.57505 1.08967
 H234 H -0.18502 0.56826 0.93289
 C235 C -0.28975 0.44512 0.48630
 C236 C -0.26755 0.43060 0.48424
 C237 C -0.26630 0.41130 0.46206
 C238 C -0.28657 0.40632 0.44104
 C239 C -0.30837 0.42127 0.44269
 C240 C -0.31090 0.43976 0.46652
 C241 C -0.24672 0.43180 0.50861
 C242 C -0.24376 0.41236 0.53245
 C243 C -0.22078 0.40770 0.54935
 C244 C -0.20112 0.42392 0.54383
 C245 C -0.20396 0.44367 0.52034
 C246 C -0.22674 0.44754 0.50267
 H247 H -0.29120 0.45859 0.50550
 H248 H -0.24973 0.39919 0.46295
 H249 H -0.25886 0.39957 0.53578
 H250 H -0.22832 0.46164 0.48290
 H251 H -0.32384 0.41809 0.42578
 H252 H -0.18303 0.42015 0.55588
 C253 C 0.22145 -0.05233 -0.05467
 C254 C 0.24542 -0.06322 -0.05828
 C255 C 0.24890 -0.08205 -0.08086
 C256 C 0.22854 -0.09159 -0.09851
 C257 C 0.20502 -0.07904 -0.09645
 C258 C 0.20099 -0.06026 -0.07354
 C259 C 0.26440 -0.06195 -0.03138
 C260 C 0.26449 -0.08072 -0.00662
 C261 C 0.28362 -0.08345 0.01811
 C262 C 0.30263 -0.06585 0.01719
 C263 C 0.30329 -0.04743 -0.00837
 C264 C 0.28414 -0.04557 -0.03276
 H265 H 0.21833 -0.03947 -0.03503
 H266 H 0.26752 -0.09041 -0.08246
 H267 H 0.25026 -0.09430 -0.00928
 H268 H 0.28505 -0.03205 -0.05317
 H269 H 0.18886 -0.08555 -0.10964
 H270 H 0.31763 -0.06652 0.03554
 C271 C 0.21957 1.05684 0.51580
 C272 C 0.24340 1.06709 0.51845
 C273 C 0.24931 1.08129 0.54584
 C274 C 0.23147 1.08593 0.57025
 C275 C 0.20839 1.07445 0.56823
 C276 C 0.20190 1.06066 0.54068
 C277 C 0.26027 1.06790 0.48988
 C278 C 0.25473 1.08525 0.46382
 C279 C 0.27259 1.09097 0.43950
 C280 C 0.29547 1.07723 0.44073
 C281 C 0.30171 1.06065 0.46752
 C282 C 0.28391 1.05581 0.49187
 H283 H 0.21432 1.04740 0.49359
 H284 H 0.26717 1.09031 0.54669
 H285 H 0.23666 1.09494 0.46353
 H286 H 0.28905 1.04421 0.51355
 H287 H 0.19431 1.07821 0.58658
 H288 H 0.31005 1.08161 0.42332
 C289 C 0.15425 0.50734 0.21178
 C290 C 0.16721 0.51889 0.23696
 C291 C 0.17885 0.54131 0.23027
 C292 C 0.17851 0.55207 0.19795
 C293 C 0.16521 0.54021 0.17269
 C294 C 0.15257 0.51805 0.17968
 C295 C 0.16702 0.50814 0.27087
 C296 C 0.18031 0.48596 0.27884
 C297 C 0.17826 0.47414 0.31034
 C298 C 0.16233 0.48513 0.33371
 C299 C 0.14834 0.50703 0.32524
 C300 C 0.15114 0.51859 0.29401
 H301 H 0.14504 0.49014 0.21748
 H302 H 0.18779 0.55044 0.25058
 H303 H 0.19130 0.47744 0.25974
 H304 H 0.13993 0.53510 0.28706
 H305 H 0.16433 0.54833 0.14777
 H306 H 0.15984 0.47618 0.35783
 C307 C -0.13513 0.99759 0.21630
 C308 C -0.14696 0.98792 0.24430
 C309 C -0.16192 0.96758 0.24182
 C310 C -0.16534 0.95596 0.21155
 C311 C -0.15410 0.96624 0.18305
 C312 C -0.13814 0.98676 0.18520
 C313 C -0.14723 1.00120 0.27528
 C314 C -0.16211 1.02265 0.27623
 C315 C -0.16514 1.03542 0.30571
 C316 C -0.15361 1.02526 0.33495
 C317 C -0.13815 1.00355 0.33420
 C318 C -0.13527 0.99148 0.30418
 H319 H -0.12459 1.01423 0.21883
 H320 H -0.17185 0.96140 0.26371
 H321 H -0.17220 1.02879 0.25372
 H322 H -0.12408 0.97446 0.30330
 H323 H -0.15566 0.95644 0.16021
 H324 H -0.15498 1.03523 0.35771
 C325 C 0.35770 0.48405 -0.27876
 C326 C 0.34492 0.47310 -0.25235
 C327 C 0.33061 0.45250 -0.25733
 C328 C 0.32736 0.44334 -0.28912
 C329 C 0.34022 0.45444 -0.31584
 C330 C 0.35600 0.47480 -0.31096
 C331 C 0.34292 0.48561 -0.22085
 C332 C 0.32992 0.50830 -0.22066
 C333 C 0.32701 0.52119 -0.19128
 C334 C 0.33700 0.51031 -0.16151
 C335 C 0.35123 0.48773 -0.16172
 C336 C 0.35336 0.47514 -0.19147
 H337 H 0.36768 0.50076 -0.27417
 H338 H 0.32122 0.44422 -0.23627
 H339 H 0.32173 0.51582 -0.24383
 H340 H 0.36363 0.45757 -0.19205
 H341 H 0.33825 0.44673 -0.34006
 H342 H 0.33610 0.52067 -0.13903
 C343 C 0.64955 -0.00379 -0.29073
 C344 C 0.66259 0.00568 -0.26381
 C345 C 0.67684 0.02677 -0.26814
 C346 C 0.67914 0.03827 -0.29962
 C347 C 0.66630 0.02827 -0.32672
 C348 C 0.65072 0.00753 -0.32268
 C349 C 0.66077 -0.00604 -0.23054
 C350 C 0.67236 -0.02919 -0.22330
 C351 C 0.67087 -0.04041 -0.19145
 C352 C 0.65718 -0.02829 -0.16697
 C353 C 0.64530 -0.00507 -0.17430
 C354 C 0.64746 0.00602 -0.20602
 H355 H 0.63887 -0.02028 -0.28645
 H356 H 0.68574 0.03432 -0.24657
 H357 H 0.68247 -0.03851 -0.24258
 H358 H 0.63839 0.02392 -0.21180
 H359 H 0.66754 0.03761 -0.35069
 H360 H 0.65545 -0.03703 -0.14255
 C361 C -0.00903 0.20989 0.87749
 C362 C -0.00781 0.23376 0.86302
 C363 C -0.02917 0.24482 0.84688
 C364 C -0.05160 0.23193 0.84545
 C365 C -0.05262 0.20824 0.86052
 C366 C -0.03137 0.19698 0.87632
 C367 C 0.01584 0.24706 0.86569
 C368 C 0.03828 0.23664 0.85367
 C369 C 0.06103 0.24862 0.85798
 C370 C 0.06108 0.27106 0.87441
 C371 C 0.03876 0.28183 0.88601
 C372 C 0.01620 0.26965 0.88173
 H373 H 0.00756 0.20126 0.88937
 H374 H -0.02830 0.26321 0.83543
 H375 H 0.03803 0.21925 0.84111
 H376 H -0.00113 0.27785 0.89052
 H377 H -0.07001 0.19842 0.85946
 H378 H 0.07851 0.28062 0.87727
 C379 C 0.50335 0.21034 0.14365
 C380 C 0.50226 0.23313 0.15912
 C381 C 0.52198 0.23966 0.18021
 C382 C 0.54218 0.22296 0.18706
 C383 C 0.54286 0.19997 0.17202
 C384 C 0.52383 0.19387 0.14965
 C385 C 0.48042 0.25005 0.15336
 C386 C 0.45699 0.24376 0.16593
 C387 C 0.43632 0.26030 0.16181
 C388 C 0.43928 0.28305 0.14466
 C389 C 0.46272 0.28962 0.13234
 C390 C 0.48323 0.27294 0.13660
 H391 H 0.48827 0.20543 0.12701
 H392 H 0.52141 0.25751 0.19166
 H393 H 0.45497 0.22621 0.17933
 H394 H 0.50154 0.27807 0.12791
 H395 H 0.55873 0.18723 0.17666
 H396 H 0.42352 0.29615 0.14200
 C397 C 0.00425 0.72620 0.64414
 C398 C 0.00845 0.74664 0.66374
 C399 C 0.03219 0.74972 0.67813
 C400 C 0.05166 0.73247 0.67296
 C401 C 0.04728 0.71194 0.65360
 C402 C 0.02367 0.70865 0.63875
 C403 C -0.01174 0.76533 0.66826
 C404 C -0.03396 0.75870 0.68377
 C405 C -0.05260 0.77678 0.69044
 C406 C -0.04890 0.80152 0.67975
 C407 C -0.02744 0.80800 0.66189
 C408 C -0.00863 0.78985 0.65721
 H409 H -0.01397 0.72451 0.63234
 H410 H 0.03563 0.76577 0.69272
 H411 H -0.03596 0.73963 0.69233
 H412 H 0.00845 0.79471 0.64470
 H413 H 0.06244 0.69851 0.65037
 H414 H -0.06364 0.81540 0.68305
 C415 C 0.49048 0.72738 0.36898
 C416 C 0.48993 0.75037 0.35165
 C417 C 0.46845 0.75837 0.33333
 C418 C 0.44774 0.74324 0.33173
 C419 C 0.44819 0.72049 0.34936
 C420 C 0.46951 0.71231 0.36809
 C421 C 0.51224 0.76557 0.35077
 C422 C 0.53328 0.75777 0.33308
 C423 C 0.55338 0.77355 0.32863
 C424 C 0.55270 0.79674 0.34306
 C425 C 0.53193 0.80454 0.36146
 C426 C 0.51164 0.78885 0.36503
 H427 H 0.50736 0.72107 0.38245
 H428 H 0.46818 0.77593 0.31945
 H429 H 0.53356 0.73989 0.32170
 H430 H 0.49506 0.79498 0.37798
 H431 H 0.43182 0.70913 0.34834
 H432 H 0.56857 0.80863 0.34016
 B433 B -0.02917 -0.00168 0.98555
 B434 B -0.04044 -0.00609 0.94698
 B435 B -0.01823 0.01488 0.95267
 B436 B 0.00179 0.00432 0.98322
 B437 B -0.00773 -0.02414 0.99597
 B438 B -0.03420 -0.03065 0.97349
 B439 B 0.00433 -0.02641 0.93031
 B440 B 0.01588 -0.02142 0.96851
 B441 B -0.00624 -0.04291 0.96340
 B442 B -0.02664 -0.03229 0.93272
 B443 B -0.01687 -0.00393 0.91997
 B444 B 0.00920 0.00280 0.94257
 B445 B 0.46140 0.51732 0.49408
 B446 B 0.45257 0.51349 0.45424
 B447 B 0.47425 0.53434 0.46300
 B448 B 0.49256 0.52318 0.49513
 B449 B 0.48210 0.49471 0.50576
 B450 B 0.45705 0.48866 0.48038
 B451 B 0.49826 0.49329 0.44182
 B452 B 0.50737 0.49751 0.48125
 B453 B 0.48537 0.47639 0.47299
 B454 B 0.46720 0.48759 0.44060
 B455 B 0.47773 0.51610 0.42997
 B456 B 0.50252 0.52224 0.45537
 B457 B 0.53400 0.99642 0.47898
 B458 B 0.54410 1.00195 0.44010
 B459 B 0.52250 0.98035 0.44678
 B460 B 0.50304 0.98989 0.47682
 B461 B 0.51243 1.01828 0.48791
 B462 B 0.53812 1.02579 0.46513
 B463 B 0.49857 1.02179 0.42199
 B464 B 0.48817 1.01586 0.46061
 B465 B 0.50979 1.03776 0.45422
 B466 B 0.52949 1.02818 0.42423
 B467 B 0.51993 0.99994 0.41318
 B468 B 0.49438 0.99228 0.43601
 B469 B 0.03712 0.47694 0.99177
 B470 B 0.04528 0.48207 0.95187
 B471 B 0.02447 0.46010 0.96123
 B472 B 0.00617 0.46999 0.99243
 B473 B 0.01561 0.49876 1.00169
 B474 B 0.04015 0.50614 0.97668
 B475 B -0.00118 0.50075 0.93699
 B476 B -0.00980 0.49549 0.97650
 B477 B 0.01126 0.51758 0.96772
 B478 B 0.02954 0.50772 0.93650
 B479 B 0.02000 0.47907 0.92722
 B480 B -0.00428 0.47142 0.95239
 B481 B 0.01258 0.53312 0.48663
 B482 B 0.02270 0.52332 0.52521
 B483 B 0.00137 0.54720 0.52012
 B484 B -0.01837 0.54112 0.48836
 B485 B -0.00912 0.51334 0.47358
 B486 B 0.01660 0.50250 0.49607
 B487 B -0.02280 0.50545 0.53792
 B488 B -0.03315 0.51506 0.49994
 B489 B -0.01170 0.49151 0.50430
 B490 B 0.00788 0.49738 0.53631
 B491 B -0.00136 0.52537 0.55115
 B492 B -0.02681 0.53584 0.52839
 B493 B 0.52850 0.01617 0.00513
 B494 B 0.53963 0.00168 0.04055
 B495 B 0.51964 0.02645 0.04201
 B496 B 0.49837 0.02534 0.01064
 B497 B 0.50535 -0.00077 -0.01038
 B498 B 0.53114 -0.01515 0.00800
 B499 B 0.49343 -0.01491 0.05284
 B500 B 0.48249 -0.00056 0.01760
 B501 B 0.50241 -0.02535 0.01612
 B502 B 0.52361 -0.02425 0.04756
 B503 B 0.51668 0.00171 0.06853
 B504 B 0.49100 0.01631 0.05005
 B505 B 0.47334 0.48959 0.03010
 B506 B 0.46377 0.49258 0.06926
 B507 B 0.48635 0.47119 0.06111
 B508 B 0.50461 0.48263 0.03071
 B509 B 0.49361 0.51193 0.02072
 B510 B 0.46816 0.51811 0.04473
 B511 B 0.50873 0.51052 0.08632
 B512 B 0.51860 0.50723 0.04708
 B513 B 0.49614 0.52900 0.05494
 B514 B 0.47752 0.51748 0.08534
 B515 B 0.48857 0.48831 0.09518
 B516 B 0.51405 0.48202 0.07124
 B517 B -0.02815 1.00403 0.53766
 B518 B -0.03956 1.00854 0.57575
 B519 B -0.01619 0.98740 0.57128
 B520 B 0.00300 0.99765 0.54142
 B521 B -0.00802 1.02622 0.52797
 B522 B -0.03472 1.03308 0.54935
 B523 B 0.00415 1.02870 0.59419
 B524 B 0.01581 1.02329 0.55625
 B525 B -0.00733 1.04518 0.56039
 B526 B -0.02719 1.03479 0.59034
 B527 B -0.01595 1.00637 0.60357
 B528 B 0.01072 0.99941 0.58247
 B529 B 0.75503 0.21941 0.24751
 B530 B 0.75401 0.20745 0.28678
 B531 B 0.77523 0.22893 0.27792
 B532 B 0.76232 0.24975 0.24949
 B533 B 0.73224 0.24127 0.24197
 B534 B 0.72714 0.21478 0.26528
 B535 B 0.73632 0.25136 0.30791
 B536 B 0.73806 0.26366 0.26912
 B537 B 0.71657 0.24204 0.27803
 B538 B 0.72957 0.22101 0.30622
 B539 B 0.75923 0.22992 0.31376
 B540 B 0.76452 0.25611 0.29049
 B541 B 0.73078 0.77630 0.75065
 B542 B 0.73516 0.78380 0.79079
 B543 B 0.71358 0.76284 0.78041
 B544 B 0.72511 0.74561 0.74958
 B545 B 0.75404 0.75604 0.74074
 B546 B 0.75999 0.77998 0.76588
 B547 B 0.75522 0.73836 0.80539
 B548 B 0.75116 0.73049 0.76562
 B549 B 0.77252 0.75179 0.77501
 B550 B 0.76106 0.76878 0.80619
 B551 B 0.73194 0.75843 0.81492
 B552 B 0.72632 0.73456 0.78944
 B553 B 0.27467 0.26300 0.77341
 B554 B 0.26019 0.27406 0.73812
 B555 B 0.28616 0.25552 0.73633
 B556 B 0.28551 0.23371 0.76742
 B557 B 0.25845 0.23876 0.78840
 B558 B 0.24296 0.26415 0.77037
 B559 B 0.24561 0.22815 0.72469
 B560 B 0.26004 0.21691 0.75974
 B561 B 0.23403 0.23549 0.76160
 B562 B 0.23474 0.25737 0.73068
 B563 B 0.26163 0.25217 0.70987
 B564 B 0.27723 0.22707 0.72771
 B565 B 0.23610 0.73903 0.22811
 B566 B 0.24671 0.72557 0.19365
 B567 B 0.22375 0.74781 0.19096
 B568 B 0.22955 0.76942 0.21923
 B569 B 0.25674 0.76036 0.23929
 B570 B 0.26708 0.73292 0.22380
 B571 B 0.26731 0.76839 0.17361
 B572 B 0.25706 0.78197 0.20809
 B573 B 0.27987 0.75946 0.21122
 B574 B 0.27400 0.73802 0.18285
 B575 B 0.24687 0.74708 0.16286
 B576 B 0.23629 0.77450 0.17868
 B577 B 0.27367 0.71027 0.74002
 B578 B 0.26555 0.69978 0.77837
 B579 B 0.28865 0.71998 0.77504
 B580 B 0.28202 0.74026 0.74300
 B581 B 0.25357 0.73298 0.72703
 B582 B 0.24320 0.70754 0.74905
 B583 B 0.24662 0.74547 0.79120
 B584 B 0.25588 0.75603 0.75379
 B585 B 0.23209 0.73598 0.75700
 B586 B 0.23882 0.71532 0.78905
 B587 B 0.26699 0.72299 0.80500
 B588 B 0.27744 0.74795 0.78330
 B589 B 0.22022 0.28876 0.24878
 B590 B 0.23277 0.29611 0.28599
 B591 B 0.20783 0.27772 0.28429
 B592 B 0.21080 0.25912 0.25171
 B593 B 0.23832 0.26600 0.23317
 B594 B 0.25174 0.28932 0.25421
 B595 B 0.24941 0.24869 0.29629
 B596 B 0.23686 0.24137 0.25957
 B597 B 0.26193 0.25974 0.26099
 B598 B 0.25895 0.27833 0.29366
 B599 B 0.23153 0.27140 0.31215
 B600 B 0.21805 0.24842 0.29095
 B601 B 0.76619 0.77391 0.26044
 B602 B 0.76234 0.78515 0.22100
 B603 B 0.78460 0.76289 0.22904
 B604 B 0.77406 0.74316 0.25916
 B605 B 0.74439 0.75304 0.26834
 B606 B 0.73708 0.77921 0.24449
 B607 B 0.74429 0.74139 0.20268
 B608 B 0.74877 0.72980 0.24178
 B609 B 0.72627 0.75212 0.23362
 B610 B 0.73690 0.77212 0.20381
 B611 B 0.76621 0.76191 0.19469
 B612 B 0.77363 0.73578 0.21847
 B613 B 0.73596 0.22216 0.74132
 B614 B 0.75009 0.20916 0.70861
 B615 B 0.72576 0.22957 0.70261
 B616 B 0.72768 0.25188 0.73068
 B617 B 0.75381 0.24517 0.75447
 B618 B 0.76751 0.21830 0.74107
 B619 B 0.76876 0.25347 0.69087
 B620 B 0.75447 0.26637 0.72301
 B621 B 0.77892 0.24592 0.72969
 B622 B 0.77708 0.22367 0.70124
 B623 B 0.75095 0.23055 0.67734
 B624 B 0.73707 0.25691 0.69092
 C625 C 0.40998 1.04125 0.33436
 C626 C 0.39901 1.01944 0.32329
 C627 C 0.37521 1.02036 0.30810
 C628 C 0.36207 1.04300 0.30068
 C629 C 0.37328 1.06477 0.31176
 C630 C 0.39661 1.06386 0.32856
 C631 C 0.43515 1.03890 0.35203
 C632 C 0.44740 1.05875 0.36676
 C633 C 0.46941 1.05443 0.38630
 C634 C 0.47939 1.03024 0.39179
 C635 C 0.46922 1.01142 0.37287
 C636 C 0.44686 1.01513 0.35489
 C637 C 0.41191 0.99658 0.32692
 C638 C 0.43551 0.99456 0.34176
 H639 H 0.40368 0.97993 0.31794
 H640 H 0.44460 0.97636 0.34414
 H641 H 0.36705 1.00286 0.30277
 H642 H 0.36485 1.08293 0.30657
 H643 H 0.47771 1.06977 0.39853
 H644 H 0.47744 0.99283 0.37429
 H645 H 0.40420 1.08111 0.33614
 H646 H 0.43966 1.07744 0.36462
 C647 C -0.09257 0.51841 0.85437
 C648 C -0.10396 0.49657 0.84405
 C649 C -0.12794 0.49761 0.82926
 C650 C -0.14092 0.52034 0.82235
 C651 C -0.12939 0.54206 0.83310
 C652 C -0.10585 0.54106 0.84904
 C653 C -0.06700 0.51618 0.87074
 C654 C -0.05399 0.53635 0.88350
 C655 C -0.03134 0.53237 0.90165
 C656 C -0.02159 0.50823 0.90799
 C657 C -0.03274 0.48887 0.89108
 C658 C -0.05555 0.49235 0.87410
 C659 C -0.09128 0.47364 0.84802
 C660 C -0.06746 0.47162 0.86226
 H661 H -0.09988 0.45693 0.83987
 H662 H -0.05851 0.45336 0.86493
 H663 H -0.13632 0.48028 0.82352
 H664 H -0.13758 0.56031 0.82786
 H665 H -0.02235 0.54799 0.91233
 H666 H -0.02479 0.47019 0.89313
 H667 H -0.09805 0.55831 0.85621
 H668 H -0.06148 0.55510 0.88082
 C669 C 0.09770 -0.04784 0.86349
 C670 C 0.11279 -0.02674 0.86251
 C671 C 0.13747 -0.02850 0.85182
 C672 C 0.14622 -0.04951 0.83559
 C673 C 0.13134 -0.07071 0.83673
 C674 C 0.10767 -0.07009 0.85146
 C675 C 0.07115 -0.04470 0.87464
 C676 C 0.05584 -0.06447 0.88453
 C677 C 0.03239 -0.05959 0.89909
 C678 C 0.02342 -0.03503 0.90197
 C679 C 0.03669 -0.01617 0.88574
 C680 C 0.06139 -0.02031 0.87673
 C681 C 0.10244 -0.00333 0.86857
 C682 C 0.07692 -0.00002 0.87341
 H683 H 0.11386 0.01291 0.86716
 H684 H 0.06949 0.01865 0.87641
 H685 H 0.14895 -0.01239 0.85324
 H686 H 0.13709 -0.08743 0.82467
 H687 H 0.02238 -0.07477 0.91030
 H688 H 0.02953 0.00282 0.88493
 H689 H 0.09655 -0.08646 0.85084
 H690 H 0.06275 -0.08345 0.88400
 C691 C 0.59491 0.47761 0.38372
 C692 C 0.60597 0.45384 0.38103
 C693 C 0.63064 0.45144 0.36934
 C694 C 0.64489 0.47269 0.36251
 C695 C 0.63477 0.49587 0.37116
 C696 C 0.60997 0.49839 0.38096
 C697 C 0.56776 0.47979 0.39096
 C698 C 0.55399 0.50191 0.38486
 C699 C 0.52961 0.50428 0.39588
 C700 C 0.51892 0.48517 0.41524
 C701 C 0.53091 0.46154 0.41573
 C702 C 0.55532 0.45870 0.40291
 C703 C 0.59218 0.43295 0.39007
 C704 C 0.56773 0.43543 0.40229
 H705 H 0.60071 0.41456 0.38892
 H706 H 0.55830 0.41896 0.41072
 H707 H 0.63800 0.43313 0.36421
 H708 H 0.64563 0.51241 0.36897
 H709 H 0.52031 0.52227 0.39220
 H710 H 0.52223 0.44593 0.42792
 H711 H 0.60271 0.51671 0.38620
 H712 H 0.56209 0.51771 0.37239
 C713 C 0.59944 0.52145 0.16569
 C714 C 0.60846 0.54494 0.17265
 C715 C 0.63168 0.54663 0.18949
 C716 C 0.64668 0.52509 0.19748
 C717 C 0.63879 0.50233 0.18599
 C718 C 0.61539 0.50043 0.17075
 C719 C 0.57358 0.51985 0.15183
 C720 C 0.56129 0.49743 0.15179
 C721 C 0.53872 0.49579 0.13479
 C722 C 0.52805 0.51628 0.11624
 C723 C 0.53773 0.53978 0.12191
 C724 C 0.56071 0.54162 0.13965
 C725 C 0.59418 0.56628 0.16250
 C726 C 0.57125 0.56464 0.14514
 H727 H 0.60121 0.58447 0.16707
 H728 H 0.56146 0.58157 0.13651
 H729 H 0.63744 0.56457 0.19731
 H730 H 0.65040 0.48565 0.18966
 H731 H 0.53079 0.47762 0.13428
 H732 H 0.52843 0.55626 0.11092
 H733 H 0.61004 0.48239 0.16297
 H734 H 0.56918 0.48085 0.16415
 C735 C 0.09483 1.03409 0.66844
 C736 C 0.10862 1.05566 0.67089
 C737 C 0.13315 1.05388 0.68488
 C738 C 0.14450 1.03030 0.69387
 C739 C 0.13176 1.00922 0.68370
 C740 C 0.10710 1.01098 0.67249
 C741 C 0.06815 1.03627 0.65816
 C742 C 0.05190 1.01702 0.66438
 C743 C 0.02871 1.01738 0.64863
 C744 C 0.02185 1.03635 0.62486
 C745 C 0.03536 1.05840 0.62544
 C746 C 0.05894 1.05835 0.64219
 C747 C 0.09775 1.07832 0.65848
 C748 C 0.07389 1.07934 0.64270
 H749 H 0.10829 1.09510 0.65938
 H750 H 0.06696 1.09673 0.63129
 H751 H 0.14252 1.07089 0.68943
 H752 H 0.14045 0.99089 0.68450
 H753 H 0.01780 1.00098 0.65218
 H754 H 0.02857 1.07471 0.61131
 H755 H 0.09789 0.99414 0.66639
 H756 H 0.05749 1.00102 0.67997
 C757 C -0.11233 0.48662 0.61395
 C758 C -0.12485 0.46419 0.61204
 C759 C -0.14629 0.46050 0.63131
 C760 C -0.15655 0.48003 0.64989
 C761 C -0.14685 0.50381 0.64447
 C762 C -0.12448 0.50689 0.62795
 C763 C -0.08733 0.48855 0.59890
 C764 C -0.07063 0.50663 0.60813
 C765 C -0.04827 0.50932 0.59151
 C766 C -0.04257 0.49488 0.56403
 C767 C -0.05826 0.47505 0.55705
 C768 C -0.08001 0.47113 0.57556
 C769 C -0.11583 0.44613 0.59060
 C770 C -0.09465 0.45028 0.57113
 H771 H -0.12579 0.42913 0.58788
 H772 H -0.08907 0.43653 0.55357
 H773 H -0.15411 0.44229 0.63231
 H774 H -0.15577 0.52020 0.65408
 H775 H -0.03659 0.52436 0.59857
 H776 H -0.05480 0.46368 0.53610
 H777 H -0.11691 0.52521 0.62601
 H778 H -0.07487 0.51901 0.62791
 C779 C 0.40597 -0.02781 0.13184
 C780 C 0.38435 -0.03671 0.11593
 C781 C 0.36061 -0.03274 0.12974
 C782 C 0.35809 -0.01944 0.15886
 C783 C 0.37957 -0.01036 0.17415
 C784 C 0.40314 -0.01438 0.16085
 C785 C 0.43077 -0.03137 0.11578
 C786 C 0.45333 -0.02377 0.13018
 C787 C 0.47480 -0.02202 0.11125
 C788 C 0.47431 -0.02798 0.07762
 C789 C 0.45331 -0.04015 0.06536
 C790 C 0.43135 -0.04137 0.08393
 C791 C 0.38655 -0.04880 0.08588
 C792 C 0.40951 -0.05069 0.06990
 H793 H 0.37006 -0.05575 0.07370
 H794 H 0.40997 -0.05871 0.04567
 H795 H 0.34407 -0.03974 0.11773
 H796 H 0.37824 -0.00063 0.19712
 H797 H 0.49104 -0.01385 0.12238
 H798 H 0.45277 -0.04588 0.03993
 H799 H 0.41881 -0.00658 0.17355
 H800 H 0.45445 -0.01776 0.15537
 C801 C 0.35949 0.45900 0.08437
 C802 C 0.34020 0.47738 0.08461
 C803 C 0.31519 0.47081 0.07802
 C804 C 0.30967 0.44591 0.07273
 C805 C 0.32865 0.42760 0.07648
 C806 C 0.35327 0.43397 0.08246
 C807 C 0.38596 0.46686 0.08439
 C808 C 0.40485 0.45131 0.07272
 C809 C 0.42865 0.45984 0.06822
 C810 C 0.43583 0.48337 0.07831
 C811 C 0.41670 0.49938 0.08996
 C812 C 0.39148 0.49164 0.09101
 C813 C 0.34638 0.50194 0.09082
 C814 C 0.37147 0.50871 0.09527
 H815 H 0.33167 0.51611 0.09215
 H816 H 0.37526 0.52789 0.09974
 H817 H 0.30032 0.48492 0.07611
 H818 H 0.32450 0.40829 0.07341
 H819 H 0.44042 0.44822 0.05366
 H820 H 0.42095 0.51834 0.09516
 H821 H 0.36730 0.41915 0.08482
 H822 H 0.40102 0.43323 0.06363
 C823 C -0.14202 0.96781 0.58327
 C824 C -0.14561 0.94879 0.56051
 C825 C -0.16940 0.94022 0.55409
 C826 C -0.19009 0.94845 0.57188
 C827 C -0.18641 0.96533 0.59718
 C828 C -0.16269 0.97558 0.60212
 C829 C -0.11620 0.97815 0.58617
 C830 C -0.11048 1.00026 0.60223
 C831 C -0.08612 1.00998 0.60067
 C832 C -0.06695 0.99744 0.58383
 C833 C -0.07286 0.97480 0.56984
 C834 C -0.09679 0.96581 0.56952
 C835 C -0.12543 0.93780 0.54455
 C836 C -0.10139 0.94553 0.54995
 H837 H -0.12820 0.92277 0.52789
 H838 H -0.08629 0.93631 0.53704
 H839 H -0.17167 0.92603 0.53595
 H840 H -0.20206 0.97157 0.61180
 H841 H -0.08253 1.02752 0.61170
 H842 H -0.05950 0.96499 0.55510
 H843 H -0.16065 0.98927 0.62079
 H844 H -0.12490 1.01069 0.61465
 C845 C -0.14377 0.03558 0.92180
 C846 C -0.16350 0.01912 0.91811
 C847 C -0.18856 0.02821 0.92018
 C848 C -0.19357 0.05372 0.92395
 C849 C -0.17381 0.07008 0.92353
 C850 C -0.14917 0.06119 0.92240
 C851 C -0.11777 0.02515 0.92616
 C852 C -0.09930 0.03882 0.94106
 C853 C -0.07587 0.02834 0.94786
 C854 C -0.06866 0.00451 0.93747
 C855 C -0.08762 -0.00989 0.92365
 C856 C -0.11256 0.00001 0.91968
 C857 C -0.15773 -0.00601 0.91281
 C858 C -0.13270 -0.01512 0.91210
 H859 H -0.17270 -0.01875 0.90896
 H860 H -0.12922 -0.03457 0.90768
 H861 H -0.20394 0.01558 0.91958
 H862 H -0.17743 0.08980 0.92570
 H863 H -0.06405 0.03897 0.96341
 H864 H -0.08343 -0.02904 0.91816
 H865 H -0.13452 0.07455 0.92265
 H866 H -0.10320 0.05708 0.95012
 C867 C 0.34886 0.55045 0.41880
 C868 C 0.34203 0.57379 0.43159
 C869 C 0.31728 0.58288 0.42895
 C870 C 0.29866 0.56885 0.41483
 C871 C 0.30510 0.54599 0.40147
 C872 C 0.33006 0.53691 0.40314
 C873 C 0.37540 0.54079 0.42454
 C874 C 0.38493 0.51807 0.41277
 C875 C 0.40957 0.50956 0.42091
 C876 C 0.42507 0.52328 0.44140
 C877 C 0.41538 0.54588 0.45277
 C878 C 0.39148 0.55497 0.44386
 C879 C 0.35954 0.58747 0.44861
 C880 C 0.38364 0.57809 0.45506
 H881 H 0.35427 0.60534 0.45822
 H882 H 0.39630 0.58907 0.46934
 H883 H 0.31209 0.60042 0.43964
 H884 H 0.29071 0.53486 0.39078
 H885 H 0.41622 0.49197 0.41183
 H886 H 0.42602 0.55633 0.47013
 H887 H 0.33415 0.51898 0.39321
 H888 H 0.37358 0.50666 0.39747
 C889 C 0.12715 0.54819 0.54966
 C890 C 0.14540 0.53545 0.53107
 C891 C 0.16933 0.54509 0.52723
 C892 C 0.17529 0.56793 0.54045
 C893 C 0.15737 0.58027 0.55947
 C894 C 0.13363 0.57055 0.56411
 C895 C 0.10109 0.53850 0.55039
 C896 C 0.08153 0.54951 0.56835
 C897 C 0.05672 0.54279 0.56307
 C898 C 0.05084 0.52559 0.53909
 C899 C 0.07062 0.51161 0.52557
 C900 C 0.09558 0.51819 0.53064
 C901 C 0.13925 0.51395 0.51475
 C902 C 0.11478 0.50568 0.51417
 H903 H 0.15324 0.50415 0.50063
 H904 H 0.11063 0.48987 0.49947
 H905 H 0.18310 0.53523 0.51278
 H906 H 0.16131 0.59806 0.56960
 H907 H 0.04201 0.55237 0.57614
 H908 H 0.06666 0.49707 0.50861
 H909 H 0.12028 0.58133 0.57784
 H910 H 0.08491 0.56392 0.58558
 C911 C 0.64595 0.02247 0.06066
 C912 C 0.65040 0.04380 0.07893
 C913 C 0.67334 0.05573 0.07624
 C914 C 0.69241 0.04644 0.05604
 C915 C 0.68867 0.02398 0.04038
 C916 C 0.66570 0.01227 0.04231
 C917 C 0.61989 0.01267 0.06016
 C918 C 0.61247 -0.00626 0.03932
 C919 C 0.58708 -0.01138 0.03514
 C920 C 0.56855 0.00195 0.05214
 C921 C 0.57634 0.01797 0.07660
 C922 C 0.60150 0.02446 0.07945
 C923 C 0.63165 0.05382 0.09876
 C924 C 0.60779 0.04405 0.09945
 H925 H 0.63521 0.06988 0.11326
 H926 H 0.59368 0.05299 0.11433
 H927 H 0.67555 0.07305 0.08845
 H928 H 0.70332 0.01569 0.02579
 H929 H 0.58198 -0.02462 0.01689
 H930 H 0.56277 0.02686 0.09194
 H931 H 0.66365 -0.00440 0.02871
 H932 H 0.62569 -0.01615 0.02434
 C933 C 0.64936 0.96466 0.42390
 C934 C 0.65403 0.93968 0.43498
 C935 C 0.67844 0.92972 0.43707
 C936 C 0.69879 0.94451 0.43053
 C937 C 0.69466 0.96928 0.41975
 C938 C 0.67008 0.97922 0.41588
 C939 C 0.62276 0.97478 0.42415
 C940 C 0.61485 0.99862 0.41163
 C941 C 0.58973 1.00719 0.41478
 C942 C 0.57229 0.99245 0.43138
 C943 C 0.58073 0.96896 0.44395
 C944 C 0.60475 0.95963 0.43889
 C945 C 0.63460 0.92514 0.44641
 C946 C 0.61063 0.93515 0.44932
 H947 H 0.63826 0.90611 0.45498
 H948 H 0.59640 0.92349 0.45990
 H949 H 0.68184 0.91077 0.44630
 H950 H 0.71040 0.98105 0.41525
 H951 H 0.58424 1.02558 0.40531
 H952 H 0.56901 0.95780 0.45955
 H953 H 0.66761 0.99850 0.40819
 H954 H 0.62782 1.01076 0.39945
 C955 C 0.14951 0.45217 0.91900
 C956 C 0.16696 0.47111 0.91568
 C957 C 0.19284 0.46492 0.91782
 C958 C 0.20100 0.43991 0.92109
 C959 C 0.18342 0.42128 0.91959
 C960 C 0.15791 0.42728 0.91862
 C961 C 0.12283 0.45926 0.92458
 C962 C 0.10688 0.44268 0.94014
 C963 C 0.08305 0.45035 0.94891
 C964 C 0.07299 0.47406 0.93960
 C965 C 0.08926 0.49114 0.92463
 C966 C 0.11462 0.48418 0.91903
 C967 C 0.15818 0.49580 0.91111
 C968 C 0.13238 0.50204 0.91116
 H969 H 0.17136 0.51046 0.90744
 H970 H 0.12651 0.52132 0.90744
 H971 H 0.20648 0.47937 0.91815
 H972 H 0.18942 0.40193 0.92155
 H973 H 0.07335 0.43780 0.96514
 H974 H 0.08288 0.51018 0.91993
 H975 H 0.14496 0.41229 0.91862
 H976 H 0.11329 0.42429 0.94839
 C977 C -0.01216 0.38805 0.45948
 C978 C -0.01099 0.38537 0.42469
 C979 C -0.00681 0.36195 0.41170
 C980 C -0.00397 0.34091 0.43275
 C981 C -0.00657 0.34320 0.46702
 C982 C -0.01056 0.36653 0.48035
 C983 C -0.01419 0.41378 0.47234
 C984 C -0.01305 0.41895 0.50639
 C985 C -0.01317 0.44345 0.51672
 C986 C -0.01523 0.46347 0.49353
 C987 C -0.01629 0.45819 0.45962
 C988 C -0.01582 0.43388 0.44897
 C989 C -0.01328 0.40609 0.40300
 C990 C -0.01586 0.42981 0.41488
 H991 H -0.01267 0.40397 0.37640
 H992 H -0.01720 0.44530 0.39704
 H993 H -0.00507 0.36010 0.38513
 H994 H -0.00443 0.32702 0.48359
 H995 H -0.01115 0.44670 0.54296
 H996 H -0.01644 0.47301 0.44085
 H997 H -0.01182 0.36738 0.50695
 H998 H -0.01126 0.40437 0.52533
 C999 C 0.50116 -0.12609 -0.03541
 C1000 C 0.50487 -0.12796 -0.06993
 C1001 C 0.50976 -0.15115 -0.08339
 C1002 C 0.51107 -0.17273 -0.06301
 C1003 C 0.50664 -0.17100 -0.02900
 C1004 C 0.50175 -0.14801 -0.01531
 C1005 C 0.49776 -0.10075 -0.02175
 C1006 C 0.49570 -0.09671 0.01241
 C1007 C 0.49547 -0.07274 0.02420
 C1008 C 0.49655 -0.05201 0.00232
 C1009 C 0.49724 -0.05593 -0.03195
 C1010 C 0.49816 -0.07995 -0.04402
 C1011 C 0.50417 -0.10667 -0.09076
 C1012 C 0.50082 -0.08318 -0.07810
 H1013 H 0.50677 -0.10814 -0.11723
 H1014 H 0.50104 -0.06725 -0.09520
 H1015 H 0.51270 -0.15245 -0.10982
 H1016 H 0.50758 -0.18745 -0.01282
 H1017 H 0.49569 -0.07063 0.05077
 H1018 H 0.49876 -0.04037 -0.04940
 H1019 H 0.49882 -0.14782 0.01106
 H1020 H 0.49533 -0.11178 0.03060
 C1021 C -0.00683 -0.14563 1.01934
 C1022 C -0.02598 -0.16076 1.00762
 C1023 C -0.03080 -0.18329 1.02458
 C1024 C -0.01602 -0.19134 1.05224
 C1025 C 0.00405 -0.17718 1.06229
 C1026 C 0.00861 -0.15455 1.04617
 C1027 C -0.00417 -0.12050 1.00316
 C1028 C 0.01078 -0.10255 1.01714
 C1029 C 0.01076 -0.07860 1.00352
 C1030 C -0.00288 -0.07182 0.97417
 C1031 C -0.01754 -0.08990 0.95960
 C1032 C -0.01893 -0.11384 0.97454
 C1033 C -0.04014 -0.15320 0.97922
 C1034 C -0.03624 -0.13053 0.96255
 H1035 H -0.05449 -0.16498 0.96975
 H1036 H -0.04777 -0.12552 0.94082
 H1037 H -0.04603 -0.19456 1.01640
 H1038 H 0.01583 -0.18338 1.08330
 H1039 H 0.02129 -0.06512 1.01672
 H1040 H -0.02926 -0.08489 0.93805
 H1041 H 0.02424 -0.14434 1.05514
 H1042 H 0.02154 -0.10618 1.03975
 C1043 C 0.48258 0.37192 0.52300
 C1044 C 0.49084 0.36763 0.55642
 C1045 C 0.48828 0.34444 0.57219
 C1046 C 0.47737 0.32529 0.55547
 C1047 C 0.46939 0.32907 0.52238
 C1048 C 0.47197 0.35220 0.50618
 C1049 C 0.48476 0.39751 0.50773
 C1050 C 0.47741 0.40426 0.47469
 C1051 C 0.47865 0.42893 0.46267
 C1052 C 0.48726 0.44737 0.48330
 C1053 C 0.49493 0.44035 0.51600
 C1054 C 0.49421 0.41597 0.52798
 C1055 C 0.50107 0.38661 0.57436
 C1056 C 0.50257 0.41032 0.56050
 H1057 H 0.50751 0.38323 0.59981
 H1058 H 0.51015 0.42457 0.57569
 H1059 H 0.49439 0.34131 0.59784
 H1060 H 0.46087 0.31424 0.50929
 H1061 H 0.47229 0.43364 0.43754
 H1062 H 0.50204 0.45396 0.53255
 H1063 H 0.46525 0.35441 0.48083
 H1064 H 0.47034 0.39084 0.45800
 C1065 C 0.50706 1.13922 0.50409
 C1066 C 0.52623 1.15493 0.49347
 C1067 C 0.53076 1.17661 0.51066
 C1068 C 0.51561 1.18313 0.53737
 C1069 C 0.49505 1.16878 0.54541
 C1070 C 0.49074 1.14709 0.52896
 C1071 C 0.50543 1.11444 0.48926
 C1072 C 0.49167 1.09560 0.50423
 C1073 C 0.49267 1.07193 0.49223
 C1074 C 0.50606 1.06632 0.46346
 C1075 C 0.51984 1.08523 0.44811
 C1076 C 0.52043 1.10893 0.46173
 C1077 C 0.54077 1.14861 0.46616
 C1078 C 0.53733 1.12644 0.44992
 H1079 H 0.55504 1.16093 0.45730
 H1080 H 0.54909 1.12234 0.42905
 H1081 H 0.54620 1.18818 0.50370
 H1082 H 0.48288 1.17381 0.56549
 H1083 H 0.48311 1.05779 0.50632
 H1084 H 0.53154 1.08107 0.42720
 H1085 H 0.47477 1.13657 0.53635
 H1086 H 0.48130 1.09829 0.52661
 C1087 C 0.00905 0.62011 1.01416
 C1088 C 0.02983 0.63440 1.00595
 C1089 C 0.03427 0.65603 1.02319
 C1090 C 0.01692 0.66475 1.04648
 C1091 C -0.00548 0.65204 1.05081
 C1092 C -0.00916 0.62975 1.03536
 C1093 C 0.00753 0.59501 1.00044
 C1094 C -0.00665 0.57670 1.01582
 C1095 C -0.00534 0.55262 1.00515
 C1096 C 0.00796 0.54633 0.97651
 C1097 C 0.02243 0.56471 0.96110
 C1098 C 0.02345 0.58851 0.97427
 C1099 C 0.04574 0.62691 0.98054
 C1100 C 0.04181 0.60500 0.96388
 H1101 H 0.06126 0.63825 0.97324
 H1102 H 0.05447 0.60006 0.94428
 H1103 H 0.05088 0.66640 1.01780
 H1104 H -0.01944 0.65826 1.06810
 H1105 H -0.01476 0.53877 1.01993
 H1106 H 0.03456 0.55994 0.94087
 H1107 H -0.02623 0.62013 1.04039
 H1108 H -0.01730 0.58026 1.03779
 C1109 C 0.49214 0.63426 0.00804
 C1110 C 0.50988 0.64181 -0.01573
 C1111 C 0.50738 0.66530 -0.03191
 C1112 C 0.48543 0.67995 -0.02843
 C1113 C 0.46733 0.67183 -0.00582
 C1114 C 0.47099 0.64973 0.01296
 C1115 C 0.49501 0.60876 0.02384
 C1116 C 0.48130 0.60065 0.05158
 C1117 C 0.48325 0.57586 0.06332
 C1118 C 0.49813 0.55837 0.04690
 C1119 C 0.51191 0.56681 0.01936
 C1120 C 0.51190 0.59189 0.00953
 C1121 C 0.52845 0.62491 -0.02573
 C1122 C 0.52861 0.60015 -0.01462
 H1123 H 0.54187 0.63042 -0.04424
 H1124 H 0.54221 0.58733 -0.02479
 H1125 H 0.52096 0.67072 -0.05030
 H1126 H 0.45020 0.68271 -0.00260
 H1127 H 0.47208 0.57020 0.08426
 H1128 H 0.52279 0.55381 0.00520
 H1129 H 0.45638 0.64424 0.02966
 H1130 H 0.46903 0.61327 0.06433
 C1131 C -0.01106 1.14763 0.50211
 C1132 C -0.03405 1.16077 0.50521
 C1133 C -0.03941 1.18197 0.48473
 C1134 C -0.02108 1.19173 0.46347
 C1135 C 0.00300 1.18038 0.46426
 C1136 C 0.00778 1.15825 0.48268
 C1137 C -0.00791 1.12274 0.51935
 C1138 C 0.00963 1.10501 0.50892
 C1139 C 0.00982 1.08092 0.52230
 C1140 C -0.00541 1.07414 0.54924
 C1141 C -0.02306 1.09204 0.55984
 C1142 C -0.02541 1.11563 0.54357
 C1143 C -0.05129 1.15261 0.52883
 C1144 C -0.04646 1.13114 0.54875
 H1145 H -0.06864 1.16309 0.53221
 H1146 H -0.06027 1.12572 0.56677
 H1147 H -0.05765 1.19128 0.48596
 H1148 H 0.01766 1.18750 0.44867
 H1149 H 0.02155 1.06735 0.51040
 H1150 H -0.03655 1.08687 0.57842
 H1151 H 0.02622 1.14952 0.48141
 H1152 H 0.02188 1.10894 0.48846
 C1153 C 0.76986 0.64704 0.88700
 C1154 C 0.79385 0.63589 0.89182
 C1155 C 0.79661 0.61327 0.91032
 C1156 C 0.77540 0.60107 0.92319
 C1157 C 0.75151 0.61109 0.91372
 C1158 C 0.74878 0.63370 0.89628
 C1159 C 0.76765 0.67233 0.87109
 C1160 C 0.74543 0.68660 0.87211
 C1161 C 0.74301 0.70890 0.85428
 C1162 C 0.76257 0.71774 0.83428
 C1163 C 0.78623 0.70554 0.83775
 C1164 C 0.78882 0.68268 0.85600
 C1165 C 0.81473 0.64752 0.87808
 C1166 C 0.81211 0.66997 0.85947
 H1167 H 0.83325 0.63889 0.88113
 H1168 H 0.82858 0.67772 0.84829
 H1169 H 0.81546 0.60636 0.91603
 H1170 H 0.73454 0.60158 0.91960
 H1171 H 0.72483 0.71831 0.85469
 H1172 H 0.80226 0.71320 0.82544
 H1173 H 0.72996 0.64044 0.89005
 H1174 H 0.72952 0.68057 0.88613
 C1175 C 0.26821 0.15704 0.37789
 C1176 C 0.25560 0.15563 0.40845
 C1177 C 0.25594 0.13339 0.42758
 C1178 C 0.26940 0.11215 0.41758
 C1179 C 0.28143 0.11359 0.38668
 C1180 C 0.28059 0.13550 0.36700
 C1181 C 0.26749 0.18140 0.35850
 C1182 C 0.27941 0.18505 0.32785
 C1183 C 0.27608 0.20744 0.30947
 C1184 C 0.26078 0.22686 0.32102
 C1185 C 0.25093 0.22402 0.35305
 C1186 C 0.25380 0.20156 0.37144
 C1187 C 0.24301 0.17658 0.42022
 C1188 C 0.24207 0.19899 0.40210
 H1189 H 0.23355 0.17560 0.44379
 H1190 H 0.23171 0.21450 0.41212
 H1191 H 0.24708 0.13346 0.45154
 H1192 H 0.29123 0.09759 0.37715
 H1193 H 0.28406 0.20868 0.28506
 H1194 H 0.23930 0.23865 0.36300
 H1195 H 0.28992 0.13522 0.34348
 H1196 H 0.29057 0.17054 0.31704
 C1197 C 0.71792 0.33750 0.38943
 C1198 C 0.73950 0.35149 0.39508
 C1199 C 0.73739 0.37479 0.40896
 C1200 C 0.71433 0.38390 0.42036
 C1201 C 0.69283 0.37002 0.41475
 C1202 C 0.69451 0.34735 0.39899
 C1203 C 0.72123 0.31272 0.37401
 C1204 C 0.70113 0.29800 0.36419
 C1205 C 0.70556 0.27651 0.34624
 C1206 C 0.73009 0.26919 0.33808
 C1207 C 0.75005 0.28181 0.35234
 C1208 C 0.74592 0.30405 0.36809
 C1209 C 0.76334 0.34182 0.38816
 C1210 C 0.76652 0.31836 0.37570
 H1211 H 0.77988 0.35237 0.39303
 H1212 H 0.78542 0.31169 0.37082
 H1213 H 0.75409 0.38545 0.41197
 H1214 H 0.67473 0.37610 0.42367
 H1215 H 0.68972 0.26680 0.33672
 H1216 H 0.76929 0.27579 0.34845
 H1217 H 0.67749 0.33738 0.39567
 H1218 H 0.68189 0.30360 0.36834
 C1219 C 0.23141 0.83587 0.86275
 C1220 C 0.21425 0.85405 0.84921
 C1221 C 0.21385 0.87812 0.86130
 C1222 C 0.23072 0.88496 0.88645
 C1223 C 0.24866 0.86683 0.89830
 C1224 C 0.24898 0.84282 0.88672
 C1225 C 0.23109 0.81032 0.84960
 C1226 C 0.24609 0.79051 0.86316
 C1227 C 0.24827 0.76828 0.84678
 C1228 C 0.23559 0.76522 0.81642
 C1229 C 0.21773 0.78360 0.80562
 C1230 C 0.21555 0.80613 0.82180
 C1231 C 0.19798 0.84824 0.82316
 C1232 C 0.19899 0.82495 0.80927
 H1233 H 0.18489 0.86220 0.81255
 H1234 H 0.18691 0.82175 0.78809
 H1235 H 0.20073 0.89164 0.85025
 H1236 H 0.26174 0.87033 0.91821
 H1237 H 0.26165 0.75434 0.85665
 H1238 H 0.20740 0.78172 0.78265
 H1239 H 0.26315 0.82996 0.89700
 H1240 H 0.25709 0.79215 0.88562
 C1241 C 0.28624 0.85026 0.08000
 C1242 C 0.26422 0.85833 0.06232
 C1243 C 0.26300 0.88124 0.04533
 C1244 C 0.28436 0.89565 0.04107
 C1245 C 0.30646 0.88744 0.05879
 C1246 C 0.30721 0.86538 0.07838
 C1247 C 0.28574 0.82614 0.09978
 C1248 C 0.30479 0.81758 0.12259
 C1249 C 0.30104 0.79687 0.14399
 C1250 C 0.27835 0.78440 0.14286
 C1251 C 0.26177 0.79034 0.11600
 C1252 C 0.26421 0.81183 0.09657
 C1253 C 0.24347 0.84326 0.06072
 C1254 C 0.24384 0.82010 0.07646
 H1255 H 0.22677 0.84929 0.04661
 H1256 H 0.22724 0.80912 0.07442
 H1257 H 0.24485 0.88748 0.03552
 H1258 H 0.32376 0.89719 0.05689
 H1259 H 0.31537 0.79142 0.16225
 H1260 H 0.24479 0.78017 0.11266
 H1261 H 0.32459 0.85996 0.09113
 H1262 H 0.32191 0.82748 0.12551
 C1263 C 0.79035 0.33845 0.60528
 C1264 C 0.77813 0.33939 0.57383
 C1265 C 0.77525 0.36191 0.55572
 C1266 C 0.78360 0.38402 0.56870
 C1267 C 0.79615 0.38312 0.59957
 C1268 C 0.79958 0.36062 0.61766
 C1269 C 0.79116 0.31427 0.62486
 C1270 C 0.80250 0.31121 0.65654
 C1271 C 0.79845 0.29000 0.67631
 C1272 C 0.78295 0.27130 0.66505
 C1273 C 0.77489 0.27265 0.63166
 C1274 C 0.77848 0.29405 0.61180
 C1275 C 0.76791 0.31806 0.56110
 C1276 C 0.76785 0.29594 0.57983
 H1277 H 0.75879 0.31877 0.53685
 H1278 H 0.75853 0.28033 0.56956
 H1279 H 0.76609 0.36229 0.53149
 H1280 H 0.80278 0.39994 0.61010
 H1281 H 0.80517 0.28986 0.70169
 H1282 H 0.76346 0.25823 0.62196
 H1283 H 0.80878 0.36110 0.64163
 H1284 H 0.81316 0.32563 0.66735
 C1285 C 0.23213 0.14898 0.63244
 C1286 C 0.22292 0.12630 0.64493
 C1287 C 0.22411 0.10522 0.62547
 C1288 C 0.23442 0.10641 0.59356
 C1289 C 0.24454 0.12872 0.58208
 C1290 C 0.24358 0.14964 0.60124
 C1291 C 0.23022 0.17115 0.65352
 C1292 C 0.23740 0.19476 0.64234
 C1293 C 0.23919 0.21388 0.66433
 C1294 C 0.23382 0.21008 0.69814
 C1295 C 0.22261 0.18783 0.70802
 C1296 C 0.22124 0.16818 0.68614
 C1297 C 0.21260 0.12489 0.67668
 C1298 C 0.21204 0.14532 0.69699
 H1299 H 0.20539 0.10758 0.68628
 H1300 H 0.20463 0.14307 0.72173
 H1301 H 0.21660 0.08800 0.63492
 H1302 H 0.25227 0.13045 0.55749
 H1303 H 0.24653 0.23114 0.65490
 H1304 H 0.21673 0.18499 0.73335
 H1305 H 0.25171 0.16617 0.59095
 H1306 H 0.24265 0.19863 0.61703
 C1307 C 0.72952 0.65720 0.11675
 C1308 C 0.75214 0.64466 0.10834
 C1309 C 0.75169 0.62124 0.09449
 C1310 C 0.72891 0.61040 0.08658
 C1311 C 0.70643 0.62342 0.09381
 C1312 C 0.70670 0.64624 0.10908
 C1313 C 0.73109 0.68154 0.13351
 C1314 C 0.71019 0.69460 0.14634
 C1315 C 0.71352 0.71557 0.16551
 C1316 C 0.73770 0.72367 0.17251
 C1317 C 0.75785 0.71282 0.15542
 C1318 C 0.75505 0.69135 0.13786
 C1319 C 0.77517 0.65571 0.11314
 C1320 C 0.77654 0.67882 0.12687
 H1321 H 0.79244 0.64641 0.10603
 H1322 H 0.79490 0.68651 0.13028
 H1323 H 0.76927 0.61164 0.08962
 H1324 H 0.68839 0.61638 0.08692
 H1325 H 0.69735 0.72444 0.17644
 H1326 H 0.77663 0.71966 0.15810
 H1327 H 0.68891 0.65530 0.11394
 H1328 H 0.69137 0.68820 0.14325
 C1329 C 0.21345 0.62301 0.18293
 C1330 C 0.22381 0.60503 0.20596
 C1331 C 0.21317 0.58160 0.20928
 C1332 C 0.19128 0.57603 0.19138
 C1333 C 0.18097 0.59407 0.16873
 C1334 C 0.19195 0.61714 0.16436
 C1335 C 0.22476 0.64815 0.18117
 C1336 C 0.21694 0.66687 0.15780
 C1337 C 0.22565 0.69088 0.16003
 C1338 C 0.24193 0.69707 0.18598
 C1339 C 0.25215 0.67776 0.20685
 C1340 C 0.24370 0.65345 0.20461
 C1341 C 0.24395 0.61089 0.22671
 C1342 C 0.25333 0.63472 0.22654
 H1343 H 0.25187 0.59715 0.24444
 H1344 H 0.26804 0.63864 0.24427
 H1345 H 0.22169 0.56792 0.22659
 H1346 H 0.16382 0.59077 0.15512
 H1347 H 0.21890 0.70473 0.14186
 H1348 H 0.26550 0.68180 0.22630
 H1349 H 0.18277 0.63045 0.14728
 H1350 H 0.20381 0.66343 0.13798
 C1351 C 0.71853 0.10727 0.69176
 C1352 C 0.72634 0.08887 0.71579
 C1353 C 0.71448 0.06592 0.71719
 C1354 C 0.69365 0.06152 0.69639
 C1355 C 0.68575 0.08026 0.67313
 C1356 C 0.69810 0.10262 0.67058
 C1357 C 0.73082 0.13184 0.69186
 C1358 C 0.72589 0.15042 0.66723
 C1359 C 0.73435 0.17427 0.67118
 C1360 C 0.74739 0.18049 0.70011
 C1361 C 0.75568 0.16110 0.72232
 C1362 C 0.74750 0.13677 0.71825
 C1363 C 0.74494 0.09402 0.73937
 C1364 C 0.75487 0.11763 0.74108
 H1365 H 0.75091 0.08000 0.75797
 H1366 H 0.76802 0.12111 0.76101
 H1367 H 0.72113 0.05178 0.73520
 H1368 H 0.66931 0.07817 0.65753
 H1369 H 0.72968 0.18803 0.65192
 H1370 H 0.76685 0.16516 0.74403
 H1371 H 0.69062 0.11648 0.65289
 H1372 H 0.71510 0.14702 0.64507
 C1373 C 0.79836 0.10597 0.29960
 C1374 C 0.79459 0.09073 0.32792
 C1375 C 0.80731 0.06737 0.33098
 C1376 C 0.82203 0.05868 0.30457
 C1377 C 0.82377 0.07384 0.27568
 C1378 C 0.81196 0.09681 0.27307
 C1379 C 0.78745 0.13140 0.29812
 C1380 C 0.79631 0.14889 0.27556
 C1381 C 0.78563 0.17217 0.27328
 C1382 C 0.76518 0.17940 0.29294
 C1383 C 0.75741 0.16241 0.31789
 C1384 C 0.76924 0.13847 0.32122
 C1385 C 0.77755 0.09888 0.35185
 C1386 C 0.76432 0.12187 0.34782
 H1387 H 0.77388 0.08712 0.37342
 H1388 H 0.75088 0.12707 0.36636
 H1389 H 0.80473 0.05563 0.35293
 H1390 H 0.83527 0.06856 0.25507
 H1391 H 0.79399 0.18455 0.25536
 H1392 H 0.74292 0.16790 0.33487
 H1393 H 0.81362 0.10710 0.24982
 H1394 H 0.81213 0.14524 0.25994
 C1395 C 0.30059 0.59569 0.80085
 C1396 C 0.29106 0.58030 0.82615
 C1397 C 0.30062 0.55560 0.83029
 C1398 C 0.31735 0.54580 0.80678
 C1399 C 0.32447 0.56116 0.77993
 C1400 C 0.31639 0.58563 0.77710
 C1401 C 0.29270 0.62215 0.79889
 C1402 C 0.30668 0.63912 0.78114
 C1403 C 0.29813 0.66316 0.77675
 C1404 C 0.27499 0.67171 0.78954
 C1405 C 0.26209 0.65519 0.81073
 C1406 C 0.27153 0.63041 0.81633
 C1407 C 0.27139 0.58967 0.84551
 C1408 C 0.26099 0.61384 0.83954
 H1409 H 0.26327 0.57788 0.86450
 H1410 H 0.24515 0.61985 0.85398
 H1411 H 0.29398 0.54375 0.85030
 H1412 H 0.33737 0.55461 0.76148
 H1413 H 0.30957 0.67462 0.76111
 H1414 H 0.24511 0.66147 0.82260
 H1415 H 0.32240 0.59636 0.75572
 H1416 H 0.32440 0.63411 0.77025
 C1417 C 0.28382 0.37773 0.70934
 C1418 C 0.30322 0.38098 0.68618
 C1419 C 0.31670 0.40295 0.68531
 C1420 C 0.31059 0.42209 0.70667
 C1421 C 0.28923 0.41985 0.72645
 C1422 C 0.27619 0.39792 0.72810
 C1423 C 0.27307 0.35260 0.71387
 C1424 C 0.25752 0.34608 0.74055
 C1425 C 0.25149 0.32136 0.74686
 C1426 C 0.26056 0.30269 0.72646
 C1427 C 0.27300 0.30976 0.69740
 C1428 C 0.28077 0.33404 0.69216
 C1429 C 0.30952 0.36198 0.66485
 C1430 C 0.29798 0.33921 0.66716
 H1431 H 0.32388 0.36460 0.64647
 H1432 H 0.30391 0.32488 0.65059
 H1433 H 0.33274 0.40447 0.66934
 H1434 H 0.28304 0.43486 0.74172
 H1435 H 0.24128 0.31673 0.76909
 H1436 H 0.27837 0.29610 0.67989
 H1437 H 0.26050 0.39698 0.74457
 H1438 H 0.25132 0.35944 0.75814
 C1439 C 0.80104 0.88628 0.21251
 C1440 C 0.79518 0.90294 0.18581
 C1441 C 0.80682 0.92613 0.18442
 C1442 C 0.82226 0.93329 0.21127
 C1443 C 0.82538 0.91695 0.23909
 C1444 C 0.81488 0.89404 0.23981
 C1445 C 0.79207 0.86087 0.21155
 C1446 C 0.80395 0.84220 0.23087
 C1447 C 0.79470 0.81897 0.23183
 C1448 C 0.77276 0.81288 0.21395
 C1449 C 0.76224 0.83114 0.19132
 C1450 C 0.77267 0.85509 0.18921
 C1451 C 0.77721 0.89613 0.16196
 C1452 C 0.76524 0.87315 0.16464
 H1453 H 0.77180 0.90899 0.14171
 H1454 H 0.75090 0.86906 0.14649
 H1455 H 0.80302 0.93888 0.16346
 H1456 H 0.83724 0.92117 0.26009
 H1457 H 0.80481 0.80595 0.24838
 H1458 H 0.74653 0.82671 0.17548
 H1459 H 0.81782 0.88248 0.26205
 H1460 H 0.82075 0.84517 0.24536
 C1461 C 0.70543 0.88672 0.81839
 C1462 C 0.68072 0.89089 0.82966
 C1463 C 0.66992 0.91503 0.82838
 C1464 C 0.68329 0.93499 0.81529
 C1465 C 0.70811 0.93093 0.80561
 C1466 C 0.71913 0.90721 0.80729
 C1467 C 0.71532 0.86053 0.81670
 C1468 C 0.73899 0.85451 0.80385
 C1469 C 0.74588 0.83002 0.79805
 C1470 C 0.72947 0.81070 0.80503
 C1471 C 0.70736 0.81625 0.82207
 C1472 C 0.69968 0.84104 0.82666
 C1473 C 0.66661 0.87084 0.84070
 C1474 C 0.67591 0.84645 0.83932
 H1475 H 0.64777 0.87398 0.84959
 H1476 H 0.66389 0.83157 0.84702
 H1477 H 0.65065 0.91806 0.83573
 H1478 H 0.71885 0.94617 0.79588
 H1479 H 0.76368 0.82655 0.78637
 H1480 H 0.69536 0.80148 0.83002
 H1481 H 0.73811 0.90533 0.79881
 H1482 H 0.75207 0.86842 0.79663
 C1483 C 0.20932 0.39931 0.31924
 C1484 C 0.22250 0.41805 0.30228
 C1485 C 0.21340 0.44275 0.30192
 C1486 C 0.19048 0.44911 0.31675
 C1487 C 0.17792 0.43053 0.33442
 C1488 C 0.18723 0.40606 0.33584
 C1489 C 0.21825 0.37288 0.31630
 C1490 C 0.20652 0.35297 0.33238
 C1491 C 0.21279 0.32864 0.32482
 C1492 C 0.23069 0.32331 0.30073
 C1493 C 0.24489 0.34292 0.28796
 C1494 C 0.23854 0.36763 0.29523
 C1495 C 0.24374 0.41180 0.28396
 C1496 C 0.25140 0.38714 0.28016
 H1497 H 0.25388 0.42614 0.27096
 H1498 H 0.26709 0.38325 0.26424
 H1499 H 0.22362 0.45688 0.28861
 H1500 H 0.16006 0.43453 0.34570
 H1501 H 0.20276 0.31406 0.33721
 H1502 H 0.25954 0.33920 0.27037
 H1503 H 0.17611 0.39254 0.34864
 H1504 H 0.19196 0.35577 0.35020
 C1505 C 0.13195 0.22867 0.81542
 C1506 C 0.13006 0.23215 0.84996
 C1507 C 0.10662 0.23715 0.86396
 C1508 C 0.08477 0.23882 0.84413
 C1509 C 0.08635 0.23375 0.81037
 C1510 C 0.10964 0.22875 0.79610
 C1511 C 0.15770 0.22648 0.80091
 C1512 C 0.16193 0.22533 0.76656
 C1513 C 0.18625 0.22644 0.75412
 C1514 C 0.20711 0.22822 0.77556
 C1515 C 0.20299 0.22803 0.80994
 C1516 C 0.17871 0.22740 0.82262
 C1517 C 0.15165 0.23166 0.87018
 C1518 C 0.17544 0.22919 0.85684
 H1519 H 0.15018 0.23394 0.89668
 H1520 H 0.19157 0.22966 0.87347
 H1521 H 0.10544 0.24074 0.89019
 H1522 H 0.06967 0.23491 0.79464
 H1523 H 0.18850 0.22718 0.72750
 H1524 H 0.21861 0.22982 0.82710
 H1525 H 0.10984 0.22574 0.76981
 H1526 H 0.14666 0.22469 0.74878
 C1527 C 0.62145 0.75488 0.27922
 C1528 C 0.60590 0.77472 0.26653
 C1529 C 0.58319 0.78042 0.28218
 C1530 C 0.57545 0.76591 0.30951
 C1531 C 0.58975 0.74487 0.31991
 C1532 C 0.61253 0.73936 0.30500
 C1533 C 0.64713 0.75174 0.26546
 C1534 C 0.66565 0.73662 0.28163
 C1535 C 0.69008 0.73624 0.27053
 C1536 C 0.69691 0.74967 0.24158
 C1537 C 0.67828 0.76461 0.22487
 C1538 C 0.65377 0.76647 0.23742
 C1539 C 0.61336 0.78883 0.23874
 C1540 C 0.63648 0.78428 0.22387
 H1541 H 0.60120 0.80370 0.22843
 H1542 H 0.64144 0.79580 0.20259
 H1543 H 0.57173 0.79634 0.27353
 H1544 H 0.58377 0.73326 0.34057
 H1545 H 0.70388 0.72565 0.28552
 H1546 H 0.68327 0.77624 0.20371
 H1547 H 0.62300 0.72310 0.31424
 H1548 H 0.66206 0.72615 0.30423
 C1549 C 0.60959 0.23882 0.24049
 C1550 C 0.60150 0.25367 0.21240
 C1551 C 0.57831 0.24969 0.19696
 C1552 C 0.56371 0.23001 0.20765
 C1553 C 0.57153 0.21530 0.23543
 C1554 C 0.59405 0.21983 0.25202
 C1555 C 0.63540 0.24236 0.25449
 C1556 C 0.64499 0.22964 0.28335
 C1557 C 0.67027 0.23124 0.29274
 C1558 C 0.68666 0.24543 0.27349
 C1559 C 0.67663 0.25915 0.24575
 C1560 C 0.65126 0.25837 0.23687
 C1561 C 0.61740 0.27109 0.19827
 C1562 C 0.64199 0.27292 0.20970
 H1563 H 0.61123 0.28246 0.17682
 H1564 H 0.65406 0.28565 0.19673
 H1565 H 0.57251 0.26064 0.17493
 H1566 H 0.56048 0.19984 0.24371
 H1567 H 0.67722 0.22029 0.31413
 H1568 H 0.68881 0.27008 0.23021
 H1569 H 0.59958 0.20753 0.27268
 H1570 H 0.63338 0.21795 0.29850
 C1571 C 0.12721 0.74176 0.70706
 C1572 C 0.10775 0.74020 0.73037
 C1573 C 0.08277 0.73809 0.71926
 C1574 C 0.07724 0.73668 0.68524
 C1575 C 0.09651 0.73829 0.66235
 C1576 C 0.12113 0.74091 0.67297
 C1577 C 0.15362 0.74301 0.71963
 C1578 C 0.17388 0.74476 0.69812
 C1579 C 0.19827 0.74350 0.71035
 C1580 C 0.20365 0.74140 0.74465
 C1581 C 0.18341 0.74056 0.76657
 C1582 C 0.15845 0.74149 0.75427
 C1583 C 0.11353 0.73992 0.76446
 C1584 C 0.13835 0.74031 0.77615
 H1585 H 0.09867 0.73874 0.78239
 H1586 H 0.14187 0.73942 0.80272
 H1587 H 0.06778 0.73658 0.73698
 H1588 H 0.09245 0.73733 0.63601
 H1589 H 0.21292 0.74374 0.69216
 H1590 H 0.18704 0.73844 0.79306
 H1591 H 0.13504 0.74165 0.65396
 H1592 H 0.17152 0.74657 0.67157
 C1593 C 0.87805 0.75866 0.73337
 C1594 C 0.89102 0.77923 0.74446
 C1595 C 0.91378 0.78553 0.72974
 C1596 C 0.92504 0.77014 0.70627
 C1597 C 0.91331 0.74800 0.69867
 C1598 C 0.88992 0.74257 0.71150
 C1599 C 0.85214 0.75485 0.74544
 C1600 C 0.83515 0.74051 0.72828
 C1601 C 0.81038 0.73937 0.73815
 C1602 C 0.80212 0.75044 0.76737
 C1603 C 0.81918 0.76504 0.78452
 C1604 C 0.84356 0.76844 0.77252
 C1605 C 0.88129 0.79291 0.77051
 C1606 C 0.85860 0.78685 0.78530
 H1607 H 0.89154 0.80825 0.77995
 H1608 H 0.85201 0.79777 0.80561
 H1609 H 0.92322 0.80189 0.73754
 H1610 H 0.92138 0.73552 0.68102
 H1611 H 0.79753 0.72980 0.72239
 H1612 H 0.81289 0.77550 0.80540
 H1613 H 0.88132 0.72571 0.70421
 H1614 H 0.84029 0.73150 0.70577
 C1615 C 0.36448 0.25032 0.20674
 C1616 C 0.36630 0.25545 0.17215
 C1617 C 0.38983 0.25777 0.15759
 C1618 C 0.41187 0.25478 0.17678
 C1619 C 0.41024 0.24841 0.21068
 C1620 C 0.38684 0.24627 0.22559
 C1621 C 0.33881 0.25017 0.22163
 C1622 C 0.33466 0.24767 0.25606
 C1623 C 0.31034 0.24962 0.26860
 C1624 C 0.28942 0.25345 0.24719
 C1625 C 0.29360 0.25550 0.21285
 C1626 C 0.31779 0.25412 0.20009
 C1627 C 0.34466 0.25875 0.15229
 C1628 C 0.32094 0.25783 0.16590
 H1629 H 0.34607 0.26242 0.12580
 H1630 H 0.30477 0.26084 0.14945
 H1631 H 0.39105 0.26236 0.13128
 H1632 H 0.42712 0.24601 0.22591
 H1633 H 0.30802 0.24883 0.29523
 H1634 H 0.27805 0.25921 0.19562
 H1635 H 0.38664 0.24183 0.25187
 H1636 H 0.35000 0.24505 0.27373
 C1637 C 0.38026 0.76003 0.27566
 C1638 C 0.39891 0.74405 0.26289
 C1639 C 0.42136 0.73917 0.28093
 C1640 C 0.42568 0.75063 0.31103
 C1641 C 0.40813 0.76791 0.32235
 C1642 C 0.38562 0.77265 0.30487
 C1643 C 0.35535 0.76221 0.25807
 C1644 C 0.33446 0.77399 0.27201
 C1645 C 0.31107 0.77368 0.25648
 C1646 C 0.30772 0.76243 0.22579
 C1647 C 0.32868 0.75110 0.21124
 C1648 C 0.35222 0.75028 0.22764
 C1649 C 0.39485 0.73281 0.23254
 C1650 C 0.37220 0.73635 0.21490
 H1651 H 0.40933 0.72096 0.22240
 H1652 H 0.36990 0.72710 0.19168
 H1653 H 0.43528 0.72609 0.27201
 H1654 H 0.41153 0.77715 0.34533
 H1655 H 0.29546 0.78237 0.26887
 H1656 H 0.32647 0.74178 0.18807
 H1657 H 0.37260 0.78598 0.31484
 H1658 H 0.33547 0.78260 0.29569
 C1659 C 0.87845 0.25170 0.79642
 C1660 C 0.89973 0.24552 0.77754
 C1661 C 0.92326 0.24113 0.79342
 C1662 C 0.92572 0.24237 0.82799
 C1663 C 0.90495 0.24955 0.84642
 C1664 C 0.88166 0.25449 0.83089
 C1665 C 0.85321 0.25341 0.77924
 C1666 C 0.83082 0.25741 0.79638
 C1667 C 0.80763 0.25615 0.78026
 C1668 C 0.80575 0.25165 0.74616
 C1669 C 0.82812 0.24841 0.72858
 C1670 C 0.85170 0.24911 0.74485
 C1671 C 0.89714 0.24257 0.74327
 C1672 C 0.87368 0.24440 0.72728
 H1673 H 0.91344 0.23808 0.72871
 H1674 H 0.87266 0.24127 0.70090
 H1675 H 0.93929 0.23519 0.77923
 H1676 H 0.90654 0.25037 0.87318
 H1677 H 0.79115 0.25768 0.79535
 H1678 H 0.82722 0.24424 0.70251
 H1679 H 0.86632 0.25955 0.84656
 H1680 H 0.83065 0.26055 0.82261
 C1681 C 0.60369 0.98831 0.59566
 C1682 C 0.62751 0.99855 0.59046
 C1683 C 0.64340 1.00331 0.61735
 C1684 C 0.63595 0.99917 0.65032
 C1685 C 0.61273 0.98769 0.65532
 C1686 C 0.59689 0.98240 0.62848
 C1687 C 0.58637 0.98589 0.56603
 C1688 C 0.56194 0.97635 0.56752
 C1689 C 0.54579 0.97744 0.53932
 C1690 C 0.55347 0.98835 0.50913
 C1691 C 0.57810 0.99712 0.50799
 C1692 C 0.59455 0.99518 0.53513
 C1693 C 0.63506 1.00524 0.55848
 C1694 C 0.61882 1.00392 0.53148
 H1695 H 0.65339 1.01279 0.55442
 H1696 H 0.62516 1.01046 0.50740
 H1697 H 0.66172 1.01046 0.61217
 H1698 H 0.60573 0.98420 0.67999
 H1699 H 0.52686 0.97103 0.54170
 H1700 H 0.58444 1.00746 0.48656
 H1701 H 0.57896 0.97461 0.63392
 H1702 H 0.55483 0.96866 0.59043
 C1703 C 0.10641 0.48529 1.10472
 C1704 C 0.13040 0.49436 1.09696
 C1705 C 0.14554 0.50436 1.12160
 C1706 C 0.13701 0.50627 1.15403
 C1707 C 0.11337 0.49703 1.16188
 C1708 C 0.09830 0.48659 1.13765
 C1709 C 0.09000 0.47674 1.07688
 C1710 C 0.06571 0.46746 1.08116
 C1711 C 0.04977 0.46398 1.05360
 C1712 C 0.05749 0.47001 1.02118
 C1713 C 0.08253 0.47713 1.01737
 C1714 C 0.09874 0.47994 1.04433
 C1715 C 0.13871 0.49458 1.06430
 C1716 C 0.12307 0.48792 1.03848
 H1717 H 0.15712 0.50124 1.05837
 H1718 H 0.12987 0.48980 1.01335
 H1719 H 0.16386 0.51112 1.11535
 H1720 H 0.10619 0.49849 1.18670
 H1721 H 0.03066 0.45869 1.05796
 H1722 H 0.08915 0.48386 0.99393
 H1723 H 0.08010 0.48036 1.14488
 H1724 H 0.05836 0.46386 1.10556
 C1725 C -0.09482 0.00722 1.10125
 C1726 C -0.11894 -0.00267 1.09731
 C1727 C -0.13366 -0.00788 1.12492
 C1728 C -0.12459 -0.00450 1.15730
 C1729 C -0.10111 0.00663 1.16097
 C1730 C -0.08647 0.01241 1.13342
 C1731 C -0.07861 0.00975 1.07123
 C1732 C -0.05403 0.01890 1.07174
 C1733 C -0.03876 0.01752 1.04365
 C1734 C -0.04756 0.00667 1.01471
 C1735 C -0.07239 -0.00147 1.01430
 C1736 C -0.08800 0.00076 1.04127
 C1737 C -0.12785 -0.00875 1.06598
 C1738 C -0.11254 -0.00746 1.03863
 H1739 H -0.14645 -0.01597 1.06288
 H1740 H -0.11981 -0.01370 1.01518
 H1741 H -0.15221 -0.01491 1.12088
 H1742 H -0.09290 0.00942 1.18520
 H1743 H -0.01965 0.02362 1.04526
 H1744 H -0.07955 -0.01156 0.99379
 H1745 H -0.06825 0.01986 1.13792
 H1746 H -0.04606 0.02645 1.09383
 C1747 C 0.39702 0.50755 0.60925
 C1748 C 0.37396 0.49602 0.60321
 C1749 C 0.36045 0.48557 0.62951
 C1750 C 0.36935 0.48614 0.66252
 C1751 C 0.39198 0.49838 0.66837
 C1752 C 0.40557 0.50882 0.64228
 C1753 C 0.41192 0.51641 0.57997
 C1754 C 0.43578 0.52695 0.58260
 C1755 C 0.45051 0.53081 0.55436
 C1756 C 0.44187 0.52416 0.52286
 C1757 C 0.41706 0.51602 0.52024
 C1758 C 0.40224 0.51220 0.54800
 C1759 C 0.36470 0.49431 0.57078
 C1760 C 0.37857 0.50214 0.54377
 H1761 H 0.34686 0.48590 0.56610
 H1762 H 0.37105 0.49935 0.51909
 H1763 H 0.34262 0.47748 0.62393
 H1764 H 0.40019 0.49892 0.69303
 H1765 H 0.46949 0.53692 0.55768
 H1766 H 0.40990 0.50936 0.49720
 H1767 H 0.42305 0.51726 0.64840
 H1768 H 0.44392 0.53108 0.60636
 C1769 C 0.39805 0.47307 -0.07571
 C1770 C 0.40705 0.46658 -0.10693
 C1771 C 0.39118 0.46985 -0.13505
 C1772 C 0.36630 0.47909 -0.13201
 C1773 C 0.35676 0.48224 -0.10027
 C1774 C 0.37237 0.47909 -0.07237
 C1775 C 0.41650 0.47491 -0.04791
 C1776 C 0.41053 0.48835 -0.02011
 C1777 C 0.42867 0.49276 0.00346
 C1778 C 0.45322 0.48238 0.00205
 C1779 C 0.45954 0.46891 -0.02603
 C1780 C 0.44154 0.46615 -0.05178
 C1781 C 0.43200 0.45787 -0.10974
 C1782 C 0.44864 0.45680 -0.08236
 H1783 H 0.43884 0.45213 -0.13350
 H1784 H 0.46776 0.45020 -0.08584
 H1785 H 0.39876 0.46675 -0.15936
 H1786 H 0.33738 0.48807 -0.09709
 H1787 H 0.42307 0.50516 0.02254
 H1788 H 0.47866 0.46207 -0.02885
 H1789 H 0.36420 0.48211 -0.04848
 H1790 H 0.39234 0.49722 -0.01724
 C1791 C -0.09577 0.98700 0.42356
 C1792 C -0.08447 0.98267 0.39292
 C1793 C -0.09870 0.98664 0.36338
 C1794 C -0.12414 0.99448 0.36453
 C1795 C -0.13579 0.99541 0.39532
 C1796 C -0.12186 0.99149 0.42454
 C1797 C -0.07931 0.98844 0.45350
 C1798 C -0.08779 1.00038 0.48145
 C1799 C -0.07144 1.00494 0.50714
 C1800 C -0.04631 0.99591 0.50779
 C1801 C -0.03752 0.98383 0.47966
 C1802 C -0.05366 0.98119 0.45181
 C1803 C -0.05898 0.97534 0.39229
 C1804 C -0.04411 0.97369 0.42141
 H1805 H -0.05033 0.97117 0.36894
 H1806 H -0.02449 0.96825 0.41961
 H1807 H -0.08962 0.98513 0.33968
 H1808 H -0.15561 1.00008 0.39682
 H1809 H -0.07888 1.01633 0.52633
 H1810 H -0.01789 0.97825 0.47842
 H1811 H -0.13166 0.99272 0.44765
 H1812 H -0.10660 1.00815 0.48289
 C1813 C 0.08853 0.53349 0.38619
 C1814 C 0.11370 0.53359 0.39809
 C1815 C 0.13333 0.52481 0.37832
 C1816 C 0.12817 0.51619 0.34667
 C1817 C 0.10337 0.51671 0.33464
 C1818 C 0.08377 0.52507 0.35413
 C1819 C 0.06794 0.54071 0.40912
 C1820 C 0.04230 0.54007 0.40040
 C1821 C 0.02402 0.54170 0.42470
 C1822 C 0.03079 0.54401 0.45833
 C1823 C 0.05586 0.54945 0.46557
 C1824 C 0.07452 0.54693 0.44173
 C1825 C 0.11900 0.54196 0.42984
 C1826 C 0.09981 0.54867 0.45111
 H1827 H 0.13823 0.54258 0.43881
 H1828 H 0.10486 0.55421 0.47583
 H1829 H 0.15256 0.52466 0.38746
 H1830 H 0.09913 0.51020 0.31013
 H1831 H 0.00474 0.53890 0.41733
 H1832 H 0.06174 0.55321 0.49032
 H1833 H 0.06506 0.52440 0.34381
 H1834 H 0.03600 0.53684 0.37543
 C1835 C 0.59581 0.02608 -0.10287
 C1836 C 0.62130 0.02087 -0.09419
 C1837 C 0.63770 0.01123 -0.11777
 C1838 C 0.62898 0.00687 -0.14996
 C1839 C 0.60419 0.01356 -0.15903
 C1840 C 0.58778 0.02309 -0.13589
 C1841 C 0.57803 0.03224 -0.07586
 C1842 C 0.55194 0.03468 -0.08125
 C1843 C 0.53579 0.03361 -0.05454
 C1844 C 0.54526 0.03027 -0.02188
 C1845 C 0.57092 0.03384 -0.01639
 C1846 C 0.58755 0.03314 -0.04301
 C1847 C 0.62995 0.02441 -0.06174
 C1848 C 0.61344 0.03076 -0.03673
 H1849 H 0.64961 0.02119 -0.05527
 H1850 H 0.62086 0.03212 -0.01172
 H1851 H 0.65706 0.00660 -0.11098
 H1852 H 0.59722 0.01057 -0.18391
 H1853 H 0.51587 0.03298 -0.05990
 H1854 H 0.57837 0.03475 0.00849
 H1855 H 0.56878 0.02731 -0.14421
 H1856 H 0.54352 0.03537 -0.10575
 C1857 C 0.62656 0.53145 0.03640
 C1858 C 0.63253 0.55473 0.04880
 C1859 C 0.65732 0.56181 0.05108
 C1860 C 0.67742 0.54614 0.04201
 C1861 C 0.67152 0.52332 0.02827
 C1862 C 0.64643 0.51596 0.02579
 C1863 C 0.59933 0.52466 0.03565
 C1864 C 0.59041 0.50195 0.02457
 C1865 C 0.56470 0.49662 0.02639
 C1866 C 0.54736 0.51378 0.03929
 C1867 C 0.55655 0.53628 0.04954
 C1868 C 0.58166 0.54196 0.04766
 C1869 C 0.61382 0.57116 0.05924
 C1870 C 0.58895 0.56489 0.05876
 H1871 H 0.61850 0.58908 0.06847
 H1872 H 0.57518 0.57814 0.06766
 H1873 H 0.66066 0.58039 0.05902
 H1874 H 0.68621 0.51063 0.02060
 H1875 H 0.55859 0.47876 0.01866
 H1876 H 0.54434 0.54964 0.06043
 H1877 H 0.64291 0.49807 0.01587
 H1878 H 0.60304 0.48804 0.01505
 C1879 C 0.12408 1.04218 0.53668
 C1880 C 0.13155 1.06652 0.54295
 C1881 C 0.15677 1.07239 0.54179
 C1882 C 0.17532 1.05422 0.53620
 C1883 C 0.16816 1.03024 0.52895
 C1884 C 0.14274 1.02424 0.52909
 C1885 C 0.09676 1.03669 0.53961
 C1886 C 0.08672 1.01346 0.53331
 C1887 C 0.06109 1.00944 0.53750
 C1888 C 0.04478 1.02839 0.54830
 C1889 C 0.05500 1.05135 0.55440
 C1890 C 0.08028 1.05582 0.54970
 C1891 C 0.11402 1.08480 0.55162
 C1892 C 0.08896 1.07948 0.55530
 H1893 H 0.11986 1.10338 0.55645
 H1894 H 0.07617 1.09416 0.56274
 H1895 H 0.16217 1.09115 0.54658
 H1896 H 0.18225 1.01598 0.52438
 H1897 H 0.05425 0.99121 0.53288
 H1898 H 0.04341 1.06620 0.56300
 H1899 H 0.13813 1.00541 0.52415
 H1900 H 0.09834 0.99820 0.52531
 C1901 C 0.12491 -0.04073 0.95414
 C1902 C 0.13218 -0.06538 0.94708
 C1903 C 0.15682 -0.07123 0.93819
 C1904 C 0.17479 -0.05292 0.93520
 C1905 C 0.16769 -0.02839 0.94197
 C1906 C 0.14303 -0.02230 0.95119
 C1907 C 0.09807 -0.03557 0.96357
 C1908 C 0.08840 -0.01199 0.97164
 C1909 C 0.06264 -0.00808 0.97711
 C1910 C 0.04568 -0.02745 0.97426
 C1911 C 0.05585 -0.05114 0.96846
 C1912 C 0.08143 -0.05538 0.96341
 C1913 C 0.11484 -0.08423 0.94863
 C1914 C 0.09001 -0.07931 0.95636
 H1915 H 0.12045 -0.10306 0.94310
 H1916 H 0.07718 -0.09450 0.95636
 H1917 H 0.16210 -0.09039 0.93410
 H1918 H 0.18120 -0.01389 0.93994
 H1919 H 0.05581 0.01059 0.98133
 H1920 H 0.04386 -0.06627 0.96421
 H1921 H 0.13844 -0.00315 0.95574
 H1922 H 0.10030 0.00375 0.97280
 C1923 C 0.61545 0.46793 0.48583
 C1924 C 0.62019 0.44288 0.47817
 C1925 C 0.64433 0.43437 0.47119
 C1926 C 0.66494 0.44982 0.47305
 C1927 C 0.66066 0.47431 0.48304
 C1928 C 0.63613 0.48345 0.48860
 C1929 C 0.58858 0.47637 0.49046
 C1930 C 0.58057 0.50128 0.49410
 C1931 C 0.55477 0.50794 0.49442
 C1932 C 0.53635 0.48996 0.49109
 C1933 C 0.54481 0.46526 0.48952
 C1934 C 0.57008 0.45837 0.48889
 C1935 C 0.60089 0.42604 0.47791
 C1936 C 0.57646 0.43351 0.48384
 H1937 H 0.60469 0.40676 0.47268
 H1938 H 0.56211 0.41976 0.48277
 H1939 H 0.64716 0.41493 0.46596
 H1940 H 0.67609 0.48675 0.48520
 H1941 H 0.54931 0.52736 0.49531
 H1942 H 0.53224 0.45101 0.48437
 H1943 H 0.63364 0.50254 0.49522
 H1944 H 0.59391 0.51587 0.49523
 C1945 C -0.13646 0.48108 0.49629
 C1946 C -0.15197 0.48955 0.52203
 C1947 C -0.17441 0.47771 0.52921
 C1948 C -0.18178 0.45764 0.51087
 C1949 C -0.16695 0.44967 0.48479
 C1950 C -0.14452 0.46120 0.47751
 C1951 C -0.11160 0.49286 0.49137
 C1952 C -0.09397 0.48482 0.46807
 C1953 C -0.06968 0.49390 0.46804
 C1954 C -0.06230 0.51109 0.49120
 C1955 C -0.08095 0.52166 0.51117
 C1956 C -0.10505 0.51212 0.51230
 C1957 C -0.14472 0.50939 0.54097
 C1958 C -0.12186 0.52058 0.53601
 H1959 H -0.15664 0.51600 0.56049
 H1960 H -0.11679 0.53537 0.55205
 H1961 H -0.18591 0.48372 0.54952
 H1962 H -0.17246 0.43403 0.47055
 H1963 H -0.05652 0.48663 0.45069
 H1964 H -0.07625 0.53571 0.52852
 H1965 H -0.13361 0.45400 0.45755
 H1966 H -0.09816 0.47079 0.45064
 C1967 C 0.37503 -0.01457 -0.01090
 C1968 C 0.35875 -0.00991 0.01570
 C1969 C 0.33447 -0.01920 0.01541
 C1970 C 0.32598 -0.03264 -0.01141
 C1971 C 0.34120 -0.03519 -0.03909
 C1972 C 0.36550 -0.02629 -0.03890
 C1973 C 0.40204 -0.00812 -0.00710
 C1974 C 0.42057 -0.01539 -0.02959
 C1975 C 0.44594 -0.01191 -0.02265
 C1976 C 0.45351 -0.00091 0.00671
 C1977 C 0.43493 0.00833 0.02776
 C1978 C 0.40952 0.00405 0.02174
 C1979 C 0.36712 0.00305 0.04298
 C1980 C 0.39189 0.01025 0.04567
 H1981 H 0.35454 0.00703 0.06307
 H1982 H 0.39766 0.01953 0.06780
 H1983 H 0.32258 -0.01704 0.03672
 H1984 H 0.33485 -0.04546 -0.06006
 H1985 H 0.45961 -0.01849 -0.03999
 H1986 H 0.44024 0.01712 0.05044
 H1987 H 0.37673 -0.02949 -0.06040
 H1988 H 0.41601 -0.02475 -0.05198
 C1989 C 0.38029 1.04225 0.47674
 C1990 C 0.36314 1.02302 0.48065
 C1991 C 0.33709 1.02872 0.47876
 C1992 C 0.32846 1.05346 0.47337
 C1993 C 0.34578 1.07240 0.47310
 C1994 C 0.37128 1.06697 0.47503
 C1995 C 0.40746 1.03570 0.47419
 C1996 C 0.42441 1.05307 0.46274
 C1997 C 0.44934 1.04648 0.45907
 C1998 C 0.45903 1.02263 0.46770
 C1999 C 0.44186 1.00467 0.47827
 C2000 C 0.41596 1.01096 0.48056
 C2001 C 0.37237 0.99855 0.48624
 C2002 C 0.39827 0.99278 0.48725
 H2003 H 0.35943 0.98370 0.49004
 H2004 H 0.40445 0.97367 0.49196
 H2005 H 0.32371 1.01405 0.48044
 H2006 H 0.33948 1.09165 0.47078
 H2007 H 0.46066 1.06057 0.44846
 H2008 H 0.44837 0.98569 0.48320
 H2009 H 0.38363 1.08240 0.47499
 H2010 H 0.41862 1.07169 0.45486
 C2011 C -0.11834 0.52342 0.99118
 C2012 C -0.12464 0.54858 0.98278
 C2013 C -0.14962 0.55694 0.98108
 C2014 C -0.16919 0.54060 0.98551
 C2015 C -0.16331 0.51573 0.99468
 C2016 C -0.13810 0.50720 0.99762
 C2017 C -0.09100 0.51533 0.99091
 C2018 C -0.08151 0.49131 1.00038
 C2019 C -0.05569 0.48504 0.99770
 C2020 C -0.03885 0.50241 0.98488
 C2021 C -0.04881 0.52597 0.97550
 C2022 C -0.07379 0.53287 0.97965
 C2023 C -0.10615 0.56525 0.97432
 C2024 C -0.08136 0.55744 0.97201
 H2025 H -0.11105 0.58448 0.96800
 H2026 H -0.06784 0.57091 0.96409
 H2027 H -0.15392 0.57633 0.97487
 H2028 H -0.17816 0.50278 0.99849
 H2029 H -0.04908 0.46642 1.00467
 H2030 H -0.03735 0.53949 0.96383
 H2031 H -0.13437 0.48782 1.00382
 H2032 H -0.09379 0.47725 1.00972
 C2033 C 0.01108 0.64496 0.57956
 C2034 C 0.03485 0.65576 0.57999
 C2035 C 0.03863 0.67701 0.59832
 C2036 C 0.01936 0.68698 0.61778
 C2037 C -0.00392 0.67563 0.61795
 C2038 C -0.00810 0.65506 0.59901
 C2039 C 0.00777 0.62227 0.56005
 C2040 C -0.01564 0.61174 0.55563
 C2041 C -0.01751 0.58905 0.54087
 C2042 C 0.00391 0.57583 0.52996
 C2043 C 0.02679 0.58804 0.53035
 C2044 C 0.02895 0.61095 0.54561
 C2045 C 0.05486 0.64470 0.56320
 C2046 C 0.05213 0.62243 0.54709
 H2047 H 0.07314 0.65290 0.56353
 H2048 H 0.06842 0.61401 0.53579
 H2049 H 0.05673 0.68555 0.59766
 H2050 H -0.01889 0.68225 0.63344
 H2051 H -0.03612 0.58179 0.53916
 H2052 H 0.04325 0.57948 0.52033
 H2053 H -0.02623 0.64688 0.60083
 H2054 H -0.03274 0.62051 0.56387
 C2055 C 0.52794 0.12484 0.10019
 C2056 C 0.52792 0.12532 0.13532
 C2057 C 0.52722 0.14796 0.15116
 C2058 C 0.52544 0.17027 0.13258
 C2059 C 0.52498 0.16996 0.09786
 C2060 C 0.52641 0.14750 0.08175
 C2061 C 0.52835 0.10016 0.08433
 C2062 C 0.53003 0.09729 0.04978
 C2063 C 0.52872 0.07382 0.03630
 C2064 C 0.52555 0.05271 0.05689
 C2065 C 0.52436 0.05561 0.09137
 C2066 C 0.52651 0.07877 0.10516
 C2067 C 0.52771 0.10327 0.15449
 C2068 C 0.52649 0.08050 0.13970
 H2069 H 0.52766 0.10366 0.18134
 H2070 H 0.52554 0.06396 0.15560
 H2071 H 0.52721 0.14828 0.17804
 H2072 H 0.52369 0.18716 0.08321
 H2073 H 0.52921 0.07243 0.00963
 H2074 H 0.52154 0.03977 0.10796
 H2075 H 0.52579 0.14825 0.05498
 H2076 H 0.53207 0.11293 0.03278
 C2077 C -0.03044 0.12071 0.91034
 C2078 C -0.02005 0.13861 0.93076
 C2079 C -0.02067 0.16367 0.91996
 C2080 C -0.03200 0.17106 0.88929
 C2081 C -0.04333 0.15334 0.87006
 C2082 C -0.04273 0.12856 0.88043
 C2083 C -0.02783 0.09407 0.92123
 C2084 C -0.03488 0.07513 0.90053
 C2085 C -0.03182 0.05059 0.91095
 C2086 C -0.02185 0.04377 0.94266
 C2087 C -0.01443 0.06260 0.96359
 C2088 C -0.01697 0.08771 0.95278
 C2089 C -0.00918 0.13130 0.96163
 C2090 C -0.00808 0.10643 0.97267
 H2091 H -0.00147 0.14501 0.97755
 H2092 H 0.00042 0.10174 0.99676
 H2093 H -0.01237 0.17741 0.93533
 H2094 H -0.05216 0.15855 0.84635
 H2095 H -0.03783 0.03695 0.89379
 H2096 H -0.00630 0.05776 0.98785
 H2097 H -0.05195 0.11596 0.86448
 H2098 H -0.04237 0.07868 0.87579
 C2099 C 0.46992 0.63953 0.41573
 C2100 C 0.45987 0.64394 0.38322
 C2101 C 0.46013 0.66758 0.36815
 C2102 C 0.47013 0.68741 0.38475
 C2103 C 0.48037 0.68319 0.41683
 C2104 C 0.48025 0.65953 0.43223
 C2105 C 0.46965 0.61360 0.43044
 C2106 C 0.47894 0.60671 0.46261
 C2107 C 0.47944 0.58181 0.47398
 C2108 C 0.47068 0.56332 0.45356
 C2109 C 0.46075 0.57044 0.42200
 C2110 C 0.45996 0.59501 0.41056
 C2111 C 0.44984 0.62472 0.36551
 C2112 C 0.44997 0.60075 0.37885
 H2113 H 0.44207 0.62818 0.34070
 H2114 H 0.44235 0.58639 0.36389
 H2115 H 0.45281 0.67047 0.34301
 H2116 H 0.48817 0.69828 0.43017
 H2117 H 0.48729 0.57698 0.49837
 H2118 H 0.45378 0.55669 0.40557
 H2119 H 0.48836 0.65723 0.45688
 H2120 H 0.48622 0.62018 0.47905
 C2121 C 0.53045 0.87819 0.39869
 C2122 C 0.52137 0.85851 0.41861
 C2123 C 0.52179 0.83432 0.40659
 C2124 C 0.53095 0.82973 0.37476
 C2125 C 0.53908 0.84954 0.35492
 C2126 C 0.53884 0.87337 0.36656
 C2127 C 0.53011 0.90356 0.41215
 C2128 C 0.53998 0.92361 0.39445
 C2129 C 0.53790 0.94718 0.40626
 C2130 C 0.52665 0.95193 0.43688
 C2131 C 0.51774 0.93174 0.45576
 C2132 C 0.51945 0.90752 0.44351
 C2133 C 0.51170 0.86326 0.45001
 C2134 C 0.51049 0.88729 0.46203
 H2135 H 0.50461 0.84825 0.46532
 H2136 H 0.50247 0.89004 0.48617
 H2137 H 0.51524 0.81910 0.42203
 H2138 H 0.54542 0.84667 0.32993
 H2139 H 0.54542 0.96181 0.39075
 H2140 H 0.50908 0.93488 0.47941
 H2141 H 0.54503 0.88766 0.34960
 H2142 H 0.54930 0.92175 0.37116
 C2143 C 0.03723 0.35605 0.92081
 C2144 C 0.02619 0.33715 0.94012
 C2145 C 0.02664 0.31270 0.92894
 C2146 C 0.03884 0.30696 0.89937
 C2147 C 0.05102 0.32561 0.88161
 C2148 C 0.05038 0.34976 0.89217
 C2149 C 0.03453 0.38211 0.93153
 C2150 C 0.04103 0.40204 0.91074
 C2151 C 0.03787 0.42605 0.92077
 C2152 C 0.02870 0.43144 0.95241
 C2153 C 0.02146 0.41154 0.97327
 C2154 C 0.02376 0.38690 0.96257
 C2155 C 0.01510 0.34288 0.97036
 C2156 C 0.01450 0.36713 0.98175
 H2157 H 0.00698 0.32839 0.98558
 H2158 H 0.00594 0.37055 1.00539
 H2159 H 0.01773 0.29817 0.94324
 H2160 H 0.06068 0.32159 0.85891
 H2161 H 0.04318 0.44046 0.90322
 H2162 H 0.01336 0.41522 0.99712
 H2163 H 0.06039 0.36315 0.87752
 H2164 H 0.04791 0.39967 0.88604
 C2165 C 0.47421 0.36431 0.09619
 C2166 C 0.46310 0.35932 0.12733
 C2167 C 0.45889 0.33497 0.13809
 C2168 C 0.46632 0.31506 0.11902
 C2169 C 0.47796 0.31970 0.08859
 C2170 C 0.48167 0.34409 0.07706
 C2171 C 0.47799 0.39090 0.08568
 C2172 C 0.48685 0.39859 0.05421
 C2173 C 0.48957 0.42388 0.04593
 C2174 C 0.48392 0.44197 0.06903
 C2175 C 0.47547 0.43410 0.10048
 C2176 C 0.47184 0.40924 0.10851
 C2177 C 0.45676 0.37856 0.14812
 C2178 C 0.46146 0.40294 0.13917
 H2179 H 0.44839 0.37467 0.17199
 H2180 H 0.45653 0.41717 0.15641
 H2181 H 0.45044 0.33140 0.16200
 H2182 H 0.48402 0.30443 0.07367
 H2183 H 0.49600 0.42924 0.02147
 H2184 H 0.47039 0.44746 0.11877
 H2185 H 0.49068 0.34678 0.05351
 H2186 H 0.49137 0.38538 0.03561
 C2187 C -0.02190 0.88194 0.61834
 C2188 C -0.03162 0.87807 0.65058
 C2189 C -0.03304 0.85407 0.66464
 C2190 C -0.02506 0.83344 0.64715
 C2191 C -0.01537 0.83722 0.61521
 C2192 C -0.01379 0.86111 0.60095
 C2193 C -0.02065 0.90810 0.60447
 C2194 C -0.01129 0.91445 0.57275
 C2195 C -0.01015 0.93935 0.56166
 C2196 C -0.01836 0.95849 0.58186
 C2197 C -0.02803 0.95200 0.61319
 C2198 C -0.02920 0.92740 0.62450
 C2199 C -0.03991 0.89815 0.66879
 C2200 C -0.03874 0.92226 0.65603
 H2201 H -0.04739 0.89518 0.69339
 H2202 H -0.04531 0.93718 0.67125
 H2203 H -0.04019 0.85146 0.68948
 H2204 H -0.00938 0.82159 0.60092
 H2205 H -0.00266 0.94362 0.53740
 H2206 H -0.03494 0.96617 0.62932
 H2207 H -0.00631 0.86287 0.57633
 H2208 H -0.00460 0.90048 0.55632
 C2209 C 0.21507 0.36268 0.14121
 C2210 C 0.22140 0.38666 0.15070
 C2211 C 0.23162 0.40340 0.12741
 C2212 C 0.23512 0.39695 0.09411
 C2213 C 0.22623 0.37394 0.08437
 C2214 C 0.21664 0.35702 0.10752
 C2215 C 0.20865 0.34391 0.16788
 C2216 C 0.20587 0.31864 0.16183
 C2217 C 0.20569 0.30114 0.18816
 C2218 C 0.20803 0.30833 0.22128
 C2219 C 0.20560 0.33376 0.22718
 C2220 C 0.20755 0.35150 0.20102
 C2221 C 0.21817 0.39349 0.18363
 C2222 C 0.21079 0.37642 0.20810
 H2223 H 0.22212 0.41213 0.19082
 H2224 H 0.20928 0.38245 0.23333
 H2225 H 0.23687 0.42148 0.13542
 H2226 H 0.22847 0.36783 0.05931
 H2227 H 0.20592 0.28175 0.18226
 H2228 H 0.20415 0.33997 0.25210
 H2229 H 0.21130 0.33931 0.09866
 H2230 H 0.20575 0.31176 0.13706
 C2231 C 0.72764 0.85530 0.64809
 C2232 C 0.73531 0.84875 0.61611
 C2233 C 0.74232 0.86718 0.59309
 C2234 C 0.74288 0.89212 0.60178
 C2235 C 0.73539 0.89861 0.63347
 C2236 C 0.72761 0.88049 0.65630
 C2237 C 0.72214 0.83489 0.67272
 C2238 C 0.71379 0.83941 0.70476
 C2239 C 0.71350 0.82028 0.72874
 C2240 C 0.72133 0.79597 0.72169
 C2241 C 0.72594 0.79082 0.68828
 C2242 C 0.72675 0.81008 0.66398
 C2243 C 0.73733 0.82378 0.60793
 C2244 C 0.73352 0.80483 0.63153
 H2245 H 0.74315 0.81878 0.58337
 H2246 H 0.73662 0.78582 0.62452
 H2247 H 0.74874 0.86193 0.56888
 H2248 H 0.73582 0.91770 0.64069
 H2249 H 0.70815 0.82541 0.75304
 H2250 H 0.73099 0.77211 0.68154
 H2251 H 0.72253 0.88648 0.68057
 H2252 H 0.70837 0.85775 0.71223
 C2253 C 0.26991 0.64602 0.62451
 C2254 C 0.26098 0.62188 0.63120
 C2255 C 0.25173 0.60778 0.60555
 C2256 C 0.24959 0.61765 0.57310
 C2257 C 0.25922 0.64116 0.56595
 C2258 C 0.26940 0.65517 0.59132
 C2259 C 0.27683 0.66145 0.65355
 C2260 C 0.28666 0.68548 0.65094
 C2261 C 0.28900 0.70011 0.67919
 C2262 C 0.28065 0.69153 0.71040
 C2263 C 0.27163 0.66722 0.71227
 C2264 C 0.27128 0.65191 0.68538
 C2265 C 0.25933 0.61257 0.66377
 C2266 C 0.26362 0.62754 0.69030
 H2267 H 0.25282 0.59403 0.66886
 H2268 H 0.26029 0.62009 0.71511
 H2269 H 0.24482 0.58947 0.61122
 H2270 H 0.25783 0.64920 0.54099
 H2271 H 0.29536 0.71887 0.67601
 H2272 H 0.26214 0.66037 0.73385
 H2273 H 0.27562 0.67354 0.58491
 H2274 H 0.29190 0.69341 0.62718
 C2275 C 0.76048 0.14718 0.13763
 C2276 C 0.75225 0.12322 0.14664
 C2277 C 0.74963 0.10521 0.12291
 C2278 C 0.75249 0.11073 0.08887
 C2279 C 0.76184 0.13428 0.07996
 C2280 C 0.76591 0.15216 0.10401
 C2281 C 0.76126 0.16630 0.16417
 C2282 C 0.77105 0.19033 0.16014
 C2283 C 0.77021 0.20727 0.18628
 C2284 C 0.75880 0.20090 0.21652
 C2285 C 0.74826 0.17726 0.21922
 C2286 C 0.75097 0.15978 0.19506
 C2287 C 0.74489 0.11756 0.17901
 C2288 C 0.74341 0.13567 0.20232
 H2289 H 0.73869 0.09919 0.18592
 H2290 H 0.73629 0.13064 0.22659
 H2291 H 0.74462 0.08681 0.13140
 H2292 H 0.76449 0.13976 0.05425
 H2293 H 0.77794 0.22543 0.18257
 H2294 H 0.73816 0.17161 0.24108
 H2295 H 0.77205 0.17019 0.09576
 H2296 H 0.77957 0.19611 0.13713
 C2297 C 0.72058 0.15235 0.84933
 C2298 C 0.71985 0.12734 0.84009
 C2299 C 0.72795 0.10822 0.86276
 C2300 C 0.73653 0.11380 0.89465
 C2301 C 0.73555 0.13843 0.90435
 C2302 C 0.72763 0.15747 0.88212
 C2303 C 0.71630 0.17231 0.82297
 C2304 C 0.71984 0.19746 0.82882
 C2305 C 0.72248 0.21436 0.80237
 C2306 C 0.72144 0.20666 0.76944
 C2307 C 0.71230 0.18304 0.76377
 C2308 C 0.71107 0.16538 0.79016
 C2309 C 0.71202 0.12178 0.80791
 C2310 C 0.70725 0.14047 0.78360
 H2311 H 0.71062 0.10266 0.80102
 H2312 H 0.70237 0.13518 0.75870
 H2313 H 0.72825 0.08911 0.85540
 H2314 H 0.74200 0.14311 0.92889
 H2315 H 0.72746 0.23301 0.80810
 H2316 H 0.70874 0.17748 0.73868
 H2317 H 0.72798 0.17606 0.89089
 H2318 H 0.72258 0.20420 0.85341
 C2319 C 0.21836 0.66766 0.33478
 C2320 C 0.21489 0.64322 0.32430
 C2321 C 0.22085 0.62288 0.34606
 C2322 C 0.22946 0.62675 0.37842
 C2323 C 0.23097 0.65094 0.38944
 C2324 C 0.22557 0.67117 0.36797
 C2325 C 0.21611 0.68854 0.30946
 C2326 C 0.22322 0.71275 0.31618
 C2327 C 0.22654 0.73004 0.29034
 C2328 C 0.22241 0.72383 0.25719
 C2329 C 0.21070 0.70142 0.25119
 C2330 C 0.20897 0.68320 0.27666
 C2331 C 0.20619 0.63937 0.29198
 C2332 C 0.20266 0.65907 0.26888
 H2333 H 0.20277 0.62078 0.28411
 H2334 H 0.19668 0.65504 0.24389
 H2335 H 0.21928 0.60412 0.33773
 H2336 H 0.23738 0.65419 0.41451
 H2337 H 0.23419 0.74766 0.29645
 H2338 H 0.20528 0.69701 0.22623
 H2339 H 0.22772 0.68932 0.37769
 H2340 H 0.22821 0.71821 0.34081
 C2341 C 0.77921 0.85016 0.36169
 C2342 C 0.78106 0.84280 0.39539
 C2343 C 0.77574 0.86055 0.41952
 C2344 C 0.76960 0.88543 0.40948
 C2345 C 0.77254 0.89285 0.37616
 C2346 C 0.77729 0.87544 0.35246
 C2347 C 0.77730 0.83075 0.33688
 C2348 C 0.76423 0.83598 0.30733
 C2349 C 0.75980 0.81747 0.28578
 C2350 C 0.77107 0.79340 0.29001
 C2351 C 0.78278 0.78747 0.32121
 C2352 C 0.78432 0.80593 0.34560
 C2353 C 0.78723 0.81777 0.40382
 C2354 C 0.79023 0.79996 0.37917
 H2355 H 0.78971 0.81189 0.42965
 H2356 H 0.79515 0.78100 0.38682
 H2357 H 0.77470 0.85472 0.44543
 H2358 H 0.76951 0.91206 0.36808
 H2359 H 0.74773 0.82294 0.26489
 H2360 H 0.78910 0.76858 0.32714
 H2361 H 0.77824 0.88177 0.32677
 H2362 H 0.75569 0.85406 0.30156
 C2363 C 0.28690 0.34312 0.86515
 C2364 C 0.27928 0.33848 0.89824
 C2365 C 0.27354 0.35829 0.91881
 C2366 C 0.27368 0.38285 0.90640
 C2367 C 0.28143 0.38749 0.87372
 C2368 C 0.28830 0.36795 0.85346
 C2369 C 0.29045 0.32142 0.84309
 C2370 C 0.29911 0.32358 0.81030
 C2371 C 0.29766 0.30364 0.78906
 C2372 C 0.28673 0.28142 0.79963
 C2373 C 0.28185 0.27808 0.83371
 C2374 C 0.28357 0.29781 0.85533
 C2375 C 0.27549 0.31416 0.90981
 C2376 C 0.27704 0.29435 0.88863
 H2377 H 0.26973 0.31055 0.93512
 H2378 H 0.27235 0.27612 0.89828
 H2379 H 0.26689 0.35453 0.94370
 H2380 H 0.28137 0.40631 0.86351
 H2381 H 0.30312 0.30649 0.76354
 H2382 H 0.27474 0.26072 0.84321
 H2383 H 0.29335 0.37254 0.82823
 H2384 H 0.30609 0.34078 0.80030
 C2385 C 0.77270 0.37378 0.72510
 C2386 C 0.76662 0.38754 0.69531
 C2387 C 0.77459 0.41193 0.69082
 C2388 C 0.78828 0.42313 0.71582
 C2389 C 0.79342 0.40985 0.74583
 C2390 C 0.78583 0.38548 0.75044
 C2391 C 0.76557 0.34712 0.72779
 C2392 C 0.77224 0.33118 0.75521
 C2393 C 0.76737 0.30588 0.75482
 C2394 C 0.75573 0.29579 0.72722
 C2395 C 0.74700 0.31214 0.70120
 C2396 C 0.75243 0.33730 0.70083
 C2397 C 0.75300 0.37679 0.66994
 C2398 C 0.74590 0.35226 0.67275
 H2399 H 0.74815 0.38735 0.64727
 H2400 H 0.73585 0.34464 0.65207
 H2401 H 0.77033 0.42218 0.66769
 H2402 H 0.80412 0.41808 0.76543
 H2403 H 0.77327 0.29423 0.77592
 H2404 H 0.73751 0.30515 0.67970
 H2405 H 0.79075 0.37607 0.77376
 H2406 H 0.78188 0.33769 0.77677
 C2407 C 0.28136 0.88761 0.22480
 C2408 C 0.26203 0.90597 0.22091
 C2409 C 0.26824 0.93128 0.21804
 C2410 C 0.29366 0.93782 0.21814
 C2411 C 0.31216 0.91945 0.22611
 C2412 C 0.30612 0.89484 0.23000
 C2413 C 0.27506 0.86109 0.22198
 C2414 C 0.29373 0.84283 0.21811
 C2415 C 0.28764 0.81854 0.21376
 C2416 C 0.26278 0.81081 0.21392
 C2417 C 0.24363 0.82927 0.21687
 C2418 C 0.24968 0.85452 0.21990
 C2419 C 0.23702 0.89860 0.21877
 C2420 C 0.23095 0.87341 0.21911
 H2421 H 0.22195 0.91246 0.21651
 H2422 H 0.21139 0.86873 0.21719
 H2423 H 0.25367 0.94539 0.21287
 H2424 H 0.33172 0.92416 0.22832
 H2425 H 0.30311 0.80628 0.20925
 H2426 H 0.22416 0.82422 0.21562
 H2427 H 0.32128 0.88171 0.23606
 H2428 H 0.31333 0.84700 0.21673
 C2429 C 0.23007 0.86282 0.75026
 C2430 C 0.24342 0.87699 0.77325
 C2431 C 0.23442 0.90072 0.78113
 C2432 C 0.21204 0.91044 0.76686
 C2433 C 0.19905 0.89679 0.74366
 C2434 C 0.20798 0.87329 0.73526
 C2435 C 0.23902 0.83664 0.74502
 C2436 C 0.22667 0.82051 0.72387
 C2437 C 0.23352 0.79528 0.72389
 C2438 C 0.25274 0.78540 0.74499
 C2439 C 0.26710 0.80217 0.76282
 C2440 C 0.26004 0.82728 0.76372
 C2441 C 0.26491 0.86692 0.78956
 C2442 C 0.27302 0.84260 0.78495
 H2443 H 0.27513 0.87773 0.80710
 H2444 H 0.28921 0.83538 0.79919
 H2445 H 0.24412 0.91114 0.79963
 H2446 H 0.18150 0.90404 0.73281
 H2447 H 0.22294 0.78352 0.70837
 H2448 H 0.28278 0.79558 0.77841
 H2449 H 0.19687 0.86334 0.71791
 H2450 H 0.21109 0.82679 0.70806
 C2451 C 0.71843 0.37078 0.28608
 C2452 C 0.69476 0.37699 0.29939
 C2453 C 0.68920 0.40109 0.30885
 C2454 C 0.70684 0.41968 0.30590
 C2455 C 0.73041 0.41371 0.29280
 C2456 C 0.73621 0.38951 0.28307
 C2457 C 0.72330 0.34443 0.27636
 C2458 C 0.74610 0.33555 0.26321
 C2459 C 0.75002 0.31018 0.25754
 C2460 C 0.73137 0.29302 0.26487
 C2461 C 0.70831 0.30241 0.27593
 C2462 C 0.70414 0.32741 0.28173
 C2463 C 0.67649 0.35922 0.30321
 C2464 C 0.68110 0.33495 0.29468
 H2465 H 0.65839 0.36407 0.31336
 H2466 H 0.66647 0.32175 0.29880
 H2467 H 0.67060 0.40551 0.31778
 H2468 H 0.74434 0.42775 0.29006
 H2469 H 0.76826 0.30384 0.24934
 H2470 H 0.69395 0.29021 0.28361
 H2471 H 0.75457 0.38582 0.27320
 H2472 H 0.76134 0.34774 0.25826
 C2473 C 0.72042 0.62495 0.26054
 C2474 C 0.73948 0.60633 0.26392
 C2475 C 0.73311 0.58120 0.26179
 C2476 C 0.70783 0.57503 0.25708
 C2477 C 0.68908 0.59367 0.25807
 C2478 C 0.69521 0.61827 0.25997
 C2479 C 0.72765 0.65121 0.25703
 C2480 C 0.71071 0.66932 0.24412
 C2481 C 0.71789 0.69341 0.23941
 C2482 C 0.74177 0.70118 0.24892
 C2483 C 0.75948 0.68271 0.26053
 C2484 C 0.75271 0.65752 0.26330
 C2485 C 0.76441 0.61329 0.26907
 C2486 C 0.77073 0.63838 0.27005
 H2487 H 0.77917 0.59919 0.27260
 H2488 H 0.79014 0.64281 0.27441
 H2489 H 0.74764 0.56673 0.26253
 H2490 H 0.66945 0.58918 0.25637
 H2491 H 0.70421 0.70562 0.22738
 H2492 H 0.77861 0.68767 0.26583
 H2493 H 0.67998 0.63185 0.26052
 H2494 H 0.69208 0.66500 0.23574
 C2495 C 0.24055 0.11092 0.76357
 C2496 C 0.22038 0.10328 0.78347
 C2497 C 0.20916 0.08055 0.77806
 C2498 C 0.21729 0.06557 0.75248
 C2499 C 0.23753 0.07277 0.73323
 C2500 C 0.24922 0.09509 0.73881
 C2501 C 0.25016 0.13648 0.76771
 C2502 C 0.26944 0.14621 0.74831
 C2503 C 0.27442 0.17138 0.74850
 C2504 C 0.26046 0.18759 0.76820
 C2505 C 0.24398 0.17726 0.79127
 C2506 C 0.23818 0.15206 0.79048
 C2507 C 0.21067 0.11893 0.80741
 C2508 C 0.21931 0.14283 0.81075
 H2509 H 0.19540 0.11299 0.82286
 H2510 H 0.21036 0.15461 0.82856
 H2511 H 0.19324 0.07503 0.79265
 H2512 H 0.24379 0.06145 0.71316
 H2513 H 0.28815 0.17825 0.73131
 H2514 H 0.23413 0.18907 0.80804
 H2515 H 0.26425 0.10002 0.72258
 H2516 H 0.28000 0.13501 0.73155
 C2517 C 0.26257 0.13625 0.24890
 C2518 C 0.28115 0.12962 0.22594
 C2519 C 0.29275 0.10595 0.22822
 C2520 C 0.28687 0.08916 0.25398
 C2521 C 0.26882 0.09577 0.27703
 C2522 C 0.25661 0.11899 0.27444
 C2523 C 0.25161 0.16209 0.24672
 C2524 C 0.23205 0.17002 0.26702
 C2525 C 0.22537 0.19506 0.26813
 C2526 C 0.23818 0.21295 0.24925
 C2527 C 0.25491 0.20469 0.22524
 C2528 C 0.26194 0.17945 0.22413
 C2529 C 0.28903 0.14710 0.20211
 C2530 C 0.28002 0.17163 0.20168
 H2531 H 0.30325 0.14202 0.18451
 H2532 H 0.28768 0.18477 0.18394
 H2533 H 0.30725 0.10093 0.21096
 H2534 H 0.26457 0.08310 0.29745
 H2535 H 0.21135 0.20031 0.28582
 H2536 H 0.26362 0.21789 0.20879
 H2537 H 0.24330 0.12339 0.29336
 H2538 H 0.22235 0.15734 0.28318
 C2539 C 0.77736 0.62338 0.75830
 C2540 C 0.80267 0.61678 0.76649
 C2541 C 0.81025 0.59204 0.77111
 C2542 C 0.79301 0.57311 0.76942
 C2543 C 0.76798 0.57927 0.76052
 C2544 C 0.76018 0.60419 0.75495
 C2545 C 0.77013 0.65050 0.75518
 C2546 C 0.74574 0.65988 0.74685
 C2547 C 0.73999 0.68547 0.74748
 C2548 C 0.75833 0.70226 0.75676
 C2549 C 0.78257 0.69266 0.76366
 C2550 C 0.78874 0.66759 0.76235
 C2551 C 0.82037 0.63486 0.77124
 C2552 C 0.81348 0.65973 0.76964
 H2553 H 0.83973 0.62969 0.77745
 H2554 H 0.82773 0.67305 0.77468
 H2555 H 0.82985 0.58747 0.77666
 H2556 H 0.75439 0.56489 0.75854
 H2557 H 0.72087 0.69192 0.74229
 H2558 H 0.79682 0.70418 0.77278
 H2559 H 0.74067 0.60816 0.74876
 H2560 H 0.73086 0.64770 0.74055
 C2561 C 0.88301 0.76516 0.16368
 C2562 C 0.90326 0.75001 0.17596
 C2563 C 0.92578 0.74884 0.15793
 C2564 C 0.92813 0.76270 0.12761
 C2565 C 0.90694 0.77620 0.11504
 C2566 C 0.88491 0.77733 0.13248
 C2567 C 0.85973 0.76686 0.18345
 C2568 C 0.83992 0.78285 0.17342
 C2569 C 0.81731 0.78176 0.18888
 C2570 C 0.81347 0.76643 0.21742
 C2571 C 0.83414 0.75154 0.22949
 C2572 C 0.85731 0.75165 0.21243
 C2573 C 0.90056 0.73607 0.20580
 C2574 C 0.87793 0.73652 0.22330
 H2575 H 0.91595 0.72422 0.21538
 H2576 H 0.87659 0.72490 0.24560
 H2577 H 0.94157 0.73797 0.16835
 H2578 H 0.90681 0.78543 0.09077
 H2579 H 0.80239 0.79246 0.17637
 H2580 H 0.83187 0.73910 0.25081
 H2581 H 0.86948 0.78755 0.12043
 H2582 H 0.84090 0.79584 0.15263
 C2583 C 0.38401 0.27081 0.67121
 C2584 C 0.38308 0.27302 0.63605
 C2585 C 0.40515 0.27518 0.61809
 C2586 C 0.42853 0.27418 0.63426
 C2587 C 0.42978 0.27108 0.66892
 C2588 C 0.40773 0.26963 0.68732
 C2589 C 0.35964 0.26889 0.68929
 C2590 C 0.35770 0.26843 0.72423
 C2591 C 0.33437 0.26552 0.73944
 C2592 C 0.31247 0.26282 0.72022
 C2593 C 0.31466 0.26327 0.68545
 C2594 C 0.33746 0.26716 0.67007
 C2595 C 0.36021 0.27248 0.61879
 C2596 C 0.33796 0.26907 0.63539
 H2597 H 0.35956 0.27405 0.59191
 H2598 H 0.32079 0.26809 0.62080
 H2599 H 0.40424 0.27725 0.59123
 H2600 H 0.44780 0.27024 0.68176
 H2601 H 0.33364 0.26456 0.76625
 H2602 H 0.29859 0.26009 0.66963
 H2603 H 0.40956 0.26734 0.71396
 H2604 H 0.37400 0.27014 0.74009
 C2605 C 0.38381 0.71732 0.85025
 C2606 C 0.40524 0.72758 0.83593
 C2607 C 0.42728 0.72917 0.85525
 C2608 C 0.42774 0.72164 0.88912
 C2609 C 0.40568 0.71340 0.90357
 C2610 C 0.38405 0.71119 0.88448
 C2611 C 0.36118 0.71454 0.82886
 C2612 C 0.34067 0.70142 0.84010
 C2613 C 0.31869 0.70184 0.82165
 C2614 C 0.31638 0.71460 0.79052
 C2615 C 0.33780 0.72571 0.77750
 C2616 C 0.36035 0.72549 0.79646
 C2617 C 0.40417 0.73661 0.80281
 C2618 C 0.38194 0.73628 0.78380
 H2619 H 0.42050 0.74478 0.79178
 H2620 H 0.38173 0.74435 0.75882
 H2621 H 0.44408 0.73595 0.84379
 H2622 H 0.40511 0.70861 0.92984
 H2623 H 0.30302 0.69293 0.83316
 H2624 H 0.33667 0.73541 0.75351
 H2625 H 0.36761 0.70505 0.89718
 H2626 H 0.34096 0.69117 0.86356
 C2627 C 0.87803 0.22707 0.33613
 C2628 C 0.88079 0.21292 0.36629
 C2629 C 0.90204 0.21490 0.38668
 C2630 C 0.92193 0.23010 0.37757
 C2631 C 0.91929 0.24377 0.34697
 C2632 C 0.89771 0.24240 0.32676
 C2633 C 0.85387 0.22547 0.31642
 C2634 C 0.84770 0.23992 0.28723
 C2635 C 0.82352 0.23944 0.27244
 C2636 C 0.80501 0.22440 0.28621
 C2637 C 0.81202 0.20921 0.31427
 C2638 C 0.83564 0.20958 0.32916
 C2639 C 0.86215 0.19694 0.37655
 C2640 C 0.84016 0.19517 0.35827
 H2641 H 0.86442 0.18582 0.39937
 H2642 H 0.82607 0.18286 0.36777
 H2643 H 0.90213 0.20510 0.41050
 H2644 H 0.93415 0.25507 0.33759
 H2645 H 0.81889 0.25192 0.25149
 H2646 H 0.79834 0.19843 0.32723
 H2647 H 0.89683 0.25329 0.30378
 H2648 H 0.86093 0.25245 0.27642
 C2649 C 0.10629 0.29086 0.34058
 C2650 C 0.10141 0.27514 0.36850
 C2651 C 0.07770 0.27550 0.38281
 C2652 C 0.05885 0.29211 0.37082
 C2653 C 0.06378 0.30838 0.34401
 C2654 C 0.08716 0.30762 0.32875
 C2655 C 0.13182 0.28921 0.32554
 C2656 C 0.13820 0.30176 0.29564
 C2657 C 0.16222 0.29866 0.28230
 C2658 C 0.18056 0.28349 0.29891
 C2659 C 0.17424 0.27153 0.32911
 C2660 C 0.15020 0.27361 0.34181
 C2661 C 0.12038 0.25962 0.38269
 C2662 C 0.14443 0.25934 0.37014
 H2663 H 0.11669 0.24778 0.40419
 H2664 H 0.15860 0.24724 0.38234
 H2665 H 0.07413 0.26345 0.40418
 H2666 H 0.04949 0.32166 0.33483
 H2667 H 0.16618 0.30792 0.25889
 H2668 H 0.18791 0.25968 0.34267
 H2669 H 0.09011 0.32053 0.30825
 H2670 H 0.12469 0.31345 0.28178
 C2671 C 0.60866 0.77197 0.82495
 C2672 C 0.60027 0.75135 0.84389
 C2673 C 0.57860 0.75345 0.86274
 C2674 C 0.56458 0.77580 0.86307
 C2675 C 0.57218 0.79590 0.84292
 C2676 C 0.59398 0.79409 0.82424
 C2677 C 0.63347 0.76955 0.80815
 C2678 C 0.64448 0.78906 0.79000
 C2679 C 0.66910 0.78654 0.77862
 C2680 C 0.68360 0.76484 0.78569
 C2681 C 0.67147 0.74455 0.80064
 C2682 C 0.64706 0.74681 0.81219
 C2683 C 0.61399 0.72889 0.84498
 C2684 C 0.63687 0.72664 0.82938
 H2685 H 0.60731 0.71298 0.85896
 H2686 H 0.64719 0.70907 0.83189
 H2687 H 0.57337 0.73781 0.87840
 H2688 H 0.56141 0.81321 0.84175
 H2689 H 0.67697 0.80218 0.76599
 H2690 H 0.68125 0.72694 0.80537
 H2691 H 0.59923 0.81028 0.80987
 H2692 H 0.63474 0.80665 0.78531
 C2693 C 0.62345 0.22164 0.64524
 C2694 C 0.62140 0.22076 0.61023
 C2695 C 0.59770 0.22103 0.59458
 C2696 C 0.57581 0.22295 0.61314
 C2697 C 0.57780 0.22447 0.64770
 C2698 C 0.60129 0.22370 0.66364
 C2699 C 0.64918 0.22130 0.66093
 C2700 C 0.65344 0.22083 0.69553
 C2701 C 0.67773 0.22217 0.70876
 C2702 C 0.69852 0.22381 0.68797
 C2703 C 0.69432 0.22371 0.65344
 C2704 C 0.67011 0.22194 0.63993
 C2705 C 0.64298 0.22019 0.59097
 C2706 C 0.66678 0.22119 0.60546
 H2707 H 0.64142 0.21956 0.56419
 H2708 H 0.68286 0.22135 0.58940
 H2709 H 0.59624 0.22026 0.56778
 H2710 H 0.56108 0.22589 0.66246
 H2711 H 0.67995 0.22297 0.73538
 H2712 H 0.70985 0.22573 0.63670
 H2713 H 0.60168 0.22498 0.69026
 H2714 H 0.63826 0.21980 0.71278
 C2715 C 0.12432 0.72389 0.13681
 C2716 C 0.10436 0.72074 0.15896
 C2717 C 0.08048 0.71538 0.14652
 C2718 C 0.07666 0.71208 0.11245
 C2719 C 0.09692 0.71334 0.09101
 C2720 C 0.12052 0.71921 0.10297
 C2721 C 0.14888 0.73161 0.15037
 C2722 C 0.16814 0.73937 0.12965
 C2723 C 0.19112 0.74543 0.14299
 C2724 C 0.19600 0.74333 0.17743
 C2725 C 0.17602 0.73798 0.19851
 C2726 C 0.15244 0.73224 0.18516
 C2727 C 0.10852 0.72273 0.19319
 C2728 C 0.13227 0.72767 0.20610
 H2729 H 0.09332 0.71997 0.21029
 H2730 H 0.13473 0.72845 0.23277
 H2731 H 0.06485 0.71376 0.16323
 H2732 H 0.09428 0.71051 0.06473
 H2733 H 0.20531 0.75117 0.12574
 H2734 H 0.17864 0.73843 0.22513
 H2735 H 0.13552 0.71994 0.08538
 H2736 H 0.16575 0.74117 0.10306
   
