data_POSCAR
  _audit_creation_date              2014-09-24
  _audit_creation_method            'ToBaCCo'
  _symmetry_space_group_name_H-M    'P1'
  _symmetry_Int_Tables_number       1
  _symmetry_cell_setting            triclinic
  loop_
  _symmetry_equiv_pos_as_xyz
 x,y,z
_cell_length_a 61.6474
_cell_length_b 63.4057
_cell_length_c 58.3946
_cell_angle_alpha 90.252000
_cell_angle_beta 93.661200
_cell_angle_gamma 91.357800
loop_
  _atom_site_label
  _atom_site_type_symbol
  _atom_site_fract_x
  _atom_site_fract_y
  _atom_site_fract_z
N1 N 0.16184 0.20676 0.21711
 N2 N 0.17295 0.19805 0.23440
 C3 C 0.16052 0.19693 0.25251
 C4 C 0.14052 0.20528 0.24602
 C5 C 0.14184 0.21116 0.22343
 H6 H 0.16564 0.19050 0.26906
 H7 H 0.12942 0.21864 0.21260
 Cu8 Cu 0.20242 0.18876 0.23130
 Cu9 Cu 0.17443 0.21261 0.18804
 Cu10 Cu 0.23064 0.21069 0.19024
 N11 N 0.23022 0.17774 0.22359
 N12 N 0.24145 0.18666 0.20770
 C13 C 0.25987 0.17606 0.20565
 C14 C 0.26009 0.15948 0.22089
 C15 C 0.24103 0.16102 0.23211
 H16 H 0.27191 0.17977 0.19349
 H17 H 0.23520 0.15065 0.24513
 N18 N 0.21363 0.22634 0.16681
 N19 N 0.19219 0.22636 0.16530
 C20 C 0.18544 0.23822 0.14728
 C21 C 0.20353 0.24594 0.13698
 C22 C 0.22116 0.23806 0.14981
 H23 H 0.16864 0.24142 0.14233
 H24 H 0.23821 0.24062 0.14719
 H25 H 0.20223 0.19437 0.18997
 H26 H 0.20259 0.21965 0.20654
 N27 N 0.66281 0.72469 0.73867
 N28 N 0.66983 0.70996 0.75287
 C29 C 0.65877 0.71090 0.77204
 C30 C 0.64415 0.72713 0.76953
 C31 C 0.64718 0.73549 0.74822
 H32 H 0.66131 0.70072 0.78673
 H33 H 0.63872 0.74862 0.74037
 Cu34 Cu 0.69300 0.69140 0.74480
 Cu35 Cu 0.67487 0.72963 0.70928
 Cu36 Cu 0.71773 0.69878 0.69543
 N37 N 0.71715 0.67414 0.73667
 N38 N 0.72673 0.67721 0.71743
 C39 C 0.74260 0.66317 0.71587
 C40 C 0.74303 0.65059 0.73520
 C41 C 0.72670 0.65800 0.74803
 H42 H 0.75289 0.66216 0.70163
 H43 H 0.72208 0.65193 0.76434
 N44 N 0.70609 0.72134 0.67540
 N45 N 0.68919 0.73249 0.68040
 C46 C 0.68506 0.74661 0.66367
 C47 C 0.70019 0.74447 0.64754
 C48 C 0.71331 0.72828 0.65539
 H49 H 0.67250 0.75824 0.66358
 H50 H 0.72720 0.72222 0.64733
 H51 H 0.68599 0.69941 0.70423
 H52 H 0.70551 0.71872 0.71918
 N53 N 0.32671 0.76571 0.74084
 N54 N 0.32217 0.78017 0.75589
 C55 C 0.33852 0.78167 0.77229
 C56 C 0.35409 0.76727 0.76719
 C57 C 0.34606 0.75744 0.74717
 H58 H 0.33906 0.79254 0.78663
 H59 H 0.35382 0.74525 0.73786
 Cu60 Cu 0.29565 0.79601 0.75229
 Cu61 Cu 0.30731 0.75872 0.71417
 Cu62 Cu 0.26044 0.78783 0.70674
 N63 N 0.27398 0.81660 0.74320
 N64 N 0.26024 0.81342 0.72530
 C65 C 0.24668 0.82974 0.72328
 C66 C 0.25235 0.84394 0.74092
 C67 C 0.26974 0.83509 0.75318
 H68 H 0.23359 0.83089 0.71016
 H69 H 0.27849 0.84154 0.76837
 N70 N 0.26759 0.76501 0.68564
 N71 N 0.28548 0.75402 0.68842
 C72 C 0.28594 0.74000 0.67109
 C73 C 0.26748 0.74234 0.65668
 C74 C 0.25626 0.75834 0.66637
 H75 H 0.29894 0.72917 0.66893
 H76 H 0.24110 0.76483 0.65965
 H77 H 0.29361 0.78832 0.71140
 H78 H 0.27908 0.76768 0.72761
 N79 N 0.82715 0.26771 0.23212
 N80 N 0.82440 0.28703 0.23953
 C81 C 0.84024 0.29206 0.25568
 C82 C 0.85344 0.27495 0.25885
 C83 C 0.84470 0.25966 0.24366
 H84 H 0.84208 0.30706 0.26458
 H85 H 0.85103 0.24422 0.24060
 Cu86 Cu 0.79999 0.30360 0.22808
 Cu87 Cu 0.80872 0.25530 0.20673
 Cu88 Cu 0.76519 0.28517 0.18617
 N89 N 0.77566 0.32016 0.21643
 N90 N 0.76190 0.31266 0.20014
 C91 C 0.74640 0.32686 0.19539
 C92 C 0.75055 0.34410 0.20958
 C93 C 0.76927 0.33940 0.22275
 H94 H 0.73294 0.32475 0.18270
 H95 H 0.77753 0.34915 0.23596
 N96 N 0.77115 0.25713 0.17403
 N97 N 0.78804 0.24590 0.18113
 C98 C 0.78899 0.22890 0.16722
 C99 C 0.77176 0.22961 0.15081
 C100 C 0.76082 0.24753 0.15577
 H101 H 0.80173 0.21746 0.16829
 H102 H 0.74710 0.25377 0.14576
 H103 H 0.79866 0.28333 0.19256
 H104 H 0.78140 0.27120 0.21431
 N105 N 0.79946 0.73838 0.26294
 N106 N 0.79495 0.72021 0.25252
 C107 C 0.81009 0.71681 0.23726
 C108 C 0.82469 0.73384 0.23827
 C109 C 0.81744 0.74711 0.25474
 H110 H 0.81034 0.70314 0.22618
 H111 H 0.82470 0.76215 0.26020
 Cu112 Cu 0.76954 0.70301 0.25994
 Cu113 Cu 0.78167 0.74999 0.28598
 Cu114 Cu 0.73470 0.72203 0.29661
 N115 N 0.74273 0.68755 0.26645
 N116 N 0.72907 0.69559 0.28032
 C117 C 0.71246 0.68186 0.28270
 C118 C 0.71573 0.66417 0.26975
 C119 C 0.73511 0.66824 0.25952
 H120 H 0.69929 0.68417 0.29378
 H121 H 0.74334 0.65775 0.24849
 N122 N 0.74305 0.74893 0.31177
 N123 N 0.76143 0.75923 0.30852
 C124 C 0.76361 0.77566 0.32331
 C125 C 0.74564 0.77560 0.33635
 C126 C 0.73299 0.75855 0.32855
 H127 H 0.77757 0.78632 0.32504
 H128 H 0.71814 0.75293 0.33561
 H129 H 0.76839 0.72176 0.29643
 H130 H 0.75363 0.73567 0.27211
 N131 N 0.31958 0.22293 -0.25104
 N132 N 0.31240 0.20561 -0.26170
 C133 C 0.32645 0.20011 -0.27725
 C134 C 0.34331 0.21486 -0.27641
 C135 C 0.33846 0.22921 -0.25957
 H136 H 0.32461 0.18634 -0.28827
 H137 H 0.34798 0.24293 -0.25366
 Cu138 Cu 0.28561 0.19163 -0.25411
 Cu139 Cu 0.30411 0.23548 -0.22642
 Cu140 Cu 0.26045 0.20621 -0.20746
 N141 N 0.26441 0.17329 -0.24076
 N142 N 0.25443 0.17886 -0.22252
 C143 C 0.24126 0.16276 -0.21658
 C144 C 0.24331 0.14632 -0.23198
 C145 C 0.25809 0.15357 -0.24701
 H146 H 0.23146 0.16283 -0.20187
 H147 H 0.26419 0.14491 -0.26115
 N148 N 0.26949 0.23428 -0.19475
 N149 N 0.28624 0.24527 -0.20182
 C150 C 0.28871 0.26325 -0.18944
 C151 C 0.27274 0.26367 -0.17397
 C152 C 0.26081 0.24505 -0.17777
 H153 H 0.30135 0.27512 -0.19131
 H154 H 0.24718 0.23950 -0.16853
 H155 H 0.29245 0.20645 -0.21589
 H156 H 0.27327 0.22256 -0.23423
 N157 N 0.69292 0.27489 -0.25859
 N158 N 0.70120 0.28870 -0.27253
 C159 C 0.68798 0.29016 -0.29166
 C160 C 0.67035 0.27662 -0.28961
 C161 C 0.67401 0.26707 -0.26840
 H162 H 0.69075 0.30063 -0.30582
 H163 H 0.66382 0.25538 -0.26061
 Cu164 Cu 0.72775 0.30436 -0.26389
 Cu165 Cu 0.70773 0.26789 -0.22905
 Cu166 Cu 0.75555 0.29637 -0.21380
 N167 N 0.74834 0.32533 -0.25084
 N168 N 0.75949 0.32224 -0.23125
 C169 C 0.77246 0.33930 -0.22630
 C170 C 0.76896 0.35385 -0.24372
 C171 C 0.75355 0.34449 -0.25890
 H172 H 0.78315 0.34111 -0.21098
 H173 H 0.74645 0.35122 -0.27456
 N174 N 0.74388 0.27372 -0.19469
 N175 N 0.72553 0.26317 -0.20018
 C176 C 0.72233 0.24859 -0.18392
 C177 C 0.73948 0.25011 -0.16745
 C178 C 0.75276 0.26620 -0.17479
 H179 H 0.70883 0.23738 -0.18436
 H180 H 0.76799 0.27177 -0.16641
 H181 H 0.72310 0.29711 -0.22372
 H182 H 0.73850 0.27600 -0.23728
 N183 N 0.16155 0.77240 0.24727
 N184 N 0.16267 0.79251 0.24199
 C185 C 0.14466 0.79749 0.22906
 C186 C 0.13181 0.77943 0.22581
 C187 C 0.14305 0.76377 0.23754
 H188 H 0.14115 0.81303 0.22245
 H189 H 0.13786 0.74751 0.23956
 Cu190 Cu 0.18796 0.80990 0.25195
 Cu191 Cu 0.18366 0.75931 0.26732
 Cu192 Cu 0.22077 0.79376 0.29601
 N193 N 0.21595 0.82381 0.25966
 N194 N 0.22887 0.81763 0.27703
 C195 C 0.24625 0.83096 0.27948
 C196 C 0.24397 0.84626 0.26264
 C197 C 0.22467 0.84114 0.25037
 H198 H 0.25905 0.82995 0.29296
 H199 H 0.21715 0.84987 0.23622
 N200 N 0.21482 0.76487 0.30668
 N201 N 0.20109 0.75167 0.29535
 C202 C 0.19920 0.73386 0.30757
 C203 C 0.21240 0.73588 0.32746
 C204 C 0.22219 0.75570 0.32635
 H205 H 0.18818 0.72079 0.30291
 H206 H 0.23303 0.76330 0.33931
 H207 H 0.18804 0.78709 0.28540
 H208 H 0.21007 0.78070 0.26615
 N209 N 0.48186 0.43559 0.48432
 N210 N 0.46550 0.44146 0.49606
 C211 C 0.46012 0.42575 0.51019
 C212 C 0.47386 0.40925 0.50727
 C213 C 0.48753 0.41596 0.49073
 H214 H 0.44707 0.42616 0.52170
 H215 H 0.50047 0.40722 0.48375
 Cu216 Cu 0.45214 0.46873 0.49181
 Cu217 Cu 0.49455 0.45396 0.46179
 Cu218 Cu 0.47486 0.50468 0.45833
 N219 N 0.43748 0.49470 0.48329
 N220 N 0.44660 0.50876 0.47029
 C221 C 0.43382 0.52552 0.46711
 C222 C 0.41380 0.52260 0.47905
 C223 C 0.41806 0.50148 0.48926
 H224 H 0.43789 0.53912 0.45697
 H225 H 0.40728 0.49274 0.49984
 N226 N 0.49822 0.49485 0.43991
 N227 N 0.50527 0.47537 0.44054
 C228 C 0.52032 0.47337 0.42495
 C229 C 0.52271 0.49255 0.41398
 C230 C 0.50849 0.50575 0.42391
 H231 H 0.52877 0.45901 0.42177
 H232 H 0.50548 0.52199 0.41939
 H233 H 0.48772 0.48032 0.47919
 H234 H 0.46776 0.47271 0.45495
 N235 N -0.03607 -0.07542 0.98014
 N236 N -0.05300 -0.06860 0.99038
 C237 C -0.05896 -0.08298 1.00576
 C238 C -0.04519 -0.09976 1.00515
 C239 C -0.03078 -0.09452 0.98865
 H240 H -0.07254 -0.08157 1.01647
 H241 H -0.01771 -0.10392 0.98298
 Cu242 Cu -0.06651 -0.04207 0.98199
 Cu243 Cu -0.02328 -0.05909 0.95573
 Cu244 Cu -0.03649 -0.00613 0.95624
 N245 N -0.07857 -0.01510 0.97255
 N246 N -0.06654 -0.00093 0.96256
 C247 C -0.07799 0.01648 0.95774
 C248 C -0.10030 0.01379 0.96506
 C249 C -0.09867 -0.00779 0.97474
 H250 H -0.07156 0.03028 0.94944
 H251 H -0.11165 -0.01653 0.98230
 N252 N -0.01168 -0.01685 0.94070
 N253 N -0.00717 -0.03705 0.93931
 C254 C 0.00939 -0.03919 0.92548
 C255 C 0.01544 -0.01931 0.91794
 C256 C 0.00183 -0.00562 0.92800
 H257 H 0.01631 -0.05407 0.92108
 H258 H 0.00114 0.01124 0.92539
 H259 H -0.02867 -0.03363 0.97489
 H260 H -0.04648 -0.03617 0.94789
 N261 N 1.04766 0.57513 0.97603
 N262 N 1.06602 0.57250 0.98830
 C263 C 1.06840 0.58786 1.00438
 C264 C 1.05051 0.60061 1.00209
 C265 C 1.03771 0.59209 0.98389
 H266 H 1.08199 0.58961 1.01695
 H267 H 1.02242 0.59789 0.97667
 Cu268 Cu 1.08448 0.54890 0.98200
 Cu269 Cu 1.03799 0.55673 0.95048
 Cu270 Cu 1.07126 0.51537 0.93823
 N271 N 1.10299 0.52551 0.97519
 N272 N 1.09780 0.51261 0.95790
 C273 C 1.11285 0.49763 0.95728
 C274 C 1.12828 0.50131 0.97519
 C275 C 1.12151 0.51906 0.98623
 H276 H 1.11219 0.48466 0.94515
 H277 H 1.12931 0.52643 1.00144
 N278 N 1.04371 0.52085 0.92042
 N279 N 1.03100 0.53651 0.92527
 C280 C 1.01354 0.53622 0.91019
 C281 C 1.01536 0.51958 0.89510
 C282 C 1.03463 0.51018 0.90207
 H283 H 1.00062 0.54743 0.91012
 H284 H 1.04154 0.49664 0.89419
 H285 H 1.05371 0.53006 0.96232
 H286 H 1.06862 0.54749 0.94266
 N287 N 0.54535 0.07421 0.47541
 N288 N 0.56259 0.06928 0.48857
 C289 C 0.56682 0.08472 0.50427
 C290 C 0.55130 0.10000 0.50085
 C291 C 0.53800 0.09287 0.48228
 H292 H 0.58006 0.08477 0.51737
 H293 H 0.52406 0.10062 0.47428
 Cu294 Cu 0.57774 0.04304 0.48379
 Cu295 Cu 0.53394 0.05601 0.45018
 Cu296 Cu 0.54640 0.00383 0.45979
 N297 N 0.58818 0.01426 0.48210
 N298 N 0.57539 -0.00098 0.47325
 C299 C 0.58554 -0.01943 0.47544
 C300 C 0.60593 -0.01564 0.48587
 C301 C 0.60717 0.00595 0.49000
 H302 H 0.57857 -0.03455 0.46984
 H303 H 0.62055 0.01478 0.49861
 N304 N 0.52272 0.01255 0.43801
 N305 N 0.51841 0.03247 0.43365
 C306 C 0.50247 0.03327 0.41681
 C307 C 0.49660 0.01277 0.41024
 C308 C 0.50976 0.00010 0.42401
 H309 H 0.49589 0.04770 0.40980
 H310 H 0.51029 -0.01693 0.42338
 H311 H 0.53974 0.03343 0.47335
 H312 H 0.55715 0.03234 0.44836
 N313 N -0.03332 0.09253 0.53679
 N314 N -0.05174 0.08841 0.52482
 C315 C -0.05327 0.10104 0.50642
 C316 C -0.03501 0.11398 0.50696
 C317 C -0.02262 0.10829 0.52650
 H318 H -0.06628 0.10027 0.49308
 H319 H -0.00653 0.11424 0.53201
 Cu320 Cu -0.07110 0.06555 0.53256
 Cu321 Cu -0.02376 0.07540 0.56322
 Cu322 Cu -0.05798 0.03304 0.57550
 N323 N -0.08483 0.03791 0.53412
 N324 N -0.07935 0.02500 0.55091
 C325 C -0.09122 0.00700 0.54818
 C326 C -0.10481 0.00877 0.52848
 C327 C -0.10037 0.02860 0.52004
 H328 H -0.09019 -0.00614 0.55991
 H329 H -0.10794 0.03575 0.50485
 N330 N -0.03084 0.03997 0.59369
 N331 N -0.01762 0.05592 0.58921
 C332 C 0.00006 0.05537 0.60407
 C333 C -0.00227 0.03818 0.61835
 C334 C -0.02195 0.02884 0.61127
 H335 H 0.01394 0.06610 0.60390
 H336 H -0.02889 0.01447 0.61792
 H337 H -0.04030 0.04828 0.55161
 H338 H -0.05387 0.06576 0.57174
 N339 N 0.46486 0.58221 0.04988
 N340 N 0.44968 0.57878 0.03334
 C341 C 0.44777 0.59626 0.02037
 C342 C 0.46259 0.61135 0.02936
 C343 C 0.47305 0.60193 0.04805
 H344 H 0.43736 0.59747 0.00484
 H345 H 0.48662 0.60851 0.05861
 Cu346 Cu 0.43569 0.55106 0.02909
 Cu347 Cu 0.47532 0.56018 0.07053
 Cu348 Cu 0.45091 0.51078 0.06340
 N349 N 0.42136 0.52342 0.02595
 N350 N 0.42743 0.50782 0.03948
 C351 C 0.41472 0.49073 0.03424
 C352 C 0.39984 0.49589 0.01649
 C353 C 0.40458 0.51672 0.01158
 H354 H 0.41613 0.47573 0.04285
 H355 H 0.39608 0.52636 -0.00114
 N356 N 0.47487 0.51694 0.08670
 N357 N 0.48386 0.53593 0.08976
 C358 C 0.49985 0.53553 0.10657
 C359 C 0.50205 0.51395 0.11582
 C360 C 0.48461 0.50320 0.10133
 H361 H 0.50997 0.54901 0.11209
 H362 H 0.48042 0.48659 0.10204
 H363 H 0.46756 0.53521 0.04835
 H364 H 0.44673 0.54248 0.06868
 N365 N 0.53197 -0.07126 0.04478
 N366 N 0.54988 -0.06457 0.03579
 C367 C 0.55520 -0.07833 0.01964
 C368 C 0.53985 -0.09454 0.01840
 C369 C 0.52529 -0.08965 0.03466
 H370 H 0.56923 -0.07669 0.00950
 H371 H 0.51102 -0.09870 0.03891
 Cu372 Cu 0.56493 -0.03866 0.04595
 Cu373 Cu 0.51936 -0.05530 0.06915
 Cu374 Cu 0.53324 -0.00198 0.06701
 N375 N 0.57472 -0.00951 0.04932
 N376 N 0.56212 0.00498 0.05705
 C377 C 0.57210 0.02401 0.05560
 C378 C 0.59205 0.02122 0.04660
 C379 C 0.59319 -0.00029 0.04281
 H380 H 0.56514 0.03883 0.06020
 H381 H 0.60596 -0.00854 0.03493
 N382 N 0.50855 -0.01318 0.08360
 N383 N 0.50361 -0.03350 0.08500
 C384 C 0.48689 -0.03607 0.09859
 C385 C 0.48115 -0.01636 0.10615
 C386 C 0.49514 -0.00228 0.09628
 H387 H 0.47959 -0.05114 0.10270
 H388 H 0.49581 0.01465 0.09866
 H389 H 0.52689 -0.03046 0.04970
 H390 H 0.54269 -0.03112 0.07804
 N391 N 1.02886 0.43108 0.51744
 N392 N 1.04024 0.44106 0.50241
 C393 C 1.04225 0.42851 0.48412
 C394 C 1.03160 0.40960 0.48782
 C395 C 1.02321 0.41169 0.50917
 H396 H 1.05145 0.43255 0.46952
 H397 H 1.01423 0.39989 0.51826
 Cu398 Cu 1.05302 0.46878 0.50858
 Cu399 Cu 1.02336 0.44405 0.54687
 Cu400 Cu 1.05452 0.48895 0.56195
 N401 N 1.07338 0.49114 0.51830
 N402 N 1.07448 0.49891 0.53927
 C403 C 1.09027 0.51407 0.54103
 C404 C 1.09943 0.51564 0.51998
 C405 C 1.08831 0.50090 0.50607
 H406 H 1.09456 0.52333 0.55631
 H407 H 1.09094 0.49751 0.48830
 N408 N 1.03299 0.47630 0.58197
 N409 N 1.02064 0.45965 0.57579
 C410 C 1.00617 0.45613 0.59174
 C411 C 1.00962 0.47121 0.60883
 C412 C 1.02683 0.48362 0.60222
 H413 H 0.99380 0.44372 0.59081
 H414 H 1.03362 0.49754 0.61101
 H415 H 1.03020 0.47576 0.54004
 H416 H 1.05380 0.45880 0.54857
 C417 C 0.34180 0.01725 0.24897
 C418 C 0.33028 -0.00345 0.25416
 C419 C 0.34412 -0.02078 0.25823
 C420 C 0.36818 -0.01486 0.25660
 C421 C 0.35742 0.02162 0.26963
 C422 C 0.37322 0.00467 0.27540
 C423 C 0.35582 0.01247 0.22917
 C424 C 0.37001 -0.00467 0.23306
 H425 H 0.31276 -0.00454 0.25372
 H426 H 0.37920 -0.02833 0.25975
 H427 H 0.35735 0.03602 0.27966
 H428 H 0.35487 0.02183 0.21375
 C429 C 0.14819 -0.02845 0.75217
 C430 C 0.16182 -0.00891 0.75948
 C431 C 0.14966 0.00843 0.76654
 C432 C 0.12519 0.00379 0.76554
 C433 C 0.13550 -0.03445 0.77265
 C434 C 0.12194 -0.01732 0.78173
 C435 C 0.13134 -0.02082 0.73405
 C436 C 0.11902 -0.00356 0.74098
 H437 H 0.17920 -0.00836 0.75798
 H438 H 0.11557 0.01732 0.77103
 H439 H 0.13599 -0.04999 0.78028
 H440 H 0.12993 -0.02758 0.71699
 C441 C 0.65838 0.46929 0.26060
 C442 C 0.67171 0.48975 0.26214
 C443 C 0.65945 0.50786 0.26597
 C444 C 0.63511 0.50273 0.26854
 C445 C 0.64727 0.46818 0.28302
 C446 C 0.63446 0.48576 0.28737
 C447 C 0.64013 0.47286 0.24218
 C448 C 0.62756 0.49089 0.24634
 H449 H 0.68889 0.49052 0.25921
 H450 H 0.62525 0.51664 0.27179
 H451 H 0.64796 0.45447 0.29405
 H452 H 0.63769 0.46284 0.22718
 C453 C 0.85951 0.53045 0.73386
 C454 C 0.84746 0.51031 0.74009
 C455 C 0.86071 0.49288 0.74573
 C456 C 0.88492 0.49774 0.74452
 C457 C 0.87556 0.53556 0.75399
 C458 C 0.89047 0.51824 0.76162
 C459 C 0.87309 0.52455 0.71414
 C460 C 0.88812 0.50650 0.71831
 H461 H 0.82992 0.50978 0.73984
 H462 H 0.89535 0.48410 0.74895
 H463 H 0.87634 0.55078 0.76254
 H464 H 0.87262 0.53312 0.69812
 C465 C 0.25627 0.35193 0.01281
 C466 C 0.25344 0.34084 -0.01029
 C467 C 0.25734 0.35411 -0.02922
 C468 C 0.26375 0.37693 -0.02202
 C469 C 0.27924 0.36125 0.01375
 C470 C 0.28327 0.37519 -0.00440
 C471 C 0.24131 0.37075 0.01100
 C472 C 0.24511 0.38420 -0.00788
 H473 H 0.25041 0.32399 -0.01159
 H474 H 0.26675 0.38723 -0.03685
 H475 H 0.29083 0.35912 0.02826
 H476 H 0.22830 0.37263 0.02235
 C477 C 0.73800 0.13584 -0.03567
 C478 C 0.74617 0.14855 -0.01444
 C479 C 0.75159 0.13594 0.00508
 C480 C 0.74796 0.11229 0.00040
 C481 C 0.75575 0.12011 -0.03963
 C482 C 0.76127 0.10745 -0.02017
 C483 C 0.71884 0.12254 -0.02795
 C484 C 0.72413 0.10982 -0.00851
 H485 H 0.74707 0.16558 -0.01459
 H486 H 0.75216 0.10235 0.01562
 H487 H 0.76295 0.11876 -0.05596
 H488 H 0.70303 0.12252 -0.03708
 C489 C 0.25040 0.64084 0.46990
 C490 C 0.25392 0.65466 0.49128
 C491 C 0.25636 0.64311 0.51205
 C492 C 0.25524 0.61914 0.50823
 C493 C 0.26970 0.62628 0.47064
 C494 C 0.27255 0.61457 0.49124
 C495 C 0.23085 0.62650 0.47415
 C496 C 0.23327 0.61488 0.49494
 H497 H 0.25473 0.67166 0.49019
 H498 H 0.25732 0.61000 0.52441
 H499 H 0.27933 0.62440 0.45598
 H500 H 0.21665 0.62567 0.46230
 C501 C 0.75412 0.85566 0.53239
 C502 C 0.75474 0.84578 0.50870
 C503 C 0.75638 0.86036 0.49054
 C504 C 0.75798 0.88328 0.49871
 C505 C 0.77518 0.86837 0.53596
 C506 C 0.77902 0.88454 0.51789
 C507 C 0.73620 0.87183 0.53052
 C508 C 0.73806 0.88658 0.51248
 H509 H 0.75509 0.82886 0.50655
 H510 H 0.75953 0.89478 0.48456
 H511 H 0.78661 0.86637 0.55061
 H512 H 0.72375 0.87217 0.54272
 C513 C 0.03080 0.24571 0.36673
 C514 C 0.01043 0.24944 0.35126
 C515 C -0.00849 0.25247 0.36336
 C516 C -0.00412 0.25183 0.38951
 C517 C 0.03295 0.26486 0.38268
 C518 C 0.01413 0.26832 0.39500
 C519 C 0.02505 0.22729 0.38207
 C520 C 0.00640 0.23057 0.39456
 H521 H 0.01039 0.24822 0.33277
 H522 H -0.01890 0.25437 0.39905
 H523 H 0.04747 0.27477 0.38391
 H524 H 0.03561 0.21400 0.38459
 C525 C -0.04903 0.73466 0.12274
 C526 C -0.02860 0.73757 0.13878
 C527 C -0.00935 0.74209 0.12751
 C528 C -0.01288 0.74261 0.10145
 C529 C -0.04995 0.75418 0.10763
 C530 C -0.03069 0.75857 0.09619
 C531 C -0.04418 0.71660 0.10682
 C532 C -0.02393 0.71931 0.09414
 H533 H -0.02874 0.73483 0.15704
 H534 H 0.00226 0.74602 0.09261
 H535 H -0.06425 0.76374 0.10624
 H536 H -0.05418 0.70233 0.10509
 C537 C 0.47410 0.24696 0.62416
 C538 C 0.49460 0.24902 0.63980
 C539 C 0.51550 0.25129 0.62831
 C540 C 0.50966 0.25071 0.60023
 C541 C 0.47457 0.26576 0.60819
 C542 C 0.49313 0.26784 0.59524
 C543 C 0.47676 0.22773 0.60918
 C544 C 0.49626 0.22807 0.59506
 H545 H 0.49433 0.24883 0.65833
 H546 H 0.52436 0.25238 0.59024
 H547 H 0.46185 0.27720 0.60791
 H548 H 0.46545 0.21438 0.60870
 C549 C 0.52707 0.74476 0.89082
 C550 C 0.50757 0.74842 0.87402
 C551 C 0.48843 0.75393 0.88478
 C552 C 0.49164 0.75475 0.91103
 C553 C 0.52982 0.76484 0.90527
 C554 C 0.51078 0.77028 0.91632
 C555 C 0.51934 0.72788 0.90712
 C556 C 0.50031 0.73316 0.91813
 H557 H 0.50864 0.74674 0.85571
 H558 H 0.47669 0.75893 0.91958
 H559 H 0.54502 0.77372 0.90673
 H560 H 0.52713 0.71282 0.90884
 C561 C 0.12169 0.20811 0.25981
 C562 C 0.12335 0.20748 0.28370
 C563 C 0.10471 0.21178 0.29754
 C564 C 0.10848 0.22115 0.31928
 C565 C 0.09109 0.22584 0.33252
 C566 C 0.06962 0.22096 0.32429
 C567 C 0.06592 0.21097 0.30289
 C568 C 0.08327 0.20650 0.28955
 C569 C 0.05081 0.22543 0.33780
 C570 C 0.05064 0.24190 0.35370
 H571 H 0.13915 0.20553 0.29256
 H572 H 0.12490 0.22508 0.32590
 H573 H 0.09455 0.23294 0.34927
 H574 H 0.04953 0.20677 0.29637
 H575 H 0.07986 0.19867 0.27317
 H576 H 0.03602 0.21606 0.33429
 H577 H 0.10649 0.21229 0.25086
 H578 H 0.06475 0.25227 0.35664
 C579 C 0.62852 0.73475 0.78548
 C580 C 0.62474 0.72481 0.80613
 C581 C 0.60782 0.73184 0.82114
 C582 C 0.59794 0.71699 0.83509
 C583 C 0.58113 0.72281 0.84862
 C584 C 0.57415 0.74380 0.84880
 C585 C 0.58439 0.75873 0.83522
 C586 C 0.60113 0.75289 0.82162
 C587 C 0.55564 0.75046 0.86191
 C588 C 0.54729 0.73858 0.87951
 H589 H 0.63320 0.71048 0.81056
 H590 H 0.60281 0.70068 0.83502
 H591 H 0.57336 0.71061 0.85829
 H592 H 0.57936 0.77499 0.83505
 H593 H 0.60880 0.76493 0.81161
 H594 H 0.54803 0.76523 0.85737
 H595 H 0.61901 0.74817 0.78005
 H596 H 0.55568 0.72477 0.88578
 C597 C 0.37504 0.76301 0.77959
 C598 C 0.38239 0.77375 0.79962
 C599 C 0.40355 0.76971 0.81214
 C600 C 0.40680 0.77610 0.83517
 C601 C 0.42650 0.77249 0.84760
 C602 C 0.44342 0.76235 0.83717
 C603 C 0.44035 0.75651 0.81396
 C604 C 0.42070 0.76016 0.80154
 C605 C 0.46466 0.75804 0.84942
 C606 C 0.46836 0.75830 0.87333
 H607 H 0.37192 0.78510 0.80695
 H608 H 0.39400 0.78386 0.84362
 H609 H 0.42837 0.77796 0.86518
 H610 H 0.45323 0.74905 0.80535
 H611 H 0.41928 0.75574 0.78361
 H612 H 0.47759 0.75379 0.83879
 H613 H 0.38462 0.75072 0.77270
 H614 H 0.45512 0.76181 0.88389
 C615 C -0.12792 0.27449 0.27362
 C616 C -0.11615 0.25634 0.27826
 C617 C -0.09534 0.25745 0.29221
 C618 C -0.09063 0.24224 0.30906
 C619 C -0.07072 0.24308 0.32205
 C620 C -0.05505 0.25880 0.31781
 C621 C -0.05968 0.27379 0.30073
 C622 C -0.07976 0.27331 0.28824
 C623 C -0.03313 0.25876 0.32945
 C624 C -0.02940 0.25452 0.35282
 H625 H -0.12259 0.24105 0.27252
 H626 H -0.10238 0.22978 0.31221
 H627 H -0.06728 0.23107 0.33480
 H628 H -0.04768 0.28585 0.29704
 H629 H -0.08290 0.28497 0.27502
 H630 H -0.01974 0.26353 0.31937
 H631 H -0.12250 0.28908 0.28215
 H632 H -0.04319 0.25331 0.36338
 C633 C -0.15618 0.73812 0.22496
 C634 C -0.14923 0.72435 0.20837
 C635 C -0.13006 0.72889 0.19480
 C636 C -0.12792 0.71758 0.17439
 C637 C -0.11016 0.72135 0.16107
 C638 C -0.09398 0.73659 0.16792
 C639 C -0.09603 0.74770 0.18850
 C640 C -0.11372 0.74385 0.20185
 C641 C -0.07458 0.74118 0.15468
 C642 C -0.06969 0.73043 0.13475
 H643 H -0.15865 0.71000 0.20452
 H644 H -0.14012 0.70583 0.16863
 H645 H -0.10938 0.71217 0.14556
 H646 H -0.08374 0.75930 0.19445
 H647 H -0.11420 0.75244 0.21783
 H648 H -0.06312 0.75325 0.16138
 H649 H -0.14773 0.75307 0.22821
 H650 H -0.08124 0.71915 0.12679
 C651 C 0.36118 0.21453 0.71011
 C652 C 0.37726 0.23043 0.71077
 C653 C 0.39585 0.23000 0.69600
 C654 C 0.40519 0.24914 0.68916
 C655 C 0.42263 0.24933 0.67503
 C656 C 0.43120 0.23029 0.66759
 C657 C 0.42233 0.21114 0.67505
 C658 C 0.40474 0.21095 0.68903
 C659 C 0.44981 0.23003 0.65284
 C660 C 0.45383 0.24609 0.63731
 H661 H 0.37552 0.24435 0.72123
 H662 H 0.39883 0.26401 0.69461
 H663 H 0.42960 0.26440 0.67033
 H664 H 0.42895 0.19630 0.66991
 H665 H 0.39840 0.19592 0.69464
 H666 H 0.46046 0.21666 0.65386
 H667 H 0.36208 0.20151 0.69817
 H668 H 0.44239 0.25873 0.63509
 C669 C 0.65274 0.27413 0.69425
 C670 C 0.63453 0.26136 0.69787
 C671 C 0.61525 0.25994 0.68140
 C672 C 0.59490 0.25510 0.68973
 C673 C 0.57624 0.25390 0.67485
 C674 C 0.57759 0.25721 0.65115
 C675 C 0.59801 0.26166 0.64274
 C676 C 0.61668 0.26304 0.65768
 C677 C 0.55806 0.25591 0.63500
 C678 C 0.53739 0.25333 0.64289
 H679 H 0.63352 0.25331 0.71409
 H680 H 0.59339 0.25251 0.70789
 H681 H 0.56080 0.25032 0.68198
 H682 H 0.59952 0.26407 0.62455
 H683 H 0.63219 0.26620 0.65054
 H684 H 0.56002 0.25712 0.61670
 H685 H 0.65309 0.28331 0.67868
 H686 H 0.52731 0.25247 0.63168
 C687 C 0.11024 0.77778 0.21357
 C688 C 0.10140 0.75846 0.20566
 C689 C 0.07939 0.75633 0.19426
 C690 C 0.07537 0.74133 0.17669
 C691 C 0.05458 0.73879 0.16586
 C692 C 0.03735 0.75087 0.17288
 C693 C 0.04122 0.76540 0.19093
 C694 C 0.06213 0.76834 0.20136
 C695 C 0.01516 0.74803 0.16212
 C696 C 0.01136 0.74508 0.13848
 H697 H 0.11135 0.74460 0.20675
 H698 H 0.08838 0.73168 0.17123
 H699 H 0.05187 0.72709 0.15235
 H700 H 0.02807 0.77463 0.19681
 H701 H 0.06468 0.77962 0.21530
 H702 H 0.00171 0.75015 0.17287
 H703 H 0.10146 0.79213 0.21011
 H704 H 0.02511 0.74610 0.12783
 C705 C 0.27671 0.14321 0.22310
 C706 C 0.27479 0.12592 0.23755
 C707 C 0.29012 0.10828 0.23858
 C708 C 0.28314 0.08893 0.24741
 C709 C 0.29687 0.07174 0.24854
 C710 C 0.31799 0.07354 0.24083
 C711 C 0.32521 0.09305 0.23256
 C712 C 0.31143 0.11027 0.23138
 C713 C 0.33316 0.05579 0.24239
 C714 C 0.32616 0.03480 0.24412
 H715 H 0.26065 0.12448 0.24757
 H716 H 0.26694 0.08706 0.25342
 H717 H 0.29095 0.05727 0.25593
 H718 H 0.34157 0.09497 0.22700
 H719 H 0.31771 0.12510 0.22519
 H720 H 0.35046 0.05930 0.24254
 H721 H 0.29009 0.14451 0.21206
 H722 H 0.30901 0.03081 0.24162
 C723 C 0.75729 0.63282 0.74116
 C724 C 0.77317 0.62621 0.72684
 C725 C 0.78782 0.60833 0.73185
 C726 C 0.80567 0.60591 0.71836
 C727 C 0.81984 0.58921 0.72212
 C728 C 0.81633 0.57436 0.73940
 C729 C 0.79861 0.57684 0.75302
 C730 C 0.78439 0.59352 0.74922
 C731 C 0.83104 0.55654 0.74412
 C732 C 0.84452 0.54841 0.72805
 H733 H 0.77538 0.63485 0.71119
 H734 H 0.80878 0.61709 0.70491
 H735 H 0.83368 0.58827 0.71171
 H736 H 0.79560 0.56568 0.76652
 H737 H 0.77067 0.59443 0.75976
 H738 H 0.83085 0.54901 0.76074
 H739 H 0.75516 0.62512 0.75735
 H740 H 0.84389 0.55463 0.71081
 C741 C 0.77829 0.37523 0.75397
 C742 C 0.79557 0.38341 0.76814
 C743 C 0.80452 0.40505 0.76507
 C744 C 0.82648 0.40968 0.77136
 C745 C 0.83544 0.42980 0.76760
 C746 C 0.82246 0.44572 0.75758
 C747 C 0.80032 0.44123 0.75218
 C748 C 0.79142 0.42122 0.75595
 C749 C 0.83093 0.46723 0.75270
 C750 C 0.85301 0.47270 0.75164
 H751 H 0.80356 0.37330 0.78082
 H752 H 0.83682 0.39761 0.77887
 H753 H 0.85240 0.43270 0.77272
 H754 H 0.78982 0.45323 0.74480
 H755 H 0.77420 0.41858 0.75184
 H756 H 0.81881 0.47889 0.74867
 H757 H 0.77156 0.38458 0.73991
 H758 H 0.86502 0.46078 0.75503
 C759 C 0.25668 -0.13567 0.25924
 C760 C 0.27567 -0.13017 0.27248
 C761 C 0.28613 -0.10902 0.27068
 C762 C 0.30872 -0.10627 0.27481
 C763 C 0.31864 -0.08622 0.27309
 C764 C 0.30595 -0.06856 0.26753
 C765 C 0.28333 -0.07136 0.26409
 C766 C 0.27353 -0.09127 0.26563
 C767 C 0.31504 -0.04686 0.26550
 C768 C 0.33690 -0.04150 0.26263
 H769 H 0.28305 -0.14143 0.28431
 H770 H 0.31871 -0.11968 0.27917
 H771 H 0.33605 -0.08466 0.27643
 H772 H 0.27310 -0.05803 0.26012
 H773 H 0.25600 -0.09261 0.26325
 H774 H 0.30324 -0.03457 0.26550
 H775 H 0.25096 -0.12509 0.24576
 H776 H 0.34887 -0.05370 0.26348
 C777 C 0.24267 -0.13714 0.74630
 C778 C 0.22517 -0.12889 0.73313
 C779 C 0.21403 -0.10946 0.73947
 C780 C 0.20216 -0.09843 0.72229
 C781 C 0.19083 -0.08041 0.72766
 C782 C 0.19085 -0.07324 0.75051
 C783 C 0.20291 -0.08415 0.76765
 C784 C 0.21428 -0.10214 0.76227
 C785 C 0.17862 -0.05457 0.75718
 C786 C 0.16131 -0.04635 0.74374
 H787 H 0.21965 -0.13656 0.71714
 H788 H 0.20174 -0.10371 0.70459
 H789 H 0.18230 -0.07215 0.71381
 H790 H 0.20322 -0.07896 0.78537
 H791 H 0.22272 -0.11049 0.77612
 H792 H 0.18258 -0.04763 0.77397
 H793 H 0.24934 -0.12860 0.76132
 H794 H 0.15586 -0.05397 0.72773
 C795 C 0.73720 0.36298 0.21026
 C796 C 0.74077 0.37850 0.22712
 C797 C 0.72640 0.39665 0.22903
 C798 C 0.72458 0.40588 0.25065
 C799 C 0.71055 0.42253 0.25333
 C800 C 0.69818 0.43041 0.23433
 C801 C 0.70071 0.42185 0.21252
 C802 C 0.71462 0.40502 0.20986
 C803 C 0.68301 0.44780 0.23688
 C804 C 0.67187 0.45034 0.25670
 H805 H 0.75347 0.37644 0.24056
 H806 H 0.73380 0.39997 0.26559
 H807 H 0.70960 0.42934 0.27025
 H808 H 0.69166 0.42798 0.19759
 H809 H 0.71623 0.39878 0.19279
 H810 H 0.68008 0.45854 0.22269
 H811 H 0.72354 0.36398 0.19778
 H812 H 0.67377 0.43885 0.27029
 C813 C 0.70179 0.64495 0.26944
 C814 C 0.70578 0.62687 0.25683
 C815 C 0.69287 0.60683 0.25823
 C816 C 0.70121 0.58836 0.24926
 C817 C 0.69021 0.56896 0.25108
 C818 C 0.67060 0.56752 0.26219
 C819 C 0.66173 0.58610 0.27021
 C820 C 0.67267 0.60554 0.26828
 C821 C 0.65890 0.54705 0.26522
 C822 C 0.66956 0.52785 0.26532
 H823 H 0.71972 0.62699 0.24643
 H824 H 0.71646 0.58886 0.24099
 H825 H 0.69712 0.55526 0.24355
 H826 H 0.64639 0.58555 0.27829
 H827 H 0.66508 0.61936 0.27466
 H828 H 0.64170 0.54742 0.26778
 H829 H 0.68843 0.64511 0.28052
 H830 H 0.68701 0.52820 0.26411
 C831 C 0.23344 0.12498 0.76756
 C832 C 0.21783 0.11824 0.78235
 C833 C 0.20858 0.09646 0.78128
 C834 C 0.18720 0.09260 0.78735
 C835 C 0.17781 0.07228 0.78537
 C836 C 0.18978 0.05538 0.77740
 C837 C 0.21148 0.05918 0.77235
 C838 C 0.22080 0.07942 0.77429
 C839 C 0.18058 0.03368 0.77390
 C840 C 0.15832 0.02851 0.77259
 H841 H 0.21133 0.12945 0.79400
 H842 H 0.17759 0.10542 0.79319
 H843 H 0.16128 0.07004 0.79018
 H844 H 0.22123 0.04645 0.76656
 H845 H 0.23762 0.08162 0.77038
 H846 H 0.19212 0.02154 0.77104
 H847 H 0.23851 0.11429 0.75452
 H848 H 0.14683 0.04061 0.77575
 C849 C 0.20358 0.26010 0.11709
 C850 C 0.22295 0.26691 0.10811
 C851 C 0.22462 0.28174 0.08876
 C852 C 0.24532 0.28585 0.08092
 C853 C 0.24819 0.30014 0.06326
 C854 C 0.23037 0.31083 0.05310
 C855 C 0.20954 0.30638 0.06045
 C856 C 0.20665 0.29208 0.07825
 C857 C 0.23314 0.32628 0.03459
 C858 C 0.25255 0.33769 0.03274
 H859 H 0.23807 0.26107 0.11574
 H860 H 0.25942 0.27798 0.08850
 H861 H 0.26438 0.30251 0.05745
 H862 H 0.19554 0.31426 0.05267
 H863 H 0.19039 0.28949 0.08370
 H864 H 0.21956 0.32904 0.02235
 H865 H 0.18803 0.26507 0.10971
 H866 H 0.26547 0.33640 0.04607
 C867 C 0.70215 0.75808 0.62747
 C868 C 0.72093 0.75932 0.61545
 C869 C 0.72400 0.77550 0.59773
 C870 C 0.74504 0.78334 0.59454
 C871 C 0.74836 0.79956 0.57894
 C872 C 0.73063 0.80813 0.56610
 C873 C 0.70971 0.79963 0.56856
 C874 C 0.70637 0.78351 0.58426
 C875 C 0.73344 0.82533 0.54947
 C876 C 0.75116 0.83947 0.55077
 H877 H 0.73467 0.74983 0.62091
 H878 H 0.75890 0.77717 0.60447
 H879 H 0.76483 0.80513 0.57686
 H880 H 0.69586 0.80565 0.55848
 H881 H 0.69002 0.77730 0.58570
 H882 H 0.72089 0.82724 0.53582
 H883 H 0.68911 0.76888 0.62355
 H884 H 0.76311 0.83890 0.56514
 C885 C 0.74150 0.78839 0.35655
 C886 C 0.75652 0.80302 0.36654
 C887 C 0.75428 0.81180 0.38977
 C888 C 0.76465 0.83108 0.39618
 C889 C 0.76376 0.83898 0.41854
 C890 C 0.75261 0.82753 0.43492
 C891 C 0.74233 0.80826 0.42846
 C892 C 0.74314 0.80046 0.40621
 C893 C 0.75232 0.83418 0.45920
 C894 C 0.75656 0.85478 0.46727
 H895 H 0.77064 0.80768 0.35750
 H896 H 0.77363 0.83992 0.38391
 H897 H 0.77233 0.85364 0.42302
 H898 H 0.73389 0.79898 0.44081
 H899 H 0.73563 0.78518 0.40229
 H900 H 0.74740 0.82214 0.47095
 H901 H 0.72650 0.78505 0.36464
 H902 H 0.75919 0.86725 0.45510
 C903 C 0.27040 0.28002 -0.15632
 C904 C 0.25269 0.28007 -0.14259
 C905 C 0.25078 0.29417 -0.12248
 C906 C 0.23428 0.28951 -0.10771
 C907 C 0.23266 0.30106 -0.08755
 C908 C 0.24734 0.31774 -0.08171
 C909 C 0.26340 0.32308 -0.09686
 C910 C 0.26511 0.31141 -0.11709
 C911 C 0.24652 0.32757 -0.05877
 C912 C 0.25611 0.34709 -0.05212
 H913 H 0.23994 0.26821 -0.14589
 H914 H 0.22293 0.27644 -0.11141
 H915 H 0.22015 0.29658 -0.07616
 H916 H 0.27517 0.33568 -0.09277
 H917 H 0.27788 0.31583 -0.12809
 H918 H 0.23736 0.31882 -0.04663
 H919 H 0.28337 0.29172 -0.15390
 H920 H 0.26220 0.35745 -0.06503
 C921 C 0.74399 0.23692 -0.14705
 C922 C 0.72982 0.22079 -0.14069
 C923 C 0.73453 0.20660 -0.12096
 C924 C 0.71723 0.19539 -0.11180
 C925 C 0.72094 0.18151 -0.09351
 C926 C 0.74220 0.17830 -0.08410
 C927 C 0.75950 0.18952 -0.09327
 C928 C 0.75578 0.20343 -0.11154
 C929 C 0.74705 0.16395 -0.06451
 C930 C 0.73217 0.14934 -0.05625
 H931 H 0.71429 0.21869 -0.15025
 H932 H 0.70070 0.19752 -0.11872
 H933 H 0.70701 0.17364 -0.08676
 H934 H 0.77604 0.18739 -0.08637
 H935 H 0.76967 0.21130 -0.11842
 H936 H 0.76325 0.16481 -0.05613
 H937 H 0.75894 0.24025 -0.13683
 H938 H 0.71631 0.14699 -0.06498
 C939 C 0.21333 0.72077 0.34653
 C940 C 0.22824 0.72292 0.36539
 C941 C 0.22859 0.70814 0.38492
 C942 C 0.24836 0.70460 0.39735
 C943 C 0.24924 0.69077 0.41592
 C944 C 0.23023 0.68044 0.42262
 C945 C 0.21034 0.68448 0.41064
 C946 C 0.20951 0.69807 0.39183
 C947 C 0.23071 0.66605 0.44247
 C948 C 0.24848 0.65348 0.44812
 H949 H 0.24078 0.73517 0.36537
 H950 H 0.26319 0.71245 0.39257
 H951 H 0.26473 0.68852 0.42527
 H952 H 0.19546 0.67696 0.41575
 H953 H 0.19389 0.70098 0.38303
 H954 H 0.21655 0.66488 0.45251
 H955 H 0.20205 0.70741 0.34540
 H956 H 0.26220 0.65399 0.43743
 C957 C 0.26128 0.73124 0.63495
 C958 C 0.27288 0.71422 0.62727
 C959 C 0.26813 0.70369 0.60475
 C960 C 0.27614 0.68346 0.60130
 C961 C 0.27283 0.67334 0.57998
 C962 C 0.26145 0.68337 0.56161
 C963 C 0.25362 0.70367 0.56502
 C964 C 0.25687 0.71375 0.58633
 C965 C 0.25833 0.67377 0.53843
 C966 C 0.25919 0.65207 0.53407
 H967 H 0.28590 0.70801 0.63840
 H968 H 0.28516 0.67550 0.61511
 H969 H 0.27973 0.65799 0.57788
 H970 H 0.24507 0.71187 0.55107
 H971 H 0.25105 0.72959 0.58800
 H972 H 0.25418 0.68442 0.52453
 H973 H 0.24708 0.73662 0.62502
 H974 H 0.26141 0.64139 0.54837
 C975 C 0.76691 0.21672 0.13009
 C976 C 0.78021 0.20096 0.12263
 C977 C 0.77631 0.19160 0.09943
 C978 C 0.78101 0.17040 0.09545
 C979 C 0.77674 0.16138 0.07360
 C980 C 0.76789 0.17359 0.05533
 C981 C 0.76409 0.19498 0.05923
 C982 C 0.76820 0.20388 0.08096
 C983 C 0.76250 0.16505 0.03195
 C984 C 0.75882 0.14363 0.02689
 H985 H 0.79352 0.19540 0.13383
 H986 H 0.78766 0.16075 0.10934
 H987 H 0.78059 0.14502 0.07115
 H988 H 0.75766 0.20485 0.04543
 H989 H 0.76520 0.22049 0.08319
 H990 H 0.76006 0.17657 0.01853
 H991 H 0.75260 0.22081 0.11945
 H992 H 0.76106 0.13221 0.04047
 C993 C 0.47281 0.38890 0.51917
 C994 C 0.48844 0.37344 0.51790
 C995 C 0.48657 0.35327 0.53037
 C996 C 0.50538 0.34324 0.53911
 C997 C 0.50377 0.32494 0.55235
 C998 C 0.48324 0.31623 0.55673
 C999 C 0.46453 0.32587 0.54717
 C1000 C 0.46614 0.34407 0.53405
 C1001 C 0.48026 0.29809 0.57221
 C1002 C 0.49647 0.28401 0.57937
 H1003 H 0.50297 0.37673 0.50894
 H1004 H 0.52130 0.34999 0.53635
 H1005 H 0.51857 0.31817 0.55967
 H1006 H 0.44852 0.31944 0.55013
 H1007 H 0.45132 0.35095 0.52688
 H1008 H 0.46394 0.29554 0.57751
 H1009 H 0.45940 0.38640 0.53002
 H1010 H 0.51205 0.28500 0.57186
 C1011 C -0.04712 0.88091 0.01884
 C1012 C -0.03230 0.86460 0.01906
 C1013 C -0.03509 0.84535 0.03304
 C1014 C -0.01674 0.83434 0.04128
 C1015 C -0.01896 0.81644 0.05501
 C1016 C -0.03972 0.80903 0.06052
 C1017 C -0.05803 0.81990 0.05191
 C1018 C -0.05581 0.83773 0.03824
 C1019 C -0.04318 0.79062 0.07562
 C1020 C -0.02741 0.77569 0.08150
 H1021 H -0.01775 0.86643 0.00973
 H1022 H -0.00060 0.83989 0.03752
 H1023 H -0.00434 0.80888 0.06158
 H1024 H -0.07421 0.81454 0.05576
 H1025 H -0.07040 0.84537 0.03163
 H1026 H -0.05925 0.78869 0.08179
 H1027 H -0.06068 0.87990 0.02969
 H1028 H -0.01177 0.77701 0.07421
 C1029 C 0.04625 0.61926 0.01611
 C1030 C 0.02590 0.62851 0.01504
 C1031 C 0.02067 0.64709 0.02886
 C1032 C -0.00102 0.64996 0.03383
 C1033 C -0.00677 0.66740 0.04659
 C1034 C 0.00907 0.68256 0.05435
 C1035 C 0.03072 0.67993 0.04899
 C1036 C 0.03653 0.66231 0.03643
 C1037 C 0.00337 0.70104 0.06806
 C1038 C -0.01634 0.70160 0.07829
 H1039 H 0.01270 0.62111 0.00458
 H1040 H -0.01356 0.63857 0.02798
 H1041 H -0.02365 0.66903 0.05024
 H1042 H 0.04319 0.69147 0.05465
 H1043 H 0.05330 0.66086 0.03235
 H1044 H 0.01526 0.71380 0.07112
 H1045 H 0.05911 0.62518 0.02808
 H1046 H -0.01781 0.71313 0.08610
 C1047 C 0.54956 0.11952 0.51439
 C1048 C 0.53073 0.13139 0.51317
 C1049 C 0.52823 0.15067 0.52707
 C1050 C 0.50738 0.15606 0.53306
 C1051 C 0.50436 0.17415 0.54613
 C1052 C 0.52215 0.18748 0.55312
 C1053 C 0.54293 0.18239 0.54664
 C1054 C 0.54601 0.16408 0.53388
 C1055 C 0.51938 0.20666 0.56707
 C1056 C 0.50096 0.20918 0.57923
 H1057 H 0.51667 0.12561 0.50272
 H1058 H 0.49340 0.14609 0.52784
 H1059 H 0.48807 0.17776 0.55059
 H1060 H 0.55684 0.19251 0.55164
 H1061 H 0.56222 0.16067 0.52906
 H1062 H 0.53249 0.21842 0.56865
 H1063 H 0.56300 0.12397 0.52641
 H1064 H 0.50116 0.22103 0.58683
 C1065 C -0.02927 0.12829 0.48852
 C1066 C -0.01395 0.14466 0.49168
 C1067 C -0.00836 0.15809 0.47227
 C1068 C -0.00588 0.17998 0.47528
 C1069 C -0.00127 0.19287 0.45673
 C1070 C 0.00148 0.18391 0.43506
 C1071 C -0.00029 0.16197 0.43229
 C1072 C -0.00543 0.14916 0.45065
 C1073 C 0.00742 0.19695 0.41548
 C1074 C -0.00072 0.21709 0.41160
 H1075 H -0.00708 0.14851 0.50876
 H1076 H -0.00787 0.18711 0.49188
 H1077 H 0.00061 0.20973 0.45944
 H1078 H 0.00213 0.15474 0.41583
 H1079 H -0.00682 0.13225 0.44804
 H1080 H 0.01752 0.18984 0.40323
 H1081 H -0.03801 0.12624 0.47193
 H1082 H -0.01329 0.22256 0.42216
 C1083 C 0.46925 0.63154 1.01938
 C1084 C 0.45926 0.63959 0.99928
 C1085 C 0.46933 0.65685 0.98633
 C1086 C 0.45625 0.66951 0.97170
 C1087 C 0.46570 0.68485 0.95802
 C1088 C 0.48844 0.68751 0.95856
 C1089 C 0.50144 0.67487 0.97320
 C1090 C 0.49203 0.65976 0.98697
 C1091 C 0.49934 0.70198 0.94296
 C1092 C 0.48999 0.72018 0.93371
 H1093 H 0.44401 0.63265 0.99238
 H1094 H 0.43873 0.66732 0.97064
 H1095 H 0.45524 0.69400 0.94651
 H1096 H 0.51900 0.67646 0.97372
 H1097 H 0.50269 0.64983 0.99740
 H1098 H 0.51596 0.69849 0.93977
 H1099 H 0.48334 0.63968 1.02755
 H1100 H 0.47449 0.72503 0.93941
 C1101 C 0.54009 0.88711 1.00294
 C1102 C 0.52334 0.87192 1.00071
 C1103 C 0.52411 0.85365 0.98491
 C1104 C 0.50463 0.84437 0.97552
 C1105 C 0.50493 0.82742 0.96010
 C1106 C 0.52483 0.81919 0.95408
 C1107 C 0.54426 0.82833 0.96377
 C1108 C 0.54395 0.84525 0.97910
 C1109 C 0.52628 0.80152 0.93757
 C1110 C 0.50906 0.78746 0.93125
 H1111 H 0.50878 0.87404 1.00980
 H1112 H 0.48913 0.85054 0.97976
 H1113 H 0.48957 0.82121 0.95270
 H1114 H 0.55982 0.82227 0.95956
 H1115 H 0.55930 0.85149 0.98655
 H1116 H 0.54205 0.79916 0.93106
 H1117 H 0.55382 0.88606 0.99238
 H1118 H 0.49361 0.78932 0.93869
 C1119 C 0.03142 0.39119 0.47242
 C1120 C 0.02154 0.37181 0.47711
 C1121 C 0.02331 0.35318 0.46201
 C1122 C 0.00697 0.33736 0.46116
 C1123 C 0.00820 0.31977 0.44674
 C1124 C 0.02599 0.31765 0.43295
 C1125 C 0.04262 0.33319 0.43443
 C1126 C 0.04136 0.35069 0.44878
 C1127 C 0.02828 0.29962 0.41706
 C1128 C 0.01176 0.28479 0.41072
 H1129 H 0.01176 0.37038 0.49181
 H1130 H -0.00691 0.33872 0.47151
 H1131 H -0.00473 0.30798 0.44671
 H1132 H 0.05670 0.33185 0.42437
 H1133 H 0.05476 0.36206 0.44966
 H1134 H 0.04384 0.29853 0.40970
 H1135 H 0.03967 0.39315 0.45673
 H1136 H -0.00383 0.28585 0.41803
 C1137 C 0.39356 0.53942 0.47926
 C1138 C 0.37480 0.53663 0.49097
 C1139 C 0.35748 0.55246 0.48936
 C1140 C 0.33857 0.54938 0.50126
 C1141 C 0.32180 0.56396 0.49936
 C1142 C 0.32374 0.58191 0.48547
 C1143 C 0.34271 0.58498 0.47374
 C1144 C 0.35939 0.57054 0.47569
 C1145 C 0.30618 0.59726 0.48156
 C1146 C 0.28910 0.60005 0.49590
 H1147 H 0.37267 0.52256 0.50116
 H1148 H 0.33665 0.53553 0.51181
 H1149 H 0.30724 0.56081 0.50827
 H1150 H 0.34459 0.59860 0.46284
 H1151 H 0.37368 0.57349 0.46623
 H1152 H 0.30768 0.60748 0.46699
 H1153 H 0.40295 0.52954 0.48045
 H1154 H 0.28884 0.59120 0.51168
 C1155 C 0.87945 0.03070 -0.03753
 C1156 C 0.85950 0.02704 -0.02832
 C1157 C 0.84191 0.04252 -0.03071
 C1158 C 0.82307 0.03938 -0.01874
 C1159 C 0.80635 0.05395 -0.02046
 C1160 C 0.80819 0.07197 -0.03425
 C1161 C 0.82679 0.07484 -0.04661
 C1162 C 0.84355 0.06039 -0.04476
 C1163 C 0.79097 0.08785 -0.03647
 C1164 C 0.77719 0.09201 -0.01896
 H1165 H 0.85688 0.01267 -0.01876
 H1166 H 0.82132 0.02566 -0.00796
 H1167 H 0.79193 0.05088 -0.01126
 H1168 H 0.82850 0.08849 -0.05750
 H1169 H 0.85777 0.06324 -0.05437
 H1170 H 0.79044 0.09749 -0.05170
 H1171 H 0.88926 0.02136 -0.03572
 H1172 H 0.77933 0.08340 -0.00306
 C1173 C 0.60752 0.03800 0.04044
 C1174 C 0.62794 0.03353 0.03287
 C1175 C 0.64310 0.04978 0.02449
 C1176 C 0.66528 0.04533 0.02441
 C1177 C 0.67995 0.05982 0.01555
 C1178 C 0.67263 0.07906 0.00639
 C1179 C 0.65042 0.08342 0.00627
 C1180 C 0.63578 0.06900 0.01529
 C1181 C 0.68742 0.09436 -0.00424
 C1182 C 0.70971 0.09596 0.00186
 H1183 H 0.63331 0.01739 0.03338
 H1184 H 0.67126 0.03048 0.03105
 H1185 H 0.69683 0.05560 0.01530
 H1186 H 0.64434 0.09800 -0.00098
 H1187 H 0.61872 0.07273 0.01437
 H1188 H 0.68007 0.10527 -0.01641
 H1189 H 0.60259 0.05418 0.04202
 H1190 H 0.71633 0.08643 0.01583
 C1191 C 0.11681 0.52981 0.51250
 C1192 C 0.12875 0.54397 0.52697
 C1193 C 0.14594 0.55806 0.51838
 C1194 C 0.16337 0.56498 0.53338
 C1195 C 0.18007 0.57786 0.52546
 C1196 C 0.17956 0.58411 0.50231
 C1197 C 0.16173 0.57773 0.48758
 C1198 C 0.14510 0.56492 0.49547
 C1199 C 0.19669 0.59776 0.49286
 C1200 C 0.21739 0.60144 0.50363
 H1201 H 0.12623 0.54398 0.54515
 H1202 H 0.16420 0.56023 0.55120
 H1203 H 0.19306 0.58299 0.53765
 H1204 H 0.16064 0.58265 0.46980
 H1205 H 0.13150 0.56068 0.48360
 H1206 H 0.19267 0.60471 0.47632
 H1207 H 0.12062 0.52848 0.49473
 H1208 H 0.22165 0.59366 0.51966
 C1209 C 0.14697 0.48837 -0.01747
 C1210 C 0.15385 0.47185 -0.03089
 C1211 C 0.17099 0.45711 -0.02296
 C1212 C 0.18162 0.44562 -0.03932
 C1213 C 0.19690 0.43057 -0.03249
 C1214 C 0.20174 0.42661 -0.00906
 C1215 C 0.19108 0.43807 0.00729
 C1216 C 0.17591 0.45321 0.00047
 C1217 C 0.21646 0.40965 -0.00113
 C1218 C 0.23275 0.40176 -0.01419
 H1219 H 0.14651 0.46966 -0.04811
 H1220 H 0.17788 0.44811 -0.05747
 H1221 H 0.20425 0.42160 -0.04563
 H1222 H 0.19427 0.43508 0.02543
 H1223 H 0.16757 0.46123 0.01360
 H1224 H 0.21449 0.40363 0.01592
 H1225 H 0.15544 0.49209 -0.00110
 H1226 H 0.23628 0.40963 -0.02997
 C1227 C 0.62184 0.96802 0.49173
 C1228 C 0.64365 0.97245 0.49807
 C1229 C 0.65923 0.95548 0.50346
 C1230 C 0.68122 0.95860 0.49920
 C1231 C 0.69616 0.94261 0.50379
 C1232 C 0.68933 0.92324 0.51295
 C1233 C 0.66746 0.92040 0.51780
 C1234 C 0.65255 0.93629 0.51308
 C1235 C 0.70452 0.90598 0.51852
 C1236 C 0.72369 0.90302 0.50742
 H1237 H 0.64972 0.98860 0.49759
 H1238 H 0.68680 0.97337 0.49211
 H1239 H 0.71302 0.94563 0.50053
 H1240 H 0.66185 0.90577 0.52519
 H1241 H 0.63589 0.93359 0.51734
 H1242 H 0.69948 0.89458 0.53093
 H1243 H 0.61624 0.95177 0.48972
 H1244 H 0.72750 0.91357 0.49364
 C1245 C 0.87864 0.99359 0.51880
 C1246 C 0.87646 0.97327 0.52757
 C1247 C 0.85865 0.95812 0.52037
 C1248 C 0.85547 0.94039 0.53416
 C1249 C 0.83825 0.92617 0.52898
 C1250 C 0.82377 0.92934 0.50977
 C1251 C 0.82733 0.94664 0.49549
 C1252 C 0.84462 0.96090 0.50066
 C1253 C 0.80458 0.91528 0.50480
 C1254 C 0.79950 0.89923 0.51975
 H1255 H 0.88774 0.96853 0.54145
 H1256 H 0.86611 0.93774 0.54931
 H1257 H 0.83616 0.91288 0.54028
 H1258 H 0.81652 0.94930 0.48047
 H1259 H 0.84677 0.97397 0.48916
 H1260 H 0.79379 0.91825 0.48979
 H1261 H 0.86772 0.99901 0.50498
 H1262 H 0.78733 0.89264 0.51557
 C1263 C 0.38202 0.48258 0.00573
 C1264 C 0.37568 0.46373 0.01581
 C1265 C 0.35703 0.45023 0.00723
 C1266 C 0.34714 0.43722 0.02302
 C1267 C 0.33017 0.42338 0.01591
 C1268 C 0.32300 0.42174 -0.00742
 C1269 C 0.33242 0.43523 -0.02324
 C1270 C 0.34942 0.44934 -0.01601
 C1271 C 0.30543 0.40641 -0.01512
 C1272 C 0.30217 0.38785 -0.00285
 H1273 H 0.38382 0.45923 0.03196
 H1274 H 0.35251 0.43782 0.04105
 H1275 H 0.32259 0.41414 0.02887
 H1276 H 0.32695 0.43453 -0.04123
 H1277 H 0.35688 0.45904 -0.02866
 H1278 H 0.29467 0.41037 -0.02975
 H1279 H 0.37304 0.48839 -0.00939
 H1280 H 0.31437 0.38390 0.01052
 C1281 C 0.53669 0.49827 0.39529
 C1282 C 0.54940 0.48358 0.38482
 C1283 C 0.56315 0.48852 0.36550
 C1284 C 0.57026 0.47170 0.35248
 C1285 C 0.58368 0.47534 0.33449
 C1286 C 0.59073 0.49595 0.32934
 C1287 C 0.58328 0.51288 0.34196
 C1288 C 0.56974 0.50924 0.36000
 C1289 C 0.60579 0.49992 0.31091
 C1290 C 0.62129 0.48515 0.30602
 H1291 H 0.54864 0.46734 0.39042
 H1292 H 0.56533 0.45562 0.35619
 H1293 H 0.58838 0.46194 0.32455
 H1294 H 0.58838 0.52889 0.33822
 H1295 H 0.56496 0.52265 0.36981
 H1296 H 0.60481 0.51469 0.30177
 H1297 H 0.53620 0.51435 0.38926
 H1298 H 0.62287 0.47158 0.31716
 C1299 C 0.03157 -0.01304 0.90153
 C1300 C 0.04186 -0.02745 0.88797
 C1301 C 0.05610 -0.02138 0.86930
 C1302 C 0.06661 -0.03740 0.85793
 C1303 C 0.07954 -0.03268 0.83972
 C1304 C 0.08227 -0.01173 0.83242
 C1305 C 0.07184 0.00432 0.84373
 C1306 C 0.05890 -0.00038 0.86195
 C1307 C 0.09550 -0.00624 0.81292
 C1308 C 0.10790 -0.02112 0.80256
 H1309 H 0.03888 -0.04412 0.89072
 H1310 H 0.06469 -0.05371 0.86303
 H1311 H 0.08717 -0.04551 0.83124
 H1312 H 0.07359 0.02058 0.83838
 H1313 H 0.05101 0.01257 0.86978
 H1314 H 0.09557 0.00989 0.80675
 H1315 H 0.03442 0.00370 0.89965
 H1316 H 0.11455 -0.01605 0.79100
 C1317 C 0.01332 0.02943 0.63568
 C1318 C 0.03232 0.03998 0.64397
 C1319 C 0.04840 0.02967 0.65987
 C1320 C 0.06087 0.04175 0.67631
 C1321 C 0.07614 0.03214 0.69145
 C1322 C 0.07937 0.01027 0.69013
 C1323 C 0.06726 -0.00164 0.67330
 C1324 C 0.05190 0.00789 0.65840
 C1325 C 0.09586 -0.00056 0.70507
 C1326 C 0.10313 0.00659 0.72701
 H1327 H 0.03513 0.05630 0.63934
 H1328 H 0.05867 0.05860 0.67753
 H1329 H 0.08567 0.04191 0.70375
 H1330 H 0.06969 -0.01844 0.67167
 H1331 H 0.04310 -0.00177 0.64542
 H1332 H 0.10135 -0.01542 0.69876
 H1333 H 0.00948 0.01393 0.64225
 H1334 H 0.09580 0.02036 0.73397
 C1335 C 0.51950 0.50438 0.13594
 C1336 C 0.53409 0.51760 0.14858
 C1337 C 0.55066 0.50941 0.16551
 C1338 C 0.56410 0.52376 0.17849
 C1339 C 0.58049 0.51662 0.19401
 C1340 C 0.58371 0.49489 0.19693
 C1341 C 0.57029 0.48051 0.18391
 C1342 C 0.55385 0.48765 0.16846
 C1343 C 0.60148 0.48678 0.21252
 C1344 C 0.61018 0.49789 0.23191
 H1345 H 0.53352 0.53447 0.14564
 H1346 H 0.56213 0.54059 0.17643
 H1347 H 0.59095 0.52815 0.20322
 H1348 H 0.57256 0.46369 0.18569
 H1349 H 0.54394 0.47607 0.15866
 H1350 H 0.60703 0.47114 0.20893
 H1351 H 0.51061 0.50947 0.12562
 H1352 H 0.60287 0.51253 0.23654
 C1353 C 0.46426 -0.01072 0.12167
 C1354 C 0.45207 -0.02569 0.13313
 C1355 C 0.43535 -0.01982 0.14903
 C1356 C 0.42976 -0.03402 0.16620
 C1357 C 0.41427 -0.02880 0.18168
 C1358 C 0.40398 -0.00922 0.18019
 C1359 C 0.40912 0.00465 0.16256
 C1360 C 0.42458 -0.00054 0.14715
 C1361 C 0.38751 -0.00270 0.19610
 C1362 C 0.38491 -0.01171 0.21765
 H1363 H 0.45564 -0.04223 0.13137
 H1364 H 0.43753 -0.04914 0.16775
 H1365 H 0.41028 -0.04027 0.19448
 H1366 H 0.40118 0.01967 0.16074
 H1367 H 0.42776 0.01049 0.13363
 H1368 H 0.37781 0.01055 0.19068
 H1369 H 0.46210 0.00591 0.12472
 H1370 H 0.39520 -0.02451 0.22325
 C1371 C 0.99693 0.47451 0.62902
 C1372 C 0.97547 0.46714 0.62954
 C1373 C 0.96176 0.47181 0.64868
 C1374 C 0.93959 0.47546 0.64388
 C1375 C 0.92623 0.48018 0.66156
 C1376 C 0.93470 0.48077 0.68449
 C1377 C 0.95673 0.47644 0.68938
 C1378 C 0.97025 0.47225 0.67161
 C1379 C 0.92082 0.48582 0.70336
 C1380 C 0.90350 0.49930 0.69984
 H1381 H 0.96776 0.45944 0.61444
 H1382 H 0.93268 0.47499 0.62635
 H1383 H 0.90922 0.48314 0.65733
 H1384 H 0.96355 0.47665 0.70695
 H1385 H 0.98720 0.46904 0.67581
 H1386 H 0.92525 0.48016 0.72050
 H1387 H 1.00399 0.48438 0.64287
 H1388 H 0.89626 0.50100 0.71195
 C1389 C 1.00054 0.51320 0.87534
 C1390 C 0.98160 0.52409 0.86937
 C1391 C 0.96672 0.51905 0.84906
 C1392 C 0.95210 0.53444 0.84118
 C1393 C 0.93763 0.53052 0.82221
 C1394 C 0.93733 0.51095 0.81072
 C1395 C 0.95182 0.49547 0.81866
 C1396 C 0.96637 0.49942 0.83767
 C1397 C 0.92201 0.50634 0.79068
 C1398 C 0.90744 0.52125 0.78229
 H1399 H 0.97785 0.53770 0.87950
 H1400 H 0.95195 0.54966 0.84969
 H1401 H 0.92667 0.54283 0.81661
 H1402 H 0.95180 0.48022 0.81020
 H1403 H 0.97696 0.48693 0.84351
 H1404 H 0.92219 0.49095 0.78250
 H1405 H 1.00521 0.50007 0.86502
 H1406 H 0.89920 0.51673 0.77063
 C1407 C 0.48057 0.00530 0.39203
 C1408 C 0.46807 0.01906 0.37844
 C1409 C 0.45219 0.01206 0.35963
 C1410 C 0.43634 0.02619 0.35159
 C1411 C 0.42135 0.02057 0.33355
 C1412 C 0.42192 0.00058 0.32302
 C1413 C 0.43780 -0.01358 0.33097
 C1414 C 0.45286 -0.00790 0.34903
 C1415 C 0.40643 -0.00558 0.30359
 C1416 C 0.39031 0.00798 0.29573
 H1417 H 0.46943 0.03581 0.38211
 H1418 H 0.43552 0.04169 0.35932
 H1419 H 0.40941 0.03198 0.32783
 H1420 H 0.43869 -0.02900 0.32307
 H1421 H 0.46520 -0.01904 0.35422
 H1422 H 0.40789 -0.02082 0.29534
 H1423 H 0.47855 -0.01157 0.38965
 H1424 H 0.38245 0.00259 0.28395
   
