data_POSCAR
  _audit_creation_date              2014-09-24
  _audit_creation_method            'ToBaCCo'
  _symmetry_space_group_name_H-M    'P1'
  _symmetry_Int_Tables_number       1
  _symmetry_cell_setting            triclinic
  loop_
  _symmetry_equiv_pos_as_xyz
 x,y,z
_cell_length_a 52.6254
_cell_length_b 54.5582
_cell_length_c 56.5264
_cell_angle_alpha 90.120000
_cell_angle_beta 88.215700
_cell_angle_gamma 89.911800
loop_
  _atom_site_label
  _atom_site_type_symbol
  _atom_site_fract_x
  _atom_site_fract_y
  _atom_site_fract_z
C1 C 0.76422 0.60365 1.00174
 C2 C 0.73131 0.37793 0.50356
 C3 C 0.26079 -0.11526 0.00069
 C4 C 0.23728 0.08716 0.49685
 C5 C 0.13094 0.48855 0.26152
 C6 C -0.12366 -0.00205 0.23845
 C7 C 0.38877 0.51860 0.74990
 C8 C 0.61741 1.01647 0.74237
 C9 C -0.00813 0.24488 -0.12241
 C10 C 0.48263 0.26958 0.11461
 C11 C 0.99977 0.74343 0.62228
 C12 C 0.51773 0.76383 0.37751
 C13 C 0.43001 -0.01545 0.26970
 H14 H 0.43037 0.00237 0.27811
 C15 C 0.44557 -0.03428 0.27770
 H16 H 0.45820 -0.03065 0.29204
 C17 C 0.41239 -0.04200 0.24135
 H18 H 0.39880 -0.04526 0.22778
 C19 C 0.42755 -0.06134 0.24881
 H20 H 0.42538 -0.07922 0.24079
 N21 N 0.41370 -0.01965 0.25196
 C22 C 0.39088 0.05259 0.22763
 H23 H 0.37050 0.05018 0.22932
 C24 C 0.40084 0.07448 0.21879
 H25 H 0.38790 0.08898 0.21406
 C26 C 0.43229 0.03645 0.23204
 H27 H 0.44442 0.02138 0.23686
 C28 C 0.44312 0.05811 0.22313
 H29 H 0.46359 0.05948 0.22111
 Zn30 Zn 0.39008 0.00520 0.24459
 N31 N 0.40657 0.03418 0.23414
 C32 C 0.37310 0.03372 0.28357
 N33 N 0.37059 0.01163 0.27271
 C34 C 0.35689 -0.00676 0.28314
 C35 C 0.34522 -0.00330 0.30550
 C36 C 0.36191 0.03790 0.30588
 C37 C 0.38350 -0.00854 0.19855
 C38 C 0.37175 -0.01766 0.17868
 C39 C 0.33201 -0.01908 0.20124
 C40 C 0.34466 -0.00996 0.22089
 N41 N 0.37010 -0.00546 0.21928
 H42 H 0.38464 0.04790 0.27541
 H43 H 0.35575 -0.02439 0.27443
 H44 H 0.33493 -0.01830 0.31384
 H45 H 0.36437 0.05555 0.31429
 H46 H 0.40362 -0.00445 0.19770
 H47 H 0.38294 -0.02042 0.16249
 H48 H 0.31196 -0.02339 0.20286
 H49 H 0.33428 -0.00696 0.23744
 C50 C 0.42729 0.07741 0.21619
 C51 C 0.44410 -0.05775 0.26751
 C52 C 0.34581 -0.02355 0.17998
 C53 C 0.34810 0.01915 0.31732
 C54 C 0.07710 1.01559 0.76851
 H55 H 0.06713 0.99905 0.76399
 C56 C 0.06330 1.03585 0.77712
 H57 H 0.04286 1.03447 0.77953
 C58 C 0.11567 1.03761 0.77097
 H59 H 0.13598 1.03852 0.76786
 C60 C 0.10267 1.05822 0.77955
 H61 H 0.11328 1.07472 0.78320
 N62 N 0.10290 1.01668 0.76599
 C63 C 0.10462 0.95858 0.71938
 H64 H 0.11857 0.96805 0.70843
 C65 C 0.09038 0.94009 0.70928
 H66 H 0.09388 0.93551 0.69082
 C67 C 0.08377 0.95240 0.75661
 H68 H 0.08140 0.95726 0.77512
 C69 C 0.06910 0.93354 0.74719
 H70 H 0.05533 0.92408 0.75847
 Zn71 Zn 0.12259 0.98956 0.75472
 N72 N 0.10128 0.96442 0.74268
 C73 C 0.13960 0.95383 0.78717
 N74 N 0.14276 0.97729 0.77953
 C75 C 0.15996 0.99236 0.78963
 C76 C 0.17404 0.98431 0.80871
 C77 C 0.15320 0.94507 0.80621
 C78 C 0.13450 1.01757 0.71468
 C79 C 0.14678 1.02254 0.69303
 C80 C 0.17885 0.99258 0.70225
 C81 C 0.16592 0.98816 0.72382
 N82 N 0.14395 1.00034 0.72936
 H83 H 0.12639 0.94183 0.77870
 H84 H 0.16287 1.01066 0.78291
 H85 H 0.18762 0.99661 0.81645
 H86 H 0.14973 0.92657 0.81239
 H87 H 0.11668 1.02656 0.71923
 H88 H 0.13865 1.03597 0.68137
 H89 H 0.19569 0.98198 0.69760
 H90 H 0.17263 0.97408 0.73554
 C91 C 0.07235 0.92725 0.72317
 C92 C 0.07616 1.05744 0.78302
 C93 C 0.16884 1.00946 0.68626
 C94 C 0.17056 0.96043 0.81741
 C95 C 0.59016 0.53030 0.27934
 H96 H 0.58497 0.51336 0.28815
 C97 C 0.57991 0.55256 0.28754
 H98 H 0.56679 0.55267 0.30268
 C99 C 0.61490 0.55101 0.24990
 H100 H 0.62905 0.55047 0.23565
 C101 C 0.60541 0.57360 0.25770
 H102 H 0.61209 0.59023 0.24914
 N103 N 0.60749 0.52996 0.26096
 C104 C 0.61314 0.45348 0.23804
 H105 H 0.63357 0.45155 0.23867
 C106 C 0.59843 0.43378 0.23087
 H107 H 0.60759 0.41663 0.22596
 C108 C 0.57646 0.47849 0.24302
 H109 H 0.56810 0.49607 0.24747
 C110 C 0.56103 0.45934 0.23531
 H111 H 0.54074 0.46217 0.23403
 Zn112 Zn 0.62470 0.50041 0.25284
 N113 N 0.60202 0.47514 0.24434
 C114 C 0.63730 0.46912 0.29036
 N115 N 0.64330 0.49069 0.27957
 C116 C 0.66077 0.50610 0.28880
 C117 C 0.67299 0.49993 0.30966
 C118 C 0.64908 0.46221 0.31102
 C119 C 0.63296 0.50888 0.20547
 C120 C 0.64590 0.51371 0.18416
 C121 C 0.68547 0.51216 0.20466
 C122 C 0.67169 0.50697 0.22567
 N123 N 0.64586 0.50589 0.22571
 H124 H 0.62282 0.45741 0.28341
 H125 H 0.66477 0.52346 0.28026
 H126 H 0.68638 0.51265 0.31706
 H127 H 0.64403 0.44483 0.31909
 H128 H 0.61244 0.50766 0.20598
 H129 H 0.63508 0.51575 0.16831
 H130 H 0.70594 0.51381 0.20508
 H131 H 0.68160 0.50428 0.24192
 C132 C 0.57209 0.43665 0.22935
 C133 C 0.58805 0.57459 0.27701
 C134 C 0.67250 0.51592 0.18355
 C135 C 0.66690 0.47783 0.32122
 C136 C 0.90458 0.46806 0.76904
 H137 H 0.90626 0.48648 0.77595
 C138 C 0.91818 0.44896 0.77905
 H139 H 0.93077 0.45295 0.79334
 C140 C 0.88499 0.44043 0.74284
 H141 H 0.87128 0.43709 0.72937
 C142 C 0.89819 0.42072 0.75242
 H143 H 0.89452 0.40235 0.74613
 N144 N 0.88801 0.46344 0.75162
 C145 C 0.86848 0.53537 0.72422
 H146 H 0.84806 0.53431 0.72685
 C147 C 0.87940 0.55593 0.71349
 H148 H 0.86721 0.57084 0.70824
 C149 C 0.90902 0.51703 0.72798
 H150 H 0.92039 0.50159 0.73325
 C151 C 0.92078 0.53735 0.71726
 H152 H 0.94121 0.53735 0.71437
 Zn153 Zn 0.86565 0.48908 0.74388
 N154 N 0.88330 0.51648 0.73124
 C155 C 0.85176 0.52031 0.78216
 N156 N 0.84828 0.49774 0.77252
 C157 C 0.83484 0.48011 0.78440
 C158 C 0.82416 0.48491 0.80689
 C159 C 0.84169 0.52578 0.80467
 C160 C 0.85348 0.47533 0.69847
 C161 C 0.83830 0.46873 0.67972
 C162 C 0.80176 0.46884 0.70671
 C163 C 0.81761 0.47594 0.72490
 N164 N 0.84302 0.47874 0.72053
 H165 H 0.86311 0.53385 0.77280
 H166 H 0.83303 0.46207 0.77666
 H167 H 0.81391 0.47056 0.81632
 H168 H 0.84488 0.54374 0.81219
 H169 H 0.87370 0.47792 0.69546
 H170 H 0.84697 0.46589 0.66230
 H171 H 0.78161 0.46643 0.71040
 H172 H 0.80955 0.47925 0.74242
 C173 C 0.90586 0.55704 0.70967
 C174 C 0.91445 0.42479 0.77129
 C175 C 0.81213 0.46529 0.68378
 C176 C 0.82792 0.50788 0.81740
 C177 C 0.26241 0.45024 -0.02950
 H178 H 0.26549 0.45366 -0.01099
 C179 C 0.27434 0.46506 -0.04665
 H180 H 0.28635 0.48000 -0.04115
 C181 C 0.24406 0.42599 -0.05930
 H182 H 0.23317 0.41011 -0.06422
 C183 C 0.25541 0.44044 -0.07697
 H184 H 0.25295 0.43558 -0.09534
 N185 N 0.24779 0.43100 -0.03608
 C186 C 0.19837 0.42519 0.02052
 H187 H 0.18479 0.41859 0.00812
 C188 C 0.18974 0.43320 0.04278
 H189 H 0.16953 0.43306 0.04701
 C190 C 0.24108 0.43250 0.03054
 H191 H 0.26115 0.43125 0.02597
 C192 C 0.23325 0.44061 0.05311
 H193 H 0.24742 0.44569 0.06570
 Zn194 Zn 0.23536 0.40839 -0.01309
 N195 N 0.22369 0.42458 0.01493
 C196 C 0.25942 0.37290 0.01453
 N197 N 0.26243 0.38754 -0.00478
 C198 C 0.28511 0.38892 -0.01693
 C199 C 0.30609 0.37570 -0.00940
 C200 C 0.27988 0.35930 0.02264
 C201 C 0.18956 0.40259 -0.03659
 C202 C 0.16904 0.39020 -0.04604
 C203 C 0.18687 0.35208 -0.03249
 C204 C 0.20734 0.36518 -0.02366
 N205 N 0.20824 0.39002 -0.02571
 H206 H 0.24124 0.37231 0.02400
 H207 H 0.28717 0.40079 -0.03215
 H208 H 0.32417 0.37777 -0.01883
 H209 H 0.27712 0.34789 0.03815
 H210 H 0.19067 0.42234 -0.03792
 H211 H 0.15435 0.40048 -0.05466
 H212 H 0.18637 0.33231 -0.03077
 H213 H 0.22238 0.35548 -0.01507
 C214 C 0.20730 0.44036 0.05965
 C215 C 0.27114 0.46001 -0.07074
 C216 C 0.16750 0.36464 -0.04393
 C217 C 0.30375 0.36093 0.01087
 C218 C 0.75710 0.06892 1.02444
 H219 H 0.76372 0.06406 1.00678
 C220 C 0.76540 0.05545 1.04375
 H221 H 0.77818 0.04011 1.04069
 C222 C 0.73296 0.09508 1.05000
 H223 H 0.72099 0.11102 1.05251
 C224 C 0.74069 0.08208 1.06976
 H225 H 0.73449 0.08820 1.08724
 N226 N 0.74123 0.08840 1.02786
 C227 C 0.69703 0.08811 0.96949
 H228 H 0.68276 0.09768 0.98000
 C229 C 0.69000 0.07668 0.94863
 H230 H 0.67026 0.07721 0.94378
 C231 C 0.73999 0.07657 0.96237
 H232 H 0.75964 0.07746 0.96733
 C233 C 0.73378 0.06500 0.94119
 H234 H 0.74873 0.05690 0.93014
 Zn235 Zn 0.73194 0.10795 1.00169
 N236 N 0.72174 0.08815 0.97588
 C237 C 0.75901 0.13763 0.96952
 N238 N 0.76042 0.12641 0.99088
 C239 C 0.78182 0.12774 1.00372
 C240 C 0.80295 0.14085 0.99509
 C241 C 0.77969 0.15080 0.96020
 C242 C 0.68337 0.11983 1.02123
 C243 C 0.66327 0.13502 1.02862
 C244 C 0.68813 0.17008 1.01608
 C245 C 0.70775 0.15420 1.00883
 N246 N 0.70502 0.12954 1.01137
 H247 H 0.74183 0.13608 0.95960
 H248 H 0.78249 0.11868 1.02068
 H249 H 0.81969 0.14197 1.00571
 H250 H 0.77828 0.15911 0.94292
 H251 H 0.68181 0.10019 1.02347
 H252 H 0.64635 0.12691 1.03668
 H253 H 0.69058 0.18963 1.01370
 H254 H 0.72515 0.16165 1.00122
 C255 C 0.70856 0.06553 0.93381
 C256 C 0.75736 0.06213 1.06681
 C257 C 0.66549 0.16053 1.02610
 C258 C 0.80209 0.15259 0.97301
 C259 C 0.29905 0.58200 0.51819
 H260 H 0.30813 0.58285 0.50077
 C261 C 0.31059 0.56909 0.53628
 H262 H 0.32842 0.55969 0.53258
 C263 C 0.26548 0.59437 0.54450
 H264 H 0.24841 0.60495 0.54793
 C265 C 0.27626 0.58159 0.56303
 H266 H 0.26728 0.58253 0.58050
 N267 N 0.27710 0.59461 0.52268
 C268 C 0.23931 0.61120 0.45745
 H269 H 0.23674 0.63069 0.46012
 C270 C 0.22806 0.59961 0.43848
 H271 H 0.21694 0.61032 0.42643
 C272 C 0.25660 0.57349 0.47025
 H273 H 0.26734 0.56337 0.48296
 C274 C 0.24590 0.56116 0.45125
 H275 H 0.24845 0.54154 0.44942
 Zn276 Zn 0.26520 0.61578 0.49901
 N277 N 0.25310 0.59807 0.47294
 C278 C 0.29958 0.63770 0.46587
 N279 N 0.29283 0.63591 0.48923
 C280 C 0.30697 0.64661 0.50614
 C281 C 0.32910 0.65949 0.49980
 C282 C 0.32132 0.65068 0.45876
 C283 C 0.21552 0.62244 0.51597
 C284 C 0.19410 0.63490 0.52482
 C285 C 0.21827 0.67252 0.52348
 C286 C 0.23930 0.65929 0.51462
 N287 N 0.23760 0.63466 0.51129
 H288 H 0.28844 0.62867 0.45272
 H289 H 0.30137 0.64459 0.52461
 H290 H 0.34030 0.66772 0.51346
 H291 H 0.32662 0.65158 0.44011
 H292 H 0.21466 0.60288 0.51295
 H293 H 0.17693 0.62467 0.52894
 H294 H 0.21991 0.69213 0.52594
 H295 H 0.25692 0.66869 0.51040
 C296 C 0.23113 0.57427 0.43532
 C297 C 0.29941 0.56920 0.55917
 C298 C 0.19528 0.66029 0.52876
 C299 C 0.33651 0.66155 0.47583
 C300 C 0.79459 0.93739 0.47777
 H301 H 0.80441 0.93845 0.49427
 C302 C 0.80425 0.94973 0.45780
 H303 H 0.82144 0.96048 0.45911
 C304 C 0.76087 0.92125 0.45574
 H305 H 0.74451 0.90945 0.45466
 C306 C 0.76973 0.93344 0.43544
 H307 H 0.76000 0.93085 0.41902
 N308 N 0.77336 0.92333 0.47637
 C309 C 0.74468 0.91273 0.54899
 H310 H 0.74324 0.89295 0.54896
 C311 C 0.73824 0.92589 0.56946
 H312 H 0.73163 0.91622 0.58519
 C313 C 0.75482 0.94943 0.52840
 H314 H 0.76126 0.95848 0.51232
 C315 C 0.74792 0.96340 0.54839
 H316 H 0.74908 0.98321 0.54768
 Zn317 Zn 0.76319 0.90435 0.50315
 N318 N 0.75345 0.92452 0.52921
 C319 C 0.80024 0.88511 0.53345
 N320 N 0.79128 0.88436 0.51117
 C321 C 0.80283 0.87027 0.49409
 C322 C 0.82419 0.85612 0.49922
 C323 C 0.82107 0.87091 0.53946
 C324 C 0.71303 0.89713 0.49060
 C325 C 0.69155 0.88425 0.48385
 C326 C 0.71419 0.84635 0.49008
 C327 C 0.73547 0.86000 0.49632
 N328 N 0.73464 0.88493 0.49599
 H329 H 0.79142 0.89678 0.54674
 H330 H 0.79563 0.87029 0.47637
 H331 H 0.83338 0.84553 0.48518
 H332 H 0.82708 0.87136 0.55759
 H333 H 0.71277 0.91695 0.49092
 H334 H 0.67472 0.89424 0.47893
 H335 H 0.71523 0.82653 0.48980
 H336 H 0.75269 0.85068 0.50112
 C337 C 0.73996 0.95150 0.56930
 C338 C 0.79193 0.94758 0.43619
 C339 C 0.69211 0.85857 0.48328
 C340 C 0.83364 0.85630 0.52224
 C341 C -0.03758 0.26385 0.41797
 H342 H -0.01919 0.27070 0.42286
 C343 C -0.05964 0.27268 0.42945
 H344 H -0.05794 0.28592 0.44359
 C345 C -0.06198 0.23855 0.39327
 H346 H -0.06286 0.22583 0.37864
 C347 C -0.08451 0.24709 0.40405
 H348 H -0.10245 0.24075 0.39750
 N349 N -0.03913 0.24712 0.40023
 C350 C 0.03796 0.21934 0.38988
 H351 H 0.03944 0.22221 0.37096
 C352 C 0.05802 0.20864 0.40152
 H353 H 0.07511 0.20385 0.39140
 C354 C 0.01369 0.22245 0.42579
 H355 H -0.00388 0.22740 0.43501
 C356 C 0.03331 0.21142 0.43819
 H357 H 0.03062 0.20799 0.45695
 Zn358 Zn -0.00932 0.23838 0.38274
 N359 N 0.01643 0.22614 0.40205
 C360 C 0.02507 0.27672 0.37247
 N361 N 0.00247 0.26674 0.36656
 C362 C -0.01241 0.27761 0.35032
 C363 C -0.00427 0.29902 0.33879
 C364 C 0.03394 0.29795 0.36137
 C365 C -0.02326 0.19117 0.37278
 C366 C -0.02765 0.17012 0.35959
 C367 C -0.01792 0.19308 0.32393
 C368 C -0.01354 0.21379 0.33789
 N369 N -0.01644 0.21243 0.36185
 H370 H 0.03615 0.26853 0.38613
 H371 H -0.03060 0.26964 0.34635
 H372 H -0.01613 0.30726 0.32566
 H373 H 0.05189 0.30567 0.36652
 H374 H -0.02515 0.19061 0.39188
 H375 H -0.03341 0.15348 0.36867
 H376 H -0.01543 0.19430 0.30488
 H377 H -0.00753 0.23073 0.32961
 C378 C 0.05577 0.20414 0.42594
 C379 C -0.08359 0.26464 0.42224
 C380 C -0.02493 0.17086 0.33484
 C381 C 0.01931 0.30931 0.34417
 C382 C 1.03347 0.76568 0.09518
 H383 H 1.01387 0.77037 0.09211
 C384 C 1.05295 0.77683 0.08183
 H385 H 1.04799 0.78948 0.06799
 C386 C 1.06347 0.74389 0.11743
 H387 H 1.06748 0.73171 0.13190
 C388 C 1.08357 0.75500 0.10483
 H389 H 1.10283 0.75110 0.10986
 N390 N 1.03902 0.74961 0.11262
 C391 C 0.96545 0.71701 0.13076
 H392 H 0.96597 0.71961 0.14972
 C393 C 0.94437 0.70608 0.12089
 H394 H 0.92856 0.70075 0.13244
 C395 C 0.98547 0.72144 0.09289
 H396 H 1.00176 0.72705 0.08214
 C397 C 0.96479 0.71029 0.08223
 H398 H 0.96542 0.70743 0.06327
 Zn399 Zn 1.01236 0.73894 0.13315
 N400 N 0.98526 0.72478 0.11675
 C401 C 0.97689 0.77559 0.14673
 N402 N 1.00076 0.76696 0.15008
 C403 C 1.01734 0.77942 0.16364
 C404 C 1.00996 0.80137 0.17473
 C405 C 0.96874 0.79732 0.15750
 C406 C 1.03205 0.69333 0.14238
 C407 C 1.03971 0.67323 0.15553
 C408 C 1.03099 0.69652 0.19130
 C409 C 1.02337 0.71624 0.17740
 N410 N 1.02413 0.71426 0.15339
 H411 H 0.96433 0.76609 0.13510
 H412 H 1.03643 0.77247 0.16555
 H413 H 1.02333 0.81103 0.18552
 H414 H 0.94984 0.80409 0.15414
 H415 H 1.03220 0.69225 0.12326
 H416 H 1.04622 0.65683 0.14636
 H417 H 1.03002 0.69820 0.21040
 H418 H 1.01647 0.73288 0.18578
 C419 C 0.94382 0.70247 0.09630
 C420 C 1.07848 0.77208 0.08699
 C421 C 1.03913 0.67460 0.18033
 C422 C 0.98534 0.81056 0.17167
 C423 C 0.49259 0.28226 0.59093
 H424 H 0.47543 0.29316 0.59265
 C425 C 0.51379 0.29144 0.57846
 H426 H 0.51270 0.30957 0.57083
 C427 C 0.51517 0.24623 0.60056
 H428 H 0.51585 0.22887 0.60965
 C429 C 0.53670 0.25452 0.58794
 H430 H 0.55349 0.24304 0.58703
 N431 N 0.49376 0.26021 0.60195
 C432 C 0.41656 0.23442 0.61583
 H433 H 0.41598 0.23492 0.63497
 C434 C 0.39606 0.22494 0.60381
 H435 H 0.37947 0.21884 0.61394
 C436 C 0.43925 0.24155 0.57964
 H437 H 0.45644 0.24750 0.57039
 C438 C 0.41930 0.23175 0.56688
 H439 H 0.42145 0.23018 0.54783
 Zn440 Zn 0.46575 0.25126 0.62175
 N441 N 0.43762 0.24242 0.60369
 C442 C 0.43432 0.28844 0.64255
 N443 N 0.45806 0.27851 0.64156
 C444 C 0.47739 0.28870 0.65362
 C445 C 0.47313 0.30953 0.66762
 C446 C 0.42917 0.30905 0.65654
 C447 C 0.47593 0.20174 0.62797
 C448 C 0.48267 0.18040 0.63979
 C449 C 0.48484 0.20392 0.67594
 C450 C 0.47780 0.22481 0.66346
 N451 N 0.47407 0.22343 0.63979
 H452 H 0.41939 0.28068 0.63226
 H453 H 0.49621 0.28072 0.65216
 H454 H 0.48868 0.31739 0.67717
 H455 H 0.41021 0.31683 0.65699
 H456 H 0.47260 0.20115 0.60919
 H457 H 0.48487 0.16346 0.62992
 H458 H 0.48826 0.20535 0.69469
 H459 H 0.47572 0.24211 0.67263
 C460 C 0.39747 0.22286 0.57901
 C461 C 0.53641 0.27767 0.57705
 C462 C 0.48762 0.18143 0.66400
 C463 C 0.44872 0.31986 0.66926
 C464 C 0.49720 0.78269 0.91527
 H465 H 0.51484 0.79259 0.91707
 C466 C 0.47528 0.79045 0.92769
 H467 H 0.47633 0.80610 0.93942
 C468 C 0.47429 0.75080 0.89705
 H469 H 0.47374 0.73591 0.88447
 C470 C 0.45192 0.75798 0.90905
 H471 H 0.43442 0.74842 0.90554
 N472 N 0.49624 0.76339 0.90009
 C473 C 0.57487 0.74174 0.88500
 H474 H 0.57523 0.74344 0.86593
 C475 C 0.59620 0.73297 0.89630
 H476 H 0.61309 0.72856 0.88573
 C477 C 0.55215 0.74540 0.92168
 H478 H 0.53471 0.74973 0.93140
 C479 C 0.57298 0.73632 0.93372
 H480 H 0.57125 0.73369 0.95267
 Zn481 Zn 0.52496 0.75696 0.88019
 N482 N 0.55346 0.74783 0.89773
 C483 C 0.55472 0.79700 0.86304
 N484 N 0.53157 0.78598 0.86268
 C485 C 0.51193 0.79635 0.85118
 C486 C 0.51525 0.81858 0.83924
 C487 C 0.55897 0.81901 0.85106
 C488 C 0.51616 0.70802 0.87093
 C489 C 0.51018 0.68717 0.85798
 C490 C 0.50831 0.71228 0.82290
 C491 C 0.51458 0.73270 0.83653
 N492 N 0.51791 0.73024 0.86017
 H493 H 0.56987 0.78902 0.87290
 H494 H 0.49356 0.78746 0.85156
 H495 H 0.49948 0.82661 0.83012
 H496 H 0.57749 0.82759 0.85162
 H497 H 0.51899 0.70663 0.88975
 H498 H 0.50814 0.66978 0.86703
 H499 H 0.50531 0.71451 0.80416
 H500 H 0.51640 0.75049 0.82829
 C501 C 0.59534 0.72971 0.92097
 C502 C 0.45210 0.77839 0.92421
 C503 C 0.50585 0.68919 0.83370
 C504 C 0.53908 0.83009 0.83902
 C505 C 0.50288 -0.19186 0.37615
 C506 C 0.49632 -0.17033 0.36467
 C507 C 0.49780 -0.16892 0.34006
 C508 C 0.50663 -0.18925 0.32689
 C509 C 0.51335 -0.21097 0.33840
 C510 C 0.51075 -0.21294 0.36330
 N511 N 0.48956 -0.14675 0.32920
 N512 N 0.48955 -0.14346 0.30692
 C513 C 0.48009 -0.12108 0.29721
 C514 C 0.47916 -0.11843 0.27264
 C515 C 0.46821 -0.09751 0.26285
 C516 C 0.45802 -0.07885 0.27756
 C517 C 0.45969 -0.08129 0.30221
 C518 C 0.47060 -0.10215 0.31194
 H519 H 0.50134 -0.19229 0.39530
 H520 H 0.48976 -0.15470 0.37502
 H521 H 0.50833 -0.18835 0.30778
 H522 H 0.52076 -0.22589 0.32766
 H523 H 0.48644 -0.13282 0.26107
 H524 H 0.46747 -0.09605 0.24378
 H525 H 0.45167 -0.06751 0.31407
 H526 H 0.47103 -0.10370 0.33101
 C527 C 0.98790 0.26401 0.83543
 C528 C 0.98025 0.28326 0.82087
 C529 C 0.96755 0.30366 0.83054
 C530 C 0.96242 0.30457 0.85503
 C531 C 0.96985 0.28541 0.86952
 C532 C 0.98230 0.26444 0.86007
 N533 N 0.96037 0.32345 0.81544
 N534 N 0.95104 0.34315 0.82416
 C535 C 0.94311 0.36347 0.81020
 C536 C 0.93398 0.38439 0.82198
 C537 C 0.92521 0.40440 0.80928
 C538 C 0.92536 0.40389 0.78440
 C539 C 0.93476 0.38289 0.77252
 C540 C 0.94366 0.36281 0.78533
 H541 H 0.99885 0.24937 0.82724
 H542 H 0.98473 0.28252 0.80206
 H543 H 0.95280 0.32019 0.86308
 H544 H 0.96598 0.28695 0.88840
 H545 H 0.93336 0.38503 0.84114
 H546 H 0.91761 0.42003 0.81900
 H547 H 0.93519 0.38200 0.75338
 H548 H 0.95065 0.34677 0.77587
 C549 C 0.02766 1.21246 0.87202
 C550 C 0.03750 1.19106 0.86188
 C551 C 0.02391 1.17811 0.84520
 C552 C -0.00008 1.18667 0.83881
 C553 C -0.01007 1.20821 0.84900
 C554 C 0.00398 1.22207 0.86524
 N555 N 0.03504 1.15617 0.83560
 N556 N 0.02471 1.14280 0.82013
 C557 C 0.03726 1.12107 0.81140
 C558 C 0.02633 1.10727 0.79346
 C559 C 0.03872 1.08638 0.78432
 C560 C 0.06230 1.07902 0.79304
 C561 C 0.07293 1.09270 0.81134
 C562 C 0.06061 1.11349 0.82040
 H563 H 0.03861 1.22087 0.88569
 H564 H 0.05576 1.18427 0.86733
 H565 H -0.01115 1.17663 0.82621
 H566 H -0.02886 1.21415 0.84422
 H567 H 0.00836 1.11288 0.78636
 H568 H 0.03013 1.07632 0.77011
 H569 H 0.09079 1.08726 0.81877
 H570 H 0.06943 1.12365 0.83440
 C571 C 0.50664 0.73195 0.34595
 C572 C 0.51144 0.71043 0.33297
 C573 C 0.53428 0.69768 0.33536
 C574 C 0.55207 0.70644 0.35126
 C575 C 0.54714 0.72757 0.36454
 C576 C 0.52462 0.74133 0.36171
 N577 N 0.53886 0.67547 0.32225
 N578 N 0.56116 0.66649 0.32018
 C579 C 0.56690 0.64386 0.30831
 C580 C 0.59235 0.63840 0.30273
 C581 C 0.59904 0.61610 0.29213
 C582 C 0.58036 0.59858 0.28731
 C583 C 0.55475 0.60397 0.29299
 C584 C 0.54801 0.62659 0.30324
 H585 H 0.48865 0.74124 0.34389
 H586 H 0.49732 0.70369 0.32106
 H587 H 0.56957 0.69651 0.35398
 H588 H 0.56094 0.73245 0.37748
 H589 H 0.60708 0.65147 0.30675
 H590 H 0.61894 0.61227 0.28823
 H591 H 0.54004 0.59073 0.28944
 H592 H 0.52822 0.63037 0.30765
 C593 C 0.50210 0.31208 0.11768
 C594 C 0.51023 0.33259 0.13006
 C595 C 0.50922 0.33287 0.15474
 C596 C 0.49929 0.31252 0.16703
 C597 C 0.49062 0.29206 0.15464
 C598 C 0.49261 0.29111 0.12964
 N599 N 0.51847 0.35405 0.16671
 N600 N 0.52311 0.35414 0.18867
 C601 C 0.53288 0.37554 0.19995
 C602 C 0.54565 0.37294 0.22115
 C603 C 0.55781 0.39303 0.23117
 C604 C 0.55674 0.41618 0.22042
 C605 C 0.54280 0.41909 0.19986
 C606 C 0.53115 0.39886 0.18953
 H607 H 0.50324 0.31249 0.09852
 H608 H 0.51761 0.34828 0.12037
 H609 H 0.49780 0.31262 0.18618
 H610 H 0.48197 0.27742 0.16484
 H611 H 0.54709 0.35509 0.22935
 H612 H 0.56850 0.39045 0.24705
 H613 H 0.54192 0.43677 0.19123
 H614 H 0.52122 0.40133 0.17322
 C615 C 0.00246 0.76337 0.66432
 C616 C 0.00860 0.78327 0.67874
 C617 C 0.01873 0.80472 0.66881
 C618 C 0.02292 0.80601 0.64423
 C619 C 0.01726 0.78610 0.62988
 C620 C 0.00736 0.76411 0.63957
 N621 N 0.02489 0.82493 0.68382
 N622 N 0.02893 0.84612 0.67514
 C623 C 0.03670 0.86671 0.68882
 C624 C 0.03873 0.88945 0.67762
 C625 C 0.04909 0.90945 0.68928
 C626 C 0.05786 0.90700 0.71240
 C627 C 0.05465 0.88443 0.72410
 C628 C 0.04414 0.86437 0.71238
 H629 H -0.00669 0.74785 0.67276
 H630 H 0.00493 0.78218 0.69766
 H631 H 0.03073 0.82239 0.63606
 H632 H 0.02057 0.78780 0.61095
 H633 H 0.03297 0.89148 0.65950
 H634 H 0.05089 0.92672 0.67996
 H635 H 0.06140 0.88196 0.74184
 H636 H 0.04279 0.84688 0.72135
 C637 C 1.00608 0.70779 0.65112
 C638 C 0.99839 0.68600 0.66221
 C639 C 0.97512 0.67525 0.65699
 C640 C 0.95974 0.68642 0.64027
 C641 C 0.96728 0.70820 0.62930
 C642 C 0.99024 0.71991 0.63508
 N643 N 0.96740 0.65305 0.66869
 N644 N 0.94701 0.64216 0.66328
 C645 C 0.93800 0.62030 0.67467
 C646 C 0.91560 0.60973 0.66683
 C647 C 0.90545 0.58900 0.67796
 C648 C 0.91752 0.57845 0.69732
 C649 C 0.94035 0.58881 0.70492
 C650 C 0.95053 0.60964 0.69370
 H651 H 1.02441 0.71543 0.65520
 H652 H 1.01066 0.67740 0.67479
 H653 H 0.94188 0.67825 0.63552
 H654 H 0.95511 0.71534 0.61590
 H655 H 0.90587 0.61774 0.65211
 H656 H 0.88813 0.58120 0.67138
 H657 H 0.94998 0.58119 0.71988
 H658 H 0.96788 0.61756 0.70007
 C659 C 0.44999 0.23553 0.12557
 C660 C 0.44329 0.21389 0.13713
 C661 C 0.45991 0.20269 0.15249
 C662 C 0.48359 0.21348 0.15638
 C663 C 0.49043 0.23529 0.14477
 C664 C 0.47352 0.24717 0.12950
 N665 N 0.45233 0.17985 0.16285
 N666 N 0.46542 0.16791 0.17749
 C667 C 0.45638 0.14488 0.18661
 C668 C 0.46913 0.13334 0.20492
 C669 C 0.45999 0.11122 0.21445
 C670 C 0.43795 0.10029 0.20568
 C671 C 0.42568 0.11165 0.18689
 C672 C 0.43470 0.13369 0.17752
 H673 H 0.43684 0.24232 0.11283
 H674 H 0.42521 0.20538 0.13361
 H675 H 0.49697 0.20483 0.16791
 H676 H 0.50917 0.24279 0.14739
 H677 H 0.48590 0.14170 0.21205
 H678 H 0.46980 0.10299 0.22900
 H679 H 0.40906 0.10344 0.17931
 H680 H 0.42464 0.14198 0.16315
 C681 C 0.34553 0.52500 -0.22722
 C682 C 0.33004 0.52205 -0.20685
 C683 C 0.33977 0.51157 -0.18646
 C684 C 0.36548 0.50475 -0.18640
 C685 C 0.38083 0.50734 -0.20678
 C686 C 0.37087 0.51634 -0.22799
 N687 N 0.32310 0.50688 -0.16647
 N688 N 0.33166 0.50006 -0.14672
 C689 C 0.31548 0.49320 -0.12702
 C690 C 0.32659 0.48749 -0.10556
 C691 C 0.31191 0.47782 -0.08681
 C692 C 0.28582 0.47348 -0.08935
 C693 C 0.27450 0.48012 -0.11063
 C694 C 0.28919 0.48999 -0.12931
 H695 H 0.33750 0.53405 -0.24225
 H696 H 0.31038 0.52791 -0.20695
 H697 H 0.37360 0.49688 -0.17078
 H698 H 0.40053 0.50171 -0.20617
 H699 H 0.34687 0.48975 -0.10365
 H700 H 0.32122 0.47260 -0.07076
 H701 H 0.25439 0.47712 -0.11298
 H702 H 0.28019 0.49421 -0.14578
 C703 C 0.84155 1.01068 0.26936
 C704 C 0.82927 1.00845 0.29166
 C705 C 0.83663 0.99018 0.30741
 C706 C 0.85607 0.97391 0.30042
 C707 C 0.86795 0.97581 0.27819
 C708 C 0.86055 0.99381 0.26175
 N709 N 0.82467 0.98834 0.33050
 N710 N 0.83566 0.97674 0.34684
 C711 C 0.82460 0.97246 0.36990
 C712 C 0.83991 0.96219 0.38708
 C713 C 0.82947 0.95514 0.40901
 C714 C 0.80333 0.95800 0.41407
 C715 C 0.78806 0.96901 0.39704
 C716 C 0.79864 0.97631 0.37512
 H717 H 0.83645 1.02585 0.25813
 H718 H 0.81457 1.02144 0.29694
 H719 H 0.86235 0.95976 0.31231
 H720 H 0.88368 0.96350 0.27446
 H721 H 0.85992 0.95897 0.38317
 H722 H 0.84165 0.94640 0.42159
 H723 H 0.76787 0.97154 0.40053
 H724 H 0.78643 0.98411 0.36202
 C725 C 0.87402 0.00939 1.19511
 C726 C 0.86134 0.01444 1.17446
 C727 C 0.83493 0.01316 1.17410
 C728 C 0.82119 0.00577 1.19457
 C729 C 0.83396 0.00036 1.21538
 C730 C 0.86062 0.00316 1.21630
 N731 N 0.82290 0.02002 1.15275
 N732 N 0.79895 0.02186 1.15085
 C733 C 0.78835 0.02982 1.12907
 C734 C 0.76230 0.03485 1.12832
 C735 C 0.75198 0.04474 1.10788
 C736 C 0.76761 0.04957 1.08777
 C737 C 0.79358 0.04367 1.08833
 C738 C 0.80386 0.03395 1.10876
 H739 H 0.89456 0.01083 1.19474
 H740 H 0.87216 0.01980 1.15870
 H741 H 0.80070 0.00408 1.19445
 H742 H 0.82284 -0.00619 1.23043
 H743 H 0.75011 0.03173 1.14380
 H744 H 0.73185 0.04886 1.10788
 H745 H 0.80617 0.04745 1.07327
 H746 H 0.82406 0.03020 1.10881
 C747 C 0.35346 0.50822 0.72100
 C748 C 0.34181 0.51056 0.69921
 C749 C 0.35198 0.52625 0.68187
 C750 C 0.37413 0.53945 0.68648
 C751 C 0.38555 0.53742 0.70830
 C752 C 0.37484 0.52257 0.72649
 N753 N 0.33944 0.52887 0.65988
 N754 N 0.34998 0.54012 0.64250
 C755 C 0.33752 0.54448 0.62078
 C756 C 0.35113 0.55604 0.60234
 C757 C 0.33899 0.56303 0.58180
 C758 C 0.31287 0.55867 0.57945
 C759 C 0.29942 0.54621 0.59763
 C760 C 0.31166 0.53911 0.61814
 H761 H 0.34569 0.49515 0.73365
 H762 H 0.32500 0.49988 0.69572
 H763 H 0.38267 0.55139 0.67320
 H764 H 0.40312 0.54725 0.71065
 H765 H 0.37104 0.56036 0.60424
 H766 H 0.34978 0.57289 0.56828
 H767 H 0.27933 0.54245 0.59620
 H768 H 0.30075 0.53018 0.63220
 C769 C 0.17420 0.49212 0.28272
 C770 C 0.18808 0.49914 0.30238
 C771 C 0.17572 0.50925 0.32240
 C772 C 0.14913 0.51123 0.32300
 C773 C 0.13530 0.50415 0.30356
 C774 C 0.14758 0.49558 0.28257
 N775 N 0.19031 0.51797 0.34170
 N776 N 0.17966 0.53008 0.35854
 C777 C 0.19299 0.53984 0.37809
 C778 C 0.17984 0.55556 0.39372
 C779 C 0.19224 0.56652 0.41242
 C780 C 0.21804 0.56166 0.41599
 C781 C 0.23114 0.54531 0.40069
 C782 C 0.21874 0.53458 0.38170
 H783 H 0.18446 0.48386 0.26789
 H784 H 0.20854 0.49695 0.30191
 H785 H 0.13897 0.51846 0.33844
 H786 H 0.11480 0.50598 0.30462
 H787 H 0.15997 0.55965 0.39113
 H788 H 0.18166 0.57881 0.42415
 H789 H 0.25107 0.54136 0.40309
 H790 H 0.22922 0.52238 0.36982
 C791 C 0.62206 0.04396 0.77936
 C792 C 0.63322 0.04987 0.80056
 C793 C 0.65324 0.03601 0.80888
 C794 C 0.66221 0.01580 0.79567
 C795 C 0.65115 0.00991 0.77407
 C796 C 0.63133 0.02440 0.76500
 N797 N 0.66309 0.04289 0.83122
 N798 N 0.67998 0.03118 0.84221
 C799 C 0.68784 0.04003 0.86481
 C800 C 0.70503 0.02645 0.87799
 C801 C 0.71202 0.03463 0.90044
 C802 C 0.70178 0.05649 0.91001
 C803 C 0.68496 0.07021 0.89648
 C804 C 0.67804 0.06210 0.87423
 H805 H 0.60552 0.05453 0.77493
 H806 H 0.62572 0.06508 0.81097
 H807 H 0.67742 0.00449 0.80210
 H808 H 0.65785 -0.00617 0.76450
 H809 H 0.71277 0.00942 0.87100
 H810 H 0.72504 0.02368 0.91048
 H811 H 0.67726 0.08744 0.90302
 H812 H 0.66491 0.07316 0.86444
 C813 C 0.62330 1.00475 0.69914
 C814 C 0.63745 1.00095 0.67829
 C815 C 0.66368 1.00419 0.67771
 C816 C 0.67569 1.01239 0.69811
 C817 C 0.66135 1.01703 0.71901
 C818 C 0.63490 1.01240 0.72013
 N819 N 0.67738 0.99831 0.65620
 N820 N 0.70106 0.99362 0.65514
 C821 C 0.71310 0.98647 0.63311
 C822 C 0.73459 0.97134 0.63332
 C823 C 0.74399 0.96059 0.61233
 C824 C 0.73243 0.96546 0.59077
 C825 C 0.71201 0.98196 0.59031
 C826 C 0.70222 0.99222 0.61137
 H827 H 0.60302 1.00143 0.69901
 H828 H 0.62798 0.99477 0.66262
 H829 H 0.69602 1.01549 0.69778
 H830 H 0.67112 1.02433 0.73397
 H831 H 0.74309 0.96671 0.64993
 H832 H 0.75980 0.94790 0.61298
 H833 H 0.70280 0.98585 0.57386
 H834 H 0.68568 1.00400 0.61079
 C835 C 0.16397 0.50003 0.22896
 C836 C 0.17557 0.49673 0.20653
 C837 C 0.16927 0.47659 0.19255
 C838 C 0.15148 0.45957 0.20144
 C839 C 0.13993 0.46279 0.22373
 C840 C 0.14626 0.48284 0.23830
 N841 N 0.18000 0.47423 0.16901
 N842 N 0.17280 0.45707 0.15549
 C843 C 0.18213 0.45359 0.13169
 C844 C 0.17195 0.43441 0.11864
 C845 C 0.18006 0.43031 0.09527
 C846 C 0.19862 0.44540 0.08442
 C847 C 0.20905 0.46463 0.09762
 C848 C 0.20078 0.46878 0.12112
 H849 H 0.16841 0.51638 0.23890
 H850 H 0.18894 0.51026 0.19977
 H851 H 0.14586 0.44403 0.19088
 H852 H 0.12520 0.44991 0.22886
 H853 H 0.15764 0.42255 0.12667
 H854 H 0.17206 0.41503 0.08579
 H855 H 0.22334 0.47657 0.08969
 H856 H 0.20888 0.48376 0.13094
 C857 C -0.21998 0.37336 0.49890
 C858 C -0.19825 0.36147 0.49004
 C859 C -0.20021 0.34011 0.47666
 C860 C -0.22437 0.33107 0.47145
 C861 C -0.24626 0.34322 0.48000
 C862 C -0.24452 0.36393 0.49492
 N863 N -0.17729 0.32861 0.46806
 N864 N -0.17665 0.30725 0.45900
 C865 C -0.15319 0.29672 0.45031
 C866 C -0.15236 0.27189 0.44410
 C867 C -0.12968 0.26127 0.43548
 C868 C -0.10745 0.27545 0.43261
 C869 C -0.10845 0.30041 0.43889
 C870 C -0.13101 0.31089 0.44775
 H871 H -0.21733 0.39026 0.50853
 H872 H -0.17972 0.36900 0.49357
 H873 H -0.22631 0.31494 0.46047
 H874 H -0.26465 0.33635 0.47508
 H875 H -0.16929 0.26074 0.44607
 H876 H -0.12956 0.24193 0.43115
 H877 H -0.09195 0.31205 0.43643
 H878 H -0.13119 0.33020 0.45224
 C879 C 0.30546 0.88576 0.98227
 C880 C 0.32755 0.87496 0.97291
 C881 C 0.32911 0.84961 0.97014
 C882 C 0.30777 0.83510 0.97580
 C883 C 0.28541 0.84594 0.98499
 C884 C 0.28431 0.87141 0.98958
 N885 N 0.35267 0.83933 0.96160
 N886 N 0.35691 0.81639 0.96052
 C887 C 0.38100 0.80711 0.95200
 C888 C 0.38525 0.78179 0.95152
 C889 C 0.40853 0.77234 0.94297
 C890 C 0.42795 0.78817 0.93476
 C891 C 0.42366 0.81360 0.93553
 C892 C 0.40047 0.82298 0.94408
 H893 H 0.30504 0.90548 0.98448
 H894 H 0.34372 0.88638 0.96816
 H895 H 0.30835 0.81546 0.97305
 H896 H 0.26915 0.83424 0.98826
 H897 H 0.37046 0.76936 0.95767
 H898 H 0.41133 0.75268 0.94279
 H899 H 0.43799 0.82628 0.92891
 H900 H 0.39770 0.84265 0.94421
 C901 C 1.24638 0.84861 0.02705
 C902 C 1.22760 0.83355 0.03738
 C903 C 1.20194 0.83768 0.03304
 C904 C 1.19523 0.85716 0.01833
 C905 C 1.21390 0.87193 0.00777
 C906 C 1.24003 0.86740 0.01109
 N907 N 1.18289 0.82239 0.04405
 N908 N 1.15951 0.82842 0.04403
 C909 C 1.13969 0.81371 0.05442
 C910 C 1.11565 0.82419 0.05803
 C911 C 1.09582 0.81067 0.06845
 C912 C 1.09950 0.78607 0.07503
 C913 C 1.12367 0.77543 0.07090
 C914 C 1.14366 0.78919 0.06085
 H915 H 1.26599 0.84549 0.03145
 H916 H 1.23302 0.81894 0.04914
 H917 H 1.17548 0.86110 0.01508
 H918 H 1.20754 0.88726 -0.00260
 H919 H 1.11242 0.84310 0.05316
 H920 H 1.07778 0.81976 0.07182
 H921 H 1.12715 0.75646 0.07534
 H922 H 1.16208 0.78065 0.05792
 C923 C 0.71357 0.33671 0.52076
 C924 C 0.69326 0.32268 0.52987
 C925 C 0.66886 0.33278 0.53216
 C926 C 0.66520 0.35752 0.52656
 C927 C 0.68548 0.37166 0.51804
 C928 C 0.70976 0.36123 0.51358
 N929 N 0.64807 0.31801 0.54070
 N930 N 0.62525 0.32387 0.53644
 C931 C 0.60375 0.31054 0.54561
 C932 C 0.57992 0.31511 0.53627
 C933 C 0.55819 0.30377 0.54586
 C934 C 0.55982 0.28798 0.56541
 C935 C 0.58396 0.28312 0.57448
 C936 C 0.60575 0.29416 0.56457
 H937 H 0.73219 0.32834 0.51979
 H938 H 0.69649 0.30383 0.53492
 H939 H 0.64670 0.36600 0.52902
 H940 H 0.68209 0.39082 0.51425
 H941 H 0.57818 0.32769 0.52161
 H942 H 0.54008 0.30759 0.53807
 H943 H 0.58600 0.27146 0.58978
 H944 H 0.62399 0.29058 0.57223
 C945 C 0.25480 0.10996 0.53328
 C946 C 0.27132 0.12663 0.54336
 C947 C 0.28745 0.14097 0.52914
 C948 C 0.28602 0.13944 0.50444
 C949 C 0.26950 0.12259 0.49427
 C950 C 0.25485 0.10625 0.50850
 N951 N 0.30571 0.15598 0.54047
 N952 N 0.32010 0.17124 0.52961
 C953 C 0.33896 0.18450 0.54215
 C954 C 0.35144 0.20439 0.53137
 C955 C 0.37023 0.21719 0.54335
 C956 C 0.37704 0.21003 0.56623
 C957 C 0.36458 0.18985 0.57678
 C958 C 0.34568 0.17737 0.56499
 H959 H 0.24200 0.10019 0.54520
 H960 H 0.27168 0.12828 0.56245
 H961 H 0.29795 0.15083 0.49307
 H962 H 0.26872 0.12174 0.47517
 H963 H 0.34652 0.21005 0.51375
 H964 H 0.37927 0.23275 0.53475
 H965 H 0.36977 0.18328 0.59403
 H966 H 0.33665 0.16181 0.57360
 C967 C 0.80174 0.63317 -0.00379
 C968 C 0.82195 0.64695 0.00459
 C969 C 0.82603 0.64837 0.02884
 C970 C 0.80854 0.63738 0.04475
 C971 C 0.78811 0.62394 0.03643
 C972 C 0.78533 0.62006 0.01191
 N973 N 0.84828 0.66046 0.03695
 N974 N 0.85590 0.65708 0.05784
 C975 C 0.87812 0.66854 0.06668
 C976 C 0.88699 0.66087 0.08848
 C977 C 0.90857 0.67152 0.09783
 C978 C 0.92153 0.69045 0.08566
 C979 C 0.91262 0.69805 0.06361
 C980 C 0.89113 0.68711 0.05413
 H981 H 0.79944 0.63192 -0.02273
 H982 H 0.83492 0.65587 -0.00788
 H983 H 0.81069 0.63916 0.06367
 H984 H 0.77471 0.61670 0.04946
 H985 H 0.87720 0.64643 0.09820
 H986 H 0.91517 0.66479 0.11456
 H987 H 0.92193 0.71276 0.05390
 H988 H 0.88452 0.69338 0.03723
 C989 C 0.74550 0.62423 0.96457
 C990 C 0.72823 0.64001 0.95420
 C991 C 0.71228 0.65491 0.96819
 C992 C 0.71478 0.65500 0.99283
 C993 C 0.73208 0.63914 1.00328
 C994 C 0.74649 0.62215 0.98947
 N995 N 0.69300 0.66870 0.95686
 N996 N 0.67798 0.68342 0.96783
 C997 C 0.65799 0.69553 0.95573
 C998 C 0.64383 0.71398 0.96728
 C999 C 0.62366 0.72539 0.95599
 C1000 C 0.61717 0.71829 0.93299
 C1001 C 0.63144 0.69966 0.92156
 C1002 C 0.65169 0.68853 0.93272
 H1003 H 0.75791 0.61376 0.95281
 H1004 H 0.72702 0.64039 0.93512
 H1005 H 0.70301 0.66682 1.00400
 H1006 H 0.73349 0.63936 1.02235
 H1007 H 0.64843 0.71951 0.98505
 H1008 H 0.61327 0.73984 0.96523
 H1009 H 0.62666 0.69322 0.90413
 H1010 H 0.66208 0.67407 0.92349
 C1011 C 0.21412 0.10713 0.46171
 C1012 C 0.19422 0.12093 0.45288
 C1013 C 0.17638 0.13205 0.46822
 C1014 C 0.17918 0.13010 0.49273
 C1015 C 0.19900 0.11611 0.50163
 C1016 C 0.21603 0.10313 0.48630
 N1017 N 0.15530 0.14451 0.45830
 N1018 N 0.13924 0.15702 0.47056
 C1019 C 0.11793 0.16823 0.45968
 C1020 C 0.10372 0.18617 0.47195
 C1021 C 0.08328 0.19777 0.46123
 C1022 C 0.07661 0.19132 0.43810
 C1023 C 0.09046 0.17268 0.42625
 C1024 C 0.11097 0.16140 0.43682
 H1025 H 0.22791 0.09979 0.44904
 H1026 H 0.19264 0.12295 0.43393
 H1027 H 0.16585 0.13897 0.50496
 H1028 H 0.20063 0.11479 0.52063
 H1029 H 0.10880 0.19151 0.48965
 H1030 H 0.07311 0.21212 0.47080
 H1031 H 0.08542 0.16669 0.40874
 H1032 H 0.12132 0.14725 0.42712
 C1033 C 0.61007 0.06028 0.72927
 C1034 C 0.59520 0.07969 0.72184
 C1035 C 0.56937 0.07641 0.71827
 C1036 C 0.55840 0.05324 0.72207
 C1037 C 0.57327 0.03368 0.72993
 C1038 C 0.59933 0.03709 0.73436
 N1039 N 0.55516 0.09705 0.71048
 N1040 N 0.53246 0.09582 0.70349
 C1041 C 0.51983 0.11749 0.69565
 C1042 C 0.49801 0.11535 0.68227
 C1043 C 0.48698 0.13620 0.67243
 C1044 C 0.49745 0.15954 0.67622
 C1045 C 0.51864 0.16171 0.69055
 C1046 C 0.52980 0.14091 0.70009
 H1047 H 0.63017 0.06344 0.73154
 H1048 H 0.60392 0.09738 0.71860
 H1049 H 0.53845 0.05026 0.71894
 H1050 H 0.56433 0.01597 0.73199
 H1051 H 0.49009 0.09745 0.67876
 H1052 H 0.47052 0.13408 0.66159
 H1053 H 0.52724 0.17942 0.69358
 H1054 H 0.54655 0.14309 0.71053
 C1055 C 1.09407 0.50624 0.23820
 C1056 C 1.08021 0.52588 0.22927
 C1057 C 1.08566 0.54993 0.23600
 C1058 C 1.10502 0.55413 0.25197
 C1059 C 1.11896 0.53462 0.26079
 C1060 C 1.11346 0.51010 0.25455
 N1061 N 1.07271 0.56989 0.22513
 N1062 N 1.07717 0.59206 0.23068
 C1063 C 1.06565 0.61239 0.21913
 C1064 C 1.07183 0.63618 0.22623
 C1065 C 1.06267 0.65648 0.21407
 C1066 C 1.04721 0.65324 0.19447
 C1067 C 1.04043 0.62932 0.18783
 C1068 C 1.04956 0.60905 0.20004
 H1069 H 1.09006 0.48794 0.23189
 H1070 H 1.06566 0.52240 0.21656
 H1071 H 1.11008 0.57260 0.25701
 H1072 H 1.13477 0.53919 0.27171
 H1073 H 1.08431 0.63896 0.24087
 H1074 H 1.06839 0.67466 0.21947
 H1075 H 1.02822 0.62627 0.17304
 H1076 H 1.04448 0.59083 0.19425
 C1077 C 0.87703 0.95253 0.22883
 C1078 C 0.88891 0.93063 0.22241
 C1079 C 0.91504 0.92988 0.21768
 C1080 C 0.92932 0.95154 0.21903
 C1081 C 0.91741 0.97367 0.22557
 C1082 C 0.89108 0.97437 0.23135
 N1083 N 0.92613 0.90681 0.21113
 N1084 N 0.94958 0.90378 0.20576
 C1085 C 0.95904 0.88002 0.19903
 C1086 C 0.98418 0.87745 0.19055
 C1087 C 0.99313 0.85469 0.18230
 C1088 C 0.97697 0.83416 0.18246
 C1089 C 0.95207 0.83664 0.19185
 C1090 C 0.94317 0.85930 0.20001
 H1091 H 0.85666 0.95245 0.23222
 H1092 H 0.87767 0.91411 0.22103
 H1093 H 0.94954 0.95140 0.21488
 H1094 H 0.92884 0.99009 0.22565
 H1095 H 0.99663 0.89323 0.18973
 H1096 H 1.01235 0.85337 0.17501
 H1097 H 0.93933 0.82107 0.19264
 H1098 H 0.92373 0.86066 0.20674
 C1099 C 0.42552 0.49458 0.72979
 C1100 C 0.43650 0.47259 0.72173
 C1101 C 0.42562 0.45011 0.72812
 C1102 C 0.40413 0.44981 0.74342
 C1103 C 0.39321 0.47167 0.75153
 C1104 C 0.40375 0.49461 0.74508
 N1105 N 0.43518 0.42801 0.71731
 N1106 N 0.42359 0.40772 0.72020
 C1107 C 0.43155 0.38546 0.70877
 C1108 C 0.41580 0.36492 0.71096
 C1109 C 0.42164 0.34344 0.69847
 C1110 C 0.44357 0.34209 0.68372
 C1111 C 0.45988 0.36245 0.68215
 C1112 C 0.45385 0.38407 0.69449
 H1113 H 0.43349 0.51165 0.72328
 H1114 H 0.45282 0.47312 0.70960
 H1115 H 0.39509 0.43269 0.74838
 H1116 H 0.37564 0.47039 0.76189
 H1117 H 0.39858 0.36579 0.72193
 H1118 H 0.40891 0.32792 0.70019
 H1119 H 0.47682 0.36191 0.67078
 H1120 H 0.46630 0.39976 0.69252
 C1121 C 0.39475 0.56455 0.75516
 C1122 C 0.40830 0.58508 0.76219
 C1123 C 0.43257 0.58256 0.77110
 C1124 C 0.44335 0.55909 0.77281
 C1125 C 0.42987 0.53842 0.76553
 C1126 C 0.40550 0.54084 0.75598
 N1127 N 0.44505 0.60407 0.77938
 N1128 N 0.46615 0.60346 0.78976
 C1129 C 0.47746 0.62538 0.79863
 C1130 C 0.49859 0.62350 0.81293
 C1131 C 0.50843 0.64436 0.82375
 C1132 C 0.49737 0.66750 0.82023
 C1133 C 0.47685 0.66948 0.80503
 C1134 C 0.46691 0.64860 0.79438
 H1135 H 0.37559 0.56716 0.74918
 H1136 H 0.39957 0.60303 0.76126
 H1137 H 0.46193 0.55668 0.78017
 H1138 H 0.43832 0.52058 0.76809
 H1139 H 0.50694 0.60574 0.81629
 H1140 H 0.52442 0.64237 0.83520
 H1141 H 0.46780 0.68702 0.80216
 H1142 H 0.45060 0.65057 0.78333
 C1143 C -0.11222 0.04402 0.23612
 C1144 C -0.09891 0.06438 0.24395
 C1145 C -0.08024 0.06186 0.26072
 C1146 C -0.07442 0.03843 0.26925
 C1147 C -0.08757 0.01788 0.26125
 C1148 C -0.10657 0.02014 0.24425
 N1149 N -0.06922 0.08362 0.27010
 N1150 N -0.05359 0.08330 0.28681
 C1151 C -0.04423 0.10552 0.29687
 C1152 C -0.02886 0.10413 0.31656
 C1153 C -0.02182 0.12544 0.32843
 C1154 C -0.03002 0.14856 0.32072
 C1155 C -0.04449 0.14999 0.30030
 C1156 C -0.05161 0.12865 0.28850
 H1157 H -0.12770 0.04746 0.22446
 H1158 H -0.10399 0.08244 0.23769
 H1159 H -0.06030 0.03608 0.28258
 H1160 H -0.08339 0.00020 0.26887
 H1161 H -0.02301 0.08645 0.32316
 H1162 H -0.01032 0.12381 0.34391
 H1163 H -0.05122 0.16752 0.29405
 H1164 H -0.06350 0.13023 0.27329
 C1165 C 0.13046 0.44410 0.27485
 C1166 C 0.11867 0.42299 0.28353
 C1167 C 0.09265 0.42286 0.28895
 C1168 C 0.07843 0.44439 0.28602
 C1169 C 0.09025 0.46569 0.27731
 C1170 C 0.11641 0.46568 0.27076
 N1171 N 0.08154 0.40068 0.29785
 N1172 N 0.05798 0.39828 0.30304
 C1173 C 0.04818 0.37556 0.31218
 C1174 C 0.02232 0.37362 0.31852
 C1175 C 0.01266 0.35190 0.32843
 C1176 C 0.02883 0.33183 0.33221
 C1177 C 0.05463 0.33367 0.32527
 C1178 C 0.06421 0.35528 0.31539
 H1179 H 0.15074 0.44356 0.27098
 H1180 H 0.12990 0.40662 0.28612
 H1181 H 0.05833 0.44483 0.29069
 H1182 H 0.07885 0.48210 0.27621
 H1183 H 0.00975 0.38909 0.31614
 H1184 H -0.00726 0.35105 0.33375
 H1185 H 0.06745 0.31838 0.32759
 H1186 H 0.08424 0.35617 0.31049
 C1187 C 0.61322 0.96923 0.74165
 C1188 C 0.60328 0.94745 0.75071
 C1189 C 0.58411 0.94774 0.76824
 C1190 C 0.57444 0.97029 0.77648
 C1191 C 0.58442 0.99229 0.76742
 C1192 C 0.60385 0.99228 0.74956
 N1193 N 0.57655 0.92482 0.77846
 N1194 N 0.55853 0.92242 0.79380
 C1195 C 0.55313 0.89893 0.80414
 C1196 C 0.53125 0.89583 0.81856
 C1197 C 0.52625 0.87325 0.82951
 C1198 C 0.54335 0.85359 0.82646
 C1199 C 0.56515 0.85669 0.81184
 C1200 C 0.56994 0.87907 0.80069
 H1201 H 0.62915 0.96762 0.72921
 H1202 H 0.61125 0.93016 0.74462
 H1203 H 0.55988 0.97091 0.79043
 H1204 H 0.57746 1.00944 0.77483
 H1205 H 0.51818 0.91097 0.82145
 H1206 H 0.50940 0.87134 0.84085
 H1207 H 0.57851 0.84176 0.80905
 H1208 H 0.58705 0.88095 0.78971
 C1209 C 0.72325 0.58802 0.02387
 C1210 C 0.71142 0.57611 0.04305
 C1211 C 0.72578 0.56345 0.05941
 C1212 C 0.75212 0.56119 0.05543
 C1213 C 0.76400 0.57308 0.03617
 C1214 C 0.75004 0.58840 0.02114
 N1215 N 0.71323 0.55453 0.08049
 N1216 N 0.72454 0.54273 0.09649
 C1217 C 0.71132 0.53575 0.11800
 C1218 C 0.72288 0.51972 0.13374
 C1219 C 0.71041 0.51316 0.15507
 C1220 C 0.68622 0.52280 0.16110
 C1221 C 0.67496 0.53921 0.14534
 C1222 C 0.68725 0.54548 0.12401
 H1223 H 0.71116 0.59710 0.01151
 H1224 H 0.69096 0.57726 0.04550
 H1225 H 0.76358 0.55094 0.06754
 H1226 H 0.78444 0.57150 0.03377
 H1227 H 0.74150 0.51220 0.12940
 H1228 H 0.71956 0.50033 0.16666
 H1229 H 0.65671 0.54756 0.14961
 H1230 H 0.67806 0.55825 0.11239
 C1231 C 0.20061 1.06281 0.51796
 C1232 C 0.19163 1.04916 0.53733
 C1233 C 0.20847 1.04018 0.55386
 C1234 C 0.23472 1.04246 0.54935
 C1235 C 0.24376 1.05575 0.52973
 C1236 C 0.22676 1.06832 0.51513
 N1237 N 0.19834 1.03118 0.57597
 N1238 N 0.21217 1.02702 0.59360
 C1239 C 0.20130 1.02030 0.61623
 C1240 C 0.21716 1.01760 0.63550
 C1241 C 0.20677 1.01365 0.65829
 C1242 C 0.18027 1.01249 0.66211
 C1243 C 0.16448 1.01443 0.64258
 C1244 C 0.17485 1.01832 0.61989
 H1245 H 0.18684 1.06970 0.50584
 H1246 H 0.17134 1.04674 0.54018
 H1247 H 0.24818 1.03495 0.56150
 H1248 H 0.26409 1.05807 0.52712
 H1249 H 0.23756 1.01923 0.63295
 H1250 H 0.21940 1.01225 0.67299
 H1251 H 0.14403 1.01303 0.64487
 H1252 H 0.16215 1.02028 0.60531
 C1253 C 0.25255 0.92508 0.97705
 C1254 C 0.24368 0.93681 0.95680
 C1255 C 0.23363 0.92314 0.93829
 C1256 C 0.23255 0.89756 0.94023
 C1257 C 0.24104 0.88592 0.96037
 C1258 C 0.25067 0.89937 0.97950
 N1259 N 0.22447 0.93529 0.91771
 N1260 N 0.21877 0.92298 0.89946
 C1261 C 0.20842 0.93351 0.87867
 C1262 C 0.20480 0.91826 0.85917
 C1263 C 0.19314 0.92715 0.83907
 C1264 C 0.18462 0.95157 0.83818
 C1265 C 0.18884 0.96707 0.85763
 C1266 C 0.20068 0.95812 0.87774
 H1267 H 0.26126 0.93624 0.99035
 H1268 H 0.24501 0.95656 0.95538
 H1269 H 0.22500 0.88645 0.92621
 H1270 H 0.24002 0.86611 0.96114
 H1271 H 0.21075 0.89926 0.85969
 H1272 H 0.19067 0.91485 0.82427
 H1273 H 0.18228 0.98588 0.85763
 H1274 H 0.20317 0.97020 0.89270
 C1275 C 0.70273 0.38272 0.46753
 C1276 C 0.69531 0.39476 0.44722
 C1277 C 0.70835 0.41539 0.43902
 C1278 C 0.72957 0.42370 0.45113
 C1279 C 0.73690 0.41177 0.47185
 C1280 C 0.72274 0.39178 0.48121
 N1281 N 0.69920 0.42717 0.41837
 N1282 N 0.71095 0.44386 0.40679
 C1283 C 0.69958 0.45434 0.38637
 C1284 C 0.71456 0.46708 0.36957
 C1285 C 0.70397 0.47535 0.34853
 C1286 C 0.67814 0.47112 0.34415
 C1287 C 0.66299 0.45947 0.36166
 C1288 C 0.67357 0.45107 0.38242
 H1289 H 0.69273 0.36604 0.47215
 H1290 H 0.67941 0.38773 0.43756
 H1291 H 0.74032 0.43937 0.44472
 H1292 H 0.75355 0.41826 0.48069
 H1293 H 0.73461 0.46983 0.37239
 H1294 H 0.71614 0.48427 0.33539
 H1295 H 0.64288 0.45660 0.35924
 H1296 H 0.66141 0.44173 0.39529
 C1297 C 0.73131 0.41964 0.52665
 C1298 C 0.73772 0.43327 0.54669
 C1299 C 0.74882 0.42178 0.56596
 C1300 C 0.75341 0.39651 0.56504
 C1301 C 0.74773 0.38309 0.54496
 C1302 C 0.73720 0.39439 0.52504
 N1303 N 0.75647 0.43590 0.58592
 N1304 N 0.75955 0.42562 0.60584
 C1305 C 0.76985 0.43793 0.62573
 C1306 C 0.76773 0.42675 0.64797
 C1307 C 0.78051 0.43636 0.66719
 C1308 C 0.79609 0.45706 0.66427
 C1309 C 0.79763 0.46872 0.64211
 C1310 C 0.78443 0.45934 0.62299
 H1311 H 0.72165 0.42901 0.51272
 H1312 H 0.73376 0.45274 0.54731
 H1313 H 0.76204 0.38717 0.57965
 H1314 H 0.75195 0.36366 0.54480
 H1315 H 0.75676 0.41009 0.65021
 H1316 H 0.77921 0.42696 0.68404
 H1317 H 0.80948 0.48476 0.63950
 H1318 H 0.78655 0.46811 0.60588
 C1319 C 0.25162 -0.08206 0.03250
 C1320 C 0.25758 -0.06960 0.05338
 C1321 C 0.28011 -0.07489 0.06493
 C1322 C 0.29651 -0.09286 0.05533
 C1323 C 0.29066 -0.10518 0.03467
 C1324 C 0.26851 -0.09954 0.02220
 N1325 N 0.28605 -0.06248 0.08652
 N1326 N 0.30605 -0.06835 0.09731
 C1327 C 0.31434 -0.05726 0.11867
 C1328 C 0.33727 -0.06545 0.12764
 C1329 C 0.34707 -0.05475 0.14777
 C1330 C 0.33404 -0.03556 0.15948
 C1331 C 0.31053 -0.02772 0.15093
 C1332 C 0.30076 -0.03844 0.13050
 H1333 H 0.23363 -0.07825 0.02448
 H1334 H 0.24444 -0.05613 0.06077
 H1335 H 0.31381 -0.09782 0.06405
 H1336 H 0.30342 -0.11976 0.02908
 H1337 H 0.34779 -0.08004 0.11873
 H1338 H 0.36498 -0.06145 0.15418
 H1339 H 0.30016 -0.01293 0.15964
 H1340 H 0.28292 -0.03190 0.12384
 C1341 C 0.23676 0.05554 0.46340
 C1342 C 0.24803 0.04330 0.44401
 C1343 C 0.27404 0.04572 0.43892
 C1344 C 0.28908 0.05881 0.45468
 C1345 C 0.27785 0.07096 0.47414
 C1346 C 0.25116 0.07124 0.47771
 N1347 N 0.28436 0.03633 0.41694
 N1348 N 0.30724 0.04053 0.41021
 C1349 C 0.31753 0.03296 0.38759
 C1350 C 0.34242 0.03976 0.38130
 C1351 C 0.35245 0.03485 0.35863
 C1352 C 0.33771 0.02292 0.34178
 C1353 C 0.31297 0.01531 0.34836
 C1354 C 0.30288 0.02039 0.37108
 H1355 H 0.21640 0.05401 0.46638
 H1356 H 0.23626 0.03278 0.43235
 H1357 H 0.30944 0.06017 0.45165
 H1358 H 0.29025 0.08045 0.48595
 H1359 H 0.35389 0.04944 0.39386
 H1360 H 0.37172 0.04053 0.35422
 H1361 H 0.30118 0.00616 0.33571
 H1362 H 0.28354 0.01501 0.37554
 C1363 C 0.80138 0.57928 0.98113
 C1364 C 0.81048 0.56448 0.96255
 C1365 C 0.79366 0.55350 0.94713
 C1366 C 0.76741 0.55549 0.95186
 C1367 C 0.75826 0.57022 0.97052
 C1368 C 0.77510 0.58419 0.98413
 N1369 N 0.80371 0.54269 0.92572
 N1370 N 0.78968 0.53338 0.91013
 C1371 C 0.80010 0.52505 0.88780
 C1372 C 0.78426 0.51335 0.87185
 C1373 C 0.79339 0.50716 0.84908
 C1374 C 0.81845 0.51298 0.84186
 C1375 C 0.83445 0.52425 0.85807
 C1376 C 0.82542 0.53014 0.88085
 H1377 H 0.81519 0.58733 0.99255
 H1378 H 0.83080 0.56241 0.95953
 H1379 H 0.75397 0.54664 0.94052
 H1380 H 0.73790 0.57223 0.97323
 H1381 H 0.76466 0.50948 0.87692
 H1382 H 0.78068 0.49854 0.83688
 H1383 H 0.85395 0.52862 0.85304
 H1384 H 0.83804 0.53928 0.89277
 C1385 C 0.01927 0.71741 0.58847
 C1386 C 0.03994 0.70761 0.57542
 C1387 C 0.06479 0.71429 0.58059
 C1388 C 0.06877 0.73092 0.59905
 C1389 C 0.04821 0.74068 0.61212
 C1390 C 0.02287 0.73468 0.60674
 N1391 N 0.08572 0.70319 0.56769
 N1392 N 0.10867 0.70847 0.57206
 C1393 C 0.12997 0.69714 0.56000
 C1394 C 0.15451 0.70359 0.56650
 C1395 C 0.17576 0.69200 0.55604
 C1396 C 0.17280 0.67368 0.53883
 C1397 C 0.14809 0.66762 0.53196
 C1398 C 0.12685 0.67922 0.54246
 H1399 H 0.00030 0.71134 0.58444
 H1400 H 0.03658 0.69445 0.56150
 H1401 H 0.08783 0.73596 0.60381
 H1402 H 0.05262 0.75229 0.62692
 H1403 H 0.15715 0.71733 0.58005
 H1404 H 0.19447 0.69690 0.56195
 H1405 H 0.14517 0.65386 0.51849
 H1406 H 0.10806 0.67398 0.53707
 C1407 C 0.49783 0.24031 1.08152
 C1408 C 0.51690 0.22773 1.06865
 C1409 C 0.54251 0.23304 1.07196
 C1410 C 0.54886 0.25151 1.08800
 C1411 C 0.52991 0.26403 1.10097
 C1412 C 0.50385 0.25890 1.09789
 N1413 N 0.56173 0.21841 1.06016
 N1414 N 0.58530 0.22250 1.06274
 C1415 C 0.60491 0.20744 1.05217
 C1416 C 0.63030 0.21377 1.05550
 C1417 C 0.64999 0.19878 1.04669
 C1418 C 0.64457 0.17703 1.03445
 C1419 C 0.61902 0.17090 1.03082
 C1420 C 0.59933 0.18598 1.03957
 H1421 H 0.47824 0.23503 1.07923
 H1422 H 0.51170 0.21327 1.05657
 H1423 H 0.56856 0.25570 1.09123
 H1424 H 0.53613 0.27684 1.11416
 H1425 H 0.63483 0.23018 1.06530
 H1426 H 0.66943 0.20386 1.05003
 H1427 H 0.61426 0.15442 1.02122
 H1428 H 0.57983 0.18069 1.03679
 C1429 C 0.97499 0.21779 0.91169
 C1430 C 0.95537 0.20644 0.92486
 C1431 C 0.92995 0.21095 0.91978
 C1432 C 0.92440 0.22674 0.90109
 C1433 C 0.94391 0.23786 0.88776
 C1434 C 0.96973 0.23429 0.89320
 N1435 N 0.91010 0.19858 0.93298
 N1436 N 0.88682 0.20403 0.93039
 C1437 C 0.86628 0.19156 0.94241
 C1438 C 0.84156 0.20032 0.93977
 C1439 C 0.82081 0.18799 0.95011
 C1440 C 0.82439 0.16640 0.96317
 C1441 C 0.84935 0.15785 0.96613
 C1442 C 0.87015 0.17034 0.95588
 H1443 H 0.99447 0.21355 0.91580
 H1444 H 0.95999 0.19392 0.93894
 H1445 H 0.90492 0.23000 0.89631
 H1446 H 0.93838 0.24862 0.87275
 H1447 H 0.83835 0.21669 0.92948
 H1448 H 0.80194 0.19538 0.94784
 H1449 H 0.85279 0.14113 0.97582
 H1450 H 0.88911 0.16313 0.95803
 C1451 C 0.46959 0.76313 0.38868
 C1452 C 0.44866 0.75318 0.40081
 C1453 C 0.45170 0.73459 0.41730
 C1454 C 0.47623 0.72597 0.42181
 C1455 C 0.49741 0.73593 0.40958
 C1456 C 0.49464 0.75516 0.39309
 N1457 N 0.42921 0.72391 0.42773
 N1458 N 0.42921 0.70763 0.44380
 C1459 C 0.40573 0.69713 0.45248
 C1460 C 0.40573 0.68116 0.47184
 C1461 C 0.38311 0.67004 0.47992
 C1462 C 0.36020 0.67451 0.46848
 C1463 C 0.36022 0.69076 0.44926
 C1464 C 0.38270 0.70204 0.44139
 H1465 H 0.46560 0.77633 0.37508
 H1466 H 0.42977 0.75951 0.39676
 H1467 H 0.47895 0.71115 0.43417
 H1468 H 0.51603 0.72830 0.41263
 H1469 H 0.42331 0.67715 0.48052
 H1470 H 0.38363 0.65741 0.49465
 H1471 H 0.34280 0.69468 0.44027
 H1472 H 0.38210 0.71428 0.42637
 C1473 C 0.56279 0.78029 0.37884
 C1474 C 0.58334 0.79058 0.39013
 C1475 C 0.58282 0.79333 0.41465
 C1476 C 0.56132 0.78563 0.42795
 C1477 C 0.54036 0.77565 0.41660
 C1478 C 0.54084 0.77243 0.39174
 N1479 N 0.60375 0.80550 0.42512
 N1480 N 0.60795 0.80516 0.44716
 C1481 C 0.62883 0.81871 0.45632
 C1482 C 0.63844 0.81258 0.47838
 C1483 C 0.65925 0.82532 0.48720
 C1484 C 0.67022 0.84480 0.47428
 C1485 C 0.66026 0.85116 0.45238
 C1486 C 0.63991 0.83814 0.44339
 H1487 H 0.56376 0.77883 0.35972
 H1488 H 0.59967 0.79676 0.37966
 H1489 H 0.56035 0.78820 0.44695
 H1490 H 0.52366 0.77143 0.42738
 H1491 H 0.63005 0.79769 0.48856
 H1492 H 0.66659 0.82019 0.50418
 H1493 H 0.66852 0.86602 0.44206
 H1494 H 0.63272 0.84337 0.42639
 C1495 C 0.00915 0.26477 -0.08386
 C1496 C 0.02798 0.27803 -0.07238
 C1497 C 0.04938 0.28673 -0.08503
 C1498 C 0.05185 0.28199 -0.10937
 C1499 C 0.03342 0.26847 -0.12074
 C1500 C 0.01190 0.25908 -0.10823
 N1501 N 0.06845 0.30030 -0.07305
 N1502 N 0.08508 0.31270 -0.08464
 C1503 C 0.10511 0.32582 -0.07370
 C1504 C 0.11903 0.34286 -0.08724
 C1505 C 0.13914 0.35565 -0.07746
 C1506 C 0.14598 0.35120 -0.05405
 C1507 C 0.13216 0.33391 -0.04049
 C1508 C 0.11169 0.32143 -0.05018
 H1509 H -0.00755 0.25948 -0.07355
 H1510 H 0.02565 0.28191 -0.05364
 H1511 H 0.06817 0.28854 -0.11962
 H1512 H 0.03602 0.26509 -0.13955
 H1513 H 0.11423 0.34625 -0.10544
 H1514 H 0.14964 0.36875 -0.08830
 H1515 H 0.13706 0.33027 -0.02237
 H1516 H 0.10130 0.30816 -0.03948
 C1517 C 0.43924 0.29018 0.11508
 C1518 C 0.41844 0.30085 0.10446
 C1519 C 0.41798 0.30324 0.07994
 C1520 C 0.43902 0.29538 0.06600
 C1521 C 0.46009 0.28478 0.07664
 C1522 C 0.46020 0.28118 0.10141
 N1523 N 0.39593 0.31394 0.06993
 N1524 N 0.39273 0.31555 0.04777
 C1525 C 0.37020 0.32650 0.03878
 C1526 C 0.36685 0.32717 0.01433
 C1527 C 0.34513 0.33801 0.00517
 C1528 C 0.32636 0.34842 0.02041
 C1529 C 0.32978 0.34757 0.04496
 C1530 C 0.35142 0.33671 0.05406
 H1531 H 0.43886 0.28851 0.13418
 H1532 H 0.40249 0.30717 0.11541
 H1533 H 0.43927 0.29762 0.04697
 H1534 H 0.47620 0.27981 0.06534
 H1535 H 0.38113 0.31931 0.00235
 H1536 H 0.34296 0.33814 -0.01381
 H1537 H 0.31599 0.35582 0.05718
 H1538 H 0.35355 0.33654 0.07305
 C1539 C 0.95628 0.76362 0.62046
 C1540 C 0.93739 0.77667 0.60923
 C1541 C 0.93964 0.78164 0.58508
 C1542 C 0.96127 0.77360 0.57216
 C1543 C 0.98070 0.76107 0.58353
 C1544 C 0.97839 0.75543 0.60794
 N1545 N 0.92044 0.79629 0.57467
 N1546 N 0.91583 0.79593 0.55271
 C1547 C 0.89680 0.81187 0.54368
 C1548 C 0.88186 0.80413 0.52503
 C1549 C 0.86155 0.81862 0.51770
 C1550 C 0.85631 0.84145 0.52855
 C1551 C 0.87249 0.84967 0.54630
 C1552 C 0.89223 0.83491 0.55400
 H1553 H 0.95393 0.76025 0.63928
 H1554 H 0.92094 0.78308 0.61944
 H1555 H 0.96361 0.77791 0.55353
 H1556 H 0.99769 0.75671 0.57318
 H1557 H 0.88524 0.78639 0.51689
 H1558 H 0.84951 0.81152 0.50413
 H1559 H 0.86984 0.86748 0.55448
 H1560 H 0.90394 0.84145 0.56810
   
