data_POSCAR
  _audit_creation_date              2014-09-24
  _audit_creation_method            'ToBaCCo'
  _symmetry_space_group_name_H-M    'P1'
  _symmetry_Int_Tables_number       1
  _symmetry_cell_setting            triclinic
  loop_
  _symmetry_equiv_pos_as_xyz
 x,y,z
_cell_length_a 38.0374
_cell_length_b 35.1321
_cell_length_c 27.5056
_cell_angle_alpha 90.255400
_cell_angle_beta 90.983600
_cell_angle_gamma 87.815600
loop_
  _atom_site_label
  _atom_site_type_symbol
  _atom_site_fract_x
  _atom_site_fract_y
  _atom_site_fract_z
C1 C 0.30114 -0.02810 0.24722
 C2 C 0.31830 0.00408 0.23059
 C3 C 0.33819 0.00123 0.18831
 C4 C 0.34447 -0.03391 0.16520
 C5 C 0.32823 -0.06553 0.18225
 C6 C 0.30646 -0.06326 0.22320
 C7 C 0.32944 0.03365 0.26496
 C8 C 0.36281 0.02703 0.28619
 C9 C 0.38115 0.05598 0.30930
 C10 C 0.36164 0.09004 0.31853
 C11 C 0.32941 0.09934 0.29356
 C12 C 0.31348 0.07033 0.26639
 H13 H 0.28796 -0.02696 0.28185
 H14 H 0.35280 0.02561 0.17736
 H15 H 0.37476 -0.00076 0.28088
 H16 H 0.28976 0.07626 0.24508
 H17 H 0.33361 -0.09258 0.16465
 H18 H 0.37188 0.10950 0.34485
 C19 C 0.16527 -0.05893 0.74307
 C20 C 0.14905 -0.02748 0.76650
 C21 C 0.11877 -0.03293 0.79304
 C22 C 0.10162 -0.06772 0.79235
 C23 C 0.11886 -0.09957 0.77076
 C24 C 0.15154 -0.09586 0.74702
 C25 C 0.15726 0.01276 0.75605
 C26 C 0.13429 0.03238 0.72350
 C27 C 0.13006 0.07225 0.72499
 C28 C 0.15000 0.09262 0.75866
 C29 C 0.17702 0.07417 0.78677
 C30 C 0.17991 0.03386 0.78631
 H31 H 0.18813 -0.05444 0.72125
 H32 H 0.10713 -0.00843 0.81168
 H33 H 0.11702 0.01627 0.70004
 H34 H 0.19812 0.01914 0.81114
 H35 H 0.10684 -0.12689 0.77264
 H36 H 0.14559 0.12318 0.76103
 C37 C 0.66592 0.41478 0.22364
 C38 C 0.64153 0.44511 0.23237
 C39 C 0.61137 0.43799 0.25899
 C40 C 0.60625 0.40226 0.27986
 C41 C 0.62979 0.37185 0.26919
 C42 C 0.65957 0.37780 0.24077
 C43 C 0.64741 0.48535 0.21837
 C44 C 0.61974 0.50603 0.19469
 C45 C 0.62002 0.54575 0.19122
 C46 C 0.64787 0.56506 0.21175
 C47 C 0.67727 0.54525 0.23177
 C48 C 0.67708 0.50509 0.23535
 H49 H 0.69000 0.42002 0.20473
 H50 H 0.59342 0.46162 0.26798
 H51 H 0.59726 0.49125 0.18040
 H52 H 0.69865 0.48979 0.25375
 H53 H 0.62695 0.34463 0.28685
 H54 H 0.64677 0.59584 0.21166
 C55 C 0.81873 0.47673 0.76214
 C56 C 0.84169 0.50155 0.73982
 C57 C 0.86832 0.48630 0.71005
 C58 C 0.87458 0.44705 0.70520
 C59 C 0.85324 0.42237 0.73029
 C60 C 0.82415 0.43687 0.75706
 C61 C 0.84595 0.54137 0.75633
 C62 C 0.87747 0.54815 0.78094
 C63 C 0.89017 0.58476 0.78556
 C64 C 0.86827 0.61579 0.77193
 C65 C 0.83491 0.61016 0.75097
 C66 C 0.82391 0.57263 0.74201
 H67 H 0.79809 0.48812 0.78530
 H68 H 0.88627 0.50545 0.69354
 H69 H 0.89221 0.52413 0.79659
 H70 H 0.79891 0.56796 0.72397
 H71 H 0.85831 0.39193 0.72713
 H72 H 0.87720 0.64429 0.77775
 C73 C 0.24566 0.43696 1.09543
 C74 C 0.26027 0.46059 1.06142
 C75 C 0.28686 0.48505 1.07524
 C76 C 0.30067 0.48406 1.12291
 C77 C 0.28412 0.46205 1.15787
 C78 C 0.25662 0.43801 1.14411
 C79 C 0.25003 0.45585 1.01044
 C80 C 0.22184 0.47766 0.99109
 C81 C 0.20825 0.46989 0.94438
 C82 C 0.22553 0.44109 0.91628
 C83 C 0.25295 0.41782 0.93679
 C84 C 0.26449 0.42510 0.98422
 H85 H 0.22518 0.41811 1.08375
 H86 H 0.29890 0.50204 1.04785
 H87 H 0.20901 0.49853 1.01453
 H88 H 0.28486 0.40681 1.00092
 H89 H 0.29514 0.46072 1.19448
 H90 H 0.21614 0.43490 0.87984
 C91 C 0.73410 0.08308 1.06080
 C92 C 0.71361 0.06894 1.02260
 C93 C 0.68331 0.04979 1.03265
 C94 C 0.67203 0.04561 1.08039
 C95 C 0.69250 0.06045 1.11881
 C96 C 0.72423 0.07917 1.10965
 C97 C 0.72608 0.07183 0.97247
 C98 C 0.75532 0.04901 0.95952
 C99 C 0.77497 0.05781 0.91898
 C100 C 0.76409 0.08934 0.89059
 C101 C 0.73161 0.10931 0.89868
 C102 C 0.71319 0.10090 0.94107
 H103 H 0.75861 0.09584 1.05179
 H104 H 0.66830 0.03870 1.00296
 H105 H 0.76535 0.02716 0.98445
 H106 H 0.68977 0.11765 0.95050
 H107 H 0.68228 0.05911 1.15494
 H108 H 0.78243 0.09989 0.86502
 C109 C 0.25261 0.57616 0.53143
 C110 C 0.23453 0.55425 0.49698
 C111 C 0.20408 0.53628 0.51014
 C112 C 0.19098 0.53901 0.55764
 C113 C 0.21010 0.56038 0.59247
 C114 C 0.24075 0.57969 0.57955
 C115 C 0.24494 0.55359 0.44543
 C116 C 0.27173 0.52837 0.42908
 C117 C 0.28573 0.53203 0.38214
 C118 C 0.27103 0.56036 0.35116
 C119 C 0.24374 0.58535 0.36723
 C120 C 0.23056 0.58142 0.41401
 H121 H 0.27572 0.59083 0.52045
 H122 H 0.18990 0.52157 0.48196
 H123 H 0.28416 0.50865 0.45476
 H124 H 0.21108 0.60206 0.42737
 H125 H 0.20063 0.56298 0.62921
 H126 H 0.28376 0.56613 0.31717
 C127 C 0.76750 0.92671 0.54190
 C128 C 0.78404 0.94454 0.50345
 C129 C 0.81186 0.96853 0.51323
 C130 C 0.82561 0.97269 0.56106
 C131 C 0.80845 0.95402 0.59896
 C132 C 0.77938 0.93102 0.59021
 C133 C 0.77452 0.93370 0.45301
 C134 C 0.74451 0.95064 0.43041
 C135 C 0.72774 0.93251 0.39108
 C136 C 0.74289 0.89827 0.37299
 C137 C 0.77439 0.88233 0.39319
 C138 C 0.79013 0.90033 0.43312
 H139 H 0.74562 0.90879 0.53361
 H140 H 0.82426 0.98143 0.48277
 H141 H 0.73203 0.97553 0.44708
 H142 H 0.81245 0.88639 0.45163
 H143 H 0.81815 0.95684 0.63527
 H144 H 0.72866 0.88247 0.34566
 C145 C -0.03356 0.22756 0.33383
 C146 C -0.00115 0.23457 0.35576
 C147 C 0.01472 0.20879 0.38865
 C148 C -0.00177 0.17546 0.39978
 C149 C -0.03527 0.16909 0.37956
 C150 C -0.05203 0.19572 0.34732
 C151 C 0.01290 0.27218 0.35302
 C152 C -0.00409 0.30161 0.37867
 C153 C 0.01376 0.33433 0.39006
 C154 C 0.04827 0.33838 0.37432
 C155 C 0.06470 0.30915 0.34722
 C156 C 0.04682 0.27621 0.33628
 H157 H -0.04547 0.24949 0.31115
 H158 H 0.03972 0.21501 0.40596
 H159 H -0.03000 0.29772 0.39335
 H160 H 0.06047 0.25230 0.31883
 H161 H -0.04859 0.14370 0.38990
 H162 H 0.06284 0.36292 0.38559
 C163 C -0.04191 0.75886 0.17780
 C164 C -0.00934 0.76167 0.15712
 C165 C -0.00587 0.78308 0.11520
 C166 C -0.03538 0.79911 0.09094
 C167 C -0.06892 0.79123 0.10805
 C168 C -0.07232 0.77018 0.15153
 C169 C 0.01486 0.72911 0.16206
 C170 C 0.00502 0.69695 0.13595
 C171 C 0.03051 0.67459 0.11234
 C172 C 0.06588 0.67970 0.12359
 C173 C 0.07532 0.70850 0.15608
 C174 C 0.04995 0.73430 0.17387
 H175 H -0.04293 0.74083 0.20917
 H176 H 0.01982 0.78422 0.09880
 H177 H -0.02247 0.69443 0.12543
 H178 H 0.05753 0.76013 0.19222
 H179 H -0.09202 0.80286 0.08900
 H180 H 0.08607 0.66125 0.10777
 C181 C 0.44965 0.23883 0.66345
 C182 C 0.46860 0.23391 0.62109
 C183 C 0.46225 0.25821 0.58176
 C184 C 0.43972 0.28998 0.58628
 C185 C 0.41962 0.29469 0.62845
 C186 C 0.42365 0.26801 0.66652
 C187 C 0.50119 0.21112 0.62048
 C188 C 0.50620 0.18635 0.58147
 C189 C 0.53927 0.18182 0.56012
 C190 C 0.56799 0.19947 0.58277
 C191 C 0.56352 0.22125 0.62573
 C192 C 0.52993 0.22632 0.64464
 H193 H 0.45522 0.21999 0.69395
 H194 H 0.47919 0.25583 0.55041
 H195 H 0.48311 0.17416 0.56523
 H196 H 0.52531 0.24636 0.67402
 H197 H 0.40118 0.31876 0.63122
 H198 H 0.59371 0.19678 0.56678
 C199 C 0.47213 0.73291 0.79513
 C200 C 0.49863 0.73442 0.83060
 C201 C 0.50257 0.70613 0.86624
 C202 C 0.47933 0.67584 0.86733
 C203 C 0.45243 0.67523 0.83079
 C204 C 0.44769 0.70465 0.79669
 C205 C 0.51617 0.77029 0.83621
 C206 C 0.50133 0.79853 0.86677
 C207 C 0.51420 0.83517 0.86654
 C208 C 0.54201 0.84306 0.83606
 C209 C 0.55896 0.81411 0.80870
 C210 C 0.54506 0.77789 0.80748
 H211 H 0.46732 0.75704 0.77109
 H212 H 0.52321 0.70894 0.89335
 H213 H 0.47901 0.79235 0.88903
 H214 H 0.55748 0.75523 0.78626
 H215 H 0.43148 0.65542 0.83294
 H216 H 0.55284 0.87115 0.83728
 C217 C -0.30564 0.54332 0.97789
 C218 C -0.27499 0.56006 0.99735
 C219 C -0.27924 0.58681 1.03508
 C220 C -0.31225 0.60419 1.04382
 C221 C -0.34211 0.59050 1.02058
 C222 C -0.33962 0.55801 0.99066
 C223 C -0.24424 0.56734 0.96608
 C224 C -0.24815 0.60149 0.94019
 C225 C -0.21936 0.62310 0.92769
 C226 C -0.18576 0.60464 0.93142
 C227 C -0.18044 0.56901 0.95485
 C228 C -0.21003 0.55098 0.97374
 H229 H -0.30316 0.52178 0.94975
 H230 H -0.25610 0.59871 1.05187
 H231 H -0.27444 0.61329 0.93744
 H232 H -0.20628 0.52607 0.99656
 H233 H -0.36755 0.60396 1.02814
 H234 H -0.16298 0.61820 0.91764
 C235 C -0.31785 0.44382 0.49273
 C236 C -0.28270 0.43538 0.47895
 C237 C -0.27564 0.40412 0.44841
 C238 C -0.30146 0.37776 0.43717
 C239 C -0.33642 0.38840 0.44781
 C240 C -0.34572 0.42077 0.47648
 C241 C -0.25233 0.44551 0.51057
 C242 C -0.24617 0.42036 0.54938
 C243 C -0.21210 0.41237 0.56673
 C244 C -0.18510 0.43562 0.55346
 C245 C -0.19067 0.46375 0.51808
 C246 C -0.22410 0.46736 0.49436
 H247 H -0.32271 0.46615 0.51928
 H248 H -0.24856 0.39861 0.43883
 H249 H -0.26722 0.40279 0.56122
 H250 H -0.22765 0.48545 0.46276
 H251 H -0.35619 0.37154 0.43197
 H252 H -0.15908 0.43076 0.56864
 C253 C 0.18150 -0.04157 -0.03225
 C254 C 0.21622 -0.05107 -0.04598
 C255 C 0.22212 -0.07863 -0.08202
 C256 C 0.19505 -0.10110 -0.09979
 C257 C 0.16024 -0.08848 -0.08989
 C258 C 0.15301 -0.05956 -0.05501
 C259 C 0.24660 -0.04606 -0.01262
 C260 C 0.25036 -0.07374 0.02373
 C261 C 0.28357 -0.08817 0.03981
 C262 C 0.31274 -0.06631 0.02766
 C263 C 0.30970 -0.03671 -0.00775
 C264 C 0.27640 -0.02748 -0.02825
 H265 H 0.17693 -0.02250 -0.00177
 H266 H 0.24896 -0.08501 -0.09177
 H267 H 0.22676 -0.08651 0.03530
 H268 H 0.27416 -0.00848 -0.05917
 H269 H 0.13845 -0.10307 -0.10586
 H270 H 0.33832 -0.07356 0.04299
 C271 C 0.23797 1.03884 0.52898
 C272 C 0.26860 1.05788 0.54481
 C273 C 0.26708 1.07892 0.58817
 C274 C 0.23499 1.08700 0.61061
 C275 C 0.20646 1.06480 0.59846
 C276 C 0.20728 1.04028 0.55805
 C277 C 0.29621 1.07064 0.51101
 C278 C 0.29007 1.10729 0.49228
 C279 C 0.31681 1.12971 0.47382
 C280 C 0.35120 1.11258 0.47290
 C281 C 0.35846 1.07535 0.49091
 C282 C 0.33072 1.05459 0.51028
 H283 H 0.23771 1.02418 0.49428
 H284 H 0.29002 1.09387 0.59993
 H285 H 0.26424 1.11922 0.49826
 H286 H 0.33636 1.02715 0.52705
 H287 H 0.18243 1.06848 0.61815
 H288 H 0.37282 1.12750 0.45798
 C289 C 0.13240 0.50458 0.20398
 C290 C 0.15508 0.52135 0.23783
 C291 C 0.18216 0.54341 0.22134
 C292 C 0.18508 0.55293 0.17199
 C293 C 0.16213 0.53557 0.13787
 C294 C 0.13612 0.51041 0.15355
 C295 C 0.15203 0.51503 0.29087
 C296 C 0.17732 0.49142 0.31442
 C297 C 0.17635 0.48508 0.36470
 C298 C 0.14972 0.50374 0.39169
 C299 C 0.12493 0.52945 0.36936
 C300 C 0.12599 0.53433 0.31843
 H301 H 0.11236 0.48625 0.21701
 H302 H 0.20031 0.55444 0.24797
 H303 H 0.19721 0.47692 0.29288
 H304 H 0.10727 0.55373 0.30038
 H305 H 0.16405 0.54204 0.09958
 H306 H 0.14787 0.49764 0.42999
 C307 C -0.14072 0.97366 0.22626
 C308 C -0.16136 0.96063 0.26423
 C309 C -0.19251 0.94262 0.25379
 C310 C -0.19987 0.92882 0.20712
 C311 C -0.17997 0.94347 0.16875
 C312 C -0.15074 0.96742 0.17718
 C313 C -0.15365 0.96956 0.31554
 C314 C -0.17761 0.99397 0.33946
 C315 C -0.16759 1.01223 0.38232
 C316 C -0.13629 0.99929 0.40588
 C317 C -0.11598 0.96817 0.38782
 C318 C -0.12330 0.95519 0.34039
 H319 H -0.11850 0.99067 0.23557
 H320 H -0.20881 0.93645 0.28426
 H321 H -0.20097 1.00428 0.31987
 H322 H -0.10612 0.93394 0.32340
 H323 H -0.18728 0.93529 0.13242
 H324 H -0.12685 1.01428 0.43740
 C325 C 0.35452 0.48884 -0.31064
 C326 C 0.34090 0.47336 -0.26857
 C327 C 0.31696 0.44467 -0.27163
 C328 C 0.30500 0.43211 -0.31687
 C329 C 0.31819 0.44811 -0.35927
 C330 C 0.34486 0.47566 -0.35732
 C331 C 0.34912 0.49013 -0.22134
 C332 C 0.34056 0.52857 -0.21430
 C333 C 0.34696 0.54633 -0.16963
 C334 C 0.36295 0.52481 -0.13190
 C335 C 0.37163 0.48556 -0.13881
 C336 C 0.36446 0.46838 -0.18363
 H337 H 0.37193 0.51205 -0.30546
 H338 H 0.30732 0.43245 -0.23850
 H339 H 0.32792 0.54464 -0.24384
 H340 H 0.37105 0.43841 -0.18930
 H341 H 0.30716 0.43773 -0.39246
 H342 H 0.37034 0.53899 -0.09841
 C343 C 0.64282 0.01692 -0.31387
 C344 C 0.65338 0.04577 -0.28198
 C345 C 0.66455 0.07975 -0.30044
 C346 C 0.66652 0.08570 -0.35081
 C347 C 0.65573 0.05712 -0.38246
 C348 C 0.64431 0.02204 -0.36446
 C349 C 0.65529 0.03952 -0.22927
 C350 C 0.67839 0.01104 -0.21175
 C351 C 0.67497 -0.00329 -0.16477
 C352 C 0.65215 0.01584 -0.13261
 C353 C 0.63106 0.04771 -0.14851
 C354 C 0.63256 0.05906 -0.19739
 H355 H 0.63424 -0.00972 -0.29921
 H356 H 0.67045 0.10218 -0.27497
 H357 H 0.69557 -0.00396 -0.23716
 H358 H 0.61511 0.08175 -0.21113
 H359 H 0.65277 0.06418 -0.42040
 H360 H 0.64824 0.00366 -0.09707
 C361 C -0.02407 0.19730 0.87295
 C362 C -0.02368 0.23189 0.84747
 C363 C -0.05250 0.24428 0.81908
 C364 C -0.08243 0.22305 0.81722
 C365 C -0.08327 0.18885 0.84311
 C366 C -0.05415 0.17535 0.87102
 C367 C 0.00677 0.25565 0.84968
 C368 C 0.03825 0.24200 0.82968
 C369 C 0.06694 0.26530 0.82889
 C370 C 0.06406 0.30248 0.84760
 C371 C 0.03266 0.31613 0.86806
 C372 C 0.00379 0.29274 0.86886
 H373 H -0.00101 0.18795 0.89364
 H374 H -0.05222 0.27138 0.80036
 H375 H 0.04066 0.21304 0.81596
 H376 H -0.02087 0.30335 0.88391
 H377 H -0.10748 0.17355 0.84293
 H378 H 0.08673 0.32032 0.84783
 C379 C 0.50834 0.21482 0.16809
 C380 C 0.51464 0.24101 0.20532
 C381 C 0.54393 0.23637 0.23582
 C382 C 0.56893 0.20689 0.22819
 C383 C 0.56276 0.18044 0.19027
 C384 C 0.53199 0.18387 0.16090
 C385 C 0.49150 0.27441 0.21253
 C386 C 0.46628 0.27432 0.24854
 C387 C 0.44475 0.30682 0.25689
 C388 C 0.44982 0.34003 0.23054
 C389 C 0.47597 0.34042 0.19506
 C390 C 0.49660 0.30736 0.18607
 H391 H 0.48502 0.21838 0.14515
 H392 H 0.54741 0.25658 0.26526
 H393 H 0.46212 0.24828 0.26834
 H394 H 0.51712 0.30740 0.15920
 H395 H 0.58151 0.15752 0.18283
 H396 H 0.43208 0.36456 0.23549
 C397 C 0.00065 0.71491 0.68277
 C398 C 0.01219 0.74451 0.71271
 C399 C 0.04341 0.74031 0.74002
 C400 C 0.06268 0.70575 0.73867
 C401 C 0.04967 0.67538 0.71171
 C402 C 0.01968 0.68029 0.68219
 C403 C -0.01077 0.77783 0.72010
 C404 C -0.04045 0.77366 0.74777
 C405 C -0.06422 0.80429 0.75616
 C406 C -0.05750 0.83965 0.73398
 C407 C -0.02824 0.84313 0.70363
 C408 C -0.00405 0.81251 0.69889
 H409 H -0.02343 0.71849 0.66136
 H410 H 0.05291 0.76406 0.76114
 H411 H -0.04376 0.74609 0.76350
 H412 H 0.01951 0.81515 0.67796
 H413 H 0.06466 0.64849 0.71056
 H414 H -0.07631 0.86346 0.73649
 C415 C 0.48069 0.68423 0.37335
 C416 C 0.48510 0.71968 0.35236
 C417 C 0.46265 0.73273 0.31517
 C418 C 0.43566 0.71015 0.29849
 C419 C 0.43037 0.67494 0.32041
 C420 C 0.45298 0.66192 0.35825
 C421 C 0.51767 0.73866 0.36089
 C422 C 0.54769 0.72189 0.34055
 C423 C 0.57894 0.74059 0.34248
 C424 C 0.58070 0.77594 0.36579
 C425 C 0.55038 0.79329 0.38567
 C426 C 0.51857 0.77455 0.38311
 H427 H 0.50039 0.67327 0.39884
 H428 H 0.46653 0.76019 0.29860
 H429 H 0.54644 0.69466 0.32189
 H430 H 0.49450 0.78843 0.39578
 H431 H 0.40830 0.65825 0.30889
 H432 H 0.60513 0.79089 0.36600
 B433 B -0.06436 -0.00446 1.00570
 B434 B -0.08179 -0.01220 0.94954
 B435 B -0.05176 0.02094 0.95597
 B436 B -0.02131 0.00669 0.99794
 B437 B -0.03208 -0.03704 1.01659
 B438 B -0.07018 -0.04913 0.98692
 B439 B -0.01937 -0.04280 0.91934
 B440 B -0.00079 -0.03244 0.97365
 B441 B -0.03086 -0.06701 0.96922
 B442 B -0.06215 -0.05279 0.92667
 B443 B -0.05078 -0.00916 0.90741
 B444 B -0.01329 0.00312 0.93686
 B445 B 0.43751 0.48571 0.48041
 B446 B 0.43020 0.47302 0.42219
 B447 B 0.45996 0.50573 0.43478
 B448 B 0.48113 0.49495 0.48751
 B449 B 0.46480 0.45403 0.50729
 B450 B 0.43321 0.43994 0.46669
 B451 B 0.49566 0.43902 0.41988
 B452 B 0.50328 0.45297 0.47756
 B453 B 0.47338 0.41957 0.46618
 B454 B 0.45210 0.43046 0.41233
 B455 B 0.46876 0.47176 0.39231
 B456 B 0.50015 0.48576 0.43283
 B457 B 0.56954 0.98116 0.47432
 B458 B 0.58069 0.98547 0.41522
 B459 B 0.54812 0.95714 0.43037
 B460 B 0.52523 0.97703 0.47669
 B461 B 0.54376 1.01916 0.48997
 B462 B 0.57856 1.02356 0.45167
 B463 B 0.51833 1.02308 0.39655
 B464 B 0.50687 1.01811 0.45522
 B465 B 0.54003 1.04738 0.44098
 B466 B 0.56255 1.02729 0.39382
 B467 B 0.54395 0.98526 0.38046
 B468 B 0.50965 0.97959 0.41860
 B469 B 0.03629 0.49149 0.99685
 B470 B 0.05650 0.50724 0.94640
 B471 B 0.02543 0.47425 0.94093
 B472 B -0.00686 0.48379 0.98087
 B473 B 0.00394 0.52311 1.01145
 B474 B 0.04354 0.53768 0.99097
 B475 B -0.00388 0.54322 0.91645
 B476 B -0.02539 0.52678 0.96452
 B477 B 0.00605 0.55939 0.97249
 B478 B 0.03820 0.55007 0.93166
 B479 B 0.02725 0.51040 0.90032
 B480 B -0.01218 0.49631 0.92099
 B481 B 0.01874 0.53466 0.50317
 B482 B 0.03869 0.50980 0.54969
 B483 B 0.00747 0.54410 0.56126
 B484 B -0.02416 0.54353 0.51751
 B485 B -0.01299 0.50787 0.47848
 B486 B 0.02619 0.48722 0.49794
 B487 B -0.02271 0.47591 0.56760
 B488 B -0.04289 0.50079 0.52193
 B489 B -0.01180 0.46649 0.50960
 B490 B 0.02000 0.46716 0.55335
 B491 B 0.00880 0.50264 0.59238
 B492 B -0.03028 0.52328 0.57293
 B493 B 0.51873 0.03863 -0.01915
 B494 B 0.52672 0.01753 0.03599
 B495 B 0.49780 0.05500 0.03025
 B496 B 0.47530 0.05120 -0.02395
 B497 B 0.49145 0.01092 -0.05119
 B498 B 0.52356 -0.00908 -0.01446
 B499 B 0.46098 -0.00949 0.03377
 B500 B 0.45327 0.00938 -0.02125
 B501 B 0.48358 -0.02665 -0.01576
 B502 B 0.50435 -0.02281 0.03854
 B503 B 0.48851 0.01756 0.06604
 B504 B 0.45730 0.03842 0.02848
 B505 B 0.45644 0.48510 0.02111
 B506 B 0.44444 0.51009 0.07149
 B507 B 0.47776 0.47729 0.07479
 B508 B 0.50103 0.47774 0.02349
 B509 B 0.48242 0.51201 -0.01224
 B510 B 0.44671 0.53200 0.01711
 B511 B 0.50601 0.54659 0.07048
 B512 B 0.51868 0.52081 0.02086
 B513 B 0.48528 0.55414 0.01594
 B514 B 0.46186 0.55394 0.06799
 B515 B 0.48054 0.51938 0.10386
 B516 B 0.51582 0.49945 0.07506
 B517 B -0.00751 0.98234 0.52194
 B518 B -0.02819 1.01200 0.56218
 B519 B -0.00010 0.97699 0.58211
 B520 B 0.03398 0.97231 0.54340
 B521 B 0.02675 1.00527 0.49883
 B522 B -0.01236 1.02933 0.51042
 B523 B 0.03342 1.04337 0.58560
 B524 B 0.05477 1.01431 0.54560
 B525 B 0.02594 1.04908 0.52516
 B526 B -0.00784 1.05341 0.56415
 B527 B -0.00056 1.02051 0.60843
 B528 B 0.03818 0.99630 0.59719
 B529 B 0.76950 0.16780 0.27017
 B530 B 0.77028 0.16009 0.33045
 B531 B 0.79605 0.19323 0.30767
 B532 B 0.77464 0.21490 0.26035
 B533 B 0.73410 0.19583 0.25562
 B534 B 0.73188 0.16173 0.29942
 B535 B 0.73906 0.22998 0.34457
 B536 B 0.73935 0.23769 0.28402
 B537 B 0.71275 0.20494 0.30756
 B538 B 0.73425 0.18288 0.35483
 B539 B 0.77428 0.20225 0.35980
 B540 B 0.77741 0.23621 0.31593
 B541 B 0.74429 0.83181 0.75466
 B542 B 0.73751 0.84260 0.81350
 B543 B 0.71228 0.81036 0.78619
 B544 B 0.73726 0.78496 0.74611
 B545 B 0.77915 0.80098 0.75118
 B546 B 0.77863 0.83719 0.79282
 B547 B 0.76146 0.77195 0.83931
 B548 B 0.76792 0.76117 0.78011
 B549 B 0.79351 0.79312 0.80905
 B550 B 0.76842 0.81907 0.84817
 B551 B 0.72741 0.80261 0.84327
 B552 B 0.72692 0.76697 0.80094
 B553 B 0.26862 0.28256 0.81461
 B554 B 0.26066 0.29038 0.75420
 B555 B 0.29413 0.26039 0.77288
 B556 B 0.28129 0.23551 0.82157
 B557 B 0.23980 0.25090 0.83357
 B558 B 0.22699 0.28562 0.79256
 B559 B 0.23876 0.21932 0.74262
 B560 B 0.24656 0.20990 0.80211
 B561 B 0.21374 0.24096 0.78513
 B562 B 0.22637 0.26533 0.73619
 B563 B 0.26838 0.24991 0.72442
 B564 B 0.28008 0.21539 0.76506
 B565 B 0.24957 0.71221 0.23289
 B566 B 0.25604 0.69809 0.17470
 B567 B 0.22454 0.73115 0.18787
 B568 B 0.23825 0.75934 0.23337
 B569 B 0.27938 0.74377 0.24805
 B570 B 0.29045 0.70538 0.21198
 B571 B 0.27992 0.76832 0.15384
 B572 B 0.27300 0.78180 0.21161
 B573 B 0.30524 0.74844 0.19959
 B574 B 0.29114 0.72068 0.15298
 B575 B 0.24961 0.73632 0.13819
 B576 B 0.23847 0.77423 0.17479
 B577 B 0.27165 0.69480 0.72687
 B578 B 0.27582 0.68913 0.78791
 B579 B 0.29617 0.72473 0.76137
 B580 B 0.27066 0.74258 0.71530
 B581 B 0.23334 0.71766 0.71462
 B582 B 0.23676 0.68400 0.75988
 B583 B 0.23663 0.75440 0.80179
 B584 B 0.23361 0.76076 0.74151
 B585 B 0.21298 0.72434 0.76791
 B586 B 0.23858 0.70701 0.81427
 B587 B 0.27553 0.73226 0.81503
 B588 B 0.27269 0.76533 0.77010
 B589 B 0.24280 0.33015 0.29409
 B590 B 0.24546 0.34140 0.35475
 B591 B 0.21841 0.30761 0.33402
 B592 B 0.23779 0.28245 0.28865
 B593 B 0.27731 0.30138 0.28036
 B594 B 0.28201 0.33829 0.32034
 B595 B 0.27712 0.27273 0.37260
 B596 B 0.27439 0.26108 0.31353
 B597 B 0.30155 0.29574 0.33113
 B598 B 0.28252 0.32006 0.37793
 B599 B 0.24222 0.30124 0.38661
 B600 B 0.23779 0.26490 0.34578
 B601 B 0.77241 0.75226 0.27287
 B602 B 0.75552 0.77409 0.22237
 B603 B 0.78801 0.74000 0.21752
 B604 B 0.78228 0.70555 0.25853
 B605 B 0.74559 0.71774 0.28869
 B606 B 0.72866 0.76041 0.26667
 B607 B 0.72659 0.70853 0.19364
 B608 B 0.74397 0.68588 0.24299
 B609 B 0.71151 0.71956 0.24896
 B610 B 0.71705 0.75444 0.20765
 B611 B 0.75421 0.74217 0.17689
 B612 B 0.77040 0.69932 0.19871
 B613 B 0.71607 0.23357 0.75553
 B614 B 0.72542 0.22508 0.69680
 B615 B 0.69744 0.26155 0.71009
 B616 B 0.71022 0.28237 0.76202
 B617 B 0.74763 0.25936 0.78085
 B618 B 0.75764 0.22323 0.74051
 B619 B 0.76091 0.28975 0.69225
 B620 B 0.74966 0.30080 0.75007
 B621 B 0.77839 0.26408 0.73820
 B622 B 0.76550 0.24213 0.68586
 B623 B 0.72811 0.26587 0.66694
 B624 B 0.71863 0.30199 0.70628
 C625 C 0.43874 1.01878 0.30924
 C626 C 0.41805 1.05165 0.32076
 C627 C 0.43812 1.08143 0.34158
 C628 C 0.47350 1.07481 0.35785
 C629 C 0.48971 1.03816 0.35654
 C630 C 0.47289 1.01291 0.32509
 C631 C 0.47493 0.97242 0.30835
 C632 C 0.43710 0.97890 0.29002
 H633 H 0.42739 1.11011 0.34561
 H634 H 0.48823 1.09852 0.37005
 H635 H 0.47704 0.95115 0.33804
 H636 H 0.49409 0.96779 0.27865
 H637 H 0.41852 0.96114 0.30986
 H638 H 0.43444 0.97832 0.24977
 C639 C -0.04719 0.56708 0.79243
 C640 C -0.07658 0.58946 0.80662
 C641 C -0.07285 0.61021 0.85040
 C642 C -0.04559 0.59958 0.88392
 C643 C -0.02287 0.56771 0.87431
 C644 C -0.02134 0.55622 0.82548
 C645 C -0.01225 0.52039 0.79806
 C646 C -0.03996 0.53320 0.76051
 H647 H -0.09337 0.63031 0.86198
 H648 H -0.04471 0.61382 0.91861
 H649 H -0.01973 0.49422 0.81721
 H650 H 0.01495 0.51991 0.78390
 H651 H -0.06126 0.51294 0.75655
 H652 H -0.02856 0.54142 0.72551
 C653 C 0.05011 -0.09790 0.83726
 C654 C 0.06518 -0.06793 0.81257
 C655 C 0.04385 -0.03415 0.81068
 C656 C 0.01467 -0.02840 0.84076
 C657 C 0.00417 -0.05679 0.87348
 C658 C 0.02048 -0.09296 0.86540
 C659 C 0.02050 -0.13463 0.87710
 C660 C 0.05454 -0.13923 0.84768
 H661 H 0.05063 -0.01105 0.78757
 H662 H 0.00187 -0.00036 0.84002
 H663 H -0.00215 -0.14847 0.85920
 H664 H 0.02421 -0.14276 0.91561
 H665 H 0.05159 -0.15701 0.81444
 H666 H 0.07842 -0.14587 0.87041
 C667 C 0.55315 0.37886 0.32596
 C668 C 0.58295 0.40105 0.32248
 C669 C 0.58792 0.42825 0.35900
 C670 C 0.56073 0.43870 0.39015
 C671 C 0.52805 0.42048 0.38920
 C672 C 0.52626 0.38838 0.35862
 C673 C 0.49848 0.37662 0.32342
 C674 C 0.52783 0.36621 0.28809
 H675 H 0.61131 0.44494 0.35963
 H676 H 0.56504 0.46358 0.41204
 H677 H 0.48105 0.40094 0.31123
 H678 H 0.48458 0.35146 0.33647
 H679 H 0.52802 0.38450 0.25534
 H680 H 0.53076 0.33510 0.28095
 C681 C 0.55919 0.57574 0.18327
 C682 C 0.59203 0.56680 0.16379
 C683 C 0.59553 0.57295 0.11383
 C684 C 0.56548 0.57922 0.08389
 C685 C 0.53177 0.57305 0.10220
 C686 C 0.52927 0.57798 0.15354
 C687 C 0.50773 0.56359 0.19497
 C688 C 0.54098 0.56155 0.22632
 H689 H 0.62079 0.56834 0.09727
 H690 H 0.56923 0.58276 0.04573
 H691 H 0.49728 0.53483 0.19118
 H692 H 0.48820 0.58554 0.20791
 H693 H 0.54973 0.53202 0.23637
 H694 H 0.54061 0.58253 0.25668
 C695 C 0.06858 1.08765 0.70667
 C696 C 0.10411 1.09041 0.69530
 C697 C 0.11111 1.09602 0.64570
 C698 C 0.08608 1.08684 0.60931
 C699 C 0.05382 1.07138 0.62212
 C700 C 0.04445 1.07650 0.67131
 C701 C 0.02579 1.05287 0.70733
 C702 C 0.05134 1.06650 0.74589
 H703 H 0.13700 1.10345 0.63488
 H704 H 0.09390 1.08748 0.57183
 H705 H 0.02945 1.02177 0.70098
 H706 H -0.00176 1.06335 0.71315
 H707 H 0.06876 1.04377 0.76190
 H708 H 0.03878 1.08609 0.77288
 C709 C -0.10095 0.42467 0.62598
 C710 C -0.09528 0.43347 0.67523
 C711 C -0.06152 0.44415 0.68967
 C712 C -0.03610 0.45190 0.65517
 C713 C -0.04372 0.44968 0.60469
 C714 C -0.07547 0.43305 0.59078
 C715 C -0.07737 0.39414 0.56907
 C716 C -0.10330 0.38477 0.60719
 H717 H -0.05602 0.45042 0.72753
 H718 H -0.01174 0.46326 0.66857
 H719 H -0.05250 0.37679 0.57305
 H720 H -0.08892 0.39495 0.53166
 H721 H -0.09281 0.36315 0.63368
 H722 H -0.12940 0.37812 0.59169
 C723 C 0.39648 -0.06439 0.11892
 C724 C 0.36873 -0.03682 0.12395
 C725 C 0.36737 -0.00684 0.09149
 C726 C 0.39634 0.00053 0.06425
 C727 C 0.42677 -0.02441 0.06182
 C728 C 0.42482 -0.05848 0.08800
 C729 C 0.45048 -0.07698 0.12297
 C730 C 0.41966 -0.08368 0.15618
 H731 H 0.34577 0.01422 0.09194
 H732 H 0.39486 0.02852 0.04883
 H733 H 0.46949 -0.05669 0.13839
 H734 H 0.46254 -0.10376 0.10802
 H735 H 0.42081 -0.06753 0.19089
 H736 H 0.41383 -0.11428 0.15993
 C737 C 0.36357 0.46871 0.14114
 C738 C 0.33714 0.49657 0.13172
 C739 C 0.34805 0.53236 0.11623
 C740 C 0.38336 0.53746 0.10308
 C741 C 0.40800 0.50609 0.10110
 C742 C 0.39793 0.47265 0.12517
 C743 C 0.40001 0.43099 0.11151
 C744 C 0.36315 0.42732 0.12966
 H745 H 0.32871 0.55505 0.10881
 H746 H 0.38973 0.56469 0.08799
 H747 H 0.41833 0.41327 0.13409
 H748 H 0.40208 0.42572 0.07202
 H749 H 0.36181 0.40979 0.16309
 H750 H 0.34395 0.42011 0.10043
 C751 C -0.12880 1.01533 0.53364
 C752 C -0.14214 0.99153 0.56933
 C753 C -0.11954 0.98331 0.60981
 C754 C -0.08442 0.99441 0.61069
 C755 C -0.06996 1.01270 0.57066
 C756 C -0.09334 1.02519 0.53360
 C757 C -0.10309 1.06580 0.52222
 C758 C -0.14120 1.05544 0.52351
 H759 H -0.12727 0.96576 0.63957
 H760 H -0.06820 0.98641 0.64167
 H761 H -0.09447 1.07385 0.48537
 H762 H -0.09547 1.08573 0.55178
 H763 H -0.15510 1.05864 0.48788
 H764 H -0.15560 1.06868 0.55453
 C765 C -0.17889 0.00680 0.89613
 C766 C -0.18845 0.04214 0.91759
 C767 C -0.16500 0.05765 0.95101
 C768 C -0.13251 0.03980 0.96093
 C769 C -0.12118 0.00535 0.93763
 C770 C -0.14558 -0.01098 0.90559
 C771 C -0.14062 -0.02190 0.85377
 C772 C -0.17599 -0.00211 0.84300
 H773 H -0.17233 0.08341 0.97084
 H774 H -0.11631 0.05363 0.98778
 H775 H -0.14075 -0.05328 0.84842
 H776 H -0.11824 -0.00769 0.83695
 H777 H -0.19599 -0.02207 0.82981
 H778 H -0.17407 0.02392 0.82047
 C779 C 0.33392 0.48163 0.36126
 C780 C 0.32286 0.51890 0.37535
 C781 C 0.34704 0.54099 0.39988
 C782 C 0.38011 0.52627 0.41266
 C783 C 0.39281 0.48940 0.39854
 C784 C 0.36874 0.46746 0.37200
 C785 C 0.37328 0.45112 0.32246
 C786 C 0.33651 0.46669 0.31028
 H787 H 0.33897 0.56880 0.41402
 H788 H 0.39401 0.54374 0.43788
 H789 H 0.37535 0.41947 0.32306
 H790 H 0.39417 0.46494 0.30180
 H791 H 0.31765 0.44400 0.30252
 H792 H 0.33603 0.48981 0.28273
 C793 C 0.13292 0.53780 0.60294
 C794 C 0.15589 0.52232 0.56823
 C795 C 0.14176 0.49326 0.53878
 C796 C 0.10511 0.48756 0.53636
 C797 C 0.08085 0.51039 0.56363
 C798 C 0.09668 0.53256 0.60064
 C799 C 0.08997 0.57132 0.62252
 C800 C 0.12935 0.57629 0.62495
 H801 H 0.15851 0.47666 0.51469
 H802 H 0.09588 0.46712 0.51000
 H803 H 0.07839 0.57003 0.65924
 H804 H 0.07766 0.59238 0.59728
 H805 H 0.14004 0.57710 0.66278
 H806 H 0.13834 0.59897 0.60050
 C807 C 0.62613 -0.00419 0.06737
 C808 C 0.63668 0.03014 0.08829
 C809 C 0.60952 0.05341 0.10857
 C810 C 0.57363 0.04633 0.09821
 C811 C 0.56420 0.01730 0.06496
 C812 C 0.59134 -0.00992 0.05536
 C813 C 0.60089 -0.03718 0.01537
 C814 C 0.63929 -0.03181 0.02967
 H815 H 0.61582 0.07922 0.12799
 H816 H 0.55407 0.06576 0.11295
 H817 H 0.59457 -0.02575 -0.02149
 H818 H 0.59198 -0.06638 0.02238
 H819 H 0.65430 -0.01967 -0.00026
 H820 H 0.65198 -0.05774 0.04631
 C821 C 0.67855 0.98035 0.37022
 C822 C 0.69008 0.94264 0.38016
 C823 C 0.66512 0.91792 0.39795
 C824 C 0.63060 0.93094 0.40765
 C825 C 0.61825 0.96840 0.39598
 C826 C 0.64322 0.99236 0.37645
 C827 C 0.64165 1.01382 0.32993
 C828 C 0.67975 1.00093 0.32285
 H829 H 0.67343 0.88961 0.41000
 H830 H 0.61512 0.91203 0.42823
 H831 H 0.63809 1.04501 0.33597
 H832 H 0.62321 1.00153 0.30281
 H833 H 0.69810 1.02478 0.32464
 H834 H 0.68360 0.98135 0.29134
 C835 C 0.14940 0.46651 0.90119
 C836 C 0.17303 0.48709 0.92943
 C837 C 0.15903 0.52071 0.95136
 C838 C 0.12233 0.52783 0.95390
 C839 C 0.09817 0.50183 0.93430
 C840 C 0.11305 0.47325 0.90374
 C841 C 0.10756 0.43141 0.89813
 C842 C 0.14678 0.42475 0.89473
 H843 H 0.17607 0.53995 0.97044
 H844 H 0.11319 0.55232 0.97473
 H845 H 0.09417 0.42433 0.86332
 H846 H 0.09785 0.41808 0.93140
 H847 H 0.15525 0.41499 0.85809
 H848 H 0.15839 0.40808 0.92575
 C849 C -0.01994 0.39452 0.40262
 C850 C -0.00268 0.36256 0.42211
 C851 C 0.00201 0.36036 0.47281
 C852 C -0.00537 0.39255 0.50206
 C853 C -0.01706 0.42752 0.48095
 C854 C -0.02542 0.42671 0.43084
 C855 C -0.01627 0.45169 0.38925
 C856 C -0.01185 0.41627 0.35823
 H857 H 0.01444 0.33516 0.48913
 H858 H 0.00188 0.39102 0.54024
 H859 H 0.00937 0.46522 0.39521
 H860 H -0.03874 0.47071 0.37720
 H861 H 0.01552 0.41105 0.34554
 H862 H -0.03267 0.41391 0.32965
 C863 C 0.48909 -0.09961 -0.12239
 C864 C 0.49966 -0.13417 -0.10214
 C865 C 0.50127 -0.13543 -0.05062
 C866 C 0.49425 -0.10191 -0.02224
 C867 C 0.48549 -0.06630 -0.04477
 C868 C 0.48372 -0.06740 -0.09582
 C869 C 0.47992 -0.04351 -0.14063
 C870 C 0.48576 -0.08021 -0.17013
 H871 H 0.50982 -0.16154 -0.03247
 H872 H 0.49697 -0.10362 0.01694
 H873 H 0.50222 -0.02450 -0.14460
 H874 H 0.45315 -0.03005 -0.14512
 H875 H 0.51072 -0.08096 -0.19056
 H876 H 0.46209 -0.08876 -0.19107
 C877 C -0.00081 -0.15166 1.05265
 C878 C -0.02966 -0.17473 1.04993
 C879 C -0.05285 -0.16936 1.00967
 C880 C -0.04941 -0.13794 0.97800
 C881 C -0.02401 -0.11014 0.98758
 C882 C 0.00099 -0.11953 1.02480
 C883 C 0.01889 -0.09885 1.06618
 C884 C 0.01701 -0.13474 1.09576
 H885 H -0.07477 -0.18777 1.00440
 H886 H -0.06930 -0.13310 0.94986
 H887 H 0.00306 -0.07553 1.08319
 H888 H 0.04657 -0.09200 1.05930
 H889 H -0.00048 -0.13158 1.12765
 H890 H 0.04324 -0.14865 1.10343
 C891 C 0.44556 0.31844 0.50388
 C892 C 0.44683 0.32204 0.55458
 C893 C 0.46773 0.35049 0.57403
 C894 C 0.48145 0.37797 0.54395
 C895 C 0.47347 0.37915 0.49315
 C896 C 0.45754 0.34682 0.47401
 C897 C 0.42913 0.34088 0.43719
 C898 C 0.41562 0.31031 0.47030
 H899 H 0.47355 0.35149 0.61272
 H900 H 0.49613 0.40007 0.56164
 H901 H 0.44054 0.32887 0.40341
 H902 H 0.41029 0.36561 0.43276
 H903 H 0.41798 0.28122 0.45431
 H904 H 0.38961 0.31800 0.48623
 C905 C 0.57451 1.14015 0.50228
 C906 C 0.54299 1.15913 0.51434
 C907 C 0.51343 1.15077 0.48487
 C908 C 0.51319 1.11729 0.45665
 C909 C 0.54299 1.09227 0.45455
 C910 C 0.57461 1.10737 0.47385
 C911 C 0.60561 1.09103 0.50304
 C912 C 0.60520 1.12711 0.53291
 H913 H 0.48895 1.16723 0.48770
 H914 H 0.48790 1.10902 0.44356
 H915 H 0.62967 1.08710 0.48091
 H916 H 0.59949 1.06634 0.52610
 H917 H 0.62865 1.14437 0.52714
 H918 H 0.59838 1.12253 0.57156
 C919 C 0.03332 0.65395 1.02733
 C920 C 0.01993 0.65138 1.07427
 C921 C -0.00824 0.62738 1.08027
 C922 C -0.01646 0.60115 1.04408
 C923 C 0.00133 0.59969 0.99884
 C924 C 0.02351 0.62996 0.99010
 C925 C 0.05768 0.63538 0.96483
 C926 C 0.06778 0.66230 1.00591
 H927 H -0.02110 0.62556 1.11500
 H928 H -0.03402 0.57920 1.05448
 H929 H 0.05373 0.65003 0.92931
 H930 H 0.07547 0.60968 0.96397
 H931 H 0.06903 0.69245 0.99424
 H932 H 0.09079 0.65099 1.02742
 C933 C 0.46105 0.61570 -0.09851
 C934 C 0.48021 0.64874 -0.09409
 C935 C 0.49848 0.65352 -0.04870
 C936 C 0.49967 0.62462 -0.01250
 C937 C 0.48357 0.58969 -0.02097
 C938 C 0.46336 0.58722 -0.06425
 C939 C 0.46109 0.55682 -0.10258
 C940 C 0.45800 0.58820 -0.13988
 H941 H 0.51183 0.67937 -0.04027
 H942 H 0.51427 0.62912 0.02102
 H943 H 0.43681 0.54042 -0.09978
 H944 H 0.48589 0.53932 -0.10628
 H945 H 0.43166 0.58978 -0.15806
 H946 H 0.48075 0.58860 -0.16472
 C947 C 0.02750 1.11404 0.41169
 C948 C 0.01523 1.14874 0.43021
 C949 C 0.01910 1.15447 0.48087
 C950 C 0.02765 1.12317 0.51189
 C951 C 0.03249 1.08583 0.49266
 C952 C 0.03494 1.08340 0.44164
 C953 C 0.02259 1.05668 0.40292
 C954 C 0.01612 1.09056 0.36973
 H955 H 0.01181 1.18182 0.49684
 H956 H 0.02636 1.12762 0.55079
 H957 H -0.00277 1.04402 0.41192
 H958 H 0.04406 1.03696 0.39015
 H959 H -0.01199 1.09505 0.35907
 H960 H 0.03495 1.09128 0.33933
 C961 C 0.74239 0.68169 0.91220
 C962 C 0.77582 0.66287 0.91634
 C963 C 0.80439 0.68793 0.91291
 C964 C 0.79902 0.72604 0.89651
 C965 C 0.76576 0.73990 0.88066
 C966 C 0.73751 0.71872 0.89640
 C967 C 0.69964 0.71335 0.88292
 C968 C 0.70515 0.67246 0.89977
 H969 H 0.83106 0.67882 0.92219
 H970 H 0.82079 0.74450 0.89474
 H971 H 0.69280 0.71430 0.84366
 H972 H 0.68153 0.73044 0.90647
 H973 H 0.70339 0.65148 0.86950
 H974 H 0.68929 0.66630 0.93220
 C975 C 0.27414 0.18406 0.45660
 C976 C 0.30881 0.16836 0.45864
 C977 C 0.33474 0.19470 0.44513
 C978 C 0.32521 0.23084 0.42390
 C979 C 0.28964 0.24120 0.41285
 C980 C 0.26516 0.21830 0.43504
 C981 C 0.22721 0.20913 0.42972
 C982 C 0.23706 0.17111 0.45280
 H983 H 0.36248 0.18768 0.44919
 H984 H 0.34589 0.24888 0.41220
 H985 H 0.21755 0.20495 0.39205
 H986 H 0.21004 0.22766 0.45291
 H987 H 0.23429 0.14676 0.42717
 H988 H 0.22443 0.16793 0.48863
 C989 C 0.68262 0.31227 0.40288
 C990 C 0.70820 0.33844 0.41743
 C991 C 0.74360 0.32465 0.41624
 C992 C 0.75269 0.28775 0.40032
 C993 C 0.72718 0.26346 0.38128
 C994 C 0.69202 0.27575 0.38487
 C995 C 0.66539 0.25727 0.41516
 C996 C 0.65463 0.29631 0.43354
 H997 H 0.76517 0.34157 0.42793
 H998 H 0.78040 0.27955 0.39945
 H999 H 0.67754 0.23852 0.44383
 H1000 H 0.64444 0.24393 0.39311
 H1001 H 0.65957 0.30017 0.47320
 H1002 H 0.62786 0.30503 0.42032
 C1003 C 0.23532 0.84246 0.88726
 C1004 C 0.20299 0.86243 0.87912
 C1005 C 0.17831 0.84178 0.85112
 C1006 C 0.18753 0.80596 0.82975
 C1007 C 0.22120 0.78782 0.83690
 C1008 C 0.24297 0.80664 0.86965
 C1009 C 0.28042 0.80701 0.88592
 C1010 C 0.27204 0.84667 0.90650
 H1011 H 0.15254 0.85384 0.84218
 H1012 H 0.16863 0.79423 0.80506
 H1013 H 0.29878 0.80768 0.85501
 H1014 H 0.28661 0.78538 0.91447
 H1015 H 0.28665 0.86869 0.88719
 H1016 H 0.27364 0.84812 0.94681
 C1017 C 0.26011 0.84832 0.05914
 C1018 C 0.28673 0.87501 0.06312
 C1019 C 0.31714 0.86067 0.08967
 C1020 C 0.31731 0.82515 0.11579
 C1021 C 0.28813 0.80101 0.11389
 C1022 C 0.26173 0.81319 0.08069
 C1023 C 0.22618 0.80302 0.06217
 C1024 C 0.22430 0.84186 0.03755
 H1025 H 0.34043 0.87717 0.09249
 H1026 H 0.34000 0.81725 0.13820
 H1027 H 0.20628 0.80102 0.09100
 H1028 H 0.22744 0.77875 0.03613
 H1029 H 0.20303 0.86041 0.05320
 H1030 H 0.22421 0.84013 -0.00276
 C1031 C 0.78805 0.34136 0.57540
 C1032 C 0.79542 0.37719 0.59432
 C1033 C 0.80652 0.37838 0.64302
 C1034 C 0.80161 0.34695 0.67373
 C1035 C 0.78265 0.31565 0.65670
 C1036 C 0.78067 0.31181 0.60579
 C1037 C 0.75649 0.29476 0.56876
 C1038 C 0.76577 0.32679 0.53490
 H1039 H 0.81544 0.40476 0.65778
 H1040 H 0.80949 0.34903 0.71115
 H1041 H 0.72826 0.29699 0.57836
 H1042 H 0.76618 0.26620 0.55618
 H1043 H 0.74274 0.34552 0.52478
 H1044 H 0.78216 0.31650 0.50418
 C1045 C 0.24599 0.15603 0.62770
 C1046 C 0.22993 0.12245 0.63990
 C1047 C 0.20750 0.12526 0.68030
 C1048 C 0.20676 0.15807 0.71104
 C1049 C 0.22823 0.18900 0.70173
 C1050 C 0.24468 0.18774 0.65638
 C1051 C 0.27293 0.20600 0.62833
 C1052 C 0.27362 0.17073 0.59571
 H1053 H 0.19303 0.10088 0.69011
 H1054 H 0.19182 0.15805 0.74390
 H1055 H 0.29796 0.20848 0.64937
 H1056 H 0.26317 0.23234 0.60944
 H1057 H 0.29936 0.15488 0.59824
 H1058 H 0.26357 0.17663 0.55834
 C1059 C 0.69851 0.67217 0.06588
 C1060 C 0.68481 0.63704 0.07709
 C1061 C 0.67344 0.63205 0.12479
 C1062 C 0.68281 0.65770 0.16199
 C1063 C 0.70448 0.68828 0.15183
 C1064 C 0.70867 0.69684 0.10238
 C1065 C 0.73895 0.70974 0.07335
 C1066 C 0.72685 0.68363 0.03288
 H1067 H 0.66150 0.60594 0.13409
 H1068 H 0.67681 0.65086 0.19907
 H1069 H 0.76496 0.70021 0.08885
 H1070 H 0.73627 0.74044 0.06377
 H1071 H 0.74645 0.66052 0.02423
 H1072 H 0.71589 0.69979 0.00119
 C1073 C 0.23891 0.59061 0.18976
 C1074 C 0.20971 0.58396 0.15932
 C1075 C 0.19981 0.61337 0.12639
 C1076 C 0.21787 0.64803 0.12582
 C1077 C 0.24563 0.65519 0.15924
 C1078 C 0.25635 0.62486 0.18956
 C1079 C 0.29158 0.60505 0.19399
 C1080 C 0.27265 0.56784 0.19393
 H1081 H 0.17688 0.61066 0.10298
 H1082 H 0.20889 0.66982 0.10057
 H1083 H 0.30475 0.61129 0.22938
 H1084 H 0.30796 0.60902 0.16146
 H1085 H 0.27521 0.55225 0.22895
 H1086 H 0.27749 0.55029 0.16104
 C1087 C 0.70923 0.13212 0.61792
 C1088 C 0.67457 0.12418 0.63167
 C1089 C 0.65527 0.15273 0.65574
 C1090 C 0.67311 0.18085 0.67993
 C1091 C 0.70784 0.18985 0.66879
 C1092 C 0.72509 0.16576 0.63510
 C1093 C 0.73740 0.17676 0.58654
 C1094 C 0.72010 0.14169 0.56724
 H1095 H 0.62884 0.14733 0.66755
 H1096 H 0.66012 0.19288 0.71080
 H1097 H 0.76657 0.17504 0.58442
 H1098 H 0.72466 0.20385 0.57321
 H1099 H 0.73926 0.12006 0.55259
 H1100 H 0.69726 0.14835 0.54251
 C1101 C 0.83993 0.07730 0.36363
 C1102 C 0.82050 0.05019 0.38717
 C1103 C 0.78492 0.06033 0.39714
 C1104 C 0.76955 0.09593 0.38192
 C1105 C 0.78802 0.12049 0.35163
 C1106 C 0.82342 0.10926 0.34297
 C1107 C 0.84495 0.10460 0.29763
 C1108 C 0.86458 0.07182 0.32213
 H1109 H 0.76853 0.03994 0.41435
 H1110 H 0.74232 0.10261 0.39040
 H1111 H 0.86336 0.12712 0.28978
 H1112 H 0.82978 0.09482 0.26558
 H1113 H 0.89200 0.07836 0.33302
 H1114 H 0.86235 0.04488 0.30146
 C1115 C 0.31237 0.60053 0.86447
 C1116 C 0.33912 0.58554 0.83435
 C1117 C 0.35008 0.60901 0.79685
 C1118 C 0.33053 0.64179 0.78390
 C1119 C 0.30021 0.65424 0.80935
 C1120 C 0.29335 0.63429 0.85218
 C1121 C 0.25965 0.61902 0.86919
 C1122 C 0.28017 0.58242 0.88241
 H1123 H 0.37096 0.59918 0.77295
 H1124 H 0.33715 0.65416 0.74991
 H1125 H 0.24017 0.61532 0.83908
 H1126 H 0.24940 0.63482 0.90138
 H1127 H 0.27255 0.55755 0.85995
 H1128 H 0.28166 0.57713 0.92221
 C1129 C 0.25525 0.39701 0.71546
 C1130 C 0.28233 0.39882 0.68157
 C1131 C 0.29719 0.36437 0.66373
 C1132 C 0.28890 0.32953 0.68465
 C1133 C 0.26536 0.32839 0.72376
 C1134 C 0.24651 0.36212 0.73547
 C1135 C 0.20804 0.37006 0.72862
 C1136 C 0.21720 0.40750 0.70631
 H1137 H 0.31864 0.36465 0.63832
 H1138 H 0.30322 0.30405 0.67274
 H1139 H 0.19443 0.37339 0.76391
 H1140 H 0.19572 0.35020 0.70235
 H1141 H 0.20835 0.43258 0.72830
 H1142 H 0.21030 0.40953 0.66690
 C1143 C 0.77904 0.87234 0.16153
 C1144 C 0.77686 0.89780 0.20109
 C1145 C 0.75513 0.88574 0.23932
 C1146 C 0.74691 0.84708 0.24460
 C1147 C 0.75895 0.81921 0.21105
 C1148 C 0.77155 0.83391 0.16725
 C1149 C 0.80132 0.82180 0.13567
 C1150 C 0.80799 0.86309 0.12701
 H1151 H 0.74643 0.90520 0.26746
 H1152 H 0.73333 0.83889 0.27693
 H1153 H 0.79311 0.80602 0.10252
 H1154 H 0.82369 0.81017 0.15740
 H1155 H 0.80114 0.87236 0.08933
 H1156 H 0.83445 0.87114 0.14047
 C1157 C 0.70929 0.94077 0.87568
 C1158 C 0.68468 0.95592 0.84162
 C1159 C 0.67322 0.93158 0.80474
 C1160 C 0.69159 0.89771 0.79523
 C1161 C 0.71890 0.88327 0.82640
 C1162 C 0.72568 0.90472 0.86870
 C1163 C 0.75972 0.91804 0.88927
 C1164 C 0.74164 0.95704 0.89684
 H1165 H 0.65310 0.94115 0.77869
 H1166 H 0.68442 0.88353 0.76184
 H1167 H 0.78092 0.91797 0.86200
 H1168 H 0.76713 0.90348 0.92394
 H1169 H 0.75169 0.97986 0.87370
 H1170 H 0.73853 0.96471 0.93581
 C1171 C 0.18949 0.42597 0.41462
 C1172 C 0.20128 0.45597 0.38682
 C1173 C 0.23620 0.45132 0.37046
 C1174 C 0.25330 0.41482 0.36992
 C1175 C 0.23384 0.38205 0.37959
 C1176 C 0.20435 0.38946 0.40937
 C1177 C 0.17031 0.37203 0.42172
 C1178 C 0.15418 0.41215 0.42614
 H1179 H 0.24811 0.47411 0.35121
 H1180 H 0.27853 0.41209 0.35257
 H1181 H 0.15699 0.35726 0.39214
 H1182 H 0.17187 0.35654 0.45687
 H1183 H 0.14626 0.41954 0.46380
 H1184 H 0.13413 0.41933 0.39738
 C1185 C 0.11175 0.23497 0.77277
 C1186 C 0.10164 0.24865 0.81855
 C1187 C 0.12681 0.24904 0.85582
 C1188 C 0.16207 0.24365 0.84524
 C1189 C 0.17346 0.23574 0.79721
 C1190 C 0.14720 0.22884 0.76211
 C1191 C 0.14166 0.24351 0.71150
 C1192 C 0.10296 0.24996 0.72331
 H1193 H 0.11957 0.25747 0.89238
 H1194 H 0.18012 0.24848 0.87512
 H1195 H 0.14640 0.22088 0.68374
 H1196 H 0.15500 0.27054 0.70489
 H1197 H 0.08546 0.23089 0.70254
 H1198 H 0.09424 0.28053 0.72379
 C1199 C 0.61072 0.71830 0.26853
 C1200 C 0.60957 0.72352 0.31895
 C1201 C 0.63993 0.71586 0.34658
 C1202 C 0.67193 0.71032 0.32360
 C1203 C 0.67442 0.71203 0.27208
 C1204 C 0.64268 0.71323 0.24532
 C1205 C 0.63011 0.73721 0.20318
 C1206 C 0.59510 0.74236 0.22863
 H1207 H 0.63950 0.71806 0.38589
 H1208 H 0.69480 0.70863 0.34742
 H1209 H 0.62824 0.72047 0.16892
 H1210 H 0.64394 0.76435 0.20019
 H1211 H 0.57323 0.72822 0.20931
 H1212 H 0.58908 0.77219 0.24039
 C1213 C 0.61786 0.17323 0.27768
 C1214 C 0.60157 0.20638 0.25886
 C1215 C 0.61757 0.24087 0.27194
 C1216 C 0.65136 0.24085 0.29391
 C1217 C 0.67054 0.20639 0.30320
 C1218 C 0.65088 0.17314 0.29911
 C1219 C 0.65722 0.13169 0.28727
 C1220 C 0.62043 0.13206 0.26453
 H1221 H 0.60566 0.26808 0.26126
 H1222 H 0.66345 0.26793 0.29838
 H1223 H 0.65999 0.11375 0.32039
 H1224 H 0.67752 0.12619 0.25929
 H1225 H 0.60180 0.11491 0.28513
 H1226 H 0.62148 0.12619 0.22494
 C1227 C 0.12393 0.68681 0.72367
 C1228 C 0.09950 0.70325 0.75511
 C1229 C 0.11230 0.72031 0.79812
 C1230 C 0.14888 0.72496 0.80480
 C1231 C 0.17216 0.71626 0.76644
 C1232 C 0.15883 0.69373 0.72840
 C1233 C 0.16362 0.69229 0.67427
 C1234 C 0.12476 0.68499 0.66949
 H1235 H 0.09422 0.73123 0.82525
 H1236 H 0.15836 0.73703 0.83853
 H1237 H 0.18061 0.66745 0.66292
 H1238 H 0.17043 0.71995 0.65821
 H1239 H 0.11934 0.65612 0.65531
 H1240 H 0.10923 0.70877 0.65190
 C1241 C 0.88850 0.76293 0.78130
 C1242 C 0.90460 0.79850 0.78209
 C1243 C 0.88663 0.82863 0.80620
 C1244 C 0.85337 0.82372 0.82584
 C1245 C 0.83533 0.78956 0.81852
 C1246 C 0.85458 0.75860 0.79911
 C1247 C 0.86636 0.72244 0.82435
 C1248 C 0.90194 0.72618 0.80284
 H1249 H 0.89813 0.85622 0.81009
 H1250 H 0.84026 0.84843 0.84210
 H1251 H 0.85198 0.69761 0.81083
 H1252 H 0.86861 0.72464 0.86443
 H1253 H 0.90798 0.70431 0.77459
 H1254 H 0.92303 0.72984 0.83082
 C1255 C 0.39005 0.27455 0.26475
 C1256 C 0.41195 0.30202 0.28267
 C1257 C 0.39980 0.32571 0.32079
 C1258 C 0.36604 0.32094 0.34048
 C1259 C 0.34268 0.29501 0.31900
 C1260 C 0.35593 0.27355 0.27938
 C1261 C 0.34309 0.26579 0.22837
 C1262 C 0.38108 0.26561 0.21307
 H1263 H 0.41557 0.34882 0.33349
 H1264 H 0.35722 0.33985 0.36937
 H1265 H 0.32775 0.29012 0.21196
 H1266 H 0.33140 0.23754 0.22354
 H1267 H 0.38684 0.28910 0.18774
 H1268 H 0.39162 0.23696 0.20206
 C1269 C 0.40435 0.71919 0.21754
 C1270 C 0.40872 0.72768 0.26695
 C1271 C 0.38451 0.75268 0.28865
 C1272 C 0.35335 0.76271 0.26450
 C1273 C 0.34582 0.75018 0.21614
 C1274 C 0.37348 0.73012 0.19245
 C1275 C 0.37493 0.69387 0.16328
 C1276 C 0.40873 0.68254 0.19072
 H1277 H 0.38772 0.76085 0.32649
 H1278 H 0.33382 0.77761 0.28631
 H1279 H 0.37906 0.69919 0.12403
 H1280 H 0.35343 0.67441 0.17108
 H1281 H 0.43232 0.68182 0.16739
 H1282 H 0.40620 0.65728 0.21443
 C1283 C 0.88089 0.25430 0.74995
 C1284 C 0.88489 0.24024 0.79745
 C1285 C 0.85616 0.24316 0.82808
 C1286 C 0.82311 0.25286 0.80937
 C1287 C 0.81758 0.26183 0.75940
 C1288 C 0.84766 0.26468 0.73106
 C1289 C 0.85627 0.24839 0.68227
 C1290 C 0.89254 0.23719 0.70296
 H1291 H 0.85875 0.23517 0.86603
 H1292 H 0.80193 0.25149 0.83487
 H1293 H 0.85686 0.27077 0.65389
 H1294 H 0.84046 0.22342 0.67255
 H1295 H 0.91398 0.25321 0.68656
 H1296 H 0.89759 0.20586 0.70532
 C1297 C 0.64959 0.98424 0.56089
 C1298 C 0.63199 0.99414 0.60336
 C1299 C 0.59823 0.97913 0.60793
 C1300 C 0.58014 0.96532 0.56623
 C1301 C 0.59508 0.96748 0.51923
 C1302 C 0.63193 0.97153 0.51999
 C1303 C 0.65999 0.98738 0.48905
 C1304 C 0.68005 0.99847 0.53437
 H1305 H 0.58370 0.98333 0.64117
 H1306 H 0.55254 0.95965 0.56993
 H1307 H 0.65113 1.01283 0.46782
 H1308 H 0.67484 0.96476 0.46974
 H1309 H 0.68464 1.02929 0.53533
 H1310 H 0.70418 0.98025 0.54098
 C1311 C 0.07564 0.48835 1.12865
 C1312 C 0.11130 0.49175 1.11834
 C1313 C 0.12182 0.47670 1.07294
 C1314 C 0.09642 0.46613 1.03721
 C1315 C 0.05988 0.47476 1.04313
 C1316 C 0.05059 0.48176 1.09232
 C1317 C 0.02367 0.50588 1.11945
 C1318 C 0.05129 0.51193 1.15892
 H1319 H 0.14947 0.47464 1.06412
 H1320 H 0.10602 0.45528 1.00314
 H1321 H 0.00142 0.48905 1.13201
 H1322 H 0.01592 0.53361 1.10271
 H1323 H 0.04535 0.49780 1.19374
 H1324 H 0.05930 0.54197 1.16227
 C1325 C -0.09933 0.00145 1.14157
 C1326 C -0.13233 -0.01600 1.13754
 C1327 C -0.14648 -0.01629 1.08989
 C1328 C -0.12590 -0.00927 1.04945
 C1329 C -0.09055 0.00291 1.05266
 C1330 C -0.07929 0.01058 1.10084
 C1331 C -0.04547 0.00268 1.12797
 C1332 C -0.06712 -0.00732 1.17183
 H1333 H -0.17301 -0.02454 1.08204
 H1334 H -0.13755 -0.01878 1.01603
 H1335 H -0.03038 0.02887 1.13350
 H1336 H -0.02992 -0.02221 1.11414
 H1337 H -0.06414 0.01314 1.20243
 H1338 H -0.06442 -0.03791 1.18199
 C1339 C 0.35105 0.48087 0.55272
 C1340 C 0.36220 0.48911 0.60034
 C1341 C 0.39365 0.51028 0.60303
 C1342 C 0.41500 0.51548 0.56204
 C1343 C 0.40614 0.50010 0.51623
 C1344 C 0.37127 0.48710 0.51228
 C1345 C 0.35189 0.45717 0.48420
 C1346 C 0.33106 0.45010 0.52887
 H1347 H 0.40494 0.51960 0.63698
 H1348 H 0.44068 0.52709 0.56808
 H1349 H 0.36698 0.43113 0.47315
 H1350 H 0.33446 0.46947 0.45548
 H1351 H 0.33773 0.42129 0.54385
 H1352 H 0.30255 0.45773 0.52425
 C1353 C 0.37379 0.45984 -0.05464
 C1354 C 0.38925 0.46302 -0.09970
 C1355 C 0.42498 0.45146 -0.10250
 C1356 C 0.44565 0.44745 -0.05942
 C1357 C 0.43171 0.45968 -0.01395
 C1358 C 0.39454 0.46087 -0.01262
 C1359 C 0.36676 0.48543 0.01110
 C1360 C 0.34352 0.48114 -0.03309
 H1361 H 0.43788 0.45059 -0.13729
 H1362 H 0.47375 0.44277 -0.06348
 H1363 H 0.37412 0.51548 0.01505
 H1364 H 0.35564 0.47147 0.04272
 H1365 H 0.33524 0.50864 -0.04982
 H1366 H 0.32156 0.46218 -0.02702
 C1367 C -0.05211 0.94631 0.40461
 C1368 C -0.08705 0.95132 0.41902
 C1369 C -0.09287 0.94435 0.46859
 C1370 C -0.06462 0.94453 0.50260
 C1371 C -0.03059 0.95406 0.48783
 C1372 C -0.02430 0.94592 0.43822
 C1373 C 0.00038 0.95758 0.39973
 C1374 C -0.03088 0.96038 0.36421
 H1375 H -0.11940 0.94299 0.48176
 H1376 H -0.07079 0.94265 0.54055
 H1377 H 0.01940 0.93395 0.39049
 H1378 H 0.01290 0.98445 0.40679
 H1379 H -0.02885 0.93966 0.33367
 H1380 H -0.03854 0.99017 0.35393
 C1381 C 0.06301 0.55769 0.38403
 C1382 C 0.09780 0.54999 0.39971
 C1383 C 0.10500 0.56039 0.44844
 C1384 C 0.07718 0.56745 0.48121
 C1385 C 0.04205 0.56027 0.46730
 C1386 C 0.03573 0.56398 0.41660
 C1387 C 0.00949 0.55155 0.37894
 C1388 C 0.03994 0.54303 0.34477
 H1389 H 0.13182 0.56012 0.46228
 H1390 H 0.08388 0.57325 0.51848
 H1391 H -0.00777 0.57590 0.36630
 H1392 H -0.00516 0.52636 0.38779
 H1393 H 0.03922 0.56147 0.31202
 H1394 H 0.04487 0.51208 0.33791
 C1395 C 0.56956 0.07426 -0.13057
 C1396 C 0.60410 0.06475 -0.11564
 C1397 C 0.61051 0.06581 -0.06539
 C1398 C 0.58262 0.06338 -0.03271
 C1399 C 0.54751 0.06069 -0.04992
 C1400 C 0.54184 0.07286 -0.09850
 C1401 C 0.51657 0.06480 -0.13940
 C1402 C 0.54751 0.06489 -0.17378
 H1403 H 0.63719 0.06478 -0.05211
 H1404 H 0.58943 0.06093 0.00507
 H1405 H 0.49744 0.08906 -0.14572
 H1406 H 0.50454 0.03692 -0.13828
 H1407 H 0.54558 0.08855 -0.20048
 H1408 H 0.55449 0.03630 -0.18912
 C1409 C 0.62056 0.50561 -0.00223
 C1410 C 0.62895 0.54037 -0.02314
 C1411 C 0.60042 0.56183 -0.04437
 C1412 C 0.56510 0.55188 -0.03734
 C1413 C 0.55709 0.52276 -0.00435
 C1414 C 0.58579 0.49783 0.00849
 C1415 C 0.59662 0.47814 0.05480
 C1416 C 0.63440 0.48644 0.04294
 H1417 H 0.60524 0.58828 -0.06277
 H1418 H 0.54464 0.57025 -0.05282
 H1419 H 0.59123 0.44727 0.05378
 H1420 H 0.58765 0.49352 0.08794
 H1421 H 0.65067 0.46034 0.03469
 H1422 H 0.64670 0.50636 0.06912
 C1423 C 0.15386 1.02940 0.50351
 C1424 C 0.17374 1.02093 0.54568
 C1425 C 0.15596 1.00204 0.58262
 C1426 C 0.11912 0.99791 0.58038
 C1427 C 0.09794 1.01319 0.54149
 C1428 C 0.11715 1.02618 0.50155
 C1429 C 0.11341 1.06073 0.46989
 C1430 C 0.15313 1.06358 0.47197
 H1431 H 0.16999 0.99391 0.61582
 H1432 H 0.10726 0.98533 0.61161
 H1433 H 0.10040 1.08558 0.48792
 H1434 H 0.10339 1.05390 0.43282
 H1435 H 0.16205 1.08941 0.49140
 H1436 H 0.16580 1.05770 0.43647
 C1437 C 0.10239 -0.01777 0.97872
 C1438 C 0.11620 -0.05312 0.96257
 C1439 C 0.09294 -0.08320 0.96252
 C1440 C 0.05684 -0.07634 0.96870
 C1441 C 0.04174 -0.04005 0.97905
 C1442 C 0.06631 -0.01128 0.98664
 C1443 C 0.06790 0.02863 0.96808
 C1444 C 0.10696 0.02116 0.95956
 H1445 H 0.10197 -0.11209 0.95447
 H1446 H 0.04081 -0.09977 0.96218
 H1447 H 0.06290 0.04999 0.99727
 H1448 H 0.05280 0.03365 0.93364
 H1449 H 0.12405 0.03820 0.98376
 H1450 H 0.11397 0.02104 0.92046
 C1451 C 0.59360 0.39957 0.49305
 C1452 C 0.61843 0.42818 0.49059
 C1453 C 0.60436 0.46522 0.50230
 C1454 C 0.56722 0.47270 0.50625
 C1455 C 0.54265 0.44329 0.50042
 C1456 C 0.55824 0.40626 0.50178
 C1457 C 0.55035 0.36622 0.48704
 C1458 C 0.58889 0.35961 0.47671
 H1459 H 0.62115 0.48939 0.50275
 H1460 H 0.55779 0.50214 0.50791
 H1461 H 0.53390 0.36370 0.45370
 H1462 H 0.54251 0.34845 0.51803
 H1463 H 0.59173 0.35528 0.43700
 H1464 H 0.60247 0.33828 0.50093
 C1465 C -0.14600 0.51328 0.53390
 C1466 C -0.15923 0.48471 0.50381
 C1467 C -0.13539 0.46795 0.47052
 C1468 C -0.09901 0.47544 0.47316
 C1469 C -0.08496 0.49883 0.51017
 C1470 C -0.11021 0.52022 0.53685
 C1471 C -0.11250 0.53054 0.58952
 C1472 C -0.15147 0.52259 0.58626
 H1473 H -0.14413 0.44598 0.44587
 H1474 H -0.08209 0.46058 0.44823
 H1475 H -0.10733 0.56105 0.59624
 H1476 H -0.09741 0.51022 0.61330
 H1477 H -0.16866 0.54856 0.59120
 H1478 H -0.15863 0.49762 0.60814
 C1479 C 0.36683 -0.04621 -0.05074
 C1480 C 0.34190 -0.02147 -0.03037
 C1481 C 0.35033 0.01749 -0.03108
 C1482 C 0.38562 0.02846 -0.04014
 C1483 C 0.41368 0.00057 -0.04449
 C1484 C 0.40161 -0.03652 -0.05596
 C1485 C 0.41179 -0.07833 -0.04953
 C1486 C 0.37367 -0.08777 -0.04736
 H1487 H 0.33103 0.03895 -0.01956
 H1488 H 0.39169 0.05802 -0.03436
 H1489 H 0.42510 -0.08468 -0.01410
 H1490 H 0.42334 -0.09203 -0.08219
 H1491 H 0.36766 -0.10171 -0.01274
 H1492 H 0.36407 -0.10282 -0.08037
 C1493 C 0.40372 1.02418 0.46789
 C1494 C 0.39536 1.05888 0.49007
 C1495 C 0.42471 1.07806 0.50955
 C1496 C 0.46001 1.06334 0.50326
 C1497 C 0.46755 1.03092 0.47355
 C1498 C 0.43751 1.01110 0.45984
 C1499 C 0.42517 0.97759 0.43161
 C1500 C 0.38741 0.99312 0.43981
 H1501 H 0.42046 1.10447 0.52941
 H1502 H 0.48127 1.07814 0.52052
 H1503 H 0.43155 0.95026 0.45057
 H1504 H 0.43264 0.97817 0.39314
 H1505 H 0.37174 0.97460 0.46308
 H1506 H 0.37396 1.00370 0.40601
 C1507 C -0.13001 0.51800 0.95746
 C1508 C -0.14326 0.55525 0.96609
 C1509 C -0.11852 0.58158 0.98175
 C1510 C -0.08223 0.57247 0.98223
 C1511 C -0.06808 0.53590 0.96984
 C1512 C -0.09363 0.50867 0.95911
 C1513 C -0.09702 0.48249 0.91633
 C1514 C -0.13626 0.49248 0.91508
 H1515 H -0.12701 0.61063 0.99011
 H1516 H -0.06604 0.59612 0.98817
 H1517 H -0.09078 0.45230 0.92614
 H1518 H -0.08342 0.49272 0.88366
 H1519 H -0.15260 0.46814 0.92467
 H1520 H -0.14509 0.50836 0.88189
 C1521 C 0.01540 0.65063 0.60029
 C1522 C 0.01007 0.64872 0.65050
 C1523 C 0.00740 0.61287 0.67175
 C1524 C 0.00833 0.58009 0.64329
 C1525 C 0.01137 0.58182 0.59215
 C1526 C 0.01501 0.61785 0.57148
 C1527 C -0.00563 0.63736 0.53170
 C1528 C -0.00543 0.67305 0.56298
 H1529 H 0.00576 0.61014 0.71089
 H1530 H 0.00659 0.55334 0.66201
 H1531 H -0.03236 0.62612 0.52649
 H1532 H 0.00987 0.63966 0.49802
 H1533 H -0.03197 0.68234 0.57585
 H1534 H 0.01001 0.69605 0.54715
 C1535 C 0.49804 0.12737 0.13731
 C1536 C 0.52305 0.15368 0.12559
 C1537 C 0.54004 0.14898 0.08066
 C1538 C 0.53022 0.11999 0.04756
 C1539 C 0.50369 0.09441 0.05905
 C1540 C 0.48870 0.09889 0.10521
 C1541 C 0.45104 0.10193 0.11982
 C1542 C 0.46142 0.13306 0.15523
 H1543 H 0.56040 0.16808 0.07078
 H1544 H 0.54377 0.11762 0.01358
 H1545 H 0.44270 0.07571 0.13818
 H1546 H 0.43326 0.11236 0.08983
 H1547 H 0.45922 0.12468 0.19395
 H1548 H 0.44937 0.16146 0.14585
 C1549 C -0.04444 0.13174 0.94474
 C1550 C -0.05638 0.13833 0.89668
 C1551 C -0.07429 0.10870 0.87380
 C1552 C -0.07598 0.07299 0.89545
 C1553 C -0.05944 0.06477 0.94102
 C1554 C -0.04609 0.09601 0.96635
 C1555 C -0.01281 0.10089 0.99460
 C1556 C -0.01069 0.13969 0.97076
 H1557 H -0.08519 0.11211 0.83739
 H1558 H -0.08822 0.05112 0.87402
 H1559 H 0.00854 0.08065 0.98323
 H1560 H -0.01727 0.10254 1.03439
 H1561 H 0.01217 0.14082 0.94628
 H1562 H -0.01362 0.16376 0.99692
 C1563 C 0.45010 0.61608 0.42844
 C1564 C 0.44987 0.62361 0.37837
 C1565 C 0.44782 0.59232 0.34660
 C1566 C 0.45083 0.55508 0.36455
 C1567 C 0.45555 0.54800 0.41504
 C1568 C 0.45236 0.57945 0.44607
 C1569 C 0.47045 0.59074 0.49200
 C1570 C 0.46813 0.63146 0.47278
 H1571 H 0.44629 0.59654 0.30761
 H1572 H 0.45034 0.53208 0.33830
 H1573 H 0.49786 0.57870 0.49495
 H1574 H 0.45392 0.58667 0.52432
 H1575 H 0.49462 0.64232 0.46640
 H1576 H 0.45039 0.65064 0.49430
 C1577 C 0.54727 0.84686 0.44682
 C1578 C 0.55106 0.83361 0.39904
 C1579 C 0.55813 0.85995 0.36277
 C1580 C 0.55734 0.89883 0.37306
 C1581 C 0.55024 0.91264 0.42047
 C1582 C 0.54702 0.88567 0.45737
 C1583 C 0.51921 0.88220 0.49455
 C1584 C 0.51952 0.83982 0.48302
 H1585 H 0.56282 0.85052 0.32579
 H1586 H 0.56199 0.91785 0.34324
 H1587 H 0.49409 0.89746 0.48399
 H1588 H 0.52917 0.88860 0.53181
 H1589 H 0.49450 0.83067 0.46600
 H1590 H 0.52967 0.82181 0.51367
 C1591 C 0.03607 0.36321 0.93625
 C1592 C 0.03038 0.35522 0.88694
 C1593 C 0.02742 0.38581 0.85443
 C1594 C 0.02661 0.42341 0.87170
 C1595 C 0.02983 0.43159 0.92206
 C1596 C 0.03510 0.40049 0.95354
 C1597 C 0.01657 0.38989 0.99861
 C1598 C 0.01770 0.34911 0.97975
 H1599 H 0.02490 0.38059 0.81570
 H1600 H 0.02327 0.44595 0.84523
 H1601 H -0.01060 0.40256 1.00042
 H1602 H 0.03312 0.39378 1.03182
 H1603 H -0.00874 0.33834 0.97069
 H1604 H 0.03496 0.32957 1.00208
 C1605 C 0.48979 0.37272 0.11735
 C1606 C 0.48146 0.37489 0.16665
 C1607 C 0.47783 0.41125 0.18788
 C1608 C 0.47739 0.44380 0.15881
 C1609 C 0.47932 0.44063 0.10752
 C1610 C 0.48880 0.40479 0.08843
 C1611 C 0.47516 0.38336 0.04548
 C1612 C 0.47609 0.34816 0.07752
 H1613 H 0.47320 0.41462 0.22635
 H1614 H 0.47277 0.47098 0.17662
 H1615 H 0.49449 0.38150 0.01564
 H1616 H 0.44810 0.39261 0.03406
 H1617 H 0.49586 0.32597 0.06601
 H1618 H 0.44955 0.33765 0.08523
 C1619 C -0.02521 0.87511 0.62253
 C1620 C -0.02451 0.87727 0.67347
 C1621 C -0.02068 0.91328 0.69473
 C1622 C -0.01353 0.94487 0.66569
 C1623 C -0.01131 0.94173 0.61430
 C1624 C -0.01896 0.90638 0.59386
 C1625 C -0.00073 0.88241 0.55625
 C1626 C -0.00774 0.84810 0.58753
 H1627 H -0.02113 0.91657 0.73391
 H1628 H -0.00898 0.97154 0.68401
 H1629 H 0.02770 0.88823 0.55365
 H1630 H -0.01535 0.88183 0.52101
 H1631 H 0.01704 0.83420 0.60151
 H1632 H -0.02665 0.82854 0.57038
 C1633 C 0.23255 0.37630 0.16566
 C1634 C 0.24189 0.41358 0.17767
 C1635 C 0.23609 0.42528 0.22569
 C1636 C 0.22782 0.39860 0.26095
 C1637 C 0.23022 0.35916 0.25149
 C1638 C 0.22845 0.34931 0.20175
 C1639 C 0.24398 0.31803 0.17077
 C1640 C 0.24851 0.34770 0.13151
 H1641 H 0.23841 0.45485 0.23610
 H1642 H 0.22044 0.40914 0.29545
 H1643 H 0.22434 0.29663 0.16063
 H1644 H 0.26966 0.30593 0.18392
 H1645 H 0.23153 0.34326 0.09884
 H1646 H 0.27649 0.35310 0.12381
 C1647 C 0.75952 0.92317 0.67806
 C1648 C 0.76297 0.90923 0.63042
 C1649 C 0.75032 0.87215 0.62251
 C1650 C 0.73981 0.84915 0.66161
 C1651 C 0.74150 0.86213 0.71042
 C1652 C 0.74878 0.90103 0.71606
 C1653 C 0.76656 0.92572 0.75292
 C1654 C 0.77831 0.94987 0.71102
 H1655 H 0.75133 0.85929 0.58673
 H1656 H 0.73364 0.81992 0.65369
 H1657 H 0.78917 0.91136 0.77227
 H1658 H 0.74796 0.94198 0.77649
 H1659 H 0.80741 0.94814 0.70910
 H1660 H 0.76601 0.97908 0.71077
 C1661 C 0.27320 0.63981 0.60232
 C1662 C 0.25959 0.60471 0.61541
 C1663 C 0.26321 0.59514 0.66494
 C1664 C 0.27379 0.62228 0.69995
 C1665 C 0.28019 0.66079 0.68731
 C1666 C 0.28261 0.66717 0.63685
 C1667 C 0.27025 0.69899 0.60391
 C1668 C 0.26023 0.66899 0.56659
 H1669 H 0.25534 0.56757 0.67735
 H1670 H 0.27195 0.61396 0.73754
 H1671 H 0.29231 0.71643 0.59211
 H1672 H 0.24692 0.71562 0.61706
 H1673 H 0.27662 0.66913 0.53354
 H1674 H 0.23138 0.66803 0.55963
 C1675 C 0.74714 0.08079 0.19489
 C1676 C 0.74511 0.09512 0.14749
 C1677 C 0.76506 0.12817 0.14024
 C1678 C 0.78010 0.14823 0.17993
 C1679 C 0.77604 0.13611 0.22852
 C1680 C 0.76364 0.09897 0.23277
 C1681 C 0.74864 0.07266 0.26910
 C1682 C 0.73118 0.05213 0.22667
 H1683 H 0.76580 0.14162 0.10502
 H1684 H 0.79062 0.17581 0.17274
 H1685 H 0.72897 0.08604 0.29370
 H1686 H 0.76949 0.05497 0.28751
 H1687 H 0.70211 0.05484 0.22890
 H1688 H 0.74227 0.02282 0.22043
 C1689 C 0.71694 0.13102 0.81368
 C1690 C 0.71765 0.13883 0.86329
 C1691 C 0.70532 0.17594 0.87683
 C1692 C 0.69882 0.20513 0.84127
 C1693 C 0.70473 0.19845 0.79093
 C1694 C 0.71145 0.15923 0.77892
 C1695 C 0.73520 0.13618 0.74505
 C1696 C 0.73878 0.10526 0.78249
 H1697 H 0.70365 0.18341 0.91496
 H1698 H 0.69320 0.23391 0.85395
 H1699 H 0.76098 0.14858 0.73797
 H1700 H 0.72224 0.12490 0.71248
 H1701 H 0.76674 0.10044 0.79266
 H1702 H 0.72497 0.07904 0.77218
 C1703 C 0.25672 0.65269 0.35228
 C1704 C 0.23646 0.62152 0.34155
 C1705 C 0.21169 0.62545 0.30331
 C1706 C 0.21308 0.65631 0.27060
 C1707 C 0.23901 0.68406 0.27613
 C1708 C 0.25832 0.68288 0.32048
 C1709 C 0.29650 0.68772 0.33356
 C1710 C 0.29405 0.65480 0.36867
 H1711 H 0.19314 0.60348 0.29668
 H1712 H 0.19663 0.65543 0.23833
 H1713 H 0.30095 0.71533 0.35215
 H1714 H 0.31473 0.68074 0.30340
 H1715 H 0.29644 0.66351 0.40744
 H1716 H 0.31049 0.62933 0.35816
 C1717 C 0.81438 0.83476 0.34887
 C1718 C 0.78595 0.84306 0.37913
 C1719 C 0.76462 0.81264 0.38955
 C1720 C 0.76673 0.77910 0.36145
 C1721 C 0.78785 0.77653 0.31894
 C1722 C 0.81510 0.80286 0.31844
 C1723 C 0.83552 0.82376 0.28154
 C1724 C 0.83378 0.85823 0.31489
 H1725 H 0.74373 0.81627 0.41564
 H1726 H 0.74724 0.75839 0.36889
 H1727 H 0.82176 0.82848 0.24632
 H1728 H 0.86311 0.81267 0.27887
 H1729 H 0.81689 0.88152 0.30052
 H1730 H 0.85978 0.86629 0.32989
 C1731 C 0.26816 0.34755 0.93151
 C1732 C 0.26759 0.38388 0.91076
 C1733 C 0.27988 0.38627 0.86323
 C1734 C 0.28625 0.35296 0.83552
 C1735 C 0.27850 0.31636 0.85264
 C1736 C 0.27223 0.31476 0.90312
 C1737 C 0.24676 0.29439 0.93394
 C1738 C 0.24321 0.33013 0.96507
 H1739 H 0.28238 0.41382 0.84639
 H1740 H 0.29372 0.35696 0.79911
 H1741 H 0.25947 0.26980 0.95358
 H1742 H 0.22153 0.28855 0.91512
 H1743 H 0.25467 0.32644 1.00227
 H1744 H 0.21651 0.34416 0.96332
 C1745 C 0.76364 0.41045 0.76218
 C1746 C 0.79898 0.40987 0.77732
 C1747 C 0.81103 0.37743 0.80364
 C1748 C 0.79121 0.34410 0.80366
 C1749 C 0.76071 0.34134 0.77377
 C1750 C 0.74539 0.37688 0.75884
 C1751 C 0.72509 0.39113 0.71487
 C1752 C 0.74485 0.42784 0.71934
 H1753 H 0.83725 0.37633 0.81967
 H1754 H 0.80227 0.31976 0.82245
 H1755 H 0.69652 0.39517 0.72204
 H1756 H 0.73141 0.37560 0.68074
 H1757 H 0.72768 0.45272 0.72984
 H1758 H 0.76234 0.43304 0.68839
 C1759 C 0.26190 0.89111 0.24450
 C1760 C 0.29691 0.90247 0.24393
 C1761 C 0.32323 0.87360 0.24672
 C1762 C 0.31546 0.83668 0.23398
 C1763 C 0.28073 0.82458 0.22933
 C1764 C 0.25398 0.85266 0.23801
 C1765 C 0.22215 0.86332 0.20753
 C1766 C 0.23087 0.90475 0.21469
 H1767 H 0.35073 0.88086 0.24725
 H1768 H 0.33746 0.82013 0.22136
 H1769 H 0.19737 0.85567 0.22527
 H1770 H 0.22446 0.85403 0.16899
 H1771 H 0.21120 0.92100 0.23678
 H1772 H 0.23838 0.91890 0.18050
 C1773 C 0.20856 0.86905 0.72428
 C1774 C 0.17180 0.86980 0.72753
 C1775 C 0.15586 0.83506 0.71561
 C1776 C 0.17627 0.80046 0.71169
 C1777 C 0.21304 0.79924 0.72149
 C1778 C 0.22853 0.83515 0.72206
 C1779 C 0.25845 0.85254 0.74938
 C1780 C 0.23631 0.88935 0.75172
 H1781 H 0.12753 0.83377 0.71300
 H1782 H 0.16235 0.77453 0.70706
 H1783 H 0.28212 0.85480 0.72659
 H1784 H 0.26366 0.84074 0.78608
 H1785 H 0.24733 0.91265 0.73022
 H1786 H 0.22827 0.89732 0.78920
 C1787 C 0.68646 0.31558 0.20872
 C1788 C 0.68749 0.34744 0.23935
 C1789 C 0.71426 0.34659 0.27529
 C1790 C 0.73410 0.31261 0.28494
 C1791 C 0.72638 0.27800 0.26092
 C1792 C 0.70598 0.28244 0.21810
 C1793 C 0.68310 0.25956 0.18535
 C1794 C 0.66069 0.29629 0.17670
 H1795 H 0.71791 0.37111 0.29860
 H1796 H 0.75378 0.31325 0.31346
 H1797 H 0.66914 0.23677 0.20361
 H1798 H 0.69735 0.24977 0.15236
 H1799 H 0.63416 0.29578 0.19287
 H1800 H 0.66128 0.30655 0.13858
 C1801 C 0.73550 0.57588 0.22147
 C1802 C 0.70648 0.56846 0.25018
 C1803 C 0.70002 0.59409 0.28885
 C1804 C 0.71650 0.62944 0.29087
 C1805 C 0.73822 0.64105 0.25283
 C1806 C 0.75093 0.61119 0.22257
 C1807 C 0.76165 0.60756 0.17060
 C1808 C 0.74368 0.56946 0.16922
 H1809 H 0.67909 0.58902 0.31395
 H1810 H 0.70937 0.64868 0.31976
 H1811 H 0.79069 0.60437 0.16728
 H1812 H 0.74921 0.62892 0.14578
 H1813 H 0.76240 0.54480 0.16391
 H1814 H 0.71972 0.56941 0.14559
 C1815 C 0.23776 0.09909 0.80582
 C1816 C 0.20161 0.09824 0.81535
 C1817 C 0.18814 0.12888 0.84364
 C1818 C 0.20727 0.16240 0.84955
 C1819 C 0.23813 0.16776 0.82282
 C1820 C 0.25517 0.13333 0.80772
 C1821 C 0.27992 0.12070 0.76863
 C1822 C 0.26094 0.08316 0.76698
 H1823 H 0.16140 0.12872 0.85653
 H1824 H 0.19574 0.18517 0.87061
 H1825 H 0.30746 0.11735 0.78254
 H1826 H 0.27693 0.13697 0.73436
 H1827 H 0.27769 0.05868 0.78038
 H1828 H 0.24682 0.07756 0.73233
 C1829 C 0.28282 0.15256 0.27157
 C1830 C 0.31555 0.14012 0.29212
 C1831 C 0.33677 0.16935 0.30928
 C1832 C 0.32331 0.20627 0.31544
 C1833 C 0.28944 0.21858 0.29909
 C1834 C 0.27037 0.19067 0.27427
 C1835 C 0.23313 0.17923 0.27788
 C1836 C 0.24674 0.13789 0.27561
 H1837 H 0.36382 0.16453 0.32062
 H1838 H 0.34012 0.22435 0.33560
 H1839 H 0.21716 0.18801 0.24533
 H1840 H 0.22110 0.18691 0.31312
 H1841 H 0.23813 0.12299 0.24199
 H1842 H 0.24320 0.12207 0.31001
 C1843 C 0.81877 0.67548 0.71763
 C1844 C 0.81084 0.64382 0.74542
 C1845 C 0.78297 0.64939 0.77799
 C1846 C 0.76758 0.68615 0.78573
 C1847 C 0.78035 0.71899 0.76292
 C1848 C 0.80378 0.71106 0.72521
 C1849 C 0.82718 0.72910 0.68966
 C1850 C 0.84498 0.68935 0.68301
 H1851 H 0.77480 0.62602 0.80017
 H1852 H 0.74650 0.68856 0.81098
 H1853 H 0.84484 0.75022 0.70562
 H1854 H 0.81229 0.73927 0.65681
 H1855 H 0.87226 0.68718 0.69812
 H1856 H 0.84138 0.67731 0.64592
 C1857 C 0.88757 0.75570 0.21712
 C1858 C 0.89489 0.75875 0.16728
 C1859 C 0.86777 0.75097 0.13359
 C1860 C 0.83446 0.74193 0.14958
 C1861 C 0.82637 0.74455 0.19941
 C1862 C 0.85382 0.74920 0.23256
 C1863 C 0.86619 0.72272 0.27195
 C1864 C 0.90295 0.72891 0.25503
 H1865 H 0.87236 0.75080 0.09485
 H1866 H 0.81450 0.73588 0.12247
 H1867 H 0.85793 0.69301 0.26609
 H1868 H 0.86106 0.73460 0.30876
 H1869 H 0.91544 0.70261 0.23925
 H1870 H 0.91927 0.74379 0.28255
 C1871 C 0.38381 0.29877 0.72936
 C1872 C 0.39838 0.26681 0.70622
 C1873 C 0.38460 0.23176 0.71894
 C1874 C 0.35463 0.23036 0.74752
 C1875 C 0.33547 0.26408 0.76213
 C1876 C 0.35389 0.29786 0.75652
 C1877 C 0.35483 0.34029 0.76405
 C1878 C 0.38793 0.34029 0.73330
 H1879 H 0.39519 0.20527 0.70392
 H1880 H 0.34537 0.20218 0.75402
 H1881 H 0.35994 0.34801 0.80272
 H1882 H 0.33354 0.35722 0.74601
 H1883 H 0.41201 0.34753 0.75426
 H1884 H 0.38376 0.35532 0.69810
 C1885 C 0.39054 0.73444 0.81481
 C1886 C 0.41162 0.71562 0.78101
 C1887 C 0.39715 0.70950 0.73419
 C1888 C 0.36052 0.71647 0.72541
 C1889 C 0.33815 0.72773 0.76407
 C1890 C 0.35494 0.73981 0.80728
 C1891 C 0.34872 0.73408 0.86069
 C1892 C 0.38800 0.72907 0.86822
 H1893 H 0.41339 0.69721 0.70579
 H1894 H 0.34933 0.70893 0.69037
 H1895 H 0.33487 0.70765 0.86891
 H1896 H 0.33835 0.76007 0.87904
 H1897 H 0.39596 0.69999 0.88088
 H1898 H 0.39974 0.75274 0.88911
 C1899 C 0.89707 0.20285 0.28878
 C1900 C 0.91211 0.19284 0.33459
 C1901 C 0.88882 0.18052 0.36991
 C1902 C 0.85259 0.18209 0.36140
 C1903 C 0.83771 0.19161 0.31516
 C1904 C 0.86121 0.20065 0.27880
 C1905 C 0.86076 0.23272 0.24365
 C1906 C 0.89983 0.23590 0.25496
 H1907 H 0.89801 0.17313 0.40627
 H1908 H 0.83635 0.17510 0.39175
 H1909 H 0.84455 0.25781 0.25603
 H1910 H 0.85516 0.22307 0.20587
 H1911 H 0.90498 0.26328 0.27358
 H1912 H 0.91671 0.22892 0.22332
 C1913 C 0.11836 0.32842 0.30433
 C1914 C 0.10256 0.30799 0.34069
 C1915 C 0.12365 0.28372 0.37005
 C1916 C 0.16015 0.28389 0.36709
 C1917 C 0.17671 0.30817 0.33427
 C1918 C 0.15482 0.32845 0.30056
 C1919 C 0.15249 0.36989 0.28702
 C1920 C 0.11291 0.36912 0.29121
 H1921 H 0.11189 0.26600 0.39702
 H1922 H 0.17520 0.26613 0.39246
 H1923 H 0.16020 0.37480 0.24887
 H1924 H 0.16466 0.38867 0.31457
 H1925 H 0.09870 0.37286 0.25581
 H1926 H 0.10248 0.38696 0.32158
 C1927 C 0.61709 0.83775 0.82656
 C1928 C 0.59535 0.81975 0.79348
 C1929 C 0.61113 0.80302 0.75184
 C1930 C 0.64834 0.80207 0.74682
 C1931 C 0.67018 0.81596 0.78454
 C1932 C 0.65277 0.83370 0.82393
 C1933 C 0.65684 0.83230 0.87841
 C1934 C 0.61734 0.83752 0.88087
 H1935 H 0.59505 0.78918 0.72470
 H1936 H 0.65993 0.78820 0.71540
 H1937 H 0.67069 0.85694 0.89389
 H1938 H 0.66599 0.80392 0.89238
 H1939 H 0.60863 0.86555 0.89631
 H1940 H 0.60440 0.81247 0.89618
 C1941 C 0.59815 0.24245 0.69944
 C1942 C 0.59329 0.24101 0.64856
 C1943 C 0.61943 0.25541 0.61934
 C1944 C 0.65089 0.26712 0.63987
 C1945 C 0.65769 0.26406 0.69049
 C1946 C 0.62998 0.25410 0.72012
 C1947 C 0.61203 0.27862 0.75703
 C1948 C 0.57760 0.26646 0.73495
 H1949 H 0.61610 0.25651 0.58018
 H1950 H 0.67061 0.27613 0.61501
 H1951 H 0.61679 0.30940 0.75209
 H1952 H 0.61692 0.26775 0.79452
 H1953 H 0.56226 0.29037 0.71733
 H1954 H 0.56230 0.24890 0.75991
 C1955 C 0.12708 0.71172 0.21121
 C1956 C 0.11214 0.71490 0.16471
 C1957 C 0.13372 0.72103 0.12506
 C1958 C 0.16932 0.72672 0.13257
 C1959 C 0.18437 0.72491 0.17981
 C1960 C 0.16250 0.71721 0.21857
 C1961 C 0.15654 0.73821 0.26520
 C1962 C 0.11760 0.73207 0.25726
 H1963 H 0.12279 0.72260 0.08844
 H1964 H 0.18468 0.73292 0.10106
 H1965 H 0.16333 0.76866 0.26308
 H1966 H 0.16790 0.72253 0.29712
 H1967 H 0.10212 0.75913 0.25128
 H1968 H 0.10659 0.71266 0.28444
   
