data_POSCAR
  _audit_creation_date              2014-09-24
  _audit_creation_method            'ToBaCCo'
  _symmetry_space_group_name_H-M    'P1'
  _symmetry_Int_Tables_number       1
  _symmetry_cell_setting            triclinic
  loop_
  _symmetry_equiv_pos_as_xyz
 x,y,z
_cell_length_a 65.2120
_cell_length_b 65.2244
_cell_length_c 65.1606
_cell_angle_alpha 89.358300
_cell_angle_beta 89.403000
_cell_angle_gamma 89.418700
loop_
  _atom_site_label
  _atom_site_type_symbol
  _atom_site_fract_x
  _atom_site_fract_y
  _atom_site_fract_z
C1 C 0.73365 0.65231 0.97526
 H2 H 0.74823 0.65279 0.96721
 C3 C 0.71683 0.66333 0.96762
 H4 H 0.71846 0.67243 0.95370
 C5 C 0.71335 0.63914 1.00271
 H6 H 0.71184 0.62928 1.01603
 C7 C 0.69619 0.64991 0.99560
 H8 H 0.68163 0.64846 1.00362
 N9 N 0.73163 0.64051 0.99252
 C10 C 0.79309 0.62982 1.01659
 H11 H 0.79261 0.61330 1.01815
 C12 C 0.81043 0.64040 1.02271
 H13 H 0.82338 0.63201 1.02901
 C14 C 0.77670 0.66096 1.00663
 H15 H 0.76343 0.66890 1.00055
 C16 C 0.79379 0.67216 1.01259
 H17 H 0.79370 0.68871 1.01100
 Zn18 Zn 0.75421 0.62401 1.00085
 N19 N 0.77677 0.64015 1.00852
 C20 C 0.78088 0.60819 0.97016
 N21 N 0.76163 0.60724 0.97837
 C22 C 0.74700 0.59531 0.96992
 C23 C 0.75158 0.58354 0.95263
 C24 C 0.78609 0.59668 0.95293
 C25 C 0.74275 0.61827 1.04170
 C26 C 0.73654 0.60772 1.05939
 C27 C 0.73936 0.57596 1.04069
 C28 C 0.74554 0.58716 1.02332
 N29 N 0.74674 0.60796 1.02405
 H30 H 0.79215 0.61814 0.97669
 H31 H 0.73170 0.59515 0.97650
 H32 H 0.73983 0.57420 0.94589
 H33 H 0.80141 0.59767 0.94640
 H34 H 0.74408 0.63479 1.04188
 H35 H 0.73303 0.61620 1.07324
 H36 H 0.73809 0.55943 1.03985
 H37 H 0.74918 0.57922 1.00927
 C38 C 0.81082 0.66174 1.02063
 C39 C 0.69790 0.66200 0.97783
 C40 C 0.73464 0.58638 1.05885
 C41 C 0.77131 0.58430 0.94405
 C42 C 0.73306 0.34810 0.52046
 H43 H 0.74766 0.34712 0.52816
 C44 C 0.71638 0.33684 0.52793
 H45 H 0.71815 0.32706 0.54135
 C46 C 0.71256 0.36271 0.49411
 H47 H 0.71092 0.37319 0.48129
 C48 C 0.69555 0.35173 0.50106
 H49 H 0.68097 0.35365 0.49342
 N50 N 0.73088 0.36071 0.50382
 C51 C 0.79222 0.37168 0.47876
 H52 H 0.79163 0.38825 0.47791
 C53 C 0.80965 0.36116 0.47185
 H54 H 0.82255 0.36963 0.46565
 C55 C 0.77606 0.34037 0.48776
 H56 H 0.76286 0.33235 0.49378
 C57 C 0.79323 0.32923 0.48099
 H58 H 0.79327 0.31264 0.48191
 Zn59 Zn 0.75331 0.37729 0.49566
 N60 N 0.77598 0.36124 0.48675
 C61 C 0.77997 0.39151 0.52634
 N62 N 0.76068 0.39301 0.51865
 C63 C 0.74602 0.40485 0.52787
 C64 C 0.75065 0.41604 0.54537
 C65 C 0.78523 0.40243 0.54377
 C66 C 0.74162 0.38492 0.45535
 C67 C 0.73529 0.39630 0.43828
 C68 C 0.73800 0.42717 0.45822
 C69 C 0.74432 0.41518 0.47497
 N70 N 0.74564 0.39441 0.47333
 H71 H 0.79127 0.38163 0.51919
 H72 H 0.73070 0.40545 0.52168
 H73 H 0.73890 0.42540 0.55266
 H74 H 0.80060 0.40109 0.54982
 H75 H 0.74304 0.36841 0.45443
 H76 H 0.73174 0.38856 0.42414
 H77 H 0.73662 0.44365 0.45969
 H78 H 0.74798 0.42247 0.48925
 C79 C 0.81020 0.33976 0.47304
 C80 C 0.69743 0.33878 0.51818
 C81 C 0.73329 0.41759 0.43978
 C82 C 0.77044 0.41479 0.55337
 C83 C 0.23282 -0.15145 0.02026
 H84 H 0.24743 -0.15243 0.02794
 C85 C 0.21616 -0.16272 0.02776
 H86 H 0.21795 -0.17249 0.04118
 C87 C 0.21229 -0.13688 -0.00607
 H88 H 0.21062 -0.12641 -0.01890
 C89 C 0.19528 -0.14786 0.00091
 H90 H 0.18069 -0.14596 -0.00672
 N91 N 0.23062 -0.13887 0.00360
 C92 C 0.29190 -0.12791 -0.02161
 H93 H 0.29129 -0.11134 -0.02250
 C94 C 0.30932 -0.13843 -0.02853
 H95 H 0.32220 -0.12996 -0.03478
 C96 C 0.27579 -0.15921 -0.01249
 H97 H 0.26261 -0.16723 -0.00641
 C98 C 0.29296 -0.17036 -0.01927
 H99 H 0.29302 -0.18695 -0.01830
 Zn100 Zn 0.25303 -0.12229 -0.00462
 N101 N 0.27569 -0.13835 -0.01356
 C102 C 0.27977 -0.10805 0.02597
 N103 N 0.26046 -0.10654 0.01833
 C104 C 0.24583 -0.09469 0.02758
 C105 C 0.25051 -0.08349 0.04507
 C106 C 0.28508 -0.09712 0.04338
 C107 C 0.24129 -0.11475 -0.04491
 C108 C 0.23488 -0.10343 -0.06200
 C109 C 0.23755 -0.07250 -0.04211
 C110 C 0.24393 -0.08445 -0.02536
 N111 N 0.24530 -0.10521 -0.02696
 H112 H 0.29104 -0.11794 0.01880
 H113 H 0.23049 -0.09408 0.02143
 H114 H 0.23879 -0.07412 0.05238
 H115 H 0.30046 -0.09848 0.04939
 H116 H 0.24275 -0.13126 -0.04579
 H117 H 0.23136 -0.11131 -0.07609
 H118 H 0.23616 -0.05600 -0.04057
 H119 H 0.24760 -0.07712 -0.01109
 C120 C 0.30990 -0.15983 -0.02728
 C121 C 0.19720 -0.16080 0.01804
 C122 C 0.23281 -0.08212 -0.06055
 C123 C 0.27033 -0.08475 0.05302
 C124 C 0.23410 0.15220 0.47479
 H125 H 0.24869 0.15272 0.46676
 C126 C 0.21727 0.16320 0.46714
 H127 H 0.21890 0.17232 0.45324
 C128 C 0.21378 0.13894 0.50218
 H129 H 0.21227 0.12905 0.51548
 C130 C 0.19661 0.14969 0.49507
 H131 H 0.18204 0.14819 0.50306
 N132 N 0.23208 0.14036 0.49202
 C133 C 0.29351 0.12972 0.51615
 H134 H 0.29306 0.11320 0.51768
 C135 C 0.31083 0.14030 0.52234
 H136 H 0.32378 0.13192 0.52865
 C137 C 0.27710 0.16086 0.50624
 H138 H 0.26384 0.16880 0.50015
 C139 C 0.29416 0.17207 0.51226
 H140 H 0.29406 0.18862 0.51072
 Zn141 Zn 0.25467 0.12389 0.50035
 N142 N 0.27720 0.14004 0.50808
 C143 C 0.28140 0.10815 0.46968
 N144 N 0.26215 0.10715 0.47787
 C145 C 0.24755 0.09519 0.46940
 C146 C 0.25218 0.08344 0.45211
 C147 C 0.28666 0.09665 0.45244
 C148 C 0.24317 0.11809 0.54119
 C149 C 0.23700 0.10749 0.55887
 C150 C 0.23993 0.07578 0.54017
 C151 C 0.24607 0.08699 0.52279
 N152 N 0.24721 0.10780 0.52353
 H153 H 0.29264 0.11812 0.47622
 H154 H 0.23225 0.09499 0.47597
 H155 H 0.24046 0.07407 0.44536
 H156 H 0.30198 0.09767 0.44594
 H157 H 0.24445 0.13461 0.54139
 H158 H 0.23344 0.11585 0.57275
 H159 H 0.23869 0.05925 0.53941
 H160 H 0.24973 0.07906 0.50874
 C161 C 0.31119 0.16165 0.52032
 C162 C 0.19833 0.16181 0.47732
 C163 C 0.23520 0.08617 0.55830
 C164 C 0.27192 0.08423 0.44356
 C165 C 0.15293 0.47479 0.23406
 H166 H 0.15344 0.46679 0.24869
 C167 C 0.16394 0.46712 0.21724
 H168 H 0.17305 0.45324 0.21891
 C169 C 0.13970 0.50211 0.21366
 H170 H 0.12981 0.51539 0.21211
 C171 C 0.15045 0.49498 0.19650
 H172 H 0.14896 0.50293 0.18189
 N173 N 0.14110 0.49199 0.23199
 C174 C 0.13035 0.51611 0.29343
 H175 H 0.11382 0.51759 0.29295
 C176 C 0.14090 0.52234 0.31076
 H177 H 0.13249 0.52863 0.32370
 C178 C 0.16153 0.50628 0.27705
 H179 H 0.16950 0.50021 0.26379
 C180 C 0.17270 0.51234 0.29413
 H181 H 0.18926 0.51084 0.29404
 Zn182 Zn 0.12459 0.50031 0.25457
 N183 N 0.14071 0.50807 0.27713
 C184 C 0.10881 0.46964 0.28133
 N185 N 0.10785 0.47782 0.26205
 C186 C 0.09592 0.46934 0.24743
 C187 C 0.08417 0.45205 0.25205
 C188 C 0.09732 0.45241 0.28659
 C189 C 0.11876 0.54108 0.24298
 C190 C 0.10815 0.55873 0.23681
 C191 C 0.07644 0.53999 0.23979
 C192 C 0.08767 0.52265 0.24594
 N193 N 0.10849 0.52342 0.24706
 H194 H 0.11877 0.47619 0.29259
 H195 H 0.09575 0.47591 0.23211
 H196 H 0.07483 0.44530 0.24031
 H197 H 0.09831 0.44591 0.30192
 H198 H 0.13529 0.54131 0.24425
 H199 H 0.11650 0.57261 0.23322
 H200 H 0.05991 0.53920 0.23857
 H201 H 0.07976 0.50860 0.24964
 C202 C 0.16225 0.52038 0.31115
 C203 C 0.16256 0.47725 0.19826
 C204 C 0.08682 0.55812 0.23503
 C205 C 0.08493 0.44351 0.27182
 C206 C -0.15246 0.02102 0.23225
 H207 H -0.15347 0.02869 0.24687
 C208 C -0.16368 0.02852 0.21555
 H209 H -0.17345 0.04193 0.21736
 C210 C -0.13783 -0.00526 0.21176
 H211 H -0.12734 -0.01806 0.21013
 C212 C -0.14875 0.00170 0.19470
 H213 H -0.14676 -0.00596 0.18012
 N214 N -0.13986 0.00440 0.23009
 C215 C -0.12891 -0.02070 0.29147
 H216 H -0.11234 -0.02156 0.29085
 C217 C -0.13942 -0.02764 0.30892
 H218 H -0.13093 -0.03386 0.32181
 C219 C -0.16024 -0.01167 0.27535
 H220 H -0.16827 -0.00562 0.26216
 C221 C -0.17137 -0.01846 0.29256
 H222 H -0.18796 -0.01752 0.29263
 Zn223 Zn -0.12331 -0.00376 0.25254
 N224 N -0.13937 -0.01269 0.27524
 C225 C -0.10908 0.02685 0.27926
 N226 N -0.10756 0.01919 0.25995
 C227 C -0.09568 0.02842 0.24530
 C228 C -0.08444 0.04587 0.24996
 C229 C -0.09811 0.04423 0.28455
 C230 C -0.11570 -0.04402 0.24086
 C231 C -0.10432 -0.06108 0.23455
 C232 C -0.07343 -0.04116 0.23731
 C233 C -0.08542 -0.02442 0.24360
 N234 N -0.10619 -0.02605 0.24488
 H235 H -0.11899 0.01970 0.29054
 H236 H -0.09507 0.02225 0.22995
 H237 H -0.07504 0.05315 0.23823
 H238 H -0.09945 0.05024 0.29995
 H239 H -0.13221 -0.04494 0.24225
 H240 H -0.11207 -0.07520 0.23100
 H241 H -0.05694 -0.03969 0.23597
 H242 H -0.07811 -0.01016 0.24727
 C243 C -0.16082 -0.02643 0.30951
 C244 C -0.16170 0.01882 0.19656
 C245 C -0.08302 -0.05958 0.23259
 C246 C -0.08569 0.05382 0.26979
 C247 C 0.34797 0.52071 0.73312
 H248 H 0.34699 0.52834 0.74776
 C249 C 0.33672 0.52824 0.71646
 H250 H 0.32694 0.54163 0.71827
 C251 C 0.36256 0.49447 0.71253
 H252 H 0.37303 0.48167 0.71084
 C253 C 0.35159 0.50148 0.69552
 H254 H 0.35350 0.49390 0.68090
 N255 N 0.36056 0.50409 0.73089
 C256 C 0.37155 0.47886 0.79220
 H257 H 0.38812 0.47804 0.79161
 C258 C 0.36103 0.47185 0.80962
 H259 H 0.36951 0.46561 0.82251
 C260 C 0.34023 0.48786 0.77606
 H261 H 0.33220 0.49391 0.76287
 C262 C 0.32909 0.48099 0.79323
 H263 H 0.31249 0.48188 0.79327
 Zn264 Zn 0.37715 0.49587 0.75330
 N265 N 0.36110 0.48688 0.77598
 C266 C 0.39141 0.52644 0.78005
 N267 N 0.39290 0.51882 0.76072
 C268 C 0.40473 0.52807 0.74606
 C269 C 0.41594 0.54555 0.75071
 C270 C 0.40236 0.54385 0.78533
 C271 C 0.38473 0.45565 0.74150
 C272 C 0.39610 0.43861 0.73512
 C273 C 0.42699 0.45852 0.73788
 C274 C 0.41502 0.47523 0.74424
 N275 N 0.39425 0.47360 0.74556
 H276 H 0.38154 0.51926 0.79135
 H277 H 0.40531 0.52193 0.73070
 H278 H 0.42529 0.55287 0.73896
 H279 H 0.40102 0.54984 0.80073
 H280 H 0.36822 0.45473 0.74292
 H281 H 0.38834 0.42449 0.73155
 H282 H 0.44348 0.45999 0.73651
 H283 H 0.42234 0.48949 0.74793
 C284 C 0.33962 0.47299 0.81017
 C285 C 0.33865 0.51858 0.69746
 C286 C 0.41739 0.44011 0.73313
 C287 C 0.41471 0.55348 0.77054
 C288 C 0.65356 0.97511 0.73454
 H289 H 0.65410 0.96706 0.74913
 C290 C 0.66454 0.96753 0.71767
 H291 H 0.67368 0.95365 0.71927
 C292 C 0.64023 1.00248 0.71427
 H293 H 0.63031 1.01575 0.71278
 C294 C 0.65096 0.99543 0.69705
 H295 H 0.64942 1.00343 0.68248
 N296 N 0.64169 0.99230 0.73256
 C297 C 0.63091 1.01618 0.79410
 H298 H 0.61438 1.01762 0.79363
 C299 C 0.64145 1.02238 0.81144
 H300 H 0.63297 1.02861 0.82439
 C301 C 0.66211 1.00647 0.77768
 H302 H 0.67008 1.00046 0.76439
 C303 C 0.67328 1.01250 0.79476
 H304 H 0.68985 1.01102 0.79461
 Zn305 Zn 0.62517 1.00050 0.75518
 N306 N 0.64128 1.00821 0.77777
 C307 C 0.60943 0.96972 0.78184
 N308 N 0.60847 0.97796 0.76259
 C309 C 0.59657 0.96952 0.74793
 C310 C 0.58482 0.95221 0.75249
 C311 C 0.59794 0.95246 0.78703
 C312 C 0.61926 1.04131 0.74374
 C313 C 0.60860 1.05893 0.73756
 C314 C 0.57695 1.04010 0.74045
 C315 C 0.58821 1.02278 0.74660
 N316 N 0.60902 1.02361 0.74775
 H317 H 0.61937 0.97624 0.79313
 H318 H 0.59640 0.97613 0.73263
 H319 H 0.57548 0.94549 0.74072
 H320 H 0.59892 0.94592 0.80235
 H321 H 0.63578 1.04158 0.74502
 H322 H 0.61693 1.07284 0.73401
 H323 H 0.56043 1.03927 0.73920
 H324 H 0.58033 1.00871 0.75025
 C325 C 0.66282 1.02047 0.81183
 C326 C 0.66310 0.97772 0.69873
 C327 C 0.58729 1.05827 0.73574
 C328 C 0.58556 0.94361 0.77223
 C329 C 0.02013 0.23264 -0.15137
 H330 H 0.02779 0.24727 -0.15230
 C331 C 0.02769 0.21601 -0.16262
 H332 H 0.04113 0.21784 -0.17235
 C333 C -0.00619 0.21205 -0.13690
 H334 H -0.01904 0.21035 -0.12646
 C335 C 0.00084 0.19508 -0.14787
 H336 H -0.00677 0.18047 -0.14599
 N337 N 0.00346 0.23040 -0.13883
 C338 C -0.02177 0.29162 -0.12782
 H339 H -0.02268 0.29097 -0.11124
 C340 C -0.02869 0.30906 -0.13833
 H341 H -0.03495 0.32191 -0.12984
 C342 C -0.01262 0.27560 -0.15916
 H343 H -0.00653 0.26245 -0.16720
 C344 C -0.01939 0.29280 -0.17030
 H345 H -0.01840 0.29291 -0.18691
 Zn346 Zn -0.00480 0.25275 -0.12222
 N347 N -0.01371 0.27545 -0.13828
 C348 C 0.02575 0.27945 -0.10784
 N349 N 0.01811 0.26014 -0.10638
 C350 C 0.02734 0.24547 -0.09454
 C351 C 0.04481 0.25011 -0.08331
 C352 C 0.04315 0.28471 -0.09688
 C353 C -0.04506 0.24096 -0.11480
 C354 C -0.06217 0.23454 -0.10351
 C355 C -0.04234 0.23716 -0.07249
 C356 C -0.02558 0.24356 -0.08441
 N357 N -0.02714 0.24497 -0.10520
 H358 H 0.01860 0.29075 -0.11773
 H359 H 0.02118 0.23013 -0.09398
 H360 H 0.05211 0.23836 -0.07396
 H361 H 0.04917 0.30010 -0.09820
 H362 H -0.04592 0.24246 -0.13132
 H363 H -0.07623 0.23104 -0.11143
 H364 H -0.04083 0.23575 -0.05598
 H365 H -0.01134 0.24721 -0.07704
 C366 C -0.02741 0.30970 -0.15975
 C367 C 0.01799 0.19704 -0.16074
 C368 C -0.06076 0.23244 -0.08217
 C369 C 0.05277 0.26992 -0.08452
 C370 C 0.47519 0.23389 0.15279
 H371 H 0.46714 0.24846 0.15329
 C372 C 0.46760 0.21705 0.16383
 H373 H 0.45371 0.21865 0.17297
 C374 C 0.50258 0.21363 0.13953
 H375 H 0.51585 0.21215 0.12961
 C376 C 0.49552 0.19645 0.15031
 H377 H 0.50352 0.18190 0.14882
 N378 N 0.49239 0.23190 0.14093
 C379 C 0.51629 0.29339 0.13002
 H380 H 0.51777 0.29290 0.11348
 C381 C 0.52245 0.31075 0.14054
 H382 H 0.52870 0.32369 0.13209
 C383 C 0.50653 0.27702 0.16127
 H384 H 0.50051 0.26376 0.16928
 C385 C 0.51253 0.29413 0.17241
 H386 H 0.51103 0.29406 0.18898
 Zn387 Zn 0.50060 0.25448 0.12435
 N388 N 0.50831 0.27708 0.14043
 C389 C 0.46982 0.28108 0.10857
 N390 N 0.47806 0.26185 0.10762
 C391 C 0.46960 0.24719 0.09574
 C392 C 0.45227 0.25172 0.08401
 C393 C 0.45254 0.28624 0.09710
 C394 C 0.54142 0.24309 0.11846
 C395 C 0.55907 0.23695 0.10782
 C396 C 0.54025 0.23977 0.07613
 C397 C 0.52292 0.24589 0.08738
 N398 N 0.52373 0.24706 0.10821
 H399 H 0.47636 0.29237 0.11850
 H400 H 0.47622 0.23191 0.09558
 H401 H 0.44553 0.23995 0.07470
 H402 H 0.44600 0.30153 0.09808
 H403 H 0.54168 0.24439 0.13500
 H404 H 0.57297 0.23344 0.11616
 H405 H 0.53944 0.23850 0.05959
 H406 H 0.50884 0.24950 0.07948
 C407 C 0.52050 0.31116 0.16190
 C408 C 0.47780 0.19813 0.16245
 C409 C 0.55843 0.23511 0.08649
 C410 C 0.44366 0.27143 0.08475
 C411 C 0.97448 0.73402 0.65327
 H412 H 0.96646 0.74861 0.65382
 C413 C 0.96686 0.71717 0.66427
 H414 H 0.95299 0.71878 0.67342
 C415 C 1.00183 0.71376 0.63995
 H416 H 1.01510 0.71227 0.63003
 C417 C 0.99474 0.69656 0.65070
 H418 H 1.00273 0.68200 0.64917
 N419 N 0.99168 0.73204 0.64140
 C420 C 1.01574 0.79351 0.63078
 H421 H 1.01722 0.79308 0.61423
 C422 C 1.02194 0.81079 0.64137
 H423 H 1.02823 0.82376 0.63299
 C424 C 1.00591 0.77703 0.66195
 H425 H 0.99986 0.76375 0.66989
 C426 C 1.01196 0.79406 0.67317
 H427 H 1.01046 0.79392 0.68974
 Zn428 Zn 0.99996 0.75466 0.62492
 N429 N 1.00770 0.77717 0.64111
 C430 C 0.96928 0.78140 0.60919
 N431 N 0.97747 0.76215 0.60819
 C432 C 0.96901 0.74757 0.59621
 C433 C 0.95174 0.75221 0.58442
 C434 C 0.95206 0.78666 0.59767
 C435 C 1.04076 0.74320 0.61906
 C436 C 1.05841 0.73708 0.60841
 C437 C 1.03966 0.74010 0.57670
 C438 C 1.02232 0.74619 0.58795
 N439 N 1.02310 0.74726 0.60879
 H440 H 0.97581 0.79262 0.61919
 H441 H 0.97558 0.73228 0.59600
 H442 H 0.94501 0.74050 0.57503
 H443 H 0.94556 0.80198 0.59869
 H444 H 1.04099 0.74442 0.63560
 H445 H 1.07230 0.73350 0.61676
 H446 H 1.03888 0.73892 0.56015
 H447 H 1.00826 0.74988 0.58004
 C448 C 1.01998 0.81111 0.66275
 C449 C 0.97703 0.69824 0.66284
 C450 C 1.05781 0.73535 0.58707
 C451 C 0.94319 0.77194 0.58522
 C452 C 0.52075 0.73349 0.34721
 H453 H 0.52842 0.74810 0.34620
 C454 C 0.52821 0.71682 0.33596
 H455 H 0.54161 0.71860 0.32615
 C456 C 0.49446 0.71297 0.36186
 H457 H 0.48166 0.71131 0.37237
 C458 C 0.50141 0.69596 0.35090
 H459 H 0.49379 0.68137 0.35285
 N460 N 0.50413 0.73130 0.35983
 C461 C 0.47906 0.79259 0.37084
 H462 H 0.47824 0.79196 0.38743
 C463 C 0.47210 0.81002 0.36034
 H464 H 0.46590 0.82286 0.36890
 C465 C 0.48803 0.77651 0.33948
 H466 H 0.49407 0.76333 0.33144
 C467 C 0.48122 0.79368 0.32834
 H468 H 0.48214 0.79371 0.31173
 Zn469 Zn 0.49598 0.75370 0.37643
 N470 N 0.48705 0.77639 0.36037
 C471 C 0.52662 0.78038 0.39068
 N472 N 0.51895 0.76108 0.39218
 C473 C 0.52816 0.74642 0.40405
 C474 C 0.54562 0.75106 0.41530
 C475 C 0.54401 0.78565 0.40167
 C476 C 0.45572 0.74198 0.38405
 C477 C 0.43866 0.73565 0.39545
 C478 C 0.45859 0.73840 0.42635
 C479 C 0.47532 0.74471 0.41435
 N480 N 0.47369 0.74601 0.39356
 H481 H 0.51948 0.79167 0.38077
 H482 H 0.52199 0.73109 0.40465
 H483 H 0.55289 0.73933 0.42470
 H484 H 0.55003 0.80103 0.40034
 H485 H 0.45480 0.74339 0.36753
 H486 H 0.42453 0.73211 0.38770
 H487 H 0.46006 0.73704 0.44286
 H488 H 0.48959 0.74838 0.42166
 C489 C 0.47325 0.81063 0.33890
 C490 C 0.51850 0.69786 0.33793
 C491 C 0.44016 0.73368 0.41677
 C492 C 0.55359 0.77087 0.41408
 C493 C 0.39945 -0.01745 0.27056
 H494 H 0.39994 -0.00281 0.27817
 C495 C 0.41069 -0.03414 0.27829
 H496 H 0.41997 -0.03235 0.29183
 C497 C 0.38607 -0.03801 0.24415
 H498 H 0.37606 -0.03967 0.23120
 C499 C 0.39705 -0.05505 0.25137
 H500 H 0.39561 -0.06967 0.24381
 N501 N 0.38745 -0.01965 0.25377
 C502 C 0.37642 0.04155 0.22812
 H503 H 0.35990 0.04097 0.22696
 C504 C 0.38687 0.05897 0.22141
 H505 H 0.37839 0.07188 0.21505
 C506 C 0.40767 0.02540 0.23782
 H507 H 0.41570 0.01223 0.24408
 C508 C 0.41874 0.04258 0.23127
 H509 H 0.43528 0.04265 0.23260
 Zn510 Zn 0.37082 0.00283 0.24530
 N511 N 0.38685 0.02533 0.23638
 C512 C 0.35563 0.02986 0.27568
 N513 N 0.35438 0.01054 0.26813
 C514 C 0.34246 -0.00389 0.27750
 C515 C 0.33102 0.00098 0.29509
 C516 C 0.34446 0.03535 0.29318
 C517 C 0.36455 -0.00894 0.20501
 C518 C 0.35375 -0.01504 0.18780
 C519 C 0.32223 -0.01196 0.20743
 C520 C 0.33365 -0.00588 0.22432
 N521 N 0.35446 -0.00481 0.22289
 H522 H 0.36558 0.04096 0.26843
 H523 H 0.34206 -0.01925 0.27142
 H524 H 0.32170 -0.01061 0.30257
 H525 H 0.34570 0.05071 0.29917
 H526 H 0.38108 -0.00771 0.20426
 H527 H 0.36196 -0.01860 0.17372
 H528 H 0.30570 -0.01308 0.20871
 H529 H 0.32588 -0.00215 0.23853
 C530 C 0.40820 0.05955 0.22311
 C531 C 0.40937 -0.05314 0.26865
 C532 C 0.33242 -0.01671 0.18906
 C533 C 0.33211 0.02078 0.30300
 C534 C 0.09386 1.02382 0.77519
 H535 H 0.09276 1.00917 0.78306
 C536 C 0.08285 1.04076 0.78254
 H537 H 0.07313 1.03916 0.79603
 C538 C 0.10851 1.04411 0.74851
 H539 H 0.11893 1.04555 0.73561
 C540 C 0.09778 1.06140 0.75534
 H541 H 0.09981 1.07600 0.74751
 N542 N 0.10637 1.02576 0.75844
 C543 C 0.11647 0.96434 0.73420
 H544 H 0.13304 0.96450 0.73323
 C545 C 0.10579 0.94728 0.72754
 H546 H 0.11414 0.93423 0.72142
 C547 C 0.08532 0.98125 0.74320
 H548 H 0.07743 0.99460 0.74912
 C549 C 0.07401 0.96444 0.73668
 H550 H 0.05742 0.96484 0.73769
 Zn551 Zn 0.12258 1.00288 0.75044
 N552 N 0.10618 0.98077 0.74205
 C553 C 0.13684 0.97552 0.78134
 N554 N 0.13853 0.99481 0.77333
 C555 C 0.15086 1.00892 0.78206
 C556 C 0.16245 1.00369 0.79932
 C557 C 0.14814 0.96968 0.79854
 C558 C 0.12989 1.01461 0.70987
 C559 C 0.14122 1.02023 0.69246
 C560 C 0.17229 1.01573 0.71199
 C561 C 0.16035 1.01018 0.72908
 N562 N 0.13953 1.01004 0.72779
 H563 H 0.12657 0.96468 0.77458
 H564 H 0.15163 1.02426 0.77562
 H565 H 0.17226 1.01498 0.80617
 H566 H 0.14668 0.95430 0.80480
 H567 H 0.11333 1.01409 0.70922
 H568 H 0.13339 1.02414 0.67834
 H569 H 0.18884 1.01608 0.71316
 H570 H 0.16775 1.00605 0.74330
 C571 C 0.08439 0.94729 0.72885
 C572 C 0.08493 1.05975 0.77256
 C573 C 0.16259 1.02092 0.69357
 C574 C 0.16107 0.98387 0.80758
 C575 C 0.59381 0.52443 0.27376
 H576 H 0.59270 0.50978 0.28163
 C577 C 0.58281 0.54138 0.28111
 H578 H 0.57309 0.53978 0.29461
 C579 C 0.60848 0.54472 0.24709
 H580 H 0.61889 0.54615 0.23419
 C581 C 0.59776 0.56202 0.25392
 H582 H 0.59980 0.57661 0.24611
 N583 N 0.60632 0.52637 0.25702
 C584 C 0.61650 0.46496 0.23276
 H585 H 0.63307 0.46515 0.23178
 C586 C 0.60586 0.44787 0.22612
 H587 H 0.61423 0.43483 0.22000
 C588 C 0.58533 0.48180 0.24179
 H589 H 0.57741 0.49514 0.24772
 C590 C 0.57405 0.46496 0.23529
 H591 H 0.55746 0.46531 0.23632
 Zn592 Zn 0.62255 0.50349 0.24903
 N593 N 0.60619 0.48137 0.24062
 C594 C 0.63681 0.47614 0.27992
 N595 N 0.63849 0.49543 0.27193
 C596 C 0.65079 0.50956 0.28068
 C597 C 0.66236 0.50433 0.29795
 C598 C 0.64809 0.47031 0.29713
 C599 C 0.62990 0.51524 0.20846
 C600 C 0.64125 0.52090 0.19107
 C601 C 0.67229 0.51644 0.21065
 C602 C 0.66034 0.51085 0.22771
 N603 N 0.63952 0.51067 0.22639
 H604 H 0.62656 0.46529 0.27315
 H605 H 0.65155 0.52490 0.27425
 H606 H 0.67215 0.51563 0.30482
 H607 H 0.64665 0.45492 0.30339
 H608 H 0.61334 0.51470 0.20778
 H609 H 0.63344 0.52481 0.17695
 H610 H 0.68884 0.51682 0.21185
 H611 H 0.66772 0.50672 0.24195
 C612 C 0.58446 0.44783 0.22746
 C613 C 0.58491 0.56036 0.27115
 C614 C 0.66262 0.52163 0.19222
 C615 C 0.66099 0.48450 0.30621
 C616 C 0.89874 0.48271 0.77117
 H617 H 0.89921 0.49736 0.77876
 C618 C 0.90997 0.46603 0.77895
 H619 H 0.91921 0.46785 0.79252
 C620 C 0.88545 0.46210 0.74475
 H621 H 0.87548 0.46043 0.73178
 C622 C 0.89643 0.44508 0.75202
 H623 H 0.89501 0.43045 0.74447
 N624 N 0.88680 0.48048 0.75434
 C625 C 0.87574 0.54162 0.72858
 H626 H 0.85922 0.54102 0.72738
 C627 C 0.88618 0.55905 0.72186
 H628 H 0.87769 0.57193 0.71545
 C629 C 0.90699 0.52554 0.73838
 H630 H 0.91502 0.51239 0.74468
 C631 C 0.91805 0.54273 0.73182
 H632 H 0.93459 0.54282 0.73318
 Zn633 Zn 0.87016 0.50293 0.74581
 N634 N 0.88618 0.52544 0.73690
 C635 C 0.85486 0.52997 0.77612
 N636 N 0.85365 0.51064 0.76859
 C637 C 0.84175 0.49620 0.77796
 C638 C 0.83029 0.50106 0.79554
 C639 C 0.84366 0.53546 0.79360
 C640 C 0.86402 0.49111 0.70552
 C641 C 0.85328 0.48495 0.68829
 C642 C 0.82170 0.48796 0.70784
 C643 C 0.83306 0.49410 0.72475
 N644 N 0.85386 0.49522 0.72337
 H645 H 0.86480 0.54109 0.76887
 H646 H 0.84139 0.48083 0.77190
 H647 H 0.82098 0.48947 0.80302
 H648 H 0.84487 0.55083 0.79957
 H649 H 0.88054 0.49238 0.70480
 H650 H 0.86153 0.48139 0.67424
 H651 H 0.80517 0.48679 0.70908
 H652 H 0.82524 0.49782 0.73894
 C653 C 0.90750 0.55966 0.72360
 C654 C 0.90869 0.44702 0.76934
 C655 C 0.83195 0.48322 0.68950
 C656 C 0.83133 0.52088 0.80343
 C657 C 0.27061 0.39828 -0.01702
 H658 H 0.27820 0.39873 -0.00235
 C659 C 0.27838 0.40953 -0.03370
 H660 H 0.29193 0.41878 -0.03188
 C661 C 0.24421 0.38501 -0.03766
 H662 H 0.23124 0.37504 -0.03934
 C663 C 0.25146 0.39601 -0.05469
 H664 H 0.24391 0.39462 -0.06934
 N665 N 0.25380 0.38634 -0.01926
 C666 C 0.22807 0.37538 0.04196
 H667 H 0.22687 0.35886 0.04141
 C668 C 0.22137 0.38585 0.05936
 H669 H 0.21498 0.37741 0.07229
 C670 C 0.23785 0.40659 0.02575
 H671 H 0.24413 0.41459 0.01256
 C672 C 0.23131 0.41769 0.04291
 H673 H 0.23267 0.43422 0.04294
 Zn674 Zn 0.24526 0.36972 0.00323
 N675 N 0.23637 0.38578 0.02572
 C676 C 0.27556 0.35448 0.03036
 N677 N 0.26803 0.35323 0.01101
 C678 C 0.27738 0.34131 -0.00341
 C679 C 0.29496 0.32989 0.00149
 C680 C 0.29304 0.34331 0.03588
 C681 C 0.20500 0.36357 -0.00861
 C682 C 0.18777 0.35283 -0.01474
 C683 C 0.20728 0.32126 -0.01161
 C684 C 0.22420 0.33262 -0.00551
 N685 N 0.22284 0.35343 -0.00445
 H686 H 0.26832 0.36443 0.04146
 H687 H 0.27132 0.34092 -0.01879
 H688 H 0.30244 0.32057 -0.01009
 H689 H 0.29902 0.34456 0.05126
 H690 H 0.20430 0.38010 -0.00739
 H691 H 0.17374 0.36108 -0.01832
 H692 H 0.20852 0.30473 -0.01272
 H693 H 0.23838 0.32481 -0.00175
 C694 C 0.22311 0.40718 0.05990
 C695 C 0.26876 0.40828 -0.05273
 C696 C 0.18896 0.33150 -0.01639
 C697 C 0.30286 0.33097 0.02132
 C698 C 0.77481 0.09380 1.02381
 H699 H 0.78266 0.09268 1.00916
 C700 C 0.78214 0.08281 1.04081
 H701 H 0.79562 0.07308 1.03923
 C702 C 0.74818 0.10851 1.04409
 H703 H 0.73529 0.11893 1.04549
 C704 C 0.75499 0.09779 1.06142
 H705 H 0.74719 0.09985 1.07602
 N706 N 0.75809 0.10633 1.02573
 C707 C 0.73384 0.11644 0.96422
 H708 H 0.73289 0.13300 0.96436
 C709 C 0.72717 0.10577 0.94715
 H710 H 0.72105 0.11413 0.93408
 C711 C 0.74281 0.08529 0.98117
 H712 H 0.74873 0.07739 0.99455
 C713 C 0.73627 0.07399 0.96436
 H714 H 0.73726 0.05740 0.96477
 Zn715 Zn 0.75011 0.12253 1.00279
 N716 N 0.74168 0.10615 0.98068
 C717 C 0.78098 0.13675 0.97540
 N718 N 0.77300 0.13845 0.99470
 C719 C 0.78175 0.15077 1.00881
 C720 C 0.79902 0.16232 1.00357
 C721 C 0.79819 0.14801 0.96954
 C722 C 0.70958 0.12989 1.01451
 C723 C 0.69221 0.14123 1.02015
 C724 C 0.71177 0.17227 1.01565
 C725 C 0.72882 0.16032 1.01008
 N726 N 0.72750 0.13950 1.00993
 H727 H 0.77421 0.12649 0.96456
 H728 H 0.77533 0.15154 1.02416
 H729 H 0.80590 0.17211 1.01486
 H730 H 0.80444 0.14654 0.95415
 H731 H 0.70890 0.11333 1.01399
 H732 H 0.67810 0.13342 1.02407
 H733 H 0.71297 0.18882 1.01601
 H734 H 0.74305 0.16771 1.00595
 C735 C 0.72845 0.08437 0.94718
 C736 C 0.77219 0.08493 1.05980
 C737 C 0.69336 0.16260 1.02085
 C738 C 0.80727 0.16092 0.98373
 C739 C 0.27440 0.59447 0.52405
 H740 H 0.28223 0.59339 0.50938
 C741 C 0.28177 0.58345 0.54101
 H742 H 0.29527 0.57375 0.53940
 C743 C 0.24776 0.60907 0.54438
 H744 H 0.23485 0.61946 0.54583
 C745 C 0.25462 0.59833 0.56169
 H746 H 0.24682 0.60033 0.57630
 N747 N 0.25765 0.60695 0.52601
 C748 C 0.23328 0.61701 0.46456
 H749 H 0.23228 0.63358 0.46470
 C750 C 0.22663 0.60632 0.44749
 H751 H 0.22048 0.61466 0.43443
 C752 C 0.24237 0.58589 0.48150
 H753 H 0.24832 0.57801 0.49487
 C754 C 0.23586 0.57457 0.46469
 H755 H 0.23691 0.55799 0.46510
 Zn756 Zn 0.24960 0.62315 0.50310
 N757 N 0.24117 0.60675 0.48101
 C758 C 0.28039 0.63742 0.47566
 N759 N 0.27244 0.63912 0.49497
 C760 C 0.28120 0.65144 0.50907
 C761 C 0.29844 0.66302 0.50380
 C762 C 0.29757 0.64871 0.46977
 C763 C 0.20908 0.63042 0.51490
 C764 C 0.19169 0.64173 0.52057
 C765 C 0.21119 0.67281 0.51604
 C766 C 0.22825 0.66089 0.51044
 N767 N 0.22697 0.64007 0.51029
 H768 H 0.27362 0.62716 0.46483
 H769 H 0.27480 0.65221 0.52443
 H770 H 0.30533 0.67282 0.51508
 H771 H 0.30380 0.64725 0.45437
 H772 H 0.20843 0.61386 0.51437
 H773 H 0.17760 0.63389 0.52451
 H774 H 0.21236 0.68935 0.51640
 H775 H 0.24245 0.66830 0.50629
 C776 C 0.22799 0.58493 0.44752
 C777 C 0.27183 0.58550 0.56002
 C778 C 0.19280 0.66310 0.52127
 C779 C 0.30666 0.66163 0.48395
 C780 C 0.77061 0.89954 0.48281
 H781 H 0.77822 0.90002 0.49747
 C782 C 0.77834 0.91078 0.46610
 H783 H 0.79188 0.92005 0.46790
 C784 C 0.74421 0.88619 0.46222
 H785 H 0.73126 0.87619 0.46057
 C786 C 0.75142 0.89718 0.44516
 H787 H 0.74386 0.89574 0.43053
 N788 N 0.75381 0.88756 0.48061
 C789 C 0.72811 0.87650 0.54182
 H790 H 0.72690 0.85998 0.54123
 C791 C 0.72144 0.88693 0.55926
 H792 H 0.71505 0.87845 0.57217
 C793 C 0.73791 0.90774 0.52570
 H794 H 0.74420 0.91578 0.51253
 C795 C 0.73140 0.91880 0.54290
 H796 H 0.73278 0.93533 0.54299
 Zn797 Zn 0.74533 0.87092 0.50311
 N798 N 0.73641 0.88694 0.52561
 C799 C 0.77563 0.85569 0.53023
 N800 N 0.76812 0.85446 0.51087
 C801 C 0.77750 0.84256 0.49645
 C802 C 0.79506 0.83112 0.50137
 C803 C 0.79309 0.84451 0.53577
 C804 C 0.70507 0.86469 0.49128
 C805 C 0.68789 0.85392 0.48507
 C806 C 0.70750 0.82239 0.48809
 C807 C 0.72436 0.83378 0.49427
 N808 N 0.72293 0.85458 0.49541
 H809 H 0.76837 0.86563 0.54133
 H810 H 0.77146 0.84218 0.48106
 H811 H 0.80255 0.82181 0.48980
 H812 H 0.79904 0.84573 0.55117
 H813 H 0.70432 0.88121 0.49255
 H814 H 0.67384 0.86214 0.48148
 H815 H 0.70879 0.80588 0.48690
 H816 H 0.73856 0.82600 0.49801
 C817 C 0.72320 0.90825 0.55987
 C818 C 0.76870 0.90948 0.44708
 C819 C 0.68916 0.83260 0.48331
 C820 C 0.80293 0.83217 0.52122
 C821 C -0.01694 0.27048 0.39916
 H822 H -0.00226 0.27803 0.39965
 C823 C -0.03359 0.27826 0.41041
 H824 H -0.03174 0.29178 0.41970
 C825 C -0.03764 0.24420 0.38577
 H826 H -0.03936 0.23128 0.37574
 C827 C -0.05464 0.25146 0.39677
 H828 H -0.06930 0.24397 0.39532
 N829 N -0.01923 0.25373 0.38715
 C830 C 0.04185 0.22792 0.37598
 H831 H 0.04125 0.22679 0.35945
 C832 C 0.05926 0.22113 0.38640
 H833 H 0.07214 0.21475 0.37789
 C834 C 0.02579 0.23760 0.40729
 H835 H 0.01266 0.24388 0.41536
 C836 C 0.04296 0.23097 0.41834
 H837 H 0.04305 0.23227 0.43490
 Zn838 Zn 0.00320 0.24523 0.37046
 N839 N 0.02569 0.23621 0.38646
 C840 C 0.03035 0.27552 0.35524
 N841 N 0.01099 0.26805 0.35403
 C842 C -0.00343 0.27749 0.34216
 C843 C 0.00148 0.29508 0.33075
 C844 C 0.03589 0.29301 0.34409
 C845 C -0.00876 0.20504 0.36414
 C846 C -0.01499 0.18791 0.35331
 C847 C -0.01187 0.20759 0.32179
 C848 C -0.00568 0.22441 0.33324
 N849 N -0.00457 0.22292 0.35406
 H850 H 0.04145 0.26821 0.36516
 H851 H -0.01882 0.27147 0.34179
 H852 H -0.01010 0.30262 0.32147
 H853 H 0.05128 0.29894 0.34531
 H854 H -0.00751 0.20423 0.38067
 H855 H -0.01861 0.17384 0.36150
 H856 H -0.01303 0.20893 0.30526
 H857 H -0.00189 0.23861 0.32549
 C858 C 0.05988 0.22278 0.40775
 C859 C -0.05264 0.26871 0.40909
 C860 C -0.01670 0.18923 0.33197
 C861 C 0.02133 0.30292 0.33179
 C862 C 1.02386 0.77454 0.09345
 H863 H 1.00919 0.78235 0.09235
 C864 C 1.04079 0.78193 0.08242
 H865 H 1.03916 0.79541 0.07269
 C866 C 1.04421 0.74796 0.10815
 H867 H 1.04568 0.73508 0.11859
 C868 C 1.06150 0.75484 0.09740
 H869 H 1.07611 0.74708 0.09945
 N870 N 1.02584 0.75782 0.10599
 C871 C 0.96447 0.73342 0.11628
 H872 H 0.96468 0.73246 0.13286
 C873 C 0.94740 0.72671 0.10566
 H874 H 0.93438 0.72056 0.11407
 C875 C 0.98128 0.74245 0.08505
 H876 H 0.99461 0.74840 0.07710
 C877 C 0.96445 0.73587 0.07379
 H878 H 0.96480 0.73687 0.05719
 Zn879 Zn 1.00299 0.74978 0.12227
 N880 N 0.98087 0.74131 0.10593
 C881 C 0.97559 0.78059 0.13652
 N882 N 0.99490 0.77265 0.13820
 C883 C 1.00902 0.78143 0.15048
 C884 C 1.00378 0.79869 0.16203
 C885 C 0.96974 0.79778 0.14778
 C886 C 1.01480 0.70929 0.12964
 C887 C 1.02047 0.69193 0.14101
 C888 C 1.01601 0.71147 0.17207
 C889 C 1.01040 0.72851 0.16010
 N890 N 1.01022 0.72719 0.13926
 H891 H 0.96475 0.77379 0.12628
 H892 H 1.02437 0.77505 0.15124
 H893 H 1.01508 0.80559 0.17180
 H894 H 0.95435 0.80400 0.14633
 H895 H 1.01425 0.70862 0.11307
 H896 H 1.02439 0.67783 0.13319
 H897 H 1.01639 0.71266 0.18863
 H898 H 1.00626 0.74273 0.16748
 C899 C 0.94734 0.72800 0.08424
 C900 C 1.05980 0.77204 0.08453
 C901 C 1.02120 0.69307 0.16239
 C902 C 0.98394 0.80689 0.16066
 C903 C 0.52408 0.27425 0.59366
 H904 H 0.50941 0.28207 0.59255
 C905 C 0.54101 0.28163 0.58262
 H906 H 0.53939 0.29510 0.57287
 C907 C 0.54442 0.24767 0.60837
 H908 H 0.54588 0.23479 0.61881
 C909 C 0.56170 0.25453 0.59761
 H910 H 0.57631 0.24676 0.59965
 N911 N 0.52605 0.25754 0.60621
 C912 C 0.46466 0.23319 0.61648
 H913 H 0.46484 0.23225 0.63306
 C914 C 0.44758 0.22649 0.60584
 H915 H 0.43455 0.22037 0.61423
 C916 C 0.48151 0.24218 0.58526
 H917 H 0.49485 0.24811 0.57733
 C918 C 0.46469 0.23562 0.57399
 H919 H 0.46506 0.23660 0.55738
 Zn920 Zn 0.50319 0.24953 0.62249
 N921 N 0.48107 0.24106 0.60614
 C922 C 0.47581 0.28036 0.63672
 N923 N 0.49511 0.27241 0.63839
 C924 C 0.50925 0.28121 0.65066
 C925 C 0.50402 0.29846 0.66221
 C926 C 0.46997 0.29756 0.64798
 C927 C 0.51500 0.20904 0.62993
 C928 C 0.52068 0.19170 0.64133
 C929 C 0.51620 0.21130 0.67235
 C930 C 0.51058 0.22831 0.66035
 N931 N 0.51040 0.22696 0.63951
 H932 H 0.46495 0.27356 0.62650
 H933 H 0.52460 0.27481 0.65141
 H934 H 0.51532 0.30537 0.67197
 H935 H 0.45457 0.30378 0.64654
 H936 H 0.51445 0.20833 0.61336
 H937 H 0.52461 0.17759 0.63354
 H938 H 0.51658 0.21253 0.68891
 H939 H 0.50643 0.24254 0.66770
 C940 C 0.44756 0.22778 0.58442
 C941 C 0.56002 0.27172 0.58472
 C942 C 0.52141 0.19289 0.66271
 C943 C 0.48418 0.30667 0.66084
 C944 C 0.48288 0.77086 0.89912
 H945 H 0.49757 0.77840 0.89963
 C946 C 0.46621 0.77867 0.91031
 H947 H 0.46805 0.79220 0.91958
 C948 C 0.46220 0.74456 0.88573
 H949 H 0.46050 0.73163 0.87572
 C950 C 0.44517 0.75186 0.89667
 H951 H 0.43051 0.74437 0.89520
 N952 N 0.48062 0.75408 0.88714
 C953 C 0.54168 0.72814 0.87623
 H954 H 0.54112 0.72697 0.85970
 C955 C 0.55905 0.72136 0.88672
 H956 H 0.57193 0.71492 0.87827
 C957 C 0.52556 0.73795 0.90747
 H958 H 0.51241 0.74429 0.91548
 C959 C 0.54268 0.73133 0.91858
 H960 H 0.54273 0.73267 0.93514
 Zn961 Zn 0.50309 0.74551 0.87055
 N962 N 0.52551 0.73650 0.88664
 C963 C 0.53033 0.77571 0.85537
 N964 N 0.51097 0.76827 0.85408
 C965 C 0.49662 0.77770 0.84212
 C966 C 0.50161 0.79527 0.83070
 C967 C 0.53595 0.79318 0.84421
 C968 C 0.49112 0.70531 0.86433
 C969 C 0.48492 0.68813 0.85356
 C970 C 0.48812 0.70769 0.82197
 C971 C 0.49428 0.72456 0.83337
 N972 N 0.49534 0.72315 0.85420
 H973 H 0.54138 0.76841 0.86535
 H974 H 0.48122 0.77171 0.84169
 H975 H 0.49008 0.80281 0.82135
 H976 H 0.55134 0.79909 0.84550
 H977 H 0.49233 0.70457 0.88087
 H978 H 0.48129 0.67410 0.86180
 H979 H 0.48701 0.70896 0.80543
 H980 H 0.49809 0.73873 0.82557
 C981 C 0.55961 0.72307 0.90807
 C982 C 0.44715 0.76913 0.90896
 C983 C 0.48327 0.68937 0.83221
 C984 C 0.52146 0.80308 0.83183
 C985 C 0.45274 -0.13882 0.31003
 N986 N 0.45743 -0.12014 0.31753
 N987 N 0.44966 -0.10313 0.30901
 C988 C 0.43696 -0.10428 0.29272
 N989 N 0.43230 -0.12296 0.28520
 N990 N 0.44006 -0.13997 0.29372
 C991 C 0.46036 -0.15714 0.31983
 C992 C 0.46651 -0.17238 0.32853
 C993 C 0.42784 -0.08605 0.28412
 C994 C 0.41970 -0.07091 0.27703
 C995 C 0.95184 0.36131 0.81087
 N996 N 0.95613 0.37994 0.81872
 N997 N 0.94841 0.39697 0.81019
 C998 C 0.93618 0.39589 0.79354
 N999 N 0.93192 0.37726 0.78567
 N1000 N 0.93964 0.36023 0.79420
 C1001 C 0.95942 0.34295 0.82064
 C1002 C 0.96553 0.32768 0.82930
 C1003 C 0.92710 0.41413 0.78490
 C1004 C 0.91899 0.42926 0.77777
 C1005 C 0.04117 1.14595 0.81146
 N1006 N 0.05732 1.14700 0.79822
 N1007 N 0.06536 1.12997 0.79022
 C1008 C 0.05752 1.11137 0.79523
 N1009 N 0.04135 1.11031 0.80845
 N1010 N 0.03330 1.12735 0.81644
 C1011 C 0.03296 1.16419 0.82068
 C1012 C 0.02613 1.17932 0.82887
 C1013 C 0.06666 1.09301 0.78714
 C1014 C 0.07474 1.07772 0.78047
 C1015 C 0.54143 0.64667 0.31012
 N1016 N 0.55735 0.64769 0.29660
 N1017 N 0.56533 0.63063 0.28860
 C1018 C 0.55763 0.61203 0.29386
 N1019 N 0.54169 0.61101 0.30736
 N1020 N 0.53372 0.62807 0.31536
 C1021 C 0.53330 0.66495 0.31935
 C1022 C 0.52655 0.68011 0.32754
 C1023 C 0.56672 0.59365 0.28577
 C1024 C 0.57475 0.57835 0.27908
 C1025 C 0.53990 0.36248 0.19082
 N1026 N 0.53425 0.38119 0.18340
 N1027 N 0.54195 0.39818 0.19134
 C1028 C 0.55552 0.39697 0.20694
 N1029 N 0.56112 0.37826 0.21440
 N1030 N 0.55343 0.36127 0.20646
 C1031 C 0.53264 0.34420 0.18136
 C1032 C 0.52693 0.32901 0.17283
 C1033 C 0.56490 0.41515 0.21454
 C1034 C 0.57344 0.43021 0.22059
 C1035 C 0.03956 0.86222 0.69191
 N1036 N 0.03387 0.88099 0.68466
 N1037 N 0.04163 0.89791 0.69267
 C1038 C 0.05531 0.89659 0.70817
 N1039 N 0.06096 0.87782 0.71545
 N1040 N 0.05320 0.86090 0.70744
 C1041 C 0.03224 0.84401 0.68236
 C1042 C 0.02647 0.82888 0.67375
 C1043 C 0.06475 0.91471 0.71584
 C1044 C 0.07332 0.92972 0.72193
 C1045 C 0.95340 0.64652 0.68925
 N1046 N 0.96148 0.62798 0.68421
 N1047 N 0.95314 0.61077 0.69150
 C1048 C 0.93645 0.61159 0.70407
 N1049 N 0.92839 0.63013 0.70915
 N1050 N 0.93673 0.64733 0.70185
 C1051 C 0.96182 0.66497 0.68060
 C1052 C 0.96878 0.68028 0.67282
 C1053 C 0.92686 0.59308 0.71119
 C1054 C 0.91833 0.57771 0.71694
 C1055 C 0.45416 0.14641 0.18886
 N1056 N 0.46226 0.12787 0.18382
 N1057 N 0.45390 0.11067 0.19110
 C1058 C 0.43718 0.11148 0.20364
 N1059 N 0.42911 0.13002 0.20870
 N1060 N 0.43747 0.14722 0.20142
 C1061 C 0.46259 0.16486 0.18021
 C1062 C 0.46955 0.18018 0.17243
 C1063 C 0.42758 0.09297 0.21073
 C1064 C 0.41904 0.07759 0.21646
 C1065 C 0.31022 0.45189 -0.13834
 N1066 N 0.31778 0.45641 -0.11963
 N1067 N 0.30926 0.44858 -0.10263
 C1068 C 0.29290 0.43599 -0.10383
 N1069 N 0.28531 0.43150 -0.12254
 N1070 N 0.29384 0.43933 -0.13954
 C1071 C 0.32000 0.45959 -0.15665
 C1072 C 0.32867 0.46581 -0.17189
 C1073 C 0.28427 0.42682 -0.08562
 C1074 C 0.27716 0.41864 -0.07049
 C1075 C 0.80989 0.95276 0.36119
 N1076 N 0.81763 0.95724 0.37984
 N1077 N 0.80916 0.94950 0.39690
 C1078 C 0.79269 0.93704 0.39584
 N1079 N 0.78493 0.93259 0.37719
 N1080 N 0.79340 0.94033 0.36012
 C1081 C 0.81962 0.96036 0.34280
 C1082 C 0.82824 0.96649 0.32750
 C1083 C 0.78413 0.92793 0.41412
 C1084 C 0.77707 0.91981 0.42929
 C1085 C 0.81107 0.04140 1.14626
 N1086 N 0.81601 0.03346 1.12768
 N1087 N 0.80802 0.04145 1.11059
 C1088 C 0.79484 0.05764 1.11157
 N1089 N 0.78988 0.06556 1.13016
 N1090 N 0.79787 0.05757 1.14724
 C1091 C 0.82030 0.03325 1.16456
 C1092 C 0.82850 0.02647 1.17972
 C1093 C 0.78677 0.06674 1.09315
 C1094 C 0.78009 0.07477 1.07783
 C1095 C 0.31083 0.54171 0.64629
 N1096 N 0.29742 0.55770 0.64736
 N1097 N 0.28941 0.56575 0.63031
 C1098 C 0.29457 0.55806 0.61167
 N1099 N 0.30796 0.54206 0.61061
 N1100 N 0.31597 0.53401 0.62766
 C1101 C 0.32006 0.53351 0.66456
 C1102 C 0.32826 0.52669 0.67971
 C1103 C 0.28646 0.56722 0.59330
 C1104 C 0.27977 0.57530 0.57801
 C1105 C 0.19126 0.54002 0.36235
 N1106 N 0.20680 0.55365 0.36104
 N1107 N 0.21476 0.56142 0.37800
 C1108 C 0.20742 0.55581 0.39677
 N1109 N 0.19192 0.54214 0.39808
 N1110 N 0.18397 0.53436 0.38112
 C1111 C 0.18176 0.53267 0.34411
 C1112 C 0.17321 0.52689 0.32895
 C1113 C 0.21504 0.56527 0.41491
 C1114 C 0.22111 0.57385 0.42994
 C1115 C 0.69141 0.03964 0.86205
 N1116 N 0.70696 0.05326 0.86072
 N1117 N 0.71498 0.06099 0.87766
 C1118 C 0.70771 0.05534 0.89645
 N1119 N 0.69220 0.04168 0.89778
 N1120 N 0.68417 0.03395 0.88084
 C1121 C 0.68183 0.03235 0.84383
 C1122 C 0.67321 0.02661 0.82868
 C1123 C 0.71540 0.06476 0.91458
 C1124 C 0.72151 0.07332 0.92960
 C1125 C 0.68930 0.95411 0.64690
 N1126 N 0.70180 0.93738 0.64768
 N1127 N 0.70901 0.92904 0.63044
 C1128 C 0.70393 0.93717 0.61190
 N1129 N 0.69146 0.95392 0.61112
 N1130 N 0.68426 0.96227 0.62836
 C1131 C 0.68073 0.96253 0.66539
 C1132 C 0.67301 0.96948 0.68074
 C1133 C 0.71095 0.92759 0.59335
 C1134 C 0.71662 0.91907 0.57794
 C1135 C 0.18891 0.45341 0.14662
 N1136 N 0.20138 0.43666 0.14752
 N1137 N 0.20864 0.42824 0.13034
 C1138 C 0.20366 0.43630 0.11175
 N1139 N 0.19122 0.45307 0.11085
 N1140 N 0.18396 0.46149 0.12803
 C1141 C 0.18028 0.46191 0.16504
 C1142 C 0.17251 0.46894 0.18033
 C1143 C 0.21075 0.42664 0.09327
 C1144 C 0.21647 0.41806 0.07792
 C1145 C -0.13825 0.31033 0.45229
 N1146 N -0.13939 0.29369 0.44007
 N1147 N -0.12238 0.28513 0.43236
 C1148 C -0.10372 0.29295 0.43662
 N1149 N -0.10259 0.30957 0.44886
 N1150 N -0.11959 0.31813 0.45658
 C1151 C -0.15658 0.32013 0.45987
 C1152 C -0.17184 0.32880 0.46598
 C1153 C -0.08550 0.28429 0.42753
 C1154 C -0.07038 0.27715 0.41941
 C1155 C 0.36147 0.81076 0.95201
 N1156 N 0.36035 0.79414 0.93976
 N1157 N 0.37738 0.78559 0.93206
 C1158 C 0.39603 0.79339 0.93638
 N1159 N 0.39714 0.80999 0.94866
 N1160 N 0.38012 0.81854 0.95635
 C1161 C 0.34313 0.82055 0.95957
 C1162 C 0.32786 0.82922 0.96567
 C1163 C 0.41426 0.78473 0.92733
 C1164 C 0.42940 0.77758 0.91924
 C1165 C 1.14604 0.81127 0.04100
 N1166 N 1.14709 0.79771 0.05689
 N1167 N 1.13005 0.78965 0.06487
 C1168 C 1.11143 0.79491 0.05722
 N1169 N 1.11038 0.80846 0.04131
 N1170 N 1.12743 0.81651 0.03332
 C1171 C 1.16431 0.82055 0.03287
 C1172 C 1.17946 0.82878 0.02610
 C1173 C 1.09306 0.78676 0.06631
 C1174 C 1.07778 0.78002 0.07435
 C1175 C 0.64625 0.31088 0.54112
 N1176 N 0.64731 0.29723 0.55694
 N1177 N 0.63026 0.28918 0.56493
 C1178 C 0.61164 0.29454 0.55736
 N1179 N 0.61058 0.30816 0.54152
 N1180 N 0.62763 0.31621 0.53353
 C1181 C 0.66453 0.32014 0.53299
 C1182 C 0.67968 0.32837 0.52623
 C1183 C 0.59327 0.28640 0.56647
 C1184 C 0.57799 0.27968 0.57453
 C1185 C 0.36238 0.19077 0.53979
 N1186 N 0.38113 0.18349 0.53412
 N1187 N 0.39808 0.19150 0.54184
 C1188 C 0.39679 0.20704 0.55546
 N1189 N 0.37804 0.21436 0.56109
 N1190 N 0.36109 0.20635 0.55337
 C1191 C 0.34415 0.18123 0.53251
 C1192 C 0.32899 0.17264 0.52678
 C1193 C 0.41494 0.21472 0.56486
 C1194 C 0.42997 0.22083 0.57340
 C1195 C 0.86209 0.69088 0.03987
 N1196 N 0.88082 0.68347 0.03430
 N1197 N 0.89779 0.69150 0.04195
 C1198 C 0.89655 0.70719 0.05539
 N1199 N 0.87781 0.71464 0.06092
 N1200 N 0.86084 0.70661 0.05328
 C1201 C 0.84383 0.68132 0.03268
 C1202 C 0.82865 0.67272 0.02701
 C1203 C 0.91470 0.71490 0.06473
 C1204 C 0.92975 0.72104 0.07324
 C1205 C 0.64627 0.68849 0.95414
 N1206 N 0.64716 0.70126 0.93759
 N1207 N 0.62999 0.70860 0.92923
 C1208 C 0.61141 0.70340 0.93714
 N1209 N 0.61052 0.69066 0.95371
 N1210 N 0.62769 0.68332 0.96209
 C1211 C 0.66469 0.67980 0.96258
 C1212 C 0.67998 0.67199 0.96956
 C1213 C 0.59294 0.71056 0.92752
 C1214 C 0.57761 0.71636 0.91895
 C1215 C 0.14666 0.18825 0.45364
 N1216 N 0.14751 0.20081 0.43693
 N1217 N 0.13032 0.20814 0.42858
 C1218 C 0.11177 0.20312 0.43668
 N1219 N 0.11092 0.19058 0.45340
 N1220 N 0.12811 0.18326 0.46175
 C1221 C 0.16510 0.17958 0.46207
 C1222 C 0.18039 0.17179 0.46904
 C1223 C 0.09328 0.21027 0.42709
 C1224 C 0.07791 0.21606 0.41857
 C1225 C 0.55792 0.10893 0.71296
 N1226 N 0.56420 0.12789 0.71824
 N1227 N 0.55617 0.14453 0.70924
 C1228 C 0.54160 0.14269 0.69469
 N1229 N 0.53528 0.12373 0.68945
 N1230 N 0.54332 0.10710 0.69844
 C1231 C 0.56761 0.09102 0.72157
 C1232 C 0.57629 0.07603 0.72830
 C1233 C 0.53397 0.16049 0.68402
 C1234 C 0.52802 0.17534 0.67456
 C1235 C 1.05755 0.60889 0.21238
 N1236 N 1.06388 0.62783 0.21773
 N1237 N 1.05587 0.64451 0.20879
 C1238 C 1.04130 0.64275 0.19423
 N1239 N 1.03493 0.62382 0.18893
 N1240 N 1.04294 0.60714 0.19787
 C1241 C 1.06721 0.59094 0.22094
 C1242 C 1.07586 0.57592 0.22763
 C1243 C 1.03371 0.66060 0.18362
 C1244 C 1.02778 0.67548 0.17420
 C1245 C 0.94817 0.89112 0.20972
 N1246 N 0.95974 0.89309 0.19241
 N1247 N 0.96800 0.87661 0.18354
 C1248 C 0.96493 0.85766 0.19171
 N1249 N 0.95341 0.85569 0.20905
 N1250 N 0.94515 0.87218 0.21793
 C1251 C 0.93794 0.90865 0.21832
 C1252 C 0.92871 0.92323 0.22508
 C1253 C 0.97243 0.83980 0.18127
 C1254 C 0.97804 0.82479 0.17208
 C1255 C 0.44852 0.39086 0.71007
 N1256 N 0.45997 0.39284 0.69268
 N1257 N 0.46820 0.37637 0.68376
 C1258 C 0.46522 0.35742 0.69196
 N1259 N 0.45382 0.35544 0.70939
 N1260 N 0.44560 0.37191 0.71830
 C1261 C 0.43832 0.40837 0.71873
 C1262 C 0.42911 0.42294 0.72555
 C1263 C 0.47269 0.33957 0.68149
 C1264 C 0.47829 0.32457 0.67228
 C1265 C 0.44432 0.60523 0.78757
 N1266 N 0.43550 0.62390 0.78436
 N1267 N 0.44393 0.64070 0.79193
 C1268 C 0.46144 0.63934 0.80293
 N1269 N 0.47030 0.62068 0.80608
 N1270 N 0.46187 0.60388 0.79851
 C1271 C 0.43440 0.58702 0.78081
 C1272 C 0.42564 0.57171 0.77578
 C1273 C 0.46962 0.65717 0.81244
 C1274 C 0.47607 0.67198 0.82110
 C1275 C -0.05590 0.10540 0.28696
 N1276 N -0.06466 0.12411 0.28384
 N1277 N -0.05617 0.14085 0.29148
 C1278 C -0.03867 0.13938 0.30248
 N1279 N -0.02987 0.12068 0.30555
 N1280 N -0.03835 0.10395 0.29790
 C1281 C -0.06588 0.08726 0.28013
 C1282 C -0.07469 0.07200 0.27506
 C1283 C -0.03044 0.15715 0.31207
 C1284 C -0.02395 0.17189 0.32079
 C1285 C 0.05512 0.39118 0.28841
 N1286 N 0.06164 0.37283 0.28107
 N1287 N 0.05375 0.35544 0.28844
 C1288 C 0.03910 0.35587 0.30336
 N1289 N 0.03253 0.37422 0.31063
 N1290 N 0.04042 0.39161 0.30327
 C1291 C 0.06491 0.40975 0.28182
 C1292 C 0.07373 0.42523 0.27692
 C1293 C 0.03201 0.33715 0.31261
 C1294 C 0.02676 0.32148 0.32102
 C1295 C 0.55563 0.89129 0.78864
 N1296 N 0.56220 0.87294 0.78138
 N1297 N 0.55424 0.85555 0.78868
 C1298 C 0.53946 0.85600 0.80347
 N1299 N 0.53284 0.87436 0.81069
 N1300 N 0.54080 0.89174 0.80338
 C1301 C 0.56548 0.90985 0.78212
 C1302 C 0.57433 0.92533 0.77727
 C1303 C 0.53229 0.83729 0.81268
 C1304 C 0.52697 0.82164 0.82107
 C1305 C 0.71261 0.55805 0.10801
 N1306 N 0.71802 0.56427 0.12698
 N1307 N 0.70907 0.55624 0.14366
 C1308 C 0.69445 0.54175 0.14187
 N1309 N 0.68908 0.53549 0.12290
 N1310 N 0.69803 0.54352 0.10622
 C1311 C 0.72117 0.56775 0.09006
 C1312 C 0.72785 0.57645 0.07504
 C1313 C 0.68383 0.53414 0.15972
 C1314 C 0.67442 0.52820 0.17461
 C1315 C 0.21254 1.05700 0.60918
 N1316 N 0.21799 1.06326 0.62812
 N1317 N 0.20905 1.05531 0.64484
 C1318 C 0.19438 1.04085 0.64312
 N1319 N 0.18897 1.03455 0.62418
 N1320 N 0.19791 1.04250 0.60746
 C1321 C 0.22110 1.06661 0.59119
 C1322 C 0.22779 1.07523 0.57613
 C1323 C 0.18377 1.03332 0.66101
 C1324 C 0.17438 1.02744 0.67593
 C1325 C 0.21041 0.94807 0.89176
 N1326 N 0.19307 0.95955 0.89378
 N1327 N 0.18414 0.96782 0.87731
 C1328 C 0.19228 0.96486 0.85832
 N1329 N 0.20966 0.95344 0.85631
 N1330 N 0.21860 0.94516 0.87278
 C1331 C 0.21907 0.93780 0.90927
 C1332 C 0.22587 0.92852 0.92383
 C1333 C 0.18178 0.97236 0.84048
 C1334 C 0.17254 0.97798 0.82548
 C1335 C 0.71027 0.44877 0.39046
 N1336 N 0.69296 0.46030 0.39245
 N1337 N 0.68404 0.46855 0.37596
 C1338 C 0.69216 0.46552 0.35698
 N1339 N 0.70951 0.45404 0.35499
 N1340 N 0.71843 0.44579 0.37148
 C1341 C 0.71892 0.43855 0.40799
 C1342 C 0.72573 0.42932 0.42258
 C1343 C 0.68167 0.47301 0.33913
 C1344 C 0.67245 0.47861 0.32411
 C1345 C 0.78742 0.44437 0.60519
 N1346 N 0.79840 0.46189 0.60384
 N1347 N 0.80595 0.47030 0.62067
 C1348 C 0.80275 0.46145 0.63935
 N1349 N 0.79171 0.44397 0.64070
 N1350 N 0.78416 0.43555 0.62387
 C1351 C 0.78067 0.43446 0.58695
 C1352 C 0.77566 0.42572 0.57162
 C1353 C 0.81224 0.46960 0.65722
 C1354 C 0.82087 0.47603 0.67205
 C1355 C 0.28750 -0.05525 0.10481
 N1356 N 0.29859 -0.03781 0.10345
 N1357 N 0.30623 -0.02945 0.12027
 C1358 C 0.30300 -0.03828 0.13895
 N1359 N 0.29185 -0.05569 0.14031
 N1360 N 0.28421 -0.06405 0.12350
 C1361 C 0.28067 -0.06512 0.08658
 C1362 C 0.27560 -0.07384 0.07126
 C1363 C 0.31257 -0.03019 0.15681
 C1364 C 0.32127 -0.02382 0.17163
 C1365 C 0.28856 0.05444 0.39124
 N1366 N 0.30343 0.03976 0.39171
 N1367 N 0.31083 0.03188 0.37433
 C1368 C 0.30357 0.03845 0.35594
 N1369 N 0.28864 0.05307 0.35546
 N1370 N 0.28125 0.06094 0.37285
 C1371 C 0.28194 0.06421 0.40980
 C1372 C 0.27703 0.07303 0.42528
 C1373 C 0.31286 0.03139 0.33722
 C1374 C 0.32129 0.02617 0.32156
 C1375 C 0.78784 0.55450 0.89170
 N1376 N 0.80266 0.53977 0.89216
 N1377 N 0.81003 0.53190 0.87476
 C1378 C 0.80280 0.53852 0.85638
 N1379 N 0.78792 0.55320 0.85593
 N1380 N 0.78055 0.56106 0.87332
 C1381 C 0.78126 0.56427 0.91028
 C1382 C 0.77638 0.57309 0.92577
 C1383 C 0.81207 0.53147 0.83765
 C1384 C 0.82051 0.52626 0.82199
 C1385 C 0.10858 0.71285 0.55772
 N1386 N 0.10683 0.69833 0.54312
 N1387 N 0.12351 0.68944 0.53509
 C1388 C 0.14245 0.69479 0.54142
 N1389 N 0.14421 0.70935 0.55598
 N1390 N 0.12752 0.71824 0.56401
 C1391 C 0.09063 0.72135 0.56740
 C1392 C 0.07561 0.72800 0.57608
 C1393 C 0.16031 0.68422 0.53380
 C1394 C 0.17520 0.67485 0.52786
 C1395 C 0.60918 0.21251 1.05718
 N1396 N 0.60742 0.19796 1.04261
 N1397 N 0.62409 0.18904 1.03460
 C1398 C 0.64303 0.19439 1.04092
 N1399 N 0.64480 0.20898 1.05544
 N1400 N 0.62812 0.21790 1.06345
 C1401 C 0.59123 0.22105 1.06684
 C1402 C 0.57622 0.22773 1.07551
 C1403 C 0.66088 0.18379 1.03333
 C1404 C 0.67577 0.17439 1.02741
 C1405 C 0.89152 0.21008 0.94794
 N1406 N 0.89349 0.19272 0.95944
 N1407 N 0.87700 0.18382 0.96770
 C1408 C 0.85805 0.19201 0.96471
 N1409 N 0.85609 0.20940 0.95327
 N1410 N 0.87258 0.21830 0.94501
 C1411 C 0.90904 0.21871 0.93769
 C1412 C 0.92361 0.22550 0.92843
 C1413 C 0.84020 0.18155 0.97221
 C1414 C 0.82518 0.17235 0.97783
 C1415 C 0.39086 0.71077 0.44802
 N1416 N 0.39285 0.69350 0.45966
 N1417 N 0.37637 0.68462 0.46794
 C1418 C 0.35740 0.69273 0.46484
 N1419 N 0.35542 0.71003 0.45326
 N1420 N 0.37191 0.71892 0.44498
 C1421 C 0.40839 0.71938 0.43777
 C1422 C 0.42297 0.72615 0.42852
 C1423 C 0.33956 0.68227 0.47237
 C1424 C 0.32455 0.67307 0.47802
 C1425 C 0.60519 0.78793 0.44395
 N1426 N 0.62391 0.78474 0.43523
 N1427 N 0.64066 0.79232 0.44375
 C1428 C 0.63920 0.80332 0.46125
 N1429 N 0.62049 0.80646 0.47001
 N1430 N 0.60374 0.79888 0.46149
 C1431 C 0.58703 0.78115 0.43393
 C1432 C 0.57177 0.77612 0.42510
 C1433 C 0.65700 0.81284 0.46952
 C1434 C 0.67177 0.82150 0.47604
 C1435 C 0.10459 0.28691 -0.05499
 N1436 N 0.12325 0.28356 -0.06378
 N1437 N 0.14009 0.29113 -0.05541
 C1438 C 0.13878 0.30227 -0.03799
 N1439 N 0.12013 0.30556 -0.02915
 N1440 N 0.10329 0.29799 -0.03752
 C1441 C 0.08635 0.28015 -0.06486
 C1442 C 0.07102 0.27514 -0.07359
 C1443 C 0.15666 0.31177 -0.02990
 C1444 C 0.17151 0.32041 -0.02351
 C1445 C 0.39122 0.28778 0.05501
 N1446 N 0.39161 0.30251 0.04016
 N1447 N 0.37419 0.30982 0.03229
 C1448 C 0.35585 0.30261 0.03903
 N1449 N 0.35547 0.28782 0.05382
 N1450 N 0.37289 0.28051 0.06169
 C1451 C 0.40983 0.28127 0.06478
 C1452 C 0.42534 0.27644 0.07358
 C1453 C 0.33711 0.31182 0.03196
 C1454 C 0.32143 0.32021 0.02673
 C1455 C 0.89098 0.78861 0.55523
 N1456 N 0.89150 0.80346 0.54051
 N1457 N 0.87416 0.81085 0.53256
 C1458 C 0.85576 0.80362 0.53909
 N1459 N 0.85524 0.78871 0.55376
 N1460 N 0.87259 0.78131 0.56171
 C1461 C 0.90951 0.78199 0.56509
 C1462 C 0.92495 0.77707 0.57396
 C1463 C 0.83708 0.81291 0.53195
 C1464 C 0.82145 0.82135 0.52667
   
