data_POSCAR
  _audit_creation_date              2014-09-24
  _audit_creation_method            'ToBaCCo'
  _symmetry_space_group_name_H-M    'P1'
  _symmetry_Int_Tables_number       1
  _symmetry_cell_setting            triclinic
  loop_
  _symmetry_equiv_pos_as_xyz
 x,y,z
_cell_length_a 62.2201
_cell_length_b 62.2192
_cell_length_c 62.2961
_cell_angle_alpha 90.042800
_cell_angle_beta 89.998100
_cell_angle_gamma 90.021900
loop_
  _atom_site_label
  _atom_site_type_symbol
  _atom_site_fract_x
  _atom_site_fract_y
  _atom_site_fract_z
C1 C 0.19181 0.21176 0.22205
 N2 N 0.19510 0.22521 0.20523
 C3 C 0.21189 0.22186 0.19173
 N4 N 0.22539 0.20507 0.19506
 C5 C 0.22210 0.19162 0.21188
 N6 N 0.20531 0.19496 0.22538
 C7 C 0.69167 0.71220 0.72193
 N8 N 0.70512 0.69535 0.72521
 C9 C 0.72192 0.69201 0.71171
 N10 N 0.72526 0.70551 0.69494
 C11 C 0.71180 0.72236 0.69167
 N12 N 0.69501 0.72570 0.70516
 C13 C 0.30769 0.78862 0.72228
 N14 N 0.29422 0.80546 0.72558
 C15 C 0.27742 0.80878 0.71209
 N16 N 0.27410 0.79527 0.69530
 C17 C 0.28757 0.77844 0.69200
 N18 N 0.30436 0.77512 0.70549
 C19 C 0.80875 0.28789 0.22242
 N20 N 0.80549 0.27438 0.20562
 C21 C 0.78871 0.27766 0.19209
 N22 N 0.77519 0.29446 0.19537
 C23 C 0.77844 0.30796 0.21217
 N24 N 0.79522 0.30468 0.22569
 C25 C 0.80846 0.71230 0.27790
 N26 N 0.80520 0.72582 0.29469
 C27 C 0.78843 0.72253 0.30823
 N28 N 0.77492 0.70571 0.30497
 C29 C 0.77818 0.69219 0.28819
 N30 N 0.79495 0.69548 0.27465
 C31 C 0.30831 0.21158 -0.22260
 N32 N 0.30496 0.22510 -0.20582
 C33 C 0.28812 0.22180 -0.19238
 N34 N 0.27463 0.20498 -0.19571
 C35 C 0.27797 0.19146 -0.21249
 N36 N 0.29481 0.19476 -0.22593
 C37 C 0.69206 0.28812 -0.22181
 N38 N 0.70553 0.30495 -0.22512
 C39 C 0.72238 0.30827 -0.21168
 N40 N 0.72574 0.29477 -0.19492
 C41 C 0.71226 0.27794 -0.19160
 N42 N 0.69542 0.27462 -0.20504
 C43 C 0.19215 0.78827 0.27764
 N44 N 0.20567 0.80507 0.27436
 C45 C 0.22244 0.80841 0.28790
 N46 N 0.22568 0.79494 0.30471
 C47 C 0.21216 0.77814 0.30799
 N48 N 0.19540 0.77480 0.29446
 C49 C 0.46183 0.44164 0.47243
 N50 N 0.44502 0.45514 0.47572
 C51 C 0.44172 0.47193 0.46223
 N52 N 0.45523 0.47521 0.44544
 C53 C 0.47203 0.46171 0.44215
 N54 N 0.47533 0.44492 0.45565
 C55 C -0.03798 -0.05784 0.97182
 N56 N -0.02449 -0.05451 0.95503
 C57 C -0.02779 -0.03768 0.94159
 N58 N -0.04459 -0.02419 0.94493
 C59 C -0.05809 -0.02752 0.96172
 N60 N -0.05478 -0.04435 0.97516
 C61 C 1.03771 0.55853 0.97217
 N62 N 1.02421 0.55522 0.95539
 C63 C 1.02749 0.53839 0.94191
 N64 N 1.04428 0.52488 0.94521
 C65 C 1.05778 0.52819 0.96200
 N66 N 1.05450 0.54502 0.97547
 C67 C 0.53840 0.05774 0.47238
 N68 N 0.55524 0.04429 0.47567
 C69 C 0.55860 0.02750 0.46216
 N70 N 0.54512 0.02417 0.44536
 C71 C 0.52828 0.03762 0.44207
 N72 N 0.52492 0.05440 0.45558
 C73 C -0.03835 0.05833 0.52793
 N74 N -0.05517 0.04483 0.52465
 C75 C -0.05846 0.02803 0.53813
 N76 N -0.04493 0.02472 0.55489
 C77 C -0.02811 0.03822 0.55817
 N78 N -0.02482 0.05503 0.54469
 C79 C 0.46195 0.55826 0.02798
 N80 N 0.47544 0.55494 0.04477
 C81 C 0.47212 0.53812 0.05823
 N82 N 0.45531 0.52462 0.05490
 C83 C 0.44182 0.52795 0.03811
 N84 N 0.44514 0.54476 0.02465
 C85 C 0.53810 -0.05857 0.02773
 N86 N 0.55492 -0.04507 0.02445
 C87 C 0.55827 -0.02830 0.03798
 N88 N 0.54480 -0.02502 0.05479
 C89 C 0.52798 -0.03851 0.05808
 N90 N 0.52463 -0.05528 0.04455
 C91 C 1.03759 0.44136 0.52750
 N92 N 1.05438 0.45489 0.52422
 C93 C 1.05769 0.47167 0.53775
 N94 N 1.04422 0.47492 0.55456
 C95 C 1.02743 0.46140 0.55785
 N96 N 1.02411 0.44462 0.54432
 C97 C 0.40792 0.00951 0.22127
 H98 H 0.40879 0.02410 0.23069
 C99 C 0.42193 0.00647 0.20402
 H100 H 0.43359 0.01877 0.20005
 C101 C 0.39187 -0.02452 0.21506
 H102 H 0.38039 -0.03671 0.21961
 C103 C 0.40559 -0.02821 0.19769
 H104 H 0.40448 -0.04312 0.18878
 N105 N 0.39311 -0.00578 0.22629
 C106 C 0.34225 0.02849 0.26028
 H107 H 0.34139 0.01909 0.27486
 C108 C 0.32825 0.04576 0.25724
 H109 H 0.31660 0.04976 0.26954
 C110 C 0.35825 0.03462 0.22626
 H111 H 0.36971 0.03004 0.21408
 C112 C 0.34454 0.05201 0.22258
 H113 H 0.34563 0.06089 0.20767
 Zn114 Zn 0.37506 -0.00053 0.25020
 N115 N 0.35704 0.02342 0.24499
 C116 C 0.39195 0.02342 0.28534
 N117 N 0.39312 0.00467 0.27411
 C118 C 0.40789 -0.01065 0.27913
 C119 C 0.42193 -0.00763 0.29637
 C120 C 0.40569 0.02709 0.30269
 C121 C 0.34216 -0.02947 0.24011
 C122 C 0.32811 -0.04671 0.24312
 C123 C 0.34438 -0.05305 0.27777
 C124 C 0.35815 -0.03568 0.27411
 N125 N 0.35696 -0.02445 0.25540
 H126 H 0.38050 0.03563 0.28080
 H127 H 0.40871 -0.02524 0.26971
 H128 H 0.43357 -0.01995 0.30032
 H129 H 0.40463 0.04201 0.31159
 H130 H 0.34133 -0.02004 0.22554
 H131 H 0.31645 -0.05067 0.23082
 H132 H 0.34545 -0.06195 0.29266
 H133 H 0.36962 -0.03114 0.28630
 C134 C 0.32945 0.05764 0.23824
 C135 C 0.42070 -0.01254 0.19210
 C136 C 0.32928 -0.05863 0.26210
 C137 C 0.42077 0.01139 0.30827
 C138 C 0.09255 -0.00984 0.72085
 H139 H 0.09172 -0.02442 0.73028
 C140 C 0.07850 -0.00684 0.70364
 H141 H 0.06683 -0.01916 0.69970
 C142 C 0.10855 0.02420 0.71461
 H143 H 0.12003 0.03641 0.71913
 C144 C 0.09479 0.02784 0.69727
 H145 H 0.09586 0.04275 0.68837
 N146 N 0.10736 0.00547 0.72584
 C147 C 0.15826 -0.02868 0.75983
 H148 H 0.15912 -0.01923 0.77439
 C149 C 0.17226 -0.04597 0.75682
 H150 H 0.18391 -0.04993 0.76912
 C151 C 0.14224 -0.03493 0.72584
 H152 H 0.13078 -0.03039 0.71365
 C153 C 0.15595 -0.05233 0.72218
 H154 H 0.15485 -0.06126 0.70729
 Zn155 Zn 0.12543 0.00029 0.74974
 N156 N 0.14346 -0.02366 0.74454
 C157 C 0.10856 -0.02361 0.78488
 N158 N 0.10739 -0.00487 0.77367
 C159 C 0.09262 0.01046 0.77870
 C160 C 0.07859 0.00746 0.79594
 C161 C 0.09482 -0.02725 0.80224
 C162 C 0.15829 0.02925 0.73959
 C163 C 0.17233 0.04650 0.74259
 C164 C 0.15611 0.05286 0.77727
 C165 C 0.14235 0.03548 0.77363
 N166 N 0.14352 0.02423 0.75491
 H167 H 0.12001 -0.03583 0.78033
 H168 H 0.09180 0.02504 0.76929
 H169 H 0.06695 0.01978 0.79990
 H170 H 0.09588 -0.04217 0.81113
 H171 H 0.15911 0.01981 0.72502
 H172 H 0.18397 0.05046 0.73028
 H173 H 0.15506 0.06178 0.79218
 H174 H 0.13090 0.03095 0.78583
 C175 C 0.17104 -0.05792 0.73785
 C176 C 0.07968 0.01216 0.69172
 C177 C 0.17118 0.05844 0.76159
 C178 C 0.07975 -0.01155 0.80783
 C179 C 0.59226 0.48981 0.22124
 H180 H 0.59142 0.47521 0.23062
 C181 C 0.57825 0.49284 0.20399
 H182 H 0.56660 0.48052 0.19999
 C183 C 0.60824 0.52388 0.21512
 H184 H 0.61969 0.53609 0.21969
 C185 C 0.59451 0.52756 0.19776
 H186 H 0.59559 0.54249 0.18889
 N187 N 0.60704 0.50513 0.22630
 C188 C 0.65794 0.47095 0.26026
 H189 H 0.65877 0.48036 0.27485
 C190 C 0.67197 0.45370 0.25722
 H191 H 0.68362 0.44973 0.26952
 C192 C 0.64198 0.46478 0.22623
 H193 H 0.63052 0.46933 0.21404
 C194 C 0.65572 0.44741 0.22254
 H195 H 0.65465 0.43852 0.20762
 Zn196 Zn 0.62509 0.49991 0.25021
 N197 N 0.64316 0.47599 0.24497
 C198 C 0.60824 0.47591 0.28530
 N199 N 0.60703 0.49467 0.27411
 C200 C 0.59223 0.50996 0.27916
 C201 C 0.57822 0.50691 0.29640
 C202 C 0.59451 0.47222 0.30265
 C203 C 0.65793 0.52891 0.24017
 C204 C 0.67194 0.54618 0.24321
 C205 C 0.65565 0.55247 0.27787
 C206 C 0.64193 0.53508 0.27418
 N207 N 0.64314 0.52386 0.25545
 H208 H 0.61971 0.46372 0.28073
 H209 H 0.59138 0.52455 0.26977
 H210 H 0.56656 0.51921 0.30039
 H211 H 0.59561 0.45730 0.31153
 H212 H 0.65878 0.51949 0.22559
 H213 H 0.68359 0.55017 0.23092
 H214 H 0.65456 0.56137 0.29278
 H215 H 0.63047 0.53051 0.28637
 C216 C 0.67080 0.44180 0.23821
 C217 C 0.57944 0.51187 0.19212
 C218 C 0.67074 0.55809 0.26221
 C219 C 0.57942 0.48789 0.30828
 C220 C 0.90738 0.50959 0.72101
 H221 H 0.90824 0.52420 0.73039
 C222 C 0.92140 0.50652 0.70376
 H223 H 0.93305 0.51882 0.69977
 C224 C 0.89138 0.47552 0.71488
 H225 H 0.87991 0.46333 0.71946
 C226 C 0.90510 0.47181 0.69752
 H227 H 0.90400 0.45686 0.68865
 N228 N 0.89259 0.49429 0.72607
 C229 C 0.84168 0.52858 0.75997
 H230 H 0.84083 0.51920 0.77456
 C231 C 0.82769 0.54585 0.75691
 H232 H 0.81604 0.54988 0.76920
 C233 C 0.85769 0.53467 0.72595
 H234 H 0.86916 0.53007 0.71377
 C235 C 0.84399 0.55206 0.72225
 H236 H 0.84509 0.56093 0.70733
 Zn237 Zn 0.87453 0.49958 0.74996
 N238 N 0.85648 0.52349 0.74469
 C239 C 0.89138 0.52368 0.78501
 N240 N 0.89258 0.50489 0.77386
 C241 C 0.90738 0.48961 0.77894
 C242 C 0.92139 0.49271 0.79618
 C243 C 0.90510 0.52742 0.80237
 C244 C 0.84168 0.47054 0.73997
 C245 C 0.82767 0.45328 0.74304
 C246 C 0.84395 0.44711 0.77772
 C247 C 0.85768 0.46449 0.77400
 N248 N 0.85647 0.47565 0.75524
 H249 H 0.87991 0.53586 0.78042
 H250 H 0.90822 0.47498 0.76958
 H251 H 0.93304 0.48042 0.80019
 H252 H 0.90401 0.54238 0.81122
 H253 H 0.84084 0.47991 0.72537
 H254 H 0.81602 0.44925 0.73076
 H255 H 0.84504 0.43826 0.79265
 H256 H 0.86914 0.46910 0.78617
 C257 C 0.82891 0.55772 0.73790
 C258 C 0.92019 0.48748 0.69189
 C259 C 0.82886 0.44144 0.76207
 C260 C 0.92019 0.51177 0.80802
 C261 C 0.22073 0.40760 0.00986
 H262 H 0.23016 0.40842 0.02443
 C263 C 0.20348 0.42164 0.00688
 H264 H 0.19952 0.43328 0.01920
 C265 C 0.21452 0.39166 -0.02418
 H266 H 0.21906 0.38022 -0.03640
 C267 C 0.19715 0.40541 -0.02781
 H268 H 0.18824 0.40435 -0.04272
 N269 N 0.22575 0.39283 -0.00546
 C270 C 0.25982 0.34190 0.02856
 H271 H 0.27440 0.34108 0.01913
 C272 C 0.25682 0.32787 0.04579
 H273 H 0.26914 0.31623 0.04973
 C274 C 0.22576 0.35786 0.03480
 H275 H 0.21355 0.36932 0.03028
 C276 C 0.22212 0.34412 0.05215
 H277 H 0.20721 0.34519 0.06107
 Zn278 Zn 0.24969 0.37478 -0.00031
 N279 N 0.24450 0.35668 0.02356
 C280 C 0.28486 0.39163 0.02365
 N281 N 0.27363 0.39285 0.00494
 C282 C 0.27865 0.40767 -0.01032
 C283 C 0.29590 0.42170 -0.00727
 C284 C 0.30223 0.40537 0.02735
 C285 C 0.23960 0.34197 -0.02933
 C286 C 0.24264 0.32798 -0.04660
 C287 C 0.27734 0.34429 -0.05286
 C288 C 0.27366 0.35800 -0.03547
 N289 N 0.25491 0.35677 -0.02426
 H290 H 0.28031 0.38014 0.03581
 H291 H 0.26922 0.40853 -0.02489
 H292 H 0.29987 0.43338 -0.01954
 H293 H 0.31114 0.40428 0.04225
 H294 H 0.22501 0.34111 -0.01992
 H295 H 0.23034 0.31632 -0.05059
 H296 H 0.29226 0.34539 -0.06174
 H297 H 0.28585 0.36946 -0.03089
 C298 C 0.23782 0.32905 0.05771
 C299 C 0.19156 0.42048 -0.01212
 C300 C 0.26166 0.32919 -0.05849
 C301 C 0.30782 0.42049 0.01172
 C302 C 0.72164 0.09178 -0.01011
 H303 H 0.73105 0.09093 -0.02469
 C304 C 0.70436 0.07777 -0.00709
 H305 H 0.70037 0.06612 -0.01940
 C306 C 0.71548 0.10777 0.02392
 H307 H 0.72005 0.11923 0.03611
 C308 C 0.69808 0.09405 0.02758
 H309 H 0.68918 0.09514 0.04249
 N310 N 0.72670 0.10657 0.00519
 C311 C 0.76072 0.15749 -0.02892
 H312 H 0.77532 0.15834 -0.01951
 C313 C 0.75769 0.17153 -0.04613
 H314 H 0.77000 0.18319 -0.05009
 C315 C 0.72666 0.14150 -0.03510
 H316 H 0.71446 0.13002 -0.03056
 C317 C 0.72298 0.15524 -0.05244
 H318 H 0.70805 0.15416 -0.06132
 Zn319 Zn 0.75064 0.12462 -0.00002
 N320 N 0.74542 0.14269 -0.02390
 C321 C 0.78579 0.10779 -0.02400
 N322 N 0.77457 0.10657 -0.00527
 C323 C 0.77962 0.09177 0.00999
 C324 C 0.79688 0.07776 0.00693
 C325 C 0.80317 0.09407 -0.02770
 C326 C 0.74059 0.15746 0.02896
 C327 C 0.74363 0.17147 0.04622
 C328 C 0.77832 0.15517 0.05249
 C329 C 0.77463 0.14145 0.03512
 N330 N 0.75588 0.14266 0.02391
 H331 H 0.78123 0.11927 -0.03616
 H332 H 0.77021 0.09091 0.02457
 H333 H 0.80087 0.06609 0.01921
 H334 H 0.81207 0.09518 -0.04261
 H335 H 0.72600 0.15831 0.01956
 H336 H 0.73132 0.18312 0.05021
 H337 H 0.79324 0.15408 0.06138
 H338 H 0.78682 0.12999 0.03055
 C339 C 0.73866 0.17034 -0.05802
 C340 C 0.69245 0.07897 0.01190
 C341 C 0.76265 0.17027 0.05812
 C342 C 0.80879 0.07897 -0.01206
 C343 C 0.22072 0.59230 0.48987
 H344 H 0.23018 0.59147 0.47531
 C345 C 0.20347 0.57825 0.49284
 H346 H 0.19954 0.56658 0.48053
 C347 C 0.21444 0.60829 0.52387
 H348 H 0.21895 0.61976 0.53608
 C349 C 0.19707 0.59453 0.52750
 H350 H 0.18813 0.59559 0.54238
 N351 N 0.22571 0.60710 0.50518
 C352 C 0.25982 0.65800 0.47111
 H353 H 0.27439 0.65885 0.48055
 C354 C 0.25683 0.67201 0.45387
 H355 H 0.26915 0.68366 0.44992
 C356 C 0.22577 0.64200 0.46486
 H357 H 0.21355 0.63054 0.46939
 C358 C 0.22213 0.65573 0.44750
 H359 H 0.20723 0.65464 0.43858
 Zn360 Zn 0.24965 0.62517 0.50003
 N361 N 0.24449 0.64321 0.47611
 C362 C 0.28487 0.60830 0.47618
 N363 N 0.27360 0.60712 0.49488
 C364 C 0.27860 0.59234 0.51018
 C365 C 0.29585 0.57830 0.50718
 C366 C 0.30224 0.59456 0.47254
 C367 C 0.23948 0.65802 0.52896
 C368 C 0.24247 0.67206 0.54621
 C369 C 0.27717 0.65583 0.55256
 C370 C 0.27353 0.64207 0.53520
 N371 N 0.25481 0.64325 0.52396
 H372 H 0.28034 0.61976 0.46398
 H373 H 0.26915 0.59151 0.52473
 H374 H 0.29979 0.56666 0.51949
 H375 H 0.31117 0.59562 0.45765
 H376 H 0.22490 0.65884 0.51953
 H377 H 0.23014 0.68371 0.55016
 H378 H 0.29208 0.65477 0.56148
 H379 H 0.28575 0.63062 0.53067
 C380 C 0.23784 0.67081 0.44193
 C381 C 0.19152 0.57942 0.51181
 C382 C 0.26147 0.67090 0.55814
 C383 C 0.30780 0.57947 0.48821
 C384 C 0.72115 0.90856 0.51019
 H385 H 0.73055 0.90942 0.52478
 C386 C 0.70386 0.92253 0.50716
 H387 H 0.69984 0.93417 0.51946
 C388 C 0.71506 0.89255 0.47616
 H389 H 0.71965 0.88110 0.46397
 C390 C 0.69765 0.90624 0.47248
 H391 H 0.68877 0.90513 0.45756
 N392 N 0.72625 0.89378 0.49490
 C393 C 0.76029 0.84292 0.52905
 H394 H 0.77490 0.84211 0.51967
 C395 C 0.75724 0.82887 0.54626
 H396 H 0.76956 0.81723 0.55023
 C397 C 0.72620 0.85885 0.53519
 H398 H 0.71399 0.87029 0.53063
 C399 C 0.72251 0.84509 0.55251
 H400 H 0.70756 0.84613 0.56137
 Zn401 Zn 0.75021 0.87576 0.50013
 N402 N 0.74497 0.85769 0.52402
 C403 C 0.78534 0.89266 0.52412
 N404 N 0.77412 0.89385 0.50539
 C405 C 0.77917 0.90865 0.49011
 C406 C 0.79643 0.92267 0.49315
 C407 C 0.80272 0.90639 0.52780
 C408 C 0.74020 0.84289 0.47117
 C409 C 0.74326 0.82886 0.45393
 C410 C 0.77795 0.84520 0.44767
 C411 C 0.77424 0.85894 0.46503
 N412 N 0.75548 0.85771 0.47622
 H413 H 0.78077 0.88119 0.53629
 H414 H 0.76976 0.90948 0.47553
 H415 H 0.80042 0.93432 0.48086
 H416 H 0.81162 0.90531 0.54271
 H417 H 0.72560 0.84203 0.48056
 H418 H 0.73097 0.81719 0.44994
 H419 H 0.79288 0.84631 0.43880
 H420 H 0.78642 0.87043 0.46960
 C421 C 0.73820 0.83002 0.55812
 C422 C 0.69198 0.92131 0.48814
 C423 C 0.76229 0.83008 0.44205
 C424 C 0.80834 0.92148 0.51215
 C425 C 0.00977 0.22143 0.40777
 H426 H 0.02435 0.23087 0.40862
 C427 C 0.00673 0.20419 0.42179
 H428 H 0.01903 0.20024 0.43344
 C429 C -0.02427 0.21518 0.39177
 H430 H -0.03646 0.21971 0.38030
 C431 C -0.02795 0.19782 0.40549
 H432 H -0.04286 0.18890 0.40441
 N433 N -0.00553 0.22643 0.39298
 C434 C 0.02872 0.26040 0.34215
 H435 H 0.01931 0.27500 0.34129
 C436 C 0.04598 0.25735 0.32815
 H437 H 0.04997 0.26964 0.31651
 C438 C 0.03487 0.22636 0.35814
 H439 H 0.03029 0.21418 0.36959
 C440 C 0.05225 0.22266 0.34443
 H441 H 0.06114 0.20773 0.34552
 Zn442 Zn -0.00030 0.25034 0.37493
 N443 N 0.02366 0.24511 0.35693
 C444 C 0.02364 0.28554 0.39179
 N445 N 0.00489 0.27431 0.39296
 C446 C -0.01044 0.27935 0.40772
 C447 C -0.00743 0.29661 0.42174
 C448 C 0.02730 0.30292 0.40553
 C449 C -0.02923 0.24018 0.34211
 C450 C -0.04648 0.24317 0.32808
 C451 C -0.05283 0.27789 0.34430
 C452 C -0.03546 0.27425 0.35804
 N453 N -0.02422 0.25552 0.35687
 H454 H 0.03585 0.28098 0.38036
 H455 H -0.02503 0.26992 0.40853
 H456 H -0.01975 0.30058 0.43337
 H457 H 0.04223 0.31182 0.40448
 H458 H -0.01980 0.22559 0.34129
 H459 H -0.05044 0.23083 0.31645
 H460 H -0.06174 0.29281 0.34536
 H461 H -0.03092 0.28648 0.36948
 C462 C 0.05788 0.23832 0.32936
 C463 C -0.01228 0.19226 0.42059
 C464 C -0.05841 0.26217 0.32924
 C465 C 0.01160 0.30852 0.42059
 C466 C -0.00994 0.72089 0.09163
 H467 H -0.02451 0.73033 0.09081
 C468 C -0.00696 0.70361 0.07762
 H469 H -0.01930 0.69965 0.06600
 C470 C 0.02414 0.71467 0.10754
 H471 H 0.03636 0.71922 0.11897
 C472 C 0.02776 0.69727 0.09382
 H473 H 0.04267 0.68835 0.09487
 N474 N 0.00541 0.72592 0.10637
 C475 C -0.02863 0.76005 0.15727
 H476 H -0.01917 0.77463 0.15809
 C477 C -0.04586 0.75707 0.17132
 H478 H -0.04979 0.76940 0.18296
 C479 C -0.03492 0.72599 0.14132
 H480 H -0.03042 0.71377 0.12987
 C481 C -0.05228 0.72237 0.15508
 H482 H -0.06122 0.70746 0.15402
 Zn483 Zn 0.00026 0.74988 0.12441
 N484 N -0.02365 0.74472 0.14249
 C485 C -0.02369 0.78505 0.10762
 N486 N -0.00496 0.77381 0.10638
 C487 C 0.01033 0.77884 0.09159
 C488 C 0.00730 0.79610 0.07760
 C489 C -0.02737 0.80243 0.09392
 C490 C 0.02927 0.73980 0.15718
 C491 C 0.04653 0.74284 0.17119
 C492 C 0.05284 0.77753 0.15493
 C493 C 0.03547 0.77384 0.14121
 N494 N 0.02423 0.75509 0.14241
 H495 H -0.03588 0.78051 0.11909
 H496 H 0.02491 0.76941 0.09072
 H497 H 0.01960 0.80007 0.06594
 H498 H -0.04228 0.81134 0.09503
 H499 H 0.01984 0.72521 0.15803
 H500 H 0.05049 0.73054 0.18283
 H501 H 0.06175 0.79245 0.15385
 H502 H 0.03091 0.78603 0.12976
 C503 C -0.05782 0.73808 0.17016
 C504 C 0.01204 0.69168 0.07877
 C505 C 0.05844 0.76186 0.17000
 C506 C -0.01170 0.80802 0.07883
 C507 C 0.48969 0.22069 0.59272
 H508 H 0.47509 0.23009 0.59187
 C509 C 0.49276 0.20344 0.57870
 H510 H 0.48047 0.19944 0.56704
 C511 C 0.52374 0.21457 0.60872
 H512 H 0.53592 0.21915 0.62018
 C513 C 0.52745 0.19720 0.59499
 H514 H 0.54239 0.18832 0.59608
 N515 N 0.50498 0.22576 0.60751
 C516 C 0.47069 0.25979 0.65831
 H517 H 0.48010 0.27440 0.65916
 C518 C 0.45342 0.25675 0.67230
 H519 H 0.44942 0.26907 0.68393
 C520 C 0.46456 0.22571 0.64234
 H521 H 0.46914 0.21351 0.63089
 C522 C 0.44717 0.22203 0.65604
 H523 H 0.43828 0.20709 0.65495
 Zn524 Zn 0.49972 0.24971 0.62554
 N525 N 0.47576 0.24448 0.64355
 C526 C 0.47575 0.28484 0.60867
 N527 N 0.49450 0.27362 0.60749
 C528 C 0.50981 0.27864 0.59272
 C529 C 0.50679 0.29588 0.57870
 C530 C 0.47209 0.30220 0.59494
 C531 C 0.52869 0.23969 0.65836
 C532 C 0.54595 0.24276 0.67236
 C533 C 0.55222 0.27745 0.65609
 C534 C 0.53484 0.27374 0.64238
 N535 N 0.52363 0.25498 0.64359
 H536 H 0.46355 0.28030 0.62012
 H537 H 0.52440 0.26922 0.59189
 H538 H 0.51911 0.29984 0.56706
 H539 H 0.45717 0.31111 0.59601
 H540 H 0.51928 0.22509 0.65921
 H541 H 0.54994 0.23046 0.68400
 H542 H 0.56111 0.29239 0.65500
 H543 H 0.53027 0.28592 0.63093
 C544 C 0.44153 0.23772 0.67110
 C545 C 0.51180 0.19156 0.57990
 C546 C 0.55785 0.26179 0.67116
 C547 C 0.48778 0.30779 0.57987
 C548 C 0.50995 0.72151 0.90796
 H549 H 0.52454 0.73094 0.90879
 C550 C 0.50695 0.70424 0.92195
 H551 H 0.51927 0.70027 0.93357
 C552 C 0.47587 0.71530 0.89203
 H553 H 0.46366 0.71984 0.88060
 C554 C 0.47223 0.69791 0.90574
 H555 H 0.45730 0.68900 0.90467
 N556 N 0.49462 0.72654 0.89321
 C557 C 0.52876 0.76059 0.84237
 H558 H 0.51934 0.77518 0.84156
 C559 C 0.54600 0.75756 0.82833
 H560 H 0.54996 0.76988 0.81671
 C561 C 0.53494 0.72652 0.85829
 H562 H 0.53039 0.71431 0.86972
 C563 C 0.55230 0.72285 0.84454
 H564 H 0.56119 0.70792 0.84559
 Zn565 Zn 0.49981 0.75048 0.87519
 N566 N 0.52373 0.74527 0.85713
 C567 C 0.52380 0.78563 0.89205
 N568 N 0.50505 0.77441 0.89324
 C569 C 0.48975 0.77945 0.90803
 C570 C 0.49280 0.79670 0.92206
 C571 C 0.52750 0.80300 0.90579
 C572 C 0.47081 0.74037 0.84240
 C573 C 0.45355 0.74340 0.82840
 C574 C 0.44725 0.77809 0.84469
 C575 C 0.46463 0.77443 0.85840
 N576 N 0.47586 0.75568 0.85718
 H577 H 0.53599 0.78108 0.88058
 H578 H 0.47516 0.77003 0.90887
 H579 H 0.48050 0.80067 0.93372
 H580 H 0.54243 0.81190 0.90471
 H581 H 0.48023 0.72579 0.84155
 H582 H 0.44957 0.73108 0.81675
 H583 H 0.43834 0.79301 0.84579
 H584 H 0.46919 0.78663 0.86986
 C585 C 0.55790 0.73854 0.82948
 C586 C 0.48793 0.69232 0.92078
 C587 C 0.44164 0.76241 0.82961
 C588 C 0.51183 0.80860 0.92088
 C589 C 0.14094 0.22187 0.26284
 C590 C 0.13092 0.20105 0.27146
 C591 C 0.11403 0.20441 0.28499
 C592 C 0.10882 0.22826 0.28856
 C593 C 0.10535 0.23749 0.26598
 C594 C 0.12224 0.23414 0.25246
 C595 C 0.14682 0.23498 0.28289
 C596 C 0.12993 0.23833 0.29641
 C597 C 0.15912 0.21826 0.24828
 C598 C 0.17405 0.21529 0.23631
 C599 C 0.09064 0.23187 0.30311
 C600 C 0.07570 0.23482 0.31507
 H601 H 0.13659 0.18508 0.26732
 H602 H 0.10524 0.19131 0.29243
 H603 H 0.09090 0.24593 0.26105
 H604 H 0.12225 0.23970 0.23594
 H605 H 0.16284 0.24108 0.28617
 H606 H 0.13148 0.24731 0.31128
 C607 C 0.64085 0.72226 0.76278
 C608 C 0.64090 0.74457 0.77333
 C609 C 0.62404 0.74789 0.78688
 C610 C 0.60877 0.72858 0.78857
 C611 C 0.62313 0.70962 0.79510
 C612 C 0.63999 0.70630 0.78154
 C613 C 0.61883 0.72041 0.75182
 C614 C 0.60196 0.72373 0.76538
 C615 C 0.65900 0.71868 0.74819
 C616 C 0.67392 0.71573 0.73620
 C617 C 0.59062 0.73215 0.80317
 C618 C 0.57570 0.73507 0.81516
 H619 H 0.65311 0.75669 0.77040
 H620 H 0.62180 0.76286 0.79557
 H621 H 0.62030 0.69968 0.80914
 H622 H 0.65161 0.69352 0.78396
 H623 H 0.61667 0.71681 0.73491
 H624 H 0.58536 0.72298 0.76008
 C625 C 0.35857 0.77863 0.76306
 C626 C 0.35538 0.78854 0.78541
 C627 C 0.37227 0.78524 0.79894
 C628 C 0.39069 0.77234 0.78879
 C629 C 0.39672 0.78478 0.76838
 C630 C 0.37983 0.78809 0.75486
 C631 C 0.36335 0.75479 0.76722
 C632 C 0.38024 0.75149 0.78075
 C633 C 0.34039 0.78219 0.74850
 C634 C 0.32545 0.78512 0.73653
 C635 C 0.40887 0.76879 0.80335
 C636 C 0.42381 0.76587 0.81532
 H637 H 0.34112 0.79738 0.79019
 H638 H 0.37248 0.79124 0.81530
 H639 H 0.41283 0.79049 0.76487
 H640 H 0.38147 0.79662 0.73975
 H641 H 0.35428 0.74166 0.76016
 H642 H 0.38563 0.73553 0.78528
 C643 C -0.14139 0.27820 0.26255
 C644 C -0.12235 0.26658 0.25202
 C645 C -0.10548 0.26332 0.26559
 C646 C -0.10931 0.27199 0.28834
 C647 C -0.13024 0.26129 0.29582
 C648 C -0.14711 0.26455 0.28225
 C649 C -0.13190 0.29905 0.27171
 C650 C -0.11503 0.29579 0.28527
 C651 C -0.15955 0.28172 0.24794
 C652 C -0.17446 0.28462 0.23594
 C653 C -0.09115 0.26848 0.30294
 C654 C -0.07622 0.26560 0.31493
 H655 H -0.12213 0.26137 0.23539
 H656 H -0.09081 0.25531 0.26057
 H657 H -0.13169 0.25196 0.31047
 H658 H -0.16301 0.25802 0.28529
 H659 H -0.13790 0.31498 0.26789
 H660 H -0.10658 0.30892 0.29307
 C661 C -0.14076 0.72216 0.23696
 C662 C -0.14538 0.73872 0.21930
 C663 C -0.12852 0.74196 0.20571
 C664 C -0.10869 0.72832 0.21112
 C665 C -0.11683 0.70503 0.21139
 C666 C -0.13369 0.70179 0.22498
 C667 C -0.12040 0.73036 0.24823
 C668 C -0.10354 0.73360 0.23464
 C669 C -0.15890 0.71866 0.25159
 C670 C -0.17381 0.71577 0.26360
 C671 C -0.09055 0.73180 0.19650
 C672 C -0.07563 0.73466 0.18449
 H673 H -0.16055 0.74716 0.21761
 H674 H -0.12926 0.75317 0.19239
 H675 H -0.10996 0.69221 0.20176
 H676 H -0.14125 0.68619 0.22698
 H677 H -0.11931 0.73336 0.26536
 H678 H -0.08802 0.73938 0.24014
 C679 C 0.35834 0.22140 0.73750
 C680 C 0.36004 0.24461 0.72935
 C681 C 0.37696 0.24794 0.71585
 C682 C 0.39052 0.22773 0.71184
 C683 C 0.37453 0.21080 0.70367
 C684 C 0.35761 0.20747 0.71716
 C685 C 0.38026 0.21661 0.74774
 C686 C 0.39718 0.21994 0.73425
 C687 C 0.34013 0.21781 0.75202
 C688 C 0.32516 0.21488 0.76396
 C689 C 0.40872 0.23130 0.69731
 C690 C 0.42368 0.23423 0.68536
 H691 H 0.34894 0.25732 0.73378
 H692 H 0.38035 0.26350 0.70873
 H693 H 0.37633 0.20218 0.68862
 H694 H 0.34492 0.19601 0.71367
 H695 H 0.38232 0.21110 0.76414
 H696 H 0.41373 0.21727 0.73909
 C697 C 0.64107 0.27810 0.73753
 C698 C 0.64751 0.26823 0.71588
 C699 C 0.63058 0.26491 0.70239
 C700 C 0.60887 0.27179 0.71188
 C701 C 0.61191 0.29542 0.71832
 C702 C 0.62883 0.29873 0.73181
 C703 C 0.62396 0.26285 0.74666
 C704 C 0.60704 0.25953 0.73318
 C705 C 0.65929 0.28167 0.75205
 C706 C 0.67425 0.28461 0.76399
 C707 C 0.59066 0.26822 0.69736
 C708 C 0.57570 0.26529 0.68542
 H709 H 0.66391 0.26420 0.71152
 H710 H 0.63249 0.25804 0.68648
 H711 H 0.60166 0.30840 0.71277
 H712 H 0.63309 0.31456 0.73781
 H713 H 0.62505 0.25532 0.76234
 H714 H 0.59363 0.24916 0.73730
 C715 C 0.14137 0.77821 0.23672
 C716 C 0.14619 0.78435 0.21335
 C717 C 0.12933 0.78101 0.19978
 C718 C 0.10931 0.77188 0.21091
 C719 C 0.10433 0.78775 0.22912
 C720 C 0.12119 0.79108 0.24269
 C721 C 0.13393 0.75471 0.23577
 C722 C 0.11707 0.75138 0.22220
 C723 C 0.15952 0.78180 0.25133
 C724 C 0.17442 0.78475 0.26334
 C725 C 0.09117 0.76829 0.19631
 C726 C 0.07625 0.76536 0.18431
 H727 H 0.16149 0.79074 0.20793
 H728 H 0.13020 0.78456 0.18274
 H729 H 0.08893 0.79568 0.23118
 H730 H 0.12022 0.80186 0.25637
 H731 H 0.14125 0.74181 0.24494
 H732 H 0.10995 0.73563 0.21975
 C733 C 0.26291 0.14074 0.22193
 C734 C 0.26932 0.12897 0.20123
 C735 C 0.28285 0.11208 0.20456
 C736 C 0.28864 0.10861 0.22826
 C737 C 0.26699 0.10637 0.23986
 C738 C 0.25346 0.12326 0.23653
 C739 C 0.28425 0.14713 0.23252
 C740 C 0.29778 0.13024 0.23585
 C741 C 0.24834 0.15892 0.21834
 C742 C 0.23637 0.17385 0.21539
 C743 C 0.30320 0.09042 0.23183
 C744 C 0.31517 0.07548 0.23476
 H745 H 0.26373 0.13350 0.18536
 H746 H 0.28884 0.10214 0.19154
 H747 H 0.26267 0.09272 0.24981
 H748 H 0.23755 0.12408 0.24363
 H749 H 0.28838 0.16348 0.23702
 H750 H 0.31349 0.13212 0.24319
 C751 C 0.76257 0.64100 0.72165
 C752 C 0.76938 0.62957 0.70089
 C753 C 0.78286 0.61263 0.70419
 C754 C 0.78822 0.60878 0.72794
 C755 C 0.76635 0.60634 0.73910
 C756 C 0.75287 0.62328 0.73579
 C757 C 0.78371 0.64723 0.73274
 C758 C 0.79719 0.63029 0.73605
 C759 C 0.74806 0.65922 0.71809
 C760 C 0.73613 0.67420 0.71517
 C761 C 0.80272 0.59056 0.73149
 C762 C 0.81466 0.57558 0.73441
 H763 H 0.76408 0.63435 0.68499
 H764 H 0.78911 0.60291 0.69113
 H765 H 0.76186 0.59253 0.74875
 H766 H 0.73683 0.62397 0.74261
 H767 H 0.78774 0.66351 0.73758
 H768 H 0.81276 0.63207 0.74371
 C769 C 0.76237 0.35827 0.77846
 C770 C 0.78161 0.35875 0.79387
 C771 C 0.79512 0.37567 0.79054
 C772 C 0.78807 0.39044 0.77212
 C773 C 0.76502 0.39718 0.77777
 C774 C 0.75151 0.38026 0.78110
 C775 C 0.77227 0.35868 0.75589
 C776 C 0.78578 0.37560 0.75256
 C777 C 0.74782 0.34006 0.78205
 C778 C 0.73586 0.32511 0.78500
 C779 C 0.80261 0.40864 0.76853
 C780 C 0.81458 0.42360 0.76558
 H781 H 0.78438 0.34686 0.80631
 H782 H 0.80947 0.37826 0.80012
 H783 H 0.75977 0.41377 0.77904
 H784 H 0.73468 0.38237 0.78523
 H785 H 0.76895 0.34674 0.74361
 H786 H 0.79404 0.37815 0.73742
 C787 C 0.26256 -0.14168 0.27819
 C788 C 0.26507 -0.12703 0.29788
 C789 C 0.27863 -0.11015 0.29460
 C790 C 0.28836 -0.10956 0.27196
 C791 C 0.26899 -0.10980 0.25670
 C792 C 0.25543 -0.12669 0.25997
 C793 C 0.28554 -0.14846 0.27230
 C794 C 0.29910 -0.13157 0.26902
 C795 C 0.24796 -0.15985 0.28171
 C796 C 0.23596 -0.17478 0.28462
 C797 C 0.30296 -0.09139 0.26843
 C798 C 0.31496 -0.07645 0.26554
 H799 H 0.25692 -0.12969 0.31305
 H800 H 0.28210 -0.09834 0.30697
 H801 H 0.26618 -0.09778 0.24440
 H802 H 0.24100 -0.12912 0.25048
 H803 H 0.29070 -0.16506 0.27083
 H804 H 0.31588 -0.13371 0.26474
 C805 C 0.23748 -0.14117 0.72179
 C806 C 0.22919 -0.13947 0.74494
 C807 C 0.21568 -0.12253 0.74821
 C808 C 0.21180 -0.10897 0.72800
 C809 C 0.20369 -0.12494 0.71105
 C810 C 0.21720 -0.14188 0.70778
 C811 C 0.24779 -0.11926 0.71708
 C812 C 0.23429 -0.10233 0.72034
 C813 C 0.25202 -0.15939 0.71827
 C814 C 0.26396 -0.17436 0.71537
 C815 C 0.19727 -0.09074 0.73151
 C816 C 0.18531 -0.07577 0.73440
 H817 H 0.23353 -0.15058 0.75765
 H818 H 0.20847 -0.11914 0.76371
 H819 H 0.18867 -0.12312 0.70237
 H820 H 0.21374 -0.15456 0.69631
 H821 H 0.26425 -0.11722 0.71165
 H822 H 0.23918 -0.08578 0.71771
 C823 C 0.73753 0.35880 0.22206
 C824 C 0.73958 0.37657 0.20509
 C825 C 0.72601 0.39344 0.20837
 C826 C 0.71172 0.39090 0.22829
 C827 C 0.72740 0.38708 0.24693
 C828 C 0.74097 0.37020 0.24365
 C829 C 0.71368 0.35247 0.22187
 C830 C 0.70011 0.36935 0.22515
 C831 C 0.75214 0.34064 0.21852
 C832 C 0.76415 0.32572 0.21563
 C833 C 0.69711 0.40906 0.23182
 C834 C 0.68511 0.42399 0.23473
 H835 H 0.75071 0.37595 0.19168
 H836 H 0.72551 0.40727 0.19776
 H837 H 0.72780 0.39677 0.26142
 H838 H 0.75300 0.36544 0.25534
 H839 H 0.70796 0.33618 0.21938
 H840 H 0.68276 0.36750 0.22546
 C841 C 0.73733 0.64126 0.27835
 C842 C 0.74546 0.62521 0.26147
 C843 C 0.73191 0.60831 0.25819
 C844 C 0.71157 0.60910 0.27212
 C845 C 0.70135 0.63103 0.26730
 C846 C 0.71490 0.64793 0.27057
 C847 C 0.73332 0.62775 0.29857
 C848 C 0.71978 0.61085 0.29529
 C849 C 0.75191 0.65946 0.28186
 C850 C 0.76390 0.67441 0.28475
 C851 C 0.69700 0.59090 0.26859
 C852 C 0.68503 0.57594 0.26569
 H853 H 0.76052 0.62697 0.25284
 H854 H 0.73537 0.59559 0.24677
 H855 H 0.68493 0.63309 0.26180
 H856 H 0.71007 0.66448 0.26788
 H857 H 0.74049 0.63117 0.31409
 H858 H 0.71534 0.59978 0.30801
 C859 C 0.23790 0.14151 0.77771
 C860 C 0.23950 0.13180 0.75511
 C861 C 0.22594 0.11491 0.75182
 C862 C 0.21211 0.10938 0.77146
 C863 C 0.20051 0.13038 0.77724
 C864 C 0.21407 0.14727 0.78053
 C865 C 0.24176 0.12260 0.79305
 C866 C 0.22820 0.10571 0.78976
 C867 C 0.25249 0.15969 0.78126
 C868 C 0.26448 0.17463 0.78419
 C869 C 0.19751 0.09120 0.76792
 C870 C 0.18551 0.07626 0.76503
 H871 H 0.25034 0.13767 0.74277
 H872 H 0.22516 0.10631 0.73667
 H873 H 0.18318 0.13185 0.77863
 H874 H 0.20836 0.16321 0.78474
 H875 H 0.25407 0.12249 0.80541
 H876 H 0.22889 0.09113 0.79930
 C877 C 0.22179 0.26255 0.14080
 C878 C 0.20454 0.28006 0.13868
 C879 C 0.20781 0.29357 0.12178
 C880 C 0.22800 0.28825 0.10866
 C881 C 0.22531 0.26462 0.10206
 C882 C 0.22204 0.25112 0.11896
 C883 C 0.24321 0.27477 0.14190
 C884 C 0.24647 0.28828 0.12500
 C885 C 0.21827 0.24802 0.15899
 C886 C 0.21536 0.23607 0.17394
 C887 C 0.23151 0.30279 0.09047
 C888 C 0.23439 0.31476 0.07553
 H889 H 0.19096 0.28170 0.14950
 H890 H 0.19702 0.30678 0.11813
 H891 H 0.22592 0.25900 0.08557
 H892 H 0.21985 0.23392 0.11695
 H893 H 0.25479 0.27296 0.15481
 H894 H 0.26085 0.29804 0.12343
 C895 C 0.72186 0.76324 0.64092
 C896 C 0.73863 0.75504 0.62480
 C897 C 0.74196 0.76861 0.60796
 C898 C 0.72819 0.78906 0.60889
 C899 C 0.73319 0.79916 0.63082
 C900 C 0.72986 0.78559 0.64766
 C901 C 0.70160 0.76746 0.62751
 C902 C 0.70492 0.78103 0.61068
 C903 C 0.71828 0.74863 0.65904
 C904 C 0.71533 0.73663 0.67394
 C905 C 0.73176 0.80367 0.59077
 C906 C 0.73470 0.81568 0.57589
 H907 H 0.74715 0.73990 0.62646
 H908 H 0.75332 0.76510 0.59521
 H909 H 0.73884 0.81554 0.63294
 H910 H 0.73266 0.79034 0.66419
 H911 H 0.68601 0.76040 0.63094
 H912 H 0.69218 0.78561 0.59969
 C913 C 0.77854 0.76341 0.35906
 C914 C 0.78758 0.75498 0.38038
 C915 C 0.78429 0.76853 0.39726
 C916 C 0.77228 0.78920 0.39116
 C917 C 0.75143 0.78154 0.38043
 C918 C 0.75472 0.76798 0.36356
 C919 C 0.78888 0.78562 0.35609
 C920 C 0.78558 0.79918 0.37296
 C921 C 0.78209 0.74882 0.34090
 C922 C 0.78499 0.73682 0.32598
 C923 C 0.76873 0.80379 0.40932
 C924 C 0.76580 0.81578 0.42424
 H925 H 0.79584 0.73971 0.38208
 H926 H 0.78972 0.76487 0.41341
 H927 H 0.73548 0.78633 0.38563
 H928 H 0.74159 0.76117 0.35430
 H929 H 0.79798 0.79029 0.34197
 H930 H 0.79186 0.81545 0.37330
 C931 C 0.27803 0.26263 -0.14154
 C932 C 0.28705 0.25419 -0.12021
 C933 C 0.28371 0.26772 -0.10333
 C934 C 0.27168 0.28837 -0.10943
 C935 C 0.25085 0.28069 -0.12020
 C936 C 0.25419 0.26716 -0.13708
 C937 C 0.28833 0.28485 -0.14448
 C938 C 0.28499 0.29839 -0.12760
 C939 C 0.28163 0.24805 -0.15971
 C940 C 0.28459 0.23607 -0.17463
 C941 C 0.26809 0.30294 -0.09125
 C942 C 0.26515 0.31491 -0.07632
 H943 H 0.29532 0.23892 -0.11852
 H944 H 0.28912 0.26405 -0.08718
 H945 H 0.23489 0.28546 -0.11502
 H946 H 0.24109 0.26033 -0.14636
 H947 H 0.29745 0.28955 -0.15858
 H948 H 0.29125 0.31468 -0.12723
 C949 C 0.72235 0.23706 -0.14086
 C950 C 0.73455 0.21651 -0.14698
 C951 C 0.73788 0.20295 -0.13014
 C952 C 0.72868 0.21126 -0.10883
 C953 C 0.70484 0.21565 -0.11341
 C954 C 0.70151 0.22921 -0.13025
 C955 C 0.73549 0.24711 -0.12257
 C956 C 0.73882 0.23354 -0.10573
 C957 C 0.71876 0.25167 -0.15898
 C958 C 0.71580 0.26367 -0.17388
 C959 C 0.73226 0.19666 -0.09071
 C960 C 0.73518 0.18466 -0.07581
 H961 H 0.74009 0.21293 -0.16312
 H962 H 0.74627 0.18774 -0.13185
 H963 H 0.69173 0.20870 -0.10424
 H964 H 0.68555 0.23389 -0.13550
 H965 H 0.74165 0.26344 -0.12282
 H966 H 0.74782 0.23825 -0.09155
 C967 C 0.22193 0.73737 0.35888
 C968 C 0.21811 0.74793 0.38083
 C969 C 0.22134 0.73440 0.39772
 C970 C 0.22807 0.71164 0.39101
 C971 C 0.24808 0.71477 0.37692
 C972 C 0.24485 0.72830 0.36003
 C973 C 0.20721 0.71757 0.35864
 C974 C 0.21044 0.70404 0.37553
 C975 C 0.21845 0.75194 0.34071
 C976 C 0.21558 0.76390 0.32577
 C977 C 0.23155 0.69707 0.40918
 C978 C 0.23441 0.68510 0.42411
 H979 H 0.21330 0.76457 0.38293
 H980 H 0.21929 0.73945 0.41428
 H981 H 0.26342 0.70705 0.37995
 H982 H 0.25743 0.73217 0.34859
 H983 H 0.19530 0.71445 0.34629
 H984 H 0.20129 0.68933 0.37764
 C985 C 0.27759 0.73759 0.64115
 C986 C 0.27857 0.74877 0.61921
 C987 C 0.27527 0.73522 0.60233
 C988 C 0.27133 0.71182 0.60904
 C989 C 0.25234 0.71279 0.62475
 C990 C 0.25563 0.72634 0.64163
 C991 C 0.29411 0.71933 0.63976
 C992 C 0.29082 0.70578 0.62288
 C993 C 0.28113 0.75218 0.65932
 C994 C 0.28406 0.76417 0.67424
 C995 C 0.26779 0.69723 0.59087
 C996 C 0.26490 0.68523 0.57595
 H997 H 0.28157 0.76583 0.61712
 H998 H 0.27547 0.74067 0.58578
 H999 H 0.23761 0.70364 0.62278
 H1000 H 0.24371 0.72880 0.65412
 H1001 H 0.30724 0.71722 0.65105
 H1002 H 0.30113 0.69206 0.61971
 C1003 C 0.77884 0.23683 0.14121
 C1004 C 0.78813 0.24517 0.11996
 C1005 C 0.78485 0.23163 0.10306
 C1006 C 0.77259 0.21109 0.10908
 C1007 C 0.75172 0.21894 0.11963
 C1008 C 0.75501 0.23248 0.13652
 C1009 C 0.78893 0.21453 0.14428
 C1010 C 0.78564 0.20100 0.12739
 C1011 C 0.78238 0.25141 0.15939
 C1012 C 0.78527 0.26339 0.17433
 C1013 C 0.76904 0.19652 0.09089
 C1014 C 0.76612 0.18455 0.07595
 H1015 H 0.79656 0.26037 0.11832
 H1016 H 0.79045 0.23524 0.08696
 H1017 H 0.73577 0.21429 0.11431
 H1018 H 0.74188 0.23942 0.14567
 H1019 H 0.79787 0.20979 0.15847
 H1020 H 0.79176 0.18466 0.12711
 C1021 C 0.47172 0.39080 0.51326
 C1022 C 0.48308 0.37164 0.50264
 C1023 C 0.48634 0.35476 0.51619
 C1024 C 0.47793 0.35870 0.53902
 C1025 C 0.45415 0.36461 0.53617
 C1026 C 0.45089 0.38149 0.52262
 C1027 C 0.48562 0.39643 0.53283
 C1028 C 0.48888 0.37955 0.54638
 C1029 C 0.46821 0.40896 0.49867
 C1030 C 0.46530 0.42388 0.48669
 C1031 C 0.48143 0.34053 0.55360
 C1032 C 0.48432 0.32560 0.56558
 H1033 H 0.48812 0.37135 0.48596
 H1034 H 0.49417 0.34002 0.51111
 H1035 H 0.44103 0.35628 0.54410
 H1036 H 0.43497 0.38761 0.51895
 H1037 H 0.49231 0.41227 0.53579
 H1038 H 0.49837 0.38094 0.56094
 C1039 C -0.02798 0.89119 0.01246
 C1040 C -0.03637 0.89503 0.03532
 C1041 C -0.03305 0.87812 0.04881
 C1042 C -0.02167 0.85902 0.03811
 C1043 C -0.00087 0.86840 0.02874
 C1044 C -0.00418 0.88532 0.01526
 C1045 C -0.03890 0.87034 0.00505
 C1046 C -0.03558 0.85342 0.01854
 C1047 C -0.03155 0.90940 -0.00205
 C1048 C -0.03449 0.92436 -0.01398
 C1049 C -0.01810 0.84082 0.05263
 C1050 C -0.01518 0.82586 0.06457
 H1051 H -0.04422 0.90974 0.04046
 H1052 H -0.03806 0.87834 0.06550
 H1053 H 0.01507 0.86230 0.03238
 H1054 H 0.00891 0.89370 0.00735
 H1055 H -0.04840 0.86898 -0.00950
 H1056 H -0.04224 0.83757 0.01553
 C1057 C 0.02803 0.60852 0.01219
 C1058 C 0.01567 0.62721 0.00189
 C1059 C 0.01241 0.64411 0.01542
 C1060 C 0.02183 0.64068 0.03794
 C1061 C 0.04565 0.63547 0.03420
 C1062 C 0.04891 0.61857 0.02067
 C1063 C 0.01509 0.60266 0.03234
 C1064 C 0.01183 0.61957 0.04588
 C1065 C 0.03154 0.59032 -0.00238
 C1066 C 0.03444 0.57537 -0.01435
 C1067 C 0.01832 0.65887 0.05251
 C1068 C 0.01545 0.67383 0.06448
 H1069 H 0.00998 0.62717 -0.01459
 H1070 H 0.00393 0.65855 0.01054
 H1071 H 0.05881 0.64429 0.04154
 H1072 H 0.06486 0.61290 0.01641
 H1073 H 0.00902 0.58665 0.03568
 H1074 H 0.00297 0.61804 0.06081
 C1075 C 0.52826 0.10857 0.51324
 C1076 C 0.53765 0.10514 0.53576
 C1077 C 0.53430 0.12201 0.54932
 C1078 C 0.52188 0.14066 0.53902
 C1079 C 0.50105 0.13054 0.53049
 C1080 C 0.50441 0.11367 0.51694
 C1081 C 0.53819 0.12973 0.50535
 C1082 C 0.53483 0.14660 0.51890
 C1083 C 0.53187 0.09041 0.49865
 C1084 C 0.53485 0.07549 0.48666
 C1085 C 0.51827 0.15882 0.55360
 C1086 C 0.51531 0.17375 0.56559
 H1087 H 0.54618 0.09073 0.54064
 H1088 H 0.53996 0.12206 0.56580
 H1089 H 0.48508 0.13614 0.53473
 H1090 H 0.49131 0.10481 0.50956
 H1091 H 0.54707 0.13132 0.49043
 H1092 H 0.54084 0.16265 0.51559
 C1093 C -0.02843 0.10922 0.48716
 C1094 C -0.03499 0.13099 0.49673
 C1095 C -0.03171 0.14788 0.48320
 C1096 C -0.02219 0.14134 0.46143
 C1097 C -0.03771 0.12436 0.45249
 C1098 C -0.04099 0.10747 0.46602
 C1099 C -0.00486 0.11204 0.48042
 C1100 C -0.00158 0.12893 0.46689
 C1101 C -0.03196 0.09104 0.50172
 C1102 C -0.03488 0.07610 0.51369
 C1103 C -0.01866 0.15952 0.44686
 C1104 C -0.01575 0.17445 0.43489
 H1105 H -0.04164 0.13297 0.51273
 H1106 H -0.03554 0.16432 0.48761
 H1107 H -0.04544 0.12550 0.43691
 H1108 H -0.05153 0.09415 0.46202
 H1109 H 0.00810 0.10169 0.48580
 H1110 H 0.01419 0.13305 0.46068
 C1111 C 0.47189 0.60919 0.98727
 C1112 C 0.48392 0.60311 0.96662
 C1113 C 0.48718 0.62002 0.95311
 C1114 C 0.47810 0.64134 0.96157
 C1115 C 0.48842 0.64434 0.98375
 C1116 C 0.48516 0.62744 0.99726
 C1117 C 0.45102 0.61989 0.97964
 C1118 C 0.45429 0.63679 0.96612
 C1119 C 0.46837 0.59100 1.00182
 C1120 C 0.46545 0.57605 1.01377
 C1121 C 0.48161 0.65953 0.94702
 C1122 C 0.48449 0.67448 0.93506
 H1123 H 0.48938 0.58696 0.96294
 H1124 H 0.49545 0.61834 0.93785
 H1125 H 0.49750 0.65850 0.98843
 H1126 H 0.49144 0.62712 1.01352
 H1127 H 0.43508 0.61465 0.98442
 H1128 H 0.44114 0.64603 0.95934
 C1129 C 0.52820 0.89158 0.98759
 C1130 C 0.51650 0.87258 0.99811
 C1131 C 0.51316 0.85571 0.98454
 C1132 C 0.52185 0.85949 0.96179
 C1133 C 0.54568 0.86513 0.96488
 C1134 C 0.54901 0.88200 0.97844
 C1135 C 0.51458 0.89733 0.96788
 C1136 C 0.51124 0.88046 0.95431
 C1137 C 0.53180 0.90973 1.00220
 C1138 C 0.53476 0.92465 1.01420
 C1139 C 0.51826 0.84134 0.94719
 C1140 C 0.51532 0.82642 0.93519
 H1141 H 0.51129 0.87239 1.01474
 H1142 H 0.50509 0.84108 0.98955
 H1143 H 0.55877 0.85663 0.95709
 H1144 H 0.56497 0.88795 0.98228
 H1145 H 0.50812 0.91324 0.96484
 H1146 H 0.50192 0.88193 0.93965
 C1147 C 0.02780 0.39150 0.48734
 C1148 C 0.03421 0.39622 0.46402
 C1149 C 0.03091 0.37935 0.45045
 C1150 C 0.02152 0.35942 0.46152
 C1151 C 0.00095 0.36734 0.47259
 C1152 C 0.00425 0.38421 0.48617
 C1153 C 0.04047 0.37124 0.49347
 C1154 C 0.03717 0.35438 0.47989
 C1155 C 0.03135 0.40965 0.50196
 C1156 C 0.03428 0.42457 0.51397
 C1157 C 0.01797 0.34126 0.44691
 C1158 C 0.01506 0.32634 0.43491
 H1159 H 0.04076 0.41147 0.45864
 H1160 H 0.03464 0.38015 0.43344
 H1161 H -0.01481 0.36032 0.47000
 H1162 H -0.00869 0.39164 0.49521
 H1163 H 0.05109 0.37024 0.50725
 H1164 H 0.04497 0.33892 0.48205
 C1165 C 0.39084 0.51277 0.47214
 C1166 C 0.39078 0.53230 0.45709
 C1167 C 0.37390 0.54585 0.46036
 C1168 C 0.35872 0.53855 0.47837
 C1169 C 0.37316 0.53582 0.49815
 C1170 C 0.39005 0.52226 0.49488
 C1171 C 0.36883 0.50210 0.46888
 C1172 C 0.35194 0.51565 0.47215
 C1173 C 0.40901 0.49818 0.46861
 C1174 C 0.42395 0.48620 0.46569
 C1175 C 0.34054 0.55315 0.48189
 C1176 C 0.32561 0.56514 0.48477
 H1177 H 0.40294 0.53522 0.44493
 H1178 H 0.37159 0.56038 0.45101
 H1179 H 0.37037 0.54381 0.51339
 H1180 H 0.40172 0.51865 0.50731
 H1181 H 0.36669 0.48537 0.46440
 H1182 H 0.33534 0.51053 0.47048
 C1183 C 0.89194 0.01249 -0.02841
 C1184 C 0.89506 0.02767 -0.00922
 C1185 C 0.87815 0.04118 -0.00589
 C1186 C 0.85978 0.03819 -0.02208
 C1187 C 0.85377 0.01430 -0.02063
 C1188 C 0.87068 0.00079 -0.02396
 C1189 C 0.88721 0.02729 -0.04754
 C1190 C 0.87031 0.04080 -0.04421
 C1191 C 0.91014 -0.00206 -0.03200
 C1192 C 0.92509 -0.01403 -0.03495
 C1193 C 0.84158 0.05273 -0.01850
 C1194 C 0.82663 0.06469 -0.01556
 H1195 H 0.90929 0.02779 0.00086
 H1196 H 0.87789 0.05288 0.00704
 H1197 H 0.83765 0.00851 -0.01728
 H1198 H 0.86905 -0.01658 -0.02346
 H1199 H 0.89634 0.02717 -0.06239
 H1200 H 0.86495 0.05225 -0.05621
 C1201 C 0.60923 0.01247 0.02806
 C1202 C 0.60573 0.02834 0.00952
 C1203 C 0.62265 0.04185 0.00623
 C1204 C 0.64142 0.03818 0.02180
 C1205 C 0.64720 0.01433 0.01933
 C1206 C 0.63028 0.00081 0.02262
 C1207 C 0.61458 0.02657 0.04758
 C1208 C 0.63150 0.04009 0.04429
 C1209 C 0.59102 -0.00208 0.03160
 C1210 C 0.57606 -0.01405 0.03451
 C1211 C 0.65963 0.05273 0.01826
 C1212 C 0.67460 0.06469 0.01536
 H1213 H 0.59124 0.02890 -0.00017
 H1214 H 0.62265 0.05399 -0.00628
 H1215 H 0.66318 0.00856 0.01535
 H1216 H 0.63176 -0.01654 0.02146
 H1217 H 0.60585 0.02599 0.06265
 H1218 H 0.63727 0.05108 0.05654
 C1219 C 0.10853 0.51260 0.52785
 C1220 C 0.10712 0.52518 0.50670
 C1221 C 0.12399 0.53876 0.50343
 C1222 C 0.14062 0.53844 0.52163
 C1223 C 0.14726 0.51478 0.52379
 C1224 C 0.13039 0.50120 0.52706
 C1225 C 0.11091 0.52982 0.54535
 C1226 C 0.12779 0.54340 0.54209
 C1227 C 0.09037 0.49798 0.53137
 C1228 C 0.07545 0.48597 0.53428
 C1229 C 0.15878 0.55306 0.51811
 C1230 C 0.17370 0.56508 0.51524
 H1231 H 0.09402 0.52355 0.49530
 H1232 H 0.12535 0.54877 0.48923
 H1233 H 0.16376 0.50919 0.52284
 H1234 H 0.13244 0.48397 0.52891
 H1235 H 0.10029 0.53122 0.55911
 H1236 H 0.13161 0.55643 0.55304
 C1237 C 0.10861 0.48728 -0.02811
 C1238 C 0.12029 0.48087 -0.04885
 C1239 C 0.13715 0.46728 -0.04559
 C1240 C 0.14068 0.46144 -0.02192
 C1241 C 0.11905 0.45236 -0.01429
 C1242 C 0.10219 0.46594 -0.01754
 C1243 C 0.12616 0.49665 -0.01353
 C1244 C 0.14302 0.48307 -0.01027
 C1245 C 0.09046 0.50190 -0.03162
 C1246 C 0.07554 0.51391 -0.03452
 C1247 C 0.15883 0.44682 -0.01842
 C1248 C 0.17375 0.43481 -0.01555
 H1249 H 0.11572 0.48650 -0.06470
 H1250 H 0.14703 0.46127 -0.05865
 H1251 H 0.11714 0.43664 -0.00698
 H1252 H 0.08584 0.46186 -0.01302
 H1253 H 0.12541 0.51256 -0.00639
 H1254 H 0.15672 0.48734 -0.00034
 C1255 C 0.60867 0.98761 0.47192
 C1256 C 0.61694 0.98766 0.49514
 C1257 C 0.63388 0.97419 0.49844
 C1258 C 0.64090 0.96198 0.47820
 C1259 C 0.64534 0.97949 0.46143
 C1260 C 0.62840 0.99297 0.45813
 C1261 C 0.60361 0.96398 0.46697
 C1262 C 0.62055 0.95050 0.47027
 C1263 C 0.59044 1.00212 0.46837
 C1264 C 0.57546 1.01405 0.46545
 C1265 C 0.65913 0.94748 0.48175
 C1266 C 0.67411 0.93555 0.48467
 H1267 H 0.61009 0.99742 0.50787
 H1268 H 0.64154 0.97241 0.51400
 H1269 H 0.66047 0.98116 0.45289
 H1270 H 0.62902 1.00618 0.44676
 H1271 H 0.58808 0.95832 0.46136
 H1272 H 0.61953 0.93330 0.46748
 C1273 C 0.89154 0.98800 0.52837
 C1274 C 0.89323 0.97497 0.50751
 C1275 C 0.87631 0.96145 0.50420
 C1276 C 0.85936 0.96229 0.52209
 C1277 C 0.85287 0.98604 0.52367
 C1278 C 0.86979 0.99955 0.52697
 C1279 C 0.88871 0.97118 0.54617
 C1280 C 0.87179 0.95766 0.54287
 C1281 C 0.90975 1.00256 0.53193
 C1282 C 0.92470 1.01453 0.53485
 C1283 C 0.84115 0.94773 0.51853
 C1284 C 0.82619 0.93577 0.51562
 H1285 H 0.90654 0.97625 0.49631
 H1286 H 0.87513 0.95115 0.49018
 H1287 H 0.83644 0.99173 0.52231
 H1288 H 0.86785 1.01683 0.52844
 H1289 H 0.89907 0.97000 0.56014
 H1290 H 0.86766 0.94490 0.55400
 C1291 C 0.39091 0.48713 0.02806
 C1292 C 0.39263 0.47412 0.00718
 C1293 C 0.37574 0.46058 0.00386
 C1294 C 0.35877 0.46137 0.02173
 C1295 C 0.35224 0.48511 0.02332
 C1296 C 0.36914 0.49866 0.02665
 C1297 C 0.38808 0.47030 0.04584
 C1298 C 0.37118 0.45676 0.04251
 C1299 C 0.40910 0.50171 0.03164
 C1300 C 0.42404 0.51368 0.03459
 C1301 C 0.34058 0.44680 0.01815
 C1302 C 0.32564 0.43481 0.01521
 H1303 H 0.40595 0.47542 -0.00400
 H1304 H 0.37458 0.45028 -0.01018
 H1305 H 0.33580 0.49079 0.02195
 H1306 H 0.36717 0.51593 0.02813
 H1307 H 0.39844 0.46912 0.05982
 H1308 H 0.36707 0.44398 0.05364
 C1309 C 0.51285 0.47165 0.39130
 C1310 C 0.50357 0.48656 0.37401
 C1311 C 0.51710 0.48986 0.35713
 C1312 C 0.53859 0.47793 0.35919
 C1313 C 0.53248 0.45426 0.36246
 C1314 C 0.51894 0.45095 0.37934
 C1315 C 0.53436 0.48191 0.39772
 C1316 C 0.54789 0.48521 0.38084
 C1317 C 0.49828 0.46809 0.40947
 C1318 C 0.48630 0.46518 0.42440
 C1319 C 0.55315 0.48149 0.34102
 C1320 C 0.56513 0.48440 0.32609
 H1321 H 0.48775 0.49388 0.37494
 H1322 H 0.51288 0.50001 0.34360
 H1323 H 0.53827 0.44123 0.35240
 H1324 H 0.51314 0.43510 0.38374
 H1325 H 0.53858 0.48620 0.41408
 H1326 H 0.56371 0.49234 0.38274
 C1327 C 0.01304 -0.02769 0.89077
 C1328 C 0.03452 -0.03965 0.89285
 C1329 C 0.04808 -0.03636 0.87599
 C1330 C 0.03883 -0.02144 0.85869
 C1331 C 0.03275 -0.00073 0.87065
 C1332 C 0.01920 -0.00402 0.88751
 C1333 C 0.00376 -0.03496 0.86911
 C1334 C 0.01732 -0.03167 0.85225
 C1335 C -0.00155 -0.03124 0.90892
 C1336 C -0.01353 -0.03417 0.92384
 C1337 C 0.05343 -0.01790 0.84054
 C1338 C 0.06543 -0.01500 0.82563
 H1339 H 0.03871 -0.04981 0.90638
 H1340 H 0.06388 -0.04370 0.87507
 H1341 H 0.03858 0.01511 0.86626
 H1342 H 0.01341 0.00901 0.89757
 H1343 H -0.01206 -0.04206 0.86719
 H1344 H 0.01311 -0.03595 0.83588
 C1345 C 0.01283 0.02828 0.60891
 C1346 C 0.03487 0.01941 0.60225
 C1347 C 0.04846 0.01612 0.61908
 C1348 C 0.03869 0.02203 0.64093
 C1349 C 0.01782 0.00893 0.64235
 C1350 C 0.00423 0.01222 0.62552
 C1351 C 0.01780 0.04876 0.62174
 C1352 C 0.03139 0.04547 0.63857
 C1353 C -0.00180 0.03182 0.59079
 C1354 C -0.01381 0.03474 0.57589
 C1355 C 0.05331 0.01849 0.65905
 C1356 C 0.06533 0.01560 0.67394
 H1357 H 0.03940 0.01601 0.58576
 H1358 H 0.06463 0.00991 0.61701
 H1359 H 0.01405 -0.00196 0.65543
 H1360 H -0.01118 0.00414 0.62417
 H1361 H 0.01122 0.06446 0.61794
 H1362 H 0.03645 0.05836 0.64919
 C1363 C 0.51290 0.52811 0.10908
 C1364 C 0.51490 0.50441 0.11561
 C1365 C 0.52842 0.50110 0.13250
 C1366 C 0.53862 0.52181 0.14120
 C1367 C 0.51959 0.53657 0.14653
 C1368 C 0.50607 0.53988 0.12964
 C1369 C 0.53604 0.53556 0.10484
 C1370 C 0.54956 0.53225 0.12173
 C1371 C 0.49834 0.53168 0.09091
 C1372 C 0.48637 0.53461 0.07598
 C1373 C 0.55318 0.51825 0.15937
 C1374 C 0.56515 0.51533 0.17430
 H1375 H 0.50643 0.49137 0.10768
 H1376 H 0.53154 0.48523 0.13902
 H1377 H 0.51697 0.54379 0.16218
 H1378 H 0.49186 0.54994 0.13084
 H1379 H 0.54133 0.54279 0.08990
 H1380 H 0.56644 0.53665 0.12125
 C1381 C 0.48721 -0.02863 0.10899
 C1382 C 0.48736 -0.04701 0.12542
 C1383 C 0.47384 -0.04374 0.14232
 C1384 C 0.46149 -0.02242 0.14113
 C1385 C 0.45005 -0.02288 0.11931
 C1386 C 0.46357 -0.02615 0.10241
 C1387 C 0.49241 -0.00833 0.12201
 C1388 C 0.47888 -0.00506 0.13891
 C1389 C 0.50177 -0.03215 0.09080
 C1390 C 0.51374 -0.03505 0.07586
 C1391 C 0.44694 -0.01891 0.15932
 C1392 C 0.43497 -0.01601 0.17427
 H1393 H 0.49722 -0.06133 0.12392
 H1394 H 0.47211 -0.05526 0.15529
 H1395 H 0.43284 -0.02083 0.11730
 H1396 H 0.45794 -0.02689 0.08593
 H1397 H 0.50555 0.00253 0.11828
 H1398 H 0.48044 0.00859 0.14966
 C1399 C 0.98667 0.47127 0.60878
 C1400 C 0.96428 0.47920 0.60215
 C1401 C 0.95076 0.48249 0.61905
 C1402 C 0.96097 0.47752 0.64092
 C1403 C 0.98139 0.49135 0.64177
 C1404 C 0.99490 0.48806 0.62487
 C1405 C 0.98255 0.45099 0.62219
 C1406 C 0.96903 0.45428 0.63909
 C1407 C 1.00122 0.46773 0.59058
 C1408 C 1.01318 0.46483 0.57564
 C1409 C 0.94642 0.48106 0.65911
 C1410 C 0.93446 0.48398 0.67406
 H1411 H 0.95946 0.48199 0.58563
 H1412 H 0.93437 0.48809 0.61701
 H1413 H 0.98492 0.50272 0.65451
 H1414 H 1.01001 0.49662 0.62314
 H1415 H 0.98962 0.43542 0.61871
 H1416 H 0.96453 0.44152 0.65009
 C1417 C 0.98670 0.52831 0.89105
 C1418 C 0.99614 0.53524 0.86936
 C1419 C 0.98262 0.53187 0.85247
 C1420 C 0.96099 0.52191 0.85893
 C1421 C 0.95181 0.53712 0.87604
 C1422 C 0.96533 0.54049 0.89293
 C1423 C 0.98035 0.50466 0.88802
 C1424 C 0.96683 0.50130 0.87113
 C1425 C 1.00125 0.53193 0.90922
 C1426 C 1.01322 0.53489 0.92415
 C1427 C 0.94644 0.51829 0.84076
 C1428 C 0.93448 0.51531 0.82583
 H1429 H 1.01203 0.54217 0.86743
 H1430 H 0.98694 0.53592 0.83608
 H1431 H 0.93608 0.54459 0.87498
 H1432 H 0.96117 0.55084 0.90633
 H1433 H 0.98597 0.49170 0.89823
 H1434 H 0.96088 0.48545 0.86688
 C1435 C 0.48746 0.02761 0.39123
 C1436 C 0.49687 0.03456 0.36953
 C1437 C 0.48331 0.03126 0.35267
 C1438 C 0.46168 0.02132 0.35914
 C1439 C 0.45256 0.03651 0.37630
 C1440 C 0.46611 0.03982 0.39317
 C1441 C 0.48106 0.00397 0.38815
 C1442 C 0.46750 0.00067 0.37128
 C1443 C 0.50205 0.03117 0.40938
 C1444 C 0.51403 0.03411 0.42431
 C1445 C 0.44709 0.01777 0.34099
 C1446 C 0.43509 0.01486 0.32607
 H1447 H 0.51277 0.04147 0.36759
 H1448 H 0.48761 0.03534 0.33627
 H1449 H 0.43684 0.04402 0.37529
 H1450 H 0.46200 0.05015 0.40661
 H1451 H 0.48668 -0.00902 0.39832
 H1452 H 0.46151 -0.01516 0.36701
   
