data_POSCAR
  _audit_creation_date              2014-09-24
  _audit_creation_method            'ToBaCCo'
  _symmetry_space_group_name_H-M    'P1'
  _symmetry_Int_Tables_number       1
  _symmetry_cell_setting            triclinic
  loop_
  _symmetry_equiv_pos_as_xyz
 x,y,z
_cell_length_a 63.6772
_cell_length_b 63.6908
_cell_length_c 63.6799
_cell_angle_alpha 89.950200
_cell_angle_beta 90.060700
_cell_angle_gamma 90.007900
loop_
  _atom_site_label
  _atom_site_type_symbol
  _atom_site_fract_x
  _atom_site_fract_y
  _atom_site_fract_z
C1 C 0.13292 -0.02734 0.25180
 C2 C 0.12454 -0.00738 0.25607
 C3 C 0.11615 -0.00321 0.27604
 C4 C 0.11596 -0.01887 0.29149
 C5 C 0.12452 -0.03865 0.28719
 C6 C 0.13310 -0.04289 0.26739
 C7 C 0.12460 0.00910 0.23972
 C8 C 0.11604 0.00506 0.21977
 C9 C 0.11595 0.02076 0.20433
 C10 C 0.12477 0.04044 0.20866
 C11 C 0.13350 0.04451 0.22843
 C12 C 0.13323 0.02895 0.24398
 H13 H 0.13962 -0.03058 0.23648
 H14 H 0.10947 0.01207 0.27941
 H15 H 0.10917 -0.01017 0.21645
 H16 H 0.14007 0.03214 0.25926
 H17 H 0.12450 -0.05069 0.29926
 H18 H 0.12487 0.05259 0.19670
 C19 C 0.36742 -0.02771 0.74633
 C20 C 0.37577 -0.00768 0.74233
 C21 C 0.38469 -0.00337 0.72262
 C22 C 0.38540 -0.01896 0.70715
 C23 C 0.37686 -0.03881 0.71117
 C24 C 0.36778 -0.04317 0.73070
 C25 C 0.37509 0.00875 0.75867
 C26 C 0.38331 0.00482 0.77878
 C27 C 0.38287 0.02054 0.79418
 C28 C 0.37383 0.04006 0.78964
 C29 C 0.36543 0.04399 0.76971
 C30 C 0.36623 0.02846 0.75419
 H31 H 0.36029 -0.03110 0.76141
 H32 H 0.39133 0.01199 0.71947
 H33 H 0.39037 -0.01029 0.78226
 H34 H 0.35966 0.03155 0.73878
 H35 H 0.37725 -0.05082 0.69912
 H36 H 0.37334 0.05222 0.80157
 C37 C 0.86727 0.47382 0.24722
 C38 C 0.87531 0.49391 0.24290
 C39 C 0.88391 0.49812 0.22303
 C40 C 0.88464 0.48235 0.20773
 C41 C 0.87643 0.46244 0.21209
 C42 C 0.86767 0.45819 0.23178
 C43 C 0.87470 0.51047 0.25911
 C44 C 0.88285 0.50662 0.27926
 C45 C 0.88243 0.52239 0.29458
 C46 C 0.87350 0.54194 0.28993
 C47 C 0.86518 0.54581 0.26995
 C48 C 0.86594 0.53019 0.25451
 H49 H 0.86039 0.47050 0.26243
 H50 H 0.89035 0.51351 0.21961
 H51 H 0.88983 0.49149 0.28283
 H52 H 0.85941 0.53323 0.23908
 H53 H 0.87685 0.45028 0.20018
 H54 H 0.87300 0.55414 0.30181
 C55 C 0.63364 0.47166 0.75299
 C56 C 0.62533 0.49158 0.75757
 C57 C 0.61698 0.49548 0.77762
 C58 C 0.61678 0.47958 0.79283
 C59 C 0.62525 0.45985 0.78820
 C60 C 0.63377 0.45590 0.76835
 C61 C 0.62541 0.50829 0.74145
 C62 C 0.61702 0.50446 0.72139
 C63 C 0.61698 0.52034 0.70616
 C64 C 0.62568 0.53999 0.71077
 C65 C 0.63424 0.54386 0.73065
 C66 C 0.63393 0.52812 0.74602
 H67 H 0.64032 0.46857 0.73765
 H68 H 0.61035 0.51073 0.78124
 H69 H 0.61022 0.48928 0.71778
 H70 H 0.64066 0.53115 0.76137
 H71 H 0.62523 0.44759 0.80004
 H72 H 0.62579 0.55223 0.69892
 C73 C 0.24479 0.13212 1.02966
 C74 C 0.24031 0.12352 1.00984
 C75 C 0.22034 0.11496 1.00598
 C76 C 0.20507 0.11482 1.02182
 C77 C 0.20961 0.12362 1.04146
 C78 C 0.22940 0.13236 1.04536
 C79 C 0.25642 0.12361 0.99316
 C80 C 0.27645 0.11516 0.99698
 C81 C 0.29167 0.11512 0.98108
 C82 C 0.28702 0.12391 0.96145
 C83 C 0.26717 0.13254 0.95761
 C84 C 0.25184 0.13221 0.97335
 H85 H 0.26008 0.13899 1.03270
 H86 H 0.21685 0.10813 0.99076
 H87 H 0.28002 0.10832 1.01218
 H88 H 0.23650 0.13898 0.97034
 H89 H 0.19777 0.12372 1.05371
 H90 H 0.29882 0.12407 0.94915
 C91 C 0.75381 0.36648 1.02755
 C92 C 0.75808 0.37486 1.00759
 C93 C 0.77798 0.38346 1.00346
 C94 C 0.79337 0.38384 1.01918
 C95 C 0.78908 0.37529 1.03897
 C96 C 0.76935 0.36651 1.04316
 C97 C 0.74183 0.37457 0.99102
 C98 C 0.72185 0.38311 0.99485
 C99 C 0.70653 0.38304 0.97903
 C100 C 0.71101 0.37405 0.95947
 C101 C 0.73080 0.36533 0.95564
 C102 C 0.74625 0.36576 0.97130
 H103 H 0.73855 0.35962 1.03075
 H104 H 0.78134 0.39012 0.98816
 H105 H 0.71842 0.39012 1.00998
 H106 H 0.76155 0.35895 0.96828
 H107 H 0.80111 0.37545 1.05105
 H108 H 0.69913 0.37383 0.94724
 C109 C 0.25694 0.86679 0.52858
 C110 C 0.26078 0.87521 0.50855
 C111 C 0.28058 0.88383 0.50402
 C112 C 0.29630 0.88421 0.51944
 C113 C 0.29240 0.87560 0.53930
 C114 C 0.27278 0.86682 0.54385
 C115 C 0.24414 0.87504 0.49237
 C116 C 0.22422 0.88342 0.49679
 C117 C 0.20853 0.88350 0.48136
 C118 C 0.21256 0.87486 0.46157
 C119 C 0.23230 0.86630 0.45710
 C120 C 0.24812 0.86656 0.47240
 H121 H 0.24177 0.85992 0.53214
 H122 H 0.28357 0.89056 0.48865
 H123 H 0.22107 0.89021 0.51208
 H124 H 0.26338 0.85988 0.46890
 H125 H 0.30459 0.87573 0.55123
 H126 H 0.20037 0.87481 0.44966
 C127 C 0.74594 0.63310 0.52822
 C128 C 0.74114 0.62465 0.50841
 C129 C 0.72104 0.61630 0.50474
 C130 C 0.70600 0.61620 0.52078
 C131 C 0.71084 0.62482 0.54040
 C132 C 0.73076 0.63336 0.54411
 C133 C 0.75710 0.62454 0.49159
 C134 C 0.77701 0.61574 0.49525
 C135 C 0.79212 0.61550 0.47926
 C136 C 0.78750 0.62443 0.45968
 C137 C 0.76777 0.63341 0.45600
 C138 C 0.75253 0.63328 0.47185
 H139 H 0.76134 0.63977 0.53112
 H140 H 0.71727 0.60955 0.48957
 H141 H 0.78055 0.60879 0.51041
 H142 H 0.73729 0.64030 0.46897
 H143 H 0.69914 0.62488 0.55277
 H144 H 0.79922 0.62444 0.44732
 C145 C -0.02484 0.25343 0.13209
 C146 C -0.00491 0.25756 0.12359
 C147 C -0.00060 0.27753 0.11522
 C148 C -0.01614 0.29312 0.11516
 C149 C -0.03590 0.28892 0.12386
 C150 C -0.04022 0.26913 0.13240
 C151 C 0.01136 0.24102 0.12345
 C152 C 0.00700 0.22126 0.11467
 C153 C 0.02245 0.20558 0.11447
 C154 C 0.04217 0.20949 0.12341
 C155 C 0.04654 0.22908 0.13236
 C156 C 0.03126 0.24488 0.13219
 H157 H -0.02823 0.23813 0.13877
 H158 H 0.01470 0.28074 0.10845
 H159 H -0.00827 0.21825 0.10773
 H160 H 0.03467 0.26001 0.13921
 H161 H -0.04792 0.30099 0.12398
 H162 H 0.05410 0.19733 0.12346
 C163 C -0.03039 0.74513 0.36719
 C164 C -0.01052 0.74051 0.37561
 C165 C -0.00663 0.72041 0.38386
 C166 C -0.02251 0.70518 0.38387
 C167 C -0.04220 0.70986 0.37528
 C168 C -0.04612 0.72978 0.36685
 C169 C 0.00612 0.75668 0.37579
 C170 C 0.00214 0.77660 0.38438
 C171 C 0.01789 0.79194 0.38456
 C172 C 0.03757 0.78757 0.37583
 C173 C 0.04160 0.76783 0.36708
 C174 C 0.02598 0.75234 0.36724
 H175 H -0.03346 0.76052 0.36058
 H176 H 0.00859 0.71677 0.39060
 H177 H -0.01308 0.78004 0.39118
 H178 H 0.02911 0.73709 0.36035
 H179 H -0.05445 0.69802 0.37515
 H180 H 0.04971 0.79952 0.37580
 C181 C 0.47044 0.24639 0.86774
 C182 C 0.49034 0.24166 0.87604
 C183 C 0.49415 0.22156 0.88434
 C184 C 0.47818 0.20641 0.88449
 C185 C 0.45845 0.21120 0.87599
 C186 C 0.45460 0.23112 0.86753
 C187 C 0.50715 0.25766 0.87596
 C188 C 0.50357 0.27762 0.88464
 C189 C 0.51958 0.29273 0.88469
 C190 C 0.53910 0.28805 0.87571
 C191 C 0.54270 0.26826 0.86687
 C192 C 0.52684 0.25303 0.86717
 H193 H 0.46743 0.26177 0.86109
 H194 H 0.50943 0.21788 0.89094
 H195 H 0.48846 0.28121 0.89163
 H196 H 0.52966 0.23775 0.86024
 H197 H 0.44610 0.19945 0.87592
 H198 H 0.55148 0.29976 0.87557
 C199 C 0.47242 0.75321 0.63400
 C200 C 0.49248 0.75726 0.62574
 C201 C 0.49686 0.77710 0.61713
 C202 C 0.48132 0.79265 0.61665
 C203 C 0.46146 0.78857 0.62509
 C204 C 0.45702 0.76891 0.63386
 C205 C 0.50887 0.74084 0.62610
 C206 C 0.50477 0.72083 0.61776
 C207 C 0.52047 0.70543 0.61773
 C208 C 0.54020 0.70983 0.62640
 C209 C 0.54433 0.72965 0.63492
 C210 C 0.52877 0.74518 0.63461
 H211 H 0.46897 0.73802 0.64088
 H212 H 0.51222 0.78031 0.61053
 H213 H 0.48954 0.71742 0.61093
 H214 H 0.53202 0.76052 0.64124
 H215 H 0.44948 0.80068 0.62486
 H216 H 0.55232 0.69786 0.62646
 C217 C 0.86772 1.02729 0.75246
 C218 C 0.87676 1.00766 0.75685
 C219 C 0.88522 1.00381 0.77686
 C220 C 0.88484 1.01950 0.79228
 C221 C 0.87559 1.03898 0.78784
 C222 C 0.86694 1.04284 0.76797
 C223 C 0.87729 0.99117 0.74057
 C224 C 0.88599 0.99538 0.72076
 C225 C 0.88663 0.97969 0.70536
 C226 C 0.87814 0.95981 0.70960
 C227 C 0.86924 0.95559 0.72927
 C228 C 0.86902 0.97117 0.74477
 H229 H 0.86095 1.03029 0.73711
 H230 H 0.89239 0.98873 0.78026
 H231 H 0.89257 1.01076 0.71752
 H232 H 0.86206 0.96788 0.75996
 H233 H 0.87510 1.05112 0.79978
 H234 H 0.87843 0.94767 0.69766
 C235 C 0.36627 0.52926 0.25333
 C236 C 0.37487 0.50948 0.25788
 C237 C 0.38329 0.50562 0.27790
 C238 C 0.38330 0.52144 0.29315
 C239 C 0.37450 0.54109 0.28858
 C240 C 0.36589 0.54497 0.26870
 C241 C 0.37513 0.49285 0.24173
 C242 C 0.38391 0.49679 0.22189
 C243 C 0.38444 0.48094 0.20668
 C244 C 0.37580 0.46120 0.21108
 C245 C 0.36682 0.45723 0.23076
 C246 C 0.36667 0.47296 0.24611
 H247 H 0.35955 0.53229 0.23796
 H248 H 0.39016 0.49045 0.28146
 H249 H 0.39068 0.51203 0.21846
 H250 H 0.35968 0.46986 0.26132
 H251 H 0.37436 0.55330 0.30045
 H252 H 0.37607 0.44896 0.19925
 C253 C 0.63265 1.03030 0.24666
 C254 C 0.62381 1.01057 0.24235
 C255 C 0.61500 1.00674 0.22250
 C256 C 0.61485 1.02253 0.20718
 C257 C 0.62387 1.04212 0.21152
 C258 C 0.63286 1.04597 0.23123
 C259 C 0.62382 0.99397 0.25856
 C260 C 0.61585 0.99809 0.27869
 C261 C 0.61572 0.98231 0.29403
 C262 C 0.62394 0.96243 0.28940
 C263 C 0.63209 0.95830 0.26941
 C264 C 0.63185 0.97396 0.25397
 H265 H 0.63970 1.03331 0.26187
 H266 H 0.60796 0.99161 0.21911
 H267 H 0.60943 1.01347 0.28224
 H268 H 0.63826 0.97073 0.23854
 H269 H 0.62391 1.05430 0.19960
 H270 H 0.62403 0.95022 0.30129
 C271 C 0.13323 0.52886 0.74577
 C272 C 0.12437 0.50905 0.74191
 C273 C 0.11533 0.50486 0.72224
 C274 C 0.11497 0.52038 0.70666
 C275 C 0.12402 0.54004 0.71053
 C276 C 0.13324 0.54425 0.73005
 C277 C 0.12452 0.49278 0.75842
 C278 C 0.11645 0.49720 0.77844
 C279 C 0.11637 0.48171 0.79405
 C280 C 0.12475 0.46182 0.78984
 C281 C 0.13301 0.45737 0.76995
 C282 C 0.13270 0.47275 0.75423
 H283 H 0.14043 0.53215 0.76085
 H284 H 0.10825 0.48967 0.71921
 H285 H 0.10989 0.51256 0.78173
 H286 H 0.13916 0.46928 0.73887
 H287 H 0.12388 0.55201 0.69841
 H288 H 0.12484 0.44986 0.80197
 C289 C 0.74554 0.86790 -0.02840
 C290 C 0.74092 0.87662 -0.00870
 C291 C 0.72098 0.88527 -0.00508
 C292 C 0.70586 0.88540 -0.02107
 C293 C 0.71048 0.87649 -0.04063
 C294 C 0.73030 0.86764 -0.04427
 C295 C 0.75694 0.87674 0.00808
 C296 C 0.77686 0.88541 0.00435
 C297 C 0.79201 0.88574 0.02033
 C298 C 0.78740 0.87699 0.04001
 C299 C 0.76761 0.86813 0.04375
 C300 C 0.75236 0.86820 0.02789
 H301 H 0.76084 0.86101 -0.03124
 H302 H 0.71737 0.89221 0.01003
 H303 H 0.78039 0.89221 -0.01087
 H304 H 0.73708 0.86128 0.03082
 H305 H 0.69872 0.87643 -0.05297
 H306 H 0.79914 0.87705 0.05237
 C307 C 0.24487 0.36654 0.47341
 C308 C 0.24039 0.37541 0.49308
 C309 C 0.22043 0.38401 0.49678
 C310 C 0.20518 0.38391 0.48092
 C311 C 0.20968 0.37485 0.46141
 C312 C 0.22949 0.36607 0.45768
 C313 C 0.25649 0.37563 0.50977
 C314 C 0.27648 0.38408 0.50585
 C315 C 0.29168 0.38447 0.52176
 C316 C 0.28709 0.37604 0.54156
 C317 C 0.26724 0.36740 0.54550
 C318 C 0.25193 0.36739 0.52971
 H319 H 0.26018 0.35967 0.47050
 H320 H 0.21691 0.39106 0.51186
 H321 H 0.28006 0.39066 0.49056
 H322 H 0.23661 0.36064 0.53279
 H323 H 0.19781 0.37462 0.44918
 H324 H 0.29891 0.37618 0.55383
 C325 C 0.25414 0.63299 -0.02723
 C326 C 0.25819 0.62402 -0.00748
 C327 C 0.27799 0.61521 -0.00338
 C328 C 0.29350 0.61516 -0.01895
 C329 C 0.28943 0.62431 -0.03854
 C330 C 0.26979 0.63332 -0.04265
 C331 C 0.24174 0.62386 0.00883
 C332 C 0.22189 0.61530 0.00448
 C333 C 0.20629 0.61501 0.01999
 C334 C 0.21039 0.62369 0.03981
 C335 C 0.23011 0.63243 0.04416
 C336 C 0.24581 0.63231 0.02878
 H337 H 0.23896 0.64000 -0.03044
 H338 H 0.28116 0.60807 0.01176
 H339 H 0.21875 0.60858 -0.01085
 H340 H 0.26103 0.63915 0.03217
 H341 H 0.30150 0.62441 -0.05055
 H342 H 0.19830 0.62366 0.05181
 C343 C 0.75708 0.13285 0.47040
 C344 C 0.76119 0.12442 0.49037
 C345 C 0.78113 0.11606 0.49474
 C346 C 0.79674 0.11595 0.47925
 C347 C 0.79258 0.12457 0.45941
 C348 C 0.77277 0.13311 0.45503
 C349 C 0.74467 0.12432 0.50664
 C350 C 0.72474 0.11596 0.50220
 C351 C 0.70916 0.11566 0.51768
 C352 C 0.71329 0.12405 0.53759
 C353 C 0.73307 0.13258 0.54206
 C354 C 0.74877 0.13254 0.52668
 H355 H 0.74179 0.13953 0.46697
 H356 H 0.78431 0.10932 0.51007
 H357 H 0.72152 0.10937 0.48684
 H358 H 0.76404 0.13922 0.53018
 H359 H 0.80467 0.12465 0.44741
 H360 H 0.70117 0.12394 0.54954
 C361 C 1.02888 0.75372 0.86843
 C362 C 1.00905 0.75767 0.87719
 C363 C 1.00482 0.77744 0.88597
 C364 C 1.02032 0.79306 0.88615
 C365 C 1.04001 0.78907 0.87718
 C366 C 1.04425 0.76945 0.86823
 C367 C 0.99270 0.74123 0.87702
 C368 C 0.99694 0.72122 0.88526
 C369 C 0.98133 0.70569 0.88529
 C370 C 0.96153 0.71003 0.87666
 C371 C 0.95729 0.72991 0.86822
 C372 C 0.97277 0.74551 0.86860
 H373 H 1.03219 0.73858 0.86140
 H374 H 0.98957 0.78050 0.89291
 H375 H 1.01226 0.71791 0.89198
 H376 H 0.96946 0.76086 0.86200
 H377 H 1.05199 0.80119 0.87711
 H378 H 0.94945 0.69801 0.87649
 C379 C 0.53147 0.25392 0.36613
 C380 C 0.51162 0.25798 0.37480
 C381 C 0.50740 0.27783 0.38339
 C382 C 0.52294 0.29339 0.38352
 C383 C 0.54265 0.28931 0.37465
 C384 C 0.54688 0.26960 0.36586
 C385 C 0.49536 0.24146 0.37499
 C386 C 0.49975 0.22168 0.38370
 C387 C 0.48428 0.20607 0.38409
 C388 C 0.46445 0.21002 0.37540
 C389 C 0.46003 0.22965 0.36650
 C390 C 0.47538 0.24540 0.36649
 H391 H 0.53478 0.23869 0.35929
 H392 H 0.49218 0.28100 0.39032
 H393 H 0.51507 0.21860 0.39049
 H394 H 0.47194 0.26057 0.35955
 H395 H 0.55464 0.30141 0.37461
 H396 H 0.45251 0.19788 0.37557
 C397 C 1.02668 0.24500 0.63262
 C398 C 1.00685 0.24052 0.62406
 C399 C 1.00293 0.22053 0.61565
 C400 C 1.01873 0.20521 0.61562
 C401 C 1.03842 0.20973 0.62438
 C402 C 1.04236 0.22960 0.63297
 C403 C 0.99022 0.25668 0.62395
 C404 C 0.99413 0.27664 0.61541
 C405 C 0.97827 0.29189 0.61510
 C406 C 0.95853 0.28735 0.62372
 C407 C 0.95461 0.26754 0.63244
 C408 C 0.97035 0.25219 0.63237
 H409 H 1.02975 0.26034 0.63935
 H410 H 0.98770 0.21706 0.60883
 H411 H 1.00940 0.28012 0.60870
 H412 H 0.96727 0.23689 0.63919
 H413 H 1.05065 0.19787 0.62455
 H414 H 0.94626 0.29917 0.62366
 C415 C 0.52614 0.74674 0.13213
 C416 C 0.50635 0.74202 0.12361
 C417 C 0.50273 0.72206 0.11498
 C418 C 0.51880 0.70706 0.11466
 C419 C 0.53845 0.71181 0.12337
 C420 C 0.54209 0.73161 0.13219
 C421 C 0.48954 0.75799 0.12362
 C422 C 0.49327 0.77799 0.11513
 C423 C 0.47737 0.79316 0.11506
 C424 C 0.45774 0.78853 0.12383
 C425 C 0.45397 0.76866 0.13250
 C426 C 0.46977 0.75336 0.13220
 H427 H 0.52899 0.76205 0.13900
 H428 H 0.48755 0.71838 0.10817
 H429 H 0.50844 0.78163 0.10831
 H430 H 0.46684 0.73802 0.13900
 H431 H 0.55085 0.70014 0.12326
 H432 H 0.44548 0.80034 0.12396
 O433 O -0.01753 0.99169 0.94004
 O434 O 0.01555 1.00581 0.93678
 O435 O -0.00854 0.94050 0.98383
 O436 O 0.00239 0.93623 1.01671
 O437 O -0.06061 0.98407 0.99207
 O438 O -0.06296 1.01879 1.00546
 O439 O 0.04537 0.99646 1.03979
 O440 O 0.04896 0.96544 1.02120
 O441 O 0.04021 1.04532 0.99715
 O442 O 0.02029 1.04839 0.96349
 O443 O -0.00324 1.04143 1.04428
 O444 O -0.03443 1.02003 1.05149
 O445 O 0.01658 1.00869 1.05718
 O446 O -0.01977 0.99391 1.06097
 O447 O 0.00801 1.05876 1.01506
 O448 O -0.00787 1.06128 0.97988
 O449 O 0.05754 1.01615 1.00839
 O450 O 0.05879 0.98242 0.98878
 O451 O -0.04631 1.00402 0.95741
 O452 O -0.05206 1.03449 0.97902
 O453 O -0.04342 0.95497 1.00374
 O454 O -0.02112 0.95083 1.03529
 O455 O 0.00219 0.95767 0.95434
 O456 O 0.03451 0.97930 0.95096
 Zr457 Zr 0.00536 0.98922 0.96375
 O458 O 0.02536 1.00868 0.98155
 Zr459 Zr -0.01184 0.96438 1.00638
 O460 O 0.00797 0.98237 1.02581
 Zr461 Zr -0.03677 1.00676 0.98902
 O462 O -0.01841 1.02657 1.00810
 Zr463 Zr 0.03434 0.99269 1.00894
 O464 O 0.01592 0.97232 0.99023
 Zr465 Zr 0.00907 1.03525 0.99199
 O466 O -0.01041 1.01710 0.97211
 Zr467 Zr -0.00762 1.01008 1.03457
 O468 O -0.02838 0.99098 1.01686
 O469 O -0.02176 0.97953 0.97924
 O470 O 0.01931 1.01992 1.01903
 C471 C -0.03660 0.99824 0.94070
 C472 C -0.00279 0.94100 0.96452
 C473 C -0.06010 0.96493 0.99838
 C474 C 0.03593 1.00302 1.05634
 C475 C 0.05676 1.03563 1.00336
 C476 C 0.00287 1.05800 1.03452
 H477 H 0.03769 1.01275 0.97300
 H478 H -0.02688 1.03890 1.01217
 H479 H -0.03082 0.97053 0.97037
 H480 H 0.01225 0.97390 1.03810
 H481 H 0.04602 0.95394 1.01116
 H482 H 0.01567 0.94021 1.02370
 H483 H -0.02021 1.06374 0.98896
 H484 H -0.04265 1.04126 0.96866
 H485 H 0.07222 0.98333 0.99664
 H486 H 0.03189 0.97197 0.93746
 H487 H -0.04129 1.03128 1.04326
 H488 H -0.06263 1.01228 1.01958
 H489 H 0.00981 1.02020 0.93791
 H490 H 0.02735 1.06193 0.96659
 H491 H -0.03263 0.95963 1.04091
 H492 H -0.01064 0.98164 1.06367
 O493 O 0.48253 0.49204 0.44093
 O494 O 0.51539 0.50662 0.43764
 O495 O 0.49256 0.44024 0.48378
 O496 O 0.50373 0.43557 0.51653
 O497 O 0.43995 0.48300 0.49314
 O498 O 0.43726 0.51745 0.50712
 O499 O 0.54613 0.49611 0.54026
 O500 O 0.54996 0.46537 0.52123
 O501 O 0.54001 0.54546 0.49839
 O502 O 0.51973 0.54885 0.46500
 O503 O 0.49692 0.54024 0.54586
 O504 O 0.46606 0.51825 0.55290
 O505 O 0.51731 0.50763 0.55805
 O506 O 0.48124 0.49226 0.56191
 O507 O 0.50778 0.55818 0.51686
 O508 O 0.49156 0.56109 0.48185
 O509 O 0.55781 0.51634 0.50900
 O510 O 0.55931 0.48290 0.48895
 O511 O 0.45373 0.50371 0.45871
 O512 O 0.44774 0.53372 0.48087
 O513 O 0.45759 0.45393 0.50420
 O514 O 0.48020 0.44957 0.53551
 O515 O 0.50283 0.45804 0.45451
 O516 O 0.53481 0.48016 0.45125
 Zr517 Zr 0.50563 0.48947 0.46442
 O518 O 0.52550 0.50890 0.48239
 Zr519 Zr 0.48908 0.46371 0.50675
 O520 O 0.50880 0.48165 0.52633
 Zr521 Zr 0.46347 0.50603 0.49029
 O522 O 0.48171 0.52578 0.50955
 Zr523 Zr 0.53490 0.49259 0.50945
 O524 O 0.51661 0.47228 0.49054
 Zr525 Zr 0.50894 0.53509 0.49338
 O526 O 0.48956 0.51700 0.47335
 Zr527 Zr 0.49291 0.50900 0.53566
 O528 O 0.47228 0.48991 0.51779
 O529 O 0.47876 0.47917 0.47994
 O530 O 0.51959 0.51945 0.52008
 C531 C 0.46339 0.49835 0.44183
 C532 C 0.49818 0.44113 0.46445
 C533 C 0.44075 0.46377 0.49913
 C534 C 0.53673 0.50229 0.55697
 C535 C 0.55674 0.53588 0.50426
 C536 C 0.50277 0.55704 0.53633
 H537 H 0.53770 0.51327 0.47381
 H538 H 0.47311 0.53792 0.51389
 H539 H 0.46975 0.47019 0.47098
 H540 H 0.51329 0.47304 0.53846
 H541 H 0.54710 0.45398 0.51105
 H542 H 0.51701 0.43961 0.52347
 H543 H 0.47929 0.56326 0.49110
 H544 H 0.45699 0.54081 0.47057
 H545 H 0.57279 0.48386 0.49672
 H546 H 0.53220 0.47302 0.43765
 H547 H 0.45904 0.52961 0.54496
 H548 H 0.43777 0.51071 0.52112
 H549 H 0.50950 0.52092 0.43906
 H550 H 0.52664 0.56243 0.46827
 H551 H 0.46863 0.45814 0.54136
 H552 H 0.49054 0.48005 0.56432
 O553 O 0.50606 -0.04165 0.54660
 O554 O 0.53644 -0.02183 0.55141
 O555 O 0.45696 0.00433 0.54200
 O556 O 0.44936 0.03224 0.52212
 O557 O 0.46084 -0.04578 0.49646
 O558 O 0.48207 -0.05151 0.46640
 O559 O 0.51136 0.05894 0.48498
 O560 O 0.49530 0.06184 0.51720
 O561 O 0.56111 0.01651 0.49142
 O562 O 0.56351 -0.01698 0.50975
 O563 O 0.51958 0.00832 0.44229
 O564 O 0.48416 -0.00519 0.43817
 O565 O 0.49996 0.04159 0.45581
 O566 O 0.46816 0.01938 0.44927
 O567 O 0.54860 -0.00355 0.45961
 O568 O 0.55195 -0.03456 0.47788
 O569 O 0.54382 0.04544 0.50332
 O570 O 0.52400 0.04710 0.53681
 O571 O 0.49470 -0.05899 0.51739
 O572 O 0.50866 -0.06177 0.48119
 O573 O 0.44348 -0.01678 0.50805
 O574 O 0.44186 0.01860 0.49215
 O575 O 0.48567 -0.00814 0.55938
 O576 O 0.52074 0.00878 0.56080
 Zr577 Zr 0.50912 -0.01046 0.53618
 O578 O 0.52916 0.00854 0.51803
 Zr579 Zr 0.46681 0.00650 0.51054
 O580 O 0.48521 0.02656 0.49180
 Zr581 Zr 0.49224 -0.03580 0.49381
 O582 O 0.51144 -0.01754 0.47409
 Zr583 Zr 0.51274 0.03516 0.50778
 O584 O 0.49302 0.01724 0.52768
 Zr585 Zr 0.53803 -0.00718 0.49059
 O586 O 0.51995 -0.02746 0.50985
 Zr587 Zr 0.49582 0.01011 0.46527
 O588 O 0.47544 -0.00947 0.48293
 O589 O 0.48214 -0.02041 0.52065
 O590 O 0.52289 0.02006 0.48058
 C591 C 0.50041 -0.05831 0.53675
 C592 C 0.46656 -0.00177 0.55867
 C593 C 0.44415 -0.03602 0.50211
 C594 C 0.50582 0.05822 0.46560
 C595 C 0.56039 0.03582 0.49711
 C596 C 0.53890 0.00251 0.44301
 H597 H 0.54160 0.01242 0.52652
 H598 H 0.51553 -0.02612 0.46182
 H599 H 0.47310 -0.02932 0.52961
 H600 H 0.47685 0.03907 0.48797
 H601 H 0.48771 0.05782 0.53016
 H602 H 0.45683 0.04511 0.51773
 H603 H 0.55040 -0.04578 0.48853
 H604 H 0.52077 -0.06454 0.49053
 H605 H 0.52946 0.06148 0.53432
 H606 H 0.51819 0.00164 0.57442
 H607 H 0.49134 -0.01891 0.43711
 H608 H 0.47242 -0.04177 0.45905
 H609 H 0.54375 -0.03106 0.54128
 H610 H 0.57644 -0.01671 0.50107
 H611 H 0.44079 0.00963 0.47951
 H612 H 0.46231 0.03171 0.45667
 O613 O -0.04056 0.45385 0.99670
 O614 O -0.02058 0.44910 0.96645
 O615 O 0.00526 0.45857 1.04604
 O616 O 0.03304 0.47857 1.05375
 O617 O -0.04505 0.50399 1.04182
 O618 O -0.05082 0.53401 1.02049
 O619 O 0.05985 0.51578 0.99189
 O620 O 0.06280 0.48359 1.00799
 O621 O 0.01764 0.50917 0.94187
 O622 O -0.01576 0.49076 0.93932
 O623 O 0.00901 0.55833 0.98322
 O624 O -0.00463 0.56237 1.01860
 O625 O 0.04234 0.54491 1.00311
 O626 O 0.01996 0.55142 1.03469
 O627 O -0.00267 0.54095 0.95420
 O628 O -0.03354 0.52255 0.95071
 O629 O 0.04655 0.49737 0.95935
 O630 O 0.04827 0.46394 0.97925
 O631 O -0.05806 0.48301 1.00790
 O632 O -0.06093 0.51918 0.99390
 O633 O -0.01608 0.49248 1.05935
 O634 O 0.01921 0.50847 1.06114
 O635 O -0.00703 0.44117 1.01730
 O636 O 0.01000 0.43981 0.98232
 Zr637 Zr -0.00938 0.46437 0.99381
 O638 O 0.00963 0.48258 0.97384
 Zr639 Zr 0.00731 0.49005 1.03615
 O640 O 0.02735 0.50887 1.01782
 Zr641 Zr -0.03496 0.50664 1.01046
 O642 O -0.01670 0.52642 0.99131
 Zr643 Zr 0.03616 0.49292 0.99038
 O644 O 0.01822 0.47296 1.01003
 Zr645 Zr -0.00615 0.50996 0.96482
 O646 O -0.02644 0.49064 0.98283
 Zr647 Zr 0.01086 0.53535 1.00705
 O648 O -0.00873 0.51761 1.02736
 O649 O -0.01951 0.47986 1.02070
 O650 O 0.02100 0.52007 0.98007
 C651 C -0.05729 0.46366 1.00222
 C652 C -0.00071 0.44188 1.03644
 C653 C -0.03533 0.49838 1.05856
 C654 C 0.05905 0.53515 0.99741
 C655 C 0.03697 0.50351 0.94271
 C656 C 0.00324 0.55759 0.96389
 H657 H 0.01361 0.47410 0.96144
 H658 H -0.02533 0.53865 0.98715
 H659 H -0.02843 0.47086 1.02971
 H660 H 0.03981 0.51275 1.02625
 H661 H 0.05879 0.47062 1.01558
 H662 H 0.04592 0.48305 1.04636
 H663 H -0.04471 0.51187 0.95222
 H664 H -0.06358 0.50987 0.98176
 H665 H 0.06267 0.46646 0.97389
 H666 H 0.00291 0.42617 0.98486
 H667 H -0.01831 0.56340 1.01131
 H668 H -0.04115 0.54139 1.03017
 H669 H -0.02981 0.45921 0.95907
 H670 H -0.01548 0.49943 0.92638
 H671 H 0.01021 0.52111 1.06210
 H672 H 0.03222 0.54400 1.04070
 O673 O 0.00526 0.43929 0.51690
 O674 O -0.00921 0.43612 0.48393
 O675 O 0.05666 0.48261 0.50758
 O676 O 0.06110 0.51545 0.49653
 O677 O 0.01358 0.49125 0.55991
 O678 O -0.02102 0.50492 0.56251
 O679 O 0.00072 0.53901 0.45403
 O680 O 0.03155 0.52015 0.45021
 O681 O -0.04847 0.49680 0.45957
 O682 O -0.05162 0.46318 0.47949
 O683 O -0.04385 0.54392 0.50289
 O684 O -0.02217 0.55094 0.53398
 O685 O -0.01115 0.55652 0.48290
 O686 O 0.00392 0.56019 0.51916
 O687 O -0.06150 0.51484 0.49181
 O688 O -0.06415 0.47968 0.50777
 O689 O -0.01935 0.50782 0.44203
 O690 O 0.01421 0.48790 0.44050
 O691 O -0.00670 0.45676 0.54577
 O692 O -0.03702 0.47860 0.55171
 O693 O 0.04263 0.50266 0.54250
 O694 O 0.04685 0.53416 0.52018
 O695 O 0.03919 0.45327 0.49696
 O696 O 0.01728 0.45007 0.46477
 Zr697 Zr 0.00769 0.46295 0.49398
 O698 O -0.01182 0.48091 0.47413
 Zr699 Zr 0.03298 0.50537 0.51099
 O700 O 0.01498 0.52494 0.49132
 Zr701 Zr -0.00933 0.48838 0.53624
 O702 O -0.02915 0.50762 0.51802
 Zr703 Zr 0.00432 0.50815 0.46504
 O704 O 0.02471 0.48927 0.48330
 Zr705 Zr -0.03818 0.49157 0.49062
 O706 O -0.02001 0.47154 0.50996
 Zr707 Zr -0.01254 0.53394 0.50711
 O708 O 0.00659 0.51608 0.52773
 O709 O 0.01770 0.47838 0.52102
 O710 O -0.02271 0.51846 0.48027
 C711 C -0.00110 0.44001 0.53603
 C712 C 0.05597 0.46331 0.50186
 C713 C 0.03276 0.49738 0.55924
 C714 C -0.00563 0.55562 0.46352
 C715 C -0.03886 0.50296 0.44296
 C716 C -0.06054 0.53430 0.49690
 H717 H -0.01605 0.47239 0.46184
 H718 H -0.04139 0.51180 0.52658
 H719 H 0.02671 0.46944 0.53002
 H720 H 0.02351 0.53716 0.48698
 H721 H 0.04299 0.51001 0.45306
 H722 H 0.05705 0.52251 0.48331
 H723 H -0.06648 0.48882 0.52009
 H724 H -0.04393 0.46827 0.54236
 H725 H 0.01323 0.49577 0.42709
 H726 H 0.02452 0.43651 0.46735
 H727 H -0.03346 0.54283 0.54090
 H728 H -0.01444 0.51899 0.56212
 H729 H -0.02353 0.43736 0.48980
 H730 H -0.06521 0.46639 0.47255
 H731 H 0.03818 0.53985 0.53175
 H732 H 0.01615 0.56278 0.50995
 O733 O 0.50651 0.94149 0.01676
 O734 O 0.49204 0.93816 -0.01614
 O735 O 0.55787 0.98491 0.00701
 O736 O 0.56216 1.01774 -0.00409
 O737 O 0.51499 0.99362 0.05956
 O738 O 0.48038 1.00724 0.06226
 O739 O 0.50146 1.04099 -0.04643
 O740 O 0.53234 1.02228 -0.05031
 O741 O 0.45250 0.99853 -0.04056
 O742 O 0.44948 0.96507 -0.02041
 O743 O 0.45711 1.04591 0.00273
 O744 O 0.47902 1.05310 0.03362
 O745 O 0.48970 1.05856 -0.01756
 O746 O 0.50490 1.06244 0.01855
 O747 O 0.43952 1.01675 -0.00826
 O748 O 0.43703 0.98168 0.00780
 O749 O 0.48151 1.00955 -0.05827
 O750 O 0.51518 0.98988 -0.05981
 O751 O 0.49463 0.95904 0.04561
 O752 O 0.46439 0.98087 0.05168
 O753 O 0.54394 1.00506 0.04200
 O754 O 0.54796 1.03647 0.01954
 O755 O 0.54041 0.95549 -0.00338
 O756 O 0.51837 0.95214 -0.03545
 Zr757 Zr 0.50887 0.96508 -0.00623
 O758 O 0.48923 0.98291 -0.02606
 Zr759 Zr 0.53414 1.00762 0.01051
 O760 O 0.51597 1.02707 -0.00915
 Zr761 Zr 0.49198 0.99062 0.03600
 O762 O 0.47201 1.00973 0.01780
 Zr763 Zr 0.50524 1.01018 -0.03533
 O764 O 0.52577 0.99142 -0.01709
 Zr765 Zr 0.46291 0.99356 -0.00950
 O766 O 0.48122 0.97366 0.00983
 Zr767 Zr 0.48849 1.03606 0.00673
 O768 O 0.50779 1.01832 0.02732
 O769 O 0.51897 0.98061 0.02072
 O770 O 0.47823 1.02047 -0.02003
 C771 C 0.50016 0.94226 0.03588
 C772 C 0.55720 0.96558 0.00135
 C773 C 0.53415 0.99982 0.05881
 C774 C 0.49513 1.05761 -0.03697
 C775 C 0.46204 1.00456 -0.05726
 C776 C 0.44041 1.03621 -0.00314
 H777 H 0.48498 0.97433 -0.03830
 H778 H 0.45981 1.01389 0.02641
 H779 H 0.52804 0.97172 0.02970
 H780 H 0.52445 1.03930 -0.01357
 H781 H 0.54386 1.01221 -0.04746
 H782 H 0.55803 1.02475 -0.01732
 H783 H 0.43476 0.99083 0.02012
 H784 H 0.45741 0.97054 0.04238
 H785 H 0.51413 0.99768 -0.07325
 H786 H 0.52568 0.93862 -0.03287
 H787 H 0.46777 1.04499 0.04062
 H788 H 0.48698 1.02131 0.06182
 H789 H 0.47771 0.93941 -0.01029
 H790 H 0.43586 0.96821 -0.02732
 H791 H 0.53930 1.04220 0.03110
 H792 H 0.51714 1.06497 0.00934
 O793 O 0.48473 0.50734 0.05903
 O794 O 0.51780 0.49299 0.06221
 O795 O 0.49371 0.55850 0.01537
 O796 O 0.50465 0.56279 -0.01754
 O797 O 0.44152 0.51517 0.00720
 O798 O 0.43896 0.48051 -0.00637
 O799 O 0.54723 0.50245 -0.04082
 O800 O 0.55105 0.53339 -0.02219
 O801 O 0.54203 0.45352 0.00182
 O802 O 0.52217 0.45048 0.03546
 O803 O 0.49838 0.45765 -0.04530
 O804 O 0.46732 0.47920 -0.05245
 O805 O 0.51833 0.49039 -0.05818
 O806 O 0.48202 0.50528 -0.06187
 O807 O 0.50968 0.44023 -0.01613
 O808 O 0.49395 0.43769 0.01904
 O809 O 0.55945 0.48264 -0.00941
 O810 O 0.56091 0.51636 0.01019
 O811 O 0.45584 0.49514 0.04168
 O812 O 0.44991 0.46467 0.02004
 O813 O 0.45877 0.54423 -0.00446
 O814 O 0.48093 0.54833 -0.03610
 O815 O 0.50451 0.54124 0.04480
 O816 O 0.53679 0.51952 0.04806
 Zr817 Zr 0.50757 0.50970 0.03530
 O818 O 0.52740 0.49018 0.01743
 Zr819 Zr 0.49030 0.53468 -0.00725
 O820 O 0.50996 0.51664 -0.02674
 Zr821 Zr 0.46526 0.49237 0.01006
 O822 O 0.48346 0.47252 -0.00908
 Zr823 Zr 0.53635 0.50619 -0.00995
 O824 O 0.51809 0.52661 0.00884
 Zr825 Zr 0.51095 0.46370 0.00697
 O826 O 0.49163 0.48189 0.02693
 Zr827 Zr 0.49421 0.48901 -0.03554
 O828 O 0.47360 0.50817 -0.01776
 O829 O 0.48044 0.51951 0.01986
 O830 O 0.52116 0.47903 -0.02006
 C831 C 0.46562 0.50090 0.05838
 C832 C 0.49949 0.55794 0.03468
 C833 C 0.44209 0.53434 0.00099
 C834 C 0.53769 0.49600 -0.05737
 C835 C 0.55860 0.46317 -0.00437
 C836 C 0.50442 0.44103 -0.03557
 H837 H 0.53974 0.48605 0.02596
 H838 H 0.47490 0.46024 -0.01316
 H839 H 0.47146 0.52853 0.02877
 H840 H 0.51422 0.52513 -0.03902
 H841 H 0.54817 0.54489 -0.01215
 H842 H 0.51783 0.55874 -0.02465
 H843 H 0.48152 0.43535 0.01002
 H844 H 0.45930 0.45788 0.03042
 H845 H 0.57430 0.51539 0.00232
 H846 H 0.53424 0.52680 0.06159
 H847 H 0.46037 0.46805 -0.04417
 H848 H 0.43921 0.48712 -0.02045
 H849 H 0.51188 0.47867 0.06112
 H850 H 0.52919 0.43692 0.03234
 H851 H 0.46933 0.53960 -0.04169
 H852 H 0.49116 0.51755 -0.06454
 O853 O 0.04749 0.00335 0.45830
 O854 O 0.05249 0.03358 0.47829
 O855 O 0.04271 -0.04596 0.50417
 O856 O 0.02281 -0.05356 0.53202
 O857 O -0.00288 -0.04157 0.45401
 O858 O -0.03287 -0.02011 0.44838
 O859 O -0.01393 0.00837 0.55899
 O860 O 0.01823 -0.00778 0.56179
 O861 O -0.00723 0.05843 0.51673
 O862 O 0.01105 0.06086 0.48327
 O863 O -0.05668 0.01731 0.50826
 O864 O -0.06104 -0.01798 0.49469
 O865 O -0.04320 -0.00270 0.54157
 O866 O -0.04999 -0.03422 0.51913
 O867 O -0.03917 0.04624 0.49651
 O868 O -0.02089 0.04965 0.46560
 O869 O 0.00457 0.04091 0.54561
 O870 O 0.03792 0.02087 0.54720
 O871 O 0.01818 -0.00771 0.44091
 O872 O -0.01795 0.00639 0.43819
 O873 O 0.00865 -0.05913 0.48296
 O874 O -0.00721 -0.06082 0.51830
 O875 O 0.06022 -0.01732 0.49178
 O876 O 0.06188 0.01763 0.50881
 Zr877 Zr 0.03714 0.00628 0.48953
 O878 O 0.01914 0.02633 0.50863
 Zr879 Zr 0.01129 -0.03592 0.50633
 O880 O -0.00732 -0.01751 0.52644
 Zr881 Zr -0.00535 -0.01019 0.46411
 O882 O -0.02492 0.00906 0.48245
 Zr883 Zr 0.00882 0.00985 0.53519
 O884 O 0.02858 -0.00988 0.51717
 Zr885 Zr -0.00826 0.03547 0.49295
 O886 O 0.01084 0.01737 0.47257
 Zr887 Zr -0.03383 -0.00662 0.51004
 O888 O -0.01630 -0.02703 0.49039
 O889 O 0.02145 -0.02054 0.47947
 O890 O -0.01835 0.02029 0.52014
 C891 C 0.03756 -0.00211 0.44160
 C892 C 0.05942 -0.03644 0.49811
 C893 C 0.00268 -0.05833 0.46372
 C894 C -0.03333 0.00291 0.55826
 C895 C -0.00151 0.05758 0.53604
 C896 C -0.05585 0.03663 0.50246
 H897 H 0.02771 0.03868 0.51257
 H898 H -0.03717 0.01327 0.47387
 H899 H 0.03035 -0.02959 0.47051
 H900 H -0.01118 -0.02593 0.53890
 H901 H 0.03113 -0.01544 0.55771
 H902 H 0.01843 -0.04615 0.54492
 H903 H -0.01027 0.04807 0.45439
 H904 H -0.00862 0.01852 0.43553
 H905 H 0.03549 0.02626 0.56160
 H906 H 0.07547 0.01505 0.50165
 H907 H -0.06200 -0.01082 0.48094
 H908 H -0.04022 -0.02981 0.45806
 H909 H 0.04240 0.04097 0.46906
 H910 H 0.00246 0.07385 0.48358
 H911 H -0.01988 -0.06176 0.50932
 H912 H -0.04257 -0.04025 0.53139
 O913 O 0.79380 0.24668 0.20274
 O914 O 0.77358 0.21658 0.19786
 O915 O 0.74837 0.29623 0.20813
 O916 O 0.72078 0.30394 0.22834
 O917 O 0.79895 0.29133 0.25324
 O918 O 0.80475 0.26970 0.28306
 O919 O 0.69375 0.24198 0.26517
 O920 O 0.69073 0.25834 0.23310
 O921 O 0.73553 0.19174 0.25795
 O922 O 0.76879 0.18914 0.23929
 O923 O 0.74480 0.23262 0.30738
 O924 O 0.75872 0.26785 0.31166
 O925 O 0.71154 0.25283 0.29430
 O926 O 0.73422 0.28421 0.30095
 O927 O 0.75616 0.20367 0.28969
 O928 O 0.78687 0.20013 0.27108
 O929 O 0.70668 0.20951 0.24646
 O930 O 0.70491 0.22965 0.21317
 O931 O 0.81157 0.25753 0.23190
 O932 O 0.81457 0.24319 0.26793
 O933 O 0.77002 0.30912 0.24204
 O934 O 0.73485 0.31099 0.25823
 O935 O 0.76033 0.26757 0.19041
 O936 O 0.74306 0.23271 0.18884
 Zr937 Zr 0.76267 0.24387 0.21340
 O938 O 0.74362 0.22387 0.23154
 Zr939 Zr 0.74645 0.28608 0.23954
 O940 O 0.72639 0.26773 0.25831
 Zr941 Zr 0.78865 0.26001 0.25568
 O942 O 0.77037 0.24081 0.27539
 Zr943 Zr 0.71729 0.24049 0.24217
 O944 O 0.73524 0.26019 0.22228
 Zr945 Zr 0.75951 0.21453 0.25877
 O946 O 0.77981 0.23257 0.23950
 Zr947 Zr 0.74299 0.25664 0.28461
 O948 O 0.76261 0.27698 0.26694
 O949 O 0.77309 0.27057 0.22906
 O950 O 0.73254 0.22986 0.26915
 C951 C 0.81063 0.25202 0.21250
 C952 C 0.75416 0.28673 0.19133
 C953 C 0.78930 0.30818 0.24782
 C954 C 0.69472 0.24734 0.28458
 C955 C 0.71616 0.19276 0.25242
 C956 C 0.75043 0.21326 0.30644
 H957 H 0.73949 0.21157 0.22298
 H958 H 0.77904 0.23650 0.28754
 H959 H 0.78202 0.27960 0.22010
 H960 H 0.71403 0.27621 0.26232
 H961 H 0.69472 0.26600 0.22016
 H962 H 0.70787 0.29659 0.23281
 H963 H 0.79799 0.20168 0.26035
 H964 H 0.81707 0.23112 0.25850
 H965 H 0.69048 0.22436 0.21573
 H966 H 0.75009 0.23531 0.17518
 H967 H 0.77237 0.26050 0.31253
 H968 H 0.79521 0.27939 0.29057
 H969 H 0.78284 0.20908 0.20785
 H970 H 0.76846 0.17612 0.24785
 H971 H 0.74394 0.31180 0.27082
 H972 H 0.72193 0.29034 0.29367
 O973 O 0.75532 0.70363 0.70975
 O974 O 0.78543 0.69875 0.73003
 O975 O 0.70576 0.70913 0.75513
 O976 O 0.69822 0.72933 0.78283
 O977 O 0.71057 0.75399 0.70454
 O978 O 0.73213 0.78394 0.69876
 O979 O 0.76017 0.76626 0.80968
 O980 O 0.74379 0.73425 0.81280
 O981 O 0.81035 0.75877 0.76785
 O982 O 0.81284 0.74015 0.73458
 O983 O 0.76944 0.80834 0.75847
 O984 O 0.73416 0.81259 0.74462
 O985 O 0.74927 0.79535 0.79184
 O986 O 0.71788 0.80200 0.76920
 O987 O 0.79837 0.79058 0.74718
 O988 O 0.80185 0.77193 0.71653
 O989 O 0.79264 0.74736 0.79674
 O990 O 0.77239 0.71420 0.79863
 O991 O 0.74445 0.73277 0.69194
 O992 O 0.75861 0.76880 0.68884
 O993 O 0.69284 0.74292 0.73353
 O994 O 0.69103 0.75924 0.76863
 O995 O 0.73440 0.69138 0.74315
 O996 O 0.76925 0.68979 0.76054
 Zr997 Zr 0.75813 0.71433 0.74087
 O998 O 0.77816 0.73250 0.75987
 Zr999 Zr 0.71593 0.74052 0.75708
 O1000 O 0.73434 0.75933 0.77707
 Zr1001 Zr 0.74192 0.75657 0.71483
 O1002 O 0.76118 0.77629 0.73304
 Zr1003 Zr 0.76160 0.74320 0.78619
 O1004 O 0.74186 0.72328 0.76830
 Zr1005 Zr 0.78749 0.75967 0.74391
 O1006 O 0.76938 0.74039 0.72366
 Zr1007 Zr 0.74541 0.78559 0.76041
 O1008 O 0.72501 0.76789 0.74087
 O1009 O 0.73141 0.73000 0.73044
 O1010 O 0.77222 0.77014 0.77088
 C1011 C 0.74997 0.71338 0.69291
 C1012 C 0.71523 0.69232 0.74929
 C1013 C 0.69375 0.74857 0.71421
 C1014 C 0.75479 0.78566 0.80868
 C1015 C 0.80939 0.75322 0.78721
 C1016 C 0.78880 0.80737 0.75283
 H1017 H 0.79046 0.72392 0.76399
 H1018 H 0.76548 0.78841 0.72433
 H1019 H 0.72239 0.72102 0.72152
 H1020 H 0.72589 0.76338 0.78943
 H1021 H 0.73607 0.72135 0.80884
 H1022 H 0.70547 0.73405 0.79571
 H1023 H 0.80025 0.76121 0.70541
 H1024 H 0.77076 0.75946 0.68640
 H1025 H 0.77771 0.71677 0.81305
 H1026 H 0.76665 0.67613 0.75351
 H1027 H 0.74143 0.81338 0.73093
 H1028 H 0.72233 0.79136 0.70826
 H1029 H 0.79290 0.70869 0.72070
 H1030 H 0.82587 0.74868 0.73489
 H1031 H 0.69022 0.77182 0.75952
 H1032 H 0.71171 0.79469 0.78144
 O1033 O 0.29388 0.20921 0.74747
 O1034 O 0.29881 0.22945 0.71744
 O1035 O 0.28865 0.25462 0.79709
 O1036 O 0.26847 0.28225 0.80482
 O1037 O 0.24357 0.20413 0.79227
 O1038 O 0.21360 0.19847 0.77076
 O1039 O 0.23161 0.30934 0.74277
 O1040 O 0.26365 0.31233 0.75916
 O1041 O 0.23876 0.26755 0.69262
 O1042 O 0.25728 0.23424 0.69003
 O1043 O 0.18930 0.25840 0.73358
 O1044 O 0.18505 0.24454 0.76882
 O1045 O 0.20247 0.29165 0.75371
 O1046 O 0.19584 0.26901 0.78517
 O1047 O 0.20695 0.24705 0.70461
 O1048 O 0.22548 0.21627 0.70110
 O1049 O 0.25035 0.29636 0.71033
 O1050 O 0.28362 0.29808 0.73053
 O1051 O 0.26471 0.19149 0.75834
 O1052 O 0.22859 0.18858 0.74423
 O1053 O 0.25479 0.23303 0.81005
 O1054 O 0.23856 0.26822 0.81190
 O1055 O 0.30629 0.24258 0.76842
 O1056 O 0.30784 0.25994 0.73356
 Zr1057 Zr 0.28328 0.24035 0.74474
 O1058 O 0.26514 0.25943 0.72474
 Zr1059 Zr 0.25723 0.25661 0.78699
 O1060 O 0.23847 0.27671 0.76863
 Zr1061 Zr 0.24098 0.21447 0.76096
 O1062 O 0.22127 0.23279 0.74176
 Zr1063 Zr 0.25458 0.28577 0.74135
 O1064 O 0.27447 0.26779 0.76106
 Zr1065 Zr 0.23787 0.24360 0.71544
 O1066 O 0.25714 0.22327 0.73349
 Zr1067 Zr 0.21212 0.26019 0.75758
 O1068 O 0.22978 0.24053 0.77792
 O1069 O 0.26764 0.22995 0.77146
 O1070 O 0.22755 0.27059 0.73076
 C1071 C 0.28409 0.19239 0.75278
 C1072 C 0.30543 0.24876 0.78758
 C1073 C 0.24905 0.21374 0.80911
 C1074 C 0.21221 0.30843 0.74814
 C1075 C 0.24437 0.28689 0.69359
 C1076 C 0.19021 0.25280 0.71422
 H1077 H 0.27370 0.26352 0.71243
 H1078 H 0.20910 0.22415 0.73747
 H1079 H 0.27662 0.22100 0.78046
 H1080 H 0.23448 0.28909 0.77708
 H1081 H 0.27657 0.30832 0.76685
 H1082 H 0.26399 0.29517 0.79746
 H1083 H 0.23619 0.20513 0.70262
 H1084 H 0.23793 0.18608 0.73208
 H1085 H 0.28108 0.31250 0.72522
 H1086 H 0.32150 0.25289 0.73617
 H1087 H 0.18421 0.23085 0.76157
 H1088 H 0.20618 0.20801 0.78053
 H1089 H 0.28878 0.22028 0.70990
 H1090 H 0.24870 0.23458 0.67703
 H1091 H 0.22598 0.25913 0.81275
 H1092 H 0.20315 0.28129 0.79126
 O1093 O 0.20718 0.74689 0.29595
 O1094 O 0.22725 0.71676 0.30088
 O1095 O 0.25292 0.79629 0.29074
 O1096 O 0.28056 0.80393 0.27056
 O1097 O 0.20234 0.79184 0.24563
 O1098 O 0.19653 0.77040 0.21567
 O1099 O 0.30727 0.74178 0.23368
 O1100 O 0.31038 0.75814 0.26573
 O1101 O 0.26517 0.69186 0.24086
 O1102 O 0.23182 0.68943 0.25936
 O1103 O 0.25629 0.73297 0.19140
 O1104 O 0.24256 0.76828 0.18714
 O1105 O 0.28961 0.75288 0.20455
 O1106 O 0.26716 0.78449 0.19794
 O1107 O 0.24479 0.70402 0.20905
 O1108 O 0.21394 0.70064 0.22752
 O1109 O 0.29411 0.70941 0.25244
 O1110 O 0.29597 0.72955 0.28570
 O1111 O 0.18950 0.75790 0.26678
 O1112 O 0.18647 0.74392 0.23067
 O1113 O 0.23137 0.80944 0.25687
 O1114 O 0.26657 0.81113 0.24065
 O1115 O 0.24070 0.76765 0.30837
 O1116 O 0.25784 0.73272 0.30992
 Zr1117 Zr 0.23831 0.74403 0.28535
 O1118 O 0.25726 0.72398 0.26722
 Zr1119 Zr 0.25480 0.78625 0.25931
 O1120 O 0.27479 0.76783 0.24056
 Zr1121 Zr 0.21248 0.76047 0.24306
 O1122 O 0.23068 0.74121 0.22335
 Zr1123 Zr 0.28371 0.74047 0.25667
 O1124 O 0.26584 0.76023 0.27655
 Zr1125 Zr 0.24135 0.71481 0.23996
 O1126 O 0.22113 0.73293 0.25921
 Zr1127 Zr 0.25818 0.75692 0.21421
 O1128 O 0.23864 0.77732 0.23187
 O1129 O 0.22805 0.77084 0.26972
 O1130 O 0.26843 0.73003 0.22965
 C1131 C 0.19038 0.75228 0.28616
 C1132 C 0.24701 0.78677 0.30751
 C1133 C 0.21207 0.80862 0.25110
 C1134 C 0.30636 0.74718 0.21427
 C1135 C 0.28452 0.69273 0.24646
 C1136 C 0.25062 0.71362 0.19232
 H1137 H 0.26128 0.71163 0.27578
 H1138 H 0.22201 0.73698 0.21118
 H1139 H 0.21916 0.77987 0.27870
 H1140 H 0.28723 0.77622 0.23657
 H1141 H 0.30644 0.76582 0.27865
 H1142 H 0.29344 0.79651 0.26610
 H1143 H 0.20280 0.70220 0.23822
 H1144 H 0.18393 0.73174 0.23998
 H1145 H 0.31037 0.72417 0.28317
 H1146 H 0.25082 0.73533 0.32358
 H1147 H 0.22884 0.76104 0.18626
 H1148 H 0.20614 0.78011 0.20824
 H1149 H 0.21802 0.70929 0.29085
 H1150 H 0.23209 0.67644 0.25079
 H1151 H 0.25748 0.81205 0.22806
 H1152 H 0.27950 0.79049 0.20523
 O1153 O 0.19123 0.74296 0.76709
 O1154 O 0.18809 0.75765 0.73414
 O1155 O 0.23408 0.69130 0.75752
 O1156 O 0.26686 0.68660 0.74648
 O1157 O 0.24322 0.73419 0.80996
 O1158 O 0.25726 0.76866 0.81261
 O1159 O 0.29079 0.74685 0.70404
 O1160 O 0.27166 0.71621 0.70018
 O1161 O 0.24896 0.79636 0.70973
 O1162 O 0.21544 0.79974 0.72979
 O1163 O 0.29623 0.79129 0.75308
 O1164 O 0.30322 0.76947 0.78399
 O1165 O 0.30850 0.75850 0.73291
 O1166 O 0.31215 0.74332 0.76913
 O1167 O 0.26726 0.80919 0.74206
 O1168 O 0.23223 0.81215 0.75795
 O1169 O 0.25965 0.76719 0.69210
 O1170 O 0.23949 0.73378 0.69058
 O1171 O 0.20892 0.75473 0.79594
 O1172 O 0.23101 0.78490 0.80188
 O1173 O 0.25431 0.70507 0.79248
 O1174 O 0.28576 0.70067 0.77012
 O1175 O 0.20485 0.70904 0.74698
 O1176 O 0.20169 0.73104 0.71490
 Zr1177 Zr 0.21479 0.74046 0.74410
 O1178 O 0.23285 0.75984 0.72426
 Zr1179 Zr 0.25706 0.71477 0.76099
 O1180 O 0.27671 0.73265 0.74132
 Zr1181 Zr 0.24052 0.75716 0.78635
 O1182 O 0.25986 0.77685 0.76814
 Zr1183 Zr 0.25993 0.74349 0.71508
 O1184 O 0.24093 0.72324 0.73334
 Zr1185 Zr 0.24380 0.78607 0.74078
 O1186 O 0.22367 0.76805 0.76012
 Zr1187 Zr 0.28601 0.76005 0.75715
 O1188 O 0.26805 0.74103 0.77777
 O1189 O 0.23023 0.73026 0.77108
 O1190 O 0.27053 0.77041 0.73035
 C1191 C 0.19208 0.74925 0.78623
 C1192 C 0.21475 0.69217 0.75182
 C1193 C 0.24914 0.71495 0.80925
 C1194 C 0.30749 0.75301 0.71352
 C1195 C 0.25492 0.78673 0.69307
 C1196 C 0.28671 0.80807 0.74718
 H1197 H 0.22432 0.76416 0.71199
 H1198 H 0.26417 0.78902 0.77673
 H1199 H 0.22124 0.72129 0.78006
 H1200 H 0.28884 0.72401 0.73694
 H1201 H 0.26145 0.70484 0.70305
 H1202 H 0.27389 0.69061 0.73324
 H1203 H 0.24130 0.81424 0.77038
 H1204 H 0.22067 0.79187 0.79259
 H1205 H 0.24731 0.73472 0.67715
 H1206 H 0.18805 0.72396 0.71749
 H1207 H 0.29515 0.78070 0.79105
 H1208 H 0.27125 0.76188 0.81224
 H1209 H 0.18940 0.77189 0.74020
 H1210 H 0.21873 0.81327 0.72279
 H1211 H 0.29154 0.70923 0.78173
 H1212 H 0.31461 0.73110 0.75989
 O1213 O 0.26860 0.30887 0.25937
 O1214 O 0.23569 0.31216 0.24482
 O1215 O 0.25901 0.26549 0.31072
 O1216 O 0.24792 0.23266 0.31509
 O1217 O 0.31148 0.25683 0.26781
 O1218 O 0.31419 0.24316 0.23323
 O1219 O 0.20551 0.20936 0.25438
 O1220 O 0.20164 0.22807 0.28529
 O1221 O 0.21134 0.25172 0.20540
 O1222 O 0.23145 0.28521 0.20231
 O1223 O 0.25463 0.20437 0.21013
 O1224 O 0.28555 0.19720 0.23196
 O1225 O 0.23439 0.19178 0.24267
 O1226 O 0.27056 0.18797 0.25797
 O1227 O 0.24360 0.23349 0.19247
 O1228 O 0.25967 0.26858 0.18988
 O1229 O 0.19364 0.24075 0.23443
 O1230 O 0.19210 0.26047 0.26808
 O1231 O 0.29748 0.29135 0.24748
 O1232 O 0.30349 0.26951 0.21718
 O1233 O 0.29398 0.24538 0.29679
 O1234 O 0.27154 0.21391 0.30086
 O1235 O 0.24852 0.29488 0.29322
 O1236 O 0.21641 0.29819 0.27121
 Zr1237 Zr 0.24563 0.28526 0.26170
 O1238 O 0.22582 0.26741 0.24210
 Zr1239 Zr 0.26247 0.24276 0.28702
 O1240 O 0.24280 0.22329 0.26892
 Zr1241 Zr 0.28790 0.25975 0.24482
 O1242 O 0.26972 0.24059 0.22492
 Zr1243 Zr 0.21659 0.24017 0.25817
 O1244 O 0.23483 0.25894 0.27865
 Zr1245 Zr 0.24239 0.25674 0.21579
 O1246 O 0.26170 0.27669 0.23405
 Zr1247 Zr 0.25868 0.21428 0.24146
 O1248 O 0.27928 0.23205 0.26068
 O1249 O 0.27261 0.26975 0.27180
 O1250 O 0.23191 0.22986 0.23119
 C1251 C 0.28774 0.30812 0.25306
 C1252 C 0.25333 0.28482 0.31001
 C1253 C 0.31076 0.25067 0.28698
 C1254 C 0.21497 0.19274 0.24805
 C1255 C 0.19466 0.24568 0.21494
 C1256 C 0.24870 0.21403 0.19343
 H1257 H 0.21357 0.27599 0.23783
 H1258 H 0.27832 0.23640 0.21272
 H1259 H 0.28159 0.27866 0.28085
 H1260 H 0.23839 0.21106 0.27742
 H1261 H 0.20448 0.23814 0.29679
 H1262 H 0.23467 0.22569 0.31099
 H1263 H 0.27198 0.25940 0.18760
 H1264 H 0.29419 0.27987 0.21025
 H1265 H 0.17866 0.25267 0.26704
 H1266 H 0.21898 0.31173 0.27848
 H1267 H 0.29257 0.20534 0.22075
 H1268 H 0.31376 0.22909 0.23983
 H1269 H 0.24159 0.31092 0.23051
 H1270 H 0.22453 0.28205 0.18870
 H1271 H 0.28315 0.20821 0.29225
 H1272 H 0.26126 0.18535 0.27013
 O1273 O 0.74360 0.70543 0.29103
 O1274 O 0.71343 0.70064 0.27082
 O1275 O 0.79313 0.71060 0.24560
 O1276 O 0.80096 0.73074 0.21797
 O1277 O 0.78847 0.75564 0.29607
 O1278 O 0.76707 0.78566 0.30170
 O1279 O 0.73903 0.76770 0.19077
 O1280 O 0.75530 0.73560 0.18785
 O1281 O 0.68883 0.76065 0.23261
 O1282 O 0.68622 0.74218 0.26600
 O1283 O 0.73000 0.81001 0.24160
 O1284 O 0.76514 0.81429 0.25547
 O1285 O 0.75011 0.79680 0.20844
 O1286 O 0.78165 0.80328 0.23120
 O1287 O 0.70096 0.79246 0.25298
 O1288 O 0.69737 0.77403 0.28383
 O1289 O 0.70651 0.74905 0.20379
 O1290 O 0.72660 0.71574 0.20212
 O1291 O 0.75457 0.73457 0.30872
 O1292 O 0.74040 0.77071 0.31156
 O1293 O 0.80619 0.74436 0.26718
 O1294 O 0.80811 0.76064 0.23195
 O1295 O 0.76441 0.69300 0.25766
 O1296 O 0.72953 0.69151 0.24035
 Zr1297 Zr 0.74080 0.71606 0.25988
 O1298 O 0.72087 0.73424 0.24076
 Zr1299 Zr 0.78314 0.74202 0.24358
 O1300 O 0.76486 0.76079 0.22343
 Zr1301 Zr 0.75717 0.75832 0.28572
 O1302 O 0.73806 0.77806 0.26735
 Zr1303 Zr 0.73752 0.74474 0.21439
 O1304 O 0.75715 0.72483 0.23242
 Zr1305 Zr 0.71167 0.76153 0.25655
 O1306 O 0.72964 0.74222 0.27693
 Zr1307 Zr 0.75391 0.78716 0.23993
 O1308 O 0.77418 0.76947 0.25965
 O1309 O 0.76757 0.73165 0.27024
 O1310 O 0.72704 0.77179 0.22954
 C1311 C 0.74900 0.71519 0.30784
 C1312 C 0.78358 0.69385 0.25150
 C1313 C 0.80528 0.75008 0.28647
 C1314 C 0.74450 0.78709 0.19166
 C1315 C 0.68979 0.75505 0.21327
 C1316 C 0.71063 0.80915 0.24717
 H1317 H 0.70853 0.72571 0.23668
 H1318 H 0.73380 0.79025 0.27596
 H1319 H 0.77656 0.72265 0.27920
 H1320 H 0.77333 0.76475 0.21105
 H1321 H 0.76295 0.72267 0.19188
 H1322 H 0.79361 0.73518 0.20504
 H1323 H 0.69891 0.76336 0.29503
 H1324 H 0.72833 0.76130 0.31415
 H1325 H 0.72128 0.71828 0.18770
 H1326 H 0.73208 0.67786 0.24744
 H1327 H 0.75803 0.81504 0.26925
 H1328 H 0.77685 0.79306 0.29215
 H1329 H 0.70601 0.71065 0.28009
 H1330 H 0.67324 0.75078 0.26562
 H1331 H 0.80906 0.77316 0.24109
 H1332 H 0.78762 0.79607 0.21882
 O1333 O 0.70263 0.28945 0.74527
 O1334 O 0.69769 0.26938 0.71511
 O1335 O 0.70745 0.24376 0.79474
 O1336 O 0.72735 0.21588 0.80237
 O1337 O 0.75289 0.29391 0.79036
 O1338 O 0.78288 0.29960 0.76901
 O1339 O 0.76438 0.18895 0.74049
 O1340 O 0.73220 0.18606 0.75665
 O1341 O 0.75771 0.23112 0.69048
 O1342 O 0.73928 0.26450 0.68791
 O1343 O 0.80696 0.23967 0.73174
 O1344 O 0.81115 0.25338 0.76711
 O1345 O 0.79357 0.20645 0.75165
 O1346 O 0.80020 0.22882 0.78324
 O1347 O 0.78949 0.25136 0.70274
 O1348 O 0.77112 0.28229 0.69927
 O1349 O 0.74591 0.20224 0.70798
 O1350 O 0.71249 0.20058 0.72791
 O1351 O 0.73185 0.30691 0.75642
 O1352 O 0.76801 0.30970 0.74243
 O1353 O 0.74144 0.26497 0.80795
 O1354 O 0.75735 0.22965 0.80973
 O1355 O 0.68995 0.25605 0.76602
 O1356 O 0.68841 0.23886 0.73109
 Zr1357 Zr 0.71306 0.25825 0.74245
 O1358 O 0.73117 0.23918 0.72247
 Zr1359 Zr 0.73887 0.24157 0.78477
 O1360 O 0.75759 0.22147 0.76643
 Zr1361 Zr 0.75545 0.28378 0.75901
 O1362 O 0.77513 0.26547 0.73986
 Zr1363 Zr 0.74153 0.21267 0.73901
 O1364 O 0.72166 0.23065 0.75869
 Zr1365 Zr 0.75855 0.25492 0.71340
 O1366 O 0.73932 0.27525 0.73142
 Zr1367 Zr 0.78406 0.23792 0.75561
 O1368 O 0.76643 0.25756 0.77593
 O1369 O 0.72867 0.26838 0.76931
 O1370 O 0.76866 0.22779 0.72867
 C1371 C 0.71249 0.30617 0.75074
 C1372 C 0.69074 0.24980 0.78518
 C1373 C 0.74734 0.28422 0.80713
 C1374 C 0.78378 0.18974 0.74595
 C1375 C 0.75206 0.21179 0.69134
 C1376 C 0.80615 0.24540 0.71240
 H1377 H 0.72264 0.23521 0.71009
 H1378 H 0.78737 0.27407 0.73567
 H1379 H 0.71974 0.27735 0.77831
 H1380 H 0.76147 0.20902 0.77485
 H1381 H 0.71926 0.19010 0.76426
 H1382 H 0.73182 0.20298 0.79501
 H1383 H 0.76042 0.29346 0.70074
 H1384 H 0.75869 0.31234 0.73028
 H1385 H 0.71499 0.18618 0.72255
 H1386 H 0.67479 0.24598 0.73365
 H1387 H 0.81219 0.26704 0.75979
 H1388 H 0.79028 0.28992 0.77869
 H1389 H 0.70779 0.27855 0.70767
 H1390 H 0.74792 0.26422 0.67496
 H1391 H 0.77001 0.23862 0.81068
 H1392 H 0.79281 0.21655 0.78924
 C1393 C 0.08870 1.01140 1.14844
 N1394 N 0.07304 0.99714 1.14620
 N1395 N 0.06319 0.99501 1.12784
 C1396 C 0.06870 1.00708 1.11117
 N1397 N 0.08438 1.02132 1.11341
 N1398 N 0.09423 1.02345 1.13176
 C1399 C 0.09872 1.01431 1.16842
 C1400 C 0.10691 1.01714 1.18526
 C1401 C 0.05753 1.00537 1.09166
 C1402 C 0.04784 1.00418 1.07543
 C1403 C 0.58963 0.51101 0.64895
 N1404 N 0.57534 0.49547 0.64615
 N1405 N 0.56555 0.49326 0.62777
 C1406 C 0.56976 0.50652 0.61164
 N1407 N 0.58407 0.52204 0.61443
 N1408 N 0.59387 0.52425 0.63281
 C1409 C 0.59955 0.51392 0.66899
 C1410 C 0.60762 0.51667 0.68590
 C1411 C 0.55855 0.50471 0.59216
 C1412 C 0.54878 0.50346 0.57598
 C1413 C 0.41393 -0.00857 0.65080
 N1414 N 0.43286 0.00115 0.64992
 N1415 N 0.44282 0.00328 0.63165
 C1416 C 0.43415 -0.00424 0.61371
 N1417 N 0.41521 -0.01392 0.61458
 N1418 N 0.40524 -0.01606 0.63285
 C1419 C 0.40366 -0.01173 0.67059
 C1420 C 0.39523 -0.01480 0.68725
 C1421 C 0.44532 -0.00283 0.59421
 C1422 C 0.45491 -0.00210 0.57792
 C1423 C -0.08753 0.49226 1.15097
 N1424 N -0.06920 0.50303 1.14965
 N1425 N -0.05937 0.50497 1.13128
 C1426 C -0.06758 0.49620 1.11369
 N1427 N -0.08592 0.48546 1.11501
 N1428 N -0.09575 0.48352 1.13337
 C1429 C -0.09758 0.48930 1.17089
 C1430 C -0.10580 0.48638 1.18767
 C1431 C -0.05650 0.49744 1.09413
 C1432 C -0.04696 0.49808 1.07782
 C1433 C -0.09126 0.51314 0.35090
 N1434 N -0.09375 0.52761 0.36632
 N1435 N -0.08406 0.52525 0.38473
 C1436 C -0.07160 0.50835 0.38828
 N1437 N -0.06914 0.49386 0.37288
 N1438 N -0.07882 0.49622 0.35447
 C1439 C -0.10100 0.51613 0.33082
 C1440 C -0.10891 0.51892 0.31384
 C1441 C -0.06049 0.50625 0.40776
 C1442 C -0.05080 0.50466 0.42395
 C1443 C 0.40949 1.01203 -0.14952
 N1444 N 0.40521 1.02561 -0.13370
 N1445 N 0.41496 1.02381 -0.11525
 C1446 C 0.42928 1.00837 -0.11208
 N1447 N 0.43354 0.99477 -0.12789
 N1448 N 0.42379 0.99657 -0.14634
 C1449 C 0.39967 1.01456 -0.16964
 C1450 C 0.39167 1.01712 -0.18661
 C1451 C 0.44039 1.00692 -0.09253
 C1452 C 0.45008 1.00582 -0.07630
 C1453 C 0.58967 0.48856 -0.14987
 N1454 N 0.59504 0.47600 -0.13352
 N1455 N 0.58538 0.47790 -0.11506
 C1456 C 0.57004 0.49243 -0.11241
 N1457 N 0.56469 0.50502 -0.12875
 N1458 N 0.57435 0.50311 -0.14720
 C1459 C 0.59947 0.48590 -0.16997
 C1460 C 0.60747 0.48326 -0.18691
 C1461 C 0.55905 0.49391 -0.09281
 C1462 C 0.54948 0.49496 -0.07652
 C1463 C 0.08879 -0.00897 0.34863
 N1464 N 0.09672 -0.01841 0.36602
 N1465 N 0.08712 -0.01637 0.38449
 C1466 C 0.06931 -0.00481 0.38615
 N1467 N 0.06141 0.00466 0.36877
 N1468 N 0.07100 0.00261 0.35029
 C1469 C 0.09860 -0.01196 0.32857
 C1470 C 0.10662 -0.01488 0.31168
 C1471 C 0.05846 -0.00340 0.40584
 C1472 C 0.04907 -0.00260 0.42226
 C1473 C 0.14904 1.08783 1.01273
 N1474 N 0.14613 1.07367 0.99709
 N1475 N 0.12773 1.06394 0.99489
 C1476 C 0.11169 1.06806 1.00826
 N1477 N 0.11458 1.08224 1.02387
 N1478 N 0.13298 1.09197 1.02608
 C1479 C 0.16907 1.09774 1.01559
 C1480 C 0.18596 1.10586 1.01833
 C1481 C 0.09214 1.05702 1.00635
 C1482 C 0.07588 1.04742 1.00491
 C1483 C 0.64874 0.58875 0.51238
 N1484 N 0.64521 0.57554 0.49606
 N1485 N 0.62683 0.56571 0.49417
 C1486 C 0.61143 0.56878 0.50855
 N1487 N 0.61495 0.58201 0.52485
 N1488 N 0.63333 0.59184 0.52674
 C1489 C 0.66880 0.59870 0.51489
 C1490 C 0.68573 0.60681 0.51735
 C1491 C 0.59194 0.55759 0.50693
 C1492 C 0.57575 0.54786 0.50567
 C1493 C 0.65062 0.41039 -0.01247
 N1494 N 0.63455 0.40599 -0.02574
 N1495 N 0.61621 0.41588 -0.02385
 C1496 C 0.61340 0.43048 -0.00862
 N1497 N 0.62946 0.43486 0.00468
 N1498 N 0.64780 0.42497 0.00278
 C1499 C 0.67060 0.40033 -0.01505
 C1500 C 0.68746 0.39211 -0.01761
 C1501 C 0.59391 0.44165 -0.00702
 C1502 C 0.57769 0.45132 -0.00578
 C1503 C 0.15173 -0.08886 0.49169
 N1504 N 0.13412 -0.09689 0.48278
 N1505 N 0.11577 -0.08706 0.48483
 C1506 C 0.11446 -0.06890 0.49585
 N1507 N 0.13206 -0.06089 0.50480
 N1508 N 0.15041 -0.07072 0.50275
 C1509 C 0.17165 -0.09888 0.48860
 C1510 C 0.18845 -0.10705 0.48554
 C1511 C 0.09492 -0.05777 0.49716
 C1512 C 0.07863 -0.04817 0.49783
 C1513 C 0.35178 -0.08827 0.50894
 N1514 N 0.35278 -0.06945 0.49900
 N1515 N 0.37111 -0.05958 0.49686
 C1516 C 0.38898 -0.06822 0.50460
 N1517 N 0.38798 -0.08706 0.51450
 N1518 N 0.36965 -0.09693 0.51665
 C1519 C 0.33192 -0.09839 0.51218
 C1520 C 0.31521 -0.10667 0.51536
 C1521 C 0.40853 -0.05713 0.50320
 C1522 C 0.42486 -0.04759 0.50247
 C1523 C -0.14979 0.41160 1.00923
 N1524 N -0.14836 0.42950 0.99778
 N1525 N -0.12998 0.43929 0.99568
 C1526 C -0.11247 0.43146 1.00497
 N1527 N -0.11389 0.41353 1.01639
 N1528 N -0.13227 0.40375 1.01849
 C1529 C -0.16973 0.40158 1.01227
 C1530 C -0.18654 0.39338 1.01521
 C1531 C -0.09289 0.44250 1.00352
 C1532 C -0.07656 0.45203 1.00270
 C1533 C -0.15224 0.58760 0.48807
 N1534 N -0.13583 0.59222 0.47532
 N1535 N -0.11758 0.58220 0.47749
 C1536 C -0.11519 0.56726 0.49250
 N1537 N -0.13159 0.56266 0.50527
 N1538 N -0.14984 0.57268 0.50310
 C1539 C -0.17210 0.59786 0.48523
 C1540 C -0.18887 0.60625 0.48257
 C1541 C -0.09579 0.55595 0.49435
 C1542 C -0.07962 0.54620 0.49565
 C1543 C 0.34784 1.08824 -0.01030
 N1544 N 0.36431 1.09397 -0.02252
 N1545 N 0.38276 1.08426 -0.02066
 C1546 C 0.38530 1.06853 -0.00652
 N1547 N 0.36884 1.06282 0.00573
 N1548 N 0.35039 1.07253 0.00387
 C1549 C 0.32776 1.09812 -0.01292
 C1550 C 0.31083 1.10620 -0.01552
 C1551 C 0.40491 1.05752 -0.00509
 C1552 C 0.42123 1.04796 -0.00410
 C1553 C 0.01219 1.15007 1.08693
 N1554 N 0.02260 1.13276 1.09370
 N1555 N 0.02024 1.11446 1.08385
 C1556 C 0.00740 1.11292 1.06691
 N1557 N -0.00303 1.13022 1.06015
 N1558 N -0.00067 1.14852 1.07001
 C1559 C 0.01541 1.16994 1.09702
 C1560 C 0.01851 1.18667 1.10530
 C1561 C 0.00549 1.09342 1.05581
 C1562 C 0.00415 1.07717 1.04623
 C1563 C 0.51095 0.64860 0.58984
 N1564 N 0.49642 0.64637 0.57441
 N1565 N 0.49432 0.62812 0.56440
 C1566 C 0.50670 0.61155 0.56952
 N1567 N 0.52120 0.61377 0.58497
 N1568 N 0.52330 0.63202 0.59498
 C1569 C 0.51384 0.66850 0.59998
 C1570 C 0.51664 0.68530 0.60822
 C1571 C 0.50503 0.59217 0.55816
 C1572 C 0.50387 0.57604 0.54834
 C1573 C -0.01344 0.64789 0.41105
 N1574 N 0.00157 0.64512 0.42592
 N1575 N 0.00357 0.62670 0.43567
 C1576 C -0.00939 0.61050 0.43085
 N1577 N -0.02438 0.61326 0.41595
 N1578 N -0.02637 0.63167 0.40620
 C1579 C -0.01618 0.66796 0.40118
 C1580 C -0.01885 0.68490 0.39316
 C1581 C -0.00780 0.59096 0.44196
 C1582 C -0.00670 0.57472 0.45163
 C1583 C 0.48705 1.15005 -0.08911
 N1584 N 0.47375 1.13403 -0.09360
 N1585 N 0.47578 1.11556 -0.08397
 C1586 C 0.49119 1.11254 -0.06955
 N1587 N 0.50451 1.12855 -0.06509
 N1588 N 0.50248 1.14702 -0.07472
 C1589 C 0.48429 1.17019 -0.09884
 C1590 C 0.48161 1.18718 -0.10677
 C1591 C 0.49282 1.09295 -0.05852
 C1592 C 0.49398 1.07669 -0.04888
 C1593 C 0.51148 0.34867 -0.08789
 N1594 N 0.52389 0.36509 -0.09337
 N1595 N 0.52210 0.38347 -0.08355
 C1596 C 0.50785 0.38599 -0.06793
 N1597 N 0.49542 0.36957 -0.06247
 N1598 N 0.49721 0.35119 -0.07230
 C1599 C 0.51396 0.32867 -0.09795
 C1600 C 0.51641 0.31181 -0.10619
 C1601 C 0.50643 0.40554 -0.05686
 C1602 C 0.50542 0.42184 -0.04728
 C1603 C 0.00845 -0.15103 0.41202
 N1604 N 0.01779 -0.13364 0.40401
 N1605 N 0.01591 -0.11520 0.41369
 C1606 C 0.00463 -0.11359 0.43167
 N1607 N -0.00474 -0.13097 0.43966
 N1608 N -0.00286 -0.14941 0.42998
 C1609 C 0.01128 -0.17105 0.40212
 C1610 C 0.01408 -0.18791 0.39401
 C1611 C 0.00345 -0.09396 0.44263
 C1612 C 0.00288 -0.07760 0.45211
 C1613 C 0.49214 -0.15069 0.58884
 N1614 N 0.50331 -0.14951 0.57076
 N1615 N 0.50570 -0.13117 0.56095
 C1616 C 0.49700 -0.11346 0.56894
 N1617 N 0.48586 -0.11464 0.58705
 N1618 N 0.48347 -0.13298 0.59685
 C1619 C 0.48877 -0.17056 0.59889
 C1620 C 0.48557 -0.18731 0.60711
 C1621 C 0.49873 -0.09392 0.55788
 C1622 C 0.49974 -0.07759 0.54835
 C1623 C -0.00642 0.34909 1.08825
 N1624 N -0.01524 0.36660 1.09654
 N1625 N -0.01335 0.38505 1.08683
 C1626 C -0.00258 0.38655 1.06853
 N1627 N 0.00628 0.36905 1.06026
 N1628 N 0.00439 0.35060 1.06997
 C1629 C -0.00936 0.32906 1.09816
 C1630 C -0.01230 0.31220 1.10625
 C1631 C -0.00143 0.40620 1.05755
 C1632 C -0.00088 0.42258 1.04805
 C1633 C 0.75973 0.33933 0.09900
 N1634 N 0.74853 0.32127 0.10045
 N1635 N 0.74666 0.31141 0.11883
 C1636 C 0.75594 0.31931 0.13630
 N1637 N 0.76711 0.33739 0.13485
 N1638 N 0.76898 0.34725 0.11648
 C1639 C 0.76265 0.34936 0.07904
 C1640 C 0.76556 0.35753 0.06221
 C1641 C 0.75482 0.30815 0.15585
 C1642 C 0.75429 0.29851 0.17213
 C1643 C 0.26381 0.83939 0.60102
 N1644 N 0.24771 0.82583 0.60425
 N1645 N 0.24565 0.81603 0.62263
 C1646 C 0.25962 0.81950 0.63834
 N1647 N 0.27571 0.83308 0.63512
 N1648 N 0.27777 0.84288 0.61674
 C1649 C 0.26652 0.84932 0.58098
 C1650 C 0.26915 0.85742 0.56408
 C1651 C 0.25784 0.80835 0.65784
 C1652 C 0.25647 0.79866 0.67404
 C1653 C 0.74218 0.66098 0.60072
 N1654 N 0.73377 0.65279 0.61849
 N1655 N 0.73612 0.66260 0.63682
 C1656 C 0.74697 0.68090 0.63793
 N1657 N 0.75542 0.68907 0.62017
 N1658 N 0.75306 0.67925 0.60184
 C1659 C 0.73872 0.65098 0.58084
 C1660 C 0.73534 0.64282 0.56411
 C1661 C 0.74857 0.69201 0.65745
 C1662 C 0.74945 0.70162 0.67372
 C1663 C 0.23990 0.16071 0.10180
 N1664 N 0.22951 0.15404 0.11915
 N1665 N 0.23179 0.16409 0.13736
 C1666 C 0.24451 0.18111 0.13877
 N1667 N 0.25492 0.18775 0.12142
 N1668 N 0.25265 0.17771 0.10321
 C1669 C 0.23672 0.15045 0.08200
 C1670 C 0.23363 0.14207 0.06532
 C1671 C 0.24631 0.19242 0.15816
 C1672 C 0.24754 0.20216 0.17433
 C1673 C 0.25628 0.16074 0.90111
 N1674 N 0.26462 0.15259 0.88330
 N1675 N 0.26239 0.16256 0.86503
 C1676 C 0.25175 0.18098 0.86401
 N1677 N 0.24338 0.18911 0.88181
 N1678 N 0.24561 0.17914 0.90008
 C1679 C 0.25958 0.15053 0.92094
 C1680 C 0.26280 0.14220 0.93764
 C1681 C 0.25026 0.19223 0.84454
 C1682 C 0.24945 0.20193 0.82829
 C1683 C 0.75683 0.66203 0.39972
 N1684 N 0.76472 0.65376 0.38176
 N1685 N 0.76239 0.66381 0.36354
 C1686 C 0.75211 0.68245 0.36273
 N1687 N 0.74419 0.69070 0.38068
 N1688 N 0.74651 0.68064 0.39890
 C1689 C 0.76018 0.65168 0.41946
 C1690 C 0.76342 0.64322 0.43610
 C1691 C 0.75048 0.69374 0.34329
 C1692 C 0.74955 0.70343 0.32705
 C1693 C 0.24163 0.83884 0.40004
 N1694 N 0.23195 0.84663 0.38273
 N1695 N 0.23376 0.83689 0.36430
 C1696 C 0.24531 0.81908 0.36264
 N1697 N 0.25502 0.81132 0.37995
 N1698 N 0.25321 0.82105 0.39838
 C1699 C 0.23885 0.84877 0.42006
 C1700 C 0.23610 0.85688 0.43693
 C1701 C 0.24640 0.80804 0.34305
 C1702 C 0.24691 0.79848 0.32673
 C1703 C 0.74114 0.33690 0.89926
 N1704 N 0.75079 0.31794 0.89835
 N1705 N 0.75278 0.30797 0.88007
 C1706 C 0.74519 0.31666 0.86215
 N1707 N 0.73558 0.33564 0.86306
 N1708 N 0.73358 0.34561 0.88134
 C1709 C 0.73806 0.34714 0.91906
 C1710 C 0.73501 0.35555 0.93573
 C1711 C 0.74645 0.30549 0.84265
 C1712 C 0.74708 0.29588 0.82637
 C1713 C 0.84104 0.40086 0.24183
 N1714 N 0.84853 0.38370 0.23170
 N1715 N 0.83893 0.36521 0.23366
 C1716 C 0.82155 0.36333 0.24581
 N1717 N 0.81409 0.38047 0.25598
 N1718 N 0.82369 0.39896 0.25401
 C1719 C 0.85073 0.42096 0.23883
 C1720 C 0.85859 0.43791 0.23586
 C1721 C 0.81057 0.34371 0.24702
 C1722 C 0.80103 0.32738 0.24761
 C1723 C 0.34001 0.89985 0.73977
 N1724 N 0.34517 0.88342 0.72727
 N1725 N 0.33521 0.86511 0.72918
 C1726 C 0.31980 0.86269 0.74366
 N1727 N 0.31466 0.87911 0.75619
 N1728 N 0.32461 0.89742 0.75427
 C1729 C 0.35009 0.91981 0.73707
 C1730 C 0.35830 0.93666 0.73440
 C1731 C 0.30850 0.84326 0.74515
 C1732 C 0.29871 0.82709 0.74618
 C1733 C 0.16007 0.90121 0.25756
 N1734 N 0.17803 0.89972 0.24622
 N1735 N 0.18777 0.88131 0.24420
 C1736 C 0.17984 0.86383 0.25345
 N1737 N 0.16187 0.86532 0.26475
 N1738 N 0.15213 0.88373 0.26678
 C1739 C 0.15013 0.92120 0.26058
 C1740 C 0.14202 0.93805 0.26356
 C1741 C 0.19087 0.84423 0.25212
 C1742 C 0.20040 0.82789 0.25143
 C1743 C 0.66095 0.39894 0.75764
 N1744 N 0.67918 0.39753 0.74674
 N1745 N 0.68884 0.37909 0.74461
 C1746 C 0.68055 0.36150 0.75332
 N1747 N 0.66230 0.36291 0.76419
 N1748 N 0.65265 0.38135 0.76632
 C1749 C 0.65112 0.41894 0.76084
 C1750 C 0.64309 0.43578 0.76400
 C1751 C 0.69148 0.34186 0.75192
 C1752 C 0.70092 0.32548 0.75116
 C1753 C 0.66224 0.60040 0.74171
 N1754 N 0.65425 0.61819 0.73314
 N1755 N 0.66418 0.63646 0.73549
 C1756 C 0.68240 0.63749 0.74649
 N1757 N 0.69037 0.61971 0.75510
 N1758 N 0.68044 0.60144 0.75275
 C1759 C 0.65209 0.58057 0.73831
 C1760 C 0.64382 0.56386 0.73503
 C1761 C 0.69366 0.65695 0.74808
 C1762 C 0.70337 0.67318 0.74891
 C1763 C 0.16164 0.10113 0.23868
 N1764 N 0.15601 0.11807 0.22705
 N1765 N 0.16600 0.13632 0.22940
 C1766 C 0.18191 0.13817 0.24346
 N1767 N 0.18751 0.12123 0.25511
 N1768 N 0.17753 0.10299 0.25276
 C1769 C 0.15146 0.08128 0.23553
 C1770 C 0.14315 0.06454 0.23250
 C1771 C 0.19321 0.15757 0.24539
 C1772 C 0.20299 0.17372 0.24674
 C1773 C 0.33690 0.10033 0.75922
 N1774 N 0.31793 0.10123 0.74956
 N1775 N 0.30793 0.11950 0.74753
 C1776 C 0.31661 0.13741 0.75511
 N1777 N 0.33560 0.13652 0.76473
 N1778 N 0.34559 0.11825 0.76675
 C1779 C 0.34718 0.08054 0.76233
 C1780 C 0.35561 0.06388 0.76543
 C1781 C 0.30540 0.15690 0.75381
 C1782 C 0.29578 0.17317 0.75313
 C1783 C 0.83670 0.60205 0.25884
 N1784 N 0.81789 0.60282 0.24886
 N1785 N 0.80785 0.62104 0.24656
 C1786 C 0.81632 0.63903 0.25417
 N1787 N 0.83515 0.63826 0.26412
 N1788 N 0.84519 0.62005 0.26641
 C1789 C 0.84699 0.58232 0.26223
 C1790 C 0.85541 0.56569 0.26552
 C1791 C 0.80503 0.65845 0.25266
 C1792 C 0.79534 0.67467 0.25186
 C1793 C 0.90292 0.25916 0.16012
 N1794 N 0.90142 0.24720 0.17769
 N1795 N 0.88306 0.24508 0.18751
 C1796 C 0.86566 0.25485 0.18005
 N1797 N 0.86715 0.26677 0.16246
 N1798 N 0.88550 0.26889 0.15264
 C1799 C 0.92285 0.26221 0.15009
 C1800 C 0.93966 0.26516 0.14190
 C1801 C 0.84612 0.25336 0.19117
 C1802 C 0.82984 0.25252 0.20077
 C1803 C 0.39978 0.75982 0.66107
 N1804 N 0.39730 0.74576 0.67688
 N1805 N 0.37888 0.74394 0.68663
 C1806 C 0.36238 0.75613 0.68088
 N1807 N 0.36485 0.77017 0.66505
 N1808 N 0.38327 0.77199 0.65530
 C1809 C 0.41985 0.76247 0.65121
 C1810 C 0.43678 0.76514 0.64317
 C1811 C 0.34283 0.75478 0.69197
 C1812 C 0.32658 0.75388 0.70162
 C1813 C 0.39780 0.24213 0.84001
 N1814 N 0.38011 0.23363 0.84828
 N1815 N 0.36174 0.23578 0.83847
 C1816 C 0.36050 0.24648 0.82010
 N1817 N 0.37818 0.25502 0.81185
 N1818 N 0.39655 0.25287 0.82166
 C1819 C 0.41774 0.23885 0.84999
 C1820 C 0.43454 0.23560 0.85812
 C1821 C 0.34093 0.24783 0.80897
 C1822 C 0.32464 0.24850 0.79935
 C1823 C 0.89724 0.74130 0.33922
 N1824 N 0.87953 0.73226 0.34683
 N1825 N 0.86124 0.73486 0.33697
 C1826 C 0.86012 0.74657 0.31921
 N1827 N 0.87782 0.75565 0.31162
 N1828 N 0.89611 0.75305 0.32148
 C1829 C 0.91709 0.73767 0.34925
 C1830 C 0.93383 0.73426 0.35742
 C1831 C 0.84066 0.74843 0.30800
 C1832 C 0.82443 0.74948 0.29831
 C1833 C 0.09820 0.75804 0.33886
 N1834 N 0.11588 0.76659 0.34712
 N1835 N 0.13418 0.76478 0.33715
 C1836 C 0.13535 0.75437 0.31862
 N1837 N 0.11768 0.74579 0.31038
 N1838 N 0.09938 0.74760 0.32034
 C1839 C 0.07833 0.76090 0.34906
 C1840 C 0.06160 0.76378 0.35741
 C1841 C 0.15486 0.75322 0.30744
 C1842 C 0.17114 0.75261 0.29783
 C1843 C 0.59888 0.25722 0.83823
 N1844 N 0.61694 0.26455 0.84684
 N1845 N 0.63515 0.26227 0.83680
 C1846 C 0.63585 0.25259 0.81785
 N1847 N 0.61780 0.24522 0.80926
 N1848 N 0.59959 0.24751 0.81930
 C1849 C 0.57916 0.26058 0.84857
 C1850 C 0.56255 0.26385 0.85703
 C1851 C 0.65529 0.25105 0.80658
 C1852 C 0.67153 0.25022 0.79691
 C1853 C 0.60128 0.74050 0.66219
 N1854 N 0.60276 0.75252 0.67970
 N1855 N 0.62117 0.75494 0.68938
 C1856 C 0.63866 0.74543 0.68182
 N1857 N 0.63719 0.73345 0.66428
 N1858 N 0.61878 0.73103 0.65461
 C1859 C 0.58130 0.73711 0.65233
 C1860 C 0.56447 0.73389 0.64428
 C1861 C 0.65824 0.74713 0.69286
 C1862 C 0.67454 0.74807 0.70244
 C1863 C 0.10317 0.23775 0.16104
 N1864 N 0.10567 0.25263 0.17606
 N1865 N 0.12388 0.25449 0.18621
 C1866 C 0.14014 0.24151 0.18167
 N1867 N 0.13766 0.22665 0.16664
 N1868 N 0.11944 0.22479 0.15648
 C1869 C 0.08332 0.23519 0.15068
 C1870 C 0.06658 0.23265 0.14220
 C1871 C 0.15952 0.24309 0.19308
 C1872 C 0.17565 0.24430 0.20292
 C1873 C -0.08796 1.00917 0.84806
 N1874 N -0.09509 1.01879 0.86565
 N1875 N -0.08536 1.01591 0.88398
 C1876 C -0.06823 1.00332 0.88527
 N1877 N -0.06112 0.99368 0.86768
 N1878 N -0.07085 0.99655 0.84935
 C1879 C -0.09802 1.01277 0.82819
 C1880 C -0.10620 1.01591 0.81139
 C1881 C -0.05727 1.00092 0.90484
 C1882 C -0.04791 0.99939 0.92123
 C1883 C 0.41126 0.51052 0.34979
 N1884 N 0.40489 0.52068 0.36737
 N1885 N 0.41476 0.51756 0.38558
 C1886 C 0.43128 0.50418 0.38676
 N1887 N 0.43764 0.49399 0.36919
 N1888 N 0.42777 0.49711 0.35098
 C1889 C 0.40107 0.51434 0.33005
 C1890 C 0.39279 0.51760 0.31332
 C1891 C 0.44242 0.50149 0.40619
 C1892 C 0.45193 0.49974 0.42248
 C1893 C 0.58974 -0.00675 0.35016
 N1894 N 0.59753 -0.01585 0.36779
 N1895 N 0.58806 -0.01303 0.38622
 C1896 C 0.57054 -0.00100 0.38760
 N1897 N 0.56278 0.00813 0.36998
 N1898 N 0.57225 0.00532 0.35154
 C1899 C 0.59940 -0.01049 0.33017
 C1900 C 0.60721 -0.01382 0.31326
 C1901 C 0.55969 0.00103 0.40722
 C1902 C 0.55032 0.00210 0.42362
 C1903 C 0.08915 0.49385 0.85070
 N1904 N 0.09742 0.48620 0.86878
 N1905 N 0.08766 0.48929 0.88702
 C1906 C 0.06936 0.50016 0.88774
 N1907 N 0.06111 0.50784 0.86966
 N1908 N 0.07087 0.50475 0.85142
 C1909 C 0.09913 0.48974 0.83094
 C1910 C 0.10719 0.48611 0.81421
 C1911 C 0.05820 0.50230 0.90717
 C1912 C 0.04860 0.50333 0.92344
 C1913 C 0.08548 0.50895 0.65095
 N1914 N 0.06603 0.50027 0.65088
 N1915 N 0.05586 0.49719 0.63284
 C1916 C 0.06485 0.50266 0.61433
 N1917 N 0.08431 0.51131 0.61440
 N1918 N 0.09449 0.51439 0.63244
 C1919 C 0.09615 0.51283 0.67041
 C1920 C 0.10488 0.51624 0.68686
 C1921 C 0.05358 0.50016 0.59498
 C1922 C 0.04407 0.49857 0.57869
 C1923 C 0.58623 1.01171 0.15088
 N1924 N 0.56839 1.00009 0.15016
 N1925 N 0.55844 0.99702 0.13200
 C1926 C 0.56606 1.00546 0.11399
 N1927 N 0.58391 1.01706 0.11470
 N1928 N 0.59385 1.02013 0.13286
 C1929 C 0.59660 1.01547 0.17053
 C1930 C 0.60507 1.01870 0.18716
 C1931 C 0.55493 1.00285 0.09455
 C1932 C 0.54548 1.00115 0.07823
 C1933 C 0.41328 0.49128 0.15046
 N1934 N 0.43198 0.50146 0.14984
 N1935 N 0.44202 0.50408 0.13167
 C1936 C 0.43364 0.49662 0.11357
 N1937 N 0.41493 0.48647 0.11418
 N1938 N 0.40489 0.48384 0.13235
 C1939 C 0.40284 0.48786 0.17012
 C1940 C 0.39430 0.48478 0.18672
 C1941 C 0.44482 0.49869 0.09413
 C1942 C 0.45429 0.49998 0.07780
 C1943 C -0.08542 -0.00855 0.65027
 N1944 N -0.06638 0.00100 0.64997
 N1945 N -0.05648 0.00432 0.63184
 C1946 C -0.06534 -0.00175 0.61344
 N1947 N -0.08440 -0.01127 0.61374
 N1948 N -0.09430 -0.01459 0.63187
 C1949 C -0.09575 -0.01271 0.66987
 C1950 C -0.10417 -0.01630 0.68645
 C1951 C -0.05420 0.00079 0.59401
 C1952 C -0.04472 0.00222 0.57769
 C1953 C -0.15259 0.91359 1.01002
 N1954 N -0.15178 0.93157 0.99862
 N1955 N -0.13356 0.94141 0.99562
 C1956 C -0.11557 0.93355 1.00391
 N1957 N -0.11637 0.91555 1.01529
 N1958 N -0.13460 0.90571 1.01829
 C1959 C -0.17230 0.90331 1.01368
 C1960 C -0.18899 0.89492 1.01682
 C1961 C -0.09606 0.94453 1.00136
 C1962 C -0.07965 0.95383 0.99969
 C1963 C 0.34836 0.41226 0.51083
 N1964 N 0.34948 0.42939 0.49820
 N1965 N 0.36774 0.43915 0.49517
 C1966 C 0.38545 0.43206 0.50466
 N1967 N 0.38435 0.41492 0.51727
 N1968 N 0.36608 0.40516 0.52030
 C1969 C 0.32857 0.40216 0.51459
 C1970 C 0.31183 0.39394 0.51785
 C1971 C 0.40496 0.44306 0.50210
 C1972 C 0.42132 0.45245 0.50044
 C1973 C 0.34975 0.58636 -0.00848
 N1974 N 0.36791 0.59513 -0.01534
 N1975 N 0.38612 0.58513 -0.01277
 C1976 C 0.38673 0.56608 -0.00326
 N1977 N 0.36858 0.55732 0.00363
 N1978 N 0.35037 0.56732 0.00106
 C1979 C 0.33007 0.59677 -0.01189
 C1980 C 0.31345 0.60529 -0.01500
 C1981 C 0.40623 0.55498 -0.00124
 C1982 C 0.42261 0.54558 0.00003
 C1983 C -0.14786 0.08875 0.49126
 N1984 N -0.12969 0.09696 0.48378
 N1985 N -0.11149 0.08716 0.48708
 C1986 C -0.11090 0.06887 0.49799
 N1987 N -0.12906 0.06067 0.50550
 N1988 N -0.14726 0.07048 0.50221
 C1989 C -0.16756 0.09885 0.48705
 C1990 C -0.18424 0.10704 0.48338
 C1991 C -0.09147 0.05772 0.50047
 C1992 C -0.07518 0.04817 0.50184
 C1993 C 0.65260 0.08799 0.50584
 N1994 N 0.65191 0.06916 0.49591
 N1995 N 0.63364 0.05935 0.49304
 C1996 C 0.61551 0.06809 0.49997
 N1997 N 0.61620 0.08694 0.50985
 N1998 N 0.63447 0.09675 0.51272
 C1999 C 0.67237 0.09807 0.50975
 C2000 C 0.68907 0.10625 0.51329
 C2001 C 0.59602 0.05695 0.49806
 C2002 C 0.57970 0.04739 0.49718
 C2003 C 0.15106 0.58739 1.00821
 N2004 N 0.15058 0.56869 0.99802
 N2005 N 0.13240 0.55881 0.99483
 C2006 C 0.11415 0.56734 1.00169
 N2007 N 0.11462 0.58606 1.01184
 N2008 N 0.13280 0.59594 1.01503
 C2009 C 0.17071 0.59762 1.01231
 C2010 C 0.18735 0.60594 1.01590
 C2011 C 0.09472 0.55618 0.99931
 C2012 C 0.07841 0.54664 0.99801
 C2013 C 0.14851 0.41195 0.49112
 N2014 N 0.13078 0.40450 0.48196
 N2015 N 0.11250 0.41429 0.48476
 C2016 C 0.11139 0.43180 0.49681
 N2017 N 0.12912 0.43923 0.50600
 N2018 N 0.14740 0.42944 0.50320
 C2019 C 0.16831 0.40178 0.48763
 C2020 C 0.18505 0.39349 0.48459
 C2021 C 0.09186 0.44276 0.49915
 C2022 C 0.07546 0.45210 0.50067
 C2023 C 0.64944 0.91390 -0.01065
 N2024 N 0.63147 0.90636 -0.01923
 N2025 N 0.61329 0.91626 -0.01617
 C2026 C 0.61253 0.93400 -0.00442
 N2027 N 0.63050 0.94154 0.00418
 N2028 N 0.64868 0.93163 0.00113
 C2029 C 0.66911 0.90355 -0.01433
 C2030 C 0.68577 0.89511 -0.01745
 C2031 C 0.59307 0.94506 -0.00178
 C2032 C 0.57671 0.95442 -0.00003
 C2033 C 0.00893 0.84832 0.91376
 N2034 N 0.01514 0.86656 0.90469
 N2035 N 0.01201 0.88482 0.91440
 C2036 C 0.00254 0.88539 0.93346
 N2037 N -0.00370 0.86715 0.94252
 N2038 N -0.00057 0.84889 0.93281
 C2039 C 0.01287 0.82861 0.90362
 C2040 C 0.01633 0.81196 0.89530
 C2041 C 0.00000 0.90497 0.94429
 C2042 C -0.00160 0.92142 0.95349
 C2043 C 0.51114 0.34946 0.41211
 N2044 N 0.51892 0.36769 0.40432
 N2045 N 0.51558 0.38576 0.41432
 C2046 C 0.50433 0.38615 0.43240
 N2047 N 0.49652 0.36792 0.44017
 N2048 N 0.49986 0.34985 0.43017
 C2049 C 0.51523 0.32991 0.40170
 C2050 C 0.51876 0.31336 0.39324
 C2051 C 0.50149 0.40549 0.44359
 C2052 C 0.49963 0.42175 0.45309
 C2053 C -0.01145 0.34752 0.58768
 N2054 N 0.00066 0.34870 0.57021
 N2055 N 0.00341 0.36699 0.56041
 C2056 C -0.00585 0.38467 0.56780
 N2057 N -0.01794 0.38350 0.58529
 N2058 N -0.02069 0.36521 0.59509
 C2059 C -0.01497 0.32770 0.59780
 C2060 C -0.01809 0.31094 0.60606
 C2061 C -0.00361 0.40421 0.55679
 C2062 C -0.00218 0.42058 0.54738
 C2063 C 0.48820 0.84991 0.08736
 N2064 N 0.50116 0.85108 0.07051
 N2065 N 0.50429 0.86935 0.06078
 C2066 C 0.49457 0.88700 0.06763
 N2067 N 0.48163 0.88583 0.08450
 N2068 N 0.47851 0.86756 0.09423
 C2069 C 0.48439 0.83011 0.09744
 C2070 C 0.48115 0.81335 0.10563
 C2071 C 0.49721 0.90650 0.05664
 C2072 C 0.49890 0.92284 0.04724
 C2073 C 0.50915 0.65049 0.08623
 N2074 N 0.51776 0.63268 0.09413
 N2075 N 0.51522 0.61442 0.08424
 C2076 C 0.50398 0.61342 0.06616
 N2077 N 0.49535 0.63123 0.05828
 N2078 N 0.49789 0.64948 0.06817
 C2079 C 0.51239 0.67026 0.09654
 C2080 C 0.51526 0.68697 0.10495
 C2081 C 0.50188 0.59388 0.05515
 C2082 C 0.50053 0.57747 0.04582
 C2083 C 0.00794 0.14961 0.58838
 N2084 N -0.00348 0.14874 0.57040
 N2085 N -0.00640 0.13049 0.56058
 C2086 C 0.00197 0.11256 0.56847
 N2087 N 0.01335 0.11343 0.58647
 N2088 N 0.01627 0.13167 0.59629
 C2089 C 0.01172 0.16938 0.59849
 C2090 C 0.01502 0.18613 0.60669
 C2091 C -0.00014 0.09312 0.55729
 C2092 C -0.00122 0.07685 0.54768
 C2093 C 0.49612 0.15006 0.41285
 N2094 N 0.50493 0.14980 0.43225
 N2095 N 0.50792 0.13168 0.44231
 C2096 C 0.50223 0.11328 0.43325
 N2097 N 0.49346 0.11353 0.41383
 N2098 N 0.49047 0.13165 0.40377
 C2099 C 0.49216 0.16962 0.40240
 C2100 C 0.48862 0.18617 0.39389
 C2101 C 0.50435 0.09388 0.44453
 C2102 C 0.50544 0.07760 0.45412
 C2103 C -0.00724 0.65001 0.91221
 N2104 N 0.00406 0.64912 0.93026
 N2105 N 0.00714 0.63083 0.93998
 C2106 C -0.00095 0.61286 0.93191
 N2107 N -0.01221 0.61374 0.91383
 N2108 N -0.01529 0.63203 0.90412
 C2109 C -0.01121 0.66982 0.90221
 C2110 C -0.01469 0.68659 0.89411
 C2111 C 0.00137 0.59333 0.94295
 C2112 C 0.00265 0.57698 0.95242
 C2113 C 0.25915 0.66243 0.90128
 N2114 N 0.26594 0.65380 0.88305
 N2115 N 0.26323 0.66388 0.86490
 C2116 C 0.25364 0.68289 0.86443
 N2117 N 0.24683 0.69151 0.88266
 N2118 N 0.24954 0.68143 0.90081
 C2119 C 0.26267 0.65191 0.92089
 C2120 C 0.26584 0.64330 0.93746
 C2121 C 0.25149 0.69410 0.84500
 C2122 C 0.25014 0.70359 0.82868
 C2123 C 0.76116 0.16093 0.39845
 N2124 N 0.76933 0.15307 0.38044
 N2125 N 0.76620 0.16290 0.36222
 C2126 C 0.75478 0.18087 0.36145
 N2127 N 0.74658 0.18870 0.37946
 N2128 N 0.74971 0.17887 0.39768
 C2129 C 0.76516 0.15078 0.41819
 C2130 C 0.76863 0.14256 0.43490
 C2131 C 0.75240 0.19205 0.34201
 C2132 C 0.75108 0.20164 0.32574
 C2133 C 0.24146 0.33700 0.40190
 N2134 N 0.25022 0.31759 0.40176
 N2135 N 0.25336 0.30754 0.38369
 C2136 C 0.24787 0.31661 0.36521
 N2137 N 0.23914 0.33604 0.36535
 N2138 N 0.23600 0.34609 0.38342
 C2139 C 0.23746 0.34752 0.42141
 C2140 C 0.23390 0.35612 0.43788
 C2141 C 0.25043 0.30546 0.34581
 C2142 C 0.25207 0.29603 0.32949
 C2143 C 0.74309 0.83882 0.89998
 N2144 N 0.75251 0.81972 0.89997
 N2145 N 0.75594 0.80963 0.88197
 C2146 C 0.75009 0.81835 0.86343
 N2147 N 0.74071 0.83747 0.86344
 N2148 N 0.73728 0.84757 0.88144
 C2149 C 0.73871 0.84931 0.91943
 C2150 C 0.73489 0.85784 0.93589
 C2151 C 0.75267 0.80698 0.84414
 C2152 C 0.75410 0.79730 0.82795
 C2153 C 0.75524 0.83977 0.09987
 N2154 N 0.74540 0.82087 0.10021
 N2155 N 0.74222 0.81089 0.11833
 C2156 C 0.74874 0.81952 0.13668
 N2157 N 0.75854 0.83844 0.13635
 N2158 N 0.76172 0.84842 0.11822
 C2159 C 0.75940 0.85009 0.08027
 C2160 C 0.76309 0.85848 0.06370
 C2161 C 0.74639 0.80827 0.15607
 C2162 C 0.74510 0.79866 0.17234
 C2163 C 0.25472 0.33970 0.60190
 N2164 N 0.24390 0.32136 0.60243
 N2165 N 0.24067 0.31147 0.62059
 C2166 C 0.24813 0.31964 0.63879
 N2167 N 0.25891 0.33801 0.63827
 N2168 N 0.26213 0.34790 0.62011
 C2169 C 0.25896 0.34985 0.58223
 C2170 C 0.26271 0.35804 0.56558
 C2171 C 0.24584 0.30835 0.65816
 C2172 C 0.24468 0.29864 0.67438
 C2173 C 0.74402 0.15979 0.59900
 N2174 N 0.73555 0.15170 0.61679
 N2175 N 0.73820 0.16141 0.63513
 C2176 C 0.74944 0.17947 0.63625
 N2177 N 0.75795 0.18753 0.61847
 N2178 N 0.75530 0.17782 0.60013
 C2179 C 0.74040 0.14986 0.57910
 C2180 C 0.73713 0.14182 0.56228
 C2181 C 0.75120 0.19056 0.65578
 C2182 C 0.75201 0.20013 0.67208
 C2183 C 0.24112 0.66074 0.10056
 N2184 N 0.23322 0.65271 0.11863
 N2185 N 0.23606 0.66272 0.13679
 C2186 C 0.24691 0.68104 0.13743
 N2187 N 0.25485 0.68904 0.11936
 N2188 N 0.25201 0.67904 0.10121
 C2189 C 0.23740 0.65041 0.08088
 C2190 C 0.23412 0.64203 0.06423
 C2191 C 0.24900 0.69234 0.15681
 C2192 C 0.25014 0.70199 0.17305
 C2193 C 0.16217 0.60038 0.74066
 N2194 N 0.18027 0.60098 0.75190
 N2195 N 0.19034 0.61910 0.75481
 C2196 C 0.18260 0.63715 0.74658
 N2197 N 0.16449 0.63656 0.73536
 N2198 N 0.15442 0.61844 0.73245
 C2199 C 0.15169 0.58078 0.73703
 C2200 C 0.14313 0.56421 0.73386
 C2201 C 0.19383 0.65653 0.74901
 C2202 C 0.20336 0.67280 0.75059
 C2203 C 0.66209 0.10173 0.24301
 N2204 N 0.65348 0.12021 0.23681
 N2205 N 0.66375 0.13819 0.23982
 C2206 C 0.68291 0.13826 0.24916
 N2207 N 0.69149 0.11979 0.25539
 N2208 N 0.68122 0.10180 0.25238
 C2209 C 0.65144 0.08228 0.23902
 C2210 C 0.64280 0.06582 0.23550
 C2211 C 0.69447 0.15748 0.25124
 C2212 C 0.70433 0.17361 0.25225
 C2213 C 0.83726 0.09837 0.75606
 N2214 N 0.81739 0.09828 0.74836
 N2215 N 0.80712 0.11626 0.74530
 C2216 C 0.81642 0.13488 0.74982
 N2217 N 0.83631 0.13497 0.75748
 N2218 N 0.84658 0.11699 0.76054
 C2219 C 0.84802 0.07897 0.76006
 C2220 C 0.85680 0.06257 0.76361
 C2221 C 0.80499 0.15418 0.74761
 C2222 C 0.79531 0.17041 0.74643
 C2223 C 0.33747 0.60106 0.25636
 N2224 N 0.31840 0.60138 0.24685
 N2225 N 0.30839 0.61950 0.24373
 C2226 C 0.31718 0.63786 0.24998
 N2227 N 0.33627 0.63755 0.25946
 N2228 N 0.34627 0.61943 0.26258
 C2229 C 0.34781 0.58147 0.26050
 C2230 C 0.35622 0.56490 0.26418
 C2231 C 0.30587 0.65723 0.24781
 C2232 C 0.29619 0.67347 0.24672
 C2233 C 0.33917 0.40061 0.24228
 N2234 N 0.34723 0.38270 0.23407
 N2235 N 0.33751 0.36440 0.23699
 C2236 C 0.31945 0.36345 0.24822
 N2237 N 0.31141 0.38135 0.25646
 N2238 N 0.32113 0.39966 0.25354
 C2239 C 0.34920 0.42042 0.23848
 C2240 C 0.35738 0.43715 0.23505
 C2241 C 0.30849 0.34390 0.25054
 C2242 C 0.29910 0.32753 0.25199
 C2243 C 0.84137 0.89912 0.74120
 N2244 N 0.84900 0.88103 0.73297
 N2245 N 0.83910 0.86288 0.73628
 C2246 C 0.82130 0.86226 0.74795
 N2247 N 0.81369 0.88034 0.75621
 N2248 N 0.82359 0.89849 0.75290
 C2249 C 0.85158 0.91879 0.73704
 C2250 C 0.85983 0.93546 0.73347
 C2251 C 0.81005 0.84289 0.75054
 C2252 C 0.80042 0.82665 0.75203
 C2253 C 0.65902 0.90152 0.25714
 N2254 N 0.67714 0.90061 0.24600
 N2255 N 0.68679 0.88229 0.24296
 C2256 C 0.67858 0.86433 0.25093
 N2257 N 0.66043 0.86524 0.26203
 N2258 N 0.65079 0.88356 0.26507
 C2259 C 0.64917 0.92136 0.26121
 C2260 C 0.64121 0.93813 0.26487
 C2261 C 0.68960 0.84481 0.24876
 C2262 C 0.69909 0.82848 0.24762
 C2263 C 0.16032 0.40063 0.75836
 N2264 N 0.17813 0.39971 0.74673
 N2265 N 0.18786 0.38143 0.74370
 C2266 C 0.18004 0.36352 0.75217
 N2267 N 0.16220 0.36444 0.76375
 N2268 N 0.15248 0.38271 0.76679
 C2269 C 0.15034 0.42043 0.76230
 C2270 C 0.14226 0.43719 0.76577
 C2271 C 0.19113 0.34405 0.74991
 C2272 C 0.20066 0.32775 0.74869
 C2273 C 0.10037 0.75915 0.83918
 N2274 N 0.11841 0.76735 0.84700
 N2275 N 0.13651 0.76472 0.83686
 C2276 C 0.13713 0.75380 0.81859
 N2277 N 0.11910 0.74557 0.81078
 N2278 N 0.10099 0.74820 0.82092
 C2279 C 0.08076 0.76256 0.84972
 C2280 C 0.06419 0.76562 0.85832
 C2281 C 0.15649 0.75166 0.80729
 C2282 C 0.17274 0.75030 0.79770
 C2283 C 0.60307 0.25810 0.33736
 N2284 N 0.62133 0.26536 0.34559
 N2285 N 0.63944 0.26222 0.33559
 C2286 C 0.63984 0.25169 0.31709
 N2287 N 0.62159 0.24440 0.30888
 N2288 N 0.60348 0.24754 0.31887
 C2289 C 0.58347 0.26208 0.34773
 C2290 C 0.56688 0.26553 0.35616
 C2291 C 0.65919 0.24930 0.30581
 C2292 C 0.67543 0.24797 0.29617
 C2293 C 0.59821 0.74454 0.16030
 N2294 N 0.59853 0.75447 0.17913
 N2295 N 0.61665 0.75777 0.18909
 C2296 C 0.63501 0.75128 0.18048
 N2297 N 0.63469 0.74140 0.16163
 N2298 N 0.61657 0.73809 0.15167
 C2299 C 0.57861 0.74018 0.15005
 C2300 C 0.56204 0.73632 0.14174
 C2301 C 0.65436 0.75360 0.19180
 C2302 C 0.67058 0.75475 0.20152
 C2303 C 0.09849 0.24191 0.66138
 N2304 N 0.09883 0.25191 0.68018
 N2305 N 0.11694 0.25514 0.69017
 C2306 C 0.13528 0.24848 0.68166
 N2307 N 0.13495 0.23851 0.66285
 N2308 N 0.11684 0.23529 0.65285
 C2309 C 0.07890 0.23773 0.65103
 C2310 C 0.06232 0.23406 0.64263
 C2311 C 0.15466 0.25088 0.69295
 C2312 C 0.17091 0.25220 0.70259
 C2313 C 0.89822 0.25543 0.66027
 N2314 N 0.89765 0.24530 0.67901
 N2315 N 0.87944 0.24225 0.68884
 C2316 C 0.86124 0.24920 0.68021
 N2317 N 0.86181 0.25929 0.66145
 N2318 N 0.88002 0.26234 0.65162
 C2319 C 0.91793 0.25947 0.65014
 C2320 C 0.93458 0.26308 0.64190
 C2321 C 0.84178 0.24702 0.69135
 C2322 C 0.82548 0.24586 0.70088
 C2323 C 0.39798 0.75659 0.16118
 N2324 N 0.39772 0.74740 0.18040
 N2325 N 0.37962 0.74447 0.19049
 C2326 C 0.36124 0.75063 0.18165
 N2327 N 0.36150 0.75979 0.16241
 N2328 N 0.37960 0.76271 0.15232
 C2329 C 0.41755 0.76055 0.15074
 C2330 C 0.43409 0.76415 0.14226
 C2331 C 0.34188 0.74859 0.19299
 C2332 C 0.32564 0.74753 0.20266
 C2333 C 0.40329 0.24015 0.33858
 N2334 N 0.38562 0.23084 0.34596
 N2335 N 0.36732 0.23360 0.33617
 C2336 C 0.36613 0.24576 0.31871
 N2337 N 0.38380 0.25509 0.31134
 N2338 N 0.40211 0.25233 0.32114
 C2339 C 0.42313 0.23663 0.34872
 C2340 C 0.43989 0.23351 0.35697
 C2341 C 0.34659 0.24804 0.30770
 C2342 C 0.33021 0.24951 0.29831
 C2343 C 0.90099 0.74220 0.84014
 N2344 N 0.88271 0.73498 0.84834
 N2345 N 0.86459 0.73833 0.83839
 C2346 C 0.86419 0.74904 0.81997
 N2347 N 0.88246 0.75629 0.81179
 N2348 N 0.90058 0.75295 0.82174
 C2349 C 0.92061 0.73793 0.85041
 C2350 C 0.93723 0.73425 0.85872
 C2351 C 0.84484 0.75150 0.80865
 C2352 C 0.82863 0.75279 0.79894
   
