data_POSCAR
  _audit_creation_date              2014-09-24
  _audit_creation_method            'ToBaCCo'
  _symmetry_space_group_name_H-M    'P1'
  _symmetry_Int_Tables_number       1
  _symmetry_cell_setting            triclinic
  loop_
  _symmetry_equiv_pos_as_xyz
 x,y,z
_cell_length_a 53.9175
_cell_length_b 55.1371
_cell_length_c 54.6535
_cell_angle_alpha 89.848000
_cell_angle_beta 89.951400
_cell_angle_gamma 89.325500
loop_
  _atom_site_label
  _atom_site_type_symbol
  _atom_site_fract_x
  _atom_site_fract_y
  _atom_site_fract_z
N1 N 0.21835 0.21796 0.20988
 N2 N 0.71712 0.71200 0.71029
 N3 N 0.29186 0.78981 0.70703
 N4 N 0.79696 0.29118 0.20639
 N5 N 0.78343 0.70910 0.29242
 N6 N 0.28434 0.21347 -0.21376
 N7 N 0.70513 0.28659 -0.21020
 N8 N 0.20073 0.79473 0.29594
 N9 N 0.45523 0.45627 0.45434
 N10 N -0.03924 -0.04143 0.96005
 N11 N 1.03607 0.53748 0.96531
 N12 N 0.53512 0.03372 0.46358
 N13 N -0.03436 0.04027 0.53619
 N14 N 0.46702 0.53997 0.03151
 N15 N 0.54140 -0.03990 0.04274
 N16 N 1.04144 0.45719 0.54636
 C17 C 0.41362 0.00566 0.22281
 H18 H 0.41677 0.01960 0.23629
 C19 C 0.43076 0.00215 0.20397
 H20 H 0.44697 0.01352 0.20323
 C21 C 0.38953 -0.02697 0.20852
 H22 H 0.37378 -0.03865 0.21046
 C23 C 0.40603 -0.03092 0.18918
 H24 H 0.40217 -0.04517 0.17620
 N25 N 0.39326 -0.00858 0.22461
 C26 C 0.32717 0.02595 0.24822
 H27 H 0.31850 0.00966 0.25489
 C28 C 0.31258 0.04660 0.24395
 H29 H 0.29275 0.04570 0.24687
 C30 C 0.36337 0.04692 0.23647
 H31 H 0.38321 0.04708 0.23387
 C32 C 0.34948 0.06804 0.23204
 H33 H 0.35890 0.08429 0.22619
 Zn34 Zn 0.37132 -0.00200 0.25114
 N35 N 0.35210 0.02639 0.24441
 C36 C 0.38983 0.02428 0.29175
 N37 N 0.39121 0.00309 0.27912
 C38 C 0.40751 -0.01478 0.28562
 C39 C 0.42312 -0.01182 0.30571
 C40 C 0.40538 0.02815 0.31175
 C41 C 0.33392 -0.03550 0.23882
 C42 C 0.31772 -0.05473 0.24259
 C43 C 0.33284 -0.05820 0.28401
 C44 C 0.34906 -0.03919 0.27930
 N45 N 0.34956 -0.02842 0.25689
 H46 H 0.37684 0.03831 0.28620
 H47 H 0.40826 -0.03141 0.27517
 H48 H 0.43551 -0.02656 0.31082
 H49 H 0.40437 0.04540 0.32112
 H50 H 0.33395 -0.02611 0.22142
 H51 H 0.30606 -0.06043 0.22762
 H52 H 0.33249 -0.06606 0.30217
 H53 H 0.36092 -0.03282 0.29377
 C54 C 0.32371 0.06808 0.23585
 C55 C 0.42698 -0.01618 0.18660
 C56 C 0.31699 -0.06643 0.26547
 C57 C 0.42235 0.00996 0.31904
 C58 C 0.09584 -0.01389 0.71260
 H59 H 0.09757 -0.03141 0.72143
 C60 C 0.08112 -0.01124 0.69173
 H61 H 0.07190 -0.02699 0.68447
 C62 C 0.10658 0.02761 0.71105
 H63 H 0.11666 0.04269 0.71844
 C64 C 0.09178 0.03116 0.69038
 H65 H 0.09030 0.04918 0.68258
 N66 N 0.10801 0.00544 0.72196
 C67 C 0.14887 -0.04613 0.76126
 H68 H 0.13782 -0.04563 0.77772
 C69 C 0.16445 -0.06606 0.75691
 H70 H 0.16531 -0.08070 0.77014
 C71 C 0.16096 -0.02810 0.72375
 H72 H 0.15953 -0.01312 0.71098
 C73 C 0.17648 -0.04786 0.71849
 H74 H 0.18713 -0.04798 0.70168
 Zn75 Zn 0.12727 0.00018 0.75053
 N76 N 0.14771 -0.02747 0.74494
 C77 C 0.11647 -0.00747 0.80034
 N78 N 0.10615 -0.00473 0.77778
 C79 C 0.08112 -0.00468 0.77470
 C80 C 0.06542 -0.00804 0.79471
 C81 C 0.10146 -0.01118 0.82083
 C82 C 0.17231 0.02556 0.75635
 C83 C 0.18696 0.04576 0.76091
 C84 C 0.14962 0.06948 0.76765
 C85 C 0.13569 0.04875 0.76322
 N86 N 0.14715 0.02748 0.75719
 H87 H 0.13641 -0.00688 0.80237
 H88 H 0.07322 -0.00198 0.75673
 H89 H 0.04555 -0.00827 0.79188
 H90 H 0.10994 -0.01344 0.83866
 H91 H 0.18111 0.00840 0.75203
 H92 H 0.20695 0.04402 0.75968
 H93 H 0.14022 0.08634 0.77218
 H94 H 0.11567 0.04965 0.76429
 C95 C 0.17852 -0.06703 0.73533
 C96 C 0.07870 0.01160 0.68042
 C97 C 0.17561 0.06813 0.76637
 C98 C 0.07558 -0.01152 0.81811
 C99 C 0.59038 0.48629 0.21225
 H100 H 0.58969 0.46938 0.22230
 C101 C 0.57533 0.48980 0.19175
 H102 H 0.56349 0.47519 0.18597
 C103 C 0.60746 0.52539 0.20738
 H104 H 0.62005 0.53920 0.21351
 C105 C 0.59235 0.52988 0.18709
 H106 H 0.59326 0.54740 0.17819
 N107 N 0.60620 0.50388 0.21949
 C108 C 0.66380 0.46394 0.25956
 H109 H 0.66373 0.47319 0.27699
 C110 C 0.68036 0.44468 0.25560
 H111 H 0.69238 0.43883 0.27039
 C112 C 0.64841 0.46063 0.21917
 H113 H 0.63636 0.46718 0.20478
 C114 C 0.66479 0.44144 0.21436
 H115 H 0.66505 0.43350 0.19626
 Zn116 Zn 0.62585 0.49789 0.24757
 N117 N 0.64793 0.47129 0.24159
 C118 C 0.60778 0.47231 0.28970
 N119 N 0.60378 0.49101 0.27383
 C120 C 0.58317 0.50534 0.27572
 C121 C 0.56595 0.50154 0.29439
 C122 C 0.59122 0.46806 0.30887
 C123 C 0.66972 0.52507 0.25169
 C124 C 0.68409 0.54532 0.25675
 C125 C 0.64676 0.56726 0.26790
 C126 C 0.63310 0.54648 0.26286
 N127 N 0.64470 0.52588 0.25496
 H128 H 0.62380 0.46063 0.28772
 H129 H 0.57987 0.51959 0.26245
 H130 H 0.54953 0.51298 0.29519
 H131 H 0.59527 0.45355 0.32167
 H132 H 0.67862 0.50884 0.24479
 H133 H 0.70394 0.54436 0.25381
 H134 H 0.63726 0.58347 0.27428
 H135 H 0.61320 0.54690 0.26509
 C136 C 0.68098 0.43308 0.23275
 C137 C 0.57604 0.51191 0.17887
 C138 C 0.67262 0.56677 0.26495
 C139 C 0.56995 0.48283 0.31150
 C140 C 0.91203 0.50317 0.72522
 H141 H 0.91379 0.51862 0.73724
 C142 C 0.92893 0.49975 0.70615
 H143 H 0.94388 0.51251 0.70403
 C144 C 0.89084 0.46743 0.71431
 H145 H 0.87619 0.45468 0.71767
 C146 C 0.90705 0.46356 0.69470
 H147 H 0.90408 0.44813 0.68291
 N148 N 0.89332 0.48725 0.72882
 C149 C 0.83510 0.52977 0.76429
 H150 H 0.83368 0.52040 0.78165
 C151 C 0.82005 0.55001 0.75954
 H152 H 0.80740 0.55631 0.77360
 C153 C 0.85382 0.53304 0.72521
 H154 H 0.86679 0.52616 0.71176
 C155 C 0.83895 0.55320 0.71959
 H156 H 0.84062 0.56154 0.70172
 Zn157 Zn 0.87138 0.49429 0.75505
 N158 N 0.85180 0.52193 0.74735
 C159 C 0.89135 0.52255 0.79359
 N160 N 0.89118 0.50024 0.78300
 C161 C 0.90604 0.48193 0.79138
 C162 C 0.92124 0.48543 0.81171
 C163 C 0.90651 0.52693 0.81376
 C164 C 0.83376 0.46170 0.74273
 C165 C 0.81734 0.44258 0.74614
 C166 C 0.83214 0.43843 0.78764
 C167 C 0.84847 0.45744 0.78334
 N168 N 0.84935 0.46834 0.76101
 H169 H 0.87999 0.53709 0.78626
 H170 H 0.90598 0.46454 0.78226
 H171 H 0.93293 0.47066 0.81818
 H172 H 0.90631 0.54473 0.82208
 H173 H 0.83431 0.47111 0.72535
 H174 H 0.80576 0.43708 0.73102
 H175 H 0.83163 0.43022 0.80564
 H176 H 0.86020 0.46360 0.79801
 C177 C 0.82185 0.56206 0.73692
 C178 C 0.92642 0.47989 0.69029
 C179 C 0.81648 0.43052 0.76882
 C180 C 0.92159 0.50819 0.82313
 C181 C 0.23020 0.42298 -0.00924
 H182 H 0.24862 0.43043 -0.00934
 C183 C 0.20973 0.43847 -0.01191
 H184 H 0.21268 0.45777 -0.01388
 C185 C 0.20394 0.38898 -0.00580
 H186 H 0.20191 0.36962 -0.00335
 C187 C 0.18293 0.40382 -0.00842
 H188 H 0.16476 0.39568 -0.00831
 N189 N 0.22700 0.39868 -0.00661
 C190 C 0.25284 0.33338 0.02260
 H191 H 0.25743 0.32522 0.00522
 C192 C 0.24964 0.31858 0.04308
 H193 H 0.25165 0.29912 0.04112
 C194 C 0.24378 0.36845 0.04607
 H195 H 0.24146 0.38794 0.04699
 C196 C 0.24044 0.35432 0.06705
 H197 H 0.23587 0.36314 0.08416
 Zn198 Zn 0.25493 0.37776 -0.00340
 N199 N 0.25023 0.35786 0.02449
 C200 C 0.29526 0.39865 0.02217
 N201 N 0.28403 0.39640 0.00004
 C202 C 0.29319 0.40756 -0.02020
 C203 C 0.31419 0.42204 -0.01856
 C204 C 0.31608 0.41321 0.02471
 C205 C 0.23983 0.35627 -0.04815
 C206 C 0.24240 0.34106 -0.06839
 C207 C 0.28388 0.33076 -0.05492
 C208 C 0.28039 0.34591 -0.03474
 N209 N 0.25856 0.35813 -0.03162
 H210 H 0.28790 0.38951 0.03802
 H211 H 0.28403 0.40528 -0.03764
 H212 H 0.32126 0.43054 -0.03497
 H213 H 0.32410 0.41539 0.04270
 H214 H 0.22276 0.36636 -0.04562
 H215 H 0.22725 0.33962 -0.08130
 H216 H 0.30123 0.32088 -0.05698
 H217 H 0.29503 0.34779 -0.02138
 C218 C 0.24354 0.32902 0.06575
 C219 C 0.18569 0.42893 -0.01171
 C220 C 0.26460 0.32802 -0.07189
 C221 C 0.32581 0.42527 0.00421
 C222 C 0.71685 0.08910 -0.00891
 H223 H 0.72821 0.08748 -0.02517
 C224 C 0.69710 0.07335 -0.00529
 H225 H 0.69372 0.05944 -0.01877
 C226 C 0.70848 0.10860 0.02880
 H227 H 0.71319 0.12203 0.04229
 C228 C 0.68829 0.09348 0.03298
 H229 H 0.67736 0.09606 0.04941
 N230 N 0.72206 0.10641 0.00792
 C231 C 0.76151 0.16008 -0.03539
 H232 H 0.77929 0.15994 -0.02623
 C233 C 0.75768 0.17488 -0.05584
 H234 H 0.77258 0.18620 -0.06236
 C235 C 0.72027 0.14581 -0.03770
 H236 H 0.70568 0.13462 -0.03042
 C237 C 0.71551 0.16065 -0.05796
 H238 H 0.69734 0.16053 -0.06638
 Zn239 Zn 0.74961 0.12633 0.00095
 N240 N 0.74304 0.14568 -0.02698
 C241 C 0.78747 0.10358 -0.02743
 N242 N 0.77701 0.10528 -0.00484
 C243 C 0.78510 0.09113 0.01400
 C244 C 0.80512 0.07516 0.01078
 C245 C 0.80732 0.08762 -0.03156
 C246 C 0.73807 0.16320 0.03462
 C247 C 0.74202 0.17904 0.05410
 C248 C 0.78416 0.16395 0.05691
 C249 C 0.77928 0.14811 0.03766
 N250 N 0.75638 0.14769 0.02722
 H251 H 0.78019 0.11427 -0.04243
 H252 H 0.77613 0.09249 0.03167
 H253 H 0.81169 0.06467 0.02628
 H254 H 0.81504 0.08629 -0.04980
 H255 H 0.72027 0.16308 0.02550
 H256 H 0.72716 0.19108 0.05998
 H257 H 0.80239 0.16388 0.06522
 H258 H 0.79391 0.13635 0.03098
 C259 C 0.73442 0.17529 -0.06733
 C260 C 0.68232 0.07550 0.01582
 C261 C 0.76529 0.17945 0.06552
 C262 C 0.81658 0.07324 -0.01226
 C263 C 0.20998 0.59200 0.48735
 H264 H 0.21845 0.59315 0.46945
 C265 C 0.18997 0.57658 0.49119
 H266 H 0.18309 0.56583 0.47616
 C267 C 0.20910 0.60414 0.52892
 H268 H 0.21686 0.61459 0.54368
 C269 C 0.18934 0.58865 0.53366
 H270 H 0.18174 0.58765 0.55197
 N271 N 0.21884 0.60569 0.50601
 C272 C 0.25827 0.66205 0.46582
 H273 H 0.27621 0.66094 0.47462
 C274 C 0.25441 0.67832 0.44655
 H275 H 0.26948 0.68965 0.44041
 C276 C 0.21658 0.64909 0.46348
 H277 H 0.20176 0.63799 0.47039
 C278 C 0.21176 0.66551 0.44452
 H279 H 0.19336 0.66661 0.43662
 Zn280 Zn 0.24643 0.62574 0.49969
 N281 N 0.23967 0.64737 0.47344
 C282 C 0.28672 0.60652 0.47125
 N283 N 0.27375 0.60495 0.49254
 C284 C 0.27943 0.58772 0.50953
 C285 C 0.29907 0.57145 0.50565
 C286 C 0.30678 0.59088 0.46679
 C287 C 0.23509 0.66043 0.53504
 C288 C 0.23910 0.67591 0.55475
 C289 C 0.28100 0.66016 0.55771
 C290 C 0.27608 0.64476 0.53808
 N291 N 0.25337 0.64512 0.52726
 H292 H 0.28161 0.61984 0.45761
 H293 H 0.26854 0.58657 0.52612
 H294 H 0.30284 0.55763 0.51928
 H295 H 0.31722 0.59302 0.45002
 H296 H 0.21730 0.66052 0.52589
 H297 H 0.22405 0.68753 0.56092
 H298 H 0.29937 0.65997 0.56569
 H299 H 0.29056 0.63288 0.53121
 C300 C 0.23092 0.68012 0.43568
 C301 C 0.17949 0.57474 0.51461
 C302 C 0.26237 0.67605 0.56632
 C303 C 0.31324 0.57297 0.48409
 C304 C 0.72263 0.91498 0.51019
 H305 H 0.73626 0.91924 0.52399
 C306 C 0.70203 0.93019 0.50682
 H307 H 0.70028 0.94633 0.51793
 C308 C 0.70919 0.88918 0.47838
 H309 H 0.71209 0.87322 0.46728
 C310 C 0.68809 0.90366 0.47466
 H311 H 0.67478 0.89831 0.46094
 N312 N 0.72584 0.89497 0.49602
 C313 C 0.76894 0.84127 0.53675
 H314 H 0.78585 0.84060 0.52610
 C315 C 0.76629 0.82620 0.55712
 H316 H 0.78123 0.81386 0.56211
 C317 C 0.72856 0.85771 0.54275
 H318 H 0.71384 0.86988 0.53693
 C319 C 0.72497 0.84266 0.56301
 H320 H 0.70754 0.84352 0.57285
 Zn321 Zn 0.75458 0.87578 0.50162
 N322 N 0.75030 0.85677 0.53012
 C323 C 0.79421 0.89754 0.52717
 N324 N 0.78169 0.89708 0.50560
 C325 C 0.78750 0.91251 0.48707
 C326 C 0.80747 0.92826 0.48932
 C327 C 0.81400 0.91329 0.53039
 C328 C 0.74465 0.83464 0.47383
 C329 C 0.74732 0.81780 0.45496
 C330 C 0.78142 0.84110 0.43914
 C331 C 0.77840 0.85724 0.45859
 N332 N 0.75993 0.85404 0.47521
 H333 H 0.78871 0.88595 0.54212
 H334 H 0.77672 0.91242 0.47038
 H335 H 0.81227 0.93967 0.47393
 H336 H 0.82334 0.91354 0.54791
 H337 H 0.73037 0.83225 0.48751
 H338 H 0.73516 0.80233 0.45459
 H339 H 0.79570 0.84462 0.42571
 H340 H 0.79076 0.87238 0.46015
 C341 C 0.74400 0.82669 0.57039
 C342 C 0.68428 0.92459 0.48892
 C343 C 0.76574 0.82101 0.43705
 C344 C 0.82117 0.92873 0.51120
 C345 C 0.01773 0.21905 0.41374
 H346 H 0.03457 0.22945 0.41504
 C347 C 0.01433 0.19899 0.42896
 H348 H 0.02905 0.19381 0.44143
 C349 C -0.02154 0.21321 0.39545
 H350 H -0.03562 0.21901 0.38260
 C351 C -0.02594 0.19333 0.41067
 H352 H -0.04357 0.18426 0.40938
 N353 N 0.00014 0.22544 0.39705
 C354 C 0.03772 0.26458 0.33870
 H355 H 0.02494 0.27973 0.33662
 C356 C 0.05759 0.26185 0.32251
 H357 H 0.05963 0.27487 0.30783
 C358 C 0.04945 0.22862 0.35966
 H359 H 0.04606 0.21543 0.37383
 C360 C 0.06988 0.22547 0.34424
 H361 H 0.08224 0.21019 0.34740
 Zn362 Zn 0.00578 0.25289 0.37704
 N363 N 0.03400 0.24809 0.35683
 C364 C 0.03246 0.29182 0.39769
 N365 N 0.01069 0.27958 0.39809
 C366 C -0.00747 0.28523 0.41448
 C367 C -0.00444 0.30440 0.43080
 C368 C 0.03645 0.31082 0.41402
 C369 C -0.02491 0.24212 0.33762
 C370 C -0.04443 0.24504 0.32107
 C371 C -0.05740 0.28103 0.34297
 C372 C -0.03732 0.27770 0.35882
 N373 N -0.02175 0.25829 0.35608
 H374 H 0.04688 0.28669 0.38491
 H375 H -0.02432 0.27478 0.41485
 H376 H -0.01910 0.30876 0.44368
 H377 H 0.05383 0.32047 0.41349
 H378 H -0.01213 0.22696 0.33573
 H379 H -0.04675 0.23200 0.30648
 H380 H -0.06972 0.29650 0.34538
 H381 H -0.03425 0.29069 0.37320
 C382 C 0.07415 0.24210 0.32517
 C383 C -0.00778 0.18577 0.42761
 C384 C -0.06104 0.26460 0.32380
 C385 C 0.01777 0.31737 0.43071
 C386 C -0.01510 0.71688 0.08782
 H387 H -0.03115 0.72860 0.08538
 C388 C -0.01138 0.69711 0.07230
 H389 H -0.02453 0.69413 0.05770
 C390 C 0.02196 0.70752 0.10922
 H391 H 0.03519 0.71180 0.12331
 C392 C 0.02615 0.68725 0.09443
 H393 H 0.04226 0.67590 0.09799
 N394 N 0.00134 0.72161 0.10598
 C395 C -0.04261 0.76144 0.15973
 H396 H -0.03305 0.77858 0.15981
 C397 C -0.06306 0.75802 0.17498
 H398 H -0.06915 0.77261 0.18686
 C399 C -0.04573 0.72131 0.14467
 H400 H -0.03870 0.70697 0.13305
 C401 C -0.06607 0.71701 0.15985
 H402 H -0.07483 0.69944 0.15951
 Zn403 Zn -0.00592 0.74899 0.12575
 N404 N -0.03451 0.74328 0.14484
 C405 C -0.03392 0.78647 0.10237
 N406 N -0.01123 0.77561 0.10432
 C407 C 0.00816 0.78287 0.09030
 C408 C 0.00546 0.80246 0.07426
 C409 C -0.03755 0.80592 0.08628
 C410 C 0.02742 0.73796 0.16382
 C411 C 0.04676 0.74195 0.18026
 C412 C 0.04981 0.78286 0.16479
 C413 C 0.03074 0.77793 0.14835
 N414 N 0.02028 0.75561 0.14781
 H415 H -0.04933 0.77991 0.11304
 H416 H 0.02590 0.77363 0.09192
 H417 H 0.02144 0.80841 0.06397
 H418 H -0.05587 0.81402 0.08478
 H419 H 0.01827 0.72061 0.16360
 H420 H 0.05271 0.72724 0.19210
 H421 H 0.05750 0.80090 0.16509
 H422 H 0.02408 0.79213 0.13632
 C423 C -0.07497 0.73552 0.17524
 C424 C 0.00936 0.68174 0.07561
 C425 C 0.05838 0.76465 0.18086
 C426 C -0.01765 0.81437 0.07210
 C427 C 0.49609 0.21975 0.57671
 H428 H 0.49062 0.23655 0.56797
 C429 C 0.49874 0.19884 0.56256
 H430 H 0.49590 0.19999 0.54298
 C431 C 0.50609 0.19770 0.61267
 H432 H 0.50853 0.19718 0.63224
 C433 C 0.50903 0.17637 0.59920
 H434 H 0.51377 0.15965 0.60863
 N435 N 0.50012 0.21896 0.60129
 C436 C 0.46878 0.25332 0.66377
 H437 H 0.48502 0.26246 0.67050
 C438 C 0.44826 0.25056 0.67906
 H439 H 0.44926 0.25710 0.69768
 C440 C 0.44800 0.23354 0.63142
 H441 H 0.44809 0.22704 0.61276
 C442 C 0.42696 0.23059 0.64601
 H443 H 0.41082 0.22200 0.63828
 Zn444 Zn 0.49653 0.24777 0.62015
 N445 N 0.46841 0.24455 0.64055
 C446 C 0.47071 0.28871 0.60139
 N447 N 0.49161 0.27486 0.59900
 C448 C 0.50883 0.27991 0.58156
 C449 C 0.50546 0.29966 0.56580
 C450 C 0.46651 0.30852 0.58591
 C451 C 0.52862 0.23716 0.65955
 C452 C 0.54872 0.24018 0.67529
 C453 C 0.56188 0.27395 0.65052
 C454 C 0.54128 0.27054 0.63549
 N455 N 0.52519 0.25224 0.64006
 H456 H 0.45717 0.28438 0.61526
 H457 H 0.52522 0.26853 0.57987
 H458 H 0.51964 0.30355 0.55237
 H459 H 0.44953 0.31900 0.58789
 H460 H 0.51522 0.22329 0.66350
 H461 H 0.55044 0.22842 0.69109
 H462 H 0.57463 0.28833 0.64612
 H463 H 0.53823 0.28268 0.62028
 C464 C 0.42696 0.23900 0.67028
 C465 C 0.50548 0.17680 0.57377
 C466 C 0.56578 0.25876 0.67088
 C467 C 0.48404 0.31428 0.56782
 C468 C 0.51548 0.72207 0.91244
 H469 H 0.53185 0.73310 0.91419
 C470 C 0.51240 0.70190 0.92759
 H471 H 0.52684 0.69737 0.94061
 C472 C 0.47739 0.71434 0.89254
 H473 H 0.46382 0.71923 0.87880
 C474 C 0.47330 0.69433 0.90765
 H475 H 0.45627 0.68436 0.90556
 N476 N 0.49830 0.72763 0.89507
 C477 C 0.53791 0.76611 0.83741
 H478 H 0.52611 0.78199 0.83526
 C479 C 0.55826 0.76272 0.82194
 H480 H 0.56168 0.77600 0.80777
 C481 C 0.54669 0.72902 0.85771
 H482 H 0.54199 0.71568 0.87136
 C483 C 0.56749 0.72512 0.84295
 H484 H 0.57881 0.70907 0.84604
 Zn485 Zn 0.50376 0.75471 0.87455
 N486 N 0.53246 0.74936 0.85486
 C487 C 0.52870 0.79637 0.89235
 N488 N 0.50843 0.78212 0.89497
 C489 C 0.49172 0.78626 0.91320
 C490 C 0.49458 0.80579 0.92911
 C491 C 0.53240 0.81599 0.90799
 C492 C 0.47791 0.75264 0.82974
 C493 C 0.45793 0.75555 0.81376
 C494 C 0.43356 0.77160 0.84720
 C495 C 0.45410 0.76857 0.86253
 N496 N 0.47584 0.75940 0.85360
 H497 H 0.54229 0.79242 0.87838
 H498 H 0.47636 0.77410 0.91572
 H499 H 0.48075 0.80894 0.94315
 H500 H 0.54889 0.82680 0.90577
 H501 H 0.49496 0.74460 0.82307
 H502 H 0.45993 0.74992 0.79489
 H503 H 0.41650 0.77915 0.85457
 H504 H 0.45253 0.77348 0.88154
 C505 C 0.57348 0.74200 0.82460
 C506 C 0.49106 0.68763 0.92533
 C507 C 0.43540 0.76518 0.82244
 C508 C 0.51516 0.82101 0.92665
 C509 C 0.15726 0.22862 0.25830
 C510 C 0.15856 0.20812 0.24296
 C511 C 0.17872 0.20456 0.22727
 C512 C 0.19768 0.22165 0.22613
 C513 C 0.19641 0.24228 0.24097
 C514 C 0.17655 0.24562 0.25711
 C515 C 0.13599 0.23213 0.27546
 C516 C 0.12720 0.25554 0.28132
 C517 C 0.10742 0.25878 0.29758
 C518 C 0.09549 0.23870 0.30807
 C519 C 0.10413 0.21530 0.30200
 C520 C 0.12425 0.21208 0.28617
 H521 H 0.17944 0.18866 0.21570
 H522 H 0.21108 0.25551 0.24032
 H523 H 0.10165 0.27710 0.30204
 H524 H 0.09525 0.19933 0.30926
 H525 H 0.17657 0.26135 0.26891
 H526 H 0.13542 0.27146 0.27320
 H527 H 0.14388 0.19492 0.24282
 H528 H 0.13067 0.19377 0.28254
 C529 C 0.65713 0.72577 0.75981
 C530 C 0.65817 0.73788 0.73726
 C531 C 0.67771 0.73335 0.72103
 C532 C 0.69693 0.71690 0.72720
 C533 C 0.69598 0.70520 0.75014
 C534 C 0.67616 0.70938 0.76612
 C535 C 0.63601 0.72995 0.77659
 C536 C 0.62266 0.71028 0.78586
 C537 C 0.60233 0.71418 0.80128
 C538 C 0.59519 0.73785 0.80816
 C539 C 0.60889 0.75750 0.79902
 C540 C 0.62892 0.75359 0.78321
 H541 H 0.67755 0.74256 0.70353
 H542 H 0.71057 0.69277 0.75581
 H543 H 0.59198 0.69861 0.80742
 H544 H 0.60435 0.77594 0.80426
 H545 H 0.67582 0.70002 0.78356
 H546 H 0.62766 0.69190 0.78073
 H547 H 0.64354 0.75047 0.73197
 H548 H 0.63914 0.76901 0.77642
 C549 C 0.35200 0.77737 0.75650
 C550 C 0.32866 0.78504 0.76524
 C551 C 0.30885 0.78870 0.74912
 C552 C 0.31200 0.78504 0.72387
 C553 C 0.33517 0.77696 0.71517
 C554 C 0.35492 0.77312 0.73129
 C555 C 0.37333 0.77421 0.77349
 C556 C 0.39733 0.78093 0.76624
 C557 C 0.41742 0.77797 0.78212
 C558 C 0.41398 0.76840 0.80570
 C559 C 0.39001 0.76184 0.81308
 C560 C 0.36992 0.76463 0.79712
 H561 H 0.29108 0.79463 0.75630
 H562 H 0.33806 0.77396 0.69580
 H563 H 0.43564 0.78351 0.77608
 H564 H 0.38689 0.75413 0.83105
 H565 H 0.37249 0.76676 0.72398
 H566 H 0.40056 0.78883 0.74838
 H567 H 0.32580 0.78870 0.78450
 H568 H 0.35177 0.75892 0.80317
 C569 C -0.14305 0.27871 0.25653
 C570 C -0.16319 0.29386 0.26291
 C571 C -0.18290 0.29763 0.24672
 C572 C -0.18284 0.28679 0.22342
 C573 C -0.16265 0.27167 0.21704
 C574 C -0.14316 0.26752 0.23343
 C575 C -0.12198 0.27477 0.27383
 C576 C -0.09760 0.27148 0.26506
 C577 C -0.07787 0.26788 0.28129
 C578 C -0.08198 0.26796 0.30663
 C579 C -0.10618 0.27135 0.31551
 C580 C -0.12600 0.27447 0.29930
 H581 H -0.19819 0.30912 0.25252
 H582 H -0.16180 0.26305 0.19929
 H583 H -0.05928 0.26553 0.27407
 H584 H -0.10978 0.27121 0.33501
 H585 H -0.12826 0.25537 0.22798
 H586 H -0.09362 0.27210 0.24567
 H587 H -0.16367 0.30314 0.28032
 H588 H -0.14450 0.27638 0.30679
 C589 C -0.15699 0.71992 0.24190
 C590 C -0.16705 0.73949 0.25522
 C591 C -0.18657 0.73596 0.27161
 C592 C -0.19644 0.71273 0.27529
 C593 C -0.18625 0.69313 0.26212
 C594 C -0.16687 0.69670 0.24554
 C595 C -0.13617 0.72371 0.22444
 C596 C -0.11717 0.70619 0.22196
 C597 C -0.09749 0.70988 0.20576
 C598 C -0.09623 0.73128 0.19186
 C599 C -0.11519 0.74879 0.19424
 C600 C -0.13501 0.74500 0.21025
 H601 H -0.19402 0.75146 0.28139
 H602 H -0.19318 0.67496 0.26471
 H603 H -0.08293 0.69624 0.20451
 H604 H -0.11482 0.76532 0.18350
 H605 H -0.15981 0.68126 0.23540
 H606 H -0.11720 0.68979 0.23290
 H607 H -0.15964 0.75755 0.25321
 H608 H -0.14954 0.75867 0.21131
 C609 C 0.34318 0.22446 0.73531
 C610 C 0.33855 0.20121 0.74486
 C611 C 0.31909 0.19757 0.76132
 C612 C 0.30400 0.21710 0.76876
 C613 C 0.30850 0.24029 0.75924
 C614 C 0.32778 0.24393 0.74259
 C615 C 0.36421 0.22844 0.71817
 C616 C 0.37820 0.24976 0.71942
 C617 C 0.39826 0.25333 0.70368
 C618 C 0.40503 0.23557 0.68643
 C619 C 0.39095 0.21431 0.68506
 C620 C 0.37074 0.21083 0.70067
 H621 H 0.31607 0.17959 0.76866
 H622 H 0.29690 0.25555 0.76460
 H623 H 0.40843 0.27009 0.70501
 H624 H 0.39578 0.20011 0.67221
 H625 H 0.33049 0.26197 0.73529
 H626 H 0.37394 0.26358 0.73286
 H627 H 0.35027 0.18589 0.74003
 H628 H 0.36018 0.19435 0.69894
 C629 C 0.64708 0.27390 0.73825
 C630 C 0.66729 0.28843 0.73190
 C631 C 0.68642 0.29231 0.74861
 C632 C 0.68555 0.28213 0.77226
 C633 C 0.66518 0.26759 0.77851
 C634 C 0.64628 0.26337 0.76163
 C635 C 0.62671 0.26996 0.72064
 C636 C 0.61818 0.24648 0.71600
 C637 C 0.59874 0.24280 0.69957
 C638 C 0.58710 0.26258 0.68774
 C639 C 0.59575 0.28610 0.69249
 C640 C 0.61547 0.28971 0.70860
 H641 H 0.70195 0.30325 0.74294
 H642 H 0.66367 0.25966 0.79658
 H643 H 0.59300 0.22440 0.69603
 H644 H 0.58698 0.30184 0.68419
 H645 H 0.63074 0.25227 0.76700
 H646 H 0.62678 0.23094 0.72489
 H647 H 0.66840 0.29654 0.71386
 H648 H 0.62158 0.30802 0.71212
 C649 C 0.14027 0.78249 0.24744
 C650 C 0.16432 0.78647 0.23829
 C651 C 0.18405 0.79079 0.25418
 C652 C 0.18029 0.79077 0.27956
 C653 C 0.15646 0.78663 0.28883
 C654 C 0.13660 0.78276 0.27296
 C655 C 0.11918 0.77803 0.23047
 C656 C 0.09993 0.76230 0.23711
 C657 C 0.08014 0.75817 0.22120
 C658 C 0.07924 0.76933 0.19804
 C659 C 0.09858 0.78494 0.19136
 C660 C 0.11813 0.78939 0.20742
 H661 H 0.20240 0.79369 0.24674
 H662 H 0.15322 0.78675 0.30839
 H663 H 0.06546 0.74634 0.22723
 H664 H 0.09882 0.79358 0.17356
 H665 H 0.11834 0.78029 0.28073
 H666 H 0.10022 0.75290 0.25451
 H667 H 0.16804 0.78589 0.21884
 H668 H 0.13233 0.80193 0.20176
 C669 C 0.26423 0.15517 0.22042
 C670 C 0.25725 0.16254 0.19671
 C671 C 0.24241 0.18322 0.19321
 C672 C 0.23423 0.19697 0.21333
 C673 C 0.24128 0.18970 0.23698
 C674 C 0.25616 0.16909 0.24049
 C675 C 0.27954 0.13289 0.22428
 C676 C 0.27458 0.11727 0.24401
 C677 C 0.28893 0.09634 0.24775
 C678 C 0.30855 0.09043 0.23181
 C679 C 0.31352 0.10603 0.21206
 C680 C 0.29918 0.12702 0.20833
 H681 H 0.23692 0.18829 0.17483
 H682 H 0.23536 0.20011 0.25275
 H683 H 0.28480 0.08490 0.26333
 H684 H 0.32833 0.10188 0.19930
 H685 H 0.26154 0.16417 0.25895
 H686 H 0.25941 0.12108 0.25645
 H687 H 0.26283 0.15202 0.18089
 H688 H 0.30364 0.13879 0.19311
 C689 C 0.76121 0.64786 0.71816
 C690 C 0.73544 0.64638 0.71436
 C691 C 0.72099 0.66741 0.71156
 C692 C 0.73203 0.69028 0.71234
 C693 C 0.75774 0.69188 0.71550
 C694 C 0.77219 0.67090 0.71855
 C695 C 0.77649 0.62557 0.72227
 C696 C 0.80085 0.62382 0.71317
 C697 C 0.81549 0.60324 0.71782
 C698 C 0.80608 0.58377 0.73152
 C699 C 0.78159 0.58536 0.74028
 C700 C 0.76703 0.60602 0.73582
 H701 H 0.70118 0.66594 0.70884
 H702 H 0.76646 0.70946 0.71620
 H703 H 0.83435 0.60279 0.71102
 H704 H 0.77358 0.57058 0.75056
 H705 H 0.79187 0.67279 0.72180
 H706 H 0.80864 0.63835 0.70237
 H707 H 0.72644 0.62896 0.71346
 H708 H 0.74848 0.60684 0.74339
 C709 C 0.75160 0.34820 0.78263
 C710 C 0.72566 0.35108 0.78418
 C711 C 0.71040 0.33089 0.78657
 C712 C 0.72077 0.30747 0.78760
 C713 C 0.74658 0.30450 0.78644
 C714 C 0.76185 0.32462 0.78380
 C715 C 0.76792 0.36959 0.77956
 C716 C 0.79131 0.37019 0.79087
 C717 C 0.80697 0.38991 0.78741
 C718 C 0.79956 0.40971 0.77276
 C719 C 0.77601 0.40928 0.76173
 C720 C 0.76044 0.38943 0.76500
 H721 H 0.69049 0.33344 0.78772
 H722 H 0.75482 0.28651 0.78711
 H723 H 0.82508 0.38943 0.79594
 H724 H 0.76951 0.42434 0.75062
 H725 H 0.78166 0.32164 0.78223
 H726 H 0.79756 0.35543 0.80251
 H727 H 0.71715 0.36896 0.78379
 H728 H 0.74269 0.38949 0.75576
 C729 C 0.24982 -0.14642 0.28333
 C730 C 0.22393 -0.14266 0.28338
 C731 C 0.20787 -0.16199 0.28736
 C732 C 0.21730 -0.18538 0.29182
 C733 C 0.24304 -0.18923 0.29205
 C734 C 0.25914 -0.17003 0.28763
 C735 C 0.26700 -0.12589 0.27878
 C736 C 0.29024 -0.12508 0.29040
 C737 C 0.30646 -0.10599 0.28593
 C738 C 0.29974 -0.08691 0.27004
 C739 C 0.27640 -0.08760 0.25858
 C740 C 0.26036 -0.10691 0.26273
 H741 H 0.18803 -0.15868 0.28733
 H742 H 0.25063 -0.20723 0.29520
 H743 H 0.32439 -0.10638 0.29481
 H744 H 0.27033 -0.07310 0.24654
 H745 H 0.27887 -0.17381 0.28721
 H746 H 0.29591 -0.13910 0.30318
 H747 H 0.21602 -0.12473 0.28067
 H748 H 0.24282 -0.10702 0.25312
 C749 C 0.24422 -0.14858 0.71712
 C750 C 0.23491 -0.17014 0.70731
 C751 C 0.25052 -0.19028 0.70396
 C752 C 0.27582 -0.18917 0.71006
 C753 C 0.28519 -0.16732 0.71929
 C754 C 0.26951 -0.14732 0.72301
 C755 C 0.22751 -0.12757 0.72162
 C756 C 0.22781 -0.11568 0.74430
 C757 C 0.21176 -0.09612 0.74879
 C758 C 0.19539 -0.08785 0.73054
 C759 C 0.19525 -0.09957 0.70775
 C760 C 0.21103 -0.11941 0.70340
 H761 H 0.24273 -0.20688 0.69694
 H762 H 0.30468 -0.16575 0.72369
 H763 H 0.21232 -0.08726 0.76644
 H764 H 0.18269 -0.09358 0.69345
 H765 H 0.27716 -0.13078 0.73031
 H766 H 0.24024 -0.12177 0.75868
 H767 H 0.21543 -0.17158 0.70279
 H768 H 0.21056 -0.12823 0.68573
 C769 C 0.74825 0.35189 0.21552
 C770 C 0.77394 0.35527 0.21267
 C771 C 0.78993 0.33537 0.20953
 C772 C 0.78054 0.31178 0.20909
 C773 C 0.75494 0.30833 0.21149
 C774 C 0.73896 0.32816 0.21482
 C775 C 0.73123 0.37294 0.21953
 C776 C 0.70737 0.37337 0.20917
 C777 C 0.69112 0.39283 0.21347
 C778 C 0.69838 0.41246 0.22807
 C779 C 0.72234 0.41216 0.23822
 C780 C 0.73853 0.39261 0.23407
 H781 H 0.80964 0.33829 0.20743
 H782 H 0.74746 0.29019 0.21127
 H783 H 0.67272 0.39230 0.20559
 H784 H 0.72869 0.42712 0.24926
 H785 H 0.71938 0.32483 0.21734
 H786 H 0.70124 0.35870 0.19762
 H787 H 0.78167 0.37330 0.21268
 H788 H 0.75665 0.39276 0.24258
 C789 C 0.73336 0.65076 0.28247
 C790 C 0.74461 0.65461 0.30529
 C791 C 0.76067 0.67401 0.30864
 C792 C 0.76599 0.68977 0.28917
 C793 C 0.75443 0.68623 0.26648
 C794 C 0.73820 0.66693 0.26316
 C795 C 0.71730 0.62947 0.27861
 C796 C 0.69480 0.63179 0.26582
 C797 C 0.68003 0.61151 0.26175
 C798 C 0.68765 0.58849 0.27013
 C799 C 0.71008 0.58622 0.28305
 C800 C 0.72469 0.60651 0.28733
 H801 H 0.76939 0.67648 0.32628
 H802 H 0.75818 0.69834 0.25132
 H803 H 0.66292 0.61372 0.25158
 H804 H 0.71628 0.56873 0.28989
 H805 H 0.72991 0.66428 0.24534
 H806 H 0.68860 0.64931 0.25905
 H807 H 0.74100 0.64258 0.32054
 H808 H 0.74206 0.60416 0.29705
 C809 C 0.23666 0.15277 0.77902
 C810 C 0.24282 0.16688 0.75850
 C811 C 0.25843 0.18678 0.76087
 C812 C 0.26798 0.19310 0.78385
 C813 C 0.26161 0.17918 0.80442
 C814 C 0.24620 0.15912 0.80202
 C815 C 0.22063 0.13129 0.77637
 C816 C 0.22707 0.10924 0.78779
 C817 C 0.21238 0.08877 0.78467
 C818 C 0.19081 0.09000 0.77028
 C819 C 0.18416 0.11215 0.75918
 C820 C 0.19900 0.13256 0.76209
 H821 H 0.26303 0.19734 0.74480
 H822 H 0.26887 0.18367 0.82229
 H823 H 0.21782 0.07196 0.79357
 H824 H 0.16774 0.11355 0.74784
 H825 H 0.24159 0.14866 0.81816
 H826 H 0.24374 0.10773 0.79874
 H827 H 0.23589 0.16225 0.74053
 H828 H 0.19352 0.14939 0.75324
 C829 C 0.22986 0.26696 0.15041
 C830 C 0.20573 0.26077 0.15771
 C831 C 0.20199 0.24489 0.17727
 C832 C 0.22228 0.23474 0.18995
 C833 C 0.24639 0.24110 0.18287
 C834 C 0.25015 0.25703 0.16331
 C835 C 0.23379 0.28331 0.12914
 C836 C 0.25292 0.27853 0.11229
 C837 C 0.25619 0.29346 0.09188
 C838 C 0.24039 0.31353 0.08780
 C839 C 0.22143 0.31849 0.10480
 C840 C 0.21817 0.30355 0.12523
 H841 H 0.18322 0.24015 0.18223
 H842 H 0.26231 0.23380 0.19258
 H843 H 0.27118 0.28933 0.07932
 H844 H 0.20881 0.33367 0.10208
 H845 H 0.26895 0.26174 0.15840
 H846 H 0.26511 0.26295 0.11462
 H847 H 0.18972 0.26780 0.14794
 H848 H 0.20344 0.30790 0.13803
 C849 C 0.73038 0.76067 0.65143
 C850 C 0.73390 0.76818 0.67572
 C851 C 0.72969 0.75214 0.69510
 C852 C 0.72229 0.72831 0.69043
 C853 C 0.71933 0.72060 0.66621
 C854 C 0.72314 0.73671 0.64684
 C855 C 0.73382 0.77784 0.63089
 C856 C 0.71562 0.78013 0.61264
 C857 C 0.71879 0.79627 0.59318
 C858 C 0.74040 0.81013 0.59141
 C859 C 0.75865 0.80780 0.60962
 C860 C 0.75529 0.79194 0.62932
 H861 H 0.73205 0.75825 0.71376
 H862 H 0.71359 0.70224 0.66241
 H863 H 0.70455 0.79764 0.57927
 H864 H 0.77542 0.81839 0.60868
 H865 H 0.72052 0.73046 0.62826
 H866 H 0.69883 0.76956 0.61357
 H867 H 0.73936 0.78660 0.67968
 H868 H 0.76961 0.79038 0.64314
 C869 C 0.77587 0.75514 0.35453
 C870 C 0.75688 0.75386 0.33689
 C871 C 0.75926 0.73850 0.31672
 C872 C 0.78084 0.72450 0.31349
 C873 C 0.79988 0.72569 0.33084
 C874 C 0.79735 0.74068 0.35129
 C875 C 0.77336 0.77161 0.37601
 C876 C 0.79423 0.78306 0.38594
 C877 C 0.79184 0.79870 0.40591
 C878 C 0.76843 0.80371 0.41625
 C879 C 0.74756 0.79226 0.40631
 C880 C 0.75002 0.77627 0.38664
 H881 H 0.74451 0.73782 0.30332
 H882 H 0.81655 0.71478 0.32861
 H883 H 0.80843 0.80676 0.41326
 H884 H 0.72917 0.79587 0.41346
 H885 H 0.81213 0.74072 0.36466
 H886 H 0.81247 0.78027 0.37809
 H887 H 0.74032 0.76503 0.33838
 H888 H 0.73355 0.76751 0.37986
 C889 C 0.27591 0.26235 -0.15388
 C890 C 0.25531 0.25577 -0.16812
 C891 C 0.25806 0.23962 -0.18762
 C892 C 0.28147 0.22997 -0.19352
 C893 C 0.30209 0.23657 -0.17952
 C894 C 0.29934 0.25247 -0.15981
 C895 C 0.27298 0.27934 -0.13292
 C896 C 0.29168 0.29602 -0.12723
 C897 C 0.28903 0.31174 -0.10735
 C898 C 0.26748 0.31138 -0.09294
 C899 C 0.24870 0.29492 -0.09865
 C900 C 0.25148 0.27897 -0.11831
 H901 H 0.24198 0.23488 -0.19838
 H902 H 0.32027 0.22910 -0.18368
 H903 H 0.30365 0.32446 -0.10346
 H904 H 0.23205 0.29409 -0.08760
 H905 H 0.31553 0.25670 -0.14901
 H906 H 0.30826 0.29717 -0.13833
 H907 H 0.23708 0.26335 -0.16442
 H908 H 0.23692 0.26608 -0.12178
 C909 C 0.71746 0.23869 -0.15018
 C910 C 0.71951 0.23016 -0.17432
 C911 C 0.71533 0.24586 -0.19407
 C912 C 0.70940 0.27035 -0.18995
 C913 C 0.70769 0.27896 -0.16590
 C914 C 0.71147 0.26322 -0.14615
 C915 C 0.72158 0.22209 -0.12921
 C916 C 0.70462 0.22159 -0.10970
 C917 C 0.70861 0.20613 -0.08975
 C918 C 0.72985 0.19117 -0.08877
 C919 C 0.74684 0.19170 -0.10826
 C920 C 0.74263 0.20687 -0.12840
 H921 H 0.71681 0.23904 -0.21258
 H922 H 0.70315 0.29784 -0.16250
 H923 H 0.69533 0.20615 -0.07487
 H924 H 0.76328 0.18022 -0.10797
 H925 H 0.71001 0.27025 -0.12771
 H926 H 0.68817 0.23306 -0.10999
 H927 H 0.72400 0.21130 -0.17787
 H928 H 0.75604 0.20705 -0.14317
 C929 C 0.21342 0.74631 0.35544
 C930 C 0.21063 0.73734 0.33159
 C931 C 0.20618 0.75325 0.31210
 C932 C 0.20499 0.77836 0.31609
 C933 C 0.20803 0.78736 0.33987
 C934 C 0.21193 0.77143 0.35946
 C935 C 0.21794 0.72946 0.37605
 C936 C 0.20266 0.73019 0.39686
 C937 C 0.20672 0.71396 0.41619
 C938 C 0.22646 0.69715 0.41521
 C939 C 0.24192 0.69664 0.39453
 C940 C 0.23752 0.71250 0.37498
 H941 H 0.20397 0.74605 0.29382
 H942 H 0.20708 0.80669 0.34321
 H943 H 0.19466 0.71470 0.43203
 H944 H 0.25717 0.68374 0.39340
 H945 H 0.21415 0.77869 0.37772
 H946 H 0.18740 0.74309 0.39797
 H947 H 0.21161 0.71802 0.32814
 H948 H 0.24956 0.71173 0.35913
 C949 C 0.28037 0.74164 0.64727
 C950 C 0.28242 0.76678 0.64328
 C951 C 0.28608 0.78255 0.66288
 C952 C 0.28802 0.77353 0.68682
 C953 C 0.28626 0.74849 0.69089
 C954 C 0.28233 0.73271 0.67135
 C955 C 0.27598 0.72487 0.62645
 C956 C 0.28689 0.70157 0.62607
 C957 C 0.28247 0.68574 0.60665
 C958 C 0.26720 0.69288 0.58700
 C959 C 0.25650 0.71627 0.58728
 C960 C 0.26071 0.73199 0.60680
 H961 H 0.28767 0.80182 0.65941
 H962 H 0.28757 0.74127 0.70930
 H963 H 0.29080 0.66780 0.60720
 H964 H 0.24497 0.72256 0.57230
 H965 H 0.28042 0.71355 0.67519
 H966 H 0.29903 0.69558 0.64071
 H967 H 0.28150 0.77427 0.62498
 H968 H 0.25172 0.74964 0.60660
 C969 C 0.78353 0.24360 0.14686
 C970 C 0.78975 0.26792 0.14258
 C971 C 0.79400 0.28355 0.16218
 C972 C 0.79254 0.27500 0.18631
 C973 C 0.78645 0.25071 0.19067
 C974 C 0.78180 0.23515 0.17108
 C975 C 0.77887 0.22714 0.12606
 C976 C 0.75764 0.21263 0.12571
 C977 C 0.75308 0.19733 0.10590
 C978 C 0.76990 0.19596 0.08630
 C979 C 0.79124 0.21033 0.08675
 C980 C 0.79557 0.22593 0.10636
 H981 H 0.79862 0.30228 0.15862
 H982 H 0.78516 0.24397 0.20924
 H983 H 0.73659 0.18630 0.10602
 H984 H 0.80440 0.20967 0.07177
 H985 H 0.77716 0.21644 0.17481
 H986 H 0.74442 0.21338 0.14064
 H987 H 0.79099 0.27489 0.12408
 H988 H 0.81214 0.23685 0.10629
 C989 C 0.46767 0.39613 0.50270
 C990 C 0.48635 0.40364 0.48657
 C991 C 0.48236 0.42336 0.47088
 C992 C 0.45944 0.43591 0.47072
 C993 C 0.44076 0.42826 0.48695
 C994 C 0.44487 0.40868 0.50278
 C995 C 0.47194 0.37523 0.51937
 C996 C 0.46455 0.37647 0.54399
 C997 C 0.46860 0.35679 0.55971
 C998 C 0.47994 0.33533 0.55113
 C999 C 0.48726 0.33413 0.52644
 C1000 C 0.48340 0.35389 0.51078
 H1001 H 0.49735 0.42886 0.45901
 H1002 H 0.42282 0.43725 0.48731
 H1003 H 0.46314 0.35853 0.57870
 H1004 H 0.49563 0.31776 0.51908
 H1005 H 0.43004 0.40310 0.51486
 H1006 H 0.45598 0.39283 0.55117
 H1007 H 0.50423 0.39448 0.48636
 H1008 H 0.48898 0.35234 0.49180
 C1009 C -0.02962 0.89739 0.00717
 C1010 C -0.02880 0.89465 -0.01843
 C1011 C -0.03161 0.91475 -0.03386
 C1012 C -0.03565 0.93794 -0.02405
 C1013 C -0.03653 0.94079 0.00142
 C1014 C -0.03336 0.92078 0.01688
 C1015 C -0.02669 0.87600 0.02368
 C1016 C -0.03992 0.87471 0.04583
 C1017 C -0.03695 0.85482 0.06149
 C1018 C -0.02092 0.83549 0.05529
 C1019 C -0.00790 0.83664 0.03300
 C1020 C -0.01063 0.85668 0.01749
 H1021 H -0.03113 0.91219 -0.05349
 H1022 H -0.03941 0.95860 0.00929
 H1023 H -0.04702 0.85480 0.07863
 H1024 H 0.00431 0.82196 0.02739
 H1025 H -0.03357 0.92372 0.03645
 H1026 H -0.05277 0.88901 0.05106
 H1027 H -0.02641 0.87691 -0.02660
 H1028 H 0.00012 0.85713 0.00077
 C1029 C 0.02503 0.59794 0.01261
 C1030 C 0.00816 0.57860 0.01250
 C1031 C 0.01170 0.55885 -0.00315
 C1032 C 0.03241 0.55779 -0.01858
 C1033 C 0.04947 0.57672 -0.01838
 C1034 C 0.04571 0.59673 -0.00315
 C1035 C 0.02103 0.61930 0.02892
 C1036 C 0.04128 0.63183 0.03878
 C1037 C 0.03753 0.65211 0.05367
 C1038 C 0.01341 0.66019 0.05957
 C1039 C -0.00683 0.64745 0.04998
 C1040 C -0.00308 0.62747 0.03468
 H1041 H -0.00151 0.54421 -0.00308
 H1042 H 0.06544 0.57613 -0.03040
 H1043 H 0.05363 0.66158 0.06031
 H1044 H -0.02570 0.65275 0.05439
 H1045 H 0.05883 0.61141 -0.00406
 H1046 H 0.06013 0.62591 0.03518
 H1047 H -0.00767 0.57853 0.02468
 H1048 H -0.01918 0.61864 0.02718
 C1049 C 0.52159 0.09178 0.51350
 C1050 C 0.50195 0.07736 0.50531
 C1051 C 0.50641 0.05807 0.48928
 C1052 C 0.53055 0.05295 0.48096
 C1053 C 0.55025 0.06703 0.48953
 C1054 C 0.54582 0.08625 0.50562
 C1055 C 0.51683 0.11294 0.52965
 C1056 C 0.53292 0.11807 0.54913
 C1057 C 0.52902 0.13858 0.56366
 C1058 C 0.50901 0.15448 0.55896
 C1059 C 0.49273 0.14917 0.53968
 C1060 C 0.49657 0.12860 0.52522
 H1061 H 0.49101 0.04718 0.48323
 H1062 H 0.56900 0.06348 0.48330
 H1063 H 0.54200 0.14230 0.57825
 H1064 H 0.47699 0.16093 0.53579
 H1065 H 0.56130 0.09719 0.51137
 H1066 H 0.54855 0.10620 0.55313
 H1067 H 0.48314 0.08096 0.51137
 H1068 H 0.48399 0.12525 0.51020
 C1069 C -0.02337 0.10187 0.49035
 C1070 C -0.02536 0.07849 0.48025
 C1071 C -0.02923 0.05835 0.49528
 C1072 C -0.03064 0.06106 0.52072
 C1073 C -0.02845 0.08420 0.53096
 C1074 C -0.02511 0.10444 0.51594
 C1075 C -0.01947 0.12342 0.47431
 C1076 C -0.00532 0.14311 0.48243
 C1077 C -0.00180 0.16336 0.46747
 C1078 C -0.01188 0.16433 0.44375
 C1079 C -0.02587 0.14456 0.43556
 C1080 C -0.02981 0.12451 0.45071
 H1081 H -0.03069 0.04053 0.48715
 H1082 H -0.02975 0.08657 0.55058
 H1083 H 0.00871 0.17834 0.47467
 H1084 H -0.03362 0.14437 0.41731
 H1085 H -0.02424 0.12212 0.52442
 H1086 H 0.00330 0.14285 0.50030
 H1087 H -0.02359 0.07562 0.46075
 H1088 H -0.04116 0.10996 0.44389
 C1089 C 0.47741 0.60239 0.98668
 C1090 C 0.47697 0.57901 0.97632
 C1091 C 0.47335 0.55858 0.99102
 C1092 C 0.47064 0.56101 1.01638
 C1093 C 0.47134 0.58415 1.02688
 C1094 C 0.47442 0.60465 1.01218
 C1095 C 0.48088 0.62426 0.97098
 C1096 C 0.49360 0.64456 0.97984
 C1097 C 0.49662 0.66514 0.96522
 C1098 C 0.48746 0.66585 0.94113
 C1099 C 0.47494 0.64545 0.93220
 C1100 C 0.47148 0.62506 0.94699
 H1101 H 0.47304 0.54078 0.98271
 H1102 H 0.46901 0.58630 1.04644
 H1103 H 0.50601 0.68057 0.97295
 H1104 H 0.46798 0.64504 0.91365
 H1105 H 0.47408 0.62229 1.02082
 H1106 H 0.50148 0.64456 0.99804
 H1107 H 0.47974 0.57640 0.95689
 H1108 H 0.46122 0.61002 0.93959
 C1109 C 0.52997 0.90139 0.99305
 C1110 C 0.51129 0.90836 1.00958
 C1111 C 0.51493 0.92764 1.02567
 C1112 C 0.53751 0.94026 1.02586
 C1113 C 0.55619 0.93315 1.00923
 C1114 C 0.55240 0.91404 0.99296
 C1115 C 0.52610 0.88089 0.97603
 C1116 C 0.53281 0.88287 0.95129
 C1117 C 0.52912 0.86354 0.93525
 C1118 C 0.51885 0.84170 0.94366
 C1119 C 0.51224 0.83976 0.96849
 C1120 C 0.51571 0.85918 0.98446
 H1121 H 0.49994 0.93272 1.03786
 H1122 H 0.57388 0.94220 1.00887
 H1123 H 0.53402 0.86585 0.91618
 H1124 H 0.50476 0.82309 0.97574
 H1125 H 0.56721 0.90886 0.98056
 H1126 H 0.54057 0.89953 0.94427
 H1127 H 0.49368 0.89910 1.00981
 H1128 H 0.51069 0.85707 1.00353
 C1129 C 0.03186 0.39651 0.49873
 C1130 C 0.01145 0.40715 0.51085
 C1131 C 0.01462 0.42689 0.52644
 C1132 C 0.03833 0.43636 0.53063
 C1133 C 0.05886 0.42523 0.51920
 C1134 C 0.05565 0.40575 0.50324
 C1135 C 0.02829 0.37609 0.48130
 C1136 C 0.04634 0.35758 0.47890
 C1137 C 0.04304 0.33865 0.46229
 C1138 C 0.02145 0.33757 0.44804
 C1139 C 0.00332 0.35585 0.45048
 C1140 C 0.00679 0.37501 0.46674
 H1141 H -0.00156 0.43495 0.53505
 H1142 H 0.07742 0.43176 0.52244
 H1143 H 0.05716 0.32458 0.46088
 H1144 H -0.01336 0.35551 0.43946
 H1145 H 0.07181 0.39825 0.49411
 H1146 H 0.06289 0.35749 0.49008
 H1147 H -0.00707 0.40021 0.50836
 H1148 H -0.00726 0.38916 0.46760
 C1149 C 0.39568 0.50610 0.46678
 C1150 C 0.39438 0.48878 0.44792
 C1151 C 0.41409 0.47265 0.44371
 C1152 C 0.43524 0.47320 0.45849
 C1153 C 0.43671 0.49020 0.47738
 C1154 C 0.41721 0.50666 0.48138
 C1155 C 0.37468 0.52339 0.47121
 C1156 C 0.36878 0.53111 0.49505
 C1157 C 0.34909 0.54730 0.49918
 C1158 C 0.33446 0.55594 0.47964
 C1159 C 0.34028 0.54812 0.45582
 C1160 C 0.36023 0.53225 0.45164
 H1161 H 0.41276 0.45942 0.42917
 H1162 H 0.45307 0.49080 0.48882
 H1163 H 0.34550 0.55316 0.51774
 H1164 H 0.32927 0.55402 0.44031
 H1165 H 0.41916 0.51998 0.49574
 H1166 H 0.37919 0.52445 0.51065
 H1167 H 0.37799 0.48739 0.43663
 H1168 H 0.36438 0.52709 0.43298
 C1169 C 0.89988 0.00717 -0.02776
 C1170 C 0.92393 0.01607 -0.03171
 C1171 C 0.94384 0.00014 -0.03580
 C1172 C 0.94022 -0.02500 -0.03572
 C1173 C 0.91635 -0.03399 -0.03157
 C1174 C 0.89636 -0.01809 -0.02779
 C1175 C 0.87857 0.02413 -0.02371
 C1176 C 0.85934 0.01809 -0.00749
 C1177 C 0.83922 0.03389 -0.00389
 C1178 C 0.83794 0.05632 -0.01619
 C1179 C 0.85727 0.06243 -0.03228
 C1180 C 0.87723 0.04650 -0.03610
 H1181 H 0.96219 0.00738 -0.03874
 H1182 H 0.91318 -0.05334 -0.03167
 H1183 H 0.82454 0.02838 0.00837
 H1184 H 0.85714 0.07967 -0.04181
 H1185 H 0.87808 -0.02561 -0.02529
 H1186 H 0.85988 0.00120 0.00264
 H1187 H 0.92746 0.03535 -0.03134
 H1188 H 0.89149 0.05164 -0.04900
 C1189 C 0.60012 0.00987 0.03171
 C1190 C 0.57896 0.01055 0.01659
 C1191 C 0.55973 -0.00588 0.02013
 C1192 C 0.56111 -0.02299 0.03906
 C1193 C 0.58188 -0.02363 0.05437
 C1194 C 0.60133 -0.00751 0.05063
 C1195 C 0.62092 0.02702 0.02768
 C1196 C 0.63473 0.03582 0.04753
 C1197 C 0.65461 0.05142 0.04370
 C1198 C 0.66101 0.05898 0.01995
 C1199 C 0.64696 0.05048 0.00013
 C1200 C 0.62733 0.03457 0.00393
 H1201 H 0.54364 -0.00519 0.00830
 H1202 H 0.58314 -0.03692 0.06896
 H1203 H 0.66516 0.05725 0.05942
 H1204 H 0.65099 0.05618 -0.01839
 H1205 H 0.61746 -0.00898 0.06233
 H1206 H 0.63014 0.03077 0.06613
 H1207 H 0.57710 0.02393 0.00216
 H1208 H 0.61740 0.02796 -0.01186
 C1209 C 0.09840 0.50891 0.53280
 C1210 C 0.08559 0.49822 0.51325
 C1211 C 0.06663 0.48168 0.51766
 C1212 C 0.06036 0.47503 0.54170
 C1213 C 0.07282 0.48603 0.56124
 C1214 C 0.09151 0.50282 0.55686
 C1215 C 0.11910 0.52602 0.52817
 C1216 C 0.13987 0.52631 0.54375
 C1217 C 0.15933 0.54228 0.53945
 C1218 C 0.15867 0.55807 0.51928
 C1219 C 0.13810 0.55775 0.50358
 C1220 C 0.11843 0.54202 0.50807
 H1221 H 0.05700 0.47389 0.50225
 H1222 H 0.06830 0.48138 0.57997
 H1223 H 0.17516 0.54197 0.55164
 H1224 H 0.13706 0.56995 0.48804
 H1225 H 0.10051 0.51108 0.57240
 H1226 H 0.14135 0.51391 0.55908
 H1227 H 0.09048 0.50225 0.49448
 H1228 H 0.10259 0.54265 0.49593
 C1229 C 0.09997 0.49209 -0.02491
 C1230 C 0.08584 0.49977 -0.00467
 C1231 C 0.06502 0.51475 -0.00790
 C1232 C 0.05781 0.52229 -0.03142
 C1233 C 0.07209 0.51492 -0.05164
 C1234 C 0.09291 0.49992 -0.04843
 C1235 C 0.12193 0.47592 -0.02149
 C1236 C 0.14365 0.47953 -0.03519
 C1237 C 0.16429 0.46429 -0.03201
 C1238 C 0.16371 0.44509 -0.01505
 C1239 C 0.14198 0.44146 -0.00137
 C1240 C 0.12133 0.45670 -0.00454
 H1241 H 0.05433 0.52028 0.00795
 H1242 H 0.06705 0.52078 -0.06991
 H1243 H 0.18064 0.46740 -0.04304
 H1244 H 0.14102 0.42698 0.01201
 H1245 H 0.10328 0.49417 -0.06441
 H1246 H 0.14479 0.49431 -0.04821
 H1247 H 0.09101 0.49436 0.01371
 H1248 H 0.10478 0.45328 0.00609
 C1249 C 0.59795 0.98722 0.47416
 C1250 C 0.57946 0.98932 0.49228
 C1251 C 0.55898 1.00471 0.48886
 C1252 C 0.55632 1.01797 0.46710
 C1253 C 0.57450 1.01587 0.44888
 C1254 C 0.59522 1.00080 0.45243
 C1255 C 0.61999 0.97106 0.47794
 C1256 C 0.63095 0.95865 0.45816
 C1257 C 0.65179 0.94374 0.46168
 C1258 C 0.66205 0.94050 0.48514
 C1259 C 0.65092 0.95271 0.50495
 C1260 C 0.63032 0.96792 0.50137
 H1261 H 0.54497 1.00608 0.50300
 H1262 H 0.57276 1.02620 0.43209
 H1263 H 0.66001 0.93497 0.44589
 H1264 H 0.65796 0.95040 0.52336
 H1265 H 0.60925 1.00010 0.43828
 H1266 H 0.62334 0.96027 0.43991
 H1267 H 0.58060 0.97884 0.50902
 H1268 H 0.62269 0.97742 0.51702
 C1269 C 0.90494 0.99305 0.52366
 C1270 C 0.92919 0.98370 0.52655
 C1271 C 0.94906 0.99920 0.53070
 C1272 C 0.94521 1.02435 0.53158
 C1273 C 0.92122 1.03384 0.52825
 C1274 C 0.90124 1.01836 0.52456
 C1275 C 0.88360 0.97648 0.52013
 C1276 C 0.86324 0.98342 0.50549
 C1277 C 0.84300 0.96806 0.50268
 C1278 C 0.84272 0.94517 0.51410
 C1279 C 0.86324 0.93811 0.52843
 C1280 C 0.88326 0.95362 0.53159
 H1281 H 0.96753 0.99162 0.53300
 H1282 H 0.91792 1.05323 0.52910
 H1283 H 0.82745 0.97433 0.49178
 H1284 H 0.86399 0.92048 0.53716
 H1285 H 0.88285 1.02626 0.52292
 H1286 H 0.86295 1.00069 0.49605
 H1287 H 0.93292 0.96441 0.52542
 H1288 H 0.89835 0.94774 0.54332
 C1289 C 0.40857 0.49057 0.01704
 C1290 C 0.43248 0.48199 0.02311
 C1291 C 0.45161 0.49818 0.02781
 C1292 C 0.44739 0.52329 0.02617
 C1293 C 0.42372 0.53194 0.01969
 C1294 C 0.40447 0.51578 0.01534
 C1295 C 0.38787 0.47337 0.01303
 C1296 C 0.36925 0.47846 -0.00431
 C1297 C 0.34929 0.46281 -0.00731
 C1298 C 0.34757 0.44148 0.00673
 C1299 C 0.36649 0.43611 0.02365
 C1300 C 0.38627 0.45191 0.02688
 H1301 H 0.46983 0.49116 0.03255
 H1302 H 0.42003 0.55126 0.01858
 H1303 H 0.33495 0.46775 -0.02030
 H1304 H 0.36606 0.41966 0.03449
 H1305 H 0.38624 0.52311 0.01120
 H1306 H 0.37005 0.49459 -0.01561
 H1307 H 0.43649 0.46273 0.02411
 H1308 H 0.40005 0.44749 0.04063
 C1309 C 0.50214 0.46769 0.39275
 C1310 C 0.48716 0.44696 0.39419
 C1311 C 0.47174 0.44322 0.41440
 C1312 C 0.47080 0.46022 0.43339
 C1313 C 0.48534 0.48105 0.43194
 C1314 C 0.50101 0.48468 0.41193
 C1315 C 0.51906 0.47148 0.37155
 C1316 C 0.52349 0.49495 0.36253
 C1317 C 0.53994 0.49860 0.34314
 C1318 C 0.55218 0.47885 0.33198
 C1319 C 0.54746 0.45534 0.34075
 C1320 C 0.53124 0.45172 0.36036
 H1321 H 0.46043 0.42715 0.41527
 H1322 H 0.48487 0.49423 0.44659
 H1323 H 0.54332 0.51699 0.33715
 H1324 H 0.55620 0.43965 0.33241
 H1325 H 0.51257 0.50059 0.41175
 H1326 H 0.51417 0.51058 0.37039
 H1327 H 0.48716 0.43372 0.37961
 H1328 H 0.52857 0.43341 0.36697
 C1329 C 0.01006 -0.02871 0.90036
 C1330 C 0.01931 -0.03584 0.92339
 C1331 C 0.00314 -0.04021 0.94288
 C1332 C -0.02257 -0.03734 0.93984
 C1333 C -0.03186 -0.03027 0.91690
 C1334 C -0.01575 -0.02611 0.89734
 C1335 C 0.02720 -0.02400 0.87955
 C1336 C 0.04876 -0.03825 0.87625
 C1337 C 0.06464 -0.03398 0.85650
 C1338 C 0.05920 -0.01554 0.83949
 C1339 C 0.03777 -0.00121 0.84282
 C1340 C 0.02202 -0.00530 0.86268
 H1341 H 0.01070 -0.04545 0.96049
 H1342 H -0.05165 -0.02822 0.91409
 H1343 H 0.08090 -0.04547 0.85419
 H1344 H 0.03333 0.01335 0.83016
 H1345 H -0.02358 -0.02114 0.87977
 H1346 H 0.05313 -0.05304 0.88863
 H1347 H 0.03907 -0.03765 0.92649
 H1348 H 0.00590 0.00636 0.86492
 C1349 C 0.01402 0.02703 0.59661
 C1350 C -0.01189 0.02573 0.59948
 C1351 C -0.02770 0.02984 0.57962
 C1352 C -0.01801 0.03573 0.55657
 C1353 C 0.00776 0.03721 0.55361
 C1354 C 0.02363 0.03272 0.57335
 C1355 C 0.03088 0.02269 0.61780
 C1356 C 0.05301 0.03572 0.62018
 C1357 C 0.06867 0.03185 0.64021
 C1358 C 0.06245 0.01511 0.65862
 C1359 C 0.04035 0.00204 0.65621
 C1360 C 0.02488 0.00564 0.63600
 H1361 H -0.04756 0.02887 0.58231
 H1362 H 0.01557 0.04151 0.53588
 H1363 H 0.08571 0.04197 0.64116
 H1364 H 0.03472 -0.01075 0.67014
 H1365 H 0.04344 0.03343 0.57028
 H1366 H 0.05813 0.04922 0.60675
 H1367 H -0.02003 0.02192 0.61716
 H1368 H 0.00823 -0.00504 0.63464
 C1369 C 0.51310 0.52844 0.09387
 C1370 C 0.48708 0.52928 0.09623
 C1371 C 0.47199 0.53283 0.07573
 C1372 C 0.48257 0.53613 0.05256
 C1373 C 0.50842 0.53565 0.05007
 C1374 C 0.52355 0.53158 0.07045
 C1375 C 0.52922 0.52426 0.11567
 C1376 C 0.55271 0.53497 0.11727
 C1377 C 0.56792 0.53081 0.13757
 C1378 C 0.55990 0.51619 0.15710
 C1379 C 0.53629 0.50570 0.15562
 C1380 C 0.52129 0.50946 0.13510
 H1381 H 0.45203 0.53340 0.07794
 H1382 H 0.51681 0.53800 0.03222
 H1383 H 0.58610 0.53891 0.13776
 H1384 H 0.52920 0.49468 0.17041
 H1385 H 0.54341 0.53055 0.06772
 H1386 H 0.55936 0.54681 0.10293
 H1387 H 0.47830 0.52752 0.11394
 H1388 H 0.50354 0.50053 0.13445
 C1389 C 0.49445 -0.02983 0.10464
 C1390 C 0.50994 -0.05050 0.10284
 C1391 C 0.52536 -0.05382 0.08250
 C1392 C 0.52576 -0.03644 0.06377
 C1393 C 0.51069 -0.01568 0.06558
 C1394 C 0.49503 -0.01247 0.08571
 C1395 C 0.47760 -0.02644 0.12601
 C1396 C 0.47273 -0.00314 0.13540
 C1397 C 0.45636 0.00015 0.15497
 C1398 C 0.44465 -0.01979 0.16592
 C1399 C 0.44981 -0.04314 0.15677
 C1400 C 0.46595 -0.04640 0.13699
 H1401 H 0.53709 -0.06985 0.08134
 H1402 H 0.51077 -0.00221 0.05113
 H1403 H 0.45262 0.01843 0.16126
 H1404 H 0.44147 -0.05898 0.16494
 H1405 H 0.48307 0.00342 0.08618
 H1406 H 0.48164 0.01263 0.12771
 H1407 H 0.51035 -0.06402 0.11723
 H1408 H 0.46898 -0.06457 0.13008
 C1409 C 0.99317 0.46664 0.60747
 C1410 C 1.00934 0.44642 0.60611
 C1411 C 1.02502 0.44324 0.58596
 C1412 C 1.02520 0.46040 0.56704
 C1413 C 1.00939 0.48068 0.56831
 C1414 C 0.99334 0.48366 0.58819
 C1415 C 0.97622 0.46997 0.62883
 C1416 C 0.97001 0.49334 0.63729
 C1417 C 0.95381 0.49652 0.65701
 C1418 C 0.94371 0.47641 0.66922
 C1419 C 0.95016 0.45303 0.66096
 C1420 C 0.96600 0.44986 0.64092
 H1421 H 1.03729 0.42757 0.58520
 H1422 H 1.00926 0.49395 0.55367
 H1423 H 0.94902 0.51483 0.66246
 H1424 H 0.94314 0.43705 0.67005
 H1425 H 0.98084 0.49916 0.58821
 H1426 H 0.97779 0.50930 0.62882
 H1427 H 1.01019 0.43318 0.62074
 H1428 H 0.96997 0.43158 0.63478
 C1429 C 0.98562 0.52483 0.90643
 C1430 C 0.98931 0.54842 0.91534
 C1431 C 1.00564 0.55252 0.93468
 C1432 C 1.01859 0.53312 0.94576
 C1433 C 1.01439 0.50946 0.93730
 C1434 C 0.99826 0.50538 0.91777
 C1435 C 0.96898 0.52060 0.88517
 C1436 C 0.95436 0.49967 0.88394
 C1437 C 0.93907 0.49558 0.86375
 C1438 C 0.93783 0.51246 0.84450
 C1439 C 0.95226 0.53344 0.84574
 C1440 C 0.96777 0.53740 0.86577
 H1441 H 1.00839 0.57096 0.94076
 H1442 H 1.02374 0.49409 0.94570
 H1443 H 0.92790 0.47939 0.86336
 H1444 H 0.95190 0.54657 0.83098
 H1445 H 0.99609 0.48700 0.91127
 H1446 H 0.95448 0.48655 0.89871
 H1447 H 0.97953 0.56378 0.90741
 H1448 H 0.97913 0.55346 0.86582
 C1449 C 0.48780 0.02404 0.40177
 C1450 C 0.50023 0.00412 0.41234
 C1451 C 0.51563 0.00728 0.43260
 C1452 C 0.51919 0.03050 0.44255
 C1453 C 0.50703 0.05048 0.43159
 C1454 C 0.49131 0.04724 0.41158
 C1455 C 0.47115 0.02060 0.38058
 C1456 C 0.44721 0.03087 0.38051
 C1457 C 0.43134 0.02730 0.36067
 C1458 C 0.43920 0.01369 0.34027
 C1459 C 0.46333 0.00365 0.34034
 C1460 C 0.47904 0.00691 0.36036
 H1461 H 0.52457 -0.00849 0.44068
 H1462 H 0.50977 0.06865 0.43845
 H1463 H 0.41277 0.03492 0.36152
 H1464 H 0.47028 -0.00648 0.32480
 H1465 H 0.48215 0.06291 0.40353
 H1466 H 0.44063 0.04127 0.39604
 H1467 H 0.49767 -0.01398 0.40517
 H1468 H 0.49754 -0.00095 0.35989
   
