data_POSCAR
  _audit_creation_date              2014-09-24
  _audit_creation_method            'ToBaCCo'
  _symmetry_space_group_name_H-M    'P1'
  _symmetry_Int_Tables_number       1
  _symmetry_cell_setting            triclinic
  loop_
  _symmetry_equiv_pos_as_xyz
 x,y,z
_cell_length_a 62.3748
_cell_length_b 62.3451
_cell_length_c 62.4267
_cell_angle_alpha 90.070300
_cell_angle_beta 89.960900
_cell_angle_gamma 90.054900
loop_
  _atom_site_label
  _atom_site_type_symbol
  _atom_site_fract_x
  _atom_site_fract_y
  _atom_site_fract_z
C1 C 0.31253 0.31309 -0.01394
 C2 C 0.31289 0.31277 0.00790
 C3 C 0.29829 0.32639 0.02089
 C4 C 0.32839 0.29930 0.01994
 C5 C 0.32603 0.29834 -0.02689
 C6 C 0.29919 0.32871 -0.02596
 C7 C 0.30686 0.34020 0.03648
 C8 C 0.29342 0.35350 0.04847
 C9 C 0.27124 0.35305 0.04512
 C10 C 0.26251 0.33903 0.02990
 C11 C 0.27595 0.32567 0.01791
 C12 C 0.35056 0.30119 0.01635
 C13 C 0.36499 0.28858 0.02794
 C14 C 0.35742 0.27414 0.04336
 C15 C 0.33537 0.27239 0.04719
 C16 C 0.32093 0.28497 0.03559
 C17 C 0.32516 0.27602 -0.02381
 C18 C 0.33862 0.26243 -0.03552
 C19 C 0.35293 0.27102 -0.05060
 C20 C 0.35344 0.29322 -0.05410
 C21 C 0.34002 0.30677 -0.04237
 C22 C 0.28474 0.32138 -0.04158
 C23 C 0.27214 0.33593 -0.05301
 C24 C 0.27398 0.35797 -0.04906
 C25 C 0.28858 0.36541 -0.03372
 C26 C 0.30121 0.35087 -0.02230
 H27 H 0.32402 0.34093 0.03909
 H28 H 0.30034 0.36427 0.06022
 H29 H 0.24536 0.33849 0.02725
 H30 H 0.26899 0.31486 0.00623
 H31 H 0.35667 0.31248 0.00467
 H32 H 0.38203 0.29017 0.02496
 H33 H 0.30391 0.28343 0.03871
 H34 H 0.31421 0.26918 -0.01221
 H35 H 0.33794 0.24529 -0.03267
 H36 H 0.36437 0.30014 -0.06571
 H37 H 0.34086 0.32392 -0.04504
 H38 H 0.28309 0.30437 -0.04475
 H39 H 0.26095 0.33001 -0.06490
 H40 H 0.29024 0.38244 -0.03064
 H41 H 0.31259 0.35688 -0.01065
 H42 H 0.32935 0.26134 0.05915
 C43 C 0.68802 0.68758 -0.00950
 C44 C 0.68799 0.68691 0.01233
 C45 C 0.70109 0.67107 0.02431
 C46 C 0.67430 0.70151 0.02529
 C47 C 0.67281 0.70132 -0.02157
 C48 C 0.70275 0.67405 -0.02248
 C49 C 0.69907 0.64897 0.02027
 C50 C 0.71162 0.63423 0.03151
 C51 C 0.72615 0.64140 0.04704
 C52 C 0.72796 0.66336 0.05140
 C53 C 0.71543 0.67812 0.04016
 C54 C 0.65999 0.69290 0.04038
 C55 C 0.64637 0.70634 0.05203
 C56 C 0.64700 0.72855 0.04885
 C57 C 0.66160 0.73732 0.03421
 C58 C 0.67527 0.72388 0.02256
 C59 C 0.68063 0.71594 -0.03679
 C60 C 0.66646 0.72883 -0.04837
 C61 C 0.64434 0.72711 -0.04496
 C62 C 0.63642 0.71238 -0.03000
 C63 C 0.65057 0.69946 -0.01843
 C64 C 0.72504 0.67457 -0.01915
 C65 C 0.73858 0.66133 -0.03118
 C66 C 0.72999 0.64763 -0.04677
 C67 C 0.70786 0.64738 -0.05045
 C68 C 0.69432 0.66057 -0.03843
 H69 H 0.68778 0.64318 0.00842
 H70 H 0.70999 0.61727 0.02811
 H71 H 0.73909 0.66907 0.06345
 H72 H 0.71709 0.69507 0.04361
 H73 H 0.65905 0.67572 0.04279
 H74 H 0.63516 0.69938 0.06334
 H75 H 0.68645 0.73088 0.01128
 H76 H 0.69771 0.71746 -0.03956
 H77 H 0.67274 0.74011 -0.05998
 H78 H 0.61932 0.71082 -0.02735
 H79 H 0.64421 0.68796 -0.00709
 H80 H 0.73189 0.68514 -0.00719
 H81 H 0.75569 0.66170 -0.02826
 H82 H 0.70105 0.63686 -0.06248
 H83 H 0.67721 0.65999 -0.04132
 H84 H 0.66229 0.75449 0.03169
 C85 C 0.68785 0.31201 1.01021
 C86 C 0.68772 0.31269 0.98839
 C87 C 0.70097 0.32838 0.97635
 C88 C 0.67376 0.29829 0.97547
 C89 C 0.67259 0.29839 1.02239
 C90 C 0.70271 0.32548 1.02311
 C91 C 0.69914 0.35050 0.98032
 C92 C 0.71181 0.36511 0.96899
 C93 C 0.72625 0.35777 0.95345
 C94 C 0.72787 0.33578 0.94917
 C95 C 0.71523 0.32116 0.96050
 C96 C 0.65962 0.30715 0.96038
 C97 C 0.64589 0.29392 0.94861
 C98 C 0.64624 0.27169 0.95166
 C99 C 0.66062 0.26268 0.96633
 C100 C 0.67440 0.27591 0.97811
 C101 C 0.68037 0.28378 1.03762
 C102 C 0.66615 0.27114 1.04944
 C103 C 0.64402 0.27309 1.04627
 C104 C 0.63615 0.28778 1.03126
 C105 C 0.65035 0.30045 1.01945
 C106 C 0.72499 0.32481 1.01974
 C107 C 0.73865 0.33799 1.03172
 C108 C 0.73018 0.35179 1.04731
 C109 C 0.70803 0.35218 1.05101
 C110 C 0.69439 0.33905 1.03904
 H111 H 0.68792 0.35642 0.99217
 H112 H 0.71033 0.38210 0.97232
 H113 H 0.73892 0.32994 0.93710
 H114 H 0.71672 0.30418 0.95711
 H115 H 0.65893 0.32434 0.95804
 H116 H 0.63486 0.30106 0.93728
 H117 H 0.68545 0.26873 0.98939
 H118 H 0.69745 0.28211 1.04023
 H119 H 0.67240 0.25989 1.06107
 H120 H 0.61905 0.28951 1.02880
 H121 H 0.64403 0.31196 1.00811
 H122 H 0.73174 0.31418 1.00779
 H123 H 0.75576 0.33746 1.02873
 H124 H 0.70125 0.36274 1.06303
 H125 H 0.67729 0.33974 1.04195
 H126 H 0.66109 0.24549 0.96875
 C127 C 0.31351 0.68730 1.01445
 C128 C 0.31382 0.68771 0.99260
 C129 C 0.29911 0.67417 0.97963
 C130 C 0.32930 0.70124 0.98053
 C131 C 0.32702 0.70206 1.02741
 C132 C 0.30012 0.67166 1.02647
 C133 C 0.30756 0.66038 0.96397
 C134 C 0.29401 0.64715 0.95202
 C135 C 0.27184 0.64767 0.95546
 C136 C 0.26323 0.66169 0.97075
 C137 C 0.27679 0.67497 0.98272
 C138 C 0.35148 0.69945 0.98406
 C139 C 0.36588 0.71210 0.97242
 C140 C 0.35827 0.72649 0.95699
 C141 C 0.33621 0.72815 0.95322
 C142 C 0.32181 0.71554 0.96487
 C143 C 0.32613 0.72438 1.02438
 C144 C 0.33954 0.73799 1.03615
 C145 C 0.35380 0.72942 1.05121
 C146 C 0.35435 0.70723 1.05466
 C147 C 0.34098 0.69364 1.04289
 C148 C 0.28572 0.67897 1.04215
 C149 C 0.27302 0.66442 1.05353
 C150 C 0.27472 0.64237 1.04948
 C151 C 0.28930 0.63496 1.03407
 C152 C 0.30201 0.64951 1.02271
 H153 H 0.32470 0.65959 0.96128
 H154 H 0.30083 0.63638 0.94021
 H155 H 0.24609 0.66228 0.97349
 H156 H 0.26992 0.68578 0.99445
 H157 H 0.35762 0.68820 0.99574
 H158 H 0.38292 0.71058 0.97536
 H159 H 0.30478 0.71701 0.96179
 H160 H 0.31519 0.73122 1.01279
 H161 H 0.33887 0.75513 1.03336
 H162 H 0.36528 0.70037 1.06628
 H163 H 0.34184 0.67649 1.04553
 H164 H 0.28416 0.69597 1.04539
 H165 H 0.26189 0.67039 1.06546
 H166 H 0.29090 0.61794 1.03086
 H167 H 0.31335 0.64351 1.01100
 H168 H 0.33016 0.73917 0.94126
 C169 C -0.01087 0.31215 0.31390
 C170 C 0.01099 0.31187 0.31407
 C171 C 0.02320 0.29860 0.32959
 C172 C 0.02382 0.32538 0.29920
 C173 C -0.02302 0.32757 0.30044
 C174 C -0.02374 0.29752 0.32763
 C175 C 0.01971 0.30064 0.35175
 C176 C 0.03135 0.28811 0.36619
 C177 C 0.04672 0.27358 0.35866
 C178 C 0.05049 0.27171 0.33662
 C179 C 0.03885 0.28422 0.32216
 C180 C 0.03935 0.33944 0.30749
 C181 C 0.05103 0.35278 0.29382
 C182 C 0.04745 0.35212 0.27169
 C183 C 0.03232 0.33781 0.26325
 C184 C 0.02063 0.32441 0.27693
 C185 C -0.03857 0.32000 0.28604
 C186 C -0.05000 0.33435 0.27321
 C187 C -0.04610 0.35644 0.27476
 C188 C -0.03084 0.36411 0.28936
 C189 C -0.01944 0.34976 0.30221
 C190 C -0.02062 0.27519 0.32701
 C191 C -0.03242 0.26172 0.34053
 C192 C -0.04760 0.27042 0.35463
 C193 C -0.05110 0.29261 0.35495
 C194 C -0.03930 0.30606 0.34148
 H195 H 0.00804 0.31197 0.35783
 H196 H 0.02841 0.28978 0.38322
 H197 H 0.06241 0.26059 0.33062
 H198 H 0.04188 0.28255 0.30515
 H199 H 0.04211 0.34038 0.32459
 H200 H 0.06272 0.36377 0.30052
 H201 H 0.00900 0.31342 0.27018
 H202 H -0.04167 0.30296 0.28459
 H203 H -0.06182 0.32819 0.26206
 H204 H -0.02776 0.38116 0.29085
 H205 H -0.00782 0.35594 0.31354
 H206 H -0.00898 0.26824 0.31617
 H207 H -0.02959 0.24458 0.34003
 H208 H -0.06281 0.29958 0.36575
 H209 H -0.04202 0.32321 0.34214
 H210 H 0.02948 0.33710 0.24615
 C211 C -0.01177 0.68855 0.68695
 C212 C 0.01008 0.68923 0.68681
 C213 C 0.02212 0.70256 0.67118
 C214 C 0.02308 0.67598 0.70171
 C215 C -0.02368 0.67296 0.70043
 C216 C -0.02484 0.70284 0.67311
 C217 C 0.01874 0.70023 0.64904
 C218 C 0.03037 0.71267 0.63449
 C219 C 0.04563 0.72740 0.64191
 C220 C 0.04925 0.72960 0.66393
 C221 C 0.03762 0.71718 0.67850
 C222 C 0.03881 0.66214 0.69346
 C223 C 0.05063 0.64901 0.70717
 C224 C 0.04698 0.64967 0.72928
 C225 C 0.03167 0.66379 0.73769
 C226 C 0.01984 0.67698 0.72398
 C227 C -0.03938 0.68027 0.71480
 C228 C -0.05065 0.66574 0.72759
 C229 C -0.04645 0.64372 0.72602
 C230 C -0.03102 0.63629 0.71147
 C231 C -0.01977 0.65083 0.69866
 C232 C -0.02208 0.72522 0.67357
 C233 C -0.03412 0.73837 0.65999
 C234 C -0.04917 0.72929 0.64600
 C235 C -0.05230 0.70704 0.64583
 C236 C -0.04027 0.69391 0.65936
 H237 H 0.00720 0.68870 0.64306
 H238 H 0.02755 0.71074 0.61747
 H239 H 0.06108 0.74088 0.66983
 H240 H 0.04057 0.71906 0.69549
 H241 H 0.04161 0.66119 0.67636
 H242 H 0.06245 0.63817 0.70050
 H243 H 0.00805 0.68781 0.73069
 H244 H -0.04272 0.69726 0.71624
 H245 H -0.06261 0.67170 0.73871
 H246 H -0.02771 0.61929 0.70997
 H247 H -0.00804 0.64484 0.68734
 H248 H -0.01054 0.73246 0.68434
 H249 H -0.03158 0.75557 0.66036
 H250 H -0.06390 0.69978 0.63512
 H251 H -0.04270 0.67671 0.65883
 H252 H 0.02878 0.66448 0.75479
 C253 C 1.01109 0.68549 0.31162
 C254 C 0.98924 0.68560 0.31202
 C255 C 0.97710 0.69903 0.32750
 C256 C 0.97633 0.67183 0.29746
 C257 C 1.02330 0.66999 0.29826
 C258 C 1.02392 0.70036 0.32513
 C259 C 0.98069 0.69722 0.34966
 C260 C 0.96913 0.70991 0.36407
 C261 C 0.95372 0.72436 0.35650
 C262 C 0.94985 0.72600 0.33448
 C263 C 0.96142 0.71334 0.32005
 C264 C 0.96078 0.65800 0.30606
 C265 C 0.94883 0.64461 0.29267
 C266 C 0.95216 0.64499 0.27050
 C267 C 0.96735 0.65903 0.26174
 C268 C 0.97932 0.67248 0.27514
 C269 C 1.03895 0.67749 0.28392
 C270 C 1.05071 0.66307 0.27143
 C271 C 1.04705 0.64097 0.27326
 C272 C 1.03163 0.63337 0.28773
 C273 C 1.01989 0.64779 0.30024
 C274 C 1.02070 0.72266 0.32426
 C275 C 1.03238 0.73635 0.33766
 C276 C 1.04754 0.72789 0.35189
 C277 C 1.05116 0.70573 0.35244
 C278 C 1.03947 0.69206 0.33909
 H279 H 0.99240 0.68596 0.35575
 H280 H 0.97215 0.70841 0.38109
 H281 H 0.93790 0.73706 0.32847
 H282 H 0.95831 0.71482 0.30305
 H283 H 0.95817 0.65732 0.32321
 H284 H 0.93710 0.63383 0.29961
 H285 H 0.99096 0.68331 0.26815
 H286 H 1.04193 0.69453 0.28231
 H287 H 1.06264 0.66918 0.26037
 H288 H 1.02872 0.61631 0.28942
 H289 H 1.00822 0.64167 0.31154
 H290 H 1.00904 0.72941 0.31334
 H291 H 1.02948 0.75347 0.33699
 H292 H 1.06285 0.69896 0.36334
 H293 H 1.04226 0.67493 0.33993
 H294 H 0.97001 0.65952 0.24459
 C295 C 1.01179 0.31396 0.68776
 C296 C 0.98993 0.31360 0.68742
 C297 C 0.97789 0.29997 0.67202
 C298 C 0.97693 0.32729 0.70197
 C299 C 1.02386 0.32967 0.70100
 C300 C 1.02473 0.29912 0.67433
 C301 C 0.98149 0.30168 0.64985
 C302 C 0.97006 0.28877 0.63553
 C303 C 0.95479 0.27419 0.64319
 C304 C 0.95091 0.27265 0.66522
 C305 C 0.96234 0.28553 0.67957
 C306 C 0.96125 0.34094 0.69337
 C307 C 0.94925 0.35429 0.70676
 C308 C 0.95266 0.35404 0.72892
 C309 C 0.96796 0.34016 0.73767
 C310 C 0.97997 0.32676 0.72428
 C311 C 1.03957 0.32243 0.71538
 C312 C 1.05112 0.33707 0.72784
 C313 C 1.04720 0.35909 0.72593
 C314 C 1.03176 0.36643 0.71142
 C315 C 1.02022 0.35182 0.69893
 C316 C 1.02168 0.27679 0.67535
 C317 C 1.03343 0.26312 0.66201
 C318 C 1.04851 0.27161 0.64768
 C319 C 1.05198 0.29380 0.64698
 C320 C 1.04022 0.30746 0.66028
 H321 H 0.99309 0.31303 0.64368
 H322 H 0.97308 0.29019 0.61850
 H323 H 0.93906 0.26149 0.67131
 H324 H 0.95923 0.28412 0.69658
 H325 H 0.95859 0.34153 0.67624
 H326 H 0.93744 0.36495 0.69982
 H327 H 0.99171 0.31607 0.73127
 H328 H 1.04273 0.30544 0.71707
 H329 H 1.06308 0.33121 0.73895
 H330 H 1.02869 0.38345 0.70971
 H331 H 1.00850 0.35775 0.68761
 H332 H 1.01007 0.27001 0.68635
 H333 H 1.03063 0.24598 0.66279
 H334 H 1.06361 0.30061 0.63601
 H335 H 1.04288 0.32460 0.65932
 H336 H 0.97068 0.33978 0.75481
 C337 C 0.31199 -0.00971 0.31101
 C338 C 0.31124 0.01213 0.31170
 C339 C 0.32454 0.02554 0.29720
 C340 C 0.29763 0.02375 0.32745
 C341 C 0.29751 -0.02312 0.32433
 C342 C 0.32778 -0.02132 0.29743
 C343 C 0.33817 0.04123 0.30589
 C344 C 0.35134 0.05345 0.29254
 C345 C 0.35090 0.05024 0.27035
 C346 C 0.33699 0.03498 0.26151
 C347 C 0.32377 0.02275 0.27486
 C348 C 0.29963 0.01985 0.34954
 C349 C 0.28690 0.03105 0.36421
 C350 C 0.27222 0.04640 0.35698
 C351 C 0.27035 0.05053 0.33502
 C352 C 0.28305 0.03933 0.32034
 C353 C 0.27515 -0.02045 0.32354
 C354 C 0.26181 -0.03267 0.33679
 C355 C 0.27070 -0.04781 0.35074
 C356 C 0.29291 -0.05091 0.35120
 C357 C 0.30625 -0.03869 0.33801
 C358 C 0.32070 -0.03701 0.28291
 C359 C 0.33541 -0.04821 0.27024
 C360 C 0.35739 -0.04396 0.27207
 C361 C 0.36459 -0.02849 0.28671
 C362 C 0.34988 -0.01730 0.29940
 H363 H 0.33893 0.04369 0.32305
 H364 H 0.36203 0.06523 0.29953
 H365 H 0.33649 0.03243 0.24435
 H366 H 0.31308 0.01100 0.26782
 H367 H 0.31110 0.00823 0.35539
 H368 H 0.28859 0.02783 0.38117
 H369 H 0.28141 0.04269 0.30340
 H370 H 0.26808 -0.00878 0.31283
 H371 H 0.24463 -0.03020 0.33626
 H372 H 0.29994 -0.06260 0.36193
 H373 H 0.32343 -0.04106 0.33878
 H374 H 0.30375 -0.04045 0.28130
 H375 H 0.32960 -0.06020 0.25906
 H376 H 0.38156 -0.02513 0.28842
 H377 H 0.35571 -0.00560 0.31083
 H378 H 0.25911 0.06244 0.32926
 C379 C 0.68604 -0.01135 0.68653
 C380 C 0.68619 0.01052 0.68674
 C381 C 0.67097 0.02296 0.70016
 C382 C 0.70108 0.02314 0.67302
 C383 C 0.69925 -0.02376 0.67109
 C384 C 0.67214 -0.02398 0.70122
 C385 C 0.64873 0.01985 0.69828
 C386 C 0.63456 0.03163 0.71103
 C387 C 0.64247 0.04677 0.72561
 C388 C 0.66459 0.05019 0.72731
 C389 C 0.67877 0.03840 0.71458
 C390 C 0.69282 0.03882 0.65917
 C391 C 0.70649 0.05044 0.64577
 C392 C 0.72860 0.04665 0.64616
 C393 C 0.73703 0.03134 0.66023
 C394 C 0.72335 0.01971 0.67369
 C395 C 0.71346 -0.03949 0.67861
 C396 C 0.72602 -0.05122 0.66423
 C397 C 0.72437 -0.04746 0.64219
 C398 C 0.70998 -0.03203 0.63456
 C399 C 0.69740 -0.02031 0.64892
 C400 C 0.67291 -0.02087 0.72352
 C401 C 0.65929 -0.03249 0.73704
 C402 C 0.64492 -0.04749 0.72842
 C403 C 0.64442 -0.05096 0.70626
 C404 C 0.65800 -0.03934 0.69275
 H405 H 0.64238 0.00834 0.68692
 H406 H 0.61747 0.02897 0.70949
 H407 H 0.67086 0.06193 0.73848
 H408 H 0.69586 0.04114 0.71611
 H409 H 0.67572 0.04178 0.65847
 H410 H 0.69980 0.06227 0.63497
 H411 H 0.73009 0.00797 0.68452
 H412 H 0.71498 -0.04249 0.69563
 H413 H 0.73704 -0.06318 0.67030
 H414 H 0.70848 -0.02909 0.61753
 H415 H 0.68620 -0.00856 0.64278
 H416 H 0.68397 -0.00938 0.73041
 H417 H 0.65993 -0.02969 0.75417
 H418 H 0.63343 -0.06253 0.69935
 H419 H 0.65722 -0.04205 0.67563
 H420 H 0.75412 0.02833 0.66073
 C421 C 0.31248 1.00811 0.68753
 C422 C 0.31236 0.98624 0.68712
 C423 C 0.32593 0.97341 0.70186
 C424 C 0.29917 0.97407 0.67143
 C425 C 0.29775 1.02094 0.67395
 C426 C 0.32781 1.02035 0.70106
 C427 C 0.34006 0.95802 0.69345
 C428 C 0.35350 0.94639 0.70703
 C429 C 0.35286 0.94989 0.72918
 C430 C 0.33847 0.96485 0.73774
 C431 C 0.32498 0.97648 0.72416
 C432 C 0.30120 0.97780 0.64932
 C433 C 0.28864 0.96632 0.63473
 C434 C 0.27411 0.95085 0.64206
 C435 C 0.27228 0.94680 0.66404
 C436 C 0.28482 0.95829 0.67866
 C437 C 0.27545 1.01768 0.67464
 C438 C 0.26189 1.02951 0.66130
 C439 C 0.27047 1.04485 0.64733
 C440 C 0.29261 1.04847 0.64692
 C441 C 0.30617 1.03665 0.66020
 C442 C 0.32015 1.03598 0.71535
 C443 C 0.33444 1.04780 0.72795
 C444 C 0.35653 1.04422 0.72628
 C445 C 0.36430 1.02883 0.71188
 C446 C 0.35003 1.01702 0.69925
 H447 H 0.34098 0.95534 0.67633
 H448 H 0.36455 0.93483 0.70024
 H449 H 0.33779 0.96762 0.75486
 H450 H 0.31393 0.98801 0.73099
 H451 H 0.31250 0.98958 0.64339
 H452 H 0.29029 0.96948 0.61774
 H453 H 0.28316 0.95507 0.69562
 H454 H 0.26860 1.00590 0.68540
 H455 H 0.24476 1.02664 0.66180
 H456 H 0.29942 1.06032 0.63620
 H457 H 0.32329 1.03948 0.65950
 H458 H 0.30310 1.03891 0.71683
 H459 H 0.32826 1.05973 0.73897
 H460 H 0.38137 1.02604 0.71036
 H461 H 0.35629 1.00537 0.68800
 H462 H 0.26115 0.93480 0.66989
 C463 C 0.68724 1.01248 0.31342
 C464 C 0.68764 0.99061 0.31311
 C465 C 0.67404 0.97801 0.29814
 C466 C 0.70113 0.97812 0.32822
 C467 C 0.70199 1.02510 0.32724
 C468 C 0.67158 1.02485 0.30045
 C469 C 0.66026 0.96216 0.30626
 C470 C 0.64696 0.95055 0.29248
 C471 C 0.64740 0.95454 0.27043
 C472 C 0.66140 0.97002 0.26215
 C473 C 0.67476 0.98165 0.27593
 C474 C 0.69928 0.98108 0.35048
 C475 C 0.71186 0.96901 0.36453
 C476 C 0.72623 0.95374 0.35651
 C477 C 0.72795 0.95055 0.33437
 C478 C 0.71541 0.96262 0.32030
 C479 C 0.72431 1.02207 0.32625
 C480 C 0.73790 1.03352 0.33993
 C481 C 0.72933 1.04826 0.35458
 C482 C 0.70715 1.05170 0.35526
 C483 C 0.69358 1.04025 0.34162
 C484 C 0.67885 1.04086 0.28640
 C485 C 0.66427 1.05252 0.27405
 C486 C 0.64226 1.04842 0.27574
 C487 C 0.63487 1.03272 0.28998
 C488 C 0.64944 1.02106 0.30235
 H489 H 0.65953 0.95905 0.32331
 H490 H 0.63620 0.93858 0.29905
 H491 H 0.66192 0.97318 0.24510
 H492 H 0.68555 0.99354 0.26932
 H493 H 0.68803 0.99262 0.35693
 H494 H 0.71030 0.97152 0.38164
 H495 H 0.71692 0.95998 0.30321
 H496 H 0.73114 1.01073 0.31501
 H497 H 0.75504 1.03075 0.33916
 H498 H 0.70030 1.06308 0.36647
 H499 H 0.67644 1.04288 0.34256
 H500 H 0.69584 1.04413 0.28484
 H501 H 0.67015 1.06469 0.26315
 H502 H 0.61787 1.02950 0.29152
 H503 H 0.64347 1.00910 0.31342
 H504 H 0.73896 0.93872 0.32800
 O505 O 0.86857 0.83801 0.47891
 O506 O 0.83834 0.86801 0.51985
 O507 O 0.86815 0.83880 0.52060
 O508 O 0.83891 0.86753 0.47825
 O509 O 0.81403 0.84238 0.47832
 O510 O 0.84331 0.81360 0.52067
 O511 O 0.81352 0.84279 0.51990
 O512 O 0.84366 0.81288 0.47899
 Cu513 Cu 0.85600 0.85560 0.49937
 Cu514 Cu 0.82616 0.82537 0.49945
 C515 C 0.86132 0.82025 0.47200
 C516 C 0.82070 0.86056 0.52683
 C517 C 0.86075 0.82127 0.52789
 C518 C 0.82137 0.85998 0.47116
 O519 O 0.15881 0.12931 0.52306
 O520 O 0.12992 0.15962 0.48153
 O521 O 0.15926 0.12975 0.48137
 O522 O 0.12964 0.15915 0.52322
 O523 O 0.15493 0.18390 0.52367
 O524 O 0.18448 0.15456 0.48188
 O525 O 0.15518 0.18439 0.48203
 O526 O 0.18405 0.15410 0.52352
 Cu527 Cu 0.14187 0.14197 0.50221
 Cu528 Cu 0.17219 0.17172 0.50279
 C529 C 0.17639 0.13653 0.53041
 C530 C 0.13753 0.17727 0.47475
 C531 C 0.17702 0.13706 0.47455
 C532 C 0.13723 0.17658 0.53062
 O533 O 0.15949 0.86899 0.47624
 O534 O 0.13024 0.83935 0.51802
 O535 O 0.16013 0.86870 0.51793
 O536 O 0.12984 0.83962 0.47634
 O537 O 0.15470 0.81448 0.47587
 O538 O 0.18490 0.84349 0.51740
 O539 O 0.15505 0.81417 0.51750
 O540 O 0.18431 0.84382 0.47575
 Cu541 Cu 0.14244 0.85669 0.49722
 Cu542 Cu 0.17223 0.82647 0.49661
 C543 C 0.17691 0.86147 0.46882
 C544 C 0.13757 0.82162 0.52484
 C545 C 0.17777 0.86112 0.52472
 C546 C 0.13712 0.82206 0.46897
 O547 O 0.87115 0.15914 0.52093
 O548 O 0.84148 0.12894 0.47969
 O549 O 0.87095 0.15857 0.47926
 O550 O 0.84177 0.12927 0.52145
 O551 O 0.81667 0.15416 0.52137
 O552 O 0.84582 0.18343 0.47921
 O553 O 0.81640 0.15385 0.47967
 O554 O 0.84599 0.18397 0.52083
 Cu555 Cu 0.85884 0.14147 0.50036
 Cu556 Cu 0.82870 0.17132 0.50028
 C557 C 0.86369 0.17681 0.52785
 C558 C 0.82386 0.13626 0.47258
 C559 C 0.86339 0.17604 0.47203
 C560 C 0.82419 0.13667 0.52860
 O561 O 0.52176 0.84056 0.87057
 O562 O 0.47948 0.86964 0.84142
 O563 O 0.48012 0.84012 0.87098
 O564 O 0.52130 0.87016 0.84106
 O565 O 0.52132 0.84512 0.81609
 O566 O 0.48019 0.81508 0.84599
 O567 O 0.47955 0.84457 0.81647
 O568 O 0.52178 0.81555 0.84554
 Cu569 Cu 0.50066 0.85766 0.85848
 Cu570 Cu 0.50072 0.82761 0.82849
 C571 C 0.52890 0.82298 0.86311
 C572 C 0.47226 0.86206 0.82395
 C573 C 0.47321 0.82238 0.86368
 C574 C 0.52837 0.86278 0.82344
 O575 O 0.52083 0.16104 0.13161
 O576 O 0.47789 0.13230 0.16009
 O577 O 0.47922 0.16164 0.13045
 O578 O 0.51962 0.13181 0.16147
 O579 O 0.51918 0.15708 0.18622
 O580 O 0.47883 0.18686 0.15526
 O581 O 0.47748 0.15755 0.18487
 O582 O 0.52042 0.18629 0.15638
 Cu583 Cu 0.49945 0.14414 0.14344
 Cu584 Cu 0.49896 0.17445 0.17318
 C585 C 0.52786 0.17868 0.13902
 C586 C 0.47032 0.14000 0.17736
 C587 C 0.47217 0.17941 0.13752
 C588 C 0.52628 0.13932 0.17920
 O589 O 0.51993 0.13088 0.83959
 O590 O 0.47791 0.16001 0.86917
 O591 O 0.47831 0.13052 0.83952
 O592 O 0.51974 0.16024 0.86936
 O593 O 0.51966 0.18536 0.84452
 O594 O 0.47827 0.15564 0.81467
 O595 O 0.47788 0.18509 0.84430
 O596 O 0.51986 0.15604 0.81479
 Cu597 Cu 0.49898 0.14292 0.85693
 Cu598 Cu 0.49891 0.17308 0.82712
 C599 C 0.52699 0.13841 0.82204
 C600 C 0.47068 0.17754 0.86177
 C601 C 0.47131 0.13791 0.82190
 C602 C 0.52683 0.17788 0.86203
 O603 O 0.47916 0.84217 0.13035
 O604 O 0.52177 0.87169 0.15869
 O605 O 0.52097 0.84172 0.12960
 O606 O 0.48007 0.87208 0.15963
 O607 O 0.48033 0.84735 0.18486
 O608 O 0.52113 0.81704 0.15488
 O609 O 0.52197 0.84696 0.18392
 O610 O 0.47939 0.81749 0.15563
 Cu611 Cu 0.50045 0.85938 0.14202
 Cu612 Cu 0.50071 0.82973 0.17233
 C613 C 0.47200 0.82476 0.13812
 C614 C 0.52915 0.86438 0.17619
 C615 C 0.52809 0.82419 0.13714
 C616 C 0.47328 0.86495 0.17745
 O617 O 0.84044 0.48096 0.87006
 O618 O 0.87090 0.52145 0.83963
 O619 O 0.84162 0.52268 0.86944
 O620 O 0.87008 0.47972 0.84062
 O621 O 0.84503 0.47978 0.81571
 O622 O 0.81653 0.52274 0.84455
 O623 O 0.84577 0.52146 0.81479
 O624 O 0.81543 0.48106 0.84511
 Cu625 Cu 0.85828 0.50119 0.85744
 Cu626 Cu 0.82818 0.50127 0.82755
 C627 C 0.82267 0.47412 0.86279
 C628 C 0.86355 0.52834 0.82195
 C629 C 0.82416 0.53002 0.86198
 C630 C 0.86248 0.47243 0.82320
 O631 O 0.15994 0.47764 0.12999
 O632 O 0.13094 0.51924 0.16024
 O633 O 0.16069 0.51938 0.13074
 O634 O 0.13048 0.47750 0.15955
 O635 O 0.15549 0.47682 0.18450
 O636 O 0.18561 0.51864 0.15577
 O637 O 0.15590 0.51852 0.18523
 O638 O 0.18491 0.47694 0.15498
 Cu639 Cu 0.14301 0.49855 0.14262
 Cu640 Cu 0.17298 0.49769 0.17262
 C641 C 0.17740 0.47016 0.13731
 C642 C 0.13838 0.52591 0.17798
 C643 C 0.17840 0.52609 0.13827
 C644 C 0.13783 0.46999 0.17698
 O645 O 0.84000 0.51759 0.12974
 O646 O 0.87056 0.47728 0.16026
 O647 O 0.84131 0.47586 0.13043
 O648 O 0.86966 0.51899 0.15910
 O649 O 0.84461 0.51890 0.18405
 O650 O 0.81621 0.47575 0.15533
 O651 O 0.84541 0.47722 0.18511
 O652 O 0.81498 0.51743 0.15472
 Cu653 Cu 0.85790 0.49743 0.14238
 Cu654 Cu 0.82779 0.49731 0.17229
 C655 C 0.82222 0.52438 0.13702
 C656 C 0.86322 0.47041 0.17797
 C657 C 0.82387 0.46846 0.13791
 C658 C 0.86204 0.52630 0.17651
 O659 O 0.15961 0.52391 0.87027
 O660 O 0.13048 0.48252 0.83978
 O661 O 0.16012 0.48219 0.86931
 O662 O 0.13012 0.52426 0.84078
 O663 O 0.15515 0.52506 0.81582
 O664 O 0.18509 0.48303 0.84429
 O665 O 0.15548 0.48337 0.81480
 O666 O 0.18460 0.52472 0.84527
 Cu667 Cu 0.14257 0.50311 0.85754
 Cu668 Cu 0.17258 0.50410 0.82754
 C669 C 0.17710 0.53140 0.86299
 C670 C 0.13793 0.47593 0.82201
 C671 C 0.17781 0.47549 0.86173
 C672 C 0.13751 0.53187 0.82341
 C673 C 0.19251 0.43051 0.09372
 C674 C 0.21184 0.42237 0.10162
 C675 C 0.21979 0.42965 0.12128
 C676 C 0.20853 0.44511 0.13297
 C677 C 0.25761 0.36727 0.05713
 C678 C 0.18120 0.44597 0.10538
 C679 C 0.22380 0.40689 0.08938
 C680 C 0.23412 0.39414 0.07916
 C681 C 0.24659 0.37950 0.06725
 C682 C 0.18913 0.45350 0.12511
 H683 H 0.18624 0.42500 0.07849
 H684 H 0.23477 0.42349 0.12752
 H685 H 0.21507 0.45056 0.14809
 H686 H 0.16633 0.45210 0.09889
 C687 C 0.77808 0.56297 0.12113
 C688 C 0.78565 0.57059 0.10146
 C689 C 0.80528 0.56322 0.09344
 C690 C 0.81726 0.54824 0.10502
 C691 C 0.73913 0.62623 0.05856
 C692 C 0.79001 0.54800 0.13273
 C693 C 0.77319 0.58586 0.08952
 C694 C 0.76256 0.59862 0.07966
 C695 C 0.74997 0.61352 0.06824
 C696 C 0.80974 0.54043 0.12479
 H697 H 0.76291 0.56856 0.12749
 H698 H 0.81129 0.56902 0.07822
 H699 H 0.83237 0.54274 0.09847
 H700 H 0.78375 0.54233 0.14788
 C701 C 0.80570 0.43537 0.90646
 C702 C 0.78607 0.42799 0.89848
 C703 C 0.77851 0.43552 0.87879
 C704 C 0.79048 0.45044 0.86713
 C705 C 0.73931 0.37280 0.94181
 C706 C 0.81771 0.45031 0.89482
 C707 C 0.77355 0.41281 0.91052
 C708 C 0.76287 0.40016 0.92048
 C709 C 0.75021 0.38539 0.93202
 C710 C 0.81020 0.45805 0.87503
 H711 H 0.81169 0.42964 0.92170
 H712 H 0.76333 0.42991 0.87247
 H713 H 0.78423 0.45607 0.85196
 H714 H 0.83282 0.45585 0.90135
 C715 C 0.19247 0.57070 0.90683
 C716 C 0.21184 0.57884 0.89892
 C717 C 0.21971 0.57167 0.87918
 C718 C 0.20835 0.55634 0.86742
 C719 C 0.25808 0.63354 0.94348
 C720 C 0.18107 0.55536 0.89509
 C721 C 0.22391 0.59420 0.91122
 C722 C 0.23434 0.60685 0.92146
 C723 C 0.24694 0.62139 0.93337
 C724 C 0.18893 0.54794 0.87528
 H725 H 0.18626 0.57612 0.92211
 H726 H 0.23471 0.57784 0.87294
 H727 H 0.21484 0.55098 0.85224
 H728 H 0.16618 0.54922 0.90158
 C729 C 0.09446 0.19437 0.43546
 C730 C 0.10259 0.21401 0.42826
 C731 C 0.12228 0.22147 0.43598
 C732 C 0.13376 0.20943 0.45097
 C733 C 0.05871 0.26068 0.37352
 C734 C 0.10591 0.18229 0.45045
 C735 C 0.09060 0.22664 0.41315
 C736 C 0.08055 0.23731 0.40060
 C737 C 0.06877 0.24989 0.38598
 C738 C 0.12566 0.18974 0.45844
 H739 H 0.07922 0.18844 0.42959
 H740 H 0.12872 0.23666 0.43052
 H741 H 0.14890 0.21563 0.45679
 H742 H 0.09922 0.16721 0.45588
 C743 C 0.12167 0.77789 0.56391
 C744 C 0.10216 0.78575 0.57172
 C745 C 0.09437 0.80548 0.56446
 C746 C 0.10598 0.81727 0.54934
 C747 C 0.05771 0.74010 0.62692
 C748 C 0.13330 0.78964 0.54880
 C749 C 0.09001 0.77342 0.58695
 C750 C 0.07981 0.76299 0.59962
 C751 C 0.06788 0.75068 0.61436
 C752 C 0.12554 0.80943 0.54127
 H753 H 0.12783 0.76262 0.56943
 H754 H 0.07928 0.81170 0.57039
 H755 H 0.09956 0.83244 0.54387
 H756 H 0.14829 0.78315 0.54291
 C757 C 0.87762 0.77625 0.43333
 C758 C 0.89734 0.78392 0.42588
 C759 C 0.90518 0.80362 0.43327
 C760 C 0.89340 0.81556 0.44816
 C761 C 0.94176 0.73736 0.37134
 C762 C 0.86581 0.78814 0.44820
 C763 C 0.90961 0.77142 0.41085
 C764 C 0.91981 0.76080 0.39834
 C765 C 0.93168 0.74820 0.38377
 C766 C 0.87360 0.80791 0.45585
 H767 H 0.87140 0.76101 0.42771
 H768 H 0.92044 0.80970 0.42762
 H769 H 0.89985 0.83070 0.45373
 H770 H 0.85065 0.78179 0.45379
 C771 C 0.87938 0.22098 0.56660
 C772 C 0.89918 0.21358 0.57405
 C773 C 0.90727 0.19399 0.56665
 C774 C 0.89565 0.18189 0.55175
 C775 C 0.94298 0.26093 0.62843
 C776 C 0.86775 0.20893 0.55171
 C777 C 0.91129 0.22627 0.58906
 C778 C 0.92135 0.23707 0.60154
 C779 C 0.93305 0.24989 0.61606
 C780 C 0.87579 0.18928 0.54405
 H781 H 0.87298 0.23613 0.57221
 H782 H 0.92259 0.18812 0.57231
 H783 H 0.90230 0.16685 0.54617
 H784 H 0.85252 0.21508 0.54611
 C785 C 0.42931 0.09759 0.19215
 C786 C 0.42112 0.10586 0.21132
 C787 C 0.42878 0.12543 0.21923
 C788 C 0.44467 0.13664 0.20810
 C789 C 0.36517 0.06228 0.25682
 C790 C 0.44521 0.10877 0.18098
 C791 C 0.40531 0.09402 0.22321
 C792 C 0.39234 0.08405 0.23348
 C793 C 0.37750 0.07233 0.24587
 C794 C 0.45314 0.12838 0.18889
 H795 H 0.42353 0.08243 0.18592
 H796 H 0.42258 0.13194 0.23409
 H797 H 0.45042 0.15168 0.21462
 H798 H 0.45138 0.10199 0.16624
 C799 C 0.56625 0.12296 0.77832
 C800 C 0.57371 0.10318 0.78577
 C801 C 0.56623 0.09509 0.80530
 C802 C 0.55120 0.10665 0.81726
 C803 C 0.62788 0.05887 0.73875
 C804 C 0.55122 0.13455 0.79023
 C805 C 0.58874 0.09104 0.77317
 C806 C 0.60118 0.08088 0.76243
 C807 C 0.61562 0.06901 0.74971
 C808 C 0.54344 0.12647 0.80979
 H809 H 0.57192 0.12936 0.76321
 H810 H 0.57190 0.07978 0.81120
 H811 H 0.54553 0.09998 0.83224
 H812 H 0.54558 0.14974 0.78403
 C813 C 0.43143 0.90439 0.80855
 C814 C 0.42357 0.89611 0.78925
 C815 C 0.43144 0.87661 0.78142
 C816 C 0.44720 0.86547 0.79277
 C817 C 0.36734 0.93840 0.74295
 C818 C 0.44719 0.89328 0.81995
 C819 C 0.40777 0.90777 0.77718
 C820 C 0.39475 0.91747 0.76674
 C821 C 0.37981 0.92878 0.75410
 C822 C 0.45531 0.87371 0.81213
 H823 H 0.42547 0.91950 0.81473
 H824 H 0.42550 0.87006 0.76647
 H825 H 0.45308 0.85046 0.78631
 H826 H 0.45310 0.90006 0.83480
 C827 C 0.57007 0.87989 0.21832
 C828 C 0.57770 0.89939 0.21027
 C829 C 0.56970 0.90732 0.19090
 C830 C 0.55401 0.89587 0.17968
 C831 C 0.63316 0.94292 0.25648
 C832 C 0.55439 0.86841 0.20715
 C833 C 0.59333 0.91144 0.22221
 C834 C 0.60618 0.92146 0.23260
 C835 C 0.62090 0.93309 0.24525
 C836 C 0.54611 0.87632 0.18774
 H837 H 0.57612 0.87362 0.23332
 H838 H 0.57547 0.92243 0.18455
 H839 H 0.54797 0.90239 0.16480
 H840 H 0.54867 0.85342 0.21379
 C841 C 0.42995 0.22007 0.87679
 C842 C 0.42214 0.21217 0.89625
 C843 C 0.43004 0.19282 0.90438
 C844 C 0.44576 0.18145 0.89313
 C845 C 0.36607 0.25850 0.93891
 C846 C 0.44566 0.20876 0.86551
 C847 C 0.40638 0.22420 0.90804
 C848 C 0.39339 0.23464 0.91783
 C849 C 0.37850 0.24730 0.92922
 C850 C 0.45380 0.18934 0.87359
 H851 H 0.42397 0.23506 0.87037
 H852 H 0.42414 0.18658 0.91947
 H853 H 0.45169 0.16656 0.89978
 H854 H 0.45148 0.21527 0.85053
 C855 C 0.56813 0.80669 0.90653
 C856 C 0.57568 0.78712 0.89855
 C857 C 0.56829 0.77950 0.87880
 C858 C 0.55326 0.79129 0.86713
 C859 C 0.62976 0.74030 0.94302
 C860 C 0.55310 0.81853 0.89489
 C861 C 0.59068 0.77461 0.91078
 C862 C 0.60310 0.76394 0.92099
 C863 C 0.61752 0.75125 0.93289
 C864 C 0.54540 0.81090 0.87511
 H865 H 0.57374 0.81272 0.92181
 H866 H 0.57402 0.76436 0.87248
 H867 H 0.54767 0.78496 0.85197
 H868 H 0.54736 0.83354 0.90148
 C869 C 0.43108 0.80872 0.09609
 C870 C 0.42332 0.78943 0.10452
 C871 C 0.43125 0.78184 0.12404
 C872 C 0.44698 0.79340 0.13506
 C873 C 0.36744 0.74249 0.06219
 C874 C 0.44681 0.82033 0.10708
 C875 C 0.40759 0.77713 0.09293
 C876 C 0.39465 0.76652 0.08324
 C877 C 0.37981 0.75374 0.07190
 C878 C 0.45501 0.81275 0.12666
 H879 H 0.42508 0.81472 0.08096
 H880 H 0.42538 0.76689 0.13069
 H881 H 0.45293 0.78712 0.15008
 H882 H 0.45265 0.83516 0.10018
 C883 C 0.56742 0.22208 0.12327
 C884 C 0.57514 0.21416 0.10376
 C885 C 0.56783 0.19440 0.09603
 C886 C 0.55265 0.18268 0.10764
 C887 C 0.62940 0.26021 0.05859
 C888 C 0.55224 0.21040 0.13491
 C889 C 0.59022 0.22654 0.09146
 C890 C 0.60268 0.23705 0.08111
 C891 C 0.61713 0.24949 0.06895
 C892 C 0.54459 0.19063 0.12715
 H893 H 0.57297 0.23738 0.12938
 H894 H 0.57370 0.18813 0.08093
 H895 H 0.54708 0.16752 0.10122
 H896 H 0.54635 0.21697 0.14986
 C897 C 0.21886 0.12045 0.57071
 C898 C 0.21079 0.10086 0.57811
 C899 C 0.19134 0.09303 0.57011
 C900 C 0.18005 0.10468 0.55467
 C901 C 0.25673 0.05669 0.63313
 C902 C 0.20761 0.13212 0.55528
 C903 C 0.22274 0.08865 0.59356
 C904 C 0.23309 0.07850 0.60630
 C905 C 0.24563 0.06669 0.62092
 C906 C 0.18810 0.12433 0.54703
 H907 H 0.23392 0.12664 0.57676
 H908 H 0.18498 0.07786 0.57570
 H909 H 0.16509 0.09824 0.54865
 H910 H 0.21425 0.14718 0.54975
 C911 C 0.78098 0.12092 0.43238
 C912 C 0.78884 0.10140 0.42459
 C913 C 0.80824 0.09330 0.43239
 C914 C 0.81971 0.10465 0.44797
 C915 C 0.74240 0.05901 0.36839
 C916 C 0.79240 0.13229 0.44795
 C917 C 0.77676 0.08960 0.40886
 C918 C 0.76629 0.07986 0.39587
 C919 C 0.75360 0.06857 0.38091
 C920 C 0.81189 0.12426 0.45596
 H921 H 0.76595 0.12732 0.42648
 H922 H 0.81445 0.07818 0.42649
 H923 H 0.83466 0.09804 0.45380
 H924 H 0.78593 0.14733 0.45374
 C925 C 0.77667 0.87643 0.56559
 C926 C 0.78413 0.89627 0.57297
 C927 C 0.80370 0.90433 0.56550
 C928 C 0.81573 0.89265 0.55061
 C929 C 0.73737 0.94052 0.62741
 C930 C 0.78865 0.86472 0.55071
 C931 C 0.77155 0.90844 0.58799
 C932 C 0.76087 0.91859 0.60048
 C933 C 0.74823 0.93043 0.61502
 C934 C 0.80828 0.87274 0.54298
 H935 H 0.76153 0.87005 0.57126
 H936 H 0.80962 0.91969 0.57111
 H937 H 0.83076 0.89927 0.54498
 H938 H 0.78246 0.84946 0.54516
 C939 C 0.19220 0.90445 0.42867
 C940 C 0.21147 0.89631 0.42057
 C941 C 0.21933 0.87669 0.42807
 C942 C 0.20803 0.86529 0.44369
 C943 C 0.25717 0.94014 0.36500
 C944 C 0.18086 0.89307 0.44430
 C945 C 0.22345 0.90827 0.40493
 C946 C 0.23377 0.91830 0.39206
 C947 C 0.24621 0.93007 0.37730
 C948 C 0.18870 0.87339 0.45204
 H949 H 0.18600 0.91965 0.42301
 H950 H 0.23426 0.87027 0.42194
 H951 H 0.21450 0.85019 0.44930
 H952 H 0.16604 0.89974 0.45039
 C953 C 0.12243 0.43731 0.77765
 C954 C 0.10287 0.42936 0.78524
 C955 C 0.09490 0.43640 0.80499
 C956 C 0.10637 0.45143 0.81706
 C957 C 0.05911 0.37414 0.73877
 C958 C 0.13394 0.45234 0.78968
 C959 C 0.09089 0.41415 0.77265
 C960 C 0.08085 0.40149 0.76202
 C961 C 0.06911 0.38673 0.74950
 C962 C 0.12600 0.45963 0.80950
 H963 H 0.12875 0.43197 0.76237
 H964 H 0.07977 0.43035 0.81102
 H965 H 0.09981 0.45672 0.83224
 H966 H 0.14898 0.45832 0.78339
 C967 C 0.09522 0.56529 0.19486
 C968 C 0.10308 0.57235 0.21464
 C969 C 0.12264 0.56451 0.22228
 C970 C 0.13425 0.54955 0.21026
 C971 C 0.05855 0.62692 0.26111
 C972 C 0.10679 0.55033 0.18281
 C973 C 0.09093 0.58740 0.22724
 C974 C 0.08073 0.59992 0.23787
 C975 C 0.06876 0.61449 0.25038
 C976 C 0.12641 0.54222 0.19042
 H977 H 0.08008 0.57125 0.18880
 H978 H 0.12887 0.56986 0.23758
 H979 H 0.14928 0.54363 0.21659
 H980 H 0.10030 0.54502 0.16762
 C981 C 0.90720 0.43215 0.19527
 C982 C 0.89914 0.42475 0.21485
 C983 C 0.87927 0.43208 0.22224
 C984 C 0.86753 0.44683 0.21017
 C985 C 0.94280 0.37042 0.26221
 C986 C 0.89547 0.44691 0.18316
 C987 C 0.91127 0.40978 0.22751
 C988 C 0.92131 0.39733 0.23832
 C989 C 0.93293 0.38280 0.25115
 C990 C 0.87552 0.45447 0.19051
 H991 H 0.92257 0.42657 0.18941
 H992 H 0.87288 0.42646 0.23737
 H993 H 0.85224 0.45231 0.21630
 H994 H 0.90208 0.45248 0.16811
 C995 C 0.90733 0.56703 0.80492
 C996 C 0.89926 0.57448 0.78538
 C997 C 0.87946 0.56702 0.77792
 C998 C 0.86780 0.55210 0.78988
 C999 C 0.94257 0.62956 0.73848
 C1000 C 0.89568 0.55209 0.81692
 C1001 C 0.91131 0.58964 0.77285
 C1002 C 0.92126 0.60227 0.76216
 C1003 C 0.93279 0.61700 0.74945
 C1004 C 0.87580 0.54441 0.80950
 H1005 H 0.92265 0.57270 0.81083
 H1006 H 0.87308 0.57268 0.76282
 H1007 H 0.85256 0.54652 0.78371
 H1008 H 0.90228 0.54649 0.83194
 C1009 C 0.80923 0.57064 0.90474
 C1010 C 0.78978 0.57850 0.89683
 C1011 C 0.78177 0.57081 0.87734
 C1012 C 0.79305 0.55519 0.86588
 C1013 C 0.74371 0.63351 0.94119
 C1014 C 0.82055 0.55502 0.89330
 C1015 C 0.77773 0.59402 0.90895
 C1016 C 0.76734 0.60675 0.91913
 C1017 C 0.75480 0.62134 0.93105
 C1018 C 0.81252 0.54703 0.87379
 H1019 H 0.81555 0.57645 0.91983
 H1020 H 0.76670 0.57676 0.87109
 H1021 H 0.78643 0.54939 0.85092
 H1022 H 0.83548 0.54908 0.89984
 C1023 C 0.19461 0.43546 0.90425
 C1024 C 0.21427 0.42832 0.89612
 C1025 C 0.22184 0.43634 0.87661
 C1026 C 0.20989 0.45154 0.86531
 C1027 C 0.26097 0.37295 0.93919
 C1028 C 0.18262 0.45066 0.89299
 C1029 C 0.22684 0.41301 0.90792
 C1030 C 0.23751 0.40030 0.91780
 C1031 C 0.25013 0.38552 0.92934
 C1032 C 0.19017 0.45895 0.87342
 H1033 H 0.18860 0.42936 0.91936
 H1034 H 0.23704 0.43094 0.87017
 H1035 H 0.21617 0.45759 0.85031
 H1036 H 0.16752 0.45603 0.89967
 C1037 C 0.22263 0.56506 0.12322
 C1038 C 0.21517 0.57297 0.10363
 C1039 C 0.19551 0.56582 0.09551
 C1040 C 0.18342 0.55071 0.10685
 C1041 C 0.26231 0.62819 0.06055
 C1042 C 0.21058 0.54995 0.13458
 C1043 C 0.22785 0.58822 0.09178
 C1044 C 0.23861 0.60088 0.08190
 C1045 C 0.25135 0.61563 0.07037
 C1046 C 0.19086 0.54253 0.12649
 H1047 H 0.23783 0.57047 0.12965
 H1048 H 0.18958 0.57183 0.08035
 H1049 H 0.16832 0.54532 0.10016
 H1050 H 0.21679 0.54399 0.14963
 C1051 C 0.80902 0.42778 0.09518
 C1052 C 0.78956 0.41989 0.10309
 C1053 C 0.78153 0.42755 0.12258
 C1054 C 0.79280 0.44319 0.13405
 C1055 C 0.74327 0.36508 0.05868
 C1056 C 0.82032 0.44342 0.10661
 C1057 C 0.77750 0.40439 0.09094
 C1058 C 0.76708 0.39169 0.08074
 C1059 C 0.75446 0.37717 0.06882
 C1060 C 0.81227 0.45140 0.12613
 H1061 H 0.81535 0.42199 0.08008
 H1062 H 0.76645 0.42158 0.12883
 H1063 H 0.78616 0.44898 0.14901
 H1064 H 0.83526 0.44940 0.10007
 C1065 C 0.90345 0.80655 0.56852
 C1066 C 0.89553 0.78709 0.57642
 C1067 C 0.87611 0.77895 0.56866
 C1068 C 0.86470 0.79013 0.55298
 C1069 C 0.93947 0.74191 0.63230
 C1070 C 0.89207 0.81777 0.55284
 C1071 C 0.90753 0.77522 0.59211
 C1072 C 0.91760 0.76503 0.60504
 C1073 C 0.92940 0.75274 0.61989
 C1074 C 0.87260 0.80964 0.54482
 H1075 H 0.91849 0.81297 0.57439
 H1076 H 0.86986 0.76388 0.57463
 H1077 H 0.84978 0.78343 0.54716
 H1078 H 0.89859 0.83273 0.54691
 C1079 C 0.90616 0.19172 0.43170
 C1080 C 0.89800 0.21108 0.42386
 C1081 C 0.87841 0.21884 0.43157
 C1082 C 0.86707 0.20738 0.44713
 C1083 C 0.94128 0.25748 0.36828
 C1084 C 0.89485 0.18021 0.44726
 C1085 C 0.90989 0.22325 0.40826
 C1086 C 0.91982 0.23373 0.39541
 C1087 C 0.93141 0.24636 0.38063
 C1088 C 0.87520 0.18796 0.45522
 H1089 H 0.92133 0.18558 0.42587
 H1090 H 0.87196 0.23383 0.42564
 H1091 H 0.85200 0.21379 0.45290
 H1092 H 0.90155 0.16533 0.45315
 C1093 C 0.09423 0.19240 0.57064
 C1094 C 0.10252 0.21166 0.57869
 C1095 C 0.12225 0.21930 0.57121
 C1096 C 0.13360 0.20782 0.55567
 C1097 C 0.05952 0.25847 0.63414
 C1098 C 0.10556 0.18088 0.55508
 C1099 C 0.09065 0.22386 0.59428
 C1100 C 0.08078 0.23442 0.60711
 C1101 C 0.06929 0.24719 0.62184
 C1102 C 0.12535 0.18851 0.54736
 H1103 H 0.07894 0.18636 0.57629
 H1104 H 0.12880 0.23420 0.57731
 H1105 H 0.14879 0.21414 0.55009
 H1106 H 0.09877 0.16608 0.54903
 C1107 C 0.09383 0.80681 0.42905
 C1108 C 0.10183 0.78744 0.42099
 C1109 C 0.12142 0.77952 0.42846
 C1110 C 0.13295 0.79083 0.44399
 C1111 C 0.05852 0.74103 0.36546
 C1112 C 0.10534 0.81817 0.44459
 C1113 C 0.08980 0.77541 0.40540
 C1114 C 0.07984 0.76496 0.39254
 C1115 C 0.06830 0.75227 0.37778
 C1116 C 0.12501 0.81026 0.45229
 H1117 H 0.07865 0.81307 0.42340
 H1118 H 0.12773 0.76452 0.42236
 H1119 H 0.14803 0.78430 0.44955
 H1120 H 0.09880 0.83308 0.45064
 C1121 C 0.56811 0.90607 0.80747
 C1122 C 0.57583 0.89804 0.78799
 C1123 C 0.56817 0.87842 0.78021
 C1124 C 0.55281 0.86689 0.79178
 C1125 C 0.63124 0.94148 0.74142
 C1126 C 0.55274 0.89457 0.81908
 C1127 C 0.59132 0.91005 0.77577
 C1128 C 0.60412 0.92004 0.76526
 C1129 C 0.61888 0.93164 0.75259
 C1130 C 0.54487 0.87486 0.81133
 H1131 H 0.57389 0.92126 0.81363
 H1132 H 0.57401 0.87206 0.76513
 H1133 H 0.54711 0.85179 0.78536
 H1134 H 0.54696 0.90115 0.83407
 C1135 C 0.43439 0.90876 0.19395
 C1136 C 0.42706 0.90102 0.21368
 C1137 C 0.43467 0.88141 0.22145
 C1138 C 0.44960 0.86961 0.20960
 C1139 C 0.37173 0.94496 0.25985
 C1140 C 0.44933 0.89698 0.18206
 C1141 C 0.41187 0.91323 0.22607
 C1142 C 0.39920 0.92335 0.23660
 C1143 C 0.38439 0.93506 0.24909
 C1144 C 0.45715 0.87729 0.18979
 H1145 H 0.42861 0.92393 0.18778
 H1146 H 0.42911 0.87527 0.23670
 H1147 H 0.45529 0.85453 0.21602
 H1148 H 0.45482 0.90335 0.16688
 C1149 C 0.56507 0.09588 0.19665
 C1150 C 0.57226 0.10400 0.21628
 C1151 C 0.56459 0.12374 0.22369
 C1152 C 0.54971 0.13530 0.21158
 C1153 C 0.62726 0.06034 0.26291
 C1154 C 0.55019 0.10740 0.18450
 C1155 C 0.58739 0.09203 0.22892
 C1156 C 0.59999 0.08202 0.23959
 C1157 C 0.61471 0.07032 0.25216
 C1158 C 0.54230 0.12723 0.19186
 H1159 H 0.57090 0.08060 0.19077
 H1160 H 0.57004 0.13018 0.23887
 H1161 H 0.54397 0.15050 0.21771
 H1162 H 0.54481 0.10074 0.16940
 C1163 C 0.43266 0.09397 0.80519
 C1164 C 0.42524 0.10180 0.78555
 C1165 C 0.43258 0.12161 0.77798
 C1166 C 0.44741 0.13348 0.78990
 C1167 C 0.37122 0.05651 0.73916
 C1168 C 0.44749 0.10580 0.81715
 C1169 C 0.41033 0.08940 0.77302
 C1170 C 0.39795 0.07901 0.76242
 C1171 C 0.38352 0.06685 0.74991
 C1172 C 0.45511 0.12566 0.80958
 H1173 H 0.42709 0.07865 0.81120
 H1174 H 0.42695 0.12782 0.76279
 H1175 H 0.45295 0.14869 0.78362
 H1176 H 0.45310 0.09933 0.83222
 C1177 C 0.56818 0.78100 0.12218
 C1178 C 0.57591 0.78860 0.10255
 C1179 C 0.56806 0.80790 0.09424
 C1180 C 0.55252 0.81953 0.10548
 C1181 C 0.63233 0.74220 0.06032
 C1182 C 0.55265 0.79259 0.13344
 C1183 C 0.59167 0.77641 0.09088
 C1184 C 0.60470 0.76592 0.08120
 C1185 C 0.61974 0.75329 0.06993
 C1186 C 0.54461 0.81198 0.12521
 H1187 H 0.57412 0.76606 0.12875
 H1188 H 0.57390 0.81391 0.07904
 H1189 H 0.54667 0.83439 0.09870
 H1190 H 0.54693 0.78632 0.14857
 C1191 C 0.43370 0.22321 0.12041
 C1192 C 0.42658 0.21540 0.10063
 C1193 C 0.43415 0.19569 0.09301
 C1194 C 0.44888 0.18387 0.10506
 C1195 C 0.37227 0.26130 0.05544
 C1196 C 0.44842 0.21143 0.13249
 C1197 C 0.41165 0.22773 0.08812
 C1198 C 0.39921 0.23821 0.07773
 C1199 C 0.38468 0.25062 0.06566
 C1200 C 0.45623 0.19165 0.12492
 H1201 H 0.42794 0.23845 0.12646
 H1202 H 0.42874 0.18950 0.07771
 H1203 H 0.45458 0.16872 0.09877
 H1204 H 0.45375 0.21788 0.14769
 C1205 C 0.56721 0.19330 0.90482
 C1206 C 0.57500 0.21278 0.89685
 C1207 C 0.56715 0.22078 0.87745
 C1208 C 0.55152 0.20941 0.86608
 C1209 C 0.63154 0.25827 0.93995
 C1210 C 0.55158 0.18188 0.89348
 C1211 C 0.59080 0.22475 0.90870
 C1212 C 0.60387 0.23502 0.91858
 C1213 C 0.61893 0.24739 0.93012
 C1214 C 0.54352 0.18984 0.87399
 H1215 H 0.57315 0.18697 0.91985
 H1216 H 0.57304 0.23586 0.87115
 H1217 H 0.54568 0.21598 0.85114
 H1218 H 0.54577 0.16688 0.90001
 C1219 C 0.43465 0.80561 0.90764
 C1220 C 0.42730 0.78587 0.89986
 C1221 C 0.43469 0.77823 0.88010
 C1222 C 0.44947 0.79019 0.86822
 C1223 C 0.37309 0.73940 0.94486
 C1224 C 0.44944 0.81761 0.89579
 C1225 C 0.41238 0.77332 0.91223
 C1226 C 0.39996 0.76270 0.92257
 C1227 C 0.38547 0.75016 0.93462
 C1228 C 0.45709 0.80999 0.87598
 H1229 H 0.42904 0.81168 0.92291
 H1230 H 0.42911 0.76297 0.87392
 H1231 H 0.45504 0.78386 0.85305
 H1232 H 0.45498 0.83277 0.90222
 C1233 C 0.80503 0.90342 0.43197
 C1234 C 0.78535 0.89557 0.42460
 C1235 C 0.77767 0.87585 0.43205
 C1236 C 0.78952 0.86410 0.44699
 C1237 C 0.73907 0.94122 0.37098
 C1238 C 0.81691 0.89172 0.44690
 C1239 C 0.77283 0.90796 0.40972
 C1240 C 0.76225 0.91841 0.39741
 C1241 C 0.74978 0.93071 0.38313
 C1242 C 0.80922 0.87197 0.45469
 H1243 H 0.81111 0.91869 0.42631
 H1244 H 0.76244 0.86963 0.42646
 H1245 H 0.78314 0.84898 0.45266
 H1246 H 0.83200 0.89823 0.45251
 C1247 C 0.22185 0.87622 0.56376
 C1248 C 0.21441 0.89589 0.57159
 C1249 C 0.19484 0.90408 0.56432
 C1250 C 0.18280 0.89271 0.54918
 C1251 C 0.26113 0.93907 0.62703
 C1252 C 0.20985 0.86482 0.54863
 C1253 C 0.22700 0.90775 0.58688
 C1254 C 0.23767 0.91764 0.59960
 C1255 C 0.25030 0.92921 0.61442
 C1256 C 0.19022 0.87297 0.54111
 H1257 H 0.23698 0.86973 0.56927
 H1258 H 0.18893 0.91930 0.57027
 H1259 H 0.16777 0.89944 0.54373
 H1260 H 0.21602 0.84969 0.54275
 C1261 C 0.22080 0.12129 0.43541
 C1262 C 0.21303 0.10173 0.42760
 C1263 C 0.19332 0.09385 0.43490
 C1264 C 0.18148 0.10541 0.45004
 C1265 C 0.25926 0.05809 0.37209
 C1266 C 0.20901 0.13288 0.45054
 C1267 C 0.22543 0.08966 0.41231
 C1268 C 0.23597 0.07963 0.39958
 C1269 C 0.24848 0.06797 0.38475
 C1270 C 0.18923 0.12504 0.45810
 H1271 H 0.23604 0.12754 0.42987
 H1272 H 0.18715 0.07871 0.42897
 H1273 H 0.16633 0.09892 0.45553
 H1274 H 0.21544 0.14792 0.45641
 C1275 C 0.80862 0.09378 0.56885
 C1276 C 0.78913 0.10177 0.57658
 C1277 C 0.78126 0.12130 0.56885
 C1278 C 0.79274 0.13273 0.55336
 C1279 C 0.74248 0.05831 0.63185
 C1280 C 0.82014 0.10520 0.55335
 C1281 C 0.77694 0.08977 0.59209
 C1282 C 0.76642 0.07978 0.60487
 C1283 C 0.75370 0.06816 0.61956
 C1284 C 0.81228 0.12477 0.54536
 H1285 H 0.81485 0.07866 0.57468
 H1286 H 0.76617 0.12762 0.57469
 H1287 H 0.78623 0.14774 0.54757
 H1288 H 0.83512 0.09862 0.54754
 C1289 C 0.87687 0.56727 0.21896
 C1290 C 0.89633 0.57512 0.21100
 C1291 C 0.90440 0.56730 0.19159
 C1292 C 0.89315 0.55156 0.18024
 C1293 C 0.94019 0.63069 0.25691
 C1294 C 0.86559 0.55153 0.20765
 C1295 C 0.90827 0.59078 0.22306
 C1296 C 0.91833 0.60364 0.23342
 C1297 C 0.93012 0.61839 0.24590
 C1298 C 0.87366 0.54341 0.18821
 H1299 H 0.87051 0.57318 0.23400
 H1300 H 0.91948 0.57324 0.18531
 H1301 H 0.89980 0.54566 0.16534
 H1302 H 0.85064 0.54560 0.21422
 C1303 C 0.90490 0.43161 0.80795
 C1304 C 0.89683 0.42379 0.78854
 C1305 C 0.87735 0.43160 0.78064
 C1306 C 0.86605 0.44728 0.79201
 C1307 C 0.94067 0.36833 0.74250
 C1308 C 0.89364 0.44729 0.81935
 C1309 C 0.90877 0.40817 0.77643
 C1310 C 0.91881 0.39534 0.76604
 C1311 C 0.93060 0.38062 0.75352
 C1312 C 0.87413 0.45539 0.81145
 H1313 H 0.91999 0.42571 0.81418
 H1314 H 0.87098 0.42569 0.76561
 H1315 H 0.85109 0.45316 0.78548
 H1316 H 0.90029 0.45318 0.83425
 C1317 C 0.09422 0.57187 0.80849
 C1318 C 0.10231 0.58015 0.78929
 C1319 C 0.12200 0.57286 0.78140
 C1320 C 0.13352 0.55726 0.79257
 C1321 C 0.05871 0.63550 0.74317
 C1322 C 0.10573 0.55625 0.81971
 C1323 C 0.09024 0.59575 0.77736
 C1324 C 0.08022 0.60857 0.76698
 C1325 C 0.06858 0.62327 0.75436
 C1326 C 0.12547 0.54870 0.81182
 H1327 H 0.07897 0.57737 0.81472
 H1328 H 0.12839 0.57913 0.76652
 H1329 H 0.14867 0.55181 0.78605
 H1330 H 0.09909 0.55000 0.83447
 C1331 C 0.12221 0.42928 0.21929
 C1332 C 0.10250 0.42194 0.21148
 C1333 C 0.09442 0.43012 0.19224
 C1334 C 0.10596 0.44566 0.18090
 C1335 C 0.05907 0.36644 0.25782
 C1336 C 0.13376 0.44481 0.20800
 C1337 C 0.09044 0.40635 0.22350
 C1338 C 0.08045 0.39351 0.23394
 C1339 C 0.06888 0.37876 0.24661
 C1340 C 0.12573 0.45325 0.18871
 H1341 H 0.12860 0.42309 0.23418
 H1342 H 0.07916 0.42457 0.18607
 H1343 H 0.09934 0.45182 0.16611
 H1344 H 0.14892 0.45029 0.21445
   
