data_POSCAR
  _audit_creation_date              2014-09-24
  _audit_creation_method            'ToBaCCo'
  _symmetry_space_group_name_H-M    'P1'
  _symmetry_Int_Tables_number       1
  _symmetry_cell_setting            triclinic
  loop_
  _symmetry_equiv_pos_as_xyz
 x,y,z
_cell_length_a 44.0374
_cell_length_b 43.9559
_cell_length_c 43.1439
_cell_angle_alpha 88.341700
_cell_angle_beta 91.864300
_cell_angle_gamma 88.602600
loop_
  _atom_site_label
  _atom_site_type_symbol
  _atom_site_fract_x
  _atom_site_fract_y
  _atom_site_fract_z
C1 C 0.41032 0.01665 0.28418
 H2 H 0.41204 0.03478 0.26691
 C3 C 0.42683 0.01803 0.31236
 H4 H 0.44185 0.03678 0.31619
 C5 C 0.38875 -0.02980 0.30022
 H6 H 0.37356 -0.04814 0.29603
 C7 C 0.40513 -0.02959 0.32834
 H8 H 0.40279 -0.04817 0.34508
 N9 N 0.39261 -0.00763 0.27816
 C10 C 0.39962 -0.04291 0.18905
 H11 H 0.37853 -0.05491 0.18896
 C12 C 0.42181 -0.05104 0.16824
 H13 H 0.41741 -0.06965 0.15306
 C14 C 0.43046 -0.00414 0.20889
 H15 H 0.43374 0.01427 0.22453
 C16 C 0.45320 -0.01142 0.18841
 H17 H 0.47373 0.00168 0.18847
 Zn18 Zn 0.37407 -0.01027 0.23784
 N19 N 0.40429 -0.01991 0.20899
 C20 C 0.36311 0.04429 0.20188
 N21 N 0.35564 0.02787 0.22761
 C22 C 0.33608 0.03919 0.24832
 C23 C 0.32386 0.06860 0.24413
 C24 C 0.35139 0.07392 0.19678
 C25 C 0.35502 -0.07012 0.24413
 C26 C 0.33515 -0.09422 0.24416
 C27 C 0.29446 -0.05897 0.22766
 C28 C 0.31518 -0.03534 0.22868
 N29 N 0.34478 -0.04127 0.23721
 H30 H 0.37869 0.03471 0.18571
 H31 H 0.33051 0.02550 0.26849
 H32 H 0.30822 0.07700 0.26091
 H33 H 0.35803 0.08710 0.17661
 H34 H 0.37896 -0.07447 0.24939
 H35 H 0.34493 -0.11666 0.24914
 H36 H 0.27099 -0.05365 0.22077
 H37 H 0.30762 -0.01236 0.22233
 C38 C 0.44899 -0.03495 0.16754
 C39 C 0.42486 -0.00584 0.33441
 C40 C 0.30405 -0.08895 0.23617
 C41 C 0.33224 0.08670 0.21853
 C42 C 0.08630 0.04667 0.70430
 H43 H 0.10507 0.06182 0.70675
 C44 C 0.06541 0.05145 0.67949
 H45 H 0.06845 0.07021 0.66317
 C46 C 0.05921 0.00425 0.72253
 H47 H 0.05668 -0.01411 0.73925
 C48 C 0.03758 0.00846 0.69835
 H49 H 0.01893 -0.00707 0.69647
 N50 N 0.08358 0.02264 0.72458
 C51 C 0.12185 0.00225 0.81743
 H52 H 0.14522 -0.00172 0.81131
 C53 C 0.11326 -0.00328 0.84778
 H54 H 0.13023 -0.01094 0.86522
 C55 C 0.07125 0.01666 0.80188
 H56 H 0.05503 0.02433 0.78383
 C57 C 0.06154 0.01092 0.83199
 H58 H 0.03791 0.01503 0.83704
 Zn59 Zn 0.11546 0.01341 0.75464
 N60 N 0.10094 0.01196 0.79523
 C61 C 0.15124 0.06159 0.77568
 N62 N 0.14625 0.04289 0.75156
 C63 C 0.16179 0.04608 0.72495
 C64 C 0.18260 0.06935 0.72154
 C65 C 0.17197 0.08495 0.77336
 C66 C 0.11275 -0.04908 0.75792
 C67 C 0.12326 -0.07915 0.75964
 C68 C 0.17222 -0.06239 0.74333
 C69 C 0.16068 -0.03242 0.74192
 N70 N 0.13137 -0.02636 0.74926
 H71 H 0.13862 0.05893 0.79658
 H72 H 0.15727 0.03113 0.70595
 H73 H 0.19414 0.07208 0.69988
 H74 H 0.17553 0.09917 0.79311
 H75 H 0.09019 -0.04377 0.76547
 H76 H 0.10821 -0.09673 0.76744
 H77 H 0.19591 -0.06645 0.73858
 H78 H 0.17559 -0.01407 0.73636
 C79 C 0.08275 0.00046 0.85522
 C80 C 0.04123 0.03151 0.67580
 C81 C 0.15337 -0.08615 0.75266
 C82 C 0.18736 0.08964 0.74561
 C83 C 0.60235 0.51206 0.19911
 H84 H 0.59483 0.53119 0.21237
 C85 C 0.59198 0.50941 0.16827
 H86 H 0.57593 0.52631 0.15843
 C87 C 0.63245 0.46694 0.19614
 H88 H 0.64889 0.45082 0.20652
 C89 C 0.62272 0.46340 0.16548
 H90 H 0.63129 0.44412 0.15302
 N91 N 0.62178 0.49062 0.21258
 C92 C 0.61393 0.49249 0.31342
 H93 H 0.63785 0.49229 0.32001
 C94 C 0.59226 0.49005 0.33622
 H95 H 0.59973 0.48881 0.36038
 C96 C 0.57534 0.49474 0.27377
 H97 H 0.56883 0.49595 0.24942
 C98 C 0.55287 0.49291 0.29588
 H99 H 0.52915 0.49332 0.28835
 Zn100 Zn 0.63675 0.49499 0.25401
 N101 N 0.60521 0.49479 0.28288
 C102 C 0.65310 0.55345 0.27530
 N103 N 0.65848 0.53131 0.25469
 C104 C 0.68002 0.53429 0.23304
 C105 C 0.69745 0.56028 0.23163
 C106 C 0.67002 0.57995 0.27468
 C107 C 0.65146 0.43374 0.26574
 C108 C 0.67033 0.40811 0.27100
 C109 C 0.71287 0.44115 0.27858
 C110 C 0.69322 0.46620 0.27269
 N111 N 0.66334 0.46198 0.26540
 H112 H 0.63581 0.55054 0.29229
 H113 H 0.68371 0.51628 0.21690
 H114 H 0.71450 0.56227 0.21419
 H115 H 0.66576 0.59696 0.29172
 H116 H 0.62745 0.43116 0.26069
 H117 H 0.66066 0.38572 0.27033
 H118 H 0.73680 0.44465 0.28343
 H119 H 0.70201 0.48889 0.27339
 C120 C 0.56124 0.49012 0.32749
 C121 C 0.60217 0.48462 0.15112
 C122 C 0.70161 0.41175 0.27657
 C123 C 0.69240 0.58366 0.25236
 C124 C 0.90880 0.53029 0.78893
 H125 H 0.91728 0.54494 0.77076
 C126 C 0.91903 0.53357 0.81975
 H127 H 0.93574 0.55054 0.82454
 C128 C 0.87617 0.49094 0.80411
 H129 H 0.85886 0.47494 0.79823
 C130 C 0.88562 0.49345 0.83503
 H131 H 0.87579 0.47864 0.85233
 N132 N 0.88805 0.50894 0.78167
 C133 C 0.89379 0.49351 0.68220
 H134 H 0.86988 0.49618 0.67586
 C135 C 0.91453 0.48567 0.65982
 H136 H 0.90630 0.48328 0.63615
 C137 C 0.93320 0.49445 0.72085
 H138 H 0.94029 0.49746 0.74475
 C139 C 0.95481 0.48687 0.69911
 H140 H 0.97856 0.48469 0.70635
 Zn141 Zn 0.87254 0.50659 0.74018
 N142 N 0.90337 0.49792 0.71197
 C143 C 0.86224 0.56328 0.70700
 N144 N 0.85300 0.54440 0.73019
 C145 C 0.83016 0.55274 0.74881
 C146 C 0.81552 0.58107 0.74455
 C147 C 0.84834 0.59205 0.70205
 C148 C 0.85584 0.44605 0.74377
 C149 C 0.83711 0.42106 0.74143
 C150 C 0.79582 0.45507 0.72367
 C151 C 0.81533 0.47953 0.72665
 N152 N 0.84463 0.47463 0.73697
 H153 H 0.88078 0.55635 0.69276
 H154 H 0.82341 0.53729 0.76716
 H155 H 0.79695 0.58655 0.75935
 H156 H 0.85617 0.60704 0.68378
 H157 H 0.87947 0.44274 0.75102
 H158 H 0.84673 0.39852 0.74658
 H159 H 0.77256 0.45921 0.71540
 H160 H 0.80712 0.50229 0.72032
 C161 C 0.94556 0.48217 0.66820
 C162 C 0.90742 0.51483 0.84340
 C163 C 0.80652 0.42548 0.73160
 C164 C 0.82502 0.60149 0.72129
 C165 C 0.20094 0.40032 0.97573
 H166 H 0.20486 0.38728 0.95531
 C167 C 0.17656 0.42131 0.97581
 H168 H 0.16224 0.42425 0.95508
 C169 C 0.21583 0.41301 1.02692
 H170 H 0.23148 0.40981 1.04667
 C171 C 0.19183 0.43413 1.02803
 H172 H 0.18895 0.44693 1.04887
 N173 N 0.22001 0.39667 1.00104
 C174 C 0.31711 0.37857 0.99835
 H175 H 0.31796 0.35453 0.99395
 C176 C 0.34382 0.39492 0.99780
 H177 H 0.36493 0.38298 0.99335
 C178 C 0.28816 0.42374 1.00568
 H179 H 0.26647 0.43524 1.00773
 C180 C 0.31429 0.44100 1.00510
 H181 H 0.31241 0.46547 1.00725
 Zn182 Zn 0.25426 0.36975 1.00114
 N183 N 0.28999 0.39299 1.00279
 C184 C 0.26424 0.36107 0.93776
 N185 N 0.25519 0.34733 0.96445
 C186 C 0.24931 0.31714 0.96590
 C187 C 0.25291 0.29940 0.93995
 C188 C 0.26820 0.34413 0.91116
 C189 C 0.27726 0.32242 1.04167
 C190 C 0.27748 0.30192 1.06694
 C191 C 0.22786 0.32133 1.07976
 C192 C 0.22848 0.34134 1.05403
 N193 N 0.25327 0.34207 1.03595
 H194 H 0.26893 0.38512 0.93733
 H195 H 0.24208 0.30667 0.98730
 H196 H 0.24816 0.27535 0.94162
 H197 H 0.27519 0.35574 0.89027
 H198 H 0.29623 0.32236 1.02654
 H199 H 0.29699 0.28673 1.07130
 H200 H 0.20787 0.32116 1.09368
 H201 H 0.20894 0.35600 1.04844
 C202 C 0.34256 0.42658 1.00148
 C203 C 0.17171 0.43845 1.00240
 C204 C 0.25289 0.30162 1.08672
 C205 C 0.26281 0.31268 0.91221
 C206 C 0.77339 0.09417 0.96647
 H207 H 0.75437 0.09553 0.95005
 C208 C 0.79897 0.07624 0.96001
 H209 H 0.79943 0.06423 0.93844
 C210 C 0.79575 0.10746 1.01464
 H211 H 0.79425 0.11860 1.03646
 C212 C 0.82187 0.09051 1.00889
 H213 H 0.83950 0.08888 1.02693
 N214 N 0.77257 0.11001 0.99311
 C215 C 0.67722 0.13219 1.00202
 H216 H 0.67821 0.15677 1.00106
 C217 C 0.64928 0.11821 1.00280
 H218 H 0.62863 0.13216 1.00228
 C219 C 0.70313 0.08418 1.00362
 H220 H 0.72430 0.07118 1.00392
 C221 C 0.67557 0.06918 1.00460
 H222 H 0.67583 0.04457 1.00494
 Zn223 Zn 0.73946 0.13678 1.00115
 N224 N 0.70334 0.11512 1.00234
 C225 C 0.72315 0.15523 0.94113
 N226 N 0.73432 0.16612 0.96825
 C227 C 0.74057 0.19610 0.97088
 C228 C 0.73692 0.21603 0.94506
 C229 C 0.71914 0.17422 0.91487
 C230 C 0.72875 0.14425 1.06383
 C231 C 0.73582 0.15097 1.09447
 C232 C 0.77855 0.17952 1.07711
 C233 C 0.77058 0.17224 1.04654
 N234 N 0.74640 0.15429 1.04057
 H235 H 0.71722 0.13159 0.93986
 H236 H 0.74868 0.20458 0.99279
 H237 H 0.74270 0.23969 0.94731
 H238 H 0.71114 0.16417 0.89370
 H239 H 0.70998 0.12959 1.05900
 H240 H 0.72187 0.14193 1.11263
 H241 H 0.79863 0.19263 1.08136
 H242 H 0.78490 0.17921 1.02785
 C243 C 0.64819 0.08638 1.00426
 C244 C 0.82424 0.07532 0.98073
 C245 C 0.76130 0.16821 1.10159
 C246 C 0.72637 0.20514 0.91645
 C247 C 0.28507 0.59616 0.48414
 H248 H 0.26702 0.59039 0.46791
 C249 C 0.31273 0.57958 0.48499
 H250 H 0.31544 0.56075 0.46967
 C251 C 0.30350 0.62801 0.52353
 H252 H 0.30055 0.64745 0.53787
 C253 C 0.33115 0.61214 0.52525
 H254 H 0.34872 0.61931 0.54142
 N255 N 0.28087 0.61963 0.50361
 C256 C 0.18420 0.63887 0.51316
 H257 H 0.18596 0.66337 0.51324
 C258 C 0.15589 0.62582 0.51501
 H259 H 0.13586 0.64042 0.51666
 C260 C 0.20825 0.59030 0.50953
 H261 H 0.22872 0.57670 0.50696
 C262 C 0.18019 0.57617 0.51144
 H263 H 0.17941 0.55169 0.50982
 Zn264 Zn 0.24454 0.64372 0.50275
 N265 N 0.20949 0.62118 0.50957
 C266 C 0.21469 0.66037 0.44569
 N267 N 0.23994 0.66443 0.46400
 C268 C 0.26184 0.68386 0.45531
 C269 C 0.25793 0.70152 0.42805
 C270 C 0.21000 0.67735 0.41809
 C271 C 0.24818 0.65902 0.56418
 C272 C 0.25238 0.67720 0.58974
 C273 C 0.25231 0.72138 0.55504
 C274 C 0.24822 0.70227 0.53004
 N275 N 0.24707 0.67162 0.53504
 H276 H 0.19788 0.64427 0.45257
 H277 H 0.28192 0.68624 0.47007
 H278 H 0.27522 0.71746 0.42173
 H279 H 0.18929 0.67446 0.40442
 H280 H 0.24648 0.63463 0.56743
 H281 H 0.25291 0.66655 0.61267
 H282 H 0.25350 0.74574 0.55085
 H283 H 0.24622 0.71198 0.50679
 C284 C 0.15351 0.59421 0.51361
 C285 C 0.33617 0.58766 0.50591
 C286 C 0.25525 0.70878 0.58522
 C287 C 0.23170 0.69846 0.40920
 C288 C 0.69779 0.89102 0.45943
 H289 H 0.70498 0.87511 0.44236
 C290 C 0.67159 0.90898 0.45334
 H291 H 0.65907 0.90680 0.43151
 C292 C 0.70459 0.91246 0.50882
 H293 H 0.71736 0.91335 0.53061
 C294 C 0.67823 0.93067 0.50379
 H295 H 0.67148 0.94600 0.52162
 N296 N 0.71340 0.89253 0.48707
 C297 C 0.80841 0.86281 0.50232
 H298 H 0.80541 0.83906 0.49782
 C299 C 0.83771 0.87374 0.50467
 H300 H 0.85680 0.85792 0.50289
 C301 C 0.78731 0.91242 0.50717
 H302 H 0.76757 0.92750 0.50729
 C303 C 0.81654 0.92445 0.50962
 H304 H 0.81872 0.94876 0.51162
 Zn305 Zn 0.74574 0.86349 0.49561
 N306 N 0.78382 0.88200 0.50355
 C307 C 0.76710 0.85184 0.43670
 N308 N 0.75099 0.83981 0.46024
 C309 C 0.74020 0.81115 0.45915
 C310 C 0.74576 0.79327 0.43365
 C311 C 0.77329 0.83471 0.41081
 C312 C 0.75540 0.81289 0.53653
 C313 C 0.74985 0.79277 0.56110
 C314 C 0.70432 0.82198 0.57116
 C315 C 0.71064 0.84150 0.54609
 N316 N 0.73620 0.83704 0.52967
 H317 H 0.77555 0.87466 0.43830
 H318 H 0.72725 0.80214 0.47802
 H319 H 0.73686 0.77052 0.43308
 H320 H 0.78672 0.84477 0.39287
 H321 H 0.77490 0.80879 0.52267
 H322 H 0.76570 0.77393 0.56629
 H323 H 0.68388 0.82606 0.58381
 H324 H 0.69500 0.86011 0.53986
 C325 C 0.84224 0.90487 0.50807
 C326 C 0.66093 0.92842 0.47597
 C327 C 0.72442 0.79746 0.57918
 C328 C 0.76239 0.80497 0.40900
 C329 C 0.05275 0.29619 0.40595
 H330 H 0.06958 0.29082 0.38919
 C331 C 0.05784 0.32010 0.42580
 H332 H 0.07861 0.33266 0.42400
 C333 C 0.00509 0.28726 0.42788
 H334 H -0.01558 0.27447 0.42836
 C335 C 0.00919 0.31129 0.44816
 H336 H -0.00839 0.31633 0.46427
 N337 N 0.02652 0.28052 0.40689
 C338 C 0.01008 0.18791 0.37641
 H339 H 0.01186 0.19154 0.35174
 C340 C 0.00609 0.15854 0.38821
 H341 H 0.00412 0.14016 0.37210
 C342 C 0.01222 0.20715 0.42704
 H343 H 0.01525 0.22608 0.44215
 C344 C 0.00855 0.17788 0.44001
 H345 H 0.00831 0.17521 0.46496
 Zn346 Zn 0.02043 0.25021 0.37652
 N347 N 0.01280 0.21163 0.39569
 C348 C 0.07944 0.22959 0.37087
 N349 N 0.05692 0.24568 0.35505
 C350 C 0.06186 0.25987 0.32726
 C351 C 0.09089 0.25882 0.31480
 C352 C 0.10853 0.22792 0.35935
 C353 C -0.03068 0.28641 0.35501
 C354 C -0.05682 0.29355 0.33684
 C355 C -0.04442 0.25192 0.30393
 C356 C -0.01839 0.24562 0.32273
 N357 N -0.01255 0.26211 0.34842
 H358 H 0.07501 0.21896 0.39313
 H359 H 0.04368 0.27301 0.31542
 H360 H 0.09463 0.27123 0.29332
 H361 H 0.12630 0.21563 0.37282
 H362 H -0.02544 0.29997 0.37482
 H363 H -0.07145 0.31237 0.34321
 H364 H -0.04858 0.23813 0.28397
 H365 H -0.00299 0.22741 0.31679
 C366 C 0.00549 0.15295 0.42039
 C367 C 0.03572 0.32847 0.44679
 C368 C -0.06456 0.27566 0.31152
 C369 C 0.11478 0.24302 0.33129
 C370 C -0.00443 0.72274 0.06324
 H371 H -0.00953 0.74375 0.05032
 C372 C 0.00305 0.69631 0.04726
 H373 H 0.00419 0.69742 0.02223
 C374 C 0.00018 0.69546 0.11133
 H375 H -0.00205 0.69477 0.13614
 C376 C 0.00826 0.66890 0.09648
 H377 H 0.01298 0.64821 0.11024
 N378 N -0.00517 0.72198 0.09486
 C379 C -0.05073 0.80714 0.09662
 H380 H -0.06643 0.79860 0.11330
 C381 C -0.05737 0.83487 0.08103
 H382 H -0.07820 0.84719 0.08592
 C383 C -0.00406 0.80245 0.07127
 H384 H 0.01714 0.79010 0.06826
 C385 C -0.00980 0.83026 0.05514
 H386 H 0.00729 0.83885 0.03999
 Zn387 Zn -0.01433 0.75698 0.11870
 N388 N -0.02409 0.79182 0.09217
 C389 C 0.03499 0.79197 0.14071
 N390 N 0.02028 0.76542 0.14531
 C391 C 0.03127 0.74428 0.16682
 C392 C 0.05918 0.74827 0.18260
 C393 C 0.06283 0.79691 0.15594
 C394 C -0.07096 0.73256 0.12700
 C395 C -0.09894 0.72785 0.14026
 C396 C -0.08174 0.75516 0.18508
 C397 C -0.05378 0.75920 0.17085
 N398 N -0.04913 0.74821 0.14216
 H399 H 0.02575 0.80916 0.12450
 H400 H 0.01887 0.72388 0.17137
 H401 H 0.06778 0.73035 0.19841
 H402 H 0.07461 0.81773 0.15086
 H403 H -0.06694 0.72446 0.10403
 H404 H -0.11593 0.71570 0.12713
 H405 H -0.08478 0.76484 0.20754
 H406 H -0.03620 0.77198 0.18227
 C407 C -0.03658 0.84718 0.06049
 C408 C 0.00992 0.66905 0.06412
 C409 C -0.10518 0.73966 0.16945
 C410 C 0.07583 0.77459 0.17653
 C411 C 0.52649 0.19625 0.59445
 H412 H 0.54443 0.20418 0.60957
 C413 C 0.53193 0.17088 0.57650
 H414 H 0.55396 0.15935 0.57853
 C415 C 0.47650 0.20191 0.57291
 H416 H 0.45499 0.21438 0.57146
 C417 C 0.48095 0.17651 0.55451
 H418 H 0.46254 0.16985 0.53921
 N419 N 0.49893 0.21096 0.59281
 C420 C 0.45476 0.29477 0.59021
 H421 H 0.43860 0.28850 0.60739
 C422 C 0.44825 0.31978 0.57020
 H423 H 0.42724 0.33271 0.57262
 C424 C 0.50142 0.28559 0.56597
 H425 H 0.52212 0.27202 0.56447
 C426 C 0.49587 0.31056 0.54551
 H427 H 0.51244 0.31561 0.52829
 Zn428 Zn 0.49172 0.24597 0.61705
 N429 N 0.48142 0.27876 0.58840
 C430 C 0.54141 0.28215 0.63512
 N431 N 0.52755 0.25536 0.64093
 C432 C 0.53947 0.23492 0.66266
 C433 C 0.56740 0.24022 0.67794
 C434 C 0.56930 0.28824 0.64962
 C435 C 0.44466 0.21233 0.64449
 C436 C 0.41921 0.20800 0.66243
 C437 C 0.42483 0.25852 0.68192
 C438 C 0.45036 0.26184 0.66361
 N439 N 0.45920 0.23926 0.64463
 H440 H 0.53133 0.29865 0.61863
 H441 H 0.52790 0.21391 0.66721
 H442 H 0.57719 0.22292 0.69386
 H443 H 0.58049 0.30919 0.64366
 H444 H 0.45236 0.19427 0.63000
 H445 H 0.40751 0.18665 0.66118
 H446 H 0.41780 0.27733 0.69580
 H447 H 0.46255 0.28291 0.66372
 C448 C 0.46921 0.32850 0.54798
 C449 C 0.50900 0.16040 0.55639
 C450 C 0.40847 0.23141 0.68099
 C451 C 0.58298 0.26697 0.67087
 C452 C 0.49639 0.77200 0.93018
 H453 H 0.47706 0.75844 0.93589
 C454 C 0.50341 0.79729 0.94784
 H455 H 0.48932 0.80253 0.96711
 C456 C 0.53789 0.78121 0.89801
 H457 H 0.55127 0.77514 0.87850
 C458 C 0.54575 0.80652 0.91503
 H459 H 0.56508 0.81963 0.90820
 N460 N 0.51297 0.76506 0.90512
 C461 C 0.50405 0.69188 0.93044
 H462 H 0.51551 0.70969 0.94259
 C463 C 0.49956 0.66378 0.94564
 H464 H 0.50720 0.66045 0.96961
 C465 C 0.48031 0.67444 0.88444
 H466 H 0.47325 0.67837 0.86048
 C467 C 0.47499 0.64640 0.89877
 H468 H 0.46368 0.62910 0.88561
 Zn469 Zn 0.50038 0.73381 0.87794
 N470 N 0.49440 0.69664 0.90032
 C471 C 0.53349 0.74812 0.82484
 N472 N 0.53041 0.72723 0.84833
 C473 C 0.54897 0.70209 0.85135
 C474 C 0.57250 0.69779 0.83091
 C475 C 0.55679 0.74475 0.80387
 C476 C 0.44457 0.76701 0.86817
 C477 C 0.41610 0.77351 0.85420
 C478 C 0.42720 0.73724 0.81491
 C479 C 0.45561 0.73149 0.82965
 N480 N 0.46340 0.74566 0.85632
 H481 H 0.51817 0.76775 0.82279
 H482 H 0.54608 0.68574 0.87016
 H483 H 0.58761 0.67806 0.83421
 H484 H 0.55877 0.76178 0.78552
 H485 H 0.45111 0.77854 0.88894
 H486 H 0.40109 0.78990 0.86465
 H487 H 0.42125 0.72470 0.79451
 H488 H 0.47121 0.71512 0.82014
 C489 C 0.48484 0.64062 0.92960
 C490 C 0.52796 0.81550 0.93972
 C491 C 0.40675 0.75811 0.82765
 C492 C 0.57716 0.71962 0.80729
 C493 C -0.25044 0.64678 0.93979
 H494 H -0.24810 0.62264 0.93591
 C495 C -0.24853 0.66768 0.91496
 H496 H -0.24563 0.65933 0.89186
 C497 C -0.25727 0.68678 0.97476
 H498 H -0.25986 0.69420 0.99818
 C499 C -0.25607 0.70844 0.95050
 H500 H -0.25852 0.73240 0.95535
 N501 N -0.25473 0.65657 0.96898
 C502 C -0.23372 0.63459 1.06327
 H503 H -0.21479 0.61994 1.05758
 C504 C -0.23717 0.64275 1.09392
 H505 H -0.22015 0.63490 1.11123
 C506 C -0.27974 0.66065 1.04807
 H507 H -0.29690 0.66638 1.03020
 C508 C -0.28384 0.66992 1.07844
 H509 H -0.30405 0.68317 1.08318
 Zn510 Zn -0.25315 0.62651 1.00138
 N511 N -0.25486 0.64355 1.04105
 C512 C -0.18982 0.61784 1.00020
 N513 N -0.21676 0.60360 0.99735
 C514 C -0.21797 0.57376 0.98993
 C515 C -0.19131 0.55680 0.98602
 C516 C -0.16254 0.60167 0.99665
 C517 C -0.30788 0.60044 0.97674
 C518 C -0.33138 0.57959 0.97793
 C519 C -0.30873 0.55831 1.02581
 C520 C -0.28591 0.57945 1.02373
 N521 N -0.28575 0.59980 0.99944
 H522 H -0.18959 0.64182 1.00520
 H523 H -0.23960 0.56309 0.98656
 H524 H -0.19266 0.53306 0.98017
 H525 H -0.14142 0.61362 0.99859
 H526 H -0.30741 0.61715 0.95787
 H527 H -0.34884 0.58088 0.95976
 H528 H -0.30835 0.54232 1.04542
 H529 H -0.26805 0.57964 1.04153
 C530 C -0.26245 0.66063 1.10201
 C531 C -0.25122 0.69901 0.92026
 C532 C -0.33188 0.55805 1.00282
 C533 C -0.16317 0.57057 0.98981
 C534 C -0.22112 0.36783 0.55517
 H535 H -0.20485 0.38569 0.55312
 C536 C -0.21925 0.34864 0.57986
 H537 H -0.20140 0.35174 0.59715
 C538 C -0.26291 0.34200 0.53241
 H539 H -0.27947 0.33932 0.51367
 C540 C -0.26170 0.32026 0.55904
 H541 H -0.27810 0.30227 0.55947
 N542 N -0.24416 0.36435 0.53121
 C543 C -0.26572 0.36326 0.43823
 H544 H -0.28543 0.37830 0.43882
 C545 C -0.26291 0.34334 0.41376
 H546 H -0.28034 0.34405 0.39554
 C547 C -0.21920 0.34444 0.46139
 H548 H -0.20236 0.34498 0.48018
 C549 C -0.21549 0.32420 0.43749
 H550 H -0.19550 0.30931 0.43789
 Zn551 Zn -0.24660 0.38973 0.49502
 N552 N -0.24376 0.36374 0.46113
 C553 C -0.19380 0.41666 0.47273
 N554 N -0.21454 0.41730 0.49535
 C555 C -0.21252 0.43735 0.51871
 C556 C -0.18743 0.45602 0.52142
 C557 C -0.16852 0.43503 0.47440
 C558 C -0.30490 0.40844 0.51372
 C559 C -0.33272 0.42423 0.51064
 C560 C -0.31532 0.44899 0.46396
 C561 C -0.28785 0.43266 0.46799
 N562 N -0.28346 0.41237 0.49216
 H563 H -0.19652 0.40155 0.45360
 H564 H -0.22983 0.43792 0.53593
 H565 H -0.18536 0.47090 0.54091
 H566 H -0.15224 0.43394 0.45619
 H567 H -0.30058 0.39287 0.53328
 H568 H -0.34888 0.42018 0.52846
 H569 H -0.31850 0.46456 0.44411
 H570 H -0.27013 0.43567 0.45146
 C571 C -0.23738 0.32350 0.41318
 C572 C -0.24104 0.32331 0.58238
 C573 C -0.33862 0.44451 0.48500
 C574 C -0.16449 0.45411 0.49974
 C575 C 0.27314 -0.13608 0.05881
 H576 H 0.28824 -0.11713 0.05866
 C577 C 0.27653 -0.15755 0.08134
 H578 H 0.29440 -0.15504 0.09874
 C579 C 0.23288 -0.16213 0.03359
 H580 H 0.21692 -0.16451 0.01432
 C581 C 0.23563 -0.18626 0.05792
 H582 H 0.22033 -0.20516 0.05661
 N583 N 0.25013 -0.13855 0.03464
 C584 C 0.22260 -0.12849 -0.05781
 H585 H 0.20557 -0.11065 -0.05548
 C586 C 0.22216 -0.14625 -0.08420
 H587 H 0.20497 -0.14149 -0.10227
 C588 C 0.26643 -0.15553 -0.03746
 H589 H 0.28359 -0.15892 -0.01908
 C590 C 0.26690 -0.17364 -0.06330
 H591 H 0.28474 -0.19090 -0.06484
 Zn592 Zn 0.24673 -0.11031 0.00067
 N593 N 0.24478 -0.13325 -0.03537
 C594 C 0.30106 -0.08766 -0.02298
 N595 N 0.28121 -0.08561 0.00039
 C596 C 0.28595 -0.06647 0.02420
 C597 C 0.31246 -0.04981 0.02611
 C598 C 0.32791 -0.07156 -0.02190
 C599 C 0.18457 -0.09875 0.00883
 C600 C 0.15789 -0.08118 0.00977
 C601 C 0.18672 -0.03650 -0.00215
 C602 C 0.21284 -0.05502 -0.00287
 N603 N 0.21134 -0.08553 0.00271
 H604 H 0.29644 -0.10217 -0.04224
 H605 H 0.26945 -0.06481 0.04215
 H606 H 0.31644 -0.03539 0.04570
 H607 H 0.34357 -0.07374 -0.04058
 H608 H 0.18378 -0.12305 0.01281
 H609 H 0.13738 -0.09300 0.01483
 H610 H 0.18852 -0.01227 -0.00684
 H611 H 0.23422 -0.04499 -0.00841
 C612 C 0.24475 -0.16905 -0.08715
 C613 C 0.25631 -0.18428 0.08139
 C614 C 0.15860 -0.04939 0.00408
 C615 C 0.33423 -0.05310 0.00344
 C616 C 0.28383 1.15863 0.46269
 H617 H 0.30148 1.15099 0.47935
 C618 C 0.29097 1.17784 0.43765
 H619 H 0.31414 1.18499 0.43513
 C620 C 0.23185 1.15982 0.44650
 H621 H 0.20884 1.15291 0.44990
 C622 C 0.23784 1.17953 0.42171
 H623 H 0.21929 1.18770 0.40631
 N624 N 0.25459 1.15036 0.46685
 C625 C 0.23161 1.14414 0.56372
 H626 H 0.22665 1.12024 0.56642
 C627 C 0.22664 1.16372 0.58806
 H628 H 0.21869 1.15423 0.60960
 C629 C 0.24834 1.18493 0.53202
 H630 H 0.25637 1.19318 0.51001
 C631 C 0.24370 1.20530 0.55571
 H632 H 0.24874 1.22908 0.55183
 Zn633 Zn 0.24539 1.12786 0.50344
 N634 N 0.24240 1.15495 0.53647
 C635 C 0.29314 1.09899 0.53956
 N636 N 0.27720 1.09860 0.51203
 C637 C 0.28580 1.07988 0.48916
 C638 C 0.31205 1.06137 0.49312
 C639 C 0.31923 1.08064 0.54463
 C640 C 0.18278 1.13038 0.50051
 C641 C 0.15313 1.12023 0.50134
 C642 C 0.17268 1.06846 0.50028
 C643 C 0.20221 1.07970 0.49950
 N644 N 0.20662 1.11023 0.49962
 H645 H 0.28632 1.11432 0.55731
 H646 H 0.27289 1.08018 0.46738
 H647 H 0.31864 1.04692 0.47448
 H648 H 0.33202 1.08181 0.56642
 H649 H 0.18691 1.15450 0.50147
 H650 H 0.13458 1.13677 0.50251
 H651 H 0.16982 1.04411 0.50105
 H652 H 0.22155 1.06406 0.49964
 C653 C 0.23256 1.19489 0.58411
 C654 C 0.26758 1.18894 0.41723
 C655 C 0.14765 1.08898 0.50145
 C656 C 0.32952 1.06221 0.52097
 C657 C 0.17176 0.45526 0.25717
 H658 H 0.18542 0.47529 0.25757
 C659 C 0.18616 0.42658 0.25640
 H660 H 0.21069 0.42535 0.25649
 C661 C 0.12341 0.43299 0.25389
 H662 H 0.09904 0.43556 0.25145
 C663 C 0.13680 0.40399 0.25308
 H664 H 0.12239 0.38449 0.25090
 N665 N 0.14087 0.45798 0.25608
 C666 C 0.14766 0.54853 0.22642
 H667 H 0.13128 0.54574 0.20758
 C668 C 0.16682 0.57339 0.22574
 H669 H 0.16527 0.58895 0.20586
 C670 C 0.16952 0.53136 0.27489
 H671 H 0.17009 0.51510 0.29422
 C672 C 0.18909 0.55586 0.27515
 H673 H 0.20480 0.55824 0.29473
 Zn674 Zn 0.12046 0.49667 0.25295
 N675 N 0.14901 0.52836 0.25096
 C676 C 0.10018 0.52593 0.30721
 N677 N 0.09509 0.50258 0.28771
 C678 C 0.07175 0.48342 0.29239
 C679 C 0.05321 0.48674 0.31778
 C680 C 0.08237 0.52985 0.33314
 C681 C 0.10972 0.48586 0.19003
 C682 C 0.09303 0.48406 0.16205
 C683 C 0.04953 0.50546 0.18722
 C684 C 0.06707 0.50668 0.21470
 N685 N 0.09657 0.49690 0.21561
 H686 H 0.11795 0.54175 0.30278
 H687 H 0.06713 0.46574 0.27622
 H688 H 0.03488 0.47111 0.32113
 H689 H 0.08688 0.54862 0.34816
 H690 H 0.13327 0.47819 0.19146
 H691 H 0.10465 0.47523 0.14245
 H692 H 0.02608 0.51356 0.18721
 H693 H 0.05709 0.51553 0.23526
 C694 C 0.18742 0.57767 0.25076
 C695 C 0.16853 0.40041 0.25423
 C696 C 0.06227 0.49399 0.16021
 C697 C 0.05873 0.50980 0.33887
 C698 C -0.14118 1.04294 0.27725
 H699 H -0.12407 1.03880 0.29550
 C700 C -0.16048 1.06854 0.27810
 H701 H -0.15834 1.08366 0.29737
 C702 C -0.16451 1.02861 0.22976
 H703 H -0.16538 1.01332 0.21056
 C704 C -0.18452 1.05370 0.22990
 H705 H -0.20093 1.05756 0.21085
 N706 N -0.14302 1.02401 0.25293
 C707 C -0.11331 0.93045 0.23652
 H708 H -0.08906 0.93304 0.23598
 C709 C -0.12527 0.90158 0.23365
 H710 H -0.11006 0.88222 0.23065
 C711 C -0.16242 0.95191 0.24332
 H712 H -0.17672 0.97126 0.24853
 C713 C -0.17541 0.92343 0.24029
 H714 H -0.19960 0.92143 0.24316
 Zn715 Zn -0.11329 0.99248 0.24954
 N716 N -0.13183 0.95491 0.24146
 C717 C -0.09608 0.96445 0.30718
 N718 N -0.08994 0.98754 0.28684
 C719 C -0.06631 1.00624 0.29206
 C720 C -0.04758 1.00191 0.31860
 C721 C -0.07803 0.95942 0.33413
 C722 C -0.06004 0.98733 0.21546
 C723 C -0.04038 0.99387 0.19160
 C724 C -0.07537 1.03387 0.17277
 C725 C -0.09426 1.02659 0.19709
 N726 N -0.08685 1.00305 0.21729
 H727 H -0.11491 0.94978 0.30241
 H728 H -0.06185 1.02432 0.27541
 H729 H -0.02881 1.01698 0.32243
 H730 H -0.08307 0.94060 0.34967
 H731 H -0.05377 0.96973 0.23263
 H732 H -0.01951 0.98046 0.19029
 H733 H -0.08256 1.05250 0.15719
 H734 H -0.11499 1.03973 0.19947
 C735 C -0.15661 0.89778 0.23568
 C736 C -0.18193 1.07452 0.25372
 C737 C -0.04823 1.01683 0.16921
 C738 C -0.05345 0.97842 0.34012
 C739 C 0.32880 0.54685 -0.24657
 H740 H 0.31303 0.52859 -0.24908
 C741 C 0.31759 0.57683 -0.24563
 H742 H 0.29329 0.58097 -0.24743
 C743 C 0.37946 0.56367 -0.24396
 H744 H 0.40352 0.55865 -0.24428
 C745 C 0.36927 0.59391 -0.24309
 H746 H 0.38572 0.61182 -0.24231
 N747 N 0.35929 0.54080 -0.24583
 C748 C 0.33862 0.45347 -0.27799
 H749 H 0.35168 0.45750 -0.29840
 C750 C 0.31925 0.43058 -0.27735
 H751 H 0.31692 0.41706 -0.29776
 C752 C 0.32444 0.47015 -0.22828
 H753 H 0.32736 0.48492 -0.20884
 C754 C 0.30249 0.44536 -0.22663
 H755 H 0.28956 0.44269 -0.20581
 Zn756 Zn 0.37450 0.50044 -0.25091
 N757 N 0.34209 0.47270 -0.25181
 C758 C 0.39674 0.46578 -0.19748
 N759 N 0.40306 0.48844 -0.21834
 C760 C 0.43052 0.50194 -0.21739
 C761 C 0.45215 0.49394 -0.19401
 C762 C 0.41771 0.45709 -0.17366
 C763 C 0.39042 0.52168 -0.31088
 C764 C 0.40343 0.51917 -0.33987
 C765 C 0.42494 0.47014 -0.32292
 C766 C 0.41173 0.47367 -0.29427
 N767 N 0.39450 0.49892 -0.28897
 H768 H 0.37553 0.45416 -0.19917
 H769 H 0.43590 0.51868 -0.23505
 H770 H 0.47368 0.50535 -0.19343
 H771 H 0.41194 0.43900 -0.15756
 H772 H 0.37626 0.54136 -0.30631
 H773 H 0.39892 0.53702 -0.35732
 H774 H 0.43795 0.44950 -0.32703
 H775 H 0.41445 0.45587 -0.27648
 C776 C 0.30095 0.42502 -0.24934
 C777 C 0.33803 0.60085 -0.24406
 C778 C 0.42070 0.49291 -0.34622
 C779 C 0.44568 0.47169 -0.17138
 C780 C 0.67587 -0.01700 -0.23906
 H781 H 0.68524 0.00550 -0.23928
 C782 C 0.69454 -0.04162 -0.23642
 H783 H 0.71889 -0.03871 -0.23493
 C784 C 0.63169 -0.04727 -0.23882
 H785 H 0.60725 -0.04930 -0.23963
 C786 C 0.65119 -0.07485 -0.23626
 H787 H 0.63986 -0.09628 -0.23416
 N788 N 0.64347 -0.02052 -0.24124
 C789 C 0.61793 0.07237 -0.23013
 H790 H 0.59839 0.06690 -0.21675
 C791 C 0.62840 0.10195 -0.23019
 H792 H 0.61703 0.11857 -0.21622
 C793 C 0.65508 0.05777 -0.26562
 H794 H 0.66477 0.04056 -0.28003
 C795 C 0.66670 0.08717 -0.26604
 H796 H 0.68543 0.09182 -0.28087
 Zn797 Zn 0.61432 0.01170 -0.24642
 N798 N 0.63157 0.05079 -0.24724
 C799 C 0.60218 0.01239 -0.18372
 N800 N 0.58882 0.00899 -0.21219
 C801 C 0.55851 0.00421 -0.21567
 C802 C 0.54020 0.00390 -0.18988
 C803 C 0.58475 0.01228 -0.15734
 C804 C 0.59522 -0.01616 -0.30266
 C805 C 0.57591 -0.01954 -0.32864
 C806 C 0.54886 0.02647 -0.31527
 C807 C 0.56865 0.02897 -0.28968
 N808 N 0.59087 0.00750 -0.28348
 H809 H 0.62644 0.01558 -0.18164
 H810 H 0.54843 0.00063 -0.23837
 H811 H 0.51608 0.00018 -0.19298
 H812 H 0.59616 0.01455 -0.13499
 H813 H 0.61351 -0.03259 -0.29784
 H814 H 0.57992 -0.03863 -0.34329
 H815 H 0.53107 0.04368 -0.31955
 H816 H 0.56590 0.04772 -0.27423
 C817 C 0.65334 0.10979 -0.24791
 C818 C 0.68175 -0.07263 -0.23613
 C819 C 0.55207 0.00186 -0.33500
 C820 C 0.55317 0.00852 -0.16034
 C821 C 0.04441 0.24842 0.82970
 H822 H 0.03294 0.22694 0.82936
 C823 C 0.06978 0.25281 0.81145
 H824 H 0.07750 0.23433 0.79748
 C825 C 0.04836 0.29796 0.84925
 H826 H 0.03994 0.31568 0.86375
 C827 C 0.07364 0.30335 0.83137
 H828 H 0.08457 0.32511 0.83277
 N829 N 0.03484 0.27049 0.84890
 C830 C -0.04564 0.22550 0.85410
 H831 H -0.03545 0.20825 0.86970
 C832 C -0.07259 0.21935 0.83784
 H833 H -0.08298 0.19752 0.84159
 C834 C -0.04453 0.27455 0.83012
 H835 H -0.03351 0.29616 0.82747
 C836 C -0.07163 0.26938 0.81338
 H837 H -0.08116 0.28741 0.79824
 Zn838 Zn 0.00230 0.26227 0.87587
 N839 N -0.03265 0.25311 0.85080
 C840 C -0.03381 0.31073 0.89884
 N841 N -0.00599 0.29657 0.90066
 C842 C 0.01642 0.30661 0.92001
 C843 C 0.01193 0.33301 0.93689
 C844 C -0.03931 0.33706 0.91530
 C845 C 0.03981 0.21337 0.90146
 C846 C 0.04588 0.18680 0.91933
 C847 C -0.00288 0.19315 0.94263
 C848 C -0.00798 0.21971 0.92431
 N849 N 0.01274 0.22863 0.90337
 H850 H -0.05175 0.30196 0.88428
 H851 H 0.03820 0.29464 0.92153
 H852 H 0.03065 0.34106 0.95094
 H853 H -0.06138 0.34846 0.91272
 H854 H 0.05649 0.22124 0.88551
 H855 H 0.06708 0.17432 0.91650
 H856 H -0.02056 0.18585 0.95772
 H857 H -0.02917 0.23250 0.92574
 C858 C -0.08636 0.24156 0.81763
 C859 C 0.08515 0.28049 0.81262
 C860 C 0.02415 0.17587 0.93968
 C861 C -0.01619 0.34896 0.93417
 C862 C 0.47984 0.22832 0.18180
 H863 H 0.49525 0.21021 0.19023
 C864 C 0.45446 0.23593 0.19903
 H865 H 0.45070 0.22319 0.22030
 C866 C 0.46732 0.26785 0.14490
 H867 H 0.47232 0.28058 0.12406
 C868 C 0.44185 0.27626 0.16140
 H869 H 0.42751 0.29520 0.15268
 N870 N 0.48539 0.24372 0.15479
 C871 C 0.57192 0.20001 0.15496
 H872 H 0.56645 0.18397 0.13723
 C873 C 0.59832 0.19542 0.17340
 H874 H 0.61283 0.17568 0.16968
 C875 C 0.56030 0.24562 0.18049
 H876 H 0.54536 0.26525 0.18291
 C877 C 0.58666 0.24196 0.19944
 H878 H 0.59140 0.25887 0.21651
 Zn879 Zn 0.51934 0.23142 0.13101
 N880 N 0.55368 0.22497 0.15851
 C881 C 0.50783 0.27055 0.07733
 N882 N 0.52820 0.26247 0.10075
 C883 C 0.55488 0.27717 0.10401
 C884 C 0.56105 0.30207 0.08465
 C885 C 0.51303 0.29556 0.05744
 C886 C 0.50235 0.17047 0.13001
 C887 C 0.49807 0.14172 0.11813
 C888 C 0.51167 0.16123 0.06775
 C889 C 0.51558 0.18989 0.08067
 N890 N 0.51107 0.19393 0.11141
 H891 H 0.48697 0.25823 0.07476
 H892 H 0.57117 0.27023 0.12223
 H893 H 0.58202 0.31400 0.08848
 H894 H 0.49584 0.30204 0.03989
 H895 H 0.49948 0.17377 0.15440
 H896 H 0.49154 0.12339 0.13367
 H897 H 0.51583 0.15861 0.04342
 H898 H 0.52303 0.20862 0.06629
 C899 C 0.60639 0.21674 0.19562
 C900 C 0.43472 0.25993 0.18850
 C901 C 0.50304 0.13655 0.08676
 C902 C 0.53974 0.31218 0.06150
 C903 C -0.05056 0.74738 0.68818
 H904 H -0.03109 0.74823 0.70399
 C905 C -0.07875 0.74905 0.69925
 H906 H -0.08131 0.75156 0.72388
 C907 C -0.06935 0.74202 0.63625
 H908 H -0.06579 0.73781 0.61210
 C909 C -0.10056 0.74435 0.64716
 H910 H -0.11910 0.74308 0.63012
 N911 N -0.04618 0.74412 0.65546
 C912 C 0.04187 0.70878 0.66935
 H913 H 0.03723 0.69114 0.65309
 C914 C 0.06710 0.70538 0.68967
 H915 H 0.08141 0.68503 0.68892
 C916 C 0.02989 0.75709 0.68930
 H917 H 0.01550 0.77742 0.68866
 C918 C 0.05531 0.75486 0.70968
 H919 H 0.05991 0.77332 0.72507
 Zn920 Zn -0.00728 0.73991 0.63754
 N921 N 0.02408 0.73455 0.66907
 C922 C 0.02654 0.79060 0.61821
 N923 N 0.00040 0.77551 0.61256
 C924 C -0.02101 0.78706 0.59162
 C925 C -0.01764 0.81577 0.57739
 C926 C 0.03075 0.81934 0.60469
 C927 C -0.02006 0.67994 0.62830
 C928 C -0.02065 0.65188 0.61430
 C929 C 0.00299 0.67425 0.56963
 C930 C 0.00296 0.70227 0.58459
 N931 N -0.00816 0.70438 0.61357
 H932 H 0.04387 0.78088 0.63403
 H933 H -0.04139 0.77472 0.58679
 H934 H -0.03583 0.82509 0.56227
 H935 H 0.05113 0.83151 0.61065
 H936 H -0.02861 0.68220 0.65136
 H937 H -0.02991 0.63270 0.62685
 H938 H 0.01241 0.67288 0.54687
 H939 H 0.01239 0.72207 0.57337
 C940 C 0.07466 0.72894 0.70946
 C941 C -0.10567 0.74771 0.67748
 C942 C -0.00874 0.64850 0.58480
 C943 C 0.00821 0.83266 0.58463
 C944 C 0.53079 0.75207 0.32215
 H945 H 0.51096 0.74324 0.31042
 C946 C 0.55710 0.75753 0.30544
 H947 H 0.55702 0.75330 0.28086
 C948 C 0.55512 0.76818 0.36834
 H949 H 0.55468 0.77184 0.39290
 C950 C 0.58148 0.77435 0.35259
 H951 H 0.60088 0.78300 0.36533
 N952 N 0.53028 0.75746 0.35310
 C953 C 0.44690 0.71385 0.35609
 H954 H 0.45607 0.69743 0.37317
 C955 C 0.42000 0.70748 0.33986
 H956 H 0.40879 0.68634 0.34502
 C957 C 0.44996 0.76112 0.32889
 H958 H 0.46169 0.78214 0.32487
 C959 C 0.42294 0.75562 0.31201
 H960 H 0.41406 0.77286 0.29552
 Zn961 Zn 0.49560 0.74938 0.37744
 N962 N 0.46092 0.74073 0.35117
 C963 C 0.46312 0.80270 0.39596
 N964 N 0.48726 0.78353 0.40288
 C965 C 0.50583 0.78814 0.42813
 C966 C 0.50150 0.81362 0.44642
 C967 C 0.45780 0.82824 0.41375
 C968 C 0.52924 0.69681 0.39879
 C969 C 0.53486 0.67003 0.41644
 C970 C 0.49025 0.68127 0.44557
 C971 C 0.48560 0.70803 0.42746
 N972 N 0.50463 0.71493 0.40417
 H973 H 0.44800 0.79850 0.37649
 H974 H 0.52402 0.77191 0.43429
 H975 H 0.51664 0.81669 0.46626
 H976 H 0.43870 0.84343 0.40748
 H977 H 0.54408 0.70262 0.38017
 H978 H 0.55418 0.65553 0.41128
 H979 H 0.47461 0.67620 0.46371
 H980 H 0.46629 0.72296 0.43141
 C981 C 0.40727 0.72863 0.31790
 C982 C 0.58290 0.76888 0.32083
 C983 C 0.51487 0.66151 0.43966
 C984 C 0.47742 0.83437 0.43896
 B985 B -0.01956 0.02848 1.03178
 B986 B -0.03951 0.03297 0.99824
 B987 B -0.00550 0.04874 1.00242
 B988 B 0.01762 0.02501 1.02439
 B989 B -0.00307 -0.00637 1.03340
 B990 B -0.03890 -0.00090 1.01740
 B991 B 0.00112 -0.00234 0.97047
 B992 B 0.02095 -0.00688 1.00406
 B993 B -0.01309 -0.02261 0.99979
 B994 B -0.03615 0.00108 0.97789
 B995 B -0.01554 0.03243 0.96878
 B996 B 0.02027 0.02714 0.98497
 B997 B 0.47358 0.50689 0.51870
 B998 B 0.45583 0.50739 0.48353
 B999 B 0.48581 0.52954 0.48990
 B1000 B 0.51114 0.51064 0.51405
 B1001 B 0.49628 0.47586 0.52225
 B1002 B 0.46160 0.47418 0.50334
 B1003 B 0.50493 0.48011 0.45999
 B1004 B 0.52228 0.47981 0.49507
 B1005 B 0.49252 0.45767 0.48861
 B1006 B 0.46725 0.47644 0.46433
 B1007 B 0.48198 0.51133 0.45617
 B1008 B 0.51668 0.51294 0.47501
 B1009 B 0.50480 0.98189 0.52955
 B1010 B 0.52960 0.98562 0.50117
 B1011 B 0.50100 0.96134 0.49768
 B1012 B 0.46985 0.97663 0.51379
 B1013 B 0.47982 1.01150 0.52694
 B1014 B 0.51726 1.01661 0.51935
 B1015 B 0.48595 1.01234 0.46419
 B1016 B 0.46119 1.00864 0.49260
 B1017 B 0.48975 1.03290 0.49607
 B1018 B 0.52092 1.01765 0.48000
 B1019 B 0.51097 0.98278 0.46679
 B1020 B 0.47349 0.97762 0.47447
 B1021 B 0.02515 0.49739 1.02021
 B1022 B 0.03895 0.49696 0.98442
 B1023 B 0.00825 0.47705 0.99274
 B1024 B -0.01312 0.49685 1.01738
 B1025 B 0.00521 0.53003 1.02388
 B1026 B 0.03802 0.52971 1.00367
 B1027 B -0.01013 0.52875 0.96213
 B1028 B -0.02384 0.52924 0.99779
 B1029 B 0.00693 0.54916 0.98961
 B1030 B 0.02820 0.52934 0.96493
 B1031 B 0.00983 0.49619 0.95835
 B1032 B -0.02275 0.49633 0.97883
 B1033 B 0.02472 0.50821 0.47851
 B1034 B 0.04238 0.50416 0.51349
 B1035 B 0.01149 0.52734 0.50872
 B1036 B -0.01306 0.51165 0.48327
 B1037 B 0.00310 0.47776 0.47283
 B1038 B 0.03781 0.47355 0.49146
 B1039 B -0.00561 0.47463 0.53514
 B1040 B -0.02304 0.47872 0.50019
 B1041 B 0.00751 0.45559 0.50524
 B1042 B 0.03222 0.47106 0.53048
 B1043 B 0.01625 0.50483 0.54100
 B1044 B -0.01859 0.50922 0.52230
 B1045 B 0.52188 -0.00362 -0.02093
 B1046 B 0.54150 -0.00827 0.01290
 B1047 B 0.50976 0.01384 0.01067
 B1048 B 0.48448 -0.00172 -0.01402
 B1049 B 0.50105 -0.03455 -0.02675
 B1050 B 0.53680 -0.03819 -0.01015
 B1051 B 0.49590 -0.04040 0.03589
 B1052 B 0.47651 -0.03557 0.00213
 B1053 B 0.50794 -0.05776 0.00452
 B1054 B 0.53339 -0.04237 0.02911
 B1055 B 0.51696 -0.00962 0.04189
 B1056 B 0.48120 -0.00577 0.02526
 B1057 B 0.49490 0.46058 -0.03482
 B1058 B 0.48189 0.45934 0.00115
 B1059 B 0.51344 0.43961 -0.00694
 B1060 B 0.53323 0.46000 -0.03283
 B1061 B 0.51304 0.49334 -0.04025
 B1062 B 0.48083 0.49255 -0.01933
 B1063 B 0.52959 0.49070 0.02133
 B1064 B 0.54265 0.49201 -0.01472
 B1065 B 0.51108 0.51162 -0.00656
 B1066 B 0.49128 0.49127 0.01923
 B1067 B 0.51143 0.45799 0.02676
 B1068 B 0.54379 0.45872 0.00567
 B1069 B -0.02028 0.98008 0.48030
 B1070 B -0.03903 0.98653 0.51275
 B1071 B -0.00915 0.96191 0.51362
 B1072 B 0.01708 0.97513 0.48945
 B1073 B 0.00317 1.00890 0.47366
 B1074 B -0.03206 1.01575 0.48804
 B1075 B 0.00951 1.01486 0.53629
 B1076 B 0.02827 1.00835 0.50385
 B1077 B -0.00152 1.03294 0.50296
 B1078 B -0.02783 1.01975 0.52716
 B1079 B -0.01388 0.98589 0.54305
 B1080 B 0.02138 0.97922 0.52859
 B1081 B 0.78553 0.23558 0.22269
 B1082 B 0.78721 0.21608 0.25663
 B1083 B 0.80666 0.24815 0.25226
 B1084 B 0.78590 0.27319 0.22947
 B1085 B 0.75272 0.25582 0.21988
 B1086 B 0.75377 0.22014 0.23670
 B1087 B 0.75595 0.26105 0.28281
 B1088 B 0.75427 0.28049 0.24889
 B1089 B 0.73480 0.24860 0.25316
 B1090 B 0.75546 0.22353 0.27610
 B1091 B 0.78882 0.24074 0.28555
 B1092 B 0.78759 0.27658 0.26886
 B1093 B 0.71881 0.76599 0.71933
 B1094 B 0.72101 0.78899 0.74949
 B1095 B 0.70033 0.75749 0.75149
 B1096 B 0.71806 0.72951 0.73262
 B1097 B 0.75067 0.74438 0.71898
 B1098 B 0.75224 0.78168 0.72930
 B1099 B 0.75351 0.74612 0.78228
 B1100 B 0.75138 0.72316 0.75208
 B1101 B 0.77215 0.75445 0.74997
 B1102 B 0.75443 0.78254 0.76899
 B1103 B 0.72150 0.76780 0.78248
 B1104 B 0.72019 0.73055 0.77224
 B1105 B 0.26369 0.27353 0.77414
 B1106 B 0.26007 0.28971 0.73857
 B1107 B 0.28254 0.25870 0.74485
 B1108 B 0.26637 0.23537 0.77103
 B1109 B 0.23285 0.25277 0.78054
 B1110 B 0.22937 0.28686 0.76056
 B1111 B 0.22963 0.24155 0.71873
 B1112 B 0.23322 0.22538 0.75428
 B1113 B 0.21083 0.25639 0.74796
 B1114 B 0.22695 0.27969 0.72180
 B1115 B 0.26048 0.26231 0.71229
 B1116 B 0.26392 0.22817 0.73228
 B1117 B 0.22666 0.73181 0.27035
 B1118 B 0.22795 0.71534 0.23596
 B1119 B 0.20751 0.74758 0.23969
 B1120 B 0.22597 0.76999 0.26481
 B1121 B 0.25883 0.75068 0.27646
 B1122 B 0.25974 0.71645 0.25867
 B1123 B 0.26036 0.76157 0.21407
 B1124 B 0.25902 0.77792 0.24847
 B1125 B 0.27945 0.74573 0.24476
 B1126 B 0.26104 0.72340 0.21949
 B1127 B 0.22808 0.74262 0.20791
 B1128 B 0.22727 0.77693 0.22570
 B1129 B 0.25820 0.74116 0.72360
 B1130 B 0.25497 0.72220 0.75749
 B1131 B 0.27910 0.75113 0.75463
 B1132 B 0.26345 0.77821 0.73023
 B1133 B 0.22855 0.76583 0.71836
 B1134 B 0.22365 0.73067 0.73512
 B1135 B 0.22864 0.77173 0.78123
 B1136 B 0.23184 0.79058 0.74718
 B1137 B 0.20763 0.76183 0.75016
 B1138 B 0.22323 0.73458 0.77444
 B1139 B 0.25803 0.74686 0.78631
 B1140 B 0.26305 0.78218 0.76933
 B1141 B 0.25694 0.26411 0.22758
 B1142 B 0.26138 0.28586 0.25858
 B1143 B 0.23859 0.25573 0.26003
 B1144 B 0.25401 0.22747 0.23965
 B1145 B 0.28743 0.24045 0.22579
 B1146 B 0.29161 0.27704 0.23736
 B1147 B 0.29173 0.23985 0.28912
 B1148 B 0.28721 0.21816 0.25812
 B1149 B 0.31014 0.24788 0.25670
 B1150 B 0.29485 0.27639 0.27698
 B1151 B 0.26138 0.26360 0.29076
 B1152 B 0.25713 0.22693 0.27924
 B1153 B 0.75602 0.77159 0.27040
 B1154 B 0.75269 0.78722 0.23451
 B1155 B 0.77459 0.75576 0.24136
 B1156 B 0.75792 0.73337 0.26811
 B1157 B 0.72483 0.75164 0.27737
 B1158 B 0.72197 0.78537 0.25660
 B1159 B 0.72125 0.73910 0.21579
 B1160 B 0.72452 0.72371 0.25164
 B1161 B 0.70273 0.75502 0.24476
 B1162 B 0.71923 0.77736 0.21810
 B1163 B 0.75228 0.75927 0.20871
 B1164 B 0.75548 0.72558 0.22971
 B1165 B 0.73164 0.24272 0.77550
 B1166 B 0.73479 0.22532 0.74157
 B1167 B 0.71172 0.25613 0.74396
 B1168 B 0.72797 0.28065 0.76862
 B1169 B 0.76206 0.26434 0.78120
 B1170 B 0.76589 0.22970 0.76454
 B1171 B 0.76364 0.27361 0.71850
 B1172 B 0.76045 0.29085 0.75233
 B1173 B 0.78342 0.26021 0.74989
 B1174 B 0.76736 0.23576 0.72531
 B1175 B 0.73325 0.25181 0.71271
 B1176 B 0.72931 0.28659 0.72933
 C1177 C 0.44474 0.99150 0.36253
 C1178 C 0.45531 1.01494 0.37843
 C1179 C 0.47389 1.00794 0.40676
 C1180 C 0.47496 1.02608 0.43117
 H1181 H 0.44884 1.03823 0.37191
 H1182 H 0.48397 0.98519 0.40899
 H1183 H 0.44991 0.96853 0.37143
 H1184 H 0.46411 1.04848 0.42969
 C1185 C -0.08308 0.51563 0.87482
 C1186 C -0.06099 0.53446 0.88767
 C1187 C -0.05021 0.52806 0.91803
 C1188 C -0.02731 0.54282 0.93177
 H1189 H -0.05091 0.55241 0.87411
 H1190 H -0.05956 0.50863 0.93002
 H1191 H -0.09296 0.49909 0.89047
 H1192 H -0.01748 0.56221 0.92012
 C1193 C 0.07445 -0.00467 0.88775
 C1194 C 0.04692 -0.01307 0.89633
 C1195 C 0.03960 -0.01247 0.92926
 C1196 C 0.01128 -0.01587 0.93878
 H1197 H 0.02936 -0.01805 0.87918
 H1198 H 0.05706 -0.00491 0.94532
 H1199 H 0.09188 -0.00097 0.90550
 H1200 H -0.00637 -0.02275 0.92255
 C1201 C 0.53731 0.48963 0.35081
 C1202 C 0.54089 0.47546 0.37864
 C1203 C 0.51846 0.48028 0.40273
 C1204 C 0.52234 0.46759 0.43123
 H1205 H 0.56126 0.46186 0.38437
 H1206 H 0.50018 0.49685 0.39786
 H1207 H 0.51614 0.50189 0.34496
 H1208 H 0.54068 0.45106 0.43591
 C1209 C 0.59125 0.47872 0.11906
 C1210 C 0.57530 0.49837 0.10020
 C1211 C 0.56380 0.48782 0.07003
 C1212 C 0.54604 0.50510 0.05048
 H1213 H 0.56991 0.52131 0.10702
 H1214 H 0.56873 0.46433 0.06454
 H1215 H 0.59649 0.45626 0.11055
 H1216 H 0.54059 0.52848 0.05586
 C1217 C 0.02070 1.03271 0.64799
 C1218 C 0.03036 1.04037 0.61982
 C1219 C 0.01216 1.03322 0.59192
 C1220 C 0.02520 1.03121 0.56449
 H1221 H 0.05328 1.04819 0.61705
 H1222 H -0.01106 1.02614 0.59455
 H1223 H -0.00149 1.02278 0.64997
 H1224 H 0.04875 1.03724 0.56256
 C1225 C -0.03108 0.47655 0.64490
 C1226 C -0.03686 0.46377 0.61756
 C1227 C -0.01469 0.46587 0.59279
 C1228 C -0.02248 0.45965 0.56342
 H1229 H -0.05889 0.45442 0.61231
 H1230 H 0.00659 0.47688 0.59791
 H1231 H -0.00847 0.48477 0.64990
 H1232 H -0.04399 0.44910 0.55838
 C1233 C 0.47274 -0.04053 0.14467
 C1234 C 0.46820 -0.05556 0.11844
 C1235 C 0.48969 -0.05217 0.09330
 C1236 C 0.48103 -0.05749 0.06403
 H1237 H 0.44697 -0.06656 0.11350
 H1238 H 0.51064 -0.04044 0.09807
 H1239 H 0.49391 -0.02869 0.14787
 H1240 H 0.45975 -0.06863 0.05937
 C1241 C 0.36984 0.44531 -0.00044
 C1242 C 0.39774 0.43441 0.00704
 C1243 C 0.42439 0.45316 0.00235
 C1244 C 0.45226 0.44181 0.00910
 H1245 H 0.40115 0.41133 0.01619
 H1246 H 0.42122 0.47586 -0.00792
 H1247 H 0.36679 0.46896 -0.00805
 H1248 H 0.45508 0.41909 0.01938
 C1249 C -0.12599 0.91535 0.50759
 C1250 C -0.11677 0.94334 0.51401
 C1251 C -0.08443 0.95049 0.51079
 C1252 C -0.07338 0.97760 0.51760
 H1253 H -0.13256 0.96078 0.52123
 H1254 H -0.06968 0.93319 0.50175
 H1255 H -0.10888 0.89865 0.50127
 H1256 H -0.08849 0.99492 0.52637
 C1257 C -0.14916 0.05926 0.97325
 C1258 C -0.12099 0.06494 0.98739
 C1259 C -0.09530 0.04669 0.98325
 C1260 C -0.06897 0.05391 0.99708
 H1261 H -0.11873 0.08442 1.00203
 H1262 H -0.09702 0.02625 0.96991
 H1263 H -0.15011 0.04314 0.95470
 H1264 H -0.06773 0.07465 1.01000
 C1265 C 0.36614 0.57176 0.50907
 C1266 C 0.37762 0.55234 0.48895
 C1267 C 0.40876 0.54022 0.49491
 C1268 C 0.42222 0.52034 0.47668
 H1269 H 0.36494 0.54611 0.46829
 H1270 H 0.42104 0.54851 0.51481
 H1271 H 0.38029 0.57745 0.52905
 H1272 H 0.40992 0.51232 0.45647
 C1273 C 0.12272 0.58176 0.51154
 C1274 C 0.11610 0.55275 0.51759
 C1275 C 0.08474 0.54304 0.51219
 C1276 C 0.07572 0.51535 0.52051
 H1277 H 0.13336 0.53639 0.52616
 H1278 H 0.06904 0.55895 0.50029
 H1279 H 0.10431 0.59760 0.50446
 H1280 H 0.09175 0.49942 0.53217
 C1281 C 0.61807 0.07244 0.00366
 C1282 C 0.61282 0.04384 0.01302
 C1283 C 0.58182 0.03261 0.00994
 C1284 C 0.57457 0.00436 0.01846
 H1285 H 0.63088 0.02893 0.02261
 H1286 H 0.56484 0.04788 -0.00084
 H1287 H 0.59896 0.08685 -0.00463
 H1288 H 0.59188 -0.01101 0.02886
 C1289 C 0.63147 0.94503 0.46981
 C1290 C 0.61325 0.95413 0.49219
 C1291 C 0.58249 0.96692 0.48463
 C1292 C 0.56369 0.97401 0.50720
 H1293 H 0.62017 0.95056 0.51636
 H1294 H 0.57488 0.96962 0.46054
 H1295 H 0.62327 0.94758 0.44588
 H1296 H 0.57172 0.97129 0.53114
 C1297 C 0.14630 0.46095 1.00459
 C1298 C 0.12125 0.46130 0.98627
 C1299 C 0.09547 0.48206 0.99203
 C1300 C 0.06906 0.47913 0.97656
 H1301 H 0.11864 0.44495 0.96817
 H1302 H 0.09756 0.49853 1.01016
 H1303 H 0.14744 0.47675 1.02342
 H1304 H 0.06723 0.46233 0.95872
 C1305 C 0.04104 0.35606 0.46512
 C1306 C 0.01964 0.37145 0.48005
 C1307 C 0.02594 0.40221 0.49104
 C1308 C 0.00412 0.41992 0.50249
 H1309 H -0.00319 0.36311 0.48150
 H1310 H 0.04803 0.41154 0.48676
 H1311 H 0.06333 0.36591 0.46376
 H1312 H -0.01792 0.41052 0.50672
 C1313 C 0.53514 -0.15535 -0.04528
 C1314 C 0.51729 -0.14087 -0.02555
 C1315 C 0.52387 -0.10937 -0.01699
 C1316 C 0.50543 -0.09345 0.00094
 H1317 H 0.49670 -0.15091 -0.01752
 H1318 H 0.54290 -0.09836 -0.02751
 H1319 H 0.55529 -0.14393 -0.05288
 H1320 H 0.48634 -0.10447 0.01131
 C1321 C -0.04239 -0.12114 1.04834
 C1322 C -0.02699 -0.10726 1.02591
 C1323 C -0.03108 -0.07406 1.02042
 C1324 C -0.01531 -0.05862 0.99939
 H1325 H -0.01023 -0.11957 1.01305
 H1326 H -0.04538 -0.06168 1.03598
 H1327 H -0.05962 -0.10791 1.05980
 H1328 H -0.00080 -0.07086 0.98394
 C1329 C 0.46258 0.35690 0.52916
 C1330 C 0.48306 0.37218 0.51287
 C1331 C 0.47568 0.40348 0.50121
 C1332 C 0.49696 0.42167 0.48996
 H1333 H 0.50601 0.36333 0.51089
 H1334 H 0.45321 0.41280 0.50533
 H1335 H 0.44018 0.36733 0.53121
 H1336 H 0.51949 0.41237 0.48615
 C1337 C 0.51554 1.13236 0.53895
 C1338 C 0.49540 1.11743 0.52139
 C1339 C 0.50385 1.08711 0.50990
 C1340 C 0.48329 1.06858 0.49748
 H1341 H 0.47230 1.12592 0.51758
 H1342 H 0.52683 1.07853 0.51492
 H1343 H 0.53821 1.12232 0.54231
 H1344 H 0.46020 1.07693 0.49283
 C1345 C 0.02014 0.64059 1.04964
 C1346 C 0.01124 0.63152 1.02142
 C1347 C 0.01974 0.60031 1.01249
 C1348 C 0.00482 0.58538 0.99024
 H1349 H -0.00415 0.64552 1.00666
 H1350 H 0.03642 0.58792 1.02735
 H1351 H 0.03391 0.62490 1.06440
 H1352 H -0.01255 0.59717 0.97579
 C1353 C 0.47913 0.61020 -0.05647
 C1354 C 0.49606 0.59669 -0.03343
 C1355 C 0.49158 0.56423 -0.02577
 C1356 C 0.51132 0.54773 -0.00759
 H1357 H 0.51471 0.60836 -0.02244
 H1358 H 0.47315 0.55300 -0.03773
 H1359 H 0.46170 0.59706 -0.06786
 H1360 H 0.53019 0.55872 0.00384
 C1361 C 0.00223 1.12268 0.43104
 C1362 C 0.00306 1.11211 0.46203
 C1363 C 0.00008 1.08100 0.46835
 C1364 C 0.00143 1.06859 0.49714
 H1365 H 0.00642 1.12736 0.48099
 H1366 H -0.00333 1.06631 0.44885
 H1367 H -0.00064 1.10571 0.41344
 H1368 H 0.00469 1.08277 0.51705
 C1369 C 0.74842 0.72199 0.89448
 C1370 C 0.76371 0.71843 0.86844
 C1371 C 0.75716 0.73889 0.84127
 C1372 C 0.76952 0.73391 0.81385
 H1373 H 0.77907 0.69904 0.86623
 H1374 H 0.73894 0.75574 0.84287
 H1375 H 0.73421 0.74225 0.89674
 H1376 H 0.78760 0.71690 0.81240
 C1377 C 0.27260 0.21205 0.39260
 C1378 C 0.29692 0.21248 0.37477
 C1379 C 0.29625 0.23395 0.34793
 C1380 C 0.30721 0.22627 0.32055
 H1381 H 0.31482 0.19519 0.37770
 H1382 H 0.28126 0.25378 0.34915
 H1383 H 0.25382 0.22794 0.38704
 H1384 H 0.32177 0.20617 0.31934
 C1385 C 0.76847 0.30293 0.38734
 C1386 C 0.74872 0.29729 0.36407
 C1387 C 0.75906 0.27911 0.33820
 C1388 C 0.74176 0.27498 0.31267
 H1389 H 0.72582 0.30677 0.36320
 H1390 H 0.78243 0.27069 0.33930
 H1391 H 0.79095 0.29228 0.38712
 H1392 H 0.71856 0.28377 0.31112
 C1393 C 0.24802 0.81317 0.88463
 C1394 C 0.22656 0.80997 0.86232
 C1395 C 0.23521 0.79399 0.83440
 C1396 C 0.21586 0.78709 0.81119
 H1397 H 0.20375 0.81931 0.86417
 H1398 H 0.25916 0.78821 0.83265
 H1399 H 0.27008 0.80218 0.88192
 H1400 H 0.19177 0.79207 0.81267
 C1401 C 0.25714 0.79312 0.10515
 C1402 C 0.27422 0.79380 0.13139
 C1403 C 0.26851 0.77192 0.15677
 C1404 C 0.27636 0.77781 0.18611
 H1405 H 0.28977 0.81190 0.13587
 H1406 H 0.25409 0.75289 0.15180
 H1407 H 0.24138 0.77459 0.10295
 H1408 H 0.29023 0.79720 0.19106
 C1409 C 0.75859 0.30286 0.60804
 C1410 C 0.77553 0.30480 0.63431
 C1411 C 0.76953 0.28409 0.66067
 C1412 C 0.77860 0.28995 0.68975
 H1413 H 0.79159 0.32270 0.63768
 H1414 H 0.75452 0.26538 0.65643
 H1415 H 0.74218 0.28481 0.60711
 H1416 H 0.79336 0.30883 0.69405
 C1417 C 0.22946 0.21694 0.60924
 C1418 C 0.21573 0.21142 0.63601
 C1419 C 0.21942 0.23280 0.66137
 C1420 C 0.21403 0.22462 0.69075
 H1421 H 0.20418 0.19039 0.64037
 H1422 H 0.23068 0.25398 0.65641
 H1423 H 0.24039 0.23861 0.60597
 H1424 H 0.20312 0.20330 0.69569
 C1425 C 0.73505 0.66814 0.13326
 C1426 C 0.71442 0.68934 0.14501
 C1427 C 0.71888 0.69805 0.17560
 C1428 C 0.70571 0.72299 0.18704
 H1429 H 0.69762 0.70139 0.13014
 H1430 H 0.73649 0.68588 0.18937
 H1431 H 0.75213 0.65811 0.14947
 H1432 H 0.68830 0.73573 0.17349
 C1433 C 0.20699 0.60460 0.25268
 C1434 C 0.20048 0.63108 0.23755
 C1435 C 0.21897 0.65802 0.24284
 C1436 C 0.21104 0.68485 0.22921
 H1437 H 0.18047 0.63365 0.22238
 H1438 H 0.23846 0.65611 0.25884
 H1439 H 0.22637 0.60324 0.26887
 H1440 H 0.19140 0.68647 0.21338
 C1441 C 0.66339 0.13985 0.75338
 C1442 C 0.68965 0.15088 0.74014
 C1443 C 0.69764 0.18097 0.74468
 C1444 C 0.72383 0.19195 0.73502
 H1445 H 0.70460 0.13618 0.72754
 H1446 H 0.68241 0.19536 0.75720
 H1447 H 0.65024 0.15563 0.76686
 H1448 H 0.73919 0.17735 0.72266
 C1449 C 0.79911 0.10275 0.25187
 C1450 C 0.80978 0.12930 0.26114
 C1451 C 0.79187 0.15779 0.25633
 C1452 C 0.80471 0.18449 0.26134
 H1453 H 0.83268 0.13038 0.27098
 H1454 H 0.76837 0.15691 0.24818
 H1455 H 0.77703 0.10226 0.24004
 H1456 H 0.82820 0.18486 0.26954
 C1457 C 0.32802 0.63329 0.75409
 C1458 C 0.30006 0.64347 0.76032
 C1459 C 0.29206 0.67602 0.75571
 C1460 C 0.26500 0.68753 0.76317
 H1461 H 0.28309 0.62812 0.76866
 H1462 H 0.30852 0.69044 0.74515
 H1463 H 0.34472 0.64970 0.74719
 H1464 H 0.24859 0.67261 0.77341
 C1465 C 0.28336 0.39895 0.75480
 C1466 C 0.28452 0.37481 0.73655
 C1467 C 0.26834 0.34690 0.74440
 C1468 C 0.27442 0.32118 0.72979
 H1469 H 0.29906 0.37426 0.71688
 H1470 H 0.25248 0.34706 0.76310
 H1471 H 0.26952 0.39737 0.77514
 H1472 H 0.29067 0.32122 0.71145
 C1473 C 0.83176 0.86656 0.23638
 C1474 C 0.80301 0.85975 0.22922
 C1475 C 0.79292 0.82852 0.23467
 C1476 C 0.76524 0.81974 0.22585
 H1477 H 0.78687 0.87707 0.22028
 H1478 H 0.80818 0.81304 0.24770
 H1479 H 0.84768 0.84830 0.24364
 H1480 H 0.74995 0.83572 0.21322
 C1481 C 0.70177 0.90172 0.76450
 C1482 C 0.69293 0.87361 0.75768
 C1483 C 0.71372 0.84676 0.75891
 C1484 C 0.70370 0.82087 0.74729
 H1485 H 0.66981 0.86982 0.74985
 H1486 H 0.73615 0.84786 0.76984
 H1487 H 0.72575 0.90515 0.76926
 H1488 H 0.68139 0.82112 0.73600
 C1489 C 0.18176 0.36928 0.25145
 C1490 C 0.21113 0.36149 0.25646
 C1491 C 0.22133 0.32967 0.25294
 C1492 C 0.24988 0.32028 0.25990
 H1493 H 0.22753 0.37797 0.26371
 H1494 H 0.20483 0.31380 0.24472
 H1495 H 0.16615 0.35156 0.24522
 H1496 H 0.26618 0.33662 0.26794
 C1497 C 0.11417 0.28610 0.79691
 C1498 C 0.12791 0.26715 0.77760
 C1499 C 0.15914 0.27327 0.76806
 C1500 C 0.17507 0.25395 0.75098
 H1501 H 0.11734 0.24647 0.77035
 H1502 H 0.17014 0.29292 0.77751
 H1503 H 0.12578 0.30671 0.80294
 H1504 H 0.16427 0.23409 0.74181
 C1505 C 0.61159 0.77599 0.30533
 C1506 C 0.62149 0.76326 0.27950
 C1507 C 0.65278 0.76927 0.26991
 C1508 C 0.66685 0.75358 0.24808
 H1509 H 0.60794 0.74696 0.26722
 H1510 H 0.66563 0.78538 0.28327
 H1511 H 0.62670 0.79108 0.31752
 H1512 H 0.65454 0.73695 0.23494
 C1513 C 0.63603 0.21207 0.21281
 C1514 C 0.65014 0.23316 0.22946
 C1515 C 0.68222 0.22799 0.23969
 C1516 C 0.69870 0.25012 0.25197
 H1517 H 0.63949 0.25514 0.23302
 H1518 H 0.69326 0.20666 0.23399
 H1519 H 0.64818 0.19073 0.20933
 H1520 H 0.68764 0.27150 0.25739
 C1521 C 0.10348 0.72603 0.72817
 C1522 C 0.12065 0.74980 0.73497
 C1523 C 0.15220 0.74496 0.74705
 C1524 C 0.17201 0.76753 0.74596
 H1525 H 0.11279 0.77272 0.72847
 H1526 H 0.16000 0.72208 0.75389
 H1527 H 0.11275 0.70324 0.73305
 H1528 H 0.16404 0.78985 0.73764
 C1529 C 0.86394 0.75017 0.68659
 C1530 C 0.85430 0.75183 0.71576
 C1531 C 0.82128 0.75509 0.72030
 C1532 C 0.80821 0.75243 0.74789
 H1533 H 0.86982 0.75052 0.73571
 H1534 H 0.80694 0.75933 0.69964
 H1535 H 0.84652 0.75054 0.66814
 H1536 H 0.82198 0.74799 0.76884
 C1537 C 0.40643 0.26871 0.20428
 C1538 C 0.39285 0.25167 0.22583
 C1539 C 0.36217 0.26064 0.23566
 C1540 C 0.34570 0.24246 0.25366
 H1541 H 0.40281 0.23016 0.23429
 H1542 H 0.35194 0.28148 0.22561
 H1543 H 0.39489 0.28961 0.19593
 H1544 H 0.35577 0.22144 0.26342
 C1545 C 0.37666 0.72243 0.30421
 C1546 C 0.36300 0.73754 0.27992
 C1547 C 0.33082 0.73167 0.27176
 C1548 C 0.31552 0.74651 0.24834
 H1549 H 0.37470 0.75492 0.26705
 H1550 H 0.31876 0.71634 0.28688
 H1551 H 0.36413 0.70460 0.31564
 H1552 H 0.32732 0.76215 0.23336
 C1553 C 0.88318 0.23523 0.80371
 C1554 C 0.86794 0.25277 0.78220
 C1555 C 0.83606 0.24605 0.77386
 C1556 C 0.81917 0.26360 0.75372
 H1557 H 0.87804 0.27262 0.77183
 H1558 H 0.82565 0.22737 0.78617
 H1559 H 0.87208 0.21523 0.81275
 H1560 H 0.82940 0.28250 0.74164
 C1561 C 0.53076 1.00057 0.63779
 C1562 C 0.53081 0.97901 0.61643
 C1563 C 0.51162 0.98388 0.58810
 C1564 C 0.51594 0.96812 0.56245
 H1565 H 0.54634 0.95958 0.61822
 H1566 H 0.49641 1.00366 0.58708
 H1567 H 0.51472 1.01961 0.63439
 H1568 H 0.53148 0.94861 0.56319
 C1569 C 0.04471 0.49387 1.13385
 C1570 C 0.05361 0.48355 1.10490
 C1571 C 0.03484 0.48975 1.07865
 C1572 C 0.04305 0.48299 1.04989
 H1573 H 0.07537 0.47227 1.10202
 H1574 H 0.01369 0.50233 1.08164
 H1575 H 0.02176 0.50339 1.13478
 H1576 H 0.06393 0.47018 1.04655
 C1577 C -0.02945 0.02045 1.14363
 C1578 C -0.03594 0.03851 1.11856
 C1579 C -0.01876 0.03443 1.09029
 C1580 C -0.03097 0.04295 1.06253
 H1581 H -0.05583 0.05340 1.11698
 H1582 H 0.00189 0.02043 1.09182
 H1583 H -0.00940 0.00562 1.14302
 H1584 H -0.05210 0.05611 1.06121
 C1585 C 0.43265 0.48709 0.62277
 C1586 C 0.43755 0.50854 0.60092
 C1587 C 0.44875 0.49916 0.57079
 C1588 C 0.45940 0.51875 0.54964
 H1589 H 0.43399 0.53248 0.60522
 H1590 H 0.44909 0.47501 0.56629
 H1591 H 0.43812 0.46355 0.61785
 H1592 H 0.45998 0.54282 0.55424
 C1593 C 0.46845 0.46511 -0.14580
 C1594 C 0.46220 0.45163 -0.11854
 C1595 C 0.48440 0.45262 -0.09234
 C1596 C 0.47625 0.44726 -0.06310
 H1597 H 0.43981 0.44319 -0.11426
 H1598 H 0.50646 0.46201 -0.09669
 H1599 H 0.49080 0.47452 -0.14843
 H1600 H 0.45395 0.43854 -0.05870
 C1601 C -0.03358 0.97480 0.36836
 C1602 C -0.04258 0.96249 0.39517
 C1603 C -0.02369 0.96568 0.42356
 C1604 C -0.03597 0.96455 0.45150
 H1605 H -0.06514 0.95353 0.39707
 H1606 H -0.00061 0.97329 0.42122
 H1607 H -0.01164 0.98547 0.36792
 H1608 H -0.05939 0.95805 0.45329
 C1609 C 0.03926 0.51204 0.36616
 C1610 C 0.04807 0.52405 0.39313
 C1611 C 0.02919 0.52011 0.42051
 C1612 C 0.04063 0.52304 0.44941
 H1613 H 0.07028 0.53382 0.39594
 H1614 H 0.00666 0.51114 0.41702
 H1615 H 0.01765 0.50071 0.36490
 H1616 H 0.06351 0.53107 0.45264
 C1617 C 0.53352 0.00714 -0.13320
 C1618 C 0.54124 0.01836 -0.10566
 C1619 C 0.52333 0.01120 -0.07842
 C1620 C 0.53560 0.01333 -0.04986
 H1621 H 0.56197 0.03079 -0.10245
 H1622 H 0.50154 0.00064 -0.08189
 H1623 H 0.51219 -0.00451 -0.13579
 H1624 H 0.55795 0.02272 -0.04716
 C1625 C 0.64382 0.53566 0.00682
 C1626 C 0.62123 0.53128 -0.01381
 C1627 C 0.59685 0.51038 -0.00617
 C1628 C 0.57166 0.50988 -0.02405
 H1629 H 0.61973 0.54377 -0.03577
 H1630 H 0.59881 0.49664 0.01508
 H1631 H 0.64422 0.52238 0.02844
 H1632 H 0.56982 0.52399 -0.04509
 C1633 C 0.11580 1.07937 0.50469
 C1634 C 0.10580 1.05137 0.49973
 C1635 C 0.07361 1.04460 0.50450
 C1636 C 0.06249 1.01726 0.49871
 H1637 H 0.12092 1.03356 0.49206
 H1638 H 0.05907 1.06227 0.51333
 H1639 H 0.09945 1.09666 0.51134
 H1640 H 0.07747 0.99975 0.49008
 C1641 C 0.13261 -0.03005 1.00385
 C1642 C 0.10431 -0.03939 1.00819
 C1643 C 0.07831 -0.01782 1.00613
 C1644 C 0.05016 -0.02814 1.00741
 H1645 H 0.09948 -0.06305 1.01251
 H1646 H 0.08211 0.00631 1.00272
 H1647 H 0.13561 -0.00591 0.99927
 H1648 H 0.04681 -0.05234 1.01073
 C1649 C 0.63330 0.46009 0.47923
 C1650 C 0.60841 0.45578 0.49569
 C1651 C 0.57947 0.47175 0.48726
 C1652 C 0.55457 0.46481 0.50250
 H1653 H 0.60842 0.43969 0.51506
 H1654 H 0.57839 0.48863 0.46840
 H1655 H 0.63136 0.47597 0.45947
 H1656 H 0.55606 0.44771 0.52115
 C1657 C -0.13630 0.47116 0.50480
 C1658 C -0.10957 0.46110 0.49480
 C1659 C -0.08113 0.47643 0.50231
 C1660 C -0.05493 0.46491 0.49254
 H1661 H -0.10819 0.44029 0.48204
 H1662 H -0.08157 0.49658 0.51619
 H1663 H -0.13707 0.49101 0.51912
 H1664 H -0.05509 0.44487 0.47848
 C1665 C 0.36351 -0.03783 0.00721
 C1666 C 0.38940 -0.05023 -0.00243
 C1667 C 0.41859 -0.03586 0.00361
 C1668 C 0.44448 -0.04977 -0.00391
 H1669 H 0.38933 -0.07189 -0.01380
 H1670 H 0.41886 -0.01396 0.01452
 H1671 H 0.36418 -0.01716 0.02033
 H1672 H 0.44385 -0.07163 -0.01487
 C1673 C 0.35885 1.04516 0.52600
 C1674 C 0.37716 1.03806 0.50298
 C1675 C 0.40781 1.02467 0.50966
 C1676 C 0.42717 1.02049 0.48684
 H1677 H 0.37043 1.04380 0.47913
 H1678 H 0.41492 1.01922 0.53351
 H1679 H 0.36688 1.04067 0.54976
 H1680 H 0.41980 1.02614 0.46312
 C1681 C -0.13524 0.55211 0.98539
 C1682 C -0.10833 0.55856 0.99839
 C1683 C -0.08124 0.53963 0.99284
 C1684 C -0.05422 0.54690 1.00488
 H1685 H -0.10609 0.57781 1.01332
 H1686 H -0.08337 0.52009 0.97826
 H1687 H -0.13711 0.53188 0.97170
 H1688 H -0.05244 0.56650 1.01946
 C1689 C -0.00853 0.61740 0.57220
 C1690 C 0.00282 0.60859 0.54527
 C1691 C 0.00282 0.57575 0.53879
 C1692 C 0.01177 0.56343 0.51235
 H1693 H 0.01241 0.62458 0.52902
 H1694 H -0.00488 0.56079 0.55719
 H1695 H -0.01798 0.59996 0.58710
 H1696 H 0.01890 0.57784 0.49330
 C1697 C 0.49987 0.10491 0.07602
 C1698 C 0.50585 0.09494 0.04770
 C1699 C 0.50417 0.06201 0.04211
 C1700 C 0.50939 0.04976 0.01462
 H1701 H 0.51282 0.11021 0.02932
 H1702 H 0.49912 0.04716 0.06169
 H1703 H 0.49299 0.08825 0.09331
 H1704 H 0.51384 0.06433 -0.00530
 C1705 C 0.02947 0.14514 0.95445
 C1706 C 0.01208 0.13233 0.97594
 C1707 C 0.01565 0.09942 0.98332
 C1708 C -0.00295 0.08476 1.00231
 H1709 H -0.00609 0.14509 0.98625
 H1710 H 0.03193 0.08651 0.97034
 H1711 H 0.04786 0.13144 0.94550
 H1712 H -0.01929 0.09766 1.01519
 C1713 C 0.52019 0.63157 0.45606
 C1714 C 0.49864 0.61587 0.47030
 C1715 C 0.50458 0.58375 0.48011
 C1716 C 0.48212 0.56566 0.48878
 H1717 H 0.47588 0.62537 0.47195
 H1718 H 0.52717 0.57414 0.47717
 H1719 H 0.54228 0.62057 0.45364
 H1720 H 0.45964 0.57556 0.49116
 C1721 C 0.47166 0.86246 0.45648
 C1722 C 0.49258 0.87658 0.47384
 C1723 C 0.48544 0.90717 0.48545
 C1724 C 0.50699 0.92557 0.49624
 H1725 H 0.51549 0.86725 0.47696
 H1726 H 0.46237 0.91603 0.48178
 H1727 H 0.44950 0.87352 0.45272
 H1728 H 0.53019 0.91701 0.49943
 C1729 C -0.02197 0.37900 0.94816
 C1730 C -0.00313 0.39279 0.96805
 C1731 C -0.00919 0.42491 0.97545
 C1732 C 0.01024 0.44091 0.99267
 H1733 H 0.01748 0.38154 0.97723
 H1734 H -0.02872 0.43642 0.96403
 H1735 H -0.04259 0.39128 0.94023
 H1736 H 0.03004 0.42961 1.00375
 C1737 C 0.54566 0.34125 0.04442
 C1738 C 0.52699 0.35523 0.02299
 C1739 C 0.53259 0.38707 0.01329
 C1740 C 0.51310 0.40343 -0.00542
 H1741 H 0.50652 0.34467 0.01460
 H1742 H 0.55148 0.39827 0.02451
 H1743 H 0.56591 0.35306 0.05172
 H1744 H 0.49396 0.39246 -0.01637
 C1745 C 0.01127 0.86499 0.57460
 C1746 C -0.00398 0.87875 0.55051
 C1747 C -0.00126 0.91184 0.54500
 C1748 C -0.01185 0.92617 0.51890
 H1749 H -0.01852 0.86603 0.53518
 H1750 H 0.00963 0.92480 0.56306
 H1751 H 0.02681 0.87838 0.58829
 H1752 H -0.02167 0.91311 0.50037
 C1753 C 0.25461 0.28078 0.11429
 C1754 C 0.24005 0.28604 0.14042
 C1755 C 0.24820 0.26787 0.16877
 C1756 C 0.24051 0.27730 0.19671
 H1757 H 0.22481 0.30560 0.14197
 H1758 H 0.26351 0.24838 0.16688
 H1759 H 0.27110 0.26203 0.11424
 H1760 H 0.22565 0.29710 0.19822
 C1761 C 0.72067 0.77678 0.60644
 C1762 C 0.70523 0.78427 0.63143
 C1763 C 0.71013 0.76619 0.66052
 C1764 C 0.70250 0.77750 0.68771
 H1765 H 0.69250 0.80562 0.63190
 H1766 H 0.72408 0.74555 0.66008
 H1767 H 0.73439 0.75591 0.60759
 H1768 H 0.68897 0.79838 0.68785
 C1769 C 0.25918 0.72908 0.61162
 C1770 C 0.27181 0.71956 0.63888
 C1771 C 0.26897 0.73823 0.66624
 C1772 C 0.27176 0.72535 0.69464
 H1773 H 0.28171 0.69682 0.64183
 H1774 H 0.26052 0.76154 0.66306
 H1775 H 0.25027 0.75226 0.60888
 H1776 H 0.27907 0.70171 0.69728
 C1777 C 0.76901 0.17253 0.13481
 C1778 C 0.78841 0.19281 0.14598
 C1779 C 0.78939 0.19772 0.17961
 C1780 C 0.79865 0.22385 0.19134
 H1781 H 0.80063 0.20775 0.13072
 H1782 H 0.77761 0.18173 0.19422
 H1783 H 0.75632 0.15923 0.15131
 H1784 H 0.80972 0.24026 0.17659
 C1785 C 0.72540 0.22605 0.88870
 C1786 C 0.71412 0.21881 0.86070
 C1787 C 0.71981 0.23803 0.83312
 C1788 C 0.71721 0.22674 0.80469
 H1789 H 0.70278 0.19761 0.85722
 H1790 H 0.72936 0.26027 0.83634
 H1791 H 0.73626 0.24779 0.89100
 H1792 H 0.70897 0.20395 0.80227
 C1793 C 0.22768 0.71795 0.38093
 C1794 C 0.21197 0.70986 0.35555
 C1795 C 0.21392 0.72853 0.32703
 C1796 C 0.21136 0.71626 0.29913
 H1797 H 0.20095 0.68813 0.35471
 H1798 H 0.22238 0.75138 0.32910
 H1799 H 0.24045 0.73875 0.38003
 H1800 H 0.20390 0.69308 0.29712
 C1801 C 0.76692 0.78565 0.38186
 C1802 C 0.77526 0.79612 0.35404
 C1803 C 0.77248 0.77665 0.32702
 C1804 C 0.77141 0.78876 0.29822
 H1805 H 0.78061 0.81977 0.35017
 H1806 H 0.76690 0.75297 0.33089
 H1807 H 0.76042 0.76205 0.38415
 H1808 H 0.77584 0.81271 0.29471
 C1809 C 0.26559 0.29299 0.88504
 C1810 C 0.27781 0.30107 0.85805
 C1811 C 0.27473 0.28076 0.83164
 C1812 C 0.27896 0.29042 0.80242
 H1813 H 0.28786 0.32305 0.85457
 H1814 H 0.26495 0.25869 0.83591
 H1815 H 0.25603 0.27053 0.88717
 H1816 H 0.28840 0.31258 0.79807
 C1817 C 0.78600 0.39952 0.72816
 C1818 C 0.78895 0.37439 0.74630
 C1819 C 0.77049 0.34748 0.74089
 C1820 C 0.77512 0.32248 0.75891
 H1821 H 0.80588 0.37323 0.76513
 H1822 H 0.75454 0.34749 0.72121
 H1823 H 0.76793 0.40125 0.71047
 H1824 H 0.79136 0.32288 0.77832
 C1825 C 0.28365 0.88849 0.23553
 C1826 C 0.28954 0.85910 0.24800
 C1827 C 0.26995 0.83520 0.24285
 C1828 C 0.27664 0.80774 0.25576
 H1829 H 0.30974 0.85433 0.26242
 H1830 H 0.25009 0.83864 0.22752
 H1831 H 0.26107 0.89342 0.22551
 H1832 H 0.29644 0.80473 0.27129
 C1833 C 0.16435 0.88203 0.75794
 C1834 C 0.18988 0.87040 0.74672
 C1835 C 0.19861 0.83850 0.75405
 C1836 C 0.22204 0.82504 0.74073
 H1837 H 0.20398 0.88388 0.73184
 H1838 H 0.18520 0.82585 0.77025
 H1839 H 0.15031 0.86718 0.77162
 H1840 H 0.23513 0.83798 0.72434
 C1841 C 0.72274 0.38524 0.27942
 C1842 C 0.71939 0.36148 0.26114
 C1843 C 0.73995 0.33475 0.26395
 C1844 C 0.73641 0.31184 0.24463
 H1845 H 0.70103 0.36170 0.24376
 H1846 H 0.75705 0.33325 0.28263
 H1847 H 0.74218 0.38598 0.29543
 H1848 H 0.71919 0.31370 0.22610
 C1849 C 0.71085 0.61128 0.24973
 C1850 C 0.70192 0.63838 0.25988
 C1851 C 0.71972 0.66563 0.25370
 C1852 C 0.70870 0.69305 0.26056
 H1853 H 0.68047 0.64106 0.27116
 H1854 H 0.74126 0.66335 0.24241
 H1855 H 0.73168 0.60970 0.23705
 H1856 H 0.68714 0.69490 0.27186
 C1857 C 0.20753 0.11578 0.74060
 C1858 C 0.20532 0.14141 0.75645
 C1859 C 0.22318 0.16828 0.74866
 C1860 C 0.21824 0.19425 0.76323
 H1861 H 0.18876 0.14361 0.77428
 H1862 H 0.23922 0.16725 0.73016
 H1863 H 0.22316 0.11478 0.72172
 H1864 H 0.20194 0.19488 0.78152
 C1865 C 0.32180 0.11887 0.21438
 C1866 C 0.31585 0.13617 0.23854
 C1867 C 0.30578 0.16821 0.23458
 C1868 C 0.29952 0.18418 0.25954
 H1869 H 0.31888 0.12676 0.26195
 H1870 H 0.30309 0.17849 0.21148
 H1871 H 0.32044 0.12896 0.19112
 H1872 H 0.30184 0.17314 0.28230
 C1873 C 0.81122 0.63250 0.71649
 C1874 C 0.79605 0.64678 0.73843
 C1875 C 0.78278 0.67760 0.73314
 C1876 C 0.76626 0.69020 0.75505
 H1877 H 0.79364 0.63603 0.76105
 H1878 H 0.78650 0.68988 0.71150
 H1879 H 0.81449 0.64436 0.69450
 H1880 H 0.76260 0.67743 0.77642
 C1881 C 0.86641 0.73643 0.18013
 C1882 C 0.85508 0.74726 0.20796
 C1883 C 0.82389 0.74542 0.21298
 C1884 C 0.81067 0.75515 0.23866
 H1885 H 0.86962 0.75769 0.22508
 H1886 H 0.80963 0.73634 0.19466
 H1887 H 0.85022 0.72495 0.16525
 H1888 H 0.82443 0.76342 0.25775
 C1889 C 0.37932 0.22683 0.69691
 C1890 C 0.36558 0.24675 0.71528
 C1891 C 0.33429 0.24111 0.72518
 C1892 C 0.31834 0.26106 0.74157
 H1893 H 0.37617 0.26774 0.72149
 H1894 H 0.32329 0.22109 0.71659
 H1895 H 0.36756 0.20606 0.69181
 H1896 H 0.32912 0.28128 0.74993
 C1897 C 0.37491 0.76304 0.81604
 C1898 C 0.36258 0.75174 0.79011
 C1899 C 0.32958 0.75563 0.78432
 C1900 C 0.31505 0.74741 0.75821
 H1901 H 0.37601 0.73921 0.77401
 H1902 H 0.31659 0.76525 0.80276
 H1903 H 0.36024 0.77616 0.83067
 H1904 H 0.32774 0.73854 0.73924
 C1905 C 0.90572 0.28195 0.29500
 C1906 C 0.89145 0.26234 0.27663
 C1907 C 0.85914 0.26787 0.26760
 C1908 C 0.84275 0.24697 0.25305
 H1909 H 0.90217 0.24092 0.27091
 H1910 H 0.84795 0.28813 0.27595
 H1911 H 0.89353 0.30266 0.30081
 H1912 H 0.85399 0.22673 0.24477
 C1913 C 0.14689 0.24332 0.32207
 C1914 C 0.15694 0.25285 0.29455
 C1915 C 0.19000 0.25278 0.29026
 C1916 C 0.20270 0.25778 0.26284
 H1917 H 0.14148 0.26030 0.27569
 H1918 H 0.20454 0.24778 0.31063
 H1919 H 0.16361 0.23509 0.33958
 H1920 H 0.18855 0.26212 0.24211
 C1921 C 0.60430 0.71594 0.78813
 C1922 C 0.61746 0.73911 0.77340
 C1923 C 0.64830 0.73520 0.76165
 C1924 C 0.66450 0.75941 0.75375
 H1925 H 0.60737 0.76180 0.77317
 H1926 H 0.65902 0.71271 0.76301
 H1927 H 0.61593 0.69388 0.78916
 H1928 H 0.65356 0.78172 0.75324
 C1929 C 0.61455 0.27233 0.68221
 C1930 C 0.62819 0.25919 0.70761
 C1931 C 0.66093 0.26386 0.71377
 C1932 C 0.67572 0.25427 0.74006
 H1933 H 0.61580 0.24460 0.72310
 H1934 H 0.67355 0.27462 0.69546
 H1935 H 0.62757 0.28792 0.66827
 H1936 H 0.66320 0.24429 0.75882
 C1937 C 0.10738 0.77904 0.18885
 C1938 C 0.12251 0.76075 0.20983
 C1939 C 0.15525 0.76512 0.21654
 C1940 C 0.17145 0.74694 0.23670
 H1941 H 0.11155 0.74185 0.22105
 H1942 H 0.16664 0.78248 0.20324
 H1943 H 0.11941 0.79801 0.17888
 H1944 H 0.16015 0.72939 0.24979
   
