data_POSCAR
  _audit_creation_date              2014-09-24
  _audit_creation_method            'ToBaCCo'
  _symmetry_space_group_name_H-M    'P1'
  _symmetry_Int_Tables_number       1
  _symmetry_cell_setting            triclinic
  loop_
  _symmetry_equiv_pos_as_xyz
 x,y,z
_cell_length_a 63.5791
_cell_length_b 63.5018
_cell_length_c 63.5102
_cell_angle_alpha 91.555200
_cell_angle_beta 91.398700
_cell_angle_gamma 91.651600
loop_
  _atom_site_label
  _atom_site_type_symbol
  _atom_site_fract_x
  _atom_site_fract_y
  _atom_site_fract_z
N1 N 0.17531 0.22269 0.22833
 N2 N 0.18098 0.20622 0.23901
 C3 C 0.16745 0.20319 0.25469
 C4 C 0.15269 0.21856 0.25363
 C5 C 0.15800 0.23070 0.23685
 H6 H 0.16819 0.19077 0.26598
 H7 H 0.14987 0.24427 0.23124
 Cu8 Cu 0.20513 0.19010 0.23112
 Cu9 Cu 0.19067 0.23250 0.20424
 Cu10 Cu 0.23389 0.20399 0.18974
 N11 N 0.22938 0.17436 0.22276
 N12 N 0.24041 0.17983 0.20643
 C13 C 0.25606 0.16629 0.20382
 C14 C 0.25464 0.15167 0.21931
 C15 C 0.23765 0.15709 0.23113
 H16 H 0.26758 0.16701 0.19160
 H17 H 0.23182 0.14904 0.24470
 N18 N 0.22478 0.22892 0.17487
 N19 N 0.20831 0.23983 0.18038
 C20 C 0.20615 0.25591 0.16719
 C21 C 0.22200 0.25493 0.15289
 C22 C 0.23354 0.23776 0.15804
 H23 H 0.19398 0.26743 0.16788
 H24 H 0.24723 0.23215 0.15009
 H25 H 0.20199 0.20344 0.19562
 H26 H 0.21931 0.22073 0.21338
 N27 N 0.67480 0.72305 0.72932
 N28 N 0.68038 0.70637 0.73969
 C29 C 0.66711 0.70339 0.75559
 C30 C 0.65257 0.71900 0.75496
 C31 C 0.65777 0.73125 0.73822
 H32 H 0.66787 0.69084 0.76673
 H33 H 0.64972 0.74497 0.73287
 Cu34 Cu 0.70426 0.69004 0.73148
 Cu35 Cu 0.68958 0.73255 0.70483
 Cu36 Cu 0.73309 0.70460 0.69023
 N37 N 0.72931 0.67534 0.72363
 N38 N 0.74049 0.68110 0.70750
 C39 C 0.75683 0.66828 0.70551
 C40 C 0.75572 0.65386 0.72124
 C41 C 0.73819 0.65864 0.73251
 H42 H 0.76856 0.66928 0.69349
 H43 H 0.73235 0.65051 0.74602
 N44 N 0.72306 0.72888 0.67480
 N45 N 0.70654 0.73962 0.68048
 C46 C 0.70366 0.75527 0.66694
 C47 C 0.71907 0.75419 0.65219
 C48 C 0.73114 0.73742 0.65748
 H49 H 0.69133 0.76661 0.66771
 H50 H 0.74478 0.73192 0.64934
 H51 H 0.70122 0.70365 0.69604
 H52 H 0.71837 0.72089 0.71406
 N53 N 0.32498 0.77482 0.73358
 N54 N 0.31853 0.79139 0.74422
 C55 C 0.33086 0.79454 0.76166
 C56 C 0.34568 0.77915 0.76176
 C57 C 0.34164 0.76692 0.74381
 H58 H 0.32909 0.80689 0.77348
 H59 H 0.34998 0.75313 0.73878
 Cu60 Cu 0.29442 0.80677 0.73435
 Cu61 Cu 0.31058 0.76389 0.70797
 Cu62 Cu 0.26705 0.79106 0.69065
 N63 N 0.27030 0.82217 0.72448
 N64 N 0.25964 0.81602 0.70726
 C65 C 0.24375 0.82924 0.70400
 C66 C 0.24463 0.84435 0.72006
 C67 C 0.26154 0.83949 0.73280
 H68 H 0.23238 0.82791 0.69105
 H69 H 0.26697 0.84787 0.74705
 N70 N 0.27707 0.76548 0.67603
 N71 N 0.29376 0.75531 0.68254
 C72 C 0.29635 0.73844 0.66962
 C73 C 0.28054 0.73801 0.65440
 C74 C 0.26861 0.75530 0.65879
 H75 H 0.30865 0.72714 0.67127
 H76 H 0.25471 0.75997 0.65016
 H77 H 0.29878 0.79221 0.69885
 H78 H 0.28144 0.77516 0.71494
 N79 N 0.82675 0.27453 0.23363
 N80 N 0.82037 0.29117 0.24422
 C81 C 0.83271 0.29438 0.26164
 C82 C 0.84749 0.27896 0.26176
 C83 C 0.84342 0.26663 0.24387
 H84 H 0.83095 0.30676 0.27345
 H85 H 0.85165 0.25274 0.23892
 Cu86 Cu 0.79624 0.30652 0.23439
 Cu87 Cu 0.81216 0.26340 0.20818
 Cu88 Cu 0.76865 0.29059 0.19090
 N89 N 0.77212 0.32191 0.22455
 N90 N 0.76140 0.31571 0.20739
 C91 C 0.74550 0.32894 0.20419
 C92 C 0.74641 0.34409 0.22021
 C93 C 0.76338 0.33924 0.23286
 H94 H 0.73402 0.32753 0.19134
 H95 H 0.76882 0.34766 0.24710
 N96 N 0.77847 0.26486 0.17640
 N97 N 0.79515 0.25465 0.18290
 C98 C 0.79762 0.23770 0.17006
 C99 C 0.78176 0.23726 0.15489
 C100 C 0.76991 0.25463 0.15924
 H101 H 0.80990 0.22638 0.17171
 H102 H 0.75603 0.25933 0.15061
 H103 H 0.80045 0.29175 0.19892
 H104 H 0.78314 0.27486 0.21519
 N105 N 0.82268 0.72284 0.27126
 N106 N 0.81552 0.70589 0.26074
 C107 C 0.82843 0.70186 0.24465
 C108 C 0.84438 0.71710 0.24533
 C109 C 0.84031 0.73016 0.26231
 H110 H 0.82636 0.68896 0.23325
 H111 H 0.84939 0.74405 0.26762
 Cu112 Cu 0.78994 0.69114 0.26934
 Cu113 Cu 0.80850 0.73455 0.29558
 Cu114 Cu 0.76347 0.70774 0.31145
 N115 N 0.76436 0.67640 0.27794
 N116 N 0.75437 0.68280 0.29474
 C117 C 0.73736 0.67009 0.29735
 C118 C 0.73669 0.65504 0.28130
 C119 C 0.75397 0.65938 0.26924
 H120 H 0.72623 0.67177 0.30986
 H121 H 0.75854 0.65080 0.25524
 N122 N 0.77512 0.73342 0.32606
 N123 N 0.79202 0.74386 0.31980
 C124 C 0.79516 0.76132 0.33214
 C125 C 0.77951 0.76174 0.34671
 C126 C 0.76711 0.74394 0.34257
 H127 H 0.80764 0.77305 0.33045
 H128 H 0.75304 0.73929 0.35071
 H129 H 0.79499 0.70639 0.30479
 H130 H 0.77846 0.72297 0.28754
 N131 N 0.32359 0.22299 -0.22882
 N132 N 0.31676 0.20582 -0.23914
 C133 C 0.32987 0.20170 -0.25507
 C134 C 0.34564 0.21713 -0.25440
 C135 C 0.34125 0.23039 -0.23766
 H136 H 0.32797 0.18873 -0.26642
 H137 H 0.35006 0.24449 -0.23250
 Cu138 Cu 0.29092 0.19119 -0.23107
 Cu139 Cu 0.30892 0.23491 -0.20492
 Cu140 Cu 0.26341 0.20844 -0.18982
 N141 N 0.26508 0.17667 -0.22288
 N142 N 0.25458 0.18341 -0.20657
 C143 C 0.23739 0.17086 -0.20435
 C144 C 0.23711 0.15558 -0.22017
 C145 C 0.25485 0.15958 -0.23168
 H146 H 0.22592 0.17273 -0.19219
 H147 H 0.25984 0.15071 -0.24536
 N148 N 0.27491 0.23416 -0.17513
 N149 N 0.29201 0.24446 -0.18111
 C150 C 0.29517 0.26184 -0.16864
 C151 C 0.27933 0.26237 -0.15427
 C152 C 0.26678 0.24470 -0.15868
 H153 H 0.30785 0.27339 -0.17004
 H154 H 0.25261 0.24011 -0.15069
 H155 H 0.29500 0.20693 -0.19567
 H156 H 0.27895 0.22325 -0.21357
 N157 N 0.67489 0.27713 -0.23531
 N158 N 0.68215 0.29334 -0.24571
 C159 C 0.66972 0.29601 -0.26289
 C160 C 0.65392 0.28068 -0.26310
 C161 C 0.65756 0.26895 -0.24548
 H162 H 0.67198 0.30808 -0.27440
 H163 H 0.64842 0.25542 -0.24052
 Cu164 Cu 0.70763 0.30875 -0.23614
 Cu165 Cu 0.68876 0.26764 -0.20956
 Cu166 Cu 0.73420 0.29531 -0.19245
 N167 N 0.73311 0.32414 -0.22658
 N168 N 0.74348 0.31868 -0.20950
 C169 C 0.76072 0.33133 -0.20663
 C170 C 0.76108 0.34534 -0.22280
 C171 C 0.74343 0.34049 -0.23520
 H172 H 0.77215 0.33037 -0.19384
 H173 H 0.73857 0.34829 -0.24938
 N174 N 0.72229 0.27115 -0.17739
 N175 N 0.70504 0.26053 -0.18387
 C176 C 0.70146 0.24460 -0.17064
 C177 C 0.71717 0.24539 -0.15525
 C178 C 0.73010 0.26229 -0.15993
 H179 H 0.68862 0.23309 -0.17223
 H180 H 0.74434 0.26747 -0.15141
 H181 H 0.70268 0.29641 -0.20052
 H182 H 0.71881 0.27827 -0.21658
 N183 N 0.17580 0.77761 0.26463
 N184 N 0.18308 0.79388 0.25433
 C185 C 0.17089 0.79644 0.23698
 C186 C 0.15515 0.78103 0.23652
 C187 C 0.15864 0.76934 0.25422
 H188 H 0.17325 0.80851 0.22551
 H189 H 0.14950 0.75577 0.25904
 Cu190 Cu 0.20823 0.80938 0.26457
 Cu191 Cu 0.18944 0.76810 0.29055
 Cu192 Cu 0.23517 0.79555 0.30762
 N193 N 0.23416 0.82435 0.27337
 N194 N 0.24466 0.81875 0.29034
 C195 C 0.26210 0.83116 0.29298
 C196 C 0.26247 0.84509 0.27674
 C197 C 0.24463 0.84048 0.26454
 H198 H 0.27362 0.83011 0.30569
 H199 H 0.23964 0.84834 0.25044
 N200 N 0.22297 0.77157 0.32281
 N201 N 0.20564 0.76106 0.31636
 C202 C 0.20191 0.74523 0.32966
 C203 C 0.21761 0.74595 0.34507
 C204 C 0.23068 0.76273 0.34032
 H205 H 0.18900 0.73379 0.32807
 H206 H 0.24497 0.76780 0.34881
 H207 H 0.20356 0.79653 0.30001
 H208 H 0.21949 0.77864 0.28354
 N209 N 0.47646 0.42385 0.47656
 N210 N 0.46043 0.42844 0.48841
 C211 C 0.45924 0.41448 0.50402
 C212 C 0.47532 0.40048 0.50174
 C213 C 0.48596 0.40683 0.48420
 H214 H 0.44761 0.41443 0.51616
 H215 H 0.49962 0.39965 0.47758
 Cu216 Cu 0.44283 0.45236 0.48211
 Cu217 Cu 0.48390 0.44048 0.45221
 Cu218 Cu 0.45264 0.48295 0.44091
 N219 N 0.42519 0.47624 0.47580
 N220 N 0.42912 0.48806 0.45956
 C221 C 0.41485 0.50333 0.45863
 C222 C 0.40134 0.50098 0.47514
 C223 C 0.40828 0.48368 0.48577
 H224 H 0.41438 0.51535 0.44690
 H225 H 0.40153 0.47710 0.49969
 N226 N 0.47716 0.47527 0.42390
 N227 N 0.48900 0.45909 0.42825
 C228 C 0.50446 0.45802 0.41413
 C229 C 0.50224 0.47422 0.40031
 C230 C 0.48483 0.48489 0.40686
 H231 H 0.51654 0.44639 0.41390
 H232 H 0.47834 0.49865 0.39979
 H233 H 0.47159 0.46852 0.46275
 H234 H 0.45408 0.45098 0.44560
 N235 N -0.02352 -0.07580 0.97634
 N236 N -0.03980 -0.07150 0.98795
 C237 C -0.04100 -0.08552 1.00351
 C238 C -0.02467 -0.09926 1.00140
 C239 C -0.01386 -0.09269 0.98406
 H240 H -0.05279 -0.08577 1.01550
 H241 H -0.00001 -0.09965 0.97758
 Cu242 Cu -0.05781 -0.04789 0.98155
 Cu243 Cu -0.01604 -0.05906 0.95214
 Cu244 Cu -0.04720 -0.01667 0.94081
 N245 N -0.07503 -0.02365 0.97531
 N246 N -0.07081 -0.01159 0.95932
 C247 C -0.08487 0.00388 0.95855
 C248 C -0.09856 0.00139 0.97490
 C249 C -0.09192 -0.01617 0.98528
 H250 H -0.08510 0.01609 0.94700
 H251 H -0.09885 -0.02291 0.99906
 N252 N -0.02262 -0.02429 0.92388
 N253 N -0.01080 -0.04046 0.92829
 C254 C 0.00468 -0.04159 0.91420
 C255 C 0.00250 -0.02543 0.90033
 C256 C -0.01491 -0.01472 0.90683
 H257 H 0.01673 -0.05326 0.91399
 H258 H -0.02140 -0.00099 0.89968
 H259 H -0.02878 -0.03122 0.96302
 H260 H -0.04588 -0.04863 0.94526
 N261 N 1.03167 0.57816 0.97784
 N262 N 1.04860 0.57305 0.98865
 C263 C 1.05203 0.58720 1.00470
 C264 C 1.03642 0.60182 1.00373
 C265 C 1.02375 0.59568 0.98661
 H266 H 1.06488 0.58698 1.01617
 H267 H 1.00989 0.60342 0.98092
 Cu268 Cu 1.06487 0.54884 0.98015
 Cu269 Cu 1.02111 0.56179 0.95319
 Cu270 Cu 1.04960 0.51843 0.93807
 N271 N 1.08079 0.52451 0.97128
 N272 N 1.07466 0.51283 0.95471
 C273 C 1.08853 0.49755 0.95150
 C274 C 1.10414 0.49987 0.96680
 C275 C 1.09889 0.51702 0.97919
 H276 H 1.08747 0.48579 0.93887
 H277 H 1.10766 0.52354 0.99277
 N278 N 1.02386 0.52662 0.92316
 N279 N 1.01300 0.54321 0.92875
 C280 C 0.99637 0.54460 0.91532
 C281 C 0.99699 0.52813 0.90080
 C282 C 1.01449 0.51706 0.90609
 H283 H 0.98471 0.55665 0.91600
 H284 H 1.01998 0.50312 0.89804
 H285 H 1.03371 0.53366 0.96173
 H286 H 1.04994 0.55057 0.94446
 N287 N 0.53203 0.07800 0.47830
 N288 N 0.54845 0.07270 0.48978
 C289 C 0.55175 0.08710 0.50559
 C290 C 0.53661 0.10210 0.50383
 C291 C 0.52431 0.09592 0.48644
 H292 H 0.56418 0.08672 0.51750
 H293 H 0.51074 0.10382 0.48026
 Cu294 Cu 0.56422 0.04765 0.48307
 Cu295 Cu 0.52184 0.06125 0.45380
 Cu296 Cu 0.55079 0.01808 0.43959
 N297 N 0.58089 0.02407 0.47370
 N298 N 0.57558 0.01274 0.45666
 C299 C 0.58971 -0.00235 0.45373
 C300 C 0.60463 -0.00028 0.46974
 C301 C 0.59869 0.01653 0.48222
 H302 H 0.58915 -0.01402 0.44100
 H303 H 0.60669 0.02271 0.49639
 N304 N 0.52524 0.02587 0.42422
 N305 N 0.51408 0.04232 0.42954
 C306 C 0.49757 0.04337 0.41592
 C307 C 0.49858 0.02680 0.40153
 C308 C 0.51619 0.01604 0.40713
 H309 H 0.48572 0.05525 0.41638
 H310 H 0.52194 0.00210 0.39928
 H311 H 0.53385 0.03286 0.46283
 H312 H 0.55124 0.05010 0.44681
 N313 N -0.02683 0.08216 0.52343
 N314 N -0.04328 0.07571 0.51179
 C315 C -0.04658 0.08950 0.49642
 C316 C -0.03139 0.10529 0.49862
 C317 C -0.01900 0.10027 0.51577
 H318 H -0.05904 0.08822 0.48452
 H319 H -0.00546 0.10914 0.52224
 Cu320 Cu -0.05891 0.05005 0.51773
 Cu321 Cu -0.01748 0.06710 0.54811
 Cu322 Cu -0.04644 0.02198 0.56014
 N323 N -0.07471 0.02473 0.52440
 N324 N -0.06994 0.01377 0.54104
 C325 C -0.08356 -0.00282 0.54195
 C326 C -0.09743 -0.00202 0.52496
 C327 C -0.09151 0.01556 0.51418
 H328 H -0.08354 -0.01441 0.55412
 H329 H -0.09906 0.02131 0.50011
 N330 N -0.02202 0.03286 0.57737
 N331 N -0.01074 0.04978 0.57253
 C332 C 0.00483 0.05306 0.58715
 C333 C 0.00314 0.03754 0.60180
 C334 C -0.01392 0.02496 0.59520
 H335 H 0.01646 0.06583 0.58723
 H336 H -0.01993 0.01112 0.60286
 H337 H -0.02899 0.03756 0.53815
 H338 H -0.04672 0.05393 0.55439
 N339 N 0.47324 0.58116 0.02348
 N340 N 0.45674 0.57470 0.01189
 C341 C 0.45363 0.58832 -0.00368
 C342 C 0.46897 0.60402 -0.00165
 C343 C 0.48124 0.59910 0.01563
 H344 H 0.44116 0.58702 -0.01557
 H345 H 0.49480 0.60796 0.02207
 Cu346 Cu 0.44097 0.54924 0.01843
 Cu347 Cu 0.48250 0.56630 0.04836
 Cu348 Cu 0.45351 0.52123 0.06069
 N349 N 0.42503 0.52389 0.02499
 N350 N 0.42995 0.51294 0.04161
 C351 C 0.41630 0.49640 0.04269
 C352 C 0.40225 0.49717 0.02585
 C353 C 0.40811 0.51473 0.01495
 H354 H 0.41641 0.48487 0.05492
 H355 H 0.40044 0.52048 0.00094
 N356 N 0.47796 0.53224 0.07787
 N357 N 0.48918 0.54919 0.07297
 C358 C 0.50472 0.55260 0.08760
 C359 C 0.50309 0.53714 0.10231
 C360 C 0.48609 0.52446 0.09575
 H361 H 0.51632 0.56540 0.08763
 H362 H 0.48014 0.51062 0.10347
 H363 H 0.47092 0.53670 0.03868
 H364 H 0.45332 0.55312 0.05501
 N365 N 0.52448 -0.07514 0.02478
 N366 N 0.54089 -0.06981 0.01366
 C367 C 0.54172 -0.08313 -0.00319
 C368 C 0.52486 -0.09725 -0.00242
 C369 C 0.51430 -0.09187 0.01545
 H370 H 0.55367 -0.08272 -0.01501
 H371 H 0.50037 -0.09967 0.02131
 Cu372 Cu 0.55934 -0.04597 0.02255
 Cu373 Cu 0.51736 -0.06029 0.05052
 Cu374 Cu 0.54917 -0.01730 0.06640
 N375 N 0.57742 -0.02203 0.03194
 N376 N 0.57310 -0.01069 0.04886
 C377 C 0.58780 0.00489 0.05171
 C378 C 0.60205 0.00312 0.03580
 C379 C 0.59511 -0.01405 0.02350
 H380 H 0.58813 0.01660 0.06441
 H381 H 0.60235 -0.02016 0.00946
 N382 N 0.52433 -0.02671 0.08205
 N383 N 0.51253 -0.04336 0.07606
 C384 C 0.49732 -0.04634 0.09010
 C385 C 0.49969 -0.03089 0.10557
 C386 C 0.51684 -0.01860 0.10014
 H387 H 0.48536 -0.05881 0.08921
 H388 H 0.52336 -0.00491 0.10875
 H389 H 0.53063 -0.03157 0.04265
 H390 H 0.54753 -0.04906 0.05861
 N391 N 1.02475 0.42486 0.52400
 N392 N 1.04087 0.43052 0.51264
 C393 C 1.04180 0.41716 0.49584
 C394 C 1.02533 0.40263 0.49692
 C395 C 1.01486 0.40785 0.51489
 H396 H 1.05361 0.41777 0.48390
 H397 H 1.00122 0.39972 0.52099
 Cu398 Cu 1.05896 0.45470 0.52121
 Cu399 Cu 1.01772 0.43959 0.54984
 Cu400 Cu 1.04948 0.48262 0.56572
 N401 N 1.07731 0.47830 0.53089
 N402 N 1.07325 0.48935 0.54808
 C403 C 1.08819 0.50467 0.55116
 C404 C 1.10231 0.50302 0.53514
 C405 C 1.09504 0.48622 0.52250
 H406 H 1.08880 0.51608 0.56413
 H407 H 1.10214 0.48026 0.50832
 N408 N 1.02478 0.47307 0.58147
 N409 N 1.01298 0.45642 0.57547
 C410 C 0.99788 0.45333 0.58961
 C411 C 1.00037 0.46867 0.60517
 C412 C 1.01743 0.48105 0.59967
 H413 H 0.98596 0.44083 0.58875
 H414 H 1.02400 0.49469 0.60831
 H415 H 1.03056 0.46853 0.54216
 H416 H 1.04796 0.45094 0.55744
 C417 C 0.36229 0.02192 0.24493
 C418 C 0.34889 0.00219 0.24905
 C419 C 0.36007 -0.01539 0.25239
 C420 C 0.38400 -0.01174 0.25114
 C421 C 0.37789 0.02400 0.26372
 C422 C 0.38894 0.00635 0.26729
 C423 C 0.37606 0.01573 0.22647
 C424 C 0.38726 -0.00198 0.22942
 H425 H 0.33185 0.00224 0.24921
 H426 H 0.39304 -0.02612 0.25398
 H427 H 0.38082 0.03835 0.27299
 H428 H 0.37767 0.02533 0.21274
 C429 C 0.13764 -0.02495 0.74512
 C430 C 0.15043 -0.00451 0.74966
 C431 C 0.13879 0.01254 0.75439
 C432 C 0.11487 0.00770 0.75381
 C433 C 0.12382 -0.02751 0.76440
 C434 C 0.11190 -0.01056 0.76915
 C435 C 0.12212 -0.01930 0.72734
 C436 C 0.11003 -0.00245 0.73182
 H437 H 0.16744 -0.00362 0.74886
 H438 H 0.10542 0.02165 0.75762
 H439 H 0.12306 -0.04199 0.77300
 H440 H 0.12107 -0.02717 0.71210
 C441 C 0.63744 0.47456 0.24588
 C442 C 0.65025 0.49523 0.24893
 C443 C 0.63864 0.51246 0.25303
 C444 C 0.61484 0.50747 0.25389
 C445 C 0.62441 0.47291 0.26581
 C446 C 0.61255 0.48999 0.27017
 C447 C 0.62116 0.47927 0.22842
 C448 C 0.60932 0.49639 0.23252
 H449 H 0.66724 0.49605 0.24782
 H450 H 0.60541 0.52153 0.25728
 H451 H 0.62382 0.45876 0.27493
 H452 H 0.61966 0.47084 0.21349
 C453 C 0.86180 0.52188 0.74204
 C454 C 0.84852 0.50212 0.74648
 C455 C 0.85984 0.48483 0.75068
 C456 C 0.88376 0.48872 0.74987
 C457 C 0.87694 0.52471 0.76107
 C458 C 0.88818 0.50739 0.76552
 C459 C 0.87600 0.51519 0.72403
 C460 C 0.88733 0.49776 0.72791
 H461 H 0.83147 0.50190 0.74604
 H462 H 0.89291 0.47455 0.75330
 H463 H 0.87856 0.53933 0.77023
 H464 H 0.87844 0.52419 0.71008
 C465 C 0.24221 0.36149 0.02067
 C466 C 0.24476 0.34931 -0.00014
 C467 C 0.24859 0.36161 -0.01691
 C468 C 0.24959 0.38538 -0.01136
 C469 C 0.26214 0.37550 0.02329
 C470 C 0.26603 0.38815 0.00677
 C471 C 0.22465 0.37691 0.01579
 C472 C 0.22857 0.38955 -0.00074
 H473 H 0.24361 0.33227 -0.00143
 H474 H 0.25263 0.39554 -0.02496
 H475 H 0.27206 0.37559 0.03740
 H476 H 0.20994 0.37750 0.02383
 C477 C 0.74903 0.13664 -0.02571
 C478 C 0.75241 0.14980 -0.00532
 C479 C 0.75535 0.13842 0.01231
 C480 C 0.75500 0.11444 0.00791
 C481 C 0.76825 0.12254 -0.02666
 C482 C 0.77162 0.11104 -0.00912
 C483 C 0.73077 0.12127 -0.02114
 C484 C 0.73353 0.10989 -0.00343
 H485 H 0.75244 0.16686 -0.00501
 H486 H 0.75750 0.10522 0.02230
 H487 H 0.77762 0.12045 -0.04047
 H488 H 0.71678 0.11970 -0.03119
 C489 C 0.24921 0.63661 0.47418
 C490 C 0.25255 0.64979 0.49455
 C491 C 0.25546 0.63844 0.51220
 C492 C 0.25518 0.61446 0.50784
 C493 C 0.26845 0.62254 0.47327
 C494 C 0.27182 0.61105 0.49082
 C495 C 0.23097 0.62123 0.47875
 C496 C 0.23373 0.60986 0.49647
 H497 H 0.25246 0.66686 0.49487
 H498 H 0.25767 0.60529 0.52226
 H499 H 0.27779 0.62039 0.45944
 H500 H 0.21697 0.61964 0.46871
 C501 C 0.74555 0.86212 0.52212
 C502 C 0.74865 0.84943 0.50167
 C503 C 0.75076 0.86128 0.48430
 C504 C 0.75005 0.88514 0.48894
 C505 C 0.76458 0.87760 0.52357
 C506 C 0.76681 0.88979 0.50642
 C507 C 0.72684 0.87602 0.51734
 C508 C 0.72902 0.88803 0.50002
 H509 H 0.74910 0.83238 0.50107
 H510 H 0.75195 0.89476 0.47475
 H511 H 0.77560 0.87912 0.53672
 H512 H 0.71345 0.87691 0.52752
 C513 C 0.02149 0.24596 0.35989
 C514 C 0.00071 0.24865 0.34778
 C515 C -0.01630 0.25073 0.36015
 C516 C -0.01096 0.25045 0.38391
 C517 C 0.02320 0.26531 0.37495
 C518 C 0.00647 0.26750 0.38769
 C519 C 0.01726 0.22739 0.37420
 C520 C 0.00044 0.22964 0.38690
 H521 H -0.00037 0.24905 0.33074
 H522 H -0.02469 0.25253 0.39412
 H523 H 0.03606 0.27679 0.37548
 H524 H 0.02689 0.21360 0.37407
 C525 C -0.02513 0.74852 0.13751
 C526 C -0.00444 0.75156 0.15015
 C527 C 0.01288 0.75457 0.13831
 C528 C 0.00791 0.75462 0.11447
 C529 C -0.02620 0.76799 0.12368
 C530 C -0.00896 0.77137 0.11174
 C531 C -0.02113 0.73040 0.12180
 C532 C -0.00386 0.73334 0.10975
 H533 H -0.00370 0.75141 0.16720
 H534 H 0.02195 0.75737 0.10480
 H535 H -0.03998 0.77736 0.12184
 H536 H -0.03077 0.71606 0.12110
 C537 C 0.47485 0.24839 0.63810
 C538 C 0.49549 0.25144 0.65079
 C539 C 0.51286 0.25441 0.63902
 C540 C 0.50796 0.25447 0.61516
 C541 C 0.47381 0.26785 0.62425
 C542 C 0.49109 0.27122 0.61235
 C543 C 0.47889 0.23026 0.62241
 C544 C 0.49620 0.23319 0.61040
 H545 H 0.49615 0.25129 0.66785
 H546 H 0.52204 0.25722 0.60553
 H547 H 0.46002 0.27719 0.62234
 H548 H 0.46925 0.21592 0.62170
 C549 C 0.52156 0.74595 0.86143
 C550 C 0.50125 0.74918 0.84869
 C551 C 0.48384 0.75130 0.86048
 C552 C 0.48832 0.75048 0.88436
 C553 C 0.52307 0.76495 0.87694
 C554 C 0.50590 0.76719 0.88909
 C555 C 0.51656 0.72718 0.87527
 C556 C 0.49921 0.72937 0.88724
 H557 H 0.50076 0.74974 0.83165
 H558 H 0.47411 0.75238 0.89395
 H559 H 0.53623 0.77602 0.87840
 H560 H 0.52664 0.71376 0.87617
 C561 C 0.05395 0.22183 0.31605
 C562 C 0.07296 0.23333 0.31823
 C563 C 0.07571 0.24878 0.33419
 C564 C 0.05940 0.25301 0.34783
 C565 C 0.13534 0.22131 0.26725
 C566 C 0.03758 0.22602 0.32966
 C567 C 0.08974 0.22945 0.30410
 C568 C 0.10399 0.22661 0.29237
 C569 C 0.12083 0.22366 0.27877
 C570 C 0.03986 0.24196 0.34551
 H571 H 0.05175 0.20966 0.30384
 H572 H 0.09053 0.25756 0.33614
 H573 H 0.06257 0.26472 0.36016
 H574 H 0.02300 0.21683 0.32778
 C575 C 0.55484 0.72127 0.81863
 C576 C 0.57339 0.73358 0.82018
 C577 C 0.57561 0.74979 0.83542
 C578 C 0.55922 0.75395 0.84898
 C579 C 0.63542 0.72178 0.76879
 C580 C 0.53841 0.72536 0.83218
 C581 C 0.59016 0.72983 0.80602
 C582 C 0.60435 0.72706 0.79421
 C583 C 0.62106 0.72414 0.78047
 C584 C 0.54019 0.74195 0.84740
 H585 H 0.55303 0.70859 0.80690
 H586 H 0.59004 0.75929 0.83679
 H587 H 0.56192 0.76652 0.86052
 H588 H 0.52413 0.71566 0.83070
 C589 C 0.43807 0.74465 0.82165
 C590 C 0.42446 0.75986 0.82916
 C591 C 0.42949 0.77119 0.84792
 C592 C 0.44849 0.76780 0.85873
 C593 C 0.36162 0.77590 0.77762
 C594 C 0.45707 0.74138 0.83232
 C595 C 0.40623 0.76472 0.81658
 C596 C 0.39164 0.76858 0.80503
 C597 C 0.37523 0.77274 0.79056
 C598 C 0.46270 0.75329 0.85068
 H599 H 0.43429 0.73573 0.80720
 H600 H 0.41906 0.78304 0.85384
 H601 H 0.45245 0.77716 0.87280
 H602 H 0.46754 0.72977 0.82600
 C603 C -0.06285 0.24351 0.32250
 C604 C -0.07603 0.25923 0.32972
 C605 C -0.07061 0.27091 0.34819
 C606 C -0.05155 0.26742 0.35888
 C607 C -0.13767 0.27575 0.27697
 C608 C -0.04382 0.24015 0.33303
 C609 C -0.09403 0.26434 0.31695
 C610 C -0.10834 0.26830 0.30508
 C611 C -0.12436 0.27253 0.29021
 C612 C -0.03771 0.25248 0.35098
 H613 H -0.06693 0.23433 0.30828
 H614 H -0.08071 0.28315 0.35389
 H615 H -0.04721 0.27711 0.37263
 H616 H -0.03360 0.22824 0.32685
 C617 C -0.07607 0.75347 0.16902
 C618 C -0.07648 0.73443 0.17957
 C619 C -0.06035 0.72023 0.17660
 C620 C -0.04402 0.72496 0.16299
 C621 C -0.13865 0.71962 0.23096
 C622 C -0.05974 0.75828 0.15542
 C623 C -0.09335 0.72969 0.19360
 C624 C -0.10759 0.72607 0.20533
 C625 C -0.12435 0.72233 0.21909
 C626 C -0.04357 0.74392 0.15189
 H627 H -0.08833 0.76473 0.17143
 H628 H -0.06034 0.70553 0.18488
 H629 H -0.03159 0.71379 0.16116
 H630 H -0.05991 0.77342 0.14817
 C631 C 0.42395 0.25348 0.66964
 C632 C 0.42351 0.23444 0.68020
 C633 C 0.43958 0.22019 0.67720
 C634 C 0.45589 0.22486 0.66354
 C635 C 0.36165 0.21963 0.73196
 C636 C 0.44026 0.25822 0.65599
 C637 C 0.40670 0.22976 0.69433
 C638 C 0.39254 0.22616 0.70614
 C639 C 0.37589 0.22238 0.72002
 C640 C 0.45638 0.24381 0.65243
 H641 H 0.41175 0.26478 0.67209
 H642 H 0.43958 0.20550 0.68550
 H643 H 0.46829 0.21366 0.66170
 H644 H 0.44014 0.27337 0.64876
 C645 C 0.56871 0.27426 0.65213
 C646 C 0.57321 0.26307 0.67036
 C647 C 0.55863 0.24805 0.67726
 C648 C 0.53935 0.24475 0.66656
 C649 C 0.63816 0.27755 0.72214
 C650 C 0.54934 0.27091 0.64130
 C651 C 0.59200 0.26765 0.68302
 C652 C 0.60705 0.27105 0.69470
 C653 C 0.62403 0.27466 0.70926
 C654 C 0.53426 0.25651 0.64878
 H655 H 0.57991 0.28591 0.64661
 H656 H 0.56196 0.23920 0.69124
 H657 H 0.52827 0.23318 0.67242
 H658 H 0.54583 0.28017 0.62765
 C659 C 0.06869 0.77468 0.15122
 C660 C 0.07338 0.76336 0.16933
 C661 C 0.05892 0.74822 0.17622
 C662 C 0.03958 0.74491 0.16565
 C663 C 0.13857 0.77776 0.22084
 C664 C 0.04926 0.77130 0.14050
 C665 C 0.09226 0.76791 0.18187
 C666 C 0.10737 0.77131 0.19347
 C667 C 0.12442 0.77490 0.20797
 C668 C 0.03431 0.75676 0.14798
 H669 H 0.07978 0.78643 0.14571
 H670 H 0.06239 0.73929 0.19012
 H671 H 0.02859 0.73324 0.17148
 H672 H 0.04560 0.78062 0.12694
 C673 C 0.33064 0.07187 0.25329
 C674 C 0.32041 0.07321 0.23369
 C675 C 0.32395 0.05827 0.21772
 C676 C 0.33779 0.04201 0.22135
 C677 C 0.26824 0.13445 0.22244
 C678 C 0.34443 0.05562 0.25699
 C679 C 0.30593 0.08969 0.23026
 C680 C 0.29386 0.10365 0.22769
 C681 C 0.27994 0.12016 0.22487
 C682 C 0.34857 0.04066 0.24091
 H683 H 0.32768 0.08321 0.26585
 H684 H 0.31584 0.05902 0.20257
 H685 H 0.33982 0.03028 0.20894
 H686 H 0.35120 0.05465 0.27267
 C687 C 0.83181 0.56717 0.71716
 C688 C 0.82099 0.57477 0.73454
 C689 C 0.82345 0.56542 0.75405
 C690 C 0.83678 0.54852 0.75620
 C691 C 0.76968 0.63700 0.72473
 C692 C 0.84516 0.55024 0.71924
 C693 C 0.80702 0.59189 0.73222
 C694 C 0.79525 0.60618 0.73010
 C695 C 0.78146 0.62281 0.72735
 C696 C 0.84805 0.54080 0.73891
 H697 H 0.82975 0.57420 0.70192
 H698 H 0.81495 0.57107 0.76755
 H699 H 0.83822 0.54131 0.77141
 H700 H 0.85265 0.54457 0.70524
 C701 C 0.82088 0.44552 0.77221
 C702 C 0.82782 0.42657 0.76357
 C703 C 0.84607 0.42644 0.75164
 C704 C 0.85703 0.44538 0.74793
 C705 C 0.77659 0.36171 0.77402
 C706 C 0.83169 0.46438 0.76846
 C707 C 0.81529 0.40767 0.76618
 C708 C 0.80375 0.39260 0.76854
 C709 C 0.78937 0.37570 0.77144
 C710 C 0.84963 0.46455 0.75598
 H711 H 0.80682 0.44578 0.78151
 H712 H 0.85155 0.41182 0.74484
 H713 H 0.87076 0.44515 0.73817
 H714 H 0.82588 0.47888 0.77517
 C715 C 0.34582 -0.07372 0.25191
 C716 C 0.32782 -0.07383 0.26422
 C717 C 0.32118 -0.05507 0.27356
 C718 C 0.33207 -0.03615 0.27016
 C719 C 0.27704 -0.13928 0.27380
 C720 C 0.35683 -0.05474 0.24855
 C721 C 0.31531 -0.09280 0.26656
 C722 C 0.30388 -0.10800 0.26868
 C723 C 0.28967 -0.12511 0.27135
 C724 C 0.34976 -0.03574 0.25731
 H725 H 0.35104 -0.08818 0.24456
 H726 H 0.30732 -0.05498 0.28315
 H727 H 0.32652 -0.02179 0.27742
 H728 H 0.37035 -0.05479 0.23851
 C729 C 0.18069 -0.06497 0.75416
 C730 C 0.17956 -0.07729 0.73556
 C731 C 0.16449 -0.07308 0.71999
 C732 C 0.15069 -0.05655 0.72282
 C733 C 0.23127 -0.13954 0.72311
 C734 C 0.16691 -0.04841 0.75706
 C735 C 0.19382 -0.09427 0.73236
 C736 C 0.20567 -0.10852 0.72948
 C737 C 0.21948 -0.12525 0.72601
 C738 C 0.15178 -0.04373 0.74138
 H739 H 0.19228 -0.06807 0.76638
 H740 H 0.16342 -0.08258 0.70555
 H741 H 0.13939 -0.05419 0.71027
 H742 H 0.16817 -0.03902 0.77156
 C743 C 0.66474 0.42648 0.22125
 C744 C 0.67974 0.42243 0.23694
 C745 C 0.68065 0.43481 0.25551
 C746 C 0.66672 0.45129 0.25824
 C747 C 0.73215 0.36096 0.22366
 C748 C 0.65081 0.44290 0.22392
 C749 C 0.69426 0.40568 0.23374
 C750 C 0.70626 0.39161 0.23066
 C751 C 0.72024 0.37509 0.22684
 C752 C 0.65162 0.45575 0.24245
 H753 H 0.66389 0.41697 0.20681
 H754 H 0.69219 0.43184 0.26782
 H755 H 0.66787 0.46079 0.27267
 H756 H 0.63973 0.44524 0.21118
 C757 C 0.65227 0.56770 0.27446
 C758 C 0.66987 0.57292 0.26257
 C759 C 0.67621 0.55902 0.24667
 C760 C 0.66557 0.53968 0.24315
 C761 C 0.72118 0.63829 0.27779
 C762 C 0.64149 0.54829 0.27087
 C763 C 0.68246 0.59177 0.26729
 C764 C 0.69402 0.60692 0.27087
 C765 C 0.70843 0.62404 0.27471
 C766 C 0.64841 0.53388 0.25553
 H767 H 0.64722 0.57835 0.28683
 H768 H 0.68972 0.56291 0.23729
 H769 H 0.67097 0.52912 0.23089
 H770 H 0.62835 0.54421 0.28064
 C771 C 0.15193 0.07129 0.75517
 C772 C 0.17095 0.07211 0.76683
 C773 C 0.17853 0.05376 0.77558
 C774 C 0.16760 0.03456 0.77213
 C775 C 0.22181 0.13863 0.77648
 C776 C 0.14087 0.05202 0.75181
 C777 C 0.18348 0.09135 0.76912
 C778 C 0.19495 0.10677 0.77122
 C779 C 0.20920 0.12417 0.77393
 C780 C 0.14888 0.03339 0.75984
 H781 H 0.14592 0.08540 0.74828
 H782 H 0.19317 0.05420 0.78470
 H783 H 0.17398 0.02053 0.77883
 H784 H 0.12661 0.05160 0.74222
 C785 C 0.22089 0.33487 0.06994
 C786 C 0.23608 0.31980 0.07330
 C787 C 0.25311 0.31839 0.05992
 C788 C 0.25483 0.33195 0.04307
 C789 C 0.22562 0.26879 0.13590
 C790 C 0.22256 0.34847 0.05315
 C791 C 0.23395 0.30573 0.09043
 C792 C 0.23167 0.29403 0.10480
 C793 C 0.22854 0.28041 0.12158
 C794 C 0.23947 0.34707 0.03924
 H795 H 0.20771 0.33613 0.08037
 H796 H 0.26504 0.30682 0.06247
 H797 H 0.26820 0.33065 0.03292
 H798 H 0.21055 0.35997 0.05155
 C799 C 0.74997 0.83540 0.57578
 C800 C 0.73367 0.82024 0.57362
 C801 C 0.72106 0.81906 0.55530
 C802 C 0.72495 0.83286 0.53902
 C803 C 0.72207 0.76801 0.63504
 C804 C 0.75393 0.84921 0.55954
 C805 C 0.73011 0.80579 0.59020
 C806 C 0.72743 0.79375 0.60422
 C807 C 0.72452 0.77980 0.62077
 C808 C 0.74163 0.84798 0.54071
 H809 H 0.75971 0.83649 0.59004
 H810 H 0.70831 0.80740 0.55353
 H811 H 0.71504 0.83162 0.52490
 H812 H 0.76663 0.86062 0.56216
 C813 C 0.77065 0.84872 0.42980
 C814 C 0.75921 0.83002 0.42470
 C815 C 0.74388 0.82261 0.43829
 C816 C 0.74063 0.83327 0.45735
 C817 C 0.77604 0.77785 0.36240
 C818 C 0.76727 0.85953 0.44887
 C819 C 0.76420 0.81733 0.40653
 C820 C 0.76823 0.80563 0.39205
 C821 C 0.77265 0.79097 0.37583
 C822 C 0.75267 0.85154 0.46307
 H823 H 0.78259 0.85456 0.41939
 H824 H 0.73488 0.80821 0.43445
 H825 H 0.72896 0.82701 0.46783
 H826 H 0.77674 0.87352 0.45289
 C827 C 0.27133 0.34864 -0.07008
 C828 C 0.25890 0.33090 -0.07639
 C829 C 0.24200 0.32452 -0.06418
 C830 C 0.23809 0.33517 -0.04526
 C831 C 0.27598 0.27838 -0.13842
 C832 C 0.26733 0.35944 -0.05113
 C833 C 0.26426 0.31805 -0.09435
 C834 C 0.26839 0.30623 -0.10872
 C835 C 0.27272 0.29149 -0.12493
 C836 C 0.25106 0.35239 -0.03828
 H837 H 0.28451 0.35368 -0.07940
 H838 H 0.23224 0.31085 -0.06893
 H839 H 0.22523 0.32963 -0.03580
 H840 H 0.27760 0.37255 -0.04606
 C841 C 0.75453 0.16799 -0.07673
 C842 C 0.73549 0.17849 -0.07730
 C843 C 0.72101 0.17529 -0.06140
 C844 C 0.72550 0.16162 -0.04509
 C845 C 0.72034 0.23090 -0.13847
 C846 C 0.75909 0.15430 -0.06042
 C847 C 0.73101 0.19279 -0.09399
 C848 C 0.72741 0.20478 -0.10799
 C849 C 0.72343 0.21885 -0.12442
 C850 C 0.74449 0.15066 -0.04442
 H851 H 0.76600 0.17057 -0.08880
 H852 H 0.70630 0.18349 -0.06151
 H853 H 0.71415 0.15972 -0.03280
 H854 H 0.77426 0.14715 -0.06037
 C855 C 0.22125 0.67534 0.43855
 C856 C 0.23574 0.67857 0.42267
 C857 C 0.25476 0.66801 0.42320
 C858 C 0.25928 0.65427 0.43948
 C859 C 0.22072 0.73140 0.36180
 C860 C 0.22570 0.66161 0.45482
 C861 C 0.23130 0.69299 0.40606
 C862 C 0.22772 0.70508 0.39214
 C863 C 0.22377 0.71927 0.37580
 C864 C 0.24468 0.65062 0.45547
 H865 H 0.20656 0.68357 0.43848
 H866 H 0.26624 0.67060 0.41114
 H867 H 0.27444 0.64709 0.43952
 H868 H 0.21436 0.65971 0.46712
 C869 C 0.27429 0.65245 0.56822
 C870 C 0.26302 0.67071 0.57237
 C871 C 0.24837 0.67745 0.55742
 C872 C 0.24551 0.66653 0.53816
 C873 C 0.27703 0.72253 0.63761
 C874 C 0.27137 0.64141 0.54888
 C875 C 0.26716 0.68350 0.59121
 C876 C 0.27040 0.69520 0.60631
 C877 C 0.27403 0.70973 0.62338
 C878 C 0.25732 0.64868 0.53346
 H879 H 0.28566 0.64706 0.57970
 H880 H 0.23946 0.69146 0.56046
 H881 H 0.23417 0.67223 0.52682
 H882 H 0.28066 0.62771 0.54568
 C883 C 0.77473 0.15212 0.06824
 C884 C 0.76368 0.17048 0.07254
 C885 C 0.74904 0.17744 0.05770
 C886 C 0.74594 0.16662 0.03841
 C887 C 0.77819 0.22181 0.13808
 C888 C 0.77159 0.14116 0.04887
 C889 C 0.76802 0.18311 0.09145
 C890 C 0.77139 0.19469 0.10663
 C891 C 0.77513 0.20908 0.12379
 C892 C 0.75751 0.14863 0.03358
 H893 H 0.78611 0.14656 0.07963
 H894 H 0.74030 0.19153 0.06086
 H895 H 0.73461 0.17248 0.02717
 H896 H 0.78071 0.12738 0.04557
 C897 C 0.50142 0.30252 0.56310
 C898 C 0.49180 0.32156 0.56811
 C899 C 0.48305 0.32442 0.58794
 C900 C 0.48338 0.30827 0.60245
 C901 C 0.48009 0.38313 0.51515
 C902 C 0.50182 0.28628 0.57769
 C903 C 0.48988 0.33795 0.55283
 C904 C 0.48741 0.35199 0.54055
 C905 C 0.48373 0.36872 0.52667
 C906 C 0.49245 0.28886 0.59741
 H907 H 0.50824 0.30006 0.54780
 H908 H 0.47562 0.33905 0.59209
 H909 H 0.47634 0.31093 0.61761
 H910 H 0.50875 0.27149 0.57325
 C911 C 0.00133 0.80266 0.06251
 C912 C -0.00823 0.82173 0.06756
 C913 C -0.01695 0.82459 0.08740
 C914 C -0.01663 0.80843 0.10190
 C915 C -0.01989 0.88336 0.01474
 C916 C 0.00171 0.78642 0.07709
 C917 C -0.01012 0.83815 0.05231
 C918 C -0.01257 0.85219 0.04006
 C919 C -0.01625 0.86892 0.02620
 C920 C -0.00760 0.78901 0.09682
 H921 H 0.00812 0.80019 0.04720
 H922 H -0.02432 0.83924 0.09158
 H923 H -0.02364 0.81109 0.11707
 H924 H 0.00860 0.77161 0.07262
 C925 C -0.00500 0.68654 0.07115
 C926 C 0.01636 0.68440 0.06716
 C927 C 0.03119 0.69868 0.07657
 C928 C 0.02466 0.71485 0.09017
 C929 C 0.03377 0.61981 0.01759
 C930 C -0.01156 0.70269 0.08458
 C931 C 0.02272 0.66722 0.05367
 C932 C 0.02701 0.65246 0.04235
 C933 C 0.03102 0.63490 0.02905
 C934 C 0.00318 0.71695 0.09447
 H935 H -0.01662 0.67560 0.06397
 H936 H 0.04780 0.69717 0.07362
 H937 H 0.03649 0.72528 0.09772
 H938 H -0.02824 0.70395 0.08716
 C939 C 0.49511 0.18636 0.57185
 C940 C 0.51646 0.18427 0.56780
 C941 C 0.53128 0.19858 0.57719
 C942 C 0.52474 0.21474 0.59080
 C943 C 0.53377 0.12011 0.51761
 C944 C 0.48854 0.20251 0.58527
 C945 C 0.52278 0.16720 0.55414
 C946 C 0.52701 0.15256 0.54265
 C947 C 0.53098 0.13512 0.52915
 C948 C 0.50326 0.21681 0.59514
 H949 H 0.48348 0.17541 0.56468
 H950 H 0.54789 0.19711 0.57419
 H951 H 0.53656 0.22521 0.59829
 H952 H 0.47186 0.20375 0.58785
 C953 C -0.03177 0.19587 0.42342
 C954 C -0.01607 0.18381 0.43257
 C955 C 0.00486 0.18680 0.42692
 C956 C 0.01020 0.20178 0.41221
 C957 C -0.02893 0.12302 0.48534
 C958 C -0.02646 0.21086 0.40852
 C959 C -0.02108 0.16792 0.44744
 C960 C -0.02418 0.15415 0.45973
 C961 C -0.02692 0.13757 0.47374
 C962 C -0.00540 0.21390 0.40270
 H963 H -0.04807 0.19358 0.42764
 H964 H 0.01709 0.17750 0.43390
 H965 H 0.02662 0.20395 0.40849
 H966 H -0.03888 0.21972 0.40133
 C967 C 0.47847 0.70374 0.93613
 C968 C 0.48231 0.68251 0.93165
 C969 C 0.49066 0.67654 0.91231
 C970 C 0.49561 0.69174 0.89765
 C971 C 0.47153 0.62173 0.98504
 C972 C 0.48348 0.71904 0.92146
 C973 C 0.47857 0.66673 0.94702
 C974 C 0.47605 0.65296 0.95944
 C975 C 0.47355 0.63631 0.97346
 C976 C 0.49240 0.71320 0.90219
 H977 H 0.47200 0.70851 0.95109
 H978 H 0.49364 0.66015 0.90868
 H979 H 0.50209 0.68668 0.88281
 H980 H 0.48103 0.73544 0.92551
 C981 C 0.48783 0.81224 0.92393
 C982 C 0.50653 0.81767 0.93515
 C983 C 0.52429 0.80550 0.93258
 C984 C 0.52373 0.78857 0.91816
 C985 C 0.51983 0.88514 0.98358
 C986 C 0.48721 0.79513 0.90950
 C987 C 0.50831 0.83633 0.94843
 C988 C 0.51115 0.85194 0.95942
 C989 C 0.51559 0.86999 0.97231
 C990 C 0.50538 0.78359 0.90603
 H991 H 0.47395 0.82153 0.92590
 H992 H 0.53877 0.80944 0.94134
 H993 H 0.53780 0.77959 0.91622
 H994 H 0.47287 0.79154 0.90049
 C995 C -0.01118 0.31220 0.42324
 C996 C 0.00773 0.31775 0.43404
 C997 C 0.02561 0.30593 0.43079
 C998 C 0.02492 0.28918 0.41615
 C999 C 0.02053 0.38491 0.48301
 C1000 C -0.01193 0.29526 0.40862
 C1001 C 0.00951 0.33621 0.44759
 C1002 C 0.01225 0.35171 0.45874
 C1003 C 0.01649 0.36973 0.47173
 C1004 C 0.00630 0.28402 0.40453
 H1005 H -0.02514 0.32123 0.42572
 H1006 H 0.04025 0.30997 0.43923
 H1007 H 0.03905 0.28041 0.41373
 H1008 H -0.02647 0.29151 0.40002
 C1009 C 0.32518 0.58695 0.48288
 C1010 C 0.32254 0.56731 0.49208
 C1011 C 0.30368 0.56245 0.50213
 C1012 C 0.28738 0.57693 0.50243
 C1013 C 0.38395 0.51424 0.48026
 C1014 C 0.30894 0.60133 0.48309
 C1015 C 0.33893 0.55203 0.49020
 C1016 C 0.35291 0.53971 0.48774
 C1017 C 0.36957 0.52574 0.48402
 C1018 C 0.28965 0.59637 0.49249
 H1019 H 0.33969 0.59102 0.47516
 H1020 H 0.30138 0.54731 0.50933
 H1021 H 0.27281 0.57255 0.50974
 H1022 H 0.31143 0.61632 0.47568
 C1023 C 0.82516 0.08728 -0.01691
 C1024 C 0.82257 0.06757 -0.00786
 C1025 C 0.80367 0.06254 0.00206
 C1026 C 0.78730 0.07694 0.00237
 C1027 C 0.88410 0.01468 -0.01997
 C1028 C 0.80884 0.10158 -0.01669
 C1029 C 0.83904 0.05238 -0.00979
 C1030 C 0.85306 0.04011 -0.01233
 C1031 C 0.86973 0.02619 -0.01615
 C1032 C 0.78952 0.09645 -0.00742
 H1033 H 0.83970 0.09149 -0.02452
 H1034 H 0.80141 0.04736 0.00916
 H1035 H 0.77268 0.07244 0.00956
 H1036 H 0.81129 0.11663 -0.02401
 C1037 C 0.70513 0.06365 0.02165
 C1038 C 0.68404 0.06837 0.01764
 C1039 C 0.67921 0.08711 0.00780
 C1040 C 0.69529 0.10075 0.00139
 C1041 C 0.62021 0.01663 0.03260
 C1042 C 0.72131 0.07736 0.01528
 C1043 C 0.66722 0.05377 0.02272
 C1044 C 0.65269 0.04184 0.02626
 C1045 C 0.63528 0.02813 0.02982
 C1046 C 0.71658 0.09583 0.00462
 H1047 H 0.70909 0.04923 0.02937
 H1048 H 0.66296 0.09107 0.00481
 H1049 H 0.69100 0.11516 -0.00611
 H1050 H 0.73743 0.07316 0.01819
 C1051 C 0.17949 0.58693 0.50774
 C1052 C 0.18440 0.56819 0.51755
 C1053 C 0.20551 0.56354 0.52154
 C1054 C 0.22163 0.57731 0.51517
 C1055 C 0.12060 0.51637 0.53209
 C1056 C 0.19552 0.60062 0.50132
 C1057 C 0.16766 0.55352 0.52257
 C1058 C 0.15316 0.54153 0.52603
 C1059 C 0.13573 0.52782 0.52946
 C1060 C 0.21683 0.59577 0.50453
 H1061 H 0.16323 0.59083 0.50476
 H1062 H 0.20952 0.54912 0.52923
 H1063 H 0.23776 0.57315 0.51807
 H1064 H 0.19118 0.61502 0.49382
 C1065 C 0.18836 0.43203 0.00294
 C1066 C 0.18448 0.43619 -0.01825
 C1067 C 0.19566 0.42570 -0.03392
 C1068 C 0.21045 0.41075 -0.02830
 C1069 C 0.12218 0.48701 -0.03094
 C1070 C 0.20301 0.41718 0.00854
 C1071 C 0.16826 0.45058 -0.02347
 C1072 C 0.15410 0.46239 -0.02655
 C1073 C 0.13706 0.47584 -0.02913
 C1074 C 0.21398 0.40614 -0.00700
 H1075 H 0.17980 0.44006 0.01516
 H1076 H 0.19269 0.42879 -0.05040
 H1077 H 0.21859 0.40238 -0.04059
 H1078 H 0.20570 0.41430 0.02510
 C1079 C 0.67637 0.91328 0.49189
 C1080 C 0.68241 0.93265 0.48366
 C1081 C 0.70362 0.93707 0.47967
 C1082 C 0.71883 0.92232 0.48449
 C1083 C 0.62224 0.98647 0.47286
 C1084 C 0.69148 0.89854 0.49665
 C1085 C 0.66676 0.94812 0.48011
 C1086 C 0.65313 0.96066 0.47768
 C1087 C 0.63668 0.97483 0.47512
 C1088 C 0.71293 0.90305 0.49337
 H1089 H 0.65997 0.90966 0.49492
 H1090 H 0.70843 0.95203 0.47324
 H1091 H 0.73521 0.92633 0.48191
 H1092 H 0.68637 0.88367 0.50303
 C1093 C 0.80501 0.93342 0.52473
 C1094 C 0.81717 0.93599 0.50691
 C1095 C 0.81181 0.92468 0.48821
 C1096 C 0.79476 0.91018 0.48765
 C1097 C 0.88477 0.98423 0.51999
 C1098 C 0.78815 0.91892 0.52423
 C1099 C 0.83580 0.94930 0.50864
 C1100 C 0.85143 0.96026 0.51145
 C1101 C 0.86953 0.97307 0.51583
 C1102 C 0.78320 0.90674 0.50587
 H1103 H 0.80893 0.94221 0.53923
 H1104 H 0.82111 0.92663 0.47429
 H1105 H 0.79123 0.90109 0.47333
 H1106 H 0.77919 0.91697 0.53836
 C1107 C 0.31125 0.42386 -0.00989
 C1108 C 0.31768 0.43332 0.00947
 C1109 C 0.30665 0.42876 0.02763
 C1110 C 0.28965 0.41438 0.02663
 C1111 C 0.38438 0.48334 0.02123
 C1112 C 0.29413 0.40945 -0.01094
 C1113 C 0.33596 0.44719 0.01119
 C1114 C 0.35131 0.45863 0.01368
 C1115 C 0.36921 0.47193 0.01751
 C1116 C 0.28343 0.40423 0.00740
 H1117 H 0.31964 0.42736 -0.02408
 H1118 H 0.31135 0.43615 0.04266
 H1119 H 0.28137 0.41125 0.04095
 H1120 H 0.28968 0.40205 -0.02596
 C1121 C 0.58823 0.47951 0.32317
 C1122 C 0.56899 0.48955 0.32129
 C1123 C 0.56436 0.50055 0.30297
 C1124 C 0.57869 0.50113 0.28652
 C1125 C 0.51571 0.47897 0.38295
 C1126 C 0.60255 0.48009 0.30680
 C1127 C 0.55388 0.48782 0.33789
 C1128 C 0.54154 0.48565 0.35194
 C1129 C 0.52741 0.48236 0.36859
 C1130 C 0.59788 0.49067 0.28813
 H1131 H 0.59208 0.47098 0.33723
 H1132 H 0.54952 0.50836 0.30125
 H1133 H 0.57442 0.50918 0.27231
 H1134 H 0.61728 0.47216 0.30878
 C1135 C 0.06402 -0.00010 0.80242
 C1136 C 0.06858 -0.01153 0.82047
 C1137 C 0.08757 -0.02207 0.82193
 C1138 C 0.10175 -0.02145 0.80544
 C1139 C 0.01588 -0.02094 0.88283
 C1140 C 0.07821 0.00053 0.78585
 C1141 C 0.05368 -0.01304 0.83728
 C1142 C 0.04148 -0.01492 0.85150
 C1143 C 0.02750 -0.01784 0.86834
 C1144 C 0.09719 -0.01031 0.78708
 H1145 H 0.04936 0.00809 0.80103
 H1146 H 0.09136 -0.03095 0.83578
 H1147 H 0.11634 -0.02968 0.80714
 H1148 H 0.07404 0.00902 0.77189
 C1149 C 0.06893 -0.00351 0.68749
 C1150 C 0.06539 0.01791 0.68511
 C1151 C 0.07548 0.03279 0.69891
 C1152 C 0.08948 0.02621 0.71467
 C1153 C 0.01645 0.03487 0.62012
 C1154 C 0.08289 -0.01006 0.70310
 C1155 C 0.05187 0.02424 0.66800
 C1156 C 0.04065 0.02840 0.65317
 C1157 C 0.02759 0.03222 0.63543
 C1158 C 0.09375 0.00473 0.71660
 H1159 H 0.06111 -0.01519 0.67703
 H1160 H 0.07282 0.04944 0.69727
 H1161 H 0.09739 0.03799 0.72481
 H1162 H 0.08527 -0.02678 0.70448
 C1163 C 0.56827 0.49596 0.18823
 C1164 C 0.56569 0.51747 0.18532
 C1165 C 0.57666 0.53226 0.19856
 C1166 C 0.59047 0.52547 0.21439
 C1167 C 0.51650 0.53454 0.12058
 C1168 C 0.58197 0.48918 0.20397
 C1169 C 0.55221 0.52393 0.16824
 C1170 C 0.54094 0.52813 0.15347
 C1171 C 0.52775 0.53194 0.13581
 C1172 C 0.59349 0.50383 0.21704
 H1173 H 0.55988 0.48437 0.17811
 H1174 H 0.57483 0.54898 0.19642
 H1175 H 0.59928 0.53714 0.22402
 H1176 H 0.58364 0.47240 0.20578
 C1177 C 0.41212 -0.01204 0.17671
 C1178 C 0.43133 -0.02039 0.18286
 C1179 C 0.43537 -0.02462 0.20406
 C1180 C 0.42057 -0.01959 0.21920
 C1181 C 0.48646 -0.02833 0.12334
 C1182 C 0.39739 -0.00696 0.19179
 C1183 C 0.44720 -0.02334 0.16746
 C1184 C 0.46011 -0.02509 0.15404
 C1185 C 0.47465 -0.02675 0.13776
 C1186 C 0.40173 -0.01003 0.21331
 H1187 H 0.40875 -0.00893 0.16029
 H1188 H 0.45017 -0.03123 0.20895
 H1189 H 0.42434 -0.02241 0.23550
 H1190 H 0.38275 -0.00026 0.18659
 C1191 C 0.93663 0.47604 0.70418
 C1192 C 0.93235 0.47860 0.68270
 C1193 C 0.91269 0.48545 0.67598
 C1194 C 0.89768 0.49074 0.69070
 C1195 C 0.98737 0.47104 0.62311
 C1196 C 0.92156 0.48127 0.71897
 C1197 C 0.94839 0.47566 0.66748
 C1198 C 0.96131 0.47399 0.65407
 C1199 C 0.97571 0.47247 0.63768
 C1200 C 0.90220 0.48935 0.71241
 H1201 H 0.95181 0.47063 0.70953
 H1202 H 0.90916 0.48730 0.65937
 H1203 H 0.88270 0.49637 0.68509
 H1204 H 0.92547 0.47988 0.73546
 C1205 C 0.91052 0.51846 0.82057
 C1206 C 0.92982 0.50856 0.81969
 C1207 C 0.93502 0.49703 0.80155
 C1208 C 0.92116 0.49598 0.78407
 C1209 C 0.98258 0.52337 0.88352
 C1210 C 0.89676 0.51751 0.80313
 C1211 C 0.94458 0.51139 0.83708
 C1212 C 0.95668 0.51469 0.85173
 C1213 C 0.97064 0.51926 0.86890
 C1214 C 0.90214 0.50670 0.78448
 H1215 H 0.90628 0.52727 0.83461
 H1216 H 0.94994 0.48926 0.80075
 H1217 H 0.92569 0.48741 0.77010
 H1218 H 0.88194 0.52541 0.80421
 C1219 C 0.43697 -0.00403 0.30162
 C1220 C 0.43158 0.00611 0.32051
 C1221 C 0.41179 0.01486 0.32236
 C1222 C 0.39772 0.01427 0.30519
 C1223 C 0.48439 0.02168 0.38414
 C1224 C 0.42278 -0.00473 0.28437
 C1225 C 0.44660 0.00896 0.33767
 C1226 C 0.45875 0.01242 0.35227
 C1227 C 0.47262 0.01727 0.36946
 C1228 C 0.40327 0.00494 0.28585
 H1229 H 0.45228 -0.01087 0.30004
 H1230 H 0.40741 0.02262 0.33695
 H1231 H 0.38258 0.02142 0.30693
 H1232 H 0.42744 -0.01204 0.26976
   
