data_POSCAR
  _audit_creation_date              2014-09-24
  _audit_creation_method            'ToBaCCo'
  _symmetry_space_group_name_H-M    'P1'
  _symmetry_Int_Tables_number       1
  _symmetry_cell_setting            triclinic
  loop_
  _symmetry_equiv_pos_as_xyz
 x,y,z
_cell_length_a 31.7719
_cell_length_b 30.5970
_cell_length_c 35.5524
_cell_angle_alpha 89.854400
_cell_angle_beta 89.636000
_cell_angle_gamma 90.387800
loop_
  _atom_site_label
  _atom_site_type_symbol
  _atom_site_fract_x
  _atom_site_fract_y
  _atom_site_fract_z
C1 C 0.42245 -0.00086 0.24896
 C2 C 0.07602 -0.00706 0.75043
 C3 C 0.57689 0.49735 0.25425
 C4 C 0.91311 0.50905 0.74799
 C5 C 0.24804 0.33804 1.00120
 C6 C 0.75046 0.16555 0.99421
 C7 C 0.25447 0.66378 0.49814
 C8 C 0.73718 0.84329 0.50530
 C9 C 0.00121 0.25519 0.36971
 C10 C 0.01289 0.74138 0.14470
 C11 C 0.49958 0.25026 0.62892
 C12 C 0.49404 0.75124 0.86529
 C13 C -0.24913 0.66884 1.00307
 C14 C -0.24435 0.34077 0.49445
 C15 C 0.24788 -0.15814 -0.00249
 C16 C 0.23920 1.16871 0.50249
 C17 C 0.08593 0.49943 0.24615
 C18 C -0.08514 1.00314 0.24833
 C19 C 0.41595 0.49491 -0.24812
 C20 C 0.57406 0.00540 -0.25269
 C21 C 0.00088 0.24551 0.87261
 C22 C 0.50209 0.25689 0.13604
 C23 C -0.00336 0.75556 0.63357
 C24 C 0.50131 0.74555 0.36674
 Zr25 Zr 0.01997 -0.04646 1.04432
 O26 O 0.06800 -0.02748 1.08212
 O27 O 0.00554 -0.10786 1.06752
 O28 O -0.00078 -0.03117 1.09992
 O29 O 0.08800 -0.08456 0.97278
 O30 O -0.06091 0.00801 1.09287
 O31 O 0.07940 -0.07732 1.03612
 O32 O -0.05112 -0.13235 1.03441
 O33 O -0.04577 -0.05049 1.04090
 O34 O 0.00650 -0.08526 0.99747
 O35 O -0.00050 0.01852 1.03953
 O36 O 0.05003 -0.01530 0.99832
 Zr37 Zr -0.05306 0.00700 0.94043
 Zr38 Zr -0.06606 0.01386 1.03388
 Zr39 Zr 0.03371 -0.05348 0.95146
 Zr40 Zr -0.05897 -0.08626 0.99216
 O41 O 0.08911 -0.02761 0.92627
 O42 O -0.11785 -0.09640 1.01941
 O43 O -0.03192 -0.05803 0.94398
 O44 O -0.08286 -0.02321 0.98655
 O45 O -0.03960 0.04602 0.98724
 O46 O 0.01272 0.01041 0.94438
 C47 C -0.02367 -0.13593 1.06031
 C48 C 0.10097 -0.08912 1.00680
 C49 C -0.03254 -0.00978 1.11338
 O50 O -0.12363 -0.01156 1.05502
 O51 O -0.11500 0.05237 1.01281
 O52 O -0.10337 0.05259 0.94936
 C53 C -0.12287 0.06603 0.97946
 O54 O 0.07707 0.05834 1.02833
 Zr55 Zr 0.02557 0.04785 0.99148
 O56 O -0.04025 0.06489 0.91358
 O57 O -0.06488 0.07629 1.05946
 O58 O 0.01257 0.10576 1.02192
 O59 O 0.08075 0.06292 0.96004
 O60 O 0.00868 0.09619 0.95186
 C61 C -0.01650 0.09639 0.92354
 O62 O -0.10512 -0.01549 0.90905
 O63 O 0.03491 -0.11789 0.92995
 O64 O -0.03218 -0.00709 0.88427
 O65 O 0.02467 -0.05130 0.89296
 O66 O -0.04546 -0.14702 0.96629
 O67 O -0.10377 -0.09846 0.94923
 C68 C -0.00127 -0.03072 0.87180
 H69 H 0.01815 -0.11510 0.99958
 H70 H -0.11376 -0.02413 0.98310
 H71 H 0.02641 0.02373 0.92201
 H72 H 0.00754 0.03597 1.06180
 H73 H -0.12449 -0.12807 1.01825
 H74 H -0.13591 0.01134 1.07133
 H75 H -0.09111 0.07898 1.07453
 H76 H 0.03005 0.12944 1.01072
 H77 H -0.06625 -0.16873 0.97585
 H78 H 0.06063 -0.12011 0.91417
 H79 H 0.10053 -0.05060 0.90955
 H80 H 0.08454 0.09508 0.96074
 H81 H -0.11955 -0.12570 0.95501
 H82 H -0.11067 0.00742 0.88998
 H83 H 0.07220 -0.05208 1.09997
 H84 H 0.08750 0.08875 1.02547
 Zr85 Zr 0.53850 0.46820 0.55296
 O86 O 0.58324 0.47016 0.59683
 O87 O 0.51715 0.40446 0.56395
 O88 O 0.51409 0.47544 0.60906
 O89 O 0.60999 0.44170 0.47948
 O90 O 0.45677 0.51939 0.60362
 O91 O 0.59701 0.43547 0.54246
 O92 O 0.46595 0.39049 0.52095
 O93 O 0.47333 0.47037 0.54406
 O94 O 0.52823 0.44264 0.49918
 O95 O 0.52187 0.53440 0.55836
 O96 O 0.57508 0.50672 0.51562
 Zr97 Zr 0.47983 0.55148 0.45664
 Zr98 Zr 0.45705 0.53681 0.54678
 Zr99 Zr 0.56112 0.48284 0.46152
 Zr100 Zr 0.46394 0.44741 0.48920
 O101 O 0.61976 0.51030 0.44517
 O102 O 0.40272 0.43456 0.51093
 O103 O 0.49655 0.48539 0.44954
 O104 O 0.44426 0.51182 0.49324
 O105 O 0.49046 0.57777 0.50995
 O106 O 0.54491 0.54876 0.46513
 C107 C 0.48892 0.37993 0.54878
 C108 C 0.61959 0.42806 0.51252
 C109 C 0.48239 0.49667 0.62312
 O110 O 0.39767 0.50988 0.56167
 O111 O 0.40848 0.57860 0.52839
 O112 O 0.42221 0.58505 0.46570
 C113 C 0.39878 0.59129 0.49507
 O114 O 0.60236 0.56515 0.56129
 Zr115 Zr 0.55538 0.57173 0.51937
 O116 O 0.49681 0.61684 0.44984
 O117 O 0.45819 0.59423 0.57982
 O118 O 0.54430 0.62196 0.55919
 O119 O 0.61476 0.58743 0.49508
 O120 O 0.54991 0.63094 0.49086
 C121 C 0.52454 0.64198 0.46487
 O122 O 0.43502 0.54635 0.41290
 O123 O 0.56145 0.42511 0.42877
 O124 O 0.50460 0.54890 0.40118
 O125 O 0.55625 0.49766 0.40381
 O126 O 0.47735 0.39462 0.45255
 O127 O 0.42284 0.44949 0.44226
 C128 C 0.53266 0.52435 0.38567
 H129 H 0.53800 0.41213 0.49663
 H130 H 0.41384 0.51187 0.48749
 H131 H 0.56099 0.56635 0.44647
 H132 H 0.52853 0.54625 0.58350
 H133 H 0.39442 0.40473 0.50296
 H134 H 0.38458 0.53003 0.58008
 H135 H 0.43111 0.59519 0.59380
 H136 H 0.56675 0.64433 0.55592
 H137 H 0.45472 0.37245 0.45582
 H138 H 0.58824 0.42501 0.41430
 H139 H 0.63130 0.49121 0.42519
 H140 H 0.62304 0.61681 0.50422
 H141 H 0.40466 0.42309 0.44233
 H142 H 0.43392 0.57506 0.39979
 H143 H 0.58262 0.44107 0.60931
 H144 H 0.61676 0.59361 0.56493
 Zr145 Zr 0.43823 1.01612 0.55611
 O146 O 0.38879 0.99268 0.59088
 O147 O 0.45039 1.07505 0.58108
 O148 O 0.46300 1.00922 0.61098
 O149 O 0.37390 1.05541 0.48443
 O150 O 0.51986 0.96445 0.60510
 O151 O 0.38484 1.05687 0.54784
 O152 O 0.50632 1.10132 0.54722
 O153 O 0.50400 1.01853 0.55249
 O154 O 0.45312 1.05382 0.50861
 O155 O 0.45846 0.95111 0.55420
 O156 O 0.40736 0.98569 0.51122
 Zr157 Zr 0.51155 0.95844 0.45464
 Zr158 Zr 0.52422 0.95376 0.54681
 Zr159 Zr 0.42629 1.02137 0.46324
 Zr160 Zr 0.51809 1.05470 0.50453
 O161 O 0.37037 0.99603 0.43936
 O162 O 0.57538 1.06455 0.53367
 O163 O 0.49229 1.02443 0.45690
 O164 O 0.54097 0.99115 0.49936
 O165 O 0.49680 0.91988 0.50172
 O166 O 0.44569 0.95690 0.45837
 C167 C 0.47888 1.10341 0.57407
 C168 C 0.36473 1.06843 0.51781
 C169 C 0.49548 0.98928 0.62434
 O170 O 0.58201 0.97707 0.56874
 O171 O 0.57655 0.91791 0.52667
 O172 O 0.57059 0.92656 0.46345
 C173 C 0.59087 0.91363 0.49296
 O174 O 0.37848 0.91392 0.54443
 Zr175 Zr 0.43072 0.92212 0.50737
 O176 O 0.49302 0.89760 0.43284
 O177 O 0.52071 0.89132 0.57229
 O178 O 0.44307 0.86318 0.53650
 O179 O 0.37286 0.90978 0.47978
 O180 O 0.43727 0.87341 0.46780
 C181 C 0.46314 0.87027 0.44056
 O182 O 0.56047 0.96471 0.41411
 O183 O 0.42714 1.08475 0.43920
 O184 O 0.49689 0.98123 0.39997
 O185 O 0.43487 1.01761 0.40452
 O186 O 0.50674 1.11505 0.47709
 O187 O 0.56463 1.06704 0.46254
 C188 C 0.46556 1.00173 0.38539
 H189 H 0.44288 1.08425 0.50984
 H190 H 0.57184 0.99361 0.49608
 H191 H 0.43184 0.94447 0.43590
 H192 H 0.45094 0.93522 0.57758
 H193 H 0.58123 1.09640 0.53363
 H194 H 0.59297 0.95432 0.58596
 H195 H 0.54604 0.88863 0.58822
 H196 H 0.41901 0.84331 0.53145
 H197 H 0.52591 1.13703 0.48835
 H198 H 0.40093 1.08764 0.42445
 H199 H 0.35897 1.01916 0.42280
 H200 H 0.36445 0.87904 0.48497
 H201 H 0.58140 1.09311 0.46964
 H202 H 0.55945 0.93837 0.39777
 H203 H 0.38367 1.01574 0.60986
 H204 H 0.38882 0.90414 0.56923
 Zr205 Zr -0.03324 0.53854 1.04987
 O206 O -0.07829 0.53004 1.09357
 O207 O -0.01237 0.60089 1.06473
 O208 O -0.00928 0.53034 1.10475
 O209 O -0.10276 0.57242 0.97931
 O210 O 0.04586 0.48352 1.09823
 O211 O -0.09172 0.57115 1.04249
 O212 O 0.05168 0.60399 1.03630
 O213 O 0.03210 0.53500 1.04148
 O214 O -0.02101 0.57013 0.99865
 O215 O -0.01738 0.47193 1.05177
 O216 O -0.06946 0.50446 1.01027
 Zr217 Zr 0.02676 0.46350 0.94895
 Zr218 Zr 0.04760 0.46900 1.04033
 Zr219 Zr -0.05352 0.53357 0.95850
 Zr220 Zr 0.04367 0.56406 0.98926
 O221 O -0.11262 0.50970 0.94007
 O222 O 0.10859 0.57347 1.00051
 O223 O 0.01138 0.53046 0.94683
 O224 O 0.06207 0.49881 0.98844
 O225 O 0.01437 0.43262 1.00051
 O226 O -0.03838 0.46707 0.95772
 C227 C 0.02477 0.61683 1.06065
 C228 C -0.11367 0.58131 1.01322
 C229 C 0.02122 0.50758 1.11811
 O230 O 0.10710 0.49365 1.05672
 O231 O 0.09591 0.42789 1.02002
 O232 O 0.08392 0.42722 0.95688
 C233 C 0.10624 0.41718 0.98623
 O234 O -0.09892 0.44362 1.05162
 Zr235 Zr -0.05055 0.43923 1.01024
 O236 O 0.00685 0.39987 0.93636
 O237 O 0.04483 0.40922 1.07028
 O238 O -0.04215 0.38600 1.04777
 O239 O -0.10886 0.42552 0.98385
 O240 O -0.04381 0.38232 0.97958
 C241 C -0.01982 0.37343 0.95183
 O242 O 0.07260 0.46968 0.90572
 O243 O -0.04979 0.59419 0.92979
 O244 O 0.00312 0.47589 0.89375
 O245 O -0.05134 0.52349 0.90041
 O246 O 0.02994 0.62660 0.96694
 O247 O 0.08244 0.57398 0.94113
 C248 C -0.02687 0.49991 0.88034
 H249 H -0.03056 0.60087 0.99900
 H250 H 0.09254 0.49839 0.98261
 H251 H -0.05447 0.45165 0.93796
 H252 H -0.02478 0.45856 1.07633
 H253 H 0.11493 0.60509 0.99745
 H254 H 0.11890 0.47241 1.07486
 H255 H 0.07108 0.40745 1.08511
 H256 H -0.06497 0.36448 1.04306
 H257 H 0.05405 0.64568 0.97358
 H258 H -0.07703 0.59821 0.91683
 H259 H -0.12429 0.53182 0.92264
 H260 H -0.11765 0.39563 0.99149
 H261 H 0.06378 0.57899 0.91933
 H262 H 0.07182 0.44220 0.89090
 H263 H -0.07962 0.55781 1.10797
 H264 H -0.11452 0.41555 1.05302
 Zr265 Zr -0.02478 0.46962 0.44587
 O266 O -0.06813 0.47104 0.40085
 O267 O -0.00045 0.40877 0.43098
 O268 O -0.00054 0.48275 0.39072
 O269 O -0.09528 0.43187 0.51621
 O270 O 0.05316 0.53126 0.39948
 O271 O -0.08368 0.43639 0.45304
 O272 O 0.05352 0.39483 0.47099
 O273 O 0.04002 0.47491 0.45518
 O274 O -0.01342 0.43852 0.49735
 O275 O -0.01177 0.53705 0.44526
 O276 O -0.06279 0.50161 0.48587
 Zr277 Zr 0.03045 0.54521 0.54837
 Zr278 Zr 0.05265 0.54219 0.45727
 Zr279 Zr -0.04791 0.47255 0.53782
 Zr280 Zr 0.05064 0.44661 0.50809
 O281 O -0.10831 0.49373 0.55519
 O282 O 0.11314 0.43980 0.48759
 O283 O 0.01651 0.47773 0.55054
 O284 O 0.06730 0.51223 0.50862
 O285 O 0.01815 0.57698 0.49745
 O286 O -0.03443 0.53927 0.53927
 C287 C 0.03016 0.38547 0.44317
 C288 C -0.10580 0.42435 0.48208
 C289 C 0.02946 0.50799 0.37853
 O290 O 0.11313 0.52064 0.44057
 O291 O 0.09860 0.58542 0.47749
 O292 O 0.08730 0.58255 0.54073
 C293 C 0.10932 0.59393 0.51133
 O294 O -0.09285 0.56409 0.44462
 Zr295 Zr -0.04632 0.56774 0.48724
 O296 O 0.00789 0.60661 0.56282
 O297 O 0.04860 0.60265 0.42846
 O298 O -0.03587 0.62341 0.45265
 O299 O -0.10698 0.57658 0.51119
 O300 O -0.04489 0.62216 0.52194
 C301 C -0.02163 0.63086 0.55009
 O302 O 0.07565 0.54172 0.59181
 O303 O -0.04420 0.41188 0.56629
 O304 O 0.00694 0.53129 0.60320
 O305 O -0.04762 0.48330 0.59621
 O306 O 0.03907 0.38837 0.53909
 O307 O 0.09042 0.44690 0.55596
 C308 C -0.02347 0.50731 0.61642
 H309 H -0.02200 0.40733 0.49732
 H310 H 0.09776 0.51344 0.51410
 H311 H -0.05163 0.55317 0.55917
 H312 H -0.01913 0.55095 0.42104
 H313 H 0.12293 0.41015 0.49444
 H314 H 0.12508 0.54316 0.42339
 H315 H 0.07519 0.60664 0.41407
 H316 H -0.05870 0.64446 0.45800
 H317 H 0.06305 0.36849 0.53447
 H318 H -0.07142 0.40750 0.57960
 H319 H -0.11967 0.47139 0.57285
 H320 H -0.11654 0.60632 0.50434
 H321 H 0.10842 0.42064 0.55560
 H322 H 0.07359 0.56916 0.60660
 H323 H -0.06587 0.44271 0.38737
 H324 H -0.10634 0.59296 0.44175
 Zr325 Zr 0.45575 -0.01203 -0.05399
 O326 O 0.40866 0.01858 -0.08634
 O327 O 0.46088 -0.07001 -0.08333
 O328 O 0.47854 0.00295 -0.10919
 O329 O 0.39053 -0.05481 0.01724
 O330 O 0.54415 0.03186 -0.10089
 O331 O 0.39559 -0.04269 -0.04601
 O332 O 0.51444 -0.10456 -0.05321
 O333 O 0.52087 -0.02240 -0.05301
 O334 O 0.46742 -0.05614 -0.01013
 O335 O 0.48342 0.04979 -0.04692
 O336 O 0.43070 0.01708 -0.00526
 Zr337 Zr 0.53865 0.02512 0.04942
 Zr338 Zr 0.54838 0.03873 -0.04279
 Zr339 Zr 0.44592 -0.02628 0.03877
 Zr340 Zr 0.53218 -0.06432 -0.00810
 O341 O 0.39226 0.00120 0.06493
 O342 O 0.58734 -0.07692 -0.04005
 O343 O 0.51104 -0.03743 0.04286
 O344 O 0.56273 -0.00456 0.00090
 O345 O 0.52743 0.07004 0.00609
 O346 O 0.47329 0.03463 0.04783
 C347 C 0.48620 -0.10182 -0.07889
 C348 C 0.37610 -0.05770 -0.01641
 C349 C 0.51412 0.01841 -0.12169
 O350 O 0.60487 0.01260 -0.06508
 O351 O 0.60083 0.07264 -0.02226
 O352 O 0.59752 0.05902 0.04072
 C353 C 0.61610 0.07505 0.01091
 O354 O 0.41527 0.10344 -0.03200
 Zr355 Zr 0.46212 0.07688 0.00338
 O356 O 0.53076 0.08222 0.08003
 O357 O 0.54972 0.10183 -0.06737
 O358 O 0.48106 0.13669 -0.02181
 O359 O 0.40670 0.09147 0.03420
 O360 O 0.48020 0.11830 0.04722
 C361 C 0.50563 0.11417 0.07488
 O362 O 0.58810 -0.00406 0.07992
 O363 O 0.44228 -0.09119 0.05925
 O364 O 0.51914 0.00693 0.10451
 O365 O 0.45505 -0.02626 0.09758
 O366 O 0.51445 -0.12580 0.01492
 O367 O 0.57819 -0.08618 0.03066
 C368 C 0.48528 -0.01125 0.11790
 H369 H 0.45331 -0.08479 -0.01341
 H370 H 0.59343 -0.00930 0.00298
 H371 H 0.46103 0.04680 0.07117
 H372 H 0.47673 0.06940 -0.06823
 H373 H 0.58959 -0.10905 -0.04275
 H374 H 0.61793 0.03537 -0.08137
 H375 H 0.57564 0.10370 -0.08297
 H376 H 0.46474 0.16023 -0.00948
 H377 H 0.53093 -0.14843 0.00155
 H378 H 0.41639 -0.09320 0.07487
 H379 H 0.37935 -0.02204 0.08079
 H380 H 0.40442 0.12376 0.03504
 H381 H 0.59132 -0.11324 0.02106
 H382 H 0.59612 0.01685 0.09996
 H383 H 0.40076 -0.00232 -0.10642
 H384 H 0.39439 0.07986 -0.03635
 Zr385 Zr 0.53047 0.54143 -0.05004
 O386 O 0.57445 0.54363 -0.09503
 O387 O 0.50646 0.60318 -0.06330
 O388 O 0.50866 0.52825 -0.10591
 O389 O 0.60184 0.57283 0.02175
 O390 O 0.44958 0.48657 -0.09761
 O391 O 0.58948 0.57459 -0.04126
 O392 O 0.45588 0.61875 -0.01983
 O393 O 0.46536 0.53867 -0.03993
 O394 O 0.52045 0.56929 0.00295
 O395 O 0.51408 0.47464 -0.05267
 O396 O 0.56754 0.50509 -0.01225
 Zr397 Zr 0.47177 0.46151 0.05024
 Zr398 Zr 0.44928 0.47198 -0.04016
 Zr399 Zr 0.55370 0.53084 0.04119
 Zr400 Zr 0.45617 0.56386 0.01438
 O401 O 0.61351 0.50545 0.05495
 O402 O 0.39420 0.57495 -0.00532
 O403 O 0.48898 0.52808 0.05460
 O404 O 0.43606 0.49916 0.01274
 O405 O 0.48277 0.43324 -0.00236
 O406 O 0.53695 0.46445 0.04075
 C407 C 0.47770 0.62765 -0.04906
 C408 C 0.61182 0.58434 -0.01187
 C409 C 0.47673 0.50619 -0.11848
 O410 O 0.38990 0.49754 -0.05500
 O411 O 0.40142 0.42903 -0.02091
 O412 O 0.41147 0.43003 0.04237
 C413 C 0.38978 0.41938 0.01277
 O414 O 0.59516 0.44666 -0.05517
 Zr415 Zr 0.54775 0.43980 -0.01306
 O416 O 0.49132 0.39704 0.05827
 O417 O 0.45046 0.41324 -0.07151
 O418 O 0.53852 0.38826 -0.05210
 O419 O 0.60620 0.42562 0.01264
 O420 O 0.54122 0.38053 0.01456
 C421 C 0.51698 0.37071 0.04194
 O422 O 0.43050 0.45435 0.09687
 O423 O 0.55235 0.58894 0.07340
 O424 O 0.49311 0.47769 0.10570
 O425 O 0.55437 0.51601 0.09867
 O426 O 0.47026 0.61917 0.04799
 O427 O 0.41699 0.56257 0.06308
 C428 C 0.52617 0.49736 0.11905
 H429 H 0.53005 0.60011 0.00408
 H430 H 0.40555 0.49949 0.01846
 H431 H 0.55279 0.44799 0.05999
 H432 H 0.52095 0.46104 -0.07713
 H433 H 0.38565 0.60451 0.00297
 H434 H 0.37694 0.47665 -0.07285
 H435 H 0.42379 0.41163 -0.08579
 H436 H 0.56224 0.36761 -0.04950
 H437 H 0.44697 0.64028 0.04503
 H438 H 0.57980 0.59134 0.08638
 H439 H 0.62630 0.52555 0.07356
 H440 H 0.61498 0.39626 0.00402
 H441 H 0.39886 0.58874 0.06328
 H442 H 0.43526 0.42474 0.10753
 H443 H 0.57182 0.57275 -0.10723
 H444 H 0.61184 0.41951 -0.05654
 Zr445 Zr 0.01724 1.04766 0.45249
 O446 O 0.06030 1.05422 0.40705
 O447 O -0.00699 1.10832 0.43764
 O448 O -0.00246 1.03227 0.39694
 O449 O 0.08614 1.08355 0.52412
 O450 O -0.05974 0.98774 0.40336
 O451 O 0.07852 1.07595 0.46095
 O452 O -0.06277 1.12309 0.47573
 O453 O -0.04807 1.04258 0.46019
 O454 O 0.00357 1.07911 0.50328
 O455 O 0.00381 0.98029 0.45118
 O456 O 0.05348 1.01583 0.49321
 Zr457 Zr -0.04169 0.97117 0.55461
 Zr458 Zr -0.06121 0.97525 0.46199
 Zr459 Zr 0.03618 1.04487 0.54454
 Zr460 Zr -0.06097 1.07060 0.51286
 O461 O 0.09452 1.02290 0.56579
 O462 O -0.12257 1.07671 0.49077
 O463 O -0.02856 1.03905 0.55611
 O464 O -0.07699 1.00459 0.51364
 O465 O -0.02790 0.94051 0.50319
 O466 O 0.02333 0.97797 0.54608
 C467 C -0.03812 1.13189 0.44830
 C468 C 0.09947 1.08856 0.49030
 C469 C -0.03330 1.00974 0.38315
 O470 O -0.12111 0.99700 0.44451
 O471 O -0.10861 0.93234 0.48211
 O472 O -0.09866 0.93382 0.54561
 C473 C -0.12015 0.92289 0.51590
 O474 O 0.08490 0.95622 0.45225
 Zr475 Zr 0.03689 0.95007 0.49390
 O476 O -0.01844 0.90913 0.56815
 O477 O -0.05634 0.91492 0.43339
 O478 O 0.02808 0.89457 0.45908
 O479 O 0.09673 0.94051 0.51862
 O480 O 0.03552 0.89536 0.52743
 C481 C 0.01176 0.88557 0.55507
 O482 O -0.08822 0.97438 0.59740
 O483 O 0.03294 1.10689 0.57069
 O484 O -0.01923 0.98416 0.61091
 O485 O 0.03003 1.03793 0.60282
 O486 O -0.05018 1.12829 0.54443
 O487 O -0.10320 1.07062 0.55949
 C488 C 0.00798 1.01237 0.62380
 H489 H 0.01248 1.11020 0.50323
 H490 H -0.10761 1.00334 0.51869
 H491 H 0.03990 0.96419 0.56635
 H492 H 0.01209 0.96602 0.42734
 H493 H -0.13293 1.10632 0.49705
 H494 H -0.13228 0.97481 0.42684
 H495 H -0.08232 0.91146 0.41836
 H496 H 0.05175 0.87435 0.46370
 H497 H -0.07355 1.14867 0.53915
 H498 H 0.05925 1.11082 0.58519
 H499 H 0.10473 1.04542 0.58360
 H500 H 0.10737 0.91175 0.51015
 H501 H -0.12078 1.09718 0.55861
 H502 H -0.08672 0.94667 0.61196
 H503 H 0.05625 1.08378 0.39602
 H504 H 0.09778 0.92732 0.44782
 Zr505 Zr 0.72291 0.29532 0.19276
 O506 O 0.73348 0.34247 0.15002
 O507 O 0.66132 0.27622 0.18169
 O508 O 0.72566 0.26628 0.13838
 O509 O 0.69605 0.37058 0.26237
 O510 O 0.77214 0.21011 0.14353
 O511 O 0.68512 0.35202 0.20108
 O512 O 0.64590 0.22543 0.22687
 O513 O 0.72466 0.22762 0.20231
 O514 O 0.69741 0.28509 0.24656
 O515 O 0.78660 0.27802 0.18830
 O516 O 0.75886 0.33423 0.22966
 Zr517 Zr 0.79907 0.23516 0.29145
 Zr518 Zr 0.78877 0.21095 0.20077
 Zr519 Zr 0.73449 0.32036 0.28345
 Zr520 Zr 0.70101 0.21829 0.25683
 O521 O 0.76144 0.38123 0.29852
 O522 O 0.68729 0.15660 0.23287
 O523 O 0.73563 0.25303 0.29631
 O524 O 0.76293 0.19737 0.25418
 O525 O 0.82680 0.24581 0.23854
 O526 O 0.79767 0.30285 0.28202
 C527 C 0.63615 0.25080 0.19985
 C528 C 0.67836 0.37641 0.23028
 C529 C 0.74699 0.23410 0.12442
 O530 O 0.76459 0.14842 0.18697
 O531 O 0.83044 0.16217 0.21983
 O532 O 0.82996 0.17402 0.28299
 C533 C 0.83995 0.15116 0.25361
 O534 O 0.81812 0.36075 0.18413
 Zr535 Zr 0.82146 0.31314 0.22764
 O536 O 0.85899 0.25929 0.30256
 O537 O 0.84417 0.21280 0.16743
 O538 O 0.87133 0.29928 0.18962
 O539 O 0.83521 0.37562 0.25039
 O540 O 0.87702 0.30934 0.25787
 C541 C 0.88453 0.28669 0.28714
 O542 O 0.80834 0.19191 0.33723
 O543 O 0.67794 0.32305 0.31530
 O544 O 0.77898 0.25245 0.34710
 O545 O 0.74540 0.31750 0.34148
 O546 O 0.64944 0.22839 0.29386
 O547 O 0.69872 0.17628 0.30453
 C548 C 0.76027 0.28624 0.36132
 H549 H 0.66820 0.29547 0.24978
 H550 H 0.76268 0.16569 0.25964
 H551 H 0.81276 0.31995 0.30140
 H552 H 0.79790 0.28442 0.16285
 H553 H 0.66040 0.14669 0.24443
 H554 H 0.78432 0.13541 0.16847
 H555 H 0.84546 0.18471 0.15366
 H556 H 0.89319 0.32225 0.19264
 H557 H 0.62920 0.20389 0.29038
 H558 H 0.67710 0.35206 0.32766
 H559 H 0.74184 0.39481 0.31679
 H560 H 0.86378 0.38431 0.24171
 H561 H 0.71004 0.14740 0.29740
 H562 H 0.83618 0.19913 0.34828
 H563 H 0.70726 0.34408 0.13509
 H564 H 0.84605 0.37473 0.18060
 Zr565 Zr 0.78499 0.73557 0.70738
 O566 O 0.77805 0.68618 0.66615
 O567 O 0.84283 0.76058 0.68841
 O568 O 0.76946 0.75647 0.65159
 O569 O 0.82726 0.66744 0.77851
 O570 O 0.72081 0.80987 0.66018
 O571 O 0.82120 0.67771 0.71533
 O572 O 0.85725 0.82012 0.72466
 O573 O 0.77904 0.80335 0.71314
 O574 O 0.81792 0.75293 0.75603
 O575 O 0.71984 0.74639 0.71098
 O576 O 0.75783 0.69828 0.75141
 Zr577 Zr 0.71850 0.79843 0.81194
 Zr578 Zr 0.71440 0.81392 0.71892
 Zr579 Zr 0.78977 0.71862 0.80002
 Zr580 Zr 0.80890 0.82001 0.76366
 O581 O 0.77208 0.65736 0.82332
 O582 O 0.81131 0.88239 0.73748
 O583 O 0.78378 0.78623 0.80979
 O584 O 0.74528 0.83478 0.76777
 O585 O 0.68491 0.78061 0.76369
 O586 O 0.72571 0.73061 0.80576
 C587 C 0.86615 0.79287 0.69889
 C588 C 0.83411 0.65580 0.74431
 C589 C 0.74318 0.78517 0.63903
 O590 O 0.73248 0.87598 0.69764
 O591 O 0.67348 0.86133 0.73950
 O592 O 0.67105 0.84769 0.80265
 C593 C 0.65915 0.86874 0.77256
 O594 O 0.69139 0.66199 0.71725
 Zr595 Zr 0.69382 0.71348 0.75724
 O596 O 0.66493 0.77333 0.83682
 O597 O 0.65457 0.80570 0.69392
 O598 O 0.63691 0.72144 0.72724
 O599 O 0.68897 0.65194 0.78456
 O600 O 0.64545 0.71777 0.79780
 C601 C 0.64064 0.74212 0.82693
 O602 O 0.72978 0.85302 0.84688
 O603 O 0.85076 0.72563 0.82298
 O604 O 0.73435 0.77770 0.86764
 O605 O 0.78483 0.72582 0.85849
 O606 O 0.86678 0.81415 0.79262
 O607 O 0.81110 0.86651 0.80794
 C608 C 0.76111 0.74909 0.87974
 H609 H 0.84808 0.74503 0.75499
 H610 H 0.74210 0.86656 0.77198
 H611 H 0.71497 0.71338 0.82740
 H612 H 0.70510 0.73644 0.68808
 H613 H 0.84018 0.89427 0.74059
 H614 H 0.70944 0.88610 0.68114
 H615 H 0.64911 0.83226 0.67872
 H616 H 0.61664 0.69932 0.73694
 H617 H 0.88489 0.83931 0.78527
 H618 H 0.85603 0.69899 0.83811
 H619 H 0.79490 0.64847 0.84057
 H620 H 0.65922 0.64218 0.78294
 H621 H 0.83451 0.88739 0.80334
 H622 H 0.70615 0.85387 0.86522
 H623 H 0.80381 0.68673 0.65014
 H624 H 0.66345 0.64751 0.71856
 Zr625 Zr 0.22952 0.19847 0.81006
 O626 O 0.25044 0.14748 0.84541
 O627 O 0.17341 0.21497 0.83578
 O628 O 0.24104 0.22328 0.86542
 O629 O 0.19192 0.12861 0.73921
 O630 O 0.27650 0.28754 0.85588
 O631 O 0.19168 0.14057 0.80262
 O632 O 0.14876 0.27042 0.79915
 O633 O 0.22574 0.26658 0.80413
 O634 O 0.19417 0.21084 0.76167
 O635 O 0.29181 0.22139 0.80685
 O636 O 0.26081 0.16627 0.76585
 Zr637 Zr 0.28532 0.27201 0.70542
 Zr638 Zr 0.28738 0.28934 0.79802
 Zr639 Zr 0.22685 0.18180 0.71711
 Zr640 Zr 0.19241 0.27815 0.75491
 O641 O 0.25412 0.12331 0.69724
 O642 O 0.18181 0.34043 0.77912
 O643 O 0.22244 0.24964 0.70840
 O644 O 0.25313 0.30380 0.74935
 O645 O 0.31971 0.26034 0.75429
 O646 O 0.28921 0.20393 0.71077
 C647 C 0.14695 0.24484 0.82790
 C648 C 0.18038 0.11857 0.77294
 C649 C 0.25876 0.25908 0.87728
 O650 O 0.26354 0.35025 0.81615
 O651 O 0.32514 0.34048 0.77596
 O652 O 0.31913 0.33146 0.71261
 C653 C 0.33227 0.35252 0.74181
 O654 O 0.32919 0.13437 0.79229
 Zr655 Zr 0.32178 0.19271 0.76073
 O656 O 0.34759 0.26111 0.68708
 O657 O 0.34647 0.28839 0.82513
 O658 O 0.37230 0.19264 0.79946
 O659 O 0.34591 0.14484 0.72352
 O660 O 0.37393 0.22505 0.73740
 C661 C 0.37846 0.24755 0.70720
 O662 O 0.26899 0.32223 0.66717
 O663 O 0.16675 0.17880 0.69176
 O664 O 0.26894 0.25099 0.65028
 O665 O 0.23060 0.18834 0.65820
 O666 O 0.13408 0.26181 0.72969
 O667 O 0.18037 0.32194 0.70980
 C668 C 0.24713 0.21840 0.63745
 H669 H 0.16495 0.19963 0.76360
 H670 H 0.25128 0.33567 0.74484
 H671 H 0.30325 0.19102 0.68854
 H672 H 0.30727 0.21435 0.83014
 H673 H 0.15111 0.34586 0.77830
 H674 H 0.28513 0.36357 0.83265
 H675 H 0.34860 0.31581 0.83981
 H676 H 0.39576 0.17610 0.78785
 H677 H 0.11280 0.28229 0.73978
 H678 H 0.16514 0.15094 0.67762
 H679 H 0.23330 0.10982 0.68009
 H680 H 0.37602 0.14150 0.72986
 H681 H 0.15396 0.33794 0.71489
 H682 H 0.29291 0.32599 0.64929
 H683 H 0.22806 0.14283 0.86460
 H684 H 0.31319 0.11091 0.77945
 Zr685 Zr 0.31070 0.76337 0.29343
 O686 O 0.32558 0.80281 0.34045
 O687 O 0.36875 0.73361 0.30380
 O688 O 0.29421 0.74282 0.34885
 O689 O 0.34784 0.83654 0.22345
 O690 O 0.24716 0.68701 0.34226
 O691 O 0.33874 0.82666 0.28632
 O692 O 0.37528 0.67477 0.26536
 O693 O 0.30069 0.69665 0.28387
 O694 O 0.33812 0.75010 0.24105
 O695 O 0.24490 0.75491 0.29632
 O696 O 0.28116 0.80552 0.25519
 Zr697 Zr 0.22949 0.71398 0.19236
 Zr698 Zr 0.23501 0.68853 0.28391
 Zr699 Zr 0.30623 0.78888 0.20232
 Zr700 Zr 0.32472 0.68442 0.22968
 O701 O 0.28935 0.85242 0.18433
 O702 O 0.32659 0.61838 0.24806
 O703 O 0.29554 0.72291 0.18873
 O704 O 0.26027 0.67280 0.23088
 O705 O 0.20262 0.72765 0.24511
 O706 O 0.24101 0.78038 0.20262
 C707 C 0.38812 0.69966 0.29154
 C708 C 0.35239 0.84896 0.25761
 C709 C 0.26984 0.71259 0.36252
 O710 O 0.25281 0.62451 0.29952
 O711 O 0.19074 0.64323 0.26336
 O712 O 0.18984 0.65713 0.20028
 C713 C 0.17933 0.63394 0.22971
 O714 O 0.22637 0.84085 0.29873
 Zr715 Zr 0.21668 0.79361 0.25582
 O716 O 0.17073 0.74210 0.18168
 O717 O 0.17771 0.69560 0.31388
 O718 O 0.16370 0.78646 0.29202
 O719 O 0.21193 0.85760 0.23320
 O720 O 0.16297 0.79767 0.22364
 C721 C 0.15032 0.77409 0.19647
 O722 O 0.23024 0.66779 0.14810
 O723 O 0.36419 0.78225 0.17326
 O724 O 0.23966 0.74089 0.13715
 O725 O 0.29562 0.78720 0.14432
 O726 O 0.38042 0.69356 0.19730
 O727 O 0.31974 0.64435 0.18111
 C728 C 0.26776 0.76808 0.12412
 H729 H 0.36858 0.75720 0.24007
 H730 H 0.25674 0.64147 0.22486
 H731 H 0.22813 0.79975 0.18362
 H732 H 0.23206 0.76359 0.32057
 H733 H 0.35371 0.60578 0.23963
 H734 H 0.23090 0.61328 0.31709
 H735 H 0.17285 0.66799 0.32796
 H736 H 0.14558 0.81236 0.28843
 H737 H 0.39815 0.66736 0.20082
 H738 H 0.36946 0.81019 0.15980
 H739 H 0.31112 0.86231 0.16605
 H740 H 0.18487 0.87006 0.24194
 H741 H 0.34454 0.62504 0.17941
 H742 H 0.20343 0.67103 0.13417
 H743 H 0.35443 0.79493 0.34855
 H744 H 0.19968 0.85635 0.30374
 Zr745 Zr 0.21221 0.77705 0.69908
 O746 O 0.21991 0.82457 0.65603
 O747 O 0.15156 0.75469 0.68639
 O748 O 0.21972 0.75187 0.64388
 O749 O 0.18489 0.85327 0.76826
 O750 O 0.26297 0.69325 0.64991
 O751 O 0.17759 0.83561 0.70643
 O752 O 0.13617 0.70116 0.72909
 O753 O 0.21297 0.70951 0.70869
 O754 O 0.18519 0.76724 0.75217
 O755 O 0.27593 0.75977 0.69566
 O756 O 0.24830 0.81510 0.73637
 Zr757 Zr 0.28636 0.71664 0.79916
 Zr758 Zr 0.27666 0.69250 0.70762
 Zr759 Zr 0.22245 0.80235 0.78969
 Zr760 Zr 0.18871 0.70042 0.76321
 O761 O 0.25015 0.86318 0.80377
 O762 O 0.17723 0.63608 0.74345
 O763 O 0.22289 0.73526 0.80327
 O764 O 0.25062 0.67941 0.76111
 O765 O 0.31337 0.72645 0.74587
 O766 O 0.28608 0.78432 0.78970
 C767 C 0.12729 0.72525 0.70099
 C768 C 0.17079 0.86069 0.73502
 C769 C 0.24150 0.72010 0.63011
 O770 O 0.25177 0.63045 0.69343
 O771 O 0.31857 0.64465 0.72727
 O772 O 0.32058 0.65765 0.79041
 C773 C 0.33010 0.63496 0.76082
 O774 O 0.31098 0.84877 0.69953
 Zr775 Zr 0.31090 0.79352 0.73571
 O776 O 0.34857 0.73503 0.80948
 O777 O 0.33311 0.69403 0.67565
 O778 O 0.35634 0.79252 0.69174
 O779 O 0.33555 0.84695 0.76658
 O780 O 0.36781 0.76810 0.75489
 C781 C 0.37638 0.74906 0.78594
 O782 O 0.28194 0.66932 0.84262
 O783 O 0.16552 0.80536 0.82089
 O784 O 0.27433 0.74061 0.85489
 O785 O 0.23335 0.80087 0.84758
 O786 O 0.13528 0.71476 0.79695
 O787 O 0.18920 0.65961 0.81169
 C788 C 0.25315 0.77347 0.86809
 H789 H 0.15570 0.77738 0.75369
 H790 H 0.25079 0.64782 0.76715
 H791 H 0.30216 0.79992 0.80936
 H792 H 0.28814 0.76687 0.67072
 H793 H 0.14824 0.62769 0.75117
 H794 H 0.27189 0.61718 0.67543
 H795 H 0.33465 0.66608 0.66167
 H796 H 0.37962 0.81255 0.69891
 H797 H 0.11476 0.69051 0.79385
 H798 H 0.16474 0.83435 0.83328
 H799 H 0.23094 0.87727 0.82208
 H800 H 0.36442 0.85204 0.75678
 H801 H 0.16380 0.64070 0.81183
 H802 H 0.30883 0.67039 0.85673
 H803 H 0.19356 0.82507 0.64112
 H804 H 0.29459 0.87209 0.71205
 Zr805 Zr 0.28520 0.21623 0.19850
 O806 O 0.28046 0.16715 0.15681
 O807 O 0.34329 0.24145 0.18204
 O808 O 0.27429 0.23942 0.14236
 O809 O 0.32153 0.14733 0.27140
 O810 O 0.22604 0.29366 0.14938
 O811 O 0.32206 0.15927 0.20800
 O812 O 0.35156 0.30257 0.21777
 O813 O 0.27871 0.28377 0.20571
 O814 O 0.31353 0.23169 0.25002
 O815 O 0.22037 0.22797 0.19688
 O816 O 0.25462 0.17753 0.23959
 Zr817 Zr 0.20849 0.27583 0.29808
 Zr818 Zr 0.21409 0.29535 0.20685
 Zr819 Zr 0.28076 0.19656 0.29155
 Zr820 Zr 0.30433 0.29835 0.25827
 O821 O 0.26170 0.13433 0.31177
 O822 O 0.30939 0.36364 0.23838
 O823 O 0.27380 0.26387 0.30148
 O824 O 0.24068 0.31370 0.25808
 O825 O 0.17991 0.25971 0.24714
 O826 O 0.21613 0.20819 0.29146
 C827 C 0.36279 0.27643 0.19166
 C828 C 0.33252 0.13712 0.23762
 C829 C 0.24953 0.26930 0.12922
 O830 O 0.23550 0.35733 0.18784
 O831 O 0.17379 0.34458 0.22569
 O832 O 0.16577 0.32869 0.28793
 C833 C 0.15800 0.35203 0.25823
 O834 O 0.18812 0.14375 0.19724
 Zr835 Zr 0.19057 0.19265 0.23939
 O836 O 0.15043 0.24965 0.31366
 O837 O 0.15614 0.28905 0.17828
 O838 O 0.13719 0.19907 0.20441
 O839 O 0.18525 0.12989 0.26432
 O840 O 0.13721 0.19369 0.27326
 C841 C 0.12760 0.21836 0.30077
 O842 O 0.21339 0.32759 0.33732
 O843 O 0.33855 0.20389 0.32015
 O844 O 0.21900 0.25553 0.35394
 O845 O 0.26819 0.20166 0.35022
 O846 O 0.36173 0.28925 0.28734
 O847 O 0.30434 0.34050 0.30571
 C848 C 0.24309 0.22666 0.36899
 H849 H 0.34380 0.22421 0.25027
 H850 H 0.23792 0.34531 0.26329
 H851 H 0.20266 0.19066 0.31171
 H852 H 0.20774 0.21897 0.17272
 H853 H 0.33838 0.37408 0.24359
 H854 H 0.21405 0.36884 0.17032
 H855 H 0.15254 0.31603 0.16317
 H856 H 0.11829 0.17379 0.20957
 H857 H 0.38069 0.31379 0.28020
 H858 H 0.34248 0.17681 0.33503
 H859 H 0.28303 0.12507 0.33033
 H860 H 0.15704 0.11822 0.25782
 H861 H 0.33021 0.35873 0.30545
 H862 H 0.18741 0.32712 0.35300
 H863 H 0.30693 0.16809 0.14179
 H864 H 0.21624 0.13007 0.19617
 Zr865 Zr 0.71513 0.71476 0.30599
 O866 O 0.71096 0.67122 0.35230
 O867 O 0.65436 0.73806 0.31438
 O868 O 0.72256 0.74125 0.36153
 O869 O 0.68690 0.63982 0.23445
 O870 O 0.76758 0.79916 0.35534
 O871 O 0.68333 0.65334 0.29736
 O872 O 0.64522 0.79349 0.27254
 O873 O 0.72067 0.78223 0.29594
 O874 O 0.69117 0.72560 0.25197
 O875 O 0.77956 0.72926 0.31111
 O876 O 0.75026 0.67463 0.26954
 Zr877 Zr 0.79844 0.77065 0.20771
 Zr878 Zr 0.78552 0.79630 0.29819
 Zr879 Zr 0.72827 0.68907 0.21513
 Zr880 Zr 0.69966 0.79209 0.24080
 O881 O 0.75255 0.62720 0.20022
 O882 O 0.69018 0.85657 0.26070
 O883 O 0.73409 0.75597 0.20192
 O884 O 0.76248 0.80999 0.24407
 O885 O 0.82317 0.75953 0.26142
 O886 O 0.79291 0.70325 0.21730
 C887 C 0.63286 0.76864 0.29910
 C888 C 0.67450 0.63004 0.26785
 C889 C 0.74373 0.77399 0.37526
 O890 O 0.76359 0.85968 0.31133
 O891 O 0.82929 0.84398 0.27885
 O892 O 0.82998 0.83165 0.21574
 C893 C 0.83964 0.85469 0.24500
 O894 O 0.81135 0.64136 0.31256
 Zr895 Zr 0.81371 0.69262 0.27234
 O896 O 0.85934 0.74653 0.19978
 O897 O 0.84012 0.79251 0.33176
 O898 O 0.86069 0.70087 0.31389
 O899 O 0.82553 0.63063 0.24819
 O900 O 0.87201 0.69775 0.24645
 C901 C 0.88331 0.72062 0.21822
 O902 O 0.81213 0.81171 0.16108
 O903 O 0.67228 0.68962 0.18303
 O904 O 0.77999 0.75325 0.15174
 O905 O 0.74060 0.69125 0.15710
 O906 O 0.64989 0.77953 0.20288
 O907 O 0.69877 0.83765 0.19573
 C908 C 0.75878 0.72104 0.13735
 H909 H 0.66141 0.71635 0.24930
 H910 H 0.76320 0.84159 0.23816
 H911 H 0.80854 0.68598 0.19835
 H912 H 0.79022 0.72243 0.33653
 H913 H 0.66272 0.86670 0.25097
 H914 H 0.78363 0.87254 0.32955
 H915 H 0.84271 0.82081 0.34510
 H916 H 0.88057 0.67615 0.31159
 H917 H 0.62901 0.80320 0.20609
 H918 H 0.67019 0.66110 0.16993
 H919 H 0.73326 0.61471 0.18120
 H920 H 0.85369 0.62121 0.25679
 H921 H 0.72404 0.83202 0.18009
 H922 H 0.84048 0.80361 0.15149
 H923 H 0.68213 0.67391 0.36305
 H924 H 0.78548 0.64557 0.32769
 Zr925 Zr 0.79002 0.28060 0.79009
 O926 O 0.77347 0.32741 0.83129
 O927 O 0.85305 0.27176 0.80629
 O928 O 0.77921 0.25532 0.84573
 O929 O 0.82125 0.35366 0.71811
 O930 O 0.74398 0.19085 0.83838
 O931 O 0.81698 0.34392 0.78162
 O932 O 0.87776 0.21973 0.76612
 O933 O 0.79529 0.21260 0.78467
 O934 O 0.82308 0.26987 0.73984
 O935 O 0.72766 0.25707 0.78842
 O936 O 0.75565 0.31215 0.74719
 Zr937 Zr 0.73260 0.20579 0.68734
 Zr938 Zr 0.73292 0.18948 0.78030
 Zr939 Zr 0.78879 0.29825 0.69729
 Zr940 Zr 0.82628 0.20227 0.73330
 O941 O 0.76032 0.35604 0.67715
 O942 O 0.84065 0.14588 0.76537
 O943 O 0.79465 0.23055 0.68795
 O944 O 0.76592 0.17501 0.73061
 O945 O 0.69767 0.21684 0.73659
 O946 O 0.72786 0.27386 0.69344
 C947 C 0.88266 0.24856 0.79177
 C948 C 0.82772 0.36638 0.75207
 C949 C 0.76060 0.22050 0.85898
 O950 O 0.75820 0.12842 0.79634
 O951 O 0.69263 0.13991 0.76085
 O952 O 0.69472 0.14828 0.69710
 C953 C 0.68207 0.12829 0.72757
 O954 O 0.68453 0.33431 0.78366
 Zr955 Zr 0.69512 0.28442 0.74324
 O956 O 0.67476 0.21957 0.66419
 O957 O 0.67582 0.18914 0.81145
 O958 O 0.64139 0.26508 0.77497
 O959 O 0.67913 0.34402 0.71648
 O960 O 0.64729 0.27046 0.70406
 C961 C 0.64589 0.24574 0.67481
 O962 O 0.75225 0.15403 0.65219
 O963 O 0.84821 0.30262 0.67013
 O964 O 0.74510 0.22806 0.63125
 O965 O 0.78258 0.29137 0.63902
 O966 O 0.87994 0.21418 0.69887
 O967 O 0.83501 0.15277 0.69216
 C968 C 0.76486 0.26230 0.61844
 H969 H 0.85107 0.28410 0.73845
 H970 H 0.76745 0.14306 0.72652
 H971 H 0.71385 0.28858 0.67215
 H972 H 0.71234 0.26383 0.81200
 H973 H 0.87127 0.14072 0.76259
 H974 H 0.73766 0.11466 0.81389
 H975 H 0.67397 0.16087 0.82510
 H976 H 0.61736 0.28261 0.76593
 H977 H 0.90221 0.19341 0.70645
 H978 H 0.84873 0.33052 0.65589
 H979 H 0.78047 0.36958 0.65911
 H980 H 0.64823 0.34749 0.71878
 H981 H 0.85823 0.13344 0.70001
 H982 H 0.72903 0.14858 0.63425
 H983 H 0.79862 0.33217 0.84725
 H984 H 0.65461 0.34311 0.78302
 N985 N 0.49906 0.99826 0.32438
 N986 N 0.48916 0.99859 0.28840
 C987 C 0.44781 1.00816 0.28525
 C988 C 0.43279 1.01386 0.32199
 N989 N 0.46566 1.00688 0.34522
 H990 H 0.40054 1.01842 0.33102
 N991 N -0.00711 0.48151 0.81658
 N992 N -0.02136 0.48515 0.78197
 C993 C -0.05778 0.50808 0.78270
 C994 C -0.06576 0.51728 0.82049
 N995 N -0.03321 0.50037 0.84035
 H996 H -0.09349 0.53234 0.83245
 N997 N 0.01226 -0.07236 0.81529
 N998 N 0.03466 -0.06800 0.78386
 C999 C 0.04518 -0.02538 0.78033
 C1000 C 0.02659 -0.00367 0.81069
 N1001 N 0.00650 -0.03412 0.83191
 H1002 H 0.03085 0.03021 0.81858
 N1003 N 0.51923 0.55774 0.32336
 N1004 N 0.53978 0.51955 0.31867
 C1005 C 0.54225 0.49799 0.28446
 C1006 C 0.55150 0.49313 0.32266
 N1007 N 0.53661 0.52543 0.34326
 H1008 H 0.56874 0.46214 0.33456
 N1009 N 0.49824 0.51026 0.18151
 N1010 N 0.51110 0.51403 0.21664
 C1011 C 0.55335 0.50781 0.21746
 C1012 C 0.56576 0.50051 0.18026
 N1013 N 0.53033 0.50144 0.15915
 H1014 H 0.59694 0.49290 0.16991
 N1015 N 0.02231 1.05650 0.67868
 N1016 N 0.04209 1.05345 0.71133
 C1017 C 0.04884 1.01073 0.71796
 C1018 C 0.03070 0.98760 0.68792
 N1019 N 0.01485 1.01746 0.66384
 H1020 H 0.03274 0.95291 0.68238
 N1021 N -0.00379 0.52693 0.67950
 N1022 N -0.01908 0.52650 0.71404
 C1023 C -0.05685 0.50565 0.71385
 C1024 C -0.06454 0.49431 0.67649
 N1025 N -0.03044 0.50794 0.65634
 H1026 H -0.09311 0.48063 0.66484
 N1027 N 0.50928 0.00278 0.18119
 N1028 N 0.49396 0.00591 0.21570
 C1029 C 0.45340 -0.00790 0.21556
 C1030 C 0.44458 -0.01944 0.17841
 N1031 N 0.48024 -0.01227 0.15814
 H1032 H 0.41438 -0.02869 0.16686
 N1033 N 0.32111 0.41588 0.04314
 N1034 N 0.28339 0.39777 0.03909
 C1035 C 0.28512 0.36956 0.00991
 C1036 C 0.32651 0.37178 -0.00411
 N1037 N 0.34796 0.40067 0.01787
 H1038 H 0.33976 0.35375 -0.02744
 N1039 N -0.18967 0.92287 0.54420
 N1040 N -0.22768 0.90563 0.53983
 C1041 C -0.22560 0.87518 0.51240
 C1042 C -0.18357 0.87503 0.49982
 N1043 N -0.16219 0.90482 0.52098
 H1044 H -0.16987 0.85475 0.47814
 N1045 N -0.14029 0.14240 0.97116
 N1046 N -0.17145 0.16981 0.97845
 C1047 C -0.20510 0.14602 0.99016
 C1048 C -0.19272 0.10222 0.98941
 N1049 N -0.15245 0.10144 0.97670
 H1050 H -0.21120 0.07366 0.99698
 N1051 N 0.33299 0.58985 0.46227
 N1052 N 0.29451 0.60576 0.46393
 C1053 C 0.29285 0.63431 0.49280
 C1054 C 0.33273 0.63481 0.50931
 N1055 N 0.35678 0.60693 0.48886
 H1056 H 0.34345 0.65425 0.53279
 N1057 N 0.17639 0.59415 0.54228
 N1058 N 0.21541 0.60818 0.53705
 C1059 C 0.21604 0.63472 0.50657
 C1060 C 0.17486 0.63631 0.49324
 N1061 N 0.15114 0.61097 0.51677
 H1062 H 0.16323 0.65448 0.46935
 N1063 N 0.68447 0.08438 0.04064
 N1064 N 0.72070 0.10519 0.03516
 C1065 C 0.71752 0.12993 0.00366
 C1066 C 0.67677 0.12349 -0.00975
 N1067 N 0.65727 0.09505 0.01428
 H1068 H 0.66227 0.13918 -0.03367
 N1069 N 0.65646 0.90695 0.45771
 N1070 N 0.69502 0.89114 0.46085
 C1071 C 0.69777 0.87009 0.49420
 C1072 C 0.65820 0.87442 0.51172
 N1073 N 0.63335 0.89720 0.48769
 H1074 H 0.64838 0.86196 0.53892
 N1075 N 0.16813 0.39837 0.94862
 N1076 N 0.20566 0.38007 0.95208
 C1077 C 0.20934 0.36471 0.98760
 C1078 C 0.17150 0.37530 1.00602
 N1079 N 0.14659 0.39582 0.98053
 H1080 H 0.16305 0.36880 1.03505
 N1081 N 0.05782 0.31232 0.44097
 N1082 N 0.04988 0.27598 0.42226
 C1083 C 0.02312 0.28708 0.39448
 C1084 C 0.01517 0.33071 0.39644
 N1085 N 0.03704 0.34506 0.42566
 H1086 H -0.00728 0.34959 0.38048
 N1087 N 0.45901 -0.13717 -0.13452
 N1088 N 0.45997 -0.17622 -0.15023
 C1089 C 0.48412 -0.20156 -0.12794
 C1090 C 0.49788 -0.17703 -0.09830
 N1091 N 0.48185 -0.13740 -0.10362
 H1092 H 0.51678 -0.18711 -0.07462
 N1093 N -0.05316 -0.20636 1.07660
 N1094 N -0.04391 -0.24014 1.09808
 C1095 C -0.00846 -0.22926 1.11680
 C1096 C 0.00359 -0.18782 1.10630
 N1097 N -0.02505 -0.17489 1.08150
 H1098 H 0.03091 -0.16916 1.11501
 N1099 N 0.46037 0.30620 0.54788
 N1100 N 0.46281 0.27004 0.56820
 C1101 C 0.48841 0.27969 0.59723
 C1102 C 0.50114 0.32226 0.59454
 N1103 N 0.48325 0.33747 0.56350
 H1104 H 0.52141 0.34038 0.61339
 N1105 N 0.45921 1.14052 0.63079
 N1106 N 0.46304 1.17944 0.64617
 C1107 C 0.48579 1.20408 0.62176
 C1108 C 0.49622 1.17896 0.59115
 N1109 N 0.47918 1.13984 0.59810
 H1110 H 0.51384 1.18821 0.56617
 N1111 N 0.05541 0.63737 1.11908
 N1112 N 0.05084 0.66949 1.14341
 C1113 C 0.02887 0.70100 1.12565
 C1114 C 0.02074 0.68744 1.08967
 N1115 N 0.03787 0.64809 1.08681
 H1116 H 0.00149 0.70252 1.06836
 N1117 N 0.45076 0.70165 -0.05136
 N1118 N 0.45454 0.73631 -0.07351
 C1119 C 0.47720 0.72313 -0.10364
 C1120 C 0.48641 0.67990 -0.09986
 N1121 N 0.47012 0.66799 -0.06687
 H1122 H 0.50556 0.65987 -0.11822
 N1123 N -0.06317 1.20634 0.44182
 N1124 N -0.05235 1.24089 0.42135
 C1125 C -0.02488 1.22650 0.39497
 C1126 C -0.02016 1.18265 0.39920
 N1127 N -0.04378 1.17142 0.42868
 H1128 H 0.00180 1.16138 0.38489
 N1129 N 0.80083 0.74547 0.93748
 N1130 N 0.80072 0.72198 0.96889
 C1131 C 0.76393 0.69964 0.97042
 C1132 C 0.74084 0.71223 0.93896
 N1133 N 0.76479 0.74093 0.91934
 H1134 H 0.71047 0.70006 0.93001
 N1135 N 0.21824 0.24929 0.43034
 N1136 N 0.21729 0.23588 0.46570
 C1137 C 0.24066 0.19927 0.46813
 C1138 C 0.25537 0.19030 0.43183
 N1139 N 0.24074 0.22245 0.40932
 H1140 H 0.27225 0.16167 0.42245
 N1141 N 0.75873 0.25496 0.42457
 N1142 N 0.75453 0.26792 0.45991
 C1143 C 0.74672 0.31145 0.45999
 C1144 C 0.74517 0.32408 0.42226
 N1145 N 0.75413 0.28839 0.40145
 H1146 H 0.74151 0.35671 0.41102
 N1147 N 0.25955 0.74989 0.93357
 N1148 N 0.25587 0.76632 0.96788
 C1149 C 0.24406 0.80873 0.96488
 C1150 C 0.24009 0.81708 0.92652
 N1151 N 0.25082 0.78001 0.90819
 H1152 H 0.23273 0.84785 0.91310
 N1153 N 0.30539 0.77605 0.06527
 N1154 N 0.30249 0.79758 0.03304
 C1155 C 0.26393 0.81582 0.03183
 C1156 C 0.24272 0.80282 0.06471
 N1157 N 0.26969 0.77794 0.08456
 H1158 H 0.21147 0.81182 0.07399
 N1159 N 0.80189 0.26145 0.55874
 N1160 N 0.80240 0.28447 0.52705
 C1161 C 0.76790 0.31010 0.52714
 C1162 C 0.74565 0.30042 0.56006
 N1163 N 0.76755 0.26972 0.57867
 H1164 H 0.71709 0.31536 0.57043
 N1165 N 0.24093 0.25110 0.57543
 N1166 N 0.23599 0.23949 0.53991
 C1167 C 0.23101 0.19553 0.53859
 C1168 C 0.23326 0.18073 0.57575
 N1169 N 0.23996 0.21635 0.59752
 H1170 H 0.23432 0.14717 0.58536
 N1171 N 0.76042 0.75279 0.07429
 N1172 N 0.75537 0.74072 0.03883
 C1173 C 0.74441 0.69781 0.03826
 C1174 C 0.74210 0.68461 0.07591
 N1175 N 0.75347 0.71936 0.09710
 H1176 H 0.73612 0.65208 0.08676
 N1177 N 0.16384 0.56586 0.19646
 N1178 N 0.14314 0.52847 0.20178
 C1179 C 0.12252 0.53067 0.23516
 C1180 C 0.13196 0.57190 0.25000
 N1181 N 0.15700 0.59297 0.22474
 H1182 H 0.12055 0.58594 0.27600
 N1183 N 0.65814 0.06171 0.69650
 N1184 N 0.63199 0.02838 0.70218
 C1185 C 0.61152 0.03471 0.73524
 C1186 C 0.62671 0.07412 0.74970
 N1187 N 0.65549 0.08988 0.72449
 H1188 H 0.61696 0.09027 0.77533
 N1189 N 0.84531 0.08401 0.28871
 N1190 N 0.86222 0.04476 0.28689
 C1191 C 0.88664 0.04297 0.25568
 C1192 C 0.88334 0.08373 0.23787
 N1193 N 0.85755 0.10836 0.25988
 H1194 H 0.89861 0.09454 0.21217
 N1195 N 0.33698 0.56559 0.79205
 N1196 N 0.35691 0.52805 0.78883
 C1197 C 0.38458 0.53164 0.75990
 C1198 C 0.38013 0.57356 0.74493
 N1199 N 0.35047 0.59365 0.76634
 H1200 H 0.39692 0.58807 0.72139
 N1201 N 0.35057 0.41539 0.70367
 N1202 N 0.37121 0.45292 0.70574
 C1203 C 0.38945 0.45521 0.73993
 C1204 C 0.37813 0.41711 0.75928
 N1205 N 0.35420 0.39319 0.73537
 H1206 H 0.38599 0.40801 0.78781
 N1207 N 0.84367 0.92212 0.21023
 N1208 N 0.86062 0.96160 0.21161
 C1209 C 0.88614 0.96334 0.24181
 C1210 C 0.88354 0.92241 0.25947
 N1211 N 0.85702 0.89770 0.23836
 H1212 H 0.89983 0.91147 0.28437
 N1213 N 0.58739 0.89430 0.78299
 N1214 N 0.56350 0.92790 0.77312
 C1215 C 0.58864 0.95853 0.75680
 C1216 C 0.62939 0.94188 0.75773
 N1217 N 0.62741 0.90225 0.77482
 H1218 H 0.65784 0.95698 0.74677
 N1219 N 0.08802 0.38235 0.26372
 N1220 N 0.06830 0.41972 0.25784
 C1221 C 0.09763 0.45087 0.25019
 C1222 C 0.13665 0.43042 0.25144
 N1223 N 0.12916 0.38797 0.26073
 H1224 H 0.16731 0.44484 0.24610
 N1225 N 0.11137 0.23286 0.88697
 N1226 N 0.07226 0.23206 0.89955
 C1227 C 0.04795 0.24704 0.87133
 C1228 C 0.07347 0.25896 0.84175
 N1229 N 0.11231 0.24877 0.85242
 H1230 H 0.06506 0.27064 0.81410
 N1231 N 0.56838 0.80918 0.30634
 N1232 N 0.53213 0.80418 0.32421
 C1233 C 0.53384 0.76465 0.34128
 C1234 C 0.57059 0.74495 0.33226
 N1235 N 0.59159 0.77413 0.31179
 H1236 H 0.58175 0.71305 0.34076
 N1237 N 0.56355 0.25175 0.21808
 N1238 N 0.52675 0.25748 0.20210
 C1239 C 0.53453 0.26477 0.16511
 C1240 C 0.57701 0.26303 0.15891
 N1241 N 0.59338 0.25426 0.19221
 H1242 H 0.59462 0.26405 0.13284
 N1243 N 0.05731 0.69344 0.69887
 N1244 N 0.02127 0.70135 0.68185
 C1245 C 0.02899 0.73464 0.65768
 C1246 C 0.07026 0.74684 0.66032
 N1247 N 0.08672 0.72039 0.68588
 H1248 H 0.08656 0.77373 0.64658
 N1249 N 0.93735 0.82014 0.69793
 N1250 N 0.97378 0.80866 0.68303
 C1251 C 0.96513 0.77560 0.65913
 C1252 C 0.92293 0.76731 0.65961
 N1253 N 0.90681 0.79597 0.68355
 H1254 H 0.90548 0.74200 0.64513
 N1255 N 0.42274 0.32221 0.17885
 N1256 N 0.46098 0.31754 0.16502
 C1257 C 0.46271 0.27655 0.15095
 C1258 C 0.42466 0.25653 0.15578
 N1259 N 0.40092 0.28595 0.17337
 H1260 H 0.41601 0.22293 0.14995
 N1261 N 0.43581 0.65983 0.33106
 N1262 N 0.46656 0.67179 0.35391
 C1263 C 0.47728 0.71302 0.34390
 C1264 C 0.45412 0.72488 0.31357
 N1265 N 0.42801 0.69168 0.30692
 H1266 H 0.45138 0.75748 0.30181
 N1267 N 0.95752 0.24517 0.78228
 N1268 N 0.99178 0.24712 0.80295
 C1269 C 0.98005 0.26144 0.83735
 C1270 C 0.93721 0.26895 0.83660
 N1271 N 0.92458 0.25717 0.80249
 H1272 H 0.91637 0.27385 0.86043
 N1273 N 0.49984 1.03865 0.67619
 N1274 N 0.52160 1.04472 0.70717
 C1275 C 0.54412 1.00814 0.71373
 C1276 C 0.53601 0.97946 0.68431
 N1277 N 0.50770 0.99975 0.66193
 H1278 H 0.55063 0.94826 0.67879
 N1279 N 0.00202 0.52788 1.18209
 N1280 N 0.01734 0.52526 1.21657
 C1281 C 0.05404 0.50323 1.21439
 C1282 C 0.06032 0.49213 1.17703
 N1283 N 0.02758 0.50854 1.15793
 H1284 H 0.08719 0.47579 1.16472
 N1285 N -0.00529 -0.01646 1.17689
 N1286 N -0.01726 -0.01115 1.21229
 C1287 C -0.05667 0.00544 1.21273
 C1288 C -0.06840 0.00953 1.17493
 N1289 N -0.03559 -0.00480 1.15375
 H1290 H -0.09888 0.01868 1.16414
 N1291 N 0.50463 0.48590 0.68811
 N1292 N 0.48882 0.48870 0.72258
 C1293 C 0.44850 0.50273 0.72019
 C1294 C 0.44068 0.50876 0.68205
 N1295 N 0.47595 0.49697 0.66321
 H1296 H 0.41108 0.51726 0.66912
 N1297 N 0.48489 0.45993 -0.17271
 N1298 N 0.46644 0.45328 -0.20558
 C1299 C 0.44062 0.48737 -0.21165
 C1300 C 0.44511 0.51570 -0.18119
 N1301 N 0.47334 0.49773 -0.15793
 H1302 H 0.42861 0.54589 -0.17577
 N1303 N -0.00693 1.02339 0.32003
 N1304 N -0.01855 1.01995 0.28451
 C1305 C -0.05690 1.00049 0.28352
 C1306 C -0.06857 0.99291 0.32108
 N1307 N -0.03654 1.00780 0.34270
 H1308 H -0.09858 0.98097 0.33157
 N1309 N 0.02719 0.55113 0.32172
 N1310 N 0.04401 0.55159 0.28755
 C1311 C 0.06481 0.51357 0.28307
 C1312 C 0.05986 0.48983 0.31634
 N1313 N 0.03532 0.51384 0.33902
 H1314 H 0.07373 0.45884 0.32393
 N1315 N 0.49020 0.02706 -0.18567
 N1316 N 0.50563 0.02668 -0.22020
 C1317 C 0.54796 0.02106 -0.21852
 C1318 C 0.55767 0.01797 -0.18054
 N1319 N 0.52080 0.02140 -0.16140
 H1320 H 0.58778 0.01001 -0.16830
 N1321 N 0.67577 0.60040 -0.04708
 N1322 N 0.71251 0.62050 -0.04321
 C1323 C 0.71250 0.64151 -0.00976
 C1324 C 0.67360 0.63231 0.00726
 N1325 N 0.65159 0.60695 -0.01729
 H1326 H 0.66274 0.64243 0.03478
 N1327 N 0.16712 1.09295 0.45796
 N1328 N 0.20496 1.11069 0.46209
 C1329 C 0.20433 1.13541 0.49360
 C1330 C 0.16374 1.13206 0.50855
 N1331 N 0.14157 1.10566 0.48524
 H1332 H 0.15113 1.14852 0.53302
 N1333 N 0.16528 -0.09499 1.04273
 N1334 N 0.20364 -0.11144 1.04067
 C1335 C 0.20672 -0.13469 1.00851
 C1336 C 0.16791 -0.13074 0.99026
 N1337 N 0.14294 -0.10597 1.01292
 H1338 H 0.15901 -0.14404 0.96326
 N1339 N 0.68487 0.41331 0.54508
 N1340 N 0.72094 0.39257 0.54029
 C1341 C 0.71893 0.36992 0.50770
 C1342 C 0.67953 0.37878 0.49214
 N1343 N 0.65923 0.40558 0.51672
 H1344 H 0.66710 0.36723 0.46568
 N1345 N -0.17195 0.41736 0.44911
 N1346 N -0.20914 0.39808 0.45292
 C1347 C -0.20771 0.37147 0.48330
 C1348 C -0.16763 0.37627 0.49860
 N1349 N -0.14629 0.40447 0.47596
 H1350 H -0.15518 0.36105 0.52364
 N1351 N 0.31055 -0.07348 -0.04982
 N1352 N 0.27650 -0.09857 -0.04643
 C1353 C 0.28005 -0.12246 -0.01452
 C1354 C 0.31796 -0.10976 0.00201
 N1355 N 0.33604 -0.07966 -0.02108
 H1356 H 0.33156 -0.12171 0.02785
 N1357 N 0.34545 1.14275 0.53062
 N1358 N 0.31473 1.17057 0.52387
 C1359 C 0.28241 1.14792 0.50860
 C1360 C 0.29513 1.10445 0.50609
 N1361 N 0.33432 1.10273 0.52078
 H1362 H 0.27779 1.07693 0.49485
 N1363 N -0.18030 0.58864 1.04602
 N1364 N -0.21663 0.60917 1.04287
 C1365 C -0.21404 0.63627 1.01283
 C1366 C -0.17417 0.63038 0.99697
 N1367 N -0.15411 0.60111 1.01901
 H1368 H -0.16083 0.64589 0.97221
 N1369 N -0.05658 0.70015 0.55933
 N1370 N -0.05321 0.73395 0.58217
 C1371 C -0.02317 0.72359 0.60747
 C1372 C -0.00804 0.68319 0.59934
 N1373 N -0.02934 0.66996 0.56937
 H1374 H 0.01799 0.66611 0.61212
 N1375 N 0.51685 0.14130 0.13769
 N1376 N 0.51377 0.17873 0.15580
 C1377 C 0.49852 0.20830 0.13104
 C1378 C 0.49157 0.18763 0.09755
 N1379 N 0.50431 0.14666 0.10270
 H1380 H 0.48199 0.20181 0.07102
 N1381 N -0.03823 0.13548 0.86844
 N1382 N -0.03491 0.17501 0.85394
 C1383 C -0.01243 0.19901 0.87867
 C1384 C -0.00203 0.17312 0.90869
 N1385 N -0.01843 0.13404 0.90097
 H1386 H 0.01558 0.18167 0.93361
 N1387 N 0.56565 0.70160 0.44038
 N1388 N 0.56151 0.72824 0.41132
 C1389 C 0.52061 0.72604 0.40130
 C1390 C 0.49954 0.70048 0.42660
 N1391 N 0.52872 0.68420 0.44936
 H1392 H 0.46697 0.68987 0.42538
 N1393 N 0.42525 0.80745 0.41615
 N1394 N 0.43372 0.77359 0.39438
 C1395 C 0.47299 0.78047 0.38064
 C1396 C 0.48831 0.81872 0.39491
 N1397 N 0.45805 0.83426 0.41662
 H1398 H 0.52032 0.83115 0.39368
 N1399 N -0.04460 0.29834 0.95255
 N1400 N -0.03930 0.26244 0.93249
 C1401 C -0.01272 0.27365 0.90423
 C1402 C -0.00230 0.31672 0.90706
 N1403 N -0.02260 0.33081 0.93737
 H1404 H 0.01784 0.33600 0.88863
 N1405 N 0.55106 0.30106 0.05259
 N1406 N 0.54837 0.26986 0.07837
 C1407 C 0.51389 0.27871 0.09946
 C1408 C 0.49451 0.31432 0.08457
 N1409 N 0.51903 0.32801 0.05656
 H1410 H 0.46719 0.33151 0.09499
 N1411 N 0.04872 0.81732 0.56184
 N1412 N 0.04634 0.78202 0.58318
 C1413 C 0.01548 0.78963 0.60863
 C1414 C -0.00133 0.82983 0.60195
 N1415 N 0.02006 0.84571 0.57289
 H1416 H -0.02836 0.84509 0.61503
 N1417 N 0.20784 0.26483 0.07341
 N1418 N 0.20359 0.28642 0.04134
 C1419 C 0.23769 0.31258 0.03735
 C1420 C 0.26366 0.30471 0.06809
 N1421 N 0.24419 0.27435 0.08957
 H1422 H 0.29328 0.32040 0.07485
 N1423 N 0.70115 0.77364 0.58302
 N1424 N 0.69717 0.78980 0.54854
 C1425 C 0.72991 0.81735 0.54231
 C1426 C 0.75465 0.81635 0.57482
 N1427 N 0.73586 0.78847 0.59916
 H1428 H 0.78280 0.83508 0.58084
 N1429 N 0.22853 0.74558 0.56667
 N1430 N 0.23459 0.73316 0.53150
 C1431 C 0.25570 0.69484 0.53185
 C1432 C 0.26159 0.68398 0.56949
 N1433 N 0.24385 0.71618 0.58999
 H1434 H 0.27427 0.65395 0.58075
 N1435 N 0.71555 0.24518 0.06306
 N1436 N 0.71681 0.22891 0.02866
 C1437 C 0.74653 0.19739 0.02759
 C1438 C 0.76247 0.19409 0.06395
 N1439 N 0.74253 0.22475 0.08492
 H1440 H 0.78479 0.17048 0.07438
 N1441 N 0.75429 0.24978 0.92209
 N1442 N 0.74795 0.23662 0.95713
 C1443 C 0.74404 0.19245 0.95759
 C1444 C 0.74893 0.17920 0.92012
 N1445 N 0.75564 0.21594 0.89922
 H1446 H 0.75056 0.14606 0.90967
 N1447 N 0.27858 0.74202 0.42502
 N1448 N 0.27216 0.73150 0.46064
 C1449 C 0.25337 0.69167 0.46203
 C1450 C 0.24911 0.67799 0.42471
 N1451 N 0.26558 0.71024 0.40281
 H1452 H 0.23834 0.64646 0.41477
 N1453 N 0.73103 0.75159 0.44048
 N1454 N 0.73172 0.76794 0.47499
 C1455 C 0.74419 0.81030 0.47285
 C1456 C 0.75117 0.81892 0.43457
 N1457 N 0.74210 0.78167 0.41549
 H1458 H 0.75919 0.85003 0.42177
 N1459 N 0.25195 0.23971 0.94378
 N1460 N 0.25116 0.25948 0.97687
 C1461 C 0.25778 0.30292 0.97127
 C1462 C 0.26351 0.30848 0.93280
 N1463 N 0.25882 0.26864 0.91683
 H1464 H 0.26755 0.33894 0.91761
 N1465 N 0.83508 0.43421 0.78637
 N1466 N 0.85579 0.47182 0.78516
 C1467 C 0.88159 0.47148 0.75477
 C1468 C 0.87528 0.43127 0.73691
 N1469 N 0.84611 0.40913 0.75783
 H1470 H 0.89111 0.41884 0.71217
 N1471 N 0.35246 0.91795 0.29035
 N1472 N 0.36802 0.95799 0.28732
 C1473 C 0.39519 0.95876 0.25792
 C1474 C 0.39514 0.91675 0.24261
 N1475 N 0.36842 0.89238 0.26409
 H1476 H 0.41280 0.90499 0.21862
 N1477 N 0.13792 0.91567 0.69548
 N1478 N 0.11359 0.95048 0.69833
 C1479 C 0.10496 0.95675 0.73522
 C1480 C 0.12637 0.92452 0.75505
 N1481 N 0.14594 0.89934 0.72913
 H1482 H 0.12662 0.91926 0.78516
 N1483 N 0.62057 0.41497 0.19746
 N1484 N 0.62274 0.42918 0.23339
 C1485 C 0.58965 0.44919 0.25239
 C1486 C 0.63041 0.43347 0.25754
 N1487 N 0.64423 0.41087 0.22829
 H1488 H 0.64718 0.43537 0.28691
 N1489 N 0.65685 0.56282 0.30153
 N1490 N 0.63383 0.52685 0.29762
 C1491 C 0.61249 0.52981 0.26490
 C1492 C 0.62401 0.56985 0.24869
 N1493 N 0.65136 0.58947 0.27269
 H1494 H 0.61254 0.58392 0.22278
 N1495 N 0.13952 0.06528 0.81015
 N1496 N 0.11190 0.03305 0.80530
 C1497 C 0.10510 0.02845 0.76795
 C1498 C 0.13127 0.05907 0.75005
 N1499 N 0.15183 0.08158 0.77736
 H1500 H 0.13457 0.06465 0.72009
 N1501 N 0.35242 0.07399 0.20077
 N1502 N 0.37429 0.03748 0.20333
 C1503 C 0.39313 0.03670 0.23731
 C1504 C 0.38099 0.07493 0.25593
 N1505 N 0.35583 0.09723 0.23189
 H1506 H 0.38950 0.08544 0.28392
 N1507 N 0.84832 0.59285 0.70568
 N1508 N 0.86714 0.55453 0.70653
 C1509 C 0.88707 0.55042 0.73983
 C1510 C 0.87881 0.58889 0.75997
 N1511 N 0.85467 0.61445 0.73726
 H1512 H 0.88905 0.59728 0.78802
 N1513 N 0.95357 0.68950 0.21879
 N1514 N 0.98924 0.69465 0.19981
 C1515 C 0.98261 0.72717 0.17472
 C1516 C 0.94266 0.74237 0.17955
 N1517 N 0.92553 0.71768 0.20635
 H1518 H 0.92685 0.76840 0.16470
 N1519 N 0.45289 0.25034 0.71857
 N1520 N 0.48784 0.25345 0.69852
 C1521 C 0.47684 0.26597 0.66351
 C1522 C 0.43364 0.27122 0.66324
 N1523 N 0.42015 0.25975 0.69742
 H1524 H 0.41366 0.27396 0.63877
 N1525 N 0.45112 0.75797 0.77488
 N1526 N 0.48548 0.75624 0.79553
 C1527 C 0.47434 0.73790 0.82887
 C1528 C 0.43238 0.72757 0.82739
 N1529 N 0.41903 0.74182 0.79428
 H1530 H 0.41198 0.71863 0.85076
 N1531 N 0.95738 0.31151 0.29094
 N1532 N 0.98980 0.30357 0.31310
 C1533 C 0.97486 0.27814 0.34149
 C1534 C 0.93313 0.27134 0.33657
 N1535 N 0.92354 0.29194 0.30491
 H1536 H 0.91207 0.25049 0.35275
 N1537 N 0.05662 0.18941 0.30321
 N1538 N 0.02137 0.19926 0.32110
 C1539 C 0.03197 0.22891 0.34763
 C1540 C 0.07416 0.23631 0.34594
 N1541 N 0.08820 0.21171 0.31794
 H1542 H 0.09244 0.26081 0.36064
 N1543 N 0.60380 0.74720 0.88543
 N1544 N 0.56446 0.75279 0.89611
 C1545 C 0.54060 0.74554 0.86544
 C1546 C 0.56617 0.73329 0.83623
 N1547 N 0.60509 0.73537 0.84974
 H1548 H 0.55824 0.72751 0.80712
 N1549 N 0.61004 0.23445 0.61635
 N1550 N 0.57139 0.23568 0.60325
 C1551 C 0.54659 0.24998 0.63161
 C1552 C 0.57146 0.25896 0.66217
 N1553 N 0.61030 0.24801 0.65156
 H1554 H 0.56275 0.27013 0.68993
 N1555 N 0.08129 0.80565 0.20192
 N1556 N 0.04311 0.79638 0.18964
 C1557 C 0.04809 0.76555 0.16292
 C1558 C 0.09005 0.75777 0.15796
 N1559 N 0.10946 0.78238 0.18329
 H1560 H 0.10505 0.73374 0.14013
   
