data_POSCAR
  _audit_creation_date              2014-09-24
  _audit_creation_method            'ToBaCCo'
  _symmetry_space_group_name_H-M    'P1'
  _symmetry_Int_Tables_number       1
  _symmetry_cell_setting            triclinic
  loop_
  _symmetry_equiv_pos_as_xyz
 x,y,z
_cell_length_a 43.1828
_cell_length_b 43.1184
_cell_length_c 56.0374
_cell_angle_alpha 89.852700
_cell_angle_beta 90.300100
_cell_angle_gamma 90.276700
loop_
  _atom_site_label
  _atom_site_type_symbol
  _atom_site_fract_x
  _atom_site_fract_y
  _atom_site_fract_z
B1 B 0.26969 0.24601 0.27455
 B2 B 0.23337 0.23660 0.26757
 B3 B 0.24238 0.27321 0.27401
 B4 B 0.27779 0.28124 0.26323
 B5 B 0.29057 0.24827 0.24950
 B6 B 0.26269 0.22025 0.25256
 B7 B 0.23811 0.26776 0.22659
 B8 B 0.27446 0.27721 0.23361
 B9 B 0.26545 0.24055 0.22709
 B10 B 0.22999 0.23247 0.23796
 B11 B 0.21725 0.26548 0.25167
 B12 B 0.24512 0.29349 0.24861
 B13 B 0.74300 0.77246 0.22590
 B14 B 0.73082 0.73634 0.23076
 B15 B 0.76815 0.74323 0.22566
 B16 B 0.77817 0.77710 0.23844
 B17 B 0.74564 0.79109 0.25203
 B18 B 0.71595 0.76550 0.24685
 B19 B 0.76042 0.73551 0.27262
 B20 B 0.77262 0.77164 0.26772
 B21 B 0.73525 0.76476 0.27287
 B22 B 0.72520 0.73083 0.26003
 B23 B 0.75777 0.71689 0.24647
 B24 B 0.78743 0.74245 0.25161
 B25 B 0.74293 0.23179 -0.22861
 B26 B 0.73277 0.26844 -0.23349
 B27 B 0.76973 0.25977 -0.22843
 B28 B 0.77756 0.22544 -0.24124
 B29 B 0.74397 0.21311 -0.25470
 B30 B 0.71595 0.24005 -0.24950
 B31 B 0.76158 0.26786 -0.27535
 B32 B 0.77170 0.23121 -0.27047
 B33 B 0.73475 0.23992 -0.27548
 B34 B 0.72695 0.27422 -0.26270
 B35 B 0.76052 0.28660 -0.24923
 B36 B 0.78861 0.25961 -0.25447
 B37 B 0.27046 0.76031 -0.27145
 B38 B 0.23439 0.77131 -0.26555
 B39 B 0.24163 0.73441 -0.27201
 B40 B 0.27609 0.72458 -0.26010
 B41 B 0.29011 0.75677 -0.24571
 B42 B 0.26395 0.78608 -0.24948
 B43 B 0.23566 0.73952 -0.22471
 B44 B 0.27170 0.72847 -0.23058
 B45 B 0.26448 0.76541 -0.22413
 B46 B 0.23003 0.77522 -0.23605
 B47 B 0.21603 0.74302 -0.25041
 B48 B 0.24215 0.71375 -0.24668
 B49 B 1.22789 1.25696 0.77316
 B50 B 1.26539 1.26199 0.76755
 B51 B 1.25150 1.22648 0.77245
 B52 B 1.21585 1.22372 0.76039
 B53 B 1.20807 1.25891 0.74749
 B54 B 1.23910 1.28291 0.75231
 B55 B 1.25845 1.23412 0.72537
 B56 B 1.22091 1.22911 0.73105
 B57 B 1.23484 1.26462 0.72612
 B58 B 1.27055 1.26740 0.73821
 B59 B 1.27832 1.23219 0.75110
 B60 B 1.24726 1.20818 0.74627
 B61 B 0.75299 0.72680 0.72771
 B62 B 0.76275 0.76336 0.73367
 B63 B 0.72628 0.75458 0.72663
 B64 B 0.71731 0.71981 0.73841
 B65 B 0.74956 0.70720 0.75341
 B66 B 0.77806 0.73452 0.75011
 B67 B 0.73019 0.76114 0.77400
 B68 B 0.72041 0.72452 0.76800
 B69 B 0.75691 0.73333 0.77509
 B70 B 0.76593 0.76815 0.76324
 B71 B 0.73367 0.78073 0.74826
 B72 B 0.70514 0.75341 0.75158
 B73 B 1.24089 0.73343 0.27187
 B74 B 1.23277 0.77063 0.26715
 B75 B 1.26924 0.75982 0.27171
 B76 B 1.27486 0.72515 0.25881
 B77 B 1.24041 0.71474 0.24571
 B78 B 1.21398 0.74325 0.25130
 B79 B 1.26065 0.76850 0.22494
 B80 B 1.26883 0.73133 0.22965
 B81 B 1.23233 0.74208 0.22504
 B82 B 1.22668 0.77679 0.23799
 B83 B 1.26116 0.78715 0.25107
 B84 B 1.28753 0.75869 0.24551
 B85 B 0.77098 1.25958 0.22911
 B86 B 0.73503 1.27112 0.23476
 B87 B 0.74169 1.23427 0.22766
 B88 B 0.77571 1.22340 0.23976
 B89 B 0.79002 1.25481 0.25497
 B90 B 0.76451 1.28470 0.25151
 B91 B 0.73488 1.23787 0.27501
 B92 B 0.77085 1.22634 0.26931
 B93 B 0.76416 1.26318 0.27642
 B94 B 0.73012 1.27408 0.26431
 B95 B 0.71579 1.24266 0.24912
 B96 B 0.74132 1.21274 0.25259
 O97 O 0.54492 1.05922 0.04240
 O98 O 0.57882 1.03024 0.02023
 C99 C 0.57258 1.05082 0.03641
 O100 O 0.45768 0.94765 0.04218
 O101 O 0.42272 0.97734 0.02124
 C102 C 0.42971 0.95572 0.03650
 O103 O 0.54388 0.95048 0.04382
 O104 O 0.57831 0.97803 0.02072
 C105 C 0.57171 0.95824 0.03749
 O106 O 0.45891 1.06283 0.04084
 O107 O 0.42325 1.03295 0.02059
 C108 C 0.43075 1.05488 0.03547
 Zr109 Zr 0.50138 1.04360 0.02983
 O110 O 0.50134 1.03861 0.06736
 O111 O 0.50272 1.09249 0.03267
 Zr112 Zr 0.50059 0.96611 0.03089
 O113 O 0.50061 0.97254 0.06826
 O114 O 0.50069 0.91735 0.03510
 O115 O 0.52907 1.00477 0.03457
 O116 O 0.47355 1.00510 0.03493
 O117 O 0.45661 1.06021 -0.04193
 O118 O 0.42219 1.03162 -0.01962
 C119 C 0.42879 1.05251 -0.03557
 O120 O 0.54161 0.94913 -0.04336
 O121 O 0.57726 0.97741 -0.02181
 C122 C 0.56975 0.95706 -0.03795
 O123 O 0.45561 0.94695 -0.04018
 O124 O 0.42169 0.97683 -0.01881
 C125 C 0.42795 0.95508 -0.03402
 O126 O 0.54284 1.05731 -0.04467
 O127 O 0.57776 1.02988 -0.02195
 C128 C 0.57078 1.04945 -0.03875
 Zr129 Zr 0.49990 1.04278 -0.03039
 O130 O 0.49565 1.04207 -0.06805
 O131 O 0.50331 1.09179 -0.03063
 Zr132 Zr 0.49912 0.96464 -0.02933
 O133 O 0.49474 0.96396 -0.06699
 O134 O 0.50158 0.91563 -0.02826
 Zr135 Zr 0.54686 1.00395 -0.00043
 Zr136 Zr 0.45363 1.00457 0.00062
 O137 O 0.47237 1.00377 -0.03397
 O138 O 0.52712 1.00346 -0.03494
 O139 O 0.47308 1.04956 -0.00009
 O140 O 0.52686 0.95940 0.00053
 O141 O 0.52776 1.04877 -0.00066
 O142 O 0.47221 0.95938 0.00113
 H143 H 0.45962 1.00541 0.04892
 H144 H 0.54077 0.94120 0.00050
 H145 H 0.45816 1.00351 -0.04791
 H146 H 0.54194 1.06689 -0.00107
 H147 H 0.50720 0.90839 0.01973
 H148 H 0.48477 0.90815 -0.01773
 H149 H 0.51184 0.97658 -0.07362
 H150 H 0.51268 1.02923 -0.07432
 H151 H 0.48608 1.09989 -0.02091
 H152 H 0.50763 1.10073 0.01667
 H153 H 0.50089 1.05993 0.07390
 H154 H 0.49963 0.95149 0.07536
 O155 O 1.04351 0.55814 0.54343
 O156 O 1.07800 0.52984 0.52128
 C157 C 1.07134 0.55009 0.53758
 O158 O 0.95688 0.44619 0.54127
 O159 O 0.92214 0.47598 0.52019
 C160 C 0.92897 0.45428 0.53543
 O161 O 1.04296 0.44904 0.54366
 O162 O 1.07764 0.47686 0.52101
 C163 C 1.07085 0.45683 0.53757
 O164 O 0.95741 0.56091 0.54121
 O165 O 0.92235 0.53128 0.52012
 C166 C 0.92940 0.55283 0.53543
 Zr167 Zr 1.00028 0.54237 0.53031
 O168 O 0.99976 0.53671 0.56779
 O169 O 1.00081 0.59123 0.53365
 Zr170 Zr 0.99993 0.46488 0.53047
 O171 O 0.99943 0.47067 0.56791
 O172 O 1.00003 0.41604 0.53410
 O173 O 1.02817 0.50365 0.53492
 O174 O 0.97262 0.50361 0.53466
 O175 O 0.95682 0.56026 0.45836
 O176 O 0.92211 0.53103 0.47991
 C177 C 0.92892 0.55236 0.46435
 O178 O 1.04245 0.44946 0.45659
 O179 O 1.07744 0.47709 0.47923
 C180 C 1.07043 0.45723 0.46263
 O181 O 0.95640 0.44666 0.45879
 O182 O 0.92191 0.47596 0.48010
 C183 C 0.92858 0.45446 0.46478
 O184 O 1.04300 0.55753 0.45628
 O185 O 1.07777 0.52962 0.47880
 C186 C 1.07090 0.54955 0.46220
 Zr187 Zr 0.99990 0.54261 0.47002
 O188 O 0.99618 0.54249 0.43233
 O189 O 1.00310 0.59162 0.47025
 Zr190 Zr 0.99957 0.46456 0.47024
 O191 O 0.99585 0.46479 0.43254
 O192 O 1.00232 0.41554 0.47068
 Zr193 Zr 1.04658 0.50371 0.50011
 Zr194 Zr 0.95330 0.50361 0.50015
 O195 O 0.97261 0.50355 0.46574
 O196 O 1.02747 0.50360 0.46538
 O197 O 0.97252 0.54870 0.50014
 O198 O 1.02676 0.45901 0.50034
 O199 O 1.02717 0.54834 0.50012
 O200 O 0.97213 0.45853 0.50035
 H201 H 0.95851 0.50358 0.54855
 H202 H 1.04060 0.44077 0.50026
 H203 H 0.95860 0.50349 0.45169
 H204 H 1.04133 0.56648 0.49996
 H205 H 1.00727 0.40739 0.51883
 H206 H 0.98559 0.40774 0.48114
 H207 H 1.01332 0.47721 0.42625
 H208 H 1.01337 0.52986 0.42607
 H209 H 0.98624 0.59943 0.48048
 H210 H 1.00787 0.59981 0.51825
 H211 H 0.99894 0.55790 0.57455
 H212 H 0.99833 0.44951 0.57479
 O213 O 1.05583 0.54612 0.04057
 O214 O 1.02542 0.58019 0.01940
 C215 C 1.04719 0.57386 0.03471
 O216 O 1.05315 0.45987 -0.04444
 O217 O 1.02673 0.42446 -0.02144
 C218 C 1.04613 0.43175 -0.03822
 O219 O 1.05462 0.54602 -0.04200
 O220 O 1.02477 0.58013 -0.02076
 C221 C 1.04624 0.57377 -0.03613
 O222 O 1.05494 0.45964 0.04264
 O223 O 1.02706 0.42428 0.02054
 C224 C 1.04735 0.43154 0.03680
 Zr225 Zr 1.03892 0.50250 0.02911
 O226 O 1.08789 0.50074 0.02801
 O227 O 1.04009 0.50579 0.06681
 Zr228 Zr 1.03694 0.50256 -0.03107
 O229 O 1.08561 0.50305 -0.03514
 O230 O 1.03061 0.50365 -0.06848
 O231 O 1.04359 0.53034 -0.00106
 O232 O 1.04418 0.47558 -0.00099
 O233 O 0.94750 0.45712 0.04419
 O234 O 0.97521 0.42302 0.02128
 C235 C 0.95577 0.42938 0.03817
 O236 O 0.94049 0.54356 -0.04131
 O237 O 0.96959 0.57892 -0.02013
 C238 C 0.94796 0.57165 -0.03534
 O239 O 0.94516 0.45738 -0.04375
 O240 O 0.97401 0.42321 -0.02137
 C241 C 0.95370 0.42962 -0.03782
 O242 O 0.94290 0.54341 0.04202
 O243 O 0.97084 0.57885 0.02012
 C244 C 0.95013 0.57154 0.03593
 Zr245 Zr 0.96094 0.50065 0.03016
 O246 O 0.91211 0.49584 0.03027
 O247 O 0.96178 0.50417 0.06784
 Zr248 Zr 0.95923 0.50079 -0.02993
 O249 O 0.91042 0.49606 -0.02875
 O250 O 0.95801 0.50400 -0.06762
 Zr251 Zr 0.99820 0.54827 -0.00040
 Zr252 Zr 0.99992 0.45494 -0.00035
 O253 O 0.95490 0.47340 0.00020
 O254 O 0.95346 0.52839 0.00019
 O255 O 1.00059 0.47381 0.03437
 O256 O 0.99754 0.52901 -0.03486
 O257 O 0.99955 0.52862 0.03401
 O258 O 0.99853 0.47379 -0.03511
 H259 H 1.06264 0.46204 -0.00108
 H260 H 0.99699 0.54315 -0.04882
 H261 H 0.93707 0.45886 0.00041
 H262 H 0.99967 0.54246 0.04810
 H263 H 1.05163 0.50477 -0.07543
 H264 H 0.97345 0.48923 -0.07385
 H265 H 0.90230 0.51356 -0.01932
 H266 H 0.90336 0.51363 0.02138
 H267 H 0.97518 0.48741 0.07402
 H268 H 1.02759 0.48845 0.07325
 H269 H 1.09506 0.51840 0.01812
 H270 H 1.09473 0.49752 -0.01952
 O271 O 0.44466 0.95686 0.45637
 O272 O 0.47351 0.92257 0.47866
 C273 C 0.45319 0.92907 0.46223
 O274 O 0.55465 1.04594 0.45912
 O275 O 0.52445 1.07971 0.48042
 C276 C 0.54612 1.07360 0.46513
 O277 O 0.55359 0.95986 0.45607
 O278 O 0.52638 0.92393 0.47808
 C279 C 0.54632 0.93160 0.46176
 O280 O 0.43998 1.04297 0.45926
 O281 O 0.46915 1.07822 0.48051
 C282 C 0.44755 1.07104 0.46526
 Zr283 Zr 0.45960 1.00020 0.46977
 O284 O 0.46482 1.00168 0.43230
 O285 O 0.41080 0.99864 0.46642
 Zr286 Zr 0.53693 1.00231 0.46957
 O287 O 0.53068 1.00358 0.43214
 O288 O 0.58564 1.00312 0.46583
 O289 O 0.49886 0.97326 0.46493
 O290 O 0.49761 1.02888 0.46559
 O291 O 0.44138 1.04166 0.54198
 O292 O 0.46949 1.07760 0.52070
 C293 C 0.44847 1.06991 0.53619
 O294 O 0.55402 0.95840 0.54309
 O295 O 0.52665 0.92320 0.52046
 C296 C 0.54668 0.93035 0.53693
 O297 O 0.55468 1.04489 0.54167
 O298 O 0.52440 1.07913 0.52054
 C299 C 0.54608 1.07267 0.53588
 O300 O 0.44607 0.95559 0.54345
 O301 O 0.47414 0.92191 0.52045
 C302 C 0.45438 0.92797 0.53720
 Zr303 Zr 0.45996 0.99926 0.52998
 O304 O 0.46038 1.00210 0.56770
 O305 O 0.41109 0.99497 0.52958
 Zr306 Zr 0.53786 1.00140 0.52988
 O307 O 0.53782 1.00427 0.56760
 O308 O 0.58686 0.99978 0.52965
 Zr309 Zr 0.49978 0.95409 0.49962
 Zr310 Zr 0.49756 1.04747 0.50024
 O311 O 0.49834 1.02739 0.53451
 O312 O 0.49961 0.97245 0.53449
 O313 O 0.45298 1.02721 0.50010
 O314 O 0.54388 0.97498 0.49955
 O315 O 0.45471 0.97249 0.49973
 O316 O 0.54298 1.02962 0.49992
 H317 H 0.49719 1.04333 0.45181
 H318 H 0.56236 0.96147 0.49948
 H319 H 0.49815 1.04109 0.54867
 H320 H 0.43683 0.95803 0.49980
 H321 H 0.59457 0.99744 0.48149
 H322 H 0.59425 1.01711 0.51952
 H323 H 0.52621 0.98615 0.57376
 H324 H 0.47362 0.98517 0.57381
 H325 H 0.40286 1.01191 0.51945
 H326 H 0.40254 0.99067 0.48166
 H327 H 0.44358 1.00220 0.42556
 H328 H 0.55171 1.00517 0.42525
 O329 O 0.96841 0.92842 0.46293
 O330 O 0.99538 0.96283 0.43939
 C331 C 0.97872 0.93817 0.44255
 O332 O 0.92898 1.03752 0.52376
 O333 O 0.95736 1.01629 0.55450
 C334 C 0.93452 1.03235 0.54616
 O335 O 0.94064 1.03159 0.45775
 O336 O 0.98195 1.01231 0.43685
 C337 C 0.95529 1.02581 0.43814
 O338 O 0.95772 0.92731 0.52933
 O339 O 0.97096 0.96426 0.55710
 C340 C 0.95861 0.93807 0.55090
 Zr341 Zr 0.97390 0.94773 0.49732
 O342 O 0.92621 0.93858 0.49214
 O343 O 0.98485 0.89995 0.49712
 Zr344 Zr 0.95368 1.02263 0.49346
 O345 O 0.90839 1.00477 0.48886
 O346 O 0.93829 1.06867 0.48840
 O347 O 0.96288 0.98319 0.47360
 O348 O 0.95398 0.98417 0.51538
 O349 O 1.05937 0.95634 0.54259
 O350 O 1.01946 0.97811 0.56356
 C351 C 1.04482 0.96243 0.56217
 O352 O 1.04832 1.06236 0.47173
 O353 O 1.03252 1.02702 0.44354
 C354 C 1.04699 1.05190 0.45010
 O355 O 1.03043 1.06561 0.53702
 O356 O 1.00582 1.02990 0.56089
 C357 C 1.02036 1.05582 0.55744
 O358 O 1.07599 0.95820 0.47697
 O359 O 1.04608 0.97683 0.44615
 C360 C 1.07034 0.96312 0.45457
 Zr361 Zr 1.04865 0.96884 0.50701
 O362 O 1.09439 0.98283 0.51572
 O363 O 1.06245 0.92179 0.50690
 Zr364 Zr 1.02823 1.04425 0.50314
 O365 O 1.07414 1.05763 0.51185
 O366 O 1.01578 1.09126 0.49808
 Zr367 Zr 1.00894 0.99523 0.46535
 Zr368 Zr 0.99361 0.99662 0.53510
 O369 O 1.03942 1.00849 0.52618
 O370 O 1.04890 1.00778 0.48487
 O371 O 1.00833 0.95276 0.52329
 O372 O 0.99391 1.03862 0.47770
 O373 O 1.01718 0.95232 0.48214
 O374 O 0.98484 1.03982 0.51880
 H375 H 0.93447 0.97966 0.52400
 H376 H 0.99140 1.05599 0.46626
 H377 H 1.05432 1.01354 0.53912
 H378 H 1.02404 0.93443 0.47249
 H379 H 0.95074 1.08187 0.49923
 H380 H 0.99958 1.09624 0.50986
 H381 H 1.08808 1.04684 0.50070
 H382 H 1.10212 0.99572 0.50237
 H383 H 1.04902 0.91051 0.51826
 H384 H 0.99933 0.89633 0.51054
 H385 H 0.92396 0.91569 0.49227
 H386 H 0.89470 1.02304 0.48720
 O387 O 0.56797 0.45373 0.03404
 O388 O 0.54094 0.48660 0.05842
 C389 C 0.56282 0.46694 0.05438
 O390 O 0.54369 0.54289 -0.04770
 O391 O 0.51402 0.50488 -0.06532
 C392 C 0.53255 0.52854 -0.06614
 O393 O 0.55952 0.55847 0.01692
 O394 O 0.53680 0.53695 0.05010
 C395 C 0.55562 0.55609 0.03976
 O396 O 0.55245 0.43157 -0.02964
 O397 O 0.51786 0.45219 -0.05659
 C398 C 0.53970 0.43331 -0.05058
 Zr399 Zr 0.54343 0.45763 0.00144
 O400 O 0.59121 0.46022 -0.00662
 O401 O 0.54832 0.41068 0.01188
 Zr402 Zr 0.53742 0.53389 -0.01099
 O403 O 0.58560 0.53269 -0.01731
 O404 O 0.53601 0.58242 -0.01658
 O405 O 0.55017 0.50201 0.01515
 O406 O 0.54223 0.49028 -0.02560
 O407 O 0.44729 0.42612 -0.01768
 O408 O 0.46778 0.44976 -0.05087
 C409 C 0.45096 0.42884 -0.04053
 O410 O 0.44750 0.55212 0.02989
 O411 O 0.48396 0.53382 0.05634
 C412 C 0.46006 0.55037 0.05088
 O413 O 0.43859 0.53715 -0.03572
 O414 O 0.46375 0.50218 -0.05953
 C415 C 0.44361 0.52375 -0.05599
 O416 O 0.45587 0.44807 0.04689
 O417 O 0.48788 0.48414 0.06450
 C418 C 0.46719 0.46241 0.06528
 Zr419 Zr 0.46605 0.45350 0.01028
 O420 O 0.41725 0.45030 0.01294
 O421 O 0.47025 0.40656 0.02094
 Zr422 Zr 0.46004 0.52998 -0.00218
 O423 O 0.41126 0.52679 0.00052
 O424 O 0.45688 0.57855 -0.00716
 Zr425 Zr 0.50809 0.50361 0.03390
 Zr426 Zr 0.49529 0.48395 -0.03459
 O427 O 0.45366 0.48571 -0.01535
 O428 O 0.46087 0.49731 0.02525
 O429 O 0.50140 0.44372 -0.01364
 O430 O 0.50199 0.54329 0.01252
 O431 O 0.50890 0.45573 0.02679
 O432 O 0.49444 0.53206 -0.02803
 H433 H 0.55803 0.48814 -0.03825
 H434 H 0.50248 0.56405 0.02006
 H435 H 0.43386 0.48177 -0.02385
 H436 H 0.51225 0.44103 0.04017
 H437 H 0.51811 0.58665 -0.02714
 H438 H 0.46596 0.58351 -0.02289
 H439 H 0.40650 0.51723 0.01615
 H440 H 0.41056 0.46579 0.02481
 H441 H 0.48079 0.39537 0.00794
 H442 H 0.53314 0.39841 0.00255
 H443 H 0.59963 0.47876 0.00157
 H444 H 0.59173 0.55419 -0.02150
 C445 C 0.27694 1.22430 0.20425
 C446 C 0.28632 1.21035 0.18708
 C447 C 0.29802 1.19264 0.16723
 C448 C 0.30591 1.16146 0.17054
 C449 C 0.31834 1.14430 0.15174
 C450 C 0.32308 1.15801 0.12921
 C451 C 0.31471 1.18930 0.12596
 C452 C 0.30228 1.20646 0.14483
 C453 C 0.33781 1.14001 0.10960
 C454 C 0.35984 1.15408 0.09456
 C455 C 0.37557 1.13662 0.07747
 C456 C 0.36952 1.10484 0.07499
 C457 C 0.34699 1.09080 0.08935
 C458 C 0.33119 1.10823 0.10646
 C459 C 0.38875 1.08632 0.05954
 C460 C 0.40673 1.07144 0.04775
 H461 H 0.30282 1.15048 0.18778
 H462 H 0.32499 1.12050 0.15506
 H463 H 0.31771 1.20052 0.10881
 H464 H 0.29620 1.23054 0.14199
 H465 H 0.36586 1.17833 0.09664
 H466 H 0.39320 1.14774 0.06669
 H467 H 0.34216 1.06621 0.08775
 H468 H 0.31407 1.09674 0.11746
 C469 C 0.76466 0.71022 0.70507
 C470 C 0.77465 0.69682 0.68785
 C471 C 0.78738 0.68036 0.66776
 C472 C 0.79468 0.64889 0.66997
 C473 C 0.80844 0.63309 0.65101
 C474 C 0.81518 0.64854 0.62946
 C475 C 0.80732 0.68011 0.62730
 C476 C 0.79356 0.69588 0.64631
 C477 C 0.83157 0.63208 0.60985
 C478 C 0.85494 0.64722 0.59675
 C479 C 0.87207 0.63114 0.57966
 C480 C 0.86610 0.59971 0.57526
 C481 C 0.84234 0.58463 0.58771
 C482 C 0.82515 0.60068 0.60482
 C483 C 0.88634 0.58250 0.55971
 C484 C 0.90495 0.56857 0.54782
 H485 H 0.79022 0.63664 0.68652
 H486 H 0.81462 0.60900 0.65350
 H487 H 0.81184 0.69265 0.61091
 H488 H 0.78805 0.72025 0.64437
 H489 H 0.86086 0.67119 0.60035
 H490 H 0.89062 0.64302 0.57038
 H491 H 0.83757 0.56027 0.58462
 H492 H 0.80706 0.58841 0.61432
 C493 C 0.73368 0.79027 0.20309
 C494 C 0.72502 0.80454 0.18576
 C495 C 0.71345 0.82190 0.16559
 C496 C 0.72386 0.85223 0.16143
 C497 C 0.71078 0.86998 0.14304
 C498 C 0.68699 0.85767 0.12857
 C499 C 0.67720 0.82689 0.13258
 C500 C 0.69032 0.80919 0.15096
 C501 C 0.67127 0.87725 0.11024
 C502 C 0.66159 0.86455 0.08829
 C503 C 0.64443 0.88231 0.07202
 C504 C 0.63678 0.91303 0.07737
 C505 C 0.64711 0.92615 0.09882
 C506 C 0.66427 0.90846 0.11511
 C507 C 0.61575 0.92998 0.06211
 C508 C 0.59657 0.94342 0.05026
 H509 H 0.74170 0.86236 0.17267
 H510 H 0.71911 0.89343 0.14027
 H511 H 0.65864 0.81681 0.12205
 H512 H 0.68190 0.78583 0.15412
 H513 H 0.66692 0.84075 0.08384
 H514 H 0.63643 0.87179 0.05555
 H515 H 0.64104 0.94977 0.10333
 H516 H 0.67095 0.91887 0.13194
 C517 C 1.22591 0.28302 0.70349
 C518 C 1.21772 0.29777 0.68625
 C519 C 1.20684 0.31575 0.66616
 C520 C 1.21829 0.34576 0.66223
 C521 C 1.20601 0.36410 0.64385
 C522 C 1.18202 0.35270 0.62913
 C523 C 1.17116 0.32223 0.63293
 C524 C 1.18346 0.30394 0.65131
 C525 C 1.16726 0.37292 0.61073
 C526 C 1.15754 0.36067 0.58863
 C527 C 1.14127 0.37909 0.57225
 C528 C 1.13458 0.41004 0.57762
 C529 C 1.14499 0.42270 0.59922
 C530 C 1.16125 0.40433 0.61562
 C531 C 1.11424 0.42769 0.56226
 C532 C 1.09548 0.44163 0.55034
 H533 H 1.23634 0.35519 0.67362
 H534 H 1.21515 0.38728 0.64126
 H535 H 1.15242 0.31286 0.62221
 H536 H 1.17424 0.28084 0.65428
 H537 H 1.16214 0.33673 0.58415
 H538 H 1.13316 0.36892 0.55569
 H539 H 1.13964 0.44648 0.60374
 H540 H 1.16798 0.41441 0.63256
 C541 C 0.73315 1.21438 -0.20577
 C542 C 0.72433 1.20034 -0.18840
 C543 C 0.71267 1.18320 -0.16820
 C544 C 0.72245 1.15276 -0.16396
 C545 C 0.70925 1.13527 -0.14551
 C546 C 0.68597 1.14797 -0.13105
 C547 C 0.67682 1.17885 -0.13514
 C548 C 0.69008 1.19629 -0.15357
 C549 C 0.67011 1.12873 -0.11263
 C550 C 0.66107 1.14174 -0.09073
 C551 C 0.64381 1.12433 -0.07435
 C552 C 0.63543 1.09366 -0.07954
 C553 C 0.64510 1.08021 -0.10094
 C554 C 0.66235 1.09757 -0.11735
 C555 C 0.61444 1.07707 -0.06409
 C556 C 0.59537 1.06393 -0.05198
 H557 H 0.73989 1.14233 -0.17519
 H558 H 0.71709 1.11173 -0.14267
 H559 H 0.65866 1.18923 -0.12463
 H560 H 0.68219 1.21975 -0.15674
 H561 H 0.66699 1.16551 -0.08640
 H562 H 0.63631 1.13508 -0.05792
 H563 H 0.63847 1.05662 -0.10530
 H564 H 0.66851 1.08695 -0.13414
 C565 C 1.23075 0.71645 0.29480
 C566 C 1.22186 0.70255 0.31221
 C567 C 1.21033 0.68538 0.33245
 C568 C 1.18731 0.69806 0.34690
 C569 C 1.17437 0.68047 0.36540
 C570 C 1.18424 0.64985 0.36970
 C571 C 1.20790 0.63759 0.35539
 C572 C 1.22080 0.65522 0.33690
 C573 C 1.16879 0.63038 0.38820
 C574 C 1.16180 0.59900 0.38365
 C575 C 1.14498 0.58136 0.40014
 C576 C 1.13499 0.59470 0.42149
 C577 C 1.14260 0.62563 0.42651
 C578 C 1.15943 0.64333 0.41003
 C579 C 1.11437 0.57772 0.43701
 C580 C 1.09550 0.56428 0.44912
 H581 H 1.17885 0.72129 0.34354
 H582 H 1.15590 0.69049 0.37580
 H583 H 1.21629 0.61427 0.35838
 H584 H 1.23857 0.64513 0.32581
 H585 H 1.16826 0.58840 0.36691
 H586 H 1.13892 0.55758 0.39589
 H587 H 1.13482 0.63632 0.44288
 H588 H 1.16477 0.66726 0.41425
 C589 C 0.27564 0.78118 -0.20095
 C590 C 0.28465 0.79534 -0.18368
 C591 C 0.29583 0.81374 -0.16394
 C592 C 0.29600 0.80189 -0.14065
 C593 C 0.30755 0.81991 -0.12178
 C594 C 0.31906 0.85007 -0.12597
 C595 C 0.31850 0.86177 -0.14944
 C596 C 0.30697 0.84376 -0.16822
 C597 C 0.33290 0.86886 -0.10629
 C598 C 0.32878 0.90124 -0.10551
 C599 C 0.34447 0.91926 -0.08853
 C600 C 0.36434 0.90521 -0.07195
 C601 C 0.36762 0.87291 -0.07198
 C602 C 0.35199 0.85485 -0.08895
 C603 C 0.38428 0.92392 -0.05699
 C604 C 0.40301 0.93880 -0.04569
 H605 H 0.28735 0.77871 -0.13709
 H606 H 0.30740 0.81030 -0.10391
 H607 H 0.32770 0.88459 -0.15342
 H608 H 0.30704 0.85317 -0.18617
 H609 H 0.31390 0.91271 -0.11835
 H610 H 0.34187 0.94424 -0.08884
 H611 H 0.38322 0.86177 -0.05945
 H612 H 0.35601 0.83009 -0.08918
 C613 C 0.77518 0.27792 0.30005
 C614 C 0.78404 0.29117 0.31779
 C615 C 0.79495 0.30840 0.33824
 C616 C 0.78035 0.33606 0.34466
 C617 C 0.79240 0.35431 0.36316
 C618 C 0.81931 0.34518 0.37554
 C619 C 0.83339 0.31693 0.36933
 C620 C 0.82131 0.29873 0.35079
 C621 C 0.83359 0.36569 0.39397
 C622 C 0.84728 0.35309 0.41466
 C623 C 0.86305 0.37218 0.43089
 C624 C 0.86531 0.40416 0.42676
 C625 C 0.85094 0.41705 0.40662
 C626 C 0.83513 0.39801 0.39038
 C627 C 0.88530 0.42303 0.44157
 C628 C 0.90392 0.43803 0.45290
 H629 H 0.75998 0.34384 0.33504
 H630 H 0.78079 0.37570 0.36765
 H631 H 0.85437 0.30942 0.37823
 H632 H 0.83298 0.27752 0.34587
 H633 H 0.84619 0.32839 0.41812
 H634 H 0.87428 0.36186 0.44629
 H635 H 0.85287 0.44168 0.40302
 H636 H 0.82525 0.40845 0.37450
 C637 C 1.22209 0.27871 0.20346
 C638 C 1.20767 0.28794 0.18639
 C639 C 1.18880 0.29966 0.16712
 C640 C 1.19727 0.29541 0.14327
 C641 C 1.17861 0.30721 0.12485
 C642 C 1.15118 0.32336 0.13009
 C643 C 1.14288 0.32729 0.15414
 C644 C 1.16153 0.31555 0.17246
 C645 C 1.13184 0.33717 0.11077
 C646 C 1.09929 0.33705 0.11238
 C647 C 1.08125 0.35273 0.09545
 C648 C 1.09541 0.36865 0.07661
 C649 C 1.12769 0.36792 0.07435
 C650 C 1.14578 0.35224 0.09125
 C651 C 1.07734 0.38864 0.06132
 C652 C 1.06302 0.40719 0.04951
 H653 H 1.21828 0.28306 0.13891
 H654 H 1.18551 0.30357 0.10653
 H655 H 1.12228 0.34006 0.15884
 H656 H 1.15479 0.31907 0.19085
 H657 H 1.08781 0.32531 0.12699
 H658 H 1.05632 0.35324 0.09748
 H659 H 1.13897 0.38044 0.06000
 H660 H 1.17073 0.35312 0.08961
 C661 C 0.71100 0.76538 0.70316
 C662 C 0.69774 0.77471 0.68558
 C663 C 0.68080 0.78672 0.66538
 C664 C 0.69639 0.79709 0.64501
 C665 C 0.67988 0.81080 0.62620
 C666 C 0.64751 0.81443 0.62756
 C667 C 0.63205 0.80327 0.64792
 C668 C 0.64858 0.78955 0.66665
 C669 C 0.63014 0.83142 0.60861
 C670 C 0.59995 0.82226 0.60193
 C671 C 0.58271 0.83998 0.58567
 C672 C 0.59546 0.86697 0.57576
 C673 C 0.62576 0.87573 0.58176
 C674 C 0.64298 0.85813 0.59802
 C675 C 0.57700 0.88721 0.56095
 C676 C 0.56248 0.90590 0.54943
 H677 H 0.72134 0.79507 0.64383
 H678 H 0.69247 0.81879 0.61068
 H679 H 0.60729 0.80612 0.64979
 H680 H 0.63628 0.78179 0.68240
 H681 H 0.58951 0.80162 0.60950
 H682 H 0.55925 0.83300 0.58124
 H683 H 0.63580 0.89672 0.57439
 H684 H 0.66590 0.86617 0.60299
 C685 C 1.21874 0.72903 -0.20188
 C686 C 1.20479 0.72023 -0.18450
 C687 C 1.18745 0.70912 -0.16425
 C688 C 1.19834 0.68402 -0.15078
 C689 C 1.18047 0.67184 -0.13217
 C690 C 1.15135 0.68457 -0.12677
 C691 C 1.14092 0.71023 -0.14011
 C692 C 1.15884 0.72236 -0.15871
 C693 C 1.13137 0.67011 -0.10815
 C694 C 1.09930 0.66656 -0.11203
 C695 C 1.08093 0.65049 -0.09557
 C696 C 1.09424 0.63786 -0.07491
 C697 C 1.12593 0.64213 -0.07051
 C698 C 1.14436 0.65818 -0.08695
 C699 C 1.07626 0.61756 -0.05978
 C700 C 1.06195 0.59871 -0.04821
 H701 H 1.22035 0.67343 -0.15498
 H702 H 1.18901 0.65181 -0.12253
 H703 H 1.11883 0.72080 -0.13627
 H704 H 1.15014 0.74177 -0.16902
 H705 H 1.08861 0.67504 -0.12829
 H706 H 1.05655 0.64697 -0.09939
 H707 H 1.13659 0.63224 -0.05470
 H708 H 1.16886 0.66084 -0.08325
 C709 C 0.71744 1.22705 0.29754
 C710 C 0.70330 1.21818 0.31482
 C711 C 0.68591 1.20709 0.33508
 C712 C 0.65738 1.22045 0.34072
 C713 C 0.63964 1.20856 0.35952
 C714 C 0.65018 1.18306 0.37300
 C715 C 0.67918 1.17017 0.36744
 C716 C 0.69686 1.18209 0.34863
 C717 C 0.63046 1.16899 0.39198
 C718 C 0.64375 1.15734 0.41316
 C719 C 0.62552 1.14173 0.42999
 C720 C 0.59372 1.13762 0.42600
 C721 C 0.58012 1.15000 0.40536
 C722 C 0.59829 1.16562 0.38851
 C723 C 0.57592 1.11751 0.44143
 C724 C 0.56172 1.09868 0.45312
 H725 H 0.64863 1.23981 0.33037
 H726 H 0.61763 1.21926 0.36347
 H727 H 0.68779 1.15024 0.37717
 H728 H 0.71882 1.17144 0.34438
 H729 H 0.66834 1.15987 0.41655
 H730 H 0.63642 1.13204 0.44577
 H731 H 0.55565 1.14660 0.40185
 H732 H 0.58735 1.17388 0.37229
 C733 C 0.78429 0.73228 0.20264
 C734 C 0.79761 0.72285 0.18521
 C735 C 0.81416 0.71073 0.16496
 C736 C 0.84323 0.72284 0.15889
 C737 C 0.86033 0.70959 0.14038
 C738 C 0.84864 0.68392 0.12765
 C739 C 0.81908 0.67235 0.13357
 C740 C 0.80202 0.68564 0.15208
 C741 C 0.86767 0.66836 0.10906
 C742 C 0.85381 0.65626 0.08824
 C743 C 0.87136 0.63960 0.07171
 C744 C 0.90304 0.63485 0.07566
 C745 C 0.91719 0.64748 0.09599
 C746 C 0.89971 0.66416 0.11252
 C747 C 0.92029 0.61448 0.06024
 C748 C 0.93430 0.59586 0.04841
 H749 H 0.85291 0.74224 0.16871
 H750 H 0.88279 0.71934 0.13612
 H751 H 0.80953 0.65237 0.12442
 H752 H 0.77964 0.67592 0.15667
 H753 H 0.82931 0.65937 0.08485
 H754 H 0.86003 0.62977 0.05616
 H755 H 0.94158 0.64365 0.09946
 H756 H 0.91107 0.67271 0.12848
 C757 C 0.27387 1.22280 0.70215
 C758 C 0.28737 1.21356 0.68473
 C759 C 0.30463 1.20209 0.66458
 C760 C 0.29427 1.17594 0.65206
 C761 C 0.31219 1.16351 0.63366
 C762 C 0.34086 1.17701 0.62752
 C763 C 0.35076 1.20365 0.63994
 C764 C 0.33280 1.21604 0.65831
 C765 C 0.36088 1.16253 0.60901
 C766 C 0.39317 1.16065 0.61241
 C767 C 0.41176 1.14506 0.59595
 C768 C 0.39847 1.13121 0.57574
 C769 C 0.36650 1.13367 0.57186
 C770 C 0.34785 1.14922 0.58832
 C771 C 0.41702 1.11183 0.56041
 C772 C 0.43192 1.09384 0.54861
 H773 H 0.27265 1.16475 0.65684
 H774 H 0.30403 1.14274 0.62476
 H775 H 0.37249 1.21485 0.63552
 H776 H 0.34115 1.23624 0.66789
 H777 H 0.40396 1.17020 0.62827
 H778 H 0.43637 1.14301 0.59938
 H779 H 0.35583 1.12287 0.55642
 H780 H 0.32318 1.15056 0.58497
 C781 C 0.78670 0.26992 -0.20545
 C782 C 0.80066 0.27872 -0.18801
 C783 C 0.81794 0.29011 -0.16773
 C784 C 0.80559 0.31343 -0.15336
 C785 C 0.82324 0.32620 -0.13479
 C786 C 0.85362 0.31584 -0.13031
 C787 C 0.86558 0.29191 -0.14455
 C788 C 0.84787 0.27917 -0.16312
 C789 C 0.87315 0.33107 -0.11169
 C790 C 0.90459 0.33768 -0.11607
 C791 C 0.92228 0.35443 -0.09949
 C792 C 0.90892 0.36472 -0.07824
 C793 C 0.87795 0.35741 -0.07337
 C794 C 0.86020 0.34066 -0.08993
 C795 C 0.92587 0.38554 -0.06277
 C796 C 0.93922 0.40465 -0.05075
 H797 H 0.78254 0.32225 -0.15686
 H798 H 0.81348 0.34490 -0.12445
 H799 H 0.88872 0.28316 -0.14143
 H800 H 0.85771 0.26115 -0.17414
 H801 H 0.91519 0.33104 -0.13275
 H802 H 0.94609 0.36026 -0.10362
 H803 H 0.86724 0.36542 -0.05709
 H804 H 0.83622 0.33560 -0.08585
 C805 C 0.28698 0.76913 0.29455
 C806 C 0.30112 0.77765 0.31198
 C807 C 0.31829 0.78897 0.33232
 C808 C 0.30579 0.81224 0.34667
 C809 C 0.32331 0.82501 0.36530
 C810 C 0.35369 0.81472 0.36985
 C811 C 0.36580 0.79085 0.35563
 C812 C 0.34821 0.77810 0.33699
 C813 C 0.37309 0.83002 0.38851
 C814 C 0.40449 0.83683 0.38416
 C815 C 0.42202 0.85376 0.40072
 C816 C 0.40853 0.86402 0.42193
 C817 C 0.37761 0.85650 0.42679
 C818 C 0.36003 0.83957 0.41024
 C819 C 0.42532 0.88496 0.43737
 C820 C 0.43862 0.90414 0.44936
 H821 H 0.28274 0.82103 0.34310
 H822 H 0.31346 0.84369 0.37562
 H823 H 0.38895 0.78218 0.35880
 H824 H 0.35817 0.76015 0.32597
 H825 H 0.41517 0.83022 0.36751
 H826 H 0.44579 0.85976 0.39660
 H827 H 0.36682 0.86448 0.44305
 H828 H 0.33607 0.83435 0.41429
 C829 C 1.21368 1.21735 0.28454
 C830 C 1.19829 1.20258 0.29824
 C831 C 1.18008 1.18523 0.31479
 C832 C 1.16047 1.20070 0.33050
 C833 C 1.14301 1.18384 0.34692
 C834 C 1.14511 1.15133 0.34775
 C835 C 1.16482 1.13600 0.33181
 C836 C 1.18224 1.15291 0.31540
 C837 C 1.12718 1.13348 0.36544
 C838 C 1.14114 1.10901 0.37806
 C839 C 1.12438 1.09244 0.39507
 C840 C 1.09357 1.10015 0.39956
 C841 C 1.07941 1.12434 0.38704
 C842 C 1.09613 1.14098 0.37003
 C843 C 1.07666 1.08335 0.41724
 C844 C 1.06287 1.06906 0.43220
 H845 H 1.15884 1.22577 0.33014
 H846 H 1.12829 1.19619 0.35922
 H847 H 1.16655 1.11095 0.33195
 H848 H 1.19741 1.14084 0.30324
 H849 H 1.16516 1.10306 0.37508
 H850 H 1.13548 1.07376 0.40479
 H851 H 1.05551 1.13034 0.39046
 H852 H 1.08478 1.15952 0.36034
 C853 C 0.69944 0.70509 -0.21597
 C854 C 0.68218 0.68858 -0.20496
 C855 C 0.66122 0.66800 -0.19307
 C856 C 0.65801 0.63746 -0.20110
 C857 C 0.63737 0.61726 -0.18985
 C858 C 0.61967 0.62749 -0.17046
 C859 C 0.62284 0.65836 -0.16268
 C860 C 0.64352 0.67851 -0.17395
 C861 C 0.59939 0.60569 -0.15739
 C862 C 0.57042 0.61539 -0.14894
 C863 C 0.55340 0.59641 -0.13359
 C864 C 0.56510 0.56755 -0.12668
 C865 C 0.59302 0.55695 -0.13610
 C866 C 0.61006 0.57588 -0.15147
 C867 C 0.55153 0.55158 -0.10689
 C868 C 0.54192 0.54001 -0.08887
 H869 H 0.67149 0.62925 -0.21605
 H870 H 0.63521 0.59368 -0.19628
 H871 H 0.60989 0.66669 -0.14751
 H872 H 0.64583 0.70217 -0.16769
 H873 H 0.56151 0.63810 -0.15351
 H874 H 0.53196 0.60493 -0.12614
 H875 H 0.60248 0.53485 -0.13050
 H876 H 0.63245 0.56795 -0.15751
 C877 C 0.78970 1.21295 0.71121
 C878 C 0.80257 1.19762 0.69659
 C879 C 0.81676 1.17854 0.67914
 C880 C 0.79847 1.16503 0.66131
 C881 C 0.81190 1.14545 0.64464
 C882 C 0.84378 1.13935 0.64573
 C883 C 0.86200 1.15313 0.66370
 C884 C 0.84849 1.17266 0.68038
 C885 C 0.85814 1.11906 0.62797
 C886 C 0.88631 1.12782 0.61749
 C887 C 0.90012 1.10871 0.60075
 C888 C 0.88592 1.08075 0.59433
 C889 C 0.85782 1.07179 0.60455
 C890 C 0.84389 1.09096 0.62134
 C891 C 0.90083 1.06157 0.57731
 C892 C 0.91524 1.04717 0.56298
 H893 H 0.77386 1.16957 0.66037
 H894 H 0.79752 1.13537 0.63077
 H895 H 0.88657 1.14845 0.66498
 H896 H 0.86267 1.18296 0.69429
 H897 H 0.89745 1.14958 0.62207
 H898 H 0.92190 1.11571 0.59280
 H899 H 0.84684 1.05006 0.59964
 H900 H 0.82228 1.08368 0.62938
 C901 C 0.28669 0.71275 0.21136
 C902 C 0.30191 0.69847 0.19743
 C903 C 0.32102 0.68172 0.18137
 C904 C 0.30763 0.66288 0.16386
 C905 C 0.32652 0.64619 0.14849
 C906 C 0.35893 0.64831 0.15056
 C907 C 0.37213 0.66741 0.16817
 C908 C 0.35320 0.68403 0.18354
 C909 C 0.37890 0.63067 0.13435
 C910 C 0.40490 0.64486 0.12391
 C911 C 0.42316 0.62842 0.10792
 C912 C 0.41559 0.59773 0.10238
 C913 C 0.39011 0.58326 0.11299
 C914 C 0.37180 0.59965 0.12893
 C915 C 0.43272 0.58150 0.08472
 C916 C 0.44589 0.56750 0.06943
 H917 H 0.28268 0.66109 0.16213
 H918 H 0.31586 0.63189 0.13484
 H919 H 0.39702 0.66912 0.17026
 H920 H 0.36364 0.69854 0.19717
 H921 H 0.41062 0.66885 0.12765
 H922 H 0.44277 0.63977 0.09958
 H923 H 0.38413 0.55948 0.10868
 H924 H 0.35211 0.58814 0.13700
 C925 C 1.21590 0.79214 0.71773
 C926 C 1.20031 0.80881 0.70552
 C927 C 1.18088 0.82877 0.69173
 C928 C 1.17868 0.86015 0.69766
 C929 C 1.15883 0.87945 0.68478
 C930 C 1.14093 0.86741 0.66592
 C931 C 1.14331 0.83579 0.66013
 C932 C 1.16320 0.81657 0.67301
 C933 C 1.12069 0.88784 0.65167
 C934 C 1.09125 0.87751 0.64429
 C935 C 1.07363 0.89531 0.62853
 C936 C 1.08521 0.92360 0.62013
 C937 C 1.11382 0.93476 0.62824
 C938 C 1.13149 0.91700 0.64402
 C939 C 1.06976 0.93897 0.60089
 C940 C 1.05783 0.95043 0.58365
 H941 H 1.19216 0.86964 0.71231
 H942 H 1.15723 0.90367 0.68968
 H943 H 1.13017 0.82607 0.64541
 H944 H 1.16474 0.79224 0.66840
 H945 H 1.08227 0.85531 0.65020
 H946 H 1.05158 0.88643 0.62217
 H947 H 1.12308 0.95649 0.62155
 H948 H 1.15421 0.92534 0.64926
 C949 C 0.71823 0.29329 0.21789
 C950 C 0.70559 0.31158 0.20498
 C951 C 0.69083 0.33390 0.18985
 C952 C 0.70829 0.35780 0.17957
 C953 C 0.69393 0.37956 0.16477
 C954 C 0.66194 0.37758 0.16017
 C955 C 0.64457 0.35362 0.17081
 C956 C 0.65898 0.33189 0.18558
 C957 C 0.64686 0.39933 0.14338
 C958 C 0.61714 0.41088 0.14814
 C959 C 0.60149 0.42847 0.13102
 C960 C 0.61543 0.43484 0.10908
 C961 C 0.64548 0.42454 0.10456
 C962 C 0.66117 0.40693 0.12164
 C963 C 0.59758 0.44845 0.09021
 C964 C 0.58198 0.45791 0.07398
 H965 H 0.73298 0.35954 0.18293
 H966 H 0.70776 0.39793 0.15694
 H967 H 0.62000 0.35124 0.16726
 H968 H 0.64535 0.31342 0.19350
 H969 H 0.60574 0.40564 0.16486
 H970 H 0.57811 0.43613 0.13456
 H971 H 0.65626 0.42902 0.08747
 H972 H 0.68386 0.39798 0.11737
 C973 C 0.79378 0.78829 0.28536
 C974 C 0.81221 0.80094 0.29814
 C975 C 0.83542 0.81569 0.31243
 C976 C 0.82963 0.84454 0.32270
 C977 C 0.85281 0.85941 0.33583
 C978 C 0.88200 0.84550 0.33875
 C979 C 0.88758 0.81648 0.32834
 C980 C 0.86436 0.80167 0.31520
 C981 C 0.90596 0.86079 0.35347
 C982 C 0.92272 0.84363 0.37051
 C983 C 0.94224 0.85875 0.38666
 C984 C 0.94533 0.89102 0.38575
 C985 C 0.93008 0.90807 0.36802
 C986 C 0.91055 0.89302 0.35188
 C987 C 0.95993 0.90706 0.40505
 C988 C 0.96976 0.92104 0.42196
 H989 H 0.80728 0.85555 0.32053
 H990 H 0.84776 0.88151 0.34404
 H991 H 0.90993 0.80541 0.33022
 H992 H 0.86902 0.77940 0.30707
 H993 H 0.91939 0.81880 0.37222
 H994 H 0.95361 0.84550 0.40061
 H995 H 0.93211 0.93313 0.36741
 H996 H 0.89821 0.90667 0.33868
 C997 C 0.28659 0.27712 -0.21395
 C998 C 0.30283 0.28801 -0.19867
 C999 C 0.32177 0.30045 -0.17999
 C1000 C 0.32197 0.28617 -0.15756
 C1001 C 0.33981 0.29865 -0.13907
 C1002 C 0.35760 0.32555 -0.14292
 C1003 C 0.35742 0.33957 -0.16562
 C1004 C 0.33958 0.32705 -0.18407
 C1005 C 0.37545 0.33970 -0.12320
 C1006 C 0.40531 0.35162 -0.12727
 C1007 C 0.42112 0.36736 -0.10922
 C1008 C 0.40729 0.37130 -0.08693
 C1009 C 0.37799 0.35871 -0.08244
 C1010 C 0.36214 0.34288 -0.10049
 C1011 C 0.42232 0.39033 -0.06945
 C1012 C 0.43519 0.40743 -0.05570
 H1013 H 0.30820 0.26554 -0.15434
 H1014 H 0.33976 0.28728 -0.12182
 H1015 H 0.37051 0.36061 -0.16894
 H1016 H 0.33941 0.33828 -0.20139
 H1017 H 0.41621 0.34911 -0.14452
 H1018 H 0.44379 0.37712 -0.11282
 H1019 H 0.36706 0.36188 -0.06527
 H1020 H 0.33904 0.33416 -0.09698
 C1021 C 1.21233 0.26856 -0.20380
 C1022 C 1.19852 0.27855 -0.18679
 C1023 C 1.18065 0.29133 -0.16749
 C1024 C 1.15111 0.30315 -0.17220
 C1025 C 1.13382 0.31662 -0.15396
 C1026 C 1.14577 0.31851 -0.13058
 C1027 C 1.17542 0.30627 -0.12593
 C1028 C 1.19271 0.29277 -0.14426
 C1029 C 1.12779 0.33432 -0.11150
 C1030 C 1.14277 0.35391 -0.09497
 C1031 C 1.12563 0.37086 -0.07839
 C1032 C 1.09327 0.36844 -0.07796
 C1033 C 1.07821 0.34831 -0.09383
 C1034 C 1.09531 0.33131 -0.11042
 C1035 C 1.07561 0.38879 -0.06280
 C1036 C 1.06157 0.40742 -0.05099
 H1037 H 1.14156 0.30233 -0.19011
 H1038 H 1.11140 0.32630 -0.15832
 H1039 H 1.18522 0.30708 -0.10812
 H1040 H 1.21554 0.28368 -0.14036
 H1041 H 1.16764 0.35712 -0.09546
 H1042 H 1.13758 0.38658 -0.06639
 H1043 H 1.05320 0.34630 -0.09378
 H1044 H 1.08307 0.31611 -0.12262
 C1045 C 0.71871 0.77572 0.29570
 C1046 C 0.70428 0.78506 0.31263
 C1047 C 0.68584 0.79691 0.33199
 C1048 C 0.65521 0.80587 0.32763
 C1049 C 0.63736 0.81853 0.34592
 C1050 C 0.64984 0.82247 0.36898
 C1051 C 0.68058 0.81301 0.37329
 C1052 C 0.69843 0.80035 0.35492
 C1053 C 0.63126 0.83761 0.38805
 C1054 C 0.64520 0.85896 0.40380
 C1055 C 0.62738 0.87509 0.42043
 C1056 C 0.59534 0.87014 0.42169
 C1057 C 0.58135 0.84832 0.40658
 C1058 C 0.59916 0.83211 0.38993
 C1059 C 0.57678 0.88957 0.43693
 C1060 C 0.56216 0.90763 0.44886
 H1061 H 0.64522 0.80351 0.30994
 H1062 H 0.61404 0.82602 0.34180
 H1063 H 0.69084 0.81539 0.39086
 H1064 H 0.72210 0.79351 0.35855
 H1065 H 0.66971 0.86413 0.40267
 H1066 H 0.63849 0.89213 0.43183
 H1067 H 0.55659 0.84433 0.40727
 H1068 H 0.58772 0.81554 0.37834
 C1069 C 0.77220 0.72283 -0.20134
 C1070 C 0.78548 0.71424 -0.18352
 C1071 C 0.80247 0.70353 -0.16288
 C1072 C 0.82957 0.71891 -0.15570
 C1073 C 0.84754 0.70712 -0.13693
 C1074 C 0.83867 0.67969 -0.12506
 C1075 C 0.81097 0.66481 -0.13206
 C1076 C 0.79306 0.67663 -0.15085
 C1077 C 0.85896 0.66568 -0.10639
 C1078 C 0.84614 0.65118 -0.08616
 C1079 C 0.86511 0.63554 -0.06980
 C1080 C 0.89715 0.63424 -0.07334
 C1081 C 0.91023 0.64946 -0.09297
 C1082 C 0.89133 0.66513 -0.10934
 C1083 C 0.91600 0.61438 -0.05851
 C1084 C 0.93113 0.59595 -0.04719
 H1085 H 0.83715 0.73971 -0.16490
 H1086 H 0.86851 0.71932 -0.13182
 H1087 H 0.80370 0.64342 -0.12359
 H1088 H 0.77227 0.66438 -0.15636
 H1089 H 0.82139 0.65149 -0.08319
 H1090 H 0.85465 0.62366 -0.05478
 H1091 H 0.93493 0.64829 -0.09611
 H1092 H 0.90193 0.67566 -0.12486
 C1093 C 0.28498 1.23495 0.29795
 C1094 C 0.29754 1.22541 0.31577
 C1095 C 0.31314 1.21314 0.33652
 C1096 C 0.34085 1.22660 0.34454
 C1097 C 0.35728 1.21322 0.36351
 C1098 C 0.34625 1.18608 0.37469
 C1099 C 0.31799 1.17315 0.36682
 C1100 C 0.30160 1.18657 0.34786
 C1101 C 0.36489 1.17028 0.39353
 C1102 C 0.35041 1.15593 0.41316
 C1103 C 0.36775 1.13868 0.42963
 C1104 C 0.39979 1.13562 0.42680
 C1105 C 0.41452 1.15062 0.40778
 C1106 C 0.39725 1.16788 0.39130
 C1107 C 0.41702 1.11460 0.44184
 C1108 C 0.43119 1.09555 0.45328
 H1109 H 0.35005 1.24712 0.33586
 H1110 H 0.37875 1.22395 0.36930
 H1111 H 0.30908 1.15202 0.37475
 H1112 H 0.28031 1.17580 0.34169
 H1113 H 0.32562 1.15766 0.41558
 H1114 H 0.35603 1.12703 0.44419
 H1115 H 0.43923 1.14814 0.40521
 H1116 H 0.40908 1.17824 0.37625
 C1117 C 1.21472 0.73274 0.20214
 C1118 C 1.20074 0.72427 0.18460
 C1119 C 1.18379 0.71304 0.16410
 C1120 C 1.15447 0.72491 0.15863
 C1121 C 1.13706 0.71235 0.13982
 C1122 C 1.14870 0.68764 0.12621
 C1123 C 1.17851 0.67635 0.13154
 C1124 C 1.19588 0.68896 0.15034
 C1125 C 1.12930 0.67251 0.10745
 C1126 C 1.14264 0.66166 0.08618
 C1127 C 1.12488 0.64494 0.06961
 C1128 C 1.09351 0.63891 0.07396
 C1129 C 1.07981 0.65047 0.09468
 C1130 C 1.09750 0.66719 0.11127
 C1131 C 1.07635 0.61806 0.05864
 C1132 C 1.06258 0.59890 0.04694
 H1133 H 1.14484 0.74353 0.16917
 H1134 H 1.11439 0.72183 0.13603
 H1135 H 1.18803 0.65706 0.12171
 H1136 H 1.21847 0.67944 0.15449
 H1137 H 1.16693 0.66569 0.08252
 H1138 H 1.13584 0.63593 0.05374
 H1139 H 1.05567 0.64562 0.09844
 H1140 H 1.08657 0.67479 0.12757
 C1141 C 0.71761 1.22984 0.70158
 C1142 C 0.70350 1.22114 0.68417
 C1143 C 0.68615 1.20988 0.66388
 C1144 C 0.65815 1.22385 0.65731
 C1145 C 0.64028 1.21153 0.63865
 C1146 C 0.65022 1.18505 0.62626
 C1147 C 0.67870 1.17156 0.63272
 C1148 C 0.69643 1.18384 0.65142
 C1149 C 0.63037 1.17047 0.60756
 C1150 C 0.64360 1.15773 0.58690
 C1151 C 0.62530 1.14133 0.57050
 C1152 C 0.59353 1.13748 0.57445
 C1153 C 0.57996 1.15098 0.59452
 C1154 C 0.59820 1.16744 0.61092
 C1155 C 0.57572 1.11674 0.55952
 C1156 C 0.56163 1.09762 0.54804
 H1157 H 0.64987 1.24397 0.66687
 H1158 H 0.61862 1.22261 0.63398
 H1159 H 0.68678 1.15087 0.62384
 H1160 H 0.71784 1.17259 0.65650
 H1161 H 0.66820 1.15997 0.58363
 H1162 H 0.63613 1.13082 0.55514
 H1163 H 0.55547 1.14784 0.59795
 H1164 H 0.58735 1.17659 0.62677
 C1165 C 0.78876 0.27087 0.20688
 C1166 C 0.80361 0.28088 0.19034
 C1167 C 0.82216 0.29393 0.17143
 C1168 C 0.84009 0.32043 0.17591
 C1169 C 0.85848 0.33325 0.15792
 C1170 C 0.85931 0.31976 0.13508
 C1171 C 0.84109 0.29318 0.13067
 C1172 C 0.82269 0.28033 0.14876
 C1173 C 0.87877 0.33386 0.11600
 C1174 C 0.86744 0.33684 0.09250
 C1175 C 0.88471 0.35269 0.07517
 C1176 C 0.91364 0.36552 0.08103
 C1177 C 0.92556 0.36163 0.10412
 C1178 C 0.90834 0.34589 0.12145
 C1179 C 0.92951 0.38566 0.06443
 C1180 C 0.94209 0.40447 0.05167
 H1181 H 0.83982 0.33125 0.19334
 H1182 H 0.87171 0.35404 0.16180
 H1183 H 0.84138 0.28212 0.11334
 H1184 H 0.80898 0.25976 0.14508
 H1185 H 0.84468 0.32808 0.08777
 H1186 H 0.87504 0.35583 0.05746
 H1187 H 0.94780 0.37161 0.10896
 H1188 H 0.91795 0.34355 0.13924
 C1189 C 0.28744 0.77082 0.70574
 C1190 C 0.30145 0.77966 0.68839
 C1191 C 0.31880 0.79090 0.66816
 C1192 C 0.34848 0.77946 0.66364
 C1193 C 0.36618 0.79181 0.64498
 C1194 C 0.35445 0.81587 0.63055
 C1195 C 0.32432 0.82678 0.63498
 C1196 C 0.30668 0.81440 0.65364
 C1197 C 0.37396 0.83057 0.61173
 C1198 C 0.36083 0.84023 0.58990
 C1199 C 0.37861 0.85647 0.57313
 C1200 C 0.40981 0.86322 0.57784
 C1201 C 0.42333 0.85285 0.59916
 C1202 C 0.40560 0.83658 0.61595
 C1203 C 0.42681 0.88376 0.56220
 C1204 C 0.44011 0.90281 0.55009
 H1205 H 0.35815 0.76129 0.67475
 H1206 H 0.38910 0.78263 0.64192
 H1207 H 0.31472 0.84558 0.62449
 H1208 H 0.28382 0.82360 0.65704
 H1209 H 0.33668 0.83563 0.58594
 H1210 H 0.36777 0.86455 0.55680
 H1211 H 0.44731 0.85826 0.60320
 H1212 H 0.41637 0.82987 0.63265
 C1213 C 0.26068 1.20837 -0.20482
 C1214 C 0.26952 1.19429 -0.18745
 C1215 C 0.28153 1.17740 -0.16718
 C1216 C 0.29065 1.14650 -0.16982
 C1217 C 0.30465 1.13071 -0.15081
 C1218 C 0.30984 1.14561 -0.12880
 C1219 C 0.29996 1.17650 -0.12616
 C1220 C 0.28593 1.19226 -0.14522
 C1221 C 0.32696 1.12948 -0.10924
 C1222 C 0.34929 1.14553 -0.09558
 C1223 C 0.36736 1.12986 -0.07865
 C1224 C 0.36336 1.09795 -0.07500
 C1225 C 0.34058 1.08193 -0.08798
 C1226 C 0.32246 1.09757 -0.10493
 C1227 C 0.38462 1.08134 -0.05968
 C1228 C 0.40390 1.06786 -0.04794
 H1229 H 0.28760 1.13481 -0.18677
 H1230 H 0.31238 1.10716 -0.15363
 H1231 H 0.30326 1.18856 -0.10941
 H1232 H 0.27899 1.21618 -0.14294
 H1233 H 0.35372 1.16995 -0.09865
 H1234 H 0.38513 1.14248 -0.06894
 H1235 H 0.33734 1.05721 -0.08544
 H1236 H 0.30521 1.08460 -0.11489
 C1237 C 0.76973 0.71767 0.29544
 C1238 C 0.77824 0.70326 0.31276
 C1239 C 0.78951 0.68559 0.33288
 C1240 C 0.79394 0.69973 0.35511
 C1241 C 0.80679 0.68294 0.37415
 C1242 C 0.81547 0.65172 0.37120
 C1243 C 0.81040 0.63763 0.34887
 C1244 C 0.79754 0.65444 0.32990
 C1245 C 0.83123 0.63435 0.39081
 C1246 C 0.82539 0.60250 0.39442
 C1247 C 0.84236 0.58563 0.41138
 C1248 C 0.86527 0.60035 0.42510
 C1249 C 0.87053 0.63220 0.42218
 C1250 C 0.85365 0.64909 0.40523
 C1251 C 0.88556 0.58250 0.44036
 C1252 C 0.90430 0.56823 0.45206
 H1253 H 0.78788 0.72385 0.35765
 H1254 H 0.81006 0.69442 0.39114
 H1255 H 0.81730 0.61387 0.34580
 H1256 H 0.79446 0.64328 0.31274
 H1257 H 0.80802 0.59052 0.38387
 H1258 H 0.83816 0.56097 0.41334
 H1259 H 0.88844 0.64382 0.43246
 H1260 H 0.85909 0.67342 0.40274
 C1261 C 0.73056 1.21960 0.20401
 C1262 C 0.72142 1.20655 0.18626
 C1263 C 0.71002 1.18970 0.16577
 C1264 C 0.68487 1.20097 0.15255
 C1265 C 0.67226 1.18335 0.13388
 C1266 C 0.68456 1.15409 0.12820
 C1267 C 0.71029 1.14330 0.14128
 C1268 C 0.72287 1.16097 0.15991
 C1269 C 0.66964 1.13435 0.10955
 C1270 C 0.66582 1.10224 0.11325
 C1271 C 0.64949 1.08408 0.09671
 C1272 C 0.63688 1.09764 0.07613
 C1273 C 0.64137 1.12938 0.07194
 C1274 C 0.65766 1.14760 0.08847
 C1275 C 0.61648 1.07988 0.06081
 C1276 C 0.59758 1.06591 0.04897
 H1277 H 0.67455 1.22305 0.15702
 H1278 H 0.65221 1.19218 0.12444
 H1279 H 0.72056 1.12109 0.13721
 H1280 H 0.74229 1.15195 0.17005
 H1281 H 0.67433 1.09135 0.12942
 H1282 H 0.64583 1.05965 0.10037
 H1283 H 0.63151 1.14025 0.05620
 H1284 H 0.66051 1.17214 0.08492
 C1285 C 1.23030 0.71896 0.70473
 C1286 C 1.22100 0.70560 0.68717
 C1287 C 1.20939 0.68858 0.66685
 C1288 C 1.18475 0.70026 0.65328
 C1289 C 1.17195 0.68262 0.63472
 C1290 C 1.18358 0.65293 0.62949
 C1291 C 1.20881 0.64172 0.64292
 C1292 C 1.22157 0.65941 0.66146
 C1293 C 1.16845 0.63323 0.61094
 C1294 C 1.16375 0.60130 0.61499
 C1295 C 1.14730 0.58322 0.59848
 C1296 C 1.13540 0.59668 0.57763
 C1297 C 1.14074 0.62821 0.57309
 C1298 C 1.15717 0.64636 0.58958
 C1299 C 1.11494 0.57909 0.56229
 C1300 C 1.09608 0.56520 0.55038
 H1301 H 1.17498 0.72271 0.65739
 H1302 H 1.15229 0.69178 0.62499
 H1303 H 1.21855 0.61917 0.63918
 H1304 H 1.24061 0.65009 0.67185
 H1305 H 1.17170 0.59053 0.63137
 H1306 H 1.14297 0.55896 0.60238
 H1307 H 1.13145 0.63899 0.55712
 H1308 H 1.16070 0.67074 0.58577
 C1309 C 0.71890 0.77829 -0.20351
 C1310 C 0.70985 0.79295 -0.18658
 C1311 C 0.69876 0.81147 -0.16696
 C1312 C 0.67441 0.80078 -0.15270
 C1313 C 0.66250 0.81959 -0.13461
 C1314 C 0.67472 0.84949 -0.13052
 C1315 C 0.69952 0.85982 -0.14475
 C1316 C 0.71141 0.84096 -0.16280
 C1317 C 0.66087 0.87016 -0.11214
 C1318 C 0.65670 0.90201 -0.11678
 C1319 C 0.64165 0.92098 -0.10027
 C1320 C 0.63066 0.90854 -0.07880
 C1321 C 0.63546 0.87709 -0.07373
 C1322 C 0.65047 0.85806 -0.09022
 C1323 C 0.61159 0.92706 -0.06324
 C1324 C 0.59372 0.94155 -0.05107
 H1325 H 0.66426 0.77811 -0.15582
 H1326 H 0.64312 0.81105 -0.12428
 H1327 H 0.70972 0.88251 -0.14194
 H1328 H 0.73023 0.84955 -0.17373
 H1329 H 0.66401 0.91204 -0.13357
 H1330 H 0.63773 0.94516 -0.10460
 H1331 H 0.62687 0.86706 -0.05728
 H1332 H 0.65365 0.83379 -0.08591
 C1333 C 1.23079 0.28932 0.29684
 C1334 C 1.22114 0.30290 0.31409
 C1335 C 1.20902 0.31997 0.33408
 C1336 C 1.18425 0.30798 0.34728
 C1337 C 1.17104 0.32554 0.36556
 C1338 C 1.18237 0.35545 0.37090
 C1339 C 1.20769 0.36701 0.35781
 C1340 C 1.22087 0.34941 0.33955
 C1341 C 1.16697 0.37492 0.38929
 C1342 C 1.16233 0.40684 0.38533
 C1343 C 1.14583 0.42470 0.40174
 C1344 C 1.13381 0.41102 0.42243
 C1345 C 1.13905 0.37948 0.42686
 C1346 C 1.15553 0.36158 0.41046
 C1347 C 1.11353 0.42845 0.43778
 C1348 C 1.09490 0.44222 0.44975
 H1349 H 1.17473 0.28532 0.34313
 H1350 H 1.15132 0.31608 0.37500
 H1351 H 1.21724 0.38974 0.36162
 H1352 H 1.24001 0.35897 0.32946
 H1353 H 1.17042 0.41781 0.36910
 H1354 H 1.14165 0.44897 0.39792
 H1355 H 1.12972 0.36853 0.44270
 H1356 H 1.15903 0.33720 0.41424
 C1357 C 0.27072 0.78572 0.20210
 C1358 C 0.27946 0.80012 0.18490
 C1359 C 0.29079 0.81818 0.16506
 C1360 C 0.29527 0.80449 0.14272
 C1361 C 0.30798 0.82184 0.12397
 C1362 C 0.31645 0.85314 0.12733
 C1363 C 0.31131 0.86675 0.14976
 C1364 C 0.29860 0.84940 0.16844
 C1365 C 0.33214 0.87111 0.10808
 C1366 C 0.32610 0.90292 0.10478
 C1367 C 0.34310 0.92040 0.08826
 C1368 C 0.36623 0.90631 0.07469
 C1369 C 0.37168 0.87450 0.07729
 C1370 C 0.35476 0.85700 0.09380
 C1371 C 0.38650 0.92475 0.05992
 C1372 C 0.40521 0.93946 0.04856
 H1373 H 0.28933 0.78033 0.13988
 H1374 H 0.31131 0.81073 0.10687
 H1375 H 0.31805 0.89056 0.15314
 H1376 H 0.29542 0.86020 0.18569
 H1377 H 0.30857 0.91441 0.11524
 H1378 H 0.33877 0.94503 0.08653
 H1379 H 0.38976 0.86339 0.06711
 H1380 H 0.36036 0.83273 0.09609
 C1381 C 0.77120 0.28514 0.70174
 C1382 C 0.77972 0.29901 0.68422
 C1383 C 0.79090 0.31592 0.66376
 C1384 C 0.77841 0.34488 0.65791
 C1385 C 0.79090 0.36234 0.63916
 C1386 C 0.81615 0.35109 0.62600
 C1387 C 0.82807 0.32162 0.63171
 C1388 C 0.81553 0.30421 0.65045
 C1389 C 0.83116 0.37059 0.60733
 C1390 C 0.84272 0.35719 0.58631
 C1391 C 0.85935 0.37511 0.56987
 C1392 C 0.86460 0.40670 0.57413
 C1393 C 0.85233 0.42045 0.59459
 C1394 C 0.83569 0.40259 0.61104
 C1395 C 0.88532 0.42414 0.55901
 C1396 C 0.90430 0.43828 0.54749
 H1397 H 0.75937 0.35421 0.66811
 H1398 H 0.78095 0.38474 0.63506
 H1399 H 0.84778 0.31246 0.62224
 H1400 H 0.82554 0.28193 0.65492
 H1401 H 0.83931 0.33273 0.58276
 H1402 H 0.86889 0.36413 0.55419
 H1403 H 0.85655 0.44477 0.59826
 H1404 H 0.82752 0.41357 0.62716
 C1405 C 1.19839 1.21365 0.71368
 C1406 C 1.17909 1.20177 0.70118
 C1407 C 1.15513 1.18759 0.68722
 C1408 C 1.15218 1.19456 0.66296
 C1409 C 1.12888 1.18039 0.64944
 C1410 C 1.10830 1.15916 0.66012
 C1411 C 1.11114 1.15278 0.68464
 C1412 C 1.13446 1.16695 0.69811
 C1413 C 1.08546 1.14216 0.64534
 C1414 C 1.08143 1.11003 0.64845
 C1415 C 1.06328 1.09308 0.63244
 C1416 C 1.04888 1.10807 0.61326
 C1417 C 1.05140 1.14025 0.61072
 C1418 C 1.06953 1.15727 0.62674
 C1419 C 1.03587 1.08993 0.59432
 C1420 C 1.02749 1.07439 0.57774
 H1421 H 1.16806 1.21062 0.65445
 H1422 H 1.12754 1.18535 0.63052
 H1423 H 1.09543 1.13674 0.69334
 H1424 H 1.13649 1.16166 0.71697
 H1425 H 1.09373 1.09770 0.66241
 H1426 H 1.06181 1.06810 0.63430
 H1427 H 1.04054 1.15198 0.59575
 H1428 H 1.07195 1.18206 0.62414
 C1429 C 0.71135 0.71967 0.21201
 C1430 C 0.69722 0.70684 0.19643
 C1431 C 0.68136 0.69159 0.17736
 C1432 C 0.68785 0.66056 0.17245
 C1433 C 0.67313 0.64578 0.15342
 C1434 C 0.65181 0.66199 0.13910
 C1435 C 0.64551 0.69324 0.14413
 C1436 C 0.66028 0.70799 0.16319
 C1437 C 0.63562 0.64598 0.11941
 C1438 C 0.60363 0.65006 0.11601
 C1439 C 0.58790 0.63321 0.09851
 C1440 C 0.60401 0.61226 0.08426
 C1441 C 0.63596 0.60864 0.08706
 C1442 C 0.65174 0.62546 0.10455
 C1443 C 0.58739 0.59301 0.06787
 C1444 C 0.57308 0.57630 0.05472
 H1445 H 0.70427 0.64781 0.18334
 H1446 H 0.67804 0.62156 0.15013
 H1447 H 0.62941 0.70629 0.13319
 H1448 H 0.65539 0.73214 0.16682
 H1449 H 0.59063 0.66546 0.12740
 H1450 H 0.56309 0.63594 0.09650
 H1451 H 0.64852 0.59240 0.07606
 H1452 H 0.67646 0.62221 0.10663
 C1453 C 1.21647 0.78985 0.28592
 C1454 C 1.20505 0.80558 0.30104
 C1455 C 1.19221 0.82471 0.31912
 C1456 C 1.16934 0.81281 0.33413
 C1457 C 1.15637 0.83174 0.35148
 C1458 C 1.16621 0.86271 0.35389
 C1459 C 1.18966 0.87428 0.33901
 C1460 C 1.20259 0.85530 0.32165
 C1461 C 1.15118 0.88306 0.37135
 C1462 C 1.16881 0.90300 0.38594
 C1463 C 1.15420 0.92161 0.40281
 C1464 C 1.12198 0.92047 0.40498
 C1465 C 1.10431 0.90111 0.39023
 C1466 C 1.11882 0.88252 0.37348
 C1467 C 1.10650 0.93770 0.42298
 C1468 C 1.09112 0.95037 0.43771
 H1469 H 1.16142 0.78904 0.33235
 H1470 H 1.13863 0.82222 0.36302
 H1471 H 1.19739 0.89814 0.34042
 H1472 H 1.22041 0.86455 0.31004
 H1473 H 1.19381 0.90362 0.38464
 H1474 H 1.16796 0.93643 0.41436
 H1475 H 1.07932 0.90005 0.39188
 H1476 H 1.10475 0.86775 0.36214
 C1477 C 0.71323 0.28547 -0.21543
 C1478 C 0.69621 0.29742 -0.20149
 C1479 C 0.67481 0.31050 -0.18519
 C1480 C 0.65512 0.29093 -0.17230
 C1481 C 0.63366 0.30352 -0.15665
 C1482 C 0.63172 0.33580 -0.15397
 C1483 C 0.65148 0.35528 -0.16715
 C1484 C 0.67298 0.34263 -0.18272
 C1485 C 0.61016 0.34927 -0.13672
 C1486 C 0.59319 0.37588 -0.14274
 C1487 C 0.57572 0.39084 -0.12549
 C1488 C 0.57506 0.37923 -0.10220
 C1489 C 0.59076 0.35202 -0.09629
 C1490 C 0.60821 0.33698 -0.11354
 C1491 C 0.56127 0.39721 -0.08388
 C1492 C 0.55099 0.41333 -0.06855
 H1493 H 0.65628 0.26601 -0.17444
 H1494 H 0.61850 0.28813 -0.14677
 H1495 H 0.65067 0.38023 -0.16507
 H1496 H 0.68814 0.35784 -0.19277
 H1497 H 0.59415 0.38552 -0.16059
 H1498 H 0.56373 0.41206 -0.13005
 H1499 H 0.59055 0.34318 -0.07816
 H1500 H 0.62141 0.31670 -0.10848
 C1501 C 0.78850 1.20419 0.28565
 C1502 C 0.80313 1.18594 0.29727
 C1503 C 0.82121 1.16375 0.31019
 C1504 C 0.80948 1.14989 0.33083
 C1505 C 0.82727 1.12824 0.34331
 C1506 C 0.85697 1.12025 0.33520
 C1507 C 0.86837 1.13408 0.31426
 C1508 C 0.85054 1.15571 0.30182
 C1509 C 0.87651 1.09882 0.34927
 C1510 C 0.90794 1.10582 0.35331
 C1511 C 0.92556 1.08761 0.36882
 C1512 C 0.91203 1.06216 0.38031
 C1513 C 0.88117 1.05420 0.37559
 C1514 C 0.86349 1.07238 0.36008
 C1515 C 0.92835 1.04715 0.39939
 C1516 C 0.94118 1.03639 0.41656
 H1517 H 0.78672 1.15596 0.33736
 H1518 H 0.81810 1.11830 0.35958
 H1519 H 0.89102 1.12813 0.30750
 H1520 H 0.85965 1.16619 0.28570
 H1521 H 0.91846 1.12626 0.34546
 H1522 H 0.94930 1.09419 0.37267
 H1523 H 0.87043 1.03469 0.38460
 H1524 H 0.83944 1.06627 0.35702
 C1525 C 0.28917 0.70697 -0.21369
 C1526 C 0.30225 0.68867 -0.20110
 C1527 C 0.31739 0.66597 -0.18663
 C1528 C 0.30860 0.66187 -0.16287
 C1529 C 0.32309 0.63937 -0.14889
 C1530 C 0.34645 0.62070 -0.15861
 C1531 C 0.35488 0.62480 -0.18260
 C1532 C 0.34038 0.64735 -0.19654
 C1533 C 0.36292 0.59811 -0.14338
 C1534 C 0.39535 0.59586 -0.14448
 C1535 C 0.41129 0.57705 -0.12836
 C1536 C 0.39501 0.56026 -0.11109
 C1537 C 0.36267 0.56133 -0.11047
 C1538 C 0.34665 0.58012 -0.12660
 C1539 C 0.41169 0.54513 -0.09233
 C1540 C 0.42609 0.53437 -0.07596
 H1541 H 0.29068 0.67614 -0.15515
 H1542 H 0.31650 0.63702 -0.13035
 H1543 H 0.37260 0.61053 -0.19056
 H1544 H 0.34705 0.65024 -0.21503
 H1545 H 0.40847 0.60975 -0.15702
 H1546 H 0.43637 0.57662 -0.12872
 H1547 H 0.34994 0.54854 -0.09702
 H1548 H 0.32164 0.58117 -0.12560
 C1549 C 0.78318 0.78164 0.71648
 C1550 C 0.79929 0.79542 0.70263
 C1551 C 0.81848 0.81151 0.68593
 C1552 C 0.85067 0.80846 0.68720
 C1553 C 0.86940 0.82395 0.67079
 C1554 C 0.85605 0.84267 0.65297
 C1555 C 0.82364 0.84549 0.65181
 C1556 C 0.80496 0.82993 0.66821
 C1557 C 0.87578 0.85928 0.63565
 C1558 C 0.86913 0.89011 0.62936
 C1559 C 0.88731 0.90565 0.61264
 C1560 C 0.91228 0.89055 0.60205
 C1561 C 0.91932 0.85998 0.60833
 C1562 C 0.90117 0.84439 0.62510
 C1563 C 0.92990 0.90639 0.58421
 C1564 C 0.94364 0.92043 0.56904
 H1565 H 0.86127 0.79416 0.70089
 H1566 H 0.89430 0.82165 0.67219
 H1567 H 0.81276 0.85940 0.63804
 H1568 H 0.78001 0.83220 0.66703
 H1569 H 0.84998 0.90222 0.63746
 H1570 H 0.88175 0.92935 0.60784
 H1571 H 0.93856 0.84812 0.60009
 H1572 H 0.90656 0.82054 0.62949
 C1573 C 0.29468 0.29752 0.21776
 C1574 C 0.31136 0.31464 0.20684
 C1575 C 0.33175 0.33571 0.19496
 C1576 C 0.36244 0.33860 0.20275
 C1577 C 0.38238 0.35944 0.19146
 C1578 C 0.37168 0.37762 0.17231
 C1579 C 0.34063 0.37483 0.16484
 C1580 C 0.32076 0.35396 0.17615
 C1581 C 0.39320 0.39773 0.15891
 C1582 C 0.38353 0.42688 0.15051
 C1583 C 0.40180 0.44344 0.13442
 C1584 C 0.42990 0.43107 0.12676
 C1585 C 0.44064 0.40308 0.13623
 C1586 C 0.42242 0.38648 0.15231
 C1587 C 0.44481 0.44406 0.10634
 C1588 C 0.45579 0.45324 0.08801
 H1589 H 0.37096 0.32470 0.21750
 H1590 H 0.40613 0.36131 0.19761
 H1591 H 0.33197 0.38815 0.14984
 H1592 H 0.29696 0.35190 0.17013
 H1593 H 0.36128 0.43620 0.15561
 H1594 H 0.39323 0.46498 0.12696
 H1595 H 0.46218 0.39317 0.13009
 H1596 H 0.43026 0.36395 0.15833
   
