data_POSCAR
  _audit_creation_date              2014-09-24
  _audit_creation_method            'ToBaCCo'
  _symmetry_space_group_name_H-M    'P1'
  _symmetry_Int_Tables_number       1
  _symmetry_cell_setting            triclinic
  loop_
  _symmetry_equiv_pos_as_xyz
 x,y,z
_cell_length_a 41.6050
_cell_length_b 43.6049
_cell_length_c 43.9036
_cell_angle_alpha 90.343100
_cell_angle_beta 91.486600
_cell_angle_gamma 88.648600
loop_
  _atom_site_label
  _atom_site_type_symbol
  _atom_site_fract_x
  _atom_site_fract_y
  _atom_site_fract_z
C1 C 0.37622 0.00609 0.24920
 C2 C 0.11364 0.00675 0.73993
 C3 C 0.62052 0.50123 0.24796
 C4 C 0.86991 0.50721 0.75337
 C5 C 0.25572 0.35863 0.99788
 C6 C 0.76410 0.13695 1.00522
 C7 C 0.24791 0.64045 0.50192
 C8 C 0.76149 0.85485 0.49431
 C9 C -0.00457 0.25688 0.40023
 C10 C -0.00413 0.73972 0.12322
 C11 C 0.50530 0.24752 0.62000
 C12 C 0.49752 0.75820 0.89533
 C13 C -0.24897 0.63750 0.99184
 C14 C -0.24451 0.35307 0.50163
 C15 C 0.26845 -0.14318 0.00426
 C16 C 0.25478 1.13684 0.49505
 C17 C 0.11031 0.51145 0.26010
 C18 C -0.12118 0.99667 0.23536
 C19 C 0.37517 0.49864 -0.25736
 C20 C 0.61296 0.01400 -0.24479
 C21 C 0.01282 0.23617 0.89424
 C22 C 0.48821 0.25898 0.12288
 C23 C -0.01086 0.76005 0.61900
 C24 C 0.50621 0.74520 0.39654
 Zr25 Zr 0.02895 -0.03759 1.03529
 O26 O 0.05838 -0.01838 1.07016
 O27 O 0.02560 -0.08252 1.04956
 O28 O 0.00511 -0.03580 1.07777
 O29 O 0.09109 -0.05094 0.98534
 O30 O -0.04406 -0.01497 1.06454
 O31 O 0.07659 -0.05681 1.03472
 O32 O -0.00761 -0.10452 1.01386
 O33 O -0.01902 -0.04753 1.02364
 O34 O 0.02928 -0.06176 0.99392
 O35 O 0.00443 0.00501 1.03238
 O36 O 0.05208 -0.00913 1.00442
 Zr37 Zr -0.02175 0.00045 0.94568
 Zr38 Zr -0.04264 -0.00505 1.01818
 Zr39 Zr 0.04969 -0.03296 0.96279
 Zr40 Zr -0.01830 -0.06992 0.98154
 O41 O 0.08987 -0.00691 0.95130
 O42 O -0.06287 -0.08538 0.99718
 O43 O 0.00247 -0.04272 0.94831
 O44 O -0.04427 -0.02842 0.97647
 O45 O -0.02242 0.02451 0.98709
 O46 O 0.02622 0.00939 0.95792
 C47 C 0.01028 -0.10519 1.03823
 C48 C 0.09687 -0.05970 1.01291
 C49 C -0.02360 -0.02607 1.08413
 O50 O -0.08462 -0.03006 1.02593
 O51 O -0.08265 0.01708 0.99746
 O52 O -0.06710 0.02481 0.94866
 C53 C -0.08711 0.02843 0.97076
 O54 O 0.05773 0.04154 1.03664
 Zr55 Zr 0.02537 0.03209 0.99969
 O56 O -0.01573 0.04483 0.92990
 O57 O -0.05386 0.03574 1.04247
 O58 O 0.00436 0.06789 1.02597
 O59 O 0.06794 0.05073 0.98268
 O60 O 0.01092 0.06744 0.96998
 C61 C -0.00316 0.06776 0.94365
 O62 O -0.05418 -0.01702 0.91237
 O63 O 0.06308 -0.07508 0.94186
 O64 O 0.00103 -0.00454 0.90266
 O65 O 0.04858 -0.02906 0.91537
 O66 O 0.00316 -0.10727 0.95777
 O67 O -0.04663 -0.08143 0.94232
 C68 C 0.02832 -0.01749 0.89582
 H69 H 0.04179 -0.08133 0.99493
 H70 H -0.06669 -0.03233 0.96968
 H71 H 0.03718 0.02163 0.94255
 H72 H 0.00501 0.01592 1.05222
 H73 H -0.06260 -0.10804 0.99528
 H74 H -0.09824 -0.01735 1.03951
 H75 H -0.07506 0.03290 1.05173
 H76 H 0.01573 0.08699 1.02143
 H77 H -0.00859 -0.12597 0.96299
 H78 H 0.08452 -0.07233 0.93305
 H79 H 0.10359 -0.02027 0.93842
 H80 H 0.06662 0.07323 0.98594
 H81 H -0.05501 -0.10234 0.94464
 H82 H -0.05902 -0.00005 0.89790
 H83 H 0.06384 -0.03505 1.08482
 H84 H 0.06252 0.06367 1.03700
 Zr85 Zr 0.51948 0.46196 0.53797
 O86 O 0.54996 0.46896 0.57662
 O87 O 0.50809 0.41626 0.54338
 O88 O 0.49444 0.46102 0.58013
 O89 O 0.58235 0.45095 0.48741
 O90 O 0.45143 0.49367 0.57173
 O91 O 0.56507 0.43860 0.53465
 O92 O 0.47116 0.40621 0.50543
 O93 O 0.47074 0.46134 0.52452
 O94 O 0.51762 0.44505 0.49316
 O95 O 0.50250 0.50751 0.54189
 O96 O 0.54785 0.49119 0.51225
 Zr97 Zr 0.47787 0.52032 0.45551
 Zr98 Zr 0.45452 0.50708 0.52622
 Zr99 Zr 0.54330 0.47529 0.46714
 Zr100 Zr 0.46936 0.44613 0.47922
 O101 O 0.58740 0.49686 0.45928
 O102 O 0.42162 0.43522 0.49020
 O103 O 0.49531 0.47465 0.45099
 O104 O 0.45031 0.49077 0.48136
 O105 O 0.48008 0.53768 0.50019
 O106 O 0.52658 0.52047 0.46922
 C107 C 0.48846 0.39884 0.52892
 C108 C 0.58625 0.43792 0.51345
 C109 C 0.46889 0.47593 0.58892
 O110 O 0.40970 0.48612 0.53165
 O111 O 0.41808 0.53593 0.50778
 O112 O 0.43399 0.54658 0.45972
 C113 C 0.41401 0.54914 0.48184
 O114 O 0.56030 0.53449 0.55293
 Zr115 Zr 0.52854 0.53581 0.51421
 O116 O 0.48988 0.56600 0.44965
 O117 O 0.44860 0.54615 0.55455
 O118 O 0.51198 0.57024 0.54473
 O119 O 0.57521 0.54868 0.50163
 O120 O 0.52378 0.57650 0.49007
 C121 C 0.50818 0.58349 0.46557
 O122 O 0.44526 0.51354 0.41839
 O123 O 0.55037 0.43514 0.44059
 O124 O 0.50068 0.51874 0.41236
 O125 O 0.54478 0.48752 0.42103
 O126 O 0.48579 0.40976 0.45089
 O127 O 0.44201 0.44627 0.43764
 C128 C 0.52656 0.50444 0.40361
 H129 H 0.52713 0.42412 0.49131
 H130 H 0.42765 0.49073 0.47391
 H131 H 0.53973 0.53328 0.45606
 H132 H 0.50458 0.51514 0.56311
 H133 H 0.41794 0.41384 0.48340
 H134 H 0.39730 0.49928 0.54585
 H135 H 0.42680 0.54530 0.56308
 H136 H 0.52692 0.58757 0.54388
 H137 H 0.47003 0.39312 0.45188
 H138 H 0.57229 0.43612 0.43241
 H139 H 0.59938 0.48372 0.44474
 H140 H 0.57841 0.57002 0.50878
 H141 H 0.43042 0.42677 0.43550
 H142 H 0.44384 0.53301 0.40678
 H143 H 0.55179 0.44915 0.58762
 H144 H 0.56807 0.55538 0.55735
 Zr145 Zr 0.48572 1.01803 0.53931
 O146 O 0.45507 0.99878 0.57145
 O147 O 0.49136 1.06173 0.55699
 O148 O 0.50875 1.01342 0.58321
 O149 O 0.42409 1.03328 0.48579
 O150 O 0.55727 0.99090 0.57229
 O151 O 0.43825 1.03790 0.53619
 O152 O 0.52456 1.08419 0.52350
 O153 O 0.53392 1.02757 0.53065
 O154 O 0.48586 1.04343 0.49892
 O155 O 0.50973 0.97527 0.53605
 O156 O 0.46244 0.99094 0.50590
 Zr157 Zr 0.53624 0.98211 0.45109
 Zr158 Zr 0.55716 0.98504 0.52493
 Zr159 Zr 0.46544 1.01572 0.46520
 Zr160 Zr 0.53359 1.05122 0.48942
 O161 O 0.42467 0.99084 0.45067
 O162 O 0.57880 1.06574 0.50680
 O163 O 0.51273 1.02547 0.45368
 O164 O 0.55904 1.00968 0.48427
 O165 O 0.53656 0.95687 0.49157
 O166 O 0.48828 0.97313 0.46042
 C167 C 0.50782 1.08410 0.54772
 C168 C 0.41815 1.04131 0.51328
 C169 C 0.53647 1.00139 0.59110
 O170 O 0.59826 1.01019 0.53771
 O171 O 0.59771 0.96467 0.50462
 O172 O 0.58220 0.95949 0.45458
 C173 C 0.60237 0.95526 0.47725
 O174 O 0.45509 0.94030 0.53569
 Zr175 Zr 0.48854 0.94958 0.50133
 O176 O 0.53252 0.93743 0.43475
 O177 O 0.56868 0.94263 0.54622
 O178 O 0.50804 0.91279 0.52788
 O179 O 0.44637 0.93131 0.48080
 O180 O 0.50391 0.91493 0.47189
 C181 C 0.51982 0.91438 0.44727
 O182 O 0.56700 1.00161 0.41925
 O183 O 0.45353 1.05864 0.44508
 O184 O 0.51246 0.98478 0.40747
 O185 O 0.46614 1.01166 0.41758
 O186 O 0.51231 1.09007 0.46732
 O187 O 0.56131 1.06360 0.45160
 C188 C 0.48530 0.99777 0.39928
 H189 H 0.47380 1.06320 0.50038
 H190 H 0.58146 1.01381 0.47877
 H191 H 0.47744 0.96088 0.44431
 H192 H 0.50861 0.96349 0.55518
 H193 H 0.57876 1.08844 0.50580
 H194 H 0.61207 0.99652 0.55072
 H195 H 0.58978 0.94494 0.55690
 H196 H 0.49625 0.89409 0.52197
 H197 H 0.52458 1.10824 0.47400
 H198 H 0.43221 1.05656 0.43477
 H199 H 0.41128 1.00471 0.43748
 H200 H 0.44766 0.90876 0.48350
 H201 H 0.56960 1.08451 0.45479
 H202 H 0.57235 0.98514 0.40443
 H203 H 0.44988 1.01519 0.58641
 H204 H 0.44981 0.91827 0.53513
 Zr205 Zr -0.03008 0.50710 1.04849
 O206 O -0.05987 0.48716 1.08090
 O207 O -0.02610 0.55155 1.06509
 O208 O -0.00575 0.50462 1.09199
 O209 O -0.09278 0.52161 0.99619
 O210 O 0.04224 0.48118 1.08090
 O211 O -0.07687 0.52794 1.04601
 O212 O 0.00718 0.57367 1.03147
 O213 O 0.01789 0.51677 1.03942
 O214 O -0.03057 0.53207 1.00783
 O215 O -0.00626 0.46422 1.04512
 O216 O -0.05367 0.47951 1.01550
 Zr217 Zr 0.01949 0.47133 0.95994
 Zr218 Zr 0.04092 0.47411 1.03366
 Zr219 Zr -0.05159 0.50419 0.97466
 Zr220 Zr 0.01697 0.54022 0.99809
 O221 O -0.09186 0.47848 0.96045
 O222 O 0.06195 0.55494 1.01583
 O223 O -0.00445 0.51439 0.96279
 O224 O 0.04252 0.49881 0.99300
 O225 O 0.02037 0.44590 1.00031
 O226 O -0.02832 0.46180 0.96940
 C227 C -0.01036 0.57415 1.05517
 C228 C -0.09740 0.53121 1.02352
 C229 C 0.02220 0.49294 1.09972
 O230 O 0.08290 0.49853 1.04517
 O231 O 0.08029 0.45265 1.01271
 O232 O 0.06578 0.44939 0.96230
 C233 C 0.08561 0.44451 0.98507
 O234 O -0.06068 0.42834 1.04474
 Zr235 Zr -0.02742 0.43808 1.01035
 O236 O 0.01572 0.42675 0.94369
 O237 O 0.05215 0.43216 1.05596
 O238 O -0.00745 0.40173 1.03718
 O239 O -0.06949 0.41969 0.98975
 O240 O -0.01158 0.40295 0.98095
 C241 C 0.00403 0.40310 0.95607
 O242 O 0.05009 0.49091 0.92797
 O243 O -0.06512 0.54687 0.95481
 O244 O -0.00398 0.47540 0.91639
 O245 O -0.05076 0.50136 0.92687
 O246 O -0.00406 0.57889 0.97548
 O247 O 0.04473 0.55218 0.96015
 C248 C -0.03099 0.48867 0.90830
 H249 H -0.04266 0.55185 1.00897
 H250 H 0.06490 0.50296 0.98739
 H251 H -0.03899 0.44964 0.95310
 H252 H -0.00704 0.45284 1.06452
 H253 H 0.06185 0.57763 1.01464
 H254 H 0.09675 0.48474 1.05801
 H255 H 0.07366 0.43430 1.06587
 H256 H -0.01893 0.38283 1.03136
 H257 H 0.00846 0.59704 0.98174
 H258 H -0.08655 0.54431 0.94484
 H259 H -0.10566 0.49219 0.94750
 H260 H -0.06800 0.39713 0.99224
 H261 H 0.05368 0.57280 0.96351
 H262 H 0.05518 0.47465 0.91283
 H263 H -0.06505 0.50345 1.09598
 H264 H -0.06593 0.40631 1.04393
 Zr265 Zr -0.03337 0.48908 0.46596
 O266 O -0.06591 0.50793 0.43294
 O267 O -0.02886 0.44393 0.45183
 O268 O -0.01121 0.48864 0.42241
 O269 O -0.09152 0.47505 0.51959
 O270 O 0.03632 0.51259 0.43175
 O271 O -0.07885 0.46771 0.46964
 O272 O 0.00579 0.42233 0.48722
 O273 O 0.01553 0.47908 0.47519
 O274 O -0.03025 0.46631 0.50788
 O275 O -0.01069 0.53164 0.46704
 O276 O -0.05607 0.51863 0.49758
 Zr277 Zr 0.02060 0.52807 0.55240
 Zr278 Zr 0.03756 0.52160 0.47867
 Zr279 Zr -0.05064 0.49589 0.53950
 Zr280 Zr 0.01807 0.45775 0.51768
 O281 O -0.09164 0.52287 0.55059
 O282 O 0.06175 0.44127 0.49908
 O283 O -0.00236 0.48548 0.55176
 O284 O 0.04264 0.49886 0.52049
 O285 O 0.01807 0.55152 0.51082
 O286 O -0.02817 0.53802 0.54263
 C287 C -0.01311 0.42123 0.46362
 C288 C -0.09707 0.46389 0.49278
 C289 C 0.01586 0.49954 0.41384
 O290 O 0.07959 0.49592 0.46798
 O291 O 0.07753 0.54362 0.49814
 O292 O 0.06628 0.54923 0.54854
 C293 C 0.08443 0.55302 0.52529
 O294 O -0.06627 0.56861 0.46614
 Zr295 Zr -0.03056 0.55975 0.50068
 O296 O 0.01767 0.57330 0.56606
 O297 O 0.04588 0.56238 0.45447
 O298 O -0.01334 0.59444 0.47207
 O299 O -0.07178 0.58020 0.52062
 O300 O -0.01366 0.59567 0.52855
 C301 C 0.00436 0.59648 0.55281
 O302 O 0.05324 0.50906 0.58526
 O303 O -0.06077 0.45514 0.56309
 O304 O -0.00102 0.52755 0.59613
 O305 O -0.04793 0.50247 0.58685
 O306 O 0.00067 0.42078 0.54323
 O307 O 0.04926 0.44751 0.55557
 C308 C -0.02767 0.51584 0.60474
 H309 H -0.04144 0.44658 0.50826
 H310 H 0.06552 0.49465 0.52609
 H311 H -0.03826 0.55135 0.55819
 H312 H -0.01307 0.54205 0.44711
 H313 H 0.06246 0.41868 0.50146
 H314 H 0.09227 0.50892 0.45453
 H315 H 0.06684 0.55953 0.44445
 H316 H -0.02480 0.61386 0.47733
 H317 H 0.01364 0.40220 0.53802
 H318 H -0.08186 0.45842 0.57275
 H319 H -0.10430 0.51040 0.56452
 H320 H -0.07089 0.60259 0.51712
 H321 H 0.05971 0.42713 0.55252
 H322 H 0.05895 0.52596 0.59946
 H323 H -0.07121 0.49105 0.41857
 H324 H -0.07196 0.59079 0.46586
 Zr325 Zr 0.48799 -0.01671 -0.03187
 O326 O 0.45578 -0.00410 -0.06804
 O327 O 0.49796 -0.06280 -0.04166
 O328 O 0.51046 -0.01638 -0.07489
 O329 O 0.42723 -0.02892 0.01913
 O330 O 0.55618 0.01030 -0.06529
 O331 O 0.44326 -0.03892 -0.02931
 O332 O 0.53538 -0.07730 -0.00516
 O333 O 0.53693 -0.02224 -0.01980
 O334 O 0.49040 -0.03632 0.01154
 O335 O 0.50688 0.02757 -0.03298
 O336 O 0.46134 0.01344 -0.00377
 Zr337 Zr 0.53361 0.03314 0.05330
 Zr338 Zr 0.55514 0.02194 -0.01886
 Zr339 Zr 0.46617 -0.00575 0.03984
 Zr340 Zr 0.53877 -0.03985 0.02445
 O341 O 0.42301 0.01897 0.04865
 O342 O 0.58599 -0.05374 0.01240
 O343 O 0.51434 -0.01114 0.05504
 O344 O 0.55957 0.00309 0.02491
 O345 O 0.53152 0.05291 0.00987
 O346 O 0.48479 0.03834 0.04082
 C347 C 0.51764 -0.08214 -0.02888
 C348 C 0.42309 -0.04092 -0.00753
 C349 C 0.53664 -0.00386 -0.08333
 O350 O 0.59872 -0.00248 -0.02669
 O351 O 0.59342 0.04645 0.00042
 O352 O 0.57841 0.05600 0.04939
 C353 C 0.59794 0.05834 0.02694
 O354 O 0.44873 0.05957 -0.03956
 Zr355 Zr 0.48287 0.05662 -0.00276
 O356 O 0.52684 0.07966 0.06161
 O357 O 0.56225 0.06190 -0.04474
 O358 O 0.49865 0.09040 -0.03321
 O359 O 0.43873 0.07449 0.01375
 O360 O 0.49407 0.09637 0.02233
 C361 C 0.51185 0.10067 0.04626
 O362 O 0.56546 0.02044 0.08963
 O363 O 0.45772 -0.04607 0.06477
 O364 O 0.50962 0.03363 0.09605
 O365 O 0.46633 0.00331 0.08665
 O366 O 0.52155 -0.07695 0.04994
 O367 O 0.56627 -0.04443 0.06573
 C368 C 0.48409 0.01961 0.10442
 H369 H 0.48059 -0.05675 0.01224
 H370 H 0.58230 0.00082 0.03193
 H371 H 0.47290 0.05196 0.05495
 H372 H 0.50459 0.03660 -0.05357
 H373 H 0.58878 -0.07580 0.01740
 H374 H 0.61117 0.01013 -0.04069
 H375 H 0.58353 0.05940 -0.05422
 H376 H 0.48472 0.10894 -0.03066
 H377 H 0.53663 -0.09462 0.04714
 H378 H 0.43597 -0.04371 0.07332
 H379 H 0.41066 0.00621 0.06259
 H380 H 0.43728 0.09648 0.00820
 H381 H 0.57716 -0.06486 0.06632
 H382 H 0.56872 0.03916 0.10216
 H383 H 0.45275 -0.02255 -0.08105
 H384 H 0.44076 0.08104 -0.04172
 Zr385 Zr 0.52502 0.52335 -0.04978
 O386 O 0.55590 0.50890 -0.08490
 O387 O 0.51434 0.56832 -0.06193
 O388 O 0.49992 0.52395 -0.09274
 O389 O 0.58701 0.53725 0.00276
 O390 O 0.45554 0.49564 -0.08432
 O391 O 0.56940 0.54632 -0.04625
 O392 O 0.48072 0.58585 -0.02507
 O393 O 0.47644 0.52896 -0.03906
 O394 O 0.52385 0.54442 -0.00678
 O395 O 0.50639 0.47907 -0.05100
 O396 O 0.55278 0.49468 -0.02022
 Zr397 Zr 0.48245 0.47616 0.03475
 Zr398 Zr 0.45852 0.48461 -0.03780
 Zr399 Zr 0.54884 0.51498 0.02317
 Zr400 Zr 0.47583 0.54847 0.00448
 O401 O 0.59236 0.49097 0.03409
 O402 O 0.42889 0.56200 -0.01085
 O403 O 0.50098 0.52073 0.03652
 O404 O 0.45541 0.50520 0.00530
 O405 O 0.48344 0.45483 -0.00808
 O406 O 0.53089 0.47082 0.02378
 C407 C 0.49657 0.58899 -0.04956
 C408 C 0.58994 0.54890 -0.02384
 C409 C 0.47347 0.51122 -0.10161
 O410 O 0.41388 0.50745 -0.04671
 O411 O 0.42178 0.45964 -0.01805
 O412 O 0.43844 0.45266 0.03142
 C413 C 0.41817 0.44914 0.00895
 O414 O 0.56530 0.44866 -0.05533
 Zr415 Zr 0.53179 0.45142 -0.01964
 O416 O 0.49173 0.43014 0.04474
 O417 O 0.45146 0.44402 -0.06351
 O418 O 0.51617 0.41675 -0.05035
 O419 O 0.57626 0.43391 -0.00158
 O420 O 0.52132 0.41218 0.00506
 C421 C 0.50588 0.40869 0.02964
 O422 O 0.45097 0.48985 0.06971
 O423 O 0.55760 0.55627 0.04727
 O424 O 0.50623 0.47716 0.07810
 O425 O 0.54952 0.50724 0.07064
 O426 O 0.49309 0.58578 0.03093
 O427 O 0.44782 0.55448 0.04398
 C428 C 0.53160 0.49121 0.08761
 H429 H 0.53354 0.56493 -0.00623
 H430 H 0.43285 0.50745 0.01176
 H431 H 0.54326 0.45778 0.03852
 H432 H 0.50804 0.46981 -0.07155
 H433 H 0.42634 0.58431 -0.00691
 H434 H 0.40129 0.49394 -0.06052
 H435 H 0.42961 0.44575 -0.07297
 H436 H 0.53067 0.39859 -0.04737
 H437 H 0.47826 0.60356 0.02713
 H438 H 0.57949 0.55425 0.05659
 H439 H 0.60482 0.50437 0.04811
 H440 H 0.57787 0.41194 -0.00737
 H441 H 0.43659 0.57474 0.04321
 H442 H 0.44832 0.47181 0.08301
 H443 H 0.55858 0.52684 -0.09830
 H444 H 0.57366 0.42730 -0.05723
 Zr445 Zr 0.03325 1.01738 0.43862
 O446 O 0.06428 1.00187 0.40401
 O447 O 0.02550 1.06300 0.42631
 O448 O 0.00931 1.01764 0.39523
 O449 O 0.09215 1.03304 0.49380
 O450 O -0.03438 0.98790 0.40210
 O451 O 0.07941 1.03717 0.44297
 O452 O -0.01251 1.07963 0.45956
 O453 O -0.01604 1.02261 0.44681
 O454 O 0.02942 1.03974 0.48081
 O455 O 0.01509 0.97284 0.43802
 O456 O 0.05942 0.98993 0.47045
 Zr457 Zr -0.01388 0.97242 0.52250
 Zr458 Zr -0.03356 0.97807 0.44875
 Zr459 Zr 0.05277 1.01161 0.51277
 Zr460 Zr -0.01940 1.04339 0.48953
 O461 O 0.09577 0.98846 0.52709
 O462 O -0.06528 1.05602 0.47082
 O463 O 0.00415 1.01717 0.52360
 O464 O -0.03952 1.00004 0.49080
 O465 O -0.01002 0.94955 0.48060
 O466 O 0.03527 0.96740 0.51406
 C467 C 0.00657 1.08352 0.43745
 C468 C 0.09829 1.04102 0.46647
 C469 C -0.01636 1.00411 0.38556
 O470 O -0.07822 0.99983 0.43736
 O471 O -0.07079 0.95253 0.46698
 O472 O -0.05763 0.94845 0.51766
 C473 C -0.07592 0.94312 0.49409
 O474 O 0.07352 0.94223 0.43674
 Zr475 Zr 0.03901 0.94654 0.47146
 O476 O -0.00420 0.92701 0.53442
 O477 O -0.03837 0.93683 0.42356
 O478 O 0.02402 0.91018 0.44251
 O479 O 0.08374 0.93135 0.49094
 O480 O 0.03021 0.90868 0.49858
 C481 C 0.01290 0.90572 0.52203
 O482 O -0.04768 0.98656 0.55530
 O483 O 0.05979 1.05393 0.53561
 O484 O 0.00707 0.97597 0.56701
 O485 O 0.05046 1.00601 0.56014
 O486 O -0.00447 1.08165 0.51591
 O487 O -0.05019 1.05052 0.52694
 C488 C 0.03162 0.99100 0.57704
 H489 H 0.03946 1.06009 0.48140
 H490 H -0.06249 1.00221 0.49595
 H491 H 0.04713 0.95527 0.52989
 H492 H 0.01788 0.96296 0.41787
 H493 H -0.06824 1.07845 0.47379
 H494 H -0.08977 0.98584 0.42322
 H495 H -0.05974 0.93787 0.41306
 H496 H 0.03847 0.89223 0.44677
 H497 H -0.01914 1.09917 0.51064
 H498 H 0.08112 1.05248 0.54616
 H499 H 0.10717 1.00247 0.54131
 H500 H 0.08643 0.90922 0.48608
 H501 H -0.06180 1.07049 0.52464
 H502 H -0.05068 0.96892 0.56904
 H503 H 0.06789 1.01966 0.39064
 H504 H 0.08122 0.92062 0.43537
 Zr505 Zr 0.72961 0.27335 0.21002
 O506 O 0.75139 0.30531 0.18145
 O507 O 0.68447 0.26888 0.18901
 O508 O 0.73590 0.25438 0.16570
 O509 O 0.70890 0.32750 0.26500
 O510 O 0.76261 0.20895 0.17509
 O511 O 0.70670 0.31738 0.21386
 O512 O 0.65999 0.23416 0.21891
 O513 O 0.72114 0.22641 0.21467
 O514 O 0.70055 0.26882 0.24786
 O515 O 0.77528 0.25212 0.21568
 O516 O 0.75524 0.29334 0.24695
 Zr517 Zr 0.76293 0.21790 0.29751
 Zr518 Zr 0.76641 0.20571 0.22255
 Zr519 Zr 0.72659 0.28631 0.28473
 Zr520 Zr 0.69359 0.22219 0.25342
 O521 O 0.75079 0.32389 0.30465
 O522 O 0.68098 0.18110 0.23046
 O523 O 0.71727 0.23979 0.29223
 O524 O 0.73754 0.19886 0.26020
 O525 O 0.79266 0.22248 0.25997
 O526 O 0.77133 0.26490 0.29249
 C527 C 0.66059 0.25259 0.19625
 C528 C 0.70147 0.33476 0.23730
 C529 C 0.74983 0.22909 0.15702
 O530 O 0.74371 0.16590 0.20572
 O531 O 0.78969 0.16718 0.24182
 O532 O 0.78472 0.17303 0.29321
 C533 C 0.79369 0.15774 0.26931
 O534 O 0.81175 0.30402 0.22315
 Zr535 Zr 0.79917 0.26939 0.25427
 O536 O 0.80885 0.22048 0.31737
 O537 O 0.81223 0.19931 0.20329
 O538 O 0.84017 0.25314 0.23080
 O539 O 0.81393 0.30911 0.27847
 O540 O 0.83356 0.25471 0.28713
 C541 C 0.83309 0.23607 0.30968
 O542 O 0.74151 0.18568 0.32607
 O543 O 0.67994 0.29575 0.30111
 O544 O 0.75429 0.23631 0.34191
 O545 O 0.72572 0.28067 0.33186
 O546 O 0.65130 0.23842 0.27482
 O547 O 0.67990 0.19090 0.28742
 C548 C 0.73835 0.26072 0.35020
 H549 H 0.67962 0.27997 0.24578
 H550 H 0.73348 0.17684 0.26331
 H551 H 0.78230 0.27393 0.31057
 H552 H 0.78856 0.25531 0.19763
 H553 H 0.65720 0.18011 0.23002
 H554 H 0.75962 0.15466 0.19318
 H555 H 0.81183 0.17976 0.19165
 H556 H 0.85909 0.26387 0.23944
 H557 H 0.63303 0.22669 0.26621
 H558 H 0.68098 0.31526 0.31277
 H559 H 0.73493 0.33525 0.31715
 H560 H 0.83775 0.30915 0.27862
 H561 H 0.65884 0.18217 0.28160
 H562 H 0.75784 0.17993 0.34202
 H563 H 0.73516 0.31104 0.16540
 H564 H 0.83468 0.30906 0.22640
 Zr565 Zr 0.76333 0.73726 0.70886
 O566 O 0.74793 0.70907 0.67212
 O567 O 0.81185 0.74256 0.69933
 O568 O 0.76193 0.76001 0.66571
 O569 O 0.77057 0.67589 0.75939
 O570 O 0.73857 0.80655 0.67670
 O571 O 0.78310 0.69142 0.71168
 O572 O 0.83189 0.77051 0.73937
 O573 O 0.77325 0.78267 0.72185
 O574 O 0.78471 0.73549 0.75253
 O575 O 0.71860 0.76107 0.70820
 O576 O 0.73014 0.71508 0.73643
 Zr577 Zr 0.71648 0.78441 0.79430
 Zr578 Zr 0.72860 0.80577 0.72306
 Zr579 Zr 0.75142 0.71571 0.78025
 Zr580 Zr 0.79263 0.78046 0.76631
 O581 O 0.72185 0.67829 0.78970
 O582 O 0.81149 0.82290 0.75276
 O583 O 0.76108 0.76025 0.79598
 O584 O 0.74967 0.80592 0.76682
 O585 O 0.69447 0.78651 0.75095
 O586 O 0.70715 0.73899 0.78137
 C587 C 0.83467 0.75570 0.71431
 C588 C 0.78296 0.67108 0.73317
 C589 C 0.74996 0.78663 0.65795
 O590 O 0.75797 0.84368 0.71496
 O591 O 0.70823 0.84553 0.74287
 O592 O 0.69568 0.82964 0.79046
 C593 C 0.69582 0.85005 0.76906
 O594 O 0.67954 0.71139 0.69960
 Zr595 Zr 0.68690 0.74104 0.73764
 O596 O 0.66817 0.77966 0.80446
 O597 O 0.68648 0.81905 0.69799
 O598 O 0.65195 0.76227 0.70813
 O599 O 0.66616 0.69997 0.75260
 O600 O 0.64703 0.75390 0.76346
 C601 C 0.64486 0.76760 0.78928
 O602 O 0.73166 0.81342 0.83046
 O603 O 0.79358 0.70065 0.80442
 O604 O 0.71863 0.76224 0.83736
 O605 O 0.74522 0.71699 0.82729
 O606 O 0.82880 0.75886 0.79419
 O607 O 0.80063 0.80608 0.80705
 C608 C 0.73209 0.73643 0.84548
 H609 H 0.80506 0.72326 0.75344
 H610 H 0.75422 0.82693 0.77415
 H611 H 0.69292 0.72866 0.79562
 H612 H 0.70811 0.76074 0.68773
 H613 H 0.83479 0.82246 0.75807
 H614 H 0.74549 0.85771 0.70119
 H615 H 0.69056 0.83929 0.68889
 H616 H 0.63151 0.75136 0.71033
 H617 H 0.84881 0.77049 0.79221
 H618 H 0.78907 0.68037 0.81324
 H619 H 0.73429 0.66485 0.80405
 H620 H 0.64291 0.70113 0.74710
 H621 H 0.82251 0.81452 0.80715
 H622 H 0.71255 0.81793 0.84296
 H623 H 0.76699 0.70455 0.65958
 H624 H 0.65642 0.70673 0.69739
 Zr625 Zr 0.22920 0.22354 0.78981
 O626 O 0.24620 0.19573 0.82644
 O627 O 0.18080 0.22931 0.79927
 O628 O 0.22547 0.24682 0.83220
 O629 O 0.22401 0.16191 0.73898
 O630 O 0.24943 0.29251 0.82359
 O631 O 0.21036 0.17860 0.78641
 O632 O 0.16008 0.25951 0.76091
 O633 O 0.21824 0.26907 0.77736
 O634 O 0.20845 0.22193 0.74601
 O635 O 0.27297 0.24669 0.79239
 O636 O 0.26354 0.20047 0.76303
 Zr637 Zr 0.27607 0.26958 0.70645
 Zr638 Zr 0.26214 0.29152 0.77766
 Zr639 Zr 0.24316 0.20133 0.71886
 Zr640 Zr 0.19928 0.26710 0.73290
 O641 O 0.27378 0.16291 0.71062
 O642 O 0.17936 0.31050 0.74523
 O643 O 0.23220 0.24611 0.70354
 O644 O 0.24171 0.29186 0.73356
 O645 O 0.29714 0.27141 0.75021
 O646 O 0.28671 0.22408 0.71920
 C647 C 0.15786 0.24443 0.78578
 C648 C 0.21098 0.15807 0.76496
 C649 C 0.23576 0.27326 0.84083
 O650 O 0.23234 0.33081 0.78444
 O651 O 0.28402 0.32990 0.75857
 O652 O 0.29561 0.31433 0.71030
 C653 C 0.29587 0.33441 0.73219
 O654 O 0.31255 0.19545 0.80076
 Zr655 Zr 0.30585 0.22591 0.76338
 O656 O 0.32497 0.26455 0.69760
 O657 O 0.30261 0.30347 0.80502
 O658 O 0.33917 0.24581 0.79464
 O659 O 0.32930 0.18522 0.74790
 O660 O 0.34585 0.23949 0.73941
 C661 C 0.34836 0.25318 0.71386
 O662 O 0.26007 0.29866 0.67039
 O663 O 0.20228 0.18782 0.69284
 O664 O 0.27597 0.24761 0.66314
 O665 O 0.25299 0.20163 0.67234
 O666 O 0.16311 0.24599 0.70568
 O667 O 0.19163 0.29164 0.69157
 C668 C 0.26534 0.22125 0.65457
 H669 H 0.18830 0.21032 0.74484
 H670 H 0.23695 0.31299 0.72634
 H671 H 0.30190 0.21365 0.70532
 H672 H 0.28240 0.24623 0.81332
 H673 H 0.15615 0.31048 0.73955
 H674 H 0.24416 0.34437 0.79881
 H675 H 0.29766 0.32385 0.81410
 H676 H 0.35998 0.23451 0.79276
 H677 H 0.14302 0.25840 0.70779
 H678 H 0.20747 0.16734 0.68410
 H679 H 0.26210 0.14951 0.69601
 H680 H 0.35225 0.18630 0.75436
 H681 H 0.16947 0.30044 0.69079
 H682 H 0.27904 0.30298 0.65800
 H683 H 0.22735 0.19103 0.83882
 H684 H 0.33570 0.19013 0.80353
 Zr685 Zr 0.27126 0.78157 0.29797
 O686 O 0.24880 0.81233 0.32866
 O687 O 0.31812 0.77960 0.31533
 O688 O 0.27114 0.76167 0.34234
 O689 O 0.28497 0.83596 0.24214
 O690 O 0.24693 0.71568 0.33425
 O691 O 0.29010 0.82660 0.29317
 O692 O 0.34200 0.74280 0.28576
 O693 O 0.28278 0.73476 0.29222
 O694 O 0.29779 0.77760 0.25824
 O695 O 0.22718 0.75877 0.29526
 O696 O 0.24153 0.80090 0.26306
 Zr697 Zr 0.23584 0.72537 0.21256
 Zr698 Zr 0.23896 0.71240 0.28714
 Zr699 Zr 0.26790 0.79451 0.22330
 Zr700 Zr 0.30780 0.73112 0.25182
 O701 O 0.23963 0.83173 0.20593
 O702 O 0.32477 0.68974 0.27241
 O703 O 0.28007 0.74820 0.21479
 O704 O 0.26533 0.70648 0.24749
 O705 O 0.20885 0.72907 0.25204
 O706 O 0.22431 0.77208 0.21857
 C707 C 0.34197 0.76231 0.30785
 C708 C 0.29320 0.84395 0.26951
 C709 C 0.26007 0.73589 0.35159
 O710 O 0.26597 0.67318 0.30159
 O711 O 0.21730 0.67275 0.26881
 O712 O 0.21380 0.68185 0.21769
 C713 C 0.20870 0.66520 0.24144
 O714 O 0.18704 0.81037 0.29096
 Zr715 Zr 0.19908 0.77573 0.25867
 O716 O 0.18898 0.72691 0.19556
 O717 O 0.19540 0.70500 0.30953
 O718 O 0.16140 0.75921 0.28526
 O719 O 0.17888 0.81445 0.23551
 O720 O 0.16318 0.75915 0.22854
 C721 C 0.16383 0.74048 0.20573
 O722 O 0.25779 0.69288 0.18325
 O723 O 0.31227 0.80452 0.20345
 O724 O 0.23900 0.74358 0.16779
 O725 O 0.26489 0.78869 0.17589
 O726 O 0.34795 0.74853 0.22931
 O727 O 0.32155 0.70119 0.21580
 C728 C 0.25206 0.76836 0.15842
 H729 H 0.31798 0.78917 0.25917
 H730 H 0.27040 0.68455 0.24345
 H731 H 0.21119 0.78073 0.20141
 H732 H 0.21526 0.76155 0.31434
 H733 H 0.34855 0.68937 0.27159
 H734 H 0.25209 0.66155 0.31519
 H735 H 0.19827 0.68554 0.32095
 H736 H 0.14117 0.76958 0.27808
 H737 H 0.36730 0.73697 0.23692
 H738 H 0.30891 0.82385 0.19191
 H739 H 0.25354 0.84326 0.19228
 H740 H 0.15522 0.81373 0.23742
 H741 H 0.34344 0.69265 0.22016
 H742 H 0.24093 0.68653 0.16829
 H743 H 0.26568 0.81864 0.34361
 H744 H 0.16372 0.81533 0.28928
 Zr745 Zr 0.22841 0.78256 0.70760
 O746 O 0.24967 0.81160 0.67579
 O747 O 0.18076 0.78255 0.69220
 O748 O 0.22675 0.76175 0.66352
 O749 O 0.21674 0.83909 0.76300
 O750 O 0.25128 0.71491 0.67143
 O751 O 0.20916 0.82812 0.71238
 O752 O 0.15740 0.74910 0.72424
 O753 O 0.21684 0.73654 0.71449
 O754 O 0.20377 0.78103 0.74847
 O755 O 0.27246 0.75778 0.70909
 O756 O 0.25968 0.80155 0.74094
 Zr757 Zr 0.26739 0.72702 0.79276
 Zr758 Zr 0.26081 0.71231 0.71840
 Zr759 Zr 0.23518 0.79756 0.78183
 Zr760 Zr 0.19369 0.73535 0.75598
 O761 O 0.26442 0.83389 0.79713
 O762 O 0.17561 0.69481 0.73566
 O763 O 0.22323 0.75207 0.79153
 O764 O 0.23621 0.70884 0.75918
 O765 O 0.29266 0.72830 0.75214
 O766 O 0.27867 0.77305 0.78551
 C767 C 0.15668 0.76787 0.70169
 C768 C 0.20654 0.84602 0.73591
 C769 C 0.23757 0.73533 0.65425
 O770 O 0.23293 0.67428 0.70514
 O771 O 0.28203 0.67174 0.73646
 O772 O 0.28814 0.68184 0.78732
 C773 C 0.29139 0.66416 0.76361
 O774 O 0.31353 0.80641 0.71014
 Zr775 Zr 0.30212 0.77439 0.74432
 O776 O 0.31508 0.72755 0.80804
 O777 O 0.30351 0.70182 0.69491
 O778 O 0.33886 0.75404 0.71778
 O779 O 0.32234 0.81388 0.76489
 O780 O 0.33900 0.75924 0.77461
 C781 C 0.33938 0.74138 0.79780
 O782 O 0.24740 0.69604 0.82355
 O783 O 0.19195 0.81040 0.80349
 O784 O 0.26426 0.74621 0.83759
 O785 O 0.23981 0.79301 0.82914
 O786 O 0.15525 0.75492 0.78089
 O787 O 0.18149 0.70635 0.79246
 C788 C 0.25157 0.77196 0.84678
 H789 H 0.18359 0.79349 0.74840
 H790 H 0.23109 0.68730 0.76369
 H791 H 0.29219 0.78170 0.80218
 H792 H 0.28363 0.75940 0.68954
 H793 H 0.15191 0.69567 0.73739
 H794 H 0.24609 0.66169 0.69107
 H795 H 0.29997 0.68231 0.68375
 H796 H 0.35937 0.76373 0.72389
 H797 H 0.13538 0.74434 0.77437
 H798 H 0.19585 0.82998 0.81443
 H799 H 0.25128 0.84651 0.81119
 H800 H 0.34592 0.81247 0.76226
 H801 H 0.15960 0.69848 0.78870
 H802 H 0.26499 0.68957 0.83797
 H803 H 0.23223 0.81840 0.66137
 H804 H 0.33699 0.80982 0.71074
 Zr805 Zr 0.25825 0.23168 0.20797
 O806 O 0.24249 0.20104 0.17342
 O807 O 0.30473 0.24056 0.19452
 O808 O 0.25401 0.25342 0.16452
 O809 O 0.27636 0.17410 0.26080
 O810 O 0.22349 0.29647 0.17421
 O811 O 0.28238 0.18786 0.21121
 O812 O 0.32023 0.27906 0.22682
 O813 O 0.26237 0.27862 0.21795
 O814 O 0.28321 0.23487 0.24986
 O815 O 0.21103 0.25011 0.20878
 O816 O 0.23095 0.20737 0.23920
 Zr817 Zr 0.21198 0.27787 0.29402
 Zr818 Zr 0.21554 0.29646 0.22100
 Zr819 Zr 0.25506 0.21314 0.28138
 Zr820 Zr 0.28563 0.28134 0.26050
 O821 O 0.23229 0.17301 0.29578
 O822 O 0.29688 0.32650 0.24730
 O823 O 0.25952 0.25946 0.29389
 O824 O 0.23981 0.30145 0.26298
 O825 O 0.18677 0.27477 0.25224
 O826 O 0.20822 0.23097 0.28397
 C827 C 0.32400 0.26133 0.20373
 C828 C 0.28603 0.16868 0.23361
 C829 C 0.23857 0.27822 0.15615
 O830 O 0.23813 0.33762 0.20940
 O831 O 0.19127 0.33433 0.24059
 O832 O 0.18732 0.32153 0.29064
 C833 C 0.18265 0.34025 0.26799
 O834 O 0.17958 0.19548 0.20561
 Zr835 Zr 0.18498 0.22793 0.24160
 O836 O 0.16462 0.26988 0.30597
 O837 O 0.17072 0.30270 0.19773
 O838 O 0.14546 0.24312 0.21365
 O839 O 0.17135 0.18534 0.25982
 O840 O 0.14600 0.23664 0.26964
 C841 C 0.14274 0.25325 0.29358
 O842 O 0.22655 0.30905 0.32858
 O843 O 0.30076 0.20526 0.30260
 O844 O 0.21770 0.25703 0.33756
 O845 O 0.25150 0.21597 0.32895
 O846 O 0.32834 0.26459 0.28271
 O847 O 0.29397 0.30750 0.30083
 C848 C 0.23508 0.23364 0.34656
 H849 H 0.30496 0.22520 0.24925
 H850 H 0.24216 0.32321 0.26897
 H851 H 0.19630 0.21985 0.29952
 H852 H 0.19975 0.24761 0.18882
 H853 H 0.32032 0.32896 0.25074
 H854 H 0.22285 0.34925 0.19587
 H855 H 0.17133 0.32278 0.18733
 H856 H 0.12709 0.22983 0.21779
 H857 H 0.34581 0.27848 0.27734
 H858 H 0.30011 0.18503 0.31270
 H859 H 0.24791 0.16187 0.30936
 H860 H 0.14802 0.18313 0.25549
 H861 H 0.31551 0.31664 0.30031
 H862 H 0.20809 0.31217 0.34222
 H863 H 0.26075 0.19760 0.15961
 H864 H 0.15720 0.18822 0.20480
 Zr865 Zr 0.71855 0.73022 0.28193
 O866 O 0.73871 0.70100 0.31613
 O867 O 0.67101 0.73493 0.29515
 O868 O 0.72026 0.75101 0.32582
 O869 O 0.70890 0.67126 0.22894
 O870 O 0.73972 0.79837 0.31618
 O871 O 0.70123 0.68472 0.27856
 O872 O 0.64630 0.76485 0.25851
 O873 O 0.70567 0.77604 0.27213
 O874 O 0.69389 0.73019 0.23982
 O875 O 0.76200 0.75389 0.28154
 O876 O 0.75042 0.70900 0.25128
 Zr877 Zr 0.75646 0.78057 0.19642
 Zr878 Zr 0.74904 0.79906 0.26959
 Zr879 Zr 0.72592 0.71145 0.20903
 Zr880 Zr 0.68296 0.77571 0.22904
 O881 O 0.75578 0.67350 0.19720
 O882 O 0.66342 0.81764 0.24593
 O883 O 0.71299 0.75652 0.19609
 O884 O 0.72475 0.80119 0.22727
 O885 O 0.78145 0.78076 0.23843
 O886 O 0.76889 0.73477 0.20658
 C887 C 0.64652 0.74903 0.28302
 C888 C 0.69983 0.66541 0.25607
 C889 C 0.72992 0.77773 0.33430
 O890 O 0.71981 0.83806 0.27931
 O891 O 0.77016 0.83785 0.25101
 O892 O 0.77611 0.82515 0.20094
 C893 C 0.77947 0.84363 0.22400
 O894 O 0.80380 0.70384 0.28483
 Zr895 Zr 0.79216 0.73500 0.24892
 O896 O 0.80413 0.77863 0.18345
 O897 O 0.79105 0.81025 0.29514
 O898 O 0.82818 0.75535 0.27692
 O899 O 0.81409 0.69466 0.23087
 O900 O 0.82861 0.74910 0.22046
 C901 C 0.82877 0.76546 0.19623
 O902 O 0.73563 0.81033 0.16312
 O903 O 0.68312 0.69874 0.18557
 O904 O 0.75478 0.75937 0.15261
 O905 O 0.73209 0.71331 0.16213
 O906 O 0.64548 0.75543 0.20281
 O907 O 0.67102 0.80299 0.19022
 C908 C 0.74402 0.73295 0.14420
 H909 H 0.67406 0.71808 0.23970
 H910 H 0.71922 0.82261 0.22145
 H911 H 0.78293 0.72505 0.19124
 H912 H 0.77352 0.75282 0.30153
 H913 H 0.63983 0.81743 0.24216
 H914 H 0.73247 0.85108 0.29353
 H915 H 0.78666 0.83022 0.30530
 H916 H 0.84894 0.74492 0.27236
 H917 H 0.62531 0.76714 0.20686
 H918 H 0.68759 0.67863 0.17573
 H919 H 0.74299 0.66054 0.18303
 H920 H 0.83758 0.69603 0.23479
 H921 H 0.64881 0.81135 0.19189
 H922 H 0.75311 0.81596 0.14942
 H923 H 0.72112 0.69555 0.32980
 H924 H 0.82733 0.69985 0.28577
 Zr925 Zr 0.77630 0.27850 0.80072
 O926 O 0.75392 0.30743 0.83314
 O927 O 0.82367 0.27707 0.81708
 O928 O 0.77645 0.25745 0.84462
 O929 O 0.78435 0.33602 0.74675
 O930 O 0.75768 0.20967 0.83400
 O931 O 0.79242 0.32465 0.79711
 O932 O 0.84828 0.24359 0.78443
 O933 O 0.79021 0.23259 0.79234
 O934 O 0.80138 0.27772 0.75998
 O935 O 0.73360 0.25351 0.79805
 O936 O 0.74433 0.29789 0.76761
 Zr937 Zr 0.74069 0.22439 0.71362
 Zr938 Zr 0.74768 0.20824 0.78733
 Zr939 Zr 0.76925 0.29460 0.72675
 Zr940 Zr 0.81362 0.23212 0.75093
 O941 O 0.73849 0.33126 0.71209
 O942 O 0.83354 0.19052 0.76869
 O943 O 0.78356 0.24944 0.71568
 O944 O 0.77255 0.20539 0.74664
 O945 O 0.71539 0.22511 0.75417
 O946 O 0.72691 0.27019 0.72214
 C947 C 0.84800 0.26132 0.80794
 C948 C 0.79326 0.34321 0.77411
 C949 C 0.76797 0.23027 0.85254
 O950 O 0.77724 0.16956 0.79842
 O951 O 0.72633 0.16890 0.76835
 O952 O 0.71989 0.18025 0.71783
 C953 C 0.71592 0.16283 0.74121
 O954 O 0.69076 0.30317 0.79766
 Zr955 Zr 0.70332 0.27084 0.76329
 O956 O 0.69300 0.22481 0.69825
 O957 O 0.70602 0.19745 0.81142
 O958 O 0.66764 0.25113 0.79017
 O959 O 0.68057 0.30972 0.74252
 O960 O 0.66720 0.25406 0.73383
 C961 C 0.66773 0.23670 0.71009
 O962 O 0.76244 0.19339 0.68268
 O963 O 0.81218 0.30759 0.70595
 O964 O 0.74333 0.24412 0.66946
 O965 O 0.76415 0.29127 0.67936
 O966 O 0.85180 0.25288 0.72822
 O967 O 0.82760 0.20500 0.71291
 C968 C 0.75365 0.27048 0.66105
 H969 H 0.82092 0.29025 0.76092
 H970 H 0.77847 0.18390 0.74143
 H971 H 0.71283 0.27893 0.70569
 H972 H 0.72211 0.25470 0.81750
 H973 H 0.85722 0.19143 0.76713
 H974 H 0.76478 0.15665 0.81213
 H975 H 0.71056 0.17767 0.82188
 H976 H 0.64672 0.26108 0.78439
 H977 H 0.87199 0.24196 0.73463
 H978 H 0.80744 0.32732 0.69546
 H979 H 0.75116 0.34416 0.69853
 H980 H 0.65710 0.30787 0.74507
 H981 H 0.85003 0.19739 0.71614
 H982 H 0.74531 0.18719 0.66792
 H983 H 0.77104 0.31389 0.84779
 H984 H 0.66725 0.30733 0.79667
 C985 C 0.43800 0.98997 0.31317
 C986 C 0.43656 1.01720 0.33017
 N987 N 0.41728 1.04071 0.32043
 C988 C 0.39858 1.03821 0.29482
 C989 C 0.39793 1.01021 0.27818
 N990 N 0.41864 0.98700 0.28770
 N991 N 0.45806 0.96671 0.32302
 C992 C 0.47601 0.96931 0.34945
 C993 C 0.47323 0.99616 0.36728
 N994 N 0.45362 1.01943 0.35680
 H995 H 0.38455 1.05821 0.28788
 H996 H 0.49076 0.95003 0.35733
 C997 C -0.07126 0.48786 0.81865
 C998 C -0.07419 0.51372 0.83749
 N999 N -0.09233 0.53814 0.82789
 C1000 C -0.10880 0.53761 0.80078
 C1001 C -0.10841 0.51072 0.78246
 N1002 N -0.08850 0.48684 0.79177
 N1003 N -0.05240 0.46367 0.82828
 C1004 C -0.03704 0.46399 0.85619
 C1005 C -0.04147 0.48931 0.87579
 N1006 N -0.05981 0.51364 0.86561
 H1007 H -0.12236 0.55803 0.79425
 H1008 H -0.02300 0.44408 0.86363
 C1009 C 0.07242 -0.02095 0.81024
 C1010 C 0.05157 0.00382 0.81706
 N1011 N 0.04923 0.02785 0.79749
 C1012 C 0.06728 0.02853 0.77197
 C1013 C 0.08976 0.00456 0.76603
 N1014 N 0.09114 -0.01980 0.78538
 N1015 N 0.07485 -0.04517 0.82935
 C1016 C 0.05829 -0.04539 0.85556
 C1017 C 0.03888 -0.01985 0.86377
 N1018 N 0.03554 0.00413 0.84391
 H1019 H 0.06506 0.04815 0.75702
 H1020 H 0.06153 -0.06480 0.87069
 C1021 C 0.56106 0.50764 0.31296
 C1022 C 0.58114 0.49992 0.33799
 N1023 N 0.61255 0.49295 0.33372
 C1024 C 0.62503 0.49308 0.30551
 C1025 C 0.60520 0.49990 0.27968
 N1026 N 0.57340 0.50736 0.28428
 N1027 N 0.52969 0.51553 0.31799
 C1028 C 0.51763 0.51572 0.34677
 C1029 C 0.53775 0.50721 0.37178
 N1030 N 0.56905 0.49963 0.36638
 H1031 H 0.65045 0.48817 0.30339
 H1032 H 0.49257 0.52176 0.34999
 C1033 C 0.57339 0.48038 0.17572
 C1034 C 0.55905 0.50854 0.16734
 N1035 N 0.56108 0.53268 0.18702
 C1036 C 0.57778 0.53021 0.21414
 C1037 C 0.59481 0.50267 0.22157
 N1038 N 0.59125 0.47840 0.20200
 N1039 N 0.57090 0.45591 0.15660
 C1040 C 0.55533 0.45849 0.12906
 C1041 C 0.54260 0.48709 0.11964
 N1042 N 0.54463 0.51156 0.13918
 H1043 H 0.57945 0.55011 0.22889
 H1044 H 0.55442 0.43879 0.11394
 C1045 C 0.06222 0.99021 0.66993
 C1046 C 0.06990 1.01419 0.65056
 N1047 N 0.08920 1.03675 0.66101
 C1048 C 0.10199 1.03614 0.68979
 C1049 C 0.09588 1.01127 0.70917
 N1050 N 0.07555 0.98912 0.69860
 N1051 N 0.04271 0.96772 0.65923
 C1052 C 0.03103 0.96791 0.62986
 C1053 C 0.03989 0.99132 0.61004
 N1054 N 0.05894 1.01400 0.62119
 H1055 H 0.11757 1.05449 0.69682
 H1056 H 0.01608 0.94941 0.62180
 C1057 C -0.07111 0.52422 0.69058
 C1058 C -0.06919 0.49606 0.67522
 N1059 N -0.08453 0.47165 0.68624
 C1060 C -0.10275 0.47417 0.71137
 C1061 C -0.10732 0.50301 0.72596
 N1062 N -0.09013 0.52714 0.71548
 N1063 N -0.05504 0.54846 0.67943
 C1064 C -0.03799 0.54589 0.65323
 C1065 C -0.03766 0.51799 0.63690
 N1066 N -0.05319 0.49378 0.64871
 H1067 H -0.11361 0.45360 0.71944
 H1068 H -0.02663 0.56586 0.64422
 C1069 C 0.43595 0.02638 0.18808
 C1070 C 0.44014 -0.00169 0.17297
 N1071 N 0.42550 -0.02684 0.18328
 C1072 C 0.40596 -0.02524 0.20754
 C1073 C 0.39941 0.00331 0.22200
 N1074 N 0.41575 0.02830 0.21219
 N1075 N 0.45121 0.05141 0.17754
 C1076 C 0.46965 0.04968 0.15214
 C1077 C 0.47241 0.02175 0.13606
 N1078 N 0.45766 -0.00320 0.14734
 H1079 H 0.39576 -0.04631 0.21518
 H1080 H 0.48029 0.07021 0.14355
 C1081 C 0.33347 0.39837 0.01990
 C1082 C 0.33652 0.41834 -0.00468
 N1083 N 0.31258 0.42063 -0.02615
 C1084 C 0.28601 0.40322 -0.02465
 C1085 C 0.28337 0.38172 -0.00097
 N1086 N 0.30713 0.38050 0.02116
 N1087 N 0.35759 0.39621 0.04135
 C1088 C 0.38480 0.41282 0.03909
 C1089 C 0.38836 0.43214 0.01388
 N1090 N 0.36383 0.43447 -0.00723
 H1091 H 0.26769 0.40504 -0.04256
 H1092 H 0.40374 0.41035 0.05633
 C1093 C -0.15432 0.88351 0.49496
 C1094 C -0.15921 0.91441 0.50334
 N1095 N -0.18930 0.92449 0.51128
 C1096 C -0.21534 0.90568 0.50999
 C1097 C -0.20948 0.87444 0.50050
 N1098 N -0.17947 0.86450 0.49327
 N1099 N -0.12445 0.87293 0.48818
 C1100 C -0.09892 0.89170 0.48923
 C1101 C -0.10331 0.92263 0.49724
 N1102 N -0.13348 0.93346 0.50412
 H1103 H -0.23945 0.91378 0.52789
 H1104 H -0.07544 0.88272 0.48317
 C1105 C -0.16371 0.09384 0.97389
 C1106 C -0.16696 0.06499 0.98724
 N1107 N -0.19263 0.05991 1.00519
 C1108 C -0.21555 0.08219 1.01090
 C1109 C -0.20991 0.11242 0.99940
 N1110 N -0.18512 0.11691 0.98028
 N1111 N -0.13817 0.09879 0.95595
 C1112 C -0.11487 0.07674 0.95174
 C1113 C -0.11636 0.04867 0.96712
 N1114 N -0.14277 0.04349 0.98429
 H1115 H -0.23268 0.07674 1.03519
 H1116 H -0.09416 0.08200 0.93846
 C1117 C 0.32701 0.60296 0.47615
 C1118 C 0.33307 0.58174 0.49951
 N1119 N 0.31132 0.57863 0.52167
 C1120 C 0.28386 0.59610 0.52193
 C1121 C 0.27764 0.61838 0.49916
 N1122 N 0.29956 0.62088 0.47649
 N1123 N 0.34921 0.60582 0.45407
 C1124 C 0.37720 0.58861 0.45451
 C1125 C 0.38360 0.56775 0.47841
 N1126 N 0.36099 0.56497 0.50014
 H1127 H 0.26740 0.59341 0.54036
 H1128 H 0.39444 0.59159 0.43679
 C1129 C 0.17102 0.60368 0.52948
 C1130 C 0.16405 0.58363 0.50531
 N1131 N 0.18442 0.58124 0.48174
 C1132 C 0.21130 0.59832 0.48090
 C1133 C 0.21824 0.61956 0.50445
 N1134 N 0.19782 0.62125 0.52853
 N1135 N 0.15036 0.60574 0.55306
 C1136 C 0.12293 0.58898 0.55331
 C1137 C 0.11542 0.56947 0.52858
 N1138 N 0.13656 0.56738 0.50532
 H1139 H 0.22680 0.59604 0.46155
 H1140 H 0.10674 0.59158 0.57210
 C1141 C 0.67909 0.11370 0.01984
 C1142 C 0.68350 0.08205 0.02471
 N1143 N 0.71402 0.06963 0.02597
 C1144 C 0.74059 0.08682 0.02101
 C1145 C 0.73502 0.11870 0.01384
 N1146 N 0.70471 0.13114 0.01377
 N1147 N 0.64910 0.12655 0.02109
 C1148 C 0.62305 0.10931 0.02652
 C1149 C 0.62680 0.07747 0.03008
 N1150 N 0.65713 0.06452 0.02897
 H1151 H 0.59933 0.12010 0.02624
 C1152 C 0.68232 0.89396 0.47396
 C1153 C 0.68584 0.92261 0.48819
 N1154 N 0.71396 0.92884 0.50364
 C1155 C 0.73907 0.90788 0.50584
 C1156 C 0.73330 0.87766 0.49372
 N1157 N 0.70587 0.87217 0.47720
 N1158 N 0.65485 0.88792 0.45789
 C1159 C 0.62999 0.90869 0.45630
 C1160 C 0.63202 0.93640 0.47258
 N1161 N 0.66017 0.94281 0.48805
 H1162 H 0.60800 0.90269 0.44419
 C1163 C 0.17416 0.39519 0.97575
 C1164 C 0.16790 0.41313 1.00157
 N1165 N 0.18998 0.41408 1.02478
 C1166 C 0.21797 0.39748 1.02365
 C1167 C 0.22422 0.37828 0.99836
 N1168 N 0.20206 0.37819 0.97471
 N1169 N 0.15191 0.39466 0.95245
 C1170 C 0.12354 0.41098 0.95403
 C1171 C 0.11688 0.42837 0.98033
 N1172 N 0.13955 0.42897 1.00332
 H1173 H 0.23508 0.39876 1.04258
 H1174 H 0.10611 0.40974 0.93536
 C1175 C -0.02659 0.33528 0.42439
 C1176 C -0.00914 0.33822 0.45193
 N1177 N 0.00557 0.31326 0.46483
 C1178 C 0.00473 0.28559 0.45059
 C1179 C -0.01100 0.28316 0.42183
 N1180 N -0.02679 0.30810 0.41012
 N1181 N -0.04034 0.36017 0.41070
 C1182 C -0.03677 0.38834 0.42308
 C1183 C -0.01814 0.39152 0.45000
 N1184 N -0.00523 0.36633 0.46411
 H1185 H 0.01842 0.26649 0.46032
 H1186 H -0.04781 0.40798 0.41162
 C1187 C 0.52231 -0.17013 -0.06516
 C1188 C 0.49271 -0.15698 -0.05695
 N1189 N 0.46537 -0.17300 -0.06101
 C1190 C 0.46626 -0.20129 -0.07407
 C1191 C 0.49572 -0.21350 -0.08452
 N1192 N 0.52293 -0.19763 -0.07895
 N1193 N 0.54987 -0.15464 -0.06064
 C1194 C 0.54905 -0.12606 -0.04852
 C1195 C 0.51931 -0.11243 -0.04161
 N1196 N 0.49178 -0.12816 -0.04563
 H1197 H 0.44410 -0.21348 -0.07759
 H1198 H 0.57122 -0.11386 -0.04496
 C1199 C 0.01829 -0.18669 1.08749
 C1200 C -0.00511 -0.18325 1.06410
 N1201 N -0.02660 -0.20568 1.05879
 C1202 C -0.02617 -0.23114 1.07646
 C1203 C -0.00358 -0.23391 1.10086
 N1204 N 0.01845 -0.21174 1.10510
 N1205 N 0.03951 -0.16428 1.09334
 C1206 C 0.03796 -0.13800 1.07717
 C1207 C 0.01388 -0.13401 1.05436
 N1208 N -0.00683 -0.15694 1.04800
 H1209 H -0.04384 -0.24858 1.07222
 H1210 H 0.05509 -0.12030 1.08243
 C1211 C 0.48419 0.31300 0.56854
 C1212 C 0.51313 0.32868 0.56785
 N1213 N 0.53986 0.31704 0.58212
 C1214 C 0.53865 0.29074 0.59819
 C1215 C 0.50891 0.27615 0.60109
 N1216 N 0.48284 0.28732 0.58513
 N1217 N 0.45750 0.32447 0.55385
 C1218 C 0.45836 0.35167 0.53913
 C1219 C 0.48694 0.36807 0.54010
 N1220 N 0.51374 0.35598 0.55398
 H1221 H 0.56060 0.28174 0.60883
 H1222 H 0.43671 0.36100 0.52814
 C1223 C 0.50253 1.16538 0.59808
 C1224 C 0.51389 1.16517 0.56829
 N1225 N 0.52230 1.19170 0.55515
 C1226 C 0.51975 1.21866 0.57049
 C1227 C 0.50814 1.21898 0.60045
 N1228 N 0.50013 1.19208 0.61337
 N1229 N 0.49379 1.13895 0.61122
 C1230 C 0.49564 1.11212 0.59564
 C1231 C 0.50683 1.11195 0.56571
 N1232 N 0.51588 1.13846 0.55281
 H1233 H 0.52698 1.23930 0.55931
 H1234 H 0.48839 1.09125 0.60651
 C1235 C -0.01976 0.65899 1.09918
 C1236 C 0.00301 0.65418 1.07654
 N1237 N 0.02234 0.67718 1.06858
 C1238 C 0.02008 0.70490 1.08252
 C1239 C -0.00267 0.70984 1.10544
 N1240 N -0.02209 0.68659 1.11292
 N1241 N -0.03872 0.63583 1.10755
 C1242 C -0.03593 0.60786 1.09415
 C1243 C -0.01322 0.60311 1.07133
 N1244 N 0.00564 0.62644 1.06306
 H1245 H 0.03624 0.72277 1.07624
 H1246 H -0.05152 0.58976 1.10100
 C1247 C 0.49940 0.67470 -0.09066
 C1248 C 0.49199 0.67241 -0.05982
 N1249 N 0.48740 0.69827 -0.04298
 C1250 C 0.48962 0.72644 -0.05578
 C1251 C 0.49665 0.72863 -0.08694
 N1252 N 0.50150 0.70247 -0.10326
 N1253 N 0.50432 0.64919 -0.10772
 C1254 C 0.50251 0.62112 -0.09512
 C1255 C 0.49544 0.61866 -0.06414
 N1256 N 0.49013 0.64435 -0.04715
 H1257 H 0.48560 0.74655 -0.04178
 H1258 H 0.50689 0.60099 -0.10909
 C1259 C 0.01508 1.17437 0.41065
 C1260 C -0.00547 1.16652 0.43394
 N1261 N -0.02287 1.18855 0.44839
 C1262 C -0.02112 1.21831 0.44006
 C1263 C -0.00094 1.22632 0.41617
 N1264 N 0.01666 1.20385 0.40233
 N1265 N 0.03179 1.15227 0.39555
 C1266 C 0.02890 1.12235 0.40289
 C1267 C 0.00827 1.11451 0.42627
 N1268 N -0.00833 1.13683 0.44123
 H1269 H -0.03670 1.23519 0.45073
 H1270 H 0.04281 1.10506 0.39089
 C1271 C 0.73350 0.69822 0.93321
 C1272 C 0.75972 0.69464 0.91411
 N1273 N 0.78444 0.67525 0.92203
 C1274 C 0.78373 0.65829 0.94783
 C1275 C 0.75650 0.66014 0.96629
 N1276 N 0.73235 0.68074 0.95865
 N1277 N 0.70853 0.71736 0.92477
 C1278 C 0.70824 0.73235 0.89755
 C1279 C 0.73368 0.72718 0.87760
 N1280 N 0.75896 0.70880 0.88678
 H1281 H 0.80363 0.64259 0.95289
 H1282 H 0.68759 0.74653 0.89082
 C1283 C 0.23482 0.19663 0.43501
 C1284 C 0.26313 0.19689 0.41854
 N1285 N 0.28978 0.18179 0.42960
 C1286 C 0.28899 0.16498 0.45558
 C1287 C 0.25961 0.16166 0.47061
 N1288 N 0.23366 0.17890 0.46030
 N1289 N 0.20817 0.21194 0.42400
 C1290 C 0.20829 0.22664 0.39666
 C1291 C 0.23600 0.22497 0.37902
 N1292 N 0.26292 0.21047 0.39078
 H1293 H 0.31082 0.15329 0.46342
 H1294 H 0.18640 0.23766 0.38791
 C1295 C 0.72978 0.30267 0.43561
 C1296 C 0.75884 0.28766 0.42820
 N1297 N 0.78526 0.29176 0.44643
 C1298 C 0.78423 0.31092 0.47103
 C1299 C 0.75579 0.32791 0.47718
 N1300 N 0.72903 0.32262 0.45951
 N1301 N 0.70332 0.29873 0.41751
 C1302 C 0.70486 0.28161 0.39163
 C1303 C 0.73445 0.26849 0.38271
 N1304 N 0.76074 0.27136 0.40165
 H1305 H 0.80578 0.31379 0.48496
 H1306 H 0.68367 0.28017 0.37688
 C1307 C 0.24468 0.81053 0.93426
 C1308 C 0.27406 0.79722 0.92544
 N1309 N 0.30061 0.80113 0.94363
 C1310 C 0.29930 0.81857 0.96954
 C1311 C 0.27042 0.83427 0.97704
 N1312 N 0.24364 0.82871 0.95944
 N1313 N 0.21794 0.80660 0.91655
 C1314 C 0.21939 0.79098 0.88977
 C1315 C 0.24908 0.77927 0.87961
 N1316 N 0.27586 0.78231 0.89800
 H1317 H 0.32085 0.82106 0.98358
 H1318 H 0.19786 0.78941 0.87550
 C1319 C 0.24881 0.80353 0.06910
 C1320 C 0.27688 0.80454 0.08733
 N1321 N 0.30243 0.82008 0.07765
 C1322 C 0.30094 0.83574 0.05102
 C1323 C 0.27191 0.83724 0.03347
 N1324 N 0.24690 0.81990 0.04268
 N1325 N 0.22345 0.78742 0.07896
 C1326 C 0.22466 0.77313 0.10662
 C1327 C 0.25218 0.77579 0.12566
 N1328 N 0.27769 0.79122 0.11516
 H1329 H 0.32229 0.84716 0.04404
 H1330 H 0.20368 0.76159 0.11445
 C1331 C 0.75338 0.29926 0.56881
 C1332 C 0.76197 0.31882 0.59290
 N1333 N 0.76946 0.34826 0.58721
 C1334 C 0.76872 0.35927 0.55837
 C1335 C 0.76044 0.33988 0.53370
 N1336 N 0.75269 0.31020 0.53977
 N1337 N 0.74498 0.26997 0.57506
 C1338 C 0.74478 0.25947 0.60436
 C1339 C 0.75341 0.27922 0.62852
 N1340 N 0.76183 0.30837 0.62184
 H1341 H 0.77382 0.38318 0.55481
 H1342 H 0.73794 0.23614 0.60868
 C1343 C 0.26532 0.19096 0.56260
 C1344 C 0.25542 0.17233 0.58635
 N1345 N 0.24520 0.14368 0.58037
 C1346 C 0.24437 0.13255 0.55155
 C1347 C 0.25404 0.15091 0.52719
 N1348 N 0.26448 0.17989 0.53344
 N1349 N 0.27585 0.21965 0.56930
 C1350 C 0.27676 0.23043 0.59863
 C1351 C 0.26660 0.21162 0.62232
 N1352 N 0.25626 0.18306 0.61524
 H1353 H 0.23662 0.10930 0.54761
 H1354 H 0.28502 0.25336 0.60331
 C1355 C 0.75086 0.69699 0.05480
 C1356 C 0.73838 0.68022 0.07866
 N1357 N 0.72963 0.65083 0.07412
 C1358 C 0.73281 0.63715 0.04657
 C1359 C 0.74506 0.65367 0.02213
 N1360 N 0.75399 0.68337 0.02700
 N1361 N 0.76046 0.72626 0.06017
 C1362 C 0.75825 0.73933 0.08846
 C1363 C 0.74586 0.72226 0.11237
 N1364 N 0.73620 0.69320 0.10649
 H1365 H 0.72627 0.61339 0.04385
 H1366 H 0.76636 0.76247 0.09227
 C1367 C 0.15349 0.58362 0.23487
 C1368 C 0.17551 0.58797 0.25907
 N1369 N 0.17811 0.56653 0.28142
 C1370 C 0.15916 0.54138 0.28115
 C1371 C 0.13529 0.53765 0.25800
 N1372 N 0.13383 0.55888 0.23499
 N1373 N 0.15135 0.60484 0.21223
 C1374 C 0.16980 0.63041 0.21292
 C1375 C 0.19105 0.63567 0.23782
 N1376 N 0.19334 0.61393 0.26024
 H1377 H 0.16153 0.52513 0.29965
 H1378 H 0.16702 0.64700 0.19477
 C1379 C 0.64918 0.09137 0.74570
 C1380 C 0.68149 0.08349 0.74038
 N1381 N 0.69008 0.05307 0.73693
 C1382 C 0.66851 0.02984 0.74010
 C1383 C 0.63624 0.03898 0.74785
 N1384 N 0.62766 0.06914 0.75002
 N1385 N 0.63960 0.12127 0.74654
 C1386 C 0.66074 0.14403 0.74266
 C1387 C 0.69337 0.13691 0.73853
 N1388 N 0.70322 0.10657 0.73755
 H1389 H 0.67523 0.00483 0.72352
 H1390 H 0.65236 0.16769 0.74420
 C1391 C 0.83175 0.06670 0.26531
 C1392 C 0.84367 0.09023 0.24758
 N1393 N 0.86632 0.08367 0.22686
 C1394 C 0.87739 0.05453 0.22248
 C1395 C 0.86446 0.02987 0.23877
 N1396 N 0.84232 0.03707 0.26055
 N1397 N 0.80964 0.07402 0.28676
 C1398 C 0.79852 0.10361 0.29065
 C1399 C 0.80955 0.12695 0.27179
 N1400 N 0.83204 0.11934 0.25087
 H1401 H 0.89657 0.05102 0.20662
 H1402 H 0.78011 0.10854 0.30706
 C1403 C 0.33966 0.57638 0.76885
 C1404 C 0.31841 0.58368 0.74461
 N1405 N 0.31408 0.56294 0.72173
 C1406 C 0.33050 0.53548 0.72158
 C1407 C 0.35336 0.52831 0.74499
 N1408 N 0.35671 0.54913 0.76843
 N1409 N 0.34362 0.59714 0.79190
 C1410 C 0.32765 0.62495 0.79161
 C1411 C 0.30707 0.63292 0.76676
 N1412 N 0.30300 0.61169 0.74394
 H1413 H 0.32680 0.51981 0.70267
 H1414 H 0.33176 0.64103 0.81010
 C1415 C 0.34038 0.42083 0.72084
 C1416 C 0.31944 0.41609 0.74472
 N1417 N 0.31434 0.43898 0.76529
 C1418 C 0.32984 0.46610 0.76360
 C1419 C 0.35239 0.47071 0.74061
 N1420 N 0.35645 0.44774 0.71946
 N1421 N 0.34550 0.39783 0.70031
 C1422 C 0.33094 0.37022 0.70276
 C1423 C 0.31063 0.36491 0.72728
 N1424 N 0.30533 0.38834 0.74754
 H1425 H 0.32600 0.48334 0.78105
 H1426 H 0.33584 0.35236 0.68618
 C1427 C 0.83047 0.92632 0.21449
 C1428 C 0.81444 0.92039 0.24130
 N1429 N 0.81703 0.94052 0.26503
 C1430 C 0.83539 0.96605 0.26334
 C1431 C 0.85268 0.97170 0.23676
 N1432 N 0.84918 0.95132 0.21307
 N1433 N 0.82840 0.90624 0.19077
 C1434 C 0.81128 0.88011 0.19273
 C1435 C 0.79579 0.87335 0.21991
 N1436 N 0.79768 0.89399 0.24354
 H1437 H 0.83783 0.98084 0.28309
 H1438 H 0.81056 0.86442 0.17355
 C1439 C 0.64332 0.93437 0.77456
 C1440 C 0.67355 0.93370 0.76122
 N1441 N 0.68406 0.95955 0.74730
 C1442 C 0.66597 0.98635 0.74562
 C1443 C 0.63386 0.98512 0.75707
 N1444 N 0.62417 0.95980 0.77199
 N1445 N 0.63282 0.90901 0.78873
 C1446 C 0.65055 0.88240 0.78930
 C1447 C 0.67968 0.88050 0.77391
 N1448 N 0.69066 0.90648 0.76040
 H1449 H 0.64101 0.86240 0.80005
 C1450 C 0.13979 0.42963 0.27974
 C1451 C 0.15898 0.42254 0.25483
 N1452 N 0.16391 0.44441 0.23369
 C1453 C 0.15006 0.47292 0.23590
 C1454 C 0.12942 0.48020 0.26010
 N1455 N 0.12531 0.45809 0.28174
 N1456 N 0.13537 0.40761 0.30106
 C1457 C 0.14904 0.37887 0.29845
 C1458 C 0.16766 0.37139 0.27297
 N1459 N 0.17212 0.39378 0.25192
 H1460 H 0.15412 0.48953 0.21827
 H1461 H 0.14495 0.36192 0.31574
 C1462 C 0.07103 0.24454 0.83155
 C1463 C 0.10006 0.23544 0.84606
 N1464 N 0.10064 0.22701 0.87570
 C1465 C 0.07316 0.22691 0.89154
 C1466 C 0.04372 0.23497 0.87681
 N1467 N 0.04364 0.24418 0.84724
 N1468 N 0.07071 0.25373 0.80206
 C1469 C 0.09836 0.25412 0.78634
 C1470 C 0.12732 0.24461 0.80087
 N1471 N 0.12738 0.23556 0.83038
 H1472 H 0.07413 0.22052 0.91534
 H1473 H 0.09768 0.26151 0.76284
 C1474 C 0.56179 0.74536 0.33105
 C1475 C 0.59196 0.74320 0.34602
 N1476 N 0.59409 0.74149 0.37674
 C1477 C 0.56716 0.74165 0.39333
 C1478 C 0.53670 0.74281 0.37840
 N1479 N 0.53500 0.74508 0.34754
 N1480 N 0.55977 0.74857 0.30037
 C1481 C 0.58682 0.74978 0.28393
 C1482 C 0.61690 0.74730 0.29902
 N1483 N 0.61875 0.74395 0.32964
 H1484 H 0.56937 0.74114 0.41794
 H1485 H 0.58487 0.75245 0.25944
 C1486 C 0.57438 0.26254 0.14628
 C1487 C 0.57461 0.25348 0.17680
 N1488 N 0.54656 0.24797 0.19058
 C1489 C 0.51808 0.25044 0.17491
 C1490 C 0.51788 0.25816 0.14374
 N1491 N 0.54625 0.26445 0.13061
 N1492 N 0.60229 0.26865 0.13253
 C1493 C 0.63076 0.26588 0.14810
 C1494 C 0.63103 0.25607 0.17847
 N1495 N 0.60293 0.25023 0.19214
 H1496 H 0.49627 0.24601 0.18674
 H1497 H 0.65285 0.27080 0.13678
 C1498 C 0.06838 0.78029 0.65492
 C1499 C 0.07237 0.75809 0.67774
 N1500 N 0.04832 0.73870 0.68327
 C1501 C 0.02054 0.74006 0.66648
 C1502 C 0.01657 0.76183 0.64282
 N1503 N 0.04086 0.78149 0.63807
 N1504 N 0.09290 0.79890 0.64851
 C1505 C 0.12160 0.79591 0.66365
 C1506 C 0.12588 0.77307 0.68596
 N1507 N 0.10096 0.75499 0.69273
 H1508 H 0.00260 0.72305 0.67037
 H1509 H 0.14090 0.81092 0.65799
 C1510 C 0.92534 0.75604 0.67669
 C1511 C 0.89790 0.75014 0.65854
 N1512 N 0.90030 0.74701 0.62805
 C1513 C 0.92910 0.74941 0.61479
 C1514 C 0.95692 0.75481 0.63299
 N1515 N 0.95392 0.75841 0.66350
 N1516 N 0.92286 0.76034 0.70708
 C1517 C 0.89382 0.75945 0.72014
 C1518 C 0.86630 0.75410 0.70180
 N1519 N 0.86900 0.74924 0.67150
 H1520 H 0.92983 0.74795 0.59032
 H1521 H 0.89224 0.76326 0.74444
 C1522 C 0.40805 0.27354 0.15694
 C1523 C 0.40046 0.24445 0.16778
 N1524 N 0.42144 0.22051 0.16440
 C1525 C 0.44984 0.22444 0.15062
 C1526 C 0.45740 0.25364 0.13950
 N1527 N 0.43591 0.27721 0.14283
 N1528 N 0.38784 0.29787 0.16123
 C1529 C 0.36019 0.29440 0.17623
 C1530 C 0.35252 0.26529 0.18676
 N1531 N 0.37261 0.24086 0.18224
 H1532 H 0.46635 0.20506 0.14826
 H1533 H 0.34432 0.31406 0.17981
 C1534 C 0.42713 0.76764 0.35992
 C1535 C 0.42168 0.74280 0.34015
 N1536 N 0.44364 0.71949 0.33849
 C1537 C 0.47102 0.71992 0.35583
 C1538 C 0.47681 0.74502 0.37546
 N1539 N 0.45443 0.76815 0.37703
 N1540 N 0.40475 0.79056 0.36219
 C1541 C 0.37691 0.78966 0.34553
 C1542 C 0.37151 0.76475 0.32575
 N1543 N 0.39410 0.74200 0.32346
 H1544 H 0.48803 0.70081 0.35460
 H1545 H 0.35932 0.80818 0.34769
 C1546 C 0.93304 0.26177 0.86080
 C1547 C 0.92908 0.24115 0.83645
 N1548 N 0.95222 0.21973 0.83069
 C1549 C 0.97937 0.21796 0.84831
 C1550 C 0.98375 0.23886 0.87266
 N1551 N 0.96007 0.26003 0.87833
 N1552 N 0.90946 0.28269 0.86701
 C1553 C 0.88180 0.28373 0.84997
 C1554 C 0.87776 0.26282 0.82576
 N1555 N 0.90163 0.24219 0.81954
 H1556 H 0.99729 0.20031 0.84355
 H1557 H 0.86315 0.30043 0.85547
 C1558 C 0.57371 0.99065 0.68101
 C1559 C 0.55390 1.01631 0.67394
 N1560 N 0.55032 1.03881 0.69524
 C1561 C 0.56650 1.03731 0.72268
 C1562 C 0.58813 1.01256 0.72896
 N1563 N 0.59044 0.98958 0.70792
 N1564 N 0.57795 0.96825 0.65995
 C1565 C 0.56420 0.97070 0.63173
 C1566 C 0.54577 0.99709 0.62366
 N1567 N 0.54046 1.01919 0.64528
 H1568 H 0.56396 1.05607 0.73874
 H1569 H 0.56862 0.95259 0.61527
 C1570 C 0.06554 0.48758 1.18773
 C1571 C 0.04864 0.51451 1.17911
 N1572 N 0.04979 0.53931 1.19806
 C1573 C 0.06774 0.53862 1.22460
 C1574 C 0.08661 0.51224 1.23229
 N1575 N 0.08396 0.48718 1.21370
 N1576 N 0.06474 0.46266 1.16922
 C1577 C 0.04864 0.46361 1.14197
 C1578 C 0.03290 0.49090 1.13221
 N1579 N 0.03287 0.51582 1.15133
 H1580 H 0.06828 0.55881 1.23902
 H1581 H 0.04924 0.44351 1.12736
 C1582 C -0.06060 -0.02035 1.17328
 C1583 C -0.07952 -0.01397 1.14715
 N1584 N -0.11047 -0.00437 1.14971
 C1585 C -0.12367 -0.00074 1.17739
 C1586 C -0.10512 -0.00686 1.20415
 N1587 N -0.07375 -0.01669 1.20130
 N1588 N -0.02939 -0.02989 1.17000
 C1589 C -0.01635 -0.03302 1.14178
 C1590 C -0.03543 -0.02617 1.11564
 N1591 N -0.06655 -0.01696 1.11940
 H1592 H -0.14857 0.00683 1.17866
 H1593 H 0.00859 -0.04018 1.13983
 C1594 C 0.42926 0.47415 0.67723
 C1595 C 0.43062 0.50123 0.66051
 N1596 N 0.41706 0.52740 0.67159
 C1597 C 0.40095 0.52766 0.69812
 C1598 C 0.39678 0.50003 0.71422
 N1599 N 0.41243 0.47412 0.70361
 N1600 N 0.44356 0.44810 0.66599
 C1601 C 0.45845 0.44791 0.63850
 C1602 C 0.45835 0.47486 0.62101
 N1603 N 0.44460 0.50084 0.63290
 H1604 H 0.39118 0.54935 0.70605
 H1605 H 0.46884 0.42673 0.62979
 C1606 C 0.43175 0.51773 -0.19052
 C1607 C 0.43343 0.48991 -0.17475
 N1608 N 0.41950 0.46486 -0.18711
 C1609 C 0.40266 0.46649 -0.21396
 C1610 C 0.39798 0.49503 -0.22895
 N1611 N 0.41407 0.51971 -0.21714
 N1612 N 0.44652 0.54260 -0.17810
 C1613 C 0.46215 0.54096 -0.15033
 C1614 C 0.46224 0.51341 -0.13381
 N1615 N 0.44804 0.48854 -0.14679
 H1616 H 0.39254 0.44560 -0.22291
 H1617 H 0.47291 0.56127 -0.14062
 C1618 C -0.06134 1.01363 0.29924
 C1619 C -0.05598 0.98460 0.31210
 N1620 N -0.06876 0.95962 0.29828
 C1621 C -0.08780 0.96243 0.27275
 C1622 C -0.09585 0.99184 0.26116
 N1623 N -0.08133 1.01661 0.27441
 N1624 N -0.04811 1.03857 0.31294
 C1625 C -0.03060 1.03587 0.33952
 C1626 C -0.02715 1.00707 0.35354
 N1627 N -0.03968 0.98209 0.33917
 H1628 H -0.09756 0.94198 0.26239
 H1629 H -0.02142 1.05622 0.35062
 C1630 C 0.05441 0.49403 0.32528
 C1631 C 0.05654 0.52065 0.34306
 N1632 N 0.07346 0.54455 0.33302
 C1633 C 0.08948 0.54281 0.30647
 C1634 C 0.08993 0.51524 0.28923
 N1635 N 0.07113 0.49186 0.29887
 N1636 N 0.03673 0.47039 0.33546
 C1637 C 0.02180 0.47201 0.36290
 C1638 C 0.02538 0.49822 0.38145
 N1639 N 0.04253 0.52191 0.37065
 H1640 H 0.10183 0.56293 0.29930
 H1641 H 0.00880 0.45252 0.37083
 C1642 C 0.56192 0.00055 -0.17640
 C1643 C 0.57925 0.01581 -0.15342
 N1644 N 0.60514 0.03227 -0.16057
 C1645 C 0.61496 0.03397 -0.18971
 C1646 C 0.59805 0.01852 -0.21335
 N1647 N 0.57180 0.00200 -0.20576
 N1648 N 0.53631 -0.01644 -0.16870
 C1649 C 0.52737 -0.01878 -0.13905
 C1650 C 0.54507 -0.00365 -0.11594
 N1651 N 0.57051 0.01333 -0.12405
 H1652 H 0.63674 0.04610 -0.19391
 H1653 H 0.50679 -0.03226 -0.13363
 C1654 C 0.66675 0.60963 -0.01941
 C1655 C 0.67283 0.57862 -0.02690
 N1656 N 0.70364 0.56861 -0.03161
 C1657 C 0.72916 0.58756 -0.02747
 C1658 C 0.72235 0.61860 -0.01791
 N1659 N 0.69156 0.62870 -0.01436
 N1660 N 0.63604 0.62011 -0.01664
 C1661 C 0.61094 0.60106 -0.02058
 C1662 C 0.61671 0.56988 -0.02685
 N1663 N 0.64763 0.55924 -0.02986
 H1664 H 0.75531 0.58015 -0.04250
 H1665 H 0.58669 0.60986 -0.01735
 C1666 C 0.18909 1.08161 0.47022
 C1667 C 0.16127 1.09818 0.47835
 N1668 N 0.16388 1.12658 0.49060
 C1669 C 0.19307 1.13920 0.49543
 C1670 C 0.22156 1.12252 0.48835
 N1671 N 0.21855 1.09397 0.47563
 N1672 N 0.18612 1.05308 0.45789
 C1673 C 0.15668 1.04025 0.45392
 C1674 C 0.12895 1.05651 0.46307
 N1675 N 0.13209 1.08512 0.47511
 H1676 H 0.19411 1.16199 0.50526
 H1677 H 0.15504 1.01707 0.44516
 C1678 C 0.18656 -0.10797 1.02429
 C1679 C 0.17908 -0.09077 0.99810
 N1680 N 0.20018 -0.09038 0.97511
 C1681 C 0.22841 -0.10666 0.97687
 C1682 C 0.23607 -0.12487 1.00267
 N1683 N 0.21480 -0.12461 1.02604
 N1684 N 0.16519 -0.10799 1.04729
 C1685 C 0.13661 -0.09190 1.04509
 C1686 C 0.12877 -0.07513 1.01849
 N1687 N 0.15054 -0.07508 0.99578
 H1688 H 0.24477 -0.10569 0.95814
 H1689 H 0.11990 -0.09283 1.06354
 C1690 C 0.67211 0.38344 0.51923
 C1691 C 0.67147 0.41141 0.50359
 N1692 N 0.69770 0.41974 0.48780
 C1693 C 0.72504 0.40167 0.48673
 C1694 C 0.72419 0.37201 0.50097
 N1695 N 0.69835 0.36440 0.51764
 N1696 N 0.64600 0.37534 0.53512
 C1697 C 0.61880 0.39339 0.53537
 C1698 C 0.61712 0.42047 0.51817
 N1699 N 0.64379 0.42885 0.50286
 H1700 H 0.74417 0.40810 0.46415
 H1701 H 0.59816 0.38587 0.54758
 C1702 C -0.16578 0.39408 0.49824
 C1703 C -0.17605 0.42317 0.48757
 N1704 N -0.20776 0.42788 0.47941
 C1705 C -0.23018 0.40552 0.48253
 C1706 C -0.21899 0.37638 0.49451
 N1707 N -0.18740 0.37174 0.50209
 N1708 N -0.13417 0.38848 0.50463
 C1709 C -0.11209 0.41047 0.50106
 C1710 C -0.12180 0.43986 0.49109
 N1711 N -0.15381 0.44573 0.48461
 H1712 H -0.08710 0.40532 0.50692
 C1713 C 0.34193 -0.09810 -0.01770
 C1714 C 0.34469 -0.07743 0.00674
 N1715 N 0.32205 -0.07690 0.02843
 C1716 C 0.29713 -0.09657 0.02723
 C1717 C 0.29492 -0.11868 0.00365
 N1718 N 0.31730 -0.11822 -0.01867
 N1719 N 0.36466 -0.09848 -0.03943
 C1720 C 0.39025 -0.07949 -0.03757
 C1721 C 0.39373 -0.05938 -0.01251
 N1722 N 0.37051 -0.05886 0.00892
 H1723 H 0.27976 -0.09583 0.04517
 H1724 H 0.40821 -0.08081 -0.05496
 C1725 C 0.32995 1.09139 0.51999
 C1726 C 0.33713 1.07454 0.49380
 N1727 N 0.31680 1.07629 0.46908
 C1728 C 0.28972 1.09452 0.46920
 C1729 C 0.28262 1.11244 0.49517
 N1730 N 0.30327 1.10996 0.51995
 N1731 N 0.35055 1.09003 0.54457
 C1732 C 0.37842 1.07292 0.54393
 C1733 C 0.38634 1.05675 0.51726
 N1734 N 0.36512 1.05789 0.49295
 H1735 H 0.27469 1.09613 0.44877
 H1736 H 0.39466 1.07286 0.56359
 C1737 C -0.17545 0.59428 1.02280
 C1738 C -0.17790 0.56648 1.00670
 N1739 N -0.20333 0.56211 0.98709
 C1740 C -0.22670 0.58422 0.98229
 C1741 C -0.22188 0.61368 0.99656
 N1742 N -0.19739 0.61730 1.01739
 N1743 N -0.15017 0.59838 1.04250
 C1744 C -0.12635 0.57661 1.04583
 C1745 C -0.12711 0.54993 1.02772
 N1746 N -0.15325 0.54542 1.00886
 H1747 H -0.10578 0.58124 1.06061
 C1748 C 0.01352 0.68140 0.59518
 C1749 C -0.00044 0.67916 0.56590
 N1750 N -0.01421 0.70424 0.55251
 C1751 C -0.01572 0.73136 0.56768
 C1752 C -0.00359 0.73318 0.59801
 N1753 N 0.01121 0.70802 0.61043
 N1754 N 0.02669 0.65634 0.60905
 C1755 C 0.02553 0.62863 0.59519
 C1756 C 0.00976 0.62606 0.56662
 N1757 N -0.00225 0.65148 0.55233
 H1758 H -0.02799 0.75062 0.55674
 H1759 H 0.03566 0.60877 0.60696
 C1760 C 0.51815 0.18788 0.08473
 C1761 C 0.49257 0.18113 0.06455
 N1762 N 0.46781 0.20168 0.06067
 C1763 C 0.46693 0.22819 0.07710
 C1764 C 0.49154 0.23388 0.09895
 N1765 N 0.51681 0.21372 0.10140
 N1766 N 0.54246 0.16726 0.08963
 C1767 C 0.54179 0.13940 0.07606
 C1768 C 0.51528 0.13181 0.05728
 N1769 N 0.49162 0.15310 0.05125
 H1770 H 0.44639 0.24375 0.07458
 H1771 H 0.56124 0.12303 0.08072
 C1772 C 0.01366 0.15267 0.90786
 C1773 C -0.00899 0.14978 0.93068
 N1774 N -0.02350 0.17517 0.94248
 C1775 C -0.01608 0.20348 0.93254
 C1776 C 0.00816 0.20655 0.91095
 N1777 N 0.02175 0.18075 0.89887
 N1778 N 0.02678 0.12740 0.89456
 C1779 C 0.01886 0.09909 0.90381
 C1780 C -0.00232 0.09629 0.92784
 N1781 N -0.01588 0.12160 0.94079
 H1782 H -0.02962 0.22322 0.94068
 H1783 H 0.03057 0.07907 0.89394
 C1784 C 0.52368 0.66938 0.43115
 C1785 C 0.49472 0.66339 0.44548
 N1786 N 0.47132 0.68546 0.44686
 C1787 C 0.47526 0.71302 0.43351
 C1788 C 0.50353 0.71821 0.41745
 N1789 N 0.52704 0.69625 0.41730
 N1790 N 0.54722 0.64757 0.42950
 C1791 C 0.54278 0.61950 0.44119
 C1792 C 0.51337 0.61324 0.45422
 N1793 N 0.49001 0.63518 0.45656
 H1794 H 0.45597 0.73011 0.43398
 H1795 H 0.56164 0.60204 0.43969
 C1796 C 0.51689 0.82831 0.40724
 C1797 C 0.51671 0.83183 0.43892
 N1798 N 0.51291 0.80726 0.45707
 C1799 C 0.50904 0.77897 0.44484
 C1800 C 0.50833 0.77546 0.41290
 N1801 N 0.51247 0.80041 0.39511
 N1802 N 0.52111 0.85287 0.38907
 C1803 C 0.52438 0.88123 0.40138
 C1804 C 0.52264 0.88479 0.43303
 N1805 N 0.51926 0.85999 0.45102
 H1806 H 0.50690 0.75977 0.46001
 H1807 H 0.52667 0.90081 0.38661
 C1808 C 0.01504 0.31903 0.91158
 C1809 C 0.01384 0.32030 0.94340
 N1810 N 0.01555 0.29394 0.95974
 C1811 C 0.01697 0.26620 0.94546
 C1812 C 0.01519 0.26498 0.91337
 N1813 N 0.01555 0.29165 0.89757
 N1814 N 0.01414 0.34511 0.89500
 C1815 C 0.01146 0.37274 0.90894
 C1816 C 0.00882 0.37405 0.94071
 N1817 N 0.01039 0.34783 0.95732
 H1818 H 0.01910 0.24570 0.95911
 H1819 H 0.01040 0.39336 0.89528
 C1820 C 0.49669 0.32114 0.06566
 C1821 C 0.49396 0.34747 0.08403
 N1822 N 0.48867 0.34495 0.11412
 C1823 C 0.48590 0.31703 0.12684
 C1824 C 0.48781 0.29041 0.10845
 N1825 N 0.49348 0.29329 0.07825
 N1826 N 0.50333 0.32381 0.03573
 C1827 C 0.50723 0.35185 0.02332
 C1828 C 0.50391 0.37812 0.04174
 N1829 N 0.49733 0.37525 0.07160
 H1830 H 0.48287 0.31550 0.15119
 H1831 H 0.51221 0.35362 -0.00067
 C1832 C 0.00932 0.82054 0.56398
 C1833 C -0.00917 0.84565 0.57416
 N1834 N -0.02840 0.84282 0.59828
 C1835 C -0.03023 0.81564 0.61269
 C1836 C -0.01235 0.79003 0.60205
 N1837 N 0.00758 0.79354 0.57836
 N1838 N 0.02895 0.82357 0.54009
 C1839 C 0.03081 0.85089 0.52578
 C1840 C 0.01224 0.87600 0.53611
 N1841 N -0.00725 0.87271 0.56003
 H1842 H -0.04510 0.81431 0.63245
 H1843 H 0.04659 0.85292 0.50672
 C1844 C 0.23169 0.31654 0.06839
 C1845 C 0.26038 0.30141 0.07779
 N1846 N 0.28636 0.30264 0.05971
 C1847 C 0.28521 0.31920 0.03338
 C1848 C 0.25722 0.33664 0.02527
 N1849 N 0.23091 0.33370 0.04276
 N1850 N 0.20548 0.31538 0.08589
 C1851 C 0.20688 0.30072 0.11302
 C1852 C 0.23604 0.28712 0.12372
 N1853 N 0.26218 0.28725 0.10550
 H1854 H 0.30631 0.31970 0.01952
 H1855 H 0.18570 0.30092 0.12685
 C1856 C 0.73795 0.82048 0.56821
 C1857 C 0.76434 0.80081 0.57527
 N1858 N 0.78697 0.79578 0.55389
 C1859 C 0.78500 0.81039 0.52647
 C1860 C 0.75978 0.83193 0.52034
 N1861 N 0.73654 0.83567 0.54136
 N1862 N 0.71531 0.82597 0.58917
 C1863 C 0.71826 0.81360 0.61732
 C1864 C 0.74556 0.79536 0.62548
 N1865 N 0.76782 0.78873 0.60391
 H1866 H 0.80394 0.80669 0.51033
 H1867 H 0.69977 0.81879 0.63359
 C1868 C 0.22913 0.69585 0.56668
 C1869 C 0.25879 0.69696 0.58240
 N1870 N 0.28475 0.68203 0.57106
 C1871 C 0.28235 0.66501 0.54519
 C1872 C 0.25208 0.66147 0.53020
 N1873 N 0.22639 0.67814 0.54103
 N1874 N 0.20330 0.71131 0.57826
 C1875 C 0.20572 0.72699 0.60528
 C1876 C 0.23513 0.72652 0.62182
 N1877 N 0.26093 0.71168 0.60960
 H1878 H 0.30406 0.65420 0.53688
 H1879 H 0.18453 0.73796 0.61464
 C1880 C 0.75093 0.19599 0.06652
 C1881 C 0.77601 0.18890 0.08730
 N1882 N 0.79912 0.16799 0.07966
 C1883 C 0.79777 0.15289 0.05250
 C1884 C 0.77145 0.15826 0.03215
 N1885 N 0.74903 0.18034 0.03966
 N1886 N 0.72754 0.21663 0.07457
 C1887 C 0.72765 0.22981 0.10286
 C1888 C 0.75177 0.22124 0.12436
 N1889 N 0.77559 0.20128 0.11568
 H1890 H 0.81618 0.13573 0.04781
 H1891 H 0.70816 0.24532 0.10904
 C1892 C 0.77012 0.19587 0.94282
 C1893 C 0.75420 0.18105 0.91868
 N1894 N 0.74031 0.15375 0.92318
 C1895 C 0.74179 0.14017 0.95085
 C1896 C 0.75787 0.15452 0.97554
 N1897 N 0.77186 0.18220 0.97073
 N1898 N 0.78460 0.22302 0.93749
 C1899 C 0.78405 0.23574 0.90901
 C1900 C 0.76859 0.22032 0.88472
 N1901 N 0.75396 0.19349 0.89062
 H1902 H 0.73140 0.11782 0.95327
 H1903 H 0.79603 0.25710 0.90529
 C1904 C 0.26709 0.69602 0.43872
 C1905 C 0.23766 0.69841 0.42265
 N1906 N 0.21165 0.68429 0.43332
 C1907 C 0.21381 0.66684 0.45882
 C1908 C 0.24390 0.66199 0.47409
 N1909 N 0.26959 0.67789 0.46398
 N1910 N 0.29300 0.71060 0.42781
 C1911 C 0.29091 0.72660 0.40109
 C1912 C 0.26177 0.72739 0.38410
 N1913 N 0.23586 0.71344 0.39570
 H1914 H 0.19208 0.65674 0.46664
 H1915 H 0.31222 0.73673 0.39221
 C1916 C 0.74286 0.80335 0.42700
 C1917 C 0.75347 0.82128 0.40307
 N1918 N 0.76850 0.84784 0.40902
 C1919 C 0.77326 0.85774 0.43799
 C1920 C 0.76265 0.84020 0.46260
 N1921 N 0.74733 0.81332 0.45631
 N1922 N 0.72733 0.77685 0.42033
 C1923 C 0.72211 0.76761 0.39080
 C1924 C 0.73260 0.78595 0.36690
 N1925 N 0.74807 0.81224 0.37401
 H1926 H 0.78396 0.87987 0.44160
 H1927 H 0.71002 0.74633 0.38609
 C1928 C 0.23224 0.30862 0.93024
 C1929 C 0.26091 0.30718 0.91422
 N1930 N 0.28786 0.31942 0.92653
 C1931 C 0.28730 0.33436 0.95366
 C1932 C 0.25794 0.33864 0.96888
 N1933 N 0.23137 0.32430 0.95715
 N1934 N 0.20543 0.29569 0.91776
 C1935 C 0.20595 0.28212 0.88963
 C1936 C 0.23435 0.28234 0.87300
 N1937 N 0.26114 0.29460 0.88601
 H1938 H 0.30958 0.34337 0.96273
 H1939 H 0.18416 0.27273 0.87978
 C1940 C 0.83639 0.43107 0.78036
 C1941 C 0.81530 0.42375 0.75619
 N1942 N 0.81019 0.44419 0.73324
 C1943 C 0.82574 0.47135 0.73292
 C1944 C 0.84845 0.47847 0.75624
 N1945 N 0.85259 0.45800 0.77977
 N1946 N 0.84135 0.41047 0.80332
 C1947 C 0.82663 0.38273 0.80294
 C1948 C 0.80638 0.37472 0.77808
 N1949 N 0.80120 0.39583 0.75543
 H1950 H 0.82161 0.48672 0.71387
 H1951 H 0.83168 0.36667 0.82124
 C1952 C 0.34101 0.92997 0.27524
 C1953 C 0.32077 0.92279 0.25035
 N1954 N 0.31742 0.94290 0.22693
 C1955 C 0.33372 0.96964 0.22691
 C1956 C 0.35537 0.97678 0.25114
 N1957 N 0.35800 0.95658 0.27506
 N1958 N 0.34391 0.90976 0.29878
 C1959 C 0.32789 0.88266 0.29837
 C1960 C 0.30830 0.87483 0.27293
 N1961 N 0.30533 0.89549 0.24960
 H1962 H 0.33071 0.98486 0.20762
 H1963 H 0.33125 0.86696 0.31724
 C1964 C 0.14450 0.92459 0.73703
 C1965 C 0.17767 0.92861 0.73366
 N1966 N 0.18881 0.95767 0.73024
 C1967 C 0.16889 0.98324 0.73150
 C1968 C 0.13536 0.97832 0.73694
 N1969 N 0.12430 0.94935 0.73902
 N1970 N 0.13281 0.89586 0.73796
 C1971 C 0.15254 0.87073 0.73587
 C1972 C 0.18579 0.87416 0.73325
 N1973 N 0.19778 0.90321 0.73232
 H1974 H 0.17865 1.00698 0.71556
 H1975 H 0.14245 0.84812 0.73724
 C1976 C 0.64667 0.41769 0.23593
 C1977 C 0.67996 0.41818 0.24130
 N1978 N 0.69395 0.44531 0.24797
 C1979 C 0.67628 0.47201 0.24938
 C1980 C 0.64246 0.47187 0.24448
 N1981 N 0.62883 0.44413 0.23846
 N1982 N 0.63263 0.39075 0.22844
 C1983 C 0.65037 0.36416 0.22650
 C1984 C 0.68359 0.36423 0.23311
 N1985 N 0.69760 0.39139 0.24056
 H1986 H 0.68856 0.49287 0.25528
 H1987 H 0.63842 0.34290 0.22127
 C1988 C 0.65644 0.57880 0.26738
 C1989 C 0.67176 0.58591 0.24039
 N1990 N 0.67160 0.56534 0.21703
 C1991 C 0.65655 0.53805 0.21928
 C1992 C 0.64043 0.53079 0.24612
 N1993 N 0.64104 0.55168 0.26956
 N1994 N 0.65654 0.59947 0.29071
 C1995 C 0.67101 0.62706 0.28818
 C1996 C 0.68590 0.63467 0.26088
 N1997 N 0.68590 0.61360 0.23768
 H1998 H 0.65652 0.52234 0.20010
 H1999 H 0.67030 0.64310 0.30707
 C2000 C 0.15157 0.08040 0.76743
 C2001 C 0.18227 0.07733 0.75510
 N2002 N 0.19084 0.05048 0.74085
 C2003 C 0.17021 0.02648 0.73748
 C2004 C 0.13768 0.03191 0.74715
 N2005 N 0.12993 0.05791 0.76291
 N2006 N 0.14304 0.10679 0.78199
 C2007 C 0.16316 0.13091 0.78379
 C2008 C 0.19280 0.12932 0.76914
 N2009 N 0.20182 0.10222 0.75534
 H2010 H 0.15505 0.15192 0.79473
 C2011 C 0.33780 0.08328 0.22473
 C2012 C 0.31477 0.08776 0.24714
 N2013 N 0.31001 0.06514 0.26750
 C2014 C 0.32769 0.03847 0.26703
 C2015 C 0.35228 0.03407 0.24566
 N2016 N 0.35622 0.05681 0.22464
 N2017 N 0.34224 0.10611 0.20429
 C2018 C 0.32508 0.13325 0.20554
 C2019 C 0.30282 0.13833 0.22881
 N2020 N 0.29827 0.11508 0.24889
 H2021 H 0.32381 0.02142 0.28428
 H2022 H 0.32961 0.15106 0.18924
 C2023 C 0.83365 0.58478 0.72702
 C2024 C 0.80982 0.58990 0.74854
 N2025 N 0.80420 0.56779 0.76922
 C2026 C 0.82166 0.54098 0.76986
 C2027 C 0.84686 0.53583 0.74927
 N2028 N 0.85176 0.55811 0.72798
 N2029 N 0.83909 0.60717 0.70637
 C2030 C 0.82220 0.63452 0.70659
 C2031 C 0.79904 0.64024 0.72892
 N2032 N 0.79349 0.61738 0.74921
 H2033 H 0.81697 0.52432 0.78727
 H2034 H 0.82766 0.65200 0.69024
 C2035 C 0.91535 0.76583 0.15057
 C2036 C 0.91096 0.74597 0.17501
 N2037 N 0.93401 0.72480 0.18273
 C2038 C 0.96134 0.72234 0.16673
 C2039 C 0.96564 0.74184 0.14172
 N2040 N 0.94252 0.76337 0.13470
 N2041 N 0.89198 0.78660 0.14245
 C2042 C 0.86392 0.78797 0.15746
 C2043 C 0.85930 0.76756 0.18150
 N2044 N 0.88310 0.74732 0.18988
 H2045 H 0.97950 0.70528 0.17327
 H2046 H 0.84532 0.80437 0.15035
 C2047 C 0.43976 0.25195 0.67705
 C2048 C 0.41206 0.25039 0.65827
 N2049 N 0.41472 0.24659 0.62784
 C2050 C 0.44403 0.24488 0.61518
 C2051 C 0.47206 0.24788 0.63374
 N2052 N 0.46891 0.25074 0.66438
 N2053 N 0.43711 0.25457 0.70767
 C2054 C 0.40775 0.25559 0.72037
 C2055 C 0.38008 0.25436 0.70145
 N2056 N 0.38289 0.25184 0.67086
 H2057 H 0.44548 0.24141 0.59082
 H2058 H 0.40601 0.25733 0.74489
 C2059 C 0.42280 0.73560 0.85234
 C2060 C 0.41717 0.76057 0.83283
 N2061 N 0.43754 0.78440 0.83351
 C2062 C 0.46343 0.78433 0.85298
 C2063 C 0.46927 0.75916 0.87255
 N2064 N 0.44845 0.73558 0.87157
 N2065 N 0.40209 0.71211 0.85243
 C2066 C 0.37544 0.71272 0.83408
 C2067 C 0.36945 0.73798 0.81491
 N2068 N 0.39063 0.76119 0.81449
 H2069 H 0.47922 0.80372 0.85340
 H2070 H 0.35887 0.69397 0.83484
 C2071 C 0.91685 0.23326 0.36454
 C2072 C 0.91344 0.25344 0.33990
 N2073 N 0.93661 0.27381 0.33448
 C2074 C 0.96324 0.27505 0.35280
 C2075 C 0.96692 0.25486 0.37777
 N2076 N 0.94332 0.23452 0.38283
 N2077 N 0.89323 0.21337 0.37035
 C2078 C 0.86599 0.21303 0.35265
 C2079 C 0.86243 0.23362 0.32823
 N2080 N 0.88640 0.25314 0.32240
 H2081 H 0.98107 0.29200 0.34828
 H2082 H 0.84728 0.19720 0.35787
 C2083 C 0.05664 0.24822 0.34003
 C2084 C 0.08054 0.26848 0.34960
 N2085 N 0.07658 0.28565 0.37504
 C2086 C 0.04979 0.28327 0.39169
 C2087 C 0.02581 0.26239 0.38253
 N2088 N 0.03018 0.24559 0.35669
 N2089 N 0.06053 0.23094 0.31461
 C2090 C 0.08771 0.23275 0.29845
 C2091 C 0.11207 0.25252 0.30851
 N2092 N 0.10775 0.27008 0.33375
 H2093 H 0.04786 0.29743 0.41177
 H2094 H 0.09047 0.21841 0.27844
 C2095 C 0.55707 0.76294 0.83276
 C2096 C 0.58637 0.76076 0.84921
 N2097 N 0.58668 0.75577 0.87960
 C2098 C 0.55879 0.75358 0.89455
 C2099 C 0.52914 0.75752 0.87849
 N2100 N 0.52927 0.76144 0.84776
 N2101 N 0.55690 0.76688 0.80213
 C2102 C 0.58493 0.76882 0.78719
 C2103 C 0.61415 0.76737 0.80388
 N2104 N 0.61415 0.76329 0.83446
 H2105 H 0.55961 0.74980 0.91890
 H2106 H 0.58444 0.77165 0.76270
 C2107 C 0.58107 0.22456 0.66217
 C2108 C 0.58466 0.24892 0.68288
 N2109 N 0.56129 0.27092 0.68493
 C2110 C 0.53467 0.27008 0.66653
 C2111 C 0.53139 0.24617 0.64493
 N2112 N 0.55470 0.22383 0.64381
 N2113 N 0.60511 0.20339 0.65895
 C2114 C 0.63315 0.20598 0.67504
 C2115 C 0.63714 0.23100 0.69496
 N2116 N 0.61257 0.25154 0.69885
 H2117 H 0.51708 0.28873 0.66753
 H2118 H 0.65228 0.18910 0.67184
 C2119 C 0.07732 0.72474 0.15844
 C2120 C 0.07953 0.74847 0.18008
 N2121 N 0.05408 0.76778 0.18440
 C2122 C 0.02660 0.76478 0.16751
 C2123 C 0.02460 0.74147 0.14512
 N2124 N 0.05007 0.72184 0.14164
 N2125 N 0.10300 0.70597 0.15336
 C2126 C 0.13118 0.71018 0.16871
 C2127 C 0.13362 0.73433 0.18997
 N2128 N 0.10760 0.75268 0.19542
 H2129 H 0.00686 0.78099 0.17075
 H2130 H 0.15147 0.69505 0.16407
   
