data_POSCAR
  _audit_creation_date              2014-09-24
  _audit_creation_method            'ToBaCCo'
  _symmetry_space_group_name_H-M    'P1'
  _symmetry_Int_Tables_number       1
  _symmetry_cell_setting            triclinic
  loop_
  _symmetry_equiv_pos_as_xyz
 x,y,z
_cell_length_a 40.8991
_cell_length_b 27.0512
_cell_length_c 28.6627
_cell_angle_alpha 89.957300
_cell_angle_beta 89.953000
_cell_angle_gamma 89.980300
loop_
  _atom_site_label
  _atom_site_type_symbol
  _atom_site_fract_x
  _atom_site_fract_y
  _atom_site_fract_z
C1 C 0.00168 -0.00468 0.15151
 C2 C 0.00062 0.00504 -0.15391
 C3 C -0.07460 -0.08119 0.07195
 C4 C -0.07511 0.07864 0.07230
 C5 C -0.07520 -0.07814 -0.07492
 C6 C 0.07556 -0.07377 -0.07992
 C7 C 0.07576 0.07852 -0.07463
 C8 C 0.07582 -0.07676 0.07387
 C9 C -0.07557 0.08151 -0.07026
 C10 C 0.07602 0.07431 0.07500
 O11 O -0.04516 -0.08863 -0.08511
 O12 O -0.08421 -0.04589 -0.04425
 O13 O -0.04569 0.09263 -0.08116
 O14 O -0.08404 0.04778 -0.04077
 O15 O 0.04614 0.08456 0.08648
 O16 O 0.08451 0.04393 0.04251
 O17 O 0.00040 0.04635 -0.13150
 O18 O 0.00022 -0.03783 -0.13405
 O19 O 0.00052 0.03809 0.13173
 O20 O 0.00160 -0.04621 0.12957
 O21 O 0.04543 -0.08385 -0.08985
 O22 O 0.08452 -0.04436 -0.04669
 O23 O -0.04453 -0.09197 0.08147
 O24 O -0.08375 -0.04883 0.04133
 O25 O 0.04586 -0.08812 0.08339
 O26 O 0.08475 -0.04580 0.04198
 O27 O 0.04573 0.08933 -0.08513
 O28 O 0.08418 0.04607 -0.04382
 O29 O 0.00152 0.13650 0.07343
 O30 O 0.00147 0.14084 -0.06643
 O31 O 0.00141 -0.13627 -0.07575
 O32 O 0.00213 -0.14078 0.06388
 O33 O -0.02798 -0.06559 -0.00252
 O34 O -0.02811 0.06477 0.00081
 O35 O 0.02821 -0.06502 -0.00289
 O36 O -0.02927 -0.00179 0.06121
 O37 O -0.08378 0.04567 0.04220
 O38 O -0.04515 0.08937 0.08294
 O39 O 0.03030 -0.00176 0.06110
 O40 O 0.03004 0.00187 -0.06372
 O41 O 0.02810 0.06448 0.00042
 O42 O -0.02960 0.00174 -0.06280
 Zr43 Zr 0.00036 0.05964 0.06111
 Zr44 Zr 0.00015 -0.05944 -0.06324
 Zr45 Zr -0.05573 -0.00061 -0.00058
 Zr46 Zr 0.00048 -0.06305 0.05795
 Zr47 Zr 0.00007 0.06316 -0.06000
 Zr48 Zr 0.05615 -0.00040 -0.00146
 H49 H 0.04161 -0.09549 -0.00359
 H50 H -0.04368 -0.00216 0.08895
 H51 H 0.04134 0.09509 0.00098
 H52 H -0.04417 0.00247 -0.09033
 H53 H 0.00403 0.15196 0.04236
 H54 H -0.00781 0.15378 -0.03699
 H55 H -0.00822 -0.15357 0.03513
 H56 H 0.00310 -0.15183 -0.04462
 C57 C 0.25114 0.25519 0.09676
 C58 C 0.24980 0.24345 0.40202
 C59 C 0.17443 0.33120 0.17897
 C60 C 0.17490 0.17144 0.17506
 C61 C 0.17447 0.32737 0.32349
 C62 C 0.32518 0.32360 0.32689
 C63 C 0.32493 0.17034 0.32323
 C64 C 0.32556 0.32808 0.17716
 C65 C 0.17405 0.16755 0.31933
 C66 C 0.32539 0.17475 0.17302
 O67 O 0.20451 0.33760 0.33374
 O68 O 0.16542 0.29516 0.29282
 O69 O 0.20392 0.15606 0.32972
 O70 O 0.16557 0.20125 0.28983
 O71 O 0.29543 0.16512 0.16200
 O72 O 0.33429 0.20485 0.20556
 O73 O 0.24927 0.20200 0.38000
 O74 O 0.25038 0.28628 0.38234
 O75 O 0.25072 0.21230 0.11653
 O76 O 0.25073 0.29646 0.11923
 O77 O 0.29515 0.33380 0.33721
 O78 O 0.33420 0.29295 0.29484
 O79 O 0.20440 0.34264 0.16887
 O80 O 0.16580 0.29761 0.20853
 O81 O 0.29570 0.33913 0.16634
 O82 O 0.33406 0.29592 0.20810
 O83 O 0.29500 0.15905 0.33342
 O84 O 0.33360 0.20256 0.29240
 O85 O 0.25102 0.11380 0.17399
 O86 O 0.25100 0.10787 0.31415
 O87 O 0.25069 0.38492 0.32534
 O88 O 0.25145 0.39073 0.18478
 O89 O 0.22156 0.31457 0.25142
 O90 O 0.22151 0.18423 0.24743
 O91 O 0.27769 0.31396 0.25157
 O92 O 0.22028 0.25171 0.18740
 O93 O 0.16570 0.20336 0.20594
 O94 O 0.20495 0.16139 0.16478
 O95 O 0.28000 0.25172 0.18725
 O96 O 0.27961 0.24685 0.31227
 O97 O 0.27760 0.18461 0.24782
 O98 O 0.21997 0.24713 0.31142
 Zr99 Zr 0.25004 0.19050 0.18719
 Zr100 Zr 0.24978 0.30828 0.31186
 Zr101 Zr 0.19386 0.24943 0.24933
 Zr102 Zr 0.24996 0.31302 0.19081
 Zr103 Zr 0.24955 0.18561 0.30834
 Zr104 Zr 0.30570 0.24920 0.24992
 H105 H 0.29090 0.34459 0.25250
 H106 H 0.20587 0.25241 0.15970
 H107 H 0.29078 0.15393 0.24705
 H108 H 0.20535 0.24649 0.33892
 H109 H 0.25239 0.09789 0.20500
 H110 H 0.24168 0.09519 0.28466
 H111 H 0.24225 0.40350 0.21435
 H112 H 0.25210 0.40094 0.29438
 C113 C 0.49965 -0.00561 0.15256
 C114 C 0.49808 0.00452 -0.15201
 C115 C 0.57589 0.07795 0.07297
 C116 C 0.57712 -0.07966 0.07140
 C117 C 0.57548 0.08157 -0.07145
 C118 C 0.42420 0.07738 -0.07198
 C119 C 0.42484 -0.07586 -0.07618
 C120 C 0.42478 0.07427 0.07657
 C121 C 0.57568 -0.07745 -0.07587
 C122 C 0.42576 -0.07910 0.07651
 O123 O 0.54535 0.09226 -0.08169
 O124 O 0.58406 0.04798 -0.04180
 O125 O 0.54549 -0.08805 -0.08521
 O126 O 0.58466 -0.04555 -0.04475
 O127 O 0.45601 -0.08993 0.08541
 O128 O 0.41660 -0.04795 0.04475
 O129 O 0.49875 -0.03834 -0.13238
 O130 O 0.49850 0.04598 -0.13006
 O131 O 0.50031 -0.04713 0.13070
 O132 O 0.50036 0.03721 0.13285
 O133 O 0.45401 0.08913 -0.08251
 O134 O 0.41592 0.04475 -0.04126
 O135 O 0.54597 0.08863 0.08397
 O136 O 0.58443 0.04583 0.04197
 O137 O 0.45470 0.08445 0.08786
 O138 O 0.41622 0.04304 0.04488
 O139 O 0.45484 -0.08587 -0.08678
 O140 O 0.41590 -0.04560 -0.04373
 O141 O 0.50033 -0.14165 0.06513
 O142 O 0.49975 -0.13684 -0.07441
 O143 O 0.49834 0.14054 -0.06476
 O144 O 0.49936 0.13584 0.07499
 O145 O 0.52847 0.06491 0.00154
 O146 O 0.52907 -0.06580 -0.00191
 O147 O 0.47227 0.06360 0.00219
 O148 O 0.53036 -0.00204 0.06170
 O149 O 0.58506 -0.04694 0.04053
 O150 O 0.54721 -0.09192 0.08143
 O151 O 0.47090 -0.00287 0.06299
 O152 O 0.47011 0.00110 -0.06172
 O153 O 0.47280 -0.06589 -0.00093
 O154 O 0.52960 0.00160 -0.06228
 Zr155 Zr 0.50120 -0.06390 0.05921
 Zr156 Zr 0.49985 0.06282 -0.05870
 Zr157 Zr 0.55622 -0.00023 -0.00073
 Zr158 Zr 0.50042 0.05903 0.06236
 Zr159 Zr 0.50020 -0.06002 -0.06182
 Zr160 Zr 0.44446 -0.00155 0.00096
 H161 H 0.45897 0.09416 0.00294
 H162 H 0.54489 -0.00230 0.08927
 H163 H 0.45962 -0.09657 -0.00132
 H164 H 0.54387 0.00244 -0.09015
 H165 H 0.51067 -0.15420 0.03624
 H166 H 0.49816 -0.15247 -0.04330
 H167 H 0.49647 0.15141 0.04404
 H168 H 0.50822 0.15333 -0.03568
 C169 C 0.75139 0.25413 0.09791
 C170 C 0.75134 0.24429 0.40240
 C171 C 0.67475 0.33037 0.17883
 C172 C 0.67507 0.17160 0.17560
 C173 C 0.67476 0.32670 0.32466
 C174 C 0.82537 0.32283 0.32804
 C175 C 0.82587 0.17149 0.32463
 C176 C 0.82573 0.32709 0.17637
 C177 C 0.67458 0.16848 0.32131
 C178 C 0.82565 0.17523 0.17283
 O179 O 0.70480 0.33735 0.33452
 O180 O 0.66571 0.29472 0.29377
 O181 O 0.70449 0.15701 0.33171
 O182 O 0.66607 0.20141 0.29105
 O183 O 0.79567 0.16493 0.16253
 O184 O 0.83463 0.20545 0.20525
 O185 O 0.75124 0.20268 0.38064
 O186 O 0.75019 0.28701 0.38259
 O187 O 0.75093 0.21131 0.11762
 O188 O 0.75105 0.29563 0.11982
 O189 O 0.79534 0.33317 0.33819
 O190 O 0.83446 0.29284 0.29547
 O191 O 0.70471 0.34124 0.16823
 O192 O 0.66605 0.29742 0.20902
 O193 O 0.79583 0.33806 0.16573
 O194 O 0.83432 0.29568 0.20796
 O195 O 0.79588 0.15979 0.33453
 O196 O 0.83417 0.20327 0.29310
 O197 O 0.75126 0.11302 0.17582
 O198 O 0.75153 0.10794 0.31489
 O199 O 0.75109 0.38534 0.32450
 O200 O 0.75171 0.39034 0.18553
 O201 O 0.72173 0.31455 0.25173
 O202 O 0.72183 0.18399 0.24853
 O203 O 0.77809 0.31399 0.25180
 O204 O 0.72064 0.25116 0.18823
 O205 O 0.66592 0.20376 0.20628
 O206 O 0.70513 0.16096 0.16577
 O207 O 0.78015 0.25123 0.18791
 O208 O 0.77997 0.24718 0.31250
 O209 O 0.77820 0.18439 0.24864
 O210 O 0.72051 0.24716 0.31197
 Zr211 Zr 0.75032 0.18987 0.18827
 Zr212 Zr 0.75006 0.30850 0.31205
 Zr213 Zr 0.69417 0.24929 0.25004
 Zr214 Zr 0.75022 0.31259 0.19120
 Zr215 Zr 0.75020 0.18570 0.30919
 Zr216 Zr 0.80609 0.24923 0.25026
 H217 H 0.79138 0.34455 0.25260
 H218 H 0.70626 0.25170 0.16051
 H219 H 0.79156 0.15387 0.24795
 H220 H 0.70609 0.24663 0.33969
 H221 H 0.75372 0.09749 0.20686
 H222 H 0.74105 0.09535 0.28616
 H223 H 0.74085 0.40299 0.21398
 H224 H 0.75307 0.40089 0.29340
 C225 C 0.00015 0.49454 0.15213
 C226 C 0.00054 0.50577 -0.15326
 C227 C -0.07529 0.41894 0.07163
 C228 C -0.07599 0.57851 0.07254
 C229 C -0.07544 0.42207 -0.07481
 C230 C 0.07523 0.42727 -0.07850
 C231 C 0.07511 0.57884 -0.07355
 C232 C 0.07513 0.42362 0.07500
 C233 C -0.07595 0.58209 -0.06997
 C234 C 0.07515 0.57537 0.07638
 O235 O -0.04536 0.41173 -0.08488
 O236 O -0.08457 0.45438 -0.04425
 O237 O -0.04605 0.59322 -0.08065
 O238 O -0.08450 0.54821 -0.04067
 O239 O 0.04521 0.58626 0.08697
 O240 O 0.08375 0.54447 0.04436
 O241 O 0.00016 0.54705 -0.13078
 O242 O 0.00015 0.46287 -0.13346
 O243 O 0.00060 0.53748 0.13255
 O244 O -0.00040 0.45319 0.12997
 O245 O 0.04526 0.41711 -0.08905
 O246 O 0.08416 0.45655 -0.04527
 O247 O -0.04525 0.40791 0.08106
 O248 O -0.08440 0.45152 0.04122
 O249 O 0.04512 0.41225 0.08432
 O250 O 0.08413 0.45481 0.04333
 O251 O 0.04519 0.58965 -0.08427
 O252 O 0.08376 0.54703 -0.04237
 O253 O 0.00008 0.63661 0.07503
 O254 O 0.00103 0.64140 -0.06534
 O255 O 0.00132 0.36436 -0.07538
 O256 O 0.00179 0.35940 0.06373
 O257 O -0.02849 0.43477 -0.00228
 O258 O -0.02868 0.56512 0.00151
 O259 O 0.02778 0.43560 -0.00221
 O260 O -0.02996 0.49840 0.06155
 O261 O -0.08454 0.54591 0.04206
 O262 O -0.04609 0.58882 0.08392
 O263 O 0.02960 0.49851 0.06214
 O264 O 0.02967 0.50255 -0.06267
 O265 O 0.02747 0.56506 0.00144
 O266 O -0.02999 0.50224 -0.06245
 Zr267 Zr -0.00036 0.55987 0.06203
 Zr268 Zr -0.00014 0.44115 -0.06272
 Zr269 Zr -0.05626 0.49973 -0.00040
 Zr270 Zr -0.00019 0.43715 0.05832
 Zr271 Zr -0.00041 0.56369 -0.05918
 Zr272 Zr 0.05565 0.50033 -0.00022
 H273 H 0.04122 0.40517 -0.00283
 H274 H -0.04449 0.49792 0.08916
 H275 H 0.04064 0.59574 0.00205
 H276 H -0.04449 0.50298 -0.09006
 H277 H 0.00221 0.65241 0.04406
 H278 H -0.00817 0.65422 -0.03579
 H279 H -0.00877 0.34670 0.03510
 H280 H 0.00338 0.34874 -0.04432
 C281 C 0.25115 0.75521 0.09739
 C282 C 0.25128 0.74536 0.40189
 C283 C 0.17500 0.83216 0.17876
 C284 C 0.17459 0.67229 0.17601
 C285 C 0.17481 0.82878 0.32343
 C286 C 0.32544 0.82407 0.32684
 C287 C 0.32513 0.67087 0.32313
 C288 C 0.32641 0.82817 0.17665
 C289 C 0.17420 0.66893 0.32018
 C290 C 0.32502 0.67523 0.17264
 O291 O 0.20487 0.83912 0.33343
 O292 O 0.16569 0.79644 0.29295
 O293 O 0.20409 0.65771 0.33076
 O294 O 0.16572 0.70241 0.29038
 O295 O 0.29504 0.66554 0.16199
 O296 O 0.33415 0.70512 0.20524
 O297 O 0.25100 0.70378 0.38011
 O298 O 0.25021 0.78808 0.38210
 O299 O 0.25037 0.71242 0.11709
 O300 O 0.25117 0.79670 0.11930
 O301 O 0.29545 0.83449 0.33709
 O302 O 0.33444 0.79343 0.29477
 O303 O 0.20498 0.84325 0.16842
 O304 O 0.16627 0.79899 0.20869
 O305 O 0.29649 0.83942 0.16589
 O306 O 0.33460 0.79598 0.20780
 O307 O 0.29519 0.65965 0.33333
 O308 O 0.33381 0.70309 0.29232
 O309 O 0.25085 0.61424 0.17478
 O310 O 0.25070 0.60901 0.31498
 O311 O 0.25123 0.88622 0.32449
 O312 O 0.25218 0.89139 0.18445
 O313 O 0.22191 0.81562 0.25118
 O314 O 0.22148 0.68518 0.24799
 O315 O 0.27816 0.81473 0.25135
 O316 O 0.22048 0.75251 0.18769
 O317 O 0.16556 0.70516 0.20608
 O318 O 0.20461 0.66166 0.16599
 O319 O 0.28012 0.75203 0.18731
 O320 O 0.27983 0.74792 0.31213
 O321 O 0.27768 0.68525 0.24809
 O322 O 0.22023 0.74836 0.31165
 Zr323 Zr 0.24989 0.69100 0.18770
 Zr324 Zr 0.25007 0.80947 0.31157
 Zr325 Zr 0.19405 0.75058 0.24962
 Zr326 Zr 0.25047 0.81370 0.19065
 Zr327 Zr 0.24975 0.68672 0.30868
 Zr328 Zr 0.30594 0.74975 0.24981
 H329 H 0.29150 0.84524 0.25213
 H330 H 0.20602 0.75306 0.16004
 H331 H 0.29078 0.65449 0.24729
 H332 H 0.20573 0.74786 0.33930
 H333 H 0.25215 0.59845 0.20585
 H334 H 0.24140 0.59625 0.28551
 H335 H 0.24252 0.90431 0.21366
 H336 H 0.25310 0.90197 0.29346
 C337 C 0.49880 0.49580 0.15249
 C338 C 0.49873 0.50431 -0.15210
 C339 C 0.57461 0.57968 0.07344
 C340 C 0.57545 0.42063 0.07320
 C341 C 0.57516 0.58139 -0.07084
 C342 C 0.42417 0.57800 -0.07327
 C343 C 0.42486 0.42443 -0.07698
 C344 C 0.42372 0.57519 0.07508
 C345 C 0.57546 0.42300 -0.07430
 C346 C 0.42494 0.42234 0.07540
 O347 O 0.54521 0.59233 -0.08137
 O348 O 0.58386 0.54847 -0.04067
 O349 O 0.54545 0.41213 -0.08410
 O350 O 0.58447 0.45499 -0.04340
 O351 O 0.45496 0.41160 0.08514
 O352 O 0.41581 0.45309 0.04342
 O353 O 0.49940 0.46156 -0.13228
 O354 O 0.49889 0.54586 -0.13027
 O355 O 0.49917 0.45430 0.13060
 O356 O 0.49919 0.53860 0.13273
 O357 O 0.45406 0.58967 -0.08341
 O358 O 0.41566 0.54537 -0.04272
 O359 O 0.54454 0.59012 0.08355
 O360 O 0.58381 0.54654 0.04375
 O361 O 0.45354 0.58512 0.08689
 O362 O 0.41527 0.54412 0.04319
 O363 O 0.45494 0.41437 -0.08713
 O364 O 0.41568 0.45499 -0.04493
 O365 O 0.49898 0.35955 0.06519
 O366 O 0.49974 0.36347 -0.07367
 O367 O 0.49843 0.64080 -0.06540
 O368 O 0.49795 0.63674 0.07442
 O369 O 0.52795 0.56535 0.00172
 O370 O 0.52856 0.43489 -0.00119
 O371 O 0.47169 0.56435 0.00145
 O372 O 0.52940 0.49895 0.06216
 O373 O 0.58436 0.45275 0.04225
 O374 O 0.54544 0.40935 0.08280
 O375 O 0.46977 0.49821 0.06244
 O376 O 0.46997 0.50149 -0.06235
 O377 O 0.47218 0.43494 -0.00121
 O378 O 0.52956 0.50191 -0.06156
 Zr379 Zr 0.50010 0.43730 0.05926
 Zr380 Zr 0.49971 0.56311 -0.05894
 Zr381 Zr 0.55595 0.50028 0.00040
 Zr382 Zr 0.49937 0.55991 0.06201
 Zr383 Zr 0.50010 0.44039 -0.06157
 Zr384 Zr 0.44388 0.49929 -0.00005
 H385 H 0.45844 0.59497 0.00191
 H386 H 0.54378 0.49887 0.08989
 H387 H 0.45902 0.40423 -0.00163
 H388 H 0.54394 0.50260 -0.08932
 H389 H 0.50993 0.34691 0.03680
 H390 H 0.49730 0.34806 -0.04257
 H391 H 0.49556 0.65224 0.04335
 H392 H 0.50789 0.65371 -0.03608
 C393 C 0.75136 0.75592 0.09745
 C394 C 0.74974 0.74356 0.40192
 C395 C 0.67510 0.83211 0.17695
 C396 C 0.67373 0.67428 0.17499
 C397 C 0.67500 0.82812 0.32515
 C398 C 0.82542 0.82224 0.32788
 C399 C 0.82448 0.67087 0.32413
 C400 C 0.82609 0.82690 0.17648
 C401 C 0.67347 0.67012 0.32026
 C402 C 0.82460 0.67518 0.17216
 O403 O 0.70508 0.83771 0.33561
 O404 O 0.66573 0.79761 0.29308
 O405 O 0.70328 0.65778 0.33012
 O406 O 0.66511 0.70378 0.29053
 O407 O 0.79456 0.66557 0.16152
 O408 O 0.83376 0.70468 0.20505
 O409 O 0.74885 0.70223 0.37978
 O410 O 0.75061 0.78650 0.38244
 O411 O 0.75009 0.71297 0.11687
 O412 O 0.75154 0.79726 0.11964
 O413 O 0.79546 0.83286 0.33812
 O414 O 0.83433 0.79210 0.29531
 O415 O 0.70533 0.84306 0.16808
 O416 O 0.66577 0.79923 0.20697
 O417 O 0.79628 0.83853 0.16596
 O418 O 0.83440 0.79503 0.20784
 O419 O 0.79446 0.65968 0.33403
 O420 O 0.83329 0.70238 0.29276
 O421 O 0.74969 0.61413 0.17442
 O422 O 0.75013 0.60831 0.31298
 O423 O 0.75133 0.88563 0.32474
 O424 O 0.75255 0.89137 0.18582
 O425 O 0.72183 0.81603 0.25159
 O426 O 0.72067 0.68550 0.24754
 O427 O 0.77819 0.81421 0.25184
 O428 O 0.72029 0.75286 0.18767
 O429 O 0.66510 0.70647 0.20588
 O430 O 0.70365 0.66258 0.16504
 O431 O 0.77976 0.75166 0.18759
 O432 O 0.77942 0.74695 0.31216
 O433 O 0.77716 0.68468 0.24778
 O434 O 0.71993 0.74818 0.31121
 Zr435 Zr 0.74929 0.69090 0.18738
 Zr436 Zr 0.75005 0.80885 0.31202
 Zr437 Zr 0.69360 0.75142 0.24934
 Zr438 Zr 0.75046 0.81362 0.19116
 Zr439 Zr 0.74907 0.68614 0.30817
 Zr440 Zr 0.80565 0.74898 0.24998
 H441 H 0.79171 0.84453 0.25275
 H442 H 0.70605 0.75363 0.15982
 H443 H 0.79026 0.65392 0.24705
 H444 H 0.70545 0.74766 0.33885
 H445 H 0.75267 0.59834 0.20525
 H446 H 0.73935 0.59616 0.28430
 H447 H 0.74179 0.90407 0.21432
 H448 H 0.75388 0.90125 0.29375
 C449 C 0.00108 -0.00496 0.34731
 C450 C 0.00025 0.00511 0.65234
 C451 C -0.07603 0.07779 0.42558
 C452 C -0.07547 -0.08238 0.42931
 C453 C -0.07621 0.08126 0.56988
 C454 C 0.07478 0.07784 0.57423
 C455 C 0.07510 -0.07331 0.57721
 C456 C 0.07473 0.07409 0.42190
 C457 C -0.07534 -0.07885 0.57319
 C458 C 0.07543 -0.07712 0.42570
 O459 O -0.04634 0.09258 0.58045
 O460 O -0.08469 0.04790 0.54008
 O461 O -0.04531 -0.08921 0.58324
 O462 O -0.08453 -0.04597 0.54322
 O463 O 0.04559 -0.08902 0.41568
 O464 O 0.08386 -0.04533 0.45700
 O465 O -0.00013 -0.03770 0.63258
 O466 O -0.00011 0.04656 0.63015
 O467 O 0.00100 -0.04653 0.36920
 O468 O -0.00031 0.03777 0.36705
 O469 O 0.04484 0.08969 0.58390
 O470 O 0.08346 0.04635 0.54278
 O471 O -0.04593 0.08839 0.41576
 O472 O -0.08502 0.04516 0.45599
 O473 O 0.04472 0.08421 0.41157
 O474 O 0.08382 0.04435 0.45468
 O475 O 0.04513 -0.08365 0.58761
 O476 O 0.08407 -0.04317 0.54469
 O477 O 0.00162 -0.14112 0.43502
 O478 O 0.00122 -0.13581 0.57489
 O479 O 0.00065 0.14128 0.56456
 O480 O 0.00042 0.13607 0.42460
 O481 O -0.02895 0.06516 0.49789
 O482 O -0.02848 -0.06521 0.50142
 O483 O 0.02732 0.06507 0.49798
 O484 O -0.03004 -0.00219 0.43758
 O485 O -0.08420 -0.04896 0.45897
 O486 O -0.04550 -0.09320 0.41874
 O487 O 0.02952 -0.00178 0.43742
 O488 O 0.02942 0.00241 0.56209
 O489 O 0.02774 -0.06451 0.50145
 O490 O -0.03017 0.00196 0.56162
 Zr491 Zr -0.00011 -0.06340 0.44077
 Zr492 Zr -0.00066 0.06356 0.55859
 Zr493 Zr -0.05638 -0.00023 0.49954
 Zr494 Zr -0.00058 0.05932 0.43761
 Zr495 Zr -0.00025 -0.05908 0.56182
 Zr496 Zr 0.05548 0.00046 0.49975
 H497 H 0.04058 0.09567 0.49720
 H498 H -0.04450 -0.00290 0.40993
 H499 H 0.04115 -0.09497 0.50225
 H500 H -0.04470 0.00239 0.58923
 H501 H -0.00803 -0.15390 0.46430
 H502 H 0.00316 -0.15158 0.54390
 H503 H 0.00210 0.15182 0.45562
 H504 H -0.00904 0.15404 0.53532
 C505 C 0.25091 0.25465 0.90311
 C506 C 0.24997 0.24392 0.59788
 C507 C 0.17414 0.17245 0.82556
 C508 C 0.17455 0.33223 0.82021
 C509 C 0.17387 0.16913 0.67925
 C510 C 0.32450 0.17150 0.67521
 C511 C 0.32552 0.32442 0.67447
 C512 C 0.32480 0.17426 0.82790
 C513 C 0.17449 0.32887 0.67755
 C514 C 0.32557 0.32749 0.82312
 O515 O 0.20386 0.15738 0.67011
 O516 O 0.16498 0.20272 0.70872
 O517 O 0.20445 0.33872 0.66608
 O518 O 0.16575 0.29647 0.70819
 O519 O 0.29571 0.33922 0.83338
 O520 O 0.33400 0.29491 0.79253
 O521 O 0.25089 0.28680 0.61749
 O522 O 0.24899 0.20255 0.62005
 O523 O 0.25067 0.29601 0.88080
 O524 O 0.25030 0.21178 0.88348
 O525 O 0.29445 0.16083 0.66558
 O526 O 0.33367 0.20224 0.70711
 O527 O 0.20419 0.16203 0.83578
 O528 O 0.16522 0.20389 0.79401
 O529 O 0.29475 0.16440 0.83834
 O530 O 0.33389 0.20449 0.79544
 O531 O 0.29566 0.33519 0.66346
 O532 O 0.33397 0.29301 0.70615
 O533 O 0.25152 0.39049 0.81570
 O534 O 0.25077 0.38578 0.67488
 O535 O 0.25095 0.10867 0.68581
 O536 O 0.24999 0.11336 0.82540
 O537 O 0.22107 0.18433 0.75246
 O538 O 0.22167 0.31469 0.74861
 O539 O 0.27729 0.18438 0.75220
 O540 O 0.22002 0.25175 0.81256
 O541 O 0.16578 0.29839 0.79106
 O542 O 0.20451 0.34294 0.83080
 O543 O 0.27970 0.25123 0.81286
 O544 O 0.27958 0.24730 0.68792
 O545 O 0.27776 0.31375 0.74857
 O546 O 0.21993 0.24803 0.68852
 Zr547 Zr 0.24996 0.31283 0.80924
 Zr548 Zr 0.24931 0.18639 0.69173
 Zr549 Zr 0.19369 0.24969 0.75058
 Zr550 Zr 0.24952 0.19020 0.81280
 Zr551 Zr 0.24993 0.30904 0.68802
 Zr552 Zr 0.30561 0.24868 0.75034
 H553 H 0.29048 0.15370 0.75273
 H554 H 0.20557 0.25272 0.84024
 H555 H 0.29103 0.34433 0.74795
 H556 H 0.20539 0.24772 0.66096
 H557 H 0.24303 0.40352 0.78582
 H558 H 0.25279 0.40157 0.70585
 H559 H 0.25202 0.09777 0.79434
 H560 H 0.24093 0.09582 0.71481
 C561 C 0.49829 -0.00557 0.34789
 C562 C 0.49844 0.00479 0.65245
 C563 C 0.57560 -0.08093 0.42938
 C564 C 0.57490 0.07741 0.42512
 C565 C 0.57572 -0.07752 0.57328
 C566 C 0.42497 -0.07537 0.57718
 C567 C 0.42402 0.07778 0.57302
 C568 C 0.42467 -0.07960 0.42701
 C569 C 0.57508 0.08083 0.57121
 C570 C 0.42427 0.07361 0.42310
 O571 O 0.54587 -0.08779 0.58487
 O572 O 0.58420 -0.04538 0.54229
 O573 O 0.54515 0.09242 0.58129
 O574 O 0.58368 0.04798 0.54097
 O575 O 0.45422 0.08400 0.41263
 O576 O 0.41538 0.04295 0.45525
 O577 O 0.49876 0.04626 0.63040
 O578 O 0.49917 -0.03804 0.63287
 O579 O 0.49924 0.03723 0.36748
 O580 O 0.49865 -0.04709 0.36981
 O581 O 0.45498 -0.08519 0.58783
 O582 O 0.41586 -0.04522 0.54476
 O583 O 0.54574 -0.09234 0.41883
 O584 O 0.58403 -0.04758 0.45920
 O585 O 0.45458 -0.09093 0.41677
 O586 O 0.41606 -0.04737 0.45780
 O587 O 0.45388 0.08903 0.58365
 O588 O 0.41559 0.04563 0.54208
 O589 O 0.49852 0.13569 0.42485
 O590 O 0.49808 0.14088 0.56505
 O591 O 0.49988 -0.13642 0.57505
 O592 O 0.49920 -0.14162 0.43533
 O593 O 0.52843 -0.06529 0.50180
 O594 O 0.52797 0.06540 0.49817
 O595 O 0.47230 -0.06530 0.50199
 O596 O 0.52939 -0.00219 0.43791
 O597 O 0.58399 0.04563 0.45613
 O598 O 0.54484 0.08795 0.41520
 O599 O 0.46994 -0.00266 0.43768
 O600 O 0.47002 0.00153 0.56250
 O601 O 0.47181 0.06421 0.49833
 O602 O 0.52953 0.00200 0.56197
 Zr603 Zr 0.49964 0.05895 0.43791
 Zr604 Zr 0.50023 -0.05960 0.56234
 Zr605 Zr 0.55562 0.00028 0.49978
 Zr606 Zr 0.50003 -0.06388 0.44126
 Zr607 Zr 0.49965 0.06319 0.55892
 Zr608 Zr 0.44405 -0.00075 0.50011
 H609 H 0.45919 -0.09604 0.50282
 H610 H 0.54381 -0.00276 0.41019
 H611 H 0.45848 0.09474 0.49752
 H612 H 0.54396 0.00255 0.58965
 H613 H 0.49705 0.15146 0.45589
 H614 H 0.50769 0.15376 0.53578
 H615 H 0.50918 -0.15423 0.46443
 H616 H 0.49794 -0.15206 0.54401
 C617 C 0.75081 0.25423 0.90244
 C618 C 0.75084 0.24498 0.59789
 C619 C 0.67389 0.17277 0.82590
 C620 C 0.67424 0.33064 0.82117
 C621 C 0.67409 0.16975 0.67779
 C622 C 0.82460 0.17248 0.67460
 C623 C 0.82549 0.32370 0.67396
 C624 C 0.82463 0.17525 0.82831
 C625 C 0.67427 0.32760 0.67634
 C626 C 0.82522 0.32684 0.82393
 O627 O 0.70411 0.15831 0.66849
 O628 O 0.66507 0.20237 0.70813
 O629 O 0.70423 0.33884 0.66608
 O630 O 0.66558 0.29524 0.70706
 O631 O 0.79534 0.33901 0.83363
 O632 O 0.83372 0.29451 0.79315
 O633 O 0.74993 0.28778 0.61756
 O634 O 0.75045 0.20345 0.61985
 O635 O 0.75052 0.29572 0.88043
 O636 O 0.75018 0.21140 0.88285
 O637 O 0.79459 0.16125 0.66535
 O638 O 0.83371 0.20328 0.70648
 O639 O 0.70397 0.16225 0.83598
 O640 O 0.66500 0.20376 0.79391
 O641 O 0.79460 0.16516 0.83869
 O642 O 0.83371 0.20473 0.79527
 O643 O 0.79562 0.33407 0.66253
 O644 O 0.83391 0.29318 0.70638
 O645 O 0.75106 0.39048 0.81515
 O646 O 0.75087 0.38625 0.67579
 O647 O 0.75085 0.10886 0.68537
 O648 O 0.74993 0.11295 0.82418
 O649 O 0.72098 0.18405 0.75194
 O650 O 0.72125 0.31469 0.74850
 O651 O 0.77736 0.18435 0.75188
 O652 O 0.71993 0.25145 0.81208
 O653 O 0.66558 0.29738 0.79136
 O654 O 0.70417 0.34217 0.83114
 O655 O 0.77936 0.25115 0.81251
 O656 O 0.77943 0.24770 0.68795
 O657 O 0.77766 0.31399 0.74853
 O658 O 0.72000 0.24808 0.68836
 Zr659 Zr 0.74967 0.31278 0.80899
 Zr660 Zr 0.74943 0.18658 0.69140
 Zr661 Zr 0.69354 0.24936 0.75025
 Zr662 Zr 0.74936 0.18992 0.81231
 Zr663 Zr 0.74974 0.30937 0.68811
 Zr664 Zr 0.80545 0.24886 0.75025
 H665 H 0.79067 0.15379 0.75243
 H666 H 0.70557 0.25226 0.83984
 H667 H 0.79101 0.34449 0.74794
 H668 H 0.70566 0.24774 0.66060
 H669 H 0.74148 0.40334 0.78587
 H670 H 0.75439 0.40162 0.70667
 H671 H 0.75266 0.09770 0.79308
 H672 H 0.74009 0.09604 0.71384
 C673 C -0.00008 0.49366 0.34789
 C674 C 0.00069 0.50530 0.65295
 C675 C -0.07589 0.57677 0.42622
 C676 C -0.07556 0.41700 0.43040
 C677 C -0.07604 0.58073 0.57047
 C678 C 0.07509 0.57771 0.57396
 C679 C 0.07537 0.42618 0.57777
 C680 C 0.07492 0.57367 0.42217
 C681 C -0.07513 0.42105 0.57467
 C682 C 0.07530 0.42199 0.42588
 O683 O -0.04614 0.59242 0.58062
 O684 O -0.08451 0.54705 0.54100
 O685 O -0.04508 0.41121 0.58513
 O686 O -0.08432 0.45287 0.54370
 O687 O 0.04542 0.41021 0.41601
 O688 O 0.08385 0.45378 0.45712
 O689 O 0.00038 0.46238 0.63337
 O690 O 0.00026 0.54663 0.63057
 O691 O -0.00048 0.45219 0.36994
 O692 O 0.00029 0.53650 0.36750
 O693 O 0.04517 0.58963 0.58366
 O694 O 0.08373 0.54584 0.54281
 O695 O -0.04587 0.58728 0.41594
 O696 O -0.08482 0.54448 0.45694
 O697 O 0.04487 0.58372 0.41192
 O698 O 0.08402 0.54371 0.45480
 O699 O 0.04541 0.41622 0.58854
 O700 O 0.08430 0.45583 0.54478
 O701 O 0.00182 0.35800 0.43616
 O702 O 0.00136 0.36388 0.57578
 O703 O 0.00086 0.64096 0.56469
 O704 O 0.00035 0.63518 0.42461
 O705 O -0.02875 0.56450 0.49829
 O706 O -0.02836 0.43409 0.50243
 O707 O 0.02752 0.56440 0.49820
 O708 O -0.02997 0.49703 0.43838
 O709 O -0.08421 0.45063 0.45986
 O710 O -0.04562 0.40576 0.42008
 O711 O 0.02959 0.49727 0.43776
 O712 O 0.02971 0.50208 0.56249
 O713 O 0.02783 0.43491 0.50216
 O714 O -0.02990 0.50165 0.56235
 Zr715 Zr -0.00017 0.43574 0.44160
 Zr716 Zr -0.00040 0.56323 0.55890
 Zr717 Zr -0.05619 0.49909 0.50039
 Zr718 Zr -0.00041 0.55848 0.43792
 Zr719 Zr 0.00001 0.44061 0.56271
 Zr720 Zr 0.05569 0.49977 0.50001
 H721 H 0.04076 0.59501 0.49727
 H722 H -0.04456 0.49627 0.41089
 H723 H 0.04122 0.40444 0.50297
 H724 H -0.04439 0.50223 0.59000
 H725 H -0.00804 0.34527 0.46531
 H726 H 0.00322 0.34811 0.54478
 H727 H 0.00222 0.65107 0.45555
 H728 H -0.00866 0.65363 0.53529
 C729 C 0.25082 0.75530 0.90201
 C730 C 0.25094 0.74623 0.59738
 C731 C 0.17441 0.67300 0.82450
 C732 C 0.17410 0.83271 0.81997
 C733 C 0.17411 0.67045 0.67793
 C734 C 0.32469 0.67286 0.67474
 C735 C 0.32556 0.82570 0.67439
 C736 C 0.32486 0.67542 0.82700
 C737 C 0.17440 0.83022 0.67721
 C738 C 0.32525 0.82863 0.82313
 O739 O 0.20414 0.65909 0.66859
 O740 O 0.16512 0.70374 0.70764
 O741 O 0.20435 0.84071 0.66625
 O742 O 0.16571 0.79737 0.70744
 O743 O 0.29536 0.84031 0.83327
 O744 O 0.33375 0.79619 0.79244
 O745 O 0.25006 0.78903 0.61706
 O746 O 0.25052 0.70473 0.61934
 O747 O 0.25043 0.79681 0.88009
 O748 O 0.25035 0.71251 0.88235
 O749 O 0.29467 0.66201 0.66515
 O750 O 0.33377 0.70385 0.70651
 O751 O 0.20440 0.66271 0.83486
 O752 O 0.16538 0.70441 0.79300
 O753 O 0.29482 0.66535 0.83729
 O754 O 0.33393 0.70593 0.79481
 O755 O 0.29571 0.83589 0.66273
 O756 O 0.33399 0.79467 0.70634
 O757 O 0.25106 0.89158 0.81512
 O758 O 0.25103 0.88740 0.67497
 O759 O 0.25085 0.61022 0.68433
 O760 O 0.25010 0.61424 0.82409
 O761 O 0.22118 0.68542 0.75141
 O762 O 0.22143 0.81586 0.74813
 O763 O 0.27742 0.68562 0.75132
 O764 O 0.21995 0.75258 0.81173
 O765 O 0.16555 0.79891 0.79058
 O766 O 0.20408 0.84352 0.83062
 O767 O 0.27955 0.75235 0.81224
 O768 O 0.27961 0.74897 0.68743
 O769 O 0.27763 0.81510 0.74822
 O770 O 0.21999 0.74939 0.68774
 Zr771 Zr 0.24969 0.81390 0.80873
 Zr772 Zr 0.24951 0.68790 0.69082
 Zr773 Zr 0.19366 0.75066 0.74977
 Zr774 Zr 0.24957 0.69113 0.81178
 Zr775 Zr 0.24983 0.81059 0.68766
 Zr776 Zr 0.30556 0.75006 0.74988
 H777 H 0.29064 0.65496 0.75181
 H778 H 0.20547 0.75335 0.83939
 H779 H 0.29087 0.84570 0.74770
 H780 H 0.20554 0.74916 0.66008
 H781 H 0.24195 0.90453 0.78557
 H782 H 0.25362 0.90296 0.70596
 H783 H 0.25220 0.59877 0.79299
 H784 H 0.24108 0.59722 0.71344
 C785 C 0.49890 0.49490 0.34790
 C786 C 0.49854 0.50422 0.65232
 C787 C 0.57558 0.41912 0.42876
 C788 C 0.57488 0.57778 0.42543
 C789 C 0.57516 0.42168 0.57396
 C790 C 0.42465 0.42416 0.57674
 C791 C 0.42405 0.57802 0.57300
 C792 C 0.42456 0.42065 0.42660
 C793 C 0.57511 0.57989 0.57237
 C794 C 0.42433 0.57383 0.42307
 O795 O 0.54513 0.41097 0.58386
 O796 O 0.58426 0.45430 0.54365
 O797 O 0.54510 0.59177 0.58164
 O798 O 0.58397 0.54731 0.54194
 O799 O 0.45434 0.58412 0.41272
 O800 O 0.41533 0.54318 0.45516
 O801 O 0.49875 0.54574 0.63038
 O802 O 0.49915 0.46144 0.63261
 O803 O 0.49948 0.53765 0.36760
 O804 O 0.49913 0.45334 0.36975
 O805 O 0.45466 0.41408 0.58706
 O806 O 0.41556 0.45512 0.54495
 O807 O 0.54567 0.40755 0.41860
 O808 O 0.58410 0.45221 0.45885
 O809 O 0.45452 0.40948 0.41630
 O810 O 0.41591 0.45275 0.45753
 O811 O 0.45394 0.58896 0.58374
 O812 O 0.41553 0.54596 0.54200
 O813 O 0.49862 0.63579 0.42554
 O814 O 0.49819 0.64053 0.56521
 O815 O 0.49922 0.36335 0.57480
 O816 O 0.49903 0.35850 0.43516
 O817 O 0.52840 0.43454 0.50170
 O818 O 0.52813 0.56508 0.49846
 O819 O 0.47205 0.43470 0.50161
 O820 O 0.52952 0.49784 0.43824
 O821 O 0.58410 0.54587 0.45636
 O822 O 0.54481 0.58819 0.41562
 O823 O 0.46994 0.49748 0.43765
 O824 O 0.46979 0.50135 0.56244
 O825 O 0.47179 0.56414 0.49844
 O826 O 0.52937 0.50152 0.56194
 Zr827 Zr 0.49973 0.55897 0.43817
 Zr828 Zr 0.49987 0.44014 0.56194
 Zr829 Zr 0.55591 0.49995 0.50011
 Zr830 Zr 0.50002 0.43623 0.44112
 Zr831 Zr 0.49962 0.56284 0.55899
 Zr832 Zr 0.44387 0.49931 0.50001
 H833 H 0.45892 0.40398 0.50230
 H834 H 0.54394 0.49741 0.41053
 H835 H 0.45854 0.59476 0.49764
 H836 H 0.54369 0.50185 0.58973
 H837 H 0.49688 0.65138 0.45664
 H838 H 0.50816 0.65343 0.53619
 H839 H 0.50897 0.34583 0.46427
 H840 H 0.49720 0.34765 0.54379
 C841 C 0.75115 0.75639 0.90196
 C842 C 0.75014 0.74371 0.59750
 C843 C 0.67417 0.67395 0.82507
 C844 C 0.67417 0.83202 0.82110
 C845 C 0.67388 0.66979 0.67883
 C846 C 0.82457 0.67255 0.67456
 C847 C 0.82560 0.82412 0.67299
 C848 C 0.82466 0.67644 0.82826
 C849 C 0.67493 0.82836 0.67483
 C850 C 0.82536 0.82790 0.82313
 O851 O 0.70384 0.65786 0.66960
 O852 O 0.66506 0.70381 0.70790
 O853 O 0.70499 0.83815 0.66421
 O854 O 0.66571 0.79742 0.70659
 O855 O 0.79551 0.84029 0.83276
 O856 O 0.83384 0.79547 0.79242
 O857 O 0.75115 0.78672 0.61688
 O858 O 0.74904 0.70247 0.61982
 O859 O 0.75102 0.79778 0.87978
 O860 O 0.75012 0.71348 0.88257
 O861 O 0.79452 0.66141 0.66538
 O862 O 0.83375 0.70360 0.70618
 O863 O 0.70417 0.66348 0.83525
 O864 O 0.66514 0.70538 0.79359
 O865 O 0.79461 0.66670 0.83877
 O866 O 0.83381 0.70555 0.79498
 O867 O 0.79576 0.83522 0.66227
 O868 O 0.83407 0.79329 0.70516
 O869 O 0.75113 0.89205 0.81323
 O870 O 0.75093 0.88616 0.67404
 O871 O 0.75095 0.60898 0.68654
 O872 O 0.75005 0.61467 0.82497
 O873 O 0.72090 0.68539 0.75203
 O874 O 0.72154 0.81589 0.74753
 O875 O 0.77739 0.68516 0.75187
 O876 O 0.72000 0.75304 0.81164
 O877 O 0.66565 0.79894 0.79098
 O878 O 0.70418 0.84340 0.83112
 O879 O 0.77947 0.75258 0.81196
 O880 O 0.77960 0.74766 0.68744
 O881 O 0.77788 0.81470 0.74775
 O882 O 0.72009 0.74853 0.68803
 Zr883 Zr 0.74978 0.81426 0.80823
 Zr884 Zr 0.74931 0.68678 0.69151
 Zr885 Zr 0.69357 0.75089 0.74979
 Zr886 Zr 0.74945 0.69148 0.81218
 Zr887 Zr 0.75015 0.80944 0.68727
 Zr888 Zr 0.80561 0.74955 0.74974
 H889 H 0.79065 0.65454 0.75265
 H890 H 0.70567 0.75386 0.83944
 H891 H 0.79126 0.84517 0.74697
 H892 H 0.70567 0.74792 0.66036
 H893 H 0.74075 0.90441 0.78431
 H894 H 0.75372 0.90197 0.70488
 H895 H 0.75295 0.59900 0.79409
 H896 H 0.74008 0.59652 0.71507
 C897 C 0.00215 -0.00588 0.20401
 C898 C 0.02403 0.03408 0.22591
 C899 C 0.02403 0.03386 0.27335
 C900 C 0.00190 -0.00603 0.29488
 C901 C -0.03189 0.00264 0.27306
 C902 C -0.03177 0.00253 0.22558
 C903 C 0.01423 -0.05469 0.22570
 C904 C 0.01406 -0.05481 0.27321
 H905 H 0.03789 0.06087 0.20589
 H906 H 0.03833 0.05995 0.29364
 H907 H -0.05415 0.00735 0.29326
 H908 H -0.05396 0.00652 0.20523
 H909 H 0.02275 -0.08618 0.20562
 H910 H 0.02240 -0.08641 0.29330
 C911 C 0.25135 0.25653 1.04660
 C912 C 0.27920 0.23024 1.02623
 C913 C 0.27910 0.23002 0.97621
 C914 C 0.25124 0.25614 0.95592
 C915 C 0.22227 0.23319 0.97644
 C916 C 0.22230 0.23340 1.02639
 C917 C 0.25257 0.30616 1.02589
 C918 C 0.25250 0.30587 0.97603
 H919 H 0.29872 0.21343 1.04650
 H920 H 0.29847 0.21302 0.95581
 H921 H 0.20214 0.21817 0.95619
 H922 H 0.20212 0.21857 1.04675
 H923 H 0.25407 0.34048 1.04539
 H924 H 0.25394 0.33985 0.95595
 C925 C 0.10291 0.09999 0.10137
 C926 C 0.09993 0.15663 0.10084
 C927 C 0.12389 0.18017 0.12517
 C928 C 0.14872 0.14499 0.14798
 C929 C 0.12810 0.10949 0.17771
 C930 C 0.10425 0.08579 0.15326
 C931 C 0.13765 0.08960 0.08306
 C932 C 0.16153 0.11304 0.10735
 H933 H 0.08079 0.17653 0.08250
 H934 H 0.12521 0.22019 0.12759
 H935 H 0.13254 0.10246 0.21447
 H936 H 0.08872 0.05787 0.16893
 H937 H 0.14322 0.06622 0.05333
 H938 H 0.18712 0.10936 0.09790
 C939 C 0.35248 0.35380 0.15091
 C940 C 0.34839 0.41016 0.14735
 C941 C 0.37255 0.43287 0.12255
 C942 C 0.39866 0.39718 0.10352
 C943 C 0.41101 0.36926 0.14694
 C944 C 0.38693 0.34660 0.17165
 C945 C 0.35537 0.33583 0.10028
 C946 C 0.37959 0.35837 0.07561
 H947 H 0.32847 0.43051 0.16342
 H948 H 0.37322 0.47264 0.11746
 H949 H 0.43635 0.36815 0.15811
 H950 H 0.39203 0.32648 0.20361
 H951 H 0.34038 0.30660 0.08557
 H952 H 0.38565 0.34776 0.04024
 C953 C 0.35179 0.14801 0.14653
 C954 C 0.33945 0.11762 0.10462
 C955 C 0.36346 0.09325 0.08136
 C956 C 0.39787 0.10124 0.10187
 C957 C 0.40219 0.15774 0.10250
 C958 C 0.37808 0.18221 0.12585
 C959 C 0.37068 0.11078 0.17675
 C960 C 0.39468 0.08622 0.15334
 H961 H 0.31414 0.11596 0.09339
 H962 H 0.35827 0.07111 0.05067
 H963 H 0.42231 0.17688 0.08561
 H964 H 0.37761 0.22222 0.12893
 H965 H 0.36508 0.10344 0.21314
 H966 H 0.40920 0.05738 0.16950
 C967 C 0.14756 0.35659 0.15212
 C968 C 0.14748 0.41326 0.15583
 C969 C 0.12335 0.43543 0.13041
 C970 C 0.10150 0.39894 0.10350
 C971 C 0.12530 0.36797 0.07419
 C972 C 0.14933 0.34583 0.09953
 C973 C 0.11270 0.34106 0.16644
 C974 C 0.08874 0.36308 0.14113
 H975 H 0.16464 0.43407 0.17696
 H976 H 0.11991 0.47523 0.12990
 H977 H 0.12340 0.36374 0.03674
 H978 H 0.16791 0.32262 0.08357
 H979 H 0.10708 0.31541 0.19446
 H980 H 0.06308 0.35578 0.14790
 C981 C 0.35176 0.14433 0.34955
 C982 C 0.38658 0.15907 0.33447
 C983 C 0.41056 0.13577 0.35862
 C984 C 0.39783 0.09957 0.39598
 C985 C 0.37492 0.13079 0.42663
 C986 C 0.35083 0.15419 0.40235
 C987 C 0.35101 0.08772 0.34493
 C988 C 0.37512 0.06429 0.36925
 H989 H 0.39218 0.18536 0.30698
 H990 H 0.43621 0.14257 0.35132
 H991 H 0.37749 0.13429 0.46419
 H992 H 0.33281 0.17770 0.41916
 H993 H 0.33319 0.06783 0.32410
 H994 H 0.37789 0.02436 0.36922
 C995 C 0.14813 0.35347 0.35080
 C996 C 0.12381 0.38265 0.32060
 C997 C 0.09977 0.40545 0.34561
 C998 C 0.10215 0.39702 0.39861
 C999 C 0.10282 0.34060 0.40457
 C1000 C 0.12685 0.31783 0.37959
 C1001 C 0.16088 0.39133 0.38657
 C1002 C 0.13695 0.41399 0.41145
 H1003 H 0.12545 0.38532 0.28286
 H1004 H 0.08086 0.42762 0.32920
 H1005 H 0.08598 0.32033 0.42675
 H1006 H 0.13049 0.27806 0.38043
 H1007 H 0.18651 0.40002 0.39198
 H1008 H 0.14255 0.44164 0.43768
 C1009 C 0.14715 0.14192 0.34578
 C1010 C 0.11234 0.15582 0.32998
 C1011 C 0.08833 0.13349 0.35497
 C1012 C 0.10106 0.09901 0.39373
 C1013 C 0.12396 0.06271 0.36836
 C1014 C 0.14809 0.08520 0.34323
 C1015 C 0.14787 0.15397 0.39819
 C1016 C 0.12378 0.13155 0.42324
 H1017 H 0.10681 0.18051 0.30118
 H1018 H 0.06268 0.13960 0.34719
 H1019 H 0.12123 0.02281 0.36972
 H1020 H 0.16598 0.06455 0.32314
 H1021 H 0.16576 0.17828 0.41421
 H1022 H 0.12109 0.13666 0.46063
 C1023 C 0.35159 0.34973 0.35399
 C1024 C 0.37454 0.38084 0.32325
 C1025 C 0.39864 0.40429 0.34746
 C1026 C 0.39770 0.39461 0.40031
 C1027 C 0.36285 0.40943 0.41527
 C1028 C 0.33886 0.38607 0.39118
 C1029 C 0.37431 0.31453 0.38091
 C1030 C 0.39842 0.33801 0.40515
 H1031 H 0.37197 0.38427 0.28568
 H1032 H 0.41664 0.42778 0.33056
 H1033 H 0.35724 0.43586 0.44260
 H1034 H 0.31320 0.39296 0.39835
 H1035 H 0.37153 0.27460 0.38113
 H1036 H 0.41622 0.31815 0.42607
 C1037 C 0.49870 -0.00684 0.20491
 C1038 C 0.53210 0.00383 0.22705
 C1039 C 0.53169 0.00408 0.27449
 C1040 C 0.49794 -0.00679 0.29562
 C1041 C 0.47487 0.03154 0.27366
 C1042 C 0.47537 0.03163 0.22623
 C1043 C 0.48786 -0.05640 0.22642
 C1044 C 0.48748 -0.05639 0.27389
 H1045 H 0.55441 0.00884 0.20717
 H1046 H 0.55359 0.01015 0.29511
 H1047 H 0.45953 0.05656 0.29363
 H1048 H 0.46079 0.05718 0.20584
 H1049 H 0.48055 -0.08848 0.20627
 H1050 H 0.47978 -0.08845 0.29388
 C1051 C 0.75153 0.25542 1.04555
 C1052 C 0.78075 0.22814 1.02372
 C1053 C 0.78060 0.22818 0.97620
 C1054 C 0.75125 0.25550 0.95479
 C1055 C 0.72097 0.23110 0.97667
 C1056 C 0.72112 0.23106 1.02413
 C1057 C 0.75260 0.30753 1.02385
 C1058 C 0.75245 0.30757 0.97645
 H1059 H 0.80005 0.21074 1.04390
 H1060 H 0.79978 0.21082 0.95573
 H1061 H 0.70098 0.21558 0.95652
 H1062 H 0.70126 0.21550 1.04458
 H1063 H 0.75362 0.34160 1.04377
 H1064 H 0.75334 0.34166 0.95650
 C1065 C 0.60279 0.10315 0.09983
 C1066 C 0.60366 0.15955 0.09393
 C1067 C 0.62774 0.18200 0.11906
 C1068 C 0.64880 0.14605 0.14788
 C1069 C 0.62431 0.11715 0.17793
 C1070 C 0.60025 0.09478 0.15280
 C1071 C 0.63756 0.08584 0.08705
 C1072 C 0.66152 0.10817 0.11207
 H1073 H 0.58691 0.18001 0.07179
 H1074 H 0.63150 0.22172 0.11843
 H1075 H 0.62562 0.11477 0.21571
 H1076 H 0.58092 0.07358 0.16915
 H1077 H 0.64313 0.05841 0.06059
 H1078 H 0.68713 0.09939 0.10661
 C1079 C -0.14746 0.35190 0.14908
 C1080 C -0.15114 0.40824 0.14514
 C1081 C -0.12713 0.43022 0.11955
 C1082 C -0.10151 0.39391 0.10009
 C1083 C -0.08888 0.36615 0.14346
 C1084 C -0.11283 0.34421 0.16898
 C1085 C -0.14533 0.33338 0.09849
 C1086 C -0.12118 0.35516 0.07300
 H1087 H -0.17067 0.42913 0.16155
 H1088 H -0.12620 0.46995 0.11420
 H1089 H -0.06339 0.36441 0.15388
 H1090 H -0.10747 0.32416 0.20089
 H1091 H -0.16059 0.30407 0.08452
 H1092 H -0.11531 0.34353 0.03786
 C1093 C 0.89805 0.10503 0.09838
 C1094 C 0.86320 0.09135 0.08262
 C1095 C 0.83925 0.11453 0.10700
 C1096 C 0.85202 0.14957 0.14523
 C1097 C 0.87447 0.11726 0.17547
 C1098 C 0.89851 0.09405 0.15098
 C1099 C 0.89931 0.16171 0.09484
 C1100 C 0.87522 0.18503 0.11939
 H1101 H 0.85759 0.06609 0.05432
 H1102 H 0.81359 0.10863 0.09912
 H1103 H 0.87173 0.11310 0.21296
 H1104 H 0.91633 0.07017 0.16756
 H1105 H 0.91745 0.18172 0.07463
 H1106 H 0.87284 0.22499 0.12022
 C1107 C 0.64797 0.35533 0.15150
 C1108 C 0.65274 0.41109 0.14414
 C1109 C 0.62870 0.43256 0.11818
 C1110 C 0.60190 0.39641 0.10197
 C1111 C 0.62030 0.35520 0.07631
 C1112 C 0.64445 0.33385 0.10209
 C1113 C 0.61364 0.35070 0.17319
 C1114 C 0.58963 0.37214 0.14740
 H1115 H 0.67323 0.43190 0.15801
 H1116 H 0.62894 0.47161 0.10959
 H1117 H 0.61424 0.34283 0.04142
 H1118 H 0.65935 0.30373 0.08880
 H1119 H 0.60861 0.33324 0.20655
 H1120 H 0.56438 0.37265 0.15907
 C1121 C -0.14838 0.14771 0.35058
 C1122 C -0.11524 0.16432 0.33848
 C1123 C -0.09017 0.14038 0.36458
 C1124 C -0.10254 0.10407 0.39813
 C1125 C -0.12569 0.13131 0.42724
 C1126 C -0.15097 0.15547 0.40102
 C1127 C -0.14774 0.09408 0.34435
 C1128 C -0.12247 0.07005 0.37057
 H1129 H -0.10935 0.19275 0.31306
 H1130 H -0.06460 0.14985 0.35979
 H1131 H -0.12384 0.13414 0.46496
 H1132 H -0.16960 0.17820 0.41750
 H1133 H -0.16425 0.07392 0.32158
 H1134 H -0.11847 0.03035 0.36918
 C1135 C 0.64842 0.35190 0.35272
 C1136 C 0.62682 0.31546 0.38020
 C1137 C 0.60277 0.33759 0.40570
 C1138 C 0.60245 0.39418 0.40152
 C1139 C 0.63727 0.41022 0.41527
 C1140 C 0.66120 0.38824 0.38986
 C1141 C 0.62441 0.38240 0.32328
 C1142 C 0.60039 0.40454 0.34878
 H1143 H 0.63031 0.27565 0.37983
 H1144 H 0.58574 0.31676 0.42711
 H1145 H 0.64290 0.43641 0.44279
 H1146 H 0.68685 0.39614 0.39603
 H1147 H 0.62627 0.38651 0.28569
 H1148 H 0.58171 0.42760 0.33291
 C1149 C 0.64759 0.14386 0.34847
 C1150 C 0.61285 0.16023 0.33441
 C1151 C 0.58874 0.13861 0.35977
 C1152 C 0.60129 0.10232 0.39708
 C1153 C 0.62283 0.06553 0.36992
 C1154 C 0.64706 0.08729 0.34450
 C1155 C 0.64953 0.15439 0.40115
 C1156 C 0.62533 0.13265 0.42657
 H1157 H 0.60739 0.18639 0.30676
 H1158 H 0.56314 0.14674 0.35344
 H1159 H 0.61918 0.02577 0.37045
 H1160 H 0.66409 0.06622 0.32332
 H1161 H 0.66830 0.17721 0.41706
 H1162 H 0.62339 0.13684 0.46415
 C1163 C -0.14833 0.34786 0.35614
 C1164 C -0.12549 0.38019 0.32648
 C1165 C -0.10149 0.40279 0.35146
 C1166 C -0.10236 0.39113 0.40397
 C1167 C -0.13723 0.40514 0.41950
 C1168 C -0.16116 0.38263 0.39459
 C1169 C -0.12551 0.31175 0.38189
 C1170 C -0.10144 0.33442 0.40694
 H1171 H -0.12804 0.38498 0.28904
 H1172 H -0.08353 0.42695 0.33532
 H1173 H -0.14287 0.43004 0.44807
 H1174 H -0.18683 0.38880 0.40223
 H1175 H -0.12824 0.27184 0.38082
 H1176 H -0.08362 0.31391 0.42727
 C1177 C -0.00021 0.49288 0.20463
 C1178 C 0.03312 0.50483 0.22645
 C1179 C 0.03301 0.50493 0.27395
 C1180 C -0.00039 0.49249 0.29548
 C1181 C -0.02432 0.52983 0.27387
 C1182 C -0.02414 0.53013 0.22645
 C1183 C -0.00992 0.44275 0.22613
 C1184 C -0.00999 0.44253 0.27363
 H1185 H 0.05530 0.50998 0.20634
 H1186 H 0.05498 0.51135 0.29432
 H1187 H -0.04014 0.55392 0.29411
 H1188 H -0.03957 0.55481 0.20634
 H1189 H -0.01669 0.41039 0.20597
 H1190 H -0.01686 0.41001 0.29356
 C1191 C 0.25132 0.75649 1.04506
 C1192 C 0.28057 0.72922 1.02334
 C1193 C 0.28050 0.72924 0.97582
 C1194 C 0.25117 0.75652 0.95434
 C1195 C 0.22087 0.73210 0.97611
 C1196 C 0.22094 0.73209 1.02357
 C1197 C 0.25240 0.80859 1.02337
 C1198 C 0.25233 0.80861 0.97598
 H1199 H 0.29986 0.71187 1.04358
 H1200 H 0.29972 0.71188 0.95542
 H1201 H 0.20093 0.71653 0.95590
 H1202 H 0.20105 0.71653 1.04397
 H1203 H 0.25333 0.84267 1.04329
 H1204 H 0.25322 0.84270 0.95603
 C1205 C 0.10203 0.60095 0.10307
 C1206 C 0.10432 0.65662 0.09304
 C1207 C 0.12845 0.67999 0.11727
 C1208 C 0.14820 0.64562 0.14944
 C1209 C 0.12253 0.62053 0.18063
 C1210 C 0.09837 0.59730 0.15636
 C1211 C 0.13660 0.58090 0.09305
 C1212 C 0.16063 0.60415 0.11717
 H1213 H 0.08841 0.67596 0.06882
 H1214 H 0.13315 0.71933 0.11374
 H1215 H 0.12302 0.62160 0.21850
 H1216 H 0.07804 0.57921 0.17351
 H1217 H 0.14193 0.55057 0.06945
 H1218 H 0.18608 0.59333 0.11378
 C1219 C 0.40052 0.89676 0.10345
 C1220 C 0.37656 0.93132 0.12307
 C1221 C 0.35086 0.90757 0.14881
 C1222 C 0.35389 0.85378 0.15027
 C1223 C 0.35575 0.83814 0.10159
 C1224 C 0.38149 0.86165 0.07589
 C1225 C 0.41222 0.86822 0.14367
 C1226 C 0.38660 0.84463 0.16933
 H1227 H 0.37826 0.97129 0.12006
 H1228 H 0.33173 0.92815 0.16653
 H1229 H 0.34063 0.80918 0.08665
 H1230 H 0.38781 0.85062 0.04069
 H1231 H 0.43750 0.86616 0.15504
 H1232 H 0.39157 0.82406 0.20109
 C1233 C 0.35117 0.64877 0.14564
 C1234 C 0.33890 0.62153 0.10177
 C1235 C 0.36277 0.59720 0.07811
 C1236 C 0.39688 0.60214 0.10032
 C1237 C 0.40251 0.65826 0.10396
 C1238 C 0.37857 0.68266 0.12767
 C1239 C 0.36857 0.60889 0.17456
 C1240 C 0.39235 0.58436 0.15076
 H1241 H 0.31379 0.62209 0.08953
 H1242 H 0.35775 0.57728 0.04605
 H1243 H 0.42329 0.67726 0.08863
 H1244 H 0.37890 0.72246 0.13259
 H1245 H 0.36194 0.59952 0.21018
 H1246 H 0.40549 0.55336 0.16566
 C1247 C 0.10220 0.89895 0.10252
 C1248 C 0.12540 0.86642 0.07375
 C1249 C 0.14942 0.84463 0.09937
 C1250 C 0.14821 0.85728 0.15164
 C1251 C 0.14876 0.91403 0.15358
 C1252 C 0.12467 0.93586 0.12788
 C1253 C 0.08940 0.86477 0.14149
 C1254 C 0.11334 0.84310 0.16707
 H1255 H 0.12307 0.86082 0.03648
 H1256 H 0.16760 0.82038 0.08386
 H1257 H 0.16638 0.93516 0.17364
 H1258 H 0.12175 0.97571 0.12596
 H1259 H 0.06373 0.85840 0.14901
 H1260 H 0.10770 0.81875 0.19609
 C1261 C 0.35193 0.64479 0.34945
 C1262 C 0.38679 0.65940 0.33436
 C1263 C 0.41074 0.63602 0.35853
 C1264 C 0.39796 0.59990 0.39591
 C1265 C 0.37509 0.63122 0.42654
 C1266 C 0.35103 0.65469 0.40225
 C1267 C 0.35110 0.58818 0.34486
 C1268 C 0.37518 0.56468 0.36918
 H1269 H 0.39242 0.68566 0.30686
 H1270 H 0.43640 0.64271 0.35122
 H1271 H 0.37768 0.63478 0.46409
 H1272 H 0.33309 0.67837 0.41904
 H1273 H 0.33326 0.56833 0.32404
 H1274 H 0.37790 0.52474 0.36916
 C1275 C 0.14847 -0.14519 0.35077
 C1276 C 0.12431 -0.11571 0.32059
 C1277 C 0.10022 -0.09301 0.34558
 C1278 C 0.10238 -0.10191 0.39852
 C1279 C 0.10296 -0.15837 0.40410
 C1280 C 0.12705 -0.18100 0.37916
 C1281 C 0.16116 -0.10767 0.38689
 C1282 C 0.13716 -0.08514 0.41177
 H1283 H 0.12616 -0.11257 0.28291
 H1284 H 0.08154 -0.07036 0.32923
 H1285 H 0.08602 -0.17876 0.42603
 H1286 H 0.13066 -0.22078 0.37980
 H1287 H 0.18678 -0.09913 0.39254
 H1288 H 0.14269 -0.05775 0.43826
 C1289 C 0.14727 0.64294 0.34654
 C1290 C 0.11241 0.65662 0.33081
 C1291 C 0.08846 0.63381 0.35559
 C1292 C 0.10125 0.59911 0.39415
 C1293 C 0.12434 0.56328 0.36855
 C1294 C 0.14841 0.58622 0.34363
 C1295 C 0.14785 0.65455 0.39906
 C1296 C 0.12383 0.63166 0.42391
 H1297 H 0.10681 0.68157 0.30223
 H1298 H 0.06279 0.63975 0.34782
 H1299 H 0.12178 0.52334 0.36961
 H1300 H 0.16640 0.56590 0.32343
 H1301 H 0.16560 0.67893 0.41528
 H1302 H 0.12108 0.63646 0.46132
 C1303 C 0.35181 -0.15005 0.35409
 C1304 C 0.33904 -0.11398 0.39149
 C1305 C 0.36300 -0.09078 0.41573
 C1306 C 0.39784 -0.10550 0.40068
 C1307 C 0.39860 -0.16212 0.40521
 C1308 C 0.37451 -0.18544 0.38081
 C1309 C 0.37474 -0.11874 0.32353
 C1310 C 0.39881 -0.09544 0.34790
 H1311 H 0.31338 -0.10719 0.39874
 H1312 H 0.35739 -0.06457 0.44326
 H1313 H 0.41639 -0.18210 0.42604
 H1314 H 0.37174 -0.22537 0.38078
 H1315 H 0.37219 -0.11506 0.28598
 H1316 H 0.41679 -0.07179 0.33117
 C1317 C 0.49863 0.49441 0.20487
 C1318 C 0.53016 0.51495 0.22651
 C1319 C 0.53017 0.51467 0.27400
 C1320 C 0.49864 0.49384 0.29560
 C1321 C 0.47091 0.52471 0.27420
 C1322 C 0.47099 0.52511 0.22674
 C1323 C 0.49472 0.44249 0.22635
 C1324 C 0.49474 0.44220 0.27374
 H1325 H 0.55077 0.52831 0.20621
 H1326 H 0.55082 0.52776 0.29435
 H1327 H 0.45298 0.54498 0.29461
 H1328 H 0.45345 0.54623 0.20668
 H1329 H 0.49181 0.40877 0.20627
 H1330 H 0.49183 0.40827 0.29356
 C1331 C 0.75179 0.75757 1.04507
 C1332 C 0.77966 0.72719 1.02332
 C1333 C 0.77963 0.72732 0.97581
 C1334 C 0.75170 0.75779 0.95431
 C1335 C 0.72030 0.73682 0.97602
 C1336 C 0.72033 0.73681 1.02345
 C1337 C 0.75547 0.80946 1.02348
 C1338 C 0.75541 0.80958 0.97602
 H1339 H 0.79812 0.70785 1.04354
 H1340 H 0.79805 0.70809 0.95542
 H1341 H 0.69949 0.72411 0.95578
 H1342 H 0.69944 0.72456 1.04373
 H1343 H 0.75828 0.84323 1.04350
 H1344 H 0.75820 0.84344 0.95607
 C1345 C 0.60093 0.60616 0.10012
 C1346 C 0.59059 0.65611 0.12109
 C1347 C 0.61462 0.67875 0.14591
 C1348 C 0.64698 0.64952 0.14758
 C1349 C 0.63754 0.59849 0.16663
 C1350 C 0.61342 0.57587 0.14188
 C1351 C 0.63160 0.61805 0.07118
 C1352 C 0.65568 0.64062 0.09600
 H1353 H 0.56668 0.67277 0.11629
 H1354 H 0.61093 0.71451 0.16225
 H1355 H 0.64844 0.58199 0.19746
 H1356 H 0.60353 0.54014 0.15181
 H1357 H 0.63414 0.60969 0.03431
 H1358 H 0.67883 0.65096 0.08031
 C1359 C 0.89915 0.89368 0.10044
 C1360 C 0.87377 0.93004 0.12040
 C1361 C 0.84972 0.90805 0.14592
 C1362 C 0.85308 0.85161 0.14931
 C1363 C 0.85501 0.83364 0.09852
 C1364 C 0.87919 0.85545 0.07310
 C1365 C 0.91174 0.86525 0.14347
 C1366 C 0.88773 0.84328 0.16892
 H1367 H 0.87489 0.96981 0.11544
 H1368 H 0.83034 0.92900 0.16265
 H1369 H 0.83959 0.80462 0.08436
 H1370 H 0.88489 0.84418 0.03780
 H1371 H 0.93725 0.86309 0.15371
 H1372 H 0.89305 0.82274 0.20057
 C1373 C 0.89706 0.60492 0.09820
 C1374 C 0.86251 0.59593 0.07856
 C1375 C 0.83845 0.61918 0.10275
 C1376 C 0.85091 0.64955 0.14458
 C1377 C 0.87074 0.61274 0.17392
 C1378 C 0.89479 0.58933 0.14964
 C1379 C 0.90059 0.66149 0.09920
 C1380 C 0.87643 0.68487 0.12347
 H1381 H 0.85726 0.57394 0.04781
 H1382 H 0.81300 0.61671 0.09228
 H1383 H 0.86584 0.60496 0.21044
 H1384 H 0.91014 0.56115 0.16526
 H1385 H 0.92020 0.68146 0.08195
 H1386 H 0.87542 0.72480 0.12699
 C1387 C 0.60300 0.89791 0.09814
 C1388 C 0.63572 0.91851 0.08953
 C1389 C 0.66080 0.89609 0.11697
 C1390 C 0.64879 0.85712 0.14802
 C1391 C 0.62326 0.88047 0.17591
 C1392 C 0.59808 0.90311 0.14853
 C1393 C 0.60639 0.84485 0.09002
 C1394 C 0.63168 0.82240 0.11746
 H1395 H 0.64117 0.94883 0.06593
 H1396 H 0.68598 0.90861 0.11521
 H1397 H 0.62281 0.88039 0.21367
 H1398 H 0.57744 0.92214 0.16434
 H1399 H 0.59208 0.82422 0.06474
 H1400 H 0.63805 0.78356 0.11427
 C1401 C -0.14868 0.64581 0.35144
 C1402 C -0.11388 0.66263 0.33807
 C1403 C -0.08984 0.64016 0.36281
 C1404 C -0.10242 0.60260 0.39900
 C1405 C -0.12661 0.63201 0.42927
 C1406 C -0.15079 0.65463 0.40439
 C1407 C -0.14804 0.58936 0.34591
 C1408 C -0.12387 0.56676 0.37075
 H1409 H -0.10835 0.69005 0.31155
 H1410 H -0.06424 0.64876 0.35699
 H1411 H -0.12478 0.63496 0.46696
 H1412 H -0.16962 0.67694 0.42085
 H1413 H -0.16503 0.56894 0.32414
 H1414 H -0.12023 0.52699 0.37018
 C1415 C 0.64878 -0.14729 0.35379
 C1416 C 0.62790 -0.11060 0.32598
 C1417 C 0.60368 -0.08907 0.35139
 C1418 C 0.60257 -0.10587 0.40260
 C1419 C 0.60004 -0.16245 0.40059
 C1420 C 0.62422 -0.18415 0.37506
 C1421 C 0.66136 -0.11740 0.39584
 C1422 C 0.63726 -0.09579 0.42129
 H1423 H 0.63268 -0.10068 0.29002
 H1424 H 0.58742 -0.06137 0.33676
 H1425 H 0.58114 -0.18364 0.41814
 H1426 H 0.62596 -0.22397 0.37085
 H1427 H 0.68693 -0.11391 0.40541
 H1428 H 0.64259 -0.07420 0.45227
 C1429 C 0.64665 0.64537 0.34769
 C1430 C 0.61181 0.66210 0.33486
 C1431 C 0.58803 0.64011 0.36060
 C1432 C 0.60101 0.60309 0.39710
 C1433 C 0.62210 0.56672 0.36880
 C1434 C 0.64597 0.58884 0.34296
 C1435 C 0.64934 0.65502 0.40049
 C1436 C 0.62549 0.63289 0.42631
 H1437 H 0.60608 0.68885 0.30783
 H1438 H 0.56237 0.64855 0.35519
 H1439 H 0.61841 0.52695 0.36886
 H1440 H 0.66264 0.56806 0.32095
 H1441 H 0.66832 0.67761 0.41618
 H1442 H 0.62409 0.63649 0.46398
 C1443 C -0.14818 -0.15256 0.35573
 C1444 C -0.16100 -0.11802 0.39439
 C1445 C -0.13709 -0.09517 0.41902
 C1446 C -0.10223 -0.10862 0.40308
 C1447 C -0.10093 -0.16535 0.40598
 C1448 C -0.12500 -0.18837 0.38117
 C1449 C -0.12572 -0.11986 0.32585
 C1450 C -0.10173 -0.09691 0.35058
 H1451 H -0.18666 -0.11230 0.40244
 H1452 H -0.14273 -0.07040 0.44770
 H1453 H -0.08286 -0.18560 0.42606
 H1454 H -0.12747 -0.22832 0.38009
 H1455 H -0.12850 -0.11509 0.28844
 H1456 H -0.08402 -0.07248 0.33426
 C1457 C 0.00071 0.00645 0.79590
 C1458 C 0.02865 -0.01949 0.77540
 C1459 C 0.02853 -0.01953 0.72538
 C1460 C 0.00054 0.00640 0.70519
 C1461 C -0.02832 -0.01689 0.72568
 C1462 C -0.02826 -0.01686 0.77565
 C1463 C 0.00172 0.05617 0.77529
 C1464 C 0.00162 0.05606 0.72544
 H1465 H 0.04831 -0.03604 0.79558
 H1466 H 0.04799 -0.03619 0.70490
 H1467 H -0.04844 -0.03191 0.70542
 H1468 H -0.04839 -0.03185 0.79601
 H1469 H 0.00302 0.09046 0.79487
 H1470 H 0.00284 0.09012 0.70547
 C1471 C 0.24944 0.24223 0.45446
 C1472 C 0.28298 0.25358 0.47596
 C1473 C 0.28307 0.25340 0.52346
 C1474 C 0.24959 0.24242 0.54535
 C1475 C 0.22618 0.28046 0.52357
 C1476 C 0.22601 0.28026 0.47615
 C1477 C 0.23914 0.19254 0.47632
 C1478 C 0.23919 0.19265 0.52383
 H1479 H 0.30502 0.25948 0.45556
 H1480 H 0.30528 0.25804 0.54355
 H1481 H 0.21115 0.30565 0.54371
 H1482 H 0.21056 0.30493 0.45595
 H1483 H 0.23179 0.16031 0.45638
 H1484 H 0.23192 0.16050 0.54400
 C1485 C 0.10155 0.10198 0.60221
 C1486 C 0.10445 0.15793 0.59413
 C1487 C 0.12846 0.17982 0.61978
 C1488 C 0.14746 0.14387 0.65135
 C1489 C 0.12109 0.11826 0.68091
 C1490 C 0.09714 0.09621 0.65526
 C1491 C 0.13607 0.08160 0.59243
 C1492 C 0.15995 0.10337 0.61803
 H1493 H 0.08906 0.17849 0.57013
 H1494 H 0.13355 0.21917 0.61769
 H1495 H 0.12095 0.11816 0.71867
 H1496 H 0.07676 0.07683 0.67127
 H1497 H 0.14148 0.05217 0.56789
 H1498 H 0.18534 0.09217 0.61490
 C1499 C 0.35242 0.35097 0.64872
 C1500 C 0.35212 0.40730 0.65586
 C1501 C 0.37617 0.43154 0.63211
 C1502 C 0.39839 0.39727 0.60338
 C1503 C 0.41120 0.35900 0.63880
 C1504 C 0.38725 0.33487 0.66239
 C1505 C 0.35096 0.34392 0.59560
 C1506 C 0.37500 0.36802 0.57187
 H1507 H 0.33461 0.42642 0.67788
 H1508 H 0.37920 0.47137 0.63380
 H1509 H 0.43686 0.35125 0.64504
 H1510 H 0.39285 0.30689 0.68834
 H1511 H 0.33231 0.32248 0.57811
 H1512 H 0.37699 0.36677 0.53410
 C1513 C 0.35079 0.14638 0.64698
 C1514 C 0.33835 0.11737 0.60430
 C1515 C 0.36246 0.09486 0.57950
 C1516 C 0.39703 0.10328 0.59941
 C1517 C 0.40050 0.15978 0.60194
 C1518 C 0.37632 0.18233 0.62681
 C1519 C 0.37057 0.10852 0.67514
 C1520 C 0.39481 0.08614 0.65039
 H1521 H 0.31291 0.11535 0.59371
 H1522 H 0.35727 0.07397 0.54805
 H1523 H 0.42003 0.18034 0.58512
 H1524 H 0.37520 0.22217 0.63116
 H1525 H 0.36496 0.09838 0.71077
 H1526 H 0.41025 0.05754 0.66530
 C1527 C 0.14769 0.35555 0.65178
 C1528 C 0.15119 0.41215 0.65114
 C1529 C 0.12711 0.43570 0.62683
 C1530 C 0.10172 0.40054 0.60530
 C1531 C 0.12172 0.36399 0.57590
 C1532 C 0.14566 0.34040 0.60022
 C1533 C 0.11306 0.34635 0.67109
 C1534 C 0.08911 0.36978 0.64689
 H1535 H 0.17064 0.43199 0.66878
 H1536 H 0.12596 0.47566 0.62381
 H1537 H 0.11699 0.35651 0.53930
 H1538 H 0.16107 0.31232 0.58456
 H1539 H 0.10765 0.32408 0.70165
 H1540 H 0.06363 0.36718 0.65723
 C1541 C 0.39718 0.10337 0.90203
 C1542 C 0.39767 0.15997 0.90709
 C1543 C 0.37359 0.18344 0.88270
 C1544 C 0.35112 0.14823 0.85545
 C1545 C 0.37434 0.11749 0.82495
 C1546 C 0.39837 0.09402 0.84921
 C1547 C 0.36234 0.08821 0.91667
 C1548 C 0.33836 0.11159 0.89243
 H1549 H 0.41531 0.17983 0.92826
 H1550 H 0.37066 0.22334 0.88304
 H1551 H 0.37217 0.11467 0.78746
 H1552 H 0.41660 0.07093 0.83231
 H1553 H 0.35677 0.06163 0.94393
 H1554 H 0.31268 0.10457 0.89939
 C1555 C 0.10163 0.40244 0.89332
 C1556 C 0.08927 0.37422 0.85010
 C1557 C 0.11333 0.35145 0.82549
 C1558 C 0.14778 0.35877 0.84608
 C1559 C 0.15187 0.41518 0.84924
 C1560 C 0.12770 0.43805 0.87400
 C1561 C 0.12081 0.36391 0.92146
 C1562 C 0.14495 0.34118 0.89688
 H1563 H 0.06393 0.37301 0.83895
 H1564 H 0.10820 0.33118 0.79367
 H1565 H 0.17181 0.43539 0.83307
 H1566 H 0.12704 0.47782 0.87900
 H1567 H 0.11520 0.35422 0.95726
 H1568 H 0.16021 0.31244 0.91194
 C1569 C 0.10146 0.10334 0.90040
 C1570 C 0.09661 0.15672 0.89571
 C1571 C 0.12205 0.18076 0.86979
 C1572 C 0.14756 0.14696 0.85347
 C1573 C 0.15929 0.12220 0.89570
 C1574 C 0.13401 0.09826 0.92154
 C1575 C 0.10508 0.08482 0.85277
 C1576 C 0.13058 0.10877 0.82702
 H1577 H 0.07657 0.17703 0.91158
 H1578 H 0.12263 0.22055 0.86464
 H1579 H 0.18416 0.12425 0.90878
 H1580 H 0.13890 0.08153 0.95530
 H1581 H 0.09125 0.05398 0.83860
 H1582 H 0.13810 0.09647 0.79266
 C1583 C 0.39857 0.39833 0.89561
 C1584 C 0.37658 0.43343 0.86739
 C1585 C 0.35249 0.40996 0.84308
 C1586 C 0.35253 0.35347 0.84918
 C1587 C 0.38737 0.33740 0.83536
 C1588 C 0.41134 0.36077 0.85953
 C1589 C 0.37488 0.36861 0.92633
 C1590 C 0.35086 0.34512 0.90213
 H1591 H 0.37981 0.47327 0.86639
 H1592 H 0.33515 0.42973 0.82130
 H1593 H 0.39296 0.31011 0.80878
 H1594 H 0.43701 0.35307 0.85320
 H1595 H 0.37667 0.36663 0.96393
 H1596 H 0.33228 0.32279 0.91916
 C1597 C 0.49773 0.00593 0.79563
 C1598 C 0.52763 -0.01970 0.77408
 C1599 C 0.52769 -0.01967 0.72666
 C1600 C 0.49792 0.00607 0.70485
 C1601 C 0.46810 -0.02001 0.72637
 C1602 C 0.46800 -0.02009 0.77392
 C1603 C 0.49759 0.05808 0.77397
 C1604 C 0.49770 0.05815 0.72655
 H1605 H 0.54710 -0.03650 0.79440
 H1606 H 0.54707 -0.03669 0.70652
 H1607 H 0.44861 -0.03656 0.70595
 H1608 H 0.44843 -0.03671 0.79419
 H1609 H 0.49727 0.09217 0.79392
 H1610 H 0.49749 0.09228 0.70662
 C1611 C 0.75183 0.24331 0.45473
 C1612 C 0.77450 0.28240 0.47629
 C1613 C 0.77421 0.28275 0.52371
 C1614 C 0.75152 0.24370 0.54549
 C1615 C 0.71788 0.25338 0.52362
 C1616 C 0.71805 0.25337 0.47615
 C1617 C 0.76302 0.19414 0.47663
 C1618 C 0.76290 0.19436 0.52411
 H1619 H 0.78930 0.30793 0.45604
 H1620 H 0.78829 0.30914 0.54378
 H1621 H 0.69565 0.25842 0.54375
 H1622 H 0.69601 0.25898 0.45570
 H1623 H 0.77099 0.16219 0.45674
 H1624 H 0.77077 0.16260 0.54435
 C1625 C 0.60189 0.10493 0.59905
 C1626 C 0.60363 0.16136 0.59404
 C1627 C 0.62767 0.18257 0.62020
 C1628 C 0.64778 0.14542 0.64911
 C1629 C 0.62242 0.11687 0.67793
 C1630 C 0.59846 0.09561 0.65180
 C1631 C 0.63660 0.08672 0.58701
 C1632 C 0.66048 0.10777 0.61311
 H1633 H 0.58756 0.18272 0.57162
 H1634 H 0.63212 0.22215 0.62009
 H1635 H 0.62314 0.11378 0.71558
 H1636 H 0.57880 0.07414 0.66728
 H1637 H 0.64219 0.05966 0.56022
 H1638 H 0.68604 0.09822 0.60825
 C1639 C -0.14750 0.34944 0.64777
 C1640 C -0.15059 0.40606 0.64804
 C1641 C -0.12648 0.42963 0.62394
 C1642 C -0.10141 0.39451 0.60158
 C1643 C -0.08882 0.36274 0.64247
 C1644 C -0.11285 0.33927 0.66655
 C1645 C -0.14574 0.33509 0.59596
 C1646 C -0.12174 0.35883 0.57173
 H1647 H -0.16989 0.42593 0.66607
 H1648 H -0.12521 0.46965 0.62141
 H1649 H -0.06329 0.35923 0.65223
 H1650 H -0.10745 0.31603 0.69646
 H1651 H -0.16103 0.30696 0.58024
 H1652 H -0.11698 0.35163 0.53507
 C1653 C 0.89688 0.10641 0.59670
 C1654 C 0.86205 0.09380 0.58009
 C1655 C 0.83807 0.11553 0.60565
 C1656 C 0.85086 0.14816 0.64573
 C1657 C 0.87320 0.11403 0.67417
 C1658 C 0.89724 0.09224 0.64863
 C1659 C 0.89824 0.16317 0.59611
 C1660 C 0.87414 0.18504 0.62178
 H1661 H 0.85650 0.07053 0.55029
 H1662 H 0.81241 0.11033 0.59739
 H1663 H 0.87003 0.10691 0.71106
 H1664 H 0.91471 0.06668 0.66391
 H1665 H 0.91636 0.18429 0.57690
 H1666 H 0.87172 0.22491 0.62451
 C1667 C 0.64746 0.35264 0.64917
 C1668 C 0.64429 0.40817 0.65905
 C1669 C 0.62017 0.43071 0.63408
 C1670 C 0.60145 0.39575 0.60129
 C1671 C 0.62789 0.37143 0.57093
 C1672 C 0.65196 0.34892 0.59598
 C1673 C 0.61302 0.33150 0.65817
 C1674 C 0.58907 0.35395 0.63322
 H1675 H 0.65929 0.42788 0.68412
 H1676 H 0.61442 0.46964 0.63810
 H1677 H 0.62775 0.37198 0.53304
 H1678 H 0.67249 0.33054 0.57946
 H1679 H 0.60773 0.30103 0.68166
 H1680 H 0.56373 0.34230 0.63576
 C1681 C 0.89740 0.10748 0.90387
 C1682 C 0.89974 0.16419 0.90364
 C1683 C 0.87544 0.18671 0.87888
 C1684 C 0.85101 0.15048 0.85657
 C1685 C 0.87209 0.11504 0.82757
 C1686 C 0.89633 0.09265 0.85219
 C1687 C 0.86272 0.09654 0.92235
 C1688 C 0.83855 0.11895 0.89768
 H1689 H 0.91857 0.18482 0.92184
 H1690 H 0.87349 0.22662 0.87604
 H1691 H 0.86783 0.10739 0.79102
 H1692 H 0.91294 0.06611 0.83645
 H1693 H 0.85747 0.07407 0.95284
 H1694 H 0.81302 0.11519 0.90740
 C1695 C 0.60173 0.39797 0.89746
 C1696 C 0.58889 0.36022 0.86165
 C1697 C 0.61271 0.33824 0.83610
 C1698 C 0.64750 0.35568 0.84842
 C1699 C 0.64642 0.41212 0.84283
 C1700 C 0.62245 0.43428 0.86849
 C1701 C 0.62657 0.36909 0.92689
 C1702 C 0.65046 0.34688 0.90129
 H1703 H 0.56328 0.35129 0.85651
 H1704 H 0.60702 0.31101 0.80952
 H1705 H 0.66291 0.43281 0.82045
 H1706 H 0.61848 0.47398 0.86804
 H1707 H 0.62561 0.36664 0.96458
 H1708 H 0.66982 0.32518 0.91724
 C1709 C 0.60113 0.10611 0.90303
 C1710 C 0.59691 0.15959 0.89833
 C1711 C 0.62237 0.18281 0.87162
 C1712 C 0.64724 0.14821 0.85465
 C1713 C 0.65916 0.12317 0.89664
 C1714 C 0.63389 0.10013 0.92328
 C1715 C 0.60391 0.08744 0.85530
 C1716 C 0.62935 0.11057 0.82877
 H1717 H 0.57726 0.18047 0.91456
 H1718 H 0.62336 0.22254 0.86621
 H1719 H 0.68420 0.12454 0.90910
 H1720 H 0.63895 0.08358 0.95705
 H1721 H 0.58909 0.05760 0.84126
 H1722 H 0.63569 0.09883 0.79376
 C1723 C 0.89819 0.39594 0.89796
 C1724 C 0.87881 0.43074 0.86576
 C1725 C 0.85471 0.40777 0.84110
 C1726 C 0.85214 0.35203 0.85075
 C1727 C 0.88669 0.33176 0.84097
 C1728 C 0.91065 0.35459 0.86559
 C1729 C 0.87213 0.37099 0.92855
 C1730 C 0.84813 0.34785 0.90394
 H1731 H 0.88372 0.47004 0.86253
 H1732 H 0.83905 0.42742 0.81678
 H1733 H 0.89206 0.30172 0.81706
 H1734 H 0.93609 0.34367 0.86236
 H1735 H 0.87198 0.37274 0.96624
 H1736 H 0.82781 0.32914 0.92080
 C1737 C 0.00079 0.50713 0.79653
 C1738 C 0.02882 0.48120 0.77626
 C1739 C 0.02883 0.48102 0.72623
 C1740 C 0.00088 0.50681 0.70581
 C1741 C -0.02801 0.48350 0.72621
 C1742 C -0.02809 0.48369 0.77618
 C1743 C 0.00180 0.55679 0.77582
 C1744 C 0.00184 0.55654 0.72595
 H1745 H 0.04842 0.46470 0.79659
 H1746 H 0.04836 0.46431 0.70591
 H1747 H -0.04803 0.46831 0.70588
 H1748 H -0.04826 0.46868 0.79645
 H1749 H 0.00301 0.59112 0.79535
 H1750 H 0.00309 0.59053 0.70588
 C1751 C 0.25186 0.74438 0.45421
 C1752 C 0.27538 0.78236 0.47571
 C1753 C 0.27515 0.78271 0.52315
 C1754 C 0.25163 0.74485 0.54497
 C1755 C 0.21821 0.75611 0.52312
 C1756 C 0.21833 0.75605 0.47567
 C1757 C 0.26202 0.69469 0.47612
 C1758 C 0.26192 0.69495 0.52359
 H1759 H 0.29080 0.80698 0.45540
 H1760 H 0.29004 0.80810 0.54323
 H1761 H 0.19608 0.76181 0.54324
 H1762 H 0.19636 0.76239 0.45526
 H1763 H 0.26931 0.66237 0.45625
 H1764 H 0.26906 0.66280 0.54383
 C1765 C 0.10188 0.60229 0.60155
 C1766 C 0.10475 0.65813 0.59277
 C1767 C 0.12876 0.68042 0.61816
 C1768 C 0.14774 0.64491 0.65018
 C1769 C 0.12136 0.61973 0.68001
 C1770 C 0.09745 0.59727 0.65464
 C1771 C 0.13641 0.58183 0.59202
 C1772 C 0.16027 0.60396 0.61738
 H1773 H 0.08938 0.67834 0.56848
 H1774 H 0.13385 0.71973 0.61558
 H1775 H 0.12103 0.62055 0.71774
 H1776 H 0.07698 0.57833 0.67090
 H1777 H 0.14185 0.55218 0.56772
 H1778 H 0.18567 0.59278 0.61438
 C1779 C 0.39868 0.89822 0.60397
 C1780 C 0.37263 0.93283 0.62468
 C1781 C 0.34847 0.90874 0.64825
 C1782 C 0.35254 0.85222 0.64902
 C1783 C 0.35548 0.83700 0.59761
 C1784 C 0.37953 0.86118 0.57398
 C1785 C 0.41102 0.86781 0.64588
 C1786 C 0.38696 0.84381 0.66938
 H1787 H 0.37332 0.97283 0.62150
 H1788 H 0.32851 0.92817 0.66521
 H1789 H 0.34080 0.80827 0.58166
 H1790 H 0.38501 0.85364 0.53759
 H1791 H 0.43638 0.86585 0.65691
 H1792 H 0.39213 0.82167 0.70010
 C1793 C 0.35100 0.64751 0.64669
 C1794 C 0.33855 0.61874 0.60386
 C1795 C 0.36259 0.59597 0.57916
 C1796 C 0.39714 0.60385 0.59931
 C1797 C 0.40094 0.66031 0.60199
 C1798 C 0.37682 0.68315 0.62677
 C1799 C 0.37045 0.60930 0.67488
 C1800 C 0.39465 0.58665 0.65025
 H1801 H 0.31312 0.61689 0.59320
 H1802 H 0.35736 0.57513 0.54769
 H1803 H 0.42066 0.68063 0.58539
 H1804 H 0.37597 0.72299 0.63128
 H1805 H 0.36456 0.59899 0.71038
 H1806 H 0.40984 0.55776 0.66519
 C1807 C 0.10146 0.90112 0.60472
 C1808 C 0.12415 0.86944 0.57429
 C1809 C 0.14823 0.84626 0.59865
 C1810 C 0.14755 0.85666 0.65133
 C1811 C 0.14852 0.91330 0.65538
 C1812 C 0.12437 0.93660 0.63097
 C1813 C 0.08873 0.86553 0.64259
 C1814 C 0.11273 0.84237 0.66685
 H1815 H 0.12156 0.86566 0.53675
 H1816 H 0.16624 0.82283 0.58194
 H1817 H 0.16643 0.93328 0.67597
 H1818 H 0.12161 0.97652 0.63076
 H1819 H 0.06308 0.85922 0.65029
 H1820 H 0.10715 0.81672 0.69488
 C1821 C 0.39724 0.60415 0.90069
 C1822 C 0.39729 0.66063 0.90690
 C1823 C 0.37320 0.68425 0.88264
 C1824 C 0.35120 0.64928 0.85436
 C1825 C 0.37489 0.61965 0.82359
 C1826 C 0.39891 0.59602 0.84773
 C1827 C 0.36240 0.58810 0.91448
 C1828 C 0.33844 0.61160 0.89037
 H1829 H 0.41464 0.68030 0.92870
 H1830 H 0.36998 0.72408 0.88371
 H1831 H 0.37317 0.61796 0.78599
 H1832 H 0.41752 0.57381 0.83064
 H1833 H 0.35680 0.56074 0.94103
 H1834 H 0.31277 0.60392 0.89674
 C1835 C 0.10077 0.90252 0.89301
 C1836 C 0.08904 0.87607 0.85155
 C1837 C 0.11447 0.85229 0.82581
 C1838 C 0.14702 0.85918 0.84604
 C1839 C 0.15115 0.91275 0.84924
 C1840 C 0.12560 0.93673 0.87517
 C1841 C 0.11877 0.86567 0.91998
 C1842 C 0.14426 0.84190 0.89416
 H1843 H 0.06405 0.87662 0.83878
 H1844 H 0.10968 0.83415 0.79273
 H1845 H 0.17095 0.93302 0.83274
 H1846 H 0.12471 0.97659 0.87971
 H1847 H 0.11275 0.85524 0.95552
 H1848 H 0.15923 0.81264 0.90896
 C1849 C 0.10193 0.60447 0.89994
 C1850 C 0.09717 0.66055 0.89478
 C1851 C 0.12131 0.68318 0.86992
 C1852 C 0.14807 0.64770 0.85240
 C1853 C 0.16027 0.62148 0.89685
 C1854 C 0.13621 0.59890 0.92163
 C1855 C 0.10560 0.58505 0.84986
 C1856 C 0.12985 0.60750 0.82513
 H1857 H 0.07686 0.68082 0.90990
 H1858 H 0.12158 0.72282 0.86390
 H1859 H 0.18549 0.62144 0.90862
 H1860 H 0.14120 0.57993 0.95425
 H1861 H 0.09123 0.55483 0.83571
 H1862 H 0.13667 0.59570 0.79036
 C1863 C 0.39839 0.89847 0.89631
 C1864 C 0.37630 0.93401 0.86871
 C1865 C 0.35214 0.91092 0.84419
 C1866 C 0.35221 0.85433 0.84946
 C1867 C 0.38703 0.83853 0.83524
 C1868 C 0.41105 0.86151 0.85961
 C1869 C 0.37478 0.86823 0.92673
 C1870 C 0.35069 0.84513 0.90231
 H1871 H 0.37951 0.97386 0.86828
 H1872 H 0.33474 0.93103 0.82281
 H1873 H 0.39257 0.81174 0.80819
 H1874 H 0.43670 0.85393 0.85298
 H1875 H 0.37669 0.86555 0.96428
 H1876 H 0.33217 0.82251 0.91911
 C1877 C 0.49842 0.50549 0.79550
 C1878 C 0.52871 0.48099 0.77378
 C1879 C 0.52866 0.48097 0.72630
 C1880 C 0.49833 0.50545 0.70472
 C1881 C 0.46904 0.47826 0.72647
 C1882 C 0.46909 0.47827 0.77400
 C1883 C 0.49733 0.55757 0.77375
 C1884 C 0.49728 0.55755 0.72635
 H1885 H 0.54864 0.46538 0.79403
 H1886 H 0.54855 0.46533 0.70595
 H1887 H 0.44977 0.46090 0.70623
 H1888 H 0.44987 0.46093 0.79441
 H1889 H 0.49650 0.59167 0.79364
 H1890 H 0.49643 0.59163 0.70639
 C1891 C 0.74948 0.74205 0.45428
 C1892 C 0.78221 0.75790 0.47569
 C1893 C 0.78237 0.75753 0.52314
 C1894 C 0.74972 0.74198 0.54508
 C1895 C 0.72397 0.77654 0.52352
 C1896 C 0.72383 0.77656 0.47608
 C1897 C 0.74231 0.69102 0.47602
 C1898 C 0.74242 0.69100 0.52352
 H1899 H 0.80391 0.76621 0.45527
 H1900 H 0.80439 0.76416 0.54312
 H1901 H 0.70683 0.79835 0.54386
 H1902 H 0.70662 0.79844 0.45592
 H1903 H 0.73710 0.65787 0.45605
 H1904 H 0.73733 0.65784 0.54360
 C1905 C 0.60167 0.60372 0.60104
 C1906 C 0.61259 0.65434 0.58267
 C1907 C 0.63661 0.67571 0.60868
 C1908 C 0.64745 0.64474 0.65099
 C1909 C 0.61584 0.63437 0.67829
 C1910 C 0.59196 0.61277 0.65228
 C1911 C 0.63337 0.57303 0.60419
 C1912 C 0.65721 0.59439 0.63032
 H1913 H 0.60278 0.67144 0.55139
 H1914 H 0.64752 0.71092 0.59931
 H1915 H 0.61244 0.64332 0.71485
 H1916 H 0.56836 0.60292 0.66697
 H1917 H 0.63683 0.53734 0.58764
 H1918 H 0.68067 0.57662 0.63610
 C1919 C 0.89845 0.89430 0.59977
 C1920 C 0.87202 0.87114 0.56869
 C1921 C 0.84791 0.84791 0.59307
 C1922 C 0.85245 0.84956 0.64629
 C1923 C 0.88684 0.82803 0.65460
 C1924 C 0.91082 0.85135 0.63035
 C1925 C 0.87970 0.92818 0.63355
 C1926 C 0.85564 0.90475 0.65790
 H1927 H 0.87186 0.87374 0.53088
 H1928 H 0.82691 0.83162 0.57612
 H1929 H 0.89203 0.79668 0.67706
 H1930 H 0.93614 0.83955 0.63241
 H1931 H 0.88501 0.96722 0.63805
 H1932 H 0.84038 0.92370 0.68322
 C1933 C 0.89699 0.60590 0.59723
 C1934 C 0.86216 0.59051 0.58270
 C1935 C 0.83813 0.61239 0.60808
 C1936 C 0.85086 0.64792 0.64591
 C1937 C 0.87454 0.61667 0.67511
 C1938 C 0.89862 0.59472 0.64975
 C1939 C 0.89696 0.66257 0.59378
 C1940 C 0.87279 0.68458 0.61923
 H1941 H 0.85660 0.56511 0.55450
 H1942 H 0.81247 0.60524 0.60121
 H1943 H 0.87242 0.61191 0.71247
 H1944 H 0.91707 0.57122 0.66561
 H1945 H 0.91414 0.68351 0.57272
 H1946 H 0.86930 0.72435 0.61979
 C1947 C 0.60262 0.89687 0.59949
 C1948 C 0.63662 0.90056 0.57670
 C1949 C 0.66066 0.87803 0.60153
 C1950 C 0.64864 0.85363 0.64704
 C1951 C 0.63129 0.89509 0.67382
 C1952 C 0.60731 0.91785 0.64885
 C1953 C 0.59707 0.84120 0.60646
 C1954 C 0.62112 0.81859 0.63138
 H1955 H 0.64145 0.91853 0.54353
 H1956 H 0.68577 0.87711 0.58927
 H1957 H 0.63789 0.90648 0.70889
 H1958 H 0.59380 0.94924 0.66229
 H1959 H 0.57606 0.82126 0.59303
 H1960 H 0.62042 0.77945 0.63958
 C1961 C 0.89713 0.60824 0.90410
 C1962 C 0.90003 0.66488 0.90301
 C1963 C 0.87584 0.68755 0.87817
 C1964 C 0.85094 0.65154 0.85664
 C1965 C 0.87148 0.61510 0.82797
 C1966 C 0.89564 0.59259 0.85266
 C1967 C 0.86246 0.59840 0.92309
 C1968 C 0.83838 0.62097 0.89835
 H1969 H 0.91915 0.68539 0.92074
 H1970 H 0.87427 0.72745 0.87478
 H1971 H 0.86676 0.60660 0.79171
 H1972 H 0.91179 0.56523 0.83721
 H1973 H 0.85715 0.57648 0.95391
 H1974 H 0.81286 0.61792 0.90835
 C1975 C 0.60086 0.89870 0.89709
 C1976 C 0.58875 0.86456 0.86125
 C1977 C 0.61407 0.84177 0.83469
 C1978 C 0.64704 0.85697 0.84857
 C1979 C 0.64699 0.91080 0.84492
 C1980 C 0.62151 0.93387 0.87163
 C1981 C 0.62343 0.86936 0.92533
 C1982 C 0.64887 0.84636 0.89856
 H1983 H 0.56319 0.85696 0.85400
 H1984 H 0.60850 0.81644 0.80644
 H1985 H 0.66406 0.93169 0.82359
 H1986 H 0.61793 0.97368 0.87199
 H1987 H 0.62123 0.86451 0.96285
 H1988 H 0.66734 0.82280 0.91432
 C1989 C 0.60193 0.60666 0.90212
 C1990 C 0.60035 0.66338 0.90284
 C1991 C 0.62439 0.68554 0.87732
 C1992 C 0.64787 0.64898 0.85335
 C1993 C 0.66071 0.61625 0.89339
 C1994 C 0.63679 0.59421 0.91877
 C1995 C 0.60172 0.59269 0.85011
 C1996 C 0.62577 0.61476 0.82466
 H1997 H 0.58212 0.68428 0.92203
 H1998 H 0.62667 0.72546 0.87476
 H1999 H 0.68637 0.61104 0.90168
 H2000 H 0.64242 0.57061 0.94834
 H2001 H 0.58449 0.56683 0.83480
 H2002 H 0.62927 0.60746 0.78779
 C2003 C 0.89838 0.89608 0.89772
 C2004 C 0.87912 0.93123 0.86570
 C2005 C 0.85500 0.90858 0.84083
 C2006 C 0.85229 0.85279 0.85012
 C2007 C 0.88680 0.83239 0.84028
 C2008 C 0.91078 0.85489 0.86511
 C2009 C 0.87224 0.87106 0.92810
 C2010 C 0.84821 0.84825 0.90327
 H2011 H 0.88413 0.97053 0.86274
 H2012 H 0.83942 0.92849 0.81659
 H2013 H 0.89213 0.80251 0.81619
 H2014 H 0.93619 0.84383 0.86187
 H2015 H 0.87208 0.87245 0.96580
 H2016 H 0.82784 0.82948 0.91997
   
