data_POSCAR
  _audit_creation_date              2014-09-24
  _audit_creation_method            'ToBaCCo'
  _symmetry_space_group_name_H-M    'P1'
  _symmetry_Int_Tables_number       1
  _symmetry_cell_setting            triclinic
  loop_
  _symmetry_equiv_pos_as_xyz
 x,y,z
_cell_length_a 70.7533
_cell_length_b 70.7167
_cell_length_c 70.7489
_cell_angle_alpha 89.976300
_cell_angle_beta 90.023000
_cell_angle_gamma 90.028400
loop_
  _atom_site_label
  _atom_site_type_symbol
  _atom_site_fract_x
  _atom_site_fract_y
  _atom_site_fract_z
C1 C 0.09887 0.01483 0.22704
 H2 H 0.09850 0.02577 0.23772
 C3 C 0.08851 0.01696 0.21034
 H4 H 0.08001 0.02952 0.20817
 C5 C 0.11101 -0.01456 0.21638
 H6 H 0.12018 -0.02657 0.21850
 C7 C 0.10089 -0.01298 0.19953
 H8 H 0.10212 -0.02390 0.18886
 N9 N 0.10983 -0.00076 0.22974
 C10 C 0.12068 -0.00507 0.29025
 H11 H 0.13593 -0.00607 0.28981
 C12 C 0.11125 -0.00626 0.30751
 H13 H 0.11924 -0.00811 0.32044
 C14 C 0.09160 -0.00164 0.27388
 H15 H 0.08403 -0.00008 0.26071
 C16 C 0.08158 -0.00277 0.29089
 H17 H 0.06630 -0.00191 0.29083
 Zn18 Zn 0.12533 -0.00185 0.25152
 N19 N 0.11082 -0.00262 0.27392
 C20 C 0.13970 0.03278 0.26562
 N21 N 0.14074 0.02001 0.25126
 C22 C 0.15156 0.02337 0.23571
 C23 C 0.16190 0.04015 0.23418
 C24 C 0.14981 0.04970 0.26466
 C25 C 0.13021 -0.04067 0.25302
 C26 C 0.13972 -0.05792 0.25334
 C27 C 0.16929 -0.04099 0.25036
 C28 C 0.15917 -0.02400 0.25010
 N29 N 0.13997 -0.02419 0.25124
 H30 H 0.13064 0.03013 0.27762
 H31 H 0.15182 0.01316 0.22433
 H32 H 0.17027 0.04286 0.22165
 H33 H 0.14867 0.05990 0.27603
 H34 H 0.11496 -0.04035 0.25417
 H35 H 0.13172 -0.07094 0.25468
 H36 H 0.18458 -0.04071 0.24938
 H37 H 0.16666 -0.01072 0.24908
 C38 C 0.09154 -0.00507 0.30784
 C39 C 0.08965 0.00297 0.19643
 C40 C 0.15944 -0.05811 0.25197
 C41 C 0.16089 0.05347 0.24876
 C42 C 0.40074 0.01828 0.77356
 H43 H 0.40157 0.02954 0.76324
 C44 C 0.41067 0.01974 0.79059
 H45 H 0.41931 0.03209 0.79337
 C46 C 0.38786 -0.01122 0.78299
 H47 H 0.37857 -0.02302 0.78027
 C48 C 0.39755 -0.01033 0.80015
 H49 H 0.39585 -0.02156 0.81043
 N50 N 0.38961 0.00296 0.77009
 C51 C 0.38024 0.00033 0.70923
 H52 H 0.36498 -0.00067 0.70932
 C53 C 0.39003 -0.00040 0.69216
 H54 H 0.38231 -0.00190 0.67902
 C55 C 0.40897 0.00331 0.72630
 H56 H 0.41626 0.00453 0.73966
 C57 C 0.41934 0.00264 0.70947
 H58 H 0.43462 0.00349 0.70988
 Zn59 Zn 0.37469 0.00265 0.74788
 N60 N 0.38975 0.00234 0.72582
 C61 C 0.36107 0.03771 0.73419
 N62 N 0.35949 0.02466 0.74825
 C63 C 0.34823 0.02777 0.76353
 C64 C 0.33794 0.04457 0.76506
 C65 C 0.35102 0.05465 0.73515
 C66 C 0.36951 -0.03606 0.74517
 C67 C 0.35988 -0.05324 0.74439
 C68 C 0.33041 -0.03622 0.74739
 C69 C 0.34062 -0.01929 0.74812
 N70 N 0.35984 -0.01956 0.74722
 H71 H 0.37046 0.03526 0.72243
 H72 H 0.34754 0.01733 0.77470
 H73 H 0.32918 0.04707 0.77736
 H74 H 0.35255 0.06506 0.72402
 H75 H 0.38477 -0.03581 0.74424
 H76 H 0.36773 -0.06631 0.74291
 H77 H 0.31513 -0.03598 0.74824
 H78 H 0.33320 -0.00600 0.74937
 C79 C 0.40974 0.00080 0.69227
 C80 C 0.40894 0.00533 0.80403
 C81 C 0.34018 -0.05333 0.74557
 C82 C 0.33945 0.05816 0.75076
 C83 C 0.90016 0.51694 0.27430
 H84 H 0.90101 0.52823 0.26401
 C85 C 0.91009 0.51834 0.29134
 H86 H 0.91872 0.53069 0.29413
 C87 C 0.88728 0.48739 0.28360
 H88 H 0.87802 0.47559 0.28080
 C89 C 0.89696 0.48821 0.30077
 H90 H 0.89525 0.47689 0.31097
 N91 N 0.88906 0.50162 0.27076
 C92 C 0.88022 0.49918 0.20983
 H93 H 0.86496 0.49821 0.20978
 C94 C 0.89016 0.49845 0.19285
 H95 H 0.88255 0.49698 0.17963
 C96 C 0.90880 0.50206 0.22716
 H97 H 0.91598 0.50323 0.24059
 C98 C 0.91932 0.50138 0.21043
 H99 H 0.93460 0.50218 0.21097
 Zn100 Zn 0.87432 0.50133 0.24842
 N101 N 0.88959 0.50113 0.22651
 C102 C 0.86086 0.53645 0.23475
 N103 N 0.85904 0.52331 0.24870
 C104 C 0.84755 0.52634 0.26382
 C105 C 0.83728 0.54317 0.26531
 C106 C 0.85084 0.55342 0.23568
 C107 C 0.86942 0.46263 0.24547
 C108 C 0.85994 0.44539 0.24433
 C109 C 0.83029 0.46216 0.24696
 C110 C 0.84036 0.47916 0.24806
 N111 N 0.85960 0.47904 0.24750
 H112 H 0.87043 0.53407 0.22312
 H113 H 0.84667 0.51584 0.27491
 H114 H 0.82835 0.54561 0.27750
 H115 H 0.85258 0.56390 0.22464
 H116 H 0.88470 0.46300 0.24481
 H117 H 0.86791 0.43240 0.24284
 H118 H 0.81499 0.46229 0.24752
 H119 H 0.83282 0.49239 0.24930
 C120 C 0.90987 0.49958 0.19313
 C121 C 0.90837 0.50386 0.30474
 C122 C 0.84021 0.44514 0.24512
 C123 C 0.83905 0.55686 0.25114
 C124 C 0.59845 0.51524 0.72877
 H125 H 0.59787 0.52632 0.73928
 C126 C 0.58793 0.51686 0.71211
 H127 H 0.57912 0.52917 0.70980
 C128 C 0.61121 0.48598 0.71848
 H129 H 0.62066 0.47422 0.72073
 C130 C 0.60094 0.48705 0.70168
 H131 H 0.60235 0.47599 0.69118
 N132 N 0.60978 0.49995 0.73164
 C133 C 0.62060 0.49653 0.79221
 H134 H 0.63587 0.49587 0.79183
 C135 C 0.61114 0.49522 0.80944
 H136 H 0.61912 0.49364 0.82242
 C137 C 0.59150 0.49914 0.77572
 H138 H 0.58394 0.50039 0.76251
 C139 C 0.58146 0.49787 0.79270
 H140 H 0.56616 0.49833 0.79258
 Zn141 Zn 0.62528 0.49941 0.75344
 N142 N 0.61074 0.49861 0.77583
 C143 C 0.63914 0.53438 0.76724
 N144 N 0.64036 0.52151 0.75299
 C145 C 0.65124 0.52484 0.73747
 C146 C 0.66152 0.54166 0.73591
 C147 C 0.64918 0.55134 0.76625
 C148 C 0.63075 0.46070 0.75541
 C149 C 0.64052 0.44360 0.75585
 C150 C 0.66982 0.46091 0.75261
 C151 C 0.65947 0.47776 0.75223
 N152 N 0.64027 0.47731 0.75343
 H153 H 0.63005 0.53175 0.77921
 H154 H 0.65165 0.51455 0.72617
 H155 H 0.66998 0.54430 0.72343
 H156 H 0.64796 0.56159 0.77755
 H157 H 0.61551 0.46081 0.75660
 H158 H 0.63280 0.43045 0.75731
 H159 H 0.68509 0.46130 0.75156
 H160 H 0.66678 0.49112 0.75105
 C161 C 0.59140 0.49591 0.80970
 C162 C 0.58929 0.50267 0.69841
 C163 C 0.66021 0.44369 0.75439
 C164 C 0.66039 0.55505 0.75040
 C165 C 0.27255 0.09963 0.98311
 H166 H 0.26193 0.09910 0.97211
 C167 C 0.28926 0.08925 0.98122
 H168 H 0.29151 0.08058 0.96880
 C169 C 0.28300 0.11212 1.01242
 H170 H 0.28079 0.12141 1.02431
 C171 C 0.29986 0.10199 1.01110
 H172 H 0.31043 0.10334 1.02210
 N173 N 0.26973 0.11075 0.99855
 C174 C 0.20912 0.12105 1.00254
 H175 H 0.20942 0.13633 1.00339
 C176 C 0.19197 0.11145 1.00387
 H177 H 0.17896 0.11933 1.00566
 C178 C 0.22577 0.09210 0.99945
 H179 H 0.23901 0.08463 0.99801
 C180 C 0.20886 0.08191 1.00073
 H181 H 0.20907 0.06661 1.00008
 Zn182 Zn 0.24782 0.12607 0.99946
 N183 N 0.22555 0.11133 1.00022
 C184 C 0.23367 0.14021 0.96476
 N185 N 0.24799 0.14145 0.97756
 C186 C 0.26339 0.15250 0.97427
 C187 C 0.26479 0.16293 0.95754
 C188 C 0.23451 0.15040 0.94789
 C189 C 0.24609 0.13097 1.03822
 C190 C 0.24559 0.14048 1.05546
 C191 C 0.24837 0.17010 1.03856
 C192 C 0.24883 0.15999 1.02158
 N193 N 0.24787 0.14076 1.02176
 H194 H 0.22180 0.13098 0.96736
 H195 H 0.27475 0.15292 0.98451
 H196 H 0.27720 0.17152 0.95490
 H197 H 0.22317 0.14915 0.93767
 H198 H 0.24509 0.11571 1.03789
 H199 H 0.24426 0.13245 1.06846
 H200 H 0.24921 0.18541 1.03830
 H201 H 0.24984 0.16749 1.00832
 C202 C 0.19182 0.09172 1.00295
 C203 C 0.30306 0.09054 0.99532
 C204 C 0.24677 0.16022 1.05567
 C205 C 0.25025 0.16177 0.94420
 C206 C 0.72604 0.39964 0.98449
 H207 H 0.73630 0.40053 0.97319
 C208 C 0.70895 0.40948 0.98310
 H209 H 0.70606 0.41810 0.97077
 C210 C 0.71683 0.38674 1.01404
 H211 H 0.71967 0.37749 1.02584
 C212 C 0.69962 0.39632 1.01321
 H213 H 0.68941 0.39460 1.02450
 N214 N 0.72965 0.38856 0.99981
 C215 C 0.79061 0.37994 1.00232
 H216 H 0.79069 0.36468 1.00337
 C217 C 0.80758 0.38993 1.00296
 H218 H 0.82081 0.38236 1.00446
 C219 C 0.77323 0.40847 0.99926
 H220 H 0.75979 0.41561 0.99805
 C221 C 0.78995 0.41904 0.99985
 H222 H 0.78938 0.43432 0.99894
 Zn223 Zn 0.75204 0.37390 1.00012
 N224 N 0.77391 0.38926 1.00031
 C225 C 0.76578 0.36043 0.96506
 N226 N 0.75180 0.35860 0.97816
 C227 C 0.73672 0.34704 0.97510
 C228 C 0.73530 0.33671 0.95830
 C229 C 0.76492 0.35036 0.94812
 C230 C 0.75500 0.36903 1.03881
 C231 C 0.75607 0.35956 1.05606
 C232 C 0.75339 0.32986 1.03929
 C233 C 0.75237 0.33994 1.02229
 N234 N 0.75298 0.35919 1.02241
 H235 H 0.77738 0.37005 0.96746
 H236 H 0.72561 0.34615 0.98556
 H237 H 0.72314 0.32773 0.95584
 H238 H 0.77598 0.35211 0.93768
 H239 H 0.75570 0.38431 1.03842
 H240 H 0.75753 0.36764 1.06901
 H241 H 0.75277 0.31455 1.03909
 H242 H 0.75114 0.33240 1.00908
 C243 C 0.80726 0.40964 1.00168
 C244 C 0.69559 0.40770 0.99757
 C245 C 0.75520 0.33980 1.05634
 C246 C 0.74950 0.33850 0.94466
 C247 C 0.22657 0.90029 0.48188
 H248 H 0.23689 0.90109 0.47062
 C249 C 0.20952 0.91016 0.48036
 H250 H 0.20671 0.91872 0.46798
 C251 C 0.21719 0.88754 0.51145
 H252 H 0.21995 0.87833 0.52330
 C253 C 0.20001 0.89717 0.51050
 H254 H 0.18975 0.89552 0.52174
 N255 N 0.23008 0.88927 0.49727
 C256 C 0.29099 0.88031 0.49993
 H257 H 0.29101 0.86504 0.50096
 C258 C 0.30799 0.89025 0.50066
 H259 H 0.32119 0.88263 0.50219
 C260 C 0.27372 0.90890 0.49690
 H261 H 0.26030 0.91609 0.49567
 C262 C 0.29047 0.91942 0.49758
 H263 H 0.28995 0.93471 0.49672
 Zn264 Zn 0.25236 0.87446 0.49768
 N265 N 0.27433 0.88969 0.49790
 C266 C 0.26606 0.86073 0.46267
 N267 N 0.25204 0.85912 0.47576
 C268 C 0.23681 0.84776 0.47271
 C269 C 0.23527 0.83742 0.45594
 C270 C 0.26508 0.85065 0.44575
 C271 C 0.25513 0.86958 0.53640
 C272 C 0.25596 0.86010 0.55365
 C273 C 0.25307 0.83045 0.53688
 C274 C 0.25229 0.84053 0.51987
 N275 N 0.25311 0.85977 0.51999
 H276 H 0.27778 0.87020 0.46507
 H277 H 0.22568 0.84704 0.48317
 H278 H 0.22298 0.82861 0.45349
 H279 H 0.27616 0.85223 0.43531
 H280 H 0.25598 0.88486 0.53603
 H281 H 0.25741 0.86806 0.56665
 H282 H 0.25228 0.81516 0.53675
 H283 H 0.25106 0.83299 0.50665
 C284 C 0.30774 0.90996 0.49945
 C285 C 0.19609 0.90848 0.49478
 C286 C 0.25486 0.84037 0.55390
 C287 C 0.24949 0.83900 0.44230
 C288 C 0.77352 0.59864 0.48335
 H289 H 0.76290 0.59827 0.47235
 C290 C 0.79018 0.58821 0.48136
 H291 H 0.79239 0.57966 0.46886
 C292 C 0.78404 0.61083 0.51277
 H293 H 0.78186 0.62002 0.52475
 C294 C 0.80085 0.60063 0.51135
 H295 H 0.81144 0.60184 0.52235
 N296 N 0.77076 0.60964 0.49890
 C297 C 0.71021 0.62010 0.50298
 H298 H 0.71055 0.63536 0.50399
 C299 C 0.69302 0.61053 0.50412
 H300 H 0.68003 0.61843 0.50593
 C301 C 0.72678 0.59113 0.49961
 H302 H 0.74000 0.58365 0.49812
 C303 C 0.70984 0.58098 0.50069
 H304 H 0.71000 0.56568 0.49985
 Zn305 Zn 0.74892 0.62503 0.49991
 N306 N 0.72661 0.61035 0.50060
 C307 C 0.73477 0.63936 0.46531
 N308 N 0.74912 0.64048 0.47808
 C309 C 0.76458 0.65146 0.47479
 C310 C 0.76600 0.66193 0.45809
 C311 C 0.73563 0.64960 0.44847
 C312 C 0.74727 0.62986 0.53871
 C313 C 0.74686 0.63937 0.55596
 C314 C 0.74973 0.66897 0.53908
 C315 C 0.75009 0.65887 0.52208
 N316 N 0.74905 0.63965 0.52225
 H317 H 0.72286 0.63018 0.46789
 H318 H 0.77596 0.65178 0.48501
 H319 H 0.77845 0.67046 0.45545
 H320 H 0.72426 0.64843 0.43826
 H321 H 0.74620 0.61460 0.53838
 H322 H 0.74554 0.63144 0.56900
 H323 H 0.75063 0.68426 0.53891
 H324 H 0.75110 0.66639 0.50883
 C325 C 0.69282 0.59081 0.50294
 C326 C 0.80399 0.58932 0.49547
 C327 C 0.74813 0.65909 0.55615
 C328 C 0.75142 0.66089 0.44478
 C329 C 0.01576 0.22641 0.09881
 H330 H 0.02705 0.23670 0.09804
 C331 C 0.01722 0.20935 0.08894
 H332 H 0.02961 0.20651 0.08041
 C333 C -0.01386 0.21711 0.11148
 H334 H -0.02571 0.21990 0.12067
 C335 C -0.01296 0.19992 0.10185
 H336 H -0.02423 0.18967 0.10348
 N337 N 0.00037 0.22996 0.10980
 C338 C -0.00194 0.29086 0.11895
 H339 H -0.00299 0.29080 0.13421
 C340 C -0.00257 0.30793 0.10912
 H341 H -0.00404 0.32108 0.11686
 C342 C 0.00103 0.27372 0.09028
 H343 H 0.00220 0.26033 0.08303
 C344 C 0.00046 0.29054 0.07985
 H345 H 0.00134 0.29005 0.06457
 Zn346 Zn 0.00009 0.25223 0.12464
 N347 N 0.00001 0.27424 0.10949
 C348 C 0.03519 0.26572 0.13833
 N349 N 0.02201 0.25179 0.13999
 C350 C 0.02496 0.23656 0.15139
 C351 C 0.04175 0.23493 0.16170
 C352 C 0.05212 0.26465 0.14839
 C353 C -0.03860 0.25523 0.12947
 C354 C -0.05582 0.25640 0.13895
 C355 C -0.03906 0.25363 0.16860
 C356 C -0.02208 0.25251 0.15854
 N357 N -0.02221 0.25313 0.13930
 H358 H 0.03287 0.27743 0.12882
 H359 H 0.01442 0.22549 0.15214
 H360 H 0.04412 0.22265 0.17055
 H361 H 0.06264 0.27567 0.14677
 H362 H -0.03823 0.25594 0.11420
 H363 H -0.06881 0.25794 0.13097
 H364 H -0.03893 0.25303 0.18390
 H365 H -0.00886 0.25122 0.16608
 C366 C -0.00133 0.30779 0.08940
 C367 C 0.00277 0.19595 0.09059
 C368 C -0.05607 0.25555 0.15867
 C369 C 0.05548 0.24908 0.16008
 C370 C 0.01571 0.77208 0.40092
 H371 H 0.02669 0.76145 0.40137
 C372 C 0.01767 0.78876 0.41135
 H373 H 0.03012 0.79096 0.41999
 C374 C -0.01360 0.78266 0.38851
 H375 H -0.02551 0.78052 0.37922
 C376 C -0.01220 0.79949 0.39871
 H377 H -0.02316 0.81010 0.39740
 N378 N 0.00024 0.76935 0.38979
 C379 C -0.00391 0.70881 0.37878
 H380 H -0.00488 0.70932 0.36353
 C381 C -0.00510 0.69150 0.38814
 H382 H -0.00693 0.67860 0.38009
 C383 C -0.00055 0.72505 0.40794
 H384 H 0.00098 0.73819 0.41557
 C385 C -0.00169 0.70798 0.41788
 H386 H -0.00087 0.70797 0.43317
 Zn387 Zn -0.00071 0.74758 0.37425
 N388 N -0.00150 0.72510 0.38871
 C389 C 0.03396 0.73350 0.36002
 N390 N 0.02122 0.74788 0.35893
 C391 C 0.02459 0.76341 0.34806
 C392 C 0.04135 0.76487 0.33769
 C393 C 0.05085 0.73439 0.34988
 C394 C -0.03948 0.74596 0.36921
 C395 C -0.05670 0.74566 0.35964
 C396 C -0.03971 0.74882 0.33013
 C397 C -0.02275 0.74907 0.34031
 N398 N -0.02299 0.74783 0.35951
 H399 H 0.03130 0.72152 0.36911
 H400 H 0.01441 0.77481 0.34775
 H401 H 0.04405 0.77737 0.32926
 H402 H 0.06101 0.72300 0.35103
 H403 H -0.03920 0.74475 0.38445
 H404 H -0.06973 0.74427 0.36759
 H405 H -0.03940 0.74989 0.31484
 H406 H -0.00947 0.75016 0.33286
 C407 C -0.00396 0.69107 0.40785
 C408 C 0.00362 0.80262 0.41012
 C409 C -0.05685 0.74714 0.33992
 C410 C 0.05462 0.75026 0.33871
 C411 C 0.51677 0.27270 0.90095
 H412 H 0.52769 0.26201 0.90143
 C413 C 0.51876 0.28935 0.91143
 H414 H 0.53119 0.29146 0.92013
 C415 C 0.48756 0.28343 0.88846
 H416 H 0.47567 0.28135 0.87913
 C417 C 0.48899 0.30023 0.89869
 H418 H 0.47808 0.31089 0.89738
 N419 N 0.50133 0.27005 0.88977
 C420 C 0.49686 0.20951 0.87903
 H421 H 0.49599 0.20992 0.86377
 C422 C 0.49549 0.19228 0.88850
 H423 H 0.49364 0.17933 0.88053
 C424 C 0.50011 0.22594 0.90809
 H425 H 0.50165 0.23912 0.91565
 C426 C 0.49879 0.20894 0.91815
 H427 H 0.49950 0.20904 0.93344
 Zn428 Zn 0.50029 0.24825 0.87430
 N429 N 0.49930 0.22586 0.88887
 C430 C 0.53493 0.23394 0.86028
 N431 N 0.52226 0.24836 0.85905
 C432 C 0.52577 0.26385 0.84817
 C433 C 0.54261 0.26522 0.83793
 C434 C 0.55191 0.23474 0.85027
 C435 C 0.46152 0.24685 0.86919
 C436 C 0.44432 0.24662 0.85959
 C437 C 0.46134 0.24962 0.83012
 C438 C 0.47830 0.24979 0.84030
 N439 N 0.47804 0.24860 0.85951
 H440 H 0.53217 0.22200 0.86938
 H441 H 0.51564 0.27529 0.84776
 H442 H 0.54544 0.27769 0.82949
 H443 H 0.56203 0.22332 0.85154
 H444 H 0.46178 0.24566 0.88444
 H445 H 0.43124 0.24532 0.86745
 H446 H 0.46158 0.25064 0.81484
 H447 H 0.49159 0.25079 0.83286
 C448 C 0.49648 0.19198 0.90822
 C449 C 0.50477 0.30326 0.91019
 C450 C 0.44422 0.24806 0.83990
 C451 C 0.55583 0.25057 0.83910
 C452 C 0.51698 0.72763 0.59997
 H453 H 0.52835 0.73782 0.59907
 C454 C 0.51808 0.71065 0.58991
 H455 H 0.53028 0.70776 0.58112
 C456 C 0.48750 0.71850 0.61309
 H457 H 0.47584 0.72133 0.62251
 C458 C 0.48804 0.70140 0.60329
 H459 H 0.47669 0.69126 0.60503
 N460 N 0.50182 0.73123 0.61126
 C461 C 0.49991 0.79215 0.62042
 H462 H 0.49915 0.79216 0.63569
 C463 C 0.49914 0.80918 0.61052
 H464 H 0.49785 0.82238 0.61816
 C465 C 0.50229 0.77488 0.59176
 H466 H 0.50326 0.76146 0.58454
 C467 C 0.50155 0.79165 0.58128
 H468 H 0.50212 0.79114 0.56599
 Zn469 Zn 0.50188 0.75347 0.62614
 N470 N 0.50163 0.77548 0.61099
 C471 C 0.53717 0.76685 0.63945
 N472 N 0.52400 0.75292 0.64119
 C473 C 0.52705 0.73765 0.65250
 C474 C 0.54392 0.73600 0.66268
 C475 C 0.55418 0.76576 0.64938
 C476 C 0.46329 0.75661 0.63148
 C477 C 0.44616 0.75750 0.64115
 C478 C 0.46322 0.75421 0.67058
 C479 C 0.48011 0.75339 0.66033
 N480 N 0.47978 0.75437 0.64111
 H481 H 0.53476 0.77861 0.63002
 H482 H 0.51652 0.72658 0.65332
 H483 H 0.54636 0.72370 0.67148
 H484 H 0.56468 0.77680 0.64772
 H485 H 0.46350 0.75759 0.61622
 H486 H 0.43309 0.75911 0.63333
 H487 H 0.46350 0.75327 0.68586
 H488 H 0.49340 0.75197 0.66771
 C489 C 0.49998 0.80893 0.59079
 C490 C 0.50351 0.69739 0.59169
 C491 C 0.44611 0.75621 0.66085
 C492 C 0.55763 0.75016 0.66100
 C493 C 0.90398 0.98395 0.72611
 H494 H 0.90511 0.97270 0.73642
 C495 C 0.91389 0.98309 0.70998
 H496 H 0.92310 0.97116 0.70728
 C497 C 0.88968 1.01329 0.71741
 H498 H 0.87991 1.02471 0.71994
 C499 C 0.90036 1.01298 0.69955
 H500 H 0.89844 1.02438 0.68947
 N501 N 0.89162 0.99972 0.72973
 C502 C 0.88157 1.00400 0.79146
 H503 H 0.86639 1.00588 0.79114
 C504 C 0.89075 1.00401 0.80796
 H505 H 0.88300 1.00594 0.82102
 C506 C 0.91002 0.99931 0.77385
 H507 H 0.91738 0.99739 0.76062
 C508 C 0.92076 0.99920 0.79178
 H509 H 0.93594 0.99709 0.79148
 Zn510 Zn 0.87663 0.99997 0.75198
 N511 N 0.89169 1.00116 0.77406
 C512 C 0.86413 0.96532 0.76734
 N513 N 0.86208 0.97743 0.75251
 C514 C 0.85068 0.97306 0.73762
 C515 C 0.84063 0.95600 0.73741
 C516 C 0.85436 0.94819 0.76770
 C517 C 0.87035 1.03857 0.75412
 C518 C 0.86043 1.05558 0.75330
 C519 C 0.83157 1.03787 0.74867
 C520 C 0.84206 1.02111 0.74959
 N521 N 0.86115 1.02181 0.75194
 H522 H 0.87361 0.96869 0.77880
 H523 H 0.84959 0.98273 0.72582
 H524 H 0.83168 0.95255 0.72548
 H525 H 0.85622 0.93862 0.77951
 H526 H 0.88551 1.03869 0.75610
 H527 H 0.86794 1.06886 0.75470
 H528 H 0.81643 1.03728 0.74647
 H529 H 0.83499 1.00765 0.74817
 C530 C 0.91143 1.00123 0.80817
 C531 C 0.91193 0.99846 0.69591
 C532 C 0.84091 1.05524 0.75035
 C533 C 0.84255 0.94346 0.75261
 C534 C 0.40128 0.48435 0.22817
 H535 H 0.40216 0.47299 0.23837
 C536 C 0.41184 0.48350 0.21146
 H537 H 0.42098 0.47150 0.20881
 C538 C 0.38783 0.51357 0.21871
 H539 H 0.37814 0.52507 0.22126
 C540 C 0.39811 0.51328 0.20191
 H541 H 0.39643 0.52464 0.19176
 N542 N 0.38963 0.49931 0.23152
 C543 C 0.37947 0.50314 0.29227
 H544 H 0.36429 0.50495 0.29188
 C545 C 0.38890 0.50291 0.30958
 H546 H 0.38099 0.50461 0.32258
 C547 C 0.40828 0.49837 0.27581
 H548 H 0.41575 0.49659 0.26262
 C549 C 0.41829 0.49804 0.29288
 H550 H 0.43346 0.49595 0.29280
 Zn551 Zn 0.37437 0.49954 0.25358
 N552 N 0.38916 0.50052 0.27587
 C553 C 0.36149 0.46481 0.26851
 N554 N 0.35971 0.47706 0.25376
 C555 C 0.34854 0.47286 0.23865
 C556 C 0.33843 0.45585 0.23813
 C557 C 0.35165 0.44772 0.26856
 C558 C 0.36816 0.53820 0.25562
 C559 C 0.35826 0.55522 0.25461
 C560 C 0.32945 0.53751 0.24966
 C561 C 0.33991 0.52076 0.25078
 N562 N 0.35897 0.52144 0.25336
 H563 H 0.37081 0.46803 0.28014
 H564 H 0.34768 0.48264 0.22691
 H565 H 0.32967 0.45253 0.22602
 H566 H 0.35329 0.43803 0.28031
 H567 H 0.38329 0.53831 0.25780
 H568 H 0.36577 0.56849 0.25606
 H569 H 0.31434 0.53693 0.24726
 H570 H 0.33284 0.50730 0.24930
 C571 C 0.40845 0.50012 0.30990
 C572 C 0.41018 0.49811 0.19821
 C573 C 0.33878 0.55489 0.25140
 C574 C 0.34006 0.44317 0.25324
 C575 C 0.59794 0.98735 0.27516
 H576 H 0.59635 0.97572 0.26534
 C577 C 0.58855 0.98722 0.29161
 H578 H 0.57931 0.97550 0.29508
 C579 C 0.61281 1.01686 0.28222
 H580 H 0.62258 1.02808 0.27890
 C581 C 0.60273 1.01734 0.30042
 H582 H 0.60505 1.02912 0.30995
 N583 N 0.61029 1.00285 0.27050
 C584 C 0.61692 1.00451 0.20919
 H585 H 0.63212 1.00607 0.20859
 C586 C 0.60643 1.00396 0.19252
 H587 H 0.61354 1.00514 0.17901
 C588 C 0.58910 1.00078 0.22754
 H589 H 0.58244 0.99958 0.24121
 C590 C 0.57805 1.00015 0.21114
 H591 H 0.56288 0.99838 0.21222
 Zn592 Zn 0.62430 1.00221 0.24762
 N593 N 0.60822 1.00258 0.22623
 C594 C 0.63623 0.96696 0.23314
 N595 N 0.63884 0.97966 0.24737
 C596 C 0.65095 0.97599 0.26187
 C597 C 0.66126 0.95910 0.26223
 C598 C 0.64623 0.94997 0.23296
 C599 C 0.63060 1.04073 0.24388
 C600 C 0.64060 1.05772 0.24390
 C601 C 0.66956 1.04001 0.24784
 C602 C 0.65898 1.02329 0.24773
 N603 N 0.63981 1.02400 0.24616
 H604 H 0.62619 0.96978 0.22202
 H605 H 0.65248 0.98613 0.27322
 H606 H 0.67084 0.95624 0.27383
 H607 H 0.64398 0.93994 0.22160
 H608 H 0.61537 1.04085 0.24252
 H609 H 0.63303 1.07098 0.24250
 H610 H 0.68478 1.03938 0.24951
 H611 H 0.66605 1.00985 0.24923
 C612 C 0.58685 1.00156 0.19349
 C613 C 0.59109 1.00311 0.30498
 C614 C 0.66023 1.05739 0.24614
 C615 C 0.65885 0.94600 0.24761
 C616 C 0.09776 0.48835 0.77436
 H617 H 0.09634 0.47677 0.76447
 C618 C 0.08784 0.48800 0.79147
 H619 H 0.07866 0.47618 0.79475
 C620 C 0.11187 0.51764 0.78257
 H621 H 0.12155 0.52898 0.77935
 C622 C 0.10225 0.51785 0.79975
 H623 H 0.10441 0.52944 0.80953
 N624 N 0.10939 0.50311 0.77018
 C625 C 0.11661 0.50566 0.70895
 H626 H 0.13180 0.50743 0.70855
 C627 C 0.10634 0.50510 0.69214
 H628 H 0.11361 0.50649 0.67873
 C629 C 0.08862 0.50135 0.72690
 H630 H 0.08179 0.49989 0.74047
 C631 C 0.07778 0.50069 0.71036
 H632 H 0.06263 0.49865 0.71122
 Zn633 Zn 0.12358 0.50283 0.74742
 N634 N 0.10773 0.50343 0.72585
 C635 C 0.13581 0.46785 0.73255
 N636 N 0.13820 0.48034 0.74700
 C637 C 0.15010 0.47647 0.76163
 C638 C 0.16041 0.45958 0.76190
 C639 C 0.14583 0.45088 0.73227
 C640 C 0.12983 0.54144 0.74434
 C641 C 0.13981 0.55843 0.74480
 C642 C 0.16873 0.54071 0.74886
 C643 C 0.15818 0.52397 0.74831
 N644 N 0.13903 0.52468 0.74647
 H645 H 0.12593 0.47082 0.72132
 H646 H 0.15144 0.48643 0.77315
 H647 H 0.16981 0.45655 0.77361
 H648 H 0.14375 0.44101 0.72074
 H649 H 0.11462 0.54156 0.74278
 H650 H 0.13229 0.57172 0.74352
 H651 H 0.18391 0.54011 0.75072
 H652 H 0.16526 0.51052 0.74969
 C653 C 0.08679 0.50237 0.69283
 C654 C 0.09015 0.50291 0.80426
 C655 C 0.15939 0.55808 0.74731
 C656 C 0.15822 0.44669 0.74706
 C657 C 0.77290 0.90244 0.01459
 H658 H 0.76262 0.90354 0.02586
 C659 C 0.78968 0.91289 0.01545
 H660 H 0.79233 0.92216 0.02734
 C661 C 0.78244 0.88856 -0.01439
 H662 H 0.77987 0.87876 -0.02578
 C663 C 0.79932 0.89872 -0.01408
 H664 H 0.80952 0.89684 -0.02535
 N665 N 0.76955 0.89064 -0.00025
 C666 C 0.70875 0.88106 -0.00456
 H667 H 0.70901 0.86586 -0.00626
 C668 C 0.69154 0.89065 -0.00456
 H669 H 0.67848 0.88284 -0.00630
 C670 C 0.72545 0.90978 0.00016
 H671 H 0.73870 0.91714 0.00200
 C672 C 0.70849 0.91994 0.00027
 H673 H 0.70869 0.93513 0.00227
 Zn674 Zn 0.74732 0.87561 -0.00054
 N675 N 0.72522 0.89063 -0.00186
 C676 C 0.73195 0.86320 0.03414
 N677 N 0.74677 0.86114 0.02205
 C678 C 0.76168 0.84978 0.02645
 C679 C 0.76190 0.83977 0.04352
 C680 C 0.73160 0.85346 0.05128
 C681 C 0.74549 0.86913 -0.03913
 C682 C 0.74647 0.85910 -0.05605
 C683 C 0.75092 0.83033 -0.03812
 C684 C 0.74984 0.84093 -0.02146
 N685 N 0.74752 0.86003 -0.02230
 H686 H 0.72048 0.87266 0.03075
 H687 H 0.77348 0.84870 0.01680
 H688 H 0.77384 0.83085 0.04701
 H689 H 0.71979 0.85532 0.06084
 H690 H 0.74351 0.88429 -0.03935
 H691 H 0.74520 0.86653 -0.06939
 H692 H 0.75311 0.81519 -0.03742
 H693 H 0.75113 0.83394 -0.00795
 C694 C 0.69139 0.91022 -0.00190
 C695 C 0.80301 0.91096 0.00096
 C696 C 0.74941 0.83957 -0.05556
 C697 C 0.74670 0.84168 0.05604
 C698 C 0.27390 0.40171 0.51289
 H699 H 0.26362 0.40287 0.52414
 C700 C 0.29064 0.41224 0.51365
 H701 H 0.29324 0.42163 0.52546
 C702 C 0.28350 0.38763 0.48402
 H703 H 0.28096 0.37774 0.47270
 C704 C 0.30034 0.39787 0.48424
 H705 H 0.31054 0.39595 0.47299
 N706 N 0.27059 0.38979 0.49814
 C707 C 0.20980 0.38019 0.49387
 H708 H 0.21007 0.36498 0.49225
 C709 C 0.19259 0.38977 0.49384
 H710 H 0.17953 0.38193 0.49215
 C711 C 0.22649 0.40895 0.49844
 H712 H 0.23973 0.41633 0.50025
 C713 C 0.20951 0.41910 0.49852
 H714 H 0.20970 0.43429 0.50047
 Zn715 Zn 0.24836 0.37476 0.49793
 N716 N 0.22627 0.38979 0.49652
 C717 C 0.23296 0.36270 0.53270
 N718 N 0.24776 0.36042 0.52061
 C719 C 0.26256 0.34897 0.52509
 C720 C 0.26271 0.33907 0.54223
 C721 C 0.23254 0.35308 0.54990
 C722 C 0.24651 0.36813 0.45939
 C723 C 0.24731 0.35804 0.44250
 C724 C 0.25157 0.32929 0.46051
 C725 C 0.25067 0.33997 0.47714
 N726 N 0.24851 0.35908 0.47625
 H727 H 0.22157 0.37224 0.52926
 H728 H 0.27435 0.34771 0.51543
 H729 H 0.27457 0.33007 0.54577
 H730 H 0.22075 0.35512 0.55946
 H731 H 0.24466 0.38332 0.45912
 H732 H 0.24603 0.36543 0.42914
 H733 H 0.25360 0.31413 0.46125
 H734 H 0.25194 0.33301 0.49067
 C735 C 0.19242 0.40935 0.49642
 C736 C 0.30397 0.41026 0.49917
 C737 C 0.25005 0.33848 0.44304
 C738 C 0.24754 0.34120 0.55474
 C739 C 0.22499 0.59749 0.01149
 H740 H 0.23482 0.59596 0.02310
 C741 C 0.20785 0.58760 0.01167
 H742 H 0.20452 0.57835 0.02342
 C743 C 0.21697 0.61185 -0.01773
 H744 H 0.22027 0.62161 -0.02897
 C745 C 0.19975 0.60227 -0.01811
 H746 H 0.19006 0.60458 -0.02976
 N747 N 0.22928 0.60923 -0.00316
 C748 C 0.29055 0.61633 -0.00529
 H749 H 0.29100 0.63153 -0.00693
 C750 C 0.30732 0.60601 -0.00471
 H751 H 0.32076 0.61326 -0.00595
 C752 C 0.27249 0.58833 -0.00131
 H753 H 0.25889 0.58152 0.00001
 C754 C 0.28899 0.57745 -0.00064
 H755 H 0.28807 0.56228 0.00128
 Zn756 Zn 0.25208 0.62337 -0.00263
 N757 N 0.27360 0.60746 -0.00323
 C758 C 0.26680 0.63524 0.03254
 N759 N 0.25244 0.63780 0.01999
 C760 C 0.23784 0.64973 0.02388
 C761 C 0.23751 0.65987 0.04086
 C762 C 0.26702 0.64509 0.04962
 C763 C 0.25539 0.62991 -0.04115
 C764 C 0.25506 0.64002 -0.05807
 C765 C 0.25098 0.66883 -0.04017
 C766 C 0.25140 0.65816 -0.02351
 N767 N 0.25319 0.63900 -0.02435
 H768 H 0.27800 0.62535 0.02955
 H769 H 0.22638 0.65121 0.01386
 H770 H 0.22583 0.66928 0.04391
 H771 H 0.27849 0.64286 0.05953
 H772 H 0.25691 0.61469 -0.04137
 H773 H 0.25640 0.63258 -0.07139
 H774 H 0.24914 0.68402 -0.03948
 H775 H 0.24995 0.66515 -0.01003
 C776 C 0.30656 0.58643 -0.00213
 C777 C 0.19511 0.59005 -0.00329
 C778 C 0.25260 0.65961 -0.05759
 C779 C 0.25227 0.65749 0.05383
 C780 C 0.72581 0.09925 0.51253
 H781 H 0.73559 0.09757 0.52417
 C782 C 0.70861 0.08946 0.51256
 H783 H 0.70514 0.08013 0.52419
 C784 C 0.71801 0.11385 0.48337
 H785 H 0.72143 0.12366 0.47220
 C786 C 0.70074 0.10436 0.48285
 H787 H 0.69110 0.10677 0.47119
 N788 N 0.73024 0.11105 0.49797
 C789 C 0.79157 0.11760 0.49621
 H790 H 0.79218 0.13282 0.49477
 C791 C 0.80823 0.10709 0.49665
 H792 H 0.82175 0.11422 0.49551
 C793 C 0.77321 0.08974 0.49974
 H794 H 0.75954 0.08305 0.50091
 C795 C 0.78959 0.07867 0.50026
 H796 H 0.78851 0.06348 0.50192
 Zn797 Zn 0.75316 0.12499 0.49866
 N798 N 0.77453 0.10888 0.49810
 C799 C 0.76779 0.13665 0.53395
 N800 N 0.75353 0.13937 0.52130
 C801 C 0.73903 0.15144 0.52511
 C802 C 0.73870 0.16158 0.54209
 C803 C 0.76800 0.14648 0.55103
 C804 C 0.75674 0.13152 0.46020
 C805 C 0.75660 0.14163 0.44328
 C806 C 0.75270 0.17049 0.46115
 C807 C 0.75293 0.15981 0.47781
 N808 N 0.75453 0.14064 0.47698
 H809 H 0.77890 0.12664 0.53102
 H810 H 0.72765 0.15305 0.51502
 H811 H 0.72710 0.17111 0.54508
 H812 H 0.77937 0.14414 0.56102
 H813 H 0.75811 0.11629 0.45998
 H814 H 0.75792 0.13418 0.42996
 H815 H 0.75100 0.18569 0.46183
 H816 H 0.75148 0.16682 0.49129
 C817 C 0.80726 0.08749 0.49890
 C818 C 0.69598 0.09208 0.49755
 C819 C 0.75432 0.16125 0.44374
 C820 C 0.75334 0.15904 0.55516
 C821 C 0.98785 0.72497 0.90340
 H822 H 0.97627 0.73485 0.90493
 C823 C 0.98769 0.70858 0.91293
 H824 H 0.97600 0.70523 0.92223
 C825 C 1.01726 0.71768 0.88851
 H826 H 1.02845 0.72087 0.87868
 C827 C 1.01771 0.69955 0.89875
 H828 H 1.02943 0.68994 0.89645
 N829 N 1.00331 0.72948 0.89095
 C830 C 1.00542 0.79168 0.88297
 H831 H 1.00711 0.79200 0.86778
 C832 C 1.00495 0.80782 0.89277
 H833 H 1.00630 0.82123 0.88549
 C834 C 1.00175 0.77283 0.91080
 H835 H 1.00041 0.75928 0.91770
 C836 C 1.00113 0.79034 0.92221
 H837 H 0.99924 0.78939 0.93739
 Zn838 Zn 1.00267 0.75221 0.87668
 N839 N 1.00334 0.77381 0.89247
 C840 C 0.96749 0.76688 0.86484
 N841 N 0.97999 0.75246 0.86237
 C842 C 0.97602 0.73777 0.85058
 C843 C 0.95901 0.73740 0.84047
 C844 C 0.95040 0.76707 0.85503
 C845 C 1.04112 0.75570 0.86990
 C846 C 1.05798 0.75538 0.85970
 C847 C 1.03990 0.75099 0.83103
 C848 C 1.02332 0.75140 0.84180
 N849 N 1.02428 0.75334 0.86092
 H850 H 0.97057 0.77817 0.87462
 H851 H 0.98600 0.72627 0.84916
 H852 H 0.95590 0.72565 0.83116
 H853 H 0.94053 0.77859 0.85717
 H854 H 1.04144 0.75733 0.88510
 H855 H 1.07134 0.75684 0.86704
 H856 H 1.03912 0.74903 0.81587
 H857 H 1.00979 0.74983 0.83490
 C858 C 1.00243 0.80714 0.91348
 C859 C 1.00350 0.69513 0.91044
 C860 C 1.05738 0.75276 0.84014
 C861 C 0.94610 0.75222 0.84275
 C862 C 0.48675 0.22683 0.40110
 H863 H 0.47502 0.23654 0.40256
 C864 C 0.48675 0.20972 0.41105
 H865 H 0.47505 0.20626 0.42030
 C866 C 0.51608 0.21910 0.38686
 H867 H 0.52731 0.22250 0.37712
 C868 C 0.51663 0.20192 0.39652
 H869 H 0.52837 0.19233 0.39432
 N870 N 0.50137 0.23125 0.38938
 C871 C 0.50272 0.29255 0.38217
 H872 H 0.50429 0.29301 0.36697
 C873 C 0.50202 0.30933 0.39248
 H874 H 0.50310 0.32278 0.38522
 C875 C 0.49910 0.27445 0.41018
 H876 H 0.49799 0.26083 0.41701
 C877 C 0.49831 0.29095 0.42106
 H878 H 0.49652 0.29002 0.43624
 Zn879 Zn 0.50061 0.25402 0.37519
 N880 N 0.50091 0.27558 0.39105
 C881 C 0.46529 0.26824 0.36315
 N882 N 0.47804 0.25404 0.36069
 C883 C 0.47440 0.23936 0.34877
 C884 C 0.45749 0.23880 0.33852
 C885 C 0.44828 0.26822 0.35320
 C886 C 0.53909 0.25778 0.36876
 C887 C 0.55602 0.25768 0.35870
 C888 C 0.53821 0.25344 0.32985
 C889 C 0.52154 0.25364 0.34048
 N890 N 0.52233 0.25539 0.35963
 H891 H 0.46809 0.27950 0.37305
 H892 H 0.48458 0.22804 0.34736
 H893 H 0.45464 0.22706 0.32910
 H894 H 0.43821 0.27956 0.35534
 H895 H 0.53928 0.25928 0.38398
 H896 H 0.56932 0.25914 0.36616
 H897 H 0.53756 0.25162 0.31466
 H898 H 0.50808 0.25205 0.33346
 C899 C 0.49958 0.30854 0.41206
 C900 C 0.50185 0.19717 0.40870
 C901 C 0.55560 0.25524 0.33910
 C902 C 0.44433 0.25339 0.34079
 C903 C 0.98560 0.27317 0.59776
 H904 H 0.97434 0.26288 0.59675
 C905 C 0.98467 0.28994 0.58727
 H906 H 0.97270 0.29251 0.57807
 C907 C 1.01467 0.28277 0.61143
 H908 H 1.02614 0.28023 0.62116
 C909 C 1.01431 0.29964 0.60123
 H910 H 1.02563 0.30982 0.60304
 N911 N 1.00053 0.26985 0.60946
 C912 C 1.00486 0.20899 0.61901
 H913 H 1.00666 0.20925 0.63420
 C914 C 1.00483 0.19177 0.60942
 H915 H 1.00665 0.17871 0.61722
 C916 C 0.99996 0.22570 0.59034
 H917 H 0.99807 0.23895 0.58298
 C918 C 0.99982 0.20872 0.58017
 H919 H 0.99774 0.20892 0.56500
 Zn920 Zn 1.00098 0.24760 0.62450
 N921 N 1.00210 0.22547 0.60947
 C922 C 0.96643 0.23223 0.63732
 N923 N 0.97858 0.24705 0.63926
 C924 C 0.97437 0.26192 0.65073
 C925 C 0.95746 0.26211 0.66100
 C926 C 0.94945 0.23186 0.64731
 C927 C 1.03966 0.24579 0.63048
 C928 C 1.05673 0.24672 0.64028
 C929 C 1.03921 0.25106 0.66929
 C930 C 1.02240 0.25003 0.65890
 N931 N 1.02296 0.24779 0.63979
 H932 H 0.96966 0.22079 0.62777
 H933 H 0.98406 0.27372 0.65173
 H934 H 0.95414 0.27402 0.67002
 H935 H 0.93985 0.22004 0.64556
 H936 H 1.03967 0.24388 0.61531
 H937 H 1.06994 0.24546 0.63261
 H938 H 1.03867 0.25317 0.68445
 H939 H 1.00898 0.25129 0.66607
 C940 C 1.00207 0.19161 0.58987
 C941 C 0.99919 0.30330 0.58906
 C942 C 1.05653 0.24958 0.65983
 C943 C 0.94489 0.24691 0.65923
 C944 C 0.48509 0.77313 0.09853
 H945 H 0.47386 0.76279 0.09752
 C946 C 0.48410 0.78989 0.08804
 H947 H 0.47214 0.79244 0.07883
 C948 C 0.51412 0.78285 0.11221
 H949 H 0.52559 0.78037 0.12195
 C950 C 0.51368 0.79971 0.10200
 H951 H 0.52492 0.80998 0.10379
 N952 N 0.50002 0.76988 0.11025
 C953 C 0.50457 0.70909 0.11996
 H954 H 0.50633 0.70939 0.13515
 C955 C 0.50460 0.69184 0.11042
 H956 H 0.50643 0.67881 0.11825
 C957 C 0.49967 0.72570 0.09123
 H958 H 0.49775 0.73893 0.08384
 C959 C 0.49959 0.70870 0.08111
 H960 H 0.49753 0.70885 0.06594
 Zn961 Zn 0.50049 0.74768 0.12533
 N962 N 0.50177 0.72553 0.11036
 C963 C 0.46589 0.73223 0.13787
 N964 N 0.47798 0.74708 0.13993
 C965 C 0.47359 0.76198 0.15129
 C966 C 0.45652 0.76219 0.16128
 C967 C 0.44875 0.73188 0.14759
 C968 C 0.53911 0.74597 0.13151
 C969 C 0.55614 0.74690 0.14140
 C970 C 0.53848 0.75130 0.17031
 C971 C 0.52171 0.75027 0.15985
 N972 N 0.52237 0.74798 0.14075
 H973 H 0.46926 0.72076 0.12841
 H974 H 0.48324 0.77380 0.15237
 H975 H 0.45303 0.77415 0.17018
 H976 H 0.43918 0.72006 0.14571
 H977 H 0.53920 0.74402 0.11635
 H978 H 0.56939 0.74562 0.13385
 H979 H 0.53793 0.75343 0.18546
 H980 H 0.50827 0.75155 0.16696
 C981 C 0.50186 0.69162 0.09086
 C982 C 0.49855 0.80329 0.08984
 C983 C 0.55584 0.74978 0.16093
 C984 C 0.44398 0.74699 0.15935
 O985 O -0.01443 0.94673 0.99480
 O986 O -0.00493 0.94735 1.02685
 O987 O -0.05557 0.99162 0.99176
 O988 O -0.05669 1.02265 0.99687
 O989 O -0.01080 0.98771 0.94961
 O990 O 0.02165 0.99560 0.94977
 O991 O -0.00461 1.04295 1.03879
 O992 O -0.03454 1.03008 1.04086
 O993 O 0.03405 0.99839 1.04520
 O994 O 0.03714 0.96837 1.03264
 O995 O 0.04045 1.03597 0.99990
 O996 O 0.02513 1.04028 0.96940
 O997 O 0.01086 1.05334 1.01251
 O998 O 0.00168 1.05313 0.97832
 O999 O 0.05132 1.00996 1.01542
 O1000 O 0.05048 0.97559 1.00640
 O1001 O 0.00820 1.01438 1.05575
 O1002 O -0.02416 1.00134 1.05569
 O1003 O 0.00139 0.95702 0.96869
 O1004 O 0.03162 0.97233 0.96470
 O1005 O -0.03694 1.00329 0.96003
 O1006 O -0.03932 1.03456 0.97557
 O1007 O -0.04482 0.96502 1.00644
 O1008 O -0.02998 0.96605 1.03830
 Zr1009 Zr -0.01619 0.97095 1.01204
 O1010 O 0.00134 0.98744 1.02957
 Zr1011 Zr -0.03147 1.00886 0.98877
 O1012 O -0.01516 1.02690 1.00595
 Zr1013 Zr 0.00657 0.98593 0.97368
 O1014 O 0.02461 1.00337 0.98968
 Zr1015 Zr -0.01038 1.01453 1.03251
 O1016 O -0.02893 0.99757 1.01620
 Zr1017 Zr 0.02770 0.99194 1.01690
 O1018 O 0.01110 0.97339 1.00027
 Zr1019 Zr 0.01192 1.02987 0.99415
 O1020 O -0.00504 1.01325 0.97585
 O1021 O -0.02020 0.98205 0.98506
 O1022 O 0.01644 1.01883 1.02105
 C1023 C -0.00664 0.94412 0.97863
 C1024 C -0.05793 0.97513 0.99901
 C1025 C -0.02706 0.99532 0.94708
 C1026 C 0.00379 1.05576 1.02905
 C1027 C 0.02467 1.00715 1.05801
 C1028 C 0.05349 1.02643 1.00813
 H1029 H 0.00275 0.98107 1.04195
 H1030 H 0.03684 1.00452 0.98304
 H1031 H -0.02831 0.97392 0.97705
 H1032 H -0.02171 1.03917 1.00728
 H1033 H -0.04564 1.02197 1.03819
 H1034 H -0.05370 1.03009 1.00830
 H1035 H 0.05559 0.98206 0.99510
 H1036 H 0.03526 0.96347 0.97490
 H1037 H -0.02370 1.01013 1.06660
 H1038 H -0.03826 0.95479 1.03724
 H1039 H 0.03464 1.03085 0.96541
 H1040 H 0.01754 1.00880 0.94755
 H1041 H -0.01427 0.93688 1.02660
 H1042 H 0.02879 0.95772 1.02913
 H1043 H -0.02981 1.03712 0.96564
 H1044 H -0.00980 1.05794 0.98468
 O1045 O 0.54078 0.53679 0.50042
 O1046 O 0.52612 0.53938 0.47041
 O1047 O 0.49460 0.54466 0.53911
 O1048 O 0.46678 0.53104 0.54536
 O1049 O 0.53370 0.49813 0.54691
 O1050 O 0.53727 0.46824 0.53213
 O1051 O 0.44449 0.49285 0.49151
 O1052 O 0.44435 0.52376 0.50162
 O1053 O 0.48836 0.48799 0.45146
 O1054 O 0.51962 0.49699 0.45019
 O1055 O 0.48471 0.44830 0.49567
 O1056 O 0.49263 0.44821 0.52890
 O1057 O 0.45507 0.46674 0.50717
 O1058 O 0.47081 0.46303 0.53877
 O1059 O 0.50023 0.45854 0.46942
 O1060 O 0.53192 0.47432 0.46595
 O1061 O 0.46214 0.50326 0.46213
 O1062 O 0.46233 0.53551 0.47540
 O1063 O 0.55151 0.51053 0.51574
 O1064 O 0.55084 0.47739 0.50765
 O1065 O 0.50777 0.51384 0.55769
 O1066 O 0.47418 0.50415 0.55682
 O1067 O 0.51106 0.55489 0.51338
 O1068 O 0.49760 0.55304 0.48092
 Zr1069 Zr 0.51198 0.53108 0.49557
 O1070 O 0.49507 0.51428 0.47777
 Zr1071 Zr 0.48977 0.51570 0.53404
 O1072 O 0.47146 0.49891 0.51764
 Zr1073 Zr 0.52762 0.49290 0.51827
 O1074 O 0.51092 0.47471 0.50167
 Zr1075 Zr 0.46853 0.51022 0.49035
 O1076 O 0.48485 0.52849 0.50761
 Zr1077 Zr 0.50640 0.48707 0.47506
 O1078 O 0.52477 0.50451 0.49102
 Zr1079 Zr 0.48373 0.47221 0.51338
 O1080 O 0.50134 0.48840 0.53147
 O1081 O 0.51635 0.51968 0.52235
 O1082 O 0.47949 0.48312 0.48636
 C1083 C 0.55387 0.52687 0.50815
 C1084 C 0.50315 0.55748 0.52949
 C1085 C 0.52407 0.50622 0.55997
 C1086 C 0.44214 0.47641 0.49884
 C1087 C 0.47178 0.49497 0.44921
 C1088 C 0.49190 0.44576 0.47922
 H1089 H 0.49396 0.52053 0.46530
 H1090 H 0.51732 0.46233 0.50071
 H1091 H 0.52455 0.52774 0.53033
 H1092 H 0.45906 0.49805 0.52403
 H1093 H 0.44874 0.53585 0.50715
 H1094 H 0.45566 0.52808 0.53743
 H1095 H 0.53436 0.46322 0.47410
 H1096 H 0.55353 0.48244 0.49488
 H1097 H 0.44977 0.53404 0.46935
 H1098 H 0.50455 0.56511 0.48255
 H1099 H 0.50537 0.44474 0.52433
 H1100 H 0.52685 0.46403 0.54047
 H1101 H 0.53170 0.55212 0.47226
 H1102 H 0.52719 0.50813 0.45396
 H1103 H 0.48042 0.49213 0.56037
 H1104 H 0.46003 0.47152 0.54141
 O1105 O 0.50457 -0.03976 0.53445
 O1106 O 0.53454 -0.02508 0.53734
 O1107 O 0.46577 0.00660 0.54074
 O1108 O 0.45955 0.03402 0.52645
 O1109 O 0.45897 -0.03341 0.49461
 O1110 O 0.47446 -0.03748 0.46518
 O1111 O 0.51411 0.05593 0.48925
 O1112 O 0.50350 0.05646 0.51990
 O1113 O 0.55451 0.01208 0.48586
 O1114 O 0.55570 -0.01905 0.49531
 O1115 O 0.51113 0.01493 0.44521
 O1116 O 0.47800 0.00697 0.44448
 O1117 O 0.49905 0.04489 0.46298
 O1118 O 0.46764 0.02886 0.45880
 O1119 O 0.53719 -0.00042 0.45618
 O1120 O 0.54043 -0.03179 0.47259
 O1121 O 0.54342 0.03852 0.50047
 O1122 O 0.52951 0.03873 0.53241
 O1123 O 0.48987 -0.05096 0.50805
 O1124 O 0.49875 -0.05082 0.47511
 O1125 O 0.44781 -0.00730 0.50974
 O1126 O 0.44880 0.02617 0.49952
 O1127 O 0.49131 -0.00964 0.55179
 O1128 O 0.52381 0.00367 0.55034
 Zr1129 Zr 0.50956 -0.01105 0.52834
 O1130 O 0.52766 0.00567 0.51165
 Zr1131 Zr 0.47136 0.01081 0.51181
 O1132 O 0.48806 0.02892 0.49510
 Zr1133 Zr 0.48771 -0.02736 0.48998
 O1134 O 0.50464 -0.01088 0.47188
 Zr1135 Zr 0.51509 0.03211 0.50693
 O1136 O 0.49750 0.01602 0.52506
 Zr1137 Zr 0.53098 -0.00607 0.48470
 O1138 O 0.51471 -0.02423 0.50209
 Zr1139 Zr 0.49292 0.01625 0.46870
 O1140 O 0.47454 -0.00118 0.48477
 O1141 O 0.48302 -0.01567 0.51647
 O1142 O 0.51970 0.02077 0.48009
 C1143 C 0.49708 -0.05303 0.52458
 C1144 C 0.47517 -0.00165 0.55392
 C1145 C 0.44572 -0.02370 0.50228
 C1146 C 0.50705 0.05802 0.47266
 C1147 C 0.55656 0.02878 0.49265
 C1148 C 0.52762 0.00768 0.44309
 H1149 H 0.53999 0.00691 0.51815
 H1150 H 0.50587 -0.01748 0.45964
 H1151 H 0.47489 -0.02374 0.52451
 H1152 H 0.48163 0.04128 0.49393
 H1153 H 0.49773 0.05222 0.53193
 H1154 H 0.46764 0.04507 0.52369
 H1155 H 0.53248 -0.03449 0.46141
 H1156 H 0.51139 -0.05341 0.48052
 H1157 H 0.53555 0.05130 0.53089
 H1158 H 0.52197 -0.00310 0.56248
 H1159 H 0.48257 -0.00587 0.44138
 H1160 H 0.46619 -0.02715 0.46060
 H1161 H 0.53245 -0.03045 0.55012
 H1162 H 0.55175 -0.02638 0.50654
 H1163 H 0.44548 0.01967 0.48758
 H1164 H 0.46477 0.03977 0.46706
 O1165 O 0.00448 0.45865 1.03494
 O1166 O 0.03458 0.47309 1.03772
 O1167 O -0.03391 0.50527 1.04190
 O1168 O -0.04007 0.53283 1.02786
 O1169 O -0.04138 0.46566 0.99553
 O1170 O -0.02616 0.46173 0.96592
 O1171 O 0.01438 0.55463 0.99042
 O1172 O 0.00400 0.55500 1.02117
 O1173 O 0.05442 0.51053 0.98636
 O1174 O 0.05546 0.47932 0.99559
 O1175 O 0.01075 0.51400 0.94610
 O1176 O -0.02243 0.50630 0.94555
 O1177 O -0.00096 0.54390 0.96419
 O1178 O -0.03253 0.52814 0.96014
 O1179 O 0.03678 0.49838 0.95674
 O1180 O 0.03993 0.46686 0.97287
 O1181 O 0.04364 0.53693 1.00127
 O1182 O 0.02999 0.53697 1.03333
 O1183 O -0.01050 0.44778 1.00855
 O1184 O -0.00189 0.44812 0.97555
 O1185 O -0.05222 0.49173 1.01095
 O1186 O -0.05107 0.52527 1.00096
 O1187 O -0.00843 0.48874 1.05263
 O1188 O 0.02417 0.50181 1.05103
 Zr1189 Zr 0.00963 0.48738 1.02902
 O1190 O 0.02773 0.50410 1.01233
 Zr1191 Zr -0.02853 0.50966 1.01296
 O1192 O -0.01182 0.52777 0.99626
 Zr1193 Zr -0.01263 0.47154 0.99070
 O1194 O 0.00428 0.48804 0.97261
 Zr1195 Zr 0.01532 0.53067 1.00791
 O1196 O -0.00225 0.51456 1.02605
 Zr1197 Zr 0.03076 0.49255 0.98526
 O1198 O 0.01448 0.47437 1.00262
 Zr1199 Zr -0.00727 0.51527 0.96973
 O1200 O -0.02565 0.49785 0.98580
 O1201 O -0.01703 0.48305 1.01732
 O1202 O 0.01963 0.51950 0.98095
 C1203 C -0.00318 0.44551 1.02501
 C1204 C -0.02448 0.49685 1.05494
 C1205 C -0.05450 0.47540 1.00338
 C1206 C 0.00722 0.55690 0.97390
 C1207 C 0.05664 0.52717 0.99325
 C1208 C 0.02717 0.50666 0.94378
 H1209 H 0.04012 0.50520 1.01874
 H1210 H 0.00537 0.48152 0.96030
 H1211 H -0.02516 0.47498 1.02536
 H1212 H -0.01817 0.54018 0.99524
 H1213 H -0.00169 0.55069 1.03322
 H1214 H -0.03190 0.54384 1.02514
 H1215 H 0.03187 0.46431 0.96174
 H1216 H 0.01078 0.44540 0.98083
 H1217 H 0.03610 0.54951 1.03186
 H1218 H 0.02236 0.49496 1.06312
 H1219 H -0.01799 0.49344 0.94233
 H1220 H -0.03440 0.47215 0.96151
 H1221 H 0.03254 0.46763 1.05047
 H1222 H 0.05154 0.47191 1.00677
 H1223 H -0.05454 0.51888 0.98900
 H1224 H -0.03524 0.53902 0.96849
 O1225 O 0.00893 0.44320 0.50781
 O1226 O -0.00025 0.44342 0.47564
 O1227 O 0.05033 0.48790 0.51063
 O1228 O 0.05174 0.51884 0.50533
 O1229 O 0.00493 0.48480 0.55234
 O1230 O -0.02748 0.49290 0.55157
 O1231 O 0.00069 0.53891 0.46236
 O1232 O 0.03042 0.52561 0.46080
 O1233 O -0.03849 0.49462 0.45594
 O1234 O -0.04192 0.46470 0.46882
 O1235 O -0.04514 0.53281 0.50044
 O1236 O -0.03047 0.53742 0.53112
 O1237 O -0.01510 0.54978 0.48825
 O1238 O -0.00655 0.54977 0.52269
 O1239 O -0.05603 0.50663 0.48523
 O1240 O -0.05567 0.47240 0.49478
 O1241 O -0.01239 0.51037 0.44561
 O1242 O 0.01980 0.49686 0.44620
 O1243 O -0.00722 0.45392 0.53354
 O1244 O -0.03741 0.46948 0.53681
 O1245 O 0.03135 0.49998 0.54200
 O1246 O 0.03416 0.53108 0.52612
 O1247 O 0.03958 0.46116 0.49620
 O1248 O 0.02510 0.46173 0.46419
 Zr1249 Zr 0.01105 0.46714 0.49020
 O1250 O -0.00607 0.48354 0.47218
 Zr1251 Zr 0.02630 0.50526 0.51316
 O1252 O 0.01042 0.52318 0.49549
 Zr1253 Zr -0.01212 0.48279 0.52804
 O1254 O -0.02977 0.50017 0.51151
 Zr1255 Zr 0.00593 0.51049 0.46905
 O1256 O 0.02408 0.49362 0.48586
 Zr1257 Zr -0.03257 0.48840 0.48440
 O1258 O -0.01639 0.46995 0.50155
 Zr1259 Zr -0.01680 0.52651 0.50686
 O1260 O -0.00026 0.51001 0.52564
 O1261 O 0.01478 0.47858 0.51708
 O1262 O -0.02101 0.51515 0.48005
 C1263 C 0.00090 0.44084 0.52392
 C1264 C 0.05268 0.47133 0.50359
 C1265 C 0.02124 0.49230 0.55495
 C1266 C -0.00768 0.55194 0.47182
 C1267 C -0.02890 0.50327 0.44320
 C1268 C -0.05813 0.52326 0.49214
 H1269 H -0.00738 0.47703 0.45986
 H1270 H -0.04210 0.50150 0.51793
 H1271 H 0.02273 0.47051 0.52530
 H1272 H 0.01712 0.53538 0.49411
 H1273 H 0.04137 0.51739 0.46372
 H1274 H 0.04905 0.52596 0.49361
 H1275 H -0.06086 0.47905 0.50593
 H1276 H -0.04096 0.46051 0.52667
 H1277 H 0.01956 0.50552 0.43517
 H1278 H 0.03325 0.45041 0.46553
 H1279 H -0.04000 0.52802 0.53518
 H1280 H -0.02333 0.50611 0.55363
 H1281 H 0.00898 0.43287 0.47618
 H1282 H -0.03384 0.45399 0.47276
 H1283 H 0.02460 0.53376 0.53597
 H1284 H 0.00501 0.55449 0.51640
 O1285 O 0.50798 0.94445 0.00874
 O1286 O 0.49896 0.94478 -0.02347
 O1287 O 0.54940 0.98909 0.01193
 O1288 O 0.55087 1.02007 0.00678
 O1289 O 0.50378 0.98585 0.05338
 O1290 O 0.47138 0.99405 0.05247
 O1291 O 0.50008 1.04030 -0.03643
 O1292 O 0.52982 1.02700 -0.03785
 O1293 O 0.46092 0.99609 -0.04323
 O1294 O 0.45736 0.96614 -0.03046
 O1295 O 0.45403 1.03414 0.00138
 O1296 O 0.46852 1.03864 0.03213
 O1297 O 0.48417 1.05112 -0.01060
 O1298 O 0.49253 1.05097 0.02390
 O1299 O 0.44321 1.00804 -0.01400
 O1300 O 0.44347 0.97377 -0.00456
 O1301 O 0.48710 1.01183 -0.05336
 O1302 O 0.51928 0.99830 -0.05261
 O1303 O 0.49168 0.95509 0.03441
 O1304 O 0.46149 0.97068 0.03757
 O1305 O 0.53028 1.00103 0.04324
 O1306 O 0.53317 1.03222 0.02752
 O1307 O 0.53871 0.96241 -0.00265
 O1308 O 0.52440 0.96310 -0.03473
 Zr1309 Zr 0.51022 0.96845 -0.00878
 O1310 O 0.49322 0.98493 -0.02684
 Zr1311 Zr 0.52538 1.00647 0.01440
 O1312 O 0.50961 1.02447 -0.00329
 Zr1313 Zr 0.48685 0.98399 0.02898
 O1314 O 0.46931 1.00144 0.01242
 Zr1315 Zr 0.50527 1.01187 -0.02980
 O1316 O 0.52330 0.99492 -0.01295
 Zr1317 Zr 0.46665 0.98978 -0.01475
 O1318 O 0.48272 0.97124 0.00243
 Zr1319 Zr 0.48234 1.02779 0.00793
 O1320 O 0.49875 1.01120 0.02675
 O1321 O 0.51380 0.97979 0.01816
 O1322 O 0.47827 1.01653 -0.01895
 C1323 C 0.49986 0.94204 0.02479
 C1324 C 0.55177 0.97254 0.00485
 C1325 C 0.52010 0.99329 0.05610
 C1326 C 0.49168 1.05331 -0.02699
 C1327 C 0.47060 1.00476 -0.05589
 C1328 C 0.44108 1.02464 -0.00704
 H1329 H 0.49197 0.97846 -0.03919
 H1330 H 0.45695 1.00277 0.01877
 H1331 H 0.52170 0.97167 0.02639
 H1332 H 0.51634 1.03666 -0.00459
 H1333 H 0.54074 1.01876 -0.03489
 H1334 H 0.54825 1.02724 -0.00492
 H1335 H 0.43822 0.98039 0.00658
 H1336 H 0.45798 0.96176 0.02737
 H1337 H 0.51911 1.00700 -0.06361
 H1338 H 0.53253 0.95177 -0.03338
 H1339 H 0.45901 1.02921 0.03616
 H1340 H 0.47558 1.00723 0.05462
 H1341 H 0.50818 0.93422 -0.02292
 H1342 H 0.46541 0.95541 -0.02652
 H1343 H 0.52357 1.03485 0.03735
 H1344 H 0.50412 1.05571 0.01768
 O1345 O 0.44671 0.50411 0.01587
 O1346 O 0.44733 0.47207 0.00635
 O1347 O 0.49148 0.50701 0.05719
 O1348 O 0.52248 0.50177 0.05840
 O1349 O 0.48777 0.54930 0.01252
 O1350 O 0.49570 0.54925 -0.01991
 O1351 O 0.54285 0.46003 0.00622
 O1352 O 0.52992 0.45788 0.03614
 O1353 O 0.49844 0.45384 -0.03259
 O1354 O 0.46840 0.46640 -0.03567
 O1355 O 0.53601 0.49912 -0.03874
 O1356 O 0.54030 0.52960 -0.02327
 O1357 O 0.55330 0.48636 -0.00918
 O1358 O 0.55315 0.52051 0.00013
 O1359 O 0.51001 0.48366 -0.04972
 O1360 O 0.47567 0.49271 -0.04895
 O1361 O 0.51435 0.44317 -0.00672
 O1362 O 0.50121 0.44310 0.02560
 O1363 O 0.45708 0.53029 0.00017
 O1364 O 0.47245 0.53439 -0.02998
 O1365 O 0.50329 0.53877 0.03867
 O1366 O 0.53448 0.52315 0.04113
 O1367 O 0.46491 0.49239 0.04631
 O1368 O 0.46597 0.46053 0.03142
 Zr1369 Zr 0.47090 0.48684 0.01770
 O1370 O 0.48740 0.46935 0.00016
 Zr1371 Zr 0.50879 0.51002 0.03315
 O1372 O 0.52683 0.49287 0.01683
 Zr1373 Zr 0.48598 0.52529 -0.00492
 O1374 O 0.50342 0.50932 -0.02296
 Zr1375 Zr 0.51445 0.46634 0.01195
 O1376 O 0.49748 0.48260 0.03050
 Zr1377 Zr 0.49196 0.48212 -0.02615
 O1378 O 0.47341 0.49872 -0.00956
 Zr1379 Zr 0.52987 0.50478 -0.01020
 O1380 O 0.51325 0.52304 0.00677
 O1381 O 0.48202 0.51381 0.02181
 O1382 O 0.51881 0.47789 -0.01483
 C1383 C 0.44413 0.52032 0.00810
 C1384 C 0.47498 0.49978 0.05947
 C1385 C 0.49537 0.55177 0.02879
 C1386 C 0.55567 0.46977 -0.00215
 C1387 C 0.50719 0.44098 -0.02324
 C1388 C 0.52648 0.49093 -0.05182
 H1389 H 0.48103 0.45697 -0.00131
 H1390 H 0.50459 0.51600 -0.03517
 H1391 H 0.47389 0.52182 0.02990
 H1392 H 0.53909 0.49150 0.02341
 H1393 H 0.52178 0.46050 0.04722
 H1394 H 0.52996 0.49038 0.05537
 H1395 H 0.48215 0.50403 -0.05401
 H1396 H 0.46359 0.52420 -0.03369
 H1397 H 0.51000 0.43218 0.02514
 H1398 H 0.45471 0.46158 0.03968
 H1399 H 0.53095 0.53359 -0.03287
 H1400 H 0.50889 0.55143 -0.01577
 H1401 H 0.43685 0.47230 0.01566
 H1402 H 0.45774 0.46994 -0.02737
 H1403 H 0.53710 0.53308 0.03162
 H1404 H 0.55792 0.51409 0.01161
 O1405 O -0.00805 0.00813 0.55552
 O1406 O 0.02412 -0.00092 0.55511
 O1407 O -0.01127 0.04954 0.51083
 O1408 O -0.00612 0.05092 0.47986
 O1409 O -0.05287 0.00407 0.51426
 O1410 O -0.05214 -0.02837 0.50610
 O1411 O 0.03674 -0.00013 0.45960
 O1412 O 0.03833 0.02966 0.47281
 O1413 O 0.04350 -0.03922 0.50387
 O1414 O 0.03081 -0.04266 0.53385
 O1415 O -0.00130 -0.04605 0.46597
 O1416 O -0.03201 -0.03138 0.46154
 O1417 O 0.01080 -0.01599 0.44890
 O1418 O -0.02363 -0.00749 0.44908
 O1419 O 0.01414 -0.05687 0.49205
 O1420 O 0.00483 -0.05647 0.52632
 O1421 O 0.05370 -0.01309 0.48806
 O1422 O 0.05314 0.01914 0.50149
 O1423 O -0.03384 -0.00809 0.54497
 O1424 O -0.03723 -0.03827 0.52944
 O1425 O -0.04266 0.03050 0.49897
 O1426 O -0.02703 0.03328 0.46778
 O1427 O 0.00335 0.03884 0.53748
 O1428 O 0.03539 0.02444 0.53669
 Zr1429 Zr 0.00937 0.01031 0.53147
 O1430 O 0.02729 -0.00681 0.51499
 Zr1431 Zr -0.01386 0.02548 0.49350
 O1432 O 0.00369 0.00959 0.47549
 Zr1433 Zr -0.02855 -0.01297 0.51607
 O1434 O -0.01212 -0.03063 0.49864
 Zr1435 Zr 0.03022 0.00517 0.48803
 O1436 O 0.01351 0.02332 0.50497
 Zr1437 Zr 0.01507 -0.03336 0.51023
 O1438 O -0.00197 -0.01717 0.52876
 Zr1439 Zr -0.00766 -0.01767 0.47226
 O1440 O -0.02635 -0.00113 0.48885
 O1441 O -0.01759 0.01396 0.52020
 O1442 O 0.01923 -0.02181 0.48346
 C1443 C -0.02413 0.00006 0.55798
 C1444 C -0.00415 0.05191 0.52737
 C1445 C -0.05554 0.02038 0.50678
 C1446 C 0.02722 -0.00855 0.44665
 C1447 C 0.05618 -0.02959 0.49516
 C1448 C 0.00709 -0.05902 0.47549
 H1449 H 0.03965 -0.00809 0.52143
 H1450 H -0.01854 -0.04298 0.49736
 H1451 H -0.02576 0.02190 0.52832
 H1452 H 0.00498 0.01627 0.46329
 H1453 H 0.03544 0.04063 0.48103
 H1454 H 0.00549 0.04820 0.47259
 H1455 H -0.00635 -0.06170 0.51975
 H1456 H -0.02701 -0.04183 0.53833
 H1457 H 0.06411 0.01892 0.49277
 H1458 H 0.03412 0.03262 0.54799
 H1459 H -0.03601 -0.04090 0.47096
 H1460 H -0.05432 -0.02417 0.49293
 H1461 H 0.02365 0.00833 0.56564
 H1462 H 0.02696 -0.03454 0.54455
 H1463 H -0.03687 0.02368 0.46516
 H1464 H -0.01739 0.00410 0.44433
 O1465 O 0.74102 0.19729 0.26192
 O1466 O 0.77310 0.19753 0.25264
 O1467 O 0.73830 0.24247 0.30284
 O1468 O 0.74362 0.27345 0.30380
 O1469 O 0.69628 0.23869 0.25781
 O1470 O 0.69672 0.24644 0.22530
 O1471 O 0.78604 0.29303 0.25204
 O1472 O 0.78785 0.28022 0.28197
 O1473 O 0.79228 0.24813 0.21357
 O1474 O 0.77937 0.21823 0.21055
 O1475 O 0.74752 0.28620 0.20662
 O1476 O 0.71693 0.29087 0.22160
 O1477 O 0.75997 0.30362 0.23634
 O1478 O 0.72569 0.30370 0.24512
 O1479 O 0.76280 0.25996 0.19603
 O1480 O 0.75333 0.22571 0.19692
 O1481 O 0.80280 0.26424 0.23938
 O1482 O 0.80243 0.25133 0.27178
 O1483 O 0.71511 0.20774 0.24584
 O1484 O 0.71142 0.22295 0.21556
 O1485 O 0.70677 0.25427 0.28394
 O1486 O 0.72257 0.28542 0.28623
 O1487 O 0.75269 0.21564 0.29230
 O1488 O 0.78462 0.21624 0.27766
 Zr1489 Zr 0.75850 0.22134 0.26368
 O1490 O 0.77631 0.23756 0.24620
 Zr1491 Zr 0.73556 0.25956 0.27861
 O1492 O 0.75302 0.27733 0.26231
 Zr1493 Zr 0.72043 0.23658 0.24059
 O1494 O 0.73674 0.25376 0.22256
 Zr1495 Zr 0.77947 0.26468 0.25780
 O1496 O 0.76287 0.24798 0.27632
 Zr1497 Zr 0.76386 0.24204 0.21973
 O1498 O 0.74691 0.22375 0.23630
 Zr1499 Zr 0.74142 0.28028 0.23514
 O1500 O 0.72284 0.26394 0.25207
 O1501 O 0.73161 0.23272 0.26746
 O1502 O 0.76824 0.26895 0.23087
 C1503 C 0.72487 0.19478 0.25400
 C1504 C 0.74538 0.22592 0.30532
 C1505 C 0.69377 0.24640 0.27403
 C1506 C 0.77647 0.30591 0.24358
 C1507 C 0.80511 0.25685 0.22298
 C1508 C 0.75577 0.27650 0.19371
 H1509 H 0.78863 0.23106 0.24491
 H1510 H 0.73021 0.25491 0.21027
 H1511 H 0.72348 0.22471 0.27556
 H1512 H 0.75442 0.28962 0.26883
 H1513 H 0.78502 0.27218 0.29308
 H1514 H 0.75518 0.28072 0.30086
 H1515 H 0.74215 0.23228 0.19170
 H1516 H 0.72158 0.21403 0.21197
 H1517 H 0.81344 0.26001 0.27135
 H1518 H 0.78339 0.20503 0.28599
 H1519 H 0.71289 0.28140 0.21213
 H1520 H 0.69465 0.25969 0.22933
 H1521 H 0.77269 0.18711 0.26203
 H1522 H 0.77559 0.20764 0.21887
 H1523 H 0.71268 0.28799 0.27666
 H1524 H 0.73198 0.30848 0.25666
 O1525 O 0.75547 0.71315 0.70826
 O1526 O 0.78549 0.71007 0.72281
 O1527 O 0.71678 0.70647 0.75463
 O1528 O 0.71075 0.72048 0.78224
 O1529 O 0.70998 0.75294 0.71509
 O1530 O 0.72549 0.78247 0.71129
 O1531 O 0.76543 0.75740 0.80428
 O1532 O 0.75475 0.72671 0.80454
 O1533 O 0.80565 0.76133 0.76041
 O1534 O 0.80677 0.75201 0.72921
 O1535 O 0.76239 0.80189 0.76368
 O1536 O 0.72927 0.80275 0.75590
 O1537 O 0.75044 0.78382 0.79352
 O1538 O 0.71892 0.78817 0.77766
 O1539 O 0.78836 0.79106 0.74813
 O1540 O 0.79152 0.77490 0.71666
 O1541 O 0.79462 0.74643 0.78672
 O1542 O 0.78074 0.71442 0.78662
 O1543 O 0.74078 0.73970 0.69737
 O1544 O 0.74974 0.77264 0.69777
 O1545 O 0.69889 0.73759 0.74111
 O1546 O 0.69999 0.74752 0.77465
 O1547 O 0.74225 0.69553 0.73822
 O1548 O 0.77481 0.69680 0.75147
 Zr1549 Zr 0.76057 0.71897 0.73700
 O1550 O 0.77877 0.73549 0.75380
 Zr1551 Zr 0.72248 0.73535 0.75913
 O1552 O 0.73928 0.75187 0.77732
 Zr1553 Zr 0.73875 0.75754 0.72112
 O1554 O 0.75577 0.77546 0.73769
 Zr1555 Zr 0.76629 0.73997 0.78031
 O1556 O 0.74861 0.72200 0.76412
 Zr1557 Zr 0.78210 0.76257 0.74229
 O1558 O 0.76573 0.74537 0.72404
 Zr1559 Zr 0.74414 0.77839 0.76487
 O1560 O 0.72567 0.76252 0.74737
 O1561 O 0.73405 0.73094 0.73258
 O1562 O 0.77091 0.76692 0.76919
 C1563 C 0.74793 0.72316 0.69512
 C1564 C 0.72611 0.69336 0.74622
 C1565 C 0.69675 0.74518 0.72477
 C1566 C 0.75845 0.77399 0.80653
 C1567 C 0.80772 0.75442 0.77706
 C1568 C 0.77884 0.80409 0.75638
 H1569 H 0.79110 0.72898 0.75495
 H1570 H 0.75700 0.78777 0.73119
 H1571 H 0.72588 0.72298 0.72447
 H1572 H 0.73290 0.75292 0.78970
 H1573 H 0.74898 0.71472 0.80019
 H1574 H 0.71886 0.72316 0.79329
 H1575 H 0.78354 0.78608 0.71405
 H1576 H 0.76235 0.76723 0.69507
 H1577 H 0.78681 0.71582 0.79918
 H1578 H 0.77290 0.68473 0.74461
 H1579 H 0.73371 0.80591 0.74303
 H1580 H 0.71722 0.78690 0.72166
 H1581 H 0.78334 0.69734 0.71734
 H1582 H 0.80276 0.74089 0.72174
 H1583 H 0.69667 0.75953 0.76827
 H1584 H 0.71612 0.77985 0.78854
 O1585 O 0.28529 0.21034 0.74667
 O1586 O 0.28788 0.22479 0.71651
 O1587 O 0.29226 0.25686 0.78508
 O1588 O 0.27823 0.28442 0.79126
 O1589 O 0.24599 0.21715 0.79254
 O1590 O 0.21633 0.21319 0.77738
 O1591 O 0.24053 0.30619 0.73685
 O1592 O 0.27130 0.30666 0.74726
 O1593 O 0.23652 0.26212 0.69682
 O1594 O 0.24566 0.23094 0.69573
 O1595 O 0.19631 0.26550 0.74062
 O1596 O 0.19590 0.25772 0.77379
 O1597 O 0.21439 0.29539 0.75228
 O1598 O 0.21050 0.27961 0.78388
 O1599 O 0.20691 0.24999 0.71453
 O1600 O 0.22304 0.21845 0.71132
 O1601 O 0.25144 0.28854 0.70759
 O1602 O 0.28349 0.28869 0.72126
 O1603 O 0.25896 0.19938 0.76168
 O1604 O 0.22593 0.19964 0.75304
 O1605 O 0.26140 0.24324 0.80340
 O1606 O 0.25134 0.27677 0.80233
 O1607 O 0.30293 0.24042 0.75951
 O1608 O 0.30124 0.25353 0.72694
 Zr1609 Zr 0.27928 0.23904 0.74150
 O1610 O 0.26251 0.25575 0.72347
 Zr1611 Zr 0.26331 0.26123 0.77973
 O1612 O 0.24654 0.27934 0.76309
 Zr1613 Zr 0.24105 0.22308 0.76382
 O1614 O 0.22288 0.23957 0.74698
 Zr1615 Zr 0.25809 0.28230 0.73592
 O1616 O 0.27631 0.26620 0.75343
 Zr1617 Zr 0.23545 0.24414 0.72048
 O1618 O 0.25289 0.22598 0.73668
 Zr1619 Zr 0.22001 0.26678 0.75858
 O1620 O 0.23616 0.24937 0.77690
 O1621 O 0.26766 0.23466 0.76818
 O1622 O 0.23114 0.27107 0.73165
 C1623 C 0.27543 0.19718 0.75437
 C1624 C 0.30527 0.24847 0.77560
 C1625 C 0.25388 0.22688 0.80566
 C1626 C 0.22403 0.30841 0.74404
 C1627 C 0.24342 0.27876 0.69459
 C1628 C 0.19397 0.25822 0.72418
 H1629 H 0.26889 0.25687 0.71107
 H1630 H 0.21058 0.23303 0.74591
 H1631 H 0.27574 0.22660 0.77628
 H1632 H 0.24551 0.29174 0.76944
 H1633 H 0.28336 0.30240 0.75295
 H1634 H 0.27540 0.29546 0.78316
 H1635 H 0.21191 0.21589 0.71937
 H1636 H 0.23121 0.19694 0.74037
 H1637 H 0.28200 0.30123 0.71516
 H1638 H 0.31333 0.24668 0.72869
 H1639 H 0.19268 0.24487 0.76933
 H1640 H 0.21194 0.22358 0.78566
 H1641 H 0.30065 0.21934 0.71851
 H1642 H 0.25691 0.22359 0.69960
 H1643 H 0.23941 0.27034 0.80582
 H1644 H 0.21882 0.29053 0.78656
 O1645 O 0.21315 0.79158 0.24435
 O1646 O 0.21026 0.77703 0.21430
 O1647 O 0.20614 0.74521 0.28301
 O1648 O 0.22002 0.71754 0.28914
 O1649 O 0.25264 0.78464 0.29013
 O1650 O 0.28223 0.78842 0.27483
 O1651 O 0.25727 0.69543 0.23475
 O1652 O 0.22654 0.69522 0.24521
 O1653 O 0.26152 0.73935 0.19453
 O1654 O 0.25232 0.77057 0.19334
 O1655 O 0.30180 0.73597 0.23813
 O1656 O 0.30243 0.74374 0.27126
 O1657 O 0.28359 0.70614 0.24995
 O1658 O 0.28776 0.72198 0.28148
 O1659 O 0.29118 0.75156 0.21206
 O1660 O 0.27510 0.78307 0.20877
 O1661 O 0.24649 0.71305 0.20546
 O1662 O 0.21443 0.71318 0.21913
 O1663 O 0.23960 0.80242 0.25924
 O1664 O 0.27259 0.80196 0.25050
 O1665 O 0.23716 0.75864 0.30113
 O1666 O 0.24700 0.72506 0.30011
 O1667 O 0.19540 0.76164 0.25744
 O1668 O 0.19686 0.74838 0.22490
 Zr1669 Zr 0.21896 0.76282 0.23929
 O1670 O 0.23555 0.74599 0.22123
 Zr1671 Zr 0.23502 0.74063 0.27752
 O1672 O 0.25161 0.72241 0.26086
 Zr1673 Zr 0.25739 0.77863 0.26140
 O1674 O 0.27538 0.76201 0.24453
 Zr1675 Zr 0.23989 0.71945 0.23375
 O1676 O 0.22185 0.73567 0.25129
 Zr1677 Zr 0.26267 0.75745 0.21809
 O1678 O 0.24540 0.77573 0.23432
 Zr1679 Zr 0.27818 0.73481 0.25619
 O1680 O 0.26222 0.75234 0.27453
 O1681 O 0.23075 0.76721 0.26590
 O1682 O 0.26689 0.73052 0.22933
 C1683 C 0.22312 0.80470 0.25197
 C1684 C 0.19311 0.75366 0.27358
 C1685 C 0.24478 0.77497 0.30331
 C1686 C 0.27380 0.69314 0.24186
 C1687 C 0.25457 0.72271 0.19241
 C1688 C 0.30412 0.74328 0.22169
 H1689 H 0.22913 0.74486 0.20885
 H1690 H 0.28771 0.76849 0.24339
 H1691 H 0.22276 0.77533 0.27402
 H1692 H 0.25260 0.71001 0.26725
 H1693 H 0.21452 0.69959 0.25089
 H1694 H 0.22275 0.70648 0.28107
 H1695 H 0.28623 0.78566 0.21683
 H1696 H 0.26725 0.80468 0.23785
 H1697 H 0.21584 0.70062 0.21308
 H1698 H 0.18480 0.75528 0.22671
 H1699 H 0.30565 0.75660 0.26682
 H1700 H 0.28660 0.77803 0.28313
 H1701 H 0.19753 0.78254 0.21635
 H1702 H 0.24117 0.77803 0.19725
 H1703 H 0.25900 0.73141 0.30351
 H1704 H 0.27940 0.71111 0.28423
 O1705 O 0.29381 0.74853 0.71395
 O1706 O 0.27967 0.71825 0.71121
 O1707 O 0.24699 0.78649 0.70618
 O1708 O 0.21920 0.79244 0.71984
 O1709 O 0.28598 0.79455 0.75296
 O1710 O 0.28969 0.77952 0.78273
 O1711 O 0.19748 0.73803 0.75740
 O1712 O 0.19737 0.74827 0.72657
 O1713 O 0.24184 0.69838 0.76225
 O1714 O 0.27313 0.69755 0.75335
 O1715 O 0.23756 0.74225 0.80218
 O1716 O 0.24504 0.77556 0.80256
 O1717 O 0.20782 0.75358 0.78367
 O1718 O 0.22319 0.78532 0.78772
 O1719 O 0.25348 0.71628 0.79186
 O1720 O 0.28521 0.71331 0.77614
 O1721 O 0.21553 0.70889 0.74699
 O1722 O 0.21572 0.72233 0.71481
 O1723 O 0.30425 0.76377 0.74036
 O1724 O 0.30363 0.75531 0.77340
 O1725 O 0.26001 0.80507 0.73715
 O1726 O 0.22641 0.80372 0.74676
 O1727 O 0.26384 0.76105 0.69583
 O1728 O 0.25103 0.72835 0.69747
 Zr1729 Zr 0.26508 0.74313 0.71956
 O1730 O 0.24833 0.72499 0.73616
 Zr1731 Zr 0.24231 0.78121 0.73510
 O1732 O 0.22417 0.76446 0.75171
 Zr1733 Zr 0.28029 0.76576 0.75792
 O1734 O 0.26376 0.74879 0.77593
 Zr1735 Zr 0.22163 0.73722 0.74020
 O1736 O 0.23778 0.75481 0.72212
 Zr1737 Zr 0.25961 0.72220 0.76339
 O1738 O 0.27783 0.73855 0.74614
 Zr1739 Zr 0.23642 0.76014 0.77841
 O1740 O 0.25383 0.77860 0.76242
 O1741 O 0.26904 0.76991 0.73114
 O1742 O 0.23254 0.73314 0.76731
 C1743 C 0.30675 0.75639 0.72397
 C1744 C 0.25564 0.77704 0.69331
 C1745 C 0.27623 0.80753 0.74489
 C1746 C 0.19500 0.74524 0.77386
 C1747 C 0.22529 0.69601 0.75521
 C1748 C 0.24499 0.72589 0.80466
 H1749 H 0.24740 0.71255 0.72983
 H1750 H 0.27015 0.74782 0.78831
 H1751 H 0.27713 0.77807 0.72314
 H1752 H 0.21170 0.77070 0.75255
 H1753 H 0.20176 0.75392 0.71454
 H1754 H 0.20821 0.78425 0.72257
 H1755 H 0.28757 0.72145 0.78726
 H1756 H 0.30650 0.74262 0.76825
 H1757 H 0.20322 0.71611 0.71619
 H1758 H 0.25801 0.73014 0.68546
 H1759 H 0.25785 0.77116 0.80603
 H1760 H 0.27916 0.78771 0.78695
 H1761 H 0.28527 0.72027 0.69852
 H1762 H 0.28069 0.70149 0.74227
 H1763 H 0.23260 0.80728 0.75879
 H1764 H 0.21242 0.78792 0.77919
 O1765 O 0.25372 0.21297 0.20619
 O1766 O 0.28387 0.21007 0.22051
 O1767 O 0.21545 0.20551 0.25280
 O1768 O 0.20941 0.21925 0.28053
 O1769 O 0.20789 0.25225 0.21368
 O1770 O 0.22308 0.28195 0.21001
 O1771 O 0.26394 0.25651 0.30251
 O1772 O 0.25351 0.22571 0.30259
 O1773 O 0.30378 0.26119 0.25840
 O1774 O 0.30477 0.25213 0.22712
 O1775 O 0.26015 0.30129 0.26234
 O1776 O 0.22696 0.30189 0.25476
 O1777 O 0.24861 0.28287 0.29207
 O1778 O 0.21692 0.28703 0.27649
 O1779 O 0.28613 0.29084 0.24653
 O1780 O 0.28921 0.27501 0.21488
 O1781 O 0.29307 0.24596 0.28466
 O1782 O 0.27950 0.21381 0.28439
 O1783 O 0.23871 0.23946 0.19562
 O1784 O 0.24733 0.27249 0.19625
 O1785 O 0.19712 0.23656 0.23963
 O1786 O 0.19837 0.24624 0.27325
 O1787 O 0.24089 0.19496 0.23611
 O1788 O 0.27353 0.19645 0.24912
 Zr1789 Zr 0.25896 0.21860 0.23494
 O1790 O 0.27711 0.23514 0.25176
 Zr1791 Zr 0.22086 0.23441 0.25747
 O1792 O 0.23762 0.25094 0.27569
 Zr1793 Zr 0.23665 0.25708 0.21954
 O1794 O 0.25361 0.27503 0.23615
 Zr1795 Zr 0.26477 0.23927 0.27839
 O1796 O 0.24715 0.22127 0.26217
 Zr1797 Zr 0.28010 0.26235 0.24046
 O1798 O 0.26377 0.24515 0.22218
 Zr1799 Zr 0.24214 0.27761 0.26344
 O1800 O 0.22370 0.26170 0.24592
 O1801 O 0.23229 0.23033 0.23081
 O1802 O 0.26904 0.26636 0.26747
 C1803 C 0.24601 0.22302 0.19318
 C1804 C 0.22485 0.19256 0.24423
 C1805 C 0.19480 0.24427 0.22337
 C1806 C 0.25684 0.27302 0.30494
 C1807 C 0.30602 0.25417 0.27499
 C1808 C 0.27655 0.30370 0.25497
 H1809 H 0.28952 0.22875 0.25277
 H1810 H 0.25467 0.28741 0.22975
 H1811 H 0.22414 0.22236 0.22268
 H1812 H 0.23132 0.25183 0.28813
 H1813 H 0.24784 0.21369 0.29818
 H1814 H 0.21759 0.22187 0.29154
 H1815 H 0.28112 0.28615 0.21243
 H1816 H 0.25998 0.26724 0.19343
 H1817 H 0.28564 0.21517 0.29692
 H1818 H 0.27170 0.18442 0.24217
 H1819 H 0.23131 0.30522 0.24191
 H1820 H 0.21485 0.28623 0.22049
 H1821 H 0.28181 0.19736 0.21494
 H1822 H 0.30081 0.24107 0.21954
 H1823 H 0.19488 0.25826 0.26699
 H1824 H 0.21429 0.27860 0.28733
 O1825 O 0.78580 0.70948 0.24711
 O1826 O 0.78828 0.72399 0.21697
 O1827 O 0.79312 0.75592 0.28557
 O1828 O 0.77923 0.78352 0.29186
 O1829 O 0.74677 0.71636 0.29321
 O1830 O 0.71702 0.71251 0.27821
 O1831 O 0.74129 0.80551 0.23772
 O1832 O 0.77213 0.80585 0.24797
 O1833 O 0.73688 0.76155 0.19765
 O1834 O 0.74597 0.73034 0.19643
 O1835 O 0.69696 0.76496 0.24167
 O1836 O 0.69672 0.75712 0.27483
 O1837 O 0.71519 0.79476 0.25325
 O1838 O 0.71144 0.77895 0.28487
 O1839 O 0.70736 0.74945 0.21549
 O1840 O 0.72339 0.71787 0.21212
 O1841 O 0.75195 0.78789 0.20839
 O1842 O 0.78410 0.78789 0.22184
 O1843 O 0.75952 0.69859 0.26225
 O1844 O 0.72644 0.69898 0.25379
 O1845 O 0.76233 0.74238 0.30403
 O1846 O 0.75237 0.77595 0.30308
 O1847 O 0.80361 0.73949 0.25992
 O1848 O 0.80178 0.75267 0.22738
 Zr1849 Zr 0.77986 0.73822 0.24203
 O1850 O 0.76304 0.75502 0.22413
 Zr1851 Zr 0.76416 0.76040 0.28039
 O1852 O 0.74735 0.77860 0.26388
 Zr1853 Zr 0.74170 0.72235 0.26453
 O1854 O 0.72349 0.73893 0.24782
 Zr1855 Zr 0.75877 0.78156 0.23665
 O1856 O 0.77704 0.76537 0.25403
 Zr1857 Zr 0.73592 0.74351 0.22127
 O1858 O 0.75339 0.72526 0.23734
 Zr1859 Zr 0.72077 0.76613 0.25949
 O1860 O 0.73696 0.74863 0.27769
 O1861 O 0.76836 0.73383 0.26876
 O1862 O 0.73176 0.77042 0.23252
 C1863 C 0.77593 0.69634 0.25485
 C1864 C 0.80606 0.74751 0.27602
 C1865 C 0.75476 0.72604 0.30630
 C1866 C 0.72482 0.80776 0.24498
 C1867 C 0.74380 0.77818 0.19542
 C1868 C 0.69451 0.75772 0.22523
 H1869 H 0.76934 0.75615 0.21169
 H1870 H 0.71116 0.73243 0.24681
 H1871 H 0.77646 0.72573 0.27681
 H1872 H 0.74640 0.79099 0.27025
 H1873 H 0.78421 0.80154 0.25357
 H1874 H 0.77638 0.79459 0.28381
 H1875 H 0.71229 0.71533 0.22024
 H1876 H 0.73165 0.69628 0.24109
 H1877 H 0.78260 0.80046 0.21578
 H1878 H 0.81386 0.74577 0.22906
 H1879 H 0.69342 0.74428 0.27036
 H1880 H 0.71270 0.72290 0.28653
 H1881 H 0.80103 0.71849 0.21890
 H1882 H 0.75720 0.72294 0.20022
 H1883 H 0.74044 0.76955 0.30662
 H1884 H 0.71980 0.78985 0.28750
 O1885 O 0.70815 0.24603 0.78539
 O1886 O 0.72245 0.21580 0.78796
 O1887 O 0.75484 0.28424 0.79248
 O1888 O 0.78253 0.29017 0.77853
 O1889 O 0.71533 0.29207 0.74620
 O1890 O 0.71125 0.27703 0.71652
 O1891 O 0.80395 0.23594 0.74065
 O1892 O 0.80442 0.24611 0.77148
 O1893 O 0.75959 0.19608 0.73642
 O1894 O 0.72843 0.19515 0.74571
 O1895 O 0.76333 0.23994 0.69643
 O1896 O 0.75568 0.27324 0.69609
 O1897 O 0.79325 0.25149 0.71453
 O1898 O 0.77766 0.28312 0.71065
 O1899 O 0.74757 0.21393 0.70695
 O1900 O 0.71602 0.21089 0.72308
 O1901 O 0.78609 0.20667 0.75131
 O1902 O 0.78630 0.22011 0.78348
 O1903 O 0.69732 0.26124 0.75911
 O1904 O 0.69754 0.25273 0.72605
 O1905 O 0.74149 0.30272 0.76164
 O1906 O 0.77497 0.30149 0.75167
 O1907 O 0.73825 0.25872 0.80308
 O1908 O 0.75124 0.22607 0.80131
 Zr1909 Zr 0.73682 0.24076 0.77939
 O1910 O 0.75340 0.22268 0.76257
 Zr1911 Zr 0.75927 0.27892 0.76352
 O1912 O 0.77725 0.26223 0.74669
 Zr1913 Zr 0.72104 0.26331 0.74121
 O1914 O 0.73739 0.24642 0.72299
 Zr1915 Zr 0.78002 0.23499 0.75817
 O1916 O 0.76405 0.25253 0.77646
 Zr1917 Zr 0.74177 0.21985 0.73549
 O1918 O 0.72374 0.23611 0.75298
 Zr1919 Zr 0.76467 0.25788 0.72015
 O1920 O 0.74740 0.27625 0.73636
 O1921 O 0.73262 0.26751 0.76783
 O1922 O 0.76876 0.23088 0.73121
 C1923 C 0.69505 0.25385 0.77554
 C1924 C 0.74637 0.27478 0.80546
 C1925 C 0.72516 0.30510 0.75411
 C1926 C 0.80622 0.24319 0.72417
 C1927 C 0.77624 0.19376 0.74324
 C1928 C 0.75592 0.22355 0.69405
 H1929 H 0.75445 0.21023 0.76890
 H1930 H 0.73086 0.24543 0.71069
 H1931 H 0.72461 0.27564 0.77591
 H1932 H 0.78968 0.26853 0.74569
 H1933 H 0.80017 0.25176 0.78356
 H1934 H 0.79352 0.28207 0.77559
 H1935 H 0.71353 0.21899 0.71195
 H1936 H 0.69474 0.24006 0.73129
 H1937 H 0.79879 0.21393 0.78193
 H1938 H 0.74441 0.22784 0.81342
 H1939 H 0.74287 0.26874 0.69277
 H1940 H 0.72172 0.28521 0.71211
 H1941 H 0.71702 0.21780 0.80073
 H1942 H 0.72103 0.19906 0.75690
 H1943 H 0.76863 0.30502 0.73970
 H1944 H 0.78852 0.28579 0.71904
 C1945 C 0.06978 1.00846 1.11472
 C1946 C 0.06710 1.02363 1.13029
 C1947 C 0.06364 1.00779 1.14476
 C1948 C 0.06646 0.99263 1.12947
 C1949 C 0.04842 1.00898 1.11086
 C1950 C 0.04499 0.99315 1.12535
 C1951 C 0.04558 1.02416 1.12612
 C1952 C 0.04228 1.00830 1.14091
 C1953 C 0.07241 1.00661 1.16348
 C1954 C 0.08002 1.00517 1.17865
 C1955 C 0.04001 1.00906 1.09194
 C1956 C 0.03306 1.00851 1.07640
 H1957 H 0.08099 1.00853 1.10375
 H1958 H 0.07628 1.03616 1.13255
 H1959 H 0.07513 0.97964 1.13105
 H1960 H 0.03581 0.98061 1.12310
 H1961 H 0.03690 1.03714 1.12451
 H1962 H 0.03108 1.00823 1.15189
 C1963 C 0.56882 0.50660 0.61682
 C1964 C 0.56616 0.52191 0.63224
 C1965 C 0.56281 0.50621 0.64688
 C1966 C 0.56560 0.49090 0.63174
 C1967 C 0.54745 0.50702 0.61304
 C1968 C 0.54411 0.49133 0.62769
 C1969 C 0.54464 0.52235 0.62816
 C1970 C 0.54143 0.50664 0.64312
 C1971 C 0.57172 0.50539 0.66556
 C1972 C 0.57947 0.50434 0.68069
 C1973 C 0.53905 0.50712 0.59412
 C1974 C 0.53221 0.50687 0.57852
 H1975 H 0.57999 0.50658 0.60581
 H1976 H 0.57533 0.53449 0.63433
 H1977 H 0.57431 0.47796 0.63341
 H1978 H 0.53495 0.47875 0.62561
 H1979 H 0.53592 0.53529 0.62646
 H1980 H 0.53028 0.50665 0.65415
 C1981 C 0.44355 -0.01906 0.61714
 C1982 C 0.45388 -0.01298 0.63549
 C1983 C 0.43665 -0.00094 0.64090
 C1984 C 0.42619 -0.00701 0.62285
 C1985 C 0.45187 -0.00174 0.60700
 C1986 C 0.43464 0.01029 0.61244
 C1987 C 0.46234 0.00433 0.62504
 C1988 C 0.44497 0.01637 0.63075
 C1989 C 0.42774 -0.00038 0.65957
 C1990 C 0.41987 0.00015 0.67466
 C1991 C 0.46019 -0.00199 0.58805
 C1992 C 0.46699 -0.00197 0.57245
 H1993 H 0.44304 -0.03363 0.61132
 H1994 H 0.46169 -0.02253 0.64518
 H1995 H 0.41122 -0.01167 0.62216
 H1996 H 0.42681 0.01984 0.60275
 H1997 H 0.47731 0.00899 0.62571
 H1998 H 0.44547 0.03094 0.63656
 C1999 C -0.05454 0.51481 1.11795
 C2000 C -0.07280 0.50426 1.12378
 C2001 C -0.06289 0.49766 1.14195
 C2002 C -0.04475 0.50822 1.13641
 C2003 C -0.04760 0.49674 1.10810
 C2004 C -0.03766 0.49014 1.12625
 C2005 C -0.06574 0.48619 1.11366
 C2006 C -0.05596 0.47959 1.13211
 C2007 C -0.07188 0.49829 1.16058
 C2008 C -0.07985 0.49887 1.17562
 C2009 C -0.03928 0.49646 1.08915
 C2010 C -0.03253 0.49648 1.07352
 H2011 H -0.05388 0.52928 1.11191
 H2012 H -0.08735 0.51008 1.12297
 H2013 H -0.03622 0.51727 1.14597
 H2014 H -0.02312 0.48432 1.12703
 H2015 H -0.07428 0.47713 1.10410
 H2016 H -0.05663 0.46511 1.13816
 C2017 C -0.07017 0.51693 0.38462
 C2018 C -0.06012 0.52409 0.36651
 C2019 C -0.06693 0.50632 0.35602
 C2020 C -0.07711 0.49917 0.37383
 C2021 C -0.05212 0.50620 0.39013
 C2022 C -0.05894 0.48845 0.37962
 C2023 C -0.04192 0.51335 0.37233
 C2024 C -0.04888 0.49559 0.36154
 C2025 C -0.07545 0.50593 0.33715
 C2026 C -0.08283 0.50516 0.32182
 C2027 C -0.04392 0.50568 0.40914
 C2028 C -0.03713 0.50480 0.42474
 H2029 H -0.07884 0.52569 0.39432
 H2030 H -0.06070 0.53873 0.36089
 H2031 H -0.09167 0.49333 0.37425
 H2032 H -0.05838 0.47379 0.38521
 H2033 H -0.02736 0.51918 0.37194
 H2034 H -0.04020 0.48682 0.35185
 C2035 C 0.42822 1.01533 -0.11421
 C2036 C 0.43684 1.02576 -0.13145
 C2037 C 0.43362 1.00797 -0.14349
 C2038 C 0.42488 0.99755 -0.12655
 C2039 C 0.44795 1.00780 -0.10919
 C2040 C 0.44472 0.99003 -0.12125
 C2041 C 0.45672 1.01823 -0.12611
 C2042 C 0.45335 1.00044 -0.13847
 C2043 C 0.42534 1.00758 -0.16247
 C2044 C 0.41813 1.00680 -0.17788
 C2045 C 0.45591 1.00724 -0.09008
 C2046 C 0.46253 1.00634 -0.07441
 H2047 H 0.41797 1.02143 -0.10403
 H2048 H 0.43351 1.04045 -0.13588
 H2049 H 0.41170 0.98904 -0.12693
 H2050 H 0.44803 0.97533 -0.11685
 H2051 H 0.46990 1.02673 -0.12570
 H2052 H 0.46360 0.99433 -0.14865
 C2053 C 0.56892 0.48181 -0.11018
 C2054 C 0.55980 0.47395 -0.12849
 C2055 C 0.56506 0.49238 -0.13873
 C2056 C 0.57431 0.50024 -0.12072
 C2057 C 0.54988 0.49075 -0.10484
 C2058 C 0.55515 0.50917 -0.11510
 C2059 C 0.54061 0.48288 -0.12284
 C2060 C 0.54602 0.50132 -0.13339
 C2061 C 0.57387 0.49350 -0.15742
 C2062 C 0.58157 0.49457 -0.17256
 C2063 C 0.54155 0.49024 -0.08591
 C2064 C 0.53471 0.49028 -0.07032
 H2065 H 0.57825 0.47379 -0.10044
 H2066 H 0.56180 0.45947 -0.13422
 H2067 H 0.58826 0.50741 -0.12005
 H2068 H 0.55316 0.52365 -0.10938
 H2069 H 0.52666 0.47571 -0.12348
 H2070 H 0.53670 0.50935 -0.14313
 C2071 C 0.07166 -0.01036 0.38947
 C2072 C 0.06752 -0.02461 0.37335
 C2073 C 0.06537 -0.00796 0.35955
 C2074 C 0.06964 0.00627 0.37538
 C2075 C 0.05037 -0.00918 0.39353
 C2076 C 0.04823 0.00746 0.37971
 C2077 C 0.04608 -0.02343 0.37771
 C2078 C 0.04408 -0.00678 0.36359
 C2079 C 0.07410 -0.00707 0.34080
 C2080 C 0.08175 -0.00619 0.32562
 C2081 C 0.04213 -0.00949 0.41251
 C2082 C 0.03536 -0.00931 0.42813
 H2083 H 0.08290 -0.01185 0.40031
 H2084 H 0.07555 -0.03779 0.37052
 H2085 H 0.07941 0.01851 0.37422
 H2086 H 0.04021 0.02064 0.38254
 H2087 H 0.03631 -0.03566 0.37890
 H2088 H 0.03285 -0.00529 0.35273
 C2089 C 0.11040 1.07065 1.00352
 C2090 C 0.12466 1.07154 1.02011
 C2091 C 0.14039 1.06508 1.00659
 C2092 C 0.12639 1.06432 0.99001
 C2093 C 0.10653 1.04981 1.00831
 C2094 C 0.12225 1.04336 0.99479
 C2095 C 0.12051 1.05055 1.02491
 C2096 C 0.13654 1.04424 1.01138
 C2097 C 0.15905 1.07396 1.00542
 C2098 C 0.17415 1.08175 1.00432
 C2099 C 0.08760 1.04146 1.00885
 C2100 C 0.07200 1.03462 1.00881
 H2101 H 0.09945 1.08142 1.00032
 H2102 H 0.12588 1.08322 1.03051
 H2103 H 0.12902 1.07006 0.97564
 H2104 H 0.12104 1.03167 0.98439
 H2105 H 0.11786 1.04481 1.03927
 H2106 H 0.14751 1.03348 1.01458
 C2107 C 0.62148 0.54598 0.49149
 C2108 C 0.62577 0.56745 0.49107
 C2109 C 0.64126 0.56438 0.50599
 C2110 C 0.63727 0.54303 0.50640
 C2111 C 0.60728 0.54939 0.50755
 C2112 C 0.62274 0.54631 0.52248
 C2113 C 0.61129 0.57073 0.50714
 C2114 C 0.62705 0.56780 0.52205
 C2115 C 0.65997 0.57315 0.50498
 C2116 C 0.67512 0.58089 0.50406
 C2117 C 0.58826 0.54125 0.50815
 C2118 C 0.57256 0.53467 0.50834
 H2119 H 0.61897 0.53691 0.47893
 H2120 H 0.62723 0.57622 0.47814
 H2121 H 0.64816 0.53175 0.50609
 H2122 H 0.62127 0.53753 0.53541
 H2123 H 0.60041 0.58203 0.50745
 H2124 H 0.62956 0.57686 0.53461
 C2125 C 0.62167 0.44577 -0.02227
 C2126 C 0.63850 0.45298 -0.01021
 C2127 C 0.64314 0.43245 -0.00487
 C2128 C 0.62663 0.42510 -0.01692
 C2129 C 0.60891 0.44695 -0.00474
 C2130 C 0.61358 0.42642 0.00060
 C2131 C 0.62543 0.45429 0.00731
 C2132 C 0.63037 0.43364 0.01264
 C2133 C 0.66209 0.42410 -0.00452
 C2134 C 0.67749 0.41687 -0.00379
 C2135 C 0.58984 0.45499 -0.00426
 C2136 C 0.57419 0.46166 -0.00349
 H2137 H 0.61786 0.45085 -0.03662
 H2138 H 0.64896 0.46381 -0.01465
 H2139 H 0.62734 0.41301 -0.02690
 H2140 H 0.60313 0.41558 0.00504
 H2141 H 0.62473 0.46638 0.01729
 H2142 H 0.63415 0.42857 0.02701
 C2143 C 0.12193 -0.05408 0.47451
 C2144 C 0.13889 -0.04648 0.48615
 C2145 C 0.14364 -0.06684 0.49204
 C2146 C 0.12701 -0.07458 0.48040
 C2147 C 0.10938 -0.05242 0.49215
 C2148 C 0.11416 -0.07277 0.49803
 C2149 C 0.12602 -0.04469 0.50378
 C2150 C 0.13106 -0.06516 0.50966
 C2151 C 0.16260 -0.07515 0.49246
 C2152 C 0.17800 -0.08236 0.49327
 C2153 C 0.09030 -0.04441 0.49268
 C2154 C 0.07466 -0.03773 0.49358
 H2155 H 0.11794 -0.04944 0.46006
 H2156 H 0.14927 -0.03576 0.48128
 H2157 H 0.12763 -0.08696 0.47078
 H2158 H 0.10379 -0.08350 0.50291
 H2159 H 0.12541 -0.03232 0.51341
 H2160 H 0.13503 -0.06980 0.52412
 C2161 C 0.38830 -0.06747 0.50855
 C2162 C 0.37076 -0.06012 0.51938
 C2163 C 0.35888 -0.06265 0.50137
 C2164 C 0.37615 -0.07013 0.49054
 C2165 C 0.39266 -0.04713 0.50229
 C2166 C 0.38078 -0.04967 0.48428
 C2167 C 0.37541 -0.03963 0.51312
 C2168 C 0.36323 -0.04231 0.49510
 C2169 C 0.34029 -0.07173 0.50074
 C2170 C 0.32527 -0.07975 0.50016
 C2171 C 0.41157 -0.03869 0.50259
 C2172 C 0.42716 -0.03185 0.50260
 H2173 H 0.39881 -0.07773 0.51408
 H2174 H 0.36642 -0.06450 0.53380
 H2175 H 0.37625 -0.08277 0.48124
 H2176 H 0.38512 -0.04529 0.46985
 H2177 H 0.37533 -0.02699 0.52243
 H2178 H 0.35270 -0.03206 0.48957
 C2179 C -0.11212 0.43202 1.01012
 C2180 C -0.12954 0.43949 1.02107
 C2181 C -0.14157 0.43699 1.00316
 C2182 C -0.12442 0.42939 0.99222
 C2183 C -0.10770 0.45232 1.00378
 C2184 C -0.11974 0.44981 0.98588
 C2185 C -0.12482 0.45994 1.01474
 C2186 C -0.13717 0.45729 0.99682
 C2187 C -0.16020 0.42797 1.00270
 C2188 C -0.17523 0.41997 1.00225
 C2189 C -0.08874 0.46064 1.00393
 C2190 C -0.07310 0.46738 1.00381
 H2191 H -0.10162 0.42172 1.01559
 H2192 H -0.13379 0.43516 1.03554
 H2193 H -0.12447 0.41673 0.98294
 H2194 H -0.11549 0.45414 0.97140
 H2195 H -0.12476 0.47260 1.02401
 H2196 H -0.14768 0.46758 0.99135
 C2197 C -0.11983 0.55611 0.50799
 C2198 C -0.12610 0.57322 0.49588
 C2199 C -0.14459 0.56280 0.49123
 C2200 C -0.13857 0.54581 0.50335
 C2201 C -0.11085 0.54724 0.49032
 C2202 C -0.12933 0.53680 0.48566
 C2203 C -0.11686 0.56423 0.47820
 C2204 C -0.13565 0.55394 0.47354
 C2205 C -0.16321 0.57177 0.49221
 C2206 C -0.17831 0.57954 0.49347
 C2207 C -0.09202 0.53868 0.49034
 C2208 C -0.07652 0.53166 0.49089
 H2209 H -0.11311 0.55693 0.52215
 H2210 H -0.12498 0.58830 0.50010
 H2211 H -0.14770 0.53834 0.51369
 H2212 H -0.13042 0.52171 0.48145
 H2213 H -0.10771 0.57170 0.46786
 H2214 H -0.14239 0.55314 0.45939
 C2215 C 0.37480 1.04923 -0.02614
 C2216 C 0.35838 1.04320 -0.01292
 C2217 C 0.35458 1.06413 -0.00855
 C2218 C 0.37068 1.07031 -0.02175
 C2219 C 0.38835 1.04863 -0.00917
 C2220 C 0.38453 1.06955 -0.00480
 C2221 C 0.37225 1.04247 0.00403
 C2222 C 0.36816 1.06351 0.00839
 C2223 C 0.33593 1.07306 -0.00771
 C2224 C 0.32080 1.08079 -0.00656
 C2225 C 0.40720 1.04008 -0.00902
 C2226 C 0.42270 1.03306 -0.00838
 H2227 H 0.37776 1.04326 -0.04034
 H2228 H 0.34742 1.03247 -0.01624
 H2229 H 0.36982 1.08185 -0.03235
 H2230 H 0.39548 1.08029 -0.00147
 H2231 H 0.37310 1.03093 0.01463
 H2232 H 0.36523 1.06947 0.02261
 C2233 C -0.00133 1.12676 1.04127
 C2234 C -0.01200 1.13271 1.05942
 C2235 C 0.00571 1.14343 1.06602
 C2236 C 0.01639 1.13778 1.04799
 C2237 C 0.00597 1.10913 1.05166
 C2238 C 0.02369 1.11982 1.05825
 C2239 C -0.00470 1.11481 1.06969
 C2240 C 0.01301 1.12580 1.07641
 C2241 C 0.00514 1.16241 1.07429
 C2242 C 0.00426 1.17783 1.08147
 C2243 C 0.00569 1.09001 1.04371
 C2244 C 0.00504 1.07432 1.03710
 H2245 H -0.00723 1.12694 1.02673
 H2246 H -0.02668 1.13821 1.05998
 H2247 H 0.02505 1.14744 1.03915
 H2248 H 0.03836 1.11430 1.05769
 H2249 H -0.01337 1.10516 1.07854
 H2250 H 0.01890 1.12562 1.09095
 C2251 C 0.49805 0.62871 0.54170
 C2252 C 0.48746 0.63472 0.55989
 C2253 C 0.50534 0.64511 0.56655
 C2254 C 0.51593 0.63940 0.54849
 C2255 C 0.50505 0.61090 0.55199
 C2256 C 0.52294 0.62127 0.55865
 C2257 C 0.49447 0.61664 0.57005
 C2258 C 0.51234 0.62730 0.57684
 C2259 C 0.50514 0.66402 0.57498
 C2260 C 0.50461 0.67937 0.58234
 C2261 C 0.50463 0.59181 0.54399
 C2262 C 0.50405 0.57611 0.53741
 H2263 H 0.49216 0.62906 0.52716
 H2264 H 0.47288 0.64046 0.56047
 H2265 H 0.52475 0.64897 0.53973
 H2266 H 0.53752 0.61552 0.55806
 H2267 H 0.48564 0.60708 0.57883
 H2268 H 0.51823 0.62694 0.59138
 C2269 C -0.02562 0.61646 0.44246
 C2270 C -0.01722 0.63421 0.45221
 C2271 C -0.00690 0.63918 0.43377
 C2272 C -0.01529 0.62174 0.42389
 C2273 C -0.00817 0.60511 0.44863
 C2274 C 0.00214 0.61010 0.43019
 C2275 C 0.00022 0.62254 0.45852
 C2276 C 0.01054 0.62781 0.43994
 C2277 C -0.00598 0.65799 0.42514
 C2278 C -0.00509 0.67323 0.41756
 C2279 C -0.00852 0.58609 0.45683
 C2280 C -0.00838 0.57046 0.46360
 H2281 H -0.04049 0.61157 0.44358
 H2282 H -0.02515 0.64435 0.46118
 H2283 H -0.02165 0.62163 0.40954
 H2284 H 0.01008 0.59998 0.42121
 H2285 H 0.00659 0.62265 0.47286
 H2286 H 0.02542 0.63268 0.43883
 C2287 C 0.47472 1.12020 -0.05126
 C2288 C 0.48799 1.13638 -0.04471
 C2289 C 0.49302 1.14034 -0.06545
 C2290 C 0.47977 1.12448 -0.07215
 C2291 C 0.49146 1.10641 -0.05032
 C2292 C 0.49649 1.11039 -0.07106
 C2293 C 0.50471 1.12227 -0.04362
 C2294 C 0.50974 1.12653 -0.06449
 C2295 C 0.49411 1.15906 -0.07424
 C2296 C 0.49515 1.17422 -0.08195
 C2297 C 0.49098 1.08744 -0.04201
 C2298 C 0.49103 1.07183 -0.03519
 H2299 H 0.46031 1.11737 -0.04574
 H2300 H 0.48451 1.14728 -0.03397
 H2301 H 0.46952 1.12560 -0.08398
 H2302 H 0.49996 1.09950 -0.08181
 H2303 H 0.51496 1.12115 -0.03179
 H2304 H 0.52416 1.12934 -0.07001
 C2305 C 0.49800 0.38324 -0.06511
 C2306 C 0.51542 0.37277 -0.07320
 C2307 C 0.50890 0.35465 -0.06314
 C2308 C 0.49147 0.36486 -0.05518
 C2309 C 0.50958 0.38837 -0.04747
 C2310 C 0.50305 0.37024 -0.03741
 C2311 C 0.52703 0.37819 -0.05542
 C2312 C 0.52049 0.35974 -0.04550
 C2313 C 0.50800 0.33603 -0.07216
 C2314 C 0.50677 0.32094 -0.07997
 C2315 C 0.50940 0.40719 -0.03884
 C2316 C 0.50869 0.42265 -0.03175
 H2317 H 0.48875 0.39309 -0.07309
 H2318 H 0.52050 0.37361 -0.08802
 H2319 H 0.47684 0.35918 -0.05517
 H2320 H 0.49797 0.36942 -0.02259
 H2321 H 0.54165 0.38390 -0.05542
 H2322 H 0.52973 0.34986 -0.03754
 C2323 C -0.00016 -0.11643 0.43246
 C2324 C 0.01742 -0.12843 0.42740
 C2325 C 0.00787 -0.14577 0.43638
 C2326 C -0.00972 -0.13402 0.44130
 C2327 C 0.00878 -0.11190 0.45172
 C2328 C -0.00078 -0.12923 0.46069
 C2329 C 0.02638 -0.12362 0.44681
 C2330 C 0.01681 -0.14127 0.45565
 C2331 C 0.00688 -0.16447 0.42753
 C2332 C 0.00562 -0.17962 0.41985
 C2333 C 0.00878 -0.09299 0.46017
 C2334 C 0.00828 -0.07745 0.46712
 H2335 H -0.00713 -0.10602 0.42300
 H2336 H 0.02490 -0.12832 0.41361
 H2337 H -0.02458 -0.13850 0.43895
 H2338 H -0.00827 -0.12935 0.47448
 H2339 H 0.04123 -0.11911 0.44917
 H2340 H 0.02378 -0.15170 0.46509
 C2341 C 0.49537 -0.12475 0.53691
 C2342 C 0.51206 -0.13279 0.54861
 C2343 C 0.49791 -0.13990 0.56346
 C2344 C 0.48122 -0.13217 0.55191
 C2345 C 0.49694 -0.10611 0.54796
 C2346 C 0.48279 -0.11322 0.56280
 C2347 C 0.51362 -0.11386 0.55951
 C2348 C 0.49947 -0.12124 0.57448
 C2349 C 0.49858 -0.15850 0.57253
 C2350 C 0.49920 -0.17352 0.58053
 C2351 C 0.49664 -0.08720 0.53953
 C2352 C 0.49668 -0.07159 0.53270
 H2353 H 0.49367 -0.12596 0.52136
 H2354 H 0.52410 -0.14105 0.54287
 H2355 H 0.46791 -0.13992 0.54888
 H2356 H 0.47075 -0.10496 0.56855
 H2357 H 0.52693 -0.10612 0.56256
 H2358 H 0.50117 -0.12001 0.59003
 C2359 C -0.00513 0.37368 1.03654
 C2360 C 0.01143 0.36544 1.04829
 C2361 C -0.00288 0.35821 1.06293
 C2362 C -0.01944 0.36614 1.05134
 C2363 C -0.00359 0.39218 1.04782
 C2364 C -0.01790 0.38495 1.06246
 C2365 C 0.01296 0.38423 1.05942
 C2366 C -0.00134 0.37673 1.07418
 C2367 C -0.00237 0.33952 1.07183
 C2368 C -0.00189 0.32445 1.07976
 C2369 C -0.00377 0.41120 1.03962
 C2370 C -0.00365 0.42687 1.03296
 H2371 H -0.00670 0.37266 1.02097
 H2372 H 0.02348 0.35720 1.04256
 H2373 H -0.03275 0.35848 1.04810
 H2374 H -0.02995 0.39319 1.06820
 H2375 H 0.02627 0.39189 1.06268
 H2376 H 0.00023 0.37778 1.08976
 C2377 C 0.77319 0.29696 0.12580
 C2378 C 0.75796 0.29310 0.11051
 C2379 C 0.75700 0.31442 0.10645
 C2380 C 0.77222 0.31842 0.12143
 C2381 C 0.75743 0.29951 0.14051
 C2382 C 0.75647 0.32083 0.13643
 C2383 C 0.74221 0.29552 0.12553
 C2384 C 0.74126 0.31696 0.12119
 C2385 C 0.75651 0.32314 0.08768
 C2386 C 0.75594 0.33086 0.07250
 C2387 C 0.75732 0.29134 0.15953
 C2388 C 0.75684 0.28462 0.17518
 H2389 H 0.78633 0.28865 0.12793
 H2390 H 0.75856 0.28181 0.09963
 H2391 H 0.78456 0.32793 0.11952
 H2392 H 0.75587 0.33213 0.14729
 H2393 H 0.72986 0.28602 0.12744
 H2394 H 0.72811 0.32526 0.11908
 C2395 C 0.24044 0.81190 0.63195
 C2396 C 0.25536 0.82588 0.62413
 C2397 C 0.25617 0.81433 0.60576
 C2398 C 0.24125 0.80047 0.61330
 C2399 C 0.25650 0.79963 0.63990
 C2400 C 0.25731 0.78806 0.62154
 C2401 C 0.27142 0.81349 0.63236
 C2402 C 0.27224 0.80206 0.61369
 C2403 C 0.25583 0.82294 0.58693
 C2404 C 0.25544 0.83056 0.57170
 C2405 C 0.25647 0.79158 0.65898
 C2406 C 0.25622 0.78499 0.67468
 H2407 H 0.22738 0.81587 0.63967
 H2408 H 0.25455 0.84154 0.62499
 H2409 H 0.22885 0.79520 0.60525
 H2410 H 0.25812 0.77240 0.62071
 H2411 H 0.28381 0.81877 0.64041
 H2412 H 0.28529 0.79810 0.60596
 C2413 C 0.73475 0.70726 0.62530
 C2414 C 0.75224 0.70611 0.61215
 C2415 C 0.74728 0.68541 0.60783
 C2416 C 0.72981 0.68642 0.62067
 C2417 C 0.74705 0.70039 0.64184
 C2418 C 0.74210 0.67969 0.63750
 C2419 C 0.76452 0.69937 0.62899
 C2420 C 0.75956 0.67855 0.62438
 C2421 C 0.74753 0.67666 0.58908
 C2422 C 0.74779 0.66896 0.57391
 C2423 C 0.74710 0.70856 0.66084
 C2424 C 0.74736 0.71521 0.67651
 H2425 H 0.72454 0.71916 0.62591
 H2426 H 0.75641 0.71687 0.60150
 H2427 H 0.71554 0.68101 0.61703
 H2428 H 0.73793 0.66892 0.64814
 H2429 H 0.77879 0.70478 0.63263
 H2430 H 0.76978 0.66665 0.62379
 C2431 C 0.23308 0.20757 0.12314
 C2432 C 0.25064 0.20640 0.11010
 C2433 C 0.24566 0.18572 0.10569
 C2434 C 0.22810 0.18675 0.11843
 C2435 C 0.24524 0.20061 0.13974
 C2436 C 0.24026 0.17993 0.13531
 C2437 C 0.26279 0.19958 0.12700
 C2438 C 0.25781 0.17878 0.12231
 C2439 C 0.24601 0.17698 0.08695
 C2440 C 0.24637 0.16921 0.07179
 C2441 C 0.24521 0.20868 0.15879
 C2442 C 0.24544 0.21523 0.17450
 H2443 H 0.22290 0.21949 0.12372
 H2444 H 0.25491 0.21717 0.09951
 H2445 H 0.21384 0.18139 0.11467
 H2446 H 0.23599 0.16914 0.14589
 H2447 H 0.27706 0.20493 0.13076
 H2448 H 0.26799 0.16686 0.12175
 C2449 C 0.26021 0.18306 0.86309
 C2450 C 0.27141 0.19020 0.88051
 C2451 C 0.25348 0.18812 0.89257
 C2452 C 0.24228 0.18085 0.87544
 C2453 C 0.25439 0.20353 0.85874
 C2454 C 0.23647 0.20144 0.87082
 C2455 C 0.26560 0.21082 0.87586
 C2456 C 0.24766 0.20859 0.88823
 C2457 C 0.25267 0.17922 0.91125
 C2458 C 0.25171 0.17150 0.92640
 C2459 C 0.25458 0.21195 0.83982
 C2460 C 0.25443 0.21878 0.82422
 H2461 H 0.26537 0.17265 0.85255
 H2462 H 0.28578 0.18548 0.88471
 H2463 H 0.23268 0.16843 0.87547
 H2464 H 0.22210 0.20614 0.86663
 H2465 H 0.27520 0.22324 0.87580
 H2466 H 0.24250 0.21899 0.89878
 C2467 C 0.76129 0.68220 0.36369
 C2468 C 0.77254 0.68935 0.38108
 C2469 C 0.75464 0.68728 0.39319
 C2470 C 0.74340 0.68000 0.37609
 C2471 C 0.75546 0.70267 0.35936
 C2472 C 0.73757 0.70059 0.37148
 C2473 C 0.76672 0.70997 0.37644
 C2474 C 0.74881 0.70775 0.38886
 C2475 C 0.75386 0.67838 0.41186
 C2476 C 0.75290 0.67065 0.42701
 C2477 C 0.75559 0.71108 0.34045
 C2478 C 0.75538 0.71792 0.32485
 H2479 H 0.76643 0.67179 0.35314
 H2480 H 0.78692 0.68464 0.38525
 H2481 H 0.73379 0.66758 0.37615
 H2482 H 0.72319 0.70529 0.36732
 H2483 H 0.77632 0.72239 0.37635
 H2484 H 0.74367 0.71815 0.39942
 C2485 C 0.24091 0.81904 0.36077
 C2486 C 0.22829 0.81306 0.37764
 C2487 C 0.24581 0.81314 0.39047
 C2488 C 0.25843 0.81925 0.37388
 C2489 C 0.24468 0.79809 0.35649
 C2490 C 0.26220 0.79818 0.36933
 C2491 C 0.23205 0.79195 0.37306
 C2492 C 0.24959 0.79218 0.38620
 C2493 C 0.24676 0.82184 0.40923
 C2494 C 0.24785 0.82941 0.42445
 C2495 C 0.24436 0.78982 0.33751
 C2496 C 0.24440 0.78306 0.32189
 H2497 H 0.23734 0.83000 0.35011
 H2498 H 0.21435 0.81926 0.38128
 H2499 H 0.26930 0.83057 0.37442
 H2500 H 0.27615 0.79198 0.36571
 H2501 H 0.22118 0.78063 0.37250
 H2502 H 0.25316 0.78123 0.39687
 C2503 C 0.74176 0.31866 0.86302
 C2504 C 0.72901 0.31252 0.87974
 C2505 C 0.74640 0.31270 0.89275
 C2506 C 0.75915 0.31896 0.87631
 C2507 C 0.74574 0.29775 0.85872
 C2508 C 0.76312 0.29793 0.87174
 C2509 C 0.73298 0.29146 0.87513
 C2510 C 0.75039 0.29178 0.88846
 C2511 C 0.74710 0.32136 0.91154
 C2512 C 0.74801 0.32891 0.92678
 C2513 C 0.74566 0.28954 0.83971
 C2514 C 0.74586 0.28282 0.82406
 H2515 H 0.73822 0.32962 0.85236
 H2516 H 0.71499 0.31861 0.88325
 H2517 H 0.76992 0.33036 0.87700
 H2518 H 0.77716 0.29185 0.86824
 H2519 H 0.72222 0.28006 0.87442
 H2520 H 0.75393 0.28083 0.89913
 C2521 C 0.81777 0.36442 0.25251
 C2522 C 0.82420 0.37572 0.23490
 C2523 C 0.81419 0.39329 0.24282
 C2524 C 0.80788 0.38226 0.26043
 C2525 C 0.79944 0.35915 0.24212
 C2526 C 0.78942 0.37672 0.25003
 C2527 C 0.80574 0.37017 0.22449
 C2528 C 0.79586 0.38806 0.23241
 C2529 C 0.82279 0.41212 0.24345
 C2530 C 0.83040 0.42735 0.24415
 C2531 C 0.79133 0.34010 0.24210
 C2532 C 0.78462 0.32444 0.24253
 H2533 H 0.82670 0.35449 0.26076
 H2534 H 0.83860 0.37552 0.22869
 H2535 H 0.80883 0.38743 0.27521
 H2536 H 0.77502 0.37691 0.25625
 H2537 H 0.80479 0.36497 0.20972
 H2538 H 0.78694 0.39800 0.22417
 C2539 C 0.31717 0.86624 0.75443
 C2540 C 0.32367 0.87729 0.73669
 C2541 C 0.31373 0.89501 0.74438
 C2542 C 0.30736 0.88423 0.76212
 C2543 C 0.29882 0.86095 0.74408
 C2544 C 0.28887 0.87865 0.75177
 C2545 C 0.30519 0.87172 0.72633
 C2546 C 0.29539 0.88974 0.73402
 C2547 C 0.32248 0.91378 0.74468
 C2548 C 0.33022 0.92895 0.74504
 C2549 C 0.29071 0.84190 0.74412
 C2550 C 0.28411 0.82620 0.74435
 H2551 H 0.32604 0.85637 0.76280
 H2552 H 0.33807 0.87695 0.73048
 H2553 H 0.30833 0.88959 0.77683
 H2554 H 0.27447 0.87898 0.75798
 H2555 H 0.30422 0.86635 0.71162
 H2556 H 0.28653 0.89963 0.72565
 C2557 C 0.20383 0.87295 0.23748
 C2558 C 0.18235 0.87713 0.23696
 C2559 C 0.18512 0.89192 0.25262
 C2560 C 0.20647 0.88804 0.25315
 C2561 C 0.20027 0.85797 0.25282
 C2562 C 0.20305 0.87275 0.26849
 C2563 C 0.17892 0.86188 0.25230
 C2564 C 0.18157 0.87695 0.26796
 C2565 C 0.17627 0.91062 0.25242
 C2566 C 0.16845 0.92576 0.25221
 C2567 C 0.20850 0.83899 0.25276
 C2568 C 0.21518 0.82333 0.25251
 H2569 H 0.21307 0.87108 0.22495
 H2570 H 0.17375 0.87915 0.22399
 H2571 H 0.21769 0.89901 0.25349
 H2572 H 0.21165 0.87072 0.28146
 H2573 H 0.16768 0.85093 0.25195
 H2574 H 0.17232 0.87881 0.28049
 C2575 C 0.70571 0.37334 0.73979
 C2576 C 0.68423 0.37749 0.73943
 C2577 C 0.68710 0.39229 0.75506
 C2578 C 0.70845 0.38844 0.75543
 C2579 C 0.70229 0.35836 0.75516
 C2580 C 0.70517 0.37315 0.77080
 C2581 C 0.68094 0.36224 0.75479
 C2582 C 0.68368 0.37731 0.77043
 C2583 C 0.67819 0.41097 0.75489
 C2584 C 0.67032 0.42606 0.75468
 C2585 C 0.71054 0.33939 0.75503
 C2586 C 0.71722 0.32373 0.75473
 H2587 H 0.71487 0.37148 0.72719
 H2588 H 0.67553 0.37948 0.72652
 H2589 H 0.71966 0.39943 0.75569
 H2590 H 0.71387 0.37113 0.78371
 H2591 H 0.66971 0.35127 0.75453
 H2592 H 0.67452 0.37917 0.78303
 C2593 C 0.70304 0.62709 0.76293
 C2594 C 0.68170 0.62298 0.76034
 C2595 C 0.68672 0.60670 0.74688
 C2596 C 0.70793 0.61052 0.74948
 C2597 C 0.70228 0.64046 0.74583
 C2598 C 0.70732 0.62419 0.73236
 C2599 C 0.68107 0.63663 0.74323
 C2600 C 0.68595 0.62006 0.72977
 C2601 C 0.67777 0.58804 0.74778
 C2602 C 0.67006 0.57288 0.74883
 C2603 C 0.71083 0.65933 0.74558
 C2604 C 0.71780 0.67487 0.74570
 H2605 H 0.71015 0.63019 0.77658
 H2606 H 0.67108 0.62228 0.77186
 H2607 H 0.71888 0.59958 0.75206
 H2608 H 0.71794 0.62492 0.72084
 H2609 H 0.67012 0.64757 0.74065
 H2610 H 0.67883 0.61695 0.71613
 C2611 C 0.20633 0.12437 0.25896
 C2612 C 0.18495 0.12014 0.26087
 C2613 C 0.18671 0.10535 0.24506
 C2614 C 0.20798 0.10929 0.24316
 C2615 C 0.20177 0.13934 0.24389
 C2616 C 0.20355 0.12457 0.22807
 C2617 C 0.18050 0.13538 0.24579
 C2618 C 0.18214 0.12032 0.22999
 C2619 C 0.17801 0.08659 0.24604
 C2620 C 0.17045 0.07135 0.24713
 C2621 C 0.21003 0.15833 0.24359
 C2622 C 0.21678 0.17397 0.24370
 H2623 H 0.21637 0.12626 0.27088
 H2624 H 0.17721 0.11811 0.27437
 H2625 H 0.21917 0.09835 0.24210
 H2626 H 0.21128 0.12663 0.21458
 H2627 H 0.16930 0.14631 0.24686
 H2628 H 0.17210 0.11843 0.21808
 C2629 C 0.30089 0.13204 0.73701
 C2630 C 0.32128 0.12717 0.74330
 C2631 C 0.31356 0.11000 0.75415
 C2632 C 0.29330 0.11458 0.74785
 C2633 C 0.29849 0.14397 0.75499
 C2634 C 0.29075 0.12682 0.76585
 C2635 C 0.31875 0.13938 0.76129
 C2636 C 0.31116 0.12192 0.77214
 C2637 C 0.32228 0.09124 0.75334
 C2638 C 0.32986 0.07602 0.75234
 C2639 C 0.29023 0.16295 0.75513
 C2640 C 0.28348 0.17859 0.75494
 H2641 H 0.29659 0.13641 0.72256
 H2642 H 0.33392 0.12711 0.73402
 H2643 H 0.28293 0.10418 0.74232
 H2644 H 0.27810 0.12690 0.77513
 H2645 H 0.32913 0.14978 0.76681
 H2646 H 0.31548 0.11753 0.78658
 C2647 C 0.80100 0.63102 0.23737
 C2648 C 0.82134 0.62599 0.24366
 C2649 C 0.81349 0.60888 0.25451
 C2650 C 0.79326 0.61363 0.24821
 C2651 C 0.79869 0.64298 0.25535
 C2652 C 0.79081 0.62588 0.26621
 C2653 C 0.81891 0.63822 0.26164
 C2654 C 0.81119 0.62082 0.27250
 C2655 C 0.82206 0.59004 0.25371
 C2656 C 0.82954 0.57477 0.25271
 C2657 C 0.79057 0.66203 0.25550
 C2658 C 0.78391 0.67771 0.25535
 H2659 H 0.79673 0.63543 0.22292
 H2660 H 0.83398 0.62583 0.23437
 H2661 H 0.78280 0.60331 0.24268
 H2662 H 0.77817 0.62607 0.27549
 H2663 H 0.82938 0.64854 0.26716
 H2664 H 0.81546 0.61640 0.28694
 C2665 C 0.87578 0.25067 0.20966
 C2666 C 0.88121 0.24027 0.19118
 C2667 C 0.89219 0.25790 0.18481
 C2668 C 0.88706 0.26830 0.20316
 C2669 C 0.85816 0.25857 0.19972
 C2670 C 0.86912 0.27622 0.19335
 C2671 C 0.86332 0.24818 0.18137
 C2672 C 0.87457 0.26581 0.17487
 C2673 C 0.91097 0.25726 0.17613
 C2674 C 0.92616 0.25654 0.16849
 C2675 C 0.83917 0.25854 0.20794
 C2676 C 0.82357 0.25804 0.21473
 H2677 H 0.87606 0.24444 0.22406
 H2678 H 0.88639 0.22549 0.19021
 H2679 H 0.89705 0.27655 0.21202
 H2680 H 0.86392 0.29099 0.19433
 H2681 H 0.85335 0.23992 0.17250
 H2682 H 0.87428 0.27203 0.16047
 C2683 C 0.37794 0.74992 0.71188
 C2684 C 0.38368 0.73958 0.69346
 C2685 C 0.39443 0.75737 0.68714
 C2686 C 0.38900 0.76772 0.70543
 C2687 C 0.36028 0.75754 0.70178
 C2688 C 0.37102 0.77533 0.69547
 C2689 C 0.36574 0.74720 0.68350
 C2690 C 0.37676 0.76498 0.67706
 C2691 C 0.41323 0.75711 0.67851
 C2692 C 0.42841 0.75676 0.67082
 C2693 C 0.34118 0.75741 0.70974
 C2694 C 0.32545 0.75707 0.71622
 H2695 H 0.37819 0.74373 0.72630
 H2696 H 0.38910 0.72488 0.69255
 H2697 H 0.39879 0.77615 0.71435
 H2698 H 0.36559 0.79003 0.69637
 H2699 H 0.35597 0.73877 0.67456
 H2700 H 0.37649 0.77117 0.66264
 C2701 C 0.37696 0.24627 0.78711
 C2702 C 0.38538 0.26245 0.79927
 C2703 C 0.39255 0.24767 0.81348
 C2704 C 0.38444 0.23149 0.80147
 C2705 C 0.35853 0.24762 0.79852
 C2706 C 0.36571 0.23285 0.81272
 C2707 C 0.36665 0.26379 0.81053
 C2708 C 0.37411 0.24902 0.82486
 C2709 C 0.41131 0.24778 0.82223
 C2710 C 0.42648 0.24790 0.82996
 C2711 C 0.33951 0.24773 0.79033
 C2712 C 0.32386 0.24798 0.78364
 H2713 H 0.37790 0.24513 0.77149
 H2714 H 0.39368 0.27461 0.79383
 H2715 H 0.39198 0.21822 0.79783
 H2716 H 0.35741 0.22069 0.81817
 H2717 H 0.35912 0.27706 0.81417
 H2718 H 0.37315 0.25016 0.84048
 C2719 C 0.87780 0.74523 0.28766
 C2720 C 0.88613 0.76141 0.29988
 C2721 C 0.89324 0.74664 0.31413
 C2722 C 0.88522 0.73045 0.30206
 C2723 C 0.85930 0.74655 0.29895
 C2724 C 0.86642 0.73178 0.31320
 C2725 C 0.86733 0.76272 0.31102
 C2726 C 0.87472 0.74796 0.32539
 C2727 C 0.91193 0.74678 0.32301
 C2728 C 0.92705 0.74695 0.33086
 C2729 C 0.84032 0.74666 0.29070
 C2730 C 0.82467 0.74694 0.28399
 H2731 H 0.87884 0.74410 0.27205
 H2732 H 0.89445 0.77358 0.29449
 H2733 H 0.89280 0.71719 0.29847
 H2734 H 0.85810 0.71961 0.31859
 H2735 H 0.85976 0.77599 0.31463
 H2736 H 0.87366 0.74909 0.34100
 C2737 C 0.13195 0.73737 0.30794
 C2738 C 0.12486 0.75107 0.32344
 C2739 C 0.10628 0.75349 0.31245
 C2740 C 0.11310 0.73977 0.29707
 C2741 C 0.14010 0.75431 0.29706
 C2742 C 0.12154 0.75673 0.28605
 C2743 C 0.13330 0.76803 0.31245
 C2744 C 0.11441 0.77045 0.30159
 C2745 C 0.08760 0.75271 0.32133
 C2746 C 0.07243 0.75175 0.32902
 C2747 C 0.15901 0.75445 0.28863
 C2748 C 0.17458 0.75425 0.28176
 H2749 H 0.13936 0.72377 0.31047
 H2750 H 0.12603 0.74873 0.33892
 H2751 H 0.10459 0.72815 0.29084
 H2752 H 0.12039 0.75907 0.27058
 H2753 H 0.14181 0.77965 0.31868
 H2754 H 0.10698 0.78404 0.29907
 C2755 C 0.63679 0.24438 0.81703
 C2756 C 0.62536 0.26198 0.82324
 C2757 C 0.60781 0.25370 0.81346
 C2758 C 0.61897 0.23609 0.80739
 C2759 C 0.64182 0.25451 0.79849
 C2760 C 0.62427 0.24623 0.78872
 C2761 C 0.63067 0.27213 0.80456
 C2762 C 0.61281 0.26384 0.79492
 C2763 C 0.58901 0.25293 0.82211
 C2764 C 0.57376 0.25201 0.82961
 C2765 C 0.66082 0.25464 0.79028
 C2766 C 0.67646 0.25444 0.78357
 H2767 H 0.64685 0.23638 0.82604
 H2768 H 0.62559 0.26845 0.83753
 H2769 H 0.61395 0.22127 0.80863
 H2770 H 0.62404 0.23976 0.77443
 H2771 H 0.63571 0.28695 0.80332
 H2772 H 0.60273 0.27183 0.78593
 C2773 C 0.62872 0.76042 0.70603
 C2774 C 0.62445 0.76205 0.68463
 C2775 C 0.60956 0.74635 0.68666
 C2776 C 0.61354 0.74473 0.70794
 C2777 C 0.64356 0.74519 0.70165
 C2778 C 0.62869 0.72948 0.70370
 C2779 C 0.63957 0.74681 0.68037
 C2780 C 0.62440 0.73112 0.68228
 C2781 C 0.59078 0.74732 0.67800
 C2782 C 0.57553 0.74845 0.67050
 C2783 C 0.66255 0.74485 0.70990
 C2784 C 0.67818 0.74485 0.71666
 H2785 H 0.63070 0.77247 0.71588
 H2786 H 0.62250 0.77546 0.67670
 H2787 H 0.60263 0.74388 0.71918
 H2788 H 0.63067 0.71608 0.71164
 H2789 H 0.65047 0.74767 0.66913
 H2790 H 0.62241 0.71907 0.67242
 C2791 C 0.13394 0.22988 0.18604
 C2792 C 0.11519 0.22860 0.19731
 C2793 C 0.10740 0.24526 0.18575
 C2794 C 0.12584 0.24653 0.17434
 C2795 C 0.14147 0.24412 0.20060
 C2796 C 0.13365 0.26076 0.18902
 C2797 C 0.12304 0.24285 0.21202
 C2798 C 0.11494 0.25950 0.20030
 C2799 C 0.08860 0.24622 0.17714
 C2800 C 0.07335 0.24735 0.16963
 C2801 C 0.16050 0.24381 0.20874
 C2802 C 0.17618 0.24387 0.21540
 H2803 H 0.14196 0.21770 0.18026
 H2804 H 0.10738 0.21540 0.20064
 H2805 H 0.12679 0.24806 0.15876
 H2806 H 0.14145 0.27397 0.18569
 H2807 H 0.12211 0.24132 0.22761
 H2808 H 0.10693 0.27168 0.20608
 C2809 C -0.06630 1.00806 0.88801
 C2810 C -0.05563 1.01510 0.87025
 C2811 C -0.06339 0.99811 0.85917
 C2812 C -0.07418 0.99108 0.87667
 C2813 C -0.04899 0.99609 0.89340
 C2814 C -0.05675 0.97909 0.88234
 C2815 C -0.03819 1.00312 0.87591
 C2816 C -0.04608 0.98613 0.86453
 C2817 C -0.07185 0.99931 0.84031
 C2818 C -0.07939 1.00027 0.82506
 C2819 C -0.04115 0.99529 0.91255
 C2820 C -0.03474 0.99504 0.92833
 H2821 H -0.07454 1.01705 0.89788
 H2822 H -0.05525 1.02992 0.86507
 H2823 H -0.08907 0.98615 0.87678
 H2824 H -0.05714 0.96428 0.88753
 H2825 H -0.02330 1.00806 0.87582
 H2826 H -0.03786 0.97714 0.85465
 C2827 C 0.42948 0.50330 0.39139
 C2828 C 0.43845 0.51378 0.37440
 C2829 C 0.43416 0.49659 0.36185
 C2830 C 0.42505 0.48611 0.37857
 C2831 C 0.44883 0.49459 0.39596
 C2832 C 0.44455 0.47738 0.38343
 C2833 C 0.45794 0.50506 0.37924
 C2834 C 0.45352 0.48787 0.36639
 C2835 C 0.42562 0.49787 0.34302
 C2836 C 0.41810 0.49895 0.32777
 C2837 C 0.45693 0.49396 0.41501
 C2838 C 0.46364 0.49404 0.43067
 H2839 H 0.41967 0.50962 0.40187
 H2840 H 0.43587 0.52876 0.37048
 H2841 H 0.41143 0.47834 0.37809
 H2842 H 0.44713 0.46240 0.38736
 H2843 H 0.47156 0.51284 0.37972
 H2844 H 0.46331 0.48156 0.35589
 C2845 C 0.57208 0.00480 0.38606
 C2846 C 0.56757 -0.01066 0.37123
 C2847 C 0.56586 0.00476 0.35603
 C2848 C 0.57050 0.02022 0.37058
 C2849 C 0.55082 0.00693 0.38996
 C2850 C 0.54912 0.02236 0.37476
 C2851 C 0.54618 -0.00853 0.37541
 C2852 C 0.54461 0.00689 0.35991
 C2853 C 0.57455 0.00370 0.33726
 C2854 C 0.58210 0.00319 0.32200
 C2855 C 0.54255 0.00784 0.40892
 C2856 C 0.53576 0.00811 0.42453
 H2857 H 0.58328 0.00399 0.39702
 H2858 H 0.57522 -0.02425 0.36957
 H2859 H 0.58061 0.03203 0.36839
 H2860 H 0.54146 0.03595 0.37643
 H2861 H 0.53608 -0.02034 0.37761
 H2862 H 0.53341 0.00770 0.34894
 C2863 C 0.04306 0.51779 0.87342
 C2864 C 0.06390 0.52232 0.86844
 C2865 C 0.06468 0.50425 0.85640
 C2866 C 0.04397 0.49970 0.86107
 C2867 C 0.04993 0.50621 0.89047
 C2868 C 0.05071 0.48814 0.87842
 C2869 C 0.07064 0.51075 0.88578
 C2870 C 0.07154 0.49268 0.87346
 C2871 C 0.07322 0.50330 0.83757
 C2872 C 0.08067 0.50285 0.82226
 C2873 C 0.04182 0.50701 0.90950
 C2874 C 0.03516 0.50719 0.92517
 H2875 H 0.03127 0.52814 0.87363
 H2876 H 0.06942 0.53637 0.86412
 H2877 H 0.03311 0.49513 0.85071
 H2878 H 0.04520 0.47409 0.88275
 H2879 H 0.08151 0.51532 0.89613
 H2880 H 0.08333 0.48233 0.87327
 C2881 C 0.06495 0.49491 0.61213
 C2882 C 0.06179 0.51160 0.62592
 C2883 C 0.05902 0.49738 0.64211
 C2884 C 0.06230 0.48070 0.62858
 C2885 C 0.04356 0.49422 0.60843
 C2886 C 0.04077 0.47998 0.62460
 C2887 C 0.04028 0.51090 0.62196
 C2888 C 0.03763 0.49669 0.63844
 C2889 C 0.06816 0.49925 0.66059
 C2890 C 0.07630 0.50075 0.67548
 C2891 C 0.03530 0.49286 0.58949
 C2892 C 0.02877 0.49227 0.57377
 H2893 H 0.07609 0.49415 0.60112
 H2894 H 0.07051 0.52463 0.62666
 H2895 H 0.07146 0.46830 0.63151
 H2896 H 0.03204 0.46695 0.62383
 H2897 H 0.03113 0.52330 0.61902
 H2898 H 0.02650 0.49746 0.64947
 C2899 C 0.56362 0.99875 0.11293
 C2900 C 0.55800 1.01317 0.12838
 C2901 C 0.55839 0.99719 0.14309
 C2902 C 0.56413 0.98278 0.12789
 C2903 C 0.54259 0.99453 0.10953
 C2904 C 0.54295 0.97853 0.12422
 C2905 C 0.53683 1.00895 0.12472
 C2906 C 0.53735 0.99298 0.13973
 C2907 C 0.56775 0.99880 0.16149
 C2908 C 0.57610 1.00012 0.17628
 C2909 C 0.53419 0.99344 0.09063
 C2910 C 0.52761 0.99305 0.07493
 H2911 H 0.57434 1.00109 0.10172
 H2912 H 0.56427 1.02744 0.13028
 H2913 H 0.57546 0.97203 0.12940
 H2914 H 0.53668 0.96427 0.12229
 H2915 H 0.52551 1.01970 0.12320
 H2916 H 0.52665 0.99064 0.15097
 C2917 C 0.44464 0.48103 0.12227
 C2918 C 0.45470 0.48678 0.14087
 C2919 C 0.43697 0.49784 0.14672
 C2920 C 0.42678 0.49209 0.12841
 C2921 C 0.45224 0.49907 0.11284
 C2922 C 0.43451 0.51013 0.11871
 C2923 C 0.46245 0.50483 0.13113
 C2924 C 0.44457 0.51589 0.13729
 C2925 C 0.42804 0.49740 0.16540
 C2926 C 0.42019 0.49744 0.18052
 C2927 C 0.46052 0.49967 0.09386
 C2928 C 0.46717 0.49991 0.07818
 H2929 H 0.44474 0.46670 0.11587
 H2930 H 0.46289 0.47716 0.15018
 H2931 H 0.41203 0.48682 0.12749
 H2932 H 0.42630 0.51975 0.10941
 H2933 H 0.47720 0.51010 0.13203
 H2934 H 0.44446 0.53022 0.14368
 C2935 C -0.05426 -0.01885 0.62085
 C2936 C -0.04419 -0.01301 0.63942
 C2937 C -0.06197 -0.00202 0.64528
 C2938 C -0.07216 -0.00787 0.62701
 C2939 C -0.04676 -0.00078 0.61138
 C2940 C -0.06454 0.01019 0.61726
 C2941 C -0.03656 0.00506 0.62964
 C2942 C -0.05447 0.01604 0.63580
 C2943 C -0.07087 -0.00242 0.66398
 C2944 C -0.07868 -0.00228 0.67912
 C2945 C -0.03853 -0.00016 0.59239
 C2946 C -0.03191 0.00013 0.57669
 H2947 H -0.05409 -0.03319 0.61449
 H2948 H -0.03594 -0.02257 0.64874
 H2949 H -0.08689 -0.01321 0.62613
 H2950 H -0.07281 0.01975 0.60795
 H2951 H -0.02183 0.01041 0.63050
 H2952 H -0.05465 0.03039 0.64216
 C2953 C -0.12957 0.96270 0.99349
 C2954 C -0.13569 0.94448 0.98296
 C2955 C -0.14535 0.93750 1.00112
 C2956 C -0.13954 0.95558 1.01167
 C2957 C -0.11140 0.95261 0.99979
 C2958 C -0.12106 0.94564 1.01796
 C2959 C -0.11723 0.93454 0.98926
 C2960 C -0.12717 0.92744 1.00742
 C2961 C -0.16408 0.92867 1.00161
 C2962 C -0.17925 0.92089 1.00160
 C2963 C -0.09238 0.96080 0.99916
 C2964 C -0.07667 0.96738 0.99889
 H2965 H -0.13034 0.97728 0.98773
 H2966 H -0.14193 0.94392 0.96857
 H2967 H -0.14892 0.96412 1.02089
 H2968 H -0.11482 0.94619 1.03235
 H2969 H -0.10787 0.92598 0.98003
 H2970 H -0.12638 0.91286 1.01318
 C2971 C 0.38513 0.43260 0.50477
 C2972 C 0.36823 0.43985 0.51662
 C2973 C 0.35534 0.43735 0.49933
 C2974 C 0.37197 0.42997 0.48748
 C2975 C 0.38908 0.45297 0.49833
 C2976 C 0.37619 0.45048 0.48103
 C2977 C 0.37245 0.46037 0.51018
 C2978 C 0.35926 0.45773 0.49288
 C2979 C 0.33672 0.42827 0.49973
 C2980 C 0.32164 0.42033 0.49973
 C2981 C 0.40797 0.46147 0.49800
 C2982 C 0.42356 0.46833 0.49810
 H2983 H 0.39597 0.42234 0.50963
 H2984 H 0.36475 0.43540 0.53126
 H2985 H 0.37157 0.41736 0.47815
 H2986 H 0.37968 0.45492 0.46639
 H2987 H 0.37287 0.47298 0.51951
 H2988 H 0.34841 0.46797 0.48802
 C2989 C 0.37910 0.54335 -0.01220
 C2990 C 0.36135 0.53749 -0.00079
 C2991 C 0.35717 0.55847 0.00292
 C2992 C 0.37464 0.56445 -0.00851
 C2993 C 0.39077 0.54288 0.00613
 C2994 C 0.38656 0.56386 0.00983
 C2995 C 0.37332 0.53687 0.01758
 C2996 C 0.36882 0.55801 0.02125
 C2997 C 0.33872 0.56769 0.00103
 C2998 C 0.32387 0.57588 -0.00050
 C2999 C 0.40967 0.53454 0.00751
 C3000 C 0.42536 0.52794 0.00812
 H3001 H 0.38355 0.53723 -0.02594
 H3002 H 0.35078 0.52675 -0.00519
 H3003 H 0.37499 0.57588 -0.01927
 H3004 H 0.39711 0.57462 0.01422
 H3005 H 0.37300 0.52544 0.02833
 H3006 H 0.36438 0.56413 0.03499
 C3007 C -0.11893 0.05320 0.52198
 C3008 C -0.12414 0.06949 0.50830
 C3009 C -0.14239 0.05894 0.50305
 C3010 C -0.13748 0.04277 0.51672
 C3011 C -0.10888 0.04305 0.50563
 C3012 C -0.12712 0.03247 0.50038
 C3013 C -0.11383 0.05921 0.49198
 C3014 C -0.13234 0.04879 0.48671
 C3015 C -0.16077 0.06834 0.50151
 C3016 C -0.17555 0.07671 0.50025
 C3017 C -0.09001 0.03460 0.50668
 C3018 C -0.07433 0.02796 0.50704
 H3019 H -0.11320 0.05492 0.53648
 H3020 H -0.12310 0.08481 0.51153
 H3021 H -0.14743 0.03611 0.52686
 H3022 H -0.12812 0.01714 0.49715
 H3023 H -0.10390 0.06590 0.48183
 H3024 H -0.13806 0.04707 0.47220
 C3025 C 0.61675 0.06848 0.48095
 C3026 C 0.62533 0.07772 0.49886
 C3027 C 0.64376 0.06676 0.49542
 C3028 C 0.63547 0.05765 0.47752
 C3029 C 0.60972 0.05194 0.49315
 C3030 C 0.62814 0.04097 0.48971
 C3031 C 0.61803 0.06106 0.51104
 C3032 C 0.63674 0.05022 0.50762
 C3033 C 0.66260 0.07529 0.49660
 C3034 C 0.67793 0.08270 0.49728
 C3035 C 0.59072 0.04375 0.49224
 C3036 C 0.57509 0.03697 0.49205
 H3037 H 0.60833 0.07590 0.46997
 H3038 H 0.62438 0.09292 0.50266
 H3039 H 0.64287 0.05633 0.46375
 H3040 H 0.62908 0.02577 0.48591
 H3041 H 0.61063 0.06239 0.52481
 H3042 H 0.64515 0.04281 0.51860
 C3043 C 0.11431 0.57121 0.99012
 C3044 C 0.12723 0.57092 1.00778
 C3045 C 0.14392 0.56504 0.99520
 C3046 C 0.13127 0.56546 0.97754
 C3047 C 0.10987 0.55019 0.99330
 C3048 C 0.12655 0.54430 0.98071
 C3049 C 0.12252 0.54977 1.01096
 C3050 C 0.13950 0.54401 0.99839
 C3051 C 0.16274 0.57363 0.99616
 C3052 C 0.17805 0.58111 0.99664
 C3053 C 0.09086 0.54200 0.99258
 C3054 C 0.07521 0.53527 0.99252
 H3055 H 0.10375 0.58231 0.98668
 H3056 H 0.12772 0.58194 1.01894
 H3057 H 0.13509 0.57202 0.96380
 H3058 H 0.12604 0.53328 0.96955
 H3059 H 0.11871 0.54322 1.02471
 H3060 H 0.15006 0.53293 1.00182
 C3061 C 0.11782 0.44805 0.48402
 C3062 C 0.13542 0.45553 0.49471
 C3063 C 0.14054 0.43509 0.49999
 C3064 C 0.12323 0.42750 0.48929
 C3065 C 0.10634 0.44944 0.50240
 C3066 C 0.11148 0.42901 0.50767
 C3067 C 0.12363 0.45705 0.51312
 C3068 C 0.12907 0.43648 0.51838
 C3069 C 0.15939 0.42664 0.49859
 C3070 C 0.17462 0.41912 0.49751
 C3071 C 0.08720 0.45726 0.50340
 C3072 C 0.07142 0.46365 0.50378
 H3073 H 0.11298 0.45288 0.46990
 H3074 H 0.14547 0.46633 0.48936
 H3075 H 0.12328 0.41527 0.47945
 H3076 H 0.10144 0.41819 0.51302
 H3077 H 0.12356 0.46928 0.52295
 H3078 H 0.13392 0.43164 0.53250
 C3079 C 0.61693 0.94911 -0.01447
 C3080 C 0.63452 0.95653 -0.00371
 C3081 C 0.63956 0.93607 0.00158
 C3082 C 0.62226 0.92854 -0.00920
 C3083 C 0.60539 0.95053 0.00387
 C3084 C 0.61045 0.93008 0.00915
 C3085 C 0.62267 0.95808 0.01466
 C3086 C 0.62802 0.93749 0.01992
 C3087 C 0.65838 0.92757 0.00023
 C3088 C 0.67360 0.92001 -0.00083
 C3089 C 0.58627 0.95841 0.00480
 C3090 C 0.57051 0.96484 0.00512
 H3091 H 0.61215 0.95397 -0.02861
 H3092 H 0.64462 0.96730 -0.00902
 H3093 H 0.62230 0.91632 -0.01904
 H3094 H 0.60035 0.91930 0.01446
 H3095 H 0.62260 0.97031 0.02449
 H3096 H 0.63280 0.93262 0.03406
 C3097 C -0.01349 0.88529 0.93685
 C3098 C 0.00531 0.87539 0.93168
 C3099 C -0.00216 0.85703 0.94059
 C3100 C -0.02096 0.86666 0.94563
 C3101 C -0.00505 0.89070 0.95611
 C3102 C -0.01253 0.87236 0.96505
 C3103 C 0.01374 0.88106 0.95106
 C3104 C 0.00629 0.86242 0.95985
 C3105 C -0.00043 0.83854 0.93143
 C3106 C 0.00097 0.82363 0.92331
 C3107 C -0.00627 0.90963 0.96443
 C3108 C -0.00676 0.92533 0.97101
 H3109 H -0.02165 0.89489 0.92749
 H3110 H 0.01269 0.87644 0.91787
 H3111 H -0.03521 0.86051 0.94331
 H3112 H -0.01990 0.87134 0.97886
 H3113 H 0.02800 0.88719 0.95337
 H3114 H 0.01445 0.85281 0.96920
 C3115 C 0.48382 0.38750 0.43668
 C3116 C 0.50255 0.37747 0.43151
 C3117 C 0.49487 0.35909 0.44019
 C3118 C 0.47613 0.36884 0.44523
 C3119 C 0.49221 0.39263 0.45603
 C3120 C 0.48451 0.37428 0.46475
 C3121 C 0.51093 0.38286 0.45098
 C3122 C 0.50327 0.36421 0.45955
 C3123 C 0.49655 0.34068 0.43088
 C3124 C 0.49798 0.32584 0.42264
 C3125 C 0.49126 0.41148 0.46455
 C3126 C 0.49114 0.42711 0.47133
 H3127 H 0.47580 0.39727 0.42737
 H3128 H 0.51001 0.37858 0.41775
 H3129 H 0.46183 0.36286 0.44277
 H3130 H 0.47705 0.37320 0.47851
 H3131 H 0.52524 0.38883 0.45342
 H3132 H 0.51129 0.35444 0.46885
 C3133 C -0.00252 0.36906 0.53598
 C3134 C 0.01356 0.36002 0.54782
 C3135 C -0.00113 0.35378 0.56256
 C3136 C -0.01722 0.36251 0.55087
 C3137 C 0.00011 0.38758 0.54703
 C3138 C -0.01457 0.38133 0.56177
 C3139 C 0.01619 0.37884 0.55872
 C3140 C 0.00150 0.37232 0.57358
 C3141 C -0.00156 0.33514 0.57162
 C3142 C -0.00147 0.32005 0.57955
 C3143 C 0.00072 0.40652 0.53862
 C3144 C 0.00100 0.42217 0.53186
 H3145 H -0.00415 0.36793 0.52042
 H3146 H 0.02511 0.35104 0.54217
 H3147 H -0.03095 0.35560 0.54774
 H3148 H -0.02612 0.39031 0.56743
 H3149 H 0.02993 0.38574 0.56187
 H3150 H 0.00313 0.37347 0.58915
 C3151 C 0.50054 0.88481 0.06901
 C3152 C 0.48386 0.87073 0.06730
 C3153 C 0.49802 0.85483 0.06304
 C3154 C 0.51469 0.86865 0.06487
 C3155 C 0.49914 0.88871 0.04769
 C3156 C 0.51330 0.87281 0.04342
 C3157 C 0.48245 0.87490 0.04585
 C3158 C 0.49662 0.85869 0.04171
 C3159 C 0.49766 0.83614 0.07199
 C3160 C 0.49778 0.82101 0.07984
 C3161 C 0.49969 0.90768 0.03937
 C3162 C 0.49994 0.92335 0.03267
 H3163 H 0.50217 0.89574 0.08015
 H3164 H 0.47173 0.86966 0.07720
 H3165 H 0.52795 0.86587 0.07280
 H3166 H 0.52542 0.87389 0.03352
 H3167 H 0.46920 0.87769 0.03792
 H3168 H 0.49498 0.84775 0.03059
 C3169 C 0.51450 0.61424 0.05892
 C3170 C 0.51011 0.63278 0.04811
 C3171 C 0.49857 0.63968 0.06514
 C3172 C 0.50298 0.62142 0.07607
 C3173 C 0.49638 0.60545 0.05076
 C3174 C 0.48485 0.61235 0.06780
 C3175 C 0.49198 0.62369 0.03981
 C3176 C 0.48045 0.63090 0.05699
 C3177 C 0.49986 0.65854 0.07360
 C3178 C 0.50086 0.67379 0.08112
 C3179 C 0.49548 0.58630 0.04292
 C3180 C 0.49516 0.57052 0.03650
 H3181 H 0.52849 0.60718 0.05965
 H3182 H 0.52051 0.64139 0.04010
 H3183 H 0.50753 0.62068 0.09107
 H3184 H 0.47445 0.60374 0.07582
 H3185 H 0.48742 0.62440 0.02481
 H3186 H 0.46646 0.63797 0.05628
 C3187 C -0.00907 0.12373 0.53901
 C3188 C -0.01955 0.13042 0.55705
 C3189 C -0.00118 0.13974 0.56396
 C3190 C 0.00931 0.13337 0.54606
 C3191 C -0.00328 0.10556 0.54944
 C3192 C 0.01508 0.11490 0.55634
 C3193 C -0.01376 0.11195 0.56734
 C3194 C 0.00461 0.12156 0.57436
 C3195 C 0.00007 0.15858 0.57249
 C3196 C 0.00106 0.17381 0.58007
 C3197 C -0.00413 0.08644 0.54153
 C3198 C -0.00441 0.07066 0.53508
 H3199 H -0.01473 0.12439 0.52439
 H3200 H -0.03377 0.13702 0.55742
 H3201 H 0.01881 0.14237 0.53740
 H3202 H 0.02931 0.10831 0.55599
 H3203 H -0.02326 0.10294 0.57600
 H3204 H 0.01027 0.12087 0.58898
 C3205 C 0.48771 0.12114 0.44432
 C3206 C 0.49527 0.13953 0.45350
 C3207 C 0.50401 0.14514 0.43444
 C3208 C 0.49644 0.12703 0.42513
 C3209 C 0.50632 0.11118 0.44945
 C3210 C 0.51506 0.11680 0.43039
 C3211 C 0.51391 0.12928 0.45877
 C3212 C 0.52264 0.13519 0.43957
 C3213 C 0.50283 0.16392 0.42577
 C3214 C 0.50214 0.17920 0.41824
 C3215 C 0.50727 0.09221 0.45772
 C3216 C 0.50753 0.07658 0.46451
 H3217 H 0.47335 0.11514 0.44635
 H3218 H 0.48711 0.14908 0.46290
 H3219 H 0.48921 0.12631 0.41122
 H3220 H 0.52322 0.10726 0.42098
 H3221 H 0.52113 0.12999 0.47269
 H3222 H 0.53699 0.14120 0.43753
 C3223 C -0.01164 0.62027 0.94572
 C3224 C -0.00391 0.63860 0.95489
 C3225 C 0.00491 0.64411 0.93583
 C3226 C -0.00283 0.62607 0.92653
 C3227 C 0.00687 0.61015 0.95088
 C3228 C 0.01568 0.61567 0.93182
 C3229 C 0.01462 0.62818 0.96019
 C3230 C 0.02343 0.63399 0.94099
 C3231 C 0.00395 0.66288 0.92712
 C3232 C 0.00351 0.67814 0.91952
 C3233 C 0.00766 0.59116 0.95912
 C3234 C 0.00781 0.57550 0.96586
 H3235 H -0.02606 0.61441 0.94774
 H3236 H -0.01199 0.64824 0.96427
 H3237 H -0.01005 0.62541 0.91261
 H3238 H 0.02376 0.60604 0.92243
 H3239 H 0.02183 0.62882 0.97412
 H3240 H 0.03784 0.63986 0.93896
 C3241 C 0.25285 0.68260 0.86152
 C3242 C 0.26495 0.69032 0.87804
 C3243 C 0.24820 0.68714 0.89147
 C3244 C 0.23611 0.67929 0.87522
 C3245 C 0.24551 0.70270 0.85780
 C3246 C 0.22874 0.69954 0.87122
 C3247 C 0.25761 0.71056 0.87405
 C3248 C 0.24086 0.70725 0.88779
 C3249 C 0.24984 0.67802 0.90999
 C3250 C 0.25118 0.66996 0.92495
 C3251 C 0.24451 0.71113 0.83891
 C3252 C 0.24432 0.71791 0.82328
 H3253 H 0.25775 0.67254 0.85053
 H3254 H 0.27986 0.68645 0.88104
 H3255 H 0.22729 0.66632 0.87590
 H3256 H 0.21384 0.70341 0.86819
 H3257 H 0.26643 0.72353 0.87336
 H3258 H 0.23597 0.71729 0.89881
 C3259 C 0.75472 0.18375 0.36278
 C3260 C 0.76674 0.19180 0.37920
 C3261 C 0.75004 0.18854 0.39269
 C3262 C 0.73804 0.18037 0.37652
 C3263 C 0.74712 0.20372 0.35886
 C3264 C 0.73040 0.20047 0.37233
 C3265 C 0.75912 0.21191 0.37502
 C3266 C 0.74243 0.20851 0.38881
 C3267 C 0.75172 0.17957 0.41127
 C3268 C 0.75302 0.17158 0.42626
 C3269 C 0.74586 0.21187 0.33987
 C3270 C 0.74532 0.21836 0.32413
 H3271 H 0.75974 0.17365 0.35188
 H3272 H 0.78170 0.18816 0.38223
 H3273 H 0.72939 0.16729 0.37735
 H3274 H 0.71545 0.20411 0.36928
 H3275 H 0.76778 0.22498 0.37418
 H3276 H 0.73742 0.21860 0.39972
 C3277 C 0.25163 0.31664 0.36200
 C3278 C 0.23802 0.31013 0.37785
 C3279 C 0.25443 0.31114 0.39203
 C3280 C 0.26803 0.31778 0.37645
 C3281 C 0.25675 0.29588 0.35821
 C3282 C 0.27318 0.29687 0.37238
 C3283 C 0.24315 0.28924 0.37380
 C3284 C 0.25955 0.29038 0.38828
 C3285 C 0.25293 0.32014 0.41062
 C3286 C 0.25160 0.32814 0.42560
 C3287 C 0.25754 0.28761 0.33925
 C3288 C 0.25760 0.28093 0.32358
 H3289 H 0.24840 0.32736 0.35100
 H3290 H 0.22355 0.31566 0.38029
 H3291 H 0.27825 0.32963 0.37775
 H3292 H 0.28765 0.29135 0.36991
 H3293 H 0.23292 0.27740 0.37250
 H3294 H 0.26278 0.27967 0.39931
 C3295 C 0.75234 0.81779 0.86337
 C3296 C 0.73853 0.81122 0.87901
 C3297 C 0.75471 0.81236 0.89345
 C3298 C 0.76851 0.81906 0.87807
 C3299 C 0.75765 0.79705 0.85970
 C3300 C 0.77386 0.79818 0.87412
 C3301 C 0.74385 0.79035 0.87508
 C3302 C 0.76003 0.79162 0.88982
 C3303 C 0.75286 0.82134 0.91201
 C3304 C 0.75126 0.82930 0.92698
 C3305 C 0.75877 0.78873 0.84077
 C3306 C 0.75903 0.78199 0.82514
 H3307 H 0.74922 0.82847 0.85230
 H3308 H 0.72398 0.81665 0.88122
 H3309 H 0.77863 0.83097 0.87951
 H3310 H 0.78840 0.79274 0.87188
 H3311 H 0.73373 0.77844 0.87364
 H3312 H 0.76315 0.78096 0.90091
 C3313 C 0.75998 0.79828 0.12832
 C3314 C 0.74547 0.79480 0.11229
 C3315 C 0.74533 0.81613 0.10817
 C3316 C 0.75985 0.81973 0.12391
 C3317 C 0.74356 0.80127 0.14222
 C3318 C 0.74342 0.82260 0.13809
 C3319 C 0.72903 0.79765 0.12649
 C3320 C 0.72890 0.81912 0.12207
 C3321 C 0.74622 0.82471 0.08934
 C3322 C 0.74668 0.83219 0.07403
 C3323 C 0.74293 0.79307 0.16123
 C3324 C 0.74296 0.78632 0.17687
 H3325 H 0.77276 0.78961 0.13111
 H3326 H 0.74634 0.78347 0.10147
 H3327 H 0.77254 0.82888 0.12265
 H3328 H 0.74255 0.83394 0.14889
 H3329 H 0.71634 0.78851 0.12777
 H3330 H 0.71613 0.82779 0.11928
 C3331 C 0.22892 0.31494 0.63268
 C3332 C 0.24514 0.32773 0.62539
 C3333 C 0.24578 0.31607 0.60707
 C3334 C 0.22956 0.30341 0.61407
 C3335 C 0.24368 0.30151 0.64124
 C3336 C 0.24432 0.28984 0.62293
 C3337 C 0.25988 0.31417 0.63422
 C3338 C 0.26054 0.30264 0.61562
 C3339 C 0.24685 0.32449 0.58817
 C3340 C 0.24742 0.33184 0.57281
 C3341 C 0.24286 0.29347 0.66031
 C3342 C 0.24273 0.28682 0.67600
 H3343 H 0.21591 0.31992 0.63990
 H3344 H 0.24551 0.34340 0.62620
 H3345 H 0.21712 0.29906 0.60556
 H3346 H 0.24394 0.27417 0.62213
 H3347 H 0.27233 0.31854 0.64272
 H3348 H 0.27355 0.29767 0.60841
 C3349 C 0.74287 0.20729 0.62488
 C3350 C 0.75968 0.20594 0.61090
 C3351 C 0.75436 0.18525 0.60696
 C3352 C 0.73756 0.18646 0.62065
 C3353 C 0.75592 0.20045 0.64085
 C3354 C 0.75062 0.17976 0.63689
 C3355 C 0.77274 0.19924 0.62718
 C3356 C 0.76741 0.17842 0.62294
 C3357 C 0.75360 0.17643 0.58823
 C3358 C 0.75325 0.16876 0.57303
 C3359 C 0.75651 0.20877 0.65981
 C3360 C 0.75656 0.21553 0.67545
 H3361 H 0.73279 0.21927 0.62590
 H3362 H 0.76337 0.21661 0.60000
 H3363 H 0.72309 0.18113 0.61776
 H3364 H 0.74692 0.16908 0.64778
 H3365 H 0.78721 0.20457 0.63008
 H3366 H 0.77750 0.16644 0.62193
 C3367 C 0.24186 0.70591 0.12342
 C3368 C 0.25868 0.70448 0.10946
 C3369 C 0.25333 0.68378 0.10560
 C3370 C 0.23652 0.68507 0.11926
 C3371 C 0.25489 0.69912 0.13943
 C3372 C 0.24955 0.67842 0.13555
 C3373 C 0.27171 0.69783 0.12578
 C3374 C 0.26636 0.67699 0.12162
 C3375 C 0.25256 0.67491 0.08689
 C3376 C 0.25219 0.66722 0.07170
 C3377 C 0.25543 0.70756 0.15834
 C3378 C 0.25539 0.71446 0.17391
 H3379 H 0.23180 0.71791 0.12437
 H3380 H 0.26239 0.71510 0.09852
 H3381 H 0.22204 0.67975 0.11638
 H3382 H 0.24583 0.66779 0.14648
 H3383 H 0.28619 0.70315 0.12867
 H3384 H 0.27643 0.66499 0.12067
 C3385 C 0.20608 0.62637 0.76836
 C3386 C 0.18458 0.62224 0.76922
 C3387 C 0.18663 0.60915 0.75201
 C3388 C 0.20798 0.61297 0.75111
 C3389 C 0.20209 0.64287 0.75480
 C3390 C 0.20413 0.62977 0.73759
 C3391 C 0.18074 0.63903 0.75569
 C3392 C 0.18265 0.62567 0.73847
 C3393 C 0.17758 0.59060 0.75028
 C3394 C 0.16961 0.57561 0.74885
 C3395 C 0.21049 0.66177 0.75582
 C3396 C 0.21727 0.67740 0.75597
 H3397 H 0.21580 0.62689 0.78067
 H3398 H 0.17644 0.61892 0.78222
 H3399 H 0.21908 0.60205 0.74919
 H3400 H 0.21226 0.63309 0.72459
 H3401 H 0.16963 0.64994 0.75760
 H3402 H 0.17294 0.62518 0.72615
 C3403 C 0.70642 0.12493 0.26612
 C3404 C 0.68494 0.12069 0.26709
 C3405 C 0.68697 0.10757 0.24990
 C3406 C 0.70831 0.11149 0.24890
 C3407 C 0.70227 0.14138 0.25254
 C3408 C 0.70431 0.12825 0.23535
 C3409 C 0.68095 0.13742 0.25354
 C3410 C 0.68285 0.12404 0.23634
 C3411 C 0.67796 0.08899 0.24839
 C3412 C 0.66994 0.07399 0.24723
 C3413 C 0.71052 0.16034 0.25367
 C3414 C 0.71713 0.17605 0.25412
 H3415 H 0.71618 0.12552 0.27839
 H3416 H 0.67688 0.11737 0.28014
 H3417 H 0.71945 0.10062 0.24696
 H3418 H 0.71237 0.13158 0.22231
 H3419 H 0.66979 0.14828 0.25548
 H3420 H 0.67309 0.12347 0.22407
 C3421 C 0.80253 0.12733 0.72629
 C3422 C 0.82251 0.12292 0.73413
 C3423 C 0.81411 0.10653 0.74569
 C3424 C 0.79427 0.11063 0.73787
 C3425 C 0.79910 0.14047 0.74322
 C3426 C 0.79071 0.12409 0.75478
 C3427 C 0.81894 0.13634 0.75104
 C3428 C 0.81067 0.11970 0.76260
 C3429 C 0.82293 0.08786 0.74729
 C3430 C 0.83076 0.07280 0.74870
 C3431 C 0.79092 0.15948 0.74239
 C3432 C 0.78424 0.17515 0.74237
 H3433 H 0.79911 0.13069 0.71135
 H3434 H 0.83569 0.12223 0.72566
 H3435 H 0.78422 0.09984 0.73249
 H3436 H 0.77753 0.12479 0.76326
 H3437 H 0.82901 0.14712 0.75642
 H3438 H 0.81409 0.11637 0.77755
 C3439 C 0.30028 0.62649 0.22616
 C3440 C 0.32026 0.62231 0.23414
 C3441 C 0.31191 0.60607 0.24593
 C3442 C 0.29207 0.60994 0.23798
 C3443 C 0.29673 0.63989 0.24287
 C3444 C 0.28838 0.62365 0.25466
 C3445 C 0.31656 0.63599 0.25081
 C3446 C 0.30835 0.61949 0.26262
 C3447 C 0.32080 0.58746 0.24785
 C3448 C 0.32866 0.57243 0.24950
 C3449 C 0.28847 0.65885 0.24168
 C3450 C 0.28177 0.67451 0.24136
 H3451 H 0.29689 0.62959 0.21116
 H3452 H 0.33347 0.62155 0.22572
 H3453 H 0.28210 0.59901 0.23275
 H3454 H 0.27517 0.62442 0.26309
 H3455 H 0.32656 0.64690 0.25605
 H3456 H 0.31174 0.61642 0.27763
 C3457 C 0.31827 0.36258 0.26453
 C3458 C 0.32392 0.37314 0.24620
 C3459 C 0.31434 0.39108 0.25383
 C3460 C 0.30882 0.38080 0.27216
 C3461 C 0.29945 0.35701 0.25524
 C3462 C 0.28986 0.37494 0.26287
 C3463 C 0.30497 0.36730 0.23691
 C3464 C 0.29552 0.38552 0.24453
 C3465 C 0.32297 0.40991 0.25317
 C3466 C 0.33050 0.42521 0.25295
 C3467 C 0.29127 0.33798 0.25575
 C3468 C 0.28457 0.32231 0.25571
 H3469 H 0.32753 0.35296 0.27277
 H3470 H 0.33800 0.37260 0.23931
 H3471 H 0.31049 0.38658 0.28665
 H3472 H 0.27578 0.37546 0.26975
 H3473 H 0.30331 0.36152 0.22241
 H3474 H 0.28627 0.39516 0.23629
 C3475 C 0.82084 0.86299 0.76515
 C3476 C 0.82643 0.87330 0.74666
 C3477 C 0.81690 0.89135 0.75408
 C3478 C 0.81144 0.88132 0.77257
 C3479 C 0.80198 0.85731 0.75601
 C3480 C 0.79244 0.87535 0.76344
 C3481 C 0.80744 0.86734 0.73752
 C3482 C 0.79804 0.88568 0.74494
 C3483 C 0.82552 0.91017 0.75312
 C3484 C 0.83302 0.92547 0.75264
 C3485 C 0.79376 0.83830 0.75678
 C3486 C 0.78699 0.82265 0.75694
 H3487 H 0.83013 0.85346 0.77348
 H3488 H 0.84048 0.87266 0.73972
 H3489 H 0.81317 0.88729 0.78698
 H3490 H 0.77838 0.87597 0.77037
 H3491 H 0.80572 0.86138 0.72311
 H3492 H 0.78876 0.89521 0.73660
 C3493 C 0.70412 0.87635 0.23008
 C3494 C 0.68257 0.88025 0.23046
 C3495 C 0.68568 0.89450 0.24657
 C3496 C 0.70709 0.89091 0.24620
 C3497 C 0.70129 0.86078 0.24496
 C3498 C 0.70440 0.87503 0.26107
 C3499 C 0.67988 0.86440 0.24533
 C3500 C 0.68286 0.87892 0.26143
 C3501 C 0.67664 0.91313 0.24735
 C3502 C 0.66878 0.92824 0.24771
 C3503 C 0.70980 0.84190 0.24436
 C3504 C 0.71669 0.82632 0.24432
 H3505 H 0.71294 0.87508 0.21717
 H3506 H 0.67349 0.88261 0.21788
 H3507 H 0.71818 0.90201 0.24659
 H3508 H 0.71347 0.87267 0.27365
 H3509 H 0.66878 0.85331 0.24494
 H3510 H 0.67404 0.88018 0.27435
 C3511 C 0.20336 0.37703 0.72924
 C3512 C 0.18182 0.38097 0.72963
 C3513 C 0.18495 0.39516 0.74578
 C3514 C 0.20635 0.39153 0.74541
 C3515 C 0.20050 0.36142 0.74406
 C3516 C 0.20363 0.37560 0.76022
 C3517 C 0.17910 0.36507 0.74444
 C3518 C 0.18210 0.37953 0.76060
 C3519 C 0.17595 0.41379 0.74664
 C3520 C 0.16812 0.42892 0.74707
 C3521 C 0.20899 0.34254 0.74341
 C3522 C 0.21588 0.32695 0.74336
 H3523 H 0.21218 0.37579 0.71633
 H3524 H 0.17275 0.38339 0.71705
 H3525 H 0.21746 0.40261 0.74584
 H3526 H 0.21270 0.37318 0.77280
 H3527 H 0.16798 0.35400 0.74400
 H3528 H 0.17328 0.38076 0.77351
 C3529 C 0.13620 0.73627 0.81564
 C3530 C 0.12663 0.75496 0.82181
 C3531 C 0.10818 0.74834 0.81246
 C3532 C 0.11746 0.72965 0.80641
 C3533 C 0.14183 0.74567 0.79689
 C3534 C 0.12339 0.73904 0.78750
 C3535 C 0.13253 0.76434 0.80295
 C3536 C 0.11380 0.75774 0.79371
 C3537 C 0.08969 0.74999 0.82161
 C3538 C 0.07478 0.75134 0.82971
 C3539 C 0.16072 0.74468 0.78849
 C3540 C 0.17635 0.74452 0.78175
 H3541 H 0.14560 0.72742 0.82456
 H3542 H 0.12777 0.76154 0.83601
 H3543 H 0.11104 0.71541 0.80792
 H3544 H 0.12229 0.73246 0.77330
 H3545 H 0.13893 0.77859 0.80145
 H3546 H 0.10439 0.76660 0.78480
 C3547 C 0.63089 0.23262 0.30832
 C3548 C 0.62496 0.24777 0.32296
 C3549 C 0.60661 0.25105 0.31179
 C3550 C 0.61225 0.23591 0.29728
 C3551 C 0.64036 0.24817 0.29649
 C3552 C 0.62204 0.25145 0.28529
 C3553 C 0.63470 0.26330 0.31100
 C3554 C 0.61609 0.26660 0.29995
 C3555 C 0.58806 0.25271 0.32081
 C3556 C 0.57308 0.25398 0.32881
 C3557 C 0.65931 0.24692 0.28825
 C3558 C 0.67501 0.24637 0.28169
 H3559 H 0.63718 0.21864 0.31167
 H3560 H 0.62596 0.24630 0.33855
 H3561 H 0.60279 0.22468 0.29172
 H3562 H 0.62106 0.25293 0.26970
 H3563 H 0.64414 0.27454 0.31657
 H3564 H 0.60980 0.28059 0.29661
 C3565 C 0.63483 0.74150 0.18896
 C3566 C 0.61621 0.73940 0.20027
 C3567 C 0.60716 0.75459 0.18766
 C3568 C 0.62551 0.75667 0.17624
 C3569 C 0.64111 0.75720 0.20261
 C3570 C 0.63206 0.77239 0.19001
 C3571 C 0.62277 0.75512 0.21406
 C3572 C 0.61340 0.77030 0.20131
 C3573 C 0.58847 0.75293 0.17887
 C3574 C 0.57340 0.75147 0.17105
 C3575 C 0.66014 0.75815 0.21074
 C3576 C 0.67584 0.75833 0.21735
 H3577 H 0.64384 0.72968 0.18395
 H3578 H 0.60950 0.72583 0.20440
 H3579 H 0.62644 0.75728 0.16059
 H3580 H 0.63879 0.78596 0.18587
 H3581 H 0.62186 0.75451 0.22971
 H3582 H 0.60437 0.78211 0.20630
 C3583 C 0.13460 0.24161 0.68761
 C3584 C 0.11593 0.23944 0.69881
 C3585 C 0.10686 0.25454 0.68611
 C3586 C 0.12527 0.25669 0.67479
 C3587 C 0.14071 0.25737 0.70125
 C3588 C 0.13165 0.27248 0.68855
 C3589 C 0.12231 0.25522 0.71259
 C3590 C 0.11294 0.27032 0.69974
 C3591 C 0.08823 0.25276 0.67723
 C3592 C 0.07319 0.25124 0.66936
 C3593 C 0.15968 0.25846 0.70950
 C3594 C 0.17534 0.25873 0.71620
 H3595 H 0.14371 0.22982 0.68268
 H3596 H 0.10926 0.22584 0.70294
 H3597 H 0.12629 0.25725 0.65914
 H3598 H 0.13833 0.28608 0.68441
 H3599 H 0.12131 0.25466 0.72824
 H3600 H 0.10381 0.28209 0.70465
 C3601 C 0.87747 0.23595 0.71022
 C3602 C 0.88320 0.22686 0.69113
 C3603 C 0.89318 0.24536 0.68559
 C3604 C 0.88775 0.25446 0.70454
 C3605 C 0.85934 0.24343 0.70089
 C3606 C 0.86932 0.26193 0.69535
 C3607 C 0.86477 0.23433 0.68195
 C3608 C 0.87503 0.25283 0.67629
 C3609 C 0.91188 0.24634 0.67673
 C3610 C 0.92706 0.24685 0.66902
 C3611 C 0.84041 0.24267 0.70926
 C3612 C 0.82479 0.24256 0.71608
 H3613 H 0.87826 0.22897 0.72425
 H3614 H 0.88913 0.21244 0.68930
 H3615 H 0.89740 0.26277 0.71372
 H3616 H 0.86340 0.27634 0.69717
 H3617 H 0.85514 0.22603 0.67275
 H3618 H 0.87422 0.25981 0.66225
 C3619 C 0.37544 0.73616 0.20880
 C3620 C 0.38158 0.72707 0.18984
 C3621 C 0.39169 0.74558 0.18454
 C3622 C 0.38585 0.75467 0.20337
 C3623 C 0.35752 0.74365 0.19908
 C3624 C 0.36764 0.76215 0.19378
 C3625 C 0.36337 0.73456 0.18026
 C3626 C 0.37376 0.75306 0.17484
 C3627 C 0.41059 0.74653 0.17612
 C3628 C 0.42594 0.74699 0.16875
 C3629 C 0.33844 0.74288 0.20709
 C3630 C 0.32274 0.74272 0.21370
 H3631 H 0.37592 0.72917 0.22285
 H3632 H 0.38754 0.71266 0.18814
 H3633 H 0.39530 0.76296 0.21277
 H3634 H 0.36168 0.77657 0.19547
 H3635 H 0.35393 0.72627 0.17085
 H3636 H 0.37327 0.76005 0.16079
 C3637 C 0.37754 0.25288 0.28751
 C3638 C 0.38633 0.26878 0.29978
 C3639 C 0.39275 0.25378 0.31414
 C3640 C 0.38426 0.23789 0.30202
 C3641 C 0.35898 0.25494 0.29860
 C3642 C 0.36542 0.23995 0.31295
 C3643 C 0.36747 0.27083 0.31072
 C3644 C 0.37418 0.25584 0.32520
 C3645 C 0.41140 0.25324 0.32312
 C3646 C 0.42654 0.25307 0.33093
 C3647 C 0.34010 0.25528 0.29010
 C3648 C 0.32454 0.25510 0.28319
 H3649 H 0.37871 0.25169 0.27191
 H3650 H 0.39515 0.28062 0.29445
 H3651 H 0.39137 0.22434 0.29854
 H3652 H 0.35660 0.22811 0.31830
 H3653 H 0.36036 0.28438 0.31420
 H3654 H 0.37299 0.25703 0.34080
 C3655 C 0.87917 0.75257 0.78972
 C3656 C 0.88808 0.76834 0.80206
 C3657 C 0.89439 0.75322 0.81634
 C3658 C 0.88578 0.73745 0.80414
 C3659 C 0.86063 0.75472 0.80083
 C3660 C 0.86695 0.73961 0.81510
 C3661 C 0.86924 0.77049 0.81302
 C3662 C 0.87585 0.75537 0.82743
 C3663 C 0.91306 0.75247 0.82527
 C3664 C 0.92824 0.75213 0.83301
 C3665 C 0.84175 0.75524 0.79231
 C3666 C 0.82620 0.75520 0.78535
 H3667 H 0.88032 0.75145 0.77411
 H3668 H 0.89699 0.78013 0.79678
 H3669 H 0.89277 0.72386 0.80059
 H3670 H 0.85805 0.72781 0.82039
 H3671 H 0.86225 0.78407 0.81658
 H3672 H 0.87468 0.75649 0.84303
   
