data_POSCAR
  _audit_creation_date              2014-09-24
  _audit_creation_method            'ToBaCCo'
  _symmetry_space_group_name_H-M    'P1'
  _symmetry_Int_Tables_number       1
  _symmetry_cell_setting            triclinic
  loop_
  _symmetry_equiv_pos_as_xyz
 x,y,z
_cell_length_a 56.7562
_cell_length_b 56.7562
_cell_length_c 56.7562
_cell_angle_alpha 90.000000
_cell_angle_beta 90.000000
_cell_angle_gamma 90.000000
loop_
  _atom_site_label
  _atom_site_type_symbol
  _atom_site_fract_x
  _atom_site_fract_y
  _atom_site_fract_z
N1 N 0.16546 0.22471 0.23060
 N2 N 0.17197 0.20535 0.24171
 C3 C 0.15635 0.20143 0.25976
 C4 C 0.13859 0.21908 0.26102
 C5 C 0.14563 0.23353 0.24173
 H6 H 0.15763 0.18647 0.27147
 H7 H 0.13640 0.24916 0.23592
 Cu8 Cu 0.20082 0.18621 0.23015
 Cu9 Cu 0.18457 0.23539 0.20125
 Cu10 Cu 0.23541 0.20314 0.18462
 N11 N 0.23094 0.16730 0.22209
 N12 N 0.24457 0.17346 0.20427
 C13 C 0.26285 0.15734 0.20287
 C14 C 0.26118 0.13970 0.22074
 C15 C 0.24024 0.14742 0.23219
 H16 H 0.27668 0.15826 0.18979
 H17 H 0.23212 0.13880 0.24707
 N18 N 0.22450 0.23338 0.16599
 N19 N 0.20497 0.24486 0.17191
 C20 C 0.20157 0.26263 0.15577
 C21 C 0.21984 0.26363 0.13876
 C22 C 0.23385 0.24427 0.14629
 H23 H 0.18648 0.27426 0.15598
 H24 H 0.24938 0.23803 0.13719
 H25 H 0.19942 0.20402 0.18993
 H26 H 0.21727 0.22168 0.21025
 N27 N 0.66435 0.72375 0.73026
 N28 N 0.67045 0.70425 0.74142
 C29 C 0.65471 0.70060 0.75940
 C30 C 0.63727 0.71852 0.76062
 C31 C 0.64463 0.73289 0.74135
 H32 H 0.65566 0.68561 0.77110
 H33 H 0.63564 0.74863 0.73549
 Cu34 Cu 0.69889 0.68436 0.73024
 Cu35 Cu 0.68368 0.73407 0.70074
 Cu36 Cu 0.73327 0.69980 0.68456
 N37 N 0.72863 0.66467 0.72241
 N38 N 0.74220 0.67045 0.70445
 C39 C 0.76025 0.65411 0.70297
 C40 C 0.75844 0.63658 0.72087
 C41 C 0.73772 0.64467 0.73252
 H42 H 0.77384 0.65466 0.68963
 H43 H 0.72968 0.63630 0.74760
 N44 N 0.72302 0.72967 0.66546
 N45 N 0.70452 0.74280 0.67121
 C46 C 0.70288 0.76087 0.65485
 C47 C 0.72103 0.75957 0.63752
 C48 C 0.73308 0.73917 0.64566
 H49 H 0.68926 0.77419 0.65523
 H50 H 0.74850 0.73165 0.63748
 H51 H 0.69718 0.70209 0.69001
 H52 H 0.71571 0.71946 0.70999
 N53 N 0.33260 0.77746 0.73167
 N54 N 0.32636 0.79703 0.74270
 C55 C 0.34210 0.80079 0.76069
 C56 C 0.35959 0.78287 0.76199
 C57 C 0.35232 0.76843 0.74281
 H58 H 0.34109 0.81580 0.77237
 H59 H 0.36134 0.75267 0.73704
 Cu60 Cu 0.29747 0.81657 0.73150
 Cu61 Cu 0.31372 0.76646 0.70224
 Cu62 Cu 0.26365 0.79922 0.68611
 N63 N 0.26731 0.83589 0.72320
 N64 N 0.25399 0.82833 0.70570
 C65 C 0.23480 0.84294 0.70383
 C66 C 0.23540 0.86155 0.72055
 C67 C 0.25682 0.85590 0.73244
 H68 H 0.22093 0.84033 0.69103
 H69 H 0.26378 0.86548 0.74737
 N70 N 0.27438 0.76966 0.66703
 N71 N 0.29321 0.75703 0.67271
 C72 C 0.29530 0.73906 0.65628
 C73 C 0.27708 0.73996 0.63895
 C74 C 0.26454 0.75999 0.64721
 H75 H 0.30931 0.72616 0.65655
 H76 H 0.24891 0.76716 0.63908
 H77 H 0.29978 0.79817 0.69158
 H78 H 0.28173 0.78059 0.71193
 N79 N 0.83416 0.27541 0.23252
 N80 N 0.82803 0.29520 0.24314
 C81 C 0.84379 0.29940 0.26095
 C82 C 0.86125 0.28147 0.26275
 C83 C 0.85378 0.26646 0.24399
 H84 H 0.84250 0.31463 0.27228
 H85 H 0.86263 0.25045 0.23867
 Cu86 Cu 0.79916 0.31447 0.23192
 Cu87 Cu 0.81507 0.26474 0.20297
 Cu88 Cu 0.76489 0.29818 0.18651
 N89 N 0.76890 0.33354 0.22441
 N90 N 0.75547 0.32762 0.20637
 C91 C 0.73701 0.34356 0.20515
 C92 C 0.73827 0.36081 0.22341
 C93 C 0.75923 0.35308 0.23490
 H94 H 0.72323 0.34265 0.19202
 H95 H 0.76703 0.36149 0.25008
 N96 N 0.77575 0.26824 0.16753
 N97 N 0.79454 0.25557 0.17338
 C98 C 0.79656 0.23731 0.15727
 C99 C 0.77824 0.23781 0.14011
 C100 C 0.76578 0.25811 0.14796
 H101 H 0.81026 0.22410 0.15802
 H102 H 0.75017 0.26510 0.13961
 H103 H 0.80096 0.29640 0.19184
 H104 H 0.78272 0.27899 0.21201
 N105 N 0.83074 0.72553 0.26841
 N106 N 0.82520 0.70655 0.25614
 C107 C 0.84173 0.70436 0.23826
 C108 C 0.85889 0.72284 0.23904
 C109 C 0.85043 0.73553 0.25881
 H110 H 0.84166 0.69014 0.22558
 H111 H 0.85826 0.75134 0.26592
 Cu112 Cu 0.79587 0.68691 0.26712
 Cu113 Cu 0.81181 0.73580 0.29736
 Cu114 Cu 0.76220 0.70409 0.31434
 N115 N 0.76591 0.66754 0.27650
 N116 N 0.75337 0.67464 0.29481
 C117 C 0.73481 0.65952 0.29767
 C118 C 0.73460 0.64123 0.28056
 C119 C 0.75521 0.64748 0.26754
 H120 H 0.72206 0.66165 0.31163
 H121 H 0.76173 0.63798 0.25236
 N122 N 0.77276 0.73430 0.33292
 N123 N 0.79151 0.74631 0.32591
 C124 C 0.79418 0.76536 0.34052
 C125 C 0.77660 0.76631 0.35826
 C126 C 0.76346 0.74574 0.35237
 H127 H 0.80825 0.77802 0.33852
 H128 H 0.74781 0.73989 0.36152
 H129 H 0.79759 0.70365 0.30777
 H130 H 0.77935 0.72184 0.28793
 N131 N 0.33312 0.22513 -0.23157
 N132 N 0.32794 0.20598 -0.24369
 C133 C 0.34447 0.20385 -0.26156
 C134 C 0.36127 0.22261 -0.26108
 C135 C 0.35263 0.23537 -0.24133
 H136 H 0.34452 0.18958 -0.27418
 H137 H 0.36027 0.25130 -0.23429
 Cu138 Cu 0.29912 0.18595 -0.23263
 Cu139 Cu 0.31367 0.23535 -0.20278
 Cu140 Cu 0.26536 0.20142 -0.18497
 N141 N 0.26954 0.16623 -0.22355
 N142 N 0.25697 0.17185 -0.20473
 C143 C 0.23876 0.15590 -0.20273
 C144 C 0.23938 0.13871 -0.22091
 C145 C 0.25926 0.14679 -0.23383
 H146 H 0.22518 0.15711 -0.18943
 H147 H 0.26543 0.13902 -0.25010
 N148 N 0.27545 0.23182 -0.16626
 N149 N 0.29335 0.24483 -0.17376
 C150 C 0.29524 0.26413 -0.15930
 C151 C 0.27823 0.26404 -0.14103
 C152 C 0.26610 0.24275 -0.14655
 H153 H 0.30825 0.27782 -0.16179
 H154 H 0.25087 0.23624 -0.13715
 H155 H 0.30085 0.20287 -0.19200
 H156 H 0.28150 0.22018 -0.21147
 N157 N 0.66881 0.27268 -0.23503
 N158 N 0.67594 0.29171 -0.24645
 C159 C 0.66083 0.29547 -0.26494
 C160 C 0.64269 0.27821 -0.26618
 C161 C 0.64901 0.26407 -0.24640
 H162 H 0.66279 0.31005 -0.27702
 H163 H 0.63940 0.24870 -0.24052
 Cu164 Cu 0.70497 0.31091 -0.23521
 Cu165 Cu 0.68704 0.26166 -0.20505
 Cu166 Cu 0.73753 0.29360 -0.18909
 N167 N 0.73524 0.32987 -0.22657
 N168 N 0.74773 0.32264 -0.20835
 C169 C 0.76678 0.33728 -0.20584
 C170 C 0.76719 0.35541 -0.22312
 C171 C 0.74628 0.34958 -0.23583
 H172 H 0.77974 0.33499 -0.19208
 H173 H 0.73986 0.35904 -0.25107
 N174 N 0.72610 0.26481 -0.16939
 N175 N 0.70714 0.25236 -0.17501
 C176 C 0.70491 0.23451 -0.15842
 C177 C 0.72328 0.23522 -0.14118
 C178 C 0.73590 0.25516 -0.14955
 H179 H 0.69099 0.22150 -0.15882
 H180 H 0.75153 0.26232 -0.14144
 H181 H 0.70142 0.29328 -0.19506
 H182 H 0.71922 0.27477 -0.21482
 N183 N 0.16959 0.77400 0.26600
 N184 N 0.17568 0.79265 0.25341
 C185 C 0.15969 0.79473 0.23504
 C186 C 0.14237 0.77644 0.23556
 C187 C 0.15004 0.76407 0.25594
 H188 H 0.16070 0.80831 0.22171
 H189 H 0.14169 0.74853 0.26307
 Cu190 Cu 0.20555 0.81159 0.26384
 Cu191 Cu 0.18837 0.76326 0.29536
 Cu192 Cu 0.23795 0.79591 0.31142
 N193 N 0.23523 0.83160 0.27300
 N194 N 0.24728 0.82499 0.29179
 C195 C 0.26553 0.84041 0.29508
 C196 C 0.26608 0.85841 0.27772
 C197 C 0.24607 0.85158 0.26399
 H198 H 0.27794 0.83867 0.30940
 H199 H 0.23970 0.86099 0.24870
 N200 N 0.22749 0.76626 0.33053
 N201 N 0.20859 0.75377 0.32488
 C202 C 0.20665 0.73548 0.34096
 C203 C 0.22522 0.73583 0.35788
 C204 C 0.23769 0.75605 0.34993
 H205 H 0.19290 0.72231 0.34029
 H206 H 0.25348 0.76291 0.35805
 H207 H 0.20214 0.79545 0.30463
 H208 H 0.22065 0.77660 0.28581
 N209 N 0.47391 0.41476 0.48047
 N210 N 0.45512 0.42145 0.49250
 C211 C 0.45176 0.40579 0.51059
 C212 C 0.46907 0.38769 0.51091
 C213 C 0.48282 0.39465 0.49105
 H214 H 0.43745 0.40734 0.52304
 H215 H 0.49804 0.38523 0.48453
 Cu216 Cu 0.43631 0.45101 0.48252
 Cu217 Cu 0.48386 0.43421 0.45087
 Cu218 Cu 0.44951 0.48422 0.43559
 N219 N 0.41565 0.48011 0.47488
 N220 N 0.42054 0.49321 0.45629
 C221 C 0.40415 0.51125 0.45522
 C222 C 0.38769 0.51007 0.47418
 C223 C 0.39632 0.48962 0.48590
 H224 H 0.40424 0.52471 0.44174
 H225 H 0.38874 0.48212 0.50167
 N226 N 0.47904 0.47378 0.41580
 N227 N 0.49219 0.45521 0.42133
 C228 C 0.51002 0.45349 0.40472
 C229 C 0.50857 0.47164 0.38741
 C230 C 0.48833 0.48379 0.39584
 H231 H 0.52323 0.43977 0.40487
 H232 H 0.48083 0.49928 0.38775
 H233 H 0.47047 0.46683 0.45988
 H234 H 0.45163 0.44825 0.44145
 N235 N -0.02014 -0.08153 0.98754
 N236 N -0.03922 -0.07488 0.99921
 C237 C -0.04288 -0.09080 1.01711
 C238 C -0.02531 -0.10870 1.01776
 C239 C -0.01129 -0.10157 0.99822
 H240 H -0.05763 -0.08973 1.02911
 H241 H 0.00395 -0.11102 0.99177
 Cu242 Cu -0.05807 -0.04512 0.98877
 Cu243 Cu -0.00952 -0.06286 0.95774
 Cu244 Cu -0.04384 -0.01433 0.94048
 N245 N -0.07836 -0.01557 0.97994
 N246 N -0.07271 -0.00448 0.96030
 C247 C -0.08871 0.01318 0.95658
 C248 C -0.10596 0.01455 0.97475
 C249 C -0.09799 -0.00440 0.98939
 H250 H -0.08761 0.02479 0.94154
 H251 H -0.10661 -0.01010 1.00540
 N252 N -0.01364 -0.02405 0.92186
 N253 N -0.00059 -0.04251 0.92783
 C254 C 0.01777 -0.04405 0.91177
 C255 C 0.01688 -0.02565 0.89464
 C256 C -0.00365 -0.01370 0.90242
 H257 H 0.03140 -0.05734 0.91264
 H258 H -0.01084 0.00185 0.89412
 H259 H -0.02339 -0.03046 0.96609
 H260 H -0.04184 -0.05011 0.94819
 N261 N 1.02683 0.58448 0.97916
 N262 N 1.04440 0.57681 0.99234
 C263 C 1.04628 0.59152 1.01155
 C264 C 1.02967 0.61026 1.01072
 C265 C 1.01760 0.60441 0.98959
 H266 H 1.05873 0.58876 1.02572
 H267 H 1.00238 0.61369 0.98284
 Cu268 Cu 1.06297 0.54715 0.98166
 Cu269 Cu 1.01749 0.56575 0.94927
 Cu270 Cu 1.04935 0.51451 0.93344
 N271 N 1.08309 0.51794 0.97319
 N272 N 1.07850 0.50533 0.95415
 C273 C 1.09519 0.48754 0.95274
 C274 C 1.11136 0.48830 0.97204
 C275 C 1.10229 0.50829 0.98422
 H276 H 1.09547 0.47451 0.93883
 H277 H 1.10955 0.51565 1.00018
 N278 N 1.01947 0.52575 0.91405
 N279 N 1.00777 0.54498 0.92046
 C280 C 0.98924 0.54795 0.90527
 C281 C 0.98812 0.53012 0.88774
 C282 C 1.00818 0.51648 0.89444
 H283 H 0.97705 0.56247 0.90677
 H284 H 1.01384 0.50058 0.88560
 H285 H 1.02920 0.53224 0.95801
 H286 H 1.04926 0.55000 0.94001
 N287 N 0.52630 0.08342 0.48133
 N288 N 0.54374 0.07530 0.49443
 C289 C 0.54588 0.08967 0.51381
 C290 C 0.52946 0.10858 0.51346
 C291 C 0.51742 0.10341 0.49206
 H292 H 0.55860 0.08671 0.52769
 H293 H 0.50253 0.11320 0.48533
 Cu294 Cu 0.56222 0.04577 0.48352
 Cu295 Cu 0.51644 0.06475 0.45135
 Cu296 Cu 0.54816 0.01323 0.43594
 N297 N 0.58245 0.01664 0.47496
 N298 N 0.57778 0.00398 0.45597
 C299 C 0.59444 -0.01386 0.45462
 C300 C 0.61071 -0.01299 0.47386
 C301 C 0.60170 0.00708 0.48594
 H302 H 0.59460 -0.02701 0.44082
 H303 H 0.60898 0.01452 0.50185
 N304 N 0.51935 0.02512 0.41541
 N305 N 0.50787 0.04462 0.42147
 C306 C 0.49024 0.04825 0.40531
 C307 C 0.48951 0.03057 0.38761
 C308 C 0.50870 0.01623 0.39528
 H309 H 0.47824 0.06299 0.40634
 H310 H 0.51460 0.00045 0.38637
 H311 H 0.52785 0.03141 0.46019
 H312 H 0.54800 0.04892 0.44213
 N313 N -0.02535 0.08263 0.51536
 N314 N -0.04491 0.07616 0.50444
 C315 C -0.04900 0.09192 0.48652
 C316 C -0.03136 0.10972 0.48518
 C317 C -0.01670 0.10255 0.50425
 H318 H -0.06402 0.09067 0.47489
 H319 H -0.00099 0.11173 0.50992
 Cu320 Cu -0.06359 0.04657 0.51547
 Cu321 Cu -0.01373 0.06367 0.54464
 Cu322 Cu -0.04701 0.01449 0.56224
 N323 N -0.08375 0.01722 0.52493
 N324 N -0.07648 0.00500 0.54332
 C325 C -0.09146 -0.01356 0.54666
 C326 C -0.11000 -0.01412 0.52976
 C327 C -0.10392 0.00636 0.51633
 H328 H -0.08895 -0.02598 0.56083
 H329 H -0.11358 0.01266 0.50116
 N330 N -0.01706 0.02490 0.58067
 N331 N -0.00385 0.04303 0.57407
 C332 C 0.01455 0.04489 0.59003
 C333 C 0.01323 0.02733 0.60799
 C334 C -0.00750 0.01546 0.60077
 H335 H 0.02770 0.05867 0.58935
 H336 H -0.01520 0.00075 0.61009
 H337 H -0.02783 0.03146 0.53614
 H338 H -0.04562 0.05039 0.55542
 N339 N 0.47418 0.58216 0.01483
 N340 N 0.45475 0.57543 0.00389
 C341 C 0.45054 0.59119 -0.01403
 C342 C 0.46801 0.60920 -0.01528
 C343 C 0.48266 0.60218 0.00382
 H344 H 0.43561 0.58977 -0.02576
 H345 H 0.49821 0.61155 0.00960
 Cu346 Cu 0.43679 0.54507 0.01440
 Cu347 Cu 0.48528 0.56328 0.04404
 Cu348 Cu 0.45466 0.51266 0.06177
 N349 N 0.41727 0.51578 0.02507
 N350 N 0.42500 0.50291 0.04288
 C351 C 0.41034 0.48379 0.04533
 C352 C 0.39162 0.48400 0.02871
 C353 C 0.39722 0.50506 0.01624
 H354 H 0.41308 0.47018 0.05838
 H355 H 0.38766 0.51148 0.00106
 N356 N 0.48491 0.52399 0.07984
 N357 N 0.49660 0.54296 0.07275
 C358 C 0.51559 0.54590 0.08748
 C359 C 0.51674 0.52833 0.10534
 C360 C 0.49642 0.51490 0.09933
 H361 H 0.52801 0.56020 0.08556
 H362 H 0.49072 0.49924 0.10855
 H363 H 0.47244 0.53023 0.03549
 H364 H 0.45367 0.54821 0.05486
 N365 N 0.52501 -0.08252 0.01450
 N366 N 0.54447 -0.07607 0.00347
 C367 C 0.54844 -0.09189 -0.01443
 C368 C 0.53072 -0.10961 -0.01565
 C369 C 0.51620 -0.10239 0.00348
 H370 H 0.56351 -0.09081 -0.02604
 H371 H 0.50058 -0.11159 0.00934
 Cu372 Cu 0.56370 -0.04704 0.01491
 Cu373 Cu 0.51420 -0.06383 0.04401
 Cu374 Cu 0.54754 -0.01501 0.06273
 N375 N 0.58272 -0.01697 0.02381
 N376 N 0.57679 -0.00528 0.04306
 C377 C 0.59282 0.01259 0.04624
 C378 C 0.61006 0.01326 0.02806
 C379 C 0.60249 -0.00631 0.01431
 H380 H 0.59229 0.02452 0.06109
 H381 H 0.61158 -0.01286 -0.00111
 N382 N 0.51760 -0.02612 0.08148
 N383 N 0.50460 -0.04395 0.07372
 C384 C 0.48544 -0.04611 0.08842
 C385 C 0.48579 -0.02945 0.10713
 C386 C 0.50693 -0.01720 0.10151
 H387 H 0.47168 -0.05903 0.08583
 H388 H 0.51347 -0.00207 0.11107
 H389 H 0.52862 -0.03124 0.03617
 H390 H 0.54623 -0.05060 0.05523
 N391 N 1.02515 0.41728 0.51545
 N392 N 1.04436 0.42399 0.50405
 C393 C 1.04823 0.40823 0.48608
 C394 C 1.03079 0.39022 0.48516
 C395 C 1.01649 0.39725 0.50456
 H396 H 1.06300 0.40960 0.47415
 H397 H 1.00105 0.38786 0.51061
 Cu398 Cu 1.06359 0.45338 0.51471
 Cu399 Cu 1.01396 0.43614 0.54495
 Cu400 Cu 1.04610 0.48648 0.56050
 N401 N 1.08265 0.48384 0.52311
 N402 N 1.07541 0.49620 0.54141
 C403 C 1.09024 0.51496 0.54438
 C404 C 1.10862 0.51556 0.52726
 C405 C 1.10255 0.49490 0.51410
 H406 H 1.08765 0.52757 0.55836
 H407 H 1.11226 0.48838 0.49905
 N408 N 1.01691 0.47576 0.58000
 N409 N 1.00442 0.45678 0.57453
 C410 C 0.98630 0.45496 0.59086
 C411 C 0.98684 0.47365 0.60776
 C412 C 1.00698 0.48601 0.59950
 H413 H 0.97320 0.44113 0.59050
 H414 H 1.01404 0.50176 0.60747
 H415 H 1.02739 0.46806 0.53477
 H416 H 1.04569 0.45032 0.55482
 C417 C 0.37566 0.00092 0.24840
 C418 C 0.12380 0.00177 0.75055
 C419 C 0.62381 0.49988 0.24922
 C420 C 0.87448 0.49904 0.74844
 C421 C 0.24922 0.37538 -0.00115
 C422 C 0.75202 0.12383 0.00047
 C423 C 0.24960 0.62546 0.49991
 C424 C 0.74966 0.87557 0.50027
 C425 C -0.00042 0.24998 0.37375
 C426 C -0.00041 0.74708 0.12621
 C427 C 0.50007 0.24908 0.62458
 C428 C 0.49877 0.74991 0.87377
 C429 C 0.08294 0.23858 0.30174
 C430 C 0.07761 0.21720 0.31172
 C431 C 0.09065 0.19703 0.30611
 C432 C 0.10980 0.19853 0.28993
 C433 C 0.11665 0.21992 0.27852
 C434 C 0.10235 0.24046 0.28481
 O435 O 0.06823 0.25563 0.31003
 C436 C 0.05342 0.24470 0.32544
 C437 C 0.05852 0.22115 0.32691
 C438 C 0.04526 0.20627 0.34144
 C439 C 0.02652 0.21558 0.35536
 C440 C 0.02052 0.24013 0.35607
 C441 C 0.03432 0.25463 0.33962
 H442 H 0.08628 0.18029 0.31413
 H443 H 0.11927 0.18245 0.28614
 H444 H 0.10638 0.25740 0.27706
 H445 H 0.04911 0.18760 0.34198
 H446 H 0.01659 0.20293 0.36543
 H447 H 0.03063 0.27329 0.33836
 C448 C 0.58207 0.73837 0.80179
 C449 C 0.57610 0.71685 0.81110
 C450 C 0.58855 0.69649 0.80484
 C451 C 0.60775 0.69796 0.78872
 C452 C 0.61525 0.71948 0.77801
 C453 C 0.60155 0.74022 0.78493
 O454 O 0.56784 0.75556 0.81060
 C455 C 0.55271 0.74459 0.82565
 C456 C 0.55711 0.72087 0.82639
 C457 C 0.54338 0.70593 0.84042
 C458 C 0.52486 0.71534 0.85457
 C459 C 0.51959 0.74002 0.85602
 C460 C 0.53387 0.75462 0.84010
 H461 H 0.58368 0.67964 0.81232
 H462 H 0.61674 0.68172 0.78441
 H463 H 0.60609 0.75727 0.77774
 H464 H 0.54668 0.68714 0.84038
 H465 H 0.51447 0.70270 0.86420
 H466 H 0.53071 0.77340 0.83938
 C467 C 0.41490 0.76251 0.80264
 C468 C 0.42099 0.78391 0.81214
 C469 C 0.40851 0.80437 0.80624
 C470 C 0.38916 0.80313 0.79027
 C471 C 0.38160 0.78175 0.77934
 C472 C 0.39531 0.76091 0.78591
 O473 O 0.42913 0.74517 0.81114
 C474 C 0.44442 0.75592 0.82618
 C475 C 0.44010 0.77966 0.82721
 C476 C 0.45404 0.79440 0.84124
 C477 C 0.47266 0.78477 0.85509
 C478 C 0.47780 0.76005 0.85631
 C479 C 0.46333 0.74567 0.84037
 H480 H 0.41346 0.82112 0.81389
 H481 H 0.38011 0.81941 0.78624
 H482 H 0.39070 0.74395 0.77853
 H483 H 0.45084 0.81320 0.84138
 H484 H 0.48324 0.79730 0.86464
 H485 H 0.46640 0.72688 0.83944
 C486 C -0.08373 0.26192 0.30165
 C487 C -0.07968 0.28269 0.31334
 C488 C -0.09390 0.30241 0.30941
 C489 C -0.11294 0.30113 0.29314
 C490 C -0.11840 0.28051 0.27963
 C491 C -0.10282 0.26040 0.28425
 O492 O -0.06819 0.24511 0.30887
 C493 C -0.05412 0.25563 0.32525
 C494 C -0.06045 0.27872 0.32829
 C495 C -0.04793 0.29333 0.34369
 C496 C -0.02866 0.28418 0.35693
 C497 C -0.02157 0.25993 0.35633
 C498 C -0.03468 0.24575 0.33904
 H499 H -0.09056 0.31862 0.31889
 H500 H -0.12314 0.31703 0.29087
 H501 H -0.10568 0.24398 0.27500
 H502 H -0.05267 0.31173 0.34531
 H503 H -0.01926 0.29678 0.36753
 H504 H -0.03016 0.22737 0.33677
 C505 C -0.08919 0.72605 0.18971
 C506 C -0.07569 0.74370 0.19930
 C507 C -0.08214 0.75444 0.22049
 C508 C -0.10293 0.74710 0.23243
 C509 C -0.11821 0.72892 0.22392
 C510 C -0.11064 0.71816 0.20174
 O511 O -0.07956 0.71842 0.16913
 C512 C -0.05967 0.73144 0.16590
 C513 C -0.05666 0.74713 0.18398
 C514 C -0.03754 0.76272 0.18416
 C515 C -0.02062 0.76209 0.16561
 C516 C -0.02156 0.74576 0.14637
 C517 C -0.04266 0.73067 0.14663
 H518 H -0.07129 0.76828 0.22785
 H519 H -0.10685 0.75593 0.24880
 H520 H -0.12111 0.70423 0.19403
 H521 H -0.03568 0.77538 0.19829
 H522 H -0.00647 0.77482 0.16636
 H523 H -0.04620 0.71893 0.13207
 C524 C 0.41411 0.22454 0.69032
 C525 C 0.42509 0.24488 0.69739
 C526 C 0.41664 0.25790 0.71649
 C527 C 0.39640 0.25008 0.72901
 C528 C 0.38366 0.22913 0.72318
 C529 C 0.39318 0.21614 0.70298
 O530 O 0.42541 0.21510 0.67134
 C531 C 0.44378 0.22982 0.66653
 C532 C 0.44412 0.24827 0.68212
 C533 C 0.46113 0.26599 0.68049
 C534 C 0.47846 0.26508 0.66244
 C535 C 0.48002 0.24646 0.64545
 C536 C 0.46157 0.22845 0.64785
 H537 H 0.42549 0.27394 0.72179
 H538 H 0.39078 0.26093 0.74357
 H539 H 0.38464 0.20008 0.69729
 H540 H 0.46092 0.28061 0.69274
 H541 H 0.49065 0.27968 0.66152
 H542 H 0.46069 0.21411 0.63535
 C543 C 0.58683 0.25903 0.69316
 C544 C 0.58387 0.27944 0.68053
 C545 C 0.59850 0.29892 0.68440
 C546 C 0.61685 0.29766 0.70149
 C547 C 0.62138 0.27722 0.71552
 C548 C 0.60546 0.25742 0.71097
 O549 O 0.57064 0.24264 0.68650
 C550 C 0.55737 0.25297 0.66938
 C551 C 0.56485 0.27551 0.66526
 C552 C 0.55320 0.28980 0.64891
 C553 C 0.53336 0.28097 0.63625
 C554 C 0.52450 0.25734 0.63850
 C555 C 0.53728 0.24347 0.65634
 H556 H 0.59590 0.31495 0.67439
 H557 H 0.62752 0.31325 0.70384
 H558 H 0.60761 0.24124 0.72080
 H559 H 0.55883 0.30784 0.64635
 H560 H 0.52440 0.29371 0.62550
 H561 H 0.53156 0.22596 0.66076
 C562 C 0.08887 0.77406 0.18746
 C563 C 0.08227 0.75106 0.19061
 C564 C 0.09378 0.73649 0.20677
 C565 C 0.11277 0.74544 0.22037
 C566 C 0.12119 0.76909 0.21858
 C567 C 0.10861 0.78365 0.20124
 O568 O 0.07471 0.78463 0.17108
 C569 C 0.05907 0.76782 0.16384
 C570 C 0.06331 0.74711 0.17549
 C571 C 0.04932 0.72737 0.17175
 C572 C 0.03026 0.72846 0.15571
 C573 C 0.02417 0.74882 0.14198
 C574 C 0.03942 0.76929 0.14688
 H575 H 0.08824 0.71838 0.20898
 H576 H 0.12113 0.73329 0.23242
 H577 H 0.11375 0.80183 0.19877
 H578 H 0.05261 0.71134 0.18155
 H579 H 0.01968 0.71289 0.15511
 H580 H 0.03574 0.78599 0.13855
 C581 C 0.30994 0.08697 0.22337
 C582 C 0.30321 0.07650 0.24409
 C583 C 0.28431 0.08532 0.25721
 C584 C 0.27166 0.10539 0.24908
 C585 C 0.27713 0.11757 0.22771
 C586 C 0.29717 0.10773 0.21468
 O587 O 0.32871 0.07539 0.21386
 C588 C 0.33375 0.05734 0.22891
 C589 C 0.31851 0.05749 0.24765
 C590 C 0.32047 0.04087 0.26572
 C591 C 0.33845 0.02342 0.26483
 C592 C 0.35503 0.02131 0.24590
 C593 C 0.35233 0.03941 0.22755
 H594 H 0.27929 0.07690 0.27357
 H595 H 0.25734 0.11143 0.26004
 H596 H 0.30259 0.11585 0.19832
 H597 H 0.30852 0.04143 0.28056
 H598 H 0.33960 0.01154 0.27966
 H599 H 0.36451 0.03992 0.21292
 C600 C 0.80814 0.58486 0.72384
 C601 C 0.79875 0.57140 0.74158
 C602 C 0.77763 0.57782 0.75254
 C603 C 0.76553 0.59858 0.74533
 C604 C 0.77378 0.61382 0.72704
 C605 C 0.79595 0.60629 0.71609
 O606 O 0.82875 0.57527 0.71606
 C607 C 0.83227 0.55546 0.72919
 C608 C 0.81424 0.55251 0.74499
 C609 C 0.81414 0.53351 0.76065
 C610 C 0.83302 0.51703 0.76050
 C611 C 0.85285 0.51838 0.74481
 C612 C 0.85181 0.53857 0.72858
 H613 H 0.77046 0.56702 0.76653
 H614 H 0.74929 0.60259 0.75439
 H615 H 0.80352 0.61679 0.70210
 H616 H 0.79992 0.53155 0.77320
 H617 H 0.83256 0.50336 0.77377
 H618 H 0.86579 0.54144 0.71602
 C619 C 0.80483 0.41361 0.75866
 C620 C 0.82541 0.40902 0.77054
 C621 C 0.82794 0.38840 0.78384
 C622 C 0.80902 0.37193 0.78523
 C623 C 0.78694 0.37511 0.77349
 C624 C 0.78524 0.39683 0.75968
 O625 O 0.80624 0.43467 0.74728
 C626 C 0.82806 0.44338 0.75213
 C627 C 0.84040 0.42821 0.76626
 C628 C 0.86341 0.43361 0.77342
 C629 C 0.87404 0.45537 0.76657
 C630 C 0.86231 0.47288 0.75269
 C631 C 0.83869 0.46563 0.74480
 H632 H 0.84423 0.38498 0.79313
 H633 H 0.81196 0.35626 0.79564
 H634 H 0.76913 0.40071 0.75028
 H635 H 0.87311 0.42132 0.78430
 H636 H 0.89171 0.45834 0.77269
 H637 H 0.82849 0.47723 0.73365
 C638 C 0.30693 -0.08585 0.25825
 C639 C 0.31869 -0.08210 0.27905
 C640 C 0.31407 -0.09607 0.29884
 C641 C 0.29716 -0.11457 0.29750
 C642 C 0.28405 -0.11996 0.27666
 C643 C 0.28930 -0.10467 0.25653
 O644 O 0.31423 -0.07019 0.24160
 C645 C 0.33084 -0.05646 0.25219
 C646 C 0.33403 -0.06314 0.27513
 C647 C 0.34973 -0.05093 0.28968
 C648 C 0.36270 -0.03136 0.28072
 C649 C 0.36143 -0.02331 0.25673
 C650 C 0.34422 -0.03664 0.24257
 H651 H 0.32339 -0.09285 0.31517
 H652 H 0.29421 -0.12468 0.31336
 H653 H 0.28020 -0.10747 0.24002
 H654 H 0.35153 -0.05592 0.30800
 H655 H 0.37288 -0.02187 0.29358
 H656 H 0.34060 -0.03164 0.22466
 C657 C 0.19828 -0.07893 0.73502
 C658 C 0.17581 -0.08735 0.73195
 C659 C 0.17193 -0.11091 0.72556
 C660 C 0.19143 -0.12641 0.72212
 C661 C 0.21538 -0.11939 0.72535
 C662 C 0.21852 -0.09471 0.73217
 O663 O 0.19785 -0.05557 0.74048
 C664 C 0.17470 -0.04928 0.74100
 C665 C 0.16059 -0.06827 0.73607
 C666 C 0.13601 -0.06600 0.73599
 C667 C 0.12536 -0.04379 0.74106
 C668 C 0.13848 -0.02281 0.74604
 C669 C 0.16414 -0.02622 0.74573
 H670 H 0.15415 -0.11730 0.72302
 H671 H 0.18765 -0.14440 0.71707
 H672 H 0.23612 -0.08788 0.73470
 H673 H 0.12505 -0.08113 0.73221
 H674 H 0.10632 -0.04304 0.74098
 H675 H 0.17575 -0.01152 0.74895
 C676 C 0.68924 0.41337 0.22614
 C677 C 0.69390 0.42205 0.24823
 C678 C 0.71163 0.41206 0.26220
 C679 C 0.72512 0.39270 0.25356
 C680 C 0.72164 0.38234 0.23085
 C681 C 0.70280 0.39333 0.21697
 O682 O 0.67155 0.42590 0.21580
 C683 C 0.66500 0.44266 0.23172
 C684 C 0.67824 0.44086 0.25186
 C685 C 0.67465 0.45637 0.27075
 C686 C 0.65712 0.47432 0.26921
 C687 C 0.64239 0.47770 0.24903
 C688 C 0.64693 0.46104 0.22975
 H689 H 0.71513 0.41906 0.27959
 H690 H 0.73846 0.38564 0.26516
 H691 H 0.69895 0.38667 0.19953
 H692 H 0.68527 0.45481 0.28651
 H693 H 0.65518 0.48604 0.28412
 H694 H 0.63683 0.46233 0.21365
 C695 C 0.69706 0.58267 0.26254
 C696 C 0.67789 0.58587 0.27690
 C697 C 0.67622 0.60546 0.29173
 C698 C 0.69461 0.62247 0.29213
 C699 C 0.71538 0.62085 0.27795
 C700 C 0.71623 0.60004 0.26263
 O701 O 0.69470 0.56240 0.24985
 C702 C 0.67363 0.55286 0.25639
 C703 C 0.66289 0.56676 0.27290
 C704 C 0.64118 0.56046 0.28253
 C705 C 0.62966 0.53953 0.27501
 C706 C 0.63878 0.52386 0.25726
 C707 C 0.66211 0.53113 0.24843
 H708 H 0.66092 0.60772 0.30288
 H709 H 0.69221 0.63729 0.30380
 H710 H 0.73131 0.59737 0.25129
 H711 H 0.63314 0.57145 0.29588
 H712 H 0.61337 0.53601 0.28394
 H713 H 0.67113 0.52014 0.23574
 C714 C 0.19802 0.08094 0.77336
 C715 C 0.18387 0.08790 0.75504
 C716 C 0.18685 0.11003 0.74436
 C717 C 0.20483 0.12561 0.75249
 C718 C 0.22010 0.12000 0.77158
 C719 C 0.21628 0.09682 0.78219
 O720 O 0.19214 0.05888 0.78075
 C721 C 0.17392 0.05187 0.76683
 C722 C 0.16826 0.06920 0.75098
 C723 C 0.14935 0.06636 0.73552
 C724 C 0.13586 0.04523 0.73589
 C725 C 0.14101 0.02537 0.75076
 C726 C 0.16057 0.02975 0.76714
 H727 H 0.17560 0.11522 0.72987
 H728 H 0.20674 0.14249 0.74380
 H729 H 0.22728 0.09124 0.79671
 H730 H 0.14448 0.08055 0.72374
 H731 H 0.12050 0.04545 0.72486
 H732 H 0.16507 0.01645 0.78002
 C733 C 0.23895 0.30826 0.08648
 C734 C 0.21879 0.30785 0.07309
 C735 C 0.19938 0.29415 0.07997
 C736 C 0.20045 0.28044 0.10105
 C737 C 0.22087 0.27933 0.11565
 C738 C 0.24063 0.29384 0.10776
 O739 O 0.25509 0.32323 0.07705
 C740 C 0.24500 0.33222 0.05726
 C741 C 0.22284 0.32313 0.05404
 C742 C 0.20931 0.32969 0.03444
 C743 C 0.21857 0.34589 0.01757
 C744 C 0.24136 0.35657 0.01951
 C745 C 0.25454 0.34932 0.04055
 H746 H 0.18348 0.29417 0.06943
 H747 H 0.18507 0.27027 0.10592
 H748 H 0.25664 0.29427 0.11810
 H749 H 0.19189 0.32235 0.03199
 H750 H 0.20760 0.35026 0.00259
 H751 H 0.27166 0.35670 0.04422
 C752 C 0.72418 0.80937 0.58586
 C753 C 0.74232 0.80022 0.57277
 C754 C 0.75344 0.77926 0.57938
 C755 C 0.74598 0.76705 0.59995
 C756 C 0.72731 0.77505 0.61487
 C757 C 0.71619 0.79707 0.60715
 O758 O 0.71632 0.82986 0.57608
 C759 C 0.72981 0.83353 0.55653
 C760 C 0.74592 0.81572 0.55396
 C761 C 0.76201 0.81576 0.53533
 C762 C 0.76197 0.83457 0.51881
 C763 C 0.74592 0.85413 0.51972
 C764 C 0.72929 0.85301 0.53955
 H765 H 0.76774 0.77229 0.56885
 H766 H 0.75517 0.75091 0.60404
 H767 H 0.70191 0.80444 0.61739
 H768 H 0.77478 0.80169 0.53369
 H769 H 0.77551 0.83426 0.50539
 H770 H 0.71655 0.86691 0.54207
 C771 C 0.75899 0.80472 0.41595
 C772 C 0.77056 0.82533 0.41076
 C773 C 0.78343 0.82766 0.38986
 C774 C 0.78473 0.80847 0.37374
 C775 C 0.77327 0.78636 0.37756
 C776 C 0.75988 0.78487 0.39952
 O777 O 0.74803 0.80635 0.43719
 C778 C 0.75283 0.82835 0.44540
 C779 C 0.76650 0.84059 0.42975
 C780 C 0.77351 0.86375 0.43458
 C781 C 0.76699 0.87467 0.45628
 C782 C 0.75364 0.86306 0.47427
 C783 C 0.74584 0.83925 0.46759
 H784 H 0.79249 0.84399 0.38599
 H785 H 0.79481 0.81121 0.35782
 H786 H 0.75073 0.76872 0.40385
 H787 H 0.78402 0.87336 0.42190
 H788 H 0.77291 0.89244 0.45876
 H789 H 0.73499 0.82914 0.47954
 C790 C 0.26280 0.30176 -0.08234
 C791 C 0.26767 0.32407 -0.09038
 C792 C 0.27552 0.32765 -0.11352
 C793 C 0.27858 0.30803 -0.12895
 C794 C 0.27360 0.28429 -0.12224
 C795 C 0.26531 0.28146 -0.09803
 O796 O 0.25615 0.30234 -0.05935
 C797 C 0.25671 0.32541 -0.05290
 C798 C 0.26353 0.33939 -0.07138
 C799 C 0.26525 0.36393 -0.06865
 C800 C 0.25997 0.37458 -0.04645
 C801 C 0.25296 0.36142 -0.02615
 C802 C 0.25154 0.33590 -0.03002
 H803 H 0.27946 0.34528 -0.11964
 H804 H 0.28476 0.31158 -0.14663
 H805 H 0.26141 0.26401 -0.09144
 H806 H 0.27065 0.37479 -0.08336
 H807 H 0.26169 0.39351 -0.04500
 H808 H 0.24689 0.32431 -0.01566
 C809 C 0.72503 0.18751 -0.08721
 C810 C 0.74668 0.19307 -0.07805
 C811 C 0.76060 0.21073 -0.08806
 C812 C 0.75237 0.22337 -0.10805
 C813 C 0.73006 0.21919 -0.11899
 C814 C 0.71616 0.20036 -0.10790
 O815 O 0.71492 0.16976 -0.07448
 C816 C 0.73061 0.16415 -0.05711
 C817 C 0.75023 0.17814 -0.05881
 C818 C 0.76887 0.17590 -0.04296
 C819 C 0.76780 0.15875 -0.02482
 C820 C 0.74843 0.14283 -0.02144
 C821 C 0.72906 0.14628 -0.03835
 H822 H 0.77769 0.21478 -0.08064
 H823 H 0.76408 0.23662 -0.11503
 H824 H 0.69905 0.19593 -0.11501
 H825 H 0.78419 0.18714 -0.04453
 H826 H 0.78287 0.15758 -0.01318
 H827 H 0.71330 0.13577 -0.03712
 C828 C 0.22674 0.68736 0.41090
 C829 C 0.24971 0.69006 0.41792
 C830 C 0.26459 0.70622 0.40672
 C831 C 0.25599 0.72018 0.38775
 C832 C 0.23240 0.71874 0.37904
 C833 C 0.21754 0.70146 0.39125
 O834 O 0.21567 0.67098 0.42458
 C835 C 0.23206 0.66326 0.44037
 C836 C 0.25314 0.67455 0.43678
 C837 C 0.27261 0.66994 0.45115
 C838 C 0.27067 0.65351 0.46995
 C839 C 0.24963 0.64062 0.47521
 C840 C 0.22973 0.64609 0.45959
 H841 H 0.28266 0.70814 0.41250
 H842 H 0.26831 0.73221 0.37963
 H843 H 0.19940 0.69925 0.38587
 H844 H 0.28902 0.67921 0.44828
 H845 H 0.28593 0.65127 0.48118
 H846 H 0.21282 0.63789 0.46274
 C847 C 0.27428 0.69023 0.58711
 C848 C 0.25684 0.69991 0.57348
 C849 C 0.24617 0.72121 0.57972
 C850 C 0.25331 0.73319 0.60053
 C851 C 0.27123 0.72465 0.61606
 C852 C 0.28196 0.70232 0.60866
 O853 O 0.28183 0.66951 0.57755
 C854 C 0.26883 0.66623 0.55759
 C855 C 0.25336 0.68452 0.55456
 C856 C 0.23794 0.68506 0.53539
 C857 C 0.23798 0.66634 0.51878
 C858 C 0.25324 0.64619 0.52021
 C859 C 0.26933 0.64678 0.54054
 H860 H 0.23246 0.72861 0.56872
 H861 H 0.24452 0.74963 0.60429
 H862 H 0.29568 0.69453 0.61936
 H863 H 0.22574 0.69957 0.53333
 H864 H 0.22512 0.66733 0.50475
 H865 H 0.28171 0.63262 0.54332
 C866 C 0.77714 0.18919 0.08710
 C867 C 0.75446 0.19248 0.07945
 C868 C 0.73966 0.20901 0.09019
 C869 C 0.74806 0.22283 0.10935
 C870 C 0.77133 0.22085 0.11873
 C871 C 0.78612 0.20314 0.10698
 O872 O 0.78809 0.17236 0.07383
 C873 C 0.77190 0.16499 0.05763
 C874 C 0.75109 0.17695 0.06064
 C875 C 0.73170 0.17256 0.04616
 C876 C 0.73334 0.15552 0.02794
 C877 C 0.75412 0.14204 0.02308
 C878 C 0.77403 0.14728 0.03878
 H879 H 0.72180 0.21134 0.08392
 H880 H 0.73580 0.23518 0.11705
 H881 H 0.80403 0.20049 0.11291
 H882 H 0.71544 0.18217 0.04876
 H883 H 0.71785 0.15283 0.01713
 H884 H 0.79056 0.13812 0.03638
 C885 C 0.48870 0.33118 0.55052
 C886 C 0.46788 0.32720 0.56213
 C887 C 0.44808 0.34125 0.55790
 C888 C 0.44937 0.36010 0.54142
 C889 C 0.47018 0.36575 0.52842
 C890 C 0.49037 0.35039 0.53331
 O891 O 0.50544 0.31552 0.55771
 C892 C 0.49485 0.30152 0.57410
 C893 C 0.47185 0.30812 0.57724
 C894 C 0.45734 0.29622 0.59315
 C895 C 0.46652 0.27736 0.60688
 C896 C 0.49065 0.26966 0.60596
 C897 C 0.50463 0.28201 0.58792
 H898 H 0.43178 0.33786 0.56721
 H899 H 0.43352 0.37030 0.53873
 H900 H 0.50687 0.35345 0.52429
 H901 H 0.43908 0.30136 0.59508
 H902 H 0.45403 0.26891 0.61844
 H903 H 0.52286 0.27711 0.58530
 C904 C -0.00618 0.83533 0.05847
 C905 C -0.02815 0.82788 0.06523
 C906 C -0.04849 0.83966 0.05770
 C907 C -0.04660 0.85975 0.04279
 C908 C -0.02466 0.86865 0.03435
 C909 C -0.00388 0.85563 0.04260
 O910 O 0.01082 0.82152 0.06844
 C911 C -0.00077 0.80505 0.08159
 C912 C -0.02465 0.80830 0.07979
 C913 C -0.04033 0.79300 0.09088
 C914 C -0.03167 0.77396 0.10460
 C915 C -0.00712 0.76963 0.10901
 C916 C 0.00861 0.78579 0.09622
 H917 H -0.06566 0.83361 0.06335
 H918 H -0.06279 0.86830 0.03749
 H919 H 0.01348 0.86132 0.03716
 H920 H -0.05912 0.79538 0.08872
 H921 H -0.04490 0.76240 0.11182
 H922 H 0.02746 0.78339 0.09735
 C923 C 0.01854 0.66916 0.04946
 C924 C 0.01074 0.65901 0.06997
 C925 C 0.00905 0.63443 0.07217
 C926 C 0.01544 0.61960 0.05292
 C927 C 0.02314 0.62855 0.03078
 C928 C 0.02459 0.65426 0.02932
 O929 O 0.01947 0.69305 0.05162
 C930 C 0.01196 0.69802 0.07387
 C931 C 0.00627 0.67764 0.08554
 C932 C -0.00221 0.67833 0.10859
 C933 C -0.00488 0.70029 0.12034
 C934 C 0.00106 0.72272 0.11014
 C935 C 0.00978 0.72085 0.08583
 H936 H 0.00312 0.62670 0.08856
 H937 H 0.01411 0.60071 0.05527
 H938 H 0.03059 0.66241 0.01316
 H939 H -0.00674 0.66212 0.11757
 H940 H -0.01133 0.69918 0.13816
 H941 H 0.01494 0.73664 0.07650
 C942 C 0.51539 0.16799 0.55073
 C943 C 0.51800 0.15943 0.57321
 C944 C 0.52403 0.13577 0.57706
 C945 C 0.52760 0.12033 0.55753
 C946 C 0.52479 0.12752 0.53359
 C947 C 0.51832 0.15228 0.53048
 O948 O 0.51023 0.19140 0.55115
 C949 C 0.50945 0.19761 0.57430
 C950 C 0.51389 0.17852 0.58843
 C951 C 0.51325 0.18069 0.61302
 C952 C 0.50826 0.20294 0.62363
 C953 C 0.50441 0.22412 0.61048
 C954 C 0.50482 0.22067 0.58484
 H955 H 0.52623 0.12927 0.59485
 H956 H 0.53238 0.10225 0.56126
 H957 H 0.51611 0.15923 0.51287
 H958 H 0.51616 0.16537 0.62401
 H959 H 0.50680 0.20331 0.64257
 H960 H 0.50166 0.23540 0.57322
 C961 C -0.01194 0.16584 0.44495
 C962 C -0.03323 0.17098 0.43467
 C963 C -0.05332 0.15762 0.43991
 C964 C -0.05183 0.13840 0.45602
 C965 C -0.03054 0.13174 0.46772
 C966 C -0.01009 0.14634 0.46179
 O967 O 0.00504 0.18083 0.43702
 C968 C -0.00581 0.19563 0.42155
 C969 C -0.02928 0.19025 0.41968
 C970 C -0.04408 0.20344 0.40499
 C971 C -0.03478 0.22241 0.39136
 C972 C -0.01031 0.22879 0.39116
 C973 C 0.00411 0.21497 0.40767
 H974 H -0.06999 0.16183 0.43165
 H975 H -0.06785 0.12871 0.45951
 H976 H 0.00678 0.14249 0.46978
 H977 H -0.06268 0.19934 0.40408
 H978 H -0.04737 0.23219 0.38105
 H979 H 0.02271 0.21884 0.40922
 C980 C 0.48735 0.66528 0.94441
 C981 C 0.46586 0.67109 0.93494
 C982 C 0.44563 0.65813 0.94072
 C983 C 0.44721 0.63863 0.95652
 C984 C 0.46871 0.63137 0.96745
 C985 C 0.48929 0.64557 0.96100
 O986 O 0.50445 0.67990 0.93605
 C987 C 0.49346 0.69516 0.92113
 C988 C 0.46980 0.69045 0.92004
 C989 C 0.45487 0.70431 0.90610
 C990 C 0.46423 0.72323 0.89241
 C991 C 0.48886 0.72880 0.89128
 C992 C 0.50344 0.71437 0.90710
 H993 H 0.42880 0.66284 0.93309
 H994 H 0.43112 0.62921 0.96044
 H995 H 0.50632 0.64123 0.96837
 H996 H 0.43613 0.70080 0.90586
 H997 H 0.45158 0.73367 0.88284
 H998 H 0.52219 0.71768 0.90803
 C999 C 0.51089 0.83437 0.94432
 C1000 C 0.53233 0.82837 0.93486
 C1001 C 0.55266 0.84116 0.94056
 C1002 C 0.55125 0.86071 0.95629
 C1003 C 0.52982 0.86817 0.96720
 C1004 C 0.50912 0.85415 0.96083
 O1005 O 0.49367 0.81987 0.93603
 C1006 C 0.50453 0.80449 0.92115
 C1007 C 0.52822 0.80902 0.92002
 C1008 C 0.54305 0.79504 0.90609
 C1009 C 0.53353 0.77620 0.89243
 C1010 C 0.50885 0.77085 0.89133
 C1011 C 0.49440 0.78535 0.90718
 H1012 H 0.56945 0.83629 0.93293
 H1013 H 0.56743 0.86999 0.96016
 H1014 H 0.49213 0.85866 0.96820
 H1015 H 0.56182 0.79840 0.90584
 H1016 H 0.54608 0.76566 0.88284
 H1017 H 0.47563 0.78218 0.90813
 C1018 C 0.01138 0.33383 0.44527
 C1019 C 0.03262 0.32878 0.43485
 C1020 C 0.05267 0.34227 0.43989
 C1021 C 0.05118 0.36155 0.45595
 C1022 C 0.02996 0.36811 0.46781
 C1023 C 0.00954 0.35337 0.46209
 O1024 O -0.00559 0.31875 0.43750
 C1025 C 0.00523 0.30398 0.42197
 C1026 C 0.02865 0.30947 0.41992
 C1027 C 0.04340 0.29630 0.40516
 C1028 C 0.03406 0.27732 0.39157
 C1029 C 0.00959 0.27097 0.39137
 C1030 C -0.00471 0.28461 0.40814
 H1031 H 0.06929 0.33814 0.43152
 H1032 H 0.06717 0.37135 0.45928
 H1033 H -0.00729 0.35716 0.47019
 H1034 H 0.06199 0.30043 0.40417
 H1035 H 0.04666 0.26749 0.38133
 H1036 H -0.02328 0.28065 0.40986
 C1037 C 0.33478 0.55837 0.47718
 C1038 C 0.32657 0.55419 0.49957
 C1039 C 0.33701 0.53684 0.51369
 C1040 C 0.35632 0.52333 0.50490
 C1041 C 0.36615 0.52646 0.48189
 C1042 C 0.35470 0.54483 0.46788
 O1043 O 0.32200 0.57568 0.46665
 C1044 C 0.30557 0.58253 0.48273
 C1045 C 0.30773 0.56987 0.50318
 C1046 C 0.29239 0.57398 0.52217
 C1047 C 0.27445 0.59160 0.52042
 C1048 C 0.27108 0.60597 0.49999
 C1049 C 0.28725 0.60045 0.48053
 H1050 H 0.33041 0.53365 0.53130
 H1051 H 0.36377 0.51027 0.51659
 H1052 H 0.36095 0.54838 0.45022
 H1053 H 0.29410 0.56375 0.53817
 H1054 H 0.26288 0.59402 0.53538
 H1055 H 0.28568 0.60955 0.46390
 C1056 C 0.83907 0.05405 -0.00558
 C1057 C 0.83427 0.06433 -0.02688
 C1058 C 0.84782 0.05935 -0.04682
 C1059 C 0.86707 0.04345 -0.04527
 C1060 C 0.87341 0.03118 -0.02416
 C1061 C 0.85839 0.03681 -0.00375
 O1062 O 0.82385 0.06230 0.01121
 C1063 C 0.80922 0.07787 0.00005
 C1064 C 0.81501 0.07920 -0.02335
 C1065 C 0.80185 0.09285 -0.03890
 C1066 C 0.78228 0.10594 -0.03058
 C1067 C 0.77542 0.10751 -0.00620
 C1068 C 0.78950 0.09211 0.00929
 H1069 H 0.84378 0.06776 -0.06345
 H1070 H 0.87664 0.04032 -0.06142
 H1071 H 0.86192 0.02853 0.01305
 H1072 H 0.80612 0.09294 -0.05749
 H1073 H 0.77224 0.11467 -0.04415
 H1074 H 0.78517 0.09106 0.02781
 C1075 C 0.66443 0.05540 0.00785
 C1076 C 0.67453 0.05926 0.02946
 C1077 C 0.66503 0.04923 0.04993
 C1078 C 0.64450 0.03484 0.04854
 C1079 C 0.63297 0.02939 0.02689
 C1080 C 0.64367 0.04012 0.00596
 O1081 O 0.67630 0.06740 -0.00928
 C1082 C 0.69423 0.07894 0.00182
 C1083 C 0.69381 0.07415 0.02551
 C1084 C 0.71107 0.08320 0.04050
 C1085 C 0.72909 0.09798 0.03136
 C1086 C 0.73041 0.10551 0.00723
 C1087 C 0.71244 0.09461 -0.00793
 H1088 H 0.67313 0.05260 0.06686
 H1089 H 0.63765 0.02757 0.06479
 H1090 H 0.63584 0.03708 -0.01115
 H1091 H 0.71094 0.07872 0.05904
 H1092 H 0.74233 0.10377 0.04379
 H1093 H 0.71272 0.09771 -0.02668
 C1094 C 0.16467 0.55373 0.50799
 C1095 C 0.16387 0.57037 0.52545
 C1096 C 0.14647 0.56985 0.54281
 C1097 C 0.12907 0.55188 0.54262
 C1098 C 0.12806 0.53352 0.52531
 C1099 C 0.14686 0.53485 0.50746
 O1100 O 0.18329 0.55804 0.49330
 C1101 C 0.19423 0.57773 0.50185
 C1102 C 0.18275 0.58562 0.52154
 C1103 C 0.19079 0.60518 0.53395
 C1104 C 0.21128 0.61729 0.52637
 C1105 C 0.22472 0.61114 0.50573
 C1106 C 0.21536 0.59027 0.49340
 H1107 H 0.14621 0.58317 0.55646
 H1108 H 0.11631 0.55268 0.55666
 H1109 H 0.14762 0.52173 0.49365
 H1110 H 0.18170 0.61086 0.54972
 H1111 H 0.21656 0.63138 0.53788
 H1112 H 0.22453 0.58369 0.47804
 C1113 C 0.16325 0.44106 -0.02566
 C1114 C 0.17197 0.44592 -0.00363
 C1115 C 0.16200 0.46363 0.01028
 C1116 C 0.14259 0.47697 0.00165
 C1117 C 0.13193 0.47318 -0.02093
 C1118 C 0.14295 0.45429 -0.03474
 O1119 O 0.17597 0.42350 -0.03597
 C1120 C 0.19286 0.41724 -0.02007
 C1121 C 0.19087 0.43047 0.00006
 C1122 C 0.20600 0.42676 0.01921
 C1123 C 0.22386 0.40916 0.01791
 C1124 C 0.22795 0.39500 -0.00253
 C1125 C 0.21137 0.39935 -0.02192
 H1126 H 0.16910 0.46728 0.02760
 H1127 H 0.13574 0.49028 0.01338
 H1128 H 0.13619 0.45018 -0.05208
 H1129 H 0.20399 0.43710 0.03510
 H1130 H 0.23495 0.40666 0.03322
 H1131 H 0.21260 0.38904 -0.03789
 C1132 C 0.66238 0.93950 0.47666
 C1133 C 0.67149 0.94492 0.49839
 C1134 C 0.66187 0.96309 0.51193
 C1135 C 0.64237 0.97627 0.50327
 C1136 C 0.63132 0.97194 0.48096
 C1137 C 0.64202 0.95261 0.46751
 O1138 O 0.67482 0.92157 0.46664
 C1139 C 0.69192 0.91565 0.48245
 C1140 C 0.69039 0.92948 0.50220
 C1141 C 0.70609 0.92649 0.52103
 C1142 C 0.72405 0.90898 0.51980
 C1143 C 0.72733 0.89386 0.49992
 C1144 C 0.71040 0.89772 0.48073
 H1145 H 0.66929 0.96720 0.52902
 H1146 H 0.63582 0.98994 0.51474
 H1147 H 0.63497 0.94806 0.45039
 H1148 H 0.70462 0.93751 0.53652
 H1149 H 0.73585 0.90737 0.53469
 H1150 H 0.71157 0.88719 0.46489
 C1151 C 0.83296 0.94886 0.51191
 C1152 C 0.83499 0.93090 0.52793
 C1153 C 0.85356 0.93026 0.54404
 C1154 C 0.87081 0.94840 0.54400
 C1155 C 0.87059 0.96793 0.52798
 C1156 C 0.85069 0.96773 0.51140
 O1157 O 0.81333 0.94570 0.49836
 C1158 C 0.80309 0.92534 0.50605
 C1159 C 0.81592 0.91582 0.52408
 C1160 C 0.80874 0.89509 0.53513
 C1161 C 0.78806 0.88323 0.52747
 C1162 C 0.77354 0.89092 0.50812
 C1163 C 0.78155 0.91350 0.49798
 H1164 H 0.85483 0.91595 0.55658
 H1165 H 0.88465 0.94663 0.55691
 H1166 H 0.84896 0.98179 0.49865
 H1167 H 0.81883 0.88810 0.54973
 H1168 H 0.78367 0.86795 0.53774
 H1169 H 0.77115 0.92193 0.48443
 C1170 C 0.33182 0.44738 0.01469
 C1171 C 0.33980 0.42479 0.01822
 C1172 C 0.36324 0.42070 0.02491
 C1173 C 0.37901 0.44006 0.02818
 C1174 C 0.37241 0.46404 0.02436
 C1175 C 0.34788 0.46740 0.01725
 O1176 O 0.30854 0.44732 0.00907
 C1177 C 0.30180 0.42432 0.00896
 C1178 C 0.32041 0.40984 0.01421
 C1179 C 0.31753 0.38524 0.01419
 C1180 C 0.29504 0.37509 0.00898
 C1181 C 0.27433 0.38878 0.00465
 C1182 C 0.27862 0.41430 0.00413
 H1183 H 0.36933 0.40288 0.02788
 H1184 H 0.39688 0.43615 0.03357
 H1185 H 0.34137 0.48506 0.01425
 H1186 H 0.33244 0.37391 0.01782
 H1187 H 0.29378 0.35607 0.00842
 H1188 H 0.26449 0.42625 -0.00028
 C1189 C 0.55815 0.47485 0.33550
 C1190 C 0.54817 0.49194 0.32162
 C1191 C 0.52669 0.50234 0.32780
 C1192 C 0.51485 0.49525 0.34874
 C1193 C 0.52370 0.47763 0.36444
 C1194 C 0.54621 0.46722 0.35714
 O1195 O 0.57903 0.46758 0.32610
 C1196 C 0.58212 0.48035 0.30598
 C1197 C 0.56355 0.49543 0.30265
 C1198 C 0.56293 0.51065 0.28331
 C1199 C 0.58183 0.51081 0.26685
 C1200 C 0.60219 0.49583 0.26851
 C1201 C 0.60171 0.48006 0.28910
 H1202 H 0.51905 0.51580 0.31666
 H1203 H 0.49828 0.50380 0.35250
 H1204 H 0.55425 0.45377 0.36798
 H1205 H 0.54830 0.52269 0.28109
 H1206 H 0.58095 0.52386 0.25299
 H1207 H 0.61615 0.46812 0.29230
 C1208 C 0.06385 -0.02290 0.84041
 C1209 C 0.06260 0.00071 0.83533
 C1210 C 0.04781 0.01565 0.84825
 C1211 C 0.03379 0.00641 0.86692
 C1212 C 0.03395 -0.01784 0.87370
 C1213 C 0.04981 -0.03272 0.85977
 O1214 O 0.07885 -0.03395 0.82526
 C1215 C 0.08719 -0.01692 0.81052
 C1216 C 0.07771 0.00457 0.81618
 C1217 C 0.08348 0.02474 0.80320
 C1218 C 0.09908 0.02308 0.78361
 C1219 C 0.10975 0.00149 0.77599
 C1220 C 0.10336 -0.01902 0.79048
 H1221 H 0.04693 0.03422 0.84399
 H1222 H 0.02273 0.01871 0.87639
 H1223 H 0.05089 -0.05136 0.86358
 H1224 H 0.07571 0.04155 0.80775
 H1225 H 0.10207 0.03900 0.77359
 H1226 H 0.11007 -0.03626 0.78602
 C1227 C 0.06343 0.01887 0.65847
 C1228 C 0.04922 0.01229 0.67688
 C1229 C 0.02476 0.01060 0.67412
 C1230 C 0.01426 0.01567 0.65190
 C1231 C 0.02743 0.02297 0.63176
 C1232 C 0.05292 0.02466 0.63557
 O1233 O 0.08649 0.01879 0.66521
 C1234 C 0.08667 0.01220 0.68832
 C1235 C 0.06416 0.00825 0.69608
 C1236 C 0.05984 0.00148 0.71930
 C1237 C 0.07882 -0.00079 0.73549
 C1238 C 0.10313 0.00370 0.72966
 C1239 C 0.10660 0.00929 0.70454
 H1240 H 0.01382 0.00529 0.68881
 H1241 H -0.00469 0.01404 0.65054
 H1242 H 0.06423 0.02982 0.62113
 H1243 H 0.04199 -0.00198 0.72506
 H1244 H 0.07382 -0.00650 0.75290
 H1245 H 0.12427 0.01215 0.69800
 C1246 C 0.55453 0.50996 0.16340
 C1247 C 0.57479 0.52251 0.15923
 C1248 C 0.57705 0.53640 0.13895
 C1249 C 0.55819 0.53766 0.12238
 C1250 C 0.53647 0.52519 0.12510
 C1251 C 0.53504 0.51083 0.14649
 O1252 O 0.55610 0.49813 0.18420
 C1253 C 0.57772 0.50334 0.19318
 C1254 C 0.58978 0.51815 0.17843
 C1255 C 0.61255 0.52577 0.18415
 C1256 C 0.62322 0.51871 0.20583
 C1257 C 0.61174 0.50416 0.22298
 C1258 C 0.58840 0.49580 0.21537
 H1259 H 0.59308 0.54626 0.13588
 H1260 H 0.56087 0.54856 0.10698
 H1261 H 0.51918 0.50087 0.15002
 H1262 H 0.62204 0.53719 0.17219
 H1263 H 0.64070 0.52523 0.20904
 H1264 H 0.57842 0.48416 0.22668
 C1265 C 0.44898 -0.01519 0.16685
 C1266 C 0.42642 -0.01751 0.15841
 C1267 C 0.42239 -0.02347 0.13475
 C1268 C 0.44180 -0.02722 0.11918
 C1269 C 0.46581 -0.02467 0.12623
 C1270 C 0.46912 -0.01830 0.15100
 O1271 O 0.44874 -0.01009 0.19029
 C1272 C 0.42563 -0.00905 0.19664
 C1273 C 0.41136 -0.01326 0.17760
 C1274 C 0.38678 -0.01228 0.17989
 C1275 C 0.37634 -0.00717 0.20221
 C1276 C 0.38962 -0.00358 0.22335
 C1277 C 0.41525 -0.00435 0.21978
 H1278 H 0.40454 -0.02547 0.12834
 H1279 H 0.43792 -0.03194 0.10112
 H1280 H 0.48678 -0.01629 0.15786
 H1281 H 0.37569 -0.01499 0.16462
 H1282 H 0.35743 -0.00541 0.20265
 H1283 H 0.42696 -0.00143 0.23450
 C1284 C 0.93866 0.47593 0.66113
 C1285 C 0.94304 0.49822 0.66944
 C1286 C 0.96020 0.51245 0.65893
 C1287 C 0.97345 0.50387 0.63941
 C1288 C 0.97034 0.48092 0.62944
 C1289 C 0.95205 0.46676 0.64097
 O1290 O 0.92139 0.46543 0.67411
 C1291 C 0.91487 0.48145 0.69078
 C1292 C 0.92771 0.50179 0.68849
 C1293 C 0.92415 0.52081 0.70385
 C1294 C 0.90703 0.51919 0.72216
 C1295 C 0.89265 0.49886 0.72598
 C1296 C 0.89717 0.47944 0.70948
 H1297 H 0.96344 0.53001 0.66562
 H1298 H 0.98629 0.51576 0.63195
 H1299 H 0.94846 0.44915 0.63463
 H1300 H 0.93450 0.53670 0.70191
 H1301 H 0.90511 0.53418 0.73379
 H1302 H 0.88734 0.46321 0.71114
 C1303 C 0.94924 0.51183 0.83008
 C1304 C 0.93041 0.52661 0.83336
 C1305 C 0.92937 0.54177 0.85274
 C1306 C 0.94803 0.54206 0.86945
 C1307 C 0.96850 0.52747 0.86773
 C1308 C 0.96870 0.51180 0.84715
 O1309 O 0.94629 0.49891 0.81002
 C1310 C 0.92521 0.50573 0.80071
 C1311 C 0.91503 0.52266 0.81453
 C1312 C 0.89346 0.53269 0.80839
 C1313 C 0.88149 0.52518 0.78770
 C1314 C 0.88994 0.50696 0.77218
 C1315 C 0.91320 0.49775 0.77924
 H1316 H 0.91434 0.55327 0.85507
 H1317 H 0.94607 0.55398 0.88414
 H1318 H 0.98351 0.50013 0.84440
 H1319 H 0.88590 0.54641 0.81928
 H1320 H 0.86545 0.53455 0.78421
 H1321 H 0.92186 0.48481 0.76825
 C1322 C 0.44952 0.01117 0.33106
 C1323 C 0.43884 0.03236 0.32643
 C1324 C 0.44383 0.05231 0.34005
 C1325 C 0.46010 0.05079 0.35910
 C1326 C 0.47215 0.02960 0.36545
 C1327 C 0.46649 0.00926 0.35051
 O1328 O 0.44174 -0.00562 0.31572
 C1329 C 0.42593 0.00529 0.30128
 C1330 C 0.42373 0.02856 0.30728
 C1331 C 0.40854 0.04341 0.29481
 C1332 C 0.39460 0.03435 0.27603
 C1333 C 0.39455 0.01003 0.26893
 C1334 C 0.41187 -0.00439 0.28185
 H1335 H 0.43530 0.06891 0.33615
 H1336 H 0.46339 0.06678 0.36890
 H1337 H 0.47474 -0.00754 0.35407
 H1338 H 0.40735 0.06187 0.29946
 H1339 H 0.38363 0.04705 0.26709
 H1340 H 0.41375 -0.02284 0.27743
   
