data_POSCAR
  _audit_creation_date              2014-09-24
  _audit_creation_method            'ToBaCCo'
  _symmetry_space_group_name_H-M    'P1'
  _symmetry_Int_Tables_number       1
  _symmetry_cell_setting            triclinic
  loop_
  _symmetry_equiv_pos_as_xyz
 x,y,z
_cell_length_a 53.2231
_cell_length_b 53.3949
_cell_length_c 53.3941
_cell_angle_alpha 90.126400
_cell_angle_beta 89.930400
_cell_angle_gamma 90.321700
loop_
  _atom_site_label
  _atom_site_type_symbol
  _atom_site_fract_x
  _atom_site_fract_y
  _atom_site_fract_z
O1 O 0.87634 0.17956 0.82806
 O2 O 0.90169 0.14611 0.81565
 O3 O 0.80828 0.14019 0.85104
 O4 O 0.79614 0.11390 0.87989
 O5 O 0.83950 0.20130 0.89545
 O6 O 0.87240 0.20399 0.92467
 O7 O 0.87179 0.06622 0.91056
 O8 O 0.84447 0.06394 0.87667
 O9 O 0.93708 0.10145 0.88540
 O10 O 0.94777 0.13928 0.86559
 O11 O 0.90222 0.12553 0.95306
 O12 O 0.86766 0.14988 0.96397
 O13 O 0.87003 0.09126 0.94501
 O14 O 0.83868 0.12661 0.95521
 O15 O 0.93444 0.12823 0.92517
 O16 O 0.94346 0.16412 0.89379
 O17 O 0.90727 0.07152 0.87890
 O18 O 0.87262 0.06978 0.84723
 O19 O 0.87623 0.20504 0.86228
 O20 O 0.90262 0.20549 0.89970
 O21 O 0.80836 0.17252 0.88961
 O22 O 0.80149 0.13235 0.91470
 O23 O 0.83907 0.14502 0.82180
 O24 O 0.87496 0.11789 0.81237
 Zr25 Zr 0.87292 0.14319 0.84282
 O26 O 0.89590 0.11720 0.86157
 Zr27 Zr 0.82736 0.13798 0.88505
 O28 O 0.84744 0.11007 0.90434
 Zr29 Zr 0.87251 0.18039 0.89283
 O30 O 0.89370 0.15520 0.91429
 Zr31 Zr 0.87291 0.09148 0.88057
 O32 O 0.84964 0.11642 0.86028
 Zr33 Zr 0.91690 0.13467 0.89016
 O34 O 0.89706 0.16134 0.86861
 Zr35 Zr 0.87014 0.12814 0.93092
 O36 O 0.84862 0.15599 0.91288
 O37 O 0.84949 0.16384 0.86596
 O38 O 0.89493 0.10796 0.90838
 C39 C 0.87772 0.20122 0.83856
 C40 C 0.81583 0.14298 0.82844
 C41 C 0.81632 0.19503 0.89362
 C42 C 0.87086 0.06968 0.93431
 C43 C 0.93032 0.07876 0.88116
 C44 C 0.92558 0.12549 0.94746
 H45 H 0.90698 0.10896 0.84923
 H46 H 0.90342 0.16469 0.92694
 H47 H 0.83951 0.17607 0.85631
 H48 H 0.83560 0.09803 0.91209
 H49 H 0.83105 0.07153 0.86642
 H50 H 0.80214 0.09669 0.88298
 H51 H 0.94185 0.17123 0.91084
 H52 H 0.91545 0.20228 0.88665
 H53 H 0.88770 0.07417 0.83731
 H54 H 0.86173 0.10508 0.81515
 H55 H 0.87753 0.16535 0.96110
 H56 H 0.86045 0.19644 0.93675
 H57 H 0.91592 0.15480 0.82391
 H58 H 0.94270 0.13232 0.84917
 H59 H 0.80417 0.14609 0.92692
 H60 H 0.82934 0.11092 0.95171
 O61 O 0.84630 0.68976 0.38513
 O62 O 0.88043 0.69410 0.41230
 O63 O 0.87985 0.66601 0.31667
 O64 O 0.90662 0.63218 0.30532
 O65 O 0.81392 0.62872 0.34305
 O66 O 0.80525 0.59900 0.37412
 O67 O 0.94389 0.59088 0.37488
 O68 O 0.95355 0.62729 0.35314
 O69 O 0.91161 0.61618 0.44252
 O70 O 0.87700 0.64330 0.45324
 O71 O 0.87848 0.55639 0.40469
 O72 O 0.85208 0.55161 0.36861
 O73 O 0.91401 0.56045 0.37176
 O74 O 0.87739 0.55680 0.34117
 O75 O 0.87749 0.58311 0.43786
 O76 O 0.84878 0.61884 0.44827
 O77 O 0.94272 0.61898 0.41342
 O78 O 0.94995 0.65375 0.38022
 O79 O 0.81498 0.66073 0.38175
 O80 O 0.80704 0.62215 0.40553
 O81 O 0.84390 0.63075 0.31268
 O82 O 0.87953 0.60383 0.30333
 O83 O 0.88095 0.69270 0.34996
 O84 O 0.90938 0.69486 0.38580
 Zr85 Zr 0.87925 0.66921 0.38148
 O86 O 0.90142 0.64527 0.40324
 Zr87 Zr 0.87820 0.63014 0.33295
 O88 O 0.90170 0.60491 0.35214
 Zr89 Zr 0.83399 0.62634 0.37668
 O90 O 0.85481 0.59984 0.39697
 Zr91 Zr 0.92364 0.62387 0.37904
 O92 O 0.90304 0.64953 0.35709
 Zr93 Zr 0.87850 0.61904 0.42186
 O94 O 0.85607 0.64555 0.40314
 Zr95 Zr 0.87947 0.58010 0.37325
 O96 O 0.85568 0.60401 0.35227
 O97 O 0.85540 0.65150 0.35607
 O98 O 0.90251 0.59790 0.39937
 C99 C 0.82313 0.68329 0.38490
 C100 C 0.88100 0.68807 0.32636
 C101 C 0.82084 0.62987 0.32007
 C102 C 0.93703 0.56802 0.37251
 C103 C 0.93475 0.61639 0.43605
 C104 C 0.87759 0.56103 0.42828
 H105 H 0.91167 0.65531 0.41502
 H106 H 0.84307 0.58847 0.40577
 H107 H 0.84485 0.66335 0.34655
 H108 H 0.91230 0.59601 0.33982
 H109 H 0.94752 0.62035 0.33704
 H110 H 0.92014 0.64290 0.31233
 H111 H 0.83729 0.60486 0.44398
 H112 H 0.81209 0.63367 0.41920
 H113 H 0.94933 0.66132 0.39713
 H114 H 0.92151 0.69136 0.37219
 H115 H 0.83781 0.55569 0.37975
 H116 H 0.81155 0.58592 0.36258
 H117 H 0.86991 0.68645 0.42556
 H118 H 0.88968 0.65667 0.45071
 H119 H 0.86705 0.59062 0.30737
 H120 H 0.89248 0.56006 0.33081
 O121 O 0.38266 0.17009 0.31414
 O122 O 0.40950 0.13661 0.30293
 O123 O 0.31776 0.13151 0.34275
 O124 O 0.30746 0.10651 0.37332
 O125 O 0.35046 0.19517 0.38272
 O126 O 0.38495 0.20044 0.40901
 O127 O 0.38391 0.06199 0.40400
 O128 O 0.35642 0.05715 0.37067
 O129 O 0.44872 0.09672 0.37345
 O130 O 0.45812 0.13235 0.35134
 O131 O 0.41638 0.12341 0.44093
 O132 O 0.38234 0.14885 0.45204
 O133 O 0.38293 0.08924 0.43675
 O134 O 0.35320 0.12544 0.44630
 O135 O 0.44742 0.12574 0.41172
 O136 O 0.45378 0.16009 0.37737
 O137 O 0.41915 0.06589 0.37140
 O138 O 0.38383 0.06138 0.34057
 O139 O 0.38418 0.19745 0.34686
 O140 O 0.41367 0.20028 0.38227
 O141 O 0.31948 0.16574 0.38015
 O142 O 0.31371 0.12675 0.40666
 O143 O 0.34703 0.13422 0.31176
 O144 O 0.38326 0.10743 0.30248
 Zr145 Zr 0.38185 0.13457 0.33132
 O146 O 0.40609 0.11015 0.35073
 Zr147 Zr 0.33847 0.13126 0.37590
 O148 O 0.35975 0.10500 0.39598
 Zr149 Zr 0.38339 0.17465 0.37895
 O150 O 0.40579 0.15124 0.40109
 Zr151 Zr 0.38448 0.08529 0.37236
 O152 O 0.35994 0.10856 0.35151
 Zr153 Zr 0.42812 0.12964 0.37719
 O154 O 0.40700 0.15457 0.35474
 Zr155 Zr 0.38330 0.12504 0.42033
 O156 O 0.36068 0.15134 0.40151
 O157 O 0.35922 0.15620 0.35436
 O158 O 0.40742 0.10381 0.39808
 C159 C 0.38372 0.19237 0.32334
 C160 C 0.32415 0.13264 0.31966
 C161 C 0.32739 0.18844 0.38281
 C162 C 0.38306 0.06701 0.42750
 C163 C 0.44211 0.07371 0.37179
 C164 C 0.43948 0.12376 0.43445
 H165 H 0.41683 0.10132 0.33849
 H166 H 0.41596 0.16161 0.41266
 H167 H 0.34833 0.16762 0.34470
 H168 H 0.34827 0.09343 0.40490
 H169 H 0.34261 0.06395 0.36036
 H170 H 0.31395 0.08954 0.37671
 H171 H 0.45362 0.16764 0.39430
 H172 H 0.42513 0.19710 0.36801
 H173 H 0.39870 0.06516 0.33009
 H174 H 0.37076 0.09434 0.30685
 H175 H 0.39276 0.16374 0.44813
 H176 H 0.37458 0.19320 0.42262
 H177 H 0.42320 0.14732 0.30959
 H178 H 0.45145 0.12691 0.33492
 H179 H 0.31687 0.14087 0.41831
 H180 H 0.34299 0.11013 0.44361
 O181 O 0.11549 0.31907 0.31470
 O182 O 0.08807 0.35174 0.30331
 O183 O 0.18143 0.35867 0.33836
 O184 O 0.19311 0.38552 0.36700
 O185 O 0.15108 0.29733 0.38262
 O186 O 0.11799 0.29304 0.41064
 O187 O 0.11778 0.43140 0.39939
 O188 O 0.14347 0.43482 0.36472
 O189 O 0.05190 0.39467 0.37391
 O190 O 0.04164 0.35794 0.35426
 O191 O 0.08782 0.37194 0.44087
 O192 O 0.12225 0.34744 0.45159
 O193 O 0.12092 0.40602 0.43337
 O194 O 0.15132 0.37011 0.44289
 O195 O 0.05531 0.36785 0.41355
 O196 O 0.04766 0.33155 0.38126
 O197 O 0.08108 0.42551 0.36888
 O198 O 0.11501 0.42850 0.33605
 O199 O 0.11581 0.29317 0.34848
 O200 O 0.08782 0.29217 0.38558
 O201 O 0.18175 0.32672 0.37743
 O202 O 0.18861 0.36719 0.40159
 O203 O 0.15076 0.35479 0.30892
 O204 O 0.11387 0.38113 0.30048
 Zr205 Zr 0.11693 0.35530 0.33026
 O206 O 0.09344 0.38042 0.34979
 Zr207 Zr 0.16238 0.36088 0.37241
 O208 O 0.14198 0.38813 0.39225
 Zr209 Zr 0.11791 0.31753 0.37958
 O210 O 0.09663 0.34197 0.40191
 Zr211 Zr 0.11594 0.40645 0.36904
 O212 O 0.13968 0.38231 0.34812
 Zr213 Zr 0.07293 0.36218 0.37826
 O214 O 0.09306 0.33634 0.35576
 Zr215 Zr 0.11983 0.36931 0.41870
 O216 O 0.14153 0.34204 0.39997
 O217 O 0.14076 0.33486 0.35306
 O218 O 0.09445 0.38920 0.39677
 C219 C 0.11508 0.29722 0.32477
 C220 C 0.17399 0.35652 0.31566
 C221 C 0.17409 0.30415 0.38142
 C222 C 0.11999 0.42772 0.42302
 C223 C 0.05825 0.41757 0.37076
 C224 C 0.06441 0.37113 0.43569
 H225 H 0.08204 0.38855 0.33772
 H226 H 0.08713 0.33218 0.41448
 H227 H 0.15123 0.32299 0.34341
 H228 H 0.15381 0.40020 0.39999
 H229 H 0.15703 0.42758 0.35432
 H230 H 0.18665 0.40264 0.36965
 H231 H 0.04856 0.32509 0.39859
 H232 H 0.07593 0.29431 0.37151
 H233 H 0.09948 0.42440 0.32673
 H234 H 0.12681 0.39421 0.30338
 H235 H 0.11241 0.33196 0.44865
 H236 H 0.12871 0.30107 0.42353
 H237 H 0.07467 0.34147 0.31114
 H238 H 0.04745 0.36237 0.33723
 H239 H 0.18625 0.35362 0.41399
 H240 H 0.16111 0.38549 0.43924
 O241 O 0.61755 0.82094 0.31890
 O242 O 0.59155 0.85430 0.30647
 O243 O 0.68394 0.85883 0.34428
 O244 O 0.69558 0.88511 0.37348
 O245 O 0.65043 0.79825 0.38777
 O246 O 0.61637 0.79521 0.41492
 O247 O 0.62054 0.93332 0.40322
 O248 O 0.64739 0.93598 0.36941
 O249 O 0.55450 0.89858 0.37579
 O250 O 0.54382 0.86191 0.35581
 O251 O 0.58761 0.87493 0.44384
 O252 O 0.62094 0.84938 0.45568
 O253 O 0.62188 0.90790 0.43725
 O254 O 0.65090 0.87121 0.44787
 O255 O 0.55588 0.87187 0.41551
 O256 O 0.54805 0.83567 0.38322
 O257 O 0.58470 0.92858 0.37175
 O258 O 0.61976 0.93028 0.33976
 O259 O 0.61610 0.79507 0.35269
 O260 O 0.58704 0.79495 0.38882
 O261 O 0.68213 0.82665 0.38316
 O262 O 0.68933 0.86693 0.40783
 O263 O 0.65403 0.85570 0.31401
 O264 O 0.61817 0.88292 0.30434
 Zr265 Zr 0.61962 0.85716 0.33432
 O266 O 0.59627 0.88304 0.35299
 Zr267 Zr 0.66394 0.86143 0.37778
 O268 O 0.64371 0.88934 0.39690
 Zr269 Zr 0.61799 0.81946 0.38372
 O270 O 0.59670 0.84459 0.40525
 Zr271 Zr 0.61895 0.90840 0.37288
 O272 O 0.64262 0.88351 0.35279
 Zr273 Zr 0.57438 0.86545 0.38083
 O274 O 0.59445 0.83895 0.35910
 Zr275 Zr 0.62020 0.87122 0.42268
 O276 O 0.64171 0.84330 0.40474
 O277 O 0.64211 0.83606 0.35783
 O278 O 0.59613 0.89183 0.39996
 C279 C 0.61621 0.79913 0.32899
 C280 C 0.67709 0.85689 0.32139
 C281 C 0.67368 0.80431 0.38700
 C282 C 0.62189 0.92963 0.42690
 C283 C 0.56159 0.92131 0.37292
 C284 C 0.56438 0.87494 0.43790
 H285 H 0.58552 0.89148 0.34056
 H286 H 0.58653 0.83513 0.41755
 H287 H 0.65252 0.82389 0.34848
 H288 H 0.65564 0.90108 0.40499
 H289 H 0.66110 0.92830 0.35954
 H290 H 0.68951 0.90244 0.37565
 H291 H 0.54827 0.82921 0.40057
 H292 H 0.57554 0.79758 0.37451
 H293 H 0.60421 0.92692 0.33018
 H294 H 0.63132 0.89569 0.30761
 H295 H 0.61062 0.83424 0.45250
 H296 H 0.62709 0.80289 0.42802
 H297 H 0.57756 0.84458 0.31395
 H298 H 0.55020 0.86653 0.33904
 H299 H 0.68625 0.85332 0.42003
 H300 H 0.66127 0.88626 0.44446
 O301 O 0.63459 0.65716 0.18573
 O302 O 0.61402 0.62033 0.19982
 O303 O 0.69879 0.62523 0.14673
 O304 O 0.70534 0.60052 0.11401
 O305 O 0.65540 0.68577 0.11363
 O306 O 0.61653 0.68716 0.09230
 O307 O 0.62873 0.55037 0.09406
 O308 O 0.66322 0.54868 0.12155
 O309 O 0.56824 0.57746 0.13560
 O310 O 0.56125 0.61341 0.16269
 O311 O 0.58442 0.60882 0.06608
 O312 O 0.61598 0.63908 0.05049
 O313 O 0.62077 0.57773 0.06252
 O314 O 0.64449 0.61487 0.04789
 O315 O 0.55956 0.60845 0.10073
 O316 O 0.55579 0.63927 0.13610
 O317 O 0.60064 0.55011 0.13236
 O318 O 0.64074 0.54853 0.15601
 O319 O 0.62669 0.68459 0.15416
 O320 O 0.59320 0.68585 0.12380
 O321 O 0.68876 0.65946 0.11085
 O322 O 0.69304 0.62264 0.08244
 O323 O 0.67408 0.62570 0.18155
 O324 O 0.64373 0.59540 0.19600
 Zr325 Zr 0.63712 0.62213 0.16765
 O326 O 0.61269 0.59515 0.15202
 Zr327 Zr 0.67311 0.62336 0.11679
 O328 O 0.65063 0.59566 0.09925
 Zr329 Zr 0.62491 0.66223 0.12181
 O330 O 0.60056 0.63685 0.10384
 Zr331 Zr 0.63243 0.57315 0.12604
 O332 O 0.65771 0.59856 0.14359
 Zr333 Zr 0.58480 0.61281 0.13071
 O334 O 0.60722 0.63996 0.14913
 Zr335 Zr 0.62115 0.61319 0.07998
 O336 O 0.64515 0.64102 0.09545
 O337 O 0.65402 0.64607 0.14197
 O338 O 0.60353 0.58948 0.10558
 C339 C 0.63010 0.67924 0.17732
 C340 C 0.69565 0.62600 0.17059
 C341 C 0.67877 0.68138 0.11006
 C342 C 0.62406 0.55549 0.07105
 C343 C 0.57727 0.55524 0.13548
 C344 C 0.56289 0.60758 0.07695
 H345 H 0.60526 0.58493 0.16556
 H346 H 0.58764 0.64639 0.09470
 H347 H 0.66511 0.65853 0.15023
 H348 H 0.66110 0.58533 0.08801
 H349 H 0.67762 0.55651 0.13037
 H350 H 0.69972 0.58403 0.10762
 H351 H 0.55475 0.64967 0.12083
 H352 H 0.58318 0.68024 0.13840
 H353 H 0.62842 0.55136 0.16958
 H354 H 0.65552 0.58301 0.18886
 H355 H 0.60229 0.65052 0.05544
 H356 H 0.62588 0.68113 0.07745
 H357 H 0.59811 0.62874 0.19538
 H358 H 0.56866 0.60223 0.17541
 H359 H 0.68496 0.63495 0.07124
 H360 H 0.65846 0.60299 0.05034
 O361 O 0.38558 0.84883 0.69366
 O362 O 0.41067 0.88521 0.70103
 O363 O 0.31448 0.87925 0.67380
 O364 O 0.29808 0.90321 0.64486
 O365 O 0.34807 0.81933 0.63060
 O366 O 0.37894 0.81791 0.59902
 O367 O 0.36652 0.95516 0.60399
 O368 O 0.34095 0.95699 0.63969
 O369 O 0.43602 0.92861 0.62645
 O370 O 0.45187 0.89479 0.64780
 O371 O 0.39936 0.89667 0.56360
 O372 O 0.36587 0.86682 0.55778
 O373 O 0.36528 0.92755 0.57153
 O374 O 0.33658 0.88963 0.56555
 O375 O 0.43355 0.89752 0.58908
 O376 O 0.44769 0.86607 0.62314
 O377 O 0.40388 0.95568 0.63312
 O378 O 0.37180 0.95665 0.66712
 O379 O 0.38631 0.82135 0.66103
 O380 O 0.41064 0.82074 0.62217
 O381 O 0.31461 0.84524 0.63561
 O382 O 0.30191 0.88301 0.61054
 O383 O 0.34781 0.88057 0.70042
 O384 O 0.38167 0.91113 0.70526
 Zr385 Zr 0.37946 0.88380 0.67662
 O386 O 0.39830 0.91059 0.65448
 Zr387 Zr 0.33057 0.88167 0.63798
 O388 O 0.34659 0.90974 0.61511
 Zr389 Zr 0.37898 0.84343 0.62935
 O390 O 0.39626 0.86885 0.60472
 Zr391 Zr 0.37170 0.93241 0.63557
 O392 O 0.35256 0.90691 0.65944
 Zr393 Zr 0.41895 0.89321 0.62572
 O394 O 0.40335 0.86625 0.65040
 Zr395 Zr 0.36917 0.89211 0.58818
 O396 O 0.35153 0.86389 0.60980
 O397 O 0.35633 0.85952 0.65669
 O398 O 0.39338 0.91615 0.60745
 C399 C 0.38781 0.82668 0.68443
 C400 C 0.32410 0.87927 0.69587
 C401 C 0.32451 0.82346 0.63266
 C402 C 0.36496 0.94986 0.58058
 C403 C 0.42725 0.95072 0.62962
 C404 C 0.42304 0.89822 0.56738
 H405 H 0.40937 0.92081 0.66534
 H406 H 0.40597 0.85935 0.59213
 H407 H 0.34792 0.84710 0.66764
 H408 H 0.33325 0.92001 0.60747
 H409 H 0.32941 0.94916 0.65198
 H410 H 0.30187 0.92040 0.63908
 H411 H 0.44567 0.85715 0.60700
 H412 H 0.42376 0.82574 0.63434
 H413 H 0.38773 0.95428 0.67631
 H414 H 0.36754 0.92278 0.70252
 H415 H 0.37933 0.85425 0.55955
 H416 H 0.36563 0.82351 0.58740
 H417 H 0.42421 0.87553 0.69284
 H418 H 0.44666 0.89994 0.66481
 H419 H 0.30582 0.87002 0.59788
 H420 H 0.32567 0.90403 0.56958
 O421 O 0.89070 0.34555 0.69796
 O422 O 0.91627 0.38190 0.70392
 O423 O 0.81962 0.37605 0.67828
 O424 O 0.80297 0.39952 0.64914
 O425 O 0.85204 0.31487 0.63624
 O426 O 0.88230 0.31236 0.60418
 O427 O 0.87072 0.44980 0.60591
 O428 O 0.84597 0.45261 0.64219
 O429 O 0.94059 0.42334 0.62781
 O430 O 0.95666 0.39008 0.64964
 O431 O 0.90273 0.39027 0.56639
 O432 O 0.86905 0.36047 0.56178
 O433 O 0.86883 0.42151 0.57408
 O434 O 0.83995 0.38351 0.56954
 O435 O 0.93739 0.39129 0.59124
 O436 O 0.95179 0.36060 0.62593
 O437 O 0.90874 0.45077 0.63417
 O438 O 0.87756 0.45296 0.66873
 O439 O 0.89083 0.31735 0.66594
 O440 O 0.91449 0.31562 0.62662
 O441 O 0.81889 0.34127 0.64079
 O442 O 0.80596 0.37847 0.61530
 O443 O 0.85330 0.37782 0.70444
 O444 O 0.88754 0.40821 0.70794
 Zr445 Zr 0.88463 0.38015 0.68007
 O446 O 0.90328 0.40625 0.65692
 Zr447 Zr 0.83515 0.37754 0.64221
 O448 O 0.85094 0.40489 0.61839
 Zr449 Zr 0.88309 0.33869 0.63381
 O450 O 0.90010 0.36335 0.60823
 Zr451 Zr 0.87652 0.42781 0.63792
 O452 O 0.85765 0.40306 0.66274
 Zr453 Zr 0.92332 0.38804 0.62823
 O454 O 0.90797 0.36182 0.65388
 Zr455 Zr 0.87293 0.38644 0.59154
 O456 O 0.85550 0.35889 0.61416
 O457 O 0.86100 0.35561 0.66109
 O458 O 0.89762 0.41075 0.60982
 C459 C 0.89271 0.32319 0.68921
 C460 C 0.82952 0.37657 0.70022
 C461 C 0.82855 0.31933 0.63831
 C462 C 0.86863 0.44401 0.58266
 C463 C 0.93202 0.44561 0.63044
 C464 C 0.92648 0.39166 0.56971
 H465 H 0.91462 0.41665 0.66731
 H466 H 0.90954 0.35348 0.59571
 H467 H 0.85267 0.34352 0.67246
 H468 H 0.83751 0.41505 0.61073
 H469 H 0.83476 0.44520 0.65504
 H470 H 0.80678 0.41653 0.64287
 H471 H 0.94948 0.35133 0.61003
 H472 H 0.92781 0.32074 0.63852
 H473 H 0.89355 0.45054 0.67779
 H474 H 0.87348 0.41993 0.70510
 H475 H 0.88236 0.34778 0.56374
 H476 H 0.86891 0.31783 0.59259
 H477 H 0.92956 0.37184 0.69579
 H478 H 0.95171 0.39526 0.66673
 H479 H 0.80959 0.36526 0.60280
 H480 H 0.82916 0.39804 0.57339
 O481 O 0.80252 0.86586 0.15197
 O482 O 0.79695 0.89555 0.12000
 O483 O 0.84490 0.80846 0.11342
 O484 O 0.88103 0.80511 0.09374
 O485 O 0.86740 0.83305 0.18751
 O486 O 0.88851 0.86854 0.20315
 O487 O 0.91380 0.88832 0.06889
 O488 O 0.88535 0.85825 0.05356
 O489 O 0.87005 0.94435 0.10221
 O490 O 0.83854 0.94585 0.13430
 O491 O 0.93319 0.91500 0.13872
 O492 O 0.94100 0.87826 0.16386
 O493 O 0.94012 0.88571 0.10227
 O494 O 0.94464 0.85284 0.13610
 O495 O 0.90079 0.94245 0.13840
 O496 O 0.86029 0.94185 0.16491
 O497 O 0.87726 0.91903 0.06870
 O498 O 0.85300 0.88339 0.05287
 O499 O 0.82791 0.86475 0.18622
 O500 O 0.85941 0.89446 0.20135
 O501 O 0.87408 0.80727 0.15420
 O502 O 0.90860 0.80935 0.12299
 O503 O 0.81140 0.83475 0.11388
 O504 O 0.80504 0.87272 0.08910
 Zr505 Zr 0.82736 0.87032 0.12174
 O506 O 0.84921 0.89895 0.10536
 Zr507 Zr 0.87554 0.83126 0.12303
 O508 O 0.89914 0.85760 0.10540
 Zr509 Zr 0.86470 0.86891 0.17152
 O510 O 0.88900 0.89656 0.15667
 Zr511 Zr 0.87786 0.88265 0.08389
 O512 O 0.85457 0.85385 0.09841
 Zr513 Zr 0.86839 0.91987 0.13287
 O514 O 0.84346 0.89359 0.14951
 Zr515 Zr 0.91600 0.88003 0.13312
 O516 O 0.89401 0.85211 0.15099
 O517 O 0.84710 0.84634 0.14501
 O518 O 0.89643 0.90477 0.11028
 C519 C 0.80613 0.86437 0.17566
 C520 C 0.82140 0.81300 0.11109
 C521 C 0.87133 0.81140 0.17773
 C522 C 0.93577 0.88852 0.07879
 C523 C 0.87375 0.94062 0.07876
 C524 C 0.92435 0.93729 0.13977
 H525 H 0.83817 0.90973 0.09521
 H526 H 0.89694 0.90613 0.17042
 H527 H 0.83617 0.83340 0.15270
 H528 H 0.91162 0.84873 0.09497
 H529 H 0.87422 0.84348 0.05568
 H530 H 0.89032 0.81386 0.08028
 H531 H 0.87475 0.94077 0.17648
 H532 H 0.84679 0.90672 0.19562
 H533 H 0.83896 0.89475 0.05690
 H534 H 0.81333 0.86232 0.07617
 H535 H 0.93372 0.88821 0.17769
 H536 H 0.90457 0.86116 0.19748
 H537 H 0.80027 0.90856 0.13283
 H538 H 0.82657 0.94128 0.12087
 H539 H 0.91724 0.81244 0.13913
 H540 H 0.94563 0.84382 0.11993
 O541 O 0.36404 0.33573 0.18285
 O542 O 0.38349 0.37212 0.19905
 O543 O 0.29906 0.36793 0.14550
 O544 O 0.29152 0.39325 0.11402
 O545 O 0.34449 0.31019 0.10922
 O546 O 0.38322 0.31086 0.08809
 O547 O 0.36644 0.44730 0.09746
 O548 O 0.33252 0.44669 0.12539
 O549 O 0.42828 0.41971 0.13660
 O550 O 0.43690 0.38337 0.16138
 O551 O 0.41225 0.39207 0.06575
 O552 O 0.38247 0.36225 0.04820
 O553 O 0.37507 0.42195 0.06432
 O554 O 0.35188 0.38407 0.04812
 O555 O 0.43758 0.39067 0.09994
 O556 O 0.44200 0.35795 0.13402
 O557 O 0.39516 0.44633 0.13496
 O558 O 0.35506 0.44509 0.15971
 O559 O 0.37291 0.31015 0.14989
 O560 O 0.40678 0.31183 0.11937
 O561 O 0.31030 0.33555 0.10816
 O562 O 0.30506 0.37399 0.08151
 O563 O 0.32360 0.36636 0.18032
 O564 O 0.35351 0.39677 0.19644
 Zr565 Zr 0.36062 0.37155 0.16672
 O566 O 0.38438 0.39991 0.15252
 Zr567 Zr 0.32474 0.37181 0.11587
 O568 O 0.34617 0.40121 0.10005
 Zr569 Zr 0.37412 0.33421 0.11876
 O570 O 0.39743 0.36124 0.10191
 Zr571 Zr 0.36388 0.42271 0.12803
 O572 O 0.33933 0.39567 0.14404
 Zr573 Zr 0.41266 0.38424 0.12999
 O574 O 0.39112 0.35565 0.14720
 Zr575 Zr 0.37596 0.38555 0.07964
 O576 O 0.35316 0.35605 0.09359
 O577 O 0.34449 0.34845 0.13978
 O578 O 0.39307 0.40833 0.10642
 C579 C 0.36921 0.31421 0.17331
 C580 C 0.30210 0.36607 0.16926
 C581 C 0.32099 0.31404 0.10610
 C582 C 0.37110 0.44358 0.07416
 C583 C 0.41871 0.44168 0.13751
 C584 C 0.43388 0.39309 0.07632
 H585 H 0.39163 0.40961 0.16656
 H586 H 0.41057 0.35261 0.09212
 H587 H 0.33376 0.33530 0.14738
 H588 H 0.33528 0.41179 0.08952
 H589 H 0.31829 0.43789 0.13356
 H590 H 0.29666 0.41062 0.11005
 H591 H 0.44379 0.34890 0.11794
 H592 H 0.41620 0.31649 0.13467
 H593 H 0.36831 0.44282 0.17245
 H594 H 0.34115 0.40900 0.19011
 H595 H 0.39559 0.35008 0.05287
 H596 H 0.37413 0.31761 0.07344
 H597 H 0.39976 0.36470 0.19407
 H598 H 0.42849 0.39230 0.17526
 H599 H 0.31283 0.36174 0.06995
 H600 H 0.33854 0.39667 0.05056
 O601 O 0.37016 0.68177 0.82196
 O602 O 0.39518 0.64846 0.80693
 O603 O 0.30630 0.63966 0.85208
 O604 O 0.29913 0.61281 0.88279
 O605 O 0.33993 0.70246 0.89300
 O606 O 0.37596 0.70591 0.91876
 O607 O 0.37806 0.56899 0.90516
 O608 O 0.34719 0.56587 0.87418
 O609 O 0.43935 0.60609 0.87115
 O610 O 0.44459 0.64525 0.84828
 O611 O 0.41406 0.62786 0.94160
 O612 O 0.37993 0.65403 0.95707
 O613 O 0.37955 0.59435 0.93941
 O614 O 0.35163 0.62905 0.95405
 O615 O 0.44152 0.63358 0.90943
 O616 O 0.44554 0.66825 0.87795
 O617 O 0.41002 0.57497 0.87015
 O618 O 0.37242 0.57123 0.84225
 O619 O 0.37278 0.70741 0.85599
 O620 O 0.40263 0.70953 0.88999
 O621 O 0.30939 0.67263 0.89007
 O622 O 0.30674 0.63357 0.91642
 O623 O 0.33363 0.64600 0.81988
 O624 O 0.36801 0.62051 0.80603
 Zr625 Zr 0.36939 0.64532 0.83691
 O626 O 0.39499 0.61991 0.85263
 Zr627 Zr 0.32923 0.63879 0.88409
 O628 O 0.35273 0.61216 0.90141
 Zr629 Zr 0.37334 0.68281 0.88667
 O630 O 0.39845 0.65864 0.90490
 Zr631 Zr 0.37543 0.59387 0.87484
 O632 O 0.34929 0.61788 0.85707
 Zr633 Zr 0.41879 0.63873 0.87780
 O634 O 0.39548 0.66475 0.85950
 Zr635 Zr 0.37842 0.63100 0.92478
 O636 O 0.35321 0.65748 0.90932
 O637 O 0.34803 0.66529 0.86256
 O638 O 0.40050 0.61147 0.89915
 C639 C 0.37202 0.70349 0.83227
 C640 C 0.31135 0.64280 0.82877
 C641 C 0.31686 0.69542 0.89320
 C642 C 0.37929 0.57265 0.92891
 C643 C 0.43285 0.58305 0.86911
 C644 C 0.43639 0.62936 0.93251
 H645 H 0.40460 0.61174 0.83908
 H646 H 0.40960 0.66849 0.91599
 H647 H 0.33662 0.67708 0.85400
 H648 H 0.34228 0.59998 0.91074
 H649 H 0.33277 0.57299 0.86496
 H650 H 0.30604 0.59629 0.88735
 H651 H 0.44441 0.67698 0.89427
 H652 H 0.41464 0.70606 0.87626
 H653 H 0.38609 0.57592 0.83059
 H654 H 0.35722 0.60625 0.81115
 H655 H 0.39175 0.66795 0.95359
 H656 H 0.36621 0.69743 0.93211
 H657 H 0.40964 0.65828 0.81334
 H658 H 0.43984 0.63421 0.83414
 H659 H 0.31165 0.64672 0.92860
 H660 H 0.33953 0.61555 0.94986
 O661 O 0.13256 0.66472 0.67345
 O662 O 0.11036 0.62819 0.68533
 O663 O 0.20369 0.63364 0.64962
 O664 O 0.21816 0.60874 0.62023
 O665 O 0.16580 0.69085 0.60545
 O666 O 0.13224 0.68992 0.57708
 O667 O 0.14788 0.55330 0.58911
 O668 O 0.17633 0.55438 0.62260
 O669 O 0.07990 0.58021 0.61557
 O670 O 0.06530 0.61585 0.63667
 O671 O 0.11026 0.60859 0.54830
 O672 O 0.14252 0.63813 0.53759
 O673 O 0.14556 0.57863 0.55503
 O674 O 0.17312 0.61676 0.54455
 O675 O 0.07842 0.60881 0.57673
 O676 O 0.06637 0.64197 0.60956
 O677 O 0.11301 0.55409 0.62100
 O678 O 0.14765 0.55579 0.65232
 O679 O 0.12976 0.69030 0.63954
 O680 O 0.10264 0.68802 0.60275
 O681 O 0.19982 0.66590 0.61121
 O682 O 0.21091 0.62747 0.58567
 O683 O 0.17274 0.63453 0.67906
 O684 O 0.14035 0.60365 0.68855
 Zr685 Zr 0.13931 0.62901 0.65821
 O686 O 0.11929 0.60053 0.63936
 Zr687 Zr 0.18473 0.62939 0.61551
 O688 O 0.16752 0.59967 0.59571
 Zr689 Zr 0.13523 0.66635 0.60868
 O690 O 0.11643 0.63908 0.58724
 Zr691 Zr 0.14473 0.57800 0.61956
 O692 O 0.16517 0.60527 0.64019
 Zr693 Zr 0.09604 0.61580 0.61152
 O694 O 0.11314 0.64453 0.63303
 Zr695 Zr 0.14243 0.61512 0.56979
 O696 O 0.16128 0.64497 0.58813
 O697 O 0.16019 0.65238 0.63508
 O698 O 0.12044 0.59206 0.59250
 C699 C 0.12904 0.68619 0.66322
 C700 C 0.19599 0.63529 0.67233
 C701 C 0.18948 0.68729 0.60726
 C702 C 0.14723 0.55699 0.56539
 C703 C 0.08936 0.55848 0.61912
 C704 C 0.08702 0.60687 0.55427
 H705 H 0.10941 0.59083 0.65168
 H706 H 0.10551 0.64757 0.57497
 H707 H 0.16899 0.66561 0.64475
 H708 H 0.18040 0.58916 0.58755
 H709 H 0.18860 0.56325 0.63341
 H710 H 0.21425 0.59122 0.61556
 H711 H 0.06725 0.65024 0.59301
 H712 H 0.09052 0.68342 0.61607
 H713 H 0.13249 0.55850 0.66267
 H714 H 0.15437 0.59202 0.68517
 H715 H 0.12928 0.65085 0.53991
 H716 H 0.14434 0.68352 0.56453
 H717 H 0.09552 0.63601 0.67745
 H718 H 0.07145 0.60938 0.65286
 H719 H 0.20583 0.64010 0.57313
 H720 H 0.18442 0.60260 0.54824
 O721 O 0.13378 0.15404 0.18262
 O722 O 0.11298 0.11740 0.19575
 O723 O 0.20145 0.12342 0.14928
 O724 O 0.21199 0.09924 0.11803
 O725 O 0.15929 0.18224 0.11200
 O726 O 0.12268 0.18276 0.08787
 O727 O 0.13739 0.04559 0.09288
 O728 O 0.16924 0.04468 0.12305
 O729 O 0.07312 0.07234 0.12782
 O730 O 0.06164 0.10693 0.15151
 O731 O 0.09693 0.10174 0.05889
 O732 O 0.12766 0.13255 0.04576
 O733 O 0.13280 0.07243 0.06025
 O734 O 0.15854 0.11068 0.04808
 O735 O 0.06801 0.10254 0.09027
 O736 O 0.06062 0.13478 0.12585
 O737 O 0.10624 0.04568 0.12881
 O738 O 0.14452 0.04590 0.15600
 O739 O 0.12749 0.18078 0.15013
 O740 O 0.09628 0.18024 0.11664
 O741 O 0.19343 0.15678 0.11201
 O742 O 0.20101 0.11856 0.08498
 O743 O 0.17418 0.12336 0.18215
 O744 O 0.14248 0.09214 0.19413
 Zr745 Zr 0.13831 0.11886 0.16528
 O746 O 0.11561 0.09138 0.14781
 Zr747 Zr 0.17849 0.12031 0.11766
 O748 O 0.15865 0.09142 0.09909
 Zr749 Zr 0.12900 0.15797 0.11798
 O750 O 0.10749 0.13173 0.09776
 Zr751 Zr 0.13818 0.06915 0.12449
 O752 O 0.16145 0.09545 0.14350
 Zr753 Zr 0.08953 0.10782 0.12328
 O754 O 0.10952 0.13546 0.14385
 Zr755 Zr 0.13113 0.10818 0.07676
 O756 O 0.15228 0.13716 0.09381
 O757 O 0.15673 0.14287 0.14075
 O758 O 0.11132 0.08453 0.10083
 C759 C 0.12938 0.17589 0.17359
 C760 C 0.19652 0.12425 0.17276
 C761 C 0.18293 0.17838 0.11007
 C762 C 0.13488 0.05034 0.06946
 C763 C 0.08255 0.05036 0.12963
 C764 C 0.07439 0.10051 0.06707
 H765 H 0.10700 0.08138 0.16082
 H766 H 0.09539 0.14074 0.08709
 H767 H 0.16680 0.15572 0.14967
 H768 H 0.17039 0.08105 0.08919
 H769 H 0.18303 0.05302 0.13236
 H770 H 0.20724 0.08178 0.11398
 H771 H 0.05937 0.14326 0.10944
 H772 H 0.08578 0.17543 0.13119
 H773 H 0.13058 0.04831 0.16800
 H774 H 0.15616 0.08080 0.18885
 H775 H 0.11407 0.14452 0.04961
 H776 H 0.13267 0.17637 0.07359
 H777 H 0.09726 0.12531 0.18992
 H778 H 0.06979 0.10087 0.16697
 H779 H 0.19489 0.13165 0.07343
 H780 H 0.17061 0.09685 0.05038
 O781 O 0.67569 0.36988 0.83455
 O782 O 0.68274 0.39926 0.86690
 O783 O 0.64198 0.30813 0.87561
 O784 O 0.60867 0.30110 0.89888
 O785 O 0.61088 0.33266 0.80539
 O786 O 0.58391 0.36646 0.79422
 O787 O 0.57319 0.38167 0.93066
 O788 O 0.60465 0.35237 0.94128
 O789 O 0.60869 0.44106 0.89553
 O790 O 0.63661 0.44614 0.86025
 O791 O 0.54447 0.40708 0.86250
 O792 O 0.53645 0.37001 0.83890
 O793 O 0.54385 0.37830 0.89989
 O794 O 0.53768 0.34448 0.86669
 O795 O 0.57446 0.43755 0.86167
 O796 O 0.61199 0.44167 0.83210
 O797 O 0.60797 0.41410 0.92839
 O798 O 0.63569 0.37980 0.93969
 O799 O 0.64629 0.36801 0.80368
 O800 O 0.61142 0.39461 0.79314
 O801 O 0.60899 0.30553 0.83815
 O802 O 0.57764 0.30404 0.87291
 O803 O 0.67336 0.33717 0.87301
 O804 O 0.68020 0.37514 0.89757
 Zr805 Zr 0.65428 0.37152 0.86779
 O806 O 0.63245 0.39765 0.88783
 Zr807 Zr 0.60902 0.32848 0.87031
 O808 O 0.58580 0.35226 0.89155
 Zr809 Zr 0.61156 0.36820 0.82258
 O810 O 0.58749 0.39338 0.84113
 Zr811 Zr 0.60755 0.37839 0.91160
 O812 O 0.63104 0.35217 0.89330
 Zr813 Zr 0.60887 0.41779 0.86359
 O814 O 0.63337 0.39409 0.84304
 Zr815 Zr 0.56457 0.37386 0.86664
 O816 O 0.58609 0.34831 0.84536
 O817 O 0.63370 0.34657 0.84603
 O818 O 0.58465 0.39964 0.88829
 C819 C 0.66914 0.36898 0.81139
 C820 C 0.66519 0.31459 0.87599
 C821 C 0.60973 0.31046 0.81463
 C822 C 0.55038 0.38127 0.92283
 C823 C 0.60849 0.43631 0.91912
 C824 C 0.55141 0.43003 0.86135
 H825 H 0.64379 0.40897 0.89720
 H826 H 0.57744 0.40251 0.82859
 H827 H 0.64473 0.33488 0.83678
 H828 H 0.57512 0.34226 0.90297
 H829 H 0.61652 0.33866 0.93745
 H830 H 0.60000 0.30849 0.91349
 H831 H 0.59713 0.43879 0.82134
 H832 H 0.62307 0.40823 0.79815
 H833 H 0.64849 0.39231 0.93466
 H834 H 0.67415 0.36400 0.91113
 H835 H 0.54220 0.37938 0.82398
 H836 H 0.57035 0.35541 0.80058
 H837 H 0.67696 0.41225 0.85506
 H838 H 0.65014 0.44224 0.87228
 H839 H 0.56721 0.30677 0.85783
 H840 H 0.53869 0.33580 0.88300
 O841 O 0.10650 0.82939 0.80363
 O842 O 0.07927 0.86314 0.79305
 O843 O 0.17183 0.86789 0.83121
 O844 O 0.18159 0.89389 0.86197
 O845 O 0.13966 0.80449 0.87172
 O846 O 0.10498 0.80004 0.89902
 O847 O 0.10623 0.93749 0.89399
 O848 O 0.13391 0.94202 0.86044
 O849 O 0.04106 0.90349 0.86242
 O850 O 0.03282 0.86634 0.83848
 O851 O 0.07146 0.87738 0.92952
 O852 O 0.10629 0.84929 0.94027
 O853 O 0.10648 0.91014 0.92656
 O854 O 0.13416 0.87451 0.93716
 O855 O 0.04138 0.87405 0.89948
 O856 O 0.03454 0.84078 0.86601
 O857 O 0.07086 0.93417 0.86212
 O858 O 0.10594 0.93863 0.83063
 O859 O 0.10519 0.80203 0.83625
 O860 O 0.07680 0.79855 0.87163
 O861 O 0.17065 0.83394 0.86947
 O862 O 0.17644 0.87238 0.89545
 O863 O 0.14176 0.86520 0.80104
 O864 O 0.10657 0.89139 0.79144
 Zr865 Zr 0.10751 0.86494 0.82082
 O866 O 0.08369 0.88991 0.83995
 Zr867 Zr 0.15130 0.86829 0.86498
 O868 O 0.12970 0.89425 0.88558
 Zr869 Zr 0.10640 0.82493 0.86832
 O870 O 0.08330 0.84844 0.88992
 Zr871 Zr 0.10535 0.91438 0.86208
 O872 O 0.12960 0.89095 0.84091
 Zr873 Zr 0.06140 0.87020 0.86577
 O874 O 0.08267 0.84479 0.84409
 Zr875 Zr 0.10549 0.87448 0.90971
 O876 O 0.12881 0.84856 0.89077
 O877 O 0.13041 0.84331 0.84357
 O878 O 0.08189 0.89583 0.88723
 C879 C 0.10543 0.80714 0.81276
 C880 C 0.16475 0.86681 0.80820
 C881 C 0.16282 0.81119 0.87207
 C882 C 0.10683 0.93239 0.91746
 C883 C 0.04783 0.92655 0.86198
 C884 C 0.04846 0.87685 0.92228
 H885 H 0.07324 0.89899 0.82773
 H886 H 0.07282 0.83815 0.90126
 H887 H 0.14125 0.83183 0.83386
 H888 H 0.14114 0.90567 0.89474
 H889 H 0.14732 0.93525 0.84952
 H890 H 0.17537 0.91030 0.86783
 H891 H 0.03622 0.83161 0.88199
 H892 H 0.06423 0.80287 0.85870
 H893 H 0.09063 0.93557 0.82058
 H894 H 0.11761 0.90545 0.79663
 H895 H 0.09287 0.83667 0.93768
 H896 H 0.11551 0.80762 0.91233
 H897 H 0.06580 0.85219 0.79976
 H898 H 0.03797 0.87625 0.82370
 H899 H 0.17185 0.85945 0.90793
 H900 H 0.14636 0.88784 0.93275
 O901 O 0.70600 0.13409 0.65068
 O902 O 0.71691 0.10437 0.62075
 O903 O 0.66938 0.19042 0.60541
 O904 O 0.63618 0.19400 0.58166
 O905 O 0.63634 0.16664 0.67609
 O906 O 0.61339 0.13125 0.68883
 O907 O 0.61039 0.10950 0.55146
 O908 O 0.64019 0.13890 0.54057
 O909 O 0.64659 0.05410 0.59254
 O910 O 0.67383 0.05343 0.62867
 O911 O 0.57942 0.08379 0.61934
 O912 O 0.56641 0.11972 0.64004
 O913 O 0.57881 0.11198 0.58008
 O914 O 0.56863 0.14619 0.61303
 O915 O 0.61163 0.05663 0.62496
 O916 O 0.64802 0.05778 0.65590
 O917 O 0.64462 0.07900 0.55813
 O918 O 0.67338 0.11530 0.54697
 O919 O 0.67582 0.13540 0.68089
 O920 O 0.64219 0.10527 0.69125
 O921 O 0.63439 0.19198 0.64198
 O922 O 0.60476 0.18861 0.60538
 O923 O 0.70256 0.16452 0.61191
 O924 O 0.71301 0.12607 0.58832
 Zr925 Zr 0.68609 0.12890 0.61735
 O926 O 0.66754 0.09969 0.59824
 Zr927 Zr 0.63790 0.16760 0.61105
 O928 O 0.61798 0.14082 0.58991
 Zr929 Zr 0.64159 0.13068 0.66093
 O930 O 0.62004 0.10284 0.64264
 Zr931 Zr 0.64276 0.11566 0.57248
 O932 O 0.66279 0.14504 0.59013
 Zr933 Zr 0.64435 0.07919 0.62279
 O934 O 0.66618 0.10590 0.64272
 Zr935 Zr 0.59702 0.11864 0.61478
 O936 O 0.61551 0.14683 0.63601
 O937 O 0.66280 0.15304 0.63713
 O938 O 0.62024 0.09373 0.59584
 C939 C 0.69892 0.13591 0.67354
 C940 C 0.69294 0.18608 0.60722
 C941 C 0.63369 0.18815 0.66571
 C942 C 0.58718 0.10901 0.55762
 C943 C 0.64589 0.05750 0.56879
 C944 C 0.58813 0.06178 0.62310
 H945 H 0.68005 0.08881 0.59002
 H946 H 0.60999 0.09359 0.65519
 H947 H 0.67229 0.16619 0.64625
 H948 H 0.60735 0.14943 0.57748
 H949 H 0.65001 0.15425 0.54434
 H950 H 0.63162 0.18461 0.56634
 H951 H 0.63263 0.06013 0.66602
 H952 H 0.65634 0.09371 0.68815
 H953 H 0.68430 0.10094 0.55097
 H954 H 0.70722 0.13700 0.57455
 H955 H 0.57280 0.11427 0.65652
 H956 H 0.59849 0.13909 0.68108
 H957 H 0.71142 0.09086 0.63221
 H958 H 0.68738 0.05748 0.61662
 H959 H 0.59424 0.18659 0.62056
 H960 H 0.56906 0.15363 0.59608
 C961 C 0.39098 0.80551 0.70161
 C962 C 0.38791 0.80795 0.72742
 C963 C 0.38601 0.78597 0.74384
 N964 N 0.38175 0.78906 0.76871
 N965 N 0.37890 0.76927 0.78361
 C966 C 0.38010 0.74566 0.77415
 N967 N 0.38442 0.74258 0.74930
 N968 N 0.38729 0.76237 0.73442
 C969 C 0.37686 0.72360 0.79023
 C970 C 0.37348 0.72562 0.81603
 H971 H 0.38520 0.82631 0.73563
 H972 H 0.37780 0.70527 0.78155
 H973 H 0.39353 0.78709 0.69348
 H974 H 0.37310 0.74394 0.82478
 C975 C 0.38346 0.21387 0.30616
 C976 C 0.38123 0.21121 0.28028
 C977 C 0.37871 0.23300 0.26363
 N978 N 0.37740 0.22964 0.23847
 N979 N 0.37474 0.24918 0.22323
 C980 C 0.37321 0.27280 0.23259
 N981 N 0.37446 0.27616 0.25775
 N982 N 0.37717 0.25663 0.27298
 C983 C 0.37033 0.29461 0.21603
 C984 C 0.37088 0.29241 0.19002
 H985 H 0.38080 0.19268 0.27198
 H986 H 0.36835 0.31291 0.22459
 H987 H 0.38409 0.23245 0.31433
 H988 H 0.37347 0.27416 0.18153
 C989 C 0.61583 0.77711 0.31242
 C990 C 0.61758 0.77946 0.28649
 C991 C 0.62005 0.75778 0.26972
 N992 N 0.62162 0.76149 0.24466
 N993 N 0.62440 0.74219 0.22911
 C994 C 0.62579 0.71845 0.23803
 N995 N 0.62424 0.71471 0.26312
 N996 N 0.62144 0.73404 0.27870
 C997 C 0.62870 0.69703 0.22092
 C998 C 0.62882 0.70025 0.19504
 H999 H 0.61789 0.79791 0.27808
 H1000 H 0.63011 0.67842 0.22881
 H1001 H 0.61533 0.75868 0.32086
 H1002 H 0.62687 0.71888 0.18730
 C1003 C 0.11476 0.27513 0.30820
 C1004 C 0.11554 0.27731 0.28217
 C1005 C 0.11782 0.25551 0.26542
 N1006 N 0.11854 0.25900 0.24028
 N1007 N 0.12120 0.23961 0.22479
 C1008 C 0.12330 0.21597 0.23386
 N1009 N 0.12256 0.21246 0.25902
 N1010 N 0.11988 0.23187 0.27453
 C1011 C 0.12645 0.19439 0.21691
 C1012 C 0.12658 0.19715 0.19094
 H1013 H 0.11517 0.29571 0.27367
 H1014 H 0.12854 0.17597 0.22508
 H1015 H 0.11498 0.25674 0.31672
 H1016 H 0.12412 0.21557 0.18288
 C1017 C 0.12430 0.70786 0.67954
 C1018 C 0.12172 0.70547 0.70539
 C1019 C 0.11748 0.72715 0.72183
 N1020 N 0.11471 0.72365 0.74683
 N1021 N 0.11131 0.74311 0.76208
 C1022 C 0.11054 0.76679 0.75289
 N1023 N 0.11325 0.77029 0.72787
 N1024 N 0.11663 0.75082 0.71261
 C1025 C 0.10769 0.78849 0.76963
 C1026 C 0.10539 0.78570 0.79547
 H1027 H 0.12293 0.68715 0.71397
 H1028 H 0.10833 0.80705 0.76149
 H1029 H 0.12271 0.72614 0.67092
 H1030 H 0.10469 0.76710 0.80350
 C1031 C 0.88090 0.22338 0.82250
 C1032 C 0.88493 0.22134 0.79677
 C1033 C 0.88794 0.24332 0.78045
 N1034 N 0.89206 0.24001 0.75560
 N1035 N 0.89429 0.25963 0.74039
 C1036 C 0.89252 0.28334 0.74947
 N1037 N 0.88851 0.28667 0.77436
 N1038 N 0.88630 0.26703 0.78959
 C1039 C 0.89365 0.30513 0.73263
 C1040 C 0.89618 0.30233 0.70678
 H1041 H 0.88587 0.20298 0.78815
 H1042 H 0.89087 0.32358 0.74060
 H1043 H 0.88039 0.24171 0.83122
 H1044 H 0.89872 0.28379 0.69891
 C1045 C 0.81238 0.37535 0.72199
 C1046 C 0.78640 0.37319 0.71878
 C1047 C 0.76817 0.37225 0.73953
 N1048 N 0.74334 0.37016 0.73418
 N1049 N 0.72629 0.36948 0.75243
 C1050 C 0.73337 0.37085 0.77681
 N1051 N 0.75825 0.37290 0.78222
 N1052 N 0.77536 0.37358 0.76392
 C1053 C 0.71446 0.37039 0.79708
 C1054 C 0.68878 0.36876 0.79191
 H1055 H 0.77878 0.37222 0.69999
 H1056 H 0.72084 0.37163 0.81630
 H1057 H 0.82025 0.37617 0.74068
 H1058 H 0.68261 0.36759 0.77261
 C1059 C 0.28982 0.64277 0.81139
 C1060 C 0.29269 0.64519 0.78554
 C1061 C 0.27127 0.64399 0.76806
 N1062 N 0.27552 0.64545 0.74306
 N1063 N 0.25653 0.64396 0.72689
 C1064 C 0.23251 0.64097 0.73505
 N1065 N 0.22822 0.63963 0.76008
 N1066 N 0.24724 0.64110 0.77629
 C1067 C 0.21147 0.63880 0.71712
 C1068 C 0.21578 0.63852 0.69135
 H1069 H 0.31133 0.64756 0.77770
 H1070 H 0.19251 0.63683 0.72427
 H1071 H 0.27118 0.64029 0.81921
 H1072 H 0.23490 0.64016 0.68454
 C1073 C 0.30293 0.13231 0.30195
 C1074 C 0.30492 0.13262 0.27593
 C1075 C 0.28211 0.13155 0.26007
 N1076 N 0.28407 0.13132 0.23473
 N1077 N 0.26354 0.13008 0.22045
 C1078 C 0.24024 0.12903 0.23093
 N1079 N 0.23829 0.12931 0.25625
 N1080 N 0.25880 0.13055 0.27051
 C1081 C 0.21731 0.12734 0.21538
 C1082 C 0.21857 0.12664 0.18933
 H1083 H 0.32325 0.13337 0.26713
 H1084 H 0.19920 0.12637 0.22462
 H1085 H 0.28434 0.13147 0.31023
 H1086 H 0.23683 0.12760 0.18038
 C1087 C 0.79562 0.14404 0.80969
 C1088 C 0.79924 0.14502 0.78389
 C1089 C 0.77754 0.14444 0.76662
 N1090 N 0.78122 0.14423 0.74149
 N1091 N 0.76171 0.14311 0.72587
 C1092 C 0.73775 0.14216 0.73476
 N1093 N 0.73407 0.14248 0.75989
 N1094 N 0.75357 0.14360 0.77549
 C1095 C 0.71602 0.14031 0.71764
 C1096 C 0.71940 0.13905 0.69181
 H1097 H 0.81810 0.14557 0.77626
 H1098 H 0.69726 0.13939 0.72547
 H1099 H 0.77657 0.14327 0.81686
 H1100 H 0.73832 0.13989 0.68434
 C1101 C 0.69800 0.85568 0.30334
 C1102 C 0.69582 0.85616 0.27734
 C1103 C 0.71865 0.85657 0.26142
 N1104 N 0.71684 0.85815 0.23611
 N1105 N 0.73749 0.85908 0.22191
 C1106 C 0.76074 0.85846 0.23248
 N1107 N 0.76252 0.85679 0.25773
 N1108 N 0.74192 0.85586 0.27189
 C1109 C 0.78388 0.85997 0.21724
 C1110 C 0.78333 0.86186 0.19123
 H1111 H 0.67745 0.85693 0.26868
 H1112 H 0.80180 0.85989 0.22684
 H1113 H 0.71666 0.85520 0.31143
 H1114 H 0.76535 0.86181 0.18174
 C1115 C 0.80542 0.70390 0.38778
 C1116 C 0.77952 0.70106 0.38686
 C1117 C 0.76327 0.72317 0.38767
 N1118 N 0.73798 0.72042 0.38841
 N1119 N 0.72323 0.74047 0.38870
 C1120 C 0.73322 0.76396 0.38820
 N1121 N 0.75850 0.76671 0.38741
 N1122 N 0.77324 0.74667 0.38719
 C1123 C 0.71704 0.78611 0.38780
 C1124 C 0.69118 0.78355 0.38997
 H1125 H 0.77112 0.68262 0.38509
 H1126 H 0.72547 0.80443 0.38515
 H1127 H 0.81343 0.72248 0.39002
 H1128 H 0.68309 0.76513 0.39300
 C1129 C 0.81227 0.29724 0.63808
 C1130 C 0.78708 0.29798 0.63142
 C1131 C 0.77304 0.27461 0.62723
 N1132 N 0.74967 0.27517 0.61722
 N1133 N 0.73724 0.25393 0.61268
 C1134 C 0.74778 0.23140 0.61788
 N1135 N 0.77110 0.23086 0.62795
 N1136 N 0.78353 0.25207 0.63246
 C1137 C 0.73388 0.20792 0.61407
 C1138 C 0.70947 0.20791 0.60495
 H1139 H 0.77814 0.31572 0.62750
 H1140 H 0.74225 0.19064 0.62049
 H1141 H 0.82126 0.27929 0.64081
 H1142 H 0.70112 0.22533 0.59886
 C1143 C 0.69468 0.70355 0.10573
 C1144 C 0.72079 0.70284 0.10433
 C1145 C 0.73589 0.72607 0.10343
 N1146 N 0.76132 0.72490 0.10257
 N1147 N 0.77514 0.74578 0.10288
 C1148 C 0.76408 0.76865 0.10409
 N1149 N 0.73865 0.76983 0.10480
 N1150 N 0.72482 0.74895 0.10445
 C1151 C 0.77922 0.79182 0.10580
 C1152 C 0.80536 0.79112 0.10571
 H1153 H 0.73041 0.68502 0.10501
 H1154 H 0.76965 0.80949 0.10837
 H1155 H 0.68533 0.72151 0.10496
 H1156 H 0.81469 0.77332 0.10309
 C1157 C 0.30573 0.29166 0.10085
 C1158 C 0.27961 0.29152 0.10131
 C1159 C 0.26532 0.26785 0.10066
 N1160 N 0.23991 0.26818 0.10208
 N1161 N 0.22686 0.24684 0.10285
 C1162 C 0.23872 0.22435 0.10231
 N1163 N 0.26414 0.22401 0.10074
 N1164 N 0.27719 0.24536 0.09994
 C1165 C 0.22444 0.20073 0.10424
 C1166 C 0.19837 0.20086 0.10604
 H1167 H 0.26948 0.30890 0.10372
 H1168 H 0.23455 0.18319 0.10496
 H1169 H 0.31563 0.27414 0.09848
 H1170 H 0.18856 0.21856 0.10507
 C1171 C 0.29820 0.71553 0.89592
 C1172 C 0.27276 0.71226 0.89063
 C1173 C 0.25552 0.73373 0.88855
 N1174 N 0.23091 0.72976 0.88321
 N1175 N 0.21534 0.74899 0.88031
 C1176 C 0.22377 0.77298 0.88251
 N1177 N 0.24839 0.77697 0.88787
 N1178 N 0.26396 0.75772 0.89083
 C1179 C 0.20668 0.79441 0.87903
 C1180 C 0.18102 0.79077 0.87520
 H1181 H 0.26554 0.69370 0.88650
 H1182 H 0.21433 0.81323 0.87985
 H1183 H 0.30524 0.73419 0.89990
 H1184 H 0.17357 0.77184 0.87509
 C1185 C 0.30934 0.20875 0.38540
 C1186 C 0.28354 0.20513 0.38452
 C1187 C 0.26659 0.22664 0.38472
 N1188 N 0.24142 0.22296 0.38482
 N1189 N 0.22595 0.24243 0.38442
 C1190 C 0.23508 0.26626 0.38384
 N1191 N 0.26026 0.26994 0.38372
 N1192 N 0.27573 0.25047 0.38418
 C1193 C 0.21808 0.28771 0.38280
 C1194 C 0.19231 0.28405 0.38419
 H1195 H 0.27570 0.18642 0.38305
 H1196 H 0.22585 0.30637 0.38054
 H1197 H 0.31689 0.22756 0.38724
 H1198 H 0.18488 0.26530 0.38689
 C1199 C 0.54027 0.60575 0.06128
 C1200 C 0.54148 0.60747 0.03528
 C1201 C 0.51893 0.60964 0.01961
 N1202 N 0.52150 0.61362 -0.00532
 N1203 N 0.50138 0.61673 -0.01973
 C1204 C 0.47790 0.61599 -0.00975
 N1205 N 0.47529 0.61180 0.01518
 N1206 N 0.49545 0.60874 0.02962
 C1207 C 0.45562 0.61987 -0.02554
 C1208 C 0.45798 0.62585 -0.05082
 H1209 H 0.55960 0.60873 0.02608
 H1210 H 0.43717 0.61812 -0.01712
 H1211 H 0.52215 0.60467 0.07051
 H1212 H 0.47654 0.62767 -0.05901
 C1213 C 0.45725 0.12192 0.45525
 C1214 C 0.48289 0.11800 0.45263
 C1215 C 0.49881 0.11550 0.47502
 N1216 N 0.52354 0.11008 0.47271
 N1217 N 0.53792 0.10794 0.49300
 C1218 C 0.52809 0.11110 0.51632
 N1219 N 0.50337 0.11648 0.51861
 N1220 N 0.48901 0.11858 0.49835
 C1221 C 0.54400 0.11000 0.53878
 C1222 C 0.56958 0.10539 0.53684
 H1223 H 0.49121 0.11629 0.43418
 H1224 H 0.53580 0.11446 0.55681
 H1225 H 0.44926 0.12288 0.47391
 H1226 H 0.57756 0.10112 0.51865
 C1227 C 0.54723 0.87869 0.45902
 C1228 C 0.52154 0.88276 0.45707
 C1229 C 0.50660 0.88727 0.47988
 N1230 N 0.48150 0.89128 0.47846
 N1231 N 0.46808 0.89500 0.49922
 C1232 C 0.47926 0.89493 0.52212
 N1233 N 0.50433 0.89106 0.52350
 N1234 N 0.51771 0.88735 0.50279
 C1235 C 0.46462 0.89767 0.54531
 C1236 C 0.43867 0.90019 0.54483
 H1237 H 0.51249 0.88287 0.43891
 H1238 H 0.47430 0.89608 0.56307
 H1239 H 0.55584 0.87902 0.47740
 H1240 H 0.42913 0.90164 0.52698
 C1241 C 0.04784 0.37411 0.45740
 C1242 C 0.02196 0.37723 0.45639
 C1243 C 0.00765 0.38104 0.47976
 N1244 N -0.01751 0.38483 0.47915
 N1245 N -0.03033 0.38813 0.50037
 C1246 C -0.01847 0.38781 0.52293
 N1247 N 0.00666 0.38409 0.52350
 N1248 N 0.01945 0.38081 0.50233
 C1249 C -0.03244 0.39036 0.54657
 C1250 C -0.05837 0.39316 0.54679
 H1251 H 0.01229 0.37724 0.43856
 H1252 H -0.02230 0.38867 0.56405
 H1253 H 0.05706 0.37464 0.47549
 H1254 H -0.06834 0.39467 0.52918
 C1255 C -0.04247 0.89139 0.06202
 C1256 C -0.04562 0.89333 0.03619
 C1257 C -0.02468 0.89191 0.01838
 N1258 N -0.02965 0.89122 -0.00649
 N1259 N -0.01115 0.88870 -0.02305
 C1260 C 0.01306 0.88677 -0.01536
 N1261 N 0.01811 0.88769 0.00954
 N1262 N -0.00045 0.89015 0.02615
 C1263 C 0.03350 0.88342 -0.03357
 C1264 C 0.02854 0.87989 -0.05896
 H1265 H -0.06439 0.89439 0.02843
 H1266 H 0.05269 0.88342 -0.02683
 H1267 H -0.02377 0.89041 0.06992
 H1268 H 0.00928 0.87955 -0.06550
 C1269 C -0.05730 0.12222 -0.03135
 C1270 C -0.03192 0.11691 -0.03394
 C1271 C -0.01604 0.11291 -0.01180
 N1272 N 0.00806 0.10543 -0.01466
 N1273 N 0.02263 0.10200 0.00527
 C1274 C 0.01367 0.10590 0.02882
 N1275 N -0.01046 0.11334 0.03169
 N1276 N -0.02506 0.11671 0.01174
 C1277 C 0.03021 0.10365 0.05077
 C1278 C 0.05521 0.09697 0.04774
 H1279 H -0.02370 0.11509 -0.05242
 H1280 H 0.02327 0.10926 0.06901
 H1281 H -0.06546 0.12304 -0.01275
 H1282 H 0.06187 0.09172 0.02928
 C1283 C 0.13368 0.02884 0.05217
 C1284 C 0.12854 0.03184 0.02673
 C1285 C 0.12469 0.01051 0.00965
 N1286 N 0.11956 0.01476 -0.01486
 N1287 N 0.11563 -0.00428 -0.03057
 C1288 C 0.11660 -0.02829 -0.02232
 N1289 N 0.12171 -0.03255 0.00220
 N1290 N 0.12566 -0.01350 0.01791
 C1291 C 0.11263 -0.04956 -0.03947
 C1292 C 0.10857 -0.04630 -0.06508
 H1293 H 0.12653 0.05050 0.01909
 H1294 H 0.11371 -0.06829 -0.03181
 H1295 H 0.13565 0.01020 0.05987
 H1296 H 0.10783 -0.02757 -0.07278
 C1297 C 0.12202 0.45015 0.43895
 C1298 C 0.12773 0.44891 0.46439
 C1299 C 0.13165 0.47157 0.47970
 N1300 N 0.13776 0.46943 0.50426
 N1301 N 0.14148 0.48977 0.51831
 C1302 C 0.13930 0.51302 0.50829
 N1303 N 0.13322 0.51516 0.48372
 N1304 N 0.12950 0.49482 0.46968
 C1305 C 0.14259 0.53571 0.52368
 C1306 C 0.14766 0.53460 0.54927
 H1307 H 0.13001 0.43085 0.47328
 H1308 H 0.13975 0.55370 0.51482
 H1309 H 0.12005 0.46826 0.43007
 H1310 H 0.15018 0.51657 0.55815
 C1311 C 0.37194 0.46593 0.05799
 C1312 C 0.37639 0.46473 0.03224
 C1313 C 0.37728 0.48736 0.01641
 N1314 N 0.38023 0.48514 -0.00875
 N1315 N 0.38093 0.50540 -0.02330
 C1316 C 0.37876 0.52869 -0.01322
 N1317 N 0.37591 0.53090 0.01195
 N1318 N 0.37517 0.51065 0.02649
 C1319 C 0.37917 0.55133 -0.02902
 C1320 C 0.38021 0.55016 -0.05513
 H1321 H 0.37911 0.44671 0.02333
 H1322 H 0.37797 0.56938 -0.01982
 H1323 H 0.36896 0.48399 0.06676
 H1324 H 0.38098 0.53206 -0.06430
 C1325 C 0.87636 0.53943 0.44536
 C1326 C 0.87383 0.54245 0.47121
 C1327 C 0.87197 0.52116 0.48857
 N1328 N 0.86949 0.52550 0.51350
 N1329 N 0.86792 0.50652 0.52958
 C1330 C 0.86874 0.48246 0.52133
 N1331 N 0.87116 0.47811 0.49639
 N1332 N 0.87273 0.49710 0.48029
 C1333 C 0.86776 0.46130 0.53895
 C1334 C 0.86652 0.46486 0.56482
 H1335 H 0.87302 0.56112 0.47913
 H1336 H 0.86910 0.44252 0.53138
 H1337 H 0.87703 0.52078 0.43737
 H1338 H 0.86547 0.48369 0.57235
 C1339 C 0.87105 0.04713 -0.04994
 C1340 C 0.87106 0.04827 -0.02387
 C1341 C 0.87226 0.02563 -0.00829
 N1342 N 0.87165 0.02772 0.01702
 N1343 N 0.87279 0.00741 0.03140
 C1344 C 0.87464 -0.01576 0.02101
 N1345 N 0.87532 -0.01785 -0.00430
 N1346 N 0.87415 0.00247 -0.01869
 C1347 C 0.87570 -0.03836 0.03670
 C1348 C 0.87376 -0.03707 0.06270
 H1349 H 0.87034 0.06628 -0.01452
 H1350 H 0.87756 -0.05638 0.02754
 H1351 H 0.87170 0.02908 -0.05923
 H1352 H 0.87159 -0.01901 0.07171
 C1353 C 0.62389 -0.04918 0.44203
 C1354 C 0.62697 -0.05046 0.46795
 C1355 C 0.63086 -0.02787 0.48326
 N1356 N 0.63502 -0.03002 0.50822
 N1357 N 0.63878 -0.00971 0.52228
 C1358 C 0.63857 0.01348 0.51187
 N1359 N 0.63442 0.01562 0.48692
 N1360 N 0.63068 -0.00468 0.47286
 C1361 C 0.64200 0.03611 0.52720
 C1362 C 0.64583 0.03497 0.55298
 H1363 H 0.62726 -0.06845 0.47729
 H1364 H 0.64046 0.05413 0.51805
 H1365 H 0.62382 -0.03101 0.43302
 H1366 H 0.64730 0.01693 0.56210
 C1367 C 0.46295 0.05579 0.37034
 C1368 C 0.45998 0.02990 0.36965
 C1369 C 0.48200 0.01319 0.36924
 N1370 N 0.47872 -0.01200 0.36929
 N1371 N 0.49848 -0.02720 0.36933
 C1372 C 0.52231 -0.01785 0.36929
 N1373 N 0.52560 0.00735 0.36915
 N1374 N 0.50582 0.02256 0.36913
 C1375 C 0.54428 -0.03464 0.36983
 C1376 C 0.54106 -0.06049 0.37098
 H1377 H 0.44131 0.02172 0.36984
 H1378 H 0.56301 -0.02660 0.36989
 H1379 H 0.48178 0.06362 0.37027
 H1380 H 0.52214 -0.06809 0.37115
 C1381 C -0.05860 -0.04269 0.14181
 C1382 C -0.03249 -0.04628 0.14198
 C1383 C -0.01405 -0.02554 0.14081
 N1384 N 0.01091 -0.03072 0.13992
 N1385 N 0.02791 -0.01236 0.13803
 C1386 C 0.02056 0.01192 0.13693
 N1387 N -0.00439 0.01710 0.13790
 N1388 N -0.02138 -0.00125 0.13978
 C1389 C 0.03893 0.03259 0.13437
 C1390 C 0.06494 0.02904 0.13280
 H1391 H -0.02504 -0.06512 0.14187
 H1392 H 0.03149 0.05141 0.13346
 H1393 H -0.06590 -0.02379 0.14213
 H1394 H 0.07254 0.01030 0.13380
 C1395 C 0.55953 0.53417 0.13873
 C1396 C 0.53365 0.53809 0.14091
 C1397 C 0.51518 0.51751 0.14215
 N1398 N 0.49025 0.52276 0.14262
 N1399 N 0.47318 0.50440 0.14302
 C1400 C 0.48046 0.48007 0.14301
 N1401 N 0.50539 0.47483 0.14269
 N1402 N 0.52245 0.49319 0.14225
 C1403 C 0.46206 0.45941 0.14252
 C1404 C 0.43609 0.46301 0.14109
 H1405 H 0.52644 0.55702 0.14092
 H1406 H 0.46947 0.44056 0.14220
 H1407 H 0.56684 0.51528 0.13857
 H1408 H 0.42851 0.48180 0.14136
 C1409 C -0.05095 0.46556 0.62924
 C1410 C -0.02513 0.46178 0.62608
 C1411 C -0.00682 0.48245 0.62498
 N1412 N 0.01810 0.47731 0.62351
 N1413 N 0.03502 0.49577 0.62241
 C1414 C 0.02760 0.52004 0.62270
 N1415 N 0.00268 0.52517 0.62413
 N1416 N -0.01423 0.50673 0.62529
 C1417 C 0.04584 0.54073 0.62121
 C1418 C 0.07182 0.53713 0.62111
 H1419 H -0.01781 0.44293 0.62461
 H1420 H 0.03840 0.55955 0.62024
 H1421 H -0.05802 0.48446 0.63112
 H1422 H 0.07942 0.51842 0.62265
 C1423 C 0.45363 0.56530 0.86566
 C1424 C 0.45056 0.53941 0.86463
 C1425 C 0.47240 0.52256 0.86295
 N1426 N 0.46887 0.49741 0.86196
 N1427 N 0.48847 0.48202 0.86099
 C1428 C 0.51238 0.49114 0.86100
 N1429 N 0.51592 0.51630 0.86194
 N1430 N 0.49631 0.53170 0.86288
 C1431 C 0.53418 0.47416 0.86058
 C1432 C 0.53087 0.44828 0.85979
 H1433 H 0.43189 0.53129 0.86559
 H1434 H 0.55294 0.48206 0.86155
 H1435 H 0.47243 0.57314 0.86463
 H1436 H 0.51195 0.44073 0.85886
 C1437 C 0.62226 0.53411 0.05357
 C1438 C 0.61780 0.53698 0.02796
 C1439 C 0.61568 0.51538 0.01076
 N1440 N 0.61287 0.51920 -0.01421
 N1441 N 0.61099 0.49987 -0.02998
 C1442 C 0.61177 0.47596 -0.02136
 N1443 N 0.61448 0.47216 0.00362
 N1444 N 0.61642 0.49147 0.01937
 C1445 C 0.60997 0.45428 -0.03847
 C1446 C 0.60908 0.45682 -0.06454
 H1447 H 0.61593 0.55560 0.02019
 H1448 H 0.60996 0.43578 -0.03017
 H1449 H 0.62446 0.51547 0.06120
 H1450 H 0.60940 0.47545 -0.07256
 C1451 C 0.38168 0.04567 0.44482
 C1452 C 0.37802 0.04892 0.47049
 C1453 C 0.37479 0.02769 0.48769
 N1454 N 0.37097 0.03200 0.51245
 N1455 N 0.36793 0.01299 0.52830
 C1456 C 0.36851 -0.01105 0.51994
 N1457 N 0.37227 -0.01535 0.49517
 N1458 N 0.37532 0.00366 0.47932
 C1459 C 0.36601 -0.03228 0.53726
 C1460 C 0.36356 -0.02899 0.56307
 H1461 H 0.37697 0.06765 0.47825
 H1462 H 0.36741 -0.05100 0.52955
 H1463 H 0.38255 0.02695 0.43702
 H1464 H 0.36246 -0.01025 0.57081
 C1465 C -0.04724 0.61346 0.45655
 C1466 C -0.02146 0.61120 0.45310
 C1467 C -0.00459 0.60858 0.47472
 N1468 N 0.02052 0.60623 0.47122
 N1469 N 0.03589 0.60442 0.49080
 C1470 C 0.02672 0.60487 0.51457
 N1471 N 0.00162 0.60708 0.51806
 N1472 N -0.01374 0.60886 0.49850
 C1473 C 0.04355 0.60426 0.53635
 C1474 C 0.06947 0.60312 0.53344
 H1475 H -0.01355 0.61147 0.43440
 H1476 H 0.03546 0.60622 0.55487
 H1477 H -0.05489 0.61277 0.47536
 H1478 H 0.07739 0.60115 0.51484
 C1479 C 0.45603 0.39647 0.06017
 C1480 C 0.45354 0.39841 0.03426
 C1481 C 0.47494 0.39713 0.01699
 N1482 N 0.47058 0.39636 -0.00800
 N1483 N 0.48950 0.39382 -0.02409
 C1484 C 0.51351 0.39195 -0.01579
 N1485 N 0.51793 0.39298 0.00922
 N1486 N 0.49897 0.39546 0.02536
 C1487 C 0.53438 0.38845 -0.03347
 C1488 C 0.53003 0.38465 -0.05894
 H1489 H 0.43497 0.39924 0.02602
 H1490 H 0.55340 0.38849 -0.02627
 H1491 H 0.47453 0.39582 0.06857
 H1492 H 0.51093 0.38431 -0.06594
 C1493 C 0.44528 -0.02820 0.62928
 C1494 C 0.47117 -0.03230 0.62776
 C1495 C 0.48992 -0.01196 0.62730
 N1496 N 0.51476 -0.01760 0.62696
 N1497 N 0.53210 0.00048 0.62631
 C1498 C 0.52522 0.02491 0.62594
 N1499 N 0.50037 0.03056 0.62627
 N1500 N 0.48302 0.01248 0.62697
 C1501 C 0.54401 0.04520 0.62477
 C1502 C 0.56991 0.04098 0.62528
 H1503 H 0.47817 -0.05130 0.62701
 H1504 H 0.53707 0.06418 0.62334
 H1505 H 0.43815 -0.00928 0.63055
 H1506 H 0.57696 0.02209 0.62718
 C1507 C -0.04226 0.55008 0.37053
 C1508 C -0.04523 0.52423 0.36920
 C1509 C -0.02307 0.50778 0.36821
 N1510 N -0.02599 0.48255 0.36838
 N1511 N -0.00599 0.46765 0.36800
 C1512 C 0.01768 0.47738 0.36741
 N1513 N 0.02059 0.50260 0.36709
 N1514 N 0.00060 0.51750 0.36749
 C1515 C 0.03991 0.46102 0.36756
 C1516 C 0.03722 0.43518 0.36933
 H1517 H -0.06386 0.51597 0.36942
 H1518 H 0.05847 0.46940 0.36685
 H1519 H -0.02343 0.55791 0.37058
 H1520 H 0.01848 0.42718 0.37030
 C1521 C -0.05012 0.06149 0.87890
 C1522 C -0.05330 0.03598 0.87389
 C1523 C -0.03148 0.01903 0.87143
 N1524 N -0.03509 -0.00572 0.86671
 N1525 N -0.01556 -0.02114 0.86458
 C1526 C 0.00839 -0.01244 0.86703
 N1527 N 0.01200 0.01231 0.87169
 N1528 N -0.00752 0.02773 0.87384
 C1529 C 0.03022 -0.02945 0.86522
 C1530 C 0.02713 -0.05516 0.86157
 H1531 H -0.07202 0.02822 0.87164
 H1532 H 0.04892 -0.02172 0.86765
 H1533 H -0.03113 0.06865 0.88104
 H1534 H 0.00826 -0.06264 0.85959
 C1535 C 0.80018 0.63055 0.30169
 C1536 C 0.80316 0.63060 0.27571
 C1537 C 0.78098 0.63041 0.25895
 N1538 N 0.78383 0.62970 0.23366
 N1539 N 0.76378 0.62921 0.21863
 C1540 C 0.74014 0.62941 0.22834
 N1541 N 0.73735 0.63019 0.25357
 N1542 N 0.75733 0.63067 0.26855
 C1543 C 0.71755 0.62857 0.21231
 C1544 C 0.71854 0.62752 0.18620
 H1545 H 0.82182 0.63041 0.26761
 H1546 H 0.69942 0.62854 0.22156
 H1547 H 0.78132 0.63057 0.30935
 H1548 H 0.73663 0.62760 0.17687
 C1549 C 0.30681 0.87737 0.71746
 C1550 C 0.28086 0.87501 0.71415
 C1551 C 0.26275 0.87333 0.73499
 N1552 N 0.23790 0.87096 0.72982
 N1553 N 0.22103 0.86960 0.74822
 C1554 C 0.22834 0.87058 0.77256
 N1555 N 0.25323 0.87293 0.77777
 N1556 N 0.27014 0.87428 0.75933
 C1557 C 0.20971 0.86939 0.79304
 C1558 C 0.18397 0.86721 0.78830
 H1559 H 0.27326 0.87441 0.69535
 H1560 H 0.21637 0.87052 0.81218
 H1561 H 0.31460 0.87781 0.73619
 H1562 H 0.17748 0.86609 0.76911
 C1563 C 0.19448 0.35565 0.29712
 C1564 C 0.19185 0.35616 0.27115
 C1565 C 0.21449 0.35676 0.25494
 N1566 N 0.21246 0.35882 0.22967
 N1567 N 0.23299 0.35997 0.21530
 C1568 C 0.25633 0.35909 0.22567
 N1569 N 0.25831 0.35692 0.25086
 N1570 N 0.23784 0.35578 0.26517
 C1571 C 0.27941 0.36085 0.21039
 C1572 C 0.27902 0.36332 0.18442
 H1573 H 0.17334 0.35683 0.26278
 H1574 H 0.29730 0.36050 0.22005
 H1575 H 0.21330 0.35539 0.30486
 H1576 H 0.26113 0.36354 0.17477
 C1577 C 0.88153 0.70982 0.30960
 C1578 C 0.88002 0.70748 0.28366
 C1579 C 0.87835 0.72947 0.26727
 N1580 N 0.87729 0.72638 0.24207
 N1581 N 0.87536 0.74613 0.22702
 C1582 C 0.87434 0.76969 0.23662
 N1583 N 0.87536 0.77277 0.26181
 N1584 N 0.87733 0.75303 0.27687
 C1585 C 0.87222 0.79166 0.22027
 C1586 C 0.87255 0.78952 0.19427
 H1587 H 0.87949 0.68907 0.27511
 H1588 H 0.87082 0.80997 0.22894
 H1589 H 0.88222 0.72828 0.31805
 H1590 H 0.87443 0.77123 0.18567
 C1591 C 0.61023 0.28890 0.79745
 C1592 C 0.61324 0.29151 0.77163
 C1593 C 0.61629 0.26971 0.75501
 N1594 N 0.61945 0.27309 0.73001
 N1595 N 0.62283 0.25353 0.71485
 C1596 C 0.62322 0.22987 0.72414
 N1597 N 0.62002 0.22650 0.74912
 N1598 N 0.61663 0.24604 0.76427
 C1599 C 0.62719 0.20803 0.70780
 C1600 C 0.62993 0.21015 0.68191
 H1601 H 0.61416 0.31003 0.76342
 H1602 H 0.62782 0.18973 0.71648
 H1603 H 0.60929 0.27034 0.80556
 H1604 H 0.62893 0.22841 0.67318
 C1605 C 0.79829 0.21571 0.89526
 C1606 C 0.77276 0.21302 0.89031
 C1607 C 0.75616 0.23496 0.88870
 N1608 N 0.73121 0.23172 0.88477
 N1609 N 0.71614 0.25143 0.88261
 C1610 C 0.72544 0.27515 0.88420
 N1611 N 0.75042 0.27840 0.88809
 N1612 N 0.76549 0.25868 0.89032
 C1613 C 0.70888 0.29703 0.88147
 C1614 C 0.68298 0.29396 0.87952
 H1615 H 0.76491 0.19460 0.88666
 H1616 H 0.71711 0.31562 0.88106
 H1617 H 0.80584 0.23422 0.89907
 H1618 H 0.67506 0.27525 0.88058
 C1619 C 0.30858 0.80106 0.63201
 C1620 C 0.28289 0.80140 0.62746
 C1621 C 0.26896 0.77776 0.62418
 N1622 N 0.24476 0.77793 0.61633
 N1623 N 0.23236 0.75647 0.61274
 C1624 C 0.24372 0.73410 0.61682
 N1625 N 0.26787 0.73395 0.62477
 N1626 N 0.28026 0.75538 0.62831
 C1627 C 0.23006 0.71033 0.61370
 C1628 C 0.20521 0.70983 0.60582
 H1629 H 0.27326 0.81903 0.62493
 H1630 H 0.23927 0.69312 0.61907
 H1631 H 0.31807 0.78322 0.63344
 H1632 H 0.19610 0.72718 0.60068
   
