data_POSCAR
  _audit_creation_date              2014-09-24
  _audit_creation_method            'ToBaCCo'
  _symmetry_space_group_name_H-M    'P1'
  _symmetry_Int_Tables_number       1
  _symmetry_cell_setting            triclinic
  loop_
  _symmetry_equiv_pos_as_xyz
 x,y,z
_cell_length_a 53.3148
_cell_length_b 53.2917
_cell_length_c 53.2659
_cell_angle_alpha 90.019500
_cell_angle_beta 89.972200
_cell_angle_gamma 89.970700
loop_
  _atom_site_label
  _atom_site_type_symbol
  _atom_site_fract_x
  _atom_site_fract_y
  _atom_site_fract_z
O1 O 0.87585 0.15933 0.80986
 O2 O 0.90305 0.12444 0.80249
 O3 O 0.81056 0.12312 0.84046
 O4 O 0.80102 0.09901 0.87306
 O5 O 0.84095 0.18955 0.87568
 O6 O 0.87576 0.19682 0.90277
 O7 O 0.87691 0.05936 0.90947
 O8 O 0.84756 0.05248 0.87679
 O9 O 0.94032 0.09000 0.87585
 O10 O 0.94848 0.12552 0.84774
 O11 O 0.90993 0.12343 0.93971
 O12 O 0.87425 0.15168 0.94777
 O13 O 0.87664 0.08966 0.93944
 O14 O 0.84750 0.12527 0.94719
 O15 O 0.94026 0.12349 0.90980
 O16 O 0.94756 0.15272 0.87371
 O17 O 0.91058 0.05960 0.87612
 O18 O 0.87599 0.05204 0.84677
 O19 O 0.87617 0.18932 0.84020
 O20 O 0.90363 0.19651 0.87520
 O21 O 0.81063 0.15961 0.87525
 O22 O 0.80513 0.12440 0.90479
 O23 O 0.84043 0.12401 0.81001
 O24 O 0.87543 0.09636 0.80292
 Zr25 Zr 0.87450 0.12533 0.83003
 O26 O 0.89820 0.10204 0.85147
 Zr27 Zr 0.83061 0.12541 0.87429
 O28 O 0.85215 0.10160 0.89740
 Zr29 Zr 0.87476 0.16935 0.87415
 O30 O 0.89808 0.14792 0.89769
 Zr31 Zr 0.87649 0.07958 0.87555
 O32 O 0.85249 0.10095 0.85208
 Zr33 Zr 0.92027 0.12393 0.87569
 O34 O 0.89891 0.14747 0.85186
 Zr35 Zr 0.87607 0.12368 0.91962
 O36 O 0.85253 0.14762 0.89844
 O37 O 0.85129 0.14870 0.85089
 O38 O 0.89978 0.10030 0.89913
 C39 C 0.87661 0.18236 0.81710
 C40 C 0.81745 0.12292 0.81732
 C41 C 0.81786 0.18264 0.87606
 C42 C 0.87702 0.06658 0.93250
 C43 C 0.93360 0.06683 0.87618
 C44 C 0.93301 0.12327 0.93282
 H45 H 0.90870 0.09187 0.84007
 H46 H 0.90836 0.15928 0.90813
 H47 H 0.84054 0.15938 0.84014
 H48 H 0.84095 0.09093 0.90763
 H49 H 0.83463 0.05789 0.86459
 H50 H 0.80672 0.08390 0.88218
 H51 H 0.94470 0.16429 0.88795
 H52 H 0.91684 0.19063 0.86353
 H53 H 0.88946 0.05595 0.83463
 H54 H 0.86385 0.08315 0.80893
 H55 H 0.88742 0.16423 0.94414
 H56 H 0.86462 0.19073 0.91634
 H57 H 0.91659 0.13556 0.80863
 H58 H 0.94453 0.11270 0.83492
 H59 H 0.81004 0.13800 0.91647
 H60 H 0.83569 0.11133 0.94396
 O61 O 0.84015 0.68929 0.37539
 O62 O 0.87491 0.69692 0.40243
 O63 O 0.87605 0.65907 0.30973
 O64 O 0.90073 0.62653 0.30056
 O65 O 0.80993 0.62363 0.34028
 O66 O 0.80264 0.59662 0.37513
 O67 O 0.93994 0.59029 0.37640
 O68 O 0.94696 0.62271 0.34701
 O69 O 0.90929 0.62379 0.43979
 O70 O 0.87339 0.65218 0.44759
 O71 O 0.87619 0.55968 0.40978
 O72 O 0.84788 0.55167 0.37392
 O73 O 0.91011 0.55990 0.37629
 O74 O 0.87448 0.55214 0.34713
 O75 O 0.87589 0.59002 0.43969
 O76 O 0.84690 0.62561 0.44734
 O77 O 0.93973 0.62353 0.40997
 O78 O 0.94716 0.65288 0.37519
 O79 O 0.80985 0.65930 0.37533
 O80 O 0.80293 0.62428 0.40313
 O81 O 0.83992 0.62409 0.30996
 O82 O 0.87501 0.59469 0.30442
 O83 O 0.87553 0.68914 0.34000
 O84 O 0.90281 0.69655 0.37498
 Zr85 Zr 0.87406 0.66926 0.37398
 O86 O 0.89735 0.64804 0.39768
 Zr87 Zr 0.87405 0.62516 0.32995
 O88 O 0.89784 0.60205 0.35161
 Zr89 Zr 0.83002 0.62528 0.37415
 O90 O 0.85153 0.60180 0.39754
 Zr91 Zr 0.91975 0.62403 0.37589
 O92 O 0.89843 0.64739 0.35184
 Zr93 Zr 0.87540 0.62392 0.41970
 O94 O 0.85180 0.64759 0.39834
 Zr95 Zr 0.87592 0.57974 0.37570
 O96 O 0.85197 0.60097 0.35204
 O97 O 0.85072 0.64850 0.35069
 O98 O 0.89914 0.60047 0.39931
 C99 C 0.81707 0.68233 0.37593
 C100 C 0.87645 0.68212 0.31693
 C101 C 0.81691 0.62325 0.31718
 C102 C 0.93309 0.56719 0.37662
 C103 C 0.93241 0.62349 0.43296
 C104 C 0.87626 0.56694 0.43280
 H105 H 0.90748 0.65949 0.40816
 H106 H 0.84019 0.59139 0.40787
 H107 H 0.84006 0.65925 0.33993
 H108 H 0.90856 0.59183 0.34044
 H109 H 0.94148 0.63471 0.33393
 H110 H 0.91556 0.61685 0.30609
 H111 H 0.83488 0.61188 0.44397
 H112 H 0.80870 0.63615 0.41621
 H113 H 0.94346 0.66485 0.38889
 H114 H 0.91616 0.69058 0.36351
 H115 H 0.83545 0.55523 0.38724
 H116 H 0.80889 0.58299 0.36416
 H117 H 0.86387 0.69082 0.41606
 H118 H 0.88682 0.66450 0.44418
 H119 H 0.86167 0.58285 0.30960
 H120 H 0.88836 0.55546 0.33527
 O121 O 0.37543 0.15919 0.31016
 O122 O 0.40275 0.12423 0.30306
 O123 O 0.31011 0.12302 0.34071
 O124 O 0.30050 0.09900 0.37336
 O125 O 0.34042 0.18957 0.37582
 O126 O 0.37514 0.19697 0.40294
 O127 O 0.37621 0.05953 0.41023
 O128 O 0.34685 0.05261 0.37744
 O129 O 0.43972 0.09005 0.37658
 O130 O 0.44800 0.12538 0.34841
 O131 O 0.40922 0.12371 0.44027
 O132 O 0.37348 0.15199 0.44812
 O133 O 0.37593 0.08991 0.44005
 O134 O 0.34677 0.12556 0.44761
 O135 O 0.43959 0.12366 0.41040
 O136 O 0.44696 0.15276 0.37421
 O137 O 0.40992 0.05963 0.37688
 O138 O 0.37550 0.05187 0.34763
 O139 O 0.37569 0.18926 0.34042
 O140 O 0.40312 0.19652 0.37548
 O141 O 0.31010 0.15963 0.37538
 O142 O 0.30445 0.12460 0.40500
 O143 O 0.34007 0.12383 0.31035
 O144 O 0.37508 0.09620 0.30342
 Zr145 Zr 0.37407 0.12523 0.33046
 O146 O 0.39765 0.10200 0.35208
 Zr147 Zr 0.33006 0.12544 0.37460
 O148 O 0.35150 0.10172 0.39791
 Zr149 Zr 0.37422 0.16938 0.37444
 O150 O 0.39746 0.14803 0.39813
 Zr151 Zr 0.37587 0.07963 0.37620
 O152 O 0.35200 0.10091 0.35254
 Zr153 Zr 0.41969 0.12396 0.37625
 O154 O 0.39843 0.14743 0.35227
 Zr155 Zr 0.37540 0.12387 0.42009
 O156 O 0.35192 0.14772 0.39873
 O157 O 0.35081 0.14866 0.35118
 O158 O 0.39914 0.10041 0.39975
 C159 C 0.37617 0.18225 0.31733
 C160 C 0.31707 0.12274 0.31759
 C161 C 0.31734 0.18264 0.37615
 C162 C 0.37630 0.06675 0.43329
 C163 C 0.43289 0.06694 0.37694
 C164 C 0.43232 0.12353 0.43341
 H165 H 0.40817 0.09177 0.34075
 H166 H 0.40772 0.15943 0.40855
 H167 H 0.34009 0.15929 0.34036
 H168 H 0.34027 0.09110 0.40816
 H169 H 0.33404 0.05796 0.36508
 H170 H 0.30612 0.08398 0.38270
 H171 H 0.44410 0.16436 0.38842
 H172 H 0.41632 0.19064 0.36379
 H173 H 0.38876 0.05593 0.33531
 H174 H 0.36351 0.08299 0.30945
 H175 H 0.38669 0.16449 0.44450
 H176 H 0.36400 0.19091 0.41652
 H177 H 0.41619 0.13551 0.30913
 H178 H 0.44397 0.11264 0.33553
 H179 H 0.30941 0.13815 0.41670
 H180 H 0.33496 0.11162 0.44439
 O181 O 0.12426 0.33981 0.30996
 O182 O 0.09723 0.37452 0.30237
 O183 O 0.18984 0.37622 0.34009
 O184 O 0.19935 0.40037 0.37275
 O185 O 0.15970 0.30958 0.37534
 O186 O 0.12478 0.30263 0.40281
 O187 O 0.12437 0.43975 0.40914
 O188 O 0.15373 0.44610 0.37555
 O189 O 0.06019 0.40969 0.37594
 O190 O 0.05229 0.37416 0.34737
 O191 O 0.09061 0.37600 0.43958
 O192 O 0.12614 0.34768 0.44766
 O193 O 0.12405 0.40984 0.43949
 O194 O 0.15318 0.37391 0.44693
 O195 O 0.06026 0.37594 0.40971
 O196 O 0.05268 0.34701 0.37375
 O197 O 0.09046 0.43963 0.37646
 O198 O 0.12045 0.44751 0.34743
 O199 O 0.12448 0.30954 0.33999
 O200 O 0.09679 0.30277 0.37497
 O201 O 0.18962 0.33992 0.37504
 O202 O 0.19556 0.37531 0.40407
 O203 O 0.15998 0.37455 0.30974
 O204 O 0.12360 0.40222 0.30207
 Zr205 Zr 0.12586 0.37386 0.32981
 O206 O 0.10246 0.39732 0.35134
 Zr207 Zr 0.16976 0.37399 0.37389
 O208 O 0.14844 0.39767 0.39725
 Zr209 Zr 0.12576 0.32982 0.37394
 O210 O 0.10246 0.35147 0.39749
 Zr211 Zr 0.12422 0.41956 0.37536
 O212 O 0.14802 0.39842 0.35151
 Zr213 Zr 0.08021 0.37557 0.37558
 O214 O 0.10150 0.35180 0.35179
 Zr215 Zr 0.12449 0.37568 0.41952
 O216 O 0.14797 0.35174 0.39815
 O217 O 0.14911 0.35054 0.35062
 O218 O 0.10086 0.39907 0.39902
 C219 C 0.12378 0.31673 0.31695
 C220 C 0.18294 0.37600 0.31698
 C221 C 0.18270 0.31683 0.37579
 C222 C 0.12404 0.43286 0.43225
 C223 C 0.06740 0.43271 0.37649
 C224 C 0.06752 0.37617 0.43271
 H225 H 0.09228 0.40793 0.34001
 H226 H 0.09214 0.34015 0.40793
 H227 H 0.15986 0.33983 0.33988
 H228 H 0.15974 0.40831 0.40741
 H229 H 0.16494 0.44181 0.36135
 H230 H 0.19299 0.41601 0.38046
 H231 H 0.05592 0.33509 0.38760
 H232 H 0.08362 0.30870 0.36329
 H233 H 0.13065 0.44197 0.33299
 H234 H 0.13843 0.41319 0.30408
 H235 H 0.11305 0.33509 0.44390
 H236 H 0.13621 0.30868 0.41614
 H237 H 0.08362 0.36357 0.30869
 H238 H 0.05613 0.38737 0.33491
 H239 H 0.19063 0.36197 0.41603
 H240 H 0.16487 0.38798 0.44384
 O241 O 0.62425 0.83981 0.30963
 O242 O 0.59733 0.87454 0.30202
 O243 O 0.68986 0.87597 0.33992
 O244 O 0.69924 0.90025 0.37259
 O245 O 0.65955 0.80942 0.37505
 O246 O 0.62459 0.80244 0.40242
 O247 O 0.62419 0.93955 0.40898
 O248 O 0.65366 0.94596 0.37552
 O249 O 0.56011 0.90958 0.37566
 O250 O 0.55219 0.87414 0.34705
 O251 O 0.59038 0.87577 0.43930
 O252 O 0.62596 0.84738 0.44733
 O253 O 0.62385 0.90961 0.43929
 O254 O 0.65292 0.87369 0.44677
 O255 O 0.56007 0.87578 0.40938
 O256 O 0.55262 0.84686 0.37329
 O257 O 0.59039 0.93950 0.37621
 O258 O 0.62047 0.94738 0.34725
 O259 O 0.62440 0.80948 0.33961
 O260 O 0.59664 0.80267 0.37454
 O261 O 0.68950 0.83974 0.37489
 O262 O 0.69545 0.87509 0.40391
 O263 O 0.66005 0.87443 0.30951
 O264 O 0.62370 0.90228 0.30192
 Zr265 Zr 0.62587 0.87381 0.32954
 O266 O 0.60242 0.89722 0.35109
 Zr267 Zr 0.66968 0.87382 0.37370
 O268 O 0.64832 0.89747 0.39707
 Zr269 Zr 0.62563 0.82970 0.37361
 O270 O 0.60230 0.85130 0.39717
 Zr271 Zr 0.62415 0.91941 0.37517
 O272 O 0.64801 0.89831 0.35133
 Zr273 Zr 0.58011 0.87545 0.37527
 O274 O 0.60145 0.85174 0.35145
 Zr275 Zr 0.62431 0.87547 0.41928
 O276 O 0.64782 0.85157 0.39789
 O277 O 0.64905 0.85043 0.35036
 O278 O 0.60073 0.89890 0.39877
 C279 C 0.62373 0.81671 0.31658
 C280 C 0.68302 0.87577 0.31679
 C281 C 0.68256 0.81665 0.37558
 C282 C 0.62382 0.93263 0.43207
 C283 C 0.56733 0.93259 0.37623
 C284 C 0.56730 0.87596 0.43240
 H285 H 0.59227 0.90785 0.33976
 H286 H 0.59196 0.83997 0.40758
 H287 H 0.65980 0.83971 0.33964
 H288 H 0.65960 0.90809 0.40726
 H289 H 0.66491 0.94169 0.36135
 H290 H 0.69291 0.91582 0.38044
 H291 H 0.55575 0.83498 0.38721
 H292 H 0.58350 0.80862 0.36284
 H293 H 0.63078 0.94189 0.33287
 H294 H 0.63862 0.91314 0.30391
 H295 H 0.61278 0.83487 0.44360
 H296 H 0.63596 0.80848 0.41581
 H297 H 0.58365 0.86368 0.30834
 H298 H 0.55611 0.88732 0.33457
 H299 H 0.69044 0.86179 0.41588
 H300 H 0.66466 0.88771 0.44367
 O301 O 0.62486 0.65919 0.18928
 O302 O 0.59733 0.62417 0.19632
 O303 O 0.69038 0.62318 0.15905
 O304 O 0.69933 0.59807 0.12659
 O305 O 0.66017 0.68943 0.12372
 O306 O 0.62521 0.69632 0.09608
 O307 O 0.62430 0.55934 0.08936
 O308 O 0.65399 0.55273 0.12221
 O309 O 0.56057 0.58941 0.12341
 O310 O 0.55307 0.62545 0.15229
 O311 O 0.59048 0.62340 0.05942
 O312 O 0.62649 0.65213 0.05187
 O313 O 0.62408 0.58968 0.05952
 O314 O 0.65270 0.62510 0.05147
 O315 O 0.56059 0.62320 0.08978
 O316 O 0.55258 0.65167 0.12534
 O317 O 0.59082 0.55942 0.12285
 O318 O 0.62499 0.55134 0.15162
 O319 O 0.62467 0.68920 0.15897
 O320 O 0.59756 0.69663 0.12406
 O321 O 0.69013 0.65909 0.12393
 O322 O 0.69618 0.62436 0.09490
 O323 O 0.66006 0.62363 0.18907
 O324 O 0.62523 0.59654 0.19654
 Zr325 Zr 0.62617 0.62516 0.16908
 O326 O 0.60281 0.60163 0.14765
 Zr327 Zr 0.67025 0.62507 0.12505
 O328 O 0.64875 0.60158 0.10156
 Zr329 Zr 0.62620 0.66920 0.12502
 O330 O 0.60264 0.64773 0.10169
 Zr331 Zr 0.62465 0.57944 0.12340
 O332 O 0.64832 0.60072 0.14719
 Zr333 Zr 0.58058 0.62353 0.12367
 O334 O 0.60190 0.64735 0.14724
 Zr335 Zr 0.62456 0.62363 0.07949
 O336 O 0.64834 0.64729 0.10080
 O337 O 0.64952 0.64846 0.14834
 O338 O 0.60109 0.60008 0.10001
 C339 C 0.62416 0.68223 0.18206
 C340 C 0.68313 0.62276 0.18211
 C341 C 0.68319 0.68218 0.12323
 C342 C 0.62397 0.56653 0.06631
 C343 C 0.56776 0.56637 0.12295
 C344 C 0.56747 0.62313 0.06668
 H345 H 0.59241 0.59136 0.15903
 H346 H 0.59226 0.65909 0.09135
 H347 H 0.66023 0.65912 0.15913
 H348 H 0.65996 0.59100 0.09122
 H349 H 0.66655 0.55797 0.13487
 H350 H 0.69415 0.58365 0.11611
 H351 H 0.55625 0.66413 0.11208
 H352 H 0.58404 0.69052 0.13523
 H353 H 0.61238 0.55580 0.16447
 H354 H 0.63639 0.58301 0.19041
 H355 H 0.61274 0.66417 0.05515
 H356 H 0.63690 0.69042 0.08289
 H357 H 0.58410 0.63580 0.19043
 H358 H 0.55623 0.61158 0.16421
 H359 H 0.69065 0.63721 0.08268
 H360 H 0.66507 0.61177 0.05514
 O361 O 0.37536 0.84052 0.68952
 O362 O 0.40243 0.87532 0.69702
 O363 O 0.30974 0.87643 0.65940
 O364 O 0.30058 0.90110 0.62682
 O365 O 0.34021 0.81021 0.62395
 O366 O 0.37492 0.80281 0.59686
 O367 O 0.37625 0.94022 0.59028
 O368 O 0.34702 0.94730 0.62282
 O369 O 0.43969 0.90950 0.62372
 O370 O 0.44758 0.87375 0.65201
 O371 O 0.40959 0.87630 0.55963
 O372 O 0.37368 0.84802 0.55177
 O373 O 0.37612 0.91032 0.55990
 O374 O 0.34695 0.87467 0.55227
 O375 O 0.43950 0.87600 0.58993
 O376 O 0.44706 0.84700 0.62566
 O377 O 0.40994 0.94000 0.62349
 O378 O 0.37525 0.94756 0.65289
 O379 O 0.37527 0.81016 0.65954
 O380 O 0.40302 0.80321 0.62439
 O381 O 0.30991 0.84021 0.62444
 O382 O 0.30434 0.87525 0.59499
 O383 O 0.34002 0.87597 0.68942
 O384 O 0.37502 0.90327 0.69667
 Zr385 Zr 0.37395 0.87443 0.66943
 O386 O 0.39762 0.89766 0.64808
 Zr387 Zr 0.32990 0.87436 0.62541
 O388 O 0.35153 0.89810 0.60219
 Zr389 Zr 0.37405 0.83029 0.62547
 O390 O 0.39737 0.85174 0.60186
 Zr391 Zr 0.37585 0.92005 0.62408
 O392 O 0.35184 0.89879 0.64755
 Zr393 Zr 0.41957 0.87564 0.62391
 O394 O 0.39826 0.85211 0.64771
 Zr395 Zr 0.37555 0.87613 0.57980
 O396 O 0.35195 0.85223 0.60116
 O397 O 0.35065 0.85106 0.64874
 O398 O 0.39920 0.89938 0.60046
 C399 C 0.37590 0.81741 0.68258
 C400 C 0.31695 0.87688 0.68245
 C401 C 0.31713 0.81718 0.62363
 C402 C 0.37642 0.93333 0.56717
 C403 C 0.43290 0.93263 0.62343
 C404 C 0.43260 0.87631 0.56684
 H405 H 0.40812 0.90780 0.65949
 H406 H 0.40766 0.84037 0.59143
 H407 H 0.33991 0.84042 0.65954
 H408 H 0.34036 0.90882 0.59198
 H409 H 0.33396 0.94183 0.63487
 H410 H 0.30610 0.91589 0.61707
 H411 H 0.44378 0.83507 0.61182
 H412 H 0.41605 0.80894 0.63631
 H413 H 0.38890 0.94381 0.66488
 H414 H 0.36355 0.91661 0.69071
 H415 H 0.38696 0.83556 0.55532
 H416 H 0.36399 0.80908 0.58321
 H417 H 0.41601 0.86422 0.69091
 H418 H 0.44403 0.88701 0.66450
 H419 H 0.30951 0.86190 0.58314
 H420 H 0.33510 0.88856 0.55564
 O421 O 0.87594 0.33994 0.68970
 O422 O 0.90285 0.37481 0.69727
 O423 O 0.81022 0.37567 0.65954
 O424 O 0.80092 0.40021 0.62696
 O425 O 0.84091 0.30951 0.62412
 O426 O 0.87568 0.30228 0.59701
 O427 O 0.87653 0.43966 0.59059
 O428 O 0.84726 0.44665 0.62310
 O429 O 0.94003 0.40918 0.62399
 O430 O 0.94798 0.37336 0.65237
 O431 O 0.91007 0.37591 0.55993
 O432 O 0.87433 0.34752 0.55197
 O433 O 0.87651 0.40977 0.56020
 O434 O 0.84745 0.37401 0.55253
 O435 O 0.93998 0.37570 0.59023
 O436 O 0.94771 0.34676 0.62588
 O437 O 0.91017 0.43956 0.62377
 O438 O 0.87544 0.44695 0.65322
 O439 O 0.87595 0.30959 0.65971
 O440 O 0.90372 0.30271 0.62460
 O441 O 0.81053 0.33942 0.62459
 O442 O 0.80487 0.37449 0.59513
 O443 O 0.84047 0.37526 0.68958
 O444 O 0.87536 0.40265 0.69692
 Zr445 Zr 0.87442 0.37384 0.66964
 O446 O 0.89802 0.39717 0.64835
 Zr447 Zr 0.83039 0.37364 0.62559
 O448 O 0.85195 0.39748 0.60243
 Zr449 Zr 0.87468 0.32972 0.62566
 O450 O 0.89795 0.35127 0.60210
 Zr451 Zr 0.87617 0.41949 0.62436
 O452 O 0.85221 0.39812 0.64777
 Zr453 Zr 0.92004 0.37523 0.62419
 O454 O 0.89880 0.35161 0.64793
 Zr455 Zr 0.87604 0.37558 0.58006
 O456 O 0.85251 0.35158 0.60136
 O457 O 0.85120 0.35040 0.64893
 O458 O 0.89959 0.39891 0.60075
 C459 C 0.87655 0.31684 0.68274
 C460 C 0.81742 0.37613 0.68259
 C461 C 0.81781 0.31641 0.62378
 C462 C 0.87674 0.43277 0.56748
 C463 C 0.93316 0.43228 0.62369
 C464 C 0.93307 0.37602 0.56715
 H465 H 0.90847 0.40735 0.65978
 H466 H 0.90829 0.33994 0.59168
 H467 H 0.84049 0.33972 0.65971
 H468 H 0.84073 0.40816 0.59222
 H469 H 0.83420 0.44113 0.63512
 H470 H 0.80643 0.41509 0.61735
 H471 H 0.94440 0.33475 0.61212
 H472 H 0.91676 0.30851 0.63649
 H473 H 0.88917 0.44331 0.66514
 H474 H 0.86387 0.41597 0.69095
 H475 H 0.88760 0.33507 0.55557
 H476 H 0.86469 0.30849 0.58339
 H477 H 0.91650 0.36379 0.69114
 H478 H 0.94450 0.38676 0.66475
 H479 H 0.81004 0.36110 0.58332
 H480 H 0.83559 0.38790 0.55585
 O481 O 0.81048 0.87472 0.15924
 O482 O 0.80337 0.90199 0.12425
 O483 O 0.84102 0.80933 0.12311
 O484 O 0.87358 0.79974 0.09893
 O485 O 0.87613 0.83972 0.18957
 O486 O 0.90316 0.87450 0.19697
 O487 O 0.91047 0.87548 0.05946
 O488 O 0.87773 0.84606 0.05255
 O489 O 0.87679 0.93899 0.09002
 O490 O 0.84869 0.94731 0.12539
 O491 O 0.94045 0.90849 0.12359
 O492 O 0.94828 0.87277 0.15194
 O493 O 0.94025 0.87517 0.08984
 O494 O 0.94781 0.84603 0.12548
 O495 O 0.91063 0.93890 0.12359
 O496 O 0.87446 0.94627 0.15278
 O497 O 0.87713 0.90916 0.05958
 O498 O 0.84792 0.87471 0.05183
 O499 O 0.84070 0.87500 0.18931
 O500 O 0.87571 0.90246 0.19653
 O501 O 0.87572 0.80937 0.15961
 O502 O 0.90524 0.80368 0.12451
 O503 O 0.81067 0.83929 0.12391
 O504 O 0.80376 0.87427 0.09621
 Zr505 Zr 0.83076 0.87332 0.12524
 O506 O 0.85236 0.89690 0.10199
 Zr507 Zr 0.87487 0.82930 0.12541
 O508 O 0.89815 0.85074 0.10166
 Zr509 Zr 0.87469 0.87353 0.16938
 O510 O 0.89837 0.89676 0.14801
 Zr511 Zr 0.87646 0.87511 0.07958
 O512 O 0.85282 0.85123 0.10089
 Zr513 Zr 0.87651 0.91898 0.12395
 O514 O 0.85254 0.89772 0.14744
 Zr515 Zr 0.92030 0.87466 0.12382
 O516 O 0.89897 0.85120 0.14770
 O517 O 0.85147 0.85008 0.14867
 O518 O 0.89998 0.89840 0.10037
 C519 C 0.81764 0.87547 0.18230
 C520 C 0.81792 0.81628 0.12287
 C521 C 0.87650 0.81663 0.18263
 C522 C 0.93351 0.87557 0.06667
 C523 C 0.87717 0.93214 0.06690
 C524 C 0.93361 0.93160 0.12340
 H525 H 0.84103 0.90742 0.09177
 H526 H 0.90878 0.90703 0.15940
 H527 H 0.84068 0.83936 0.15933
 H528 H 0.90840 0.83951 0.09103
 H529 H 0.86538 0.83324 0.05789
 H530 H 0.88295 0.80533 0.08392
 H531 H 0.88870 0.94345 0.16434
 H532 H 0.86404 0.91566 0.19065
 H533 H 0.83559 0.88796 0.05593
 H534 H 0.80977 0.86265 0.08301
 H535 H 0.94473 0.88606 0.16441
 H536 H 0.91676 0.86339 0.19088
 H537 H 0.80942 0.91546 0.13553
 H538 H 0.83580 0.94324 0.11270
 H539 H 0.91695 0.80867 0.13804
 H540 H 0.94460 0.83421 0.11154
 O541 O 0.37573 0.33983 0.18971
 O542 O 0.40271 0.37469 0.19729
 O543 O 0.31012 0.37565 0.15941
 O544 O 0.30091 0.40020 0.12682
 O545 O 0.34080 0.30946 0.12407
 O546 O 0.37560 0.30218 0.09702
 O547 O 0.37655 0.43961 0.09056
 O548 O 0.34727 0.44659 0.12307
 O549 O 0.44002 0.40902 0.12408
 O550 O 0.44786 0.37321 0.15251
 O551 O 0.41015 0.37585 0.05999
 O552 O 0.37445 0.34749 0.05191
 O553 O 0.37657 0.40972 0.06017
 O554 O 0.34751 0.37392 0.05249
 O555 O 0.44000 0.37557 0.09036
 O556 O 0.44763 0.34662 0.12599
 O557 O 0.41021 0.43945 0.12375
 O558 O 0.37544 0.44688 0.15319
 O559 O 0.37577 0.30948 0.15972
 O560 O 0.40363 0.30262 0.12463
 O561 O 0.31045 0.33940 0.12450
 O562 O 0.30489 0.37445 0.09499
 O563 O 0.34032 0.37523 0.18951
 O564 O 0.37523 0.40254 0.19693
 Zr565 Zr 0.37430 0.37375 0.16963
 O566 O 0.39794 0.39707 0.14838
 Zr567 Zr 0.33035 0.37359 0.12549
 O568 O 0.35196 0.39742 0.10237
 Zr569 Zr 0.37459 0.32962 0.12566
 O570 O 0.39791 0.35117 0.10213
 Zr571 Zr 0.37617 0.41942 0.12434
 O572 O 0.35216 0.39806 0.14771
 Zr573 Zr 0.41999 0.37511 0.12426
 O574 O 0.39870 0.35149 0.14797
 Zr575 Zr 0.37608 0.37552 0.08004
 O576 O 0.35250 0.35152 0.10130
 O577 O 0.35109 0.35033 0.14888
 O578 O 0.39961 0.39881 0.10077
 C579 C 0.37633 0.31672 0.18276
 C580 C 0.31728 0.37611 0.18247
 C581 C 0.31771 0.31638 0.12371
 C582 C 0.37677 0.43273 0.06744
 C583 C 0.43319 0.43214 0.12371
 C584 C 0.43314 0.37593 0.06726
 H585 H 0.40840 0.40724 0.15981
 H586 H 0.40826 0.33983 0.09172
 H587 H 0.34035 0.33967 0.15965
 H588 H 0.34077 0.40811 0.09214
 H589 H 0.33420 0.44107 0.13507
 H590 H 0.30645 0.41507 0.11720
 H591 H 0.44431 0.33459 0.11224
 H592 H 0.41663 0.30838 0.13659
 H593 H 0.38919 0.44326 0.16511
 H594 H 0.36383 0.41591 0.19090
 H595 H 0.38766 0.33499 0.05558
 H596 H 0.36467 0.30843 0.08336
 H597 H 0.41633 0.36361 0.19120
 H598 H 0.44439 0.38663 0.16486
 H599 H 0.31005 0.36104 0.08321
 H600 H 0.33567 0.38784 0.05576
 O601 O 0.37545 0.65977 0.80976
 O602 O 0.40281 0.62496 0.80243
 O603 O 0.31011 0.62327 0.84028
 O604 O 0.30081 0.59899 0.87296
 O605 O 0.34042 0.68973 0.87555
 O606 O 0.37531 0.69699 0.90273
 O607 O 0.37607 0.55975 0.90963
 O608 O 0.34658 0.55333 0.87607
 O609 O 0.43986 0.59022 0.87575
 O610 O 0.44790 0.62539 0.84741
 O611 O 0.40959 0.62382 0.93953
 O612 O 0.37379 0.65234 0.94742
 O613 O 0.37615 0.59013 0.93952
 O614 O 0.34725 0.62570 0.94726
 O615 O 0.43988 0.62385 0.90957
 O616 O 0.44712 0.65291 0.87333
 O617 O 0.41005 0.55982 0.87656
 O618 O 0.37978 0.55195 0.84766
 O619 O 0.37563 0.68973 0.84013
 O620 O 0.40308 0.69688 0.87499
 O621 O 0.31017 0.65971 0.87507
 O622 O 0.30454 0.62431 0.90435
 O623 O 0.33994 0.62485 0.80985
 O624 O 0.37625 0.59722 0.80213
 Zr625 Zr 0.37410 0.62565 0.82982
 O626 O 0.39758 0.60225 0.85140
 Zr627 Zr 0.33024 0.62556 0.87404
 O628 O 0.35175 0.60194 0.89738
 Zr629 Zr 0.37429 0.66963 0.87401
 O630 O 0.39768 0.64823 0.89750
 Zr631 Zr 0.37608 0.57988 0.87564
 O632 O 0.35213 0.60105 0.85177
 Zr633 Zr 0.41982 0.62416 0.87549
 O634 O 0.39848 0.64777 0.85170
 Zr635 Zr 0.37567 0.62409 0.91953
 O636 O 0.35205 0.64786 0.89824
 O637 O 0.35088 0.64896 0.85072
 O638 O 0.39937 0.60066 0.89911
 C639 C 0.37611 0.68280 0.81702
 C640 C 0.31698 0.62345 0.81715
 C641 C 0.31734 0.68276 0.87590
 C642 C 0.37630 0.56702 0.93265
 C643 C 0.43303 0.56711 0.87639
 C644 C 0.43267 0.62365 0.93260
 H645 H 0.40777 0.59166 0.84006
 H646 H 0.40800 0.65961 0.90788
 H647 H 0.34012 0.65967 0.84001
 H648 H 0.34051 0.59133 0.90763
 H649 H 0.33531 0.55758 0.86192
 H650 H 0.30719 0.58349 0.88090
 H651 H 0.44429 0.66455 0.88753
 H652 H 0.41636 0.69096 0.86342
 H653 H 0.36942 0.55743 0.83332
 H654 H 0.36153 0.58614 0.80438
 H655 H 0.38730 0.66459 0.94402
 H656 H 0.36401 0.69097 0.91619
 H657 H 0.41620 0.63628 0.80855
 H658 H 0.44367 0.61264 0.83460
 H659 H 0.30944 0.63777 0.91618
 H660 H 0.33520 0.61201 0.94385
 O661 O 0.12437 0.65987 0.68984
 O662 O 0.09690 0.62481 0.69694
 O663 O 0.18990 0.62392 0.65955
 O664 O 0.19893 0.59893 0.62706
 O665 O 0.15950 0.69015 0.62427
 O666 O 0.12452 0.69694 0.59662
 O667 O 0.12396 0.55991 0.59003
 O668 O 0.15366 0.55342 0.62286
 O669 O 0.06015 0.58987 0.62405
 O670 O 0.05258 0.62591 0.65294
 O671 O 0.08993 0.62387 0.56005
 O672 O 0.12581 0.65269 0.55241
 O673 O 0.12364 0.59025 0.56012
 O674 O 0.15216 0.62578 0.55206
 O675 O 0.06005 0.62365 0.59042
 O676 O 0.05202 0.65212 0.62598
 O677 O 0.09047 0.55996 0.62349
 O678 O 0.12470 0.55201 0.65231
 O679 O 0.12405 0.68985 0.65951
 O680 O 0.09686 0.69718 0.62463
 O681 O 0.18952 0.65988 0.62448
 O682 O 0.19561 0.62516 0.59539
 O683 O 0.15963 0.62434 0.68962
 O684 O 0.12484 0.59723 0.69715
 Zr685 Zr 0.12570 0.62582 0.66967
 O686 O 0.10237 0.60222 0.64828
 Zr687 Zr 0.16974 0.62581 0.62558
 O688 O 0.14828 0.60224 0.60215
 Zr689 Zr 0.12558 0.66984 0.62558
 O690 O 0.10206 0.64828 0.60228
 Zr691 Zr 0.12426 0.58006 0.62404
 O692 O 0.14790 0.60142 0.64777
 Zr693 Zr 0.08008 0.62404 0.62430
 O694 O 0.10136 0.64794 0.64783
 Zr695 Zr 0.12402 0.62422 0.58007
 O696 O 0.14776 0.64797 0.60134
 O697 O 0.14897 0.64916 0.64889
 O698 O 0.10064 0.60063 0.60064
 C699 C 0.12360 0.68290 0.68261
 C700 C 0.18269 0.62348 0.68261
 C701 C 0.18254 0.68296 0.62379
 C702 C 0.12361 0.56716 0.56701
 C703 C 0.06740 0.56686 0.62359
 C704 C 0.06693 0.62356 0.56732
 H705 H 0.09201 0.59193 0.65968
 H706 H 0.09164 0.65961 0.59195
 H707 H 0.15968 0.65984 0.65967
 H708 H 0.15951 0.59168 0.59181
 H709 H 0.16622 0.55872 0.63549
 H710 H 0.19374 0.58444 0.61668
 H711 H 0.05563 0.66458 0.61271
 H712 H 0.08338 0.69105 0.63584
 H713 H 0.11198 0.55638 0.66509
 H714 H 0.13598 0.58369 0.69101
 H715 H 0.11207 0.66472 0.55573
 H716 H 0.13621 0.69105 0.58343
 H717 H 0.08363 0.63639 0.69104
 H718 H 0.05579 0.61205 0.66486
 H719 H 0.19009 0.63806 0.58321
 H720 H 0.16456 0.61247 0.55571
 O721 O 0.12487 0.15894 0.18985
 O722 O 0.09735 0.12386 0.19680
 O723 O 0.19042 0.12299 0.15959
 O724 O 0.19945 0.09801 0.12706
 O725 O 0.16014 0.18931 0.12438
 O726 O 0.12520 0.19618 0.09669
 O727 O 0.12446 0.05924 0.08974
 O728 O 0.15420 0.05262 0.12259
 O729 O 0.06070 0.08912 0.12381
 O730 O 0.05311 0.12510 0.15275
 O731 O 0.09059 0.12330 0.05991
 O732 O 0.12657 0.15211 0.05244
 O733 O 0.12421 0.08964 0.05996
 O734 O 0.15280 0.12509 0.05198
 O735 O 0.06068 0.12297 0.09023
 O736 O 0.05261 0.15138 0.12586
 O737 O 0.09100 0.05919 0.12321
 O738 O 0.12516 0.05111 0.15197
 O739 O 0.12462 0.18897 0.15956
 O740 O 0.09753 0.19642 0.12466
 O741 O 0.19015 0.15901 0.12457
 O742 O 0.19626 0.12437 0.09544
 O743 O 0.16010 0.12337 0.18960
 O744 O 0.12528 0.09628 0.19702
 Zr745 Zr 0.12621 0.12492 0.16959
 O746 O 0.10290 0.10139 0.14810
 Zr747 Zr 0.17032 0.12496 0.12558
 O748 O 0.14887 0.10148 0.10203
 Zr749 Zr 0.12620 0.16903 0.12560
 O750 O 0.10268 0.14756 0.10222
 Zr751 Zr 0.12480 0.07927 0.12382
 O752 O 0.14841 0.10055 0.14767
 Zr753 Zr 0.08065 0.12328 0.12415
 O754 O 0.10192 0.14711 0.14777
 Zr755 Zr 0.12466 0.12354 0.07999
 O756 O 0.14840 0.14719 0.10135
 O757 O 0.14954 0.14828 0.14891
 O758 O 0.10122 0.09991 0.10046
 C759 C 0.12412 0.18198 0.18265
 C760 C 0.18317 0.12251 0.18264
 C761 C 0.18318 0.18209 0.12392
 C762 C 0.12411 0.06648 0.06669
 C763 C 0.06793 0.06610 0.12331
 C764 C 0.06758 0.12296 0.06714
 H765 H 0.09252 0.09107 0.15946
 H766 H 0.09229 0.15892 0.09190
 H767 H 0.16023 0.15893 0.15973
 H768 H 0.16009 0.09094 0.09168
 H769 H 0.16672 0.05786 0.13529
 H770 H 0.19429 0.08360 0.11656
 H771 H 0.05624 0.16385 0.11260
 H772 H 0.08399 0.19026 0.13580
 H773 H 0.11255 0.05554 0.16484
 H774 H 0.13643 0.08274 0.19086
 H775 H 0.11278 0.16410 0.05572
 H776 H 0.13694 0.19034 0.08352
 H777 H 0.08412 0.13550 0.19092
 H778 H 0.05631 0.11123 0.16466
 H779 H 0.19072 0.13724 0.08325
 H780 H 0.16520 0.11178 0.05564
 O781 O 0.69016 0.37555 0.84035
 O782 O 0.69770 0.40248 0.87525
 O783 O 0.66012 0.30976 0.87609
 O784 O 0.62760 0.30057 0.90083
 O785 O 0.62472 0.34032 0.80997
 O786 O 0.59757 0.37506 0.80271
 O787 O 0.59106 0.37619 0.94011
 O788 O 0.62356 0.34694 0.94713
 O789 O 0.62440 0.43970 0.90957
 O790 O 0.65274 0.44764 0.87375
 O791 O 0.56044 0.40962 0.87632
 O792 O 0.55263 0.37373 0.84787
 O793 O 0.56073 0.37609 0.91020
 O794 O 0.55306 0.34701 0.87453
 O795 O 0.59068 0.43957 0.87608
 O796 O 0.62636 0.44723 0.84708
 O797 O 0.62419 0.40988 0.94000
 O798 O 0.65360 0.37520 0.94744
 O799 O 0.66020 0.37547 0.81000
 O800 O 0.62511 0.40314 0.80308
 O801 O 0.62519 0.30999 0.83993
 O802 O 0.59580 0.30433 0.87500
 O803 O 0.69011 0.34006 0.87566
 O804 O 0.69733 0.37501 0.90312
 Zr805 Zr 0.67012 0.37402 0.87428
 O806 O 0.64879 0.39766 0.89759
 Zr807 Zr 0.62616 0.32993 0.87413
 O808 O 0.60296 0.35153 0.89794
 Zr809 Zr 0.62619 0.37416 0.83015
 O810 O 0.60261 0.39747 0.85167
 Zr811 Zr 0.62482 0.37583 0.91994
 O812 O 0.64828 0.35183 0.89861
 Zr813 Zr 0.62463 0.41964 0.87563
 O814 O 0.64840 0.39835 0.85202
 Zr815 Zr 0.58060 0.37558 0.87601
 O816 O 0.60193 0.35199 0.85205
 O817 O 0.64946 0.35073 0.85085
 O818 O 0.60122 0.39920 0.89933
 C819 C 0.68321 0.37613 0.81725
 C820 C 0.68316 0.31698 0.87650
 C821 C 0.62440 0.31723 0.81690
 C822 C 0.56798 0.37636 0.93321
 C823 C 0.62410 0.43287 0.93270
 C824 C 0.56762 0.43265 0.87640
 H825 H 0.66018 0.40815 0.90776
 H826 H 0.59220 0.40779 0.84032
 H827 H 0.66025 0.34002 0.84016
 H828 H 0.59276 0.34033 0.90863
 H829 H 0.63562 0.33389 0.94164
 H830 H 0.61783 0.30605 0.91564
 H831 H 0.61256 0.44395 0.83512
 H832 H 0.63692 0.41624 0.80888
 H833 H 0.66558 0.38886 0.94372
 H834 H 0.69138 0.36348 0.91642
 H835 H 0.55612 0.38712 0.83550
 H836 H 0.58398 0.36404 0.80894
 H837 H 0.69156 0.41614 0.86425
 H838 H 0.66514 0.44416 0.88712
 H839 H 0.58395 0.30952 0.86167
 H840 H 0.55648 0.33508 0.88833
 O841 O 0.12419 0.84054 0.81020
 O842 O 0.09726 0.87538 0.80274
 O843 O 0.18972 0.87658 0.84051
 O844 O 0.19939 0.90055 0.87319
 O845 O 0.15951 0.80985 0.87551
 O846 O 0.12466 0.80288 0.90296
 O847 O 0.12379 0.94017 0.90952
 O848 O 0.15308 0.94706 0.87683
 O849 O 0.05996 0.91008 0.87628
 O850 O 0.05213 0.87414 0.84779
 O851 O 0.09043 0.87630 0.94002
 O852 O 0.12589 0.84822 0.94816
 O853 O 0.12383 0.91025 0.93985
 O854 O 0.15308 0.87426 0.94721
 O855 O 0.06007 0.87635 0.91017
 O856 O 0.05241 0.84746 0.87437
 O857 O 0.09021 0.94004 0.87635
 O858 O 0.12457 0.94768 0.84708
 O859 O 0.12425 0.81016 0.84013
 O860 O 0.09657 0.80323 0.87521
 O861 O 0.18949 0.84013 0.87535
 O862 O 0.19529 0.87518 0.90479
 O863 O 0.15979 0.87568 0.81015
 O864 O 0.12478 0.90339 0.80319
 Zr865 Zr 0.12576 0.87443 0.83029
 O866 O 0.10215 0.89774 0.85175
 Zr867 Zr 0.16969 0.87426 0.87440
 O868 O 0.14830 0.89806 0.89762
 Zr869 Zr 0.12561 0.83022 0.87422
 O870 O 0.10232 0.85184 0.89785
 Zr871 Zr 0.12408 0.92001 0.87571
 O872 O 0.14795 0.89871 0.85218
 Zr873 Zr 0.08002 0.87595 0.87602
 O874 O 0.10137 0.85230 0.85216
 Zr875 Zr 0.12430 0.87609 0.91989
 O876 O 0.14776 0.85205 0.89856
 O877 O 0.14901 0.85098 0.85099
 O878 O 0.10068 0.89952 0.89940
 C879 C 0.12362 0.81743 0.81711
 C880 C 0.18279 0.87679 0.81739
 C881 C 0.18254 0.81705 0.87599
 C882 C 0.12361 0.93327 0.93262
 C883 C 0.06715 0.93311 0.87650
 C884 C 0.06734 0.87649 0.93317
 H885 H 0.09169 0.90796 0.84038
 H886 H 0.09203 0.84051 0.90830
 H887 H 0.15974 0.84034 0.84017
 H888 H 0.15955 0.90871 0.90782
 H889 H 0.16596 0.94163 0.86457
 H890 H 0.19374 0.91568 0.88234
 H891 H 0.05582 0.83541 0.88807
 H892 H 0.08343 0.80920 0.86352
 H893 H 0.11128 0.94367 0.83479
 H894 H 0.13654 0.91651 0.80905
 H895 H 0.11315 0.83535 0.94413
 H896 H 0.13601 0.80892 0.91636
 H897 H 0.08356 0.86452 0.80900
 H898 H 0.05556 0.88761 0.83550
 H899 H 0.19029 0.86169 0.91655
 H900 H 0.16465 0.88846 0.94425
 O901 O 0.69020 0.12373 0.65987
 O902 O 0.69714 0.09606 0.62483
 O903 O 0.66022 0.18945 0.62377
 O904 O 0.62782 0.19831 0.59856
 O905 O 0.62487 0.15931 0.69003
 O906 O 0.59708 0.12432 0.69689
 O907 O 0.59019 0.12397 0.56006
 O908 O 0.62398 0.15353 0.55376
 O909 O 0.62422 0.05969 0.58984
 O910 O 0.65314 0.05204 0.62538
 O911 O 0.56046 0.08971 0.62409
 O912 O 0.55316 0.12575 0.65317
 O913 O 0.56043 0.12347 0.59054
 O914 O 0.55253 0.15191 0.62604
 O915 O 0.59073 0.05973 0.62378
 O916 O 0.62656 0.05179 0.65223
 O917 O 0.62317 0.09000 0.55993
 O918 O 0.65174 0.12012 0.55165
 O919 O 0.65991 0.12368 0.68990
 O920 O 0.62509 0.09669 0.69730
 O921 O 0.62514 0.18924 0.65965
 O922 O 0.59640 0.19547 0.62464
 O923 O 0.69016 0.15912 0.62477
 O924 O 0.69819 0.12301 0.59766
 Zr925 Zr 0.67016 0.12514 0.62574
 O926 O 0.64856 0.10202 0.60210
 Zr927 Zr 0.62629 0.16930 0.62562
 O928 O 0.60258 0.14791 0.60229
 Zr929 Zr 0.62608 0.12528 0.66982
 O930 O 0.60274 0.10173 0.64835
 Zr931 Zr 0.62425 0.12376 0.58005
 O932 O 0.64842 0.14733 0.60115
 Zr933 Zr 0.62464 0.07969 0.62401
 O934 O 0.64823 0.10092 0.64790
 Zr935 Zr 0.58053 0.12378 0.62441
 O936 O 0.60197 0.14755 0.64795
 O937 O 0.64946 0.14852 0.64906
 O938 O 0.60090 0.10027 0.60075
 C939 C 0.68298 0.12308 0.68292
 C940 C 0.68324 0.18220 0.62368
 C941 C 0.62444 0.18233 0.68276
 C942 C 0.56722 0.12359 0.56741
 C943 C 0.62343 0.06692 0.56683
 C944 C 0.56766 0.06668 0.62376
 H945 H 0.65985 0.09191 0.59137
 H946 H 0.59244 0.09133 0.65973
 H947 H 0.66022 0.15922 0.65978
 H948 H 0.59228 0.15920 0.59178
 H949 H 0.63835 0.16453 0.55794
 H950 H 0.61847 0.19245 0.58365
 H951 H 0.61308 0.05520 0.66453
 H952 H 0.63609 0.08306 0.69110
 H953 H 0.66655 0.12957 0.55747
 H954 H 0.69556 0.13728 0.58607
 H955 H 0.55623 0.11173 0.66494
 H956 H 0.58405 0.13624 0.69111
 H957 H 0.69124 0.08298 0.63663
 H958 H 0.66526 0.05568 0.61180
 H959 H 0.58410 0.19010 0.63749
 H960 H 0.55631 0.16443 0.61286
 C961 C 0.37746 0.76159 0.74137
 C962 C 0.37552 0.75416 0.71593
 C963 C 0.37522 0.77235 0.69679
 C964 C 0.37674 0.79804 0.70259
 C965 C 0.37874 0.80524 0.72786
 C966 C 0.37912 0.78737 0.74695
 C967 C 0.37750 0.74166 0.76126
 C968 C 0.37925 0.74719 0.78706
 C969 C 0.37893 0.72807 0.80490
 C970 C 0.37692 0.70282 0.79765
 C971 C 0.37534 0.69707 0.77194
 C972 C 0.37558 0.71624 0.75378
 C973 C 0.37376 0.72866 0.70976
 C974 C 0.37378 0.71012 0.72826
 H975 H 0.37227 0.72292 0.69029
 H976 H 0.37231 0.69068 0.72248
 H977 H 0.37361 0.76644 0.67737
 H978 H 0.37999 0.82486 0.73302
 H979 H 0.38023 0.73320 0.82454
 H980 H 0.37373 0.67767 0.76600
 H981 H 0.38066 0.79424 0.76592
 H982 H 0.38079 0.76613 0.79397
 C983 C 0.37778 0.24101 0.26148
 C984 C 0.37573 0.21559 0.25403
 C985 C 0.37543 0.19644 0.27222
 C986 C 0.37706 0.20222 0.29792
 C987 C 0.37920 0.22747 0.30513
 C988 C 0.37959 0.24656 0.28727
 C989 C 0.37779 0.26092 0.24157
 C990 C 0.37957 0.28670 0.24714
 C991 C 0.37922 0.30456 0.22803
 C992 C 0.37715 0.29735 0.20277
 C993 C 0.37553 0.27165 0.19698
 C994 C 0.37579 0.25348 0.21614
 C995 C 0.37388 0.20946 0.22852
 C996 C 0.37391 0.22798 0.21000
 H997 H 0.37231 0.19001 0.22276
 H998 H 0.37237 0.22223 0.19054
 H999 H 0.37371 0.17704 0.26631
 H1000 H 0.38055 0.23262 0.32476
 H1001 H 0.38055 0.32418 0.23318
 H1002 H 0.37386 0.26575 0.17758
 H1003 H 0.38123 0.26550 0.29416
 H1004 H 0.38116 0.29358 0.26609
 C1005 C 0.62237 0.76092 0.25778
 C1006 C 0.62422 0.75347 0.28323
 C1007 C 0.62443 0.77165 0.30238
 C1008 C 0.62291 0.79734 0.29659
 C1009 C 0.62097 0.80456 0.27132
 C1010 C 0.62068 0.78670 0.25221
 C1011 C 0.62245 0.74101 0.23787
 C1012 C 0.62087 0.74657 0.21208
 C1013 C 0.62129 0.72746 0.19422
 C1014 C 0.62325 0.70221 0.20145
 C1015 C 0.62469 0.69643 0.22715
 C1016 C 0.62435 0.71558 0.24533
 C1017 C 0.62597 0.72797 0.28938
 C1018 C 0.62602 0.70945 0.27086
 H1019 H 0.62738 0.72223 0.30885
 H1020 H 0.62748 0.69000 0.27662
 H1021 H 0.62599 0.76575 0.32179
 H1022 H 0.61973 0.82418 0.26616
 H1023 H 0.62011 0.73261 0.17458
 H1024 H 0.62627 0.67703 0.23307
 H1025 H 0.61920 0.79358 0.23325
 H1026 H 0.61937 0.76551 0.20518
 C1027 C 0.12235 0.26079 0.25826
 C1028 C 0.12430 0.25341 0.28371
 C1029 C 0.12454 0.27163 0.30283
 C1030 C 0.12294 0.29731 0.29699
 C1031 C 0.12091 0.30446 0.27171
 C1032 C 0.12059 0.28656 0.25265
 C1033 C 0.12240 0.24084 0.23839
 C1034 C 0.12069 0.24635 0.21260
 C1035 C 0.12111 0.22722 0.19477
 C1036 C 0.12319 0.20198 0.20203
 C1037 C 0.12473 0.19625 0.22774
 C1038 C 0.12439 0.21543 0.24589
 C1039 C 0.12613 0.22792 0.28991
 C1040 C 0.12617 0.20936 0.27142
 H1041 H 0.12763 0.22222 0.30938
 H1042 H 0.12770 0.18992 0.27722
 H1043 H 0.12618 0.26577 0.32225
 H1044 H 0.11960 0.32407 0.26652
 H1045 H 0.11984 0.23234 0.17513
 H1046 H 0.12639 0.17686 0.23368
 H1047 H 0.11903 0.29340 0.23368
 H1048 H 0.11911 0.26528 0.20567
 C1049 C 0.12206 0.74172 0.73840
 C1050 C 0.12390 0.71630 0.74587
 C1051 C 0.12418 0.69713 0.72770
 C1052 C 0.12273 0.70290 0.70199
 C1053 C 0.12080 0.72816 0.69475
 C1054 C 0.12045 0.74727 0.71260
 C1055 C 0.12207 0.76164 0.75830
 C1056 C 0.12047 0.78743 0.75272
 C1057 C 0.12083 0.80530 0.77183
 C1058 C 0.12275 0.79808 0.79710
 C1059 C 0.12419 0.77238 0.80289
 C1060 C 0.12391 0.75420 0.78374
 C1061 C 0.12558 0.71017 0.77139
 C1062 C 0.12559 0.72870 0.78990
 H1063 H 0.12699 0.69071 0.77716
 H1064 H 0.12700 0.72295 0.80937
 H1065 H 0.12572 0.67773 0.73362
 H1066 H 0.11961 0.73330 0.67511
 H1067 H 0.11965 0.82492 0.76668
 H1068 H 0.12573 0.76647 0.82230
 H1069 H 0.11898 0.76622 0.70570
 H1070 H 0.11901 0.79431 0.73376
 C1071 C 0.87819 0.24114 0.76135
 C1072 C 0.87609 0.21573 0.75389
 C1073 C 0.87579 0.19657 0.77205
 C1074 C 0.87749 0.20234 0.79774
 C1075 C 0.87969 0.22757 0.80498
 C1076 C 0.88007 0.24667 0.78714
 C1077 C 0.87818 0.26105 0.74147
 C1078 C 0.88001 0.28682 0.74706
 C1079 C 0.87961 0.30468 0.72797
 C1080 C 0.87744 0.29748 0.70272
 C1081 C 0.87579 0.27180 0.69691
 C1082 C 0.87609 0.25362 0.71604
 C1083 C 0.87416 0.20960 0.72838
 C1084 C 0.87417 0.22813 0.70987
 H1085 H 0.87255 0.19017 0.72261
 H1086 H 0.87257 0.22240 0.69041
 H1087 H 0.87403 0.17719 0.76613
 H1088 H 0.88109 0.23270 0.82461
 H1089 H 0.88098 0.32430 0.73313
 H1090 H 0.87405 0.26591 0.67751
 H1091 H 0.88176 0.26561 0.79404
 H1092 H 0.88167 0.29369 0.76601
 C1093 C 0.76172 0.37794 0.74142
 C1094 C 0.75425 0.37582 0.71600
 C1095 C 0.77240 0.37550 0.69682
 C1096 C 0.79807 0.37717 0.70258
 C1097 C 0.80530 0.37942 0.72781
 C1098 C 0.78748 0.37983 0.74694
 C1099 C 0.74186 0.37791 0.76136
 C1100 C 0.74745 0.37971 0.78714
 C1101 C 0.72840 0.37927 0.80504
 C1102 C 0.70317 0.37707 0.79786
 C1103 C 0.69735 0.37544 0.77217
 C1104 C 0.71646 0.37579 0.75396
 C1105 C 0.72877 0.37389 0.70990
 C1106 C 0.71028 0.37388 0.72846
 H1107 H 0.72300 0.37227 0.69046
 H1108 H 0.69084 0.37226 0.72275
 H1109 H 0.76649 0.37370 0.67743
 H1110 H 0.82491 0.38082 0.73293
 H1111 H 0.73355 0.38061 0.82466
 H1112 H 0.67797 0.37369 0.76629
 H1113 H 0.79438 0.38156 0.76587
 H1114 H 0.76639 0.38138 0.79399
 C1115 C 0.25826 0.62178 0.76134
 C1116 C 0.28367 0.62389 0.75391
 C1117 C 0.30278 0.62422 0.77210
 C1118 C 0.29699 0.62254 0.79779
 C1119 C 0.27177 0.62035 0.80501
 C1120 C 0.25269 0.61995 0.78713
 C1121 C 0.23840 0.62176 0.74142
 C1122 C 0.21263 0.61994 0.74696
 C1123 C 0.19481 0.62033 0.72785
 C1124 C 0.20204 0.62249 0.70260
 C1125 C 0.22772 0.62411 0.69682
 C1126 C 0.24586 0.62382 0.71599
 C1127 C 0.28983 0.62578 0.72840
 C1128 C 0.27135 0.62574 0.70987
 H1129 H 0.30927 0.62739 0.72267
 H1130 H 0.27712 0.62732 0.69041
 H1131 H 0.32217 0.62597 0.76619
 H1132 H 0.26662 0.61899 0.82463
 H1133 H 0.17519 0.61898 0.73298
 H1134 H 0.23363 0.62585 0.67743
 H1135 H 0.23376 0.61827 0.79400
 H1136 H 0.20574 0.61829 0.76590
 C1137 C 0.25853 0.12075 0.26159
 C1138 C 0.28396 0.12285 0.25424
 C1139 C 0.30302 0.12324 0.27249
 C1140 C 0.29715 0.12166 0.29817
 C1141 C 0.27190 0.11945 0.30531
 C1142 C 0.25288 0.11898 0.28737
 C1143 C 0.23872 0.12070 0.24161
 C1144 C 0.21294 0.11889 0.24707
 C1145 C 0.19517 0.11930 0.22790
 C1146 C 0.20248 0.12146 0.20267
 C1147 C 0.22817 0.12306 0.19697
 C1148 C 0.24626 0.12275 0.21620
 C1149 C 0.29020 0.12469 0.22875
 C1150 C 0.27177 0.12464 0.21015
 H1151 H 0.30966 0.12630 0.22307
 H1152 H 0.27760 0.12620 0.19072
 H1153 H 0.32241 0.12500 0.26663
 H1154 H 0.26669 0.11816 0.32492
 H1155 H 0.17554 0.11797 0.23298
 H1156 H 0.23415 0.12479 0.17759
 H1157 H 0.23393 0.11730 0.29419
 H1158 H 0.20599 0.11725 0.26599
 C1159 C 0.75866 0.12125 0.76158
 C1160 C 0.78406 0.12328 0.75411
 C1161 C 0.80320 0.12357 0.77227
 C1162 C 0.79745 0.12194 0.79798
 C1163 C 0.77222 0.11980 0.80523
 C1164 C 0.75312 0.11943 0.78738
 C1165 C 0.73876 0.12131 0.74169
 C1166 C 0.71299 0.11960 0.74726
 C1167 C 0.69514 0.12003 0.72817
 C1168 C 0.70235 0.12213 0.70291
 C1169 C 0.72802 0.12367 0.69711
 C1170 C 0.74619 0.12333 0.71625
 C1171 C 0.79019 0.12514 0.72860
 C1172 C 0.77168 0.12516 0.71009
 H1173 H 0.80963 0.12668 0.72283
 H1174 H 0.77742 0.12671 0.69063
 H1175 H 0.82258 0.12528 0.76634
 H1176 H 0.76709 0.11847 0.82486
 H1177 H 0.67553 0.11876 0.73333
 H1178 H 0.73393 0.12536 0.67770
 H1179 H 0.73419 0.11779 0.79428
 H1180 H 0.70611 0.11801 0.76622
 C1181 C 0.74186 0.87721 0.26099
 C1182 C 0.71648 0.87492 0.25355
 C1183 C 0.69732 0.87467 0.27173
 C1184 C 0.70304 0.87659 0.29742
 C1185 C 0.72825 0.87896 0.30463
 C1186 C 0.74736 0.87929 0.28677
 C1187 C 0.76178 0.87717 0.24108
 C1188 C 0.78752 0.87920 0.24662
 C1189 C 0.80539 0.87878 0.22752
 C1190 C 0.79823 0.87639 0.20228
 C1191 C 0.77257 0.87453 0.19650
 C1192 C 0.75438 0.87485 0.21566
 C1193 C 0.71038 0.87278 0.22805
 C1194 C 0.72891 0.87274 0.20953
 H1195 H 0.69097 0.87102 0.22230
 H1196 H 0.72319 0.87096 0.19009
 H1197 H 0.67795 0.87278 0.26581
 H1198 H 0.73335 0.88051 0.32425
 H1199 H 0.82498 0.88031 0.23267
 H1200 H 0.76670 0.87261 0.17711
 H1201 H 0.76628 0.88112 0.29365
 H1202 H 0.79437 0.88104 0.26556
 C1203 C 0.76125 0.74105 0.37733
 C1204 C 0.75384 0.71562 0.37538
 C1205 C 0.77203 0.69649 0.37515
 C1206 C 0.79769 0.70230 0.37675
 C1207 C 0.80488 0.72755 0.37878
 C1208 C 0.78701 0.74663 0.37910
 C1209 C 0.74134 0.76093 0.37727
 C1210 C 0.74687 0.78671 0.37897
 C1211 C 0.72777 0.80454 0.37855
 C1212 C 0.70254 0.79730 0.37647
 C1213 C 0.69679 0.77161 0.37493
 C1214 C 0.71594 0.75345 0.37527
 C1215 C 0.72836 0.70945 0.37354
 C1216 C 0.70983 0.72795 0.37349
 H1217 H 0.72265 0.68999 0.37205
 H1218 H 0.69040 0.72218 0.37195
 H1219 H 0.76615 0.67709 0.37352
 H1220 H 0.82448 0.73272 0.38010
 H1221 H 0.73289 0.82417 0.37983
 H1222 H 0.67741 0.76569 0.37326
 H1223 H 0.79387 0.76558 0.38066
 H1224 H 0.76579 0.79361 0.38056
 C1225 C 0.76203 0.25768 0.62234
 C1226 C 0.75460 0.28314 0.62390
 C1227 C 0.77278 0.30225 0.62418
 C1228 C 0.79847 0.29642 0.62299
 C1229 C 0.80568 0.27113 0.62136
 C1230 C 0.78782 0.25206 0.62102
 C1231 C 0.74210 0.23783 0.62230
 C1232 C 0.74764 0.21202 0.62096
 C1233 C 0.72851 0.19421 0.62126
 C1234 C 0.70326 0.20151 0.62285
 C1235 C 0.69750 0.22723 0.62401
 C1236 C 0.71668 0.24535 0.62380
 C1237 C 0.72909 0.28936 0.62527
 C1238 C 0.71055 0.27089 0.62522
 H1239 H 0.72335 0.30884 0.62646
 H1240 H 0.69110 0.27670 0.62637
 H1241 H 0.76687 0.32168 0.62549
 H1242 H 0.82531 0.26594 0.62039
 H1243 H 0.73364 0.17457 0.62029
 H1244 H 0.67810 0.23320 0.62531
 H1245 H 0.79469 0.23308 0.61978
 H1246 H 0.76659 0.20507 0.61976
 C1247 C 0.74209 0.73779 0.12152
 C1248 C 0.71669 0.74533 0.12341
 C1249 C 0.69750 0.72722 0.12376
 C1250 C 0.70322 0.70150 0.12237
 C1251 C 0.72845 0.69420 0.12043
 C1252 C 0.74758 0.71199 0.11999
 C1253 C 0.76203 0.75763 0.12140
 C1254 C 0.78779 0.75200 0.11965
 C1255 C 0.80569 0.77105 0.11994
 C1256 C 0.79853 0.79632 0.12194
 C1257 C 0.77286 0.80218 0.12348
 C1258 C 0.75465 0.78309 0.12326
 C1259 C 0.71061 0.77086 0.12508
 C1260 C 0.72917 0.78932 0.12502
 H1261 H 0.69118 0.77668 0.12653
 H1262 H 0.72347 0.80879 0.12644
 H1263 H 0.67812 0.73319 0.12532
 H1264 H 0.73355 0.67455 0.11928
 H1265 H 0.82529 0.76585 0.11869
 H1266 H 0.76699 0.82159 0.12507
 H1267 H 0.76651 0.70503 0.11852
 H1268 H 0.79463 0.73303 0.11813
 C1269 C 0.26191 0.25765 0.12247
 C1270 C 0.25448 0.28310 0.12414
 C1271 C 0.27266 0.30222 0.12434
 C1272 C 0.29835 0.29639 0.12296
 C1273 C 0.30556 0.27112 0.12121
 C1274 C 0.28769 0.25204 0.12094
 C1275 C 0.24200 0.23779 0.12252
 C1276 C 0.24754 0.21199 0.12109
 C1277 C 0.22843 0.19417 0.12143
 C1278 C 0.20317 0.20144 0.12316
 C1279 C 0.19741 0.22715 0.12446
 C1280 C 0.21657 0.24529 0.12420
 C1281 C 0.22898 0.28930 0.12571
 C1282 C 0.21045 0.27082 0.12573
 H1283 H 0.22325 0.30878 0.12699
 H1284 H 0.19101 0.27662 0.12702
 H1285 H 0.26676 0.32164 0.12576
 H1286 H 0.32517 0.26593 0.12009
 H1287 H 0.23357 0.17453 0.12036
 H1288 H 0.17801 0.23310 0.12586
 H1289 H 0.29457 0.23307 0.11960
 H1290 H 0.26648 0.20505 0.11977
 C1291 C 0.26140 0.74146 0.87735
 C1292 C 0.25402 0.71602 0.87537
 C1293 C 0.27224 0.69690 0.87511
 C1294 C 0.29791 0.70273 0.87671
 C1295 C 0.30506 0.72799 0.87875
 C1296 C 0.28715 0.74706 0.87909
 C1297 C 0.24144 0.76132 0.87735
 C1298 C 0.24693 0.78711 0.87909
 C1299 C 0.22779 0.80493 0.87877
 C1300 C 0.20256 0.79768 0.87675
 C1301 C 0.19685 0.77197 0.87515
 C1302 C 0.21604 0.75383 0.87539
 C1303 C 0.22854 0.70983 0.87356
 C1304 C 0.20998 0.72831 0.87357
 H1305 H 0.22284 0.69037 0.87205
 H1306 H 0.19055 0.72252 0.87207
 H1307 H 0.26639 0.67749 0.87347
 H1308 H 0.32465 0.73318 0.88006
 H1309 H 0.23289 0.82456 0.88008
 H1310 H 0.17747 0.76603 0.87352
 H1311 H 0.29399 0.76602 0.88066
 H1312 H 0.26585 0.79403 0.88065
 C1313 C 0.26150 0.24133 0.37740
 C1314 C 0.25410 0.21589 0.37553
 C1315 C 0.27231 0.19678 0.37532
 C1316 C 0.29797 0.20262 0.37686
 C1317 C 0.30514 0.22788 0.37880
 C1318 C 0.28725 0.24695 0.37909
 C1319 C 0.24156 0.26119 0.37735
 C1320 C 0.24706 0.28698 0.37901
 C1321 C 0.22793 0.30479 0.37863
 C1322 C 0.20271 0.29751 0.37664
 C1323 C 0.19698 0.27181 0.37514
 C1324 C 0.21616 0.25368 0.37544
 C1325 C 0.22863 0.20969 0.37376
 C1326 C 0.21008 0.22817 0.37372
 H1327 H 0.22293 0.19022 0.37233
 H1328 H 0.19065 0.22238 0.37224
 H1329 H 0.26644 0.17737 0.37376
 H1330 H 0.32474 0.23306 0.38007
 H1331 H 0.23303 0.32442 0.37988
 H1332 H 0.17761 0.26587 0.37354
 H1333 H 0.29410 0.26591 0.38058
 H1334 H 0.26598 0.29391 0.38054
 C1335 C 0.50850 0.62229 1.01111
 C1336 C 0.53395 0.62259 1.00351
 C1337 C 0.55317 0.62278 1.02161
 C1338 C 0.54742 0.62271 1.04737
 C1339 C 0.52213 0.62222 1.05473
 C1340 C 0.50298 0.62201 1.03696
 C1341 C 0.48854 0.62239 0.99127
 C1342 C 0.46274 0.62228 0.99698
 C1343 C 0.44485 0.62265 0.97793
 C1344 C 0.45205 0.62315 0.95258
 C1345 C 0.47775 0.62310 0.94666
 C1346 C 0.49596 0.62276 0.96576
 C1347 C 0.54006 0.62280 0.97792
 C1348 C 0.52149 0.62287 0.95946
 H1349 H 0.55953 0.62298 0.97205
 H1350 H 0.52722 0.62310 0.93994
 H1351 H 0.57259 0.62306 1.01559
 H1352 H 0.51700 0.62205 1.07441
 H1353 H 0.42522 0.62258 0.98318
 H1354 H 0.48365 0.62341 0.92718
 H1355 H 0.48402 0.62169 1.04396
 H1356 H 0.45588 0.62196 1.01600
 C1357 C 0.48817 0.12264 0.49212
 C1358 C 0.49558 0.12274 0.46660
 C1359 C 0.47737 0.12295 0.44751
 C1360 C 0.45167 0.12312 0.45343
 C1361 C 0.44446 0.12286 0.47878
 C1362 C 0.46236 0.12263 0.49783
 C1363 C 0.50814 0.12267 0.51195
 C1364 C 0.50265 0.12269 0.53781
 C1365 C 0.52183 0.12296 0.55556
 C1366 C 0.54711 0.12322 0.54816
 C1367 C 0.55281 0.12305 0.52239
 C1368 C 0.53359 0.12279 0.50432
 C1369 C 0.52110 0.12270 0.46029
 C1370 C 0.53968 0.12273 0.47873
 H1371 H 0.52681 0.12273 0.44076
 H1372 H 0.55914 0.12277 0.47284
 H1373 H 0.48327 0.12306 0.42803
 H1374 H 0.42483 0.12289 0.48402
 H1375 H 0.51673 0.12300 0.57525
 H1376 H 0.57223 0.12315 0.51634
 H1377 H 0.45550 0.12249 0.51687
 H1378 H 0.48369 0.12255 0.54483
 C1379 C 0.51147 0.87712 0.49124
 C1380 C 0.50402 0.87726 0.46573
 C1381 C 0.52221 0.87695 0.44658
 C1382 C 0.54792 0.87645 0.45244
 C1383 C 0.55515 0.87648 0.47778
 C1384 C 0.53728 0.87680 0.49688
 C1385 C 0.49153 0.87718 0.51112
 C1386 C 0.49709 0.87693 0.53697
 C1387 C 0.47795 0.87671 0.55479
 C1388 C 0.45265 0.87673 0.54748
 C1389 C 0.44688 0.87717 0.52173
 C1390 C 0.46607 0.87737 0.50358
 C1391 C 0.47849 0.87763 0.45950
 C1392 C 0.45994 0.87768 0.47801
 H1393 H 0.47273 0.87780 0.43999
 H1394 H 0.44046 0.87789 0.47218
 H1395 H 0.51629 0.87703 0.42711
 H1396 H 0.57478 0.87619 0.48299
 H1397 H 0.48311 0.87647 0.57445
 H1398 H 0.42744 0.87728 0.51575
 H1399 H 0.54417 0.87674 0.51589
 H1400 H 0.51606 0.87685 0.54393
 C1401 C 1.01181 0.37726 0.49155
 C1402 C 1.00433 0.37725 0.46605
 C1403 C 1.02249 0.37698 0.44690
 C1404 C 1.04820 0.37667 0.45275
 C1405 C 1.05546 0.37686 0.47807
 C1406 C 1.03761 0.37715 0.49718
 C1407 C 0.99190 0.37724 0.51144
 C1408 C 0.99749 0.37710 0.53727
 C1409 C 0.97838 0.37676 0.55511
 C1410 C 0.95308 0.37656 0.54781
 C1411 C 0.94727 0.37690 0.52208
 C1412 C 0.96643 0.37721 0.50392
 C1413 C 0.97879 0.37742 0.45984
 C1414 C 0.96026 0.37740 0.47835
 H1415 H 0.97302 0.37748 0.44033
 H1416 H 0.94078 0.37745 0.47255
 H1417 H 1.01655 0.37693 0.42744
 H1418 H 1.07510 0.37673 0.48327
 H1419 H 0.98356 0.37661 0.57477
 H1420 H 0.92783 0.37684 0.51611
 H1421 H 1.04453 0.37723 0.51618
 H1422 H 1.01647 0.37717 0.54422
 C1423 C -0.00843 0.87706 1.01190
 C1424 C -0.03388 0.87711 1.00436
 C1425 C -0.05310 0.87669 1.02249
 C1426 C -0.04741 0.87616 1.04833
 C1427 C -0.02201 0.87628 1.05556
 C1428 C -0.00289 0.87672 1.03773
 C1429 C 0.01152 0.87723 0.99202
 C1430 C 0.03733 0.87709 0.99767
 C1431 C 0.05521 0.87693 0.97856
 C1432 C 0.04798 0.87690 0.95323
 C1433 C 0.02227 0.87725 0.94737
 C1434 C 0.00408 0.87740 0.96652
 C1435 C -0.04001 0.87748 0.97878
 C1436 C -0.02146 0.87762 0.96028
 H1437 H -0.05948 0.87758 0.97294
 H1438 H -0.02721 0.87782 0.94077
 H1439 H -0.07249 0.87670 1.01634
 H1440 H -0.01667 0.87599 1.07518
 H1441 H 0.07484 0.87676 0.98378
 H1442 H 0.01634 0.87734 0.92791
 H1443 H 0.01608 0.87673 1.04468
 H1444 H 0.04422 0.87704 1.01668
 C1445 C -0.01122 0.12205 -0.00840
 C1446 C -0.00375 0.12244 -0.03390
 C1447 C -0.02193 0.12275 -0.05303
 C1448 C -0.04764 0.12275 -0.04716
 C1449 C -0.05489 0.12221 -0.02183
 C1450 C -0.03703 0.12187 -0.00274
 C1451 C 0.00870 0.12199 0.01147
 C1452 C 0.00313 0.12173 0.03732
 C1453 C 0.02226 0.12198 0.05513
 C1454 C 0.04755 0.12251 0.04781
 C1455 C 0.05335 0.12258 0.02206
 C1456 C 0.03417 0.12235 0.00392
 C1457 C 0.02178 0.12260 -0.04015
 C1458 C 0.04032 0.12256 -0.02166
 H1459 H 0.02755 0.12284 -0.05966
 H1460 H 0.05980 0.12278 -0.02749
 H1461 H -0.01600 0.12308 -0.07250
 H1462 H -0.07452 0.12210 -0.01661
 H1463 H 0.01709 0.12181 0.07479
 H1464 H 0.07278 0.12290 0.01607
 H1465 H -0.04393 0.12152 0.01627
 H1466 H -0.01584 0.12137 0.04429
 C1467 C 0.12274 1.01181 1.00855
 C1468 C 0.12308 1.00424 1.03401
 C1469 C 0.12344 1.02233 1.05325
 C1470 C 0.12356 1.04817 1.04759
 C1471 C 0.12308 1.05543 1.02218
 C1472 C 0.12267 1.03763 1.00303
 C1473 C 0.12264 0.99197 0.98856
 C1474 C 0.12239 0.99765 0.96274
 C1475 C 0.12263 0.97859 0.94482
 C1476 C 0.12312 0.95326 0.95202
 C1477 C 0.12314 0.94737 0.97774
 C1478 C 0.12292 0.96647 0.99598
 C1479 C 0.12315 0.97866 1.04011
 C1480 C 0.12308 0.96020 1.02152
 H1481 H 0.12335 0.97280 1.05959
 H1482 H 0.12324 0.94069 1.02726
 H1483 H 0.12372 1.01616 1.07265
 H1484 H 0.12305 1.07505 1.01685
 H1485 H 0.12249 0.98383 0.92518
 H1486 H 0.12341 0.92790 0.98365
 H1487 H 0.12237 1.04460 0.98404
 H1488 H 0.12208 1.01666 0.95586
 C1489 C 0.12280 0.49164 0.48809
 C1490 C 0.12319 0.46615 0.49555
 C1491 C 0.12353 0.44702 0.47735
 C1492 C 0.12356 0.45288 0.45162
 C1493 C 0.12304 0.47820 0.44438
 C1494 C 0.12267 0.49728 0.46226
 C1495 C 0.12270 0.51151 0.50804
 C1496 C 0.12240 0.53734 0.50248
 C1497 C 0.12263 0.55515 0.52163
 C1498 C 0.12314 0.54784 0.54694
 C1499 C 0.12322 0.52210 0.55273
 C1500 C 0.12302 0.50397 0.53352
 C1501 C 0.12332 0.45992 0.52111
 C1502 C 0.12324 0.47841 0.53967
 H1503 H 0.12356 0.44042 0.52687
 H1504 H 0.12344 0.47258 0.55916
 H1505 H 0.12385 0.42756 0.48328
 H1506 H 0.12294 0.48341 0.42472
 H1507 H 0.12245 0.57481 0.51647
 H1508 H 0.12352 0.51612 0.57217
 H1509 H 0.12233 0.51628 0.45536
 H1510 H 0.12206 0.54430 0.48349
 C1511 C 0.37773 0.49154 1.01161
 C1512 C 0.37775 0.46604 1.00414
 C1513 C 0.37754 0.44691 1.02234
 C1514 C 0.37728 0.45277 1.04808
 C1515 C 0.37748 0.47810 1.05533
 C1516 C 0.37770 0.49718 1.03745
 C1517 C 0.37760 0.51140 0.99166
 C1518 C 0.37737 0.53724 0.99722
 C1519 C 0.37698 0.55504 0.97806
 C1520 C 0.37681 0.54771 0.95274
 C1521 C 0.37721 0.52197 0.94696
 C1522 C 0.37758 0.50385 0.96617
 C1523 C 0.37789 0.45980 0.97858
 C1524 C 0.37782 0.47828 0.96002
 H1525 H 0.37797 0.44030 0.97282
 H1526 H 0.37785 0.47245 0.94053
 H1527 H 0.37750 0.42745 1.01640
 H1528 H 0.37740 0.48331 1.07498
 H1529 H 0.37677 0.57470 0.98322
 H1530 H 0.37718 0.51597 0.92751
 H1531 H 0.37779 0.51619 1.04435
 H1532 H 0.37741 0.54421 1.01621
 C1533 C 0.87768 0.51135 0.49174
 C1534 C 0.87754 0.50379 0.46625
 C1535 C 0.87716 0.52191 0.44706
 C1536 C 0.87685 0.54764 0.45285
 C1537 C 0.87713 0.55498 0.47816
 C1538 C 0.87754 0.53718 0.49731
 C1539 C 0.87778 0.49150 0.51168
 C1540 C 0.87783 0.49717 0.53751
 C1541 C 0.87757 0.47810 0.55538
 C1542 C 0.87726 0.45278 0.54813
 C1543 C 0.87746 0.44690 0.52241
 C1544 C 0.87770 0.46601 0.50421
 C1545 C 0.87769 0.47823 0.46010
 C1546 C 0.87775 0.45975 0.47865
 H1547 H 0.87765 0.47239 0.44060
 H1548 H 0.87776 0.44025 0.47289
 H1549 H 0.87703 0.51592 0.42760
 H1550 H 0.87700 0.57464 0.48333
 H1551 H 0.87755 0.48332 0.57504
 H1552 H 0.87733 0.42743 0.51647
 H1553 H 0.87768 0.54416 0.51630
 H1554 H 0.87799 0.51618 0.54441
 C1555 C 0.87834 1.01088 -0.00867
 C1556 C 0.87857 1.00338 -0.03417
 C1557 C 0.87824 1.02153 -0.05333
 C1558 C 0.87762 1.04725 -0.04749
 C1559 C 0.87759 1.05453 -0.02216
 C1560 C 0.87794 1.03670 -0.00305
 C1561 C 0.87836 0.99099 0.01122
 C1562 C 0.87799 0.99661 0.03706
 C1563 C 0.87768 0.97750 0.05490
 C1564 C 0.87773 0.95219 0.04759
 C1565 C 0.87832 0.94636 0.02186
 C1566 C 0.87861 0.96551 0.00370
 C1567 C 0.87903 0.97783 -0.04038
 C1568 C 0.87905 0.95932 -0.02186
 H1569 H 0.87928 0.97204 -0.05989
 H1570 H 0.87931 0.93982 -0.02766
 H1571 H 0.87838 1.01558 -0.07280
 H1572 H 0.87722 1.07417 -0.01695
 H1573 H 0.87733 0.98268 0.07456
 H1574 H 0.87847 0.92691 0.01589
 H1575 H 0.87783 1.04364 0.01596
 H1576 H 0.87786 1.01560 0.04401
 C1577 C 0.62232 -0.00863 0.48795
 C1578 C 0.62330 -0.03411 0.49540
 C1579 C 0.62371 -0.05323 0.47719
 C1580 C 0.62325 -0.04737 0.45146
 C1581 C 0.62217 -0.02206 0.44423
 C1582 C 0.62170 -0.00299 0.46212
 C1583 C 0.62218 0.01124 0.50790
 C1584 C 0.62126 0.03706 0.50234
 C1585 C 0.62156 0.05487 0.52149
 C1586 C 0.62277 0.04758 0.54678
 C1587 C 0.62341 0.02186 0.55256
 C1588 C 0.62315 0.00371 0.53337
 C1589 C 0.62399 -0.04033 0.52095
 C1590 C 0.62394 -0.02184 0.53951
 H1591 H 0.62470 -0.05982 0.52670
 H1592 H 0.62461 -0.02765 0.55899
 H1593 H 0.62449 -0.07268 0.48310
 H1594 H 0.62167 -0.01685 0.42459
 H1595 H 0.62090 0.07452 0.51633
 H1596 H 0.62424 0.01589 0.57200
 H1597 H 0.62092 0.01600 0.45523
 H1598 H 0.62037 0.04400 0.48337
 C1599 C 0.49173 1.01127 0.37809
 C1600 C 0.46626 1.00376 0.37778
 C1601 C 0.44712 1.02192 0.37753
 C1602 C 0.45293 1.04764 0.37752
 C1603 C 0.47822 1.05493 0.37802
 C1604 C 0.49732 1.03710 0.37831
 C1605 C 0.51162 0.99138 0.37799
 C1606 C 0.53742 0.99700 0.37816
 C1607 C 0.55526 0.97790 0.37767
 C1608 C 0.54799 0.95259 0.37699
 C1609 C 0.52229 0.94675 0.37706
 C1610 C 0.50413 0.96590 0.37753
 C1611 C 0.46008 0.97821 0.37757
 C1612 C 0.47859 0.95970 0.37745
 H1613 H 0.44060 0.97242 0.37740
 H1614 H 0.47281 0.94020 0.37718
 H1615 H 0.42768 1.01595 0.37723
 H1616 H 0.48338 1.07459 0.37814
 H1617 H 0.57490 0.98309 0.37776
 H1618 H 0.51635 0.92730 0.37666
 H1619 H 0.51630 1.04404 0.37862
 H1620 H 0.54435 1.01598 0.37860
 C1621 C -0.00759 -0.01268 0.12219
 C1622 C -0.03306 -0.00518 0.12280
 C1623 C -0.05219 -0.02335 0.12311
 C1624 C -0.04636 -0.04908 0.12289
 C1625 C -0.02106 -0.05635 0.12214
 C1626 C -0.00197 -0.03850 0.12179
 C1627 C 0.01228 0.00724 0.12215
 C1628 C 0.03809 0.00165 0.12164
 C1629 C 0.05590 0.02077 0.12195
 C1630 C 0.04861 0.04607 0.12276
 C1631 C 0.02289 0.05188 0.12305
 C1632 C 0.00475 0.03271 0.12277
 C1633 C -0.03928 0.02036 0.12321
 C1634 C -0.02079 0.03889 0.12320
 H1635 H -0.05877 0.02615 0.12363
 H1636 H -0.02660 0.05838 0.12362
 H1637 H -0.07163 -0.01740 0.12362
 H1638 H -0.01587 -0.07600 0.12185
 H1639 H 0.07555 0.01559 0.12159
 H1640 H 0.01692 0.07133 0.12359
 H1641 H 0.01702 -0.04542 0.12127
 H1642 H 0.04503 -0.01733 0.12106
 C1643 C 0.51198 0.50762 0.12209
 C1644 C 0.50451 0.53312 0.12255
 C1645 C 0.52269 0.55225 0.12273
 C1646 C 0.54839 0.54638 0.12249
 C1647 C 0.55564 0.52106 0.12182
 C1648 C 0.53779 0.50198 0.12162
 C1649 C 0.49207 0.48775 0.12225
 C1650 C 0.49765 0.46191 0.12204
 C1651 C 0.47853 0.44410 0.12248
 C1652 C 0.45324 0.45143 0.12313
 C1653 C 0.44745 0.47717 0.12318
 C1654 C 0.46662 0.49530 0.12278
 C1655 C 0.47898 0.53935 0.12292
 C1656 C 0.46045 0.52086 0.12301
 H1657 H 0.47321 0.55885 0.12321
 H1658 H 0.44097 0.52668 0.12337
 H1659 H 0.51676 0.57171 0.12315
 H1660 H 0.57527 0.51584 0.12151
 H1661 H 0.48369 0.42444 0.12233
 H1662 H 0.42802 0.48316 0.12361
 H1663 H 0.54469 0.48298 0.12115
 H1664 H 0.51662 0.45495 0.12160
 C1665 C -0.00808 0.48804 0.62251
 C1666 C -0.03356 0.49552 0.62294
 C1667 C -0.05268 0.47734 0.62323
 C1668 C -0.04682 0.45162 0.62317
 C1669 C -0.02152 0.44436 0.62260
 C1670 C -0.00244 0.46222 0.62227
 C1671 C 0.01178 0.50796 0.62248
 C1672 C 0.03760 0.50238 0.62216
 C1673 C 0.05540 0.52151 0.62246
 C1674 C 0.04809 0.54682 0.62309
 C1675 C 0.02236 0.55262 0.62320
 C1676 C 0.00424 0.53344 0.62293
 C1677 C -0.03979 0.52107 0.62317
 C1678 C -0.02131 0.53960 0.62318
 H1679 H -0.05928 0.52684 0.62345
 H1680 H -0.02713 0.55909 0.62346
 H1681 H -0.07212 0.48329 0.62359
 H1682 H -0.01631 0.42471 0.62243
 H1683 H 0.07505 0.51634 0.62225
 H1684 H 0.01638 0.57206 0.62359
 H1685 H 0.01655 0.45530 0.62189
 H1686 H 0.04456 0.48340 0.62174
 C1687 C 0.49195 0.51142 0.87761
 C1688 C 0.46648 0.50391 0.87787
 C1689 C 0.44731 0.52206 0.87759
 C1690 C 0.45310 0.54779 0.87699
 C1691 C 0.47840 0.55508 0.87693
 C1692 C 0.49753 0.53725 0.87724
 C1693 C 0.51186 0.49151 0.87759
 C1694 C 0.53767 0.49712 0.87719
 C1695 C 0.55551 0.47800 0.87687
 C1696 C 0.54825 0.45268 0.87692
 C1697 C 0.52254 0.44685 0.87752
 C1698 C 0.50438 0.46602 0.87783
 C1699 C 0.46032 0.47835 0.87831
 C1700 C 0.47884 0.45983 0.87828
 H1701 H 0.44084 0.47255 0.87857
 H1702 H 0.47306 0.44034 0.87853
 H1703 H 0.42788 0.51609 0.87774
 H1704 H 0.48356 0.57473 0.87658
 H1705 H 0.57514 0.48320 0.87651
 H1706 H 0.51660 0.42740 0.87767
 H1707 H 0.51651 0.54418 0.87711
 H1708 H 0.54458 0.51611 0.87706
 C1709 C 0.62287 0.51167 1.00834
 C1710 C 0.62306 0.50419 1.03382
 C1711 C 0.62333 0.52235 1.05300
 C1712 C 0.62347 0.54817 1.04725
 C1713 C 0.62308 0.55534 1.02182
 C1714 C 0.62278 0.53748 1.00273
 C1715 C 0.62290 0.49177 0.98842
 C1716 C 0.62287 0.49736 0.96258
 C1717 C 0.62321 0.47824 0.94473
 C1718 C 0.62357 0.45293 0.95202
 C1719 C 0.62340 0.44712 0.97777
 C1720 C 0.62310 0.46629 0.99593
 C1721 C 0.62308 0.47864 1.04002
 C1722 C 0.62310 0.46011 1.02150
 H1723 H 0.62318 0.47284 1.05952
 H1724 H 0.62320 0.44062 1.02730
 H1725 H 0.62352 0.51625 1.07242
 H1726 H 0.62306 0.57495 1.01643
 H1727 H 0.62322 0.48341 0.92507
 H1728 H 0.62360 0.42768 0.98374
 H1729 H 0.62255 0.54439 0.98372
 H1730 H 0.62267 0.51635 0.95563
 C1731 C 0.37756 1.01200 0.49136
 C1732 C 0.37757 1.00446 0.46589
 C1733 C 0.37725 1.02258 0.44667
 C1734 C 0.37684 1.04841 0.45238
 C1735 C 0.37699 1.05564 0.47780
 C1736 C 0.37735 1.03781 0.49693
 C1737 C 0.37760 0.99213 0.51132
 C1738 C 0.37751 0.99777 0.53716
 C1739 C 0.37721 0.97869 0.55504
 C1740 C 0.37699 0.95336 0.54779
 C1741 C 0.37731 0.94750 0.52205
 C1742 C 0.37760 0.96663 0.50385
 C1743 C 0.37778 0.97889 0.45974
 C1744 C 0.37779 0.96040 0.47829
 H1745 H 0.37785 0.97305 0.44024
 H1746 H 0.37785 0.94090 0.47252
 H1747 H 0.37723 1.01643 0.42726
 H1748 H 0.37679 1.07525 0.48316
 H1749 H 0.37709 0.98391 0.57469
 H1750 H 0.37725 0.92804 0.51611
 H1751 H 0.37738 1.04477 0.51593
 H1752 H 0.37761 1.01678 0.54407
 C1753 C -0.01189 0.62243 0.49180
 C1754 C -0.00441 0.62264 0.46630
 C1755 C -0.02258 0.62290 0.44716
 C1756 C -0.04829 0.62302 0.45301
 C1757 C -0.05556 0.62266 0.47834
 C1758 C -0.03770 0.62237 0.49744
 C1759 C 0.00803 0.62243 0.51167
 C1760 C 0.00246 0.62232 0.53752
 C1761 C 0.02159 0.62263 0.55533
 C1762 C 0.04688 0.62305 0.54800
 C1763 C 0.05267 0.62296 0.52225
 C1764 C 0.03349 0.62267 0.50412
 C1765 C 0.02113 0.62269 0.46006
 C1766 C 0.03966 0.62271 0.47855
 H1767 H 0.02689 0.62280 0.44054
 H1768 H 0.05913 0.62284 0.47272
 H1769 H -0.01663 0.62310 0.42770
 H1770 H -0.07520 0.62264 0.48354
 H1771 H 0.01642 0.62258 0.57500
 H1772 H 0.07211 0.62319 0.51626
 H1773 H -0.04462 0.62216 0.51646
 H1774 H -0.01652 0.62206 0.54449
 C1775 C 0.49214 0.37736 1.01173
 C1776 C 0.46669 0.37718 1.00413
 C1777 C 0.44748 0.37680 1.02223
 C1778 C 0.45321 0.37652 1.04798
 C1779 C 0.47849 0.37687 1.05535
 C1780 C 0.49765 0.37728 1.03758
 C1781 C 0.51210 0.37746 0.99190
 C1782 C 0.53790 0.37754 0.99761
 C1783 C 0.55580 0.37727 0.97855
 C1784 C 0.54861 0.37691 0.95321
 C1785 C 0.52292 0.37707 0.94729
 C1786 C 0.50470 0.37732 0.96638
 C1787 C 0.46060 0.37727 0.97854
 C1788 C 0.47918 0.37733 0.96009
 H1789 H 0.44114 0.37720 0.97268
 H1790 H 0.47347 0.37730 0.94056
 H1791 H 0.42805 0.37662 1.01621
 H1792 H 0.48360 0.37677 1.07503
 H1793 H 0.57543 0.37728 0.98380
 H1794 H 0.51703 0.37690 0.92781
 H1795 H 0.51660 0.37746 1.04458
 H1796 H 0.54476 0.37775 1.01663
 C1797 C 0.49190 -0.01186 0.62249
 C1798 C 0.46644 -0.00427 0.62274
 C1799 C 0.44725 -0.02237 0.62294
 C1800 C 0.45300 -0.04812 0.62297
 C1801 C 0.47828 -0.05548 0.62255
 C1802 C 0.49743 -0.03770 0.62231
 C1803 C 0.51184 0.00798 0.62256
 C1804 C 0.53764 0.00230 0.62246
 C1805 C 0.55551 0.02136 0.62281
 C1806 C 0.54829 0.04669 0.62327
 C1807 C 0.52259 0.05259 0.62320
 C1808 C 0.50440 0.03349 0.62287
 C1809 C 0.46032 0.02130 0.62287
 C1810 C 0.47887 0.03976 0.62294
 H1811 H 0.44085 0.02715 0.62301
 H1812 H 0.47313 0.05927 0.62313
 H1813 H 0.42782 -0.01634 0.62318
 H1814 H 0.48340 -0.07515 0.62246
 H1815 H 0.57514 0.01612 0.62275
 H1816 H 0.51668 0.07206 0.62347
 H1817 H 0.51640 -0.04470 0.62205
 H1818 H 0.54452 -0.01671 0.62216
 C1819 C -0.00815 0.51145 0.37812
 C1820 C -0.03362 0.50397 0.37742
 C1821 C -0.05274 0.52215 0.37705
 C1822 C -0.04690 0.54786 0.37730
 C1823 C -0.02162 0.55512 0.37820
 C1824 C -0.00253 0.53726 0.37861
 C1825 C 0.01172 0.49153 0.37811
 C1826 C 0.03752 0.49712 0.37863
 C1827 C 0.05535 0.47801 0.37819
 C1828 C 0.04807 0.45272 0.37724
 C1829 C 0.02236 0.44690 0.37698
 C1830 C 0.00421 0.46606 0.37738
 C1831 C -0.03982 0.47843 0.37695
 C1832 C -0.02133 0.45989 0.37693
 H1833 H -0.05931 0.47266 0.37648
 H1834 H -0.02712 0.44041 0.37644
 H1835 H -0.07218 0.51621 0.37645
 H1836 H -0.01643 0.57477 0.37854
 H1837 H 0.07499 0.48319 0.37854
 H1838 H 0.01641 0.42746 0.37634
 H1839 H 0.01645 0.54418 0.37923
 H1840 H 0.04446 0.51610 0.37929
 C1841 C -0.00847 1.01195 0.87740
 C1842 C -0.03393 1.00448 0.87744
 C1843 C -0.05309 1.02265 0.87710
 C1844 C -0.04735 1.04847 0.87667
 C1845 C -0.02194 1.05564 0.87680
 C1846 C -0.00286 1.03776 0.87715
 C1847 C 0.01142 0.99202 0.87748
 C1848 C 0.03724 0.99760 0.87735
 C1849 C 0.05506 0.97847 0.87711
 C1850 C 0.04779 0.95315 0.87699
 C1851 C 0.02207 0.94735 0.87732
 C1852 C 0.00392 0.96654 0.87755
 C1853 C -0.04013 0.97892 0.87771
 C1854 C -0.02163 0.96038 0.87776
 H1855 H -0.05961 0.97314 0.87781
 H1856 H -0.02743 0.94089 0.87789
 H1857 H -0.07249 1.01655 0.87711
 H1858 H -0.01656 1.07524 0.87657
 H1859 H 0.07471 0.98365 0.87696
 H1860 H 0.01611 0.92791 0.87733
 H1861 H 0.01613 1.04466 0.87717
 H1862 H 0.04418 1.01659 0.87738
 C1863 C 0.75841 0.62143 0.26114
 C1864 C 0.78385 0.62336 0.25379
 C1865 C 0.80289 0.62376 0.27206
 C1866 C 0.79699 0.62235 0.29774
 C1867 C 0.77172 0.62037 0.30487
 C1868 C 0.75272 0.61989 0.28692
 C1869 C 0.73863 0.62128 0.24113
 C1870 C 0.71284 0.61954 0.24658
 C1871 C 0.69509 0.61983 0.22739
 C1872 C 0.70243 0.62181 0.20215
 C1873 C 0.72813 0.62333 0.19647
 C1874 C 0.74620 0.62313 0.21571
 C1875 C 0.79013 0.62501 0.22829
 C1876 C 0.77172 0.62491 0.20968
 H1877 H 0.80960 0.62650 0.22263
 H1878 H 0.77757 0.62631 0.19024
 H1879 H 0.82231 0.62535 0.26622
 H1880 H 0.76649 0.61921 0.32449
 H1881 H 0.67546 0.61856 0.23247
 H1882 H 0.73412 0.62492 0.17708
 H1883 H 0.73375 0.61839 0.29373
 H1884 H 0.70586 0.61803 0.26551
 C1885 C 0.26128 0.87876 0.74141
 C1886 C 0.25379 0.87656 0.71601
 C1887 C 0.27192 0.87623 0.69679
 C1888 C 0.29760 0.87795 0.70248
 C1889 C 0.30486 0.88027 0.72771
 C1890 C 0.28705 0.88070 0.74687
 C1891 C 0.24144 0.87872 0.76140
 C1892 C 0.24703 0.88062 0.78717
 C1893 C 0.22798 0.88015 0.80510
 C1894 C 0.20275 0.87783 0.79796
 C1895 C 0.19694 0.87612 0.77228
 C1896 C 0.21603 0.87650 0.75403
 C1897 C 0.22830 0.87454 0.70996
 C1898 C 0.20984 0.87452 0.72854
 H1899 H 0.22251 0.87286 0.69053
 H1900 H 0.19040 0.87282 0.72286
 H1901 H 0.26598 0.87437 0.67741
 H1902 H 0.32447 0.88171 0.73280
 H1903 H 0.23316 0.88155 0.82471
 H1904 H 0.17755 0.87428 0.76642
 H1905 H 0.29397 0.88247 0.76580
 H1906 H 0.26597 0.88238 0.79399
 C1907 C 0.24163 0.37787 0.26113
 C1908 C 0.21625 0.37538 0.25373
 C1909 C 0.19714 0.37499 0.27193
 C1910 C 0.20291 0.37695 0.29760
 C1911 C 0.22810 0.37951 0.30478
 C1912 C 0.24717 0.37999 0.28690
 C1913 C 0.26150 0.37794 0.24121
 C1914 C 0.28723 0.38015 0.24674
 C1915 C 0.30508 0.37973 0.22764
 C1916 C 0.29790 0.37717 0.20242
 C1917 C 0.27225 0.37520 0.19666
 C1918 C 0.25409 0.37550 0.21581
 C1919 C 0.21013 0.37316 0.22824
 C1920 C 0.22863 0.37322 0.20970
 H1921 H 0.19072 0.37127 0.22253
 H1922 H 0.22291 0.37136 0.19027
 H1923 H 0.17778 0.37296 0.26605
 H1924 H 0.23323 0.38111 0.32439
 H1925 H 0.32467 0.38138 0.23276
 H1926 H 0.26639 0.37314 0.17728
 H1927 H 0.26607 0.38196 0.29375
 H1928 H 0.29409 0.38211 0.26566
 C1929 C 0.87818 0.74088 0.26119
 C1930 C 0.87609 0.71547 0.25371
 C1931 C 0.87580 0.69631 0.27187
 C1932 C 0.87747 0.70208 0.29756
 C1933 C 0.87970 0.72731 0.30481
 C1934 C 0.88008 0.74641 0.28698
 C1935 C 0.87812 0.76081 0.24133
 C1936 C 0.87989 0.78658 0.24693
 C1937 C 0.87947 0.80446 0.22786
 C1938 C 0.87733 0.79726 0.20261
 C1939 C 0.87570 0.77159 0.19678
 C1940 C 0.87603 0.75339 0.21589
 C1941 C 0.87417 0.70936 0.22820
 C1942 C 0.87415 0.72790 0.20971
 H1943 H 0.87257 0.68993 0.22242
 H1944 H 0.87255 0.72219 0.19025
 H1945 H 0.87402 0.67693 0.26595
 H1946 H 0.88110 0.73243 0.32444
 H1947 H 0.88080 0.82407 0.23303
 H1948 H 0.87399 0.76570 0.17737
 H1949 H 0.88179 0.76534 0.29389
 H1950 H 0.88152 0.79344 0.26589
 C1951 C 0.62312 0.26130 0.75821
 C1952 C 0.62473 0.25391 0.78369
 C1953 C 0.62496 0.27214 0.80279
 C1954 C 0.62366 0.29783 0.79692
 C1955 C 0.62198 0.30499 0.77162
 C1956 C 0.62169 0.28708 0.75256
 C1957 C 0.62312 0.24132 0.73837
 C1958 C 0.62172 0.24680 0.71255
 C1959 C 0.62202 0.22764 0.69476
 C1960 C 0.62368 0.20239 0.70208
 C1961 C 0.62494 0.19668 0.72781
 C1962 C 0.62472 0.21590 0.74592
 C1963 C 0.62621 0.22842 0.78994
 C1964 C 0.62620 0.20983 0.77147
 H1965 H 0.62745 0.22272 0.80943
 H1966 H 0.62743 0.19039 0.77730
 H1967 H 0.62632 0.26627 0.82223
 H1968 H 0.62093 0.32461 0.76641
 H1969 H 0.62099 0.23274 0.67510
 H1970 H 0.62629 0.17728 0.73379
 H1971 H 0.62040 0.29391 0.73357
 H1972 H 0.62045 0.26574 0.70558
 C1973 C 0.76198 0.24138 0.87782
 C1974 C 0.75458 0.21595 0.87581
 C1975 C 0.77279 0.19682 0.87543
 C1976 C 0.79847 0.20263 0.87693
 C1977 C 0.80564 0.22789 0.87899
 C1978 C 0.78775 0.24697 0.87945
 C1979 C 0.74203 0.26125 0.87795
 C1980 C 0.74753 0.28703 0.87978
 C1981 C 0.72840 0.30486 0.87949
 C1982 C 0.70317 0.29761 0.87742
 C1983 C 0.69744 0.27192 0.87581
 C1984 C 0.71663 0.25377 0.87602
 C1985 C 0.72910 0.20977 0.87407
 C1986 C 0.71055 0.22826 0.87416
 H1987 H 0.72339 0.19032 0.87253
 H1988 H 0.69112 0.22248 0.87267
 H1989 H 0.76691 0.17742 0.87379
 H1990 H 0.82525 0.23305 0.88022
 H1991 H 0.73350 0.32448 0.88083
 H1992 H 0.67807 0.26598 0.87415
 H1993 H 0.79460 0.26592 0.88102
 H1994 H 0.76645 0.29394 0.88137
 C1995 C 0.26128 0.75850 0.62233
 C1996 C 0.25387 0.78395 0.62409
 C1997 C 0.27206 0.80306 0.62432
 C1998 C 0.29774 0.79722 0.62287
 C1999 C 0.30493 0.77194 0.62104
 C2000 C 0.28705 0.75288 0.62075
 C2001 C 0.24136 0.73865 0.62236
 C2002 C 0.24689 0.71285 0.62083
 C2003 C 0.22777 0.69504 0.62117
 C2004 C 0.20253 0.70231 0.62300
 C2005 C 0.19677 0.72802 0.62438
 C2006 C 0.21594 0.74616 0.62412
 C2007 C 0.22837 0.79016 0.62572
 C2008 C 0.20983 0.77169 0.62573
 H2009 H 0.22265 0.80963 0.62708
 H2010 H 0.19039 0.77749 0.62709
 H2011 H 0.26618 0.82248 0.62579
 H2012 H 0.32454 0.76674 0.61987
 H2013 H 0.23291 0.67541 0.62003
 H2014 H 0.17737 0.73397 0.62585
 H2015 H 0.29391 0.73391 0.61934
 H2016 H 0.26582 0.70591 0.61944
   
