data_POSCAR
  _audit_creation_date              2014-09-24
  _audit_creation_method            'ToBaCCo'
  _symmetry_space_group_name_H-M    'P1'
  _symmetry_Int_Tables_number       1
  _symmetry_cell_setting            triclinic
  loop_
  _symmetry_equiv_pos_as_xyz
 x,y,z
_cell_length_a 81.1633
_cell_length_b 81.1027
_cell_length_c 81.0868
_cell_angle_alpha 90.122000
_cell_angle_beta 89.717000
_cell_angle_gamma 89.967700
loop_
  _atom_site_label
  _atom_site_type_symbol
  _atom_site_fract_x
  _atom_site_fract_y
  _atom_site_fract_z
C1 C 0.20664 0.19772 0.22156
 C2 C 0.19321 0.20055 0.23214
 C3 C 0.18241 0.21381 0.22940
 C4 C 0.18517 0.22428 0.21586
 C5 C 0.19852 0.22158 0.20514
 C6 C 0.20932 0.20826 0.20799
 C7 C 0.21743 0.18451 0.22433
 C8 C 0.23085 0.18162 0.21366
 C9 C 0.23342 0.19216 0.20015
 C10 C 0.22278 0.20547 0.19727
 C11 C 0.22537 0.21602 0.18382
 C12 C 0.21463 0.22929 0.18087
 C13 C 0.20122 0.23197 0.19159
 H14 H 0.19127 0.19254 0.24266
 H15 H 0.17678 0.23441 0.21354
 H16 H 0.21525 0.17631 0.23465
 H17 H 0.24385 0.19013 0.19199
 H18 H 0.23562 0.21377 0.17549
 H19 H 0.19301 0.24229 0.18951
 C20 C 0.70570 0.69806 0.72283
 C21 C 0.69221 0.70089 0.73335
 C22 C 0.68138 0.71411 0.73051
 C23 C 0.68417 0.72454 0.71695
 C24 C 0.69758 0.72184 0.70630
 C25 C 0.70841 0.70857 0.70926
 C26 C 0.71652 0.68490 0.72570
 C27 C 0.73003 0.68202 0.71513
 C28 C 0.73263 0.69256 0.70161
 C29 C 0.72195 0.70581 0.69863
 C30 C 0.72456 0.71632 0.68514
 C31 C 0.71380 0.72954 0.68210
 C32 C 0.70032 0.73221 0.69274
 H33 H 0.69025 0.69291 0.74389
 H34 H 0.67576 0.73463 0.71456
 H35 H 0.71454 0.67701 0.73630
 H36 H 0.74285 0.69031 0.69325
 H37 H 0.73487 0.71408 0.67688
 H38 H 0.69209 0.74250 0.69058
 C39 C 0.29250 0.80199 0.72208
 C40 C 0.30553 0.79901 0.73298
 C41 C 0.31613 0.78548 0.73060
 C42 C 0.31349 0.77482 0.71717
 C43 C 0.30054 0.77768 0.70614
 C44 C 0.29007 0.79138 0.70854
 C45 C 0.28195 0.81549 0.72450
 C46 C 0.26894 0.81883 0.71345
 C47 C 0.26682 0.80812 0.69983
 C48 C 0.27719 0.79447 0.69738
 C49 C 0.27476 0.78378 0.68399
 C50 C 0.28507 0.77003 0.68157
 C51 C 0.29796 0.76710 0.69270
 H52 H 0.30734 0.80713 0.74346
 H53 H 0.32169 0.76445 0.71515
 H54 H 0.28445 0.82375 0.73469
 H55 H 0.25666 0.80984 0.69142
 H56 H 0.26468 0.78601 0.67556
 H57 H 0.30612 0.75667 0.69079
 C58 C 0.79466 0.30117 0.22199
 C59 C 0.80822 0.29858 0.23233
 C60 C 0.81876 0.28485 0.23012
 C61 C 0.81534 0.27383 0.21703
 C62 C 0.80189 0.27636 0.20653
 C63 C 0.79147 0.29003 0.20905
 C64 C 0.78415 0.31471 0.22451
 C65 C 0.77048 0.31726 0.21424
 C66 C 0.76742 0.30612 0.20131
 C67 C 0.77784 0.29257 0.19862
 C68 C 0.77486 0.28154 0.18564
 C69 C 0.78534 0.26799 0.18286
 C70 C 0.79882 0.26548 0.19342
 H71 H 0.80999 0.30698 0.24256
 H72 H 0.82347 0.26354 0.21445
 H73 H 0.78648 0.32315 0.23462
 H74 H 0.75704 0.30814 0.19319
 H75 H 0.76427 0.28343 0.17777
 H76 H 0.80709 0.25519 0.19127
 C77 C 0.79231 0.70018 0.27583
 C78 C 0.80550 0.70314 0.26499
 C79 C 0.81665 0.71626 0.26771
 C80 C 0.81404 0.72644 0.28169
 C81 C 0.80087 0.72362 0.29258
 C82 C 0.78999 0.71043 0.28969
 C83 C 0.78149 0.68697 0.27309
 C84 C 0.76842 0.68383 0.28408
 C85 C 0.76614 0.69415 0.29784
 C86 C 0.77677 0.70747 0.30067
 C87 C 0.77440 0.71788 0.31431
 C88 C 0.78511 0.73118 0.31719
 C89 C 0.79836 0.73392 0.30630
 H90 H 0.80735 0.69464 0.25484
 H91 H 0.82181 0.73705 0.28389
 H92 H 0.78337 0.67894 0.26253
 H93 H 0.75595 0.69190 0.30624
 H94 H 0.76430 0.71555 0.32279
 H95 H 0.80657 0.74425 0.30837
 C96 C 0.29430 0.20114 -0.22499
 C97 C 0.30782 0.20387 -0.23547
 C98 C 0.31849 0.21744 -0.23306
 C99 C 0.31519 0.22819 -0.21969
 C100 C 0.30179 0.22550 -0.20904
 C101 C 0.29128 0.21195 -0.21170
 C102 C 0.28367 0.18777 -0.22769
 C103 C 0.27010 0.18497 -0.21719
 C104 C 0.26728 0.19576 -0.20387
 C105 C 0.27775 0.20922 -0.20107
 C106 C 0.27492 0.21996 -0.18778
 C107 C 0.28545 0.23342 -0.18491
 C108 C 0.29886 0.23610 -0.19563
 H109 H 0.30950 0.19570 -0.24592
 H110 H 0.32340 0.23835 -0.21700
 H111 H 0.28583 0.17965 -0.23811
 H112 H 0.25703 0.19357 -0.19554
 H113 H 0.26438 0.21794 -0.17977
 H114 H 0.30718 0.24630 -0.19341
 C115 C 0.70619 0.30114 -0.22059
 C116 C 0.69302 0.29838 -0.23138
 C117 C 0.68247 0.28464 -0.22945
 C118 C 0.68560 0.27365 -0.21630
 C119 C 0.69865 0.27636 -0.20534
 C120 C 0.70898 0.29016 -0.20747
 C121 C 0.71669 0.31470 -0.22281
 C122 C 0.72989 0.31754 -0.21200
 C123 C 0.73245 0.30662 -0.19880
 C124 C 0.72211 0.29297 -0.19648
 C125 C 0.72469 0.28208 -0.18333
 C126 C 0.71438 0.26834 -0.18104
 C127 C 0.70142 0.26555 -0.19215
 H128 H 0.69151 0.30671 -0.24168
 H129 H 0.67750 0.26331 -0.21399
 H130 H 0.71473 0.32293 -0.23314
 H131 H 0.74241 0.30885 -0.19022
 H132 H 0.73486 0.28418 -0.17497
 H133 H 0.69331 0.25508 -0.19036
 C134 C 0.20399 0.80154 0.27945
 C135 C 0.19068 0.79884 0.26879
 C136 C 0.18007 0.78534 0.27113
 C137 C 0.18291 0.77448 0.28431
 C138 C 0.19616 0.77701 0.29505
 C139 C 0.20676 0.79059 0.29260
 C140 C 0.21462 0.81496 0.27702
 C141 C 0.22819 0.81776 0.28756
 C142 C 0.23068 0.80664 0.30074
 C143 C 0.22011 0.79320 0.30331
 C144 C 0.22268 0.78236 0.31652
 C145 C 0.21215 0.76884 0.31908
 C146 C 0.19893 0.76623 0.30825
 H147 H 0.18869 0.80714 0.25854
 H148 H 0.17466 0.76416 0.28632
 H149 H 0.21258 0.82273 0.26640
 H150 H 0.24045 0.80868 0.30955
 H151 H 0.23303 0.78430 0.32469
 H152 H 0.19065 0.75593 0.31024
 C153 C 0.44942 0.45769 0.47152
 C154 C 0.45256 0.44456 0.48229
 C155 C 0.46603 0.43396 0.47960
 C156 C 0.47641 0.43666 0.46593
 C157 C 0.47341 0.44971 0.45502
 C158 C 0.45987 0.46029 0.45783
 C159 C 0.43597 0.46824 0.47422
 C160 C 0.43277 0.48138 0.46339
 C161 C 0.44326 0.48387 0.44976
 C162 C 0.45679 0.47346 0.44694
 C163 C 0.46726 0.47598 0.43336
 C164 C 0.48077 0.46549 0.43048
 C165 C 0.48375 0.45237 0.44138
 H166 H 0.44434 0.44244 0.49266
 H167 H 0.48697 0.42871 0.46387
 H168 H 0.42812 0.46635 0.48490
 H169 H 0.44077 0.49381 0.44120
 H170 H 0.46477 0.48600 0.42489
 H171 H 0.49426 0.44435 0.43935
 C172 C -0.05037 -0.04309 0.97119
 C173 C -0.04752 -0.05650 0.98172
 C174 C -0.03391 -0.06697 0.97922
 C175 C -0.02313 -0.06389 0.96594
 C176 C -0.02584 -0.05056 0.95530
 C177 C -0.03947 -0.04007 0.95799
 C178 C -0.06393 -0.03265 0.97377
 C179 C -0.06690 -0.01900 0.96336
 C180 C -0.05576 -0.01618 0.95018
 C181 C -0.04218 -0.02656 0.94746
 C182 C -0.03135 -0.02371 0.93422
 C183 C -0.01780 -0.03417 0.93139
 C184 C -0.01512 -0.04755 0.94204
 H185 H -0.05606 -0.05892 0.99175
 H186 H -0.01248 -0.07175 0.96402
 H187 H -0.07170 -0.03492 0.98441
 H188 H -0.05789 -0.00631 0.94149
 H189 H -0.03360 -0.01347 0.92595
 H190 H -0.00457 -0.05554 0.94008
 C191 C 1.05207 0.54415 0.97250
 C192 C 1.04956 0.55797 0.98266
 C193 C 1.03583 0.56847 0.98048
 C194 C 1.02475 0.56479 0.96759
 C195 C 1.02720 0.55109 0.95728
 C196 C 1.04083 0.54065 0.95983
 C197 C 1.06559 0.53367 0.97503
 C198 C 1.06811 0.51950 0.96513
 C199 C 1.05667 0.51625 0.95243
 C200 C 1.04321 0.52672 0.94968
 C201 C 1.03215 0.52352 0.93682
 C202 C 1.01870 0.53405 0.93395
 C203 C 1.01628 0.54777 0.94433
 H204 H 1.05803 0.55999 0.99273
 H205 H 1.01448 0.57289 0.96501
 H206 H 1.07368 0.53629 0.98527
 H207 H 1.05850 0.50595 0.94410
 H208 H 1.03395 0.51274 0.92910
 H209 H 1.00604 0.55606 0.94213
 C210 C 0.55166 0.04394 0.47251
 C211 C 0.54930 0.05773 0.48275
 C212 C 0.53594 0.06847 0.48026
 C213 C 0.52496 0.06535 0.46726
 C214 C 0.52717 0.05163 0.45693
 C215 C 0.54049 0.04080 0.45964
 C216 C 0.56495 0.03320 0.47507
 C217 C 0.56733 0.01910 0.46503
 C218 C 0.55590 0.01612 0.45225
 C219 C 0.54264 0.02686 0.44947
 C220 C 0.53159 0.02393 0.43653
 C221 C 0.51840 0.03478 0.43362
 C222 C 0.51625 0.04857 0.44394
 H223 H 0.55772 0.05996 0.49284
 H224 H 0.51479 0.07372 0.46508
 H225 H 0.57299 0.03559 0.48541
 H226 H 0.55760 0.00585 0.44387
 H227 H 0.53341 0.01336 0.42852
 H228 H 0.50596 0.05685 0.44194
 C229 C -0.05278 0.04358 0.52754
 C230 C -0.04998 0.05683 0.51679
 C231 C -0.03660 0.06757 0.51924
 C232 C -0.02598 0.06489 0.53262
 C233 C -0.02865 0.05173 0.54350
 C234 C -0.04209 0.04101 0.54096
 C235 C -0.06612 0.03288 0.52510
 C236 C -0.06898 0.01962 0.53591
 C237 C -0.05826 0.01716 0.54926
 C238 C -0.04483 0.02772 0.55183
 C239 C -0.03414 0.02525 0.56514
 C240 C -0.02072 0.03588 0.56776
 C241 C -0.01807 0.04910 0.55686
 H242 H -0.05837 0.05892 0.50665
 H243 H -0.01550 0.07295 0.53448
 H244 H -0.07416 0.03474 0.51464
 H245 H -0.06048 0.00714 0.55780
 H246 H -0.03637 0.01515 0.57360
 H247 H -0.00764 0.05723 0.55868
 C248 C 0.44855 0.54339 0.02717
 C249 C 0.45107 0.55683 0.01659
 C250 C 0.46469 0.56750 0.01858
 C251 C 0.47573 0.56431 0.03164
 C252 C 0.47322 0.55103 0.04242
 C253 C 0.45963 0.54050 0.04016
 C254 C 0.43513 0.53275 0.02488
 C255 C 0.43255 0.51930 0.03550
 C256 C 0.44357 0.51658 0.04854
 C257 C 0.45710 0.52707 0.05092
 C258 C 0.46812 0.52434 0.06390
 C259 C 0.48162 0.53490 0.06634
 C260 C 0.48410 0.54820 0.05551
 H261 H 0.44268 0.55843 0.00638
 H262 H 0.48595 0.57253 0.03401
 H263 H 0.42654 0.53504 0.01495
 H264 H 0.44176 0.50615 0.05668
 H265 H 0.46604 0.51415 0.07229
 H266 H 0.49462 0.55625 0.05719
 C267 C 0.55065 -0.04459 0.02866
 C268 C 0.54771 -0.05779 0.01787
 C269 C 0.53432 -0.06851 0.02050
 C270 C 0.52385 -0.06585 0.03412
 C271 C 0.52667 -0.05272 0.04504
 C272 C 0.54010 -0.04202 0.04229
 C273 C 0.56399 -0.03391 0.02602
 C274 C 0.56699 -0.02069 0.03685
 C275 C 0.55640 -0.01823 0.05043
 C276 C 0.54298 -0.02876 0.05319
 C277 C 0.53242 -0.02628 0.06672
 C278 C 0.51901 -0.03690 0.06954
 C279 C 0.51623 -0.05010 0.05863
 H280 H 0.55599 -0.05988 0.00755
 H281 H 0.51337 -0.07389 0.03613
 H282 H 0.57192 -0.03578 0.01538
 H283 H 0.55874 -0.00822 0.05899
 H284 H 0.53475 -0.01620 0.07519
 H285 H 0.50580 -0.05821 0.06062
 C286 C 1.05081 0.45499 0.52844
 C287 C 1.04810 0.44159 0.51782
 C288 C 1.03445 0.43098 0.52003
 C289 C 1.02357 0.43420 0.53333
 C290 C 1.02626 0.44745 0.54415
 C291 C 1.03989 0.45790 0.54169
 C292 C 1.06427 0.46556 0.52596
 C293 C 1.06705 0.47895 0.53663
 C294 C 1.05618 0.48169 0.54991
 C295 C 1.04262 0.47129 0.55249
 C296 C 1.03174 0.47406 0.56570
 C297 C 1.01818 0.46359 0.56832
 C298 C 1.01553 0.45032 0.55747
 H299 H 1.05637 0.43999 0.50742
 H300 H 1.01333 0.42603 0.53587
 H301 H 1.07273 0.46326 0.51582
 H302 H 1.05815 0.49208 0.55809
 H303 H 1.03397 0.48421 0.57411
 H304 H 1.00497 0.44234 0.55930
 C305 C 0.39972 0.00599 0.23064
 H306 H 0.40064 0.01691 0.23826
 C307 C 0.41067 0.00365 0.21752
 H308 H 0.42010 0.01281 0.21520
 C309 C 0.38661 -0.01946 0.22486
 H310 H 0.37736 -0.02853 0.22786
 C311 C 0.39729 -0.02228 0.21160
 H312 H 0.39586 -0.03339 0.20432
 N313 N 0.38787 -0.00540 0.23395
 C314 C 0.34826 0.02087 0.25931
 H315 H 0.34700 0.01338 0.27027
 C316 C 0.33766 0.03420 0.25681
 H317 H 0.32818 0.03680 0.26588
 C318 C 0.36183 0.02612 0.23393
 H319 H 0.37112 0.02283 0.22493
 C320 C 0.35152 0.03956 0.23094
 H321 H 0.35325 0.04667 0.21979
 Zn322 Zn 0.37372 -0.00133 0.25214
 N323 N 0.36014 0.01719 0.24802
 C324 C 0.38591 0.01662 0.27970
 N325 N 0.38722 0.00249 0.27073
 C326 C 0.39871 -0.00912 0.27440
 C327 C 0.40929 -0.00689 0.28774
 C328 C 0.39622 0.01934 0.29317
 C329 C 0.34837 -0.02330 0.24415
 C330 C 0.33751 -0.03647 0.24637
 C331 C 0.34981 -0.04151 0.27296
 C332 C 0.36044 -0.02826 0.27022
 N333 N 0.35967 -0.01958 0.25591
 H334 H 0.37691 0.02585 0.27643
 H335 H 0.39968 -0.02012 0.26687
 H336 H 0.41848 -0.01621 0.29032
 H337 H 0.39480 0.03055 0.30032
 H338 H 0.34786 -0.01604 0.23299
 H339 H 0.32883 -0.03942 0.23671
 H340 H 0.35051 -0.04816 0.28450
 H341 H 0.36918 -0.02485 0.27962
 C342 C 0.33924 0.04377 0.24248
 C343 C 0.40951 -0.01062 0.20774
 C344 C 0.33818 -0.04581 0.26092
 C345 C 0.40811 0.00749 0.29736
 C346 C 0.09988 -0.00548 0.72695
 H347 H 0.09880 -0.01614 0.73489
 C348 C 0.08891 -0.00337 0.71392
 H349 H 0.07933 -0.01244 0.71197
 C350 C 0.11336 0.01956 0.72032
 H351 H 0.12278 0.02857 0.72295
 C352 C 0.10267 0.02216 0.70714
 H353 H 0.10422 0.03303 0.69957
 N354 N 0.11190 0.00583 0.72981
 C355 C 0.15223 -0.01888 0.75500
 H356 H 0.15381 -0.01067 0.76541
 C357 C 0.16301 -0.03212 0.75271
 H358 H 0.17296 -0.03389 0.76136
 C359 C 0.13767 -0.02603 0.73078
 H360 H 0.12788 -0.02354 0.72216
 C361 C 0.14807 -0.03949 0.72808
 H362 H 0.14590 -0.04740 0.71755
 Zn363 Zn 0.12599 0.00231 0.74801
 N364 N 0.13980 -0.01615 0.74417
 C365 C 0.11435 -0.01508 0.77613
 N366 N 0.11249 -0.00133 0.76675
 C367 C 0.10047 0.00988 0.77010
 C368 C 0.08986 0.00762 0.78351
 C369 C 0.10403 -0.01782 0.78968
 C370 C 0.15161 0.02397 0.73989
 C371 C 0.16235 0.03726 0.74189
 C372 C 0.14861 0.04382 0.76758
 C373 C 0.13819 0.03035 0.76513
 N374 N 0.13975 0.02085 0.75137
 H375 H 0.12380 -0.02399 0.77313
 H376 H 0.09908 0.02056 0.76226
 H377 H 0.08024 0.01659 0.78584
 H378 H 0.10588 -0.02871 0.79714
 H379 H 0.15270 0.01609 0.72915
 H380 H 0.17159 0.03968 0.73253
 H381 H 0.14727 0.05118 0.77867
 H382 H 0.12896 0.02747 0.77431
 C383 C 0.16097 -0.04270 0.73912
 C384 C 0.09024 0.01059 0.70378
 C385 C 0.16088 0.04742 0.75587
 C386 C 0.09157 -0.00639 0.79352
 C387 C 0.60112 0.49241 0.22588
 H388 H 0.59995 0.48162 0.23362
 C389 C 0.59056 0.49456 0.21252
 H390 H 0.58118 0.48539 0.21014
 C391 C 0.61443 0.51775 0.22008
 H392 H 0.62363 0.52685 0.22316
 C393 C 0.60415 0.52038 0.20657
 H394 H 0.60579 0.53138 0.19921
 N395 N 0.61283 0.50388 0.22933
 C396 C 0.65160 0.47848 0.25632
 H397 H 0.65220 0.48601 0.26733
 C398 C 0.66244 0.46525 0.25427
 H399 H 0.67143 0.46270 0.26374
 C400 C 0.63944 0.47303 0.23036
 H401 H 0.63059 0.47619 0.22099
 C402 C 0.65008 0.45973 0.22778
 H403 H 0.64908 0.45260 0.21652
 Zn404 Zn 0.62622 0.50033 0.24803
 N405 N 0.64026 0.48198 0.24454
 C406 C 0.61334 0.48269 0.27551
 N407 N 0.61199 0.49657 0.26622
 C408 C 0.59999 0.50789 0.26929
 C409 C 0.58896 0.50567 0.28236
 C410 C 0.60260 0.47999 0.28873
 C411 C 0.65216 0.52187 0.24094
 C412 C 0.66278 0.53520 0.24323
 C413 C 0.64780 0.54221 0.26810
 C414 C 0.63755 0.52865 0.26542
 N415 N 0.63978 0.51891 0.25191
 H416 H 0.62271 0.47365 0.27271
 H417 H 0.59898 0.51865 0.26150
 H418 H 0.57941 0.51476 0.28449
 H419 H 0.60409 0.46902 0.29616
 H420 H 0.65375 0.51382 0.23039
 H421 H 0.67247 0.53747 0.23429
 H422 H 0.64590 0.54981 0.27894
 H423 H 0.62790 0.52592 0.27419
 C424 C 0.66174 0.45566 0.23984
 C425 C 0.59200 0.50870 0.20265
 C426 C 0.66061 0.54561 0.25692
 C427 C 0.59021 0.49158 0.29233
 C428 C 0.90000 0.50724 0.73004
 H429 H 0.90126 0.51801 0.73782
 C430 C 0.91069 0.50493 0.71668
 H431 H 0.92024 0.51396 0.71435
 C432 C 0.88634 0.48214 0.72406
 H433 H 0.87696 0.47319 0.72706
 C434 C 0.89674 0.47935 0.71057
 H435 H 0.89499 0.46839 0.70314
 N436 N 0.88803 0.49600 0.73337
 C437 C 0.84871 0.52176 0.75968
 H438 H 0.84753 0.51403 0.77048
 C439 C 0.83804 0.53507 0.75750
 H440 H 0.82876 0.53766 0.76680
 C441 C 0.86228 0.52772 0.73445
 H442 H 0.87155 0.52467 0.72535
 C443 C 0.85193 0.54121 0.73182
 H444 H 0.85335 0.54840 0.72066
 Zn445 Zn 0.87428 0.49986 0.75192
 N446 N 0.86062 0.51842 0.74830
 C447 C 0.88660 0.51724 0.77977
 N448 N 0.88813 0.50345 0.77030
 C449 C 0.89999 0.49203 0.77337
 C450 C 0.91072 0.49407 0.78662
 C451 C 0.89702 0.51974 0.79320
 C452 C 0.84837 0.47834 0.74449
 C453 C 0.83756 0.46515 0.74680
 C454 C 0.85144 0.45885 0.77231
 C455 C 0.86193 0.47221 0.76956
 N456 N 0.86035 0.48152 0.75573
 H457 H 0.87736 0.52636 0.77692
 H458 H 0.90105 0.48128 0.76552
 H459 H 0.91992 0.48472 0.78902
 H460 H 0.89570 0.53082 0.80055
 H461 H 0.84726 0.48608 0.73370
 H462 H 0.82825 0.46267 0.73761
 H463 H 0.85282 0.45163 0.78345
 H464 H 0.87126 0.47514 0.77855
 C465 C 0.83961 0.54503 0.74343
 C466 C 0.90911 0.49084 0.70670
 C467 C 0.83907 0.45517 0.76084
 C468 C 0.90926 0.50805 0.79678
 C469 C 0.22730 0.40039 0.00843
 H470 H 0.23429 0.40066 0.01975
 C471 C 0.21404 0.41116 0.00634
 H472 H 0.21089 0.41973 0.01611
 C473 C 0.22325 0.38919 -0.01826
 H474 H 0.22699 0.38075 -0.02790
 C475 C 0.21002 0.39984 -0.02094
 H476 H 0.20349 0.39929 -0.03254
 N477 N 0.23149 0.38954 -0.00369
 C478 C 0.25751 0.34959 0.02110
 H479 H 0.26852 0.34893 0.01354
 C480 C 0.25527 0.33850 0.03406
 H481 H 0.26460 0.32924 0.03633
 C482 C 0.23175 0.36215 0.02685
 H483 H 0.22248 0.37120 0.02388
 C484 C 0.22902 0.35132 0.03995
 H485 H 0.21781 0.35247 0.04715
 Zn486 Zn 0.24983 0.37558 -0.00015
 N487 N 0.24592 0.36124 0.01787
 C488 C 0.27728 0.38763 0.01798
 N489 N 0.26822 0.38928 0.00402
 C490 C 0.27169 0.40124 -0.00721
 C491 C 0.28495 0.41191 -0.00478
 C492 C 0.29068 0.39802 0.02088
 C493 C 0.24218 0.35064 -0.02264
 C494 C 0.24441 0.34013 -0.03611
 C495 C 0.27042 0.35353 -0.04172
 C496 C 0.26773 0.36373 -0.02807
 N497 N 0.25370 0.36222 -0.01895
 H498 H 0.27416 0.37829 0.02692
 H499 H 0.26409 0.40247 -0.01806
 H500 H 0.28739 0.42144 -0.01380
 H501 H 0.29793 0.39629 0.03192
 H502 H 0.23121 0.34960 -0.01506
 H503 H 0.23501 0.33111 -0.03897
 H504 H 0.28170 0.35481 -0.04878
 H505 H 0.27692 0.37273 -0.02473
 C506 C 0.24089 0.33931 0.04374
 C507 C 0.20523 0.41096 -0.00851
 C508 C 0.25867 0.34154 -0.04588
 C509 C 0.29470 0.41035 0.00940
 C510 C 0.72771 0.09776 -0.00703
 H511 H 0.73525 0.09678 -0.01803
 C512 C 0.71446 0.08703 -0.00470
 H513 H 0.71173 0.07792 -0.01407
 C514 C 0.72213 0.11091 0.01853
 H515 H 0.72531 0.12003 0.02769
 C516 C 0.70871 0.10049 0.02131
 H517 H 0.70168 0.10173 0.03264
 N518 N 0.73120 0.10949 0.00445
 C519 C 0.75739 0.14843 -0.02178
 H520 H 0.76852 0.14917 -0.01453
 C521 C 0.75510 0.15912 -0.03504
 H522 H 0.76451 0.16815 -0.03788
 C523 C 0.73139 0.13606 -0.02650
 H524 H 0.72210 0.12718 -0.02303
 C525 C 0.72857 0.14655 -0.03982
 H526 H 0.71721 0.14541 -0.04667
 Zn527 Zn 0.74962 0.12325 0.00047
 N528 N 0.74570 0.13706 -0.01789
 C529 C 0.77662 0.11037 -0.01797
 N530 N 0.76797 0.10935 -0.00360
 C531 C 0.77182 0.09794 0.00803
 C532 C 0.78513 0.08727 0.00564
 C533 C 0.79002 0.09994 -0.02088
 C534 C 0.74208 0.14887 0.02236
 C535 C 0.74430 0.15961 0.03565
 C536 C 0.77019 0.14613 0.04139
 C537 C 0.76752 0.13571 0.02793
 N538 N 0.75353 0.13710 0.01887
 H539 H 0.77311 0.11917 -0.02728
 H540 H 0.76457 0.09722 0.01923
 H541 H 0.78820 0.07852 0.01520
 H542 H 0.79666 0.10086 -0.03245
 H543 H 0.73117 0.14985 0.01482
 H544 H 0.73493 0.16873 0.03838
 H545 H 0.78143 0.14490 0.04842
 H546 H 0.77670 0.12660 0.02473
 C547 C 0.74054 0.15824 -0.04428
 C548 C 0.70472 0.08837 0.00961
 C549 C 0.75848 0.15826 0.04540
 C550 C 0.79449 0.08824 -0.00895
 C551 C 0.22714 0.59836 0.49295
 H552 H 0.23461 0.59751 0.48189
 C553 C 0.21400 0.58751 0.49531
 H554 H 0.21153 0.57822 0.48604
 C555 C 0.22176 0.61118 0.51870
 H556 H 0.22492 0.62027 0.52789
 C557 C 0.20848 0.60060 0.52155
 H558 H 0.20136 0.60195 0.53280
 N559 N 0.23066 0.61001 0.50449
 C560 C 0.25638 0.64918 0.47811
 H561 H 0.26754 0.65001 0.48531
 C562 C 0.25396 0.65984 0.46484
 H563 H 0.26329 0.66893 0.46195
 C564 C 0.23045 0.63662 0.47352
 H565 H 0.22123 0.62769 0.47705
 C566 C 0.22748 0.64709 0.46021
 H567 H 0.21609 0.64588 0.45342
 Zn568 Zn 0.24892 0.62397 0.50041
 N569 N 0.24480 0.63772 0.48205
 C570 C 0.27631 0.61151 0.48216
 N571 N 0.26740 0.61025 0.49635
 C572 C 0.27109 0.59871 0.50790
 C573 C 0.28441 0.58805 0.50555
 C574 C 0.28979 0.60117 0.47935
 C575 C 0.24110 0.64927 0.52262
 C576 C 0.24341 0.66012 0.53580
 C577 C 0.27003 0.64769 0.54051
 C578 C 0.26719 0.63705 0.52727
 N579 N 0.25283 0.63791 0.51873
 H580 H 0.27294 0.62045 0.47292
 H581 H 0.26366 0.59784 0.51898
 H582 H 0.28731 0.57910 0.51500
 H583 H 0.29669 0.60228 0.46795
 H584 H 0.22993 0.64991 0.51541
 H585 H 0.23398 0.66915 0.53862
 H586 H 0.28144 0.64667 0.54730
 H587 H 0.27651 0.62818 0.52379
 C588 C 0.23935 0.65886 0.45568
 C589 C 0.20442 0.58857 0.50975
 C590 C 0.25804 0.65939 0.54495
 C591 C 0.29401 0.58926 0.49115
 C592 C 0.72607 0.89979 0.50876
 H593 H 0.73298 0.90019 0.52013
 C594 C 0.71273 0.91042 0.50651
 H595 H 0.70943 0.91902 0.51621
 C596 C 0.72230 0.88839 0.48210
 H597 H 0.72618 0.87994 0.47254
 C598 C 0.70899 0.89892 0.47928
 H599 H 0.70256 0.89825 0.46763
 N600 N 0.73043 0.88890 0.49673
 C601 C 0.75667 0.84938 0.52196
 H602 H 0.76770 0.84875 0.51445
 C603 C 0.75449 0.83837 0.53500
 H604 H 0.76388 0.82920 0.53736
 C605 C 0.73079 0.86176 0.52755
 H606 H 0.72146 0.87072 0.52448
 C607 C 0.72811 0.85102 0.54072
 H608 H 0.71687 0.85212 0.54787
 Zn609 Zn 0.74887 0.87512 0.50048
 N610 N 0.74500 0.86091 0.51861
 C611 C 0.77621 0.88749 0.51859
 N612 N 0.76715 0.88900 0.50460
 C613 C 0.77055 0.90090 0.49331
 C614 C 0.78372 0.91170 0.49569
 C615 C 0.78954 0.89797 0.52143
 C616 C 0.74147 0.85000 0.47812
 C617 C 0.74387 0.83936 0.46476
 C618 C 0.76998 0.85266 0.45941
 C619 C 0.76710 0.86301 0.47290
 N620 N 0.75295 0.86161 0.48184
 H621 H 0.77308 0.87824 0.52763
 H622 H 0.76302 0.90195 0.48239
 H623 H 0.78639 0.92093 0.48644
 H624 H 0.79657 0.89666 0.53267
 H625 H 0.73046 0.84898 0.48561
 H626 H 0.73467 0.83007 0.46215
 H627 H 0.78119 0.85416 0.45228
 H628 H 0.77621 0.87211 0.47622
 C629 C 0.74007 0.83913 0.54463
 C630 C 0.70402 0.91005 0.49160
 C631 C 0.75828 0.84062 0.45517
 C632 C 0.79346 0.91026 0.50988
 C633 C 0.00731 0.22787 0.40030
 H634 H 0.01794 0.23579 0.40164
 C635 C 0.00505 0.21457 0.41098
 H636 H 0.01413 0.21220 0.42043
 C637 C -0.01743 0.22138 0.38630
 H638 H -0.02628 0.22421 0.37682
 C639 C -0.02013 0.20791 0.39666
 H640 H -0.03111 0.20052 0.39507
 N641 N -0.00381 0.23095 0.38819
 C642 C 0.02135 0.25721 0.34859
 H643 H 0.01343 0.26786 0.34737
 C644 C 0.03458 0.25500 0.33773
 H645 H 0.03669 0.26399 0.32810
 C646 C 0.02776 0.23225 0.36227
 H647 H 0.02498 0.22332 0.37173
 C648 C 0.04113 0.22957 0.35170
 H649 H 0.04869 0.21870 0.35339
 Zn650 Zn -0.00020 0.24953 0.37456
 N651 N 0.01828 0.24598 0.36065
 C652 C 0.01665 0.27791 0.38637
 N653 N 0.00335 0.26794 0.38850
 C654 C -0.00753 0.27051 0.40105
 C655 C -0.00535 0.28365 0.41198
 C656 C 0.01923 0.29128 0.39693
 C657 C -0.02128 0.24236 0.34834
 C658 C -0.03445 0.24464 0.33756
 C659 C -0.04203 0.26914 0.35280
 C660 C -0.02864 0.26646 0.36321
 N661 N -0.01867 0.25317 0.36089
 H662 H 0.02530 0.27556 0.37649
 H663 H -0.01787 0.26223 0.40262
 H664 H -0.01402 0.28527 0.42204
 H665 H 0.02971 0.29924 0.39477
 H666 H -0.01301 0.23203 0.34663
 H667 H -0.03610 0.23603 0.32748
 H668 H -0.04999 0.27962 0.35508
 H669 H -0.02626 0.27502 0.37313
 C670 C 0.04470 0.24103 0.33922
 C671 C -0.00881 0.20437 0.40921
 C672 C -0.04507 0.25817 0.33972
 C673 C 0.00817 0.29429 0.40998
 C674 C -0.00713 0.72976 0.09833
 H675 H -0.01766 0.73781 0.09688
 C676 C -0.00479 0.71654 0.08752
 H677 H -0.01353 0.71463 0.07766
 C678 C 0.01735 0.72301 0.11260
 H679 H 0.02606 0.72567 0.12226
 C680 C 0.02010 0.70958 0.10215
 H681 H 0.03077 0.70184 0.10418
 N682 N 0.00382 0.73269 0.11063
 C683 C -0.02248 0.75922 0.14944
 H684 H -0.01493 0.77016 0.15045
 C685 C -0.03597 0.75710 0.15997
 H686 H -0.03886 0.76661 0.16891
 C687 C -0.02787 0.73362 0.13641
 H688 H -0.02452 0.72438 0.12739
 C689 C -0.04145 0.73098 0.14671
 H690 H -0.04839 0.71965 0.14551
 Zn691 Zn -0.00005 0.75121 0.12436
 N692 N -0.01880 0.74764 0.13784
 C693 C -0.01723 0.77897 0.11164
 N694 N -0.00334 0.76964 0.11044
 C695 C 0.00834 0.77282 0.09879
 C696 C 0.00644 0.78604 0.08796
 C697 C -0.01958 0.79235 0.10112
 C698 C 0.02102 0.74348 0.15043
 C699 C 0.03404 0.74562 0.16142
 C700 C 0.04060 0.77132 0.14790
 C701 C 0.02744 0.76869 0.13718
 N702 N 0.01808 0.75485 0.13851
 H703 H -0.02658 0.77601 0.12067
 H704 H 0.01916 0.76506 0.09796
 H705 H 0.01598 0.78852 0.07891
 H706 H -0.03076 0.79958 0.10218
 H707 H 0.01318 0.73273 0.15141
 H708 H 0.03607 0.73649 0.17092
 H709 H 0.04808 0.78228 0.14645
 H710 H 0.02474 0.77775 0.12784
 C711 C -0.04568 0.74282 0.15868
 C712 C 0.00896 0.70618 0.08936
 C713 C 0.04406 0.75968 0.16022
 C714 C -0.00764 0.79604 0.08909
 C715 C 0.49487 0.23095 0.59801
 H716 H 0.48433 0.23901 0.59668
 C717 C 0.49705 0.21771 0.58718
 H718 H 0.48817 0.21572 0.57746
 C719 C 0.51952 0.22415 0.61199
 H720 H 0.52832 0.22678 0.62158
 C721 C 0.52219 0.21079 0.60143
 H722 H 0.53292 0.20308 0.60323
 N723 N 0.50594 0.23381 0.61021
 C724 C 0.48103 0.25955 0.65041
 H725 H 0.48936 0.26982 0.65212
 C726 C 0.46766 0.25745 0.66109
 H727 H 0.46564 0.26625 0.67096
 C728 C 0.47359 0.23556 0.63545
 H729 H 0.47607 0.22690 0.62562
 C730 C 0.45997 0.23310 0.64573
 H731 H 0.45208 0.22254 0.64370
 Zn732 Zn 0.50237 0.25221 0.62419
 N733 N 0.48369 0.24873 0.63783
 C734 C 0.48559 0.28061 0.61260
 N735 N 0.49910 0.27086 0.61061
 C736 C 0.51029 0.27381 0.59843
 C737 C 0.50824 0.28716 0.58779
 C738 C 0.48310 0.29414 0.60228
 C739 C 0.52319 0.24434 0.65042
 C740 C 0.53628 0.24629 0.66136
 C741 C 0.54412 0.27106 0.64681
 C742 C 0.53080 0.26871 0.63623
 N743 N 0.52074 0.25543 0.63812
 H744 H 0.47665 0.27788 0.62211
 H745 H 0.52082 0.26574 0.59700
 H746 H 0.51738 0.28942 0.57829
 H747 H 0.47219 0.30167 0.60395
 H748 H 0.51485 0.23402 0.65178
 H749 H 0.53780 0.23747 0.67123
 H750 H 0.55215 0.28153 0.64486
 H751 H 0.52854 0.27751 0.62653
 C752 C 0.45689 0.24412 0.65875
 C753 C 0.51085 0.20739 0.58883
 C754 C 0.54700 0.25979 0.65963
 C755 C 0.49451 0.29755 0.58967
 C756 C 0.50543 0.72890 0.90082
 H757 H 0.51584 0.73708 0.90227
 C758 C 0.50330 0.71566 0.91160
 H759 H 0.51222 0.71360 0.92126
 C760 C 0.48112 0.72167 0.88644
 H761 H 0.47235 0.72418 0.87680
 C762 C 0.47862 0.70817 0.89682
 H763 H 0.46792 0.70041 0.89506
 N764 N 0.49446 0.73159 0.88849
 C765 C 0.51975 0.75756 0.84881
 H766 H 0.51189 0.76826 0.84755
 C767 C 0.53304 0.75530 0.83804
 H768 H 0.53525 0.76428 0.82842
 C769 C 0.52599 0.73260 0.86257
 H770 H 0.52312 0.72370 0.87205
 C771 C 0.53941 0.72985 0.85208
 H772 H 0.54692 0.71897 0.85384
 Zn773 Zn 0.49808 0.75006 0.87469
 N774 N 0.51657 0.74636 0.86085
 C775 C 0.51554 0.77790 0.88682
 N776 N 0.50174 0.76854 0.88851
 C777 C 0.49046 0.77174 0.90055
 C778 C 0.49272 0.78497 0.91136
 C779 C 0.51826 0.79128 0.89732
 C780 C 0.47651 0.74244 0.84893
 C781 C 0.46324 0.74464 0.83825
 C782 C 0.45685 0.77018 0.85226
 C783 C 0.47025 0.76751 0.86266
 N784 N 0.47965 0.75372 0.86094
 H785 H 0.52451 0.77501 0.87737
 H786 H 0.47974 0.76392 0.90180
 H787 H 0.48369 0.78717 0.92099
 H788 H 0.52919 0.79873 0.89558
 H789 H 0.48438 0.73174 0.84763
 H790 H 0.46105 0.73559 0.82868
 H791 H 0.44935 0.78109 0.85403
 H792 H 0.47310 0.77648 0.87207
 C793 C 0.54310 0.74129 0.83961
 C794 C 0.48979 0.70506 0.90960
 C795 C 0.45318 0.75865 0.83987
 C796 C 0.50677 0.79497 0.90981
 C797 C 0.14115 0.22224 0.26201
 C798 C 0.15086 0.23549 0.25649
 C799 C 0.16422 0.23276 0.24590
 C800 C 0.16821 0.21672 0.24064
 C801 C 0.15853 0.20346 0.24619
 C802 C 0.14513 0.20620 0.25673
 C803 C 0.12693 0.22513 0.27323
 C804 C 0.11202 0.21668 0.27087
 C805 C 0.09865 0.21935 0.28147
 C806 C 0.09990 0.23050 0.29470
 C807 C 0.11482 0.23897 0.29704
 C808 C 0.12817 0.23633 0.28641
 C809 C 0.08572 0.23323 0.30606
 C810 C 0.08201 0.24911 0.31197
 C811 C 0.06871 0.25165 0.32270
 C812 C 0.05881 0.23836 0.32777
 C813 C 0.06251 0.22248 0.32183
 C814 C 0.07581 0.21994 0.31111
 H815 H 0.14801 0.24800 0.26023
 H816 H 0.17156 0.24319 0.24194
 H817 H 0.16121 0.19099 0.24222
 H818 H 0.13797 0.19573 0.26090
 H819 H 0.11061 0.20817 0.26067
 H820 H 0.08724 0.21284 0.27916
 H821 H 0.11627 0.24744 0.30727
 H822 H 0.13959 0.24284 0.28868
 H823 H 0.08929 0.25963 0.30818
 H824 H 0.06630 0.26400 0.32719
 H825 H 0.05501 0.21201 0.32533
 H826 H 0.07844 0.20752 0.30693
 C827 C 0.63997 0.72247 0.76293
 C828 C 0.64400 0.70643 0.75769
 C829 C 0.65746 0.70372 0.74721
 C830 C 0.66712 0.71699 0.74168
 C831 C 0.66307 0.73303 0.74689
 C832 C 0.64966 0.73574 0.75743
 C833 C 0.62570 0.72533 0.77410
 C834 C 0.62688 0.73654 0.78729
 C835 C 0.61348 0.73916 0.79786
 C836 C 0.59858 0.73068 0.79547
 C837 C 0.59740 0.71951 0.78224
 C838 C 0.61081 0.71685 0.77169
 C839 C 0.58435 0.73341 0.80675
 C840 C 0.57439 0.72014 0.81175
 C841 C 0.56102 0.72270 0.82238
 C842 C 0.55730 0.73859 0.82828
 C843 C 0.56725 0.75186 0.82327
 C844 C 0.58061 0.74931 0.81262
 H845 H 0.63686 0.69595 0.76185
 H846 H 0.66019 0.69124 0.74327
 H847 H 0.67039 0.74348 0.74294
 H848 H 0.64675 0.74824 0.76114
 H849 H 0.63827 0.74307 0.78959
 H850 H 0.61488 0.74764 0.80809
 H851 H 0.58601 0.71299 0.77988
 H852 H 0.60946 0.70833 0.76149
 H853 H 0.57704 0.70772 0.80760
 H854 H 0.55349 0.71224 0.82584
 H855 H 0.56482 0.76423 0.82772
 H856 H 0.58792 0.75982 0.80886
 C857 C 0.35669 0.77709 0.76367
 C858 C 0.34693 0.76386 0.75821
 C859 C 0.33376 0.76657 0.74751
 C860 C 0.33004 0.78258 0.74204
 C861 C 0.33978 0.79580 0.74752
 C862 C 0.35296 0.79309 0.75820
 C863 C 0.37075 0.77422 0.77498
 C864 C 0.37406 0.78534 0.78787
 C865 C 0.38739 0.78275 0.79840
 C866 C 0.39770 0.76897 0.79631
 C867 C 0.39435 0.75780 0.78348
 C868 C 0.38103 0.76040 0.77293
 C869 C 0.41193 0.76630 0.80743
 C870 C 0.41565 0.75044 0.81330
 C871 C 0.42902 0.74796 0.82381
 C872 C 0.43899 0.76127 0.82865
 C873 C 0.43529 0.77712 0.82273
 C874 C 0.42190 0.77960 0.81225
 H875 H 0.34932 0.75143 0.76241
 H876 H 0.32633 0.75618 0.74367
 H877 H 0.33737 0.80823 0.74331
 H878 H 0.36041 0.80350 0.76194
 H879 H 0.36621 0.79594 0.78996
 H880 H 0.38951 0.79143 0.80833
 H881 H 0.40221 0.74719 0.78142
 H882 H 0.37897 0.75175 0.76297
 H883 H 0.40805 0.73999 0.80998
 H884 H 0.43139 0.73565 0.82836
 H885 H 0.44289 0.78758 0.82599
 H886 H 0.41950 0.79191 0.80771
 C887 C -0.14061 0.27681 0.26226
 C888 C -0.14836 0.26349 0.25445
 C889 C -0.16158 0.26611 0.24380
 C890 C -0.16763 0.28217 0.24078
 C891 C -0.15972 0.29547 0.24879
 C892 C -0.14637 0.29281 0.25927
 C893 C -0.12657 0.27400 0.27355
 C894 C -0.11245 0.28396 0.27263
 C895 C -0.09923 0.28133 0.28328
 C896 C -0.09988 0.26876 0.29520
 C897 C -0.11407 0.25884 0.29612
 C898 C -0.12723 0.26139 0.28537
 C899 C -0.08586 0.26604 0.30663
 C900 C -0.08128 0.25000 0.31132
 C901 C -0.06814 0.24746 0.32208
 C902 C -0.05915 0.26088 0.32835
 C903 C -0.06370 0.27691 0.32363
 C904 C -0.07691 0.27946 0.31295
 H905 H -0.14412 0.25100 0.25651
 H906 H -0.16742 0.25534 0.23855
 H907 H -0.16331 0.30811 0.24656
 H908 H -0.14062 0.30332 0.26517
 H909 H -0.11154 0.29364 0.26349
 H910 H -0.08839 0.28900 0.28201
 H911 H -0.11512 0.24925 0.30533
 H912 H -0.13806 0.25367 0.28649
 H913 H -0.08776 0.23937 0.30653
 H914 H -0.06512 0.23495 0.32561
 H915 H -0.05693 0.28753 0.32803
 H916 H -0.08022 0.29199 0.30978
 C917 C -0.14286 0.72460 0.23497
 C918 C -0.14204 0.72955 0.25153
 C919 C -0.15530 0.72689 0.26225
 C920 C -0.16988 0.71910 0.25677
 C921 C -0.17054 0.71418 0.24004
 C922 C -0.15727 0.71692 0.22935
 C923 C -0.12870 0.72738 0.22362
 C924 C -0.12418 0.71534 0.21195
 C925 C -0.11080 0.71791 0.20135
 C926 C -0.10162 0.73257 0.20220
 C927 C -0.10614 0.74462 0.21385
 C928 C -0.11954 0.74207 0.22443
 C929 C -0.08732 0.73524 0.19104
 C930 C -0.07273 0.74236 0.19701
 C931 C -0.05924 0.74481 0.18653
 C932 C -0.06004 0.74024 0.16982
 C933 C -0.07465 0.73315 0.16384
 C934 C -0.08813 0.73066 0.17434
 H935 H -0.13096 0.73518 0.25635
 H936 H -0.15365 0.73033 0.27502
 H937 H -0.18154 0.70882 0.23482
 H938 H -0.15843 0.71328 0.21655
 H939 H -0.13082 0.70379 0.21119
 H940 H -0.10746 0.70830 0.19267
 H941 H -0.09945 0.75614 0.21463
 H942 H -0.12287 0.75170 0.23309
 H943 H -0.07165 0.74577 0.20988
 H944 H -0.04807 0.75004 0.19159
 H945 H -0.07575 0.72974 0.15098
 H946 H -0.09928 0.72538 0.16932
 C947 C 0.35948 0.22564 0.73483
 C948 C 0.35174 0.23888 0.74292
 C949 C 0.33838 0.23621 0.75352
 C950 C 0.33215 0.22018 0.75624
 C951 C 0.33998 0.20695 0.74796
 C952 C 0.35346 0.20965 0.73753
 C953 C 0.37377 0.22850 0.72361
 C954 C 0.37576 0.21906 0.70917
 C955 C 0.38923 0.22166 0.69869
 C956 C 0.40098 0.23386 0.70231
 C957 C 0.39895 0.24335 0.71670
 C958 C 0.38555 0.24066 0.72726
 C959 C 0.41531 0.23664 0.69112
 C960 C 0.43088 0.24063 0.69755
 C961 C 0.44434 0.24319 0.68704
 C962 C 0.44257 0.24165 0.66989
 C963 C 0.42706 0.23764 0.66344
 C964 C 0.41356 0.23524 0.67392
 H965 H 0.35579 0.25143 0.74082
 H966 H 0.33255 0.24695 0.75892
 H967 H 0.33629 0.19431 0.75003
 H968 H 0.35937 0.19910 0.73183
 H969 H 0.36683 0.20974 0.70585
 H970 H 0.39051 0.21396 0.68784
 H971 H 0.40763 0.25300 0.71977
 H972 H 0.38454 0.24802 0.73837
 H973 H 0.43276 0.24151 0.71073
 H974 H 0.45622 0.24607 0.69234
 H975 H 0.42532 0.23659 0.65024
 H976 H 0.40170 0.23251 0.66852
 C977 C 0.64221 0.27676 0.73790
 C978 C 0.64801 0.29274 0.74101
 C979 C 0.66127 0.29533 0.75161
 C980 C 0.66906 0.28199 0.75963
 C981 C 0.66303 0.26595 0.75644
 C982 C 0.64988 0.26340 0.74566
 C983 C 0.62818 0.27408 0.72658
 C984 C 0.62881 0.26157 0.71459
 C985 C 0.61567 0.25920 0.70376
 C986 C 0.60153 0.26921 0.70478
 C987 C 0.60088 0.28163 0.71691
 C988 C 0.61408 0.28408 0.72763
 C989 C 0.58756 0.26677 0.69321
 C990 C 0.57874 0.28036 0.68711
 C991 C 0.56559 0.27810 0.67630
 C992 C 0.56098 0.26218 0.67118
 C993 C 0.56985 0.24859 0.67722
 C994 C 0.58293 0.25085 0.68814
 H995 H 0.64232 0.30328 0.73514
 H996 H 0.66486 0.30795 0.75396
 H997 H 0.66879 0.25515 0.76169
 H998 H 0.64563 0.25093 0.74347
 H999 H 0.63962 0.25381 0.71339
 H1000 H 0.61672 0.24972 0.69440
 H1001 H 0.59007 0.28934 0.71827
 H1002 H 0.61318 0.29366 0.73691
 H1003 H 0.58210 0.29281 0.69057
 H1004 H 0.55891 0.28884 0.67209
 H1005 H 0.56678 0.23617 0.67339
 H1006 H 0.58931 0.24009 0.69274
 C1007 C 0.13925 0.77742 0.23825
 C1008 C 0.14296 0.79334 0.24402
 C1009 C 0.15620 0.79591 0.25467
 C1010 C 0.16600 0.78261 0.25982
 C1011 C 0.16227 0.76668 0.25409
 C1012 C 0.14906 0.76412 0.24340
 C1013 C 0.12522 0.77472 0.22689
 C1014 C 0.12676 0.76388 0.21342
 C1015 C 0.11358 0.76141 0.20267
 C1016 C 0.09855 0.76968 0.20516
 C1017 C 0.09700 0.78048 0.21866
 C1018 C 0.11019 0.78298 0.22939
 C1019 C 0.08456 0.76711 0.19368
 C1020 C 0.07460 0.78042 0.18887
 C1021 C 0.06147 0.77801 0.17805
 C1022 C 0.05799 0.76223 0.17177
 C1023 C 0.06794 0.74891 0.17659
 C1024 C 0.08107 0.75132 0.18742
 H1025 H 0.13573 0.80385 0.24015
 H1026 H 0.15869 0.80829 0.25901
 H1027 H 0.16969 0.75622 0.25774
 H1028 H 0.14640 0.75170 0.23929
 H1029 H 0.13827 0.75753 0.21103
 H1030 H 0.11526 0.75322 0.19223
 H1031 H 0.08549 0.78683 0.22108
 H1032 H 0.10854 0.79121 0.23981
 H1033 H 0.07707 0.79276 0.19333
 H1034 H 0.05393 0.78850 0.17473
 H1035 H 0.06570 0.73664 0.17184
 H1036 H 0.08839 0.74078 0.19102
 C1037 C 0.26344 0.14059 0.22226
 C1038 C 0.25814 0.15061 0.23542
 C1039 C 0.24757 0.16391 0.23263
 C1040 C 0.24213 0.16753 0.21662
 C1041 C 0.24749 0.15756 0.20345
 C1042 C 0.25800 0.14421 0.20624
 C1043 C 0.27457 0.12639 0.22524
 C1044 C 0.27196 0.11126 0.21718
 C1045 C 0.28241 0.09787 0.22001
 C1046 C 0.29575 0.09931 0.23092
 C1047 C 0.29836 0.11446 0.23896
 C1048 C 0.28788 0.12784 0.23616
 C1049 C 0.30688 0.08508 0.23389
 C1050 C 0.31286 0.08181 0.24979
 C1051 C 0.32334 0.06843 0.25257
 C1052 C 0.32808 0.05800 0.23952
 C1053 C 0.32209 0.06126 0.22362
 C1054 C 0.31163 0.07465 0.22084
 H1055 H 0.26201 0.14803 0.24791
 H1056 H 0.24376 0.17147 0.24300
 H1057 H 0.24338 0.15997 0.19099
 H1058 H 0.26201 0.13681 0.19584
 H1059 H 0.26166 0.10970 0.20889
 H1060 H 0.27989 0.08630 0.21384
 H1061 H 0.30868 0.11606 0.24722
 H1062 H 0.29034 0.13941 0.24236
 H1063 H 0.30929 0.08949 0.26015
 H1064 H 0.32788 0.06637 0.26493
 H1065 H 0.32535 0.05336 0.21333
 H1066 H 0.30740 0.07694 0.20841
 C1067 C 0.76296 0.64126 0.72400
 C1068 C 0.76913 0.65657 0.71875
 C1069 C 0.75847 0.66979 0.71592
 C1070 C 0.74138 0.66798 0.71820
 C1071 C 0.73522 0.65264 0.72343
 C1072 C 0.74589 0.63945 0.72633
 C1073 C 0.77428 0.62722 0.72699
 C1074 C 0.77209 0.61700 0.74080
 C1075 C 0.78273 0.60375 0.74359
 C1076 C 0.79576 0.60038 0.73261
 C1077 C 0.79793 0.61061 0.71878
 C1078 C 0.78733 0.62390 0.71603
 C1079 C 0.80702 0.58623 0.73551
 C1080 C 0.82399 0.58762 0.73219
 C1081 C 0.83455 0.57427 0.73477
 C1082 C 0.82841 0.55924 0.74081
 C1083 C 0.81148 0.55786 0.74422
 C1084 C 0.80090 0.57118 0.74157
 H1085 H 0.78225 0.65839 0.71708
 H1086 H 0.76363 0.68151 0.71218
 H1087 H 0.72210 0.65076 0.72503
 H1088 H 0.74076 0.62773 0.73013
 H1089 H 0.76228 0.61940 0.74958
 H1090 H 0.78088 0.59629 0.75450
 H1091 H 0.80766 0.60819 0.70993
 H1092 H 0.78917 0.63141 0.70515
 H1093 H 0.82915 0.59911 0.72779
 H1094 H 0.84758 0.57577 0.73226
 H1095 H 0.80635 0.54635 0.74865
 H1096 H 0.78787 0.56961 0.74399
 C1097 C 0.76241 0.35889 0.78015
 C1098 C 0.74532 0.36057 0.77792
 C1099 C 0.73478 0.34720 0.78055
 C1100 C 0.74107 0.33183 0.78543
 C1101 C 0.75815 0.33016 0.78770
 C1102 C 0.76869 0.34353 0.78511
 C1103 C 0.77365 0.37307 0.77724
 C1104 C 0.78907 0.37069 0.76963
 C1105 C 0.79966 0.38400 0.76693
 C1106 C 0.79504 0.40001 0.77171
 C1107 C 0.77961 0.40243 0.77926
 C1108 C 0.76904 0.38911 0.78203
 C1109 C 0.80631 0.41414 0.76887
 C1110 C 0.80022 0.42925 0.76302
 C1111 C 0.81085 0.44254 0.76034
 C1112 C 0.82779 0.44103 0.76355
 C1113 C 0.83387 0.42593 0.76943
 C1114 C 0.82325 0.41262 0.77202
 H1115 H 0.74010 0.37218 0.77393
 H1116 H 0.72167 0.34895 0.77888
 H1117 H 0.76341 0.31843 0.79127
 H1118 H 0.78176 0.34187 0.78713
 H1119 H 0.79287 0.35855 0.76553
 H1120 H 0.81138 0.38180 0.76086
 H1121 H 0.77582 0.41460 0.78329
 H1122 H 0.75737 0.39133 0.78816
 H1123 H 0.78725 0.43073 0.76035
 H1124 H 0.80579 0.45407 0.75594
 H1125 H 0.84688 0.42436 0.77187
 H1126 H 0.82827 0.40117 0.77668
 C1127 C 0.26071 -0.14165 0.27961
 C1128 C 0.26624 -0.15594 0.28756
 C1129 C 0.25559 -0.16922 0.29024
 C1130 C 0.23902 -0.16867 0.28495
 C1131 C 0.23362 -0.15418 0.27694
 C1132 C 0.24429 -0.14090 0.27437
 C1133 C 0.27206 -0.12757 0.27678
 C1134 C 0.26665 -0.11127 0.27923
 C1135 C 0.27735 -0.09803 0.27661
 C1136 C 0.29369 -0.10077 0.27145
 C1137 C 0.29907 -0.11707 0.26897
 C1138 C 0.28838 -0.13031 0.27161
 C1139 C 0.30508 -0.08670 0.26872
 C1140 C 0.32164 -0.08770 0.27364
 C1141 C 0.33236 -0.07446 0.27110
 C1142 C 0.32678 -0.05990 0.26358
 C1143 C 0.31023 -0.05890 0.25864
 C1144 C 0.29951 -0.07214 0.26119
 H1145 H 0.27883 -0.15685 0.29182
 H1146 H 0.26075 -0.18011 0.29588
 H1147 H 0.22097 -0.15264 0.27314
 H1148 H 0.23968 -0.13005 0.26814
 H1149 H 0.25422 -0.10878 0.28345
 H1150 H 0.27291 -0.08564 0.27889
 H1151 H 0.31149 -0.11959 0.26473
 H1152 H 0.29282 -0.14271 0.26937
 H1153 H 0.32627 -0.09866 0.27964
 H1154 H 0.34507 -0.07569 0.27487
 H1155 H 0.30550 -0.04780 0.25298
 H1156 H 0.28687 -0.07105 0.25710
 C1157 C 0.23702 -0.14004 0.72102
 C1158 C 0.24464 -0.14775 0.73443
 C1159 C 0.25519 -0.16116 0.73197
 C1160 C 0.25829 -0.16744 0.71597
 C1161 C 0.25043 -0.15961 0.70257
 C1162 C 0.24006 -0.14607 0.70508
 C1163 C 0.22590 -0.12576 0.72367
 C1164 C 0.22715 -0.11173 0.71362
 C1165 C 0.21674 -0.09822 0.71618
 C1166 C 0.20473 -0.09851 0.72875
 C1167 C 0.20346 -0.11261 0.73874
 C1168 C 0.21398 -0.12605 0.73627
 C1169 C 0.19356 -0.08417 0.73141
 C1170 C 0.18880 -0.07943 0.74743
 C1171 C 0.17823 -0.06604 0.74992
 C1172 C 0.17224 -0.05696 0.73647
 C1173 C 0.17707 -0.06165 0.72045
 C1174 C 0.18754 -0.07512 0.71795
 H1175 H 0.24253 -0.14331 0.74687
 H1176 H 0.26031 -0.16693 0.74281
 H1177 H 0.25272 -0.16340 0.68997
 H1178 H 0.23429 -0.14036 0.69451
 H1179 H 0.23639 -0.11110 0.70396
 H1180 H 0.21827 -0.08746 0.70845
 H1181 H 0.19416 -0.11339 0.74832
 H1182 H 0.21262 -0.13681 0.74405
 H1183 H 0.19337 -0.08598 0.75809
 H1184 H 0.17461 -0.06292 0.76241
 H1185 H 0.17288 -0.05482 0.70981
 H1186 H 0.19077 -0.07854 0.70543
 C1187 C 0.73826 0.35879 0.22230
 C1188 C 0.73176 0.34314 0.21872
 C1189 C 0.74221 0.32968 0.21608
 C1190 C 0.75939 0.33157 0.21703
 C1191 C 0.76589 0.34721 0.22065
 C1192 C 0.75544 0.36068 0.22322
 C1193 C 0.72715 0.37310 0.22503
 C1194 C 0.73096 0.38859 0.21827
 C1195 C 0.72044 0.40202 0.22073
 C1196 C 0.70590 0.40029 0.23006
 C1197 C 0.70213 0.38482 0.23688
 C1198 C 0.71262 0.37137 0.23437
 C1199 C 0.69468 0.41454 0.23261
 C1200 C 0.68737 0.41744 0.24809
 C1201 C 0.67675 0.43081 0.25046
 C1202 C 0.67314 0.44154 0.23737
 C1203 C 0.68046 0.43864 0.22189
 C1204 C 0.69113 0.42531 0.21954
 H1205 H 0.71858 0.34133 0.21777
 H1206 H 0.73684 0.31774 0.21347
 H1207 H 0.77908 0.34907 0.22131
 H1208 H 0.76080 0.37256 0.22611
 H1209 H 0.74199 0.39026 0.21089
 H1210 H 0.72375 0.41382 0.21545
 H1211 H 0.69094 0.38306 0.24400
 H1212 H 0.70944 0.35963 0.23986
 H1213 H 0.68999 0.40944 0.25843
 H1214 H 0.67118 0.43264 0.26249
 H1215 H 0.67805 0.44679 0.21162
 H1216 H 0.69646 0.42330 0.20743
 C1217 C 0.73603 0.64266 0.27579
 C1218 C 0.74021 0.65331 0.26279
 C1219 C 0.75077 0.66665 0.26546
 C1220 C 0.75721 0.66970 0.28123
 C1221 C 0.75293 0.65912 0.29425
 C1222 C 0.74251 0.64568 0.29155
 C1223 C 0.72496 0.62842 0.27294
 C1224 C 0.72880 0.61285 0.27944
 C1225 C 0.71840 0.59940 0.27670
 C1226 C 0.70388 0.60129 0.26755
 C1227 C 0.70000 0.61687 0.26110
 C1228 C 0.71049 0.63029 0.26369
 C1229 C 0.69279 0.58704 0.26476
 C1230 C 0.67567 0.58875 0.26675
 C1231 C 0.66523 0.57528 0.26427
 C1232 C 0.67168 0.55989 0.25958
 C1233 C 0.68880 0.55821 0.25749
 C1234 C 0.69925 0.57163 0.26014
 H1235 H 0.73548 0.65119 0.25050
 H1236 H 0.75379 0.67469 0.25524
 H1237 H 0.75783 0.66112 0.30650
 H1238 H 0.73938 0.63774 0.30181
 H1239 H 0.73994 0.61104 0.28650
 H1240 H 0.72161 0.58755 0.28192
 H1241 H 0.68894 0.61863 0.25389
 H1242 H 0.70718 0.64218 0.25864
 H1243 H 0.67038 0.60047 0.27043
 H1244 H 0.65207 0.57694 0.26584
 H1245 H 0.69411 0.54644 0.25401
 H1246 H 0.71239 0.57002 0.25840
 C1247 C 0.23755 0.14380 0.77424
 C1248 C 0.25467 0.14207 0.77212
 C1249 C 0.26522 0.15539 0.77492
 C1250 C 0.25890 0.17078 0.77986
 C1251 C 0.24178 0.17252 0.78195
 C1252 C 0.23124 0.15919 0.77920
 C1253 C 0.22633 0.12962 0.77132
 C1254 C 0.21097 0.13198 0.76374
 C1255 C 0.20037 0.11866 0.76111
 C1256 C 0.20492 0.10267 0.76592
 C1257 C 0.22030 0.10028 0.77342
 C1258 C 0.23087 0.11360 0.77613
 C1259 C 0.19363 0.08855 0.76321
 C1260 C 0.19971 0.07339 0.75738
 C1261 C 0.18908 0.06007 0.75490
 C1262 C 0.17215 0.06161 0.75830
 C1263 C 0.16607 0.07677 0.76414
 C1264 C 0.17669 0.09012 0.76652
 H1265 H 0.25993 0.13045 0.76812
 H1266 H 0.27835 0.15359 0.77338
 H1267 H 0.23650 0.18426 0.78556
 H1268 H 0.21814 0.16089 0.78114
 H1269 H 0.20722 0.14409 0.75962
 H1270 H 0.18869 0.12084 0.75508
 H1271 H 0.22404 0.08813 0.77748
 H1272 H 0.24249 0.11140 0.78225
 H1273 H 0.21269 0.07187 0.75459
 H1274 H 0.19413 0.04849 0.75053
 H1275 H 0.15306 0.07836 0.76672
 H1276 H 0.17168 0.10161 0.77117
 C1277 C 0.22263 0.26167 0.13950
 C1278 C 0.23591 0.25654 0.14932
 C1279 C 0.23333 0.24598 0.16269
 C1280 C 0.21741 0.24037 0.16658
 C1281 C 0.20413 0.24547 0.15677
 C1282 C 0.20672 0.25597 0.14337
 C1283 C 0.22534 0.27298 0.12534
 C1284 C 0.21399 0.28559 0.12191
 C1285 C 0.21652 0.29622 0.10860
 C1286 C 0.23049 0.29452 0.09844
 C1287 C 0.24188 0.28194 0.10187
 C1288 C 0.23931 0.27127 0.11515
 C1289 C 0.23320 0.30586 0.08435
 C1290 C 0.24894 0.31228 0.08104
 C1291 C 0.25144 0.32310 0.06787
 C1292 C 0.23826 0.32770 0.05767
 C1293 C 0.22253 0.32119 0.06094
 C1294 C 0.22002 0.31042 0.07414
 H1295 H 0.24827 0.26091 0.14684
 H1296 H 0.24376 0.24244 0.17017
 H1297 H 0.19176 0.24114 0.15933
 H1298 H 0.19627 0.25946 0.13589
 H1299 H 0.20325 0.28743 0.12968
 H1300 H 0.20767 0.30596 0.10641
 H1301 H 0.25264 0.28019 0.09412
 H1302 H 0.24816 0.26152 0.11730
 H1303 H 0.25928 0.30917 0.08883
 H1304 H 0.26365 0.32810 0.06586
 H1305 H 0.21218 0.32424 0.05315
 H1306 H 0.20781 0.30547 0.07623
 C1307 C 0.72200 0.76178 0.64069
 C1308 C 0.70608 0.75604 0.64442
 C1309 C 0.70342 0.74560 0.65786
 C1310 C 0.71663 0.74060 0.66780
 C1311 C 0.73256 0.74627 0.66403
 C1312 C 0.73521 0.75678 0.65064
 C1313 C 0.72479 0.77298 0.62650
 C1314 C 0.73538 0.78659 0.62797
 C1315 C 0.73791 0.79722 0.61466
 C1316 C 0.72995 0.79445 0.59954
 C1317 C 0.71941 0.78078 0.59806
 C1318 C 0.71684 0.77018 0.61140
 C1319 C 0.73257 0.80581 0.58541
 C1320 C 0.71939 0.81019 0.57512
 C1321 C 0.72183 0.82094 0.56188
 C1322 C 0.73750 0.82760 0.55863
 C1323 C 0.75069 0.82319 0.56891
 C1324 C 0.74825 0.81242 0.58212
 H1325 H 0.69564 0.75980 0.63706
 H1326 H 0.69103 0.74130 0.66039
 H1327 H 0.74296 0.74274 0.67157
 H1328 H 0.74763 0.76089 0.64798
 H1329 H 0.74149 0.78919 0.63953
 H1330 H 0.74589 0.80779 0.61630
 H1331 H 0.71331 0.77813 0.58651
 H1332 H 0.70880 0.75965 0.60983
 H1333 H 0.70712 0.80547 0.57741
 H1334 H 0.71145 0.82392 0.55409
 H1335 H 0.76287 0.82824 0.56686
 H1336 H 0.75871 0.80915 0.58969
 C1337 C 0.77725 0.76362 0.35868
 C1338 C 0.76393 0.75840 0.34894
 C1339 C 0.76648 0.74783 0.33554
 C1340 C 0.78241 0.74228 0.33153
 C1341 C 0.79573 0.74748 0.34123
 C1342 C 0.79317 0.75801 0.35468
 C1343 C 0.77453 0.77491 0.37290
 C1344 C 0.78581 0.78761 0.37634
 C1345 C 0.78322 0.79825 0.38968
 C1346 C 0.76927 0.79649 0.39985
 C1347 C 0.75800 0.78381 0.39643
 C1348 C 0.76061 0.77313 0.38313
 C1349 C 0.76648 0.80784 0.41397
 C1350 C 0.75067 0.81412 0.41730
 C1351 C 0.74803 0.82479 0.43061
 C1352 C 0.76113 0.82938 0.44093
 C1353 C 0.77694 0.82309 0.43758
 C1354 C 0.77959 0.81247 0.42424
 H1355 H 0.75156 0.76272 0.35151
 H1356 H 0.75602 0.74421 0.32813
 H1357 H 0.80810 0.74322 0.33856
 H1358 H 0.80365 0.76157 0.36208
 H1359 H 0.79651 0.78950 0.36854
 H1360 H 0.79200 0.80806 0.39188
 H1361 H 0.74727 0.78200 0.40421
 H1362 H 0.75184 0.76331 0.38100
 H1363 H 0.74038 0.81097 0.40946
 H1364 H 0.73576 0.82964 0.43267
 H1365 H 0.78724 0.82615 0.44545
 H1366 H 0.79186 0.80764 0.42211
 C1367 C 0.27714 0.26591 -0.14345
 C1368 C 0.28220 0.27224 -0.15879
 C1369 C 0.28482 0.26173 -0.17224
 C1370 C 0.28250 0.24463 -0.17066
 C1371 C 0.27744 0.23830 -0.15533
 C1372 C 0.27476 0.24881 -0.14190
 C1373 C 0.27442 0.27707 -0.12912
 C1374 C 0.27909 0.27223 -0.11317
 C1375 C 0.27648 0.28269 -0.09969
 C1376 C 0.26923 0.29826 -0.10186
 C1377 C 0.26461 0.30315 -0.11779
 C1378 C 0.26713 0.29265 -0.13127
 C1379 C 0.26649 0.30937 -0.08754
 C1380 C 0.27005 0.32628 -0.08870
 C1381 C 0.26756 0.33671 -0.07517
 C1382 C 0.26134 0.33047 -0.06024
 C1383 C 0.25772 0.31357 -0.05910
 C1384 C 0.26032 0.30312 -0.07259
 H1385 H 0.28433 0.28532 -0.16037
 H1386 H 0.28853 0.26703 -0.18392
 H1387 H 0.27573 0.22517 -0.15364
 H1388 H 0.27067 0.24354 -0.13033
 H1389 H 0.28500 0.26045 -0.11112
 H1390 H 0.28038 0.27871 -0.08759
 H1391 H 0.25879 0.31499 -0.11979
 H1392 H 0.26314 0.29665 -0.14334
 H1393 H 0.27495 0.33141 -0.10003
 H1394 H 0.27033 0.34971 -0.07645
 H1395 H 0.25306 0.30839 -0.04770
 H1396 H 0.25733 0.29016 -0.07138
 C1397 C 0.72222 0.23528 -0.14027
 C1398 C 0.71859 0.22907 -0.15604
 C1399 C 0.71603 0.23979 -0.16926
 C1400 C 0.71711 0.25694 -0.16702
 C1401 C 0.72078 0.26314 -0.15126
 C1402 C 0.72328 0.25243 -0.13803
 C1403 C 0.72486 0.22391 -0.12620
 C1404 C 0.71820 0.22752 -0.11058
 C1405 C 0.72070 0.21683 -0.09733
 C1406 C 0.72996 0.20231 -0.09940
 C1407 C 0.73663 0.19871 -0.11502
 C1408 C 0.73409 0.20938 -0.12829
 C1409 C 0.73266 0.19099 -0.08530
 C1410 C 0.74816 0.18374 -0.08275
 C1411 C 0.75072 0.17314 -0.06944
 C1412 C 0.73782 0.16951 -0.05842
 C1413 C 0.72230 0.17673 -0.06099
 C1414 C 0.71975 0.18737 -0.07427
 H1415 H 0.71753 0.21592 -0.15811
 H1416 H 0.71337 0.23465 -0.18129
 H1417 H 0.72154 0.27631 -0.14913
 H1418 H 0.72622 0.25758 -0.12607
 H1419 H 0.71091 0.23854 -0.10863
 H1420 H 0.71553 0.22001 -0.08540
 H1421 H 0.74369 0.18755 -0.11703
 H1422 H 0.73950 0.20634 -0.14014
 H1423 H 0.75839 0.18642 -0.09095
 H1424 H 0.76278 0.16765 -0.06786
 H1425 H 0.71215 0.17429 -0.05262
 H1426 H 0.70763 0.19265 -0.07601
 C1427 C 0.22019 0.73581 0.35983
 C1428 C 0.21623 0.72961 0.34415
 C1429 C 0.21360 0.74032 0.33094
 C1430 C 0.21494 0.75746 0.33311
 C1431 C 0.21894 0.76366 0.34878
 C1432 C 0.22150 0.75296 0.36200
 C1433 C 0.22295 0.72445 0.37388
 C1434 C 0.21651 0.72812 0.38958
 C1435 C 0.21910 0.71743 0.40281
 C1436 C 0.22825 0.70286 0.40064
 C1437 C 0.23471 0.69920 0.38494
 C1438 C 0.23205 0.70986 0.37169
 C1439 C 0.23108 0.69155 0.41471
 C1440 C 0.24661 0.68431 0.41712
 C1441 C 0.24930 0.67373 0.43042
 C1442 C 0.23649 0.67009 0.44156
 C1443 C 0.22094 0.67730 0.43912
 C1444 C 0.21828 0.68794 0.42586
 H1445 H 0.21499 0.71646 0.34214
 H1446 H 0.21067 0.73518 0.31897
 H1447 H 0.21991 0.77682 0.35085
 H1448 H 0.22469 0.75809 0.37390
 H1449 H 0.20931 0.73920 0.39160
 H1450 H 0.21411 0.72066 0.41480
 H1451 H 0.24168 0.68799 0.38286
 H1452 H 0.23729 0.70677 0.35977
 H1453 H 0.25675 0.68698 0.40883
 H1454 H 0.26137 0.66824 0.43190
 H1455 H 0.21088 0.67486 0.44758
 H1456 H 0.20614 0.69322 0.42423
 C1457 C 0.27699 0.73707 0.64062
 C1458 C 0.28067 0.73084 0.65634
 C1459 C 0.28334 0.74153 0.66960
 C1460 C 0.28232 0.75869 0.66745
 C1461 C 0.27862 0.76492 0.65174
 C1462 C 0.27602 0.75423 0.63847
 C1463 C 0.27416 0.72570 0.62654
 C1464 C 0.28072 0.72924 0.61087
 C1465 C 0.27811 0.71850 0.59763
 C1466 C 0.26883 0.70403 0.59976
 C1467 C 0.26224 0.70052 0.61542
 C1468 C 0.26490 0.71122 0.62867
 C1469 C 0.26606 0.69262 0.58570
 C1470 C 0.25055 0.68533 0.58327
 C1471 C 0.24794 0.67459 0.57004
 C1472 C 0.26080 0.67084 0.55898
 C1473 C 0.27632 0.67811 0.56143
 C1474 C 0.27891 0.68890 0.57462
 H1475 H 0.28167 0.71768 0.65835
 H1476 H 0.28601 0.73636 0.68160
 H1477 H 0.27791 0.77809 0.64968
 H1478 H 0.27305 0.75940 0.62654
 H1479 H 0.28804 0.74022 0.60889
 H1480 H 0.28321 0.72162 0.58568
 H1481 H 0.25517 0.68938 0.61748
 H1482 H 0.25955 0.70825 0.64056
 H1483 H 0.24036 0.68808 0.59151
 H1484 H 0.23589 0.66906 0.56857
 H1485 H 0.28642 0.67560 0.55302
 H1486 H 0.29103 0.69420 0.57626
 C1487 C 0.77675 0.23485 0.14212
 C1488 C 0.78191 0.22874 0.15745
 C1489 C 0.78461 0.23946 0.17068
 C1490 C 0.78230 0.25654 0.16885
 C1491 C 0.77714 0.26263 0.15349
 C1492 C 0.77436 0.25190 0.14029
 C1493 C 0.77394 0.22349 0.12804
 C1494 C 0.76019 0.22551 0.11779
 C1495 C 0.75760 0.21487 0.10447
 C1496 C 0.76875 0.20202 0.10105
 C1497 C 0.78251 0.20002 0.11133
 C1498 C 0.78505 0.21060 0.12470
 C1499 C 0.76607 0.19079 0.08679
 C1500 C 0.76963 0.17387 0.08804
 C1501 C 0.76720 0.16333 0.07461
 C1502 C 0.76107 0.16946 0.05965
 C1503 C 0.75746 0.18635 0.05839
 C1504 C 0.75997 0.19690 0.07179
 H1505 H 0.78363 0.21563 0.15928
 H1506 H 0.78831 0.23434 0.18242
 H1507 H 0.77553 0.27574 0.15158
 H1508 H 0.77062 0.25698 0.12855
 H1509 H 0.75130 0.23518 0.12021
 H1510 H 0.74673 0.21658 0.09698
 H1511 H 0.79148 0.19043 0.10888
 H1512 H 0.79588 0.20890 0.13225
 H1513 H 0.77408 0.16870 0.09949
 H1514 H 0.76987 0.15033 0.07601
 H1515 H 0.75295 0.19145 0.04694
 H1516 H 0.75737 0.20991 0.07032
 C1517 C 0.47521 0.39350 0.51276
 C1518 C 0.47017 0.40893 0.51889
 C1519 C 0.46724 0.42205 0.50815
 C1520 C 0.46924 0.42003 0.49104
 C1521 C 0.47428 0.40459 0.48492
 C1522 C 0.47726 0.39148 0.49566
 C1523 C 0.47825 0.37954 0.52415
 C1524 C 0.49187 0.36909 0.52179
 C1525 C 0.49469 0.35589 0.53248
 C1526 C 0.48390 0.35282 0.54574
 C1527 C 0.47028 0.36330 0.54810
 C1528 C 0.46750 0.37652 0.53744
 C1529 C 0.48680 0.33870 0.55703
 C1530 C 0.48387 0.34030 0.57406
 C1531 C 0.48640 0.32696 0.58464
 C1532 C 0.49199 0.31175 0.57845
 C1533 C 0.49502 0.31017 0.56144
 C1534 C 0.49243 0.32349 0.55085
 H1535 H 0.46871 0.41091 0.53203
 H1536 H 0.46364 0.43386 0.51328
 H1537 H 0.47567 0.40255 0.47178
 H1538 H 0.48090 0.37967 0.49056
 H1539 H 0.50050 0.37126 0.51180
 H1540 H 0.50544 0.34823 0.53048
 H1541 H 0.46158 0.36110 0.55802
 H1542 H 0.45677 0.38422 0.53943
 H1543 H 0.47981 0.35192 0.57926
 H1544 H 0.48420 0.32862 0.59772
 H1545 H 0.49909 0.29853 0.55628
 H1546 H 0.49454 0.32177 0.53776
 C1547 C -0.02534 0.89203 0.01191
 C1548 C -0.03075 0.90731 0.01814
 C1549 C -0.03349 0.92059 0.00756
 C1550 C -0.03095 0.91891 -0.00953
 C1551 C -0.02555 0.90364 -0.01576
 C1552 C -0.02276 0.89037 -0.00517
 C1553 C -0.02246 0.87790 0.02318
 C1554 C -0.02691 0.86181 0.01850
 C1555 C -0.02428 0.84854 0.02914
 C1556 C -0.01722 0.85106 0.04472
 C1557 C -0.01274 0.86713 0.04940
 C1558 C -0.01530 0.88039 0.03874
 C1559 C -0.01462 0.83700 0.05610
 C1560 C -0.01836 0.83856 0.07297
 C1561 C -0.01609 0.82527 0.08366
 C1562 C -0.00995 0.81017 0.07774
 C1563 C -0.00612 0.80864 0.06088
 C1564 C -0.00848 0.82190 0.05017
 H1565 H -0.03305 0.90896 0.03121
 H1566 H -0.03746 0.93224 0.01278
 H1567 H -0.02364 0.90188 -0.02887
 H1568 H -0.01842 0.87883 -0.01035
 H1569 H -0.03270 0.85950 0.00672
 H1570 H -0.02807 0.83632 0.02529
 H1571 H -0.00705 0.86941 0.06124
 H1572 H -0.01147 0.89258 0.04261
 H1573 H -0.02325 0.85000 0.07786
 H1574 H -0.01901 0.82686 0.09662
 H1575 H -0.00151 0.79710 0.05594
 H1576 H -0.00536 0.82039 0.03725
 C1577 C 0.02784 0.60965 0.01231
 C1578 C 0.01452 0.60172 0.00475
 C1579 C 0.01713 0.58832 -0.00581
 C1580 C 0.03318 0.58228 -0.00898
 C1581 C 0.04649 0.59039 -0.00124
 C1582 C 0.04385 0.60392 0.00915
 C1583 C 0.02504 0.62384 0.02353
 C1584 C 0.03483 0.63806 0.02229
 C1585 C 0.03216 0.65145 0.03286
 C1586 C 0.01974 0.65085 0.04501
 C1587 C 0.01000 0.63656 0.04625
 C1588 C 0.01257 0.62324 0.03558
 C1589 C 0.01697 0.66505 0.05635
 C1590 C 0.00095 0.66946 0.06134
 C1591 C -0.00164 0.68273 0.07207
 C1592 C 0.01172 0.69201 0.07799
 C1593 C 0.02774 0.68765 0.07293
 C1594 C 0.03034 0.67430 0.06231
 H1595 H 0.00204 0.60593 0.00696
 H1596 H 0.00635 0.58234 -0.01085
 H1597 H 0.05912 0.58681 -0.00361
 H1598 H 0.05435 0.60982 0.01484
 H1599 H 0.04438 0.63892 0.01297
 H1600 H 0.03969 0.66236 0.03134
 H1601 H 0.00054 0.63554 0.05565
 H1602 H 0.00500 0.61233 0.03694
 H1603 H -0.00965 0.66276 0.05684
 H1604 H -0.01413 0.68560 0.07586
 H1605 H 0.03831 0.69464 0.07705
 H1606 H 0.04286 0.67113 0.05890
 C1607 C 0.52848 0.11023 0.51242
 C1608 C 0.51508 0.10050 0.50741
 C1609 C 0.51751 0.08699 0.49695
 C1610 C 0.53338 0.08289 0.49128
 C1611 C 0.54679 0.09263 0.49629
 C1612 C 0.54436 0.10616 0.50672
 C1613 C 0.52590 0.12455 0.52359
 C1614 C 0.53442 0.13940 0.52095
 C1615 C 0.53196 0.15288 0.53146
 C1616 C 0.52094 0.15179 0.54485
 C1617 C 0.51244 0.13693 0.54748
 C1618 C 0.51489 0.12347 0.53697
 C1619 C 0.51835 0.16610 0.55604
 C1620 C 0.50250 0.17000 0.56192
 C1621 C 0.50006 0.18340 0.57252
 C1622 C 0.51343 0.19321 0.57749
 C1623 C 0.52927 0.18933 0.57157
 C1624 C 0.53170 0.17594 0.56097
 H1625 H 0.50269 0.10342 0.51145
 H1626 H 0.50696 0.07962 0.49344
 H1627 H 0.55914 0.08987 0.49200
 H1628 H 0.55495 0.11333 0.51049
 H1629 H 0.54279 0.14070 0.51060
 H1630 H 0.53850 0.16424 0.52895
 H1631 H 0.50409 0.13561 0.55785
 H1632 H 0.50835 0.11210 0.53948
 H1633 H 0.49193 0.16277 0.55821
 H1634 H 0.48773 0.18596 0.57699
 H1635 H 0.53980 0.19676 0.57502
 H1636 H 0.54409 0.17316 0.55678
 C1637 C -0.02829 0.10840 0.48619
 C1638 C -0.02612 0.11029 0.50328
 C1639 C -0.02884 0.09708 0.51398
 C1640 C -0.03375 0.08163 0.50784
 C1641 C -0.03591 0.07972 0.49076
 C1642 C -0.03323 0.09295 0.48006
 C1643 C -0.02542 0.12247 0.47482
 C1644 C -0.01774 0.12000 0.45943
 C1645 C -0.01502 0.13324 0.44876
 C1646 C -0.01987 0.14927 0.45326
 C1647 C -0.02754 0.15176 0.46864
 C1648 C -0.03031 0.13851 0.47928
 C1649 C -0.01694 0.16335 0.44196
 C1650 C -0.01126 0.17853 0.44809
 C1651 C -0.00855 0.19180 0.43746
 C1652 C -0.01153 0.19022 0.42048
 C1653 C -0.01722 0.17505 0.41434
 C1654 C -0.01985 0.16174 0.42496
 H1655 H -0.02214 0.12197 0.50839
 H1656 H -0.02724 0.09901 0.52709
 H1657 H -0.03952 0.06794 0.48562
 H1658 H -0.03519 0.09112 0.46698
 H1659 H -0.01357 0.10785 0.45574
 H1660 H -0.00887 0.13099 0.43709
 H1661 H -0.03164 0.16394 0.47233
 H1662 H -0.03652 0.14080 0.49091
 H1663 H -0.00877 0.18009 0.46111
 H1664 H -0.00432 0.20339 0.44257
 H1665 H -0.01948 0.17341 0.40129
 H1666 H -0.02437 0.15025 0.41990
 C1667 C 0.47226 0.60824 0.98619
 C1668 C 0.48565 0.60053 0.99389
 C1669 C 0.48319 0.58724 1.00457
 C1670 C 0.46722 0.58107 1.00777
 C1671 C 0.45384 0.58886 0.99987
 C1672 C 0.45633 0.60227 0.98936
 C1673 C 0.47490 0.62247 0.97491
 C1674 C 0.46516 0.62441 0.96075
 C1675 C 0.46757 0.63781 0.95021
 C1676 C 0.47988 0.64955 0.95347
 C1677 C 0.48967 0.64757 0.96758
 C1678 C 0.48717 0.63424 0.97820
 C1679 C 0.48248 0.66379 0.94220
 C1680 C 0.48671 0.67939 0.94850
 C1681 C 0.48919 0.69275 0.93792
 C1682 C 0.48732 0.69086 0.92081
 C1683 C 0.48304 0.67532 0.91449
 C1684 C 0.48073 0.66192 0.92505
 H1685 H 0.49814 0.60453 0.99142
 H1686 H 0.49402 0.58143 1.00966
 H1687 H 0.44125 0.58521 1.00231
 H1688 H 0.44568 0.60817 0.98396
 H1689 H 0.45574 0.61547 0.95770
 H1690 H 0.45964 0.63905 0.93958
 H1691 H 0.49941 0.65624 0.97037
 H1692 H 0.49476 0.63328 0.98910
 H1693 H 0.48787 0.68137 0.96165
 H1694 H 0.49227 0.70465 0.94313
 H1695 H 0.48173 0.67349 0.90132
 H1696 H 0.47779 0.65003 0.91973
 C1697 C 0.52568 0.89086 0.98725
 C1698 C 0.52354 0.88888 1.00433
 C1699 C 0.52636 0.90204 1.01511
 C1700 C 0.53131 0.91750 1.00903
 C1701 C 0.53338 0.91948 0.99193
 C1702 C 0.53063 0.90630 0.98116
 C1703 C 0.52281 0.87685 0.97582
 C1704 C 0.53368 0.87382 0.96262
 C1705 C 0.53106 0.86055 0.95193
 C1706 C 0.51745 0.85007 0.95416
 C1707 C 0.50653 0.85314 0.96731
 C1708 C 0.50920 0.86636 0.97805
 C1709 C 0.51469 0.83595 0.94282
 C1710 C 0.49880 0.83228 0.93710
 C1711 C 0.49623 0.81902 0.92639
 C1712 C 0.50949 0.80908 0.92120
 C1713 C 0.52538 0.81274 0.92699
 C1714 C 0.52795 0.82604 0.93765
 H1715 H 0.51997 0.87706 1.00940
 H1716 H 0.52491 0.90004 1.02823
 H1717 H 0.53692 0.93130 0.98683
 H1718 H 0.53214 0.90825 0.96803
 H1719 H 0.54435 0.88161 0.96068
 H1720 H 0.53959 0.85858 0.94181
 H1721 H 0.49602 0.84518 0.96942
 H1722 H 0.50053 0.86848 0.98803
 H1723 H 0.48838 0.83985 0.94070
 H1724 H 0.48388 0.81670 0.92195
 H1725 H 0.53581 0.80516 0.92348
 H1726 H 0.54030 0.82841 0.94206
 C1727 C 0.02639 0.39035 0.48760
 C1728 C 0.01309 0.39805 0.49559
 C1729 C 0.01571 0.41131 0.50630
 C1730 C 0.03175 0.41743 0.50919
 C1731 C 0.04502 0.40961 0.50095
 C1732 C 0.04237 0.39623 0.49042
 C1733 C 0.02360 0.37621 0.47633
 C1734 C 0.03362 0.36213 0.47721
 C1735 C 0.03102 0.34879 0.46659
 C1736 C 0.01842 0.34931 0.45474
 C1737 C 0.00842 0.36346 0.45388
 C1738 C 0.01094 0.37672 0.46461
 C1739 C 0.01577 0.33519 0.44331
 C1740 C -0.00022 0.33054 0.43861
 C1741 C -0.00269 0.31734 0.42780
 C1742 C 0.01078 0.30837 0.42148
 C1743 C 0.02677 0.31298 0.42624
 C1744 C 0.02924 0.32625 0.43695
 H1745 H 0.00063 0.39373 0.49364
 H1746 H 0.00496 0.41708 0.51172
 H1747 H 0.05765 0.41327 0.50306
 H1748 H 0.05285 0.39052 0.48437
 H1749 H 0.04333 0.36133 0.48629
 H1750 H 0.03874 0.33799 0.46783
 H1751 H -0.00119 0.36441 0.44473
 H1752 H 0.00317 0.38753 0.46354
 H1753 H -0.01089 0.33700 0.44343
 H1754 H -0.01516 0.31428 0.42425
 H1755 H 0.03742 0.30622 0.42181
 H1756 H 0.04174 0.32961 0.44012
 C1757 C 0.39124 0.51361 0.47188
 C1758 C 0.38985 0.49654 0.47455
 C1759 C 0.40329 0.48610 0.47178
 C1760 C 0.41846 0.49248 0.46632
 C1761 C 0.41986 0.50955 0.46367
 C1762 C 0.40640 0.51998 0.46639
 C1763 C 0.37693 0.52471 0.47480
 C1764 C 0.37916 0.54040 0.48187
 C1765 C 0.36572 0.55086 0.48454
 C1766 C 0.34973 0.54585 0.48028
 C1767 C 0.34746 0.53017 0.47327
 C1768 C 0.36091 0.51973 0.47052
 C1769 C 0.33546 0.55697 0.48311
 C1770 C 0.32060 0.55080 0.48957
 C1771 C 0.30717 0.56128 0.49225
 C1772 C 0.30828 0.57814 0.48841
 C1773 C 0.32313 0.58430 0.48191
 C1774 C 0.33659 0.57383 0.47933
 H1775 H 0.37841 0.49125 0.47896
 H1776 H 0.40174 0.47299 0.47375
 H1777 H 0.43142 0.51488 0.45965
 H1778 H 0.40784 0.53303 0.46403
 H1779 H 0.39129 0.54450 0.48557
 H1780 H 0.36780 0.56279 0.49018
 H1781 H 0.33530 0.52607 0.46965
 H1782 H 0.35879 0.50785 0.46480
 H1783 H 0.31943 0.53789 0.49273
 H1784 H 0.29584 0.55616 0.49713
 H1785 H 0.32439 0.59725 0.47897
 H1786 H 0.34784 0.57890 0.47420
 C1787 C 0.89188 0.01274 -0.02841
 C1788 C 0.89142 -0.00376 -0.02329
 C1789 C 0.90490 -0.01416 -0.02596
 C1790 C 0.91934 -0.00842 -0.03393
 C1791 C 0.91960 0.00823 -0.03907
 C1792 C 0.90611 0.01861 -0.03632
 C1793 C 0.87757 0.02380 -0.02549
 C1794 C 0.87995 0.04013 -0.02021
 C1795 C 0.86649 0.05054 -0.01746
 C1796 C 0.85033 0.04487 -0.01997
 C1797 C 0.84795 0.02853 -0.02525
 C1798 C 0.86142 0.01811 -0.02797
 C1799 C 0.83602 0.05597 -0.01712
 C1800 C 0.82156 0.05003 -0.00960
 C1801 C 0.80810 0.06048 -0.00694
 C1802 C 0.80878 0.07711 -0.01175
 C1803 C 0.82325 0.08305 -0.01927
 C1804 C 0.83670 0.07260 -0.02192
 H1805 H 0.88063 -0.00863 -0.01710
 H1806 H 0.90358 -0.02689 -0.02226
 H1807 H 0.93042 0.01364 -0.04468
 H1808 H 0.90681 0.03128 -0.04047
 H1809 H 0.89224 0.04479 -0.01794
 H1810 H 0.86872 0.06298 -0.01314
 H1811 H 0.83567 0.02386 -0.02755
 H1812 H 0.85920 0.00566 -0.03227
 H1813 H 0.82070 0.03733 -0.00560
 H1814 H 0.79707 0.05549 -0.00129
 H1815 H 0.82424 0.09583 -0.02295
 H1816 H 0.84759 0.07751 -0.02791
 C1817 C 0.60820 0.01193 0.02857
 C1818 C 0.59292 0.01817 0.03394
 C1819 C 0.57957 0.00762 0.03659
 C1820 C 0.58118 -0.00945 0.03399
 C1821 C 0.59646 -0.01570 0.02865
 C1822 C 0.60980 -0.00514 0.02595
 C1823 C 0.62240 0.02316 0.02574
 C1824 C 0.63843 0.01838 0.03017
 C1825 C 0.65178 0.02894 0.02748
 C1826 C 0.64940 0.04454 0.02039
 C1827 C 0.63338 0.04934 0.01598
 C1828 C 0.62004 0.03876 0.01859
 C1829 C 0.66356 0.05577 0.01760
 C1830 C 0.66222 0.07266 0.02123
 C1831 C 0.67558 0.08323 0.01868
 C1832 C 0.69055 0.07714 0.01234
 C1833 C 0.69187 0.06025 0.00866
 C1834 C 0.67854 0.04967 0.01131
 H1835 H 0.59131 0.03123 0.03627
 H1836 H 0.56792 0.01285 0.04053
 H1837 H 0.59817 -0.02881 0.02671
 H1838 H 0.62134 -0.01034 0.02163
 H1839 H 0.64064 0.00657 0.03595
 H1840 H 0.66395 0.02500 0.03122
 H1841 H 0.63121 0.06120 0.01027
 H1842 H 0.60790 0.04271 0.01478
 H1843 H 0.65088 0.07768 0.02624
 H1844 H 0.67416 0.09621 0.02150
 H1845 H 0.70330 0.05519 0.00390
 H1846 H 0.67988 0.03673 0.00826
 C1847 C 0.10826 0.51148 0.52858
 C1848 C 0.09851 0.50623 0.51529
 C1849 C 0.08519 0.49563 0.51790
 C1850 C 0.08127 0.49012 0.53386
 C1851 C 0.09100 0.49538 0.54715
 C1852 C 0.10438 0.50591 0.54454
 C1853 C 0.12239 0.52276 0.52582
 C1854 C 0.13743 0.52015 0.53393
 C1855 C 0.15075 0.53076 0.53129
 C1856 C 0.14931 0.54426 0.52054
 C1857 C 0.13425 0.54687 0.51246
 C1858 C 0.12096 0.53622 0.51504
 C1859 C 0.16346 0.55557 0.51777
 C1860 C 0.16678 0.56192 0.50198
 C1861 C 0.18003 0.57260 0.49939
 C1862 C 0.19033 0.57718 0.51252
 C1863 C 0.18704 0.57080 0.52830
 C1864 C 0.17376 0.56015 0.53090
 H1865 H 0.10130 0.51020 0.50285
 H1866 H 0.07782 0.49189 0.50744
 H1867 H 0.08835 0.49121 0.55957
 H1868 H 0.11158 0.50987 0.55503
 H1869 H 0.13897 0.50974 0.54212
 H1870 H 0.16225 0.52823 0.53749
 H1871 H 0.13264 0.55731 0.50432
 H1872 H 0.10945 0.53868 0.50881
 H1873 H 0.15921 0.55849 0.49156
 H1874 H 0.18211 0.57744 0.48712
 H1875 H 0.19484 0.57391 0.53864
 H1876 H 0.17144 0.55563 0.54325
 C1877 C 0.10896 0.48751 -0.02668
 C1878 C 0.09432 0.48142 -0.03347
 C1879 C 0.08096 0.49190 -0.03626
 C1880 C 0.08175 0.50884 -0.03215
 C1881 C 0.09656 0.51478 -0.02522
 C1882 C 0.10996 0.50429 -0.02264
 C1883 C 0.12315 0.47637 -0.02385
 C1884 C 0.13917 0.48123 -0.02834
 C1885 C 0.15253 0.47066 -0.02584
 C1886 C 0.15015 0.45509 -0.01863
 C1887 C 0.13415 0.45029 -0.01403
 C1888 C 0.12077 0.46079 -0.01669
 C1889 C 0.16431 0.44387 -0.01599
 C1890 C 0.16603 0.43535 -0.00103
 C1891 C 0.17938 0.42476 0.00145
 C1892 C 0.19117 0.42233 -0.01106
 C1893 C 0.18943 0.43081 -0.02605
 C1894 C 0.17618 0.44153 -0.02846
 H1895 H 0.09323 0.46851 -0.03675
 H1896 H 0.06981 0.48641 -0.04104
 H1897 H 0.09823 0.52770 -0.02235
 H1898 H 0.12112 0.50930 -0.01735
 H1899 H 0.14132 0.49312 -0.03400
 H1900 H 0.16475 0.47471 -0.02938
 H1901 H 0.13197 0.43831 -0.00858
 H1902 H 0.10857 0.45680 -0.01300
 H1903 H 0.15713 0.43703 0.00883
 H1904 H 0.18036 0.41828 0.01307
 H1905 H 0.19842 0.42927 -0.03584
 H1906 H 0.17508 0.44784 -0.04016
 C1907 C 0.60786 0.98665 0.47298
 C1908 C 0.60900 1.00337 0.47721
 C1909 C 0.59569 1.01401 0.47471
 C1910 C 0.58084 1.00827 0.46769
 C1911 C 0.57991 0.99138 0.46340
 C1912 C 0.59318 0.98075 0.46611
 C1913 C 0.62197 0.97538 0.47572
 C1914 C 0.61949 0.95977 0.48277
 C1915 C 0.63282 0.94920 0.48544
 C1916 C 0.64886 0.95396 0.48095
 C1917 C 0.65133 0.96954 0.47381
 C1918 C 0.63803 0.98018 0.47130
 C1919 C 0.66299 0.94271 0.48368
 C1920 C 0.67495 0.94038 0.47131
 C1921 C 0.68822 0.92972 0.47386
 C1922 C 0.68989 0.92131 0.48888
 C1923 C 0.67798 0.92371 0.50129
 C1924 C 0.66461 0.93424 0.49868
 H1925 H 0.62019 1.00824 0.48257
 H1926 H 0.59747 1.02688 0.47772
 H1927 H 0.56873 0.98605 0.45854
 H1928 H 0.59199 0.96789 0.46271
 H1929 H 0.60726 0.95582 0.48641
 H1930 H 0.63056 0.93721 0.49085
 H1931 H 0.66358 0.97357 0.47035
 H1932 H 0.64026 0.99210 0.46572
 H1933 H 0.67392 0.94667 0.45959
 H1934 H 0.69730 0.92820 0.46414
 H1935 H 0.67891 0.91728 0.51294
 H1936 H 0.65563 0.93591 0.50847
 C1937 C 0.88983 0.98690 0.52821
 C1938 C 0.88815 1.00397 0.52573
 C1939 C 0.90148 1.01457 0.52825
 C1940 C 0.91683 1.00835 0.53326
 C1941 C 0.91852 0.99128 0.53571
 C1942 C 0.90518 0.98069 0.53324
 C1943 C 0.87565 0.97563 0.52555
 C1944 C 0.87800 0.96006 0.51824
 C1945 C 0.86467 0.94945 0.51577
 C1946 C 0.84867 0.95420 0.52049
 C1947 C 0.84629 0.96976 0.52776
 C1948 C 0.85963 0.98034 0.53030
 C1949 C 0.83451 0.94295 0.51781
 C1950 C 0.81949 0.94905 0.51180
 C1951 C 0.80618 0.93844 0.50920
 C1952 C 0.80758 0.92152 0.51264
 C1953 C 0.82258 0.91544 0.51872
 C1954 C 0.83592 0.92603 0.52123
 H1955 H 0.87657 1.00914 0.52167
 H1956 H 0.89972 1.02767 0.52643
 H1957 H 0.93022 0.98607 0.53939
 H1958 H 0.90684 0.96764 0.53545
 H1959 H 0.89012 0.95617 0.51418
 H1960 H 0.86684 0.93763 0.50992
 H1961 H 0.83414 0.97364 0.53174
 H1962 H 0.85743 0.99212 0.53622
 H1963 H 0.81809 0.96200 0.50892
 H1964 H 0.79473 0.94351 0.50465
 H1965 H 0.82406 0.90244 0.52135
 H1966 H 0.84730 0.92101 0.52601
 C1967 C 0.39141 0.48661 0.02799
 C1968 C 0.40098 0.49200 0.01455
 C1969 C 0.41429 0.50264 0.01699
 C1970 C 0.41837 0.50805 0.03293
 C1971 C 0.40884 0.50264 0.04637
 C1972 C 0.39547 0.49206 0.04392
 C1973 C 0.37726 0.47535 0.02538
 C1974 C 0.36233 0.47784 0.03387
 C1975 C 0.34896 0.46730 0.03132
 C1976 C 0.35024 0.45398 0.02025
 C1977 C 0.36521 0.45146 0.01182
 C1978 C 0.37855 0.46204 0.01433
 C1979 C 0.33601 0.44280 0.01749
 C1980 C 0.33248 0.43685 0.00160
 C1981 C 0.31912 0.42633 -0.00101
 C1982 C 0.30893 0.42153 0.01220
 C1983 C 0.31244 0.42749 0.02809
 C1984 C 0.32583 0.43799 0.03070
 H1985 H 0.39805 0.48814 0.00212
 H1986 H 0.42151 0.50649 0.00642
 H1987 H 0.41161 0.50672 0.05877
 H1988 H 0.38841 0.48800 0.05453
 H1989 H 0.36089 0.48814 0.04229
 H1990 H 0.33753 0.46975 0.03781
 H1991 H 0.36669 0.44115 0.00343
 H1992 H 0.38998 0.45966 0.00780
 H1993 H 0.33996 0.44047 -0.00888
 H1994 H 0.31687 0.42181 -0.01337
 H1995 H 0.30473 0.42419 0.03850
 H1996 H 0.32831 0.44220 0.04312
 C1997 C 0.51298 0.47340 0.38882
 C1998 C 0.50749 0.48677 0.39845
 C1999 C 0.49700 0.48421 0.41192
 C2000 C 0.49180 0.46822 0.41609
 C2001 C 0.49726 0.45486 0.40646
 C2002 C 0.50771 0.45742 0.39296
 C2003 C 0.52422 0.47609 0.37455
 C2004 C 0.53716 0.46501 0.37123
 C2005 C 0.54773 0.46753 0.35782
 C2006 C 0.54565 0.48122 0.34745
 C2007 C 0.53275 0.49232 0.35076
 C2008 C 0.52214 0.48978 0.36414
 C2009 C 0.55693 0.48391 0.33324
 C2010 C 0.56287 0.49977 0.32961
 C2011 C 0.57363 0.50226 0.31634
 C2012 C 0.57866 0.48896 0.30636
 C2013 C 0.57263 0.47311 0.30996
 C2014 C 0.56191 0.47061 0.32326
 H2015 H 0.51154 0.49920 0.39576
 H2016 H 0.49317 0.49472 0.41926
 H2017 H 0.49325 0.44243 0.40923
 H2018 H 0.51148 0.44689 0.38562
 H2019 H 0.53928 0.45451 0.37917
 H2020 H 0.55772 0.45891 0.35573
 H2021 H 0.53071 0.50285 0.34284
 H2022 H 0.51214 0.49840 0.36619
 H2023 H 0.55943 0.51021 0.33722
 H2024 H 0.57825 0.51457 0.31407
 H2025 H 0.57602 0.46265 0.30234
 H2026 H 0.55733 0.45830 0.32560
 C2027 C 0.01488 -0.02555 0.89026
 C2028 C 0.00960 -0.04160 0.89408
 C2029 C -0.00095 -0.04439 0.90745
 C2030 C -0.00651 -0.03119 0.91726
 C2031 C -0.00125 -0.01513 0.91343
 C2032 C 0.00936 -0.01235 0.90010
 C2033 C 0.02609 -0.02260 0.87604
 C2034 C 0.03926 -0.01145 0.87736
 C2035 C 0.04987 -0.00877 0.86401
 C2036 C 0.04753 -0.01717 0.84901
 C2037 C 0.03430 -0.02827 0.84769
 C2038 C 0.02372 -0.03097 0.86105
 C2039 C 0.05885 -0.01439 0.83483
 C2040 C 0.06387 -0.02764 0.82478
 C2041 C 0.07447 -0.02504 0.81141
 C2042 C 0.08033 -0.00914 0.80778
 C2043 C 0.07533 0.00410 0.81784
 C2044 C 0.06471 0.00151 0.83120
 H2045 H 0.01378 -0.05203 0.88683
 H2046 H -0.00493 -0.05687 0.91001
 H2047 H -0.00522 -0.00474 0.92086
 H2048 H 0.01310 0.00017 0.89736
 H2049 H 0.04153 -0.00499 0.88883
 H2050 H 0.06009 -0.00033 0.86552
 H2051 H 0.03199 -0.03471 0.83622
 H2052 H 0.01353 -0.03945 0.85958
 H2053 H 0.05973 -0.04006 0.82735
 H2054 H 0.07793 -0.03548 0.80380
 H2055 H 0.07975 0.01647 0.81548
 H2056 H 0.06093 0.01199 0.83859
 C2057 C 0.01216 0.02815 0.60862
 C2058 C 0.00665 0.01476 0.59909
 C2059 C -0.00405 0.01725 0.58588
 C2060 C -0.00946 0.03320 0.58187
 C2061 C -0.00398 0.04660 0.59139
 C2062 C 0.00669 0.04410 0.60463
 C2063 C 0.02361 0.02552 0.62262
 C2064 C 0.03652 0.03666 0.62561
 C2065 C 0.04727 0.03423 0.63879
 C2066 C 0.04538 0.02057 0.64926
 C2067 C 0.03251 0.00940 0.64626
 C2068 C 0.02173 0.01186 0.63310
 C2069 C 0.05681 0.01799 0.66326
 C2070 C 0.06279 0.00216 0.66692
 C2071 C 0.07362 -0.00024 0.68004
 C2072 C 0.07869 0.01313 0.68984
 C2073 C 0.07265 0.02896 0.68621
 C2074 C 0.06185 0.03136 0.67306
 H2075 H 0.01084 0.00236 0.60168
 H2076 H -0.00788 0.00673 0.57861
 H2077 H -0.00814 0.05900 0.58875
 H2078 H 0.01047 0.05464 0.61189
 H2079 H 0.03848 0.04715 0.61760
 H2080 H 0.05723 0.04290 0.64064
 H2081 H 0.03060 -0.00111 0.65426
 H2082 H 0.01175 0.00319 0.63129
 H2083 H 0.05931 -0.00835 0.65944
 H2084 H 0.07825 -0.01254 0.68235
 H2085 H 0.07607 0.03947 0.69369
 H2086 H 0.05725 0.04366 0.67071
 C2087 C 0.51478 0.52685 0.10687
 C2088 C 0.50935 0.51354 0.09720
 C2089 C 0.49858 0.51614 0.08406
 C2090 C 0.49309 0.53211 0.08026
 C2091 C 0.49858 0.54543 0.08989
 C2092 C 0.50928 0.54282 0.10307
 C2093 C 0.52613 0.52410 0.12090
 C2094 C 0.52370 0.53242 0.13593
 C2095 C 0.53439 0.52988 0.14914
 C2096 C 0.54779 0.51898 0.14761
 C2097 C 0.55021 0.51065 0.13257
 C2098 C 0.53948 0.51315 0.11937
 C2099 C 0.55920 0.51635 0.16164
 C2100 C 0.56538 0.50055 0.16511
 C2101 C 0.57605 0.49807 0.17836
 C2102 C 0.58077 0.51134 0.18847
 C2103 C 0.57460 0.52715 0.18498
 C2104 C 0.56396 0.52963 0.17172
 H2105 H 0.51327 0.50108 0.09993
 H2106 H 0.49466 0.50566 0.07676
 H2107 H 0.49443 0.55785 0.08734
 H2108 H 0.51338 0.55333 0.11021
 H2109 H 0.51337 0.54074 0.13756
 H2110 H 0.53201 0.53627 0.16064
 H2111 H 0.56056 0.50237 0.13090
 H2112 H 0.54179 0.50674 0.10787
 H2113 H 0.56182 0.49003 0.15770
 H2114 H 0.58072 0.48578 0.18060
 H2115 H 0.57783 0.53760 0.19263
 H2116 H 0.55958 0.54199 0.16927
 C2117 C 0.48661 -0.02906 0.11111
 C2118 C 0.49207 -0.04502 0.10701
 C2119 C 0.50257 -0.04755 0.09353
 C2120 C 0.50789 -0.03420 0.08387
 C2121 C 0.50249 -0.01824 0.08799
 C2122 C 0.49194 -0.01571 0.10143
 C2123 C 0.47536 -0.02638 0.12539
 C2124 C 0.47730 -0.01258 0.13573
 C2125 C 0.46668 -0.01002 0.14911
 C2126 C 0.45392 -0.02123 0.15250
 C2127 C 0.45199 -0.03504 0.14220
 C2128 C 0.46258 -0.03757 0.12879
 C2129 C 0.44262 -0.01850 0.16669
 C2130 C 0.43783 -0.03172 0.17681
 C2131 C 0.42715 -0.02916 0.19014
 C2132 C 0.42096 -0.01333 0.19363
 C2133 C 0.42576 -0.00011 0.18350
 C2134 C 0.43649 -0.00266 0.17020
 H2135 H 0.48842 -0.05553 0.11437
 H2136 H 0.50673 -0.05996 0.09079
 H2137 H 0.50620 -0.00774 0.08063
 H2138 H 0.48775 -0.00330 0.10409
 H2139 H 0.48719 -0.00387 0.13362
 H2140 H 0.46861 0.00061 0.15697
 H2141 H 0.44212 -0.04376 0.14436
 H2142 H 0.46057 -0.04817 0.12091
 H2143 H 0.44255 -0.04401 0.17455
 H2144 H 0.42393 -0.03955 0.19787
 H2145 H 0.42101 0.01218 0.18568
 H2146 H 0.43977 0.00772 0.16248
 C2147 C 0.98533 0.47194 0.60945
 C2148 C 0.99062 0.45591 0.60544
 C2149 C 1.00123 0.45321 0.59207
 C2150 C 1.00683 0.46647 0.58245
 C2151 C 1.00157 0.48250 0.58646
 C2152 C 0.99092 0.48521 0.59979
 C2153 C 0.97407 0.47481 0.62368
 C2154 C 0.97621 0.48855 0.63406
 C2155 C 0.96565 0.49120 0.64748
 C2156 C 0.95275 0.48015 0.65086
 C2157 C 0.95060 0.46642 0.64050
 C2158 C 0.96112 0.46379 0.62705
 C2159 C 0.94161 0.48290 0.66517
 C2160 C 0.93671 0.46965 0.67519
 C2161 C 0.92622 0.47223 0.68867
 C2162 C 0.92033 0.48811 0.69241
 C2163 C 0.92524 0.50137 0.68238
 C2164 C 0.93577 0.49880 0.66893
 H2165 H 0.98678 0.44546 0.61279
 H2166 H 1.00528 0.44075 0.58943
 H2167 H 1.00550 0.49294 0.57911
 H2168 H 0.98687 0.49767 0.60239
 H2169 H 0.98622 0.49712 0.63197
 H2170 H 0.96776 0.50176 0.65538
 H2171 H 0.94061 0.45783 0.64265
 H2172 H 0.95896 0.45325 0.61914
 H2173 H 0.94121 0.45730 0.67276
 H2174 H 0.92292 0.46180 0.69632
 H2175 H 0.92071 0.51371 0.68476
 H2176 H 0.93914 0.50921 0.66129
 C2177 C 0.98582 0.52536 0.89321
 C2178 C 1.00287 0.52285 0.89141
 C2179 C 1.01350 0.52559 0.90464
 C2180 C 1.00733 0.53087 0.91999
 C2181 C 0.99027 0.53327 0.92183
 C2182 C 0.97964 0.53056 0.90859
 C2183 C 0.97455 0.52269 0.87905
 C2184 C 0.95899 0.51543 0.88142
 C2185 C 0.94839 0.51300 0.86811
 C2186 C 0.95312 0.51773 0.85211
 C2187 C 0.96867 0.52496 0.84972
 C2188 C 0.97925 0.52744 0.86304
 C2189 C 0.94187 0.51517 0.83796
 C2190 C 0.94796 0.50931 0.82280
 C2191 C 0.93738 0.50694 0.80946
 C2192 C 0.92049 0.51047 0.81097
 C2193 C 0.91440 0.51636 0.82613
 C2194 C 0.92496 0.51863 0.83950
 H2195 H 1.00801 0.51865 0.87979
 H2196 H 1.02660 0.52380 0.90276
 H2197 H 0.98511 0.53715 0.93355
 H2198 H 0.96659 0.53278 0.91034
 H2199 H 0.95510 0.51139 0.89355
 H2200 H 0.93657 0.50719 0.87028
 H2201 H 0.97255 0.52896 0.83757
 H2202 H 0.99102 0.53334 0.86083
 H2203 H 0.96091 0.50639 0.82129
 H2204 H 0.94246 0.50254 0.79788
 H2205 H 0.90141 0.51903 0.82771
 H2206 H 0.91994 0.52331 0.85099
 C2207 C 0.48507 0.02619 0.39327
 C2208 C 0.49023 0.01307 0.40332
 C2209 C 0.50106 0.01584 0.41639
 C2210 C 0.50693 0.03179 0.41973
 C2211 C 0.50178 0.04490 0.40970
 C2212 C 0.49100 0.04213 0.39661
 C2213 C 0.47358 0.02328 0.37935
 C2214 C 0.46103 0.03468 0.37583
 C2215 C 0.45036 0.03207 0.36262
 C2216 C 0.45194 0.01796 0.35265
 C2217 C 0.46440 0.00650 0.35622
 C2218 C 0.47512 0.00913 0.36940
 C2219 C 0.44068 0.01527 0.33852
 C2220 C 0.43424 -0.00047 0.33525
 C2221 C 0.42365 -0.00299 0.32194
 C2222 C 0.41931 0.01017 0.31156
 C2223 C 0.42578 0.02591 0.31484
 C2224 C 0.43632 0.02843 0.32818
 H2225 H 0.48569 0.00069 0.40124
 H2226 H 0.50464 0.00554 0.42406
 H2227 H 0.50631 0.05728 0.41181
 H2228 H 0.48750 0.05245 0.38893
 H2229 H 0.45933 0.04555 0.38343
 H2230 H 0.44070 0.04099 0.36034
 H2231 H 0.46607 -0.00437 0.34861
 H2232 H 0.48481 0.00024 0.37162
 H2233 H 0.43718 -0.01080 0.34315
 H2234 H 0.41867 -0.01520 0.31991
 H2235 H 0.42292 0.03625 0.30693
 H2236 H 0.44130 0.04065 0.33024
   
