data_POSCAR
  _audit_creation_date              2014-09-24
  _audit_creation_method            'ToBaCCo'
  _symmetry_space_group_name_H-M    'P1'
  _symmetry_Int_Tables_number       1
  _symmetry_cell_setting            triclinic
  loop_
  _symmetry_equiv_pos_as_xyz
 x,y,z
_cell_length_a 84.9252
_cell_length_b 84.8397
_cell_length_c 84.9236
_cell_angle_alpha 90.059200
_cell_angle_beta 90.047600
_cell_angle_gamma 90.026600
loop_
  _atom_site_label
  _atom_site_type_symbol
  _atom_site_fract_x
  _atom_site_fract_y
  _atom_site_fract_z
N1 N 0.30875 0.43049 0.89789
 N2 N 0.31966 0.44151 0.89811
 C3 C 0.31718 0.45147 0.88599
 C4 C 0.30405 0.44636 0.87790
 C5 C 0.29896 0.43306 0.88568
 H6 H 0.32429 0.46169 0.88328
 H7 H 0.28885 0.42588 0.88274
 Cu8 Cu 0.33591 0.44162 0.91431
 Cu9 Cu 0.30782 0.41381 0.91364
 Cu10 Cu 0.33681 0.41400 0.94253
 N11 N 0.35218 0.44173 0.93050
 N12 N 0.35248 0.43078 0.94147
 C13 C 0.36472 0.43350 0.95121
 C14 C 0.37241 0.44682 0.94601
 C15 C 0.36425 0.45180 0.93288
 H16 H 0.36772 0.42640 0.96135
 H17 H 0.36687 0.46198 0.92570
 N18 N 0.31990 0.39805 0.94161
 N19 N 0.30888 0.39798 0.93061
 C20 C 0.29885 0.38599 0.93342
 C21 C 0.30385 0.37825 0.94677
 C22 C 0.31717 0.38610 0.95169
 H23 H 0.28857 0.38319 0.92645
 H24 H 0.32418 0.38340 0.96198
 H25 H 0.31889 0.42612 0.93146
 H26 H 0.33163 0.41353 0.91874
 N27 N 0.43079 0.85281 0.44154
 N28 N 0.44177 0.85264 0.43060
 C29 C 0.45174 0.86476 0.43310
 C30 C 0.44666 0.87282 0.44626
 C31 C 0.43339 0.86501 0.45137
 H32 H 0.46193 0.86749 0.42597
 H33 H 0.42624 0.86791 0.46150
 Cu34 Cu 0.44180 0.83643 0.41432
 Cu35 Cu 0.41413 0.83700 0.44248
 Cu36 Cu 0.41421 0.80813 0.41346
 N37 N 0.44184 0.82024 0.39804
 N38 N 0.43090 0.80925 0.39776
 C39 C 0.43355 0.79951 0.38551
 C40 C 0.44683 0.80471 0.37778
 C41 C 0.45184 0.81785 0.38595
 H42 H 0.42644 0.78936 0.38252
 H43 H 0.46202 0.82503 0.38328
 N44 N 0.39834 0.80900 0.43040
 N45 N 0.39831 0.81999 0.44144
 C46 C 0.38636 0.81713 0.45148
 C47 C 0.37861 0.80378 0.44647
 C48 C 0.38641 0.79889 0.43312
 H49 H 0.38359 0.82409 0.46178
 H50 H 0.38370 0.78861 0.42609
 H51 H 0.42640 0.81921 0.43134
 H52 H 0.41377 0.83193 0.41866
 N53 N 0.92997 0.89767 0.80919
 N54 N 0.94100 0.89791 0.82008
 C55 C 0.95104 0.88587 0.81752
 C56 C 0.94595 0.87777 0.80438
 C57 C 0.93259 0.88550 0.79935
 H58 H 0.96129 0.88319 0.82459
 H59 H 0.92541 0.88254 0.78925
 Cu60 Cu 0.94106 0.91409 0.83637
 Cu61 Cu 0.91319 0.91333 0.80836
 Cu62 Cu 0.91328 0.94217 0.83743
 N63 N 0.94112 0.93025 0.85267
 N64 N 0.93012 0.94117 0.85304
 C65 C 0.93281 0.95089 0.86531
 C66 C 0.94617 0.94573 0.87294
 C67 C 0.95120 0.93265 0.86472
 H68 H 0.92566 0.96098 0.86837
 H69 H 0.96143 0.92550 0.86730
 N70 N 0.89728 0.94117 0.82058
 N71 N 0.89725 0.93020 0.80952
 C72 C 0.88513 0.93289 0.79961
 C73 C 0.87727 0.94612 0.80472
 C74 C 0.88518 0.95113 0.81798
 H75 H 0.88231 0.92587 0.78935
 H76 H 0.88239 0.96134 0.82507
 H77 H 0.92541 0.93119 0.81944
 H78 H 0.91296 0.91836 0.83218
 N79 N 0.43018 -0.10218 0.30876
 N80 N 0.44128 -0.10184 0.31957
 C81 C 0.45130 -0.11389 0.31707
 C82 C 0.44614 -0.12209 0.30403
 C83 C 0.43276 -0.11443 0.29901
 H84 H 0.46163 -0.11646 0.32406
 H85 H 0.42555 -0.11745 0.28894
 Cu86 Cu 0.44171 -0.08550 0.33565
 Cu87 Cu 0.41347 -0.08655 0.30786
 Cu88 Cu 0.41351 -0.05768 0.33678
 N89 N 0.44132 -0.06945 0.35202
 N90 N 0.43024 -0.05863 0.35240
 C91 C 0.43285 -0.04890 0.36467
 C92 C 0.44623 -0.05396 0.37230
 C93 C 0.45136 -0.06698 0.36407
 H94 H 0.42565 -0.03884 0.36772
 H95 H 0.46168 -0.07400 0.36662
 N96 N 0.39758 -0.05870 0.31995
 N97 N 0.39757 -0.06970 0.30892
 C98 C 0.38546 -0.06707 0.29901
 C99 C 0.37760 -0.05383 0.30410
 C100 C 0.38548 -0.04878 0.31733
 H101 H 0.38264 -0.07412 0.28878
 H102 H 0.38267 -0.03856 0.32441
 H103 H 0.42573 -0.06859 0.31881
 H104 H 0.41353 -0.08156 0.33172
 N105 N 0.80821 0.31939 0.35175
 N106 N 0.81905 0.30832 0.35148
 C107 C 0.81637 0.29815 0.36337
 C108 C 0.80318 0.30319 0.37137
 C109 C 0.79827 0.31666 0.36378
 H110 H 0.82337 0.28784 0.36598
 H111 H 0.78815 0.32382 0.36670
 Cu112 Cu 0.83539 0.30834 0.33544
 Cu113 Cu 0.80750 0.33628 0.33624
 Cu114 Cu 0.83663 0.33629 0.30757
 N115 N 0.85172 0.30836 0.31940
 N116 N 0.85215 0.31941 0.30856
 C117 C 0.86442 0.31674 0.29889
 C118 C 0.87199 0.30334 0.30399
 C119 C 0.86374 0.29826 0.31700
 H120 H 0.86753 0.32392 0.28885
 H121 H 0.86627 0.28798 0.32407
 N122 N 0.81986 0.35232 0.30859
 N123 N 0.80878 0.35233 0.31951
 C124 C 0.79892 0.36448 0.31684
 C125 C 0.80410 0.37239 0.30368
 C126 C 0.81733 0.36448 0.29870
 H127 H 0.78865 0.36729 0.32381
 H128 H 0.82446 0.36729 0.28853
 H129 H 0.81860 0.32412 0.31836
 H130 H 0.83135 0.33649 0.33131
 N131 N -0.18044 0.85282 0.80817
 N132 N -0.19154 0.85248 0.81897
 C133 C -0.20160 0.86452 0.81645
 C134 C -0.19644 0.87271 0.80341
 C135 C -0.18304 0.86505 0.79841
 H136 H -0.21189 0.86711 0.82348
 H137 H -0.17579 0.86808 0.78838
 Cu138 Cu -0.19168 0.83619 0.83514
 Cu139 Cu -0.16361 0.83718 0.80738
 Cu140 Cu -0.16384 0.80817 0.83622
 N141 N -0.19181 0.81990 0.85130
 N142 N -0.18078 0.80901 0.85167
 C143 C -0.18361 0.79913 0.86374
 C144 C -0.19708 0.80411 0.87126
 C145 C -0.20204 0.81729 0.86316
 H146 H -0.17649 0.78899 0.86674
 H147 H -0.21234 0.82434 0.86568
 N148 N -0.14771 0.80930 0.81955
 N149 N -0.14762 0.82032 0.80856
 C150 C -0.13541 0.81770 0.79876
 C151 C -0.12756 0.80446 0.80387
 C152 C -0.13557 0.79938 0.81701
 H153 H -0.13251 0.82477 0.78858
 H154 H -0.13282 0.78915 0.82407
 H155 H -0.17585 0.81921 0.81823
 H156 H -0.16353 0.83200 0.83116
 N157 N 0.94167 0.35235 0.43058
 N158 N 0.93084 0.35197 0.44165
 C159 C 0.93329 0.36402 0.45173
 C160 C 0.94631 0.37226 0.44661
 C161 C 0.95138 0.36463 0.43321
 H162 H 0.92625 0.36656 0.46203
 H163 H 0.96141 0.36771 0.42599
 Cu164 Cu 0.91480 0.33555 0.44183
 Cu165 Cu 0.94259 0.33671 0.41376
 Cu166 Cu 0.91391 0.30752 0.41392
 N167 N 0.89871 0.31918 0.44184
 N168 N 0.89844 0.30828 0.43081
 C169 C 0.88643 0.29829 0.43361
 C170 C 0.87887 0.30323 0.44708
 C171 C 0.88686 0.31649 0.45205
 H172 H 0.88351 0.28813 0.42649
 H173 H 0.88430 0.32350 0.46238
 N174 N 0.93059 0.30876 0.39783
 N175 N 0.94152 0.31986 0.39778
 C176 C 0.95136 0.31729 0.38560
 C177 C 0.94633 0.30400 0.37773
 C178 C 0.93320 0.29885 0.38570
 H179 H 0.96152 0.32441 0.38272
 H180 H 0.92621 0.28856 0.38294
 H181 H 0.91884 0.33139 0.41367
 H182 H 0.93183 0.31868 0.42600
 N183 N 0.44094 0.42995 0.85248
 N184 N 0.43015 0.44106 0.85218
 C185 C 0.43266 0.45105 0.86427
 C186 C 0.44568 0.44585 0.87242
 C187 C 0.45068 0.43248 0.86473
 H188 H 0.42569 0.46139 0.86688
 H189 H 0.46074 0.42525 0.86772
 Cu190 Cu 0.41409 0.44157 0.83585
 Cu191 Cu 0.44184 0.41329 0.83679
 Cu192 Cu 0.41295 0.41342 0.80793
 N193 N 0.39774 0.44124 0.81982
 N194 N 0.39734 0.43018 0.80895
 C195 C 0.38507 0.43284 0.79926
 C196 C 0.37747 0.44623 0.80439
 C197 C 0.38571 0.45131 0.81741
 H198 H 0.38201 0.42568 0.78917
 H199 H 0.38319 0.46161 0.82448
 N200 N 0.42978 0.39747 0.80889
 N201 N 0.44079 0.39744 0.81989
 C202 C 0.45070 0.38534 0.81722
 C203 C 0.44565 0.37749 0.80396
 C204 C 0.43241 0.38539 0.79892
 H205 H 0.46092 0.38250 0.82428
 H206 H 0.42535 0.38260 0.78869
 H207 H 0.43092 0.42562 0.81890
 H208 H 0.41797 0.41337 0.83179
 N209 N 0.80849 0.89835 0.93055
 N210 N 0.81941 0.89870 0.94155
 C211 C 0.81681 0.88687 0.95180
 C212 C 0.80359 0.87882 0.94690
 C213 C 0.79857 0.88631 0.93342
 H214 H 0.82387 0.88435 0.96209
 H215 H 0.78841 0.88332 0.92633
 Cu216 Cu 0.83573 0.91475 0.94136
 Cu217 Cu 0.80766 0.91378 0.91359
 Cu218 Cu 0.83681 0.94251 0.91329
 N219 N 0.85205 0.93081 0.94117
 N220 N 0.85242 0.94161 0.93006
 C221 C 0.86469 0.95133 0.93264
 C222 C 0.87231 0.94630 0.94603
 C223 C 0.86410 0.93329 0.95120
 H224 H 0.86776 0.96134 0.92539
 H225 H 0.86668 0.92628 0.96151
 N226 N 0.81995 0.94139 0.89738
 N227 N 0.80887 0.93045 0.89748
 C228 C 0.79895 0.93305 0.88537
 C229 C 0.80409 0.94618 0.87738
 C230 C 0.81737 0.95123 0.88520
 H231 H 0.78866 0.92605 0.88263
 H232 H 0.82448 0.96139 0.88231
 H233 H 0.83152 0.91872 0.91324
 H234 H 0.81885 0.93174 0.92558
 N235 N 0.30890 0.85229 0.31925
 N236 N 0.31988 0.85200 0.30832
 C237 C 0.31749 0.86405 0.29828
 C238 C 0.30437 0.87218 0.30326
 C239 C 0.29917 0.86450 0.31655
 H240 H 0.32466 0.86670 0.28810
 H241 H 0.28902 0.86750 0.32362
 Cu242 Cu 0.33602 0.83578 0.30840
 Cu243 Cu 0.30779 0.83665 0.33596
 Cu244 Cu 0.33665 0.80768 0.33613
 N245 N 0.35219 0.81958 0.30849
 N246 N 0.35241 0.80865 0.31948
 C247 C 0.36462 0.79888 0.31689
 C248 C 0.37239 0.80401 0.30362
 C249 C 0.36430 0.81713 0.29853
 H250 H 0.36756 0.78876 0.32404
 H251 H 0.36701 0.82426 0.28834
 N252 N 0.31966 0.80873 0.35191
 N253 N 0.30868 0.81977 0.35184
 C254 C 0.29857 0.81706 0.36375
 C255 C 0.30347 0.80374 0.37158
 C256 C 0.31681 0.79871 0.36388
 H257 H 0.28830 0.82409 0.36643
 H258 H 0.32377 0.78842 0.36669
 H259 H 0.33158 0.83151 0.33644
 H260 H 0.31887 0.81875 0.32384
 N261 N 0.80857 0.39807 0.43062
 N262 N 0.81947 0.39846 0.44164
 C263 C 0.81691 0.38661 0.45188
 C264 C 0.80374 0.37850 0.44695
 C265 C 0.79870 0.38598 0.43347
 H266 H 0.82396 0.38411 0.46218
 H267 H 0.78855 0.38296 0.42638
 Cu268 Cu 0.83574 0.41458 0.44149
 Cu269 Cu 0.80769 0.41351 0.41368
 Cu270 Cu 0.83672 0.44235 0.41344
 N271 N 0.85197 0.43072 0.44134
 N272 N 0.85231 0.44151 0.43022
 C273 C 0.86453 0.45128 0.43281
 C274 C 0.87216 0.44629 0.44621
 C275 C 0.86400 0.43326 0.45138
 H276 H 0.86757 0.46132 0.42558
 H277 H 0.86660 0.42626 0.46169
 N278 N 0.81988 0.44119 0.39752
 N279 N 0.80884 0.43021 0.39759
 C280 C 0.79893 0.43279 0.38547
 C281 C 0.80404 0.44596 0.37751
 C282 C 0.81729 0.45103 0.38535
 H283 H 0.78866 0.42576 0.38271
 H284 H 0.82438 0.46122 0.38248
 H285 H 0.83151 0.41853 0.41335
 H286 H 0.81879 0.43149 0.42570
 N287 N 0.93062 0.85162 -0.05853
 N288 N 0.94161 0.85141 -0.06944
 C289 C 0.95162 0.86348 -0.06694
 C290 C 0.94656 0.87154 -0.05380
 C291 C 0.93326 0.86380 -0.04871
 H292 H 0.96183 0.86618 -0.07404
 H293 H 0.92613 0.86674 -0.03858
 Cu294 Cu 0.94164 0.83529 -0.08569
 Cu295 Cu 0.91393 0.83591 -0.05760
 Cu296 Cu 0.91400 0.80706 -0.08664
 N297 N 0.94168 0.81915 -0.10192
 N298 N 0.93073 0.80818 -0.10226
 C299 C 0.93342 0.79847 -0.11450
 C300 C 0.94673 0.80369 -0.12213
 C301 C 0.95173 0.81679 -0.11396
 H302 H 0.92633 0.78832 -0.11754
 H303 H 0.96193 0.82396 -0.11656
 N304 N 0.89813 0.80797 -0.06975
 N305 N 0.89810 0.81896 -0.05870
 C306 C 0.88614 0.81614 -0.04869
 C307 C 0.87838 0.80281 -0.05373
 C308 C 0.88618 0.79789 -0.06705
 H309 H 0.88337 0.82310 -0.03839
 H310 H 0.88345 0.78761 -0.07409
 H311 H 0.92618 0.81809 -0.06874
 H312 H 0.91360 0.83086 -0.08144
 N313 N 0.30854 0.35218 0.81953
 N314 N 0.31950 0.35189 0.80860
 C315 C 0.31713 0.36399 0.79858
 C316 C 0.30401 0.37214 0.80358
 C317 C 0.29882 0.36441 0.81685
 H318 H 0.32430 0.36665 0.78841
 H319 H 0.28867 0.36740 0.82395
 Cu320 Cu 0.33570 0.33568 0.80864
 Cu321 Cu 0.30744 0.33646 0.83622
 Cu322 Cu 0.33630 0.30747 0.83628
 N323 N 0.35183 0.31940 0.80867
 N324 N 0.35205 0.30846 0.81963
 C325 C 0.36423 0.29867 0.81701
 C326 C 0.37201 0.30380 0.80374
 C327 C 0.36394 0.31695 0.79869
 H328 H 0.36716 0.28853 0.82414
 H329 H 0.36665 0.32409 0.78850
 N330 N 0.31934 0.30848 0.85209
 N331 N 0.30836 0.31951 0.85207
 C332 C 0.29827 0.31675 0.86400
 C333 C 0.30319 0.30341 0.87178
 C334 C 0.31652 0.29842 0.86403
 H335 H 0.28800 0.32377 0.86673
 H336 H 0.32349 0.28812 0.86679
 H337 H 0.33122 0.33130 0.83666
 H338 H 0.31849 0.31858 0.82403
 N339 N 0.14845 0.56937 0.55771
 N340 N 0.14880 0.55828 0.56854
 C341 C 0.13690 0.54809 0.56589
 C342 C 0.12879 0.55313 0.55276
 C343 C 0.13635 0.56661 0.54784
 H344 H 0.13439 0.53772 0.57286
 H345 H 0.13335 0.57379 0.53775
 Cu346 Cu 0.16504 0.55820 0.58473
 Cu347 Cu 0.16397 0.58626 0.55694
 Cu348 Cu 0.19290 0.58624 0.58586
 N349 N 0.18124 0.55825 0.60096
 N350 N 0.19209 0.56932 0.60134
 C351 C 0.20195 0.56655 0.61345
 C352 C 0.19699 0.55306 0.62097
 C353 C 0.18385 0.54805 0.61284
 H354 H 0.21205 0.57372 0.61647
 H355 H 0.17685 0.53769 0.61533
 N356 N 0.19173 0.60234 0.56914
 N357 N 0.18072 0.60234 0.55814
 C358 C 0.18329 0.61453 0.54830
 C359 C 0.19649 0.62246 0.55341
 C360 C 0.20158 0.61452 0.56659
 H361 H 0.17623 0.61735 0.53809
 H362 H 0.21181 0.61734 0.57366
 H363 H 0.18196 0.57410 0.56785
 H364 H 0.16911 0.58638 0.58073
 N365 N 0.60208 0.68092 0.05812
 N366 N 0.60207 0.69171 0.06927
 C367 C 0.61417 0.70170 0.06686
 C368 C 0.62208 0.69682 0.05355
 C369 C 0.61418 0.68366 0.04826
 H370 H 0.61696 0.71182 0.07410
 H371 H 0.61693 0.67670 0.03795
 Cu372 Cu 0.58585 0.69163 0.08544
 Cu373 Cu 0.58618 0.66436 0.05692
 Cu374 Cu 0.55707 0.66467 0.08568
 N375 N 0.56945 0.69208 0.10142
 N376 N 0.55822 0.68140 0.10140
 C377 C 0.54816 0.68441 0.11328
 C378 C 0.55341 0.69767 0.12105
 C379 C 0.56691 0.70229 0.11332
 H380 H 0.53772 0.67761 0.11593
 H381 H 0.57417 0.71240 0.11606
 N382 N 0.55800 0.64877 0.06875
 N383 N 0.56905 0.64865 0.05779
 C384 C 0.56625 0.63663 0.04779
 C385 C 0.55286 0.62894 0.05272
 C386 C 0.54789 0.63683 0.06598
 H387 H 0.57331 0.63375 0.03759
 H388 H 0.53760 0.63414 0.07296
 H389 H 0.56852 0.67682 0.06801
 H390 H 0.58085 0.66373 0.08062
 N391 N 0.68046 0.19195 0.64793
 N392 N 0.69156 0.18113 0.64822
 C393 C 0.70147 0.18358 0.63607
 C394 C 0.69625 0.19658 0.62787
 C395 C 0.68293 0.20164 0.63563
 H396 H 0.71177 0.17656 0.63345
 H397 H 0.67570 0.21168 0.63263
 Cu398 Cu 0.69210 0.16512 0.66462
 Cu399 Cu 0.66390 0.19294 0.66372
 Cu400 Cu 0.66419 0.16417 0.69269
 N401 N 0.69190 0.14885 0.68077
 N402 N 0.68091 0.14853 0.69167
 C403 C 0.68367 0.13639 0.70150
 C404 C 0.69706 0.12878 0.69644
 C405 C 0.70204 0.13689 0.68329
 H406 H 0.67659 0.13344 0.71166
 H407 H 0.71233 0.13434 0.67625
 N408 N 0.64826 0.18102 0.69175
 N409 N 0.64816 0.19199 0.68073
 C410 C 0.63616 0.20200 0.68352
 C411 C 0.62847 0.19704 0.69690
 C412 C 0.63634 0.18376 0.70185
 H413 H 0.63331 0.21224 0.67651
 H414 H 0.63367 0.17677 0.71215
 H415 H 0.67631 0.18209 0.68159
 H416 H 0.66397 0.16909 0.66882
 N417 N 1.10124 0.06838 0.19232
 N418 N 1.10093 0.05724 0.18153
 C419 C 1.11295 0.04720 0.18411
 C420 C 1.12109 0.05239 0.19718
 C421 C 1.11343 0.06581 0.20213
 H422 H 1.11552 0.03683 0.17717
 H423 H 1.11638 0.07302 0.21222
 Cu424 Cu 1.08459 0.05672 0.16547
 Cu425 Cu 1.08551 0.08503 0.19322
 Cu426 Cu 1.05665 0.08478 0.16434
 N427 N 1.06853 0.05697 0.14914
 N428 N 1.05767 0.06801 0.14875
 C429 C 1.04786 0.06525 0.13660
 C430 C 1.05290 0.05180 0.12906
 C431 C 1.06600 0.04679 0.13721
 H432 H 1.03772 0.07236 0.13360
 H433 H 1.07300 0.03645 0.13471
 N434 N 1.05757 0.10075 0.18114
 N435 N 1.06857 0.10085 0.19216
 C436 C 1.06576 0.11288 0.20214
 C437 C 1.05242 0.12059 0.19711
 C438 C 1.04749 0.11270 0.18382
 H439 H 1.07274 0.11572 0.21241
 H440 H 1.03721 0.11538 0.17679
 H441 H 1.06764 0.07265 0.18230
 H442 H 1.08051 0.08491 0.16936
 N443 N 0.06924 0.14790 1.05831
 N444 N 0.05817 0.14835 1.06914
 C445 C 0.04795 0.13646 1.06657
 C446 C 0.05294 0.12826 1.05348
 C447 C 0.06644 0.13575 1.04849
 H448 H 0.03762 0.13399 1.07358
 H449 H 0.07358 0.13267 1.03841
 Cu450 Cu 0.05823 0.16459 1.08531
 Cu451 Cu 0.08618 0.16336 1.05743
 Cu452 Cu 0.08628 0.19245 1.08625
 N453 N 0.05827 0.18092 1.10141
 N454 N 0.06938 0.19174 1.10175
 C455 C 0.06664 0.20166 1.11382
 C456 C 0.05315 0.19675 1.12137
 C457 C 0.04809 0.18359 1.11328
 H458 H 0.07382 0.21177 1.11681
 H459 H 0.03775 0.17661 1.11582
 N460 N 0.10232 0.19115 1.06951
 N461 N 0.10228 0.18008 1.05854
 C462 C 0.11445 0.18258 1.04868
 C463 C 0.12242 0.19578 1.05372
 C464 C 0.11452 0.20097 1.06690
 H465 H 0.11723 0.17545 1.03849
 H466 H 0.11738 0.21121 1.07392
 H467 H 0.08639 0.16858 1.08122
 H468 H 0.07409 0.18143 1.06831
 N469 N 0.14866 0.69230 0.68089
 N470 N 0.14909 0.68143 0.69193
 C471 C 0.13726 0.68401 0.70218
 C472 C 0.12910 0.69714 0.69724
 C473 C 0.13655 0.70214 0.68374
 H474 H 0.13480 0.67698 0.71251
 H475 H 0.13349 0.71225 0.67662
 Cu476 Cu 0.16526 0.66518 0.69190
 Cu477 Cu 0.16407 0.69314 0.66393
 Cu478 Cu 0.19300 0.66422 0.66372
 N479 N 0.18151 0.64901 0.69169
 N480 N 0.19229 0.64868 0.68057
 C481 C 0.20218 0.63656 0.68327
 C482 C 0.19729 0.62899 0.69676
 C483 C 0.18418 0.63711 0.70184
 H484 H 0.21224 0.63357 0.67606
 H485 H 0.17723 0.63456 0.71220
 N486 N 0.19173 0.68100 0.64771
 N487 N 0.18071 0.69200 0.64779
 C488 C 0.18321 0.70188 0.63562
 C489 C 0.19637 0.69681 0.62762
 C490 C 0.20152 0.68360 0.63550
 H491 H 0.17613 0.71210 0.63286
 H492 H 0.21172 0.67656 0.63262
 H493 H 0.16919 0.66931 0.66368
 H494 H 0.18212 0.68218 0.67596
 N495 N 1.18095 0.14829 0.19168
 N496 N 1.19191 0.14858 0.18074
 C497 C 1.20207 0.13664 0.18328
 C498 C 1.19712 0.12859 0.19647
 C499 C 1.18374 0.13620 0.20154
 H500 H 1.21231 0.13403 0.17619
 H501 H 1.17667 0.13326 0.21171
 Cu502 Cu 1.19178 0.16470 0.16448
 Cu503 Cu 1.16413 0.16385 0.19264
 Cu504 Cu 1.16391 0.19268 0.16364
 N505 N 1.19165 0.18083 0.14823
 N506 N 1.18061 0.19171 0.14794
 C507 C 1.18319 0.20144 0.13570
 C508 C 1.19651 0.19634 0.12798
 C509 C 1.20163 0.18328 0.13614
 H510 H 1.17600 0.21152 0.13270
 H511 H 1.21187 0.17619 0.13349
 N512 N 1.14808 0.19164 0.18057
 N513 N 1.14816 0.18066 0.19160
 C514 C 1.13619 0.18336 0.20165
 C515 C 1.12831 0.19661 0.19666
 C516 C 1.13604 0.20161 0.18333
 H517 H 1.13350 0.17637 0.21194
 H518 H 1.13320 0.21185 0.17631
 H519 H 1.16371 0.16887 0.16883
 H520 H 1.17622 0.18175 0.18151
 N521 N 0.64842 1.05819 0.56885
 N522 N 0.64875 1.06909 0.55784
 C523 C 0.63679 1.06655 0.54771
 C524 C 0.62870 1.05340 0.55270
 C525 C 0.63629 1.04835 0.56610
 H526 H 0.63425 1.07357 0.53740
 H527 H 0.63334 1.03818 0.57317
 Cu528 Cu 0.66501 1.08523 0.55760
 Cu529 Cu 0.66405 1.05718 0.58555
 Cu530 Cu 0.69282 1.08617 0.58582
 N531 N 0.68099 1.10165 0.55815
 N532 N 0.69181 1.10197 0.56924
 C533 C 0.70149 1.11429 0.56675
 C534 C 0.69640 1.12203 0.55343
 C535 C 0.68341 1.11379 0.54822
 H536 H 0.71154 1.11732 0.57398
 H537 H 0.67639 1.11640 0.53792
 N538 N 0.69187 1.06916 0.60157
 N539 N 0.68088 1.05812 0.60146
 C540 C 0.68361 1.04801 0.61338
 C541 C 0.69688 1.05297 0.62126
 C542 C 0.70187 1.06635 0.61357
 H543 H 0.67661 1.03771 0.61604
 H544 H 0.71211 1.07338 0.61642
 H545 H 0.66898 1.08108 0.58574
 H546 H 0.68195 1.06827 0.57342
 N547 N 0.56895 0.55780 0.14865
 N548 N 0.55793 0.56869 0.14891
 C549 C 0.54782 0.56610 0.13693
 C550 C 0.55285 0.55294 0.12887
 C551 C 0.56625 0.54792 0.13653
 H552 H 0.53756 0.57316 0.13433
 H553 H 0.57336 0.53777 0.13357
 Cu554 Cu 0.55786 0.58496 0.16505
 Cu555 Cu 0.58570 0.55694 0.16431
 Cu556 Cu 0.58562 0.58596 0.19315
 N557 N 0.55784 0.60120 0.18123
 N558 N 0.56883 0.60156 0.19215
 C559 C 0.56605 0.61371 0.20197
 C560 C 0.55264 0.62128 0.19687
 C561 C 0.54768 0.61314 0.18373
 H562 H 0.57313 0.61674 0.21212
 H563 H 0.53742 0.61567 0.17664
 N564 N 0.60159 0.56912 0.19217
 N565 N 0.60161 0.55807 0.18119
 C566 C 0.61364 0.54808 0.18396
 C567 C 0.62142 0.55314 0.19727
 C568 C 0.61358 0.56644 0.20221
 H569 H 0.61642 0.53779 0.17699
 H570 H 0.61632 0.57349 0.21247
 H571 H 0.57348 0.56802 0.18212
 H572 H 0.58593 0.58077 0.16937
 N573 N 0.64871 0.68132 0.19195
 N574 N 0.64891 0.69230 0.18102
 C575 C 0.63697 0.70244 0.18365
 C576 C 0.62901 0.69747 0.19689
 C577 C 0.63667 0.68408 0.20189
 H578 H 0.63434 0.71272 0.17661
 H579 H 0.63380 0.67698 0.21206
 Cu580 Cu 0.66501 0.69235 0.16473
 Cu581 Cu 0.66433 0.66454 0.19281
 Cu582 Cu 0.69301 0.66447 0.16370
 N583 N 0.68104 0.69219 0.14836
 N584 N 0.69195 0.68119 0.14803
 C585 C 0.70165 0.68383 0.13578
 C586 C 0.69650 0.69717 0.12810
 C587 C 0.68344 0.70223 0.13629
 H588 H 0.71174 0.67668 0.13274
 H589 H 0.67634 0.71248 0.13371
 N590 N 0.69209 0.64857 0.18059
 N591 N 0.68116 0.64859 0.19167
 C592 C 0.68396 0.63660 0.20168
 C593 C 0.69722 0.62877 0.19661
 C594 C 0.70211 0.63656 0.18328
 H595 H 0.67703 0.63386 0.21200
 H596 H 0.71233 0.63378 0.17622
 H597 H 0.68214 0.67672 0.18166
 H598 H 0.66925 0.66422 0.16898
 N599 N 0.14850 0.06889 1.05796
 N600 N 0.14876 0.05786 1.06882
 C601 C 0.13684 0.04771 1.06620
 C602 C 0.12880 0.05273 1.05303
 C603 C 0.13642 0.06616 1.04805
 H604 H 0.13424 0.03741 1.07322
 H605 H 0.13350 0.07326 1.03789
 Cu606 Cu 0.16485 0.05779 1.08510
 Cu607 Cu 0.16412 0.08570 1.05714
 Cu608 Cu 0.19300 0.08556 1.08610
 N609 N 0.18109 0.05771 1.10123
 N610 N 0.19203 0.06868 1.10160
 C611 C 0.20190 0.06581 1.11367
 C612 C 0.19682 0.05236 1.12117
 C613 C 0.18363 0.04746 1.11308
 H614 H 0.21210 0.07284 1.11666
 H615 H 0.17655 0.03717 1.11558
 N616 N 0.19196 0.10161 1.06936
 N617 N 0.18096 0.10166 1.05833
 C618 C 0.18360 0.11384 1.04851
 C619 C 0.19682 0.12172 1.05365
 C620 C 0.20187 0.11375 1.06684
 H621 H 0.17655 0.11672 1.03831
 H622 H 0.21207 0.11654 1.07394
 H623 H 0.18195 0.07343 1.06817
 H624 H 0.16921 0.08592 1.08095
 N625 N 0.60195 0.19209 0.56908
 N626 N 0.60157 0.18122 0.55803
 C627 C 0.61371 0.18355 0.54808
 C628 C 0.62199 0.19653 0.55325
 C629 C 0.61430 0.20171 0.56655
 H630 H 0.61627 0.17647 0.53781
 H631 H 0.61737 0.21178 0.57374
 Cu632 Cu 0.58507 0.16530 0.55756
 Cu633 Cu 0.58620 0.19325 0.58567
 Cu634 Cu 0.55706 0.16462 0.58553
 N635 N 0.56882 0.14912 0.55785
 N636 N 0.55795 0.14891 0.56887
 C637 C 0.54803 0.13681 0.56619
 C638 C 0.55301 0.12911 0.55281
 C639 C 0.56620 0.13712 0.54777
 H640 H 0.53787 0.13395 0.57330
 H641 H 0.57320 0.13448 0.53747
 N642 N 0.55813 0.18152 0.60140
 N643 N 0.56923 0.19245 0.60145
 C644 C 0.56650 0.20253 0.61341
 C645 C 0.55312 0.19766 0.62113
 C646 C 0.54807 0.18437 0.61332
 H647 H 0.57358 0.21275 0.61620
 H648 H 0.53773 0.17744 0.61602
 H649 H 0.58096 0.16942 0.58569
 H650 H 0.56824 0.18243 0.57333
 N651 N 0.10119 0.56864 0.69259
 N652 N 0.10090 0.55758 0.68172
 C653 C 0.11285 0.54747 0.68429
 C654 C 0.12093 0.55252 0.69744
 C655 C 0.11331 0.56594 0.70245
 H656 H 0.11546 0.53717 0.67725
 H657 H 0.11627 0.57309 0.71258
 Cu658 Cu 0.08475 0.55753 0.66546
 Cu659 Cu 0.08559 0.58544 0.69349
 Cu660 Cu 0.05667 0.58533 0.66454
 N661 N 0.06851 0.55747 0.64930
 N662 N 0.05761 0.56849 0.64898
 C663 C 0.04777 0.56571 0.63685
 C664 C 0.05282 0.55229 0.62926
 C665 C 0.06597 0.54730 0.63736
 H666 H 0.03763 0.57282 0.63386
 H667 H 0.07304 0.53703 0.63478
 N668 N 0.05774 0.60133 0.68135
 N669 N 0.06874 0.60137 0.69237
 C670 C 0.06599 0.61341 0.70235
 C671 C 0.05270 0.62119 0.69733
 C672 C 0.04772 0.61334 0.68404
 H673 H 0.07298 0.61620 0.71263
 H674 H 0.03744 0.61606 0.67703
 H675 H 0.06770 0.57318 0.68248
 H676 H 0.08048 0.58566 0.66968
 N677 N 0.64846 0.55811 0.06870
 N678 N 0.64873 0.56910 0.05778
 C679 C 0.63681 0.56656 0.04759
 C680 C 0.62877 0.55331 0.05245
 C681 C 0.63638 0.54822 0.06584
 H682 H 0.63421 0.57369 0.03737
 H683 H 0.63344 0.53801 0.07287
 Cu684 Cu 0.66480 0.58547 0.05792
 Cu685 Cu 0.66404 0.55717 0.08553
 Cu686 Cu 0.69280 0.58627 0.08587
 N687 N 0.68094 0.60176 0.05820
 N688 N 0.69182 0.60203 0.06924
 C689 C 0.70153 0.61432 0.06669
 C690 C 0.69642 0.62207 0.05339
 C691 C 0.68337 0.61389 0.04825
 H692 H 0.71160 0.61734 0.07389
 H693 H 0.67627 0.61655 0.03801
 N694 N 0.69180 0.56927 0.10166
 N695 N 0.68085 0.55820 0.10154
 C696 C 0.68359 0.54812 0.11349
 C697 C 0.69684 0.55313 0.12139
 C698 C 0.70179 0.56651 0.11369
 H699 H 0.67663 0.53779 0.11615
 H700 H 0.71202 0.57356 0.11654
 H701 H 0.66903 0.58103 0.08602
 H702 H 0.68190 0.56840 0.07349
 N703 N 0.06950 0.69208 0.60162
 N704 N 0.05841 0.68123 0.60131
 C705 C 0.04827 0.68391 0.61322
 C706 C 0.05334 0.69707 0.62130
 C707 C 0.06680 0.70199 0.61371
 H708 H 0.03791 0.67694 0.61577
 H709 H 0.07399 0.71210 0.61668
 Cu710 Cu 0.05823 0.66500 0.58510
 Cu711 Cu 0.08633 0.69283 0.58606
 Cu712 Cu 0.08616 0.66382 0.55718
 N713 N 0.05821 0.64872 0.56894
 N714 N 0.06923 0.64832 0.55806
 C715 C 0.06639 0.63620 0.54821
 C716 C 0.05290 0.62869 0.55322
 C717 C 0.04797 0.63685 0.56636
 H718 H 0.07349 0.63315 0.53809
 H719 H 0.03764 0.63438 0.57338
 N720 N 0.10227 0.68055 0.55828
 N721 N 0.10233 0.69159 0.56928
 C722 C 0.11451 0.70143 0.56667
 C723 C 0.12239 0.69629 0.55347
 C724 C 0.11442 0.68309 0.54840
 H725 H 0.11737 0.71166 0.57372
 H726 H 0.11720 0.67600 0.53819
 H727 H 0.07409 0.68186 0.56812
 H728 H 0.08640 0.66898 0.58097
 N729 N 0.56863 1.05814 0.64807
 N730 N 0.55785 1.06929 0.64805
 C731 C 0.54778 1.06672 0.63601
 C732 C 0.55261 1.05329 0.62821
 C733 C 0.56582 1.04811 0.63608
 H734 H 0.53764 1.07391 0.63324
 H735 H 0.57275 1.03775 0.63341
 Cu736 Cu 0.55794 1.08562 0.66421
 Cu737 Cu 0.58522 1.05710 0.66396
 Cu738 Cu 0.58507 1.08610 0.69288
 N739 N 0.55767 1.10183 0.68050
 N740 N 0.56838 1.10190 0.69171
 C741 C 0.56546 1.11391 0.70167
 C742 C 0.55223 1.12170 0.69639
 C743 C 0.54753 1.11382 0.68296
 H744 H 0.57232 1.11666 0.71206
 H745 H 0.53742 1.11651 0.67569
 N746 N 0.60094 1.06910 0.69204
 N747 N 0.60099 1.05807 0.68103
 C748 C 0.61301 1.04806 0.68383
 C749 C 0.62078 1.05307 0.69717
 C750 C 0.61292 1.06639 0.70211
 H751 H 0.61584 1.03782 0.67680
 H752 H 0.61567 1.07345 0.71235
 H753 H 0.57286 1.06834 0.68159
 H754 H 0.58585 1.08088 0.66913
 N755 N 0.44150 0.35265 0.93050
 N756 N 0.43071 0.35222 0.94161
 C757 C 0.43312 0.36429 0.95166
 C758 C 0.44608 0.37260 0.94650
 C759 C 0.45116 0.36498 0.93310
 H760 H 0.42608 0.36683 0.96196
 H761 H 0.46115 0.36810 0.92585
 Cu762 Cu 0.41470 0.33577 0.94172
 Cu763 Cu 0.44243 0.33702 0.91366
 Cu764 Cu 0.41379 0.30777 0.91383
 N765 N 0.39863 0.31938 0.94182
 N766 N 0.39833 0.30851 0.93076
 C767 C 0.38631 0.29854 0.93355
 C768 C 0.37876 0.30347 0.94702
 C769 C 0.38678 0.31670 0.95202
 H770 H 0.38338 0.28839 0.92641
 H771 H 0.38420 0.32371 0.96234
 N772 N 0.43046 0.30903 0.89773
 N773 N 0.44138 0.32015 0.89766
 C774 C 0.45121 0.31759 0.88547
 C775 C 0.44619 0.30430 0.87761
 C776 C 0.43307 0.29913 0.88559
 H777 H 0.46135 0.32473 0.88258
 H778 H 0.42609 0.28883 0.88283
 H779 H 0.41868 0.33165 0.91356
 H780 H 0.43172 0.31894 0.92584
 N781 N 0.94128 0.42987 0.35297
 N782 N 0.93042 0.44094 0.35271
 C783 C 0.93294 0.45097 0.36479
 C784 C 0.94603 0.44583 0.37291
 C785 C 0.95107 0.43246 0.36519
 H786 H 0.92587 0.46123 0.36745
 H787 H 0.96113 0.42523 0.36816
 Cu788 Cu 0.91418 0.44103 0.33649
 Cu789 Cu 0.94208 0.41306 0.33729
 Cu790 Cu 0.91311 0.41323 0.30839
 N791 N 0.89793 0.44112 0.32028
 N792 N 0.89757 0.43011 0.30935
 C793 C 0.88538 0.43284 0.29958
 C794 C 0.87775 0.44622 0.30469
 C795 C 0.88593 0.45123 0.31782
 H796 H 0.88234 0.42569 0.28947
 H797 H 0.88334 0.46148 0.32494
 N798 N 0.92987 0.39718 0.30940
 N799 N 0.94090 0.39710 0.32039
 C800 C 0.95075 0.38494 0.31769
 C801 C 0.94563 0.37710 0.30442
 C802 C 0.93243 0.38507 0.29943
 H803 H 0.96099 0.38206 0.32470
 H804 H 0.92535 0.38233 0.28920
 H805 H 0.93111 0.42532 0.31942
 H806 H 0.91828 0.41289 0.33218
 N807 N 0.30925 0.93077 0.39762
 N808 N 0.32019 0.94178 0.39778
 C809 C 0.31769 0.95171 0.38566
 C810 C 0.30453 0.94660 0.37761
 C811 C 0.29944 0.93333 0.38544
 H812 H 0.32480 0.96193 0.38294
 H813 H 0.28929 0.92619 0.38255
 Cu814 Cu 0.33644 0.94191 0.41398
 Cu815 Cu 0.30829 0.91416 0.41342
 Cu816 Cu 0.33727 0.91434 0.44226
 N817 N 0.35272 0.94198 0.43016
 N818 N 0.35299 0.93104 0.44115
 C819 C 0.36521 0.93373 0.45089
 C820 C 0.37293 0.94702 0.44568
 C821 C 0.36480 0.95201 0.43253
 H822 H 0.36818 0.92666 0.46106
 H823 H 0.36743 0.96220 0.42535
 N824 N 0.32035 0.89845 0.44140
 N825 N 0.30931 0.89838 0.43041
 C826 C 0.29927 0.88641 0.43325
 C827 C 0.30426 0.87869 0.44660
 C828 C 0.31760 0.88652 0.45151
 H829 H 0.28897 0.88362 0.42629
 H830 H 0.32462 0.88383 0.46178
 H831 H 0.31938 0.92651 0.43120
 H832 H 0.33210 0.91391 0.41848
 O833 O 0.20841 0.52070 0.74873
 O834 O 0.21341 0.51811 0.77608
 O835 O 0.24886 0.54183 0.72949
 O836 O 0.27528 0.53766 0.73007
 O837 O 0.22929 0.50154 0.70828
 O838 O 0.23095 0.47314 0.71380
 O839 O 0.29101 0.49891 0.77125
 O840 O 0.28686 0.52629 0.76750
 O841 O 0.25206 0.47919 0.79076
 O842 O 0.22305 0.48098 0.78555
 O843 O 0.27143 0.45941 0.75180
 O844 O 0.26951 0.46257 0.72494
 O845 O 0.29116 0.48000 0.75223
 O846 O 0.28527 0.48292 0.72213
 O847 O 0.25228 0.45910 0.77046
 O848 O 0.22297 0.46423 0.76797
 O849 O 0.27115 0.49797 0.79070
 O850 O 0.26537 0.52685 0.78620
 O851 O 0.20829 0.50144 0.72999
 O852 O 0.21400 0.47316 0.73194
 O853 O 0.24850 0.52023 0.70805
 O854 O 0.27727 0.51724 0.71416
 O855 O 0.22972 0.54176 0.74824
 O856 O 0.23386 0.53601 0.77687
 Zr857 Zr 0.23111 0.51919 0.75857
 O858 O 0.24486 0.50514 0.77371
 Zr859 Zr 0.25870 0.51907 0.73067
 O860 O 0.27390 0.50551 0.74490
 Zr861 Zr 0.23099 0.49134 0.73085
 O862 O 0.24516 0.47628 0.74458
 Zr863 Zr 0.26871 0.50924 0.76878
 O864 O 0.25504 0.52456 0.75464
 Zr865 Zr 0.24125 0.48120 0.76853
 O866 O 0.22588 0.49518 0.75478
 Zr867 Zr 0.26905 0.48156 0.74102
 O868 O 0.25493 0.49504 0.72540
 O869 O 0.23507 0.51503 0.73486
 O870 O 0.26496 0.48542 0.76474
 C871 C 0.20182 0.51301 0.73741
 C872 C 0.23731 0.54832 0.73688
 C873 C 0.23689 0.51285 0.70164
 C874 C 0.29738 0.48719 0.76406
 C875 C 0.26392 0.48626 0.79702
 C876 C 0.26418 0.45296 0.76341
 H877 H 0.24244 0.50765 0.78482
 H878 H 0.24297 0.46515 0.74187
 H879 H 0.22832 0.52174 0.72819
 H880 H 0.28501 0.50812 0.74263
 H881 H 0.28179 0.53627 0.76422
 H882 H 0.28390 0.53477 0.73733
 H883 H 0.22527 0.45676 0.75932
 H884 H 0.20848 0.47439 0.74214
 H885 H 0.27435 0.52621 0.79364
 H886 H 0.22536 0.54397 0.77587
 H887 H 0.26148 0.46496 0.71687
 H888 H 0.23968 0.47536 0.70640
 H889 H 0.20880 0.50741 0.77551
 H890 H 0.22468 0.49009 0.79264
 H891 H 0.27500 0.50792 0.70751
 H892 H 0.29391 0.49006 0.72534
 O893 O 0.22919 0.00065 0.20817
 O894 O 0.23196 -0.02671 0.21329
 O895 O 0.20840 0.02012 0.24864
 O896 O 0.21275 0.01973 0.27502
 O897 O 0.24847 0.04132 0.22875
 O898 O 0.27681 0.03588 0.23010
 O899 O 0.25188 -0.02132 0.29067
 O900 O 0.22446 -0.01767 0.28679
 O901 O 0.27110 -0.04102 0.25145
 O902 O 0.26926 -0.03590 0.22260
 O903 O 0.29095 -0.00184 0.27077
 O904 O 0.28774 0.02503 0.26868
 O905 O 0.27057 -0.00210 0.29065
 O906 O 0.26752 0.02794 0.28459
 O907 O 0.29113 -0.02068 0.25175
 O908 O 0.28583 -0.01816 0.22237
 O909 O 0.25261 -0.04088 0.27078
 O910 O 0.22369 -0.03648 0.26536
 O911 O 0.24840 0.01943 0.20782
 O912 O 0.27672 0.01759 0.21333
 O913 O 0.22994 0.04164 0.24806
 O914 O 0.23311 0.03568 0.27686
 O915 O 0.20836 0.00120 0.22961
 O916 O 0.21422 -0.02738 0.23385
 Zr917 Zr 0.23095 -0.00904 0.23089
 O918 O 0.24517 -0.02404 0.24459
 Zr919 Zr 0.23121 0.01905 0.25835
 O920 O 0.24493 0.00496 0.27351
 Zr921 Zr 0.25868 0.01877 0.23044
 O922 O 0.27391 0.00520 0.24457
 Zr923 Zr 0.24128 -0.01898 0.26846
 O924 O 0.22579 -0.00497 0.25484
 Zr925 Zr 0.26902 -0.01879 0.24076
 O926 O 0.25486 -0.00521 0.22543
 Zr927 Zr 0.26880 0.00890 0.26848
 O928 O 0.25516 0.02439 0.25437
 O929 O 0.23507 0.01473 0.23470
 O930 O 0.26501 -0.01487 0.26450
 C931 C 0.23681 0.01194 0.20147
 C932 C 0.20185 0.01262 0.23718
 C933 C 0.23724 0.04800 0.23641
 C934 C 0.26355 -0.01397 0.29696
 C935 C 0.26418 -0.04724 0.26338
 C936 C 0.29733 -0.01353 0.26358
 H937 H 0.24268 -0.03518 0.24223
 H938 H 0.28500 0.00793 0.24229
 H939 H 0.22829 0.02136 0.22797
 H940 H 0.24240 0.00729 0.28464
 H941 H 0.21441 -0.01446 0.28182
 H942 H 0.21568 0.01246 0.28362
 H943 H 0.29348 -0.00971 0.22480
 H944 H 0.27544 0.00737 0.20783
 H945 H 0.22447 -0.04389 0.27435
 H946 H 0.20621 -0.02648 0.22539
 H947 H 0.28522 0.03310 0.26069
 H948 H 0.27473 0.04331 0.23885
 H949 H 0.24252 -0.02600 0.20843
 H950 H 0.25999 -0.04280 0.22408
 H951 H 0.24235 0.04238 0.27448
 H952 H 0.26038 0.02482 0.29323
 O953 O 0.54177 0.72962 0.24847
 O954 O 0.53679 0.73218 0.27589
 O955 O 0.50120 0.70877 0.22917
 O956 O 0.47477 0.71309 0.22994
 O957 O 0.52071 0.74938 0.20803
 O958 O 0.51898 0.77721 0.21365
 O959 O 0.45932 0.75210 0.27084
 O960 O 0.46324 0.72468 0.26714
 O961 O 0.49855 0.77135 0.29070
 O962 O 0.52739 0.76938 0.28563
 O963 O 0.47949 0.79147 0.25160
 O964 O 0.48125 0.78639 0.22271
 O965 O 0.45942 0.77112 0.25196
 O966 O 0.46460 0.76887 0.22247
 O967 O 0.49841 0.79145 0.27053
 O968 O 0.52787 0.78593 0.26797
 O969 O 0.47914 0.75291 0.29045
 O970 O 0.48461 0.72396 0.28597
 O971 O 0.54198 0.74890 0.22978
 O972 O 0.53654 0.77719 0.23179
 O973 O 0.50166 0.73050 0.20783
 O974 O 0.47301 0.73349 0.21382
 O975 O 0.52033 0.70870 0.24796
 O976 O 0.51622 0.71441 0.27657
 Zr977 Zr 0.51909 0.73125 0.25835
 O978 O 0.50543 0.74538 0.27351
 Zr979 Zr 0.49149 0.73156 0.23046
 O980 O 0.47643 0.74533 0.24462
 Zr981 Zr 0.51937 0.75917 0.23078
 O982 O 0.50544 0.77439 0.24458
 Zr983 Zr 0.48154 0.74157 0.26852
 O984 O 0.49511 0.72609 0.25441
 Zr985 Zr 0.50928 0.76929 0.26848
 O986 O 0.52451 0.75523 0.25468
 Zr987 Zr 0.48150 0.76925 0.24081
 O988 O 0.49544 0.75552 0.22533
 O989 O 0.51515 0.73548 0.23464
 O990 O 0.48552 0.76536 0.26455
 C991 C 0.54839 0.73728 0.23716
 C992 C 0.51270 0.70220 0.23657
 C993 C 0.51315 0.73802 0.20139
 C994 C 0.45307 0.76390 0.26368
 C995 C 0.48655 0.76447 0.29686
 C996 C 0.48667 0.79776 0.26337
 H997 H 0.50780 0.74282 0.28462
 H998 H 0.50794 0.78548 0.24208
 H999 H 0.52183 0.72877 0.22790
 H1000 H 0.46530 0.74281 0.24233
 H1001 H 0.46823 0.71465 0.26385
 H1002 H 0.46602 0.71623 0.23693
 H1003 H 0.52538 0.79385 0.25980
 H1004 H 0.54199 0.77601 0.24203
 H1005 H 0.47560 0.72472 0.29335
 H1006 H 0.52467 0.70640 0.27557
 H1007 H 0.49047 0.79335 0.22426
 H1008 H 0.50845 0.77676 0.20865
 H1009 H 0.54158 0.74280 0.27529
 H1010 H 0.52587 0.76006 0.29245
 H1011 H 0.47503 0.74318 0.20766
 H1012 H 0.45690 0.76046 0.22485
 O1013 O 0.00123 0.70847 0.72942
 O1014 O -0.02616 0.71361 0.73196
 O1015 O 0.02065 0.74887 0.70834
 O1016 O 0.01988 0.77537 0.71250
 O1017 O 0.04187 0.72952 0.74887
 O1018 O 0.03639 0.73147 0.77671
 O1019 O -0.02093 0.79115 0.75169
 O1020 O -0.01715 0.78722 0.72425
 O1021 O -0.04067 0.75213 0.77094
 O1022 O -0.03567 0.72319 0.76907
 O1023 O -0.00132 0.77104 0.79097
 O1024 O 0.02743 0.76937 0.78575
 O1025 O -0.00199 0.79107 0.77065
 O1026 O 0.02760 0.78589 0.76810
 O1027 O -0.02034 0.75221 0.79100
 O1028 O -0.01803 0.72276 0.78558
 O1029 O -0.04050 0.77133 0.75231
 O1030 O -0.03598 0.76578 0.72345
 O1031 O 0.02000 0.70831 0.74863
 O1032 O 0.01821 0.71396 0.77685
 O1033 O 0.04203 0.74855 0.73000
 O1034 O 0.03610 0.77725 0.73287
 O1035 O 0.00183 0.72976 0.70838
 O1036 O -0.02676 0.73405 0.71406
 Zr1037 Zr -0.00852 0.73123 0.73091
 O1038 O -0.02360 0.74502 0.74499
 Zr1039 Zr 0.01942 0.75878 0.73106
 O1040 O 0.00536 0.77397 0.74478
 Zr1041 Zr 0.01917 0.73102 0.75874
 O1042 O 0.00545 0.74507 0.77391
 Zr1043 Zr -0.01856 0.76891 0.74110
 O1044 O -0.00455 0.75520 0.72565
 Zr1045 Zr -0.01849 0.74126 0.76887
 O1046 O -0.00477 0.72591 0.75487
 Zr1047 Zr 0.00925 0.76900 0.76870
 O1048 O 0.02464 0.75494 0.75500
 O1049 O 0.01521 0.73512 0.73508
 O1050 O -0.01452 0.76502 0.76487
 C1051 C 0.01253 0.70184 0.73709
 C1052 C 0.01323 0.73731 0.70185
 C1053 C 0.04848 0.73704 0.73750
 C1054 C -0.01377 0.79740 0.76351
 C1055 C -0.04688 0.76404 0.76394
 C1056 C -0.01306 0.76391 0.79729
 H1057 H -0.03472 0.74266 0.74246
 H1058 H 0.00799 0.74261 0.78499
 H1059 H 0.02191 0.72835 0.72841
 H1060 H 0.00765 0.78511 0.74224
 H1061 H -0.01392 0.78221 0.71422
 H1062 H 0.01299 0.78421 0.71566
 H1063 H -0.00967 0.72514 0.79334
 H1064 H 0.00795 0.70853 0.77574
 H1065 H -0.04335 0.77482 0.72414
 H1066 H -0.02582 0.72551 0.70613
 H1067 H 0.02611 0.76000 0.79254
 H1068 H 0.04152 0.74194 0.77611
 H1069 H -0.02552 0.70887 0.74259
 H1070 H -0.04258 0.72473 0.75981
 H1071 H 0.04227 0.77529 0.74257
 H1072 H 0.02498 0.79377 0.75993
 O1073 O 0.04181 0.02015 0.00139
 O1074 O 0.03681 0.01767 -0.02603
 O1075 O 0.00131 0.04104 0.02071
 O1076 O -0.02514 0.03678 0.01986
 O1077 O 0.02067 0.00036 0.04180
 O1078 O 0.01891 -0.02745 0.03612
 O1079 O -0.04071 -0.00206 -0.02104
 O1080 O -0.03665 0.02533 -0.01735
 O1081 O -0.00166 -0.02150 -0.04091
 O1082 O 0.02733 -0.01938 -0.03585
 O1083 O -0.02054 -0.04158 -0.00187
 O1084 O -0.01884 -0.03654 0.02700
 O1085 O -0.04060 -0.02117 -0.00226
 O1086 O -0.03542 -0.01902 0.02725
 O1087 O -0.00157 -0.04159 -0.02072
 O1088 O 0.02778 -0.03605 -0.01833
 O1089 O -0.02095 -0.00295 -0.04066
 O1090 O -0.01530 0.02596 -0.03618
 O1091 O 0.04197 0.00088 0.02009
 O1092 O 0.03649 -0.02740 0.01805
 O1093 O 0.00163 0.01923 0.04199
 O1094 O -0.02698 0.01637 0.03592
 O1095 O 0.02044 0.04112 0.00197
 O1096 O 0.01631 0.03550 -0.02667
 Zr1097 Zr 0.01912 0.01860 -0.00850
 O1098 O 0.00543 0.00453 -0.02372
 Zr1099 Zr -0.00848 0.01828 0.01933
 O1100 O -0.02355 0.00456 0.00515
 Zr1101 Zr 0.01935 -0.00936 0.01902
 O1102 O 0.00540 -0.02453 0.00517
 Zr1103 Zr -0.01844 0.00837 -0.01873
 O1104 O -0.00484 0.02380 -0.00459
 Zr1105 Zr 0.00923 -0.01939 -0.01872
 O1106 O 0.02449 -0.00539 -0.00486
 Zr1107 Zr -0.01852 -0.01937 0.00892
 O1108 O -0.00457 -0.00569 0.02444
 O1109 O 0.01518 0.01434 0.01520
 O1110 O -0.01452 -0.01544 -0.01481
 C1111 C 0.04841 0.01249 0.01271
 C1112 C 0.01283 0.04760 0.01336
 C1113 C 0.01309 0.01169 0.04844
 C1114 C -0.04696 -0.01388 -0.01392
 C1115 C -0.01364 -0.01457 -0.04706
 C1116 C -0.01331 -0.04790 -0.01358
 H1117 H 0.00780 0.00710 -0.03482
 H1118 H 0.00788 -0.03563 0.00766
 H1119 H 0.02187 0.02101 0.02198
 H1120 H -0.03468 0.00709 0.00743
 H1121 H -0.03160 0.03535 -0.01408
 H1122 H -0.03389 0.03368 0.01282
 H1123 H 0.02550 -0.04378 -0.00992
 H1124 H 0.04195 -0.02622 0.00782
 H1125 H -0.02433 0.02526 -0.04356
 H1126 H 0.02480 0.04348 -0.02563
 H1127 H -0.00959 -0.04346 0.02551
 H1128 H 0.00840 -0.02697 0.04113
 H1129 H 0.04150 0.00700 -0.02550
 H1130 H 0.02558 -0.01026 -0.04289
 H1131 H -0.02503 0.00665 0.04205
 H1132 H -0.04313 -0.01062 0.02485
 O1133 O 0.04157 0.52055 0.50121
 O1134 O 0.03650 0.51792 0.47384
 O1135 O 0.00112 0.54138 0.52065
 O1136 O -0.02528 0.53710 0.52009
 O1137 O 0.02085 0.50111 0.54162
 O1138 O 0.01942 0.47271 0.53593
 O1139 O -0.04104 0.49836 0.47898
 O1140 O -0.03691 0.52575 0.48267
 O1141 O -0.00209 0.47877 0.45913
 O1142 O 0.02693 0.48071 0.46423
 O1143 O -0.02128 0.45891 0.49808
 O1144 O -0.01908 0.46198 0.52495
 O1145 O -0.04105 0.47946 0.49796
 O1146 O -0.03499 0.48222 0.52796
 O1147 O -0.00220 0.45868 0.47935
 O1148 O 0.02716 0.46395 0.48181
 O1149 O -0.02130 0.49740 0.45937
 O1150 O -0.01556 0.52631 0.46382
 O1151 O 0.04183 0.50127 0.51989
 O1152 O 0.03631 0.47296 0.51775
 O1153 O 0.00157 0.51970 0.54198
 O1154 O -0.02719 0.51668 0.53592
 O1155 O 0.02017 0.54145 0.50181
 O1156 O 0.01594 0.53571 0.47317
 Zr1157 Zr 0.01884 0.51888 0.49140
 O1158 O 0.00510 0.50477 0.47626
 Zr1159 Zr -0.00865 0.51858 0.51937
 O1160 O -0.02382 0.50496 0.50517
 Zr1161 Zr 0.01919 0.49099 0.51900
 O1162 O 0.00503 0.47586 0.50528
 Zr1163 Zr -0.01874 0.50873 0.48128
 O1164 O -0.00509 0.52412 0.49542
 Zr1165 Zr 0.00881 0.48083 0.48133
 O1166 O 0.02418 0.49488 0.49506
 Zr1167 Zr -0.01886 0.48103 0.50897
 O1168 O -0.00474 0.49457 0.52458
 O1169 O 0.01499 0.51467 0.51510
 O1170 O -0.01490 0.48493 0.48525
 C1171 C 0.04822 0.51291 0.51251
 C1172 C 0.01260 0.54794 0.51324
 C1173 C 0.01320 0.51234 0.54833
 C1174 C -0.04736 0.48666 0.48622
 C1175 C -0.01404 0.48575 0.45297
 C1176 C -0.01407 0.45249 0.48641
 H1177 H 0.00746 0.50730 0.46514
 H1178 H 0.00727 0.46474 0.50795
 H1179 H 0.02171 0.52140 0.52180
 H1180 H -0.03493 0.50752 0.50750
 H1181 H -0.03184 0.53576 0.48589
 H1182 H -0.03388 0.53421 0.51279
 H1183 H 0.02486 0.45640 0.49038
 H1184 H 0.04177 0.47425 0.50753
 H1185 H -0.02460 0.52563 0.45646
 H1186 H 0.02440 0.54372 0.47417
 H1187 H -0.01118 0.46450 0.53311
 H1188 H 0.01073 0.47483 0.54340
 H1189 H 0.04115 0.50724 0.47434
 H1190 H 0.02525 0.48984 0.45720
 H1191 H -0.02489 0.50736 0.54253
 H1192 H -0.04355 0.48953 0.52493
 O1193 O 0.50118 0.04198 0.52058
 O1194 O 0.47374 0.03691 0.51793
 O1195 O 0.52042 0.00162 0.54174
 O1196 O 0.51943 -0.02492 0.53761
 O1197 O 0.54172 0.02073 0.50114
 O1198 O 0.53627 0.01891 0.47336
 O1199 O 0.47881 -0.04071 0.49823
 O1200 O 0.48244 -0.03669 0.52570
 O1201 O 0.45917 -0.00150 0.47888
 O1202 O 0.46425 0.02731 0.48070
 O1203 O 0.49841 -0.02071 0.45904
 O1204 O 0.52731 -0.01888 0.46437
 O1205 O 0.49784 -0.04070 0.47939
 O1206 O 0.52733 -0.03554 0.48187
 O1207 O 0.47949 -0.00178 0.45890
 O1208 O 0.48208 0.02776 0.46435
 O1209 O 0.45927 -0.02083 0.49738
 O1210 O 0.46364 -0.01527 0.52630
 O1211 O 0.51998 0.04206 0.50143
 O1212 O 0.51814 0.03644 0.47319
 O1213 O 0.54180 0.00177 0.52008
 O1214 O 0.53577 -0.02687 0.51734
 O1215 O 0.50162 0.02073 0.54162
 O1216 O 0.47303 0.01645 0.53582
 Zr1217 Zr 0.49131 0.01925 0.51904
 O1218 O 0.47623 0.00548 0.50488
 Zr1219 Zr 0.51914 -0.00837 0.51902
 O1220 O 0.50508 -0.02353 0.50522
 Zr1221 Zr 0.51902 0.01936 0.49128
 O1222 O 0.50532 0.00534 0.47606
 Zr1223 Zr 0.48116 -0.01843 0.50879
 O1224 O 0.49516 -0.00474 0.52431
 Zr1225 Zr 0.48140 0.00922 0.48101
 O1226 O 0.49512 0.02454 0.49509
 Zr1227 Zr 0.50903 -0.01860 0.48131
 O1228 O 0.52442 -0.00456 0.49509
 O1229 O 0.51503 0.01529 0.51495
 O1230 O 0.48528 -0.01455 0.48504
 C1231 C 0.51253 0.04855 0.51296
 C1232 C 0.51301 0.01319 0.54820
 C1233 C 0.54829 0.01321 0.51253
 C1234 C 0.48604 -0.04701 0.48650
 C1235 C 0.45294 -0.01346 0.48577
 C1236 C 0.48670 -0.01355 0.45266
 H1237 H 0.46511 0.00787 0.50737
 H1238 H 0.50789 0.00778 0.46498
 H1239 H 0.52176 0.02203 0.52164
 H1240 H 0.50734 -0.03467 0.50778
 H1241 H 0.48568 -0.03166 0.53572
 H1242 H 0.51260 -0.03380 0.53439
 H1243 H 0.49022 0.02518 0.45643
 H1244 H 0.50793 0.04194 0.47430
 H1245 H 0.45625 -0.02428 0.52554
 H1246 H 0.47398 0.02498 0.54376
 H1247 H 0.52572 -0.00978 0.45727
 H1248 H 0.54123 0.00836 0.47384
 H1249 H 0.47445 0.04170 0.50733
 H1250 H 0.45746 0.02593 0.49005
 H1251 H 0.54190 -0.02502 0.50761
 H1252 H 0.52484 -0.04324 0.49025
 O1253 O 0.54137 0.52094 0.00096
 O1254 O 0.53636 0.51815 -0.02640
 O1255 O 0.50089 0.54186 0.02022
 O1256 O 0.47448 0.53759 0.01964
 O1257 O 0.52056 0.50168 0.04143
 O1258 O 0.51913 0.47330 0.03591
 O1259 O 0.45883 0.49865 -0.02154
 O1260 O 0.46287 0.52605 -0.01772
 O1261 O 0.49793 0.47916 -0.04103
 O1262 O 0.52687 0.48093 -0.03578
 O1263 O 0.47852 0.45928 -0.00206
 O1264 O 0.48044 0.46253 0.02481
 O1265 O 0.45872 0.47978 -0.00252
 O1266 O 0.46465 0.48283 0.02763
 O1267 O 0.49760 0.45903 -0.02079
 O1268 O 0.52695 0.46423 -0.01818
 O1269 O 0.47877 0.49785 -0.04095
 O1270 O 0.48436 0.52673 -0.03641
 O1271 O 0.54159 0.50174 0.01972
 O1272 O 0.53600 0.47337 0.01768
 O1273 O 0.50130 0.52030 0.04166
 O1274 O 0.47257 0.51718 0.03560
 O1275 O 0.51997 0.54183 0.00140
 O1276 O 0.51586 0.53597 -0.02720
 Zr1277 Zr 0.51867 0.51923 -0.00887
 O1278 O 0.50495 0.50507 -0.02397
 Zr1279 Zr 0.49110 0.51905 0.01904
 O1280 O 0.47593 0.50540 0.00485
 Zr1281 Zr 0.51893 0.49146 0.01885
 O1282 O 0.50476 0.47629 0.00516
 Zr1283 Zr 0.48110 0.50910 -0.01902
 O1284 O 0.49473 0.52451 -0.00491
 Zr1285 Zr 0.50865 0.48116 -0.01878
 O1286 O 0.52400 0.49525 -0.00509
 Zr1287 Zr 0.48084 0.48147 0.00871
 O1288 O 0.49497 0.49505 0.02431
 O1289 O 0.51475 0.51511 0.01484
 O1290 O 0.48492 0.48530 -0.01500
 C1291 C 0.54801 0.51334 0.01228
 C1292 C 0.51239 0.54838 0.01279
 C1293 C 0.51292 0.51297 0.04807
 C1294 C 0.45247 0.48693 -0.01435
 C1295 C 0.48607 0.48620 -0.04728
 C1296 C 0.48573 0.45285 -0.01371
 H1297 H 0.50737 0.50757 -0.03508
 H1298 H 0.50699 0.46517 0.00788
 H1299 H 0.52147 0.52187 0.02151
 H1300 H 0.46480 0.50796 0.00713
 H1301 H 0.46789 0.53606 -0.01443
 H1302 H 0.46581 0.53460 0.01246
 H1303 H 0.52459 0.45671 -0.00961
 H1304 H 0.54153 0.47466 0.00750
 H1305 H 0.47538 0.52604 -0.04386
 H1306 H 0.52434 0.54396 -0.02622
 H1307 H 0.48860 0.46488 0.03277
 H1308 H 0.51034 0.47541 0.04326
 H1309 H 0.54111 0.50752 -0.02574
 H1310 H 0.52531 0.49010 -0.04279
 H1311 H 0.47487 0.50788 0.04223
 H1312 H 0.45595 0.48986 0.02438
 O1313 O 0.75151 0.27088 0.45840
 O1314 O 0.72408 0.26835 0.46334
 O1315 O 0.77077 0.29174 0.49900
 O1316 O 0.76985 0.28745 0.52545
 O1317 O 0.79193 0.25121 0.47952
 O1318 O 0.78633 0.22332 0.48131
 O1319 O 0.72894 0.24847 0.54081
 O1320 O 0.73274 0.27590 0.53691
 O1321 O 0.70917 0.22930 0.50154
 O1322 O 0.71435 0.23124 0.47267
 O1323 O 0.74823 0.20905 0.52063
 O1324 O 0.77709 0.21410 0.51900
 O1325 O 0.74780 0.22943 0.54074
 O1326 O 0.77733 0.23164 0.53562
 O1327 O 0.72933 0.20910 0.50169
 O1328 O 0.73189 0.21459 0.47229
 O1329 O 0.70939 0.24781 0.52089
 O1330 O 0.71399 0.27670 0.51547
 O1331 O 0.77020 0.25160 0.45822
 O1332 O 0.76823 0.22332 0.46368
 O1333 O 0.79206 0.27004 0.49863
 O1334 O 0.78604 0.26702 0.52723
 O1335 O 0.75203 0.29181 0.47982
 O1336 O 0.72339 0.28616 0.48387
 Zr1337 Zr 0.74160 0.26928 0.48107
 O1338 O 0.72641 0.25519 0.49469
 Zr1339 Zr 0.76942 0.26896 0.50874
 O1340 O 0.75524 0.25521 0.52376
 Zr1341 Zr 0.76918 0.24136 0.48085
 O1342 O 0.75532 0.22616 0.49473
 Zr1343 Zr 0.73136 0.25901 0.51860
 O1344 O 0.74549 0.27447 0.50505
 Zr1345 Zr 0.73143 0.23127 0.49085
 O1346 O 0.74528 0.24530 0.47565
 Zr1347 Zr 0.75902 0.23128 0.51869
 O1348 O 0.77455 0.24499 0.50480
 O1349 O 0.76529 0.26504 0.48506
 O1350 O 0.73530 0.23521 0.51462
 C1351 C 0.76282 0.26321 0.45180
 C1352 C 0.76342 0.29829 0.48746
 C1353 C 0.79853 0.26259 0.48711
 C1354 C 0.73608 0.23666 0.54707
 C1355 C 0.70297 0.23626 0.51348
 C1356 C 0.73649 0.20276 0.51342
 H1357 H 0.71531 0.25777 0.49229
 H1358 H 0.75781 0.21506 0.49223
 H1359 H 0.77205 0.27173 0.47838
 H1360 H 0.75750 0.25772 0.53490
 H1361 H 0.73606 0.28592 0.53194
 H1362 H 0.76296 0.28424 0.53426
 H1363 H 0.74017 0.20676 0.47471
 H1364 H 0.75798 0.22446 0.45824
 H1365 H 0.70659 0.27601 0.52447
 H1366 H 0.72444 0.29416 0.47542
 H1367 H 0.77565 0.20724 0.50969
 H1368 H 0.79134 0.22383 0.49183
 H1369 H 0.72470 0.25774 0.45854
 H1370 H 0.70747 0.24051 0.47423
 H1371 H 0.79217 0.25730 0.52524
 H1372 H 0.77492 0.24002 0.54335
 O1373 O 0.79156 0.75126 -0.02093
 O1374 O 0.78630 0.72387 -0.01853
 O1375 O 0.75121 0.77103 -0.04174
 O1376 O 0.72476 0.77034 -0.03748
 O1377 O 0.77089 0.79194 -0.00118
 O1378 O 0.76912 0.78637 0.02662
 O1379 O 0.70894 0.72948 0.00144
 O1380 O 0.71286 0.73320 -0.02594
 O1381 O 0.74803 0.70934 0.02057
 O1382 O 0.77683 0.71422 0.01879
 O1383 O 0.72930 0.74875 0.04086
 O1384 O 0.73114 0.77750 0.03583
 O1385 O 0.70921 0.74834 0.02050
 O1386 O 0.71466 0.77794 0.01815
 O1387 O 0.74797 0.72958 0.04077
 O1388 O 0.77751 0.73197 0.03524
 O1389 O 0.72866 0.70972 0.00211
 O1390 O 0.73413 0.71426 -0.02676
 O1391 O 0.79195 0.76998 -0.00165
 O1392 O 0.78647 0.76801 0.02661
 O1393 O 0.75176 0.79228 -0.01996
 O1394 O 0.72307 0.78645 -0.01702
 O1395 O 0.77021 0.75212 -0.04188
 O1396 O 0.76574 0.72345 -0.03631
 Zr1397 Zr 0.76878 0.74161 -0.01939
 O1398 O 0.75502 0.72654 -0.00528
 Zr1399 Zr 0.74143 0.76970 -0.01899
 O1400 O 0.72626 0.75564 -0.00528
 Zr1401 Zr 0.76932 0.76919 0.00859
 O1402 O 0.75527 0.75549 0.02376
 Zr1403 Zr 0.73117 0.73169 -0.00909
 O1404 O 0.74484 0.74571 -0.02454
 Zr1405 Zr 0.75890 0.73154 0.01863
 O1406 O 0.77424 0.74522 0.00458
 Zr1407 Zr 0.73136 0.75942 0.01863
 O1408 O 0.74544 0.77481 0.00496
 O1409 O 0.76506 0.76536 -0.01508
 O1410 O 0.73517 0.73562 0.01470
 C1411 C 0.79828 0.76252 -0.01327
 C1412 C 0.76269 0.76362 -0.04831
 C1413 C 0.76334 0.79863 -0.01250
 C1414 C 0.70277 0.73666 0.01327
 C1415 C 0.73603 0.70323 0.01363
 C1416 C 0.73635 0.73691 0.04713
 H1417 H 0.75731 0.71540 -0.00787
 H1418 H 0.75779 0.75797 0.03485
 H1419 H 0.77181 0.77206 -0.02174
 H1420 H 0.71514 0.75800 -0.00779
 H1421 H 0.71785 0.73646 -0.03595
 H1422 H 0.71594 0.76341 -0.03437
 H1423 H 0.77503 0.74009 0.04322
 H1424 H 0.79186 0.75775 0.02538
 H1425 H 0.72507 0.70691 -0.02605
 H1426 H 0.77419 0.72443 -0.04430
 H1427 H 0.74060 0.77619 0.04249
 H1428 H 0.75866 0.79151 0.02613
 H1429 H 0.79110 0.72442 -0.00792
 H1430 H 0.77544 0.70756 0.00932
 H1431 H 0.72516 0.79265 -0.00735
 H1432 H 0.70675 0.77542 0.00997
 O1433 O 1.00079 0.20785 0.22922
 O1434 O 0.97343 0.21290 0.23188
 O1435 O 1.02010 0.24840 0.20834
 O1436 O 1.01946 0.27483 0.21258
 O1437 O 1.04132 0.22874 0.24846
 O1438 O 1.03583 0.23014 0.27681
 O1439 O 0.97844 0.29046 0.25156
 O1440 O 0.98213 0.28644 0.22416
 O1441 O 0.95890 0.25128 0.27099
 O1442 O 0.96411 0.22233 0.26912
 O1443 O 0.99795 0.27069 0.29081
 O1444 O 1.02480 0.26877 0.28760
 O1445 O 0.99754 0.29055 0.27036
 O1446 O 1.02760 0.28462 0.26738
 O1447 O 0.97922 0.25156 0.29105
 O1448 O 0.98176 0.22219 0.28577
 O1449 O 0.95896 0.27052 0.25240
 O1450 O 0.96338 0.26494 0.22350
 O1451 O 1.01956 0.20766 0.24843
 O1452 O 1.01764 0.21325 0.27672
 O1453 O 1.04153 0.24806 0.22991
 O1454 O 1.03543 0.27681 0.23296
 O1455 O 1.00132 0.22924 0.20832
 O1456 O 0.97271 0.23344 0.21409
 Zr1457 Zr 0.99100 0.23058 0.23087
 O1458 O 0.97592 0.24428 0.24503
 Zr1459 Zr 1.01891 0.25820 0.23111
 O1460 O 1.00474 0.27336 0.24477
 Zr1461 Zr 1.01875 0.23034 0.25866
 O1462 O 1.00509 0.24447 0.27382
 Zr1463 Zr 0.98085 0.26818 0.24108
 O1464 O 0.99494 0.25456 0.22565
 Zr1465 Zr 0.98114 0.24056 0.26892
 O1466 O 0.99482 0.22523 0.25483
 Zr1467 Zr 1.00867 0.26840 0.26866
 O1468 O 1.02424 0.25432 0.25508
 O1469 O 1.01472 0.23452 0.23502
 O1470 O 0.98494 0.26432 0.26484
 C1471 C 1.01210 0.20122 0.23686
 C1472 C 1.01271 0.23685 0.20181
 C1473 C 1.04795 0.23643 0.23722
 C1474 C 0.98570 0.29682 0.26325
 C1475 C 0.95265 0.26318 0.26402
 C1476 C 0.98632 0.26344 0.29724
 H1477 H 0.96480 0.24187 0.24254
 H1478 H 1.00782 0.24223 0.28492
 H1479 H 1.02139 0.22779 0.22829
 H1480 H 1.00703 0.28450 0.24222
 H1481 H 0.98536 0.28141 0.21414
 H1482 H 1.01225 0.28347 0.21555
 H1483 H 0.99033 0.22455 0.29331
 H1484 H 1.00745 0.20772 0.27545
 H1485 H 0.95597 0.27394 0.22422
 H1486 H 0.97368 0.22496 0.20610
 H1487 H 1.03280 0.26068 0.28519
 H1488 H 1.04322 0.23891 0.27471
 H1489 H 0.97406 0.20816 0.24251
 H1490 H 0.95710 0.22389 0.25994
 H1491 H 1.04208 0.27454 0.24227
 H1492 H 1.02444 0.29325 0.26022
 O1493 O 0.70826 1.02085 0.74861
 O1494 O 0.71328 1.01832 0.77603
 O1495 O 0.74876 1.04169 0.72929
 O1496 O 0.77520 1.03744 0.73013
 O1497 O 0.72931 1.00104 0.70818
 O1498 O 0.73108 0.97321 0.71381
 O1499 O 0.79079 0.99859 0.77110
 O1500 O 0.78683 1.02600 0.76719
 O1501 O 0.75168 0.97937 0.79089
 O1502 O 0.72278 0.98122 0.78578
 O1503 O 0.77072 0.95905 0.75184
 O1504 O 0.76901 0.96401 0.72302
 O1505 O 0.79071 0.97945 0.75230
 O1506 O 0.78546 0.98175 0.72266
 O1507 O 0.75187 0.95912 0.77081
 O1508 O 0.72241 0.96451 0.76822
 O1509 O 0.77096 0.99796 0.79064
 O1510 O 0.76546 1.02680 0.78603
 O1511 O 0.70804 1.00155 0.72991
 O1512 O 0.71355 0.97324 0.73200
 O1513 O 0.74838 1.01989 0.70801
 O1514 O 0.77699 1.01698 0.71399
 O1515 O 0.72965 1.04179 0.74807
 O1516 O 0.73379 1.03616 0.77670
 Zr1517 Zr 0.73096 1.01926 0.75849
 O1518 O 0.74468 1.00521 0.77366
 Zr1519 Zr 0.75855 1.01891 0.73063
 O1520 O 0.77366 1.00522 0.74479
 Zr1521 Zr 0.73069 0.99128 0.73095
 O1522 O 0.74469 0.97612 0.74477
 Zr1523 Zr 0.76856 1.00908 0.76866
 O1524 O 0.75492 1.02448 0.75456
 Zr1525 Zr 0.74089 0.98126 0.76867
 O1526 O 0.72560 0.99526 0.75485
 Zr1527 Zr 0.76864 0.98126 0.74104
 O1528 O 0.75463 0.99492 0.72554
 O1529 O 0.73489 1.01498 0.73480
 O1530 O 0.76464 0.98526 0.76476
 C1531 C 0.70162 1.01319 0.73729
 C1532 C 0.73725 1.04826 0.73666
 C1533 C 0.73688 1.01239 0.70156
 C1534 C 0.79705 0.98673 0.76402
 C1535 C 0.76362 0.98638 0.79705
 C1536 C 0.76360 0.95278 0.76363
 H1537 H 0.74231 1.00781 0.78476
 H1538 H 0.74222 0.96501 0.74228
 H1539 H 0.72818 1.02165 0.72804
 H1540 H 0.78479 1.00775 0.74251
 H1541 H 0.78181 1.03600 0.76390
 H1542 H 0.78405 1.03428 0.73700
 H1543 H 0.72487 0.95663 0.75999
 H1544 H 0.70814 0.97443 0.74226
 H1545 H 0.77451 1.02617 0.79339
 H1546 H 0.72532 1.04414 0.77569
 H1547 H 0.75961 0.95726 0.72435
 H1548 H 0.74161 0.97364 0.70884
 H1549 H 0.70854 1.00768 0.77545
 H1550 H 0.72437 0.99049 0.79267
 H1551 H 0.77501 1.00724 0.70787
 H1552 H 0.79336 0.98992 0.72525
 O1553 O 0.70862 0.52093 0.24882
 O1554 O 0.71366 0.51839 0.27620
 O1555 O 0.74912 0.54194 0.22955
 O1556 O 0.77556 0.53771 0.23032
 O1557 O 0.72969 0.50135 0.20828
 O1558 O 0.73152 0.47352 0.21376
 O1559 O 0.79113 0.49869 0.27129
 O1560 O 0.78720 0.52610 0.26745
 O1561 O 0.75202 0.47938 0.29088
 O1562 O 0.72314 0.48124 0.28577
 O1563 O 0.77103 0.45923 0.25168
 O1564 O 0.76952 0.46436 0.22297
 O1565 O 0.79107 0.47960 0.25245
 O1566 O 0.78594 0.48215 0.22275
 O1567 O 0.75218 0.45923 0.27064
 O1568 O 0.72276 0.46464 0.26816
 O1569 O 0.77126 0.49800 0.29077
 O1570 O 0.76577 0.52688 0.28622
 O1571 O 0.70844 0.50169 0.23005
 O1572 O 0.71403 0.47339 0.23196
 O1573 O 0.74872 0.52024 0.20816
 O1574 O 0.77738 0.51728 0.21416
 O1575 O 0.72999 0.54194 0.24831
 O1576 O 0.73415 0.53624 0.27691
 Zr1577 Zr 0.73133 0.51939 0.25865
 O1578 O 0.74503 0.50530 0.27378
 Zr1579 Zr 0.75891 0.51917 0.23079
 O1580 O 0.77403 0.50546 0.24493
 Zr1581 Zr 0.73111 0.49150 0.23099
 O1582 O 0.74511 0.47632 0.24476
 Zr1583 Zr 0.76891 0.50921 0.26882
 O1584 O 0.75529 0.52464 0.25474
 Zr1585 Zr 0.74126 0.48138 0.26867
 O1586 O 0.72597 0.49540 0.25490
 Zr1587 Zr 0.76905 0.48152 0.24108
 O1588 O 0.75503 0.49520 0.22561
 O1589 O 0.73526 0.51519 0.23494
 O1590 O 0.76500 0.48540 0.26481
 C1591 C 0.70200 0.51327 0.23750
 C1592 C 0.73759 0.54846 0.23694
 C1593 C 0.73722 0.51274 0.20169
 C1594 C 0.79738 0.48683 0.26421
 C1595 C 0.76393 0.48638 0.29712
 C1596 C 0.76388 0.45291 0.26342
 H1597 H 0.74265 0.50785 0.28489
 H1598 H 0.74264 0.46523 0.24222
 H1599 H 0.72854 0.52188 0.22821
 H1600 H 0.78517 0.50800 0.24268
 H1601 H 0.78221 0.53612 0.26417
 H1602 H 0.78437 0.53457 0.23726
 H1603 H 0.72516 0.45685 0.25983
 H1604 H 0.70856 0.47456 0.24219
 H1605 H 0.77479 0.52621 0.29361
 H1606 H 0.72567 0.54421 0.27592
 H1607 H 0.76002 0.45771 0.22412
 H1608 H 0.74202 0.47403 0.20875
 H1609 H 0.70894 0.50774 0.27560
 H1610 H 0.72471 0.49047 0.29271
 H1611 H 0.77538 0.50759 0.20798
 H1612 H 0.79391 0.49021 0.22550
 O1613 O 0.54137 0.22913 0.74861
 O1614 O 0.53629 0.23151 0.77602
 O1615 O 0.50091 0.20827 0.72905
 O1616 O 0.47443 0.21253 0.72998
 O1617 O 0.52031 0.24900 0.70817
 O1618 O 0.51861 0.27679 0.71389
 O1619 O 0.45887 0.25156 0.77095
 O1620 O 0.46275 0.22412 0.76710
 O1621 O 0.49808 0.27066 0.79088
 O1622 O 0.52687 0.26879 0.78585
 O1623 O 0.47906 0.29092 0.75175
 O1624 O 0.48090 0.28584 0.72282
 O1625 O 0.45900 0.27061 0.75210
 O1626 O 0.46415 0.26841 0.72262
 O1627 O 0.49789 0.29084 0.77076
 O1628 O 0.52741 0.28532 0.76817
 O1629 O 0.47868 0.25220 0.79055
 O1630 O 0.48412 0.22329 0.78596
 O1631 O 0.54158 0.24846 0.72998
 O1632 O 0.53611 0.27672 0.73206
 O1633 O 0.50125 0.23013 0.70788
 O1634 O 0.47264 0.23299 0.71386
 O1635 O 0.52001 0.20814 0.74786
 O1636 O 0.51572 0.21372 0.77654
 Zr1637 Zr 0.51865 0.23065 0.75841
 O1638 O 0.50497 0.24475 0.77360
 Zr1639 Zr 0.49110 0.23104 0.73051
 O1640 O 0.47601 0.24477 0.74467
 Zr1641 Zr 0.51896 0.25869 0.73096
 O1642 O 0.50500 0.27386 0.74477
 Zr1643 Zr 0.48108 0.24096 0.76857
 O1644 O 0.49467 0.22550 0.75445
 Zr1645 Zr 0.50882 0.26869 0.76865
 O1646 O 0.52406 0.25465 0.75485
 Zr1647 Zr 0.48108 0.26872 0.74094
 O1648 O 0.49504 0.25503 0.72546
 O1649 O 0.51475 0.23498 0.73472
 O1650 O 0.48506 0.26476 0.76468
 C1651 C 0.54800 0.23684 0.73735
 C1652 C 0.51243 0.20168 0.73640
 C1653 C 0.51274 0.23768 0.70148
 C1654 C 0.45265 0.26340 0.76382
 C1655 C 0.48609 0.26374 0.79701
 C1656 C 0.48619 0.29718 0.76355
 H1657 H 0.50733 0.24216 0.78470
 H1658 H 0.50750 0.28496 0.74231
 H1659 H 0.52146 0.22832 0.72795
 H1660 H 0.46488 0.24227 0.74237
 H1661 H 0.46772 0.21409 0.76381
 H1662 H 0.46561 0.21571 0.73689
 H1663 H 0.52486 0.29333 0.76011
 H1664 H 0.54156 0.27552 0.74229
 H1665 H 0.47510 0.22401 0.79332
 H1666 H 0.52418 0.20572 0.77551
 H1667 H 0.49003 0.29288 0.72448
 H1668 H 0.50808 0.27638 0.70888
 H1669 H 0.54106 0.24215 0.77550
 H1670 H 0.52542 0.25939 0.79257
 H1671 H 0.47458 0.24277 0.70781
 H1672 H 0.45645 0.25998 0.72498
 O1673 O 0.25134 0.77128 0.45823
 O1674 O 0.22393 0.76878 0.46327
 O1675 O 0.27074 0.79221 0.49873
 O1676 O 0.26992 0.78795 0.52519
 O1677 O 0.29186 0.75164 0.47924
 O1678 O 0.28630 0.72379 0.48104
 O1679 O 0.22906 0.74896 0.54072
 O1680 O 0.23279 0.77636 0.53678
 O1681 O 0.20920 0.72967 0.50153
 O1682 O 0.21426 0.73155 0.47268
 O1683 O 0.24839 0.70950 0.52053
 O1684 O 0.27718 0.71459 0.51888
 O1685 O 0.24791 0.72991 0.54062
 O1686 O 0.27747 0.73224 0.53540
 O1687 O 0.22942 0.70951 0.50165
 O1688 O 0.23190 0.71502 0.47220
 O1689 O 0.20945 0.74819 0.52088
 O1690 O 0.21397 0.77709 0.51539
 O1691 O 0.27005 0.75202 0.45802
 O1692 O 0.26810 0.72373 0.46352
 O1693 O 0.29205 0.77050 0.49832
 O1694 O 0.28608 0.76753 0.52697
 O1695 O 0.25196 0.79225 0.47960
 O1696 O 0.22333 0.78659 0.48381
 Zr1697 Zr 0.24152 0.76971 0.48093
 O1698 O 0.22638 0.75560 0.49460
 Zr1699 Zr 0.26943 0.76944 0.50851
 O1700 O 0.25529 0.75570 0.52358
 Zr1701 Zr 0.26912 0.74180 0.48065
 O1702 O 0.25533 0.72660 0.49460
 Zr1703 Zr 0.23139 0.75945 0.51849
 O1704 O 0.24548 0.77492 0.50490
 Zr1705 Zr 0.23142 0.73168 0.49078
 O1706 O 0.24520 0.74573 0.47553
 Zr1707 Zr 0.25910 0.73176 0.51854
 O1708 O 0.27457 0.74547 0.50457
 O1709 O 0.26523 0.76548 0.48485
 O1710 O 0.23535 0.73565 0.51454
 C1711 C 0.26264 0.76362 0.45160
 C1712 C 0.26337 0.79874 0.48720
 C1713 C 0.29848 0.76302 0.48680
 C1714 C 0.23620 0.73715 0.54697
 C1715 C 0.20303 0.73661 0.51349
 C1716 C 0.23663 0.70318 0.51335
 H1717 H 0.21527 0.75816 0.49223
 H1718 H 0.25784 0.71551 0.49210
 H1719 H 0.27196 0.77217 0.47814
 H1720 H 0.25758 0.75822 0.53472
 H1721 H 0.23606 0.78638 0.53178
 H1722 H 0.26298 0.78480 0.53398
 H1723 H 0.24015 0.70716 0.47464
 H1724 H 0.25787 0.72491 0.45805
 H1725 H 0.20659 0.77638 0.52440
 H1726 H 0.22433 0.79458 0.47535
 H1727 H 0.27584 0.70783 0.50948
 H1728 H 0.29134 0.72430 0.49154
 H1729 H 0.22452 0.75814 0.45849
 H1730 H 0.20744 0.74088 0.47419
 H1731 H 0.29225 0.75784 0.52495
 H1732 H 0.27498 0.74053 0.54321
 O1733 O 0.25136 0.27054 0.95845
 O1734 O 0.22397 0.26787 0.96349
 O1735 O 0.27062 0.29165 0.99893
 O1736 O 0.26975 0.28744 1.02541
 O1737 O 0.29199 0.25120 0.97956
 O1738 O 0.28658 0.22330 0.98140
 O1739 O 0.22912 0.24819 1.04095
 O1740 O 0.23277 0.27562 1.03703
 O1741 O 0.20941 0.22881 1.00180
 O1742 O 0.21452 0.23067 0.97293
 O1743 O 0.24867 0.20886 1.02088
 O1744 O 0.27748 0.21410 1.01916
 O1745 O 0.24811 0.22927 1.04090
 O1746 O 0.27765 0.23174 1.03572
 O1747 O 0.22971 0.20876 1.00199
 O1748 O 0.23222 0.21418 0.97255
 O1749 O 0.20954 0.24741 1.02108
 O1750 O 0.21396 0.27629 1.01560
 O1751 O 0.27019 0.25139 0.95829
 O1752 O 0.26843 0.22311 0.96384
 O1753 O 0.29204 0.27007 0.99862
 O1754 O 0.28607 0.26713 1.02724
 O1755 O 0.25186 0.29156 0.97978
 O1756 O 0.22326 0.28576 0.98397
 Zr1757 Zr 0.24155 0.26897 0.98115
 O1758 O 0.22647 0.25480 0.99484
 Zr1759 Zr 0.26942 0.26890 1.00876
 O1760 O 0.25536 0.25509 1.02385
 Zr1761 Zr 0.26930 0.24121 0.98094
 O1762 O 0.25557 0.22596 0.99490
 Zr1763 Zr 0.23145 0.25872 1.01873
 O1764 O 0.24545 0.27424 1.00512
 Zr1765 Zr 0.23164 0.23091 0.99106
 O1766 O 0.24537 0.24500 0.97580
 Zr1767 Zr 0.25929 0.23116 1.01883
 O1768 O 0.27470 0.24495 1.00487
 O1769 O 0.26527 0.26488 0.98510
 O1770 O 0.23553 0.23493 1.01481
 C1771 C 0.26271 0.26294 0.95185
 C1772 C 0.26323 0.29813 0.98738
 C1773 C 0.29854 0.26262 0.98712
 C1774 C 0.23633 0.23643 1.04722
 C1775 C 0.20318 0.23579 1.01372
 C1776 C 0.23694 0.20249 1.01372
 H1777 H 0.21535 0.25731 0.99246
 H1778 H 0.25813 0.21487 0.99242
 H1779 H 0.27198 0.27159 0.97839
 H1780 H 0.25763 0.25763 1.03498
 H1781 H 0.23599 0.28567 1.03204
 H1782 H 0.26290 0.28422 1.03424
 H1783 H 0.24047 0.20634 0.97503
 H1784 H 0.25816 0.22416 0.95842
 H1785 H 0.20659 0.27558 1.02463
 H1786 H 0.22421 0.29372 0.97547
 H1787 H 0.27607 0.20721 1.00987
 H1788 H 0.29158 0.22383 0.99192
 H1789 H 0.22464 0.25724 0.95872
 H1790 H 0.20760 0.23992 0.97445
 H1791 H 0.29226 0.25744 1.02528
 H1792 H 0.27511 0.24004 1.04350
 C1793 C 0.28397 0.41074 0.78312
 C1794 C 0.27037 0.41734 0.78967
 C1795 C 0.26365 0.43079 0.78298
 C1796 C 0.29701 0.38571 0.79631
 C1797 C 0.28408 0.43105 0.76305
 C1798 C 0.29077 0.41759 0.76978
 C1799 C 0.29108 0.39711 0.79026
 C1800 C 0.27044 0.43786 0.76960
 H1801 H 0.26507 0.41219 0.80006
 H1802 H 0.25332 0.43583 0.78850
 H1803 H 0.28978 0.43630 0.75293
 H1804 H 0.30137 0.41263 0.76468
 C1805 C 0.28414 -0.08938 0.28287
 C1806 C 0.27075 -0.08267 0.28972
 C1807 C 0.26395 -0.06922 0.28310
 C1808 C 0.29734 -0.11431 0.29598
 C1809 C 0.28388 -0.06926 0.26266
 C1810 C 0.29064 -0.08271 0.26930
 C1811 C 0.29134 -0.10296 0.28995
 C1812 C 0.27047 -0.06232 0.26951
 H1813 H 0.26568 -0.08770 0.30028
 H1814 H 0.25380 -0.06407 0.28884
 H1815 H 0.28936 -0.06414 0.25235
 H1816 H 0.30107 -0.08778 0.26398
 C1817 C 0.78348 0.91059 0.78354
 C1818 C 0.79008 0.91726 0.76999
 C1819 C 0.78334 0.93069 0.76322
 C1820 C 0.79670 0.88556 0.79670
 C1821 C 0.76326 0.93080 0.78348
 C1822 C 0.77003 0.91737 0.79022
 C1823 C 0.79065 0.89696 0.79070
 C1824 C 0.76986 0.93768 0.76991
 H1825 H 0.80055 0.91218 0.76477
 H1826 H 0.78891 0.93578 0.75295
 H1827 H 0.75306 0.93598 0.78912
 H1828 H 0.76487 0.91238 0.80077
 C1829 C 0.46676 0.83970 0.28348
 C1830 C 0.48029 0.83302 0.29008
 C1831 C 0.48710 0.81968 0.28323
 C1832 C 0.45344 0.86446 0.29685
 C1833 C 0.46690 0.81974 0.26303
 C1834 C 0.46013 0.83309 0.26991
 C1835 C 0.45953 0.85318 0.29076
 C1836 C 0.48045 0.81283 0.26965
 H1837 H 0.48546 0.83799 0.30064
 H1838 H 0.49736 0.81454 0.28880
 H1839 H 0.46131 0.81466 0.25275
 H1840 H 0.44958 0.83811 0.26477
 C1841 C -0.03364 0.83935 0.78381
 C1842 C -0.02010 0.83262 0.79036
 C1843 C -0.01334 0.81926 0.78348
 C1844 C -0.04681 0.86425 0.79720
 C1845 C -0.03361 0.81937 0.76336
 C1846 C -0.04034 0.83273 0.77027
 C1847 C -0.04078 0.85291 0.79111
 C1848 C -0.02003 0.81243 0.76989
 H1849 H -0.01488 0.83758 0.80090
 H1850 H -0.00307 0.81411 0.78901
 H1851 H -0.03924 0.81430 0.75309
 H1852 H -0.05089 0.83778 0.76517
 C1853 C -0.03298 -0.09005 -0.03345
 C1854 C -0.01946 -0.08337 -0.04005
 C1855 C -0.01273 -0.06994 -0.03328
 C1856 C -0.04619 -0.11495 -0.04669
 C1857 C -0.03301 -0.06994 -0.01319
 C1858 C -0.03970 -0.08337 -0.01998
 C1859 C -0.04013 -0.10361 -0.04066
 C1860 C -0.01947 -0.06302 -0.01979
 H1861 H -0.01424 -0.08840 -0.05055
 H1862 H -0.00248 -0.06479 -0.03884
 H1863 H -0.03867 -0.06480 -0.00298
 H1864 H -0.05025 -0.08841 -0.01486
 C1865 C -0.03396 0.41024 0.46665
 C1866 C -0.02040 0.41687 0.46005
 C1867 C -0.01365 0.43035 0.46674
 C1868 C -0.04704 0.38514 0.45348
 C1869 C -0.03397 0.43055 0.48677
 C1870 C -0.04069 0.41708 0.48005
 C1871 C -0.04109 0.39657 0.45952
 C1872 C -0.02037 0.43739 0.48018
 H1873 H -0.01515 0.41174 0.44961
 H1874 H -0.00335 0.43541 0.46119
 H1875 H -0.03962 0.43577 0.49694
 H1876 H -0.05125 0.41210 0.48519
 C1877 C 0.46646 -0.08924 0.46635
 C1878 C 0.48002 -0.08249 0.45987
 C1879 C 0.48667 -0.06904 0.46670
 C1880 C 0.45346 -0.11431 0.45302
 C1881 C 0.46626 -0.06908 0.48663
 C1882 C 0.45964 -0.08254 0.47977
 C1883 C 0.45942 -0.10290 0.45908
 C1884 C 0.47986 -0.06212 0.48016
 H1885 H 0.48534 -0.08751 0.44942
 H1886 H 0.49697 -0.06389 0.46122
 H1887 H 0.46054 -0.06395 0.49681
 H1888 H 0.44908 -0.08760 0.48483
 C1889 C 0.46581 0.41059 -0.03345
 C1890 C 0.47939 0.41720 -0.04004
 C1891 C 0.48616 0.43066 -0.03334
 C1892 C 0.45272 0.38549 -0.04662
 C1893 C 0.46582 0.43091 -0.01333
 C1894 C 0.45908 0.41744 -0.02006
 C1895 C 0.45866 0.39692 -0.04058
 C1896 C 0.47944 0.43773 -0.01992
 H1897 H 0.48464 0.41205 -0.05046
 H1898 H 0.49647 0.43570 -0.03889
 H1899 H 0.46017 0.43615 -0.00317
 H1900 H 0.44851 0.41249 -0.01492
 C1901 C 0.78304 0.34068 0.46812
 C1902 C 0.78969 0.33395 0.48160
 C1903 C 0.78292 0.32053 0.48834
 C1904 C 0.79650 0.36522 0.45450
 C1905 C 0.76265 0.32069 0.46822
 C1906 C 0.76944 0.33410 0.46152
 C1907 C 0.79037 0.35407 0.46078
 C1908 C 0.76937 0.31365 0.48165
 H1909 H 0.80029 0.33889 0.48672
 H1910 H 0.78859 0.31529 0.49849
 H1911 H 0.75240 0.31559 0.46258
 H1912 H 0.76427 0.33915 0.45100
 C1913 C 0.78286 0.84106 -0.03185
 C1914 C 0.76921 0.83452 -0.03837
 C1915 C 0.76244 0.82111 -0.03164
 C1916 C 0.79633 0.86556 -0.04554
 C1917 C 0.78284 0.82088 -0.01166
 C1918 C 0.78958 0.83431 -0.01841
 C1919 C 0.79019 0.85443 -0.03923
 C1920 C 0.76925 0.81403 -0.01828
 H1921 H 0.76398 0.83959 -0.04884
 H1922 H 0.75215 0.81603 -0.03723
 H1923 H 0.78856 0.81562 -0.00155
 H1924 H 0.80022 0.83922 -0.01334
 C1925 C 0.78226 0.28237 0.40926
 C1926 C 0.78870 0.26871 0.41585
 C1927 C 0.78197 0.26206 0.42931
 C1928 C 0.79584 0.29577 0.38467
 C1929 C 0.76213 0.28260 0.42949
 C1930 C 0.76890 0.28922 0.41603
 C1931 C 0.78963 0.28961 0.39584
 C1932 C 0.76867 0.26900 0.43640
 H1933 H 0.79911 0.26337 0.41077
 H1934 H 0.78748 0.25175 0.43442
 H1935 H 0.75208 0.28843 0.43474
 H1936 H 0.76389 0.29986 0.41108
 C1937 C 0.78196 0.78330 -0.09077
 C1938 C 0.78858 0.76970 -0.08421
 C1939 C 0.78193 0.76290 -0.07077
 C1940 C 0.79542 0.79684 -0.11541
 C1941 C 0.76183 0.78316 -0.07053
 C1942 C 0.76851 0.78994 -0.08397
 C1943 C 0.78923 0.79066 -0.10422
 C1944 C 0.76852 0.76961 -0.06367
 H1945 H 0.79907 0.76452 -0.08931
 H1946 H 0.78758 0.75265 -0.06570
 H1947 H 0.75169 0.78883 -0.06526
 H1948 H 0.76335 0.80053 -0.08887
 C1949 C 0.28380 0.46655 0.83922
 C1950 C 0.29045 0.48004 0.83247
 C1951 C 0.28372 0.48673 0.81901
 C1952 C 0.29696 0.45351 0.86429
 C1953 C 0.26355 0.46650 0.81905
 C1954 C 0.27031 0.45984 0.83252
 C1955 C 0.29096 0.45948 0.85288
 C1956 C 0.27020 0.48002 0.81210
 H1957 H 0.30095 0.48527 0.83750
 H1958 H 0.28931 0.49697 0.81387
 H1959 H 0.25331 0.46086 0.81393
 H1960 H 0.26512 0.44934 0.83759
 C1961 C 0.28392 -0.03336 0.33906
 C1962 C 0.29029 -0.01974 0.33232
 C1963 C 0.28338 -0.01315 0.31891
 C1964 C 0.29737 -0.04624 0.36405
 C1965 C 0.26358 -0.03374 0.31899
 C1966 C 0.27052 -0.04030 0.33241
 C1967 C 0.29125 -0.04033 0.35267
 C1968 C 0.26994 -0.02008 0.31204
 H1969 H 0.30073 -0.01433 0.33730
 H1970 H 0.28878 -0.00281 0.31375
 H1971 H 0.25343 -0.03956 0.31389
 H1972 H 0.26555 -0.05091 0.33747
 C1973 C -0.03366 -0.03459 -0.08913
 C1974 C -0.04036 -0.02114 -0.08234
 C1975 C -0.03360 -0.01435 -0.06893
 C1976 C -0.04692 -0.04765 -0.11418
 C1977 C -0.01328 -0.03441 -0.06908
 C1978 C -0.02008 -0.04117 -0.08250
 C1979 C -0.04083 -0.04172 -0.10277
 C1980 C -0.01998 -0.02092 -0.06209
 H1981 H -0.05093 -0.01600 -0.08731
 H1982 H -0.03923 -0.00414 -0.06375
 H1983 H -0.00297 -0.03995 -0.06402
 H1984 H -0.01485 -0.05164 -0.08759
 C1985 C -0.03407 0.46582 0.41084
 C1986 C -0.04076 0.47927 0.41765
 C1987 C -0.03399 0.48603 0.43108
 C1988 C -0.04725 0.45266 0.38578
 C1989 C -0.01370 0.46595 0.43091
 C1990 C -0.02050 0.45922 0.41747
 C1991 C -0.04124 0.45868 0.39719
 C1992 C -0.02038 0.47943 0.43792
 H1993 H -0.05132 0.48443 0.41268
 H1994 H -0.03962 0.49624 0.43627
 H1995 H -0.00340 0.46039 0.43597
 H1996 H -0.01527 0.44875 0.41237
 C1997 C 0.46690 -0.03355 0.41060
 C1998 C 0.46027 -0.01999 0.41722
 C1999 C 0.46702 -0.01316 0.43060
 C2000 C 0.45356 -0.04684 0.38578
 C2001 C 0.48719 -0.03338 0.43069
 C2002 C 0.48041 -0.04018 0.41731
 C2003 C 0.45968 -0.04080 0.39708
 C2004 C 0.48053 -0.01981 0.43756
 H2005 H 0.44975 -0.01483 0.41218
 H2006 H 0.46142 -0.00288 0.43569
 H2007 H 0.49742 -0.03897 0.43586
 H2008 H 0.48558 -0.05074 0.41232
 C2009 C 0.46617 0.46635 -0.08931
 C2010 C 0.45954 0.47986 -0.08261
 C2011 C 0.46631 0.48663 -0.06923
 C2012 C 0.45285 0.45310 -0.11411
 C2013 C 0.48651 0.46643 -0.06928
 C2014 C 0.47971 0.45969 -0.08268
 C2015 C 0.45894 0.45916 -0.10282
 C2016 C 0.47985 0.47996 -0.06235
 H2017 H 0.44900 0.48504 -0.08761
 H2018 H 0.46072 0.49689 -0.06409
 H2019 H 0.49677 0.46084 -0.06417
 H2020 H 0.48487 0.44917 -0.08773
 C2021 C 0.46701 0.78452 0.33907
 C2022 C 0.48062 0.79098 0.33241
 C2023 C 0.48726 0.78420 0.31895
 C2024 C 0.45403 0.79769 0.36417
 C2025 C 0.46672 0.76435 0.31880
 C2026 C 0.46011 0.77116 0.33227
 C2027 C 0.45999 0.79170 0.35274
 C2028 C 0.48037 0.77081 0.31194
 H2029 H 0.48601 0.80138 0.33752
 H2030 H 0.49760 0.78965 0.31386
 H2031 H 0.46094 0.75422 0.31361
 H2032 H 0.44951 0.76612 0.33726
 C2033 C -0.03269 0.78364 0.83945
 C2034 C -0.01918 0.79031 0.83279
 C2035 C -0.01246 0.78360 0.81935
 C2036 C -0.04595 0.79670 0.86436
 C2037 C -0.03270 0.76341 0.81932
 C2038 C -0.03938 0.77015 0.83274
 C2039 C -0.03985 0.79077 0.85302
 C2040 C -0.01918 0.77009 0.81241
 H2041 H -0.01398 0.80082 0.83786
 H2042 H -0.00223 0.78921 0.81422
 H2043 H -0.03834 0.75319 0.81416
 H2044 H -0.04991 0.76497 0.83776
 C2045 C 0.41093 0.78380 0.28332
 C2046 C 0.41765 0.79042 0.26983
 C2047 C 0.43109 0.78367 0.26313
 C2048 C 0.38595 0.79695 0.29642
 C2049 C 0.43104 0.76353 0.28337
 C2050 C 0.41761 0.77032 0.29004
 C2051 C 0.39732 0.79096 0.29042
 C2052 C 0.43799 0.77016 0.26985
 H2053 H 0.41263 0.80092 0.26460
 H2054 H 0.43624 0.78925 0.25289
 H2055 H 0.43616 0.75331 0.28902
 H2056 H 0.41255 0.76516 0.30055
 C2057 C -0.08905 0.78391 0.78367
 C2058 C -0.08241 0.77037 0.79031
 C2059 C -0.06896 0.76360 0.78363
 C2060 C -0.11402 0.79720 0.79675
 C2061 C -0.06883 0.78387 0.76353
 C2062 C -0.08227 0.79060 0.77024
 C2063 C -0.10266 0.79112 0.79078
 C2064 C -0.06196 0.77030 0.77018
 H2065 H -0.08751 0.76514 0.80076
 H2066 H -0.06388 0.75332 0.78921
 H2067 H -0.06365 0.78950 0.75333
 H2068 H -0.08726 0.80115 0.76505
 C2069 C 0.84103 0.28217 0.46794
 C2070 C 0.83433 0.26870 0.46114
 C2071 C 0.82089 0.26188 0.46777
 C2072 C 0.86559 0.29585 0.45453
 C2073 C 0.82096 0.28184 0.48822
 C2074 C 0.83439 0.28863 0.48156
 C2075 C 0.85444 0.28960 0.46069
 C2076 C 0.81394 0.26845 0.48133
 H2077 H 0.83932 0.26366 0.45053
 H2078 H 0.81569 0.25176 0.46199
 H2079 H 0.81581 0.28739 0.49849
 H2080 H 0.83941 0.29912 0.48685
 C2081 C 0.84078 0.78169 -0.03267
 C2082 C 0.83394 0.76829 -0.03942
 C2083 C 0.82051 0.76158 -0.03269
 C2084 C 0.86520 0.79531 -0.04630
 C2085 C 0.82090 0.78153 -0.01222
 C2086 C 0.83434 0.78820 -0.01899
 C2087 C 0.85411 0.78905 -0.04006
 C2088 C 0.81372 0.76822 -0.01909
 H2089 H 0.83879 0.76322 -0.05008
 H2090 H 0.81518 0.75151 -0.03844
 H2091 H 0.81588 0.78712 -0.00192
 H2092 H 0.83949 0.79865 -0.01374
 C2093 C -0.08918 -0.03356 -0.03358
 C2094 C -0.08250 -0.02004 -0.04023
 C2095 C -0.06904 -0.01332 -0.03355
 C2096 C -0.11414 -0.04665 -0.04675
 C2097 C -0.06897 -0.03359 -0.01343
 C2098 C -0.08244 -0.04028 -0.02014
 C2099 C -0.10278 -0.04068 -0.04071
 C2100 C -0.06207 -0.02005 -0.02009
 H2101 H -0.08758 -0.01482 -0.05070
 H2102 H -0.06391 -0.00307 -0.03915
 H2103 H -0.06380 -0.03924 -0.00324
 H2104 H -0.08747 -0.05081 -0.01497
 C2105 C -0.08947 0.46673 0.46659
 C2106 C -0.08281 0.48020 0.45984
 C2107 C -0.06939 0.48702 0.46652
 C2108 C -0.11434 0.45343 0.45345
 C2109 C -0.06937 0.46695 0.48683
 C2110 C -0.08278 0.46016 0.48013
 C2111 C -0.10302 0.45949 0.45947
 C2112 C -0.06247 0.48044 0.48008
 H2113 H -0.08785 0.48530 0.44929
 H2114 H -0.06426 0.49722 0.46084
 H2115 H -0.06422 0.46140 0.49709
 H2116 H -0.08779 0.44965 0.48537
 C2117 C 0.41080 -0.03302 0.46559
 C2118 C 0.41753 -0.01944 0.45912
 C2119 C 0.43098 -0.01279 0.46595
 C2120 C 0.38577 -0.04608 0.45234
 C2121 C 0.43094 -0.03326 0.48585
 C2122 C 0.41750 -0.03988 0.47899
 C2123 C 0.39717 -0.04007 0.45836
 C2124 C 0.43789 -0.01965 0.47939
 H2125 H 0.41250 -0.01409 0.44869
 H2126 H 0.43612 -0.00247 0.46050
 H2127 H 0.43606 -0.03900 0.49602
 H2128 H 0.41244 -0.05045 0.48404
 C2129 C 0.41031 0.46701 -0.03427
 C2130 C 0.41707 0.48047 -0.04097
 C2131 C 0.43051 0.48725 -0.03423
 C2132 C 0.38527 0.45374 -0.04736
 C2133 C 0.43041 0.46717 -0.01395
 C2134 C 0.41698 0.46042 -0.02072
 C2135 C 0.39667 0.45983 -0.04141
 C2136 C 0.43738 0.48067 -0.02064
 H2137 H 0.41208 0.48561 -0.05152
 H2138 H 0.43568 0.49745 -0.03987
 H2139 H 0.43550 0.46161 -0.00366
 H2140 H 0.41191 0.44994 -0.01549
 C2141 C 0.33924 0.46710 0.78412
 C2142 C 0.33264 0.46055 0.77051
 C2143 C 0.31933 0.46740 0.76367
 C2144 C 0.36400 0.45361 0.79732
 C2145 C 0.31924 0.48749 0.78400
 C2146 C 0.33256 0.48061 0.79081
 C2147 C 0.35272 0.45980 0.79133
 C2148 C 0.31242 0.48093 0.77036
 H2149 H 0.33765 0.45003 0.76531
 H2150 H 0.31426 0.46186 0.75335
 H2151 H 0.31410 0.49772 0.78963
 H2152 H 0.33752 0.48570 0.80142
 C2153 C 0.33932 -0.03334 0.28359
 C2154 C 0.33273 -0.03997 0.27001
 C2155 C 0.31936 -0.03324 0.26319
 C2156 C 0.36414 -0.04660 0.29688
 C2157 C 0.31920 -0.01310 0.28348
 C2158 C 0.33258 -0.01987 0.29027
 C2159 C 0.35285 -0.04053 0.29081
 C2160 C 0.31239 -0.01973 0.26987
 H2161 H 0.33781 -0.05048 0.26482
 H2162 H 0.31430 -0.03882 0.25289
 H2163 H 0.31401 -0.00289 0.28910
 H2164 H 0.33753 -0.01472 0.30085
 C2165 C 0.15909 0.53191 0.71811
 C2166 C 0.16578 0.51833 0.71159
 C2167 C 0.17931 0.51176 0.71827
 C2168 C 0.13432 0.54516 0.70468
 C2169 C 0.17937 0.53223 0.73822
 C2170 C 0.16583 0.53877 0.73150
 C2171 C 0.14558 0.53906 0.71081
 C2172 C 0.18636 0.51871 0.73161
 H2173 H 0.16071 0.51300 0.70115
 H2174 H 0.18449 0.50152 0.71270
 H2175 H 0.18460 0.53806 0.74829
 H2176 H 0.16081 0.54936 0.73657
 C2177 C 0.15919 0.03173 0.21790
 C2178 C 0.16594 0.03852 0.23133
 C2179 C 0.17944 0.03191 0.23804
 C2180 C 0.13447 0.04505 0.20446
 C2181 C 0.17935 0.01152 0.21802
 C2182 C 0.16584 0.01815 0.21134
 C2183 C 0.14570 0.03894 0.21061
 C2184 C 0.18641 0.01839 0.23139
 H2185 H 0.16094 0.04910 0.23643
 H2186 H 0.18469 0.03769 0.24814
 H2187 H 0.18450 0.00128 0.21241
 H2188 H 0.16078 0.01287 0.20088
 C2189 C 0.59099 0.71818 0.21774
 C2190 C 0.58420 0.71129 0.23108
 C2191 C 0.57072 0.71789 0.23784
 C2192 C 0.61567 0.70487 0.20420
 C2193 C 0.57090 0.73847 0.21805
 C2194 C 0.58438 0.73185 0.21133
 C2195 C 0.60445 0.71099 0.21039
 C2196 C 0.56380 0.73149 0.23133
 H2197 H 0.58916 0.70065 0.23607
 H2198 H 0.56546 0.71204 0.24787
 H2199 H 0.56578 0.74878 0.21256
 H2200 H 0.58947 0.73721 0.20094
 C2201 C 0.09111 0.71774 0.71831
 C2202 C 0.08447 0.73130 0.71171
 C2203 C 0.07098 0.73800 0.71836
 C2204 C 0.11577 0.70436 0.70477
 C2205 C 0.07086 0.71771 0.73843
 C2206 C 0.08436 0.71104 0.73176
 C2207 C 0.10457 0.71046 0.71101
 C2208 C 0.06391 0.73120 0.73173
 H2209 H 0.08953 0.73652 0.70124
 H2210 H 0.06584 0.74822 0.71272
 H2211 H 0.06562 0.71200 0.74856
 H2212 H 0.08934 0.70048 0.73690
 C2213 C 0.66069 0.21653 0.53299
 C2214 C 0.66732 0.20996 0.51941
 C2215 C 0.68081 0.21665 0.51276
 C2216 C 0.63561 0.20350 0.54605
 C2217 C 0.68099 0.23661 0.53322
 C2218 C 0.66751 0.22990 0.53983
 C2219 C 0.64702 0.20942 0.54005
 C2220 C 0.68786 0.23004 0.51962
 H2221 H 0.66218 0.19955 0.51408
 H2222 H 0.68590 0.21113 0.50245
 H2223 H 0.68620 0.24676 0.53896
 H2224 H 0.66251 0.23501 0.55040
 C2225 C 0.66057 0.71716 0.03323
 C2226 C 0.66744 0.73059 0.03990
 C2227 C 0.68088 0.73725 0.03312
 C2228 C 0.63560 0.70408 0.04645
 C2229 C 0.68057 0.71709 0.01287
 C2230 C 0.66713 0.71047 0.01967
 C2231 C 0.64696 0.71009 0.04043
 C2232 C 0.68766 0.73055 0.01954
 H2233 H 0.66252 0.73581 0.05046
 H2234 H 0.68614 0.74744 0.03874
 H2235 H 0.68559 0.71146 0.00258
 H2236 H 0.66197 0.70000 0.01448
 C2237 C 0.09091 0.03175 0.03218
 C2238 C 0.08416 0.03855 0.01878
 C2239 C 0.07071 0.03188 0.01201
 C2240 C 0.11550 0.04525 0.04572
 C2241 C 0.07087 0.01141 0.03191
 C2242 C 0.08432 0.01811 0.03865
 C2243 C 0.10433 0.03904 0.03954
 C2244 C 0.06381 0.01830 0.01857
 H2245 H 0.08912 0.04918 0.01376
 H2246 H 0.06547 0.03767 0.00192
 H2247 H 0.06575 0.00112 0.03744
 H2248 H 0.08939 0.01282 0.04910
 C2249 C 0.09076 0.53224 0.53197
 C2250 C 0.08418 0.51857 0.53842
 C2251 C 0.07072 0.51187 0.53168
 C2252 C 0.11544 0.54568 0.54548
 C2253 C 0.07050 0.53238 0.51183
 C2254 C 0.08396 0.53905 0.51860
 C2255 C 0.10423 0.53950 0.53931
 C2256 C 0.06362 0.51876 0.51836
 H2257 H 0.08929 0.51327 0.54884
 H2258 H 0.06563 0.50157 0.53721
 H2259 H 0.06522 0.53818 0.50177
 H2260 H 0.08889 0.54970 0.51357
 C2261 C 0.59089 0.03255 0.53166
 C2262 C 0.58425 0.01903 0.53833
 C2263 C 0.57078 0.01228 0.53168
 C2264 C 0.61542 0.04610 0.54520
 C2265 C 0.57071 0.03245 0.51147
 C2266 C 0.58419 0.03916 0.51814
 C2267 C 0.60428 0.03991 0.53897
 C2268 C 0.56374 0.01901 0.51825
 H2269 H 0.58929 0.01389 0.54886
 H2270 H 0.56561 0.00210 0.53737
 H2271 H 0.56550 0.03810 0.50129
 H2272 H 0.58919 0.04970 0.51296
 C2273 C 0.59068 0.53269 0.03147
 C2274 C 0.58410 0.51908 0.03802
 C2275 C 0.57059 0.51237 0.03139
 C2276 C 0.61540 0.54609 0.04496
 C2277 C 0.57033 0.53276 0.01142
 C2278 C 0.58384 0.53944 0.01808
 C2279 C 0.60417 0.53998 0.03875
 C2280 C 0.56344 0.51920 0.01806
 H2281 H 0.58923 0.51382 0.04845
 H2282 H 0.56550 0.50210 0.03699
 H2283 H 0.56504 0.53850 0.00134
 H2284 H 0.58877 0.55005 0.01298
 C2285 C 0.03221 0.03072 0.09118
 C2286 C 0.03892 0.01727 0.08442
 C2287 C 0.03229 0.01062 0.07089
 C2288 C 0.04564 0.04428 0.11577
 C2289 C 0.01199 0.03071 0.07104
 C2290 C 0.01866 0.03733 0.08456
 C2291 C 0.03950 0.03803 0.10461
 C2292 C 0.01882 0.01736 0.06394
 H2293 H 0.04948 0.01213 0.08941
 H2294 H 0.03801 0.00050 0.06563
 H2295 H 0.00179 0.03637 0.06589
 H2296 H 0.01344 0.04782 0.08965
 C2297 C 0.03236 0.53144 0.59108
 C2298 C 0.01877 0.53801 0.58448
 C2299 C 0.01213 0.53140 0.57093
 C2300 C 0.04564 0.54486 0.61586
 C2301 C 0.03256 0.51144 0.57068
 C2302 C 0.03917 0.51808 0.58423
 C2303 C 0.03957 0.53868 0.60460
 C2304 C 0.01902 0.51810 0.56377
 H2305 H 0.01348 0.54843 0.58963
 H2306 H 0.00188 0.53700 0.56582
 H2307 H 0.03833 0.50137 0.56537
 H2308 H 0.04975 0.51298 0.58919
 C2309 C 0.53222 0.03275 0.59084
 C2310 C 0.51871 0.03932 0.58407
 C2311 C 0.51206 0.03258 0.57058
 C2312 C 0.54559 0.04634 0.61557
 C2313 C 0.53230 0.01245 0.57067
 C2314 C 0.53892 0.01922 0.58418
 C2315 C 0.53945 0.04012 0.60434
 C2316 C 0.51884 0.01911 0.56361
 H2317 H 0.51348 0.04985 0.58905
 H2318 H 0.50188 0.03820 0.56536
 H2319 H 0.53801 0.00226 0.56553
 H2320 H 0.54945 0.01409 0.58924
 C2321 C 0.53210 0.53231 0.09070
 C2322 C 0.51851 0.53884 0.08407
 C2323 C 0.51186 0.53216 0.07056
 C2324 C 0.54546 0.54571 0.11547
 C2325 C 0.53229 0.51220 0.07040
 C2326 C 0.53890 0.51892 0.08391
 C2327 C 0.53932 0.53959 0.10421
 C2328 C 0.51874 0.51882 0.06347
 H2329 H 0.51321 0.54928 0.08917
 H2330 H 0.50160 0.53773 0.06543
 H2331 H 0.53806 0.50211 0.06515
 H2332 H 0.54949 0.51384 0.08890
 C2333 C 0.21757 0.53213 0.65905
 C2334 C 0.21084 0.51869 0.66581
 C2335 C 0.21750 0.51200 0.67930
 C2336 C 0.20422 0.54560 0.63433
 C2337 C 0.23784 0.53205 0.67917
 C2338 C 0.23115 0.53871 0.66568
 C2339 C 0.21032 0.53941 0.64555
 C2340 C 0.23102 0.51868 0.68624
 H2341 H 0.20026 0.51356 0.66083
 H2342 H 0.21177 0.50188 0.68454
 H2343 H 0.24809 0.53767 0.68430
 H2344 H 0.23640 0.54918 0.66060
 C2345 C 0.21750 0.03108 0.15890
 C2346 C 0.21068 0.01773 0.16574
 C2347 C 0.21736 0.01104 0.17921
 C2348 C 0.20406 0.04476 0.13440
 C2349 C 0.23790 0.03090 0.17886
 C2350 C 0.23118 0.03757 0.16540
 C2351 C 0.21019 0.03844 0.14552
 C2352 C 0.23098 0.01764 0.18604
 H2353 H 0.20001 0.01269 0.16086
 H2354 H 0.21157 0.00100 0.18454
 H2355 H 0.24821 0.03647 0.18391
 H2356 H 0.23648 0.04798 0.16026
 C2357 C 0.71644 0.21682 0.58926
 C2358 C 0.70973 0.23031 0.58258
 C2359 C 0.71638 0.23707 0.56913
 C2360 C 0.70340 0.20366 0.61429
 C2361 C 0.73660 0.21691 0.56907
 C2362 C 0.72992 0.21018 0.58252
 C2363 C 0.70937 0.20966 0.60289
 C2364 C 0.72989 0.23042 0.56216
 H2365 H 0.69923 0.23549 0.58765
 H2366 H 0.71074 0.24730 0.56401
 H2367 H 0.74683 0.21131 0.56391
 H2368 H 0.73515 0.19967 0.58754
 C2369 C 0.71659 0.71745 0.08944
 C2370 C 0.71007 0.73103 0.08277
 C2371 C 0.71678 0.73766 0.06928
 C2372 C 0.70350 0.70441 0.11451
 C2373 C 0.73668 0.71719 0.06917
 C2374 C 0.72995 0.71059 0.08266
 C2375 C 0.70945 0.71040 0.10310
 C2376 C 0.73015 0.73079 0.06227
 H2377 H 0.69967 0.73637 0.08787
 H2378 H 0.71127 0.74797 0.06417
 H2379 H 0.74681 0.71143 0.06398
 H2380 H 0.73503 0.70001 0.08767
 C2381 C 0.53253 0.71883 0.15881
 C2382 C 0.53918 0.73232 0.16557
 C2383 C 0.53246 0.73902 0.17904
 C2384 C 0.54609 0.70525 0.13428
 C2385 C 0.51221 0.71887 0.17885
 C2386 C 0.51896 0.71220 0.16539
 C2387 C 0.53989 0.71151 0.14541
 C2388 C 0.51897 0.73228 0.18595
 H2389 H 0.54975 0.73749 0.16063
 H2390 H 0.53814 0.74917 0.18429
 H2391 H 0.50199 0.71320 0.18396
 H2392 H 0.51378 0.70169 0.16031
 C2393 C 0.03254 0.71785 0.65933
 C2394 C 0.03925 0.73135 0.66605
 C2395 C 0.03259 0.73810 0.67952
 C2396 C 0.04595 0.70438 0.63464
 C2397 C 0.01232 0.71797 0.67946
 C2398 C 0.01900 0.71125 0.66600
 C2399 C 0.03979 0.71054 0.64586
 C2400 C 0.01909 0.73142 0.68647
 H2401 H 0.04980 0.73648 0.66105
 H2402 H 0.03830 0.74826 0.68473
 H2403 H 0.00211 0.71234 0.68462
 H2404 H 0.01378 0.70074 0.66096
 C2405 C 0.53174 0.65946 0.21731
 C2406 C 0.51832 0.66625 0.21059
 C2407 C 0.51169 0.67980 0.21723
 C2408 C 0.54517 0.63468 0.20402
 C2409 C 0.53179 0.67965 0.23752
 C2410 C 0.53838 0.66611 0.23085
 C2411 C 0.53898 0.64594 0.21008
 C2412 C 0.51842 0.68675 0.23072
 H2413 H 0.51315 0.66126 0.20003
 H2414 H 0.50158 0.68507 0.21151
 H2415 H 0.53745 0.68479 0.24774
 H2416 H 0.54884 0.66101 0.23608
 C2417 C 0.03167 0.65906 0.71811
 C2418 C 0.01829 0.66583 0.71129
 C2419 C 0.01160 0.67936 0.71787
 C2420 C 0.04526 0.63446 0.70470
 C2421 C 0.03152 0.67923 0.73833
 C2422 C 0.03818 0.66570 0.73172
 C2423 C 0.03902 0.64563 0.71086
 C2424 C 0.01824 0.68634 0.73139
 H2425 H 0.01322 0.66084 0.70068
 H2426 H 0.00154 0.68462 0.71206
 H2427 H 0.03710 0.68438 0.74859
 H2428 H 0.04861 0.66061 0.73703
 C2429 C 0.03198 0.09021 0.03286
 C2430 C 0.01854 0.08341 0.03952
 C2431 C 0.01188 0.06991 0.03280
 C2432 C 0.04545 0.11491 0.04628
 C2433 C 0.03199 0.07011 0.01255
 C2434 C 0.03861 0.08361 0.01930
 C2435 C 0.03923 0.10369 0.04016
 C2436 C 0.01860 0.06301 0.01929
 H2437 H 0.01338 0.08836 0.05009
 H2438 H 0.00176 0.06462 0.03848
 H2439 H 0.03765 0.06500 0.00233
 H2440 H 0.04909 0.08871 0.01412
 C2441 C 0.03184 0.59061 0.53263
 C2442 C 0.01843 0.58380 0.53935
 C2443 C 0.01174 0.57029 0.53266
 C2444 C 0.04538 0.61534 0.54601
 C2445 C 0.03177 0.57048 0.51234
 C2446 C 0.03842 0.58399 0.51905
 C2447 C 0.03914 0.60411 0.53991
 C2448 C 0.01840 0.56337 0.51913
 H2449 H 0.01331 0.58877 0.54993
 H2450 H 0.00164 0.56502 0.53838
 H2451 H 0.03738 0.56536 0.50210
 H2452 H 0.04887 0.58909 0.51382
 C2453 C 0.53199 0.09119 0.53203
 C2454 C 0.51859 0.08447 0.53885
 C2455 C 0.51180 0.07099 0.53225
 C2456 C 0.54564 0.11580 0.54541
 C2457 C 0.53168 0.07106 0.51177
 C2458 C 0.53844 0.08454 0.51841
 C2459 C 0.53940 0.10462 0.53926
 C2460 C 0.51836 0.06401 0.51870
 H2461 H 0.51357 0.08948 0.54946
 H2462 H 0.50172 0.06576 0.53805
 H2463 H 0.53721 0.06590 0.50150
 H2464 H 0.54888 0.08959 0.51310
 C2465 C 0.53176 0.59102 0.03198
 C2466 C 0.51832 0.58431 0.03872
 C2467 C 0.51157 0.57081 0.03209
 C2468 C 0.54540 0.61565 0.04536
 C2469 C 0.53160 0.57084 0.01176
 C2470 C 0.53831 0.58433 0.01842
 C2471 C 0.53914 0.60447 0.03923
 C2472 C 0.51821 0.56382 0.01859
 H2473 H 0.51323 0.58934 0.04929
 H2474 H 0.50145 0.56559 0.03783
 H2475 H 0.53720 0.56565 0.00155
 H2476 H 0.54880 0.58936 0.01318
 C2477 C 0.71661 0.16058 0.53308
 C2478 C 0.73013 0.16724 0.53976
 C2479 C 0.73691 0.18068 0.53308
 C2480 C 0.70346 0.13560 0.54623
 C2481 C 0.71671 0.18076 0.51289
 C2482 C 0.70996 0.16732 0.51960
 C2483 C 0.70944 0.14698 0.54021
 C2484 C 0.73025 0.18765 0.51958
 H2485 H 0.73532 0.16217 0.55026
 H2486 H 0.74717 0.18578 0.53870
 H2487 H 0.71111 0.18592 0.50266
 H2488 H 0.69943 0.16231 0.51440
 C2489 C 0.71637 0.66089 0.03322
 C2490 C 0.70951 0.66779 0.01993
 C2491 C 0.71615 0.68131 0.01327
 C2492 C 0.70341 0.63572 0.04624
 C2493 C 0.73666 0.68101 0.03315
 C2494 C 0.72999 0.66749 0.03978
 C2495 C 0.70932 0.64718 0.04028
 C2496 C 0.72980 0.68813 0.01982
 H2497 H 0.69891 0.66283 0.01482
 H2498 H 0.71040 0.68658 0.00318
 H2499 H 0.74701 0.68606 0.03866
 H2500 H 0.73534 0.66230 0.05013
 C2501 C 0.21800 0.59093 0.71759
 C2502 C 0.21140 0.58426 0.73112
 C2503 C 0.21807 0.57076 0.73780
 C2504 C 0.20458 0.61564 0.70416
 C2505 C 0.23817 0.57070 0.71755
 C2506 C 0.23147 0.58419 0.71090
 C2507 C 0.21072 0.60441 0.71033
 C2508 C 0.23148 0.56373 0.73103
 H2509 H 0.20091 0.58931 0.73633
 H2510 H 0.21243 0.56560 0.74800
 H2511 H 0.24830 0.56547 0.71185
 H2512 H 0.23661 0.58919 0.70035
 C2513 C 0.21802 0.09058 0.21710
 C2514 C 0.21147 0.08401 0.23071
 C2515 C 0.21811 0.07052 0.23740
 C2516 C 0.20457 0.11525 0.20371
 C2517 C 0.23806 0.07026 0.21700
 C2518 C 0.23139 0.08376 0.21034
 C2519 C 0.21075 0.10404 0.20983
 C2520 C 0.23142 0.06339 0.23055
 H2521 H 0.20104 0.08915 0.23597
 H2522 H 0.21253 0.06542 0.24767
 H2523 H 0.24814 0.06498 0.21125
 H2524 H 0.23648 0.08870 0.19974
 C2525 C 0.71803 1.09080 0.71716
 C2526 C 0.71140 1.08420 0.73071
 C2527 C 0.71805 1.07074 0.73747
 C2528 C 0.70454 1.11545 0.70369
 C2529 C 0.73818 1.07056 0.71724
 C2530 C 0.73150 1.08403 0.71052
 C2531 C 0.71075 1.10425 0.70983
 C2532 C 0.73146 1.06366 0.73074
 H2533 H 0.70091 1.08929 0.73589
 H2534 H 0.71240 1.06563 0.74769
 H2535 H 0.74832 1.06530 0.71158
 H2536 H 0.73665 1.08898 0.69995
 C2537 C 0.71828 0.59099 0.21755
 C2538 C 0.71167 0.58436 0.23110
 C2539 C 0.71836 0.57090 0.23783
 C2540 C 0.70468 0.61552 0.20401
 C2541 C 0.73850 0.57083 0.21761
 C2542 C 0.73177 0.58428 0.21090
 C2543 C 0.71093 0.60438 0.21021
 C2544 C 0.73179 0.56387 0.23108
 H2545 H 0.70115 0.58940 0.23627
 H2546 H 0.71272 0.56576 0.24803
 H2547 H 0.74865 0.56561 0.21193
 H2548 H 0.73691 0.58927 0.20035
 C2549 C 0.53164 0.15907 0.71675
 C2550 C 0.53827 0.16567 0.73033
 C2551 C 0.53164 0.17915 0.73712
 C2552 C 0.54511 0.13434 0.70324
 C2553 C 0.51152 0.17939 0.71687
 C2554 C 0.51818 0.16590 0.71011
 C2555 C 0.53890 0.14557 0.70939
 C2556 C 0.51824 0.18628 0.73041
 H2557 H 0.54875 0.16056 0.73552
 H2558 H 0.53730 0.18424 0.74737
 H2559 H 0.50138 0.18466 0.71121
 H2560 H 0.51300 0.16096 0.69953
 C2561 C 1.03134 0.15851 0.21778
 C2562 C 1.01797 0.16530 0.21093
 C2563 C 1.01127 0.17882 0.21753
 C2564 C 1.04494 0.13388 0.20443
 C2565 C 1.03115 0.17865 0.23804
 C2566 C 1.03782 0.16513 0.23141
 C2567 C 1.03869 0.14506 0.21055
 C2568 C 1.01786 0.18576 0.23110
 H2569 H 1.01293 0.16033 0.20031
 H2570 H 1.00122 0.18409 0.21172
 H2571 H 1.03670 0.18378 0.24832
 H2572 H 1.04824 0.16003 0.23673
 C2573 C 0.21691 0.66092 0.53303
 C2574 C 0.23045 0.66759 0.53966
 C2575 C 0.23719 0.68104 0.53297
 C2576 C 0.20369 0.63598 0.54623
 C2577 C 0.21690 0.68113 0.51286
 C2578 C 0.21020 0.66767 0.51959
 C2579 C 0.20973 0.64733 0.54020
 C2580 C 0.23046 0.68803 0.51951
 H2581 H 0.23569 0.66251 0.55013
 H2582 H 0.24746 0.68616 0.53855
 H2583 H 0.21125 0.68630 0.50267
 H2584 H 0.19965 0.66266 0.51442
 C2585 C 0.21727 0.16022 1.03342
 C2586 C 0.21059 0.16692 1.01994
 C2587 C 0.21728 0.18038 1.01322
 C2588 C 0.20405 0.13525 1.04654
 C2589 C 0.23748 0.18042 1.03341
 C2590 C 0.23076 0.16695 1.04010
 C2591 C 0.21011 0.14661 1.04056
 C2592 C 0.23079 0.18735 1.01991
 H2593 H 0.20008 0.16187 1.01474
 H2594 H 0.21164 0.18552 1.00300
 H2595 H 0.24771 0.18558 1.03903
 H2596 H 0.23597 0.16191 1.05060
 C2597 C 0.21656 0.71730 0.58915
 C2598 C 0.20987 0.73081 0.58249
 C2599 C 0.21654 0.73758 0.56905
 C2600 C 0.20348 0.70404 0.61410
 C2601 C 0.23673 0.71738 0.56896
 C2602 C 0.23003 0.71064 0.58239
 C2603 C 0.20946 0.71010 0.60274
 C2604 C 0.23003 0.73091 0.56207
 H2605 H 0.19938 0.73599 0.58757
 H2606 H 0.21091 0.74782 0.56395
 H2607 H 0.24694 0.71177 0.56379
 H2608 H 0.23524 0.70012 0.58739
 C2609 C 0.21674 0.21652 1.08938
 C2610 C 0.20998 0.22997 1.08268
 C2611 C 0.21661 0.23675 1.06924
 C2612 C 0.20370 0.20338 1.11440
 C2613 C 0.23692 0.21667 1.06921
 C2614 C 0.23026 0.20992 1.08266
 C2615 C 0.20968 0.20936 1.10301
 C2616 C 0.23016 0.23016 1.06230
 H2617 H 0.19945 0.23510 1.08774
 H2618 H 0.21092 0.24695 1.06411
 H2619 H 0.24718 0.21112 1.06406
 H2620 H 0.23553 0.19945 1.08769
 C2621 C 0.71782 0.53205 0.15916
 C2622 C 0.73141 0.53863 0.16578
 C2623 C 0.73816 0.53193 0.17922
 C2624 C 0.70425 0.54566 0.13464
 C2625 C 0.71786 0.51182 0.17932
 C2626 C 0.71115 0.51856 0.16588
 C2627 C 0.71047 0.53941 0.14578
 C2628 C 0.73138 0.51852 0.18626
 H2629 H 0.73661 0.54914 0.16074
 H2630 H 0.74839 0.53756 0.18435
 H2631 H 0.71217 0.50167 0.18454
 H2632 H 0.70056 0.51343 0.16091
 C2633 C 0.71765 1.03177 0.65903
 C2634 C 0.71087 1.01832 0.66574
 C2635 C 0.71753 1.01156 0.67919
 C2636 C 0.70423 1.04547 0.63450
 C2637 C 0.73795 1.03154 0.67909
 C2638 C 0.73126 1.03827 0.66565
 C2639 C 0.71038 1.03917 0.64564
 C2640 C 0.73108 1.01817 0.68613
 H2641 H 0.70026 1.01326 0.66076
 H2642 H 0.71176 1.00145 0.68442
 H2643 H 0.74821 1.03712 0.68423
 H2644 H 0.73653 1.04875 0.66061
 C2645 C 0.53207 0.21868 0.65883
 C2646 C 0.53874 0.23213 0.66565
 C2647 C 0.53204 0.23878 0.67913
 C2648 C 0.54569 0.20514 0.63434
 C2649 C 0.51175 0.21866 0.67885
 C2650 C 0.51848 0.21205 0.66537
 C2651 C 0.53944 0.21137 0.64545
 C2652 C 0.51854 0.23202 0.68601
 H2653 H 0.54933 0.23729 0.66073
 H2654 H 0.53774 0.24890 0.68444
 H2655 H 0.50152 0.21299 0.68394
 H2656 H 0.51329 0.20156 0.66025
 C2657 C 1.03216 0.21751 0.15930
 C2658 C 1.01860 0.21089 0.16591
 C2659 C 1.01185 0.21758 0.17936
 C2660 C 1.04570 0.20406 0.13468
 C2661 C 1.03211 0.23772 0.17952
 C2662 C 1.03882 0.23100 0.16606
 C2663 C 1.03948 0.21022 0.14587
 C2664 C 1.01859 0.23102 0.18642
 H2665 H 1.01341 0.20037 0.16084
 H2666 H 1.00163 0.21192 0.18447
 H2667 H 1.03779 0.24788 0.18476
 H2668 H 1.04939 0.23615 0.16112
 C2669 C 0.59065 0.21780 0.71803
 C2670 C 0.58406 0.23147 0.71161
 C2671 C 0.57056 0.23808 0.71831
 C2672 C 0.61522 0.20441 0.70438
 C2673 C 0.57037 0.21751 0.73811
 C2674 C 0.58387 0.21093 0.73137
 C2675 C 0.60407 0.21056 0.71064
 C2676 C 0.56345 0.23110 0.73157
 H2677 H 0.58915 0.23682 0.70121
 H2678 H 0.56544 0.24839 0.71280
 H2679 H 0.56511 0.21167 0.74813
 H2680 H 0.58883 0.20028 0.73637
 C2681 C 1.09050 0.21734 0.21779
 C2682 C 1.08387 0.23097 0.21134
 C2683 C 1.07040 0.23760 0.21807
 C2684 C 1.11505 0.20397 0.20412
 C2685 C 1.07030 0.21709 0.23794
 C2686 C 1.08378 0.21049 0.23117
 C2687 C 1.10390 0.21010 0.21039
 C2688 C 1.06335 0.23066 0.23138
 H2689 H 1.08893 0.23630 0.20091
 H2690 H 1.06526 0.24789 0.21255
 H2691 H 1.06508 0.21129 0.24801
 H2692 H 1.08877 0.19987 0.23620
 C2693 C 0.16086 0.71670 0.53314
 C2694 C 0.16766 0.73009 0.53997
 C2695 C 0.18110 0.73687 0.53332
 C2696 C 0.13591 0.70346 0.54627
 C2697 C 0.18092 0.71693 0.51284
 C2698 C 0.16748 0.71018 0.51953
 C2699 C 0.14726 0.70950 0.54025
 C2700 C 0.18795 0.73034 0.51968
 H2701 H 0.16269 0.73517 0.55057
 H2702 H 0.18630 0.74702 0.53905
 H2703 H 0.18599 0.71144 0.50250
 H2704 H 0.16237 0.69976 0.51420
 C2705 C 0.16096 0.21600 1.03336
 C2706 C 0.16774 0.22942 1.04012
 C2707 C 0.18120 0.23615 1.03347
 C2708 C 0.13596 0.20289 1.04651
 C2709 C 0.18109 0.21608 1.01312
 C2710 C 0.16762 0.20938 1.01981
 C2711 C 0.14733 0.20886 1.04048
 C2712 C 0.18809 0.22953 1.01990
 H2713 H 0.16273 0.23458 1.05067
 H2714 H 0.18638 0.24634 1.03915
 H2715 H 0.18619 0.21052 1.00284
 H2716 H 0.16252 0.19892 1.01454
 C2717 C 0.65930 0.53235 0.21830
 C2718 C 0.66589 0.51871 0.21179
 C2719 C 0.67940 0.51207 0.21846
 C2720 C 0.63470 0.54578 0.20472
 C2721 C 0.67961 0.53257 0.23837
 C2722 C 0.66610 0.53918 0.23168
 C2723 C 0.64587 0.53962 0.21095
 C2724 C 0.68654 0.51901 0.23175
 H2725 H 0.66078 0.51340 0.20137
 H2726 H 0.68451 0.50179 0.21289
 H2727 H 0.68489 0.53837 0.24844
 H2728 H 0.66115 0.54980 0.23674
 C2729 C 0.65890 1.03237 0.71803
 C2730 C 0.66575 1.03921 0.73138
 C2731 C 0.67928 1.03259 0.73807
 C2732 C 0.63414 1.04574 0.70456
 C2733 C 0.67901 1.01207 0.71820
 C2734 C 0.66549 1.01872 0.71154
 C2735 C 0.64538 1.03961 0.71074
 C2736 C 0.68617 1.01900 0.73148
 H2737 H 0.66082 1.04984 0.73645
 H2738 H 0.68457 1.03841 0.74812
 H2739 H 0.68410 1.00177 0.71264
 H2740 H 0.66034 1.01338 0.70114
 C2741 C 0.83934 0.46684 0.28435
 C2742 C 0.83265 0.46016 0.27083
 C2743 C 0.81929 0.46692 0.26399
 C2744 C 0.86423 0.45356 0.29761
 C2745 C 0.81930 0.48721 0.28411
 C2746 C 0.83267 0.48041 0.29093
 C2747 C 0.85290 0.45965 0.29158
 C2748 C 0.81241 0.48053 0.27056
 H2749 H 0.83765 0.44959 0.26570
 H2750 H 0.81417 0.46129 0.25374
 H2751 H 0.81420 0.49750 0.28966
 H2752 H 0.83768 0.48563 0.30145
 C2753 C 0.83905 0.96679 0.78408
 C2754 C 0.83241 0.98037 0.79064
 C2755 C 0.81904 0.98718 0.78384
 C2756 C 0.86383 0.95343 0.79746
 C2757 C 0.81899 0.96687 0.76373
 C2758 C 0.83235 0.96010 0.77057
 C2759 C 0.85255 0.95954 0.79135
 C2760 C 0.81211 0.98048 0.77032
 H2761 H 0.83743 0.98559 0.80116
 H2762 H 0.81395 0.99748 0.78938
 H2763 H 0.81386 0.96124 0.75350
 H2764 H 0.83733 0.94952 0.76544
 C2765 C 0.41055 0.28346 0.78348
 C2766 C 0.41718 0.26994 0.79019
 C2767 C 0.43060 0.26311 0.78353
 C2768 C 0.38557 0.29670 0.79654
 C2769 C 0.43074 0.28327 0.76332
 C2770 C 0.41733 0.29007 0.77001
 C2771 C 0.39695 0.29068 0.79056
 C2772 C 0.43758 0.26971 0.77002
 H2773 H 0.41209 0.26480 0.80069
 H2774 H 0.43568 0.25286 0.78918
 H2775 H 0.43592 0.28884 0.75309
 H2776 H 0.41235 0.30060 0.76478
 C2777 C 0.91053 0.28286 0.28392
 C2778 C 0.91723 0.26933 0.29052
 C2779 C 0.93067 0.26262 0.28379
 C2780 C 0.88554 0.29603 0.29701
 C2781 C 0.93066 0.28294 0.26372
 C2782 C 0.91723 0.28961 0.27048
 C2783 C 0.89692 0.28998 0.29107
 C2784 C 0.93759 0.26938 0.27031
 H2785 H 0.91219 0.26407 0.30099
 H2786 H 0.93581 0.25235 0.28933
 H2787 H 0.93578 0.28860 0.25351
 H2788 H 0.91218 0.30014 0.26534
 C2789 C 0.34096 0.78248 0.46744
 C2790 C 0.33437 0.78900 0.48106
 C2791 C 0.32095 0.78225 0.48779
 C2792 C 0.36541 0.79623 0.45388
 C2793 C 0.32082 0.76220 0.46743
 C2794 C 0.33424 0.76898 0.46073
 C2795 C 0.35431 0.78991 0.46009
 C2796 C 0.31390 0.76884 0.48097
 H2797 H 0.33941 0.79951 0.48629
 H2798 H 0.31584 0.78784 0.49805
 H2799 H 0.31560 0.75205 0.46170
 H2800 H 0.33919 0.76390 0.45012
 C2801 C 0.34098 0.28232 0.96792
 C2802 C 0.33434 0.26881 0.96116
 C2803 C 0.32092 0.26195 0.96780
 C2804 C 0.36550 0.29607 0.95449
 C2805 C 0.32090 0.28197 0.98819
 C2806 C 0.33431 0.28879 0.98152
 C2807 C 0.35436 0.28979 0.96066
 C2808 C 0.31393 0.26853 0.98133
 H2809 H 0.33935 0.26376 0.95057
 H2810 H 0.31576 0.25179 0.96204
 H2811 H 0.31573 0.28752 0.99845
 H2812 H 0.33929 0.29931 0.98680
 C2813 C 0.78365 0.46644 0.33918
 C2814 C 0.79041 0.47989 0.33249
 C2815 C 0.78371 0.48669 0.31908
 C2816 C 0.79683 0.45315 0.36403
 C2817 C 0.76336 0.46663 0.31910
 C2818 C 0.77009 0.45987 0.33251
 C2819 C 0.79080 0.45922 0.35272
 C2820 C 0.77013 0.48011 0.31218
 H2821 H 0.80097 0.48501 0.33751
 H2822 H 0.78939 0.49690 0.31395
 H2823 H 0.75307 0.46110 0.31398
 H2824 H 0.76483 0.44938 0.33755
 C2825 C 0.78356 0.96659 0.83908
 C2826 C 0.76998 0.95997 0.83249
 C2827 C 0.76318 0.96669 0.81909
 C2828 C 0.79686 0.95338 0.86392
 C2829 C 0.78348 0.98679 0.81894
 C2830 C 0.79026 0.98004 0.83233
 C2831 C 0.79078 0.95942 0.85261
 C2832 C 0.76988 0.98016 0.81211
 H2833 H 0.76477 0.94949 0.83757
 H2834 H 0.75288 0.96112 0.81403
 H2835 H 0.78911 0.99700 0.81376
 H2836 H 0.80083 0.98520 0.83729
 C2837 C 0.28212 0.78287 0.40916
 C2838 C 0.26872 0.78969 0.41590
 C2839 C 0.26192 0.78302 0.42931
 C2840 C 0.29591 0.79635 0.38476
 C2841 C 0.28176 0.76248 0.42912
 C2842 C 0.28853 0.76918 0.41571
 C2843 C 0.28957 0.79017 0.39584
 C2844 C 0.26845 0.76941 0.43620
 H2845 H 0.26373 0.80035 0.41097
 H2846 H 0.25185 0.78882 0.43456
 H2847 H 0.28727 0.75216 0.43421
 H2848 H 0.29897 0.76387 0.41065
 C2849 C 0.28201 0.28230 0.90936
 C2850 C 0.26856 0.28900 0.91609
 C2851 C 0.26182 0.28228 0.92951
 C2852 C 0.29569 0.29594 0.88496
 C2853 C 0.28184 0.26193 0.92935
 C2854 C 0.28855 0.26867 0.91593
 C2855 C 0.28941 0.28969 0.89603
 C2856 C 0.26848 0.26875 0.93642
 H2857 H 0.26346 0.29961 0.91115
 H2858 H 0.25169 0.28800 0.93475
 H2859 H 0.28744 0.25167 0.93446
 H2860 H 0.29903 0.26345 0.91087
 C2861 C 0.46644 0.28375 0.83915
 C2862 C 0.45956 0.27039 0.83233
 C2863 C 0.46621 0.26358 0.81890
 C2864 C 0.45336 0.29708 0.86409
 C2865 C 0.48677 0.28342 0.81912
 C2866 C 0.48008 0.29020 0.83255
 C2867 C 0.45934 0.29100 0.85274
 C2868 C 0.47989 0.27004 0.81208
 H2869 H 0.44893 0.26536 0.83728
 H2870 H 0.46045 0.25345 0.81368
 H2871 H 0.49713 0.28887 0.81408
 H2872 H 0.48544 0.30061 0.83767
 C2873 C 0.96668 0.28341 0.33937
 C2874 C 0.96004 0.26982 0.33278
 C2875 C 0.96671 0.26301 0.31936
 C2876 C 0.95352 0.29676 0.36425
 C2877 C 0.98681 0.28331 0.31916
 C2878 C 0.98011 0.29009 0.33258
 C2879 C 0.95954 0.29066 0.35293
 C2880 C 0.98016 0.26971 0.31233
 H2881 H 0.94957 0.26461 0.33789
 H2882 H 0.96112 0.25270 0.31430
 H2883 H 0.99700 0.28894 0.31395
 H2884 H 0.98528 0.30067 0.33753
 C2885 C 0.46625 0.33924 0.78343
 C2886 C 0.47972 0.33254 0.79014
 C2887 C 0.48654 0.31915 0.78339
 C2888 C 0.45289 0.36405 0.79670
 C2889 C 0.46646 0.31920 0.76307
 C2890 C 0.45968 0.33259 0.76986
 C2891 C 0.45900 0.35276 0.79064
 C2892 C 0.47995 0.31227 0.76979
 H2893 H 0.48484 0.33754 0.80073
 H2894 H 0.49675 0.31400 0.78904
 H2895 H 0.46091 0.31410 0.75277
 H2896 H 0.44918 0.33762 0.76464
 C2897 C 0.96596 0.33885 0.28349
 C2898 C 0.95918 0.33219 0.27000
 C2899 C 0.96588 0.31881 0.26309
 C2900 C 0.95281 0.36365 0.29706
 C2901 C 0.98629 0.31880 0.28306
 C2902 C 0.97956 0.33217 0.28995
 C2903 C 0.95881 0.35236 0.29085
 C2904 C 0.97950 0.31190 0.26957
 H2905 H 0.94859 0.33720 0.26496
 H2906 H 0.96018 0.31369 0.25288
 H2907 H 0.99661 0.31368 0.28855
 H2908 H 0.98484 0.33716 0.30045
 C2909 C 0.28309 0.84109 0.46779
 C2910 C 0.26949 0.83452 0.46118
 C2911 C 0.26265 0.82114 0.46791
 C2912 C 0.29681 0.86550 0.45413
 C2913 C 0.28287 0.82100 0.48808
 C2914 C 0.28968 0.83439 0.48132
 C2915 C 0.29053 0.85442 0.46041
 C2916 C 0.26933 0.81411 0.48137
 H2917 H 0.26436 0.83955 0.45064
 H2918 H 0.25241 0.81603 0.46225
 H2919 H 0.28850 0.81579 0.49826
 H2920 H 0.30028 0.83932 0.48646
 C2921 C 0.28277 0.34056 0.96792
 C2922 C 0.26921 0.33391 0.96131
 C2923 C 0.26242 0.32049 0.96805
 C2924 C 0.29641 0.36503 0.95427
 C2925 C 0.28262 0.32048 0.98823
 C2926 C 0.28938 0.33390 0.98146
 C2927 C 0.29016 0.35392 0.96053
 C2928 C 0.26912 0.31352 0.98153
 H2929 H 0.26405 0.33890 0.95076
 H2930 H 0.25221 0.31533 0.96240
 H2931 H 0.28827 0.31531 0.99842
 H2932 H 0.29994 0.33888 0.98661
 C2933 C 0.78365 0.41071 0.28313
 C2934 C 0.79026 0.41738 0.26960
 C2935 C 0.78353 0.43081 0.26286
 C2936 C 0.79691 0.38586 0.29641
 C2937 C 0.76342 0.43086 0.28311
 C2938 C 0.77019 0.41743 0.28982
 C2939 C 0.79086 0.39717 0.29033
 C2940 C 0.77006 0.43777 0.26957
 H2941 H 0.80075 0.41232 0.26439
 H2942 H 0.78911 0.43592 0.25260
 H2943 H 0.75322 0.43602 0.28875
 H2944 H 0.76504 0.41242 0.30036
   
