data_POSCAR
  _audit_creation_date              2014-09-24
  _audit_creation_method            'ToBaCCo'
  _symmetry_space_group_name_H-M    'P1'
  _symmetry_Int_Tables_number       1
  _symmetry_cell_setting            triclinic
  loop_
  _symmetry_equiv_pos_as_xyz
 x,y,z
_cell_length_a 51.3711
_cell_length_b 51.3748
_cell_length_c 51.3070
_cell_angle_alpha 90.176100
_cell_angle_beta 90.248400
_cell_angle_gamma 90.252400
loop_
  _atom_site_label
  _atom_site_type_symbol
  _atom_site_fract_x
  _atom_site_fract_y
  _atom_site_fract_z
C1 C 0.72577 0.66826 0.96869
 H2 H 0.74463 0.66841 0.95938
 C3 C 0.70504 0.68191 0.95756
 H4 H 0.70794 0.69275 0.93973
 C5 C 0.69839 0.65266 1.00237
 H6 H 0.69557 0.64059 1.01931
 C7 C 0.67721 0.66603 0.99193
 H8 H 0.65829 0.66439 1.00105
 N9 N 0.72207 0.65386 0.99060
 C10 C 0.79801 0.63768 1.02517
 H11 H 0.79578 0.61685 1.02735
 C12 C 0.82069 0.64995 1.03388
 H13 H 0.83599 0.63856 1.04285
 C14 C 0.78074 0.67797 1.01085
 H15 H 0.76503 0.68876 1.00200
 C16 C 0.80321 0.69106 1.01934
 H17 H 0.80482 0.71195 1.01696
 Zn18 Zn 0.74943 0.63221 1.00238
 N19 N 0.77875 0.65168 1.01365
 C20 C 0.78373 0.61156 0.96483
 N21 N 0.75894 0.61057 0.97405
 C22 C 0.74028 0.59595 0.96192
 C23 C 0.74633 0.58155 0.93957
 C24 C 0.79057 0.59747 0.94266
 C25 C 0.73345 0.62614 1.05352
 C26 C 0.72449 0.61348 1.07575
 C27 C 0.72596 0.57268 1.05213
 C28 C 0.73495 0.58618 1.03027
 N29 N 0.73809 0.61249 1.03127
 H30 H 0.79813 0.62380 0.97419
 H31 H 0.72059 0.59594 0.96931
 H32 H 0.73133 0.57025 0.92978
 H33 H 0.81027 0.59870 0.93529
 H34 H 0.73640 0.64700 1.05380
 H35 H 0.72046 0.62471 1.09320
 H36 H 0.72310 0.55178 1.05103
 H37 H 0.73919 0.57566 1.01254
 C38 C 0.82339 0.67683 1.03083
 C39 C 0.68047 0.68051 0.96916
 C40 C 0.72050 0.58652 1.07503
 C41 C 0.77170 0.58248 0.92981
 C42 C 0.73026 0.33765 0.52287
 H43 H 0.74909 0.33670 0.53232
 C44 C 0.70922 0.32360 0.53294
 H45 H 0.71186 0.31167 0.55011
 C46 C 0.70330 0.35547 0.48985
 H47 H 0.70079 0.36851 0.47359
 C48 C 0.68182 0.34176 0.49925
 H49 H 0.66297 0.34410 0.49001
 N50 N 0.72693 0.35329 0.50176
 C51 C 0.80363 0.36919 0.46904
 H52 H 0.80247 0.39020 0.46828
 C53 C 0.82559 0.35656 0.45949
 H54 H 0.84143 0.36784 0.45133
 C55 C 0.78423 0.32879 0.48032
 H56 H 0.76793 0.31809 0.48821
 C57 C 0.80591 0.31534 0.47092
 H58 H 0.80634 0.29428 0.47168
 Zn59 Zn 0.75494 0.37491 0.49129
 N60 N 0.78363 0.35527 0.47941
 C61 C 0.78957 0.39356 0.53018
 N62 N 0.76487 0.39517 0.52062
 C63 C 0.74645 0.40965 0.53290
 C64 C 0.75266 0.42340 0.55567
 C65 C 0.79658 0.40700 0.55282
 C66 C 0.73910 0.38360 0.44035
 C67 C 0.73028 0.39744 0.41874
 C68 C 0.73302 0.43705 0.44417
 C69 C 0.74185 0.42244 0.46538
 N70 N 0.74424 0.39614 0.46320
 H71 H 0.80376 0.38143 0.52065
 H72 H 0.72682 0.41015 0.52519
 H73 H 0.73786 0.43468 0.56549
 H74 H 0.81622 0.40538 0.56042
 H75 H 0.74144 0.36272 0.43912
 H76 H 0.72572 0.38719 0.40079
 H77 H 0.73063 0.45791 0.44611
 H78 H 0.74648 0.43208 0.48357
 C79 C 0.82678 0.32941 0.46048
 C80 C 0.68473 0.32590 0.52114
 C81 C 0.72698 0.42435 0.42073
 C82 C 0.77796 0.42194 0.56574
 C83 C 0.23013 -0.16197 0.02258
 H84 H 0.24898 -0.16289 0.03201
 C85 C 0.20911 -0.17602 0.03269
 H86 H 0.21178 -0.18792 0.04988
 C87 C 0.20314 -0.14424 -0.01046
 H88 H 0.20060 -0.13124 -0.02675
 C89 C 0.18167 -0.15795 -0.00101
 H90 H 0.16282 -0.15564 -0.01025
 N91 N 0.22678 -0.14638 0.00144
 C92 C 0.30338 -0.13056 -0.03153
 H93 H 0.30220 -0.10956 -0.03238
 C94 C 0.32533 -0.14321 -0.04108
 H95 H 0.34114 -0.13194 -0.04932
 C96 C 0.28406 -0.17093 -0.02002
 H97 H 0.26780 -0.18162 -0.01205
 C98 C 0.30574 -0.18440 -0.02941
 H99 H 0.30620 -0.20545 -0.02856
 Zn100 Zn 0.25477 -0.12479 -0.00916
 N101 N 0.28343 -0.14446 -0.02105
 C102 C 0.28951 -0.10606 0.02958
 N103 N 0.26478 -0.10446 0.02010
 C104 C 0.24641 -0.08994 0.03241
 C105 C 0.25271 -0.07616 0.05515
 C106 C 0.29661 -0.09259 0.05218
 C107 C 0.23886 -0.11627 -0.06008
 C108 C 0.22995 -0.10256 -0.08173
 C109 C 0.23259 -0.06282 -0.05640
 C110 C 0.24151 -0.07736 -0.03517
 N111 N 0.24399 -0.10365 -0.03728
 H112 H 0.30366 -0.11823 0.02003
 H113 H 0.22676 -0.08944 0.02477
 H114 H 0.23795 -0.06485 0.06500
 H115 H 0.31627 -0.09422 0.05972
 H116 H 0.24128 -0.13715 -0.06124
 H117 H 0.22543 -0.11299 -0.09960
 H118 H 0.23017 -0.04196 -0.05439
 H119 H 0.24614 -0.06766 -0.01702
 C120 C 0.32656 -0.17034 -0.03997
 C121 C 0.18462 -0.17376 0.02090
 C122 C 0.22653 -0.07561 -0.07983
 C123 C 0.27804 -0.07762 0.06514
 C124 C 0.22618 0.16824 0.46808
 H125 H 0.24504 0.16849 0.45878
 C126 C 0.20540 0.18187 0.45701
 H127 H 0.20828 0.19281 0.43923
 C128 C 0.19883 0.15240 0.50168
 H129 H 0.19604 0.14024 0.51856
 C130 C 0.17761 0.16574 0.49129
 H131 H 0.15869 0.16400 0.50040
 N132 N 0.22251 0.15372 0.48992
 C133 C 0.29848 0.13759 0.52445
 H134 H 0.29629 0.11675 0.52652
 C135 C 0.32112 0.14987 0.53326
 H136 H 0.33643 0.13847 0.54219
 C137 C 0.28113 0.17791 0.51033
 H138 H 0.26541 0.18872 0.50151
 C139 C 0.30356 0.19101 0.51892
 H140 H 0.30513 0.21192 0.51666
 Zn141 Zn 0.24994 0.13211 0.50163
 N142 N 0.27920 0.15161 0.51298
 C143 C 0.28429 0.11170 0.46401
 N144 N 0.25951 0.11059 0.47323
 C145 C 0.24090 0.09592 0.46108
 C146 C 0.24701 0.08158 0.43870
 C147 C 0.29119 0.09767 0.44182
 C148 C 0.23396 0.12582 0.55274
 C149 C 0.22509 0.11304 0.57495
 C150 C 0.22673 0.07235 0.55124
 C151 C 0.23563 0.08593 0.52939
 N152 N 0.23866 0.11226 0.53046
 H153 H 0.29865 0.12397 0.47339
 H154 H 0.22122 0.09582 0.46847
 H155 H 0.23206 0.07024 0.42890
 H156 H 0.31089 0.09898 0.43445
 H157 H 0.23681 0.14670 0.55309
 H158 H 0.22100 0.12409 0.59247
 H159 H 0.22395 0.05146 0.55021
 H160 H 0.23990 0.07547 0.51163
 C161 C 0.32376 0.17678 0.53037
 C162 C 0.18083 0.18034 0.46859
 C163 C 0.22127 0.08611 0.57414
 C164 C 0.27238 0.08263 0.42895
 C165 C 0.16904 0.46802 0.22612
 H166 H 0.16925 0.45880 0.24505
 C167 C 0.18267 0.45689 0.20538
 H168 H 0.19356 0.43913 0.20836
 C169 C 0.15329 0.50149 0.19857
 H170 H 0.14116 0.51834 0.19568
 C171 C 0.16664 0.49103 0.17737
 H172 H 0.16492 0.50005 0.15839
 N173 N 0.15457 0.48983 0.22233
 C174 C 0.13822 0.52437 0.29827
 H175 H 0.11737 0.52637 0.29602
 C176 C 0.15042 0.53323 0.32093
 H177 H 0.13898 0.54215 0.33620
 C178 C 0.17860 0.51036 0.28102
 H179 H 0.18946 0.50157 0.26532
 C180 C 0.19164 0.51901 0.30348
 H181 H 0.21255 0.51683 0.30510
 Zn182 Zn 0.13288 0.50155 0.24969
 N183 N 0.15230 0.51293 0.27902
 C184 C 0.11232 0.46398 0.28409
 N185 N 0.11131 0.47318 0.25926
 C186 C 0.09671 0.46104 0.24059
 C187 C 0.08233 0.43869 0.24667
 C188 C 0.09825 0.44180 0.29097
 C189 C 0.12665 0.55256 0.23351
 C190 C 0.11387 0.57472 0.22461
 C191 C 0.07316 0.55102 0.22637
 C192 C 0.08674 0.52922 0.23530
 N193 N 0.11307 0.53030 0.23828
 H194 H 0.12455 0.47335 0.29849
 H195 H 0.09669 0.46843 0.22087
 H196 H 0.07104 0.42889 0.23167
 H197 H 0.09948 0.43444 0.31070
 H198 H 0.14753 0.55292 0.23635
 H199 H 0.12493 0.59222 0.22047
 H200 H 0.05226 0.54999 0.22363
 H201 H 0.07627 0.51149 0.23964
 C202 C 0.17733 0.53044 0.32364
 C203 C 0.18118 0.46836 0.18072
 C204 C 0.08693 0.57390 0.22084
 C205 C 0.08327 0.42894 0.27209
 C206 C -0.16321 0.02342 0.22929
 H207 H -0.16422 0.03282 0.24816
 C208 C -0.17716 0.03352 0.20818
 H209 H -0.18908 0.05067 0.21086
 C210 C -0.14529 -0.00950 0.20236
 H211 H -0.13226 -0.02572 0.19989
 C212 C -0.15890 -0.00007 0.18079
 H213 H -0.15644 -0.00932 0.16194
 N214 N -0.14756 0.00236 0.22601
 C215 C -0.13174 -0.03043 0.30280
 H216 H -0.11073 -0.03118 0.30160
 C217 C -0.14434 -0.04001 0.32480
 H218 H -0.13303 -0.04818 0.34064
 C219 C -0.17216 -0.01912 0.28345
 H220 H -0.18287 -0.01121 0.26716
 C221 C -0.18558 -0.02855 0.30519
 H222 H -0.20664 -0.02779 0.30566
 Zn223 Zn -0.12600 -0.00813 0.25410
 N224 N -0.14568 -0.02004 0.28281
 C225 C -0.10738 0.03065 0.28881
 N226 N -0.10573 0.02115 0.26408
 C227 C -0.09115 0.03342 0.24569
 C228 C -0.07731 0.05611 0.25198
 C229 C -0.09386 0.05321 0.29590
 C230 C -0.11733 -0.05897 0.23826
 C231 C -0.10349 -0.08056 0.22951
 C232 C -0.06384 -0.05516 0.23238
 C233 C -0.07847 -0.03398 0.24114
 N234 N -0.10478 -0.03615 0.24343
 H235 H -0.11959 0.02113 0.30298
 H236 H -0.09061 0.02576 0.22603
 H237 H -0.06593 0.06591 0.23721
 H238 H -0.09550 0.06075 0.31557
 H239 H -0.13823 -0.06020 0.24053
 H240 H -0.11374 -0.09848 0.22492
 H241 H -0.04298 -0.05322 0.23008
 H242 H -0.06882 -0.01582 0.24580
 C243 C -0.17148 -0.03902 0.32605
 C244 C -0.17475 0.02180 0.18364
 C245 C -0.07656 -0.07857 0.22632
 C246 C -0.07879 0.06610 0.27732
 C247 C 0.33712 0.52309 0.73041
 H248 H 0.33616 0.53244 0.74930
 C249 C 0.32309 0.53322 0.70937
 H250 H 0.31117 0.55035 0.71206
 C251 C 0.35495 0.49024 0.70334
 H252 H 0.36798 0.47402 0.70078
 C253 C 0.34126 0.49971 0.68185
 H254 H 0.34361 0.49057 0.66295
 N255 N 0.35276 0.50204 0.72703
 C256 C 0.36866 0.46912 0.80375
 H257 H 0.38967 0.46843 0.80259
 C258 C 0.35603 0.45943 0.82569
 H259 H 0.36733 0.45123 0.84152
 C260 C 0.32825 0.48034 0.78433
 H261 H 0.31754 0.48825 0.76803
 C262 C 0.31480 0.47080 0.80600
 H263 H 0.29374 0.47147 0.80642
 Zn264 Zn 0.37437 0.49149 0.75504
 N265 N 0.35473 0.47952 0.78375
 C266 C 0.39310 0.53024 0.78976
 N267 N 0.39467 0.52075 0.76502
 C268 C 0.40916 0.53305 0.74658
 C269 C 0.42297 0.55577 0.75282
 C270 C 0.40659 0.55282 0.79680
 C271 C 0.38300 0.44068 0.73906
 C272 C 0.39681 0.41912 0.73022
 C273 C 0.43647 0.44450 0.73306
 C274 C 0.42188 0.46566 0.74191
 N275 N 0.39556 0.46348 0.74427
 H276 H 0.38096 0.52069 0.80397
 H277 H 0.40963 0.52540 0.72692
 H278 H 0.43426 0.56560 0.73801
 H279 H 0.40501 0.56036 0.81648
 H280 H 0.36211 0.43945 0.74139
 H281 H 0.38655 0.40120 0.72562
 H282 H 0.45733 0.44645 0.73071
 H283 H 0.43154 0.48381 0.74660
 C284 C 0.32889 0.46030 0.82686
 C285 C 0.32541 0.52155 0.68482
 C286 C 0.42374 0.42111 0.72697
 C287 C 0.42155 0.56576 0.77817
 C288 C 0.66965 0.96855 0.72675
 H289 H 0.66992 0.95923 0.74563
 C290 C 0.68325 0.95754 0.70592
 H291 H 0.69417 0.93977 0.70877
 C292 C 0.65379 1.00214 0.69940
 H293 H 0.64163 1.01898 0.69662
 C294 C 0.66710 0.99180 0.67812
 H295 H 0.66533 1.00092 0.65919
 N296 N 0.65513 0.99035 0.72310
 C297 C 0.63874 1.02451 0.79922
 H298 H 0.61788 1.02646 0.79699
 C299 C 0.65093 1.03334 0.82191
 H300 H 0.63939 1.04216 0.83719
 C301 C 0.67915 1.01070 0.78189
 H302 H 0.69002 1.00200 0.76614
 C303 C 0.69219 1.01931 0.80436
 H304 H 0.71312 1.01716 0.80589
 Zn305 Zn 0.63344 1.00189 0.75054
 N306 N 0.65284 1.01320 0.77992
 C307 C 0.61295 0.96412 0.78478
 N308 N 0.61194 0.97342 0.75998
 C309 C 0.59737 0.96133 0.74126
 C310 C 0.58300 0.93895 0.74725
 C311 C 0.59890 0.94190 0.79156
 C312 C 0.62705 1.05296 0.73460
 C313 C 0.61422 1.07509 0.72569
 C314 C 0.57359 1.05122 0.72724
 C315 C 0.58722 1.02946 0.73618
 N316 N 0.61354 1.03063 0.73926
 H317 H 0.62517 0.97345 0.79922
 H318 H 0.59734 0.96880 0.72157
 H319 H 0.57171 0.92921 0.73221
 H320 H 0.60012 0.93447 0.81127
 H321 H 0.64792 1.05339 0.73749
 H322 H 0.62522 1.09264 0.72161
 H323 H 0.55271 1.05011 0.72440
 H324 H 0.57681 1.01167 0.74043
 C325 C 0.67787 1.03063 0.82460
 C326 C 0.68167 0.96913 0.68132
 C327 C 0.58729 1.07416 0.72179
 C328 C 0.58393 0.92911 0.77263
 C329 C 0.02252 0.22958 -0.16193
 H330 H 0.03191 0.24844 -0.16280
 C331 C 0.03270 0.20861 -0.17596
 H332 H 0.04991 0.21133 -0.18780
 C333 C -0.01047 0.20248 -0.14431
 H334 H -0.02676 0.19989 -0.13135
 C335 C -0.00095 0.18106 -0.15801
 H336 H -0.01013 0.16218 -0.15574
 N337 N 0.00138 0.22614 -0.14639
 C338 C -0.03158 0.30267 -0.13040
 H339 H -0.03242 0.30140 -0.10938
 C340 C -0.04113 0.32467 -0.14302
 H341 H -0.04938 0.34042 -0.13170
 C342 C -0.02008 0.28352 -0.17087
 H343 H -0.01211 0.26731 -0.18160
 C344 C -0.02948 0.30525 -0.18430
 H345 H -0.02864 0.30579 -0.20538
 Zn346 Zn -0.00924 0.25404 -0.12472
 N347 N -0.02110 0.28278 -0.14436
 C348 C 0.02946 0.28869 -0.10580
 N349 N 0.01997 0.26397 -0.10428
 C350 C 0.03226 0.24552 -0.08980
 C351 C 0.05499 0.25174 -0.07598
 C352 C 0.05206 0.29571 -0.09229
 C353 C -0.06010 0.23807 -0.11634
 C354 C -0.08174 0.22914 -0.10266
 C355 C -0.05648 0.23170 -0.06281
 C356 C -0.03526 0.24064 -0.07731
 N357 N -0.03734 0.24317 -0.10365
 H358 H 0.01993 0.30291 -0.11794
 H359 H 0.02461 0.22587 -0.08937
 H360 H 0.06483 0.23691 -0.06471
 H361 H 0.05961 0.31536 -0.09386
 H362 H -0.06124 0.24053 -0.13725
 H363 H -0.09959 0.22466 -0.11315
 H364 H -0.05450 0.22926 -0.04191
 H365 H -0.01714 0.24525 -0.06756
 C366 C -0.04004 0.32601 -0.17018
 C367 C 0.02098 0.18408 -0.17375
 C368 C -0.07988 0.22569 -0.07567
 C369 C 0.06500 0.27706 -0.07736
 C370 C 0.46884 0.22610 0.16877
 H371 H 0.45952 0.24494 0.16897
 C372 C 0.45780 0.20531 0.18245
 H373 H 0.44003 0.20817 0.19336
 C374 C 0.50243 0.19879 0.15302
 H375 H 0.51929 0.19601 0.14086
 C376 C 0.49208 0.17756 0.16641
 H377 H 0.50119 0.15865 0.16471
 N378 N 0.49065 0.22245 0.15427
 C379 C 0.52487 0.29847 0.13770
 H380 H 0.52690 0.29621 0.11684
 C381 C 0.53362 0.32118 0.14986
 H382 H 0.54247 0.33648 0.13836
 C383 C 0.51092 0.28123 0.17818
 H384 H 0.50218 0.26553 0.18909
 C385 C 0.51945 0.30374 0.19117
 H386 H 0.51723 0.30539 0.21210
 Zn387 Zn 0.50222 0.24983 0.13249
 N388 N 0.51351 0.27921 0.15185
 C389 C 0.46447 0.28398 0.11191
 N390 N 0.47376 0.25922 0.11093
 C391 C 0.46163 0.24051 0.09640
 C392 C 0.43921 0.24646 0.08206
 C393 C 0.44222 0.29072 0.09788
 C394 C 0.55330 0.23396 0.12616
 C395 C 0.57545 0.22510 0.11335
 C396 C 0.55162 0.22658 0.07265
 C397 C 0.52983 0.23547 0.08626
 N398 N 0.53098 0.23857 0.11261
 H399 H 0.47384 0.29842 0.12409
 H400 H 0.46909 0.22085 0.09640
 H401 H 0.42942 0.23141 0.07083
 H402 H 0.43479 0.31040 0.09909
 H403 H 0.55371 0.23687 0.14705
 H404 H 0.59299 0.22107 0.12439
 H405 H 0.55052 0.22374 0.05174
 H406 H 0.51205 0.23967 0.07581
 C407 C 0.53079 0.32392 0.17680
 C408 C 0.46940 0.18076 0.18097
 C409 C 0.57455 0.22120 0.08640
 C410 C 0.42938 0.27179 0.08298
 C411 C 0.96776 0.72597 0.66945
 H412 H 0.95849 0.74484 0.66975
 C413 C 0.95672 0.70517 0.68309
 H414 H 0.93900 0.70803 0.69407
 C415 C 1.00125 0.69864 0.65351
 H416 H 1.01807 0.69587 0.64130
 C417 C 0.99089 0.67739 0.66686
 H418 H 0.99996 0.65847 0.66507
 N419 N 0.98953 0.72233 0.65488
 C420 C 1.02396 0.79833 0.63870
 H421 H 1.02594 0.79618 0.61782
 C422 C 1.03282 0.82093 0.65097
 H423 H 1.04171 0.83626 0.63954
 C424 C 1.01002 0.78091 0.67910
 H425 H 1.00126 0.76516 0.68994
 C426 C 1.01867 0.80330 0.69221
 H427 H 1.01651 0.80483 0.71315
 Zn428 Zn 1.00117 0.74979 0.63324
 N429 N 1.01256 0.77902 0.65276
 C430 C 0.96354 0.78416 0.61283
 N431 N 0.97276 0.75939 0.61171
 C432 C 0.96063 0.74081 0.59701
 C433 C 0.93829 0.74693 0.58261
 C434 C 0.94138 0.79108 0.59875
 C435 C 1.05220 0.73381 0.62686
 C436 C 1.07435 0.72500 0.61401
 C437 C 1.05058 0.72683 0.57329
 C438 C 1.02879 0.73566 0.58694
 N439 N 1.02991 0.73856 0.61331
 H440 H 0.97291 0.79850 0.62514
 H441 H 0.96802 0.72113 0.59690
 H442 H 0.92851 0.73201 0.57122
 H443 H 0.93402 0.81078 0.60005
 H444 H 1.05259 0.73657 0.64777
 H445 H 1.09187 0.72086 0.62504
 H446 H 1.04951 0.72414 0.55237
 H447 H 1.01103 0.73998 0.57650
 C448 C 1.03006 0.82352 0.67793
 C449 C 0.96826 0.68060 0.68151
 C450 C 1.07348 0.72130 0.58703
 C451 C 0.92855 0.77230 0.58365
 C452 C 0.52296 0.73098 0.33642
 H453 H 0.53238 0.74982 0.33545
 C454 C 0.53302 0.70995 0.32239
 H455 H 0.55015 0.71261 0.31043
 C456 C 0.49004 0.70399 0.35432
 H457 H 0.47382 0.70145 0.36738
 C458 C 0.49944 0.68251 0.34061
 H459 H 0.49024 0.66366 0.34299
 N460 N 0.50191 0.72762 0.35210
 C461 C 0.46920 0.80426 0.36812
 H462 H 0.46850 0.80301 0.38916
 C463 C 0.45958 0.82624 0.35555
 H464 H 0.45144 0.84200 0.36697
 C465 C 0.48040 0.78502 0.32762
 H466 H 0.48828 0.76877 0.31686
 C467 C 0.47094 0.80673 0.31420
 H468 H 0.47167 0.80718 0.29310
 Zn469 Zn 0.49146 0.75560 0.37376
 N470 N 0.47955 0.78433 0.35413
 C471 C 0.53029 0.79021 0.39249
 N472 N 0.52076 0.76551 0.39407
 C473 C 0.53300 0.74707 0.40861
 C474 C 0.55570 0.75330 0.42248
 C475 C 0.55285 0.79723 0.40605
 C476 C 0.44060 0.73970 0.38245
 C477 C 0.41902 0.73090 0.39631
 C478 C 0.44445 0.73368 0.43599
 C479 C 0.46562 0.74249 0.42135
 N480 N 0.46343 0.74485 0.39500
 H481 H 0.52078 0.80441 0.38031
 H482 H 0.52532 0.72744 0.40909
 H483 H 0.56548 0.73850 0.43383
 H484 H 0.56042 0.81688 0.40447
 H485 H 0.43936 0.74203 0.36153
 H486 H 0.40109 0.72633 0.38605
 H487 H 0.44640 0.73132 0.45688
 H488 H 0.48379 0.74714 0.43100
 C489 C 0.46048 0.82755 0.32835
 C490 C 0.52127 0.68545 0.32473
 C491 C 0.42103 0.72764 0.42327
 C492 C 0.56572 0.77862 0.42108
 Si493 Si 0.36291 0.00303 0.24903
 Si494 Si 0.12267 1.00699 0.75106
 Si495 Si 0.62239 0.50809 0.24944
 Si496 Si 0.86206 0.50283 0.74986
 Si497 Si 0.24902 0.36127 0.00332
 Si498 Si 0.75087 0.12238 1.00698
 Si499 Si 0.25006 0.62317 0.50737
 Si500 Si 0.74908 0.86291 0.50322
 Si501 Si 0.00320 0.24909 0.36240
 Si502 Si 1.00738 0.75040 0.12214
 Si503 Si 0.50747 0.25018 0.62242
 Si504 Si 0.50320 0.74928 0.86239
 C505 C 0.41457 -0.09020 0.26015
 C506 C 0.44160 -0.09109 0.27372
 C507 C 0.42991 -0.10853 0.29499
 C508 C 0.40312 -0.10800 0.28160
 C509 C 0.40762 -0.06629 0.27675
 C510 C 0.39599 -0.08377 0.29802
 C511 C 0.43441 -0.06678 0.29014
 C512 C 0.42294 -0.08460 0.31156
 C513 C 0.44167 -0.13201 0.30600
 C514 C 0.45076 -0.15115 0.31601
 C515 C 0.39435 -0.04301 0.26714
 C516 C 0.38251 -0.02425 0.25967
 H517 H 0.41098 -0.09222 0.23888
 H518 H 0.46048 -0.09440 0.26384
 H519 H 0.39037 -0.12520 0.27818
 H520 H 0.37711 -0.08050 0.30793
 H521 H 0.44712 -0.04956 0.29356
 H522 H 0.42649 -0.08254 0.33282
 C523 C 0.90859 0.40764 0.76268
 C524 C 0.93756 0.40549 0.77103
 C525 C 0.92898 0.39125 0.79586
 C526 C 0.90025 0.39304 0.78767
 C527 C 0.90675 0.43352 0.77764
 C528 C 0.89823 0.41923 0.80246
 C529 C 0.93549 0.43179 0.78582
 C530 C 0.92712 0.41714 0.81080
 C531 C 0.94071 0.36773 0.80682
 C532 C 0.94977 0.34855 0.81677
 C533 C 0.89350 0.45681 0.76803
 C534 C 0.88167 0.47557 0.76055
 H535 H 0.90082 0.40401 0.74277
 H536 H 0.95386 0.39955 0.75821
 H537 H 0.88588 0.37686 0.78853
 H538 H 0.88194 0.42513 0.81531
 H539 H 0.94982 0.44799 0.78495
 H540 H 0.93487 0.42080 0.83072
 C541 C 0.08363 1.08982 0.80367
 C542 C 0.08388 1.11644 0.78964
 C543 C 0.05452 1.11889 0.79457
 C544 C 0.05409 1.09258 0.80875
 C545 C 0.07739 1.07643 0.77755
 C546 C 0.04802 1.07883 0.78247
 C547 C 0.07783 1.10273 0.76336
 C548 C 0.04824 1.10553 0.76844
 C549 C 0.04222 1.14246 0.80479
 C550 C 0.03242 1.16163 0.81406
 C551 C 0.09087 1.05304 0.76851
 C552 C 0.10285 1.03423 0.76139
 H553 H 0.09830 1.08310 0.81807
 H554 H 0.09849 1.13215 0.79267
 H555 H 0.04420 1.08866 0.82754
 H556 H 0.03344 1.06309 0.77944
 H557 H 0.08774 1.10663 0.74458
 H558 H 0.03356 1.11229 0.75406
 C559 C 0.57645 0.58608 0.30467
 C560 C 0.58359 0.61412 0.29629
 C561 C 0.55448 0.62011 0.29301
 C562 C 0.54715 0.59238 0.30153
 C563 C 0.57718 0.57757 0.27595
 C564 C 0.54807 0.58350 0.27264
 C565 C 0.58451 0.60529 0.26744
 C566 C 0.55519 0.61163 0.26428
 C567 C 0.54230 0.64373 0.30325
 C568 C 0.53259 0.66295 0.31253
 C569 C 0.59060 0.55414 0.26690
 C570 C 0.60255 0.53531 0.25977
 H571 H 0.58530 0.57532 0.32118
 H572 H 0.59807 0.62696 0.30609
 H573 H 0.53165 0.58734 0.31567
 H574 H 0.53362 0.57062 0.26284
 H575 H 0.60002 0.61034 0.25330
 H576 H 0.54633 0.62242 0.24779
 C577 C 0.54986 0.43192 0.21971
 C578 C 0.55661 0.41803 0.19376
 C579 C 0.55856 0.39210 0.20850
 C580 C 0.55161 0.40557 0.23431
 C581 C 0.57906 0.43632 0.22471
 C582 C 0.58101 0.41041 0.23946
 C583 C 0.58595 0.42280 0.19892
 C584 C 0.58774 0.39657 0.21352
 C585 C 0.54791 0.36749 0.19854
 C586 C 0.53980 0.34743 0.18927
 C587 C 0.59152 0.46062 0.23322
 C588 C 0.60294 0.48008 0.23985
 H589 H 0.53443 0.44675 0.22234
 H590 H 0.54646 0.42089 0.17485
 H591 H 0.53738 0.39817 0.24876
 H592 H 0.59118 0.40756 0.25837
 H593 H 0.60017 0.43014 0.18444
 H594 H 0.60322 0.38179 0.21090
 C595 C 0.07476 0.92822 0.69750
 C596 C 0.08580 0.90082 0.70304
 C597 C 0.05826 0.89138 0.70993
 C598 C 0.04703 0.91847 0.70425
 C599 C 0.07904 0.93542 0.72628
 C600 C 0.05149 0.92606 0.73322
 C601 C 0.09025 0.90832 0.73195
 C602 C 0.06252 0.89853 0.73873
 C603 C 0.04745 0.86688 0.69989
 C604 C 0.03922 0.84691 0.69052
 C605 C 0.09164 0.95963 0.73484
 C606 C 0.10315 0.97903 0.74149
 H607 H 0.07990 0.94068 0.68063
 H608 H 0.09982 0.89019 0.69056
 H609 H 0.02912 0.92236 0.69275
 H610 H 0.03752 0.93675 0.74571
 H611 H 0.10817 0.90442 0.74343
 H612 H 0.05738 0.88604 0.75558
 C613 C 0.90180 0.60052 0.73586
 C614 C 0.93126 0.60620 0.73945
 C615 C 0.93243 0.61551 0.71104
 C616 C 0.90320 0.61018 0.70734
 C617 C 0.90842 0.57293 0.72639
 C618 C 0.90962 0.58227 0.69801
 C619 C 0.93766 0.57821 0.73012
 C620 C 0.93905 0.58791 0.70158
 C621 C 0.94546 0.63911 0.70169
 C622 C 0.95593 0.65824 0.69305
 C623 C 0.89442 0.54942 0.73447
 C624 C 0.88213 0.53045 0.74077
 H625 H 0.88632 0.60543 0.75005
 H626 H 0.94029 0.61633 0.75638
 H627 H 0.88915 0.62357 0.69790
 H628 H 0.90060 0.57217 0.68105
 H629 H 0.95168 0.56478 0.73956
 H630 H 0.95452 0.58299 0.68738
 C631 C 0.39636 0.09982 0.22276
 C632 C 0.41992 0.11258 0.23685
 C633 C 0.43347 0.11567 0.21041
 C634 C 0.41010 0.10326 0.19621
 C635 C 0.40938 0.07311 0.22566
 C636 C 0.42293 0.07623 0.19922
 C637 C 0.43274 0.08547 0.23991
 C638 C 0.44652 0.08897 0.21330
 C639 C 0.44654 0.13927 0.20110
 C640 C 0.45704 0.15841 0.19249
 C641 C 0.39533 0.04961 0.23368
 C642 C 0.38301 0.03064 0.23995
 H643 H 0.37556 0.10402 0.22673
 H644 H 0.41882 0.12779 0.25222
 H645 H 0.40090 0.11083 0.17816
 H646 H 0.42403 0.06104 0.18384
 H647 H 0.44191 0.07786 0.25795
 H648 H 0.46731 0.08478 0.20932
 C649 C 0.30176 0.39816 -0.07997
 C650 C 0.28722 0.39991 -0.10637
 C651 C 0.29489 0.42878 -0.10812
 C652 C 0.30958 0.42720 -0.08202
 C653 C 0.27667 0.40622 -0.06597
 C654 C 0.28432 0.43510 -0.06766
 C655 C 0.26196 0.40779 -0.09206
 C656 C 0.26979 0.43690 -0.09417
 C657 C 0.30587 0.44070 -0.13156
 C658 C 0.31582 0.44992 -0.15067
 C659 C 0.26707 0.39283 -0.04273
 C660 C 0.25962 0.38092 -0.02398
 H661 H 0.31483 0.38212 -0.07388
 H662 H 0.28851 0.38556 -0.12253
 H663 H 0.32929 0.43531 -0.07814
 H664 H 0.28303 0.44942 -0.05147
 H665 H 0.24225 0.39965 -0.09591
 H666 H 0.25675 0.45295 -0.10030
 C667 C 0.76317 0.90661 0.40701
 C668 C 0.76829 0.93619 0.40378
 C669 C 0.79472 0.92993 0.39140
 C670 C 0.78974 0.90057 0.39426
 C671 C 0.77667 0.90766 0.43378
 C672 C 0.80308 0.90145 0.42134
 C673 C 0.78163 0.93702 0.43097
 C674 C 0.80821 0.93097 0.41818
 C675 C 0.80560 0.94168 0.36783
 C676 C 0.81550 0.95076 0.34862
 C677 C 0.76715 0.89439 0.45712
 C678 C 0.75972 0.88255 0.47592
 H679 H 0.74452 0.89644 0.40269
 H680 H 0.75410 0.95060 0.39627
 H681 H 0.79317 0.88570 0.37893
 H682 H 0.81730 0.88704 0.42882
 H683 H 0.77820 0.95185 0.44634
 H684 H 0.82686 0.94112 0.42252
 C685 C 0.76521 0.08077 1.10381
 C686 C 0.76675 0.05094 1.10804
 C687 C 0.79429 0.05448 1.11933
 C688 C 0.79289 0.08408 1.11546
 C689 C 0.77729 0.07720 1.07668
 C690 C 0.80481 0.08070 1.08802
 C691 C 0.77867 0.04759 1.08051
 C692 C 0.80636 0.05092 1.09220
 C693 C 0.80450 0.04228 1.14302
 C694 C 0.81378 0.03256 1.16227
 C695 C 0.76827 0.09062 1.05319
 C696 C 0.76117 0.10256 1.03431
 H697 H 0.74818 0.09319 1.10831
 H698 H 0.75120 0.03859 1.11656
 H699 H 0.79882 0.09896 1.13008
 H700 H 0.82039 0.09305 1.07953
 H701 H 0.77273 0.03275 1.06586
 H702 H 0.82340 0.03851 1.08770
 C703 C 0.26191 0.57726 0.60293
 C704 C 0.26817 0.54787 0.60541
 C705 C 0.29370 0.55501 0.61947
 C706 C 0.28759 0.58417 0.61735
 C707 C 0.27664 0.57787 0.57693
 C708 C 0.30215 0.58497 0.59102
 C709 C 0.28274 0.54871 0.57900
 C710 C 0.30841 0.55563 0.59345
 C711 C 0.30394 0.54272 0.64309
 C712 C 0.31322 0.53295 0.66231
 C713 C 0.26757 0.59137 0.55350
 C714 C 0.26043 0.60335 0.53466
 H715 H 0.24267 0.58631 0.60654
 H716 H 0.25430 0.53249 0.61162
 H717 H 0.28967 0.59862 0.63336
 H718 H 0.31605 0.60034 0.58485
 H719 H 0.28065 0.53429 0.56296
 H720 H 0.32766 0.54661 0.58982
 C721 C 0.24203 0.57707 0.41106
 C722 C 0.23232 0.54862 0.40765
 C723 C 0.20914 0.55869 0.39164
 C724 C 0.21870 0.58691 0.39466
 C725 C 0.22537 0.57950 0.43574
 C726 C 0.20220 0.58951 0.41967
 C727 C 0.21581 0.55127 0.43278
 C728 C 0.19250 0.56114 0.41634
 C729 C 0.19916 0.54786 0.36709
 C730 C 0.18986 0.53961 0.34709
 C731 C 0.23387 0.59213 0.45998
 C732 C 0.24049 0.60364 0.47940
 H733 H 0.26252 0.58376 0.40918
 H734 H 0.24461 0.53170 0.40240
 H735 H 0.21981 0.60146 0.37874
 H736 H 0.18988 0.60643 0.42487
 H737 H 0.21471 0.53677 0.44873
 H738 H 0.17201 0.55448 0.41825
 C739 C 0.69884 0.08359 0.92336
 C740 C 0.71176 0.08757 0.89648
 C741 C 0.70934 0.05819 0.89130
 C742 C 0.69628 0.05405 0.91787
 C743 C 0.72584 0.07885 0.93538
 C744 C 0.72344 0.04946 0.93026
 C745 C 0.73891 0.08299 0.90881
 C746 C 0.73636 0.05340 0.90325
 C747 C 0.69920 0.04744 0.86677
 C748 C 0.68976 0.03928 0.84679
 C749 C 0.73448 0.09140 0.95960
 C750 C 0.74120 0.10288 0.97902
 H751 H 0.68348 0.09611 0.93188
 H752 H 0.70688 0.10313 0.88234
 H753 H 0.67863 0.04203 0.92133
 H754 H 0.72833 0.03394 0.94445
 H755 H 0.75655 0.09504 0.90536
 H756 H 0.75168 0.04088 0.89469
 C757 C 0.70182 0.90164 0.58941
 C758 C 0.71820 0.90436 0.61467
 C759 C 0.71082 0.93327 0.61609
 C760 C 0.69431 0.93073 0.59115
 C761 C 0.72588 0.90925 0.57341
 C762 C 0.71850 0.93816 0.57480
 C763 C 0.74241 0.91176 0.59834
 C764 C 0.73489 0.94092 0.60013
 C765 C 0.70162 0.94630 0.63974
 C766 C 0.69310 0.95679 0.65892
 C767 C 0.73381 0.89524 0.54986
 C768 C 0.74002 0.88296 0.53086
 H769 H 0.68828 0.88537 0.58474
 H770 H 0.71800 0.89060 0.63131
 H771 H 0.67441 0.93867 0.58845
 H772 H 0.71870 0.95190 0.55814
 H773 H 0.76230 0.90381 0.60101
 H774 H 0.74841 0.95720 0.60483
 C775 C 0.20077 0.40136 0.08839
 C776 C 0.21640 0.40288 0.11421
 C777 C 0.21053 0.43213 0.11580
 C778 C 0.19478 0.43080 0.09029
 C779 C 0.22573 0.40786 0.07332
 C780 C 0.21988 0.43712 0.07488
 C781 C 0.24151 0.40917 0.09881
 C782 C 0.23551 0.43867 0.10077
 C783 C 0.20125 0.44531 0.13934
 C784 C 0.19267 0.45590 0.15843
 C785 C 0.23373 0.39373 0.04987
 C786 C 0.23997 0.38137 0.03093
 H787 H 0.18655 0.38589 0.08304
 H788 H 0.21489 0.38894 0.13063
 H789 H 0.17544 0.43983 0.08704
 H790 H 0.22138 0.45103 0.05844
 H791 H 0.26084 0.40012 0.10203
 H792 H 0.24971 0.45415 0.10615
 C793 C -0.09351 0.26602 0.40285
 C794 C -0.09822 0.26735 0.43266
 C795 C -0.10812 0.29534 0.42947
 C796 C -0.10376 0.29415 0.39988
 C797 C -0.06595 0.27699 0.40719
 C798 C -0.07590 0.30497 0.40405
 C799 C -0.07025 0.27816 0.43679
 C800 C -0.08056 0.30631 0.43381
 C801 C -0.13159 0.30636 0.44121
 C802 C -0.15073 0.31634 0.45027
 C803 C -0.04271 0.26732 0.39393
 C804 C -0.02400 0.25980 0.38207
 H805 H -0.09857 0.24933 0.38997
 H806 H -0.10769 0.25200 0.44454
 H807 H -0.11779 0.30081 0.38482
 H808 H -0.06647 0.32034 0.39216
 H809 H -0.05618 0.27148 0.45180
 H810 H -0.07549 0.32301 0.44667
 C811 C 0.42854 0.77624 0.93638
 C812 C 0.41951 0.80498 0.93532
 C813 C 0.39171 0.79557 0.92914
 C814 C 0.40033 0.76700 0.93041
 C815 C 0.43394 0.77723 0.90697
 C816 C 0.40615 0.76783 0.90079
 C817 C 0.42527 0.80578 0.90574
 C818 C 0.39717 0.79653 0.89975
 C819 C 0.36822 0.80659 0.94083
 C820 C 0.34907 0.81658 0.94986
 C821 C 0.45721 0.76756 0.89377
 C822 C 0.47596 0.76003 0.88196
 H823 H 0.44173 0.76780 0.95129
 H824 H 0.42474 0.82038 0.94966
 H825 H 0.38979 0.75118 0.94067
 H826 H 0.40092 0.75244 0.88644
 H827 H 0.43577 0.82163 0.89549
 H828 H 0.38403 0.80497 0.88479
 C829 C 1.08633 0.80551 0.07786
 C830 C 1.11422 0.79574 0.08360
 C831 C 1.11932 0.79434 0.05415
 C832 C 1.09174 0.80426 0.04822
 C833 C 1.07680 0.77714 0.07686
 C834 C 1.08184 0.77571 0.04740
 C835 C 1.10438 0.76722 0.08278
 C836 C 1.10983 0.76595 0.05311
 C837 C 1.14293 0.80465 0.04195
 C838 C 1.16213 0.81399 0.03224
 C839 C 1.05339 0.76800 0.09029
 C840 C 1.03458 0.76081 0.10226
 H841 H 1.07642 0.82168 0.08815
 H842 H 1.12778 0.80405 0.09836
 H843 H 1.08681 0.81961 0.03387
 H844 H 1.06825 0.76739 0.03267
 H845 H 1.10930 0.75188 0.09715
 H846 H 1.11978 0.74980 0.04282
 C847 C 0.58075 0.27809 0.54747
 C848 C 0.59223 0.30588 0.55063
 C849 C 0.61941 0.29404 0.55437
 C850 C 0.60834 0.26639 0.55099
 C851 C 0.57690 0.27686 0.57711
 C852 C 0.60407 0.26501 0.58086
 C853 C 0.58801 0.30449 0.58045
 C854 C 0.61550 0.29279 0.58400
 C855 C 0.64302 0.30433 0.54216
 C856 C 0.66223 0.31366 0.53245
 C857 C 0.55350 0.26774 0.59056
 C858 C 0.53468 0.26057 0.60254
 H859 H 0.56619 0.27196 0.53261
 H860 H 0.58762 0.32281 0.53806
 H861 H 0.61698 0.25084 0.53876
 H862 H 0.60867 0.24808 0.59344
 H863 H 0.57940 0.32007 0.59268
 H864 H 0.63004 0.29891 0.59890
 C865 C 0.42040 0.20143 0.58850
 C866 C 0.39508 0.21752 0.58682
 C867 C 0.39173 0.20880 0.55833
 C868 C 0.41675 0.19257 0.55987
 C869 C 0.43584 0.22521 0.57895
 C870 C 0.43255 0.21650 0.55046
 C871 C 0.41083 0.24146 0.57743
 C872 C 0.40711 0.23260 0.54872
 C873 C 0.36718 0.19874 0.54761
 C874 C 0.34719 0.18937 0.53945
 C875 C 0.46008 0.23381 0.59148
 C876 C 0.47950 0.24051 0.60294
 H877 H 0.42612 0.18867 0.60497
 H878 H 0.37942 0.21786 0.60166
 H879 H 0.41891 0.17235 0.55254
 H880 H 0.44824 0.21616 0.53565
 H881 H 0.40869 0.26168 0.58478
 H882 H 0.40133 0.24532 0.53224
 C883 C 0.91066 0.74163 0.07734
 C884 C 0.90684 0.73265 0.04867
 C885 C 0.89149 0.70890 0.05843
 C886 C 0.89493 0.71772 0.08687
 C887 C 0.93567 0.72537 0.07884
 C888 C 0.92026 0.70163 0.08854
 C889 C 0.93229 0.71656 0.05039
 C890 C 0.91651 0.69267 0.05995
 C891 C 0.86691 0.69880 0.04783
 C892 C 0.84687 0.68942 0.03978
 C893 C 0.95994 0.73401 0.09128
 C894 C 0.97939 0.74073 0.10268
 H895 H 0.90855 0.76187 0.08462
 H896 H 0.90102 0.74531 0.03217
 H897 H 0.87932 0.71812 0.10176
 H898 H 0.92603 0.68894 0.10503
 H899 H 0.94794 0.71616 0.03554
 H900 H 0.91865 0.67242 0.05269
 C901 C 0.59792 0.71641 0.89521
 C902 C 0.61436 0.73326 0.91426
 C903 C 0.61554 0.71013 0.93313
 C904 C 0.59944 0.69317 0.91427
 C905 C 0.57307 0.72557 0.90899
 C906 C 0.57427 0.70245 0.92786
 C907 C 0.58914 0.74258 0.92784
 C908 C 0.59071 0.71929 0.94694
 C909 C 0.63908 0.70074 0.94623
 C910 C 0.65817 0.69207 0.95676
 C911 C 0.54963 0.73370 0.89490
 C912 C 0.53072 0.74007 0.88255
 H913 H 0.60063 0.71528 0.87379
 H914 H 0.63110 0.74582 0.90881
 H915 H 0.60394 0.67276 0.90880
 H916 H 0.55754 0.68988 0.93330
 H917 H 0.58460 0.76299 0.93327
 H918 H 0.58803 0.72040 0.96838
 C919 C 0.09995 0.22255 0.39566
 C920 C 0.11274 0.23645 0.41934
 C921 C 0.11579 0.20993 0.43273
 C922 C 0.10335 0.19593 0.40925
 C923 C 0.07324 0.22535 0.40873
 C924 C 0.07633 0.19885 0.42213
 C925 C 0.08564 0.23940 0.43220
 C926 C 0.08909 0.21272 0.44583
 C927 C 0.13938 0.20054 0.44576
 C928 C 0.15850 0.19189 0.45624
 C929 C 0.04975 0.23348 0.39472
 C930 C 0.03079 0.23985 0.38245
 H931 H 0.10415 0.22667 0.37487
 H932 H 0.12797 0.25180 0.41832
 H933 H 0.11089 0.17797 0.39993
 H934 H 0.06111 0.18348 0.42314
 H935 H 0.07805 0.25736 0.44149
 H936 H 0.08491 0.20859 0.46662
 C937 C 0.53728 0.17736 0.69678
 C938 C 0.52556 0.14957 0.69419
 C939 C 0.55309 0.13882 0.68999
 C940 C 0.56497 0.16619 0.69280
 C941 C 0.53472 0.18069 0.66714
 C942 C 0.56223 0.16988 0.66299
 C943 C 0.52283 0.15332 0.66432
 C944 C 0.55050 0.14220 0.66036
 C945 C 0.56415 0.11554 0.70206
 C946 C 0.57418 0.09654 0.71137
 C947 C 0.52512 0.20383 0.65366
 C948 C 0.51775 0.22260 0.64178
 H949 H 0.53174 0.19209 0.71160
 H950 H 0.51061 0.14094 0.70715
 H951 H 0.58242 0.17122 0.70465
 H952 H 0.57721 0.17847 0.65003
 H953 H 0.50539 0.14830 0.65245
 H954 H 0.55604 0.12750 0.64550
 C955 C 1.04092 0.65528 0.15236
 C956 C 1.06688 0.65381 0.16766
 C957 C 1.05285 0.63875 0.18932
 C958 C 1.02701 0.63988 0.17420
 C959 C 1.03458 0.68077 0.16666
 C960 C 1.02049 0.66577 0.18833
 C961 C 1.06041 0.67962 0.18179
 C962 C 1.04652 0.66423 0.20368
 C963 C 1.06387 0.61540 0.20128
 C964 C 1.07386 0.59634 0.21051
 C965 C 1.02501 0.70398 0.15328
 C966 C 1.01766 0.72280 0.14145
 H967 H 1.03853 0.65185 0.13110
 H968 H 1.08606 0.64865 0.15926
 H969 H 1.01341 0.62328 0.17121
 H970 H 1.00130 0.67098 0.19667
 H971 H 1.07403 0.69621 0.18477
 H972 H 1.04894 0.66763 0.22493
 C973 C 0.95277 0.81874 0.18200
 C974 C 0.96470 0.83207 0.20643
 C975 C 0.96028 0.85870 0.19363
 C976 C 0.94820 0.84567 0.16942
 C977 C 0.97992 0.81803 0.16962
 C978 C 0.97549 0.84467 0.15686
 C979 C 0.99208 0.83099 0.19382
 C980 C 0.98745 0.85803 0.18126
 C981 C 0.94837 0.88129 0.20620
 C982 C 0.93755 0.89973 0.21577
 C983 C 0.99001 0.79553 0.15537
 C984 C 0.99749 0.77726 0.14275
 H985 H 0.93862 0.80235 0.18215
 H986 H 0.96013 0.82716 0.22697
 H987 H 0.93004 0.85194 0.15950
 H988 H 0.98003 0.84960 0.13632
 H989 H 1.01024 0.82466 0.20369
 H990 H 1.00157 0.87444 0.18111
 C991 C 0.47636 0.31975 0.69957
 C992 C 0.48792 0.34770 0.69896
 C993 C 0.46048 0.35844 0.69404
 C994 C 0.44876 0.33089 0.69488
 C995 C 0.48007 0.31780 0.66994
 C996 C 0.45264 0.32860 0.66508
 C997 C 0.49181 0.34534 0.66908
 C998 C 0.46421 0.35643 0.66441
 C999 C 0.44860 0.38102 0.70669
 C1000 C 0.43781 0.39943 0.71633
 C1001 C 0.49012 0.29531 0.65565
 C1002 C 0.49759 0.27705 0.64302
 H1003 H 0.48148 0.30439 0.71385
 H1004 H 0.50229 0.35584 0.71304
 H1005 H 0.43092 0.32520 0.70563
 H1006 H 0.43824 0.32051 0.65101
 H1007 H 0.50964 0.35101 0.65831
 H1008 H 0.45910 0.37176 0.65009
 C1009 C 0.45755 0.67617 0.79634
 C1010 C 0.47394 0.65286 0.78646
 C1011 C 0.45596 0.63426 0.80146
 C1012 C 0.43943 0.65716 0.81114
 C1013 C 0.47509 0.67791 0.82062
 C1014 C 0.45711 0.65925 0.83553
 C1015 C 0.49166 0.65503 0.81095
 C1016 C 0.47350 0.63604 0.82573
 C1017 C 0.44460 0.60982 0.79189
 C1018 C 0.43450 0.58970 0.78509
 C1019 C 0.48510 0.70190 0.83251
 C1020 C 0.49275 0.72121 0.84354
 H1021 H 0.45112 0.69295 0.78439
 H1022 H 0.48074 0.64992 0.76616
 H1023 H 0.41784 0.65778 0.81112
 H1024 H 0.45027 0.66212 0.85583
 H1025 H 0.51326 0.65445 0.81100
 H1026 H 0.47993 0.61930 0.83773
 C1027 C -0.03640 0.15561 0.33669
 C1028 C -0.05968 0.15382 0.31756
 C1029 C -0.04422 0.13441 0.30092
 C1030 C -0.02108 0.13589 0.31993
 C1031 C -0.02504 0.17791 0.32035
 C1032 C -0.00952 0.15855 0.30372
 C1033 C -0.04819 0.17645 0.30134
 C1034 C -0.03288 0.15666 0.28450
 C1035 C -0.05564 0.11005 0.29121
 C1036 C -0.06578 0.08998 0.28432
 C1037 C -0.01499 0.20182 0.33238
 C1038 C -0.00731 0.22108 0.34349
 H1039 H -0.03777 0.15542 0.35828
 H1040 H -0.08042 0.15162 0.32316
 H1041 H -0.01005 0.11895 0.32747
 H1042 H 0.01122 0.16080 0.29817
 H1043 H -0.05922 0.19340 0.29383
 H1044 H -0.03156 0.15679 0.26291
 C1045 C 0.02002 0.34561 0.32289
 C1046 C 0.04845 0.35530 0.32552
 C1047 C 0.04871 0.36112 0.29616
 C1048 C 0.02039 0.35177 0.29333
 C1049 C 0.03019 0.31815 0.31694
 C1050 C 0.03039 0.32386 0.28756
 C1051 C 0.05848 0.32757 0.31972
 C1052 C 0.05889 0.33367 0.29020
 C1053 C 0.05989 0.38527 0.28596
 C1054 C 0.07004 0.40522 0.27892
 C1055 C 0.02055 0.29468 0.32988
 C1056 C 0.01323 0.27596 0.34190
 H1057 H 0.00392 0.35026 0.33648
 H1058 H 0.05598 0.36847 0.34104
 H1059 H 0.00485 0.36201 0.28236
 H1060 H 0.02284 0.31063 0.27212
 H1061 H 0.07406 0.31739 0.33070
 H1062 H 0.07500 0.32903 0.27662
 C1063 C 0.51943 0.84563 0.82191
 C1064 C 0.54749 0.85599 0.82585
 C1065 C 0.54919 0.86127 0.79644
 C1066 C 0.52125 0.85126 0.79230
 C1067 C 0.53048 0.81831 0.81705
 C1068 C 0.53213 0.82348 0.78762
 C1069 C 0.55840 0.82840 0.82114
 C1070 C 0.56025 0.83395 0.79157
 C1071 C 0.56046 0.88543 0.78633
 C1072 C 0.57066 0.90538 0.77938
 C1073 C 0.52074 0.79483 0.82992
 C1074 C 0.51334 0.77611 0.84190
 H1075 H 0.50254 0.85017 0.83453
 H1076 H 0.55391 0.86960 0.84148
 H1077 H 0.50611 0.86095 0.78031
 H1078 H 0.52569 0.80981 0.77207
 H1079 H 0.57358 0.81876 0.83313
 H1080 H 0.57716 0.82942 0.77897
 C1081 C 0.65760 0.52996 0.15174
 C1082 C 0.66140 0.55917 0.14549
 C1083 C 0.68970 0.55358 0.13779
 C1084 C 0.68612 0.52449 0.14369
 C1085 C 0.66694 0.53524 0.17976
 C1086 C 0.69525 0.52961 0.17212
 C1087 C 0.67054 0.56432 0.17381
 C1088 C 0.69904 0.55888 0.16581
 C1089 C 0.70172 0.56465 0.11446
 C1090 C 0.71099 0.57472 0.09543
 C1091 C 0.65351 0.52567 0.20297
 C1092 C 0.64168 0.51833 0.22179
 H1093 H 0.64041 0.51796 0.14622
 H1094 H 0.64759 0.57143 0.13428
 H1095 H 0.69266 0.50825 0.13103
 H1096 H 0.70901 0.51735 0.18337
 H1097 H 0.66401 0.58059 0.18644
 H1098 H 0.71623 0.57089 0.17132
 C1099 C 0.19661 1.03767 0.67825
 C1100 C 0.19491 1.02511 0.65075
 C1101 C 0.18974 1.05213 0.63912
 C1102 C 0.19165 1.06484 0.66621
 C1103 C 0.16709 1.03396 0.68122
 C1104 C 0.16196 1.06096 0.66954
 C1105 C 0.16516 1.02124 0.65414
 C1106 C 0.16022 1.04840 0.64214
 C1107 C 0.20170 1.06309 0.61571
 C1108 C 0.21093 1.07306 0.59662
 C1109 C 0.15372 1.02447 0.70450
 C1110 C 0.14192 1.01718 0.72336
 H1111 H 0.21141 1.03315 0.69338
 H1112 H 0.20859 1.01050 0.64273
 H1113 H 0.20268 1.08289 0.67092
 H1114 H 0.14829 1.07561 0.67752
 H1115 H 0.15411 1.00319 0.64945
 H1116 H 0.14538 1.05292 0.62705
 C1117 C 0.15874 0.97810 0.84629
 C1118 C 0.16848 0.94973 0.84844
 C1119 C 0.19446 0.95994 0.85943
 C1120 C 0.18493 0.98818 0.85762
 C1121 C 0.17029 0.97959 0.81876
 C1122 C 0.19628 0.98986 0.82969
 C1123 C 0.17984 0.95136 0.82062
 C1124 C 0.20604 0.96141 0.83191
 C1125 C 0.20712 0.94800 0.88201
 C1126 C 0.21676 0.93712 0.90043
 C1127 C 0.15597 0.98966 0.79625
 C1128 C 0.14331 0.99713 0.77797
 H1129 H 0.13913 0.98506 0.85196
 H1130 H 0.15716 0.93312 0.85638
 H1131 H 0.18717 1.00317 0.87310
 H1132 H 0.20753 1.00649 0.82168
 H1133 H 0.17760 0.93633 0.80517
 H1134 H 0.22565 0.95443 0.82626
 C1135 C 0.66568 0.48969 0.34546
 C1136 C 0.66440 0.46083 0.35396
 C1137 C 0.69406 0.46112 0.35792
 C1138 C 0.69558 0.48984 0.34977
 C1139 C 0.66994 0.48074 0.31721
 C1140 C 0.69961 0.48107 0.32109
 C1141 C 0.66847 0.45204 0.32542
 C1142 C 0.69832 0.45218 0.32966
 C1143 C 0.70671 0.44923 0.38054
 C1144 C 0.71635 0.43843 0.39900
 C1145 C 0.65565 0.49079 0.29467
 C1146 C 0.64301 0.49825 0.27637
 H1147 H 0.65210 0.50524 0.35169
 H1148 H 0.65005 0.45240 0.36771
 H1149 H 0.70688 0.50523 0.36006
 H1150 H 0.71391 0.48951 0.30730
 H1151 H 0.65719 0.43660 0.31517
 H1152 H 0.71188 0.43662 0.32342
 C1153 C 0.82238 0.44639 0.66972
 C1154 C 0.79328 0.44687 0.66176
 C1155 C 0.80121 0.45609 0.63445
 C1156 C 0.83015 0.45546 0.64211
 C1157 C 0.82039 0.47501 0.67823
 C1158 C 0.82830 0.48421 0.65091
 C1159 C 0.79143 0.47569 0.67066
 C1160 C 0.79918 0.48473 0.64290
 C1161 C 0.79165 0.44484 0.60994
 C1162 C 0.78486 0.43481 0.58975
 C1163 C 0.83227 0.48491 0.70230
 C1164 C 0.84327 0.49247 0.72168
 H1165 H 0.83204 0.43073 0.68100
 H1166 H 0.77876 0.43138 0.66594
 H1167 H 0.84598 0.44704 0.63013
 H1168 H 0.84283 0.49968 0.64672
 H1169 H 0.77566 0.48413 0.68270
 H1170 H 0.78953 0.50036 0.63157
 C1171 C 0.32262 -0.01095 0.15094
 C1172 C 0.33052 -0.03711 0.13827
 C1173 C 0.30160 -0.04350 0.13375
 C1174 C 0.29350 -0.01748 0.14606
 C1175 C 0.32100 -0.02465 0.17746
 C1176 C 0.29207 -0.03101 0.17304
 C1177 C 0.32905 -0.05065 0.16509
 C1178 C 0.29999 -0.05719 0.16028
 C1179 C 0.29192 -0.05473 0.10928
 C1180 C 0.28504 -0.06474 0.08912
 C1181 C 0.33299 -0.01478 0.20150
 C1182 C 0.34406 -0.00727 0.22086
 H1183 H 0.33206 0.00818 0.14737
 H1184 H 0.34624 -0.03972 0.12372
 H1185 H 0.27876 -0.00397 0.13793
 H1186 H 0.27640 -0.02838 0.18763
 H1187 H 0.34379 -0.06419 0.17316
 H1188 H 0.29057 -0.07633 0.16386
 C1189 C 0.31657 0.01515 0.34418
 C1190 C 0.32525 0.04041 0.35830
 C1191 C 0.29656 0.04820 0.36109
 C1192 C 0.28764 0.02308 0.34732
 C1193 C 0.31740 0.02978 0.31812
 C1194 C 0.28869 0.03754 0.32080
 C1195 C 0.32624 0.05488 0.33196
 C1196 C 0.29740 0.06282 0.33502
 C1197 C 0.28631 0.05933 0.38525
 C1198 C 0.27924 0.06943 0.40521
 C1199 C 0.33038 0.02022 0.29463
 C1200 C 0.34241 0.01296 0.27590
 H1201 H 0.32459 -0.00457 0.34767
 H1202 H 0.34020 0.04168 0.37395
 H1203 H 0.27164 0.01013 0.35394
 H1204 H 0.27381 0.03625 0.30509
 H1205 H 0.34224 0.06787 0.32541
 H1206 H 0.28941 0.08255 0.33152
 C1207 C 0.79451 0.51612 0.83403
 C1208 C 0.80948 0.52156 0.85982
 C1209 C 0.79574 0.54797 0.86194
 C1210 C 0.78055 0.54276 0.83658
 C1211 C 0.81653 0.52958 0.81893
 C1212 C 0.80280 0.55599 0.82107
 C1213 C 0.83163 0.53482 0.84434
 C1214 C 0.81776 0.56134 0.84677
 C1215 C 0.78553 0.55912 0.88611
 C1216 C 0.77850 0.56925 0.90607
 C1217 C 0.82949 0.52001 0.79545
 C1218 C 0.84153 0.51276 0.77672
 H1219 H 0.78509 0.49741 0.82848
 H1220 H 0.81211 0.50752 0.87601
 H1221 H 0.75941 0.54614 0.83369
 H1222 H 0.80019 0.57004 0.80488
 H1223 H 0.85277 0.53148 0.84730
 H1224 H 0.82724 0.58004 0.85225
 C1225 C 0.15904 0.67980 0.51747
 C1226 C 0.13811 0.66630 0.53446
 C1227 C 0.13831 0.69000 0.55279
 C1228 C 0.15886 0.70373 0.53600
 C1229 C 0.18033 0.66746 0.53448
 C1230 C 0.18054 0.69115 0.55282
 C1231 C 0.15974 0.65379 0.55128
 C1232 C 0.15963 0.67764 0.56975
 C1233 C 0.11496 0.70189 0.56385
 C1234 C 0.09591 0.71105 0.57389
 C1235 C 0.20356 0.65415 0.52492
 C1236 C 0.22239 0.64238 0.51758
 H1237 H 0.15910 0.68055 0.49585
 H1238 H 0.12040 0.65622 0.52702
 H1239 H 0.15820 0.72441 0.52982
 H1240 H 0.19825 0.70121 0.56026
 H1241 H 0.16036 0.63312 0.55749
 H1242 H 0.15961 0.67686 0.59138
 C1243 C 0.65853 0.17644 1.01708
 C1244 C 0.63924 0.16408 1.03667
 C1245 C 0.63933 0.18964 1.05229
 C1246 C 0.65823 0.20224 1.03288
 C1247 C 0.68129 0.16695 1.03403
 C1248 C 0.68140 0.19251 1.04965
 C1249 C 0.66235 0.15441 1.05344
 C1250 C 0.66212 0.18013 1.06919
 C1251 C 0.61600 0.20162 1.06331
 C1252 C 0.59697 0.21086 1.07331
 C1253 C 0.70448 0.15355 1.02449
 C1254 C 0.72328 0.14171 1.01718
 H1255 H 0.65734 0.17478 0.99553
 H1256 H 0.62166 0.15253 1.03145
 H1257 H 0.65624 0.22205 1.02454
 H1258 H 0.69900 0.20404 1.05487
 H1259 H 0.66430 0.13461 1.06181
 H1260 H 0.66335 0.18176 1.09074
 C1261 C 0.83700 0.15789 0.95915
 C1262 C 0.83607 0.18369 0.94375
 C1263 C 0.85935 0.19376 0.95984
 C1264 C 0.86057 0.16811 0.97510
 C1265 C 0.81863 0.16975 0.97949
 C1266 C 0.84187 0.17979 0.99563
 C1267 C 0.81738 0.19540 0.96423
 C1268 C 0.84102 0.20569 0.98017
 C1269 C 0.88195 0.20634 0.94790
 C1270 C 0.90038 0.21594 0.93704
 C1271 C 0.79609 0.15552 0.98958
 C1272 C 0.77779 0.14293 0.99707
 H1273 H 0.83510 0.13809 0.95060
 H1274 H 0.83393 0.18542 0.92228
 H1275 H 0.87857 0.15703 0.97945
 H1276 H 0.84396 0.17802 1.01710
 H1277 H 0.79937 0.20645 0.95987
 H1278 H 0.84296 0.22550 0.98868
 C1279 C 0.31615 0.69222 0.45915
 C1280 C 0.33627 0.70843 0.47500
 C1281 C 0.35831 0.69482 0.46017
 C1282 C 0.33853 0.67885 0.44417
 C1283 C 0.31765 0.67075 0.47986
 C1284 C 0.33973 0.65722 0.46502
 C1285 C 0.33739 0.68670 0.49593
 C1286 C 0.35982 0.67335 0.48088
 C1287 C 0.38090 0.70744 0.44823
 C1288 C 0.39933 0.71704 0.43739
 C1289 C 0.29516 0.65647 0.48997
 C1290 C 0.27690 0.64383 0.49747
 H1291 H 0.29795 0.69982 0.45033
 H1292 H 0.33514 0.72964 0.47898
 H1293 H 0.33923 0.67574 0.42277
 H1294 H 0.34090 0.63601 0.46100
 H1295 H 0.33663 0.68977 0.51734
 H1296 H 0.37802 0.66574 0.48969
 C1297 C 0.67195 0.79198 0.47180
 C1298 C 0.64441 0.79636 0.48333
 C1299 C 0.63410 0.80196 0.45577
 C1300 C 0.66118 0.79740 0.44406
 C1301 C 0.67766 0.82119 0.47505
 C1302 C 0.66728 0.82674 0.44751
 C1303 C 0.65057 0.82575 0.48675
 C1304 C 0.63990 0.83115 0.45905
 C1305 C 0.60971 0.79236 0.44431
 C1306 C 0.58962 0.78555 0.43412
 C1307 C 0.70163 0.83309 0.48513
 C1308 C 0.72094 0.84411 0.49279
 H1309 H 0.68542 0.77602 0.47716
 H1310 H 0.63471 0.78375 0.49792
 H1311 H 0.66527 0.78563 0.42638
 H1312 H 0.67693 0.83935 0.43287
 H1313 H 0.64648 0.83753 0.50442
 H1314 H 0.62648 0.84717 0.45371
 C1315 C 0.17087 0.29034 -0.02569
 C1316 C 0.14326 0.29636 -0.01511
 C1317 C 0.13368 0.30031 -0.04323
 C1318 C 0.16083 0.29410 -0.05398
 C1319 C 0.17744 0.31951 -0.02438
 C1320 C 0.16779 0.32342 -0.05247
 C1321 C 0.15029 0.32571 -0.01363
 C1322 C 0.14034 0.32946 -0.04187
 C1323 C 0.10918 0.29074 -0.05446
 C1324 C 0.08899 0.28395 -0.06448
 C1325 C 0.20151 0.33141 -0.01451
 C1326 C 0.22087 0.34244 -0.00699
 H1327 H 0.18372 0.27439 -0.01892
 H1328 H 0.13288 0.28512 0.00012
 H1329 H 0.16489 0.28099 -0.07070
 H1330 H 0.17813 0.33466 -0.06774
 H1331 H 0.14622 0.33884 0.00307
 H1332 H 0.12755 0.34547 -0.04863
 C1333 C 0.34048 0.30564 0.01317
 C1334 C 0.36027 0.31978 0.03122
 C1335 C 0.36133 0.29549 0.04857
 C1336 C 0.34192 0.28111 0.03072
 C1337 C 0.31822 0.31602 0.03014
 C1338 C 0.31922 0.29173 0.04750
 C1339 C 0.33770 0.33030 0.04800
 C1340 C 0.33904 0.30589 0.06549
 C1341 C 0.38556 0.28541 0.05970
 C1342 C 0.40557 0.27849 0.06980
 C1343 C 0.29468 0.32886 0.02057
 C1344 C 0.27591 0.34082 0.01329
 H1345 H 0.34078 0.30567 -0.00846
 H1346 H 0.37740 0.33121 0.02463
 H1347 H 0.34397 0.26075 0.02373
 H1348 H 0.30206 0.28035 0.05408
 H1349 H 0.33573 0.35065 0.05504
 H1350 H 0.33870 0.30590 0.08712
 C1351 C 0.84367 0.81521 0.51513
 C1352 C 0.85852 0.82483 0.53967
 C1353 C 0.86086 0.79652 0.54889
 C1354 C 0.84638 0.78666 0.52450
 C1355 C 0.81800 0.81735 0.53023
 C1356 C 0.82026 0.78902 0.53943
 C1357 C 0.83256 0.82713 0.55460
 C1358 C 0.83518 0.79867 0.56397
 C1359 C 0.88496 0.78626 0.56015
 C1360 C 0.90486 0.77919 0.57035
 C1361 C 0.79458 0.83033 0.52055
 C1362 C 0.77590 0.84238 0.51321
 H1363 H 0.84689 0.82216 0.49493
 H1364 H 0.87449 0.83947 0.53987
 H1365 H 0.85237 0.76989 0.51225
 H1366 H 0.80424 0.77445 0.53921
 H1367 H 0.82665 0.84389 0.56690
 H1368 H 0.83195 0.79175 0.58418
   
