data_POSCAR
  _audit_creation_date              2014-09-24
  _audit_creation_method            'ToBaCCo'
  _symmetry_space_group_name_H-M    'P1'
  _symmetry_Int_Tables_number       1
  _symmetry_cell_setting            triclinic
  loop_
  _symmetry_equiv_pos_as_xyz
 x,y,z
_cell_length_a 67.9670
_cell_length_b 67.9862
_cell_length_c 68.2912
_cell_angle_alpha 90.069800
_cell_angle_beta 90.160200
_cell_angle_gamma 90.018300
loop_
  _atom_site_label
  _atom_site_type_symbol
  _atom_site_fract_x
  _atom_site_fract_y
  _atom_site_fract_z
N1 N 0.17284 0.22319 0.22236
 N2 N 0.17710 0.20761 0.23290
 C3 C 0.16389 0.20596 0.24747
 C4 C 0.15056 0.22133 0.24598
 C5 C 0.15678 0.23197 0.22984
 H6 H 0.16379 0.19425 0.25814
 H7 H 0.15015 0.24511 0.22388
 Cu8 Cu 0.19927 0.19080 0.22624
 Cu9 Cu 0.18812 0.23074 0.19948
 Cu10 Cu 0.22802 0.20126 0.18768
 N11 N 0.22186 0.17454 0.21966
 N12 N 0.23302 0.17871 0.20455
 C13 C 0.24732 0.16511 0.20308
 C14 C 0.24506 0.15161 0.21811
 C15 C 0.22872 0.15814 0.22835
 H16 H 0.25851 0.16511 0.19188
 H17 H 0.22212 0.15130 0.24100
 N18 N 0.22055 0.22471 0.17242
 N19 N 0.20537 0.23592 0.17690
 C20 C 0.20391 0.25045 0.16360
 C21 C 0.21889 0.24834 0.15004
 C22 C 0.22914 0.23184 0.15617
 H23 H 0.19272 0.26173 0.16377
 H24 H 0.24174 0.22527 0.14912
 H25 H 0.19807 0.20285 0.19263
 H26 H 0.21422 0.21817 0.20872
 N27 N 0.67304 0.72342 0.72304
 N28 N 0.67768 0.70832 0.73410
 C29 C 0.66421 0.70654 0.74841
 C30 C 0.65036 0.72137 0.74625
 C31 C 0.65652 0.73179 0.72995
 H32 H 0.66446 0.69528 0.75955
 H33 H 0.64937 0.74434 0.72335
 Cu34 Cu 0.70063 0.69214 0.72855
 Cu35 Cu 0.68845 0.73085 0.70025
 Cu36 Cu 0.72864 0.70170 0.68905
 N37 N 0.72287 0.67555 0.72151
 N38 N 0.73375 0.67937 0.70612
 C39 C 0.74782 0.66555 0.70451
 C40 C 0.74568 0.65224 0.71972
 C41 C 0.72964 0.65911 0.73021
 H42 H 0.75859 0.66509 0.69291
 H43 H 0.72333 0.65264 0.74319
 N44 N 0.72112 0.72493 0.67353
 N45 N 0.70580 0.73602 0.67779
 C46 C 0.70436 0.75048 0.66440
 C47 C 0.71949 0.74843 0.65101
 C48 C 0.72982 0.73204 0.65733
 H49 H 0.69309 0.76168 0.66443
 H50 H 0.74258 0.72556 0.65047
 H51 H 0.69873 0.70278 0.69452
 H52 H 0.71485 0.71908 0.70970
 N53 N 0.31962 0.77110 0.72769
 N54 N 0.31512 0.78643 0.73850
 C55 C 0.32943 0.78933 0.75186
 C56 C 0.34371 0.77497 0.74935
 C57 C 0.33688 0.76363 0.73384
 H58 H 0.32942 0.80112 0.76249
 H59 H 0.34380 0.75082 0.72750
 Cu60 Cu 0.29089 0.80099 0.73425
 Cu61 Cu 0.30251 0.76183 0.70674
 Cu62 Cu 0.26802 0.79591 0.69080
 N63 N 0.27152 0.81992 0.72528
 N64 N 0.26288 0.81808 0.70816
 C65 C 0.25043 0.83322 0.70551
 C66 C 0.25126 0.84538 0.72189
 C67 C 0.26492 0.83632 0.73413
 H68 H 0.24144 0.83507 0.69258
 H69 H 0.26988 0.84122 0.74836
 N70 N 0.27520 0.77229 0.67560
 N71 N 0.28804 0.75917 0.68187
 C72 C 0.28962 0.74473 0.66847
 C73 C 0.27708 0.74887 0.65297
 C74 C 0.26818 0.76648 0.65807
 H75 H 0.29921 0.73215 0.66995
 H76 H 0.25747 0.77457 0.64959
 H77 H 0.29647 0.79067 0.70067
 H78 H 0.27604 0.77650 0.71212
 N79 N 0.82684 0.27621 0.22467
 N80 N 0.82199 0.29115 0.23585
 C81 C 0.83537 0.29297 0.25031
 C82 C 0.84948 0.27832 0.24816
 C83 C 0.84343 0.26797 0.23164
 H84 H 0.83488 0.30428 0.26141
 H85 H 0.85056 0.25547 0.22495
 Cu86 Cu 0.79895 0.30722 0.23024
 Cu87 Cu 0.81158 0.26880 0.20168
 Cu88 Cu 0.77131 0.29780 0.19025
 N89 N 0.77675 0.32377 0.22298
 N90 N 0.76601 0.32002 0.20740
 C91 C 0.75196 0.33386 0.20568
 C92 C 0.75397 0.34710 0.22101
 C93 C 0.76990 0.34017 0.23169
 H94 H 0.74130 0.33439 0.19393
 H95 H 0.77611 0.34659 0.24480
 N96 N 0.77901 0.27468 0.17466
 N97 N 0.79436 0.26364 0.17900
 C98 C 0.79594 0.24925 0.16553
 C99 C 0.78085 0.25129 0.15199
 C100 C 0.77041 0.26760 0.15832
 H101 H 0.80726 0.23811 0.16559
 H102 H 0.75766 0.27406 0.15138
 H103 H 0.80119 0.29688 0.19612
 H104 H 0.78506 0.28034 0.21091
 N105 N 0.82719 0.72279 0.27773
 N106 N 0.82285 0.70727 0.26708
 C107 C 0.83616 0.70554 0.25260
 C108 C 0.84962 0.72079 0.25426
 C109 C 0.84339 0.73144 0.27042
 H110 H 0.83623 0.69386 0.24187
 H111 H 0.85010 0.74450 0.27650
 Cu112 Cu 0.80049 0.69065 0.27352
 Cu113 Cu 0.81183 0.73040 0.30055
 Cu114 Cu 0.77163 0.70119 0.31200
 N115 N 0.77774 0.67452 0.27989
 N116 N 0.76654 0.67872 0.29498
 C117 C 0.75217 0.66518 0.29633
 C118 C 0.75441 0.65170 0.28125
 C119 C 0.77083 0.65817 0.27111
 H120 H 0.74094 0.66520 0.30750
 H121 H 0.77746 0.65131 0.25847
 N122 N 0.77921 0.72455 0.32741
 N123 N 0.79450 0.73565 0.32305
 C124 C 0.79603 0.75014 0.33643
 C125 C 0.78097 0.74811 0.34992
 C126 C 0.77060 0.73170 0.34366
 H127 H 0.80731 0.76133 0.33636
 H128 H 0.75792 0.72521 0.35062
 H129 H 0.80161 0.70257 0.30721
 H130 H 0.78567 0.71807 0.29114
 N131 N 0.32833 0.22264 -0.22279
 N132 N 0.32406 0.20706 -0.23336
 C133 C 0.33737 0.20531 -0.24783
 C134 C 0.35084 0.22064 -0.24629
 C135 C 0.34448 0.23134 -0.23014
 H136 H 0.33726 0.19361 -0.25853
 H137 H 0.35109 0.24440 -0.22395
 Cu138 Cu 0.30175 0.19038 -0.22685
 Cu139 Cu 0.31295 0.23029 -0.19998
 Cu140 Cu 0.27283 0.20100 -0.18844
 N141 N 0.27903 0.17423 -0.22043
 N142 N 0.26781 0.17846 -0.20537
 C143 C 0.25346 0.16490 -0.20397
 C144 C 0.25575 0.15136 -0.21899
 C145 C 0.27216 0.15782 -0.22915
 H146 H 0.24223 0.16495 -0.19281
 H147 H 0.27881 0.15092 -0.24175
 N148 N 0.28034 0.22443 -0.17311
 N149 N 0.29560 0.23557 -0.17749
 C150 C 0.29706 0.25011 -0.16416
 C151 C 0.28200 0.24808 -0.15068
 C152 C 0.27170 0.23161 -0.15689
 H153 H 0.30831 0.26134 -0.16426
 H154 H 0.25903 0.22510 -0.14992
 H155 H 0.30281 0.20246 -0.19322
 H156 H 0.28684 0.21783 -0.20937
 N157 N 0.67424 0.27611 -0.22306
 N158 N 0.67910 0.29100 -0.23427
 C159 C 0.66574 0.29271 -0.24876
 C160 C 0.65164 0.27806 -0.24658
 C161 C 0.65767 0.26781 -0.23002
 H162 H 0.66623 0.30397 -0.25989
 H163 H 0.65055 0.25533 -0.22331
 Cu164 Cu 0.70211 0.30713 -0.22866
 Cu165 Cu 0.68949 0.26883 -0.20003
 Cu166 Cu 0.72973 0.29795 -0.18863
 N167 N 0.72431 0.32373 -0.22145
 N168 N 0.73502 0.32011 -0.20582
 C169 C 0.74903 0.33400 -0.20412
 C170 C 0.74704 0.34713 -0.21951
 C171 C 0.73116 0.34008 -0.23021
 H172 H 0.75981 0.33448 -0.19247
 H173 H 0.72480 0.34657 -0.24320
 N174 N 0.72205 0.27488 -0.17301
 N175 N 0.70670 0.26380 -0.17734
 C176 C 0.70513 0.24947 -0.16384
 C177 C 0.72021 0.25159 -0.15030
 C178 C 0.73064 0.26788 -0.15665
 H179 H 0.69382 0.23830 -0.16389
 H180 H 0.74339 0.27438 -0.14972
 H181 H 0.69987 0.29694 -0.19452
 H182 H 0.71603 0.28037 -0.20926
 N183 N 0.17452 0.77679 0.27664
 N184 N 0.17926 0.79185 0.26559
 C185 C 0.16588 0.79360 0.25111
 C186 C 0.15199 0.77880 0.25315
 C187 C 0.15803 0.76842 0.26956
 H188 H 0.16622 0.80485 0.23996
 H189 H 0.15081 0.75590 0.27612
 Cu190 Cu 0.20214 0.80810 0.27136
 Cu191 Cu 0.18977 0.76945 0.29964
 Cu192 Cu 0.22977 0.79880 0.31134
 N193 N 0.22422 0.82481 0.27872
 N194 N 0.23494 0.82113 0.29431
 C195 C 0.24890 0.83505 0.29611
 C196 C 0.24689 0.84836 0.28079
 C197 C 0.23098 0.84125 0.27007
 H198 H 0.25957 0.83542 0.30786
 H199 H 0.22459 0.84757 0.25702
 N200 N 0.22222 0.77555 0.32678
 N201 N 0.20697 0.76439 0.32233
 C202 C 0.20547 0.74994 0.33572
 C203 C 0.22050 0.75206 0.34930
 C204 C 0.23082 0.76848 0.34311
 H205 H 0.19424 0.73869 0.33555
 H206 H 0.24350 0.77501 0.35012
 H207 H 0.19992 0.79760 0.30541
 H208 H 0.21623 0.78128 0.29055
 N209 N 0.47433 0.42367 0.47332
 N210 N 0.45934 0.42852 0.48442
 C211 C 0.45765 0.41527 0.49896
 C212 C 0.47240 0.40134 0.49690
 C213 C 0.48271 0.40723 0.48043
 H214 H 0.44646 0.41572 0.51015
 H215 H 0.49516 0.39993 0.47383
 Cu216 Cu 0.44309 0.45136 0.47863
 Cu217 Cu 0.48153 0.43870 0.45020
 Cu218 Cu 0.45218 0.47863 0.43848
 N219 N 0.42637 0.47338 0.47125
 N220 N 0.42999 0.48398 0.45560
 C221 C 0.41606 0.49793 0.45381
 C222 C 0.40290 0.49600 0.46916
 C223 C 0.40997 0.48022 0.47993
 H224 H 0.41542 0.50847 0.44200
 H225 H 0.40366 0.47412 0.49308
 N226 N 0.47530 0.47091 0.42294
 N227 N 0.48647 0.45569 0.42739
 C228 C 0.50083 0.45407 0.41394
 C229 C 0.49863 0.46899 0.40030
 C230 C 0.48226 0.47937 0.40655
 H231 H 0.51207 0.44285 0.41409
 H232 H 0.47570 0.49200 0.39952
 H233 H 0.46982 0.46523 0.45925
 H234 H 0.45337 0.44882 0.44455
 N235 N -0.02685 -0.07704 0.97207
 N236 N -0.04243 -0.07275 0.98258
 C237 C -0.04420 -0.08608 0.99705
 C238 C -0.02892 -0.09950 0.99552
 C239 C -0.01820 -0.09322 0.97945
 H240 H -0.05593 -0.08618 1.00769
 H241 H -0.00510 -0.09990 0.97349
 Cu242 Cu -0.05907 -0.05042 0.97602
 Cu243 Cu -0.01915 -0.06162 0.94932
 Cu244 Cu -0.04831 -0.02142 0.93768
 N245 N -0.07512 -0.02763 0.96955
 N246 N -0.07085 -0.01638 0.95452
 C247 C -0.08435 -0.00196 0.95313
 C248 C -0.09787 -0.00424 0.96812
 C249 C -0.09148 -0.02072 0.97825
 H250 H -0.08427 0.00932 0.94200
 H251 H -0.09837 -0.02738 0.99084
 N252 N -0.02488 -0.02895 0.92245
 N253 N -0.01380 -0.04424 0.92688
 C254 C 0.00076 -0.04573 0.91363
 C255 C -0.00121 -0.03064 0.90014
 C256 C -0.01765 -0.02030 0.90626
 H257 H 0.01194 -0.05701 0.91378
 H258 H -0.02411 -0.00760 0.89927
 H259 H -0.03155 -0.03551 0.95869
 H260 H -0.04697 -0.05140 0.94244
 N261 N 1.02608 0.57574 0.97318
 N262 N 1.04108 0.57095 0.98436
 C263 C 1.04280 0.58428 0.99887
 C264 C 1.02805 0.59821 0.99670
 C265 C 1.01772 0.59223 0.98020
 H266 H 1.05399 0.58389 1.01012
 H267 H 1.00526 0.59950 0.97353
 Cu268 Cu 1.05729 0.54805 0.97873
 Cu269 Cu 1.01882 0.56056 0.95010
 Cu270 Cu 1.04808 0.52049 0.93869
 N271 N 1.07394 0.52593 0.97155
 N272 N 1.07028 0.51522 0.95594
 C273 C 1.08418 0.50122 0.95429
 C274 C 1.09736 0.50325 0.96969
 C275 C 1.09033 0.51912 0.98034
 H276 H 1.08478 0.49060 0.94253
 H277 H 1.09668 0.52533 0.99348
 N278 N 1.02496 0.52815 0.92301
 N279 N 1.01383 0.54342 0.92735
 C280 C 0.99947 0.54499 0.91382
 C281 C 1.00163 0.52998 0.90024
 C282 C 1.01797 0.51960 0.90661
 H283 H 0.98826 0.55625 0.91387
 H284 H 1.02451 0.50692 0.89966
 H285 H 1.03050 0.53407 0.95931
 H286 H 1.04696 0.55034 0.94459
 N287 N 0.52724 0.07632 0.47280
 N288 N 0.54280 0.07209 0.48344
 C289 C 0.54449 0.08545 0.49793
 C290 C 0.52918 0.09883 0.49627
 C291 C 0.51853 0.09249 0.48011
 H292 H 0.55620 0.08562 0.50866
 H293 H 0.50542 0.09913 0.47405
 Cu294 Cu 0.55953 0.04981 0.47698
 Cu295 Cu 0.51965 0.06085 0.44997
 Cu296 Cu 0.54902 0.02077 0.43851
 N297 N 0.57572 0.02710 0.47061
 N298 N 0.57153 0.01583 0.45553
 C299 C 0.58511 0.00150 0.45417
 C300 C 0.59862 0.00386 0.46924
 C301 C 0.59213 0.02029 0.47938
 H302 H 0.58510 -0.00977 0.44301
 H303 H 0.59900 0.02700 0.49201
 N304 N 0.52562 0.02818 0.42309
 N305 N 0.51443 0.04341 0.42746
 C306 C 0.49991 0.04480 0.41407
 C307 C 0.50204 0.02975 0.40055
 C308 C 0.51852 0.01951 0.40679
 H309 H 0.48882 0.05618 0.41398
 H310 H 0.52493 0.00670 0.39997
 H311 H 0.53213 0.03480 0.45939
 H312 H 0.54752 0.05075 0.44331
 N313 N -0.02565 0.07711 0.52718
 N314 N -0.04073 0.07243 0.51604
 C315 C -0.04248 0.08587 0.50167
 C316 C -0.02767 0.09974 0.50388
 C317 C -0.01727 0.09363 0.52027
 H318 H -0.05372 0.08557 0.49046
 H319 H -0.00474 0.10080 0.52693
 Cu320 Cu -0.05690 0.04947 0.52155
 Cu321 Cu -0.01824 0.06174 0.55006
 Cu322 Cu -0.04739 0.02150 0.56115
 N323 N -0.07346 0.02719 0.52851
 N324 N -0.06965 0.01632 0.54394
 C325 C -0.08345 0.00221 0.54548
 C326 C -0.09674 0.00433 0.53020
 C327 C -0.08988 0.02038 0.51973
 H328 H -0.08391 -0.00856 0.55709
 H329 H -0.09635 0.02668 0.50670
 N330 N -0.02422 0.02910 0.57682
 N331 N -0.01311 0.04441 0.57259
 C332 C 0.00132 0.04589 0.58607
 C333 C -0.00079 0.03078 0.59951
 C334 C -0.01717 0.02044 0.59312
 H335 H 0.01236 0.05732 0.58625
 H336 H -0.02351 0.00753 0.59981
 H337 H -0.02996 0.03533 0.54060
 H338 H -0.04632 0.05142 0.55564
 N339 N 0.47293 0.57782 0.02685
 N340 N 0.45740 0.57347 0.01621
 C341 C 0.45562 0.58679 0.00173
 C342 C 0.47085 0.60027 0.00338
 C343 C 0.48155 0.59404 0.01953
 H344 H 0.44391 0.58685 -0.00901
 H345 H 0.49463 0.60075 0.02558
 Cu346 Cu 0.44081 0.55107 0.02262
 Cu347 Cu 0.48065 0.56240 0.04964
 Cu348 Cu 0.45159 0.52207 0.06099
 N349 N 0.42479 0.52823 0.02895
 N350 N 0.42909 0.51698 0.04399
 C351 C 0.41562 0.50254 0.04531
 C352 C 0.40206 0.50480 0.03028
 C353 C 0.40842 0.52130 0.02018
 H354 H 0.41573 0.49126 0.05644
 H355 H 0.40149 0.52797 0.00758
 N356 N 0.47496 0.52965 0.07640
 N357 N 0.48601 0.54500 0.07210
 C358 C 0.50052 0.54648 0.08549
 C359 C 0.49856 0.53134 0.09891
 C360 C 0.48217 0.52097 0.09261
 H361 H 0.51168 0.55780 0.08546
 H362 H 0.47572 0.50823 0.09952
 H363 H 0.46836 0.53627 0.04013
 H364 H 0.45286 0.55208 0.05629
 N365 N 0.52699 -0.07610 0.02707
 N366 N 0.54264 -0.07191 0.01662
 C367 C 0.54436 -0.08524 0.00212
 C368 C 0.52898 -0.09856 0.00355
 C369 C 0.51825 -0.09222 0.01959
 H370 H 0.55613 -0.08541 -0.00848
 H371 H 0.50506 -0.09880 0.02547
 Cu372 Cu 0.55941 -0.04969 0.02332
 Cu373 Cu 0.51931 -0.06064 0.04983
 Cu374 Cu 0.54872 -0.02064 0.06170
 N375 N 0.57562 -0.02702 0.02992
 N376 N 0.57137 -0.01575 0.04496
 C377 C 0.58496 -0.00143 0.04646
 C378 C 0.59854 -0.00379 0.03153
 C379 C 0.59207 -0.02022 0.02132
 H380 H 0.58491 0.00986 0.05761
 H381 H 0.59898 -0.02692 0.00874
 N382 N 0.52518 -0.02801 0.07682
 N383 N 0.51400 -0.04323 0.07231
 C384 C 0.49940 -0.04463 0.08552
 C385 C 0.50144 -0.02956 0.09906
 C386 C 0.51797 -0.01933 0.09301
 H387 H 0.48814 -0.05584 0.08531
 H388 H 0.52451 -0.00668 0.10007
 H389 H 0.53194 -0.03461 0.04059
 H390 H 0.54717 -0.05061 0.05685
 N391 N 1.02169 0.43043 0.52205
 N392 N 1.03701 0.43492 0.51127
 C393 C 1.03987 0.42061 0.49794
 C394 C 1.02549 0.40634 0.50044
 C395 C 1.01419 0.41317 0.51591
 H396 H 1.05164 0.42061 0.48733
 H397 H 1.00137 0.40627 0.52223
 Cu398 Cu 1.05158 0.45915 0.51549
 Cu399 Cu 1.01244 0.44756 0.54291
 Cu400 Cu 1.04651 0.48211 0.55885
 N401 N 1.07051 0.47855 0.52446
 N402 N 1.06866 0.48724 0.54154
 C403 C 1.08380 0.49974 0.54417
 C404 C 1.09588 0.49883 0.52785
 C405 C 1.08692 0.48515 0.51565
 H406 H 1.08583 0.50874 0.55706
 H407 H 1.09186 0.48035 0.50140
 N408 N 1.02291 0.47493 0.57399
 N409 N 1.00979 0.46206 0.56773
 C410 C 0.99534 0.46051 0.58108
 C411 C 0.99947 0.47309 0.59653
 C412 C 1.01709 0.48199 0.59147
 H413 H 0.98275 0.45092 0.57958
 H414 H 1.02517 0.49274 0.59993
 H415 H 1.02710 0.47402 0.53747
 H416 H 1.04128 0.45364 0.54906
 C417 C 0.35187 -0.01739 0.25342
 C418 C 0.36213 0.00013 0.24978
 C419 C 0.35171 0.01756 0.24620
 C420 C 0.33110 0.01749 0.24628
 C421 C 0.32089 -0.00003 0.24990
 C422 C 0.33126 -0.01747 0.25345
 C423 C 0.38375 0.00021 0.24973
 C424 C 0.39401 -0.00284 0.23220
 C425 C 0.41462 -0.00279 0.23216
 C426 C 0.42498 0.00034 0.24965
 C427 C 0.41477 0.00341 0.26717
 C428 C 0.39416 0.00332 0.26722
 H429 H 0.35992 -0.03087 0.25617
 H430 H 0.35964 0.03111 0.24340
 H431 H 0.38596 -0.00526 0.21867
 H432 H 0.38623 0.00568 0.28077
 H433 H 0.30494 -0.00009 0.24994
 H434 H 0.44094 0.00038 0.24962
 C435 C 0.14910 -0.01818 0.74726
 C436 C 0.13886 -0.00055 0.75031
 C437 C 0.14929 0.01698 0.75345
 C438 C 0.16990 0.01687 0.75356
 C439 C 0.18010 -0.00077 0.75049
 C440 C 0.16971 -0.01830 0.74734
 C441 C 0.11724 -0.00042 0.75022
 C442 C 0.10686 -0.00381 0.76762
 C443 C 0.08625 -0.00364 0.76755
 C444 C 0.07601 -0.00013 0.75008
 C445 C 0.08633 0.00325 0.73268
 C446 C 0.10694 0.00311 0.73275
 H447 H 0.14104 -0.03173 0.74482
 H448 H 0.14138 0.03061 0.75582
 H449 H 0.11482 -0.00653 0.78113
 H450 H 0.11496 0.00573 0.71930
 H451 H 0.19605 -0.00086 0.75057
 H452 H 0.06005 -0.00001 0.75002
 C453 C 0.64805 0.48211 0.24689
 C454 C 0.63773 0.49970 0.24996
 C455 C 0.64808 0.51726 0.25315
 C456 C 0.66869 0.51724 0.25330
 C457 C 0.67896 0.49965 0.25021
 C458 C 0.66866 0.48209 0.24700
 C459 C 0.61611 0.49972 0.24985
 C460 C 0.60573 0.49614 0.26720
 C461 C 0.58512 0.49621 0.26711
 C462 C 0.57488 0.49983 0.24965
 C463 C 0.58521 0.50340 0.23230
 C464 C 0.60582 0.50336 0.23240
 H465 H 0.64005 0.46853 0.24442
 H466 H 0.64010 0.53086 0.25555
 H467 H 0.61368 0.49334 0.28070
 H468 H 0.61384 0.50613 0.21898
 H469 H 0.69492 0.49963 0.25031
 H470 H 0.55892 0.49988 0.24958
 C471 C 0.85200 0.48244 0.75273
 C472 C 0.86227 0.49999 0.74928
 C473 C 0.85186 0.51749 0.74601
 C474 C 0.83125 0.51745 0.74618
 C475 C 0.82104 0.49989 0.74962
 C476 C 0.83140 0.48239 0.75289
 C477 C 0.88389 0.50004 0.74917
 C478 C 0.89410 0.49689 0.73162
 C479 C 0.91471 0.49691 0.73152
 C480 C 0.92512 0.50009 0.74897
 C481 C 0.91496 0.50324 0.76651
 C482 C 0.89436 0.50321 0.76661
 H483 H 0.86005 0.46891 0.75527
 H484 H 0.85979 0.53106 0.74336
 H485 H 0.88601 0.49444 0.71813
 H486 H 0.88647 0.50564 0.78018
 H487 H 0.80508 0.49986 0.74975
 H488 H 0.94108 0.50012 0.74890
 C489 C 0.25404 0.35562 -0.01770
 C490 C 0.25034 0.36599 -0.00034
 C491 C 0.24666 0.35568 0.01705
 C492 C 0.24671 0.33508 0.01708
 C493 C 0.25039 0.32477 -0.00030
 C494 C 0.25404 0.33502 -0.01769
 C495 C 0.25029 0.38760 -0.00036
 C496 C 0.23267 0.39787 -0.00348
 C497 C 0.23262 0.41848 -0.00355
 C498 C 0.25018 0.42882 -0.00045
 C499 C 0.26780 0.41860 0.00270
 C500 C 0.26785 0.39799 0.00271
 H501 H 0.25687 0.36359 -0.03115
 H502 H 0.24380 0.36369 0.03049
 H503 H 0.21909 0.38984 -0.00588
 H504 H 0.28147 0.39005 0.00514
 H505 H 0.25040 0.30882 -0.00029
 H506 H 0.25014 0.44478 -0.00047
 C507 C 0.74737 0.14460 -0.01691
 C508 C 0.75063 0.13421 0.00052
 C509 C 0.75389 0.14448 0.01805
 C510 C 0.75390 0.16509 0.01815
 C511 C 0.75062 0.17543 0.00071
 C512 C 0.74735 0.16520 -0.01682
 C513 C 0.75062 0.11259 0.00042
 C514 C 0.76808 0.10226 -0.00321
 C515 C 0.76807 0.08166 -0.00331
 C516 C 0.75057 0.07137 0.00020
 C517 C 0.73309 0.08166 0.00382
 C518 C 0.73313 0.10226 0.00395
 H519 H 0.74484 0.13666 -0.03046
 H520 H 0.75642 0.13645 0.03153
 H521 H 0.78161 0.11025 -0.00594
 H522 H 0.71962 0.11024 0.00675
 H523 H 0.75061 0.19138 0.00078
 H524 H 0.75055 0.05542 0.00011
 C525 C 0.24742 0.64421 0.48207
 C526 C 0.25053 0.63371 0.49947
 C527 C 0.25368 0.64388 0.51708
 C528 C 0.25372 0.66448 0.51729
 C529 C 0.25060 0.67493 0.49989
 C530 C 0.24744 0.66481 0.48228
 C531 C 0.25047 0.61210 0.49925
 C532 C 0.26797 0.60174 0.49588
 C533 C 0.26792 0.58114 0.49569
 C534 C 0.25034 0.57087 0.49885
 C535 C 0.23283 0.58117 0.50222
 C536 C 0.23290 0.60178 0.50242
 H537 H 0.24496 0.63635 0.46845
 H538 H 0.25607 0.63577 0.53054
 H539 H 0.28156 0.60972 0.49343
 H540 H 0.21935 0.60978 0.50504
 H541 H 0.25060 0.69088 0.50006
 H542 H 0.25029 0.55492 0.49871
 C543 C 0.75427 0.85565 0.48315
 C544 C 0.75090 0.86604 0.50057
 C545 C 0.74747 0.85576 0.51803
 C546 C 0.74742 0.83516 0.51806
 C547 C 0.75078 0.82482 0.50063
 C548 C 0.75420 0.83505 0.48318
 C549 C 0.75089 0.88766 0.50052
 C550 C 0.73331 0.89796 0.49728
 C551 C 0.73330 0.91856 0.49717
 C552 C 0.75087 0.92888 0.50032
 C553 C 0.76845 0.91863 0.50358
 C554 C 0.76846 0.89803 0.50367
 H555 H 0.75690 0.86360 0.46965
 H556 H 0.74485 0.86379 0.53150
 H557 H 0.71973 0.88995 0.49483
 H558 H 0.78206 0.89007 0.50617
 H559 H 0.75073 0.80887 0.50065
 H560 H 0.75086 0.94483 0.50024
 C561 C -0.01686 0.25421 0.35503
 C562 C 0.00077 0.25110 0.36527
 C563 C 0.01827 0.24780 0.35494
 C564 C 0.01813 0.24763 0.33443
 C565 C 0.00050 0.25074 0.32424
 C566 C -0.01700 0.25402 0.33452
 C567 C 0.00090 0.25126 0.38679
 C568 C -0.00210 0.23375 0.39720
 C569 C -0.00209 0.23392 0.41771
 C570 C 0.00094 0.25160 0.42783
 C571 C 0.00395 0.26912 0.41748
 C572 C 0.00392 0.26894 0.39696
 H573 H -0.03040 0.25675 0.36301
 H574 H 0.03191 0.24538 0.36286
 H575 H -0.00446 0.22009 0.38934
 H576 H 0.00621 0.28249 0.38892
 H577 H 0.00039 0.25060 0.30836
 H578 H 0.00093 0.25174 0.44371
 C579 C -0.01751 0.74668 0.14606
 C580 C -0.00001 0.74995 0.13572
 C581 C 0.01760 0.75324 0.14596
 C582 C 0.01772 0.75325 0.16647
 C583 C 0.00022 0.74998 0.17675
 C584 C -0.01739 0.74670 0.16657
 C585 C -0.00012 0.74991 0.11420
 C586 C -0.00330 0.76746 0.10390
 C587 C -0.00340 0.76740 0.08339
 C588 C -0.00033 0.74980 0.07317
 C589 C 0.00285 0.73225 0.08342
 C590 C 0.00294 0.73231 0.10393
 H591 H -0.03113 0.74413 0.13814
 H592 H 0.03114 0.75577 0.13797
 H593 H -0.00568 0.78107 0.11184
 H594 H 0.00540 0.71873 0.11189
 H595 H 0.00032 0.74998 0.19264
 H596 H -0.00041 0.74976 0.05729
 C597 C 0.48314 0.24668 0.64633
 C598 C 0.50069 0.24991 0.63606
 C599 C 0.51827 0.25312 0.64637
 C600 C 0.51832 0.25309 0.66688
 C601 C 0.50077 0.24986 0.67709
 C602 C 0.48318 0.24666 0.66684
 C603 C 0.50065 0.24991 0.61454
 C604 C 0.49756 0.26749 0.60427
 C605 C 0.49754 0.26749 0.58376
 C606 C 0.50062 0.24990 0.57351
 C607 C 0.50371 0.23232 0.58373
 C608 C 0.50372 0.23232 0.60424
 H609 H 0.46954 0.24419 0.63836
 H610 H 0.53184 0.25561 0.63843
 H611 H 0.49518 0.28109 0.61223
 H612 H 0.50612 0.21873 0.61218
 H613 H 0.50080 0.24984 0.69297
 H614 H 0.50061 0.24990 0.55763
 C615 C 0.48121 0.75381 0.85293
 C616 C 0.49889 0.75077 0.86312
 C617 C 0.51637 0.74759 0.85274
 C618 C 0.51618 0.74743 0.83223
 C619 C 0.49851 0.75048 0.82209
 C620 C 0.48102 0.75367 0.83242
 C621 C 0.49908 0.75083 0.88464
 C622 C 0.49590 0.73330 0.89497
 C623 C 0.49610 0.73335 0.91548
 C624 C 0.49946 0.75092 0.92567
 C625 C 0.50263 0.76846 0.91540
 C626 C 0.50244 0.76841 0.89489
 H627 H 0.46769 0.75624 0.86096
 H628 H 0.53004 0.74521 0.86062
 H629 H 0.49331 0.71971 0.88706
 H630 H 0.50490 0.78197 0.88691
 H631 H 0.49835 0.75035 0.80620
 H632 H 0.49961 0.75096 0.94156
 C633 C 0.11392 0.21825 0.28781
 C634 C 0.09989 0.23216 0.28208
 C635 C 0.10250 0.24269 0.26470
 C636 C 0.11902 0.23927 0.25302
 C637 C 0.13319 0.22522 0.25856
 C638 C 0.13045 0.21479 0.27616
 C639 C 0.08267 0.23546 0.29385
 C640 C 0.06811 0.23822 0.30350
 C641 C 0.05090 0.24147 0.31455
 C642 C 0.03605 0.24426 0.32375
 H643 H 0.11205 0.21002 0.30125
 H644 H 0.09170 0.25347 0.26009
 H645 H 0.12047 0.24751 0.23957
 H646 H 0.14106 0.20399 0.28103
 C647 C 0.60494 0.74587 0.76749
 C648 C 0.59869 0.73180 0.78104
 C649 C 0.60941 0.71439 0.78338
 C650 C 0.62626 0.71102 0.77217
 C651 C 0.63263 0.72503 0.75840
 C652 C 0.62177 0.74254 0.75625
 C653 C 0.58117 0.73514 0.79235
 C654 C 0.56641 0.73795 0.80169
 C655 C 0.54903 0.74126 0.81247
 C656 C 0.53410 0.74408 0.82155
 H657 H 0.59676 0.75941 0.76557
 H658 H 0.60468 0.70337 0.79381
 H659 H 0.63410 0.69733 0.77419
 H660 H 0.62625 0.75375 0.74597
 C661 C 0.38288 0.78035 0.78882
 C662 C 0.39716 0.76705 0.78235
 C663 C 0.39401 0.75636 0.76512
 C664 C 0.37665 0.75892 0.75439
 C665 C 0.36216 0.77226 0.76074
 C666 C 0.36551 0.78296 0.77811
 C667 C 0.41505 0.76436 0.79336
 C668 C 0.43008 0.76201 0.80248
 C669 C 0.44773 0.75918 0.81303
 C670 C 0.46287 0.75670 0.82193
 H671 H 0.38516 0.78870 0.80217
 H672 H 0.40498 0.74604 0.75995
 H673 H 0.37475 0.75053 0.74106
 H674 H 0.35471 0.79325 0.78358
 C675 C -0.10378 0.25630 0.26699
 C676 C -0.09975 0.26850 0.28298
 C677 C -0.11262 0.28383 0.28758
 C678 C -0.12943 0.28705 0.27619
 C679 C -0.13369 0.27495 0.25988
 C680 C -0.12056 0.25945 0.25554
 C681 C -0.08225 0.26542 0.29450
 C682 C -0.06749 0.26283 0.30398
 C683 C -0.05007 0.25980 0.31485
 C684 C -0.03507 0.25718 0.32393
 H685 H -0.09389 0.24437 0.26329
 H686 H -0.10963 0.29338 0.29995
 H687 H -0.13892 0.29911 0.28028
 H688 H -0.12303 0.24966 0.24330
 C689 C -0.10201 0.74183 0.23601
 C690 C -0.09937 0.73134 0.21859
 C691 C -0.11346 0.71754 0.21269
 C692 C -0.13010 0.71417 0.22421
 C693 C -0.13287 0.72457 0.24184
 C694 C -0.11863 0.73850 0.24755
 C695 C -0.08206 0.73459 0.20693
 C696 C -0.06744 0.73733 0.19736
 C697 C -0.05018 0.74056 0.18639
 C698 C -0.03531 0.74334 0.17724
 H699 H -0.09116 0.75252 0.24074
 H700 H -0.11156 0.70934 0.19921
 H701 H -0.14075 0.70345 0.21921
 H702 H -0.12011 0.74670 0.26104
 C703 C 0.39650 0.24389 0.73400
 C704 C 0.40098 0.23124 0.71850
 C705 C 0.38873 0.21523 0.71449
 C706 C 0.37210 0.21176 0.72599
 C707 C 0.36742 0.22430 0.74183
 C708 C 0.37990 0.24050 0.74555
 C709 C 0.41833 0.23455 0.70693
 C710 C 0.43299 0.23732 0.69742
 C711 C 0.45030 0.24056 0.68653
 C712 C 0.46522 0.24334 0.67743
 H713 H 0.40591 0.25635 0.73724
 H714 H 0.39207 0.20532 0.70250
 H715 H 0.36311 0.19916 0.72238
 H716 H 0.37709 0.25064 0.75741
 C717 C 0.60490 0.25591 0.73463
 C718 C 0.60092 0.26797 0.71856
 C719 C 0.61383 0.28325 0.71389
 C720 C 0.63062 0.28655 0.72530
 C721 C 0.63483 0.27459 0.74169
 C722 C 0.62167 0.25914 0.74609
 C723 C 0.58345 0.26480 0.70702
 C724 C 0.56870 0.26215 0.69754
 C725 C 0.55131 0.25902 0.68664
 C726 C 0.53634 0.25633 0.67752
 H727 H 0.59499 0.24402 0.73839
 H728 H 0.61088 0.29269 0.70145
 H729 H 0.64014 0.29856 0.72115
 H730 H 0.62409 0.24946 0.75840
 C731 C 0.11139 0.78576 0.21542
 C732 C 0.10046 0.76850 0.21783
 C733 C 0.10645 0.75452 0.23162
 C734 C 0.12325 0.75780 0.24303
 C735 C 0.13432 0.77517 0.24082
 C736 C 0.12820 0.78908 0.22681
 C737 C 0.08295 0.76525 0.20638
 C738 C 0.06818 0.76253 0.19695
 C739 C 0.05076 0.75933 0.18611
 C740 C 0.03577 0.75657 0.17704
 H741 H 0.10686 0.79672 0.20482
 H742 H 0.09810 0.74109 0.23360
 H743 H 0.12752 0.74666 0.25349
 H744 H 0.13620 0.80266 0.22472
 C745 C 0.26613 0.10645 0.24331
 C746 C 0.27980 0.09993 0.22948
 C747 C 0.28228 0.11036 0.21203
 C748 C 0.27108 0.12722 0.20835
 C749 C 0.25719 0.13388 0.22212
 C750 C 0.25490 0.12330 0.23968
 C751 C 0.29110 0.08240 0.23311
 C752 C 0.30046 0.06765 0.23613
 C753 C 0.31127 0.05029 0.23965
 C754 C 0.32038 0.03538 0.24267
 H755 H 0.26410 0.09850 0.25690
 H756 H 0.29280 0.10542 0.20119
 H757 H 0.27321 0.13483 0.19463
 H758 H 0.24453 0.12799 0.25071
 C759 C 0.78636 0.61401 0.71687
 C760 C 0.78003 0.60020 0.73065
 C761 C 0.76260 0.60345 0.74099
 C762 C 0.75147 0.62039 0.73753
 C763 C 0.75763 0.63436 0.72362
 C764 C 0.77526 0.63097 0.71337
 C765 C 0.79130 0.58260 0.73403
 C766 C 0.80064 0.56779 0.73683
 C767 C 0.81144 0.55036 0.74008
 C768 C 0.82054 0.53540 0.74286
 H769 H 0.79985 0.61166 0.70879
 H770 H 0.75754 0.59283 0.75167
 H771 H 0.73797 0.62235 0.74563
 H772 H 0.78060 0.64140 0.70269
 C773 C 0.76793 0.39228 0.75522
 C774 C 0.78109 0.39931 0.76938
 C775 C 0.78329 0.38921 0.78708
 C776 C 0.77232 0.37219 0.79067
 C777 C 0.75894 0.36504 0.77658
 C778 C 0.75693 0.37528 0.75877
 C779 C 0.79216 0.41699 0.76582
 C780 C 0.80132 0.43187 0.76285
 C781 C 0.81191 0.44937 0.75938
 C782 C 0.82085 0.46439 0.75642
 H783 H 0.76613 0.39997 0.74145
 H784 H 0.79342 0.39453 0.79816
 H785 H 0.77422 0.36485 0.80458
 H786 H 0.74695 0.37020 0.74749
 C787 C 0.26521 -0.10547 0.25740
 C788 C 0.28060 -0.10033 0.27001
 C789 C 0.28495 -0.11226 0.28610
 C790 C 0.27390 -0.12923 0.28965
 C791 C 0.25822 -0.13461 0.27713
 C792 C 0.25412 -0.12243 0.26088
 C793 C 0.29180 -0.08271 0.26652
 C794 C 0.30105 -0.06788 0.26358
 C795 C 0.31172 -0.05043 0.26010
 C796 C 0.32070 -0.03545 0.25709
 H797 H 0.26172 -0.09633 0.24488
 H798 H 0.29685 -0.10840 0.29597
 H799 H 0.27778 -0.13797 0.30229
 H800 H 0.24235 -0.12577 0.25074
 C801 C 0.21676 -0.11243 0.71463
 C802 C 0.21941 -0.10201 0.73209
 C803 C 0.23260 -0.10901 0.74618
 C804 C 0.24313 -0.12636 0.74287
 C805 C 0.24065 -0.13709 0.72530
 C806 C 0.22724 -0.12978 0.71124
 C807 C 0.20865 -0.08411 0.73549
 C808 C 0.19964 -0.06909 0.73827
 C809 C 0.18915 -0.05147 0.74146
 C810 C 0.18025 -0.03638 0.74415
 H811 H 0.20658 -0.10713 0.70360
 H812 H 0.23478 -0.10104 0.75977
 H813 H 0.25315 -0.13120 0.75418
 H814 H 0.22470 -0.13732 0.69752
 C815 C 0.73697 0.39584 0.24235
 C816 C 0.71962 0.39915 0.23179
 C817 C 0.71338 0.38540 0.21785
 C818 C 0.72448 0.36844 0.21439
 C819 C 0.74202 0.36498 0.22486
 C820 C 0.74809 0.37889 0.23893
 C821 C 0.70837 0.41676 0.23513
 C822 C 0.69907 0.43160 0.23789
 C823 C 0.68833 0.44907 0.24108
 C824 C 0.67929 0.46407 0.24379
 H825 H 0.74197 0.40641 0.25316
 H826 H 0.69996 0.38781 0.20960
 H827 H 0.71920 0.35806 0.20358
 H828 H 0.76153 0.37688 0.24720
 C829 C 0.73336 0.60656 0.25588
 C830 C 0.71967 0.60003 0.26967
 C831 C 0.71715 0.61047 0.28714
 C832 C 0.72833 0.62733 0.29087
 C833 C 0.74226 0.63399 0.27715
 C834 C 0.74457 0.62342 0.25957
 C835 C 0.70842 0.58245 0.26602
 C836 C 0.69912 0.56765 0.26303
 C837 C 0.68838 0.55021 0.25959
 C838 C 0.67934 0.53523 0.25670
 H839 H 0.73542 0.59859 0.24229
 H840 H 0.70661 0.60551 0.29794
 H841 H 0.72618 0.63494 0.30461
 H842 H 0.75497 0.62812 0.24857
 C843 C 0.21851 0.11012 0.78705
 C844 C 0.22106 0.09961 0.76963
 C845 C 0.23476 0.10609 0.75582
 C846 C 0.24596 0.12297 0.75945
 C847 C 0.24362 0.13362 0.77698
 C848 C 0.22969 0.12701 0.79072
 C849 C 0.20980 0.08202 0.76604
 C850 C 0.20049 0.06722 0.76310
 C851 C 0.18972 0.04979 0.75972
 C852 C 0.18062 0.03482 0.75689
 H853 H 0.20797 0.10521 0.79786
 H854 H 0.23683 0.09807 0.74226
 H855 H 0.25637 0.12763 0.74844
 H856 H 0.22751 0.13467 0.80442
 C857 C 0.21253 0.28611 0.10953
 C858 C 0.22998 0.28368 0.09900
 C859 C 0.24391 0.26989 0.10524
 C860 C 0.24037 0.25849 0.12189
 C861 C 0.22281 0.26070 0.13255
 C862 C 0.20895 0.27472 0.12619
 C863 C 0.23350 0.29512 0.08164
 C864 C 0.23647 0.30454 0.06700
 C865 C 0.23998 0.31538 0.04975
 C866 C 0.24302 0.32446 0.03491
 H867 H 0.20162 0.29672 0.10480
 H868 H 0.25749 0.26790 0.09720
 H869 H 0.25148 0.24802 0.12636
 H870 H 0.19522 0.27681 0.13387
 C871 C 0.71331 0.78611 0.61039
 C872 C 0.73087 0.78376 0.60002
 C873 C 0.74481 0.77004 0.60640
 C874 C 0.74118 0.75863 0.62302
 C875 C 0.72351 0.76077 0.63353
 C876 C 0.70964 0.77472 0.62703
 C877 C 0.73447 0.79520 0.58267
 C878 C 0.73745 0.80463 0.56804
 C879 C 0.74092 0.81547 0.55078
 C880 C 0.74388 0.82455 0.53593
 H881 H 0.70239 0.79666 0.60555
 H882 H 0.75847 0.76811 0.59848
 H883 H 0.75229 0.74822 0.62760
 H884 H 0.69583 0.77675 0.63458
 C885 C 0.78751 0.78579 0.39057
 C886 C 0.77005 0.78342 0.40110
 C887 C 0.75606 0.76969 0.39481
 C888 C 0.75953 0.75829 0.37812
 C889 C 0.77711 0.76046 0.36746
 C890 C 0.79103 0.77442 0.37388
 C891 C 0.76661 0.79487 0.41850
 C892 C 0.76376 0.80432 0.43317
 C893 C 0.76045 0.81520 0.45045
 C894 C 0.75761 0.82434 0.46531
 H895 H 0.79847 0.79636 0.39534
 H896 H 0.74247 0.76775 0.40285
 H897 H 0.74838 0.74787 0.37362
 H898 H 0.80477 0.77647 0.36620
 C899 C 0.25692 0.26967 -0.10590
 C900 C 0.27084 0.28348 -0.09962
 C901 C 0.28830 0.28590 -0.11013
 C902 C 0.29190 0.27450 -0.12679
 C903 C 0.27806 0.26046 -0.13319
 C904 C 0.26047 0.25825 -0.12255
 C905 C 0.26730 0.29494 -0.08225
 C906 C 0.26431 0.30437 -0.06761
 C907 C 0.26079 0.31523 -0.05035
 C908 C 0.25774 0.32434 -0.03552
 H909 H 0.24333 0.26768 -0.09788
 H910 H 0.29920 0.29653 -0.10537
 H911 H 0.30564 0.27659 -0.13445
 H912 H 0.24937 0.24777 -0.12705
 C913 C 0.71371 0.21424 -0.10947
 C914 C 0.73124 0.21661 -0.09894
 C915 C 0.74525 0.23025 -0.10528
 C916 C 0.74173 0.24155 -0.12201
 C917 C 0.72410 0.23937 -0.13268
 C918 C 0.71015 0.22551 -0.12622
 C919 C 0.73475 0.20524 -0.08151
 C920 C 0.73766 0.19586 -0.06683
 C921 C 0.74105 0.18502 -0.04953
 C922 C 0.74393 0.17590 -0.03467
 H923 H 0.70274 0.20375 -0.10466
 H924 H 0.75888 0.23220 -0.09724
 H925 H 0.75289 0.25190 -0.12656
 H926 H 0.69637 0.22346 -0.13389
 C927 C 0.24558 0.73049 0.39420
 C928 C 0.23162 0.71676 0.40043
 C929 C 0.21411 0.71440 0.38987
 C930 C 0.21052 0.72578 0.37320
 C931 C 0.22442 0.73974 0.36684
 C932 C 0.24204 0.74190 0.37754
 C933 C 0.23513 0.70528 0.41779
 C934 C 0.23802 0.69580 0.43242
 C935 C 0.24134 0.68484 0.44965
 C936 C 0.24414 0.67563 0.46447
 H937 H 0.25920 0.73243 0.40226
 H938 H 0.20317 0.70384 0.39459
 H939 H 0.19675 0.72374 0.36550
 H940 H 0.25317 0.75232 0.37307
 C941 C 0.25528 0.73042 0.60507
 C942 C 0.26803 0.71497 0.60045
 C943 C 0.28370 0.71052 0.61300
 C944 C 0.28664 0.72149 0.63009
 C945 C 0.27393 0.73712 0.63487
 C946 C 0.25818 0.74142 0.62214
 C947 C 0.26508 0.70379 0.58277
 C948 C 0.26255 0.69455 0.56789
 C949 C 0.25953 0.68391 0.55039
 C950 C 0.25690 0.67497 0.53535
 H951 H 0.24307 0.73398 0.59546
 H952 H 0.29370 0.69860 0.60954
 H953 H 0.29899 0.71779 0.63940
 H954 H 0.24798 0.75319 0.62534
 C955 C 0.78737 0.21384 0.11116
 C956 C 0.76987 0.21621 0.10061
 C957 C 0.75586 0.22985 0.10693
 C958 C 0.75936 0.24118 0.12368
 C959 C 0.77697 0.23902 0.13438
 C960 C 0.79091 0.22514 0.12793
 C961 C 0.76640 0.20485 0.08313
 C962 C 0.76352 0.19549 0.06840
 C963 C 0.76016 0.18472 0.05103
 C964 C 0.75730 0.17568 0.03610
 H965 H 0.79835 0.20335 0.10637
 H966 H 0.74225 0.23180 0.09887
 H967 H 0.74819 0.25154 0.12821
 H968 H 0.80468 0.22311 0.13563
 C969 C 0.46542 0.36095 0.53467
 C970 C 0.48267 0.35001 0.53229
 C971 C 0.49667 0.35593 0.51853
 C972 C 0.49340 0.37267 0.50710
 C973 C 0.47604 0.38374 0.50927
 C974 C 0.46211 0.37770 0.52327
 C975 C 0.48589 0.33255 0.54376
 C976 C 0.48857 0.31782 0.55320
 C977 C 0.49169 0.30045 0.56406
 C978 C 0.49435 0.28549 0.57315
 H979 H 0.45446 0.35647 0.54526
 H980 H 0.51009 0.34757 0.51658
 H981 H 0.50454 0.37689 0.49664
 H982 H 0.44853 0.38571 0.52532
 C983 C -0.03224 0.86359 0.03713
 C984 C -0.01845 0.84950 0.03132
 C985 C -0.00794 0.85214 0.01395
 C986 C -0.01125 0.86875 0.00236
 C987 C -0.02517 0.88300 0.00799
 C988 C -0.03559 0.88023 0.02557
 C989 C -0.01524 0.83219 0.04301
 C990 C -0.01255 0.81756 0.05260
 C991 C -0.00939 0.80027 0.06358
 C992 C -0.00667 0.78537 0.07274
 H993 H -0.04046 0.86170 0.05058
 H994 H 0.00274 0.84128 0.00928
 H995 H -0.00303 0.87023 -0.01109
 H996 H -0.04629 0.89089 0.03051
 C997 C 0.00377 0.64369 0.01814
 C998 C 0.01776 0.64965 0.03199
 C999 C 0.03502 0.63873 0.03446
 C1000 C 0.03834 0.62195 0.02309
 C1001 C 0.02442 0.61585 0.00902
 C1002 C 0.00705 0.62692 0.00674
 C1003 C 0.01453 0.66714 0.04344
 C1004 C 0.01184 0.68188 0.05288
 C1005 C 0.00870 0.69926 0.06373
 C1006 C 0.00603 0.71423 0.07282
 H1007 H -0.00965 0.65204 0.01611
 H1008 H 0.04598 0.64324 0.04511
 H1009 H 0.05193 0.61395 0.02522
 H1010 H -0.00409 0.62266 -0.00378
 C1011 C 0.53226 0.13582 0.53793
 C1012 C 0.51859 0.14996 0.53191
 C1013 C 0.50822 0.14731 0.51439
 C1014 C 0.51155 0.13065 0.50286
 C1015 C 0.52537 0.11636 0.50870
 C1016 C 0.53563 0.11913 0.52643
 C1017 C 0.51538 0.16734 0.54353
 C1018 C 0.51270 0.18203 0.55306
 C1019 C 0.50957 0.19937 0.56398
 C1020 C 0.50690 0.21432 0.57310
 H1021 H 0.54036 0.13772 0.55149
 H1022 H 0.49763 0.15820 0.50956
 H1023 H 0.50345 0.12917 0.48929
 H1024 H 0.54624 0.10843 0.53152
 C1025 C -0.00319 0.14518 0.48265
 C1026 C -0.01724 0.15136 0.46899
 C1027 C -0.03462 0.14058 0.46655
 C1028 C -0.03798 0.12374 0.47780
 C1029 C -0.02399 0.11744 0.49169
 C1030 C -0.00651 0.12836 0.49392
 C1031 C -0.01394 0.16888 0.45766
 C1032 C -0.01119 0.18365 0.44830
 C1033 C -0.00799 0.20104 0.43751
 C1034 C -0.00528 0.21598 0.42841
 H1035 H 0.01033 0.15340 0.48464
 H1036 H -0.04562 0.14526 0.45604
 H1037 H -0.05165 0.11587 0.47571
 H1038 H 0.00468 0.12393 0.50430
 C1039 C 0.46755 0.63710 0.96168
 C1040 C 0.48125 0.65128 0.96761
 C1041 C 0.49169 0.64872 0.98509
 C1042 C 0.48841 0.63210 0.99667
 C1043 C 0.47458 0.61777 0.99092
 C1044 C 0.46423 0.62046 0.97323
 C1045 C 0.48442 0.66860 0.95592
 C1046 C 0.48707 0.68323 0.94633
 C1047 C 0.49019 0.70050 0.93533
 C1048 C 0.49287 0.71540 0.92616
 H1049 H 0.45939 0.63893 0.94815
 H1050 H 0.50230 0.65964 0.98985
 H1051 H 0.49658 0.63068 1.01020
 H1052 H 0.45361 0.60973 0.96820
 C1053 C 0.53213 0.86458 0.96179
 C1054 C 0.51824 0.85055 0.96753
 C1055 C 0.50773 0.85323 0.98490
 C1056 C 0.51112 0.86981 0.99655
 C1057 C 0.52513 0.88399 0.99100
 C1058 C 0.53556 0.88119 0.97342
 C1059 C 0.51495 0.83327 0.95578
 C1060 C 0.51217 0.81865 0.94615
 C1061 C 0.50889 0.80136 0.93515
 C1062 C 0.50605 0.78645 0.92601
 H1063 H 0.54035 0.86267 0.94835
 H1064 H 0.49698 0.84242 0.98951
 H1065 H 0.50289 0.87131 1.01000
 H1066 H 0.54633 0.89180 0.96854
 C1067 C 0.03070 0.36721 0.46101
 C1068 C 0.01741 0.35293 0.46749
 C1069 C 0.00678 0.35607 0.48472
 C1070 C 0.00940 0.37341 0.49543
 C1071 C 0.02273 0.38790 0.48907
 C1072 C 0.03336 0.38457 0.47170
 C1073 C 0.01467 0.33505 0.45650
 C1074 C 0.01230 0.32003 0.44739
 C1075 C 0.00946 0.30239 0.43684
 C1076 C 0.00697 0.28726 0.42795
 H1077 H 0.03900 0.36494 0.44767
 H1078 H -0.00352 0.34510 0.48989
 H1079 H 0.00106 0.37531 0.50876
 H1080 H 0.04364 0.39537 0.46623
 C1081 C 0.35420 0.51297 0.49051
 C1082 C 0.35076 0.53021 0.47989
 C1083 C 0.36440 0.53639 0.46589
 C1084 C 0.38139 0.52533 0.46244
 C1085 C 0.38498 0.50790 0.47297
 C1086 C 0.37118 0.50189 0.48710
 C1087 C 0.33314 0.54144 0.48327
 C1088 C 0.31831 0.55072 0.48610
 C1089 C 0.30086 0.56145 0.48942
 C1090 C 0.28588 0.57049 0.49226
 H1091 H 0.34372 0.50802 0.50136
 H1092 H 0.36189 0.54974 0.45760
 H1093 H 0.39168 0.53055 0.45158
 H1094 H 0.37329 0.48853 0.49542
 C1095 C 0.86101 0.03316 -0.03784
 C1096 C 0.85059 0.03063 -0.02039
 C1097 C 0.85711 0.01689 -0.00659
 C1098 C 0.87391 0.00563 -0.01026
 C1099 C 0.88446 0.00795 -0.02783
 C1100 C 0.87783 0.02192 -0.04154
 C1101 C 0.83307 0.04192 -0.01673
 C1102 C 0.81830 0.05124 -0.01367
 C1103 C 0.80092 0.06198 -0.01009
 C1104 C 0.78599 0.07102 -0.00701
 H1105 H 0.85607 0.04373 -0.04864
 H1106 H 0.84916 0.01483 0.00698
 H1107 H 0.87860 -0.00480 0.00074
 H1108 H 0.88543 0.02408 -0.05526
 C1109 C 0.64383 0.01708 0.00652
 C1110 C 0.65035 0.03079 0.02037
 C1111 C 0.63986 0.03338 0.03777
 C1112 C 0.62296 0.02224 0.04137
 C1113 C 0.61631 0.00830 0.02759
 C1114 C 0.62694 0.00591 0.01008
 C1115 C 0.66794 0.04202 0.01682
 C1116 C 0.68275 0.05129 0.01385
 C1117 C 0.70018 0.06201 0.01038
 C1118 C 0.71514 0.07103 0.00740
 H1119 H 0.65183 0.01497 -0.00703
 H1120 H 0.64480 0.04394 0.04862
 H1121 H 0.61530 0.02445 0.05505
 H1122 H 0.62225 -0.00451 -0.00097
 C1123 C 0.14398 0.51574 0.50514
 C1124 C 0.14925 0.53126 0.51755
 C1125 C 0.13710 0.53622 0.53330
 C1126 C 0.11976 0.52571 0.53665
 C1127 C 0.11429 0.51004 0.52427
 C1128 C 0.12663 0.50520 0.50845
 C1129 C 0.16714 0.54206 0.51419
 C1130 C 0.18215 0.55109 0.51142
 C1131 C 0.19974 0.56163 0.50820
 C1132 C 0.21479 0.57057 0.50547
 H1133 H 0.15330 0.51175 0.49292
 H1134 H 0.14103 0.54824 0.54299
 H1135 H 0.11064 0.53001 0.54887
 H1136 H 0.12305 0.49319 0.49867
 C1137 C 0.14604 0.48635 -0.00863
 C1138 C 0.14952 0.46910 -0.01924
 C1139 C 0.13590 0.46288 -0.03334
 C1140 C 0.11890 0.47391 -0.03689
 C1141 C 0.11528 0.49136 -0.02637
 C1142 C 0.12906 0.49741 -0.01214
 C1143 C 0.16717 0.45792 -0.01580
 C1144 C 0.18204 0.44869 -0.01295
 C1145 C 0.19954 0.43803 -0.00965
 C1146 C 0.21457 0.42905 -0.00685
 H1147 H 0.15651 0.49133 0.00230
 H1148 H 0.13844 0.44953 -0.04163
 H1149 H 0.10863 0.46866 -0.04783
 H1150 H 0.12692 0.51077 -0.00382
 C1151 C 0.64000 0.96678 0.46326
 C1152 C 0.65041 0.96932 0.48077
 C1153 C 0.64382 0.98297 0.49461
 C1154 C 0.62693 0.99412 0.49094
 C1155 C 0.61638 0.99178 0.47331
 C1156 C 0.62310 0.97791 0.45954
 C1157 C 0.66801 0.95813 0.48441
 C1158 C 0.68284 0.94887 0.48740
 C1159 C 0.70030 0.93817 0.49085
 C1160 C 0.71529 0.92916 0.49375
 H1161 H 0.64500 0.95629 0.45241
 H1162 H 0.65177 0.98504 0.50824
 H1163 H 0.62218 1.00449 0.50197
 H1164 H 0.61551 0.97574 0.44577
 C1165 C 0.86517 0.96350 0.53281
 C1166 C 0.85128 0.96987 0.51906
 C1167 C 0.85444 0.98738 0.50880
 C1168 C 0.87137 0.99854 0.51232
 C1169 C 0.88541 0.99234 0.52621
 C1170 C 0.88211 0.97463 0.53637
 C1171 C 0.83369 0.95857 0.51564
 C1172 C 0.81888 0.94922 0.51283
 C1173 C 0.80144 0.93841 0.50958
 C1174 C 0.78645 0.92931 0.50684
 H1175 H 0.86288 0.94995 0.54083
 H1176 H 0.84376 0.99247 0.49815
 H1177 H 0.87327 1.01210 0.50430
 H1178 H 0.89260 0.96926 0.54703
 C1179 C 0.35690 0.48366 0.00497
 C1180 C 0.35050 0.46987 0.01873
 C1181 C 0.36105 0.46730 0.03615
 C1182 C 0.37787 0.47855 0.03987
 C1183 C 0.38439 0.49259 0.02619
 C1184 C 0.37372 0.49494 0.00864
 C1185 C 0.33295 0.45855 0.01511
 C1186 C 0.31817 0.44920 0.01217
 C1187 C 0.30075 0.43840 0.00880
 C1188 C 0.28578 0.42930 0.00599
 H1189 H 0.34885 0.48575 -0.00859
 H1190 H 0.35619 0.45669 0.04694
 H1191 H 0.38556 0.47636 0.05358
 H1192 H 0.37831 0.50543 -0.00232
 C1193 C 0.51988 0.49376 0.35521
 C1194 C 0.53365 0.47982 0.34901
 C1195 C 0.53614 0.46242 0.35964
 C1196 C 0.52484 0.45892 0.37636
 C1197 C 0.51085 0.47280 0.38270
 C1198 C 0.50856 0.49031 0.37192
 C1199 C 0.54505 0.48328 0.33162
 C1200 C 0.55446 0.48620 0.31698
 C1201 C 0.56531 0.48964 0.29973
 C1202 C 0.57442 0.49262 0.28491
 H1203 H 0.51784 0.50730 0.34710
 H1204 H 0.54674 0.45150 0.35495
 H1205 H 0.52698 0.44523 0.38413
 H1206 H 0.49811 0.50142 0.37636
 C1207 C 0.03671 -0.03706 0.85984
 C1208 C 0.03437 -0.01960 0.84928
 C1209 C 0.02059 -0.00565 0.85543
 C1210 C 0.00910 -0.00916 0.87201
 C1211 C 0.01123 -0.02674 0.88271
 C1212 C 0.02524 -0.04062 0.87643
 C1213 C 0.04591 -0.01613 0.83198
 C1214 C 0.05542 -0.01326 0.81739
 C1215 C 0.06637 -0.00992 0.80018
 C1216 C 0.07554 -0.00707 0.78537
 H1217 H 0.04731 -0.04800 0.85518
 H1218 H 0.01867 0.00794 0.84737
 H1219 H -0.00137 0.00196 0.87641
 H1220 H 0.02727 -0.05436 0.88413
 C1221 C 0.01678 0.00963 0.64796
 C1222 C 0.03456 0.01964 0.65069
 C1223 C 0.04090 0.03317 0.63664
 C1224 C 0.02948 0.03674 0.61996
 C1225 C 0.01151 0.02682 0.61709
 C1226 C 0.00534 0.01317 0.63130
 C1227 C 0.04614 0.01617 0.66802
 C1228 C 0.05566 0.01325 0.68265
 C1229 C 0.06658 0.00980 0.69991
 C1230 C 0.07570 0.00683 0.71478
 H1231 H 0.01171 -0.00085 0.65877
 H1232 H 0.05466 0.04099 0.63860
 H1233 H 0.03484 0.04722 0.60933
 H1234 H -0.00843 0.00533 0.62975
 C1235 C 0.52017 0.50622 0.14374
 C1236 C 0.53392 0.52016 0.15008
 C1237 C 0.53631 0.53766 0.13960
 C1238 C 0.52493 0.54126 0.12290
 C1239 C 0.51094 0.52739 0.11644
 C1240 C 0.50877 0.50978 0.12705
 C1241 C 0.54534 0.51662 0.16750
 C1242 C 0.55474 0.51364 0.18220
 C1243 C 0.56554 0.51011 0.19951
 C1244 C 0.57460 0.50707 0.21440
 H1245 H 0.51820 0.49261 0.15174
 H1246 H 0.54689 0.54858 0.14441
 H1247 H 0.52699 0.55502 0.11526
 H1248 H 0.49832 0.49866 0.12251
 C1249 C 0.47986 -0.00453 0.14391
 C1250 C 0.46596 -0.01840 0.14999
 C1251 C 0.46345 -0.03579 0.13932
 C1252 C 0.47486 -0.03938 0.12269
 C1253 C 0.48901 -0.02560 0.11650
 C1254 C 0.49130 -0.00808 0.12730
 C1255 C 0.45452 -0.01493 0.16736
 C1256 C 0.44511 -0.01208 0.18202
 C1257 C 0.43428 -0.00880 0.19932
 C1258 C 0.42521 -0.00604 0.21422
 H1259 H 0.48192 0.00900 0.15207
 H1260 H 0.45276 -0.04665 0.14392
 H1261 H 0.47271 -0.05307 0.11491
 H1262 H 0.50187 0.00297 0.12296
 C1263 C 0.98093 0.49506 0.64421
 C1264 C 0.96544 0.48234 0.64879
 C1265 C 0.96101 0.46663 0.63630
 C1266 C 0.97203 0.46362 0.61929
 C1267 C 0.98768 0.47630 0.61454
 C1268 C 0.99198 0.49209 0.62723
 C1269 C 0.95420 0.48537 0.66637
 C1270 C 0.94492 0.48795 0.68117
 C1271 C 0.93422 0.49103 0.69858
 C1272 C 0.92523 0.49369 0.71354
 H1273 H 0.98447 0.50730 0.65377
 H1274 H 0.94907 0.45665 0.63973
 H1275 H 0.96834 0.45124 0.61003
 H1276 H 1.00376 0.50227 0.62405
 C1277 C 0.98038 0.50510 0.85503
 C1278 C 0.96661 0.51903 0.84875
 C1279 C 0.96412 0.53645 0.85938
 C1280 C 0.97541 0.53998 0.87616
 C1281 C 0.98940 0.52612 0.88257
 C1282 C 0.99170 0.50859 0.87180
 C1283 C 0.95522 0.51556 0.83129
 C1284 C 0.94580 0.51269 0.81658
 C1285 C 0.93491 0.50937 0.79927
 C1286 C 0.92574 0.50656 0.78439
 H1287 H 0.98242 0.49155 0.84692
 H1288 H 0.95352 0.54736 0.85463
 H1289 H 0.97327 0.55369 0.88392
 H1290 H 1.00216 0.49749 0.87629
 C1291 C 0.48457 0.00892 0.35187
 C1292 C 0.46669 0.01878 0.34931
 C1293 C 0.46023 0.03206 0.36356
 C1294 C 0.47165 0.03556 0.38027
 C1295 C 0.48973 0.02581 0.38297
 C1296 C 0.49601 0.01238 0.36856
 C1297 C 0.45513 0.01543 0.33193
 C1298 C 0.44562 0.01265 0.31726
 C1299 C 0.43467 0.00942 0.29997
 C1300 C 0.42550 0.00667 0.28508
 H1301 H 0.48974 -0.00136 0.34090
 H1302 H 0.44640 0.03976 0.36173
 H1303 H 0.46621 0.04586 0.39105
 H1304 H 0.50986 0.00469 0.36998
   
