data_POSCAR
  _audit_creation_date              2014-09-24
  _audit_creation_method            'ToBaCCo'
  _symmetry_space_group_name_H-M    'P1'
  _symmetry_Int_Tables_number       1
  _symmetry_cell_setting            triclinic
  loop_
  _symmetry_equiv_pos_as_xyz
 x,y,z
_cell_length_a 49.2644
_cell_length_b 48.9490
_cell_length_c 48.8219
_cell_angle_alpha 90.509500
_cell_angle_beta 89.484100
_cell_angle_gamma 89.616300
loop_
  _atom_site_label
  _atom_site_type_symbol
  _atom_site_fract_x
  _atom_site_fract_y
  _atom_site_fract_z
C1 C 0.20960 0.19485 0.24117
 C2 C 0.18752 0.19983 0.25890
 C3 C 0.16911 0.22109 0.25360
 C4 C 0.17253 0.23720 0.23020
 C5 C 0.19446 0.23247 0.21227
 C6 C 0.21315 0.21125 0.21776
 C7 C 0.22812 0.17367 0.24634
 C8 C 0.25012 0.16878 0.22846
 C9 C 0.25356 0.18503 0.20518
 C10 C 0.23526 0.20631 0.19974
 C11 C 0.23857 0.22261 0.17649
 C12 C 0.21989 0.24352 0.17093
 C13 C 0.19795 0.24846 0.18883
 H14 H 0.18463 0.18729 0.27688
 H15 H 0.15800 0.25333 0.22599
 H16 H 0.22545 0.16086 0.26416
 H17 H 0.27052 0.18104 0.19137
 H18 H 0.25545 0.21892 0.16250
 H19 H 0.18362 0.26471 0.18438
 C20 C 0.70556 0.68791 0.73234
 C21 C 0.68219 0.69168 0.74860
 C22 C 0.66317 0.71206 0.74219
 C23 C 0.66766 0.72901 0.71962
 C24 C 0.69083 0.72541 0.70307
 C25 C 0.70991 0.70480 0.70943
 C26 C 0.72455 0.66744 0.73846
 C27 C 0.74789 0.66378 0.72208
 C28 C 0.75206 0.68045 0.69920
 C29 C 0.73325 0.70099 0.69278
 C30 C 0.73725 0.71764 0.66988
 C31 C 0.71812 0.73785 0.66332
 C32 C 0.69514 0.74188 0.68011
 H33 H 0.67866 0.67875 0.76618
 H34 H 0.65289 0.74474 0.71482
 H35 H 0.72123 0.65424 0.75587
 H36 H 0.76999 0.67738 0.68648
 H37 H 0.75504 0.71472 0.65691
 H38 H 0.68056 0.75771 0.67507
 C39 C 0.28691 0.80547 0.73767
 C40 C 0.31057 0.80261 0.75322
 C41 C 0.32940 0.78172 0.74713
 C42 C 0.32425 0.76321 0.72570
 C43 C 0.30073 0.76580 0.70997
 C44 C 0.28198 0.78703 0.71594
 C45 C 0.26811 0.82642 0.74354
 C46 C 0.24414 0.82925 0.72814
 C47 C 0.23994 0.81109 0.70599
 C48 C 0.25838 0.78990 0.70008
 C49 C 0.25361 0.77153 0.67847
 C50 C 0.27196 0.75014 0.67278
 C51 C 0.29563 0.74754 0.68836
 H52 H 0.31454 0.81672 0.76993
 H53 H 0.33865 0.74686 0.72133
 H54 H 0.27184 0.84006 0.76069
 H55 H 0.22259 0.81387 0.69276
 H56 H 0.23545 0.77358 0.66624
 H57 H 0.30998 0.73125 0.68361
 C58 C 0.79340 0.31204 0.22767
 C59 C 0.81582 0.30732 0.24452
 C60 C 0.83403 0.28557 0.23896
 C61 C 0.82843 0.26760 0.21701
 C62 C 0.80596 0.27195 0.20012
 C63 C 0.78845 0.29434 0.20535
 C64 C 0.77617 0.33455 0.23244
 C65 C 0.75435 0.33976 0.21491
 C66 C 0.74908 0.32175 0.19312
 C67 C 0.76602 0.29909 0.18817
 C68 C 0.76117 0.28136 0.16609
 C69 C 0.77873 0.25924 0.16064
 C70 C 0.80089 0.25443 0.17788
 H71 H 0.81976 0.32139 0.26127
 H72 H 0.84139 0.24994 0.21329
 H73 H 0.77992 0.34835 0.24947
 H74 H 0.73207 0.32574 0.17975
 H75 H 0.74392 0.28484 0.15290
 H76 H 0.81435 0.23726 0.17364
 C77 C 0.79904 0.69006 0.26527
 C78 C 0.82201 0.69378 0.24857
 C79 C 0.84147 0.71376 0.25509
 C80 C 0.83661 0.73114 0.27783
 C81 C 0.81358 0.72786 0.29453
 C82 C 0.79480 0.70712 0.28837
 C83 C 0.78058 0.66909 0.25963
 C84 C 0.75823 0.66472 0.27706
 C85 C 0.75367 0.68218 0.29960
 C86 C 0.77184 0.70333 0.30542
 C87 C 0.76772 0.72043 0.32829
 C88 C 0.78649 0.74094 0.33460
 C89 C 0.80919 0.74478 0.31752
 H90 H 0.82536 0.68020 0.23118
 H91 H 0.85062 0.74753 0.28234
 H92 H 0.78382 0.65573 0.24205
 H93 H 0.73628 0.67886 0.31290
 H94 H 0.75009 0.71767 0.34142
 H95 H 0.82362 0.76068 0.32246
 C96 C 0.29396 0.19652 -0.23941
 C97 C 0.31473 0.20322 -0.25795
 C98 C 0.33166 0.22595 -0.25325
 C99 C 0.32763 0.24140 -0.22896
 C100 C 0.30639 0.23547 -0.21071
 C101 C 0.28959 0.21282 -0.21581
 C102 C 0.27743 0.17376 -0.24411
 C103 C 0.25711 0.16667 -0.22515
 C104 C 0.25238 0.18337 -0.20204
 C105 C 0.26842 0.20646 -0.19729
 C106 C 0.26364 0.22333 -0.17436
 C107 C 0.27993 0.24626 -0.16965
 C108 C 0.30159 0.25194 -0.18748
 H109 H 0.31718 0.19103 -0.27646
 H110 H 0.34140 0.25780 -0.22383
 H111 H 0.28055 0.16126 -0.26233
 H112 H 0.23637 0.17817 -0.18765
 H113 H 0.24713 0.21888 -0.16028
 H114 H 0.31421 0.26959 -0.18357
 C115 C 0.69920 0.31225 -0.22556
 C116 C 0.67657 0.30968 -0.24253
 C117 C 0.65700 0.28922 -0.23801
 C118 C 0.66169 0.27020 -0.21693
 C119 C 0.68471 0.27203 -0.20032
 C120 C 0.70341 0.29330 -0.20444
 C121 C 0.71766 0.33360 -0.22932
 C122 C 0.73992 0.33657 -0.21184
 C123 C 0.74449 0.31727 -0.19128
 C124 C 0.72638 0.29560 -0.18747
 C125 C 0.73077 0.27625 -0.16695
 C126 C 0.71252 0.25468 -0.16320
 C127 C 0.68929 0.25294 -0.17957
 H128 H 0.67457 0.32340 -0.25971
 H129 H 0.64703 0.25430 -0.21284
 H130 H 0.71448 0.34833 -0.24547
 H131 H 0.76192 0.31942 -0.17804
 H132 H 0.74849 0.27774 -0.15402
 H133 H 0.67498 0.23654 -0.17623
 C134 C 0.20158 0.81355 0.27616
 C135 C 0.18086 0.80903 0.25717
 C136 C 0.16484 0.78547 0.25869
 C137 C 0.16908 0.76668 0.27978
 C138 C 0.18977 0.77087 0.29886
 C139 C 0.20624 0.79429 0.29695
 C140 C 0.21788 0.83687 0.27453
 C141 C 0.23884 0.84145 0.29349
 C142 C 0.24373 0.82164 0.31370
 C143 C 0.22742 0.79838 0.31575
 C144 C 0.23196 0.77912 0.33634
 C145 C 0.21564 0.75582 0.33829
 C146 C 0.19441 0.75192 0.31970
 H147 H 0.17721 0.82368 0.24105
 H148 H 0.15652 0.74862 0.28099
 H149 H 0.21474 0.85110 0.25794
 H150 H 0.25975 0.82476 0.32848
 H151 H 0.24824 0.78213 0.35084
 H152 H 0.18165 0.73405 0.32147
 C153 C 0.44418 0.46395 0.48281
 C154 C 0.44956 0.44221 0.50046
 C155 C 0.47331 0.42641 0.49728
 C156 C 0.49110 0.43164 0.47531
 C157 C 0.48568 0.45295 0.45707
 C158 C 0.46226 0.46934 0.46095
 C159 C 0.42122 0.48062 0.48686
 C160 C 0.41626 0.50275 0.46950
 C161 C 0.43384 0.50763 0.44731
 C162 C 0.45690 0.49115 0.44300
 C163 C 0.47484 0.49626 0.42122
 C164 C 0.49816 0.48002 0.41731
 C165 C 0.50337 0.45826 0.43512
 H166 H 0.43545 0.43773 0.51697
 H167 H 0.50927 0.41924 0.47262
 H168 H 0.40747 0.47681 0.50384
 H169 H 0.42967 0.52451 0.43370
 H170 H 0.47085 0.51299 0.40738
 H171 H 0.52125 0.44556 0.43184
 C172 C -0.05721 -0.03817 0.98663
 C173 C -0.05203 -0.06060 1.00352
 C174 C -0.02904 -0.07713 0.99897
 C175 C -0.01153 -0.07175 0.97685
 C176 C -0.01648 -0.04945 0.95972
 C177 C -0.03930 -0.03244 0.96475
 C178 C -0.07973 -0.02111 0.99160
 C179 C -0.08426 0.00227 0.97554
 C180 C -0.06659 0.00736 0.95331
 C181 C -0.04417 -0.00969 0.94793
 C182 C -0.02643 -0.00424 0.92607
 C183 C -0.00367 -0.02101 0.92110
 C184 C 0.00112 -0.04369 0.93781
 H185 H -0.06552 -0.06495 1.02058
 H186 H 0.00606 -0.08477 0.97328
 H187 H -0.09310 -0.02539 1.00878
 H188 H -0.07057 0.02442 0.93987
 H189 H -0.03014 0.01312 0.91294
 H190 H 0.01869 -0.05663 0.93383
 C191 C 1.05922 0.54455 0.98469
 C192 C 1.05697 0.56908 0.99966
 C193 C 1.03701 0.58873 0.99322
 C194 C 1.01876 0.58300 0.97189
 C195 C 1.02115 0.55885 0.95640
 C196 C 1.04135 0.53945 0.96289
 C197 C 1.07902 0.52502 0.99127
 C198 C 1.08112 0.50009 0.97660
 C199 C 1.06363 0.49569 0.95429
 C200 C 1.04377 0.51504 0.94747
 C201 C 1.02649 0.51053 0.92521
 C202 C 1.00688 0.53013 0.91828
 C203 C 1.00393 0.55398 0.93420
 H204 H 1.07036 0.57261 1.01683
 H205 H 1.00333 0.59790 0.96659
 H206 H 1.09229 0.52890 1.00845
 H207 H 1.06597 0.47746 0.94168
 H208 H 1.02850 0.49202 0.91297
 H209 H 0.98852 0.56890 0.92891
 C210 C 0.56234 0.04535 0.48347
 C211 C 0.55923 0.06959 0.49881
 C212 C 0.53850 0.08837 0.49266
 C213 C 0.52057 0.08256 0.47121
 C214 C 0.52382 0.05879 0.45530
 C215 C 0.54462 0.03996 0.46157
 C216 C 0.58279 0.02640 0.48974
 C217 C 0.58551 0.00166 0.47487
 C218 C 0.56815 -0.00305 0.45252
 C219 C 0.54776 0.01580 0.44586
 C220 C 0.53059 0.01100 0.42356
 C221 C 0.51040 0.03008 0.41688
 C222 C 0.50675 0.05366 0.43305
 H223 H 0.57289 0.07391 0.51557
 H224 H 0.50418 0.09672 0.46683
 H225 H 0.59599 0.03050 0.50694
 H226 H 0.57094 -0.02116 0.43981
 H227 H 0.53313 -0.00732 0.41113
 H228 H 0.49089 0.06817 0.42795
 C229 C -0.05756 0.03949 0.51572
 C230 C -0.05409 0.06143 0.49779
 C231 C -0.03222 0.07939 0.50099
 C232 C -0.01424 0.07589 0.52285
 C233 C -0.01751 0.05410 0.54103
 C234 C -0.03918 0.03572 0.53741
 C235 C -0.07892 0.02107 0.51214
 C236 C -0.08200 -0.00115 0.52984
 C237 C -0.06393 -0.00470 0.55158
 C238 C -0.04241 0.01352 0.55541
 C239 C -0.02389 0.00977 0.57673
 C240 C -0.00215 0.02784 0.58020
 C241 C 0.00068 0.05020 0.56259
 H242 H -0.06816 0.06444 0.48112
 H243 H 0.00251 0.08992 0.52537
 H244 H -0.09306 0.02377 0.49547
 H245 H -0.06647 -0.02189 0.56521
 H246 H -0.02615 -0.00735 0.59049
 H247 H 0.01723 0.06438 0.56561
 C248 C 0.44443 0.53438 0.00773
 C249 C 0.44883 0.55591 -0.01051
 C250 C 0.47155 0.57305 -0.00778
 C251 C 0.48899 0.56921 0.01462
 C252 C 0.48460 0.54802 0.03325
 C253 C 0.46240 0.53034 0.02967
 C254 C 0.42253 0.51659 0.00416
 C255 C 0.41863 0.49459 0.02199
 C256 C 0.43622 0.49094 0.04413
 C257 C 0.45812 0.50867 0.04809
 C258 C 0.47592 0.50500 0.07004
 C259 C 0.49802 0.52258 0.07366
 C260 C 0.50211 0.54419 0.05539
 H261 H 0.43515 0.55858 -0.02758
 H262 H 0.50575 0.58309 0.01786
 H263 H 0.40861 0.51961 -0.01264
 H264 H 0.43296 0.47411 0.05805
 H265 H 0.47277 0.48838 0.08424
 H266 H 0.51905 0.55789 0.05843
 C267 C 0.55429 -0.05029 0.01959
 C268 C 0.55136 -0.07353 0.00291
 C269 C 0.53049 -0.09225 0.00804
 C270 C 0.51214 -0.08741 0.02975
 C271 C 0.51486 -0.06433 0.04670
 C272 C 0.53604 -0.04568 0.04165
 C273 C 0.57507 -0.03149 0.01453
 C274 C 0.57779 -0.00815 0.03117
 C275 C 0.55993 -0.00391 0.05341
 C276 C 0.53892 -0.02239 0.05861
 C277 C 0.52062 -0.01787 0.08036
 C278 C 0.49933 -0.03617 0.08517
 C279 C 0.49668 -0.05948 0.06850
 H280 H 0.56532 -0.07720 -0.01404
 H281 H 0.49576 -0.10166 0.03335
 H282 H 0.58904 -0.03482 -0.00249
 H283 H 0.56235 0.01392 0.06647
 H284 H 0.52271 -0.00002 0.09347
 H285 H 0.48028 -0.07364 0.07241
 C286 C 1.05001 0.45547 0.51240
 C287 C 1.04423 0.43504 0.49304
 C288 C 1.02073 0.41886 0.49554
 C289 C 1.00363 0.42294 0.51857
 C290 C 1.00907 0.44338 0.53801
 C291 C 1.03231 0.45978 0.53491
 C292 C 1.07320 0.47172 0.50957
 C293 C 1.07907 0.49195 0.52916
 C294 C 1.06123 0.49643 0.55135
 C295 C 1.03792 0.48043 0.55440
 C296 C 1.02015 0.48466 0.57665
 C297 C 0.99700 0.46841 0.57970
 C298 C 0.99166 0.44765 0.56056
 H299 H 1.05768 0.43232 0.47552
 H300 H 0.98634 0.40971 0.52179
 H301 H 1.08681 0.46863 0.49222
 H302 H 1.06571 0.51223 0.56632
 H303 H 1.02426 0.50052 0.59167
 H304 H 0.97377 0.43511 0.56313
 C305 C 0.41597 0.00912 0.21851
 H306 H 0.41859 0.02708 0.23127
 C307 C 0.43225 0.00524 0.19525
 H308 H 0.44751 0.02022 0.19008
 C309 C 0.39317 -0.03255 0.20989
 H310 H 0.37821 -0.04741 0.21586
 C311 C 0.40902 -0.03722 0.18641
 H312 H 0.40598 -0.05552 0.17423
 N313 N 0.39653 -0.00937 0.22507
 C314 C 0.33534 0.03691 0.27118
 H315 H 0.33367 0.02443 0.28929
 C316 C 0.31893 0.06008 0.26852
 H317 H 0.30448 0.06542 0.28457
 C318 C 0.35572 0.04481 0.22781
 H319 H 0.36974 0.03859 0.21178
 C320 C 0.33980 0.06822 0.22438
 H321 H 0.34185 0.08004 0.20584
 Zn322 Zn 0.37503 -0.00170 0.25660
 N323 N 0.35355 0.02996 0.25116
 C324 C 0.39905 0.02804 0.30018
 N325 N 0.39907 0.00392 0.28610
 C326 C 0.41722 -0.01627 0.29179
 C327 C 0.43632 -0.01263 0.31246
 C328 C 0.41774 0.03249 0.32102
 C329 C 0.33186 -0.03681 0.24523
 C330 C 0.31271 -0.05707 0.25038
 C331 C 0.33273 -0.06384 0.29484
 C332 C 0.35169 -0.04366 0.28874
 N333 N 0.35096 -0.03066 0.26423
 H334 H 0.38483 0.04403 0.29506
 H335 H 0.41697 -0.03512 0.28006
 H336 H 0.45080 -0.02875 0.31673
 H337 H 0.41757 0.05175 0.33212
 H338 H 0.33147 -0.02584 0.22610
 H339 H 0.29778 -0.06200 0.23500
 H340 H 0.33333 -0.07389 0.31450
 H341 H 0.36661 -0.03806 0.30381
 C342 C 0.32145 0.07623 0.24508
 C343 C 0.42845 -0.01791 0.17868
 C344 C 0.31278 -0.07049 0.27564
 C345 C 0.43687 0.01214 0.32704
 C346 C 0.10116 -0.01259 0.69899
 H347 H 0.11313 -0.03096 0.70142
 C348 C 0.08519 -0.00958 0.67571
 H349 H 0.08498 -0.02564 0.66031
 C350 C 0.08580 0.03023 0.71636
 H351 H 0.08592 0.04551 0.73251
 C352 C 0.06973 0.03416 0.69330
 H353 H 0.05759 0.05259 0.69163
 N354 N 0.10145 0.00734 0.71861
 C355 C 0.13905 -0.05090 0.76426
 H356 H 0.12331 -0.04936 0.77976
 C357 C 0.15444 -0.07486 0.76185
 H358 H 0.15072 -0.09158 0.77575
 C359 C 0.16345 -0.03106 0.72746
 H360 H 0.16686 -0.01376 0.71425
 C361 C 0.17911 -0.05476 0.72415
 H362 H 0.19462 -0.05575 0.70830
 Zn363 Zn 0.12332 0.00308 0.75027
 N364 N 0.14376 -0.02964 0.74713
 C365 C 0.07285 0.00094 0.77862
 N366 N 0.10028 0.00157 0.78194
 C367 C 0.11132 -0.00015 0.80735
 C368 C 0.09472 -0.00215 0.83055
 C369 C 0.05551 -0.00106 0.80129
 C370 C 0.14822 0.05325 0.73465
 C371 C 0.16688 0.07452 0.73669
 C372 C 0.18610 0.05260 0.77618
 C373 C 0.16732 0.03159 0.77320
 N374 N 0.14838 0.03251 0.75308
 H375 H 0.06429 0.00144 0.75837
 H376 H 0.13301 -0.00070 0.80975
 H377 H 0.10378 -0.00385 0.85060
 H378 H 0.03376 -0.00171 0.79835
 H379 H 0.13392 0.05330 0.71807
 H380 H 0.16644 0.09093 0.72195
 H381 H 0.20063 0.05184 0.79268
 H382 H 0.16827 0.01431 0.78669
 C383 C 0.17444 -0.07709 0.74130
 C384 C 0.06964 0.01426 0.67249
 C385 C 0.18614 0.07428 0.75762
 C386 C 0.06648 -0.00241 0.82760
 C387 C 0.58020 0.49020 0.20986
 H388 H 0.57806 0.47348 0.22404
 C389 C 0.56358 0.49160 0.18689
 H390 H 0.54859 0.47592 0.18331
 C391 C 0.60244 0.53104 0.19707
 H392 H 0.61747 0.54645 0.20119
 C393 C 0.58630 0.53318 0.17381
 H394 H 0.58901 0.55018 0.16003
 N395 N 0.59949 0.50948 0.21423
 C396 C 0.66539 0.47057 0.25841
 H397 H 0.66703 0.48428 0.27582
 C398 C 0.68386 0.44903 0.25504
 H399 H 0.69972 0.44598 0.26995
 C400 C 0.64306 0.45806 0.21737
 H401 H 0.62746 0.46189 0.20247
 C402 C 0.66106 0.43624 0.21325
 H403 H 0.65913 0.42324 0.19532
 Zn404 Zn 0.62223 0.50523 0.24496
 N405 N 0.64542 0.47460 0.23977
 C406 C 0.60349 0.47859 0.29289
 N407 N 0.59996 0.50054 0.27634
 C408 C 0.58025 0.51952 0.28163
 C409 C 0.56365 0.51727 0.30484
 C410 C 0.58744 0.47564 0.31637
 C411 C 0.66462 0.54010 0.23039
 C412 C 0.68338 0.56109 0.23381
 C413 C 0.66106 0.57341 0.27650
 C414 C 0.64277 0.55214 0.27232
 N415 N 0.64487 0.53599 0.24955
 H416 H 0.61880 0.46339 0.28804
 H417 H 0.57764 0.53654 0.26790
 H418 H 0.54821 0.53262 0.30908
 H419 H 0.59055 0.45827 0.32959
 H420 H 0.66610 0.52668 0.21271
 H421 H 0.69925 0.56401 0.21865
 H422 H 0.65951 0.58592 0.29487
 H423 H 0.62734 0.54823 0.28759
 C424 C 0.68184 0.43179 0.23211
 C425 C 0.56695 0.51303 0.16838
 C426 C 0.68184 0.57772 0.25728
 C427 C 0.56753 0.49534 0.32264
 C428 C 0.92458 0.49380 0.72350
 H429 H 0.93401 0.50003 0.74238
 C430 C 0.94065 0.49027 0.70004
 H431 H 0.96237 0.49337 0.70109
 C432 C 0.88492 0.48336 0.69845
 H433 H 0.86318 0.48111 0.69776
 C434 C 0.90024 0.47981 0.67445
 H435 H 0.89027 0.47459 0.65545
 N436 N 0.89721 0.49016 0.72242
 C437 C 0.83294 0.53267 0.76722
 H438 H 0.82929 0.51872 0.78390
 C439 C 0.81617 0.55552 0.76400
 H440 H 0.79946 0.55913 0.77816
 C441 C 0.85890 0.54478 0.72807
 H442 H 0.87564 0.54053 0.71418
 C443 C 0.84266 0.56788 0.72413
 H444 H 0.84686 0.58131 0.70712
 Zn445 Zn 0.87566 0.49639 0.75449
 N446 N 0.85381 0.52779 0.74938
 C447 C 0.89736 0.52609 0.79921
 N448 N 0.89876 0.50207 0.78499
 C449 C 0.91721 0.48240 0.79154
 C450 C 0.93534 0.48661 0.81296
 C451 C 0.91508 0.53112 0.82080
 C452 C 0.83055 0.46330 0.74397
 C453 C 0.81184 0.44246 0.74837
 C454 C 0.83763 0.42839 0.78771
 C455 C 0.85581 0.44955 0.78262
 N456 N 0.85216 0.46639 0.76088
 H457 H 0.88276 0.54158 0.79362
 H458 H 0.91818 0.46361 0.77973
 H459 H 0.95017 0.47098 0.81776
 H460 H 0.91390 0.55036 0.83190
 H461 H 0.82735 0.47751 0.72749
 H462 H 0.79463 0.44030 0.73489
 H463 H 0.84064 0.41520 0.80513
 H464 H 0.87254 0.45263 0.79635
 C465 C 0.82117 0.57350 0.74237
 C466 C 0.92839 0.48341 0.67521
 C467 C 0.81524 0.42492 0.77060
 C468 C 0.93458 0.51138 0.82753
 C469 C 0.20831 0.41026 0.01907
 H470 H 0.22021 0.41074 0.03758
 C471 C 0.18535 0.42693 0.01696
 H472 H 0.17962 0.44033 0.03385
 C473 C 0.20108 0.39207 -0.02542
 H474 H 0.20716 0.37836 -0.04184
 C475 C 0.17800 0.40848 -0.02841
 H476 H 0.16656 0.40753 -0.04723
 N477 N 0.21581 0.39333 -0.00198
 C478 C 0.26352 0.33205 0.04168
 H479 H 0.28270 0.33232 0.03091
 C480 C 0.26007 0.31422 0.06360
 H481 H 0.27673 0.30116 0.06972
 C482 C 0.21807 0.34762 0.04639
 H483 H 0.20143 0.36003 0.03927
 C484 C 0.21382 0.33025 0.06852
 H485 H 0.19418 0.32993 0.07865
 Zn486 Zn 0.24725 0.37096 0.00215
 N487 N 0.24266 0.34833 0.03345
 C488 C 0.30350 0.38105 0.00468
 N489 N 0.27859 0.39327 0.00572
 C490 C 0.27612 0.42095 0.00784
 C491 C 0.29913 0.43730 0.00977
 C492 C 0.32705 0.39665 0.00666
 C493 C 0.24821 0.32109 -0.02763
 C494 C 0.25217 0.30440 -0.05066
 C495 C 0.26412 0.34441 -0.07671
 C496 C 0.26009 0.36035 -0.05313
 N497 N 0.25218 0.34852 -0.02926
 H498 H 0.30519 0.35924 0.00167
 H499 H 0.25639 0.43057 0.00770
 H500 H 0.29687 0.45928 0.01145
 H501 H 0.34674 0.38667 0.00602
 H502 H 0.24182 0.31212 -0.00851
 H503 H 0.24891 0.28259 -0.04922
 H504 H 0.27035 0.35395 -0.09566
 H505 H 0.26323 0.38219 -0.05379
 C506 C 0.23486 0.31299 0.07700
 C507 C 0.16986 0.42598 -0.00694
 C508 C 0.26001 0.31614 -0.07552
 C509 C 0.32493 0.42514 0.00903
 C510 C 0.70680 0.07950 -0.01229
 H511 H 0.72000 0.07725 -0.03001
 C512 C 0.68464 0.06216 -0.00902
 H513 H 0.68067 0.04654 -0.02429
 C514 C 0.69593 0.10249 0.02939
 H515 H 0.70058 0.11798 0.04447
 C516 C 0.67346 0.08567 0.03338
 H517 H 0.66078 0.08838 0.05145
 N518 N 0.71181 0.09939 0.00660
 C519 C 0.75556 0.16338 -0.03628
 H520 H 0.77325 0.16505 -0.02342
 C521 C 0.75241 0.18084 -0.05849
 H522 H 0.76778 0.19595 -0.06286
 C523 C 0.71366 0.14194 -0.04603
 H524 H 0.69840 0.12708 -0.04085
 C525 C 0.70975 0.15896 -0.06849
 H526 H 0.69156 0.15704 -0.08064
 Zn527 Zn 0.74218 0.12202 0.00031
 N528 N 0.73646 0.14423 -0.03066
 C529 C 0.78778 0.10052 -0.02893
 N530 N 0.77287 0.09913 -0.00539
 C531 C 0.77960 0.08143 0.01481
 C532 C 0.80314 0.06550 0.01255
 C533 C 0.81132 0.08475 -0.03216
 C534 C 0.72900 0.16538 0.03613
 C535 C 0.73315 0.18448 0.05709
 C536 C 0.77656 0.16319 0.06593
 C537 C 0.77166 0.14460 0.04476
 N538 N 0.74809 0.14587 0.03046
 H539 H 0.78166 0.11407 -0.04511
 H540 H 0.76706 0.08033 0.03307
 H541 H 0.80879 0.05213 0.02914
 H542 H 0.82330 0.08628 -0.05080
 H543 H 0.71068 0.16628 0.02410
 H544 H 0.71793 0.20004 0.06140
 H545 H 0.79544 0.16214 0.07707
 H546 H 0.78698 0.12957 0.03951
 C547 C 0.72942 0.17848 -0.07498
 C548 C 0.66756 0.06547 0.01386
 C549 C 0.75727 0.18351 0.07204
 C550 C 0.81961 0.06763 -0.01088
 C551 C 0.20871 0.58033 0.48807
 H552 H 0.22149 0.57934 0.46994
 C553 C 0.18750 0.56182 0.49130
 H554 H 0.18375 0.54663 0.47555
 C555 C 0.19811 0.60112 0.53094
 H556 H 0.20252 0.61616 0.54654
 C557 C 0.17666 0.58306 0.53496
 H558 H 0.16450 0.58444 0.55352
 N559 N 0.21348 0.59961 0.50766
 C560 C 0.25515 0.66729 0.46830
 H561 H 0.27215 0.66957 0.48198
 C562 C 0.25219 0.68494 0.44622
 H563 H 0.26696 0.70087 0.44281
 C564 C 0.21509 0.64373 0.45599
 H565 H 0.20054 0.62783 0.45999
 C566 C 0.21142 0.66087 0.43359
 H567 H 0.19413 0.65804 0.42033
 Zn568 Zn 0.24320 0.62339 0.50237
 N569 N 0.23697 0.64691 0.47250
 C570 C 0.29005 0.60554 0.47276
 N571 N 0.27439 0.60153 0.49546
 C572 C 0.28043 0.58155 0.51368
 C573 C 0.30361 0.56532 0.50994
 C574 C 0.31344 0.58982 0.46829
 C575 C 0.22896 0.66442 0.54041
 C576 C 0.23176 0.68118 0.56350
 C577 C 0.27485 0.65926 0.57241
 C578 C 0.27127 0.64296 0.54913
 N579 N 0.24838 0.64549 0.53392
 H580 H 0.28459 0.62101 0.45815
 H581 H 0.26738 0.57852 0.53132
 H582 H 0.30852 0.54977 0.52477
 H583 H 0.32601 0.59338 0.45037
 H584 H 0.21120 0.66635 0.52767
 H585 H 0.21608 0.69602 0.56866
 H586 H 0.29306 0.65702 0.58447
 H587 H 0.28683 0.62836 0.54328
 C588 C 0.23035 0.68147 0.42840
 C589 C 0.17135 0.56307 0.51506
 C590 C 0.25476 0.67835 0.57993
 C591 C 0.32056 0.56978 0.48726
 C592 C 0.71401 0.91312 0.51671
 H593 H 0.72631 0.91387 0.53495
 C594 C 0.69136 0.93023 0.51450
 H595 H 0.68614 0.94415 0.53113
 C596 C 0.70581 0.89406 0.47276
 H597 H 0.71167 0.88015 0.45643
 C598 C 0.68309 0.91093 0.46964
 H599 H 0.67148 0.90988 0.45093
 N600 N 0.72044 0.89510 0.49626
 C601 C 0.76387 0.82866 0.53606
 H602 H 0.78221 0.82784 0.52371
 C603 C 0.75987 0.80969 0.55688
 H604 H 0.77523 0.79428 0.56070
 C605 C 0.72113 0.84931 0.54576
 H606 H 0.70584 0.86440 0.54108
 C607 C 0.71634 0.83076 0.56678
 H608 H 0.69757 0.83196 0.57847
 Zn609 Zn 0.75090 0.87196 0.50132
 N610 N 0.74469 0.84807 0.53101
 C611 C 0.79687 0.89122 0.53060
 N612 N 0.78130 0.89440 0.50795
 C613 C 0.78688 0.91403 0.48921
 C614 C 0.80951 0.93073 0.49231
 C615 C 0.81977 0.90744 0.53445
 C616 C 0.73827 0.83066 0.46364
 C617 C 0.74262 0.81248 0.44182
 C618 C 0.78591 0.83389 0.43325
 C619 C 0.78079 0.85161 0.45529
 N620 N 0.75723 0.84974 0.46993
 H621 H 0.79173 0.87600 0.54562
 H622 H 0.77388 0.91642 0.47164
 H623 H 0.81393 0.94613 0.47714
 H624 H 0.83230 0.90447 0.55231
 H625 H 0.71991 0.82937 0.47587
 H626 H 0.72750 0.79724 0.43705
 H627 H 0.80481 0.83534 0.42187
 H628 H 0.79588 0.86647 0.46093
 C629 C 0.73574 0.81051 0.57227
 C630 C 0.67539 0.92886 0.49093
 C631 C 0.76683 0.81387 0.42662
 C632 C 0.82652 0.92708 0.51487
 C633 C 0.00626 0.21114 0.41491
 H634 H 0.02360 0.22424 0.41732
 C635 C 0.00336 0.18856 0.43190
 H636 H 0.01876 0.18407 0.44694
 C637 C -0.03550 0.20137 0.39333
 H638 H -0.05093 0.20664 0.37873
 C639 C -0.03913 0.17849 0.40983
 H640 H -0.05712 0.16610 0.40760
 N641 N -0.01276 0.21688 0.39568
 C642 C 0.02408 0.24042 0.32342
 H643 H 0.00484 0.24170 0.31318
 C644 C 0.04775 0.23740 0.30773
 H645 H 0.04650 0.23604 0.28562
 C646 C 0.04966 0.24162 0.36428
 H647 H 0.05045 0.24415 0.38622
 C648 C 0.07383 0.23867 0.34935
 H649 H 0.09305 0.23824 0.35994
 Zn650 Zn -0.00689 0.24750 0.37258
 N651 N 0.02534 0.24221 0.35124
 C652 C 0.01203 0.30023 0.38421
 N653 N -0.00230 0.27897 0.39459
 C654 C -0.01374 0.28028 0.42003
 C655 C -0.01096 0.30377 0.43617
 C656 C 0.01535 0.32407 0.39967
 C657 C -0.04487 0.23304 0.33146
 C658 C -0.06587 0.23770 0.31301
 C659 C -0.07064 0.28352 0.33129
 C660 C -0.04971 0.27794 0.34953
 N661 N -0.03699 0.25316 0.34906
 H662 H 0.02073 0.29870 0.36383
 H663 H -0.02521 0.26317 0.42770
 H664 H -0.02012 0.30470 0.45641
 H665 H 0.02673 0.34093 0.39124
 H666 H -0.03445 0.21351 0.33141
 H667 H -0.07183 0.22164 0.29894
 H668 H -0.08022 0.30350 0.33150
 H669 H -0.04332 0.29366 0.36369
 C670 C 0.07294 0.23671 0.32075
 C671 C -0.01931 0.17175 0.42907
 C672 C -0.07854 0.26341 0.31244
 C673 C 0.00355 0.32602 0.42584
 C674 C -0.00385 0.72243 0.07734
 H675 H -0.01927 0.73766 0.07326
 C676 C 0.00113 0.70142 0.05840
 H677 H -0.01047 0.70054 0.03968
 C678 C 0.03030 0.70521 0.10654
 H679 H 0.04178 0.70680 0.12518
 C680 C 0.03555 0.68354 0.08842
 H681 H 0.05078 0.66839 0.09346
 N682 N 0.01086 0.72412 0.10073
 C683 C -0.03364 0.76513 0.16691
 H684 H -0.02234 0.78391 0.16888
 C685 C -0.05491 0.75967 0.18510
 H686 H -0.06024 0.77444 0.20093
 C687 C -0.04029 0.72277 0.14407
 H688 H -0.03431 0.70835 0.12821
 C689 C -0.06152 0.71637 0.16200
 H690 H -0.07189 0.69704 0.15983
 Zn691 Zn 0.00369 0.75419 0.12448
 N692 N -0.02678 0.74676 0.14691
 C693 C -0.02577 0.80046 0.10540
 N694 N -0.00268 0.78525 0.10246
 C695 C 0.01632 0.79133 0.08309
 C696 C 0.01291 0.81402 0.06633
 C697 C -0.02994 0.82339 0.08910
 C698 C 0.03828 0.74193 0.16802
 C699 C 0.06007 0.74534 0.18579
 C700 C 0.07120 0.78726 0.16259
 C701 C 0.04920 0.78306 0.14525
 N702 N 0.03356 0.76040 0.14791
 H703 H -0.04098 0.79492 0.12036
 H704 H 0.03421 0.77855 0.08080
 H705 H 0.02821 0.81876 0.05105
 H706 H -0.04823 0.83557 0.09180
 H707 H 0.02511 0.72447 0.17017
 H708 H 0.06384 0.73036 0.20152
 H709 H 0.08364 0.80526 0.16022
 H710 H 0.04472 0.79795 0.12974
 C711 C -0.06870 0.73477 0.18305
 C712 C 0.02129 0.68184 0.06372
 C713 C 0.07701 0.76801 0.18282
 C714 C -0.01024 0.83056 0.06962
 C715 C 0.49189 0.20380 0.59955
 H716 H 0.47480 0.20343 0.61357
 C717 C 0.49627 0.18192 0.58144
 H718 H 0.48256 0.16471 0.58169
 C719 C 0.53008 0.22691 0.58142
 H720 H 0.54283 0.24481 0.58119
 C721 C 0.53554 0.20523 0.56340
 H722 H 0.55294 0.20622 0.54973
 N723 N 0.50875 0.22569 0.59924
 C724 C 0.44615 0.26429 0.63765
 H725 H 0.44512 0.27795 0.62050
 C726 C 0.42318 0.26095 0.65416
 H727 H 0.40455 0.27156 0.64910
 C728 C 0.47120 0.23361 0.66509
 H729 H 0.49007 0.22307 0.66920
 C730 C 0.44889 0.23027 0.68259
 H731 H 0.45064 0.21706 0.70018
 Zn732 Zn 0.50171 0.25621 0.62230
 N733 N 0.46958 0.25067 0.64329
 C734 C 0.47914 0.28674 0.57949
 N735 N 0.49794 0.28722 0.59972
 C736 C 0.51429 0.30920 0.60348
 C737 C 0.51121 0.33236 0.58728
 C738 C 0.47494 0.30972 0.56328
 C739 C 0.55523 0.24994 0.64393
 C740 C 0.57607 0.25552 0.66233
 C741 C 0.54505 0.28436 0.68825
 C742 C 0.52504 0.27884 0.66897
 N743 N 0.53043 0.26199 0.64726
 H744 H 0.46703 0.26865 0.57632
 H745 H 0.52971 0.30887 0.61907
 H746 H 0.52441 0.34969 0.59040
 H747 H 0.45933 0.30937 0.54780
 H748 H 0.55907 0.23617 0.62695
 H749 H 0.59585 0.24618 0.65917
 H750 H 0.54027 0.29737 0.70571
 H751 H 0.50506 0.28790 0.67135
 C752 C 0.42463 0.24442 0.67743
 C753 C 0.51817 0.18264 0.56289
 C754 C 0.57118 0.27324 0.68461
 C755 C 0.49070 0.33311 0.56754
 C756 C 0.50595 0.71083 0.91640
 H757 H 0.52035 0.72642 0.92211
 C758 C 0.50343 0.68740 0.93228
 H759 H 0.51569 0.68511 0.95044
 C760 C 0.47231 0.69481 0.88590
 H761 H 0.46018 0.69775 0.86786
 C762 C 0.46943 0.67088 0.90099
 H763 H 0.45513 0.65550 0.89439
 N764 N 0.49064 0.71402 0.89358
 C765 C 0.53181 0.75762 0.82848
 H766 H 0.51883 0.77536 0.82634
 C767 C 0.55333 0.75316 0.81011
 H768 H 0.55698 0.76756 0.79379
 C769 C 0.54269 0.71690 0.85210
 H770 H 0.53839 0.70274 0.86839
 C771 C 0.56447 0.71174 0.83428
 H772 H 0.57701 0.69374 0.83706
 Zn773 Zn 0.49659 0.74562 0.87228
 N774 N 0.52690 0.73955 0.84892
 C775 C 0.52601 0.79064 0.89352
 N776 N 0.50327 0.77526 0.89645
 C777 C 0.48536 0.77991 0.91738
 C778 C 0.48992 0.80085 0.93635
 C779 C 0.53130 0.81185 0.91199
 C780 C 0.46166 0.73643 0.82815
 C781 C 0.44004 0.74153 0.81058
 C782 C 0.42820 0.78123 0.83803
 C783 C 0.45007 0.77541 0.85508
 N784 N 0.46616 0.75318 0.85002
 H785 H 0.54018 0.78640 0.87700
 H786 H 0.46760 0.76717 0.91940
 H787 H 0.47555 0.80443 0.95294
 H788 H 0.54945 0.82398 0.90953
 H789 H 0.47504 0.71919 0.82427
 H790 H 0.43655 0.72799 0.79331
 H791 H 0.41549 0.79894 0.84224
 H792 H 0.45421 0.78878 0.87222
 C793 C 0.56968 0.72980 0.81276
 C794 C 0.48546 0.66681 0.92420
 C795 C 0.42320 0.76428 0.81540
 C796 C 0.51324 0.81690 0.93380
 C797 C 0.10250 0.20941 0.28972
 C798 C 0.12586 0.20548 0.27388
 C799 C 0.14554 0.22591 0.27207
 C800 C 0.14182 0.25065 0.28699
 C801 C 0.11793 0.25474 0.30298
 C802 C 0.09821 0.23381 0.30437
 C803 C 0.11440 0.27993 0.31670
 N804 N 0.13397 0.29922 0.31515
 N805 N 0.15673 0.29508 0.30075
 C806 C 0.16135 0.27148 0.28667
 H807 H 0.08759 0.19326 0.29059
 H808 H 0.12841 0.18649 0.26255
 H809 H 0.09627 0.28455 0.32853
 H810 H 0.18030 0.26920 0.27550
 C811 C 0.61332 0.74393 0.79201
 C812 C 0.63590 0.73962 0.77511
 C813 C 0.63842 0.71576 0.75924
 C814 C 0.61736 0.69621 0.75976
 C815 C 0.59424 0.70068 0.77681
 C816 C 0.59254 0.72457 0.79344
 C817 C 0.57325 0.68134 0.77605
 N818 N 0.57562 0.65891 0.75968
 N819 N 0.59741 0.65462 0.74385
 C820 C 0.61829 0.67251 0.74325
 H821 H 0.61225 0.76236 0.80444
 H822 H 0.65177 0.75483 0.77472
 H823 H 0.55482 0.68397 0.78797
 H824 H 0.63525 0.66817 0.72965
 C825 C 0.37379 0.76884 0.80811
 C826 C 0.35121 0.77308 0.79169
 C827 C 0.35425 0.77874 0.76376
 C828 C 0.38071 0.78105 0.75235
 C829 C 0.40372 0.77668 0.76908
 C830 C 0.40010 0.77009 0.79710
 C831 C 0.42967 0.77973 0.75729
 N832 N 0.43224 0.78652 0.73053
 N833 N 0.41066 0.79066 0.71484
 C834 C 0.38502 0.78828 0.72483
 H835 H 0.37071 0.76403 0.82953
 H836 H 0.33113 0.77142 0.80074
 H837 H 0.44794 0.77716 0.76911
 H838 H 0.36832 0.79243 0.71125
 C839 C -0.12571 0.27705 0.30223
 C840 C -0.14677 0.28300 0.28444
 C841 C -0.14310 0.28133 0.25584
 C842 C -0.11660 0.27517 0.24529
 C843 C -0.09515 0.26897 0.26360
 C844 C -0.10003 0.26946 0.29227
 C845 C -0.06908 0.26376 0.25261
 N846 N -0.06472 0.26510 0.22523
 N847 N -0.08450 0.27174 0.20812
 C848 C -0.11008 0.27715 0.21717
 H849 H -0.12963 0.27791 0.32410
 H850 H -0.16653 0.28769 0.29329
 H851 H -0.05193 0.25926 0.26548
 H852 H -0.12472 0.28381 0.20229
 C853 C -0.11652 0.72266 0.19237
 C854 C -0.13823 0.71706 0.20979
 C855 C -0.13510 0.71695 0.23842
 C856 C -0.10851 0.72051 0.24927
 C857 C -0.08638 0.72624 0.23136
 C858 C -0.09071 0.72800 0.20274
 C859 C -0.06029 0.72880 0.24260
 N860 N -0.05659 0.72550 0.26983
 N861 N -0.07709 0.71938 0.28653
 C862 C -0.10274 0.71643 0.27721
 H863 H -0.12006 0.72351 0.17052
 H864 H -0.15803 0.71428 0.20072
 H865 H -0.04263 0.73270 0.23000
 H866 H -0.11809 0.71005 0.29166
 C867 C 0.39145 0.21470 0.70082
 C868 C 0.36847 0.21018 0.71684
 C869 C 0.35326 0.23203 0.72828
 C870 C 0.36139 0.25924 0.72188
 C871 C 0.38585 0.26371 0.70693
 C872 C 0.40060 0.24117 0.69575
 C873 C 0.39472 0.29078 0.70368
 N874 N 0.37871 0.31191 0.71207
 N875 N 0.35450 0.30780 0.72354
 C876 C 0.34516 0.28230 0.72839
 H877 H 0.40232 0.19721 0.69235
 H878 H 0.36340 0.18917 0.72124
 H879 H 0.41419 0.29542 0.69456
 H880 H 0.32492 0.28038 0.73680
 C881 C 0.60598 0.25665 0.71676
 C882 C 0.62617 0.26040 0.73612
 C883 C 0.63408 0.28672 0.74465
 C884 C 0.61964 0.30966 0.73397
 C885 C 0.60020 0.30578 0.71295
 C886 C 0.59298 0.27895 0.70470
 C887 C 0.58866 0.32907 0.70084
 N888 N 0.59391 0.35426 0.71114
 N889 N 0.60996 0.35773 0.73264
 C890 C 0.62269 0.33635 0.74458
 H891 H 0.60062 0.23598 0.71092
 H892 H 0.63654 0.24231 0.74336
 H893 H 0.57552 0.32759 0.68330
 H894 H 0.63465 0.34045 0.76257
 C895 C 0.09519 0.77566 0.22927
 C896 C 0.11633 0.77992 0.24752
 C897 C 0.14332 0.78049 0.23830
 C898 C 0.14916 0.77599 0.21012
 C899 C 0.12761 0.77166 0.19151
 C900 C 0.10040 0.77185 0.20124
 C901 C 0.13414 0.76651 0.16382
 N902 N 0.16046 0.76600 0.15545
 N903 N 0.18068 0.77005 0.17291
 C904 C 0.17596 0.77489 0.19993
 H905 H 0.07451 0.77566 0.23703
 H906 H 0.11158 0.78311 0.26903
 H907 H 0.11866 0.76254 0.14878
 H908 H 0.19323 0.77749 0.21317
 C909 C 0.28669 0.10163 0.21925
 C910 C 0.26949 0.12389 0.21526
 C911 C 0.26923 0.14602 0.23362
 C912 C 0.28718 0.14603 0.25613
 C913 C 0.30487 0.12343 0.26011
 C914 C 0.30423 0.10087 0.24167
 C915 C 0.32316 0.12458 0.28206
 N916 N 0.32326 0.14667 0.29901
 N917 N 0.30651 0.16777 0.29539
 C918 C 0.28857 0.16826 0.27450
 H919 H 0.28605 0.08465 0.20489
 H920 H 0.25598 0.12371 0.19786
 H921 H 0.33763 0.10837 0.28572
 H922 H 0.27581 0.18615 0.27231
 C923 C 0.78864 0.59890 0.71380
 C924 C 0.77101 0.62062 0.70892
 C925 C 0.76756 0.64171 0.72823
 C926 C 0.78282 0.64123 0.75272
 C927 C 0.80083 0.61910 0.75769
 C928 C 0.80339 0.59759 0.73815
 C929 C 0.81625 0.61966 0.78180
 N930 N 0.81350 0.64083 0.79973
 N931 N 0.79657 0.66156 0.79509
 C932 C 0.78124 0.66256 0.77219
 H933 H 0.79049 0.58272 0.69860
 H934 H 0.75961 0.62078 0.69004
 H935 H 0.83072 0.60371 0.78643
 H936 H 0.76827 0.68017 0.76930
 C937 C 0.80376 0.37593 0.77350
 C938 C 0.78563 0.35464 0.77778
 C939 C 0.75850 0.36000 0.78491
 C940 C 0.74967 0.38744 0.78863
 C941 C 0.76812 0.40912 0.78418
 C942 C 0.79527 0.40320 0.77618
 C943 C 0.75888 0.43608 0.78859
 N944 N 0.73288 0.44084 0.79675
 N945 N 0.71559 0.42050 0.80101
 C946 C 0.72309 0.39401 0.79736
 H947 H 0.82452 0.37112 0.76763
 H948 H 0.79271 0.33378 0.77508
 H949 H 0.77211 0.45341 0.78596
 H950 H 0.70829 0.37839 0.80168
 C951 C 0.30198 -0.11799 0.28818
 C952 C 0.28406 -0.13927 0.29303
 C953 C 0.25579 -0.13538 0.29130
 C954 C 0.24567 -0.10843 0.28668
 C955 C 0.26410 -0.08672 0.28175
 C956 C 0.29246 -0.09186 0.28179
 C957 C 0.25350 -0.06023 0.27812
 N958 N 0.22636 -0.05575 0.27965
 N959 N 0.20912 -0.07585 0.28499
 C960 C 0.21780 -0.10185 0.28888
 H961 H 0.32359 -0.12218 0.28867
 H962 H 0.29260 -0.15937 0.29658
 H963 H 0.26649 -0.04286 0.27477
 H964 H 0.20283 -0.11684 0.29452
 C965 C 0.21922 -0.10004 0.74150
 C966 C 0.23611 -0.12286 0.73925
 C967 C 0.22560 -0.14899 0.73365
 C968 C 0.19680 -0.15188 0.73210
 C969 C 0.17974 -0.12835 0.73338
 C970 C 0.19115 -0.10229 0.73833
 C971 C 0.15167 -0.13176 0.72961
 N972 N 0.14119 -0.15718 0.72718
 N973 N 0.15686 -0.17938 0.72825
 C974 C 0.18416 -0.17763 0.73092
 H975 H 0.22825 -0.08029 0.74551
 H976 H 0.25779 -0.11957 0.74047
 H977 H 0.13791 -0.11453 0.72864
 H978 H 0.19558 -0.19644 0.73267
 C979 C 0.69185 0.38234 0.22926
 C980 C 0.70932 0.36019 0.22513
 C981 C 0.73688 0.36418 0.21923
 C982 C 0.74694 0.39117 0.21698
 C983 C 0.72915 0.41374 0.22133
 C984 C 0.70144 0.40915 0.22769
 C985 C 0.73960 0.44025 0.21836
 N986 N 0.76609 0.44375 0.21158
 N987 N 0.78275 0.42257 0.20735
 C988 C 0.77409 0.39645 0.20967
 H989 H 0.67066 0.37856 0.23388
 H990 H 0.70130 0.33969 0.22669
 H991 H 0.72695 0.45821 0.22105
 H992 H 0.78846 0.38015 0.20543
 C993 C 0.69403 0.62647 0.26153
 C994 C 0.71244 0.64741 0.26630
 C995 C 0.73968 0.64157 0.27201
 C996 C 0.74843 0.61394 0.27340
 C997 C 0.72969 0.59262 0.26839
 C998 C 0.70234 0.59908 0.26223
 C999 C 0.73885 0.56543 0.27052
 N1000 N 0.76501 0.56012 0.27714
 N1001 N 0.78256 0.58012 0.28199
 C1002 C 0.77516 0.60679 0.28050
 H1003 H 0.67312 0.63165 0.25710
 H1004 H 0.70541 0.66841 0.26542
 H1005 H 0.72544 0.54834 0.26729
 H1006 H 0.79019 0.62206 0.28522
 C1007 C 0.19499 0.12360 0.76393
 C1008 C 0.21199 0.14573 0.76852
 C1009 C 0.24017 0.14213 0.77020
 C1010 C 0.25139 0.11547 0.76712
 C1011 C 0.23410 0.09302 0.76162
 C1012 C 0.20557 0.09712 0.76069
 C1013 C 0.24608 0.06720 0.75693
 N1014 N 0.27331 0.06393 0.75917
 N1015 N 0.28938 0.08472 0.76566
 C1016 C 0.27938 0.11031 0.76981
 H1017 H 0.17327 0.12714 0.76330
 H1018 H 0.20307 0.16593 0.77078
 H1019 H 0.23415 0.04962 0.75128
 H1020 H 0.29342 0.12624 0.77535
 C1021 C 0.24712 0.29673 0.12313
 C1022 C 0.24348 0.28006 0.14582
 C1023 C 0.22319 0.26020 0.14610
 C1024 C 0.20667 0.25653 0.12280
 C1025 C 0.21056 0.27327 0.09954
 C1026 C 0.23065 0.29391 0.10002
 C1027 C 0.19457 0.26824 0.07631
 N1028 N 0.17563 0.24827 0.07678
 N1029 N 0.17174 0.23284 0.09877
 C1030 C 0.18663 0.23622 0.12175
 H1031 H 0.26267 0.31226 0.12375
 H1032 H 0.25636 0.28291 0.16347
 H1033 H 0.19715 0.27969 0.05766
 H1034 H 0.18284 0.22285 0.13886
 C1035 C 0.74861 0.79037 0.61661
 C1036 C 0.74435 0.77290 0.63857
 C1037 C 0.72226 0.75504 0.63888
 C1038 C 0.70463 0.75410 0.61612
 C1039 C 0.70901 0.77184 0.59370
 C1040 C 0.73093 0.79047 0.59430
 C1041 C 0.69159 0.76983 0.57109
 N1042 N 0.67107 0.75150 0.57123
 N1043 N 0.66691 0.73493 0.59231
 C1044 C 0.68301 0.73552 0.61468
 H1045 H 0.76556 0.80435 0.61727
 H1046 H 0.75811 0.77367 0.65575
 H1047 H 0.69428 0.78234 0.55315
 H1048 H 0.67894 0.72122 0.63093
 C1049 C 0.77371 0.80429 0.37724
 C1050 C 0.77854 0.78673 0.35510
 C1051 C 0.78226 0.75864 0.35906
 C1052 C 0.78182 0.74816 0.38606
 C1053 C 0.77677 0.76604 0.40860
 C1054 C 0.77239 0.79427 0.40399
 C1055 C 0.77699 0.75510 0.43515
 N1056 N 0.78186 0.72807 0.43872
 N1057 N 0.78672 0.71131 0.41759
 C1058 C 0.78700 0.72042 0.39144
 H1059 H 0.77065 0.82586 0.37346
 H1060 H 0.77902 0.79507 0.33462
 H1061 H 0.77367 0.76777 0.45313
 H1062 H 0.79162 0.70593 0.37520
 C1063 C 0.28641 0.28090 -0.10093
 C1064 C 0.29137 0.26420 -0.12371
 C1065 C 0.27396 0.26472 -0.14621
 C1066 C 0.25125 0.28263 -0.14590
 C1067 C 0.24622 0.29966 -0.12272
 C1068 C 0.26408 0.29878 -0.10016
 C1069 C 0.22320 0.31680 -0.12282
 N1070 N 0.20675 0.31716 -0.14494
 N1071 N 0.21173 0.30152 -0.16689
 C1072 C 0.23340 0.28430 -0.16815
 H1073 H 0.30020 0.28002 -0.08379
 H1074 H 0.30881 0.25060 -0.12374
 H1075 H 0.21805 0.32984 -0.10552
 H1076 H 0.23648 0.27217 -0.18655
 C1077 C 0.72232 0.22492 -0.09311
 C1078 C 0.71827 0.24326 -0.11435
 C1079 C 0.71750 0.23419 -0.14163
 C1080 C 0.72159 0.20604 -0.14764
 C1081 C 0.72559 0.18734 -0.12597
 C1082 C 0.72566 0.19694 -0.09850
 C1083 C 0.73015 0.15965 -0.13264
 N1084 N 0.73054 0.15140 -0.15923
 N1085 N 0.72689 0.16895 -0.17957
 C1086 C 0.72257 0.19596 -0.17472
 H1087 H 0.72252 0.23257 -0.07222
 H1088 H 0.71537 0.26471 -0.10943
 H1089 H 0.73373 0.14454 -0.11705
 H1090 H 0.72031 0.20927 -0.19210
 C1091 C 0.22127 0.72715 0.40932
 C1092 C 0.21781 0.74504 0.38760
 C1093 C 0.22035 0.73587 0.36042
 C1094 C 0.22719 0.70812 0.35507
 C1095 C 0.23053 0.68985 0.37722
 C1096 C 0.22726 0.69952 0.40450
 C1097 C 0.23776 0.66257 0.37127
 N1098 N 0.24133 0.65429 0.34490
 N1099 N 0.23837 0.67146 0.32413
 C1100 C 0.23157 0.69807 0.32829
 H1101 H 0.21893 0.73484 0.43009
 H1102 H 0.21276 0.76621 0.39203
 H1103 H 0.24090 0.64781 0.38730
 H1104 H 0.23002 0.71113 0.31063
 C1105 C 0.26094 0.72393 0.60104
 C1106 C 0.26515 0.74119 0.62340
 C1107 C 0.26660 0.73079 0.64999
 C1108 C 0.26290 0.70242 0.65419
 C1109 C 0.25871 0.68481 0.63138
 C1110 C 0.25810 0.69574 0.60460
 C1111 C 0.25456 0.65686 0.63628
 N1112 N 0.25475 0.64732 0.66226
 N1113 N 0.25860 0.66385 0.68367
 C1114 C 0.26255 0.69103 0.68055
 H1115 H 0.26035 0.73258 0.58070
 H1116 H 0.26773 0.76285 0.61989
 H1117 H 0.25082 0.64254 0.61977
 H1118 H 0.26501 0.70347 0.69875
 C1119 C 0.76320 0.19503 0.12095
 C1120 C 0.76857 0.21324 0.14226
 C1121 C 0.77374 0.24082 0.13701
 C1122 C 0.77400 0.25012 0.10956
 C1123 C 0.76830 0.23159 0.08788
 C1124 C 0.76269 0.20390 0.09378
 C1125 C 0.76916 0.24130 0.06085
 N1126 N 0.77531 0.26779 0.05602
 N1127 N 0.78086 0.28514 0.07634
 C1128 C 0.78055 0.27721 0.10288
 H1129 H 0.75921 0.17384 0.12570
 H1130 H 0.76847 0.20580 0.16310
 H1131 H 0.76528 0.22808 0.04349
 H1132 H 0.78579 0.29209 0.11840
 C1133 C 0.48683 0.35500 0.52219
 C1134 C 0.48311 0.37745 0.50531
 C1135 C 0.47903 0.40368 0.51640
 C1136 C 0.47918 0.40729 0.54529
 C1137 C 0.48178 0.38422 0.56253
 C1138 C 0.48621 0.35789 0.55078
 C1139 C 0.47932 0.38835 0.59103
 N1140 N 0.47648 0.41398 0.60144
 N1141 N 0.47572 0.43575 0.58532
 C1142 C 0.47707 0.43331 0.55767
 H1143 H 0.49023 0.33511 0.51281
 H1144 H 0.48304 0.37425 0.48332
 H1145 H 0.47937 0.37152 0.60518
 H1146 H 0.47670 0.45177 0.54570
 C1147 C -0.03665 0.85569 0.03501
 C1148 C -0.04114 0.87786 0.01792
 C1149 C -0.02324 0.89996 0.01763
 C1150 C -0.00066 0.90000 0.03543
 C1151 C 0.00385 0.87746 0.05294
 C1152 C -0.01416 0.85498 0.05237
 C1153 C 0.02590 0.87861 0.07103
 N1154 N 0.04240 0.90067 0.07118
 N1155 N 0.03823 0.92174 0.05465
 C1156 C 0.01724 0.92223 0.03689
 H1157 H -0.05070 0.83876 0.03448
 H1158 H -0.05860 0.87769 0.00459
 H1159 H 0.03001 0.86240 0.08533
 H1160 H 0.01461 0.94013 0.02435
 C1161 C 0.00467 0.64312 0.03580
 C1162 C 0.00838 0.62081 0.01831
 C1163 C 0.03437 0.61318 0.00872
 C1164 C 0.05681 0.63019 0.01543
 C1165 C 0.05285 0.65323 0.03304
 C1166 C 0.02664 0.65914 0.04396
 C1167 C 0.07513 0.67036 0.03814
 N1168 N 0.09961 0.66479 0.02644
 N1169 N 0.10326 0.64354 0.00961
 C1170 C 0.08273 0.62631 0.00346
 H1171 H -0.01555 0.64750 0.04364
 H1172 H -0.00919 0.60850 0.01354
 H1173 H 0.07326 0.68856 0.05070
 H1174 H 0.08680 0.61033 -0.01143
 C1175 C 0.52594 0.13321 0.55468
 C1176 C 0.53137 0.11065 0.53791
 C1177 C 0.53472 0.11354 0.50955
 C1178 C 0.53290 0.14000 0.49798
 C1179 C 0.52627 0.16286 0.51493
 C1180 C 0.52330 0.15943 0.54366
 C1181 C 0.52235 0.18833 0.50234
 N1182 N 0.52665 0.19096 0.47503
 N1183 N 0.53441 0.16984 0.45941
 C1184 C 0.53777 0.14452 0.46993
 H1185 H 0.52380 0.13016 0.57654
 H1186 H 0.53260 0.09065 0.54715
 H1187 H 0.51567 0.20615 0.51381
 H1188 H 0.54443 0.12828 0.45627
 C1189 C -0.02650 0.15119 0.47458
 C1190 C -0.02949 0.12894 0.49190
 C1191 C -0.02827 0.10215 0.48158
 C1192 C -0.02331 0.09773 0.45321
 C1193 C -0.02046 0.12042 0.43554
 C1194 C -0.02232 0.14732 0.44641
 C1195 C -0.01509 0.11537 0.40759
 N1196 N -0.01278 0.08933 0.39812
 N1197 N -0.01526 0.06804 0.41472
 C1198 C -0.02029 0.07132 0.44190
 H1199 H -0.02772 0.17164 0.48318
 H1200 H -0.03309 0.13264 0.51355
 H1201 H -0.01242 0.13183 0.39322
 H1202 H -0.02152 0.05325 0.45440
 C1203 C 0.45739 0.63435 0.95046
 C1204 C 0.45388 0.61131 0.96654
 C1205 C 0.47601 0.59451 0.97348
 C1206 C 0.50198 0.60022 0.96173
 C1207 C 0.50542 0.62372 0.94515
 C1208 C 0.48301 0.64130 0.94022
 C1209 C 0.53102 0.62819 0.93298
 N1210 N 0.55164 0.61027 0.93701
 N1211 N 0.54833 0.58795 0.95198
 C1212 C 0.52424 0.58214 0.96415
 H1213 H 0.43997 0.64733 0.94655
 H1214 H 0.43381 0.60757 0.97491
 H1215 H 0.53474 0.64533 0.91971
 H1216 H 0.52262 0.56299 0.97481
 C1217 C 0.51804 0.86609 0.94424
 C1218 C 0.52225 0.88795 0.96211
 C1219 C 0.52725 0.88354 0.98994
 C1220 C 0.52878 0.85640 0.99978
 C1221 C 0.52434 0.83413 0.98158
 C1222 C 0.51860 0.83916 0.95367
 C1223 C 0.52649 0.80744 0.99185
 N1224 N 0.53260 0.80349 1.01856
 N1225 N 0.53689 0.82437 1.03560
 C1226 C 0.53531 0.85064 1.02713
 H1227 H 0.51387 0.87023 0.92292
 H1228 H 0.52117 0.90855 0.95424
 H1229 H 0.52372 0.78969 0.97889
 H1230 H 0.53956 0.86669 1.04179
 C1231 C 0.03287 0.35820 0.45081
 C1232 C 0.03716 0.38106 0.46728
 C1233 C 0.01540 0.39782 0.47620
 C1234 C -0.01112 0.39209 0.46610
 C1235 C -0.01542 0.36843 0.44964
 C1236 C 0.00676 0.35118 0.44248
 C1237 C -0.04172 0.36338 0.43987
 N1238 N -0.06215 0.38126 0.44554
 N1239 N -0.05799 0.40401 0.45998
 C1240 C -0.03323 0.41020 0.47011
 H1241 H 0.05007 0.34537 0.44513
 H1242 H 0.05762 0.38461 0.47437
 H1243 H -0.04616 0.34572 0.42728
 H1244 H -0.03100 0.42964 0.48044
 C1245 C 0.34349 0.52564 0.47760
 C1246 C 0.36656 0.50952 0.47326
 C1247 C 0.39255 0.52087 0.47470
 C1248 C 0.39534 0.54897 0.48136
 C1249 C 0.37183 0.56541 0.48565
 C1250 C 0.34575 0.55358 0.48344
 C1251 C 0.37527 0.59309 0.49273
 N1252 N 0.40058 0.60347 0.49525
 N1253 N 0.42265 0.58802 0.49137
 C1254 C 0.42092 0.56115 0.48466
 H1255 H 0.32367 0.51632 0.47607
 H1256 H 0.36412 0.48803 0.46843
 H1257 H 0.35813 0.60652 0.49660
 H1258 H 0.43956 0.54956 0.48233
 C1259 C 0.84433 0.02352 -0.01142
 C1260 C 0.86774 0.00764 -0.01415
 C1261 C 0.89320 0.01964 -0.01902
 C1262 C 0.89496 0.04875 -0.01884
 C1263 C 0.87096 0.06487 -0.01606
 C1264 C 0.84542 0.05199 -0.01307
 C1265 C 0.87345 0.09351 -0.01513
 N1266 N 0.89829 0.10514 -0.01653
 N1267 N 0.92084 0.09011 -0.01834
 C1268 C 0.92008 0.06244 -0.01919
 H1269 H 0.82501 0.01340 -0.00867
 H1270 H 0.86556 -0.01437 -0.01396
 H1271 H 0.85602 0.10683 -0.01263
 H1272 H 0.93920 0.05155 -0.01923
 C1273 C 0.64835 0.01985 0.02268
 C1274 C 0.62673 0.00213 0.02677
 C1275 C 0.59984 0.01157 0.02566
 C1276 C 0.59470 0.03941 0.01956
 C1277 C 0.61676 0.05750 0.01562
 C1278 C 0.64376 0.04757 0.01749
 C1279 C 0.61100 0.08489 0.00923
 N1280 N 0.58489 0.09343 0.00696
 N1281 N 0.56419 0.07643 0.01044
 C1282 C 0.56818 0.04973 0.01653
 H1283 H 0.66890 0.01196 0.02395
 H1284 H 0.63101 -0.01911 0.03123
 H1285 H 0.62697 0.09952 0.00571
 H1286 H 0.55057 0.03683 0.01854
 C1287 C 0.12220 0.55438 0.51957
 C1288 C 0.10000 0.53726 0.52301
 C1289 C 0.10360 0.50905 0.52611
 C1290 C 0.13027 0.49795 0.52635
 C1291 C 0.15290 0.51540 0.52270
 C1292 C 0.14868 0.54380 0.51903
 C1293 C 0.17910 0.50385 0.52361
 N1294 N 0.18227 0.47668 0.52779
 N1295 N 0.16107 0.46033 0.53134
 C1296 C 0.13523 0.47002 0.53090
 H1297 H 0.11869 0.57608 0.51700
 H1298 H 0.07976 0.54608 0.52296
 H1299 H 0.19710 0.51617 0.52136
 H1300 H 0.11889 0.45583 0.53447
 C1301 C 0.14953 0.47217 -0.00827
 C1302 C 0.12793 0.49020 -0.01170
 C1303 C 0.10154 0.48070 -0.01694
 C1304 C 0.09693 0.45191 -0.01645
 C1305 C 0.11917 0.43357 -0.01320
 C1306 C 0.14571 0.44392 -0.00971
 C1307 C 0.11393 0.40536 -0.01237
 N1308 N 0.08811 0.39619 -0.01405
 N1309 N 0.06716 0.41332 -0.01610
 C1310 C 0.07061 0.44075 -0.01700
 H1311 H 0.16967 0.48039 -0.00523
 H1312 H 0.13238 0.51184 -0.01185
 H1313 H 0.12999 0.39049 -0.00976
 H1314 H 0.05264 0.45348 -0.01725
 C1315 C 0.65442 0.97484 0.48970
 C1316 C 0.63253 0.99255 0.48637
 C1317 C 0.60627 0.98263 0.48129
 C1318 C 0.60206 0.95380 0.48195
 C1319 C 0.62455 0.93579 0.48521
 C1320 C 0.65099 0.94653 0.48839
 C1321 C 0.61965 0.90751 0.48636
 N1322 N 0.59395 0.89800 0.48487
 N1323 N 0.57278 0.91483 0.48271
 C1324 C 0.57588 0.94228 0.48155
 H1325 H 0.67446 0.98335 0.49255
 H1326 H 0.63662 1.01427 0.48617
 H1327 H 0.63588 0.89287 0.48911
 H1328 H 0.55774 0.95477 0.48123
 C1329 C 0.85269 0.96106 0.54136
 C1330 C 0.87473 0.97836 0.54498
 C1331 C 0.89573 0.97921 0.52551
 C1332 C 0.89498 0.96159 0.50234
 C1333 C 0.87262 0.94385 0.49872
 C1334 C 0.85106 0.94406 0.51819
 C1335 C 0.87296 0.92597 0.47598
 N1336 N 0.89409 0.92628 0.45800
 N1337 N 0.91498 0.94307 0.46131
 C1338 C 0.91621 0.96064 0.48288
 H1339 H 0.83649 0.96131 0.55652
 H1340 H 0.87517 0.99159 0.56288
 H1341 H 0.85688 0.91148 0.47249
 H1342 H 0.93391 0.97344 0.48475
 C1343 C 0.35295 0.45788 0.03501
 C1344 C 0.37567 0.47430 0.03831
 C1345 C 0.39565 0.47567 0.01780
 C1346 C 0.39285 0.45974 -0.00641
 C1347 C 0.36947 0.44333 -0.00997
 C1348 C 0.34951 0.44227 0.01111
 C1349 C 0.36669 0.42887 -0.03482
 N1350 N 0.38658 0.42992 -0.05416
 N1351 N 0.40896 0.44452 -0.05039
 C1352 C 0.41281 0.45939 -0.02721
 H1353 H 0.33788 0.45730 0.05129
 H1354 H 0.37751 0.48635 0.05692
 H1355 H 0.34889 0.41688 -0.03918
 H1356 H 0.43151 0.47064 -0.02523
 C1357 C 0.52298 0.48717 0.34458
 C1358 C 0.50631 0.48346 0.36741
 C1359 C 0.51675 0.48536 0.39396
 C1360 C 0.54448 0.49201 0.39754
 C1361 C 0.56151 0.49559 0.37427
 C1362 C 0.55062 0.49278 0.34763
 C1363 C 0.58883 0.50250 0.37848
 N1364 N 0.59832 0.50561 0.40430
 N1365 N 0.58231 0.50245 0.42614
 C1366 C 0.55574 0.49589 0.42367
 H1367 H 0.51437 0.48515 0.32433
 H1368 H 0.48513 0.47858 0.36432
 H1369 H 0.60267 0.50580 0.36154
 H1370 H 0.54364 0.49416 0.44214
 C1371 C 0.03293 -0.02938 0.85356
 C1372 C 0.01642 -0.03410 0.87630
 C1373 C 0.01490 -0.01515 0.89792
 C1374 C 0.03056 0.00901 0.89667
 C1375 C 0.04723 0.01393 0.87340
 C1376 C 0.04853 -0.00563 0.85182
 C1377 C 0.06179 0.03853 0.87239
 N1378 N 0.06036 0.05645 0.89371
 N1379 N 0.04532 0.05147 0.91589
 C1380 C 0.03044 0.02839 0.91814
 H1381 H 0.03376 -0.04454 0.83727
 H1382 H 0.00454 -0.05264 0.87696
 H1383 H 0.07415 0.04379 0.85484
 H1384 H 0.01879 0.02537 0.93672
 C1385 C 0.02444 0.02124 0.65193
 C1386 C 0.00714 0.02409 0.62974
 C1387 C 0.01729 0.02370 0.60284
 C1388 C 0.04558 0.02007 0.59827
 C1389 C 0.06330 0.01776 0.62093
 C1390 C 0.05249 0.01796 0.64797
 C1391 C 0.09138 0.01575 0.61566
 N1392 N 0.10079 0.01475 0.58949
 N1393 N 0.08408 0.01575 0.56825
 C1394 C 0.05684 0.01829 0.57172
 H1395 H 0.01583 0.02142 0.67243
 H1396 H -0.01440 0.02686 0.63359
 H1397 H 0.10598 0.01515 0.63203
 H1398 H 0.04430 0.01871 0.55367
 C1399 C 0.52229 0.51888 0.14644
 C1400 C 0.50569 0.52109 0.12362
 C1401 C 0.51655 0.51877 0.09707
 C1402 C 0.54467 0.51326 0.09350
 C1403 C 0.56160 0.51114 0.11677
 C1404 C 0.55025 0.51437 0.14339
 C1405 C 0.58931 0.50517 0.11256
 N1406 N 0.59925 0.50168 0.08678
 N1407 N 0.58336 0.50354 0.06495
 C1408 C 0.55644 0.50908 0.06742
 H1409 H 0.51332 0.52116 0.16669
 H1410 H 0.48422 0.52512 0.12668
 H1411 H 0.60311 0.50292 0.12949
 H1412 H 0.54448 0.50977 0.04898
 C1413 C 0.46237 -0.04505 0.15227
 C1414 C 0.47947 -0.04943 0.12976
 C1415 C 0.47988 -0.03105 0.10795
 C1416 C 0.46199 -0.00824 0.10841
 C1417 C 0.44452 -0.00381 0.13131
 C1418 C 0.44516 -0.02217 0.15361
 C1419 C 0.42646 0.01858 0.13076
 N1420 N 0.42628 0.03544 0.10887
 N1421 N 0.44274 0.03132 0.08743
 C1422 C 0.46048 0.01004 0.08639
 H1423 H 0.46295 -0.05936 0.16906
 H1424 H 0.49289 -0.06706 0.12957
 H1425 H 0.41224 0.02266 0.14729
 H1426 H 0.47297 0.00746 0.06822
 C1427 C 0.96173 0.45725 0.64727
 C1428 C 0.97810 0.45352 0.62411
 C1429 C 0.97842 0.47296 0.60325
 C1430 C 0.96156 0.49644 0.60554
 C1431 C 0.94485 0.50022 0.62909
 C1432 C 0.94504 0.48039 0.65005
 C1433 C 0.92873 0.52399 0.63100
 N1434 N 0.92905 0.54238 0.61038
 N1435 N 0.94442 0.53861 0.58807
 C1436 C 0.96065 0.51630 0.58492
 H1437 H 0.96207 0.44198 0.66320
 H1438 H 0.99092 0.43548 0.62260
 H1439 H 0.91594 0.52818 0.64868
 H1440 H 0.97258 0.51425 0.56630
 C1441 C 0.95339 0.49986 0.87282
 C1442 C 0.97081 0.50436 0.89469
 C1443 C 0.98950 0.52578 0.89411
 C1444 C 0.99125 0.54251 0.87061
 C1445 C 0.97357 0.53788 0.84830
 C1446 C 0.95419 0.51663 0.84972
 C1447 C 0.97639 0.55433 0.82496
 N1448 N 0.99543 0.57419 0.82431
 N1449 N 1.01197 0.57858 0.84529
 C1450 C 1.01062 0.56339 0.86834
 H1451 H 0.93886 0.48339 0.87408
 H1452 H 0.96943 0.49128 0.91243
 H1453 H 0.96393 0.55140 0.80707
 H1454 H 1.02492 0.56758 0.88447
 C1455 C 0.45685 -0.00032 0.37158
 C1456 C 0.47454 0.00401 0.39327
 C1457 C 0.49310 0.02554 0.39268
 C1458 C 0.49458 0.04243 0.36930
 C1459 C 0.47666 0.03795 0.34716
 C1460 C 0.45726 0.01673 0.34867
 C1461 C 0.47923 0.05457 0.32391
 N1462 N 0.49821 0.07449 0.32323
 N1463 N 0.51491 0.07880 0.34409
 C1464 C 0.51382 0.06342 0.36704
 H1465 H 0.44228 -0.01675 0.37294
 H1466 H 0.47337 -0.00918 0.41094
 H1467 H 0.46664 0.05171 0.30611
 H1468 H 0.52823 0.06756 0.38310
   
