data_POSCAR
  _audit_creation_date              2014-09-24
  _audit_creation_method            'ToBaCCo'
  _symmetry_space_group_name_H-M    'P1'
  _symmetry_Int_Tables_number       1
  _symmetry_cell_setting            triclinic
  loop_
  _symmetry_equiv_pos_as_xyz
 x,y,z
_cell_length_a 25.8789
_cell_length_b 39.7778
_cell_length_c 23.4993
_cell_angle_alpha 90.000000
_cell_angle_beta 90.000000
_cell_angle_gamma 90.869800
loop_
  _atom_site_label
  _atom_site_type_symbol
  _atom_site_fract_x
  _atom_site_fract_y
  _atom_site_fract_z
B1 B -0.03329 -0.02688 0.03278
 B2 B 0.02611 -0.02380 0.06294
 B3 B 0.02056 -0.02865 -0.00805
 B4 B -0.03105 -0.00713 -0.03129
 B5 B -0.05712 0.01163 0.02636
 B6 B -0.02202 0.00082 0.08552
 B7 B 0.03965 0.03746 0.01389
 B8 B -0.01836 0.03362 -0.01715
 B9 B -0.01378 0.03817 0.05467
 B10 B 0.03874 0.01715 0.07733
 B11 B 0.06543 -0.00113 0.01887
 B12 B 0.03005 0.00911 -0.03948
 B13 B 0.50987 0.48352 0.56957
 B14 B 0.45964 0.47044 0.52891
 B15 B 0.45736 0.50789 0.56284
 B16 B 0.51737 0.52540 0.56149
 B17 B 0.55685 0.49890 0.52618
 B18 B 0.52072 0.46463 0.50700
 B19 B 0.48253 0.51864 0.45202
 B20 B 0.53208 0.53214 0.49279
 B21 B 0.53466 0.49442 0.45898
 B22 B 0.47457 0.47702 0.46020
 B23 B 0.43499 0.50369 0.49509
 B24 B 0.47092 0.53767 0.51463
 B25 B 0.53965 0.03746 0.48611
 B26 B 0.48164 0.03362 0.51715
 B27 B 0.48622 0.03817 0.44533
 B28 B 0.53874 0.01715 0.42267
 B29 B 0.56543 -0.00113 0.48113
 B30 B 0.53005 0.00911 0.53948
 B31 B 0.46671 -0.02688 0.46722
 B32 B 0.52611 -0.02380 0.43706
 B33 B 0.52056 -0.02865 0.50805
 B34 B 0.46895 -0.00713 0.53129
 B35 B 0.44288 0.01163 0.47364
 B36 B 0.47798 0.00082 0.41448
 B37 B -0.01747 0.51864 0.04798
 B38 B 0.03208 0.53214 0.00721
 B39 B 0.03466 0.49442 0.04102
 B40 B -0.02543 0.47702 0.03980
 B41 B -0.06501 0.50369 0.00491
 B42 B -0.02908 0.53767 -0.01463
 B43 B 0.00987 0.48352 -0.06957
 B44 B -0.04036 0.47044 -0.02891
 B45 B -0.04264 0.50789 -0.06284
 B46 B 0.01737 0.52540 -0.06149
 B47 B 0.05685 0.49890 -0.02618
 B48 B 0.02072 0.46463 -0.00700
 B49 B 0.02974 0.47692 0.45183
 B50 B -0.03474 0.48179 0.44724
 B51 B -0.00858 0.46459 0.50621
 B52 B 0.04853 0.48424 0.51950
 B53 B 0.05727 0.51415 0.46795
 B54 B 0.00543 0.51207 0.42295
 B55 B -0.02957 0.52951 0.52774
 B56 B 0.03480 0.52478 0.53284
 B57 B 0.00895 0.54189 0.47367
 B58 B -0.04798 0.52224 0.46031
 B59 B -0.05670 0.49234 0.51200
 B60 B -0.00505 0.49443 0.55684
 B61 B 0.48404 -0.01443 -0.06085
 B62 B 0.54473 -0.02039 -0.03758
 B63 B 0.52661 0.01851 -0.05664
 B64 B 0.46423 0.02319 -0.03724
 B65 B 0.44442 -0.01317 -0.00436
 B66 B 0.49491 -0.04018 -0.00524
 B67 B 0.52367 0.01454 0.05812
 B68 B 0.46297 0.02041 0.03437
 B69 B 0.48182 -0.01855 0.05389
 B70 B 0.54416 -0.02311 0.03404
 B71 B 0.56365 0.01318 0.00180
 B72 B 0.51318 0.04030 0.00230
 B73 B 0.47043 0.52951 -0.02774
 B74 B 0.53480 0.52478 -0.03284
 B75 B 0.50895 0.54189 0.02633
 B76 B 0.45202 0.52224 0.03969
 B77 B 0.44330 0.49234 -0.01200
 B78 B 0.49495 0.49443 -0.05684
 B79 B 0.52974 0.47692 0.04817
 B80 B 0.46526 0.48179 0.05276
 B81 B 0.49142 0.46459 -0.00621
 B82 B 0.54853 0.48424 -0.01950
 B83 B 0.55727 0.51415 0.03205
 B84 B 0.50543 0.51207 0.07705
 B85 B 0.02367 0.01454 0.44188
 B86 B -0.03703 0.02041 0.46563
 B87 B -0.01818 -0.01855 0.44611
 B88 B 0.04416 -0.02311 0.46596
 B89 B 0.06365 0.01318 0.49820
 B90 B 0.01318 0.04030 0.49770
 B91 B -0.01596 -0.01443 0.56085
 B92 B 0.04473 -0.02039 0.53758
 B93 B 0.02661 0.01851 0.55664
 B94 B -0.03577 0.02319 0.53724
 B95 B -0.05558 -0.01317 0.50436
 B96 B -0.00509 -0.04018 0.50524
 B97 B 0.73428 0.21435 0.31832
 B98 B 0.74493 0.21509 0.24717
 B99 B 0.68380 0.21563 0.27310
 B100 B 0.68349 0.23942 0.33274
 B101 B 0.74561 0.25350 0.34366
 B102 B 0.78332 0.23784 0.29122
 B103 B 0.71286 0.27863 0.24120
 B104 B 0.70146 0.27868 0.31267
 B105 B 0.76271 0.27757 0.28697
 B106 B 0.76293 0.25377 0.22790
 B107 B 0.70104 0.23962 0.21709
 B108 B 0.66329 0.25585 0.26930
 B109 B 0.74881 0.78319 0.78433
 B110 B 0.73672 0.78327 0.71335
 B111 B 0.79818 0.78122 0.73805
 B112 B 0.79871 0.75725 0.79701
 B113 B 0.73640 0.74429 0.80945
 B114 B 0.69794 0.76090 0.75809
 B115 B 0.76572 0.71896 0.70613
 B116 B 0.77914 0.71855 0.77726
 B117 B 0.71716 0.72058 0.75347
 B118 B 0.71629 0.74473 0.69429
 B119 B 0.77871 0.75785 0.68197
 B120 B 0.81686 0.74078 0.73292
 B121 B 0.26305 0.21879 0.72820
 B122 B 0.20025 0.22560 0.74352
 B123 B 0.24273 0.22002 0.79673
 B124 B 0.29968 0.23809 0.77881
 B125 B 0.29207 0.25559 0.71298
 B126 B 0.23001 0.24755 0.69069
 B127 B 0.22553 0.28653 0.78640
 B128 B 0.28871 0.27943 0.77218
 B129 B 0.24588 0.28522 0.71836
 B130 B 0.18910 0.26696 0.73613
 B131 B 0.19656 0.24981 0.80194
 B132 B 0.25822 0.25773 0.82452
 B133 B 0.25968 0.71429 0.18471
 B134 B 0.22494 0.71642 0.24637
 B135 B 0.28703 0.70354 0.24629
 B136 B 0.32104 0.72655 0.19751
 B137 B 0.27876 0.75353 0.16710
 B138 B 0.21915 0.74671 0.19708
 B139 B 0.28563 0.76787 0.28142
 B140 B 0.31873 0.76685 0.22000
 B141 B 0.25636 0.77914 0.21896
 B142 B 0.22365 0.75651 0.26823
 B143 B 0.26595 0.72895 0.29814
 B144 B 0.32511 0.73549 0.26751
 B145 B 0.29818 0.78122 0.76195
 B146 B 0.23672 0.78327 0.78665
 B147 B 0.24881 0.78319 0.71567
 B148 B 0.29871 0.75725 0.70299
 B149 B 0.31686 0.74078 0.76708
 B150 B 0.27871 0.75785 0.81803
 B151 B 0.21716 0.72058 0.74653
 B152 B 0.27914 0.71855 0.72274
 B153 B 0.26572 0.71896 0.79387
 B154 B 0.21629 0.74473 0.80571
 B155 B 0.19794 0.76090 0.74191
 B156 B 0.23640 0.74429 0.69055
 B157 B 0.21286 0.27863 0.25880
 B158 B 0.20146 0.27868 0.18733
 B159 B 0.26271 0.27757 0.21303
 B160 B 0.26293 0.25377 0.27210
 B161 B 0.20104 0.23962 0.28291
 B162 B 0.16329 0.25585 0.23070
 B163 B 0.23428 0.21435 0.18168
 B164 B 0.24493 0.21509 0.25283
 B165 B 0.18380 0.21563 0.22690
 B166 B 0.18349 0.23942 0.16726
 B167 B 0.24561 0.25350 0.15634
 B168 B 0.28332 0.23784 0.20878
 B169 B 0.78703 0.70354 0.25371
 B170 B 0.72494 0.71642 0.25363
 B171 B 0.75968 0.71429 0.31529
 B172 B 0.82104 0.72655 0.30249
 B173 B 0.82511 0.73549 0.23249
 B174 B 0.76595 0.72895 0.20186
 B175 B 0.75636 0.77914 0.28104
 B176 B 0.81873 0.76685 0.28000
 B177 B 0.78563 0.76787 0.21858
 B178 B 0.72365 0.75651 0.23177
 B179 B 0.71915 0.74671 0.30292
 B180 B 0.77876 0.75353 0.33290
 B181 B 0.74273 0.22002 0.70327
 B182 B 0.70025 0.22560 0.75648
 B183 B 0.76305 0.21879 0.77180
 B184 B 0.79968 0.23809 0.72119
 B185 B 0.75822 0.25773 0.67548
 B186 B 0.69656 0.24981 0.69806
 B187 B 0.74588 0.28522 0.78164
 B188 B 0.78871 0.27943 0.72782
 B189 B 0.72553 0.28653 0.71360
 B190 B 0.68910 0.26696 0.76387
 B191 B 0.73001 0.24755 0.80931
 B192 B 0.79207 0.25559 0.78702
 C193 C 0.08199 0.45599 0.87158
 C194 C 0.09936 0.42518 0.85138
 C195 C 0.06392 0.40180 0.82770
 C196 C 0.01180 0.41072 0.82244
 C197 C -0.00583 0.44052 0.84729
 C198 C 0.02867 0.46198 0.87670
 C199 C 0.08088 0.36957 0.81248
 C200 C 0.13237 0.36031 0.82293
 C201 C 0.16730 0.38398 0.84689
 C202 C 0.15092 0.41638 0.85980
 C203 C 0.21807 0.37479 0.85850
 C204 C 0.23532 0.34307 0.84344
 C205 C 0.20276 0.31985 0.81552
 C206 C 0.14995 0.32803 0.80898
 H207 H 0.11005 0.47303 0.89067
 H208 H -0.01588 0.39352 0.80318
 H209 H -0.04685 0.44525 0.84754
 H210 H 0.05382 0.35149 0.79422
 H211 H 0.17784 0.43431 0.87880
 H212 H 0.24484 0.39236 0.87852
 H213 H 0.27452 0.33746 0.85324
 H214 H 0.12323 0.31030 0.78940
 C215 C 0.41609 0.54211 0.38008
 C216 C 0.40170 0.56786 0.34304
 C217 C 0.43984 0.58969 0.31994
 C218 C 0.49205 0.58269 0.32867
 C219 C 0.50612 0.55666 0.36502
 C220 C 0.46817 0.53821 0.39511
 C221 C 0.42505 0.61901 0.29144
 C222 C 0.37248 0.62664 0.28629
 C223 C 0.33470 0.60298 0.30446
 C224 C 0.34946 0.57367 0.33250
 C225 C 0.28249 0.60966 0.29658
 C226 C 0.26750 0.64052 0.27496
 C227 C 0.30410 0.66600 0.26232
 C228 C 0.35699 0.65807 0.26572
 H229 H 0.38619 0.52712 0.40065
 H230 H 0.52194 0.59841 0.31004
 H231 H 0.54679 0.55267 0.37246
 H232 H 0.45429 0.63661 0.27607
 H233 H 0.32022 0.55642 0.34895
 H234 H 0.25304 0.59129 0.30840
 H235 H 0.22699 0.64379 0.26937
 H236 H 0.38622 0.67663 0.25415
 C237 C 0.97181 0.93354 0.62695
 C238 C 0.94099 0.91298 0.66146
 C239 C 0.89472 0.92534 0.68441
 C240 C 0.88317 0.95949 0.67689
 C241 C 0.91504 0.98025 0.64292
 C242 C 0.95877 0.96715 0.61547
 C243 C 0.85965 0.90280 0.71088
 C244 C 0.87059 0.86817 0.71349
 C245 C 0.91894 0.85682 0.69408
 C246 C 0.95401 0.87929 0.66895
 C247 C 0.93046 0.82272 0.69672
 C248 C 0.89301 0.79947 0.71385
 C249 C 0.84281 0.80960 0.72910
 C250 C 0.83312 0.84444 0.73174
 H251 H 1.00333 0.92185 0.60466
 H252 H 0.84813 0.96969 0.69470
 H253 H 0.90318 1.00578 0.63478
 H254 H 0.82288 0.91181 0.72634
 H255 H 0.99017 0.87010 0.65199
 H256 H 0.96779 0.81378 0.68292
 H257 H 0.90355 0.77329 0.71259
 H258 H 0.79560 0.85321 0.74359
 C259 C 0.53156 0.06575 0.12696
 C260 C 0.55712 0.08508 0.16802
 C261 C 0.60153 0.07257 0.19486
 C262 C 0.61603 0.03921 0.18417
 C263 C 0.58858 0.01936 0.14450
 C264 C 0.54673 0.03271 0.11408
 C265 C 0.63201 0.09436 0.22883
 C266 C 0.61816 0.12833 0.23546
 C267 C 0.57099 0.13943 0.21255
 C268 C 0.54059 0.11772 0.17943
 C269 C 0.55635 0.17276 0.22002
 C270 C 0.59055 0.19597 0.24426
 C271 C 0.64052 0.18652 0.26171
 C272 C 0.65212 0.15193 0.26088
 H273 H 0.50185 0.07780 0.10233
 H274 H 0.64972 0.02890 0.20479
 H275 H 0.60206 -0.00569 0.13529
 H276 H 0.66772 0.08547 0.24721
 H277 H 0.50550 0.12685 0.15985
 H278 H 0.51952 0.18138 0.20414
 H279 H 0.57826 0.22180 0.24585
 H280 H 0.68883 0.14341 0.27523
 C281 C 0.88915 0.06500 0.46067
 C282 C 0.85618 0.08620 0.43027
 C283 C 0.85426 0.08371 0.37032
 C284 C 0.88551 0.06096 0.34170
 C285 C 0.91954 0.04115 0.37192
 C286 C 0.92161 0.04236 0.43173
 C287 C 0.82298 0.10509 0.33929
 C288 C 0.79616 0.13059 0.36682
 C289 C 0.79774 0.13379 0.42641
 C290 C 0.82677 0.11081 0.45831
 C291 C 0.77210 0.16079 0.45208
 C292 C 0.74854 0.18543 0.41826
 C293 C 0.74913 0.18301 0.35833
 C294 C 0.77079 0.15426 0.33427
 H295 H 0.89058 0.06712 0.50657
 H296 H 0.88494 0.05929 0.29565
 H297 H 0.94476 0.02495 0.34800
 H298 H 0.82198 0.10317 0.29319
 H299 H 0.82846 0.11309 0.50426
 H300 H 0.77255 0.16379 0.49788
 H301 H 0.73186 0.20702 0.43898
 H302 H 0.77044 0.15009 0.28958
 C303 C 0.37762 0.43836 0.56825
 C304 C 0.34917 0.40844 0.57786
 C305 C 0.36824 0.37749 0.55755
 C306 C 0.41460 0.37679 0.52757
 C307 C 0.44305 0.40619 0.51940
 C308 C 0.42556 0.43734 0.54023
 C309 C 0.34231 0.34733 0.57000
 C310 C 0.29958 0.34729 0.60618
 C311 C 0.27939 0.37809 0.62544
 C312 C 0.30326 0.40862 0.60960
 C313 C 0.23792 0.37756 0.66351
 C314 C 0.22226 0.34728 0.68861
 C315 C 0.24777 0.31715 0.67625
 C316 C 0.28111 0.31688 0.62901
 H317 H 0.36322 0.46207 0.58387
 H318 H 0.42965 0.35331 0.51162
 H319 H 0.47902 0.40409 0.49633
 H320 H 0.35801 0.32367 0.55552
 H321 H 0.28835 0.43219 0.62538
 H322 H 0.22005 0.40071 0.67694
 H323 H 0.19154 0.34820 0.71887
 H324 H 0.29893 0.29366 0.61582
 C325 C 0.61626 0.93387 0.94928
 C326 C 0.64537 0.91252 0.91437
 C327 C 0.64282 0.91630 0.85455
 C328 C 0.61220 0.94096 0.83046
 C329 C 0.58234 0.96101 0.86494
 C330 C 0.58367 0.95800 0.92474
 C331 C 0.66863 0.89423 0.81906
 C332 C 0.69505 0.86721 0.84211
 C333 C 0.69923 0.86331 0.90152
 C334 C 0.67503 0.88649 0.93769
 C335 C 0.72565 0.83548 0.92305
 C336 C 0.74450 0.81092 0.88581
 C337 C 0.73766 0.81394 0.82642
 C338 C 0.71449 0.84299 0.80572
 H339 H 0.61741 0.93067 0.99504
 H340 H 0.60958 0.94383 0.78467
 H341 H 0.55696 0.97847 0.84405
 H342 H 0.66564 0.89699 0.77319
 H343 H 0.67724 0.88336 0.98346
 H344 H 0.72991 0.83201 0.96853
 H345 H 0.76254 0.78894 0.90374
 H346 H 0.70958 0.84695 0.76114
 C347 C 0.11688 0.56682 0.03203
 C348 C 0.14301 0.59771 0.04168
 C349 C 0.11580 0.62823 0.03705
 C350 C 0.06374 0.62773 0.02267
 C351 C 0.03799 0.59740 0.01458
 C352 C 0.06375 0.56636 0.01926
 C353 C 0.13987 0.65888 0.05030
 C354 C 0.18961 0.65940 0.07289
 C355 C 0.21786 0.62928 0.07616
 C356 C 0.19506 0.59871 0.05851
 C357 C 0.26675 0.63000 0.10148
 C358 C 0.28320 0.65862 0.13118
 C359 C 0.25104 0.68684 0.13565
 C360 C 0.20845 0.68872 0.09920
 H361 H 0.13739 0.54337 0.03570
 H362 H 0.04233 0.65087 0.01932
 H363 H -0.00272 0.59892 0.00497
 H364 H 0.11811 0.68196 0.04815
 H365 H 0.21634 0.57553 0.06223
 H366 H 0.29032 0.60772 0.10235
 H367 H 0.31979 0.65773 0.15314
 H368 H 0.18521 0.71117 0.09884
 C369 C 0.48134 0.92695 0.11769
 C370 C 0.45410 0.90217 0.14903
 C371 C 0.40609 0.91025 0.17364
 C372 C 0.38396 0.94132 0.16227
 C373 C 0.40775 0.96352 0.12442
 C374 C 0.45796 0.95798 0.10380
 C375 C 0.37787 0.88592 0.20375
 C376 C 0.39291 0.85230 0.20233
 C377 C 0.43887 0.84321 0.17461
 C378 C 0.47113 0.86861 0.15124
 C379 C 0.44932 0.80884 0.16726
 C380 C 0.41240 0.78416 0.18303
 C381 C 0.36573 0.79335 0.20924
 C382 C 0.35912 0.82745 0.22265
 H383 H 0.51828 0.92058 0.09926
 H384 H 0.34561 0.94695 0.17782
 H385 H 0.38464 0.98374 0.10867
 H386 H 0.34119 0.89247 0.22290
 H387 H 0.50679 0.86184 0.13023
 H388 H 0.48435 0.80116 0.14600
 H389 H 0.41981 0.75808 0.17324
 H390 H 0.32428 0.83554 0.24290
 C391 C 0.61283 0.45893 0.42748
 C392 C 0.62276 0.42820 0.40017
 C393 C 0.59633 0.41978 0.34947
 C394 C 0.56224 0.44308 0.32580
 C395 C 0.54940 0.47227 0.35584
 C396 C 0.57104 0.47901 0.40983
 C397 C 0.60243 0.38768 0.32506
 C398 C 0.63414 0.36371 0.35129
 C399 C 0.66027 0.37229 0.40219
 C400 C 0.65495 0.40449 0.42588
 C401 C 0.69138 0.34847 0.42881
 C402 C 0.70029 0.31750 0.40290
 C403 C 0.67871 0.30967 0.34923
 C404 C 0.64165 0.33173 0.32664
 H405 H 0.63130 0.46388 0.46808
 H406 H 0.54198 0.43732 0.28655
 H407 H 0.51766 0.48694 0.34002
 H408 H 0.58207 0.38125 0.28612
 H409 H 0.67469 0.41073 0.46531
 H410 H 0.71065 0.35432 0.46863
 H411 H 0.72724 0.30084 0.42332
 H412 H 0.62207 0.32533 0.28727
 C413 C 0.87896 0.54295 0.90425
 C414 C 0.86678 0.57235 0.87408
 C415 C 0.89204 0.57972 0.82223
 C416 C 0.92758 0.55661 0.80053
 C417 C 0.94230 0.52869 0.83303
 C418 C 0.92117 0.52300 0.88756
 C419 C 0.88318 0.61069 0.79465
 C420 C 0.85020 0.63466 0.81912
 C421 C 0.82561 0.62712 0.87139
 C422 C 0.83330 0.59595 0.89791
 C423 C 0.79383 0.65098 0.89678
 C424 C 0.78319 0.68108 0.86898
 C425 C 0.80318 0.68795 0.81420
 C426 C 0.84027 0.66568 0.79188
 H427 H 0.86117 0.53888 0.94549
 H428 H 0.94721 0.56159 0.76062
 H429 H 0.97449 0.51399 0.81825
 H430 H 0.90257 0.61632 0.75479
 H431 H 0.81447 0.59051 0.93819
 H432 H 0.77567 0.64589 0.93750
 H433 H 0.75621 0.69781 0.88916
 H434 H 0.85863 0.67131 0.75150
 C435 C 0.03246 0.07046 0.62704
 C436 C 0.06269 0.09344 0.65940
 C437 C 0.11321 0.08450 0.67599
 C438 C 0.13409 0.05451 0.65705
 C439 C 0.10652 0.03428 0.61954
 C440 C 0.05435 0.04048 0.60608
 C441 C 0.14462 0.10712 0.70601
 C442 C 0.12912 0.14024 0.71358
 C443 C 0.07973 0.15022 0.69538
 C444 C 0.04554 0.12623 0.67107
 C445 C 0.06714 0.18440 0.69846
 C446 C 0.10457 0.20842 0.71510
 C447 C 0.15462 0.19856 0.73121
 C448 C 0.16474 0.16406 0.73393
 H449 H -0.00613 0.07734 0.61403
 H450 H 0.17374 0.04825 0.66683
 H451 H 0.12787 0.01465 0.59903
 H452 H 0.18332 0.09990 0.71841
 H453 H 0.00754 0.13379 0.65702
 H454 H 0.02942 0.19278 0.68501
 H455 H 0.09452 0.23472 0.71394
 H456 H 0.20236 0.15556 0.74657
 C457 C 0.08641 0.42473 0.43504
 C458 C 0.11838 0.40509 0.40108
 C459 C 0.13016 0.41544 0.34490
 C460 C 0.10974 0.44513 0.32355
 C461 C 0.07648 0.46389 0.35679
 C462 C 0.06399 0.45376 0.41276
 C463 C 0.16039 0.39528 0.31008
 C464 C 0.17518 0.36358 0.32904
 C465 C 0.16420 0.35339 0.38536
 C466 C 0.13736 0.37472 0.42181
 C467 C 0.17775 0.32128 0.40315
 C468 C 0.19652 0.29837 0.36372
 C469 C 0.20291 0.30726 0.30568
 C470 C 0.19683 0.34097 0.29083
 H471 H 0.07872 0.41717 0.47855
 H472 H 0.11875 0.45353 0.28078
 H473 H 0.06106 0.48653 0.33832
 H474 H 0.16929 0.40322 0.26698
 H475 H 0.12836 0.36673 0.46488
 H476 H 0.17097 0.31320 0.44660
 H477 H 0.20399 0.27327 0.37901
 H478 H 0.20483 0.34950 0.24872
 C479 C 0.41008 0.58000 0.95934
 C480 C 0.37252 0.59724 0.92894
 C481 C 0.35880 0.58639 0.87354
 C482 C 0.38209 0.55835 0.84973
 C483 C 0.41966 0.54147 0.87994
 C484 C 0.43423 0.55215 0.93499
 C485 C 0.32380 0.60464 0.84157
 C486 C 0.30592 0.63513 0.86235
 C487 C 0.31752 0.64538 0.91848
 C488 C 0.34949 0.62569 0.95238
 C489 C 0.30030 0.67644 0.93779
 C490 C 0.27892 0.69891 0.89917
 C491 C 0.27374 0.69035 0.84086
 C492 C 0.28175 0.65708 0.82529
 H493 H 0.41986 0.58803 1.00212
 H494 H 0.37154 0.54962 0.80757
 H495 H 0.43662 0.51972 0.86010
 H496 H 0.31408 0.59662 0.79869
 H497 H 0.35948 0.63385 0.99510
 H498 H 0.30703 0.68439 0.98132
 H499 H 0.26956 0.72366 0.91478
 H500 H 0.27495 0.64879 0.78294
 C501 C 0.62311 0.07008 0.52275
 C502 C 0.64802 0.10014 0.54067
 C503 C 0.62457 0.13132 0.52913
 C504 C 0.57714 0.13227 0.50159
 C505 C 0.55119 0.10269 0.48847
 C506 C 0.57363 0.07104 0.49727
 C507 C 0.64595 0.16116 0.55005
 C508 C 0.68791 0.16032 0.58704
 C509 C 0.71276 0.12972 0.59841
 C510 C 0.69368 0.09974 0.57345
 C511 C 0.75423 0.12971 0.63700
 C512 C 0.76713 0.15896 0.66776
 C513 C 0.73864 0.18855 0.66055
 C514 C 0.70198 0.18941 0.61656
 H515 H 0.64046 0.04610 0.53217
 H516 H 0.55793 0.15594 0.49448
 H517 H 0.51175 0.10534 0.47549
 H518 H 0.62693 0.18481 0.54175
 H519 H 0.71195 0.07604 0.58290
 H520 H 0.77484 0.10677 0.64560
 H521 H 0.79746 0.15772 0.69904
 H522 H 0.68115 0.21220 0.60756
 C523 C 0.92997 0.91087 0.04594
 C524 C 0.89192 0.88842 0.06730
 C525 C 0.84664 0.90093 0.09313
 C526 C 0.83792 0.93521 0.09331
 C527 C 0.87471 0.95715 0.07118
 C528 C 0.92233 0.94571 0.04856
 C529 C 0.81167 0.87925 0.12074
 C530 C 0.82121 0.84490 0.12297
 C531 C 0.86393 0.83196 0.09281
 C532 C 0.89905 0.85369 0.06527
 C533 C 0.87223 0.79752 0.09295
 C534 C 0.84277 0.77678 0.12811
 C535 C 0.80512 0.79011 0.16539
 C536 C 0.79102 0.82367 0.15804
 H537 H 0.96607 0.90124 0.03000
 H538 H 0.80320 0.94528 0.11221
 H539 H 0.86572 0.98348 0.07488
 H540 H 0.77846 0.88932 0.14279
 H541 H 0.93289 0.84369 0.04437
 H542 H 0.90328 0.78680 0.06824
 H543 H 0.85239 0.75042 0.12830
 H544 H 0.76027 0.83402 0.18365
 C545 C 0.90751 0.07126 0.94156
 C546 C 0.88915 0.09687 0.90599
 C547 C 0.92237 0.11193 0.86534
 C548 C 0.97361 0.10126 0.86147
 C549 C 0.99198 0.07653 0.89832
 C550 C 0.95966 0.06173 0.94004
 C551 C 0.90383 0.13737 0.82938
 C552 C 0.85283 0.14867 0.83488
 C553 C 0.82024 0.13409 0.87671
 C554 C 0.83821 0.10795 0.91118
 C555 C 0.77056 0.14655 0.88465
 C556 C 0.75314 0.17319 0.85166
 C557 C 0.78353 0.18689 0.80728
 C558 C 0.83417 0.17478 0.80021
 H559 H 0.88068 0.05866 0.96980
 H560 H 0.99968 0.11225 0.83028
 H561 H 1.03182 0.06908 0.89394
 H562 H 0.92927 0.14868 0.79783
 H563 H 0.81291 0.09679 0.94305
 H564 H 0.74552 0.13627 0.91750
 H565 H 0.71557 0.18318 0.86157
 H566 H 0.85943 0.18596 0.76843
 C567 C 0.05252 0.56808 0.61632
 C568 C 0.08630 0.58941 0.64649
 C569 C 0.14003 0.58445 0.64211
 C570 C 0.15905 0.55882 0.60757
 C571 C 0.12532 0.53971 0.57416
 C572 C 0.07164 0.54475 0.57652
 C573 C 0.17420 0.60641 0.66949
 C574 C 0.15569 0.63507 0.69690
 C575 C 0.10236 0.64076 0.70103
 C576 C 0.06753 0.61706 0.67754
 C577 C 0.08554 0.67084 0.72597
 C578 C 0.12164 0.69570 0.74307
 C579 C 0.17518 0.69055 0.73690
 C580 C 0.19070 0.65921 0.71630
 H581 H 0.01181 0.57215 0.62059
 H582 H 0.20025 0.55478 0.60397
 H583 H 0.14169 0.52140 0.54553
 H584 H 0.21551 0.60253 0.66588
 H585 H 0.02628 0.62128 0.68007
 H586 H 0.04464 0.67580 0.72983
 H587 H 0.10752 0.71928 0.75945
 H588 H 0.23011 0.65332 0.71129
 C589 C 0.60296 0.93887 0.40242
 C590 C 0.62395 0.91190 0.37203
 C591 C 0.59359 0.89435 0.33160
 C592 C 0.54203 0.90400 0.32333
 C593 C 0.52062 0.92993 0.35608
 C594 C 0.55047 0.94732 0.39707
 C595 C 0.61516 0.86728 0.30112
 C596 C 0.66580 0.85648 0.31311
 C597 C 0.69483 0.87351 0.35546
 C598 C 0.67450 0.90160 0.38316
 C599 C 0.74286 0.86122 0.37184
 C600 C 0.76172 0.83188 0.34777
 C601 C 0.73574 0.81537 0.30271
 C602 C 0.68716 0.82809 0.28572
 H603 H 0.62796 0.95298 0.43074
 H604 H 0.51792 0.89105 0.29237
 H605 H 0.48058 0.93628 0.34923
 H606 H 0.59202 0.85398 0.26965
 H607 H 0.69730 0.91458 0.41536
 H608 H 0.76480 0.87336 0.40556
 H609 H 0.79662 0.82179 0.36585
 H610 H 0.66473 0.81498 0.25351
 C611 C 0.44075 0.43605 0.13008
 C612 C 0.40367 0.41337 0.15189
 C613 C 0.35065 0.41942 0.14249
 C614 C 0.33546 0.44827 0.11371
 C615 C 0.37244 0.46911 0.08874
 C616 C 0.42558 0.46216 0.09356
 C617 C 0.31359 0.39550 0.15835
 C618 C 0.32885 0.36462 0.18046
 C619 C 0.38134 0.35851 0.19170
 C620 C 0.41866 0.38338 0.17861
 C621 C 0.39535 0.32707 0.21334
 C622 C 0.35775 0.30172 0.22135
 C623 C 0.30537 0.30728 0.20781
 C624 C 0.29201 0.33926 0.18847
 H625 H 0.48108 0.43115 0.13718
 H626 H 0.29490 0.45346 0.10698
 H627 H 0.35880 0.48976 0.06309
 H628 H 0.27302 0.40002 0.14994
 H629 H 0.45928 0.37853 0.18573
 H630 H 0.43541 0.32179 0.22271
 H631 H 0.37005 0.27759 0.23724
 H632 H 0.25330 0.34500 0.17744
 C633 C 0.52913 0.58623 0.10627
 C634 C 0.55574 0.61524 0.12469
 C635 C 0.57509 0.63845 0.08429
 C636 C 0.56168 0.63433 0.02689
 C637 C 0.53409 0.60565 0.00916
 C638 C 0.52174 0.57973 0.04767
 C639 C 0.60869 0.66458 0.10182
 C640 C 0.62233 0.66792 0.15953
 C641 C 0.59858 0.64672 0.20033
 C642 C 0.56577 0.62035 0.18269
 C643 C 0.60921 0.65172 0.25807
 C644 C 0.64582 0.67575 0.27504
 C645 C 0.67494 0.69413 0.23501
 C646 C 0.66061 0.69124 0.17699
 H647 H 0.51743 0.56782 0.13785
 H648 H 0.57384 0.65273 -0.00455
 H649 H 0.52407 0.60351 -0.03496
 H650 H 0.62553 0.68148 0.07046
 H651 H 0.54971 0.60302 0.21380
 H652 H 0.58995 0.63665 0.29026
 H653 H 0.65181 0.67893 0.31953
 H654 H 0.68031 0.70618 0.14491
 C655 C 0.09170 0.93038 0.95567
 C656 C 0.10872 0.90258 0.92458
 C657 C 0.07308 0.88323 0.89243
 C658 C 0.02060 0.89164 0.89348
 C659 C 0.00375 0.91893 0.92597
 C660 C 0.03898 0.93854 0.95800
 C661 C 0.09070 0.85616 0.85941
 C662 C 0.14342 0.84789 0.85925
 C663 C 0.17848 0.86671 0.89316
 C664 C 0.16107 0.89407 0.92505
 C665 C 0.23050 0.85776 0.89509
 C666 C 0.24818 0.83095 0.86269
 C667 C 0.21488 0.81320 0.82560
 C668 C 0.16181 0.82122 0.82576
 H669 H 0.12023 0.94604 0.97673
 H670 H -0.00742 0.87720 0.86901
 H671 H -0.03693 0.92488 0.92544
 H672 H 0.06351 0.84162 0.83392
 H673 H 0.18828 0.90866 0.95049
 H674 H 0.25759 0.87139 0.92204
 H675 H 0.28829 0.82423 0.86700
 H676 H 0.13496 0.80719 0.79915
 C677 C 0.41053 0.07601 0.41255
 C678 C 0.38925 0.10220 0.38159
 C679 C 0.42059 0.12112 0.34396
 C680 C 0.47304 0.11321 0.33816
 C681 C 0.49422 0.08704 0.37008
 C682 C 0.46345 0.06869 0.40900
 C683 C 0.39868 0.14728 0.31259
 C684 C 0.34596 0.15455 0.31885
 C685 C 0.31491 0.13554 0.35680
 C686 C 0.33676 0.10946 0.38788
 C687 C 0.26246 0.14291 0.36313
 C688 C 0.24043 0.16847 0.33112
 C689 C 0.27023 0.18677 0.29150
 C690 C 0.32364 0.18031 0.28725
 H691 H 0.38474 0.06092 0.43830
 H692 H 0.49764 0.12726 0.30911
 H693 H 0.53478 0.08149 0.36489
 H694 H 0.42247 0.16182 0.28328
 H695 H 0.31294 0.09484 0.41708
 H696 H 0.23841 0.12883 0.39274
 H697 H 0.19996 0.17378 0.33744
 H698 H 0.34781 0.19447 0.25793
 C699 C 0.96804 0.42081 0.58616
 C700 C 0.94597 0.39031 0.60462
 C701 C 0.93454 0.36471 0.56483
 C702 C 0.94975 0.36912 0.50801
 C703 C 0.97231 0.39958 0.49013
 C704 C 0.97873 0.42672 0.52797
 C705 C 0.90683 0.33575 0.58228
 C706 C 0.89009 0.33245 0.63904
 C707 C 0.90469 0.35724 0.67926
 C708 C 0.93283 0.38581 0.66199
 C709 C 0.88944 0.35361 0.73595
 C710 C 0.85638 0.32732 0.75186
 C711 C 0.83590 0.30477 0.71153
 C712 C 0.85674 0.30587 0.65577
 H713 H 0.97423 0.44044 0.61742
 H714 H 0.94307 0.34935 0.47703
 H715 H 0.98387 0.40176 0.44644
 H716 H 0.89647 0.31658 0.55133
 H717 H 0.94250 0.40523 0.69281
 H718 H 0.90183 0.37164 0.76789
 H719 H 0.84686 0.32519 0.79588
 H720 H 0.84394 0.28775 0.62417
 C721 C 0.91609 0.54211 0.11992
 C722 C 0.90170 0.56786 0.15696
 C723 C 0.93984 0.58969 0.18006
 C724 C 0.99205 0.58269 0.17133
 C725 C 1.00612 0.55666 0.13498
 C726 C 0.96817 0.53821 0.10489
 C727 C 0.92505 0.61901 0.20856
 C728 C 0.87248 0.62664 0.21371
 C729 C 0.83470 0.60298 0.19554
 C730 C 0.84946 0.57367 0.16750
 C731 C 0.78249 0.60966 0.20342
 C732 C 0.76750 0.64052 0.22504
 C733 C 0.80410 0.66600 0.23768
 C734 C 0.85699 0.65807 0.23428
 H735 H 0.88619 0.52712 0.09935
 H736 H 1.02194 0.59841 0.18996
 H737 H 1.04679 0.55267 0.12754
 H738 H 0.95429 0.63661 0.22393
 H739 H 0.82022 0.55642 0.15105
 H740 H 0.75304 0.59129 0.19160
 H741 H 0.72699 0.64379 0.23063
 H742 H 0.88622 0.67663 0.24585
 C743 C 0.58199 0.45599 0.62842
 C744 C 0.59936 0.42518 0.64862
 C745 C 0.56392 0.40180 0.67230
 C746 C 0.51180 0.41072 0.67756
 C747 C 0.49417 0.44052 0.65271
 C748 C 0.52867 0.46198 0.62330
 C749 C 0.58088 0.36957 0.68752
 C750 C 0.63237 0.36031 0.67707
 C751 C 0.66730 0.38398 0.65311
 C752 C 0.65092 0.41638 0.64020
 C753 C 0.71807 0.37479 0.64150
 C754 C 0.73532 0.34307 0.65656
 C755 C 0.70276 0.31985 0.68448
 C756 C 0.64995 0.32803 0.69102
 H757 H 0.61005 0.47303 0.60933
 H758 H 0.48412 0.39352 0.69682
 H759 H 0.45315 0.44525 0.65246
 H760 H 0.55382 0.35149 0.70578
 H761 H 0.67784 0.43431 0.62120
 H762 H 0.74484 0.39236 0.62148
 H763 H 0.77452 0.33746 0.64676
 H764 H 0.62323 0.31030 0.71060
 C765 C 0.03156 0.06575 0.37304
 C766 C 0.05712 0.08508 0.33198
 C767 C 0.10153 0.07257 0.30514
 C768 C 0.11603 0.03921 0.31583
 C769 C 0.08858 0.01936 0.35550
 C770 C 0.04673 0.03271 0.38592
 C771 C 0.13201 0.09436 0.27117
 C772 C 0.11816 0.12833 0.26454
 C773 C 0.07099 0.13943 0.28745
 C774 C 0.04059 0.11772 0.32057
 C775 C 0.05635 0.17276 0.27998
 C776 C 0.09055 0.19597 0.25574
 C777 C 0.14052 0.18652 0.23829
 C778 C 0.15212 0.15193 0.23912
 H779 H 0.00185 0.07780 0.39767
 H780 H 0.14972 0.02890 0.29521
 H781 H 0.10206 -0.00569 0.36471
 H782 H 0.16772 0.08547 0.25279
 H783 H 0.00550 0.12685 0.34015
 H784 H 0.01952 0.18138 0.29586
 H785 H 0.07826 0.22180 0.25415
 H786 H 0.18883 0.14341 0.22477
 C787 C 0.47181 0.93354 0.87305
 C788 C 0.44099 0.91298 0.83854
 C789 C 0.39472 0.92534 0.81559
 C790 C 0.38317 0.95949 0.82311
 C791 C 0.41504 0.98025 0.85708
 C792 C 0.45877 0.96715 0.88453
 C793 C 0.35965 0.90280 0.78912
 C794 C 0.37059 0.86817 0.78651
 C795 C 0.41894 0.85682 0.80592
 C796 C 0.45401 0.87929 0.83105
 C797 C 0.43046 0.82272 0.80327
 C798 C 0.39301 0.79947 0.78615
 C799 C 0.34281 0.80960 0.77090
 C800 C 0.33312 0.84444 0.76826
 H801 H 0.50333 0.92185 0.89534
 H802 H 0.34813 0.96969 0.80530
 H803 H 0.40318 1.00578 0.86522
 H804 H 0.32288 0.91181 0.77366
 H805 H 0.49017 0.87010 0.84801
 H806 H 0.46779 0.81378 0.81708
 H807 H 0.40355 0.77329 0.78741
 H808 H 0.29560 0.85321 0.75641
 C809 C 0.11626 0.93387 0.55072
 C810 C 0.14537 0.91252 0.58563
 C811 C 0.14282 0.91630 0.64545
 C812 C 0.11220 0.94096 0.66954
 C813 C 0.08234 0.96101 0.63506
 C814 C 0.08367 0.95800 0.57526
 C815 C 0.16863 0.89423 0.68094
 C816 C 0.19505 0.86721 0.65789
 C817 C 0.19923 0.86331 0.59848
 C818 C 0.17503 0.88649 0.56231
 C819 C 0.22565 0.83548 0.57695
 C820 C 0.24450 0.81092 0.61419
 C821 C 0.23766 0.81394 0.67358
 C822 C 0.21449 0.84299 0.69428
 H823 H 0.11741 0.93067 0.50496
 H824 H 0.10958 0.94383 0.71533
 H825 H 0.05696 0.97847 0.65595
 H826 H 0.16564 0.89699 0.72681
 H827 H 0.17724 0.88336 0.51654
 H828 H 0.22991 0.83201 0.53147
 H829 H 0.26254 0.78894 0.59626
 H830 H 0.20958 0.84695 0.73886
 C831 C 0.61688 0.56682 0.46797
 C832 C 0.64301 0.59771 0.45832
 C833 C 0.61580 0.62823 0.46295
 C834 C 0.56374 0.62773 0.47733
 C835 C 0.53799 0.59740 0.48542
 C836 C 0.56375 0.56636 0.48074
 C837 C 0.63987 0.65888 0.44970
 C838 C 0.68961 0.65940 0.42711
 C839 C 0.71786 0.62928 0.42384
 C840 C 0.69506 0.59871 0.44149
 C841 C 0.76675 0.63000 0.39852
 C842 C 0.78320 0.65862 0.36882
 C843 C 0.75104 0.68684 0.36435
 C844 C 0.70845 0.68872 0.40080
 H845 H 0.63739 0.54337 0.46430
 H846 H 0.54233 0.65087 0.48068
 H847 H 0.49728 0.59892 0.49503
 H848 H 0.61811 0.68196 0.45185
 H849 H 0.71634 0.57553 0.43777
 H850 H 0.79032 0.60772 0.39765
 H851 H 0.81979 0.65773 0.34686
 H852 H 0.68521 0.71117 0.40116
 C853 C 0.38915 0.06500 0.03933
 C854 C 0.35618 0.08620 0.06973
 C855 C 0.35426 0.08371 0.12968
 C856 C 0.38551 0.06096 0.15830
 C857 C 0.41954 0.04115 0.12808
 C858 C 0.42161 0.04236 0.06827
 C859 C 0.32298 0.10509 0.16071
 C860 C 0.29616 0.13059 0.13318
 C861 C 0.29774 0.13379 0.07359
 C862 C 0.32677 0.11081 0.04169
 C863 C 0.27210 0.16079 0.04792
 C864 C 0.24854 0.18543 0.08174
 C865 C 0.24913 0.18301 0.14167
 C866 C 0.27079 0.15426 0.16573
 H867 H 0.39058 0.06712 -0.00657
 H868 H 0.38494 0.05929 0.20435
 H869 H 0.44476 0.02495 0.15200
 H870 H 0.32198 0.10317 0.20681
 H871 H 0.32846 0.11309 -0.00426
 H872 H 0.27255 0.16379 0.00212
 H873 H 0.23186 0.20702 0.06102
 H874 H 0.27044 0.15009 0.21042
 C875 C 0.87762 0.43836 0.93175
 C876 C 0.84917 0.40844 0.92214
 C877 C 0.86824 0.37749 0.94245
 C878 C 0.91460 0.37679 0.97243
 C879 C 0.94305 0.40619 0.98060
 C880 C 0.92556 0.43734 0.95977
 C881 C 0.84231 0.34732 0.93000
 C882 C 0.79958 0.34729 0.89382
 C883 C 0.77939 0.37808 0.87456
 C884 C 0.80326 0.40862 0.89040
 C885 C 0.73792 0.37756 0.83649
 C886 C 0.72226 0.34728 0.81139
 C887 C 0.74777 0.31715 0.82375
 C888 C 0.78111 0.31688 0.87099
 H889 H 0.86322 0.46207 0.91613
 H890 H 0.92965 0.35331 0.98838
 H891 H 0.97902 0.40409 1.00367
 H892 H 0.85801 0.32367 0.94448
 H893 H 0.78835 0.43219 0.87462
 H894 H 0.72005 0.40071 0.82306
 H895 H 0.69154 0.34820 0.78113
 H896 H 0.79893 0.29366 0.88418
 C897 C 0.53246 0.07046 0.87296
 C898 C 0.56269 0.09344 0.84060
 C899 C 0.61321 0.08450 0.82401
 C900 C 0.63409 0.05451 0.84295
 C901 C 0.60652 0.03428 0.88046
 C902 C 0.55435 0.04048 0.89392
 C903 C 0.64462 0.10712 0.79399
 C904 C 0.62912 0.14024 0.78642
 C905 C 0.57973 0.15022 0.80462
 C906 C 0.54554 0.12623 0.82893
 C907 C 0.56714 0.18440 0.80154
 C908 C 0.60457 0.20842 0.78490
 C909 C 0.65462 0.19856 0.76879
 C910 C 0.66474 0.16406 0.76607
 H911 H 0.49387 0.07734 0.88597
 H912 H 0.67374 0.04825 0.83317
 H913 H 0.62787 0.01465 0.90097
 H914 H 0.68333 0.09990 0.78159
 H915 H 0.50754 0.13379 0.84298
 H916 H 0.52942 0.19278 0.81499
 H917 H 0.59452 0.23472 0.78606
 H918 H 0.70236 0.15556 0.75343
 C919 C 0.37896 0.54295 0.59575
 C920 C 0.36678 0.57235 0.62592
 C921 C 0.39204 0.57972 0.67777
 C922 C 0.42758 0.55661 0.69947
 C923 C 0.44230 0.52869 0.66697
 C924 C 0.42117 0.52300 0.61244
 C925 C 0.38318 0.61069 0.70535
 C926 C 0.35020 0.63466 0.68088
 C927 C 0.32561 0.62712 0.62861
 C928 C 0.33330 0.59595 0.60209
 C929 C 0.29383 0.65098 0.60322
 C930 C 0.28319 0.68108 0.63102
 C931 C 0.30318 0.68795 0.68580
 C932 C 0.34027 0.66568 0.70812
 H933 H 0.36117 0.53888 0.55451
 H934 H 0.44721 0.56159 0.73938
 H935 H 0.47449 0.51399 0.68175
 H936 H 0.40257 0.61632 0.74521
 H937 H 0.31447 0.59051 0.56181
 H938 H 0.27567 0.64589 0.56250
 H939 H 0.25621 0.69781 0.61084
 H940 H 0.35863 0.67131 0.74850
 C941 C 0.11283 0.45893 0.07252
 C942 C 0.12276 0.42820 0.09983
 C943 C 0.09633 0.41978 0.15053
 C944 C 0.06224 0.44308 0.17420
 C945 C 0.04940 0.47227 0.14416
 C946 C 0.07104 0.47901 0.09017
 C947 C 0.10243 0.38768 0.17494
 C948 C 0.13414 0.36371 0.14871
 C949 C 0.16027 0.37229 0.09781
 C950 C 0.15495 0.40449 0.07412
 C951 C 0.19138 0.34847 0.07119
 C952 C 0.20029 0.31750 0.09710
 C953 C 0.17871 0.30967 0.15077
 C954 C 0.14165 0.33173 0.17336
 H955 H 0.13130 0.46388 0.03192
 H956 H 0.04198 0.43732 0.21345
 H957 H 0.01766 0.48694 0.15998
 H958 H 0.08207 0.38125 0.21388
 H959 H 0.17469 0.41073 0.03469
 H960 H 0.21065 0.35432 0.03137
 H961 H 0.22724 0.30084 0.07668
 H962 H 0.12207 0.32533 0.21273
 C963 C 0.98134 0.92695 0.38231
 C964 C 0.95410 0.90217 0.35097
 C965 C 0.90609 0.91025 0.32636
 C966 C 0.88396 0.94132 0.33773
 C967 C 0.90775 0.96352 0.37558
 C968 C 0.95796 0.95798 0.39620
 C969 C 0.87787 0.88592 0.29625
 C970 C 0.89291 0.85230 0.29767
 C971 C 0.93887 0.84321 0.32539
 C972 C 0.97113 0.86861 0.34876
 C973 C 0.94932 0.80884 0.33274
 C974 C 0.91240 0.78416 0.31697
 C975 C 0.86573 0.79335 0.29076
 C976 C 0.85912 0.82745 0.27735
 H977 H 1.01828 0.92058 0.40074
 H978 H 0.84561 0.94695 0.32218
 H979 H 0.88464 0.98374 0.39133
 H980 H 0.84119 0.89247 0.27710
 H981 H 1.00679 0.86184 0.36977
 H982 H 0.98435 0.80116 0.35400
 H983 H 0.91981 0.75808 0.32676
 H984 H 0.82428 0.83554 0.25710
 C985 C 0.91008 0.58000 0.54066
 C986 C 0.87252 0.59724 0.57106
 C987 C 0.85880 0.58639 0.62646
 C988 C 0.88209 0.55835 0.65027
 C989 C 0.91966 0.54147 0.62006
 C990 C 0.93423 0.55215 0.56501
 C991 C 0.82380 0.60464 0.65843
 C992 C 0.80592 0.63513 0.63765
 C993 C 0.81752 0.64538 0.58152
 C994 C 0.84949 0.62569 0.54762
 C995 C 0.80030 0.67644 0.56221
 C996 C 0.77892 0.69891 0.60083
 C997 C 0.77374 0.69035 0.65914
 C998 C 0.78175 0.65708 0.67471
 H999 H 0.91986 0.58803 0.49788
 H1000 H 0.87154 0.54962 0.69243
 H1001 H 0.93662 0.51972 0.63990
 H1002 H 0.81408 0.59662 0.70131
 H1003 H 0.85948 0.63385 0.50490
 H1004 H 0.80703 0.68439 0.51868
 H1005 H 0.76956 0.72366 0.58522
 H1006 H 0.77495 0.64879 0.71706
 C1007 C 0.58641 0.42473 0.06496
 C1008 C 0.61838 0.40509 0.09892
 C1009 C 0.63016 0.41544 0.15510
 C1010 C 0.60974 0.44513 0.17645
 C1011 C 0.57648 0.46389 0.14321
 C1012 C 0.56399 0.45376 0.08724
 C1013 C 0.66039 0.39528 0.18992
 C1014 C 0.67518 0.36358 0.17096
 C1015 C 0.66420 0.35339 0.11464
 C1016 C 0.63736 0.37472 0.07819
 C1017 C 0.67775 0.32128 0.09685
 C1018 C 0.69652 0.29837 0.13628
 C1019 C 0.70291 0.30726 0.19432
 C1020 C 0.69683 0.34097 0.20917
 H1021 H 0.57872 0.41717 0.02145
 H1022 H 0.61875 0.45353 0.21922
 H1023 H 0.56106 0.48653 0.16168
 H1024 H 0.66929 0.40322 0.23302
 H1025 H 0.62836 0.36673 0.03512
 H1026 H 0.67097 0.31320 0.05340
 H1027 H 0.70399 0.27327 0.12099
 H1028 H 0.70483 0.34950 0.25128
 C1029 C 0.42997 0.91087 0.45406
 C1030 C 0.39192 0.88842 0.43270
 C1031 C 0.34664 0.90093 0.40687
 C1032 C 0.33792 0.93521 0.40669
 C1033 C 0.37471 0.95715 0.42882
 C1034 C 0.42233 0.94571 0.45144
 C1035 C 0.31167 0.87925 0.37926
 C1036 C 0.32121 0.84490 0.37703
 C1037 C 0.36393 0.83196 0.40719
 C1038 C 0.39905 0.85369 0.43473
 C1039 C 0.37223 0.79752 0.40705
 C1040 C 0.34277 0.77678 0.37189
 C1041 C 0.30512 0.79011 0.33460
 C1042 C 0.29102 0.82367 0.34196
 H1043 H 0.46607 0.90124 0.47000
 H1044 H 0.30320 0.94528 0.38779
 H1045 H 0.36572 0.98348 0.42512
 H1046 H 0.27846 0.88932 0.35721
 H1047 H 0.43289 0.84369 0.45563
 H1048 H 0.40328 0.78680 0.43176
 H1049 H 0.35239 0.75042 0.37170
 H1050 H 0.26027 0.83402 0.31635
 C1051 C 0.12311 0.07008 0.97725
 C1052 C 0.14802 0.10014 0.95933
 C1053 C 0.12457 0.13132 0.97087
 C1054 C 0.07714 0.13227 0.99841
 C1055 C 0.05119 0.10269 1.01153
 C1056 C 0.07363 0.07104 1.00273
 C1057 C 0.14595 0.16116 0.94995
 C1058 C 0.18791 0.16032 0.91296
 C1059 C 0.21276 0.12972 0.90159
 C1060 C 0.19368 0.09974 0.92655
 C1061 C 0.25423 0.12971 0.86300
 C1062 C 0.26713 0.15896 0.83224
 C1063 C 0.23864 0.18855 0.83945
 C1064 C 0.20198 0.18941 0.88344
 H1065 H 0.14046 0.04610 0.96783
 H1066 H 0.05793 0.15594 1.00552
 H1067 H 0.01175 0.10534 1.02451
 H1068 H 0.12693 0.18481 0.95825
 H1069 H 0.21195 0.07604 0.91710
 H1070 H 0.27484 0.10677 0.85440
 H1071 H 0.29746 0.15772 0.80096
 H1072 H 0.18115 0.21220 0.89244
 C1073 C 0.10296 0.93887 0.09758
 C1074 C 0.12395 0.91190 0.12797
 C1075 C 0.09359 0.89435 0.16840
 C1076 C 0.04203 0.90400 0.17667
 C1077 C 0.02062 0.92993 0.14392
 C1078 C 0.05047 0.94732 0.10293
 C1079 C 0.11516 0.86728 0.19888
 C1080 C 0.16580 0.85648 0.18689
 C1081 C 0.19483 0.87351 0.14453
 C1082 C 0.17450 0.90160 0.11684
 C1083 C 0.24286 0.86122 0.12816
 C1084 C 0.26172 0.83188 0.15222
 C1085 C 0.23574 0.81537 0.19729
 C1086 C 0.18716 0.82809 0.21428
 H1087 H 0.12796 0.95298 0.06926
 H1088 H 0.01792 0.89105 0.20763
 H1089 H -0.01942 0.93628 0.15077
 H1090 H 0.09202 0.85398 0.23035
 H1091 H 0.19730 0.91458 0.08464
 H1092 H 0.26480 0.87336 0.09444
 H1093 H 0.29662 0.82179 0.13415
 H1094 H 0.16473 0.81498 0.24649
 C1095 C 0.94075 0.43605 0.36992
 C1096 C 0.90367 0.41337 0.34811
 C1097 C 0.85065 0.41942 0.35751
 C1098 C 0.83546 0.44827 0.38629
 C1099 C 0.87244 0.46911 0.41126
 C1100 C 0.92558 0.46216 0.40644
 C1101 C 0.81359 0.39550 0.34165
 C1102 C 0.82885 0.36462 0.31954
 C1103 C 0.88134 0.35851 0.30830
 C1104 C 0.91866 0.38338 0.32139
 C1105 C 0.89535 0.32707 0.28666
 C1106 C 0.85775 0.30172 0.27865
 C1107 C 0.80537 0.30728 0.29219
 C1108 C 0.79201 0.33926 0.31153
 H1109 H 0.98108 0.43115 0.36282
 H1110 H 0.79490 0.45346 0.39302
 H1111 H 0.85880 0.48976 0.43691
 H1112 H 0.77302 0.40002 0.35006
 H1113 H 0.95928 0.37853 0.31427
 H1114 H 0.93541 0.32179 0.27729
 H1115 H 0.87005 0.27759 0.26276
 H1116 H 0.75330 0.34500 0.32256
 C1117 C 0.40751 0.07126 0.55844
 C1118 C 0.38915 0.09687 0.59401
 C1119 C 0.42237 0.11193 0.63466
 C1120 C 0.47361 0.10126 0.63853
 C1121 C 0.49198 0.07653 0.60168
 C1122 C 0.45966 0.06173 0.55996
 C1123 C 0.40383 0.13737 0.67062
 C1124 C 0.35283 0.14867 0.66512
 C1125 C 0.32024 0.13409 0.62329
 C1126 C 0.33821 0.10795 0.58882
 C1127 C 0.27056 0.14655 0.61535
 C1128 C 0.25314 0.17319 0.64834
 C1129 C 0.28353 0.18689 0.69272
 C1130 C 0.33417 0.17478 0.69979
 H1131 H 0.38068 0.05866 0.53020
 H1132 H 0.49968 0.11225 0.66972
 H1133 H 0.53182 0.06908 0.60606
 H1134 H 0.42927 0.14868 0.70217
 H1135 H 0.31291 0.09679 0.55695
 H1136 H 0.24552 0.13627 0.58250
 H1137 H 0.21557 0.18318 0.63843
 H1138 H 0.35943 0.18596 0.73157
 C1139 C 0.55252 0.56808 0.88368
 C1140 C 0.58630 0.58941 0.85351
 C1141 C 0.64003 0.58445 0.85789
 C1142 C 0.65905 0.55882 0.89243
 C1143 C 0.62532 0.53971 0.92584
 C1144 C 0.57164 0.54475 0.92348
 C1145 C 0.67420 0.60641 0.83051
 C1146 C 0.65569 0.63507 0.80310
 C1147 C 0.60236 0.64076 0.79897
 C1148 C 0.56753 0.61706 0.82246
 C1149 C 0.58554 0.67084 0.77403
 C1150 C 0.62164 0.69570 0.75693
 C1151 C 0.67518 0.69055 0.76310
 C1152 C 0.69070 0.65921 0.78370
 H1153 H 0.51181 0.57215 0.87941
 H1154 H 0.70025 0.55478 0.89603
 H1155 H 0.64169 0.52140 0.95447
 H1156 H 0.71551 0.60253 0.83412
 H1157 H 0.52628 0.62128 0.81993
 H1158 H 0.54464 0.67580 0.77017
 H1159 H 0.60752 0.71928 0.74055
 H1160 H 0.73011 0.65332 0.78871
 C1161 C 0.46804 0.42081 0.91384
 C1162 C 0.44597 0.39031 0.89538
 C1163 C 0.43454 0.36471 0.93517
 C1164 C 0.44975 0.36912 0.99199
 C1165 C 0.47231 0.39958 1.00987
 C1166 C 0.47873 0.42672 0.97203
 C1167 C 0.40683 0.33575 0.91772
 C1168 C 0.39009 0.33245 0.86096
 C1169 C 0.40469 0.35724 0.82074
 C1170 C 0.43283 0.38581 0.83801
 C1171 C 0.38944 0.35361 0.76405
 C1172 C 0.35638 0.32732 0.74814
 C1173 C 0.33590 0.30477 0.78847
 C1174 C 0.35674 0.30587 0.84423
 H1175 H 0.47423 0.44044 0.88258
 H1176 H 0.44307 0.34935 1.02297
 H1177 H 0.48387 0.40176 1.05356
 H1178 H 0.39647 0.31658 0.94867
 H1179 H 0.44250 0.40523 0.80719
 H1180 H 0.40183 0.37164 0.73211
 H1181 H 0.34686 0.32519 0.70412
 H1182 H 0.34394 0.28775 0.87583
 C1183 C 0.91053 0.07601 0.08745
 C1184 C 0.88925 0.10220 0.11841
 C1185 C 0.92059 0.12112 0.15604
 C1186 C 0.97304 0.11321 0.16184
 C1187 C 0.99422 0.08704 0.12992
 C1188 C 0.96345 0.06869 0.09100
 C1189 C 0.89868 0.14728 0.18741
 C1190 C 0.84596 0.15455 0.18115
 C1191 C 0.81491 0.13554 0.14320
 C1192 C 0.83676 0.10946 0.11212
 C1193 C 0.76246 0.14291 0.13687
 C1194 C 0.74043 0.16847 0.16888
 C1195 C 0.77023 0.18677 0.20850
 C1196 C 0.82364 0.18031 0.21275
 H1197 H 0.88474 0.06092 0.06170
 H1198 H 0.99764 0.12726 0.19089
 H1199 H 1.03478 0.08149 0.13511
 H1200 H 0.92247 0.16182 0.21672
 H1201 H 0.81294 0.09484 0.08292
 H1202 H 0.73841 0.12883 0.10726
 H1203 H 0.69996 0.17378 0.16256
 H1204 H 0.84781 0.19447 0.24207
 C1205 C 0.59170 0.93038 0.54433
 C1206 C 0.60872 0.90258 0.57542
 C1207 C 0.57308 0.88323 0.60757
 C1208 C 0.52060 0.89164 0.60652
 C1209 C 0.50375 0.91893 0.57403
 C1210 C 0.53898 0.93854 0.54200
 C1211 C 0.59070 0.85616 0.64059
 C1212 C 0.64342 0.84789 0.64075
 C1213 C 0.67848 0.86671 0.60684
 C1214 C 0.66107 0.89407 0.57495
 C1215 C 0.73050 0.85776 0.60491
 C1216 C 0.74818 0.83095 0.63731
 C1217 C 0.71488 0.81320 0.67440
 C1218 C 0.66181 0.82122 0.67424
 H1219 H 0.62023 0.94604 0.52327
 H1220 H 0.49258 0.87720 0.63099
 H1221 H 0.46307 0.92488 0.57456
 H1222 H 0.56351 0.84162 0.66608
 H1223 H 0.68828 0.90866 0.54951
 H1224 H 0.75759 0.87139 0.57796
 H1225 H 0.78829 0.82423 0.63300
 H1226 H 0.63496 0.80719 0.70085
 C1227 C 0.02913 0.58623 0.39373
 C1228 C 0.05574 0.61524 0.37531
 C1229 C 0.07509 0.63845 0.41571
 C1230 C 0.06168 0.63433 0.47311
 C1231 C 0.03409 0.60565 0.49084
 C1232 C 0.02174 0.57973 0.45233
 C1233 C 0.10869 0.66458 0.39818
 C1234 C 0.12233 0.66792 0.34047
 C1235 C 0.09858 0.64672 0.29967
 C1236 C 0.06577 0.62035 0.31731
 C1237 C 0.10921 0.65172 0.24193
 C1238 C 0.14582 0.67575 0.22496
 C1239 C 0.17494 0.69413 0.26499
 C1240 C 0.16061 0.69124 0.32301
 H1241 H 0.01743 0.56782 0.36215
 H1242 H 0.07384 0.65273 0.50455
 H1243 H 0.02407 0.60351 0.53496
 H1244 H 0.12553 0.68148 0.42954
 H1245 H 0.04971 0.60302 0.28620
 H1246 H 0.08995 0.63665 0.20974
 H1247 H 0.15181 0.67893 0.18047
 H1248 H 0.18031 0.70618 0.35509
   
