data_POSCAR
  _audit_creation_date              2014-09-24
  _audit_creation_method            'ToBaCCo'
  _symmetry_space_group_name_H-M    'P1'
  _symmetry_Int_Tables_number       1
  _symmetry_cell_setting            triclinic
  loop_
  _symmetry_equiv_pos_as_xyz
 x,y,z
_cell_length_a 59.9444
_cell_length_b 59.8474
_cell_length_c 63.4461
_cell_angle_alpha 90.282500
_cell_angle_beta 89.503000
_cell_angle_gamma 90.122500
loop_
  _atom_site_label
  _atom_site_type_symbol
  _atom_site_fract_x
  _atom_site_fract_y
  _atom_site_fract_z
C1 C 0.42590 0.01443 0.28004
 H2 H 0.42724 0.02816 0.26907
 C3 C 0.43923 0.01414 0.29808
 H4 H 0.45073 0.02776 0.30107
 C5 C 0.40905 -0.01985 0.28991
 H6 H 0.39708 -0.03296 0.28699
 C7 C 0.42204 -0.02078 0.30807
 H8 H 0.41996 -0.03458 0.31890
 N9 N 0.41138 -0.00261 0.27610
 C10 C 0.40317 -0.00667 0.20761
 H11 H 0.38524 -0.00855 0.20690
 C12 C 0.41576 -0.00583 0.18900
 H13 H 0.40751 -0.00730 0.17393
 C14 C 0.43579 -0.00202 0.22804
 H15 H 0.44359 -0.00053 0.24325
 C16 C 0.44903 -0.00110 0.20976
 H17 H 0.46691 0.00109 0.21100
 Zn18 Zn 0.39411 -0.00255 0.25085
 N19 N 0.41321 -0.00425 0.22665
 C20 C 0.38055 0.03860 0.23270
 N21 N 0.37720 0.02469 0.24940
 C22 C 0.36229 0.03009 0.26493
 C23 C 0.34952 0.04965 0.26357
 C24 C 0.36818 0.05825 0.23075
 C25 C 0.38498 -0.04869 0.24926
 C26 C 0.37235 -0.06832 0.25086
 C27 C 0.33915 -0.04581 0.25464
 C28 C 0.35243 -0.02658 0.25298
 N29 N 0.37500 -0.02831 0.25078
 H30 H 0.39287 0.03462 0.22078
 H31 H 0.36016 0.01909 0.27828
 H32 H 0.33754 0.05364 0.27589
 H33 H 0.37093 0.06901 0.21729
 H34 H 0.40290 -0.04967 0.24736
 H35 H 0.38067 -0.08438 0.24999
 H36 H 0.32126 -0.04413 0.25670
 H37 H 0.34467 -0.01034 0.25379
 C38 C 0.43887 -0.00268 0.19004
 C39 C 0.43740 -0.00375 0.31216
 C40 C 0.34921 -0.06694 0.25386
 C41 C 0.35236 0.06380 0.24621
 C42 C 0.07346 0.01495 0.71944
 H43 H 0.07236 0.02879 0.73043
 C44 C 0.05965 0.01436 0.70173
 H45 H 0.04806 0.02788 0.69900
 C46 C 0.09004 -0.01941 0.70929
 H47 H 0.10206 -0.03244 0.71199
 C48 C 0.07658 -0.02064 0.69145
 H49 H 0.07835 -0.03459 0.68062
 N50 N 0.08803 -0.00201 0.72310
 C51 C 0.09663 -0.00526 0.79147
 H52 H 0.11458 -0.00680 0.79220
 C53 C 0.08400 -0.00432 0.81006
 H54 H 0.09225 -0.00537 0.82515
 C55 C 0.06396 -0.00158 0.77098
 H56 H 0.05615 -0.00054 0.75577
 C57 C 0.05070 -0.00057 0.78923
 H58 H 0.03279 0.00125 0.78797
 Zn59 Zn 0.10553 -0.00163 0.74816
 N60 N 0.08657 -0.00332 0.77241
 C61 C 0.11926 0.03971 0.76633
 N62 N 0.12233 0.02571 0.74953
 C63 C 0.13706 0.03100 0.73385
 C64 C 0.15002 0.05049 0.73519
 C65 C 0.13183 0.05930 0.76826
 C66 C 0.11510 -0.04768 0.74938
 C67 C 0.12800 -0.06708 0.74764
 C68 C 0.16089 -0.04401 0.74413
 C69 C 0.14738 -0.02502 0.74592
 N70 N 0.12483 -0.02713 0.74804
 H71 H 0.10706 0.03580 0.77835
 H72 H 0.13896 0.01993 0.72043
 H73 H 0.16191 0.05438 0.72278
 H74 H 0.12935 0.07011 0.78182
 H75 H 0.09719 -0.04897 0.75125
 H76 H 0.12001 -0.08331 0.74835
 H77 H 0.17876 -0.04213 0.74213
 H78 H 0.15495 -0.00866 0.74530
 C79 C 0.06086 -0.00160 0.80896
 C80 C 0.06109 -0.00373 0.68771
 C81 C 0.15110 -0.06526 0.74471
 C82 C 0.14753 0.06469 0.75269
 C83 C 0.57376 0.51388 0.21962
 H84 H 0.57263 0.52770 0.23064
 C85 C 0.55998 0.51330 0.20190
 H86 H 0.54838 0.52681 0.19916
 C87 C 0.59040 0.47955 0.20945
 H88 H 0.60242 0.46653 0.21216
 C89 C 0.57697 0.47834 0.19159
 H90 H 0.57877 0.46441 0.18074
 N91 N 0.58834 0.49693 0.22329
 C92 C 0.59677 0.49351 0.29163
 H93 H 0.61473 0.49200 0.29239
 C94 C 0.58411 0.49438 0.31020
 H95 H 0.59233 0.49330 0.32530
 C96 C 0.56415 0.49720 0.27109
 H97 H 0.55636 0.49828 0.25587
 C98 C 0.55085 0.49814 0.28932
 H99 H 0.53293 0.49994 0.28803
 Zn100 Zn 0.60577 0.49729 0.24838
 N101 N 0.58675 0.49548 0.27257
 C102 C 0.61928 0.53863 0.26667
 N103 N 0.62248 0.52467 0.24986
 C104 C 0.63726 0.53004 0.23425
 C105 C 0.65015 0.54958 0.23568
 C106 C 0.63176 0.55826 0.26868
 C107 C 0.61541 0.45128 0.24958
 C108 C 0.62834 0.43190 0.24790
 C109 C 0.66121 0.45501 0.24450
 C110 C 0.64767 0.47399 0.24623
 N111 N 0.62511 0.47184 0.24827
 H112 H 0.60703 0.53466 0.27863
 H113 H 0.63927 0.51900 0.22082
 H114 H 0.66208 0.55353 0.22333
 H115 H 0.62917 0.56905 0.28225
 H116 H 0.59749 0.44996 0.25139
 H117 H 0.62037 0.41566 0.24859
 H118 H 0.67909 0.45692 0.24257
 H119 H 0.65522 0.49036 0.24563
 C120 C 0.56097 0.49707 0.30906
 C121 C 0.56147 0.49523 0.18786
 C122 C 0.65145 0.43375 0.24506
 C123 C 0.64751 0.56374 0.25318
 C124 C 0.92758 0.51503 0.78073
 H125 H 0.92897 0.52873 0.76974
 C126 C 0.94077 0.51483 0.79888
 H127 H 0.95220 0.52852 0.80186
 C128 C 0.91069 0.48078 0.79060
 H129 H 0.89873 0.46766 0.78765
 C130 C 0.92352 0.47992 0.80886
 H131 H 0.92131 0.46614 0.81971
 N132 N 0.91309 0.49798 0.77676
 C133 C 0.90463 0.49382 0.70827
 H134 H 0.88670 0.49182 0.70768
 C135 C 0.91707 0.49466 0.68957
 H136 H 0.90871 0.49307 0.67456
 C137 C 0.93736 0.49879 0.72847
 H138 H 0.94525 0.50043 0.74362
 C139 C 0.95046 0.49972 0.71009
 H140 H 0.96833 0.50205 0.71120
 Zn141 Zn 0.89578 0.49805 0.75151
 N142 N 0.91479 0.49638 0.72723
 C143 C 0.88212 0.53918 0.73337
 N144 N 0.87886 0.52528 0.75009
 C145 C 0.86398 0.53067 0.76566
 C146 C 0.85116 0.55019 0.76431
 C147 C 0.86969 0.55879 0.73143
 C148 C 0.88656 0.45190 0.74993
 C149 C 0.87386 0.43231 0.75147
 C150 C 0.84073 0.45488 0.75516
 C151 C 0.85406 0.47409 0.75357
 N152 N 0.87663 0.47231 0.75144
 H153 H 0.89440 0.53519 0.72142
 H154 H 0.86191 0.51969 0.77903
 H155 H 0.83920 0.55418 0.77665
 H156 H 0.87237 0.56953 0.71794
 H157 H 0.90449 0.45086 0.74808
 H158 H 0.88204 0.41620 0.75063
 H159 H 0.82285 0.45650 0.75717
 H160 H 0.84632 0.49034 0.75436
 C161 C 0.94016 0.49797 0.69044
 C162 C 0.93883 0.49701 0.81304
 C163 C 0.85074 0.43377 0.75438
 C164 C 0.85391 0.56433 0.74692
 C165 C 0.21817 0.38433 0.98160
 H166 H 0.23090 0.38436 0.96940
 C167 C 0.19881 0.39707 0.97912
 H168 H 0.19674 0.40705 0.96508
 C169 C 0.20513 0.37099 1.01459
 H170 H 0.20745 0.36052 1.02822
 C171 C 0.18550 0.38348 1.01273
 H172 H 0.17294 0.38279 1.02508
 N173 N 0.22107 0.37171 0.99918
 C174 C 0.29350 0.36117 1.00291
 H175 H 0.29398 0.34310 1.00303
 C176 C 0.31328 0.37341 1.00511
 H177 H 0.32901 0.36473 1.00665
 C178 C 0.27240 0.39455 1.00129
 H179 H 0.25641 0.40275 1.00025
 C180 C 0.29180 0.40743 1.00345
 H181 H 0.29068 0.42549 1.00372
 Zn182 Zn 0.24732 0.35368 1.00035
 N183 N 0.27357 0.37182 1.00098
 C184 C 0.26358 0.33564 0.96134
 N185 N 0.24696 0.33489 0.97608
 C186 C 0.22862 0.32178 0.97324
 C187 C 0.22635 0.30891 0.95492
 C188 C 0.26198 0.32300 0.94279
 C189 C 0.24929 0.34733 1.04393
 C190 C 0.25241 0.33571 1.06272
 C191 C 0.25277 0.30114 1.04292
 C192 C 0.24961 0.31342 1.02445
 N193 N 0.24799 0.33613 1.02527
 H194 H 0.27779 0.34648 0.96364
 H195 H 0.21549 0.32174 0.98505
 H196 H 0.21145 0.29895 0.95261
 H197 H 0.27503 0.32412 0.93093
 H198 H 0.24846 0.36539 1.04412
 H199 H 0.25372 0.34486 1.07744
 H200 H 0.25439 0.28313 1.04210
 H201 H 0.24914 0.30484 1.00944
 C202 C 0.31245 0.39678 1.00547
 C203 C 0.18226 0.39663 0.99480
 C204 C 0.25439 0.31242 1.06223
 C205 C 0.24311 0.30964 0.93946
 C206 C 0.77872 0.11421 0.98012
 H207 H 0.76600 0.11399 0.96813
 C208 C 0.79822 0.10165 0.97727
 H209 H 0.80034 0.09160 0.96315
 C210 C 0.79171 0.12800 1.01288
 H211 H 0.78936 0.13864 1.02653
 C212 C 0.81145 0.11571 1.01066
 H213 H 0.82401 0.11673 1.02281
 N214 N 0.77576 0.12699 0.99775
 C215 C 0.70337 0.13833 1.00231
 H216 H 0.70307 0.15641 1.00246
 C217 C 0.68345 0.12631 1.00469
 H218 H 0.66779 0.13516 1.00639
 C219 C 0.72415 0.10473 1.00043
 H220 H 0.74007 0.09636 0.99921
 C221 C 0.70461 0.09206 1.00276
 H222 H 0.70555 0.07399 1.00298
 Zn223 Zn 0.74971 0.14527 0.99935
 N224 N 0.72321 0.12747 1.00017
 C225 C 0.73429 0.16329 0.96042
 N226 N 0.75062 0.16393 0.97519
 C227 C 0.76932 0.17655 0.97229
 C228 C 0.77230 0.18896 0.95386
 C229 C 0.73660 0.17547 0.94175
 C230 C 0.74787 0.15142 1.04293
 C231 C 0.74593 0.16294 1.06204
 C232 C 0.74706 0.19775 1.04294
 C233 C 0.74900 0.18554 1.02410
 N234 N 0.74943 0.16277 1.02445
 H235 H 0.71980 0.15280 0.96277
 H236 H 0.78223 0.17647 0.98411
 H237 H 0.78750 0.19847 0.95149
 H238 H 0.72380 0.17440 0.92984
 H239 H 0.74784 0.13334 1.04275
 H240 H 0.74461 0.15369 1.07664
 H241 H 0.74659 0.21583 1.04255
 H242 H 0.74972 0.19426 1.00925
 C243 C 0.68404 0.10293 1.00502
 C244 C 0.81482 0.10246 0.99265
 C245 C 0.74542 0.18631 1.06209
 C246 C 0.75589 0.18825 0.93833
 C247 C 0.27844 0.61472 0.47968
 H248 H 0.26577 0.61456 0.46765
 C249 C 0.29787 0.60204 0.47693
 H250 H 0.30003 0.59193 0.46285
 C251 C 0.29138 0.62848 0.51248
 H252 H 0.28905 0.63914 0.52610
 C253 C 0.31105 0.61605 0.51034
 H254 H 0.32360 0.61697 0.52249
 N255 N 0.27549 0.62754 0.49729
 C256 C 0.20312 0.63910 0.50170
 H257 H 0.20286 0.65718 0.50182
 C258 C 0.18318 0.62711 0.50405
 H259 H 0.16753 0.63600 0.50571
 C260 C 0.22384 0.60545 0.49990
 H261 H 0.23974 0.59705 0.49873
 C262 C 0.20426 0.59283 0.50222
 H263 H 0.20517 0.57476 0.50246
 Zn264 Zn 0.24950 0.64592 0.49880
 N265 N 0.22295 0.62820 0.49961
 C266 C 0.23417 0.66394 0.45984
 N267 N 0.25050 0.66455 0.47461
 C268 C 0.26923 0.67712 0.47171
 C269 C 0.27224 0.68953 0.45327
 C270 C 0.23652 0.67612 0.44117
 C271 C 0.24758 0.65217 0.54238
 C272 C 0.24566 0.66373 0.56147
 C273 C 0.24695 0.69850 0.54231
 C274 C 0.24888 0.68625 0.52350
 N275 N 0.24922 0.66348 0.52388
 H276 H 0.21965 0.65349 0.46219
 H277 H 0.28214 0.67701 0.48353
 H278 H 0.28746 0.69901 0.45091
 H279 H 0.22370 0.67509 0.42926
 H280 H 0.24748 0.63409 0.54223
 H281 H 0.24428 0.65451 0.57608
 H282 H 0.24656 0.71658 0.54189
 H283 H 0.24967 0.69494 0.50863
 C284 C 0.18372 0.60374 0.50441
 C285 C 0.31439 0.60276 0.49236
 C286 C 0.24523 0.68710 0.56148
 C287 C 0.25583 0.68887 0.43775
 C288 C 0.71804 0.88366 0.48188
 H289 H 0.73074 0.88369 0.46966
 C290 C 0.69864 0.89634 0.47939
 H291 H 0.69653 0.90628 0.46533
 C292 C 0.70509 0.87039 0.51492
 H293 H 0.70746 0.85998 0.52858
 C294 C 0.68543 0.88283 0.51306
 H295 H 0.67289 0.88215 0.52544
 N296 N 0.72100 0.87110 0.49948
 C297 C 0.79348 0.86085 0.50312
 H298 H 0.79403 0.84278 0.50327
 C299 C 0.81321 0.87318 0.50526
 H300 H 0.82899 0.86456 0.50678
 C301 C 0.77223 0.89414 0.50148
 H302 H 0.75621 0.90227 0.50046
 C303 C 0.79159 0.90710 0.50359
 H304 H 0.79039 0.92516 0.50383
 Zn305 Zn 0.74732 0.85316 0.50066
 N306 N 0.77350 0.87141 0.50120
 C307 C 0.76355 0.83517 0.46162
 N308 N 0.74699 0.83433 0.47641
 C309 C 0.72869 0.82113 0.47361
 C310 C 0.72643 0.80827 0.45528
 C311 C 0.76195 0.82254 0.44307
 C312 C 0.74939 0.84696 0.54426
 C313 C 0.75260 0.83542 0.56307
 C314 C 0.75305 0.80078 0.54339
 C315 C 0.74980 0.81299 0.52487
 N316 N 0.74810 0.83569 0.52563
 H317 H 0.77772 0.84608 0.46388
 H318 H 0.71560 0.82103 0.48546
 H319 H 0.71156 0.79825 0.45300
 H320 H 0.77495 0.82374 0.43116
 H321 H 0.74849 0.86501 0.54439
 H322 H 0.75390 0.84462 0.57776
 H323 H 0.75473 0.78277 0.54262
 H324 H 0.74933 0.80435 0.50989
 C325 C 0.81229 0.89654 0.50559
 C326 C 0.68212 0.89592 0.49510
 C327 C 0.75467 0.81213 0.56265
 C328 C 0.74313 0.80910 0.43977
 C329 C 0.01295 0.28135 0.39701
 H330 H 0.02914 0.27340 0.39668
 C331 C 0.00968 0.30073 0.40873
 H332 H 0.02338 0.30789 0.41753
 C333 C -0.02466 0.28205 0.38547
 H334 H -0.03780 0.27488 0.37605
 C335 C -0.02865 0.30155 0.39699
 H336 H -0.04491 0.30940 0.39659
 N337 N -0.00415 0.27237 0.38588
 C338 C 0.01415 0.20341 0.37883
 H339 H 0.01395 0.20197 0.36182
 C340 C 0.01812 0.18469 0.39109
 H341 H 0.02090 0.16863 0.38356
 C342 C 0.00957 0.22596 0.40949
 H343 H 0.00558 0.24192 0.41655
 C344 C 0.01339 0.20763 0.42238
 H345 H 0.01242 0.20951 0.43936
 Zn346 Zn 0.00281 0.24689 0.37027
 N347 N 0.01002 0.22347 0.38817
 C348 C 0.04673 0.24327 0.35576
 N349 N 0.02712 0.25419 0.35310
 C350 C 0.02523 0.27154 0.33943
 C351 C 0.04358 0.27817 0.32730
 C352 C 0.06538 0.24935 0.34402
 C353 C -0.03969 0.23045 0.36572
 C354 C -0.05904 0.22415 0.35532
 C355 C -0.04026 0.23113 0.32206
 C356 C -0.02120 0.23727 0.33310
 N357 N -0.02157 0.23745 0.35453
 H358 H 0.04810 0.23012 0.36723
 H359 H 0.00951 0.28025 0.33812
 H360 H 0.04209 0.29187 0.31630
 H361 H 0.08097 0.24053 0.34615
 H362 H -0.03923 0.23044 0.38276
 H363 H -0.07380 0.21958 0.36431
 H364 H -0.04034 0.23196 0.30500
 H365 H -0.00638 0.24234 0.32458
 C366 C 0.01752 0.18686 0.41302
 C367 C -0.01127 0.31085 0.40867
 C368 C -0.05938 0.22491 0.33335
 C369 C 0.06375 0.26689 0.32972
 C370 C 0.01285 0.72127 0.10469
 H371 H 0.02900 0.72929 0.10576
 C372 C 0.01022 0.70232 0.09223
 H373 H 0.02437 0.69554 0.08362
 C374 C -0.02531 0.71995 0.11509
 H375 H -0.03894 0.72668 0.12435
 C376 C -0.02867 0.70089 0.10281
 H377 H -0.04491 0.69293 0.10250
 N378 N -0.00482 0.72975 0.11561
 C379 C 0.01190 0.79889 0.12512
 H380 H 0.01077 0.79990 0.14213
 C381 C 0.01608 0.81800 0.11337
 H382 H 0.01810 0.83398 0.12124
 C383 C 0.00945 0.77698 0.09387
 H384 H 0.00619 0.76112 0.08635
 C385 C 0.01356 0.79571 0.08152
 H386 H 0.01355 0.79427 0.06449
 Zn387 Zn 0.00112 0.75476 0.13222
 N388 N 0.00872 0.77895 0.11524
 C389 C 0.04420 0.75888 0.14813
 N390 N 0.02479 0.74723 0.14967
 C391 C 0.02276 0.72898 0.16226
 C392 C 0.04080 0.72197 0.17429
 C393 C 0.06254 0.75248 0.15982
 C394 C -0.04176 0.77036 0.13650
 C395 C -0.06167 0.77571 0.14671
 C396 C -0.04422 0.76725 0.18003
 C397 C -0.02461 0.76208 0.16915
 N398 N -0.02404 0.76308 0.14775
 H399 H 0.04571 0.77283 0.13751
 H400 H 0.00723 0.71975 0.16271
 H401 H 0.03925 0.70743 0.18431
 H402 H 0.07801 0.76180 0.15849
 H403 H -0.04057 0.77130 0.11950
 H404 H -0.07604 0.78054 0.13752
 H405 H -0.04490 0.76548 0.19703
 H406 H -0.01009 0.75679 0.17774
 C407 C 0.01672 0.81633 0.09142
 C408 C -0.01070 0.69212 0.09133
 C409 C -0.06299 0.77372 0.16862
 C410 C 0.06080 0.73388 0.17291
 C411 C 0.51400 0.22030 0.60361
 H412 H 0.53032 0.22797 0.60469
 C413 C 0.51092 0.20153 0.59102
 H414 H 0.52490 0.19452 0.58231
 C415 C 0.47586 0.21970 0.61414
 H416 H 0.46241 0.22663 0.62351
 C417 C 0.47205 0.20081 0.60173
 H418 H 0.45565 0.19319 0.60143
 N419 N 0.49656 0.22905 0.61466
 C420 C 0.51490 0.29770 0.62459
 H421 H 0.51396 0.29858 0.64161
 C422 C 0.51923 0.31687 0.61296
 H423 H 0.52155 0.33274 0.62094
 C424 C 0.51169 0.27615 0.59320
 H425 H 0.50804 0.26042 0.58557
 C426 C 0.51594 0.29492 0.58096
 H427 H 0.51563 0.29366 0.56392
 Zn428 Zn 0.50312 0.25378 0.63143
 N429 N 0.51122 0.27793 0.61458
 C430 C 0.54635 0.25674 0.64714
 N431 N 0.52666 0.24559 0.64877
 C432 C 0.52420 0.22744 0.66143
 C433 C 0.54206 0.22007 0.67351
 C434 C 0.56452 0.24996 0.65886
 C435 C 0.46060 0.27033 0.63588
 C436 C 0.44088 0.27616 0.64618
 C437 C 0.45823 0.26725 0.67941
 C438 C 0.47768 0.26161 0.66847
 N439 N 0.47819 0.26261 0.64707
 H440 H 0.54818 0.27060 0.63646
 H441 H 0.50844 0.21861 0.66194
 H442 H 0.54015 0.20567 0.68364
 H443 H 0.58020 0.25892 0.65750
 H444 H 0.46175 0.27126 0.61888
 H445 H 0.42654 0.28132 0.63715
 H446 H 0.45746 0.26549 0.69639
 H447 H 0.49209 0.25597 0.67701
 C448 C 0.51951 0.31540 0.59099
 C449 C 0.48979 0.19177 0.59012
 C450 C 0.43963 0.27420 0.66807
 C451 C 0.56233 0.23151 0.67208
 C452 C 0.51255 0.78234 0.89566
 H453 H 0.52876 0.77442 0.89539
 C454 C 0.50923 0.80177 0.90728
 H455 H 0.52291 0.80902 0.91606
 C456 C 0.47493 0.78282 0.88416
 H457 H 0.46179 0.77552 0.87483
 C458 C 0.47088 0.80238 0.89559
 H459 H 0.45458 0.81014 0.89520
 N460 N 0.49546 0.77320 0.88463
 C461 C 0.51364 0.70412 0.87873
 H462 H 0.51350 0.70236 0.86175
 C463 C 0.51760 0.68566 0.89133
 H464 H 0.52044 0.66945 0.88413
 C465 C 0.50895 0.72725 0.90900
 H466 H 0.50493 0.74333 0.91578
 C467 C 0.51277 0.70917 0.92220
 H468 H 0.51177 0.71131 0.93915
 Zn469 Zn 0.50246 0.74748 0.86941
 N470 N 0.50948 0.72436 0.88772
 C471 C 0.54648 0.74352 0.85527
 N472 N 0.52693 0.75446 0.85231
 C473 C 0.52523 0.77165 0.83845
 C474 C 0.54373 0.77814 0.82646
 C475 C 0.56528 0.74945 0.84368
 C476 C 0.45999 0.73100 0.86484
 C477 C 0.44066 0.72466 0.85444
 C478 C 0.45956 0.73132 0.82117
 C479 C 0.47860 0.73750 0.83222
 N480 N 0.47816 0.73786 0.85365
 H481 H 0.54769 0.73049 0.86688
 H482 H 0.50955 0.78039 0.83690
 H483 H 0.54241 0.79173 0.81534
 H484 H 0.58083 0.74064 0.84607
 H485 H 0.46039 0.73115 0.88189
 H486 H 0.42586 0.72023 0.86342
 H487 H 0.45953 0.73202 0.80411
 H488 H 0.49346 0.74247 0.82370
 C489 C 0.51698 0.68826 0.91320
 C490 C 0.48823 0.81179 0.90722
 C491 C 0.44038 0.72525 0.83246
 C492 C 0.56386 0.76686 0.82922
 C493 C -0.23526 0.67743 0.97114
 H494 H -0.22165 0.67877 0.98217
 C495 C -0.23544 0.69087 0.95311
 H496 H -0.22186 0.70244 0.95019
 C497 C -0.26935 0.66049 0.96114
 H498 H -0.28242 0.64845 0.96400
 C499 C -0.27017 0.67358 0.94299
 H500 H -0.28385 0.67151 0.93210
 N501 N -0.25226 0.66282 0.97501
 C502 C -0.25694 0.65442 1.04348
 H503 H -0.25880 0.63646 1.04420
 C504 C -0.25624 0.66698 1.06208
 H505 H -0.25781 0.65862 1.07714
 C506 C -0.25217 0.68715 1.02301
 H507 H -0.25057 0.69499 1.00780
 C508 C -0.25138 0.70037 1.04127
 H509 H -0.24919 0.71829 1.03996
 Zn510 Zn -0.25239 0.64546 1.00028
 N511 N -0.25438 0.66453 1.02444
 C512 C -0.21146 0.63195 1.01869
 N513 N -0.22516 0.62863 1.00191
 C514 C -0.21958 0.61374 0.98643
 C515 C -0.20007 0.60095 0.98794
 C516 C -0.19187 0.61956 1.02080
 C517 C -0.29843 0.63610 1.00161
 C518 C -0.31794 0.62335 0.99986
 C519 C -0.29527 0.59024 0.99626
 C520 C -0.27616 0.60362 0.99807
 N521 N -0.27802 0.62621 1.00024
 H522 H -0.21559 0.64426 1.03057
 H523 H -0.23040 0.61163 0.97300
 H524 H -0.19594 0.58897 0.97567
 H525 H -0.18129 0.62228 1.03433
 H526 H -0.29953 0.65404 1.00349
 H527 H -0.33405 0.63149 1.00058
 H528 H -0.29359 0.57235 0.99420
 H529 H -0.25990 0.59592 0.99738
 C530 C -0.25308 0.69014 1.06102
 C531 C -0.25318 0.68905 0.93898
 C532 C -0.31638 0.60022 0.99688
 C533 C -0.18615 0.60375 1.00541
 C534 C -0.23544 0.32265 0.53069
 H535 H -0.22149 0.32160 0.51979
 C536 C -0.23613 0.30947 0.54775
 H537 H -0.22268 0.29785 0.55063
 C538 C -0.26996 0.34012 0.53986
 H539 H -0.28302 0.35205 0.53702
 C540 C -0.27135 0.32606 0.55889
 H541 H -0.28535 0.32812 0.56966
 N542 N -0.25328 0.33809 0.52664
 C543 C -0.25607 0.34662 0.45819
 H544 H -0.25777 0.36459 0.45741
 C545 C -0.25494 0.33400 0.43963
 H546 H -0.25601 0.34226 0.42452
 C547 C -0.25216 0.31393 0.47877
 H548 H -0.25106 0.30612 0.49402
 C549 C -0.25095 0.30066 0.46055
 H550 H -0.24895 0.28274 0.46187
 Zn551 Zn -0.25268 0.35558 0.50145
 N552 N -0.25413 0.33655 0.47728
 C553 C -0.21124 0.36920 0.48336
 N554 N -0.22533 0.37237 0.50009
 C555 C -0.22011 0.38716 0.51569
 C556 C -0.20059 0.40006 0.51433
 C557 C -0.19161 0.38171 0.48141
 C558 C -0.29864 0.36523 0.49985
 C559 C -0.31802 0.37815 0.50140
 C560 C -0.29501 0.41109 0.50498
 C561 C -0.27604 0.39753 0.50338
 N562 N -0.27813 0.37495 0.50132
 H563 H -0.21509 0.35697 0.47139
 H564 H -0.23126 0.38915 0.52907
 H565 H -0.19676 0.41199 0.52669
 H566 H -0.18072 0.37914 0.46790
 H567 H -0.29992 0.34729 0.49804
 H568 H -0.33420 0.37009 0.50059
 H569 H -0.29309 0.42899 0.50694
 H570 H -0.25971 0.40510 0.50411
 C571 C -0.25201 0.31085 0.44079
 C572 C -0.25523 0.31115 0.56263
 C573 C -0.31625 0.40130 0.50427
 C574 C -0.18628 0.39746 0.49691
 C575 C 0.26411 -0.17649 0.03017
 H576 H 0.27807 -0.17759 0.01929
 C577 C 0.26336 -0.18963 0.04725
 H578 H 0.27677 -0.20127 0.05017
 C579 C 0.22961 -0.15892 0.03926
 H580 H 0.21659 -0.14695 0.03639
 C581 C 0.22816 -0.17293 0.05831
 H582 H 0.21416 -0.17081 0.06906
 N583 N 0.24630 -0.16101 0.02607
 C584 C 0.24359 -0.15250 -0.04239
 H585 H 0.24189 -0.13453 -0.04317
 C586 C 0.24472 -0.16510 -0.06096
 H587 H 0.24365 -0.15683 -0.07606
 C588 C 0.24753 -0.18519 -0.02183
 H589 H 0.24863 -0.19301 -0.00659
 C590 C 0.24874 -0.19845 -0.04006
 H591 H 0.25075 -0.21637 -0.03875
 Zn592 Zn 0.24696 -0.14355 0.00086
 N593 N 0.24554 -0.16257 -0.02331
 C594 C 0.28841 -0.12991 -0.01719
 N595 N 0.27431 -0.12675 -0.00047
 C596 C 0.27951 -0.11197 0.01515
 C597 C 0.29904 -0.09906 0.01381
 C598 C 0.30804 -0.11739 -0.01912
 C599 C 0.20102 -0.13393 -0.00082
 C600 C 0.18161 -0.12104 0.00077
 C601 C 0.20458 -0.08808 0.00449
 C602 C 0.22357 -0.10161 0.00285
 N603 N 0.22151 -0.12419 0.00070
 H604 H 0.28457 -0.14213 -0.02917
 H605 H 0.26835 -0.10999 0.02852
 H606 H 0.30286 -0.08714 0.02617
 H607 H 0.31894 -0.11996 -0.03262
 H608 H 0.19976 -0.15187 -0.00269
 H609 H 0.16545 -0.12912 -0.00007
 H610 H 0.20648 -0.07019 0.00653
 H611 H 0.23989 -0.09402 0.00363
 C612 C 0.24767 -0.18825 -0.05982
 C613 C 0.24424 -0.18787 0.06210
 C614 C 0.18336 -0.09790 0.00374
 C615 C 0.31336 -0.10166 -0.00361
 C616 C 0.26463 1.17683 0.47024
 H617 H 0.27829 1.17814 0.48122
 C618 C 0.26439 1.19030 0.45223
 H619 H 0.27798 1.20185 0.44926
 C620 C 0.23044 1.16000 0.46038
 H621 H 0.21735 1.14800 0.46330
 C622 C 0.22956 1.17311 0.44225
 H623 H 0.21581 1.17110 0.43143
 N624 N 0.24760 1.16229 0.47418
 C625 C 0.24321 1.15428 0.54270
 H626 H 0.24138 1.13631 0.54357
 C627 C 0.24404 1.16699 0.56121
 H628 H 0.24261 1.15881 0.57635
 C629 C 0.24779 1.18684 0.52198
 H630 H 0.24927 1.19457 0.50670
 C631 C 0.24871 1.20020 0.54014
 H632 H 0.25088 1.21810 0.53874
 Zn633 Zn 0.24752 1.14502 0.49951
 N634 N 0.24563 1.16423 0.52357
 C635 C 0.28850 1.13158 0.51785
 N636 N 0.27473 1.12817 0.50113
 C637 C 0.28024 1.11320 0.48570
 C638 C 0.29974 1.10039 0.48721
 C639 C 0.30809 1.11916 0.51995
 C640 C 0.20146 1.13570 0.50097
 C641 C 0.18195 1.12295 0.49929
 C642 C 0.20460 1.08982 0.49579
 C643 C 0.22372 1.10320 0.49752
 N644 N 0.22188 1.12580 0.49960
 H645 H 0.28444 1.14395 0.52967
 H646 H 0.26937 1.11104 0.47232
 H647 H 0.30381 1.08834 0.47499
 H648 H 0.31872 1.12194 0.53344
 H649 H 0.20038 1.15365 0.50278
 H650 H 0.16584 1.13111 0.49999
 H651 H 0.20627 1.07192 0.49380
 H652 H 0.23997 1.09548 0.49685
 C653 C 0.24718 1.19013 0.55995
 C654 C 0.24657 1.18855 0.43818
 C655 C 0.18349 1.09981 0.49639
 C656 C 0.31372 1.10326 0.50462
 C657 C 0.13345 0.46927 0.26730
 H658 H 0.13333 0.48194 0.27952
 C659 C 0.14627 0.44994 0.26976
 H660 H 0.15617 0.44784 0.28381
 C661 C 0.12039 0.45632 0.23426
 H662 H 0.11001 0.45866 0.22062
 C663 C 0.13298 0.43673 0.23611
 H664 H 0.13244 0.42421 0.22373
 N665 N 0.12092 0.47220 0.24971
 C666 C 0.11021 0.54479 0.24611
 H667 H 0.09217 0.54525 0.24600
 C668 C 0.12243 0.56463 0.24400
 H669 H 0.11376 0.58040 0.24253
 C670 C 0.14355 0.52366 0.24765
 H671 H 0.15175 0.50765 0.24862
 C672 C 0.15640 0.54313 0.24557
 H673 H 0.17443 0.54202 0.24530
 Zn674 Zn 0.10279 0.49845 0.24855
 N675 N 0.12085 0.52481 0.24797
 C676 C 0.08476 0.51439 0.28771
 N677 N 0.08397 0.49788 0.27289
 C678 C 0.07092 0.47946 0.27575
 C679 C 0.05818 0.47700 0.29419
 C680 C 0.07225 0.51259 0.30635
 C681 C 0.09671 0.50059 0.20495
 C682 C 0.08525 0.50361 0.18610
 C683 C 0.05053 0.50359 0.20577
 C684 C 0.06270 0.50054 0.22431
 N685 N 0.08539 0.49915 0.22358
 H686 H 0.09555 0.52866 0.28539
 H687 H 0.07086 0.46641 0.26390
 H688 H 0.04829 0.46203 0.29651
 H689 H 0.07341 0.52556 0.31827
 H690 H 0.11474 0.49992 0.20484
 H691 H 0.09459 0.50498 0.17145
 H692 H 0.03252 0.50497 0.20661
 H693 H 0.05402 0.49993 0.23929
 C694 C 0.14576 0.56383 0.24364
 C695 C 0.14603 0.43345 0.25405
 C696 C 0.06193 0.50533 0.18646
 C697 C 0.05897 0.49363 0.30973
 C698 C -0.13324 1.02768 0.26973
 H699 H -0.13336 1.01483 0.28167
 C700 C -0.14578 1.04716 0.27278
 H701 H -0.15574 1.04920 0.28699
 C702 C -0.11975 1.04098 0.23688
 H703 H -0.10925 1.03875 0.22310
 C704 C -0.13204 1.06071 0.23931
 H705 H -0.13119 1.07342 0.22723
 N706 N -0.12063 1.02487 0.25196
 C707 C -0.10974 0.95238 0.24697
 H708 H -0.09169 0.95195 0.24668
 C709 C -0.12191 0.93254 0.24464
 H710 H -0.11320 0.91680 0.24283
 C711 C -0.14312 0.97344 0.24919
 H712 H -0.15135 0.98943 0.25051
 C713 C -0.15592 0.95398 0.24690
 H714 H -0.17396 0.95507 0.24683
 Zn715 Zn -0.10250 0.99874 0.25005
 N716 N -0.12042 0.97232 0.24926
 C717 C -0.08445 0.98285 0.28877
 N718 N -0.08375 0.99932 0.27406
 C719 C -0.07105 1.01797 0.27694
 C720 C -0.05863 1.02076 0.29532
 C721 C -0.07226 0.98498 0.30739
 C722 C -0.09658 0.99728 0.20643
 C723 C -0.08519 0.99538 0.18722
 C724 C -0.05033 0.99605 0.20607
 C725 C -0.06243 0.99796 0.22500
 N726 N -0.08515 0.99859 0.22482
 H727 H -0.09501 0.96841 0.28643
 H728 H -0.07110 1.03099 0.26517
 H729 H -0.04908 1.03593 0.29770
 H730 H -0.07340 0.97209 0.31928
 H731 H -0.11463 0.99740 0.20676
 H732 H -0.09456 0.99424 0.17272
 H733 H -0.03227 0.99541 0.20637
 H734 H -0.05365 0.99848 0.23979
 C735 C -0.14524 0.93332 0.24451
 C736 C -0.14513 1.06389 0.25746
 C737 C -0.06185 0.99464 0.18699
 C738 C -0.05942 1.00422 0.31081
 C739 C 0.36583 0.52843 -0.22988
 H740 H 0.36561 0.51568 -0.21786
 C741 C 0.35334 0.54798 -0.22702
 H742 H 0.34332 0.55016 -0.21288
 C743 C 0.37954 0.54144 -0.26277
 H744 H 0.39011 0.53908 -0.27647
 C745 C 0.36731 0.56123 -0.26052
 H746 H 0.36827 0.57385 -0.27268
 N747 N 0.37853 0.52546 -0.24758
 C748 C 0.39007 0.45176 -0.25218
 H749 H 0.40812 0.45138 -0.25210
 C750 C 0.37848 0.43275 -0.25466
 H751 H 0.38721 0.41701 -0.25643
 C752 C 0.35698 0.47386 -0.25024
 H753 H 0.34869 0.48983 -0.24926
 C754 C 0.34351 0.45325 -0.25272
 H755 H 0.32547 0.45444 -0.25281
 Zn756 Zn 0.39662 0.49927 -0.24922
 N757 N 0.37871 0.47284 -0.24991
 C758 C 0.41461 0.48359 -0.21040
 N759 N 0.41526 0.50001 -0.22516
 C760 C 0.42793 0.51869 -0.22234
 C761 C 0.44039 0.52155 -0.20399
 C762 C 0.42684 0.48578 -0.19181
 C763 C 0.40286 0.49749 -0.29281
 C764 C 0.41442 0.49546 -0.31192
 C765 C 0.44910 0.49621 -0.29281
 C766 C 0.43685 0.49826 -0.27398
 N767 N 0.41413 0.49891 -0.27434
 H768 H 0.40409 0.46911 -0.21270
 H769 H 0.42785 0.53167 -0.23415
 H770 H 0.44994 0.53674 -0.20167
 H771 H 0.42577 0.47291 -0.17990
 H772 H 0.38481 0.49763 -0.29263
 H773 H 0.40524 0.49423 -0.32651
 H774 H 0.46715 0.49555 -0.29241
 H775 H 0.44551 0.49887 -0.25913
 C776 C 0.35382 0.43348 -0.25502
 C777 C 0.35413 0.56460 -0.24245
 C778 C 0.43775 0.49470 -0.31195
 C779 C 0.43968 0.50505 -0.18847
 C780 C 0.63598 -0.03133 -0.23119
 H781 H 0.63610 -0.01855 -0.21906
 C782 C 0.64808 -0.04996 -0.22882
 H783 H 0.65803 -0.05214 -0.21481
 C784 C 0.62191 -0.04343 -0.26444
 H785 H 0.61133 -0.04116 -0.27796
 C786 C 0.63513 -0.06421 -0.26255
 H787 H 0.63441 -0.07662 -0.27504
 N788 N 0.62262 -0.02818 -0.24971
 C789 C 0.61204 0.04442 -0.25316
 H790 H 0.59400 0.04493 -0.25322
 C791 C 0.62429 0.06423 -0.25532
 H792 H 0.61560 0.08000 -0.25677
 C793 C 0.64533 0.02321 -0.25172
 H794 H 0.65348 0.00717 -0.25076
 C795 C 0.65823 0.04264 -0.25385
 H796 H 0.67627 0.04142 -0.25417
 Zn797 Zn 0.60453 -0.00190 -0.25071
 N798 N 0.62264 0.02442 -0.25133
 C799 C 0.58651 0.01406 -0.21154
 N800 N 0.58582 -0.00249 -0.22632
 C801 C 0.57279 -0.02093 -0.22347
 C802 C 0.55991 -0.02333 -0.20512
 C803 C 0.57386 0.01231 -0.19297
 C804 C 0.59805 0.00040 -0.29429
 C805 C 0.58637 0.00347 -0.31301
 C806 C 0.55190 0.00343 -0.29300
 C807 C 0.56426 0.00033 -0.27460
 N808 N 0.58694 -0.00109 -0.27555
 H809 H 0.59728 0.02835 -0.21385
 H810 H 0.57279 -0.03400 -0.23530
 H811 H 0.55000 -0.03829 -0.20282
 H812 H 0.57491 0.02533 -0.18109
 H813 H 0.61609 -0.00029 -0.29459
 H814 H 0.59544 0.00489 -0.32778
 H815 H 0.53391 0.00485 -0.29208
 H816 H 0.55573 -0.00029 -0.25954
 C817 C 0.64764 0.06338 -0.25577
 C818 C 0.64766 -0.06744 -0.24539
 C819 C 0.56309 0.00520 -0.31238
 C820 C 0.56056 -0.00663 -0.18964
 C821 C 0.03246 0.26336 0.85395
 H822 H 0.02440 0.27952 0.85419
 C823 C 0.05206 0.26028 0.84253
 H824 H 0.05930 0.27410 0.83385
 C825 C 0.03307 0.22558 0.86534
 H826 H 0.02574 0.21229 0.87454
 C827 C 0.05280 0.22178 0.85410
 H828 H 0.06067 0.20551 0.85448
 N829 N 0.02330 0.24607 0.86482
 C830 C -0.04587 0.26369 0.86988
 H831 H -0.04791 0.26347 0.88684
 C832 C -0.06412 0.26754 0.85707
 H833 H -0.08045 0.27022 0.86409
 C834 C -0.02225 0.25927 0.83987
 H835 H -0.00605 0.25540 0.83328
 C836 C -0.04011 0.26298 0.82646
 H837 H -0.03770 0.26203 0.80954
 Zn838 Zn -0.00271 0.25274 0.87972
 N839 N -0.02550 0.25972 0.86112
 C840 C -0.00729 0.29670 0.89400
 N841 N 0.00372 0.27717 0.89700
 C842 C 0.02063 0.27545 0.91108
 C843 C 0.02673 0.29390 0.92327
 C844 C -0.00173 0.31545 0.90578
 C845 C -0.01888 0.21002 0.88399
 C846 C -0.02535 0.19058 0.89429
 C847 C -0.01970 0.20947 0.92766
 C848 C -0.01335 0.22860 0.91671
 N849 N -0.01243 0.22823 0.89529
 H850 H -0.02007 0.29794 0.88221
 H851 H 0.02944 0.25980 0.91266
 H852 H 0.04011 0.29256 0.93456
 H853 H -0.01059 0.33099 0.90336
 H854 H -0.01830 0.21046 0.86695
 H855 H -0.02947 0.17576 0.88524
 H856 H -0.01945 0.20940 0.94474
 H857 H -0.00872 0.24350 0.92531
 C858 C -0.06117 0.26698 0.83523
 C859 C 0.06222 0.23933 0.84261
 C860 C -0.02536 0.19026 0.91628
 C861 C 0.01538 0.31400 0.92048
 C862 C 0.47152 0.26234 0.14831
 H863 H 0.47948 0.27856 0.14754
 C864 C 0.45264 0.25929 0.16080
 H865 H 0.44586 0.27321 0.16975
 C866 C 0.47021 0.22444 0.13699
 H867 H 0.47689 0.21110 0.12733
 C868 C 0.45120 0.22068 0.14929
 H869 H 0.44323 0.20442 0.14921
 N870 N 0.47994 0.24500 0.13688
 C871 C 0.54861 0.26295 0.12655
 H872 H 0.54933 0.26239 0.10951
 C873 C 0.56786 0.26694 0.13803
 H874 H 0.58365 0.26939 0.12991
 C875 C 0.52734 0.25915 0.15812
 H876 H 0.51168 0.25541 0.16586
 C877 C 0.54621 0.26304 0.17021
 H878 H 0.54509 0.26240 0.18725
 Zn879 Zn 0.50462 0.25165 0.12001
 N880 N 0.52893 0.25916 0.13672
 C881 C 0.50782 0.29527 0.10483
 N882 N 0.49655 0.27564 0.10308
 C883 C 0.47834 0.27351 0.09055
 C884 C 0.47108 0.29162 0.07869
 C885 C 0.50114 0.31370 0.09332
 C886 C 0.52056 0.20895 0.11478
 C887 C 0.52613 0.18935 0.10413
 C888 C 0.51739 0.20757 0.07124
 C889 C 0.51200 0.22687 0.08252
 N890 N 0.51306 0.22691 0.10392
 H891 H 0.52173 0.29683 0.11541
 H892 H 0.46943 0.25778 0.08994
 H893 H 0.45666 0.28994 0.06863
 H894 H 0.51020 0.32931 0.09474
 H895 H 0.52154 0.20971 0.13179
 H896 H 0.53113 0.17473 0.11291
 H897 H 0.51560 0.20719 0.05426
 H898 H 0.50655 0.24157 0.07424
 C899 C 0.56659 0.26676 0.16000
 C900 C 0.44244 0.23832 0.16121
 C901 C 0.52412 0.18861 0.08224
 C902 C 0.48265 0.31182 0.08020
 C903 C -0.02916 0.76332 0.64955
 H904 H -0.02112 0.77950 0.64873
 C905 C -0.04702 0.76039 0.66184
 H906 H -0.05357 0.77424 0.67104
 C907 C -0.02983 0.72532 0.63754
 H908 H -0.02341 0.71200 0.62770
 C909 C -0.04969 0.72134 0.65082
 H910 H -0.05768 0.70507 0.65064
 N911 N -0.02052 0.74500 0.63729
 C912 C 0.04789 0.76322 0.62598
 H913 H 0.04837 0.76275 0.60893
 C914 C 0.06728 0.76727 0.63724
 H915 H 0.08294 0.76986 0.62893
 C916 C 0.02708 0.75918 0.65779
 H917 H 0.01154 0.75533 0.66571
 C918 C 0.04609 0.76314 0.66966
 H919 H 0.04521 0.76244 0.68671
 Zn920 Zn 0.00380 0.75181 0.62002
 N921 N 0.02837 0.75929 0.63638
 C922 C 0.00658 0.79557 0.60520
 N923 N -0.00465 0.77593 0.60341
 C924 C -0.02301 0.77386 0.59107
 C925 C -0.03044 0.79204 0.57940
 C926 C -0.00027 0.81407 0.59389
 C927 C 0.01988 0.70924 0.61425
 C928 C 0.02536 0.68975 0.60341
 C929 C 0.01582 0.70808 0.57078
 C930 C 0.01054 0.72729 0.58225
 N931 N 0.01204 0.72721 0.60363
 H932 H 0.02061 0.79708 0.61564
 H933 H -0.03190 0.75812 0.59044
 H934 H -0.04494 0.79040 0.56944
 H935 H 0.00881 0.82968 0.59530
 H936 H 0.02121 0.70992 0.63124
 H937 H 0.03066 0.67512 0.61202
 H938 H 0.01370 0.70778 0.55384
 H939 H 0.00482 0.74199 0.57414
 C940 C 0.06631 0.76702 0.65922
 C941 C -0.05787 0.73826 0.66238
 C942 C 0.02292 0.68911 0.58157
 C943 C -0.01887 0.81225 0.58092
 C944 C 0.53181 0.76264 0.35436
 H945 H 0.52369 0.77877 0.35460
 C946 C 0.55153 0.75969 0.34309
 H947 H 0.55880 0.77358 0.33453
 C948 C 0.53244 0.72481 0.36556
 H949 H 0.52506 0.71144 0.37464
 C950 C 0.55229 0.72114 0.35448
 H951 H 0.56020 0.70489 0.35484
 N952 N 0.52261 0.74527 0.36506
 C953 C 0.45333 0.76262 0.36963
 H954 H 0.45112 0.76228 0.38657
 C955 C 0.43520 0.76655 0.35669
 H956 H 0.41880 0.76918 0.36358
 C957 C 0.47724 0.75848 0.33979
 H958 H 0.49351 0.75470 0.33331
 C959 C 0.45950 0.76227 0.32625
 H960 H 0.46209 0.76149 0.30934
 Zn961 Zn 0.49643 0.75178 0.37977
 N962 N 0.47379 0.75876 0.36102
 C963 C 0.49156 0.79563 0.39430
 N964 N 0.50264 0.77613 0.39721
 C965 C 0.51952 0.77440 0.41132
 C966 C 0.52555 0.79281 0.42358
 C967 C 0.49704 0.81435 0.40617
 C968 C 0.48040 0.70895 0.38379
 C969 C 0.47397 0.68944 0.39400
 C970 C 0.47927 0.70827 0.42746
 C971 C 0.48558 0.72748 0.41659
 N972 N 0.48666 0.72717 0.39518
 H973 H 0.47879 0.79689 0.38250
 H974 H 0.52838 0.75877 0.41284
 H975 H 0.53894 0.79147 0.43487
 H976 H 0.48815 0.82988 0.40378
 H977 H 0.48110 0.70944 0.36675
 H978 H 0.47002 0.67462 0.38489
 H979 H 0.47941 0.70816 0.44453
 H980 H 0.49007 0.74237 0.42526
 C981 C 0.43836 0.76619 0.33487
 C982 C 0.56176 0.73878 0.34315
 C983 C 0.47382 0.68906 0.41600
 C984 C 0.51415 0.81289 0.42085
 Zr985 Zr 0.01862 -0.01332 1.02661
 O986 O 0.04033 0.00074 1.04925
 O987 O 0.01758 -0.04676 1.03569
 O988 O 0.00429 -0.01431 1.05734
 O989 O 0.05932 -0.01904 0.98795
 O990 O -0.03074 -0.00057 1.05248
 O991 O 0.05162 -0.02554 1.02266
 O992 O -0.00666 -0.06277 1.01257
 O993 O -0.01490 -0.02178 1.02163
 O994 O 0.01723 -0.02970 0.99745
 O995 O 0.00112 0.01709 1.02739
 O996 O 0.03259 0.00919 1.00458
 Zr997 Zr -0.02133 0.01501 0.96945
 Zr998 Zr -0.03200 0.00861 1.02070
 Zr999 Zr 0.02932 -0.00704 0.97541
 Zr1000 Zr -0.01612 -0.03696 0.99203
 O1001 O 0.05573 0.01391 0.96522
 O1002 O -0.04587 -0.05012 1.00543
 O1003 O -0.00383 -0.01557 0.96850
 O1004 O -0.03488 -0.00751 0.99152
 O1005 O -0.02010 0.03152 0.99858
 O1006 O 0.01217 0.02322 0.97456
 C1007 C 0.00672 -0.06354 1.02832
 C1008 C 0.06470 -0.02612 1.00635
 C1009 C -0.01539 -0.00888 1.06407
 O1010 O -0.06072 -0.01059 1.02796
 O1011 O -0.06038 0.02467 1.00900
 O1012 O -0.05349 0.02921 0.97389
 C1013 C -0.06583 0.03151 0.99057
 O1014 O 0.03793 0.04535 1.02722
 Zr1015 Zr 0.01341 0.03853 1.00404
 O1016 O -0.02064 0.04862 0.96063
 O1017 O -0.03873 0.03703 1.03968
 O1018 O 0.00023 0.06303 1.02494
 O1019 O 0.04129 0.05409 0.98940
 O1020 O 0.00066 0.06493 0.98602
 C1021 C -0.01209 0.06576 0.96982
 O1022 O -0.04442 0.00152 0.94774
 O1023 O 0.03881 -0.03659 0.95918
 O1024 O -0.00803 0.01331 0.93830
 O1025 O 0.02560 -0.00374 0.94283
 O1026 O -0.00207 -0.06285 0.97327
 O1027 O -0.03747 -0.04501 0.96651
 C1028 C 0.01020 0.00443 0.93121
 H1029 H 0.02620 -0.04355 0.99685
 H1030 H -0.05063 -0.01101 0.98826
 H1031 H 0.01831 0.03308 0.96343
 H1032 H 0.00242 0.02440 1.04136
 H1033 H -0.04554 -0.06654 1.00336
 H1034 H -0.06961 -0.00184 1.03832
 H1035 H -0.05319 0.03425 1.04690
 H1036 H 0.00760 0.07744 1.02159
 H1037 H -0.00985 -0.07693 0.97701
 H1038 H 0.05306 -0.03337 0.95174
 H1039 H 0.06482 0.00501 0.95515
 H1040 H 0.04017 0.07033 0.99231
 H1041 H -0.04304 -0.06050 0.96814
 H1042 H -0.04891 0.01387 0.93831
 H1043 H 0.04507 -0.01159 1.05859
 H1044 H 0.04122 0.06157 1.02749
 Zr1045 Zr 0.51908 0.48606 0.52679
 O1046 O 0.54075 0.50033 0.54934
 O1047 O 0.51821 0.45266 0.53600
 O1048 O 0.50477 0.48515 0.55752
 O1049 O 0.55975 0.48020 0.48812
 O1050 O 0.46968 0.49874 0.55263
 O1051 O 0.55211 0.47390 0.52287
 O1052 O 0.49403 0.43644 0.51296
 O1053 O 0.48558 0.47748 0.52188
 O1054 O 0.51771 0.46953 0.49771
 O1055 O 0.50148 0.51642 0.52744
 O1056 O 0.53297 0.50849 0.50464
 Zr1057 Zr 0.47900 0.51395 0.46954
 Zr1058 Zr 0.46839 0.50781 0.52082
 Zr1059 Zr 0.52971 0.49210 0.47554
 Zr1060 Zr 0.48437 0.46213 0.49236
 O1061 O 0.55606 0.51307 0.46526
 O1062 O 0.45472 0.44895 0.50593
 O1063 O 0.49659 0.48343 0.46872
 O1064 O 0.46552 0.49152 0.49172
 O1065 O 0.48020 0.53062 0.49858
 O1066 O 0.51247 0.52229 0.47457
 C1067 C 0.50746 0.43579 0.52868
 C1068 C 0.56516 0.47323 0.50655
 C1069 C 0.48507 0.49053 0.56423
 O1070 O 0.43969 0.48860 0.52816
 O1071 O 0.43998 0.52381 0.50908
 O1072 O 0.44684 0.52815 0.47394
 C1073 C 0.43451 0.53056 0.49061
 O1074 O 0.53823 0.54478 0.52710
 Zr1075 Zr 0.51370 0.53777 0.50398
 O1076 O 0.47958 0.54751 0.46054
 O1077 O 0.46162 0.53628 0.53972
 O1078 O 0.50048 0.56234 0.52478
 O1079 O 0.54151 0.55335 0.48923
 O1080 O 0.50082 0.56403 0.48585
 C1081 C 0.48806 0.56472 0.46966
 O1082 O 0.45591 0.50026 0.44794
 O1083 O 0.53927 0.46250 0.45943
 O1084 O 0.49225 0.51214 0.43839
 O1085 O 0.52594 0.49523 0.44295
 O1086 O 0.49843 0.43619 0.47366
 O1087 O 0.46297 0.45388 0.46694
 C1088 C 0.51050 0.50329 0.43132
 H1089 H 0.52672 0.45570 0.49715
 H1090 H 0.44977 0.48796 0.48849
 H1091 H 0.51857 0.53211 0.46340
 H1092 H 0.50278 0.52380 0.54138
 H1093 H 0.45510 0.43252 0.50395
 H1094 H 0.43079 0.49738 0.53849
 H1095 H 0.44716 0.53350 0.54695
 H1096 H 0.50780 0.57675 0.52135
 H1097 H 0.49069 0.42211 0.47748
 H1098 H 0.55350 0.46573 0.45196
 H1099 H 0.56517 0.50415 0.45521
 H1100 H 0.54033 0.56960 0.49207
 H1101 H 0.45741 0.43840 0.46869
 H1102 H 0.45136 0.51253 0.43845
 H1103 H 0.54555 0.48807 0.55874
 H1104 H 0.54148 0.56101 0.52729
 Zr1105 Zr 0.48004 1.01952 0.52889
 O1106 O 0.45791 1.00721 0.55230
 O1107 O 0.48184 1.05336 0.53685
 O1108 O 0.49426 1.02123 0.55946
 O1109 O 0.43948 1.02376 0.49059
 O1110 O 0.52928 1.00718 0.55438
 O1111 O 0.44718 1.03204 0.52489
 O1112 O 0.50632 1.06772 0.51276
 O1113 O 0.51372 1.02712 0.52309
 O1114 O 0.48174 1.03437 0.49914
 O1115 O 0.49706 0.98887 0.53043
 O1116 O 0.46574 0.99616 0.50787
 Zr1117 Zr 0.51955 0.98758 0.47213
 Zr1118 Zr 0.53032 0.99642 0.52294
 Zr1119 Zr 0.46934 1.01081 0.47807
 Zr1120 Zr 0.51523 1.04075 0.49294
 O1121 O 0.44261 0.98983 0.46895
 O1122 O 0.54524 1.05402 0.50531
 O1123 O 0.50261 1.01840 0.47037
 O1124 O 0.53349 1.01096 0.49315
 O1125 O 0.51801 0.97265 0.50187
 O1126 O 0.48593 0.98022 0.47805
 C1127 C 0.49306 1.06954 0.52875
 C1128 C 0.43413 1.03185 0.50876
 C1129 C 0.51389 1.01587 0.56601
 O1130 O 0.55939 1.01546 0.52896
 O1131 O 0.55836 0.97908 0.51143
 O1132 O 0.55141 0.97294 0.47661
 C1133 C 0.56366 0.97113 0.49319
 O1134 O 0.45958 0.96145 0.53175
 Zr1135 Zr 0.48439 0.96649 0.50810
 O1136 O 0.51838 0.95350 0.46472
 O1137 O 0.53655 0.96890 0.54286
 O1138 O 0.49687 0.94288 0.52985
 O1139 O 0.45642 0.95059 0.49427
 O1140 O 0.49700 0.93892 0.49118
 C1141 C 0.50974 0.93701 0.47485
 O1142 O 0.54288 0.99948 0.44958
 O1143 O 0.46038 1.03974 0.46103
 O1144 O 0.50622 0.98789 0.44113
 O1145 O 0.47296 1.00585 0.44557
 O1146 O 0.50155 1.06593 0.47355
 O1147 O 0.53666 1.04717 0.46679
 C1148 C 0.48815 0.99676 0.43400
 H1149 H 0.47301 1.04834 0.49821
 H1150 H 0.54930 1.01400 0.48952
 H1151 H 0.47965 0.96989 0.46738
 H1152 H 0.49561 0.98225 0.54465
 H1153 H 0.54520 1.07033 0.50269
 H1154 H 0.56815 1.00710 0.53948
 H1155 H 0.55107 0.97177 0.54973
 H1156 H 0.48916 0.92849 0.52718
 H1157 H 0.50955 1.08005 0.47668
 H1158 H 0.44608 1.03642 0.45391
 H1159 H 0.43367 0.99838 0.45871
 H1160 H 0.45728 0.93450 0.49778
 H1161 H 0.54243 1.06266 0.46776
 H1162 H 0.54713 0.98657 0.44054
 H1163 H 0.45345 1.02012 0.56124
 H1164 H 0.45582 0.94535 0.53257
 Zr1165 Zr -0.01973 0.51998 1.02931
 O1166 O -0.04185 0.50749 1.05264
 O1167 O -0.01790 0.55375 1.03754
 O1168 O -0.00549 0.52143 1.05989
 O1169 O -0.06032 0.52450 0.99106
 O1170 O 0.02952 0.50743 1.05469
 O1171 O -0.05260 0.53253 1.02542
 O1172 O 0.00656 0.56831 1.01353
 O1173 O 0.01393 0.52765 1.02353
 O1174 O -0.01807 0.53507 0.99966
 O1175 O -0.00269 0.48933 1.03062
 O1176 O -0.03403 0.49678 1.00813
 Zr1177 Zr 0.01975 0.48852 0.97228
 Zr1178 Zr 0.03056 0.49697 1.02316
 Zr1179 Zr -0.03048 0.51166 0.97843
 Zr1180 Zr 0.01540 0.54152 0.99348
 O1181 O -0.05722 0.49075 0.96923
 O1182 O 0.04545 0.55470 1.00586
 O1183 O 0.00278 0.51934 0.97075
 O1184 O 0.03369 0.51175 0.99347
 O1185 O 0.01825 0.47336 1.00192
 O1186 O -0.01386 0.48108 0.97819
 C1187 C -0.00667 0.56999 1.02956
 C1188 C -0.06567 0.53245 1.00929
 C1189 C 0.01415 0.51600 1.06640
 O1190 O 0.05960 0.51600 1.02931
 O1191 O 0.05861 0.47976 1.01149
 O1192 O 0.05163 0.47389 0.97664
 C1193 C 0.06389 0.47196 0.99319
 O1194 O -0.04017 0.46188 1.03175
 Zr1195 Zr -0.01535 0.46712 1.00815
 O1196 O 0.01865 0.45449 0.96467
 O1197 O 0.03685 0.46928 1.04285
 O1198 O -0.00287 0.44336 1.02974
 O1199 O -0.04330 0.45128 0.99419
 O1200 O -0.00266 0.43970 0.99106
 C1201 C 0.01008 0.43792 0.97472
 O1202 O 0.04302 0.50065 0.94979
 O1203 O -0.03943 0.54071 0.96158
 O1204 O 0.00636 0.48901 0.94130
 O1205 O -0.02694 0.50686 0.94590
 O1206 O 0.00166 0.56687 0.97432
 O1207 O 0.03676 0.54816 0.96733
 C1208 C -0.01177 0.49785 0.93425
 H1209 H -0.02681 0.54905 0.99885
 H1210 H 0.04949 0.51483 0.98984
 H1211 H -0.02013 0.47082 0.96746
 H1212 H -0.00412 0.48260 1.04479
 H1213 H 0.04540 0.57103 1.00335
 H1214 H 0.06839 0.50756 1.03975
 H1215 H 0.05137 0.47210 1.04973
 H1216 H -0.01057 0.42898 1.02698
 H1217 H 0.00968 0.58097 0.97754
 H1218 H -0.05374 0.53746 0.95446
 H1219 H -0.06618 0.49937 0.95906
 H1220 H -0.04240 0.43516 0.99759
 H1221 H 0.04252 0.56364 0.96837
 H1222 H 0.04728 0.48781 0.94066
 H1223 H -0.04630 0.52033 1.06168
 H1224 H -0.04393 0.44578 1.03245
 Zr1225 Zr -0.02020 0.48289 0.47203
 O1226 O -0.04250 0.49599 0.44957
 O1227 O -0.01850 0.44934 0.46296
 O1228 O -0.00619 0.48196 0.44111
 O1229 O -0.06025 0.47685 0.51125
 O1230 O 0.02863 0.49659 0.44561
 O1231 O -0.05298 0.47003 0.47647
 O1232 O 0.00641 0.43438 0.48586
 O1233 O 0.01357 0.47541 0.47667
 O1234 O -0.01808 0.46697 0.50122
 O1235 O -0.00337 0.51374 0.47100
 O1236 O -0.03432 0.50534 0.49419
 Zr1237 Zr 0.01988 0.51310 0.52869
 Zr1238 Zr 0.03001 0.50625 0.47733
 Zr1239 Zr -0.03031 0.48964 0.52338
 Zr1240 Zr 0.01550 0.46068 0.50629
 O1241 O -0.05705 0.50999 0.53389
 O1242 O 0.04538 0.44811 0.49265
 O1243 O 0.00309 0.48208 0.52992
 O1244 O 0.03362 0.49062 0.50652
 O1245 O 0.01792 0.52916 0.49953
 O1246 O -0.01384 0.52034 0.52393
 C1247 C -0.00709 0.43300 0.47023
 C1248 C -0.06582 0.46947 0.49295
 C1249 C 0.01330 0.48779 0.43418
 O1250 O 0.05906 0.48770 0.46984
 O1251 O 0.05818 0.52325 0.48864
 O1252 O 0.05169 0.52805 0.52382
 C1253 C 0.06375 0.53047 0.50699
 O1254 O -0.04073 0.54107 0.47147
 Zr1255 Zr -0.01582 0.53520 0.49442
 O1256 O 0.01855 0.54683 0.53738
 O1257 O 0.03586 0.53456 0.45819
 O1258 O -0.00336 0.55975 0.47336
 O1259 O -0.04394 0.55013 0.50927
 O1260 O -0.00357 0.56219 0.51229
 C1261 C 0.00940 0.56359 0.52831
 O1262 O 0.04353 0.50056 0.55018
 O1263 O -0.03888 0.46002 0.53974
 O1264 O 0.00699 0.51156 0.56000
 O1265 O -0.02630 0.49354 0.55592
 O1266 O 0.00218 0.43469 0.52524
 O1267 O 0.03732 0.45350 0.53159
 C1268 C -0.01098 0.50234 0.56734
 H1269 H -0.02675 0.45290 0.50194
 H1270 H 0.04948 0.48757 0.50961
 H1271 H -0.02007 0.53019 0.53509
 H1272 H -0.00500 0.52083 0.45703
 H1273 H 0.04543 0.43171 0.49475
 H1274 H 0.06765 0.49653 0.45936
 H1275 H 0.05030 0.53208 0.45083
 H1276 H -0.01102 0.57400 0.47674
 H1277 H 0.01018 0.42075 0.52142
 H1278 H -0.05310 0.46293 0.54734
 H1279 H -0.06580 0.50098 0.54409
 H1280 H -0.04325 0.56636 0.50633
 H1281 H 0.04311 0.43809 0.52998
 H1282 H 0.04786 0.51316 0.55953
 H1283 H -0.04707 0.48338 0.44034
 H1284 H -0.04433 0.55720 0.47116
 Zr1285 Zr 0.47978 -0.01681 -0.02801
 O1286 O 0.45770 -0.00335 -0.05047
 O1287 O 0.48119 -0.05030 -0.03724
 O1288 O 0.49392 -0.01776 -0.05886
 O1289 O 0.43951 -0.02268 0.01104
 O1290 O 0.52888 -0.00354 -0.05416
 O1291 O 0.44688 -0.02942 -0.02374
 O1292 O 0.50587 -0.06564 -0.01433
 O1293 O 0.51345 -0.02464 -0.02327
 O1294 O 0.48163 -0.03291 0.00112
 O1295 O 0.49692 0.01388 -0.02884
 O1296 O 0.46578 0.00566 -0.00580
 Zr1297 Zr 0.51992 0.01272 0.02893
 Zr1298 Zr 0.53019 0.00603 -0.02241
 Zr1299 Zr 0.46953 -0.01024 0.02334
 Zr1300 Zr 0.51512 -0.03955 0.00628
 O1301 O 0.44295 0.01032 0.03385
 O1302 O 0.54494 -0.05233 -0.00730
 O1303 O 0.50282 -0.01815 0.02996
 O1304 O 0.53353 -0.00978 0.00672
 O1305 O 0.51822 0.02895 -0.00016
 O1306 O 0.48628 0.02031 0.02408
 C1307 C 0.49243 -0.06680 -0.03003
 C1308 C 0.43397 -0.02995 -0.00730
 C1309 C 0.51353 -0.01214 -0.06567
 O1310 O 0.55912 -0.01273 -0.02985
 O1311 O 0.55846 0.02274 -0.01094
 O1312 O 0.55186 0.02744 0.02423
 C1313 C 0.56401 0.02984 0.00745
 O1314 O 0.45982 0.04157 -0.02837
 Zr1315 Zr 0.48458 0.03534 -0.00537
 O1316 O 0.51886 0.04640 0.03779
 O1317 O 0.53637 0.03435 -0.04145
 O1318 O 0.49735 0.05988 -0.02627
 O1319 O 0.45655 0.05048 0.00946
 O1320 O 0.49703 0.06211 0.01267
 C1321 C 0.50992 0.06330 0.02875
 O1322 O 0.54337 -0.00017 0.05043
 O1323 O 0.46059 -0.03985 0.03952
 O1324 O 0.50689 0.01113 0.06018
 O1325 O 0.47346 -0.00657 0.05590
 O1326 O 0.50147 -0.06552 0.02505
 O1327 O 0.53676 -0.04709 0.03163
 C1328 C 0.48881 0.00203 0.06741
 H1329 H 0.47282 -0.04690 0.00174
 H1330 H 0.54935 -0.01300 0.00985
 H1331 H 0.48010 0.03016 0.03527
 H1332 H 0.49541 0.02105 -0.04279
 H1333 H 0.54482 -0.06874 -0.00529
 H1334 H 0.56783 -0.00394 -0.04027
 H1335 H 0.55082 0.03177 -0.04876
 H1336 H 0.48983 0.07419 -0.02285
 H1337 H 0.50934 -0.07951 0.02117
 H1338 H 0.44638 -0.03683 0.04710
 H1339 H 0.43408 0.00135 0.04398
 H1340 H 0.45742 0.06672 0.00659
 H1341 H 0.54240 -0.06255 0.02996
 H1342 H 0.54778 0.01233 0.05985
 H1343 H 0.45306 -0.01585 -0.05978
 H1344 H 0.45637 0.05774 -0.02862
 Zr1345 Zr 0.51712 0.51661 -0.02714
 O1346 O 0.53899 0.50379 -0.05060
 O1347 O 0.51630 0.55051 -0.03469
 O1348 O 0.50308 0.51865 -0.05771
 O1349 O 0.55769 0.52035 0.01121
 O1350 O 0.46783 0.50500 -0.05300
 O1351 O 0.55018 0.52858 -0.02306
 O1352 O 0.49219 0.56546 -0.01049
 O1353 O 0.48362 0.52492 -0.02142
 O1354 O 0.51569 0.53153 0.00271
 O1355 O 0.49941 0.48631 -0.02898
 O1356 O 0.53085 0.49301 -0.00630
 Zr1357 Zr 0.47673 0.48560 0.02922
 Zr1358 Zr 0.46631 0.49454 -0.02157
 Zr1359 Zr 0.52754 0.50780 0.02358
 Zr1360 Zr 0.48235 0.53860 0.00885
 O1361 O 0.55371 0.48625 0.03253
 O1362 O 0.45281 0.55250 -0.00369
 O1363 O 0.49442 0.51606 0.03125
 O1364 O 0.46339 0.50919 0.00833
 O1365 O 0.47798 0.47057 -0.00062
 O1366 O 0.51019 0.47755 0.02336
 C1367 C 0.50566 0.56698 -0.02633
 C1368 C 0.56319 0.52834 -0.00692
 C1369 C 0.48345 0.51346 -0.06446
 O1370 O 0.43780 0.51420 -0.02763
 O1371 O 0.43779 0.47788 -0.01022
 O1372 O 0.44454 0.47163 0.02456
 C1373 C 0.43227 0.47008 0.00796
 O1374 O 0.53622 0.45812 -0.03039
 Zr1375 Zr 0.51146 0.46371 -0.00679
 O1376 O 0.47704 0.45154 0.03644
 O1377 O 0.45941 0.46705 -0.04161
 O1378 O 0.49850 0.44032 -0.02875
 O1379 O 0.53896 0.44724 0.00703
 O1380 O 0.49806 0.43646 0.00990
 C1381 C 0.48528 0.43486 0.02622
 O1382 O 0.45363 0.49805 0.05179
 O1383 O 0.53725 0.53650 0.04092
 O1384 O 0.48993 0.48574 0.06025
 O1385 O 0.52362 0.50309 0.05603
 O1386 O 0.49642 0.56346 0.02865
 O1387 O 0.46085 0.54541 0.03490
 C1388 C 0.50815 0.49436 0.06747
 H1389 H 0.52475 0.54532 0.00383
 H1390 H 0.44764 0.51256 0.01193
 H1391 H 0.51617 0.46713 0.03397
 H1392 H 0.50075 0.47963 -0.04324
 H1393 H 0.45323 0.56880 -0.00090
 H1394 H 0.42887 0.50597 -0.03822
 H1395 H 0.44499 0.47020 -0.04851
 H1396 H 0.50584 0.42578 -0.02615
 H1397 H 0.48873 0.57773 0.02568
 H1398 H 0.55143 0.53286 0.04805
 H1399 H 0.56283 0.49462 0.04286
 H1400 H 0.53769 0.43117 0.00339
 H1401 H 0.45534 0.56096 0.03398
 H1402 H 0.44902 0.48525 0.06072
 H1403 H 0.54381 0.51658 -0.05944
 H1404 H 0.53961 0.44196 -0.03130
 Zr1405 Zr 0.01699 1.01614 0.47258
 O1406 O 0.03892 1.00301 0.44932
 O1407 O 0.01627 1.04995 0.46469
 O1408 O 0.00307 1.01791 0.44195
 O1409 O 0.05743 1.02021 0.51103
 O1410 O -0.03221 1.00434 0.44666
 O1411 O 0.05006 1.02810 0.47666
 O1412 O -0.00790 1.06518 0.48868
 O1413 O -0.01651 1.02457 0.47811
 O1414 O 0.01549 1.03137 0.50229
 O1415 O -0.00077 0.98585 0.47096
 O1416 O 0.03060 0.99273 0.49369
 Zr1417 Zr -0.02365 0.98580 0.52910
 Zr1418 Zr -0.03388 0.99422 0.47819
 Zr1419 Zr 0.02722 1.00784 0.52342
 Zr1420 Zr -0.01786 1.03857 0.50825
 O1421 O 0.05332 0.98634 0.53264
 O1422 O -0.04732 1.05239 0.49549
 O1423 O -0.00591 1.01625 0.53091
 O1424 O -0.03687 1.00919 0.50794
 O1425 O -0.02232 0.97046 0.49941
 O1426 O 0.00981 0.97762 0.52342
 C1427 C 0.00562 1.06652 0.47285
 C1428 C 0.06301 1.02801 0.49285
 C1429 C -0.01653 1.01267 0.43517
 O1430 O -0.06232 1.01387 0.47185
 O1431 O -0.06246 0.97772 0.48960
 O1432 O -0.05584 0.97183 0.52447
 C1433 C -0.06805 0.97011 0.50784
 O1434 O 0.03602 0.95758 0.46997
 Zr1435 Zr 0.01115 0.96347 0.49341
 O1436 O -0.02348 0.95183 0.53664
 O1437 O -0.04076 0.96653 0.45838
 O1438 O -0.00173 0.93988 0.47160
 O1439 O 0.03853 0.94706 0.50751
 O1440 O -0.00244 0.93642 0.51028
 C1441 C -0.01529 0.93502 0.52657
 O1442 O -0.04680 0.99856 0.55148
 O1443 O 0.03692 1.03670 0.54053
 O1444 O -0.01054 0.98621 0.56017
 O1445 O 0.02319 1.00346 0.55590
 O1446 O -0.00381 1.06362 0.52786
 O1447 O -0.03943 1.04569 0.53418
 C1448 C 0.00767 0.99485 0.56737
 H1449 H 0.02457 1.04516 0.50330
 H1450 H -0.05263 1.01262 0.51146
 H1451 H 0.01572 0.96729 0.53415
 H1452 H 0.00062 0.97902 0.45677
 H1453 H -0.04688 1.06872 0.49814
 H1454 H -0.07123 1.00555 0.46131
 H1455 H -0.05514 0.96964 0.45140
 H1456 H 0.00556 0.92535 0.47437
 H1457 H -0.01146 1.07787 0.52472
 H1458 H 0.05107 1.03310 0.54774
 H1459 H 0.06242 0.99479 0.54292
 H1460 H 0.03722 0.93095 0.50402
 H1461 H -0.04490 1.06124 0.53309
 H1462 H -0.05148 0.98587 0.56051
 H1463 H 0.04380 1.01570 0.44037
 H1464 H 0.03940 0.94141 0.46923
 Zr1465 Zr 0.73730 0.26798 0.22308
 O1466 O 0.75126 0.28964 0.20020
 O1467 O 0.70393 0.26673 0.21409
 O1468 O 0.73642 0.25342 0.19248
 O1469 O 0.73136 0.30896 0.26137
 O1470 O 0.75037 0.21846 0.19762
 O1471 O 0.72495 0.30099 0.22675
 O1472 O 0.68803 0.24252 0.23747
 O1473 O 0.72901 0.23440 0.22838
 O1474 O 0.72091 0.26670 0.25229
 O1475 O 0.76776 0.25061 0.22240
 O1476 O 0.75966 0.28222 0.24494
 Zr1477 Zr 0.76569 0.22849 0.28056
 Zr1478 Zr 0.75944 0.21745 0.22941
 Zr1479 Zr 0.74344 0.27905 0.27418
 Zr1480 Zr 0.71382 0.23329 0.25803
 O1481 O 0.76419 0.30567 0.28409
 O1482 O 0.70085 0.20336 0.24492
 O1483 O 0.73507 0.24586 0.28140
 O1484 O 0.74332 0.21466 0.25866
 O1485 O 0.78221 0.22962 0.25138
 O1486 O 0.77373 0.26204 0.27513
 C1487 C 0.68721 0.25584 0.22161
 C1488 C 0.72430 0.31419 0.24293
 C1489 C 0.74200 0.23372 0.18591
 O1490 O 0.74041 0.18856 0.22243
 O1491 O 0.77557 0.18918 0.24133
 O1492 O 0.78007 0.19634 0.27636
 C1493 C 0.78243 0.18388 0.25980
 O1494 O 0.79578 0.28762 0.22218
 Zr1495 Zr 0.78906 0.26318 0.24560
 O1496 O 0.79924 0.22943 0.28931
 O1497 O 0.78789 0.21072 0.21046
 O1498 O 0.81363 0.24996 0.22478
 O1499 O 0.80441 0.29129 0.25994
 O1500 O 0.81545 0.25068 0.26369
 C1501 C 0.81631 0.23803 0.28000
 O1502 O 0.75234 0.20540 0.30250
 O1503 O 0.71385 0.28851 0.29037
 O1504 O 0.76383 0.24199 0.31161
 O1505 O 0.74670 0.27557 0.30679
 O1506 O 0.68787 0.24735 0.27673
 O1507 O 0.70585 0.21201 0.28375
 C1508 C 0.75488 0.26026 0.31855
 H1509 H 0.70704 0.27562 0.25283
 H1510 H 0.73990 0.19889 0.26207
 H1511 H 0.78352 0.26832 0.28618
 H1512 H 0.77507 0.25187 0.20841
 H1513 H 0.68445 0.20361 0.24701
 H1514 H 0.74921 0.17963 0.21214
 H1515 H 0.78521 0.19617 0.20337
 H1516 H 0.82796 0.25745 0.22803
 H1517 H 0.67386 0.23945 0.27309
 H1518 H 0.71698 0.30286 0.29765
 H1519 H 0.75524 0.31481 0.29409
 H1520 H 0.82064 0.29024 0.25702
 H1521 H 0.69042 0.20635 0.28220
 H1522 H 0.76467 0.20104 0.31195
 H1523 H 0.73894 0.29426 0.19084
 H1524 H 0.81196 0.29099 0.22183
 Zr1525 Zr 0.77043 0.73093 0.72229
 O1526 O 0.75810 0.70855 0.69920
 O1527 O 0.80423 0.73257 0.71419
 O1528 O 0.77210 0.74483 0.69153
 O1529 O 0.77467 0.69067 0.76107
 O1530 O 0.75817 0.77999 0.69622
 O1531 O 0.78288 0.69804 0.72663
 O1532 O 0.81862 0.75725 0.73798
 O1533 O 0.77809 0.76470 0.72764
 O1534 O 0.78526 0.73289 0.75196
 O1535 O 0.73987 0.74802 0.72064
 O1536 O 0.74709 0.71684 0.74356
 Zr1537 Zr 0.73863 0.77111 0.77867
 Zr1538 Zr 0.74747 0.78140 0.72769
 Zr1539 Zr 0.76171 0.72070 0.77326
 Zr1540 Zr 0.79169 0.76648 0.75772
 O1541 O 0.74070 0.69407 0.78274
 O1542 O 0.80501 0.79636 0.74489
 O1543 O 0.76936 0.75409 0.78053
 O1544 O 0.76200 0.78483 0.75739
 O1545 O 0.72373 0.76930 0.74900
 O1546 O 0.73120 0.73739 0.77319
 C1547 C 0.82042 0.74380 0.72215
 C1548 C 0.78272 0.68513 0.74292
 C1549 C 0.76676 0.76442 0.68474
 O1550 O 0.76655 0.81040 0.72124
 O1551 O 0.73019 0.80961 0.73893
 O1552 O 0.72408 0.80300 0.77386
 C1553 C 0.72226 0.81510 0.75714
 O1554 O 0.71246 0.71045 0.71994
 Zr1555 Zr 0.71750 0.73559 0.74320
 O1556 O 0.70459 0.77016 0.78617
 O1557 O 0.72000 0.78750 0.70781
 O1558 O 0.69397 0.74780 0.72131
 O1559 O 0.70149 0.70783 0.75753
 O1560 O 0.69000 0.74862 0.75995
 C1561 C 0.68812 0.76156 0.77612
 O1562 O 0.75060 0.79464 0.80090
 O1563 O 0.79056 0.71183 0.79034
 O1564 O 0.73885 0.75804 0.80982
 O1565 O 0.75678 0.72467 0.80573
 O1566 O 0.81679 0.75296 0.77723
 O1567 O 0.79814 0.78821 0.78357
 C1568 C 0.74770 0.74000 0.81713
 H1569 H 0.79919 0.72413 0.75296
 H1570 H 0.76506 0.80069 0.76082
 H1571 H 0.72087 0.73125 0.78397
 H1572 H 0.73325 0.74644 0.70647
 H1573 H 0.82129 0.79632 0.74746
 H1574 H 0.75821 0.81909 0.71065
 H1575 H 0.72289 0.80197 0.70074
 H1576 H 0.67959 0.74012 0.72413
 H1577 H 0.83091 0.76092 0.77397
 H1578 H 0.78720 0.69759 0.79765
 H1579 H 0.74920 0.68520 0.79306
 H1580 H 0.68543 0.70873 0.75405
 H1581 H 0.81360 0.79399 0.78245
 H1582 H 0.73773 0.79903 0.80993
 H1583 H 0.77099 0.70396 0.69027
 H1584 H 0.69640 0.70663 0.71927
 Zr1585 Zr 0.23348 0.23047 0.77745
 O1586 O 0.24670 0.20799 0.79973
 O1587 O 0.20006 0.23213 0.78681
 O1588 O 0.23259 0.24429 0.80838
 O1589 O 0.22723 0.19065 0.73817
 O1590 O 0.24719 0.27920 0.80387
 O1591 O 0.22058 0.19770 0.77303
 O1592 O 0.18502 0.25732 0.76417
 O1593 O 0.22602 0.26433 0.77296
 O1594 O 0.21743 0.23282 0.74840
 O1595 O 0.26430 0.24730 0.77831
 O1596 O 0.25577 0.21646 0.75507
 Zr1597 Zr 0.26341 0.27101 0.72070
 Zr1598 Zr 0.25682 0.28078 0.77212
 Zr1599 Zr 0.23994 0.22072 0.72603
 Zr1600 Zr 0.21116 0.26650 0.74349
 O1601 O 0.26019 0.19403 0.71523
 O1602 O 0.19872 0.29637 0.75729
 O1603 O 0.23240 0.25423 0.71966
 O1604 O 0.24108 0.28463 0.74307
 O1605 O 0.27958 0.26880 0.74972
 O1606 O 0.27062 0.23718 0.72529
 C1607 C 0.18373 0.24367 0.77977
 C1608 C 0.21993 0.18495 0.75651
 C1609 C 0.23838 0.26380 0.81530
 O1610 O 0.23841 0.30989 0.77981
 O1611 O 0.27381 0.30904 0.76079
 O1612 O 0.27842 0.30280 0.72555
 C1613 C 0.28095 0.31474 0.74241
 O1614 O 0.29152 0.20982 0.77748
 Zr1615 Zr 0.28559 0.23497 0.75468
 O1616 O 0.29704 0.26971 0.71172
 O1617 O 0.28514 0.28643 0.79112
 O1618 O 0.31022 0.24723 0.77560
 O1619 O 0.30043 0.20693 0.73960
 O1620 O 0.31246 0.24739 0.73666
 C1621 C 0.31380 0.26049 0.72067
 O1622 O 0.25079 0.29487 0.69939
 O1623 O 0.21028 0.21224 0.70992
 O1624 O 0.26172 0.25833 0.68938
 O1625 O 0.24358 0.22504 0.69349
 O1626 O 0.18509 0.25330 0.72474
 O1627 O 0.20386 0.28853 0.71830
 C1628 C 0.25238 0.24044 0.68206
 H1629 H 0.20337 0.22416 0.74778
 H1630 H 0.23804 0.30055 0.74006
 H1631 H 0.28039 0.23102 0.71404
 H1632 H 0.27142 0.24555 0.79222
 H1633 H 0.18233 0.29645 0.75533
 H1634 H 0.24728 0.31838 0.79026
 H1635 H 0.28271 0.30084 0.79854
 H1636 H 0.32442 0.23958 0.77208
 H1637 H 0.17120 0.26128 0.72873
 H1638 H 0.21315 0.19806 0.70222
 H1639 H 0.25113 0.18535 0.70507
 H1640 H 0.31666 0.20760 0.74243
 H1641 H 0.18848 0.29431 0.72005
 H1642 H 0.26332 0.29927 0.68996
 H1643 H 0.23417 0.20334 0.80905
 H1644 H 0.30762 0.20618 0.77765
 Zr1645 Zr 0.26711 0.76770 0.27663
 O1646 O 0.25479 0.78936 0.30049
 O1647 O 0.30106 0.76658 0.28360
 O1648 O 0.26937 0.75320 0.30704
 O1649 O 0.27059 0.80889 0.23861
 O1650 O 0.25543 0.71806 0.30222
 O1651 O 0.27917 0.80082 0.27268
 O1652 O 0.31552 0.74269 0.25896
 O1653 O 0.27511 0.73418 0.27048
 O1654 O 0.28160 0.76661 0.24654
 O1655 O 0.23676 0.75014 0.27874
 O1656 O 0.24338 0.78192 0.25627
 Zr1657 Zr 0.23516 0.72827 0.22035
 Zr1658 Zr 0.24466 0.71704 0.27091
 Zr1659 Zr 0.25772 0.77894 0.22613
 Zr1660 Zr 0.28837 0.73325 0.24000
 O1661 O 0.23625 0.80541 0.21775
 O1662 O 0.30221 0.70342 0.25208
 O1663 O 0.26566 0.74582 0.21805
 O1664 O 0.25889 0.71445 0.24077
 O1665 O 0.22056 0.72921 0.25043
 O1666 O 0.22741 0.76175 0.22664
 C1667 C 0.31733 0.75597 0.27488
 C1668 C 0.27880 0.81410 0.25667
 C1669 C 0.26409 0.73350 0.31371
 O1670 O 0.26420 0.68828 0.27643
 O1671 O 0.22768 0.68876 0.25955
 O1672 O 0.22105 0.69606 0.22494
 C1673 C 0.21961 0.68355 0.24145
 O1674 O 0.20895 0.78727 0.28086
 Zr1675 Zr 0.21401 0.76269 0.25700
 O1676 O 0.20105 0.72888 0.21371
 O1677 O 0.21740 0.71001 0.29126
 O1678 O 0.19085 0.74968 0.27926
 O1679 O 0.19753 0.79047 0.24361
 O1680 O 0.18649 0.74956 0.24074
 C1681 C 0.18458 0.73698 0.22435
 O1682 O 0.24711 0.70535 0.19740
 O1683 O 0.28623 0.78875 0.20847
 O1684 O 0.23511 0.74192 0.18943
 O1685 O 0.25261 0.77553 0.19373
 O1686 O 0.31301 0.74745 0.21992
 O1687 O 0.29468 0.71203 0.21366
 C1688 C 0.24374 0.76023 0.18225
 H1689 H 0.29541 0.77562 0.24530
 H1690 H 0.26210 0.69871 0.23698
 H1691 H 0.21691 0.76795 0.21623
 H1692 H 0.23027 0.75134 0.29311
 H1693 H 0.31845 0.70375 0.24904
 H1694 H 0.25605 0.67923 0.28704
 H1695 H 0.22053 0.69545 0.29799
 H1696 H 0.17636 0.75720 0.27696
 H1697 H 0.32725 0.73960 0.22259
 H1698 H 0.28259 0.80308 0.20154
 H1699 H 0.24453 0.81466 0.20740
 H1700 H 0.18152 0.78925 0.24749
 H1701 H 0.31018 0.70638 0.21431
 H1702 H 0.23418 0.70096 0.18862
 H1703 H 0.26772 0.79396 0.30917
 H1704 H 0.19286 0.79084 0.28199
 Zr1705 Zr 0.23708 0.76901 0.72239
 O1706 O 0.25106 0.79068 0.69953
 O1707 O 0.20373 0.76771 0.71333
 O1708 O 0.23625 0.75444 0.69179
 O1709 O 0.23107 0.80998 0.76068
 O1710 O 0.25020 0.71949 0.69695
 O1711 O 0.22469 0.80202 0.72606
 O1712 O 0.18783 0.74348 0.73669
 O1713 O 0.22881 0.73543 0.72769
 O1714 O 0.22066 0.76772 0.75158
 O1715 O 0.26755 0.75165 0.72175
 O1716 O 0.25941 0.78326 0.74427
 Zr1717 Zr 0.26542 0.72953 0.77991
 Zr1718 Zr 0.25924 0.71849 0.72875
 Zr1719 Zr 0.24316 0.78008 0.77350
 Zr1720 Zr 0.21358 0.73430 0.75731
 O1721 O 0.26388 0.80672 0.78343
 O1722 O 0.20064 0.70435 0.74423
 O1723 O 0.23479 0.74689 0.78072
 O1724 O 0.24309 0.71569 0.75798
 O1725 O 0.28198 0.73067 0.75075
 O1726 O 0.27345 0.76309 0.77448
 C1727 C 0.18702 0.75678 0.72082
 C1728 C 0.22402 0.81521 0.74225
 C1729 C 0.24183 0.73474 0.68523
 O1730 O 0.24025 0.68958 0.72175
 O1731 O 0.27538 0.69023 0.74070
 O1732 O 0.27978 0.69737 0.77574
 C1733 C 0.28218 0.68492 0.75918
 O1734 O 0.29554 0.78870 0.72158
 Zr1735 Zr 0.28882 0.76423 0.74497
 O1736 O 0.29896 0.73045 0.78866
 O1737 O 0.28772 0.71178 0.70983
 O1738 O 0.31341 0.75106 0.72415
 O1739 O 0.30415 0.79233 0.75935
 O1740 O 0.31520 0.75170 0.76306
 C1741 C 0.31605 0.73903 0.77935
 O1742 O 0.25204 0.70646 0.80185
 O1743 O 0.21354 0.78951 0.78966
 O1744 O 0.26354 0.74304 0.81095
 O1745 O 0.24639 0.77661 0.80612
 O1746 O 0.18759 0.74837 0.77595
 O1747 O 0.20558 0.71305 0.78305
 C1748 C 0.25458 0.76131 0.81788
 H1749 H 0.20677 0.77662 0.75210
 H1750 H 0.23966 0.69992 0.76138
 H1751 H 0.28323 0.76936 0.78554
 H1752 H 0.27487 0.75291 0.70776
 H1753 H 0.18424 0.70460 0.74630
 H1754 H 0.24907 0.68065 0.71148
 H1755 H 0.28506 0.69723 0.70274
 H1756 H 0.32774 0.75856 0.72742
 H1757 H 0.17359 0.74047 0.77229
 H1758 H 0.21665 0.80386 0.79695
 H1759 H 0.25491 0.81585 0.79342
 H1760 H 0.32038 0.79128 0.75644
 H1761 H 0.19015 0.70739 0.78149
 H1762 H 0.26437 0.70210 0.81131
 H1763 H 0.23876 0.79530 0.69016
 H1764 H 0.31171 0.79210 0.72126
 Zr1765 Zr 0.26959 0.23079 0.22170
 O1766 O 0.25714 0.20847 0.19862
 O1767 O 0.30338 0.23233 0.21355
 O1768 O 0.27130 0.24471 0.19095
 O1769 O 0.27374 0.19052 0.26047
 O1770 O 0.25749 0.27991 0.19566
 O1771 O 0.28193 0.19786 0.22602
 O1772 O 0.31787 0.25698 0.23731
 O1773 O 0.27735 0.26454 0.22704
 O1774 O 0.28447 0.23272 0.25135
 O1775 O 0.23907 0.24797 0.22010
 O1776 O 0.24623 0.21678 0.24300
 Zr1777 Zr 0.23799 0.27107 0.27812
 Zr1778 Zr 0.24678 0.28133 0.22713
 Zr1779 Zr 0.26092 0.22060 0.27268
 Zr1780 Zr 0.29101 0.26628 0.25710
 O1781 O 0.23983 0.19404 0.28221
 O1782 O 0.30439 0.29613 0.24425
 O1783 O 0.26868 0.25396 0.27994
 O1784 O 0.26136 0.28473 0.25681
 O1785 O 0.22304 0.26931 0.24847
 O1786 O 0.23046 0.23737 0.27266
 C1787 C 0.31961 0.24353 0.22148
 C1788 C 0.28175 0.18494 0.24231
 C1789 C 0.26603 0.26433 0.18418
 O1790 O 0.26590 0.31031 0.22069
 O1791 O 0.22954 0.30958 0.23838
 O1792 O 0.22348 0.30297 0.27332
 C1793 C 0.22163 0.31507 0.25660
 O1794 O 0.21153 0.21050 0.21943
 Zr1795 Zr 0.21669 0.23562 0.24269
 O1796 O 0.20398 0.27020 0.28569
 O1797 O 0.21932 0.28750 0.20724
 O1798 O 0.19317 0.24792 0.22084
 O1799 O 0.20063 0.20791 0.25703
 O1800 O 0.18926 0.24873 0.25949
 C1801 C 0.18746 0.26166 0.27567
 O1802 O 0.25008 0.29459 0.30031
 O1803 O 0.28977 0.21162 0.28970
 O1804 O 0.23824 0.25801 0.30927
 O1805 O 0.25608 0.22460 0.30515
 O1806 O 0.31611 0.25269 0.27657
 O1807 O 0.29756 0.28799 0.28294
 C1808 C 0.24706 0.23996 0.31657
 H1809 H 0.29838 0.22391 0.25232
 H1810 H 0.26447 0.30058 0.26023
 H1811 H 0.22013 0.23126 0.28345
 H1812 H 0.23243 0.24642 0.20593
 H1813 H 0.32068 0.29604 0.24680
 H1814 H 0.25758 0.31901 0.21009
 H1815 H 0.22224 0.30196 0.20019
 H1816 H 0.17877 0.24029 0.22368
 H1817 H 0.33024 0.26061 0.27328
 H1818 H 0.28638 0.19740 0.29703
 H1819 H 0.24833 0.18514 0.29252
 H1820 H 0.18457 0.20886 0.25358
 H1821 H 0.31303 0.29373 0.28181
 H1822 H 0.23723 0.29901 0.30936
 H1823 H 0.27000 0.20384 0.18967
 H1824 H 0.19545 0.20674 0.21878
 Zr1825 Zr 0.73302 0.72984 0.27780
 O1826 O 0.74629 0.70740 0.30010
 O1827 O 0.69964 0.73157 0.28727
 O1828 O 0.73228 0.74375 0.30870
 O1829 O 0.72663 0.68992 0.23863
 O1830 O 0.74693 0.77861 0.30406
 O1831 O 0.72010 0.69705 0.27349
 O1832 O 0.68456 0.75674 0.26463
 O1833 O 0.72560 0.76370 0.27325
 O1834 O 0.71686 0.73213 0.24880
 O1835 O 0.76388 0.74662 0.27851
 O1836 O 0.75520 0.71575 0.25537
 Zr1837 Zr 0.76279 0.77018 0.22085
 Zr1838 Zr 0.75642 0.78010 0.27227
 Zr1839 Zr 0.73927 0.71995 0.22637
 Zr1840 Zr 0.71062 0.76581 0.24383
 O1841 O 0.75943 0.69320 0.21555
 O1842 O 0.69828 0.79574 0.25758
 O1843 O 0.73175 0.75345 0.21994
 O1844 O 0.74057 0.78389 0.24326
 O1845 O 0.77907 0.76803 0.24982
 O1846 O 0.76997 0.73636 0.22550
 C1847 C 0.68330 0.74314 0.28027
 C1848 C 0.71941 0.68426 0.25701
 C1849 C 0.73814 0.76326 0.31556
 O1850 O 0.73807 0.80925 0.27995
 O1851 O 0.77341 0.80830 0.26080
 O1852 O 0.77788 0.80195 0.22557
 C1853 C 0.78050 0.81393 0.24238
 O1854 O 0.79105 0.70913 0.27769
 Zr1855 Zr 0.78506 0.73420 0.25484
 O1856 O 0.79638 0.76880 0.21175
 O1857 O 0.78482 0.78577 0.29115
 O1858 O 0.80978 0.74652 0.27563
 O1859 O 0.79978 0.70608 0.23980
 O1860 O 0.81187 0.74650 0.23667
 C1861 C 0.81316 0.75955 0.22064
 O1862 O 0.75011 0.79400 0.19953
 O1863 O 0.70952 0.71149 0.21040
 O1864 O 0.76100 0.75741 0.18956
 O1865 O 0.74284 0.72416 0.19380
 O1866 O 0.68445 0.75259 0.22522
 O1867 O 0.70326 0.78777 0.21861
 C1868 C 0.75163 0.73951 0.18231
 H1869 H 0.70279 0.72348 0.24826
 H1870 H 0.73754 0.79981 0.24022
 H1871 H 0.77969 0.73014 0.21423
 H1872 H 0.77105 0.74491 0.29240
 H1873 H 0.68189 0.79584 0.25568
 H1874 H 0.74700 0.81777 0.29034
 H1875 H 0.78245 0.80021 0.29854
 H1876 H 0.82397 0.73884 0.27208
 H1877 H 0.67059 0.76061 0.22924
 H1878 H 0.71234 0.69729 0.20273
 H1879 H 0.75031 0.68451 0.20545
 H1880 H 0.81602 0.70672 0.24256
 H1881 H 0.68789 0.79357 0.22038
 H1882 H 0.76261 0.79836 0.19004
 H1883 H 0.73378 0.70280 0.30947
 H1884 H 0.80715 0.70548 0.27783
 Zr1885 Zr 0.76741 0.26659 0.77704
 O1886 O 0.75481 0.28822 0.80079
 O1887 O 0.80132 0.26571 0.78419
 O1888 O 0.76962 0.25218 0.80749
 O1889 O 0.77089 0.30771 0.73896
 O1890 O 0.75595 0.21693 0.80268
 O1891 O 0.77932 0.29976 0.77309
 O1892 O 0.81608 0.24190 0.75963
 O1893 O 0.77568 0.23311 0.77100
 O1894 O 0.78206 0.26553 0.74702
 O1895 O 0.73717 0.24883 0.77905
 O1896 O 0.74368 0.28061 0.75655
 Zr1897 Zr 0.73603 0.22683 0.72070
 Zr1898 Zr 0.74535 0.21576 0.77132
 Zr1899 Zr 0.75820 0.27768 0.72649
 Zr1900 Zr 0.78910 0.23222 0.74057
 O1901 O 0.73660 0.30400 0.71802
 O1902 O 0.80308 0.20251 0.75278
 O1903 O 0.76642 0.24460 0.71849
 O1904 O 0.75974 0.21321 0.74125
 O1905 O 0.72128 0.22773 0.75070
 O1906 O 0.72801 0.26027 0.72689
 C1907 C 0.81771 0.25522 0.77554
 C1908 C 0.77900 0.31299 0.75705
 C1909 C 0.76443 0.23246 0.81418
 O1910 O 0.76506 0.18716 0.77698
 O1911 O 0.72861 0.18735 0.75994
 O1912 O 0.72210 0.19454 0.72528
 C1913 C 0.72065 0.18205 0.74181
 O1914 O 0.70910 0.28579 0.78095
 Zr1915 Zr 0.71444 0.26117 0.75719
 O1916 O 0.70195 0.22715 0.71391
 O1917 O 0.71803 0.20859 0.79156
 O1918 O 0.69127 0.24809 0.77940
 O1919 O 0.69780 0.28877 0.74363
 O1920 O 0.68710 0.24774 0.74086
 C1921 C 0.68537 0.23510 0.72449
 O1922 O 0.74827 0.20397 0.69783
 O1923 O 0.78670 0.28763 0.70890
 O1924 O 0.73598 0.24044 0.68975
 O1925 O 0.75323 0.27418 0.69407
 O1926 O 0.81374 0.24653 0.72057
 O1927 O 0.79568 0.21098 0.71430
 C1928 C 0.74450 0.25881 0.68258
 H1929 H 0.79581 0.27463 0.74582
 H1930 H 0.76308 0.19748 0.73749
 H1931 H 0.71751 0.26637 0.71642
 H1932 H 0.73060 0.25001 0.79339
 H1933 H 0.81933 0.20296 0.74981
 H1934 H 0.75692 0.17807 0.78757
 H1935 H 0.72124 0.19407 0.79833
 H1936 H 0.67675 0.25549 0.77700
 H1937 H 0.82801 0.23878 0.72332
 H1938 H 0.78301 0.30193 0.70193
 H1939 H 0.74485 0.31328 0.70768
 H1940 H 0.68179 0.28742 0.74745
 H1941 H 0.81120 0.20542 0.71504
 H1942 H 0.73542 0.19946 0.68901
 H1943 H 0.76765 0.29294 0.80953
 H1944 H 0.69299 0.28928 0.78199
 C1945 C 0.46962 0.99674 0.36876
 C1946 C 0.48305 0.97938 0.37639
 C1947 C 0.49029 0.97967 0.39744
 C1948 C 0.45012 0.99591 0.33140
 C1949 C 0.47112 1.01485 0.40289
 C1950 C 0.46414 1.01463 0.38201
 C1951 C 0.45975 0.99586 0.34807
 C1952 C 0.48383 0.99717 0.41103
 H1953 H 0.48734 0.96536 0.36630
 H1954 H 0.49997 0.96581 0.40332
 H1955 H 0.46607 1.02870 0.41289
 H1956 H 0.45380 1.02815 0.37638
 C1957 C -0.03021 0.49781 0.86893
 C1958 C -0.03635 0.51536 0.88234
 C1959 C -0.02945 0.51559 0.90325
 C1960 C -0.04937 0.49684 0.83139
 C1961 C -0.00912 0.48112 0.89754
 C1962 C -0.01626 0.48082 0.87645
 C1963 C -0.03988 0.49688 0.84814
 C1964 C -0.01618 0.49827 0.91128
 H1965 H -0.04709 0.52859 0.87679
 H1966 H -0.03498 0.52919 0.91334
 H1967 H 0.00102 0.46755 0.90331
 H1968 H -0.01145 0.46707 0.86624
 C1969 C 0.02833 0.00122 0.86573
 C1970 C 0.01476 0.01883 0.87297
 C1971 C 0.00766 0.01957 0.89416
 C1972 C 0.04788 0.00011 0.82816
 C1973 C 0.02725 -0.01510 0.90051
 C1974 C 0.03409 -0.01591 0.87950
 C1975 C 0.03814 0.00111 0.84488
 C1976 C 0.01442 0.00287 0.90823
 H1977 H 0.01027 0.03226 0.86245
 H1978 H -0.00214 0.03362 0.89973
 H1979 H 0.03251 -0.02835 0.91091
 H1980 H 0.04455 -0.02960 0.87415
 C1981 C 0.52846 0.49987 0.36582
 C1982 C 0.51481 0.51742 0.37301
 C1983 C 0.50777 0.51823 0.39422
 C1984 C 0.54796 0.49875 0.32824
 C1985 C 0.52761 0.48373 0.40067
 C1986 C 0.53439 0.48285 0.37964
 C1987 C 0.53824 0.49974 0.34496
 C1988 C 0.51468 0.50165 0.40835
 H1989 H 0.51020 0.53077 0.36245
 H1990 H 0.49789 0.53224 0.39975
 H1991 H 0.53300 0.47056 0.41112
 H1992 H 0.54493 0.46921 0.37433
 C1993 C 0.52732 0.49491 0.13235
 C1994 C 0.53123 0.51341 0.11951
 C1995 C 0.52384 0.51345 0.09877
 C1996 C 0.54813 0.49453 0.16902
 C1997 C 0.50725 0.47685 0.10364
 C1998 C 0.51492 0.47675 0.12454
 C1999 C 0.53792 0.49425 0.15268
 C2000 C 0.51228 0.49498 0.09041
 H2001 H 0.54078 0.52753 0.12530
 H2002 H 0.52780 0.52772 0.08897
 H2003 H 0.49851 0.46239 0.09752
 H2004 H 0.51187 0.46226 0.13432
 C2005 C 0.02683 0.99578 0.63225
 C2006 C 0.01444 0.97758 0.62453
 C2007 C 0.00675 0.97757 0.60364
 C2008 C 0.04772 0.99554 0.66889
 C2009 C 0.02331 1.01414 0.59858
 C2010 C 0.03072 1.01422 0.61933
 C2011 C 0.03748 0.99521 0.65257
 C2012 C 0.01176 0.99563 0.59032
 H2013 H 0.01141 0.96314 0.63438
 H2014 H -0.00197 0.96306 0.59759
 H2015 H 0.02727 1.02836 0.58871
 H2016 H 0.04027 1.02838 0.62504
 C2017 C -0.02823 0.50020 0.63314
 C2018 C -0.03434 0.48290 0.61951
 C2019 C -0.02783 0.48339 0.59839
 C2020 C -0.04709 0.49953 0.67107
 C2021 C -0.00791 0.51809 0.60433
 C2022 C -0.01468 0.51767 0.62563
 C2023 C -0.03765 0.50036 0.65418
 C2024 C -0.01497 0.50119 0.59040
 H2025 H -0.04479 0.46931 0.62505
 H2026 H -0.03333 0.46998 0.58813
 H2027 H 0.00191 0.53203 0.59858
 H2028 H -0.00992 0.53124 0.63603
 C2029 C 0.47108 -0.00038 0.13305
 C2030 C 0.46525 -0.01772 0.11936
 C2031 C 0.47196 -0.01716 0.09830
 C2032 C 0.45179 -0.00111 0.17078
 C2033 C 0.49154 0.01770 0.10444
 C2034 C 0.48457 0.01721 0.12568
 C2035 C 0.46141 -0.00027 0.15398
 C2036 C 0.48473 0.00076 0.09044
 H2037 H 0.45484 -0.03140 0.12480
 H2038 H 0.46664 -0.03059 0.08797
 H2039 H 0.50129 0.03172 0.09877
 H2040 H 0.48912 0.03080 0.13612
 C2041 C 0.37000 0.43376 0.00971
 C2042 C 0.38472 0.43239 0.02674
 C2043 C 0.40478 0.44460 0.02660
 C2044 C 0.33272 0.40974 0.00769
 C2045 C 0.39526 0.45976 -0.00748
 C2046 C 0.37531 0.44765 -0.00726
 C2047 C 0.34971 0.42061 0.00906
 C2048 C 0.41041 0.45827 0.00933
 H2049 H 0.38084 0.42166 0.03999
 H2050 H 0.41608 0.44295 0.03972
 H2051 H 0.39890 0.47013 -0.02102
 H2052 H 0.36412 0.44892 -0.02053
 C2053 C -0.13028 0.93372 0.50970
 C2054 C -0.11561 0.93252 0.52678
 C2055 C -0.09557 0.94477 0.52660
 C2056 C -0.16749 0.90958 0.50775
 C2057 C -0.10501 0.95963 0.49238
 C2058 C -0.12495 0.94749 0.49264
 C2059 C -0.15053 0.92052 0.50909
 C2060 C -0.08991 0.95830 0.50924
 H2061 H -0.11950 0.92189 0.54009
 H2062 H -0.08431 0.94324 0.53976
 H2063 H -0.10134 0.96990 0.47878
 H2064 H -0.13609 0.94862 0.47933
 C2065 C -0.12842 0.06687 0.98821
 C2066 C -0.11354 0.06793 0.97102
 C2067 C -0.09335 0.05602 0.97137
 C2068 C -0.16591 0.09043 0.99024
 C2069 C -0.10309 0.04180 1.00593
 C2070 C -0.12315 0.05360 1.00552
 C2071 C -0.14882 0.07977 0.98874
 C2072 C -0.08777 0.04300 0.98898
 H2073 H -0.11739 0.07819 0.95752
 H2074 H -0.08192 0.05742 0.95812
 H2075 H -0.09950 0.03190 1.01973
 H2076 H -0.13446 0.05258 1.01890
 C2077 C 0.37207 0.56617 0.48807
 C2078 C 0.38693 0.56700 0.47087
 C2079 C 0.40706 0.55500 0.47127
 C2080 C 0.33470 0.58992 0.48991
 C2081 C 0.39732 0.54113 0.50596
 C2082 C 0.37731 0.55301 0.50548
 C2083 C 0.35173 0.57917 0.48852
 C2084 C 0.41261 0.54210 0.48898
 H2085 H 0.38311 0.57716 0.45729
 H2086 H 0.41847 0.55623 0.45800
 H2087 H 0.40090 0.53134 0.51983
 H2088 H 0.36602 0.55217 0.51889
 C2089 C 0.12583 0.56718 0.50869
 C2090 C 0.11136 0.56770 0.52621
 C2091 C 0.09133 0.55542 0.52604
 C2092 C 0.16328 0.59101 0.50673
 C2093 C 0.10037 0.54195 0.49094
 C2094 C 0.12028 0.55411 0.49118
 C2095 C 0.14619 0.58026 0.50813
 C2096 C 0.08549 0.54254 0.50827
 H2097 H 0.11543 0.57777 0.53988
 H2098 H 0.08024 0.55636 0.53958
 H2099 H 0.09659 0.53219 0.47700
 H2100 H 0.13127 0.55350 0.47754
 C2101 C 0.62621 0.06631 0.00934
 C2102 C 0.61158 0.06706 0.02674
 C2103 C 0.59152 0.05482 0.02653
 C2104 C 0.66363 0.09017 0.00735
 C2105 C 0.60086 0.04092 -0.00835
 C2106 C 0.62079 0.05303 -0.00807
 C2107 C 0.64655 0.07940 0.00877
 C2108 C 0.58581 0.04176 0.00884
 H2109 H 0.61554 0.07729 0.04033
 H2110 H 0.58031 0.05596 0.03996
 H2111 H 0.59717 0.03101 -0.02222
 H2112 H 0.63190 0.05224 -0.02162
 C2113 C 0.62504 0.93347 0.49114
 C2114 C 0.61032 0.93244 0.47407
 C2115 C 0.59055 0.94506 0.47432
 C2116 C 0.66194 0.90897 0.49294
 C2117 C 0.60036 0.95994 0.50859
 C2118 C 0.62002 0.94742 0.50827
 C2119 C 0.64509 0.92001 0.49165
 C2120 C 0.58522 0.95882 0.49173
 H2121 H 0.61397 0.92169 0.46070
 H2122 H 0.57925 0.94368 0.46115
 H2123 H 0.59695 0.97035 0.52224
 H2124 H 0.63120 0.94844 0.52156
 C2125 C 0.12527 0.43432 0.99092
 C2126 C 0.12033 0.44829 1.00804
 C2127 C 0.10068 0.46081 1.00843
 C2128 C 0.16211 0.40973 0.99265
 C2129 C 0.09072 0.44593 0.97421
 C2130 C 0.11048 0.43329 0.97389
 C2131 C 0.14530 0.42082 0.99138
 C2132 C 0.08546 0.45968 0.99163
 H2133 H 0.13157 0.44931 1.02130
 H2134 H 0.09733 0.47124 1.02208
 H2135 H 0.07936 0.44454 0.96109
 H2136 H 0.11407 0.42252 0.96052
 C2137 C -0.01478 0.36934 0.44052
 C2138 C -0.00105 0.37153 0.45809
 C2139 C 0.00135 0.39224 0.46788
 C2140 C -0.01426 0.33128 0.41994
 C2141 C -0.02407 0.40850 0.44264
 C2142 C -0.02640 0.38774 0.43286
 C2143 C -0.01528 0.34861 0.42940
 C2144 C -0.00996 0.41100 0.46013
 H2145 H 0.00816 0.35732 0.46395
 H2146 H 0.01225 0.39357 0.48136
 H2147 H -0.03308 0.42260 0.43633
 H2148 H -0.03690 0.38613 0.41911
 C2149 C 0.48453 -0.13007 -0.06040
 C2150 C 0.49809 -0.12819 -0.04269
 C2151 C 0.50053 -0.10761 -0.03265
 C2152 C 0.48513 -0.16787 -0.08140
 C2153 C 0.47547 -0.09088 -0.05794
 C2154 C 0.47309 -0.11150 -0.06797
 C2155 C 0.48405 -0.15064 -0.07178
 C2156 C 0.48943 -0.08868 -0.04032
 H2157 H 0.50714 -0.14253 -0.03690
 H2158 H 0.51131 -0.10650 -0.01907
 H2159 H 0.46663 -0.07664 -0.06419
 H2160 H 0.46273 -0.11287 -0.08182
 C2161 C 0.01664 -0.12653 1.05790
 C2162 C 0.02846 -0.10783 1.06488
 C2163 C 0.02533 -0.08729 1.05516
 C2164 C 0.01815 -0.16388 1.07914
 C2165 C -0.00129 -0.10436 1.03130
 C2166 C 0.00189 -0.12487 1.04107
 C2167 C 0.01809 -0.14696 1.06918
 C2168 C 0.01024 -0.08531 1.03840
 H2169 H 0.03975 -0.10904 1.07808
 H2170 H 0.03456 -0.07297 1.06092
 H2171 H -0.01294 -0.10340 1.01839
 H2172 H -0.00746 -0.13933 1.03577
 C2173 C 0.51850 0.37282 0.55793
 C2174 C 0.53004 0.39167 0.56496
 C2175 C 0.52650 0.41221 0.55538
 C2176 C 0.52074 0.33532 0.57887
 C2177 C 0.49998 0.39487 0.53160
 C2178 C 0.50358 0.37434 0.54121
 C2179 C 0.52039 0.35232 0.56905
 C2180 C 0.51126 0.41405 0.53872
 H2181 H 0.54145 0.39056 0.57807
 H2182 H 0.53555 0.42664 0.56116
 H2183 H 0.48823 0.39571 0.51876
 H2184 H 0.49443 0.35977 0.53589
 C2185 C 0.48599 1.13385 0.55736
 C2186 C 0.47362 1.11583 0.56510
 C2187 C 0.47570 1.09489 0.55561
 C2188 C 0.48694 1.17176 0.57819
 C2189 C 0.50228 1.11022 0.53042
 C2190 C 0.50015 1.13113 0.53994
 C2191 C 0.48583 1.15461 0.56846
 C2192 C 0.49029 1.09182 0.53834
 H2193 H 0.46278 1.11784 0.57873
 H2194 H 0.46614 1.08109 0.56202
 H2195 H 0.51357 1.10843 0.51710
 H2196 H 0.50992 1.14504 0.53404
 C2197 C -0.01366 0.63407 1.05866
 C2198 C -0.02602 0.61599 1.06628
 C2199 C -0.02394 0.59512 1.05665
 C2200 C -0.01314 0.67200 1.07947
 C2201 C 0.00266 0.61063 1.03158
 C2202 C 0.00053 0.63147 1.04125
 C2203 C -0.01400 0.65481 1.06977
 C2204 C -0.00937 0.59218 1.03935
 H2205 H -0.03689 0.61791 1.07990
 H2206 H -0.03352 0.58128 1.06295
 H2207 H 0.01395 0.60895 1.01825
 H2208 H 0.01029 0.64543 1.03542
 C2209 C 0.51666 0.63142 -0.05290
 C2210 C 0.52911 0.61321 -0.06014
 C2211 C 0.52565 0.59221 -0.05136
 C2212 C 0.51824 0.66897 -0.07385
 C2213 C 0.49753 0.60785 -0.02781
 C2214 C 0.50102 0.62883 -0.03665
 C2215 C 0.51811 0.65212 -0.06378
 C2216 C 0.50960 0.58927 -0.03529
 H2217 H 0.54106 0.61513 -0.07292
 H2218 H 0.53536 0.57829 -0.05735
 H2219 H 0.48513 0.60613 -0.01540
 H2220 H 0.49114 0.64289 -0.03120
 C2221 C 0.01683 1.13072 0.44583
 C2222 C 0.02896 1.11234 0.43847
 C2223 C 0.02542 1.09142 0.44738
 C2224 C 0.01859 1.16834 0.42500
 C2225 C -0.00216 1.10745 0.47126
 C2226 C 0.00142 1.12835 0.46230
 C2227 C 0.01842 1.15142 0.43496
 C2228 C 0.00961 1.08871 0.46369
 H2229 H 0.04074 1.11409 0.42553
 H2230 H 0.03489 1.07736 0.44130
 H2231 H -0.01437 1.10592 0.48386
 H2232 H -0.00821 1.14255 0.46786
 C2233 C 0.74753 0.72166 0.88245
 C2234 C 0.76568 0.71663 0.86934
 C2235 C 0.76595 0.72363 0.84843
 C2236 C 0.74656 0.70190 0.91976
 C2237 C 0.73031 0.74196 0.85360
 C2238 C 0.72997 0.73470 0.87467
 C2239 C 0.74658 0.71165 0.90311
 C2240 C 0.74807 0.73590 0.84014
 H2241 H 0.77935 0.70659 0.87509
 H2242 H 0.77998 0.71888 0.83851
 H2243 H 0.71630 0.75129 0.84758
 H2244 H 0.71575 0.73864 0.88465
 C2245 C 0.24706 0.22145 0.38181
 C2246 C 0.22937 0.23433 0.37406
 C2247 C 0.22965 0.24167 0.35302
 C2248 C 0.24622 0.20148 0.41902
 C2249 C 0.26551 0.22377 0.34783
 C2250 C 0.26529 0.21669 0.36872
 C2251 C 0.24618 0.21132 0.40242
 C2252 C 0.24750 0.23586 0.33956
 H2253 H 0.21508 0.23805 0.38404
 H2254 H 0.21553 0.25085 0.34701
 H2255 H 0.27960 0.21922 0.33791
 H2256 H 0.27907 0.20678 0.37444
 C2257 C 0.75131 0.27851 0.38400
 C2258 C 0.76877 0.26467 0.37689
 C2259 C 0.76964 0.25759 0.35571
 C2260 C 0.74989 0.29789 0.42161
 C2261 C 0.73543 0.27777 0.34910
 C2262 C 0.73449 0.28460 0.37009
 C2263 C 0.75104 0.28822 0.40487
 C2264 C 0.75323 0.26463 0.34151
 H2265 H 0.78197 0.25992 0.38751
 H2266 H 0.78356 0.24753 0.35026
 H2267 H 0.72238 0.28325 0.33862
 H2268 H 0.72092 0.29526 0.37533
 C2269 C 0.25099 0.77950 0.88335
 C2270 C 0.26840 0.76560 0.87625
 C2271 C 0.26928 0.75855 0.85506
 C2272 C 0.24957 0.79881 0.92099
 C2273 C 0.23517 0.77889 0.84842
 C2274 C 0.23422 0.78569 0.86943
 C2275 C 0.25072 0.78916 0.90424
 C2276 C 0.25293 0.76568 0.84084
 H2277 H 0.28156 0.76077 0.88688
 H2278 H 0.28316 0.74843 0.84962
 H2279 H 0.22216 0.78445 0.83793
 H2280 H 0.22069 0.79640 0.87466
 C2281 C 0.24411 0.77947 0.11720
 C2282 C 0.22636 0.76643 0.12500
 C2283 C 0.22650 0.75887 0.14598
 C2284 C 0.24366 0.79979 0.08017
 C2285 C 0.26230 0.77692 0.15097
 C2286 C 0.26223 0.78421 0.13016
 C2287 C 0.24341 0.78978 0.09668
 C2288 C 0.24424 0.76465 0.15930
 H2289 H 0.21216 0.76272 0.11513
 H2290 H 0.21236 0.74954 0.15204
 H2291 H 0.27632 0.78144 0.16079
 H2292 H 0.27604 0.79424 0.12439
 C2293 C 0.74479 0.27823 0.61759
 C2294 C 0.72704 0.26518 0.62539
 C2295 C 0.72722 0.25754 0.64633
 C2296 C 0.74424 0.29874 0.58065
 C2297 C 0.76307 0.27550 0.65131
 C2298 C 0.76296 0.28287 0.63053
 C2299 C 0.74404 0.28865 0.59712
 C2300 C 0.74501 0.26323 0.65964
 H2301 H 0.71281 0.26155 0.61553
 H2302 H 0.71307 0.24822 0.65240
 H2303 H 0.77711 0.27996 0.66113
 H2304 H 0.77677 0.29291 0.62476
 C2305 C 0.24975 0.22290 0.61653
 C2306 C 0.23195 0.21806 0.63011
 C2307 C 0.23259 0.22481 0.65113
 C2308 C 0.24882 0.20318 0.57907
 C2309 C 0.26845 0.24256 0.64514
 C2310 C 0.26787 0.23553 0.62395
 C2311 C 0.24975 0.21298 0.59574
 C2312 C 0.25104 0.23665 0.65904
 H2313 H 0.21786 0.20832 0.62463
 H2314 H 0.21883 0.22020 0.66141
 H2315 H 0.28289 0.25155 0.65087
 H2316 H 0.28182 0.23929 0.61359
 C2317 C 0.74909 0.72193 0.11675
 C2318 C 0.73147 0.71670 0.13039
 C2319 C 0.73207 0.72342 0.15142
 C2320 C 0.74832 0.70236 0.07921
 C2321 C 0.76754 0.74189 0.14533
 C2322 C 0.76700 0.73490 0.12412
 C2323 C 0.74917 0.71211 0.09592
 C2324 C 0.75031 0.73561 0.15929
 H2325 H 0.71755 0.70669 0.12495
 H2326 H 0.71844 0.71852 0.16174
 H2327 H 0.78181 0.75118 0.15101
 H2328 H 0.78082 0.73897 0.11372
 C2329 C 0.18283 0.62145 0.23961
 C2330 C 0.18146 0.63642 0.22271
 C2331 C 0.19380 0.65642 0.22289
 C2332 C 0.15872 0.58416 0.24151
 C2333 C 0.20908 0.64637 0.25674
 C2334 C 0.19685 0.62647 0.25649
 C2335 C 0.16961 0.60117 0.24020
 C2336 C 0.20761 0.66176 0.24006
 H2337 H 0.17065 0.63277 0.20953
 H2338 H 0.19215 0.66791 0.20986
 H2339 H 0.21956 0.64978 0.27021
 H2340 H 0.19812 0.61510 0.26966
 C2341 C 0.68407 0.11985 0.74010
 C2342 C 0.68254 0.13484 0.72322
 C2343 C 0.69485 0.15487 0.72334
 C2344 C 0.65993 0.08259 0.74218
 C2345 C 0.71041 0.14479 0.75708
 C2346 C 0.69822 0.12487 0.75688
 C2347 C 0.67085 0.09958 0.74079
 C2348 C 0.70877 0.16021 0.74043
 H2349 H 0.67163 0.13120 0.71012
 H2350 H 0.69306 0.16638 0.71035
 H2351 H 0.72098 0.14821 0.77047
 H2352 H 0.69961 0.11348 0.77003
 C2353 C 0.81823 0.12151 0.26233
 C2354 C 0.81955 0.13665 0.27926
 C2355 C 0.80746 0.15675 0.27890
 C2356 C 0.84209 0.08420 0.26018
 C2357 C 0.79254 0.14641 0.24485
 C2358 C 0.80450 0.12643 0.24529
 C2359 C 0.83131 0.10123 0.26175
 C2360 C 0.79401 0.16199 0.26152
 H2361 H 0.83015 0.13308 0.29256
 H2362 H 0.80907 0.16841 0.29191
 H2363 H 0.78230 0.14973 0.23125
 H2364 H 0.80328 0.11492 0.23210
 C2365 C 0.31778 0.62243 0.76195
 C2366 C 0.31889 0.63750 0.77895
 C2367 C 0.30689 0.65766 0.77849
 C2368 C 0.34144 0.58498 0.76009
 C2369 C 0.29248 0.64750 0.74419
 C2370 C 0.30436 0.62747 0.74472
 C2371 C 0.33075 0.60207 0.76152
 C2372 C 0.29373 0.66301 0.76094
 H2373 H 0.32926 0.63384 0.79239
 H2374 H 0.30833 0.66925 0.79157
 H2375 H 0.28247 0.65092 0.73045
 H2376 H 0.30330 0.61602 0.73149
 C2377 C 0.31783 0.37677 0.74073
 C2378 C 0.31836 0.36237 0.72320
 C2379 C 0.30600 0.34236 0.72335
 C2380 C 0.34176 0.41416 0.74277
 C2381 C 0.29244 0.35131 0.75845
 C2382 C 0.30468 0.37119 0.75823
 C2383 C 0.33098 0.39709 0.74133
 C2384 C 0.29305 0.33648 0.74111
 H2385 H 0.32849 0.36646 0.70953
 H2386 H 0.30695 0.33131 0.70980
 H2387 H 0.28262 0.34749 0.77239
 H2388 H 0.30405 0.38213 0.77188
 C2389 C 0.81764 0.87579 0.24039
 C2390 C 0.80449 0.87035 0.25793
 C2391 C 0.79216 0.85052 0.25826
 C2392 C 0.84184 0.91300 0.24224
 C2393 C 0.80560 0.84136 0.22317
 C2394 C 0.81805 0.86131 0.22291
 C2395 C 0.83092 0.89601 0.24089
 C2396 C 0.79267 0.83562 0.24098
 H2397 H 0.80396 0.88135 0.27155
 H2398 H 0.78236 0.84681 0.27223
 H2399 H 0.80648 0.83025 0.20966
 H2400 H 0.82818 0.86529 0.20921
 C2401 C 0.68463 0.87660 0.75871
 C2402 C 0.69842 0.87137 0.74151
 C2403 C 0.71093 0.85168 0.74133
 C2404 C 0.66008 0.91350 0.75670
 C2405 C 0.69635 0.84225 0.77588
 C2406 C 0.68374 0.86205 0.77599
 C2407 C 0.67116 0.89667 0.75808
 C2408 C 0.70996 0.83671 0.75841
 H2409 H 0.69933 0.88241 0.72805
 H2410 H 0.72122 0.84811 0.72762
 H2411 H 0.69508 0.83109 0.78922
 H2412 H 0.67311 0.86585 0.78942
 C2413 C 0.18385 0.37647 0.25816
 C2414 C 0.18302 0.36193 0.27545
 C2415 C 0.19568 0.34217 0.27534
 C2416 C 0.15920 0.41332 0.25621
 C2417 C 0.21022 0.35163 0.24078
 C2418 C 0.19766 0.37128 0.24096
 C2419 C 0.17033 0.39651 0.25755
 C2420 C 0.20930 0.33666 0.25787
 H2421 H 0.17238 0.36570 0.28888
 H2422 H 0.19444 0.33101 0.28868
 H2423 H 0.22052 0.34808 0.22707
 H2424 H 0.19853 0.38232 0.22749
 C2425 C 0.12051 0.23606 0.81037
 C2426 C 0.12254 0.24995 0.79283
 C2427 C 0.14311 0.25232 0.78273
 C2428 C 0.08266 0.23643 0.83131
 C2429 C 0.15952 0.22655 0.80762
 C2430 C 0.13891 0.22424 0.81771
 C2431 C 0.09992 0.23549 0.82174
 C2432 C 0.16187 0.24081 0.79015
 H2433 H 0.10833 0.25928 0.78721
 H2434 H 0.14433 0.26335 0.76928
 H2435 H 0.17363 0.21739 0.81368
 H2436 H 0.13742 0.21361 0.83142
 C2437 C 0.62017 0.73571 0.31107
 C2438 C 0.62218 0.74958 0.29351
 C2439 C 0.64272 0.75190 0.28336
 C2440 C 0.58227 0.73599 0.33196
 C2441 C 0.65916 0.72615 0.30825
 C2442 C 0.63858 0.72389 0.31839
 C2443 C 0.59957 0.73510 0.32243
 C2444 C 0.66148 0.74037 0.29075
 H2445 H 0.60795 0.75891 0.28791
 H2446 H 0.64391 0.76289 0.26988
 H2447 H 0.67327 0.71698 0.31429
 H2448 H 0.63711 0.71327 0.33212
 C2449 C 0.62416 0.26586 0.19253
 C2450 C 0.64283 0.27761 0.18530
 C2451 C 0.66340 0.27438 0.19481
 C2452 C 0.58656 0.26788 0.17193
 C2453 C 0.64645 0.24778 0.21893
 C2454 C 0.62590 0.25105 0.20937
 C2455 C 0.60361 0.26757 0.18159
 C2456 C 0.66545 0.25928 0.21162
 H2457 H 0.64155 0.28895 0.17210
 H2458 H 0.67768 0.28359 0.18888
 H2459 H 0.64746 0.23611 0.23188
 H2460 H 0.61146 0.24176 0.21487
 C2461 C 0.12407 0.76644 0.69146
 C2462 C 0.14274 0.77811 0.68416
 C2463 C 0.16329 0.77502 0.69376
 C2464 C 0.08641 0.76826 0.67094
 C2465 C 0.14628 0.74867 0.71811
 C2466 C 0.12576 0.75182 0.70846
 C2467 C 0.10352 0.76805 0.68051
 C2468 C 0.16530 0.76011 0.71073
 H2469 H 0.14150 0.78931 0.67085
 H2470 H 0.17759 0.78417 0.68778
 H2471 H 0.14726 0.73716 0.73118
 H2472 H 0.11132 0.74259 0.71402
 C2473 C 0.88484 0.73567 0.69402
 C2474 C 0.86677 0.72350 0.68626
 C2475 C 0.84578 0.72597 0.69556
 C2476 C 0.92299 0.73593 0.67353
 C2477 C 0.86114 0.75258 0.72057
 C2478 C 0.88210 0.75006 0.71124
 C2479 C 0.90572 0.73511 0.68312
 C2480 C 0.84270 0.74076 0.71265
 H2481 H 0.86880 0.71249 0.67277
 H2482 H 0.83195 0.71652 0.68916
 H2483 H 0.85936 0.76402 0.73375
 H2484 H 0.89606 0.75970 0.71715
 C2485 C 0.38399 0.23534 0.19326
 C2486 C 0.38133 0.24953 0.21063
 C2487 C 0.36038 0.25207 0.21998
 C2488 C 0.42219 0.23564 0.17287
 C2489 C 0.34486 0.22584 0.19470
 C2490 C 0.36585 0.22336 0.18537
 C2491 C 0.40488 0.23478 0.18238
 C2492 C 0.34187 0.24045 0.21195
 H2493 H 0.39534 0.25902 0.21665
 H2494 H 0.35867 0.26336 0.23329
 H2495 H 0.33098 0.21657 0.18820
 H2496 H 0.36782 0.21251 0.17177
 C2497 C 0.38204 0.76638 0.30058
 C2498 C 0.36412 0.77929 0.30772
 C2499 C 0.34305 0.77603 0.29921
 C2500 C 0.41940 0.76753 0.32159
 C2501 C 0.35802 0.74722 0.27604
 C2502 C 0.37909 0.75050 0.28463
 C2503 C 0.40271 0.76756 0.31140
 C2504 C 0.33972 0.75972 0.28349
 H2505 H 0.36631 0.79143 0.32027
 H2506 H 0.32935 0.78609 0.30514
 H2507 H 0.35601 0.73461 0.26389
 H2508 H 0.39292 0.74026 0.27926
 C2509 C 0.88228 0.26642 0.80127
 C2510 C 0.86419 0.27903 0.80848
 C2511 C 0.84315 0.27549 0.79998
 C2512 C 0.91974 0.26811 0.82211
 C2513 C 0.85851 0.24698 0.77671
 C2514 C 0.87954 0.25054 0.78528
 C2515 C 0.90298 0.26791 0.81201
 C2516 C 0.84005 0.25920 0.78421
 H2517 H 0.86622 0.29117 0.82106
 H2518 H 0.82932 0.28534 0.80595
 H2519 H 0.85667 0.23439 0.76452
 H2520 H 0.89352 0.24053 0.77986
 C2521 C 0.53396 1.01668 0.63064
 C2522 C 0.51131 1.01384 0.62579
 C2523 C 0.50418 1.01516 0.60476
 C2524 C 0.55111 1.00935 0.66836
 C2525 C 0.54218 1.02295 0.59369
 C2526 C 0.54918 1.02181 0.61456
 C2527 C 0.54239 1.01283 0.65158
 C2528 C 0.51974 1.01904 0.58846
 H2529 H 0.49935 1.00983 0.63810
 H2530 H 0.48686 1.01188 0.60114
 H2531 H 0.55454 1.02605 0.58149
 H2532 H 0.56671 1.02410 0.61805
 C2533 C 0.03415 0.51638 1.13109
 C2534 C 0.01148 0.51374 1.12620
 C2535 C 0.00439 0.51517 1.10517
 C2536 C 0.05123 0.50905 1.16886
 C2537 C 0.04247 0.52265 1.09416
 C2538 C 0.04943 0.52141 1.11504
 C2539 C 0.04252 0.51251 1.15206
 C2540 C 0.02001 0.51897 1.08888
 H2541 H -0.00053 0.50981 1.13849
 H2542 H -0.01296 0.51206 1.10152
 H2543 H 0.05487 0.52570 1.08199
 H2544 H 0.06697 0.52355 1.11855
 C2545 C -0.03465 -0.01174 1.12936
 C2546 C -0.01191 -0.01072 1.12394
 C2547 C -0.00526 -0.01090 1.10262
 C2548 C -0.05079 -0.00770 1.16819
 C2549 C -0.04401 -0.01369 1.09236
 C2550 C -0.05055 -0.01366 1.11348
 C2551 C -0.04240 -0.00970 1.15089
 C2552 C -0.02135 -0.01184 1.08662
 H2553 H 0.00057 -0.00923 1.13611
 H2554 H 0.01229 -0.00937 1.09867
 H2555 H -0.05683 -0.01466 1.08046
 H2556 H -0.06816 -0.01454 1.11742
 C2557 C 0.46577 0.48784 0.62950
 C2558 C 0.48850 0.48906 0.62411
 C2559 C 0.49519 0.48881 0.60280
 C2560 C 0.44958 0.49209 0.66828
 C2561 C 0.45648 0.48554 0.59251
 C2562 C 0.44991 0.48564 0.61362
 C2563 C 0.45798 0.48999 0.65101
 C2564 C 0.47912 0.48760 0.58678
 H2565 H 0.50096 0.49077 0.63628
 H2566 H 0.51272 0.49051 0.59885
 H2567 H 0.44369 0.48437 0.58060
 H2568 H 0.43231 0.48461 0.61755
 C2569 C 0.46544 0.51492 -0.12970
 C2570 C 0.44935 0.51817 -0.11393
 C2571 C 0.45554 0.51894 -0.09281
 C2572 C 0.45037 0.50869 -0.16844
 C2573 C 0.49434 0.51443 -0.10296
 C2574 C 0.48804 0.51350 -0.12424
 C2575 C 0.45809 0.51171 -0.15112
 C2576 C 0.47801 0.51653 -0.08700
 H2577 H 0.43185 0.51937 -0.11790
 H2578 H 0.44258 0.52072 -0.08091
 H2579 H 0.51173 0.51237 -0.09894
 H2580 H 0.50067 0.51097 -0.13633
 C2581 C -0.03412 1.01394 0.36978
 C2582 C -0.01154 1.01280 0.37539
 C2583 C -0.00542 1.01375 0.39672
 C2584 C -0.04885 1.00782 0.33091
 C2585 C -0.04434 1.01767 0.40663
 C2586 C -0.05037 1.01688 0.38547
 C2587 C -0.04127 1.01079 0.34830
 C2588 C -0.02188 1.01557 0.41258
 H2589 H 0.00121 1.01051 0.36337
 H2590 H 0.01198 1.01194 0.40083
 H2591 H -0.05742 1.01924 0.41844
 H2592 H -0.06785 1.01786 0.38138
 C2593 C 0.03222 0.48550 0.36874
 C2594 C 0.04818 0.48334 0.38451
 C2595 C 0.04173 0.48301 0.40567
 C2596 C 0.04786 0.49050 0.32981
 C2597 C 0.00294 0.48592 0.39564
 C2598 C 0.00951 0.48640 0.37430
 C2599 C 0.03983 0.48802 0.34720
 C2600 C 0.01911 0.48481 0.41156
 H2601 H 0.06577 0.48255 0.38048
 H2602 H 0.05460 0.48194 0.41750
 H2603 H -0.01457 0.48745 0.39971
 H2604 H -0.00303 0.48809 0.36223
 C2605 C 0.53304 -0.01459 -0.13093
 C2606 C 0.54877 -0.01726 -0.11503
 C2607 C 0.54209 -0.01754 -0.09394
 C2608 C 0.54919 -0.00967 -0.16967
 C2609 C 0.50350 -0.01360 -0.10430
 C2610 C 0.51030 -0.01316 -0.12558
 C2611 C 0.54093 -0.01209 -0.15238
 C2612 C 0.51946 -0.01520 -0.08825
 H2613 H 0.56637 -0.01846 -0.11890
 H2614 H 0.55480 -0.01900 -0.08199
 H2615 H 0.48599 -0.01165 -0.10037
 H2616 H 0.49793 -0.01108 -0.13775
 C2617 C 0.62658 0.56254 -0.00839
 C2618 C 0.62158 0.54730 0.00761
 C2619 C 0.60138 0.53557 0.00755
 C2620 C 0.66363 0.58683 -0.00548
 C2621 C 0.59115 0.55364 -0.02503
 C2622 C 0.61143 0.56545 -0.02489
 C2623 C 0.64681 0.57575 -0.00717
 C2624 C 0.58570 0.53883 -0.00858
 H2625 H 0.63310 0.54483 0.02046
 H2626 H 0.59785 0.52429 0.02045
 H2627 H 0.57943 0.55669 -0.03759
 H2628 H 0.61505 0.57722 -0.03738
 C2629 C 0.12644 1.06213 0.49128
 C2630 C 0.12136 1.04706 0.50741
 C2631 C 0.10115 1.03535 0.50738
 C2632 C 0.16350 1.08643 0.49409
 C2633 C 0.09106 1.05309 0.47459
 C2634 C 0.11136 1.06489 0.47470
 C2635 C 0.14667 1.07534 0.49245
 C2636 C 0.08554 1.03845 0.49117
 H2637 H 0.13283 1.04472 0.52031
 H2638 H 0.09756 1.02421 0.52038
 H2639 H 0.07940 1.05602 0.46197
 H2640 H 0.11504 1.07652 0.46211
 C2641 C 0.12778 -0.06046 1.00835
 C2642 C 0.12301 -0.04582 0.99188
 C2643 C 0.10292 -0.03401 0.99177
 C2644 C 0.16456 -0.08508 1.00579
 C2645 C 0.09234 -0.05074 1.02508
 C2646 C 0.11252 -0.06265 1.02512
 C2647 C 0.14785 -0.07384 1.00732
 C2648 C 0.08712 -0.03657 1.00817
 H2649 H 0.13463 -0.04391 0.97883
 H2650 H 0.09957 -0.02322 0.97852
 H2651 H 0.08052 -0.05325 1.03786
 H2652 H 0.11596 -0.07395 1.03796
 C2653 C 0.62821 0.43885 0.50868
 C2654 C 0.62343 0.45336 0.49212
 C2655 C 0.60336 0.46520 0.49195
 C2656 C 0.66497 0.41416 0.50624
 C2657 C 0.59282 0.44874 0.52540
 C2658 C 0.61298 0.43681 0.52548
 C2659 C 0.64828 0.42544 0.50772
 C2660 C 0.58758 0.46278 0.50840
 H2661 H 0.63503 0.45515 0.47903
 H2662 H 0.59998 0.47588 0.47863
 H2663 H 0.58102 0.44634 0.53821
 H2664 H 0.61644 0.42561 0.53841
 C2665 C -0.12903 0.43494 0.49199
 C2666 C -0.12396 0.44986 0.50829
 C2667 C -0.10382 0.46167 0.50807
 C2668 C -0.16616 0.41073 0.49489
 C2669 C -0.09375 0.44433 0.47476
 C2670 C -0.11399 0.43243 0.47506
 C2671 C -0.14927 0.42176 0.49327
 C2672 C -0.08824 0.45882 0.49149
 H2673 H -0.13540 0.45204 0.52145
 H2674 H -0.10026 0.47271 0.52119
 H2675 H -0.08212 0.44162 0.46185
 H2676 H -0.11768 0.42092 0.46232
 C2677 C 0.37064 -0.06420 -0.00847
 C2678 C 0.37566 -0.04923 0.00780
 C2679 C 0.39583 -0.03748 0.00763
 C2680 C 0.33348 -0.08838 -0.00561
 C2681 C 0.40602 -0.05498 -0.02558
 C2682 C 0.38575 -0.06682 -0.02533
 C2683 C 0.35038 -0.07737 -0.00722
 C2684 C 0.41149 -0.04045 -0.00887
 H2685 H 0.36416 -0.04697 0.02090
 H2686 H 0.39937 -0.02640 0.02073
 H2687 H 0.41771 -0.05779 -0.03842
 H2688 H 0.38209 -0.07837 -0.03804
 C2689 C 0.37093 1.06613 0.50991
 C2690 C 0.38623 1.06967 0.52623
 C2691 C 0.40647 1.05784 0.52654
 C2692 C 0.33383 1.09013 0.50678
 C2693 C 0.39585 1.03854 0.49451
 C2694 C 0.37572 1.05027 0.49428
 C2695 C 0.35070 1.07922 0.50852
 C2696 C 0.41170 1.04241 0.51042
 H2697 H 0.38275 1.08191 0.53845
 H2698 H 0.41831 1.06136 0.53891
 H2699 H 0.39919 1.02674 0.48188
 H2700 H 0.36407 1.04729 0.48160
 C2701 C -0.12890 0.56667 1.01063
 C2702 C -0.11357 0.57019 1.02693
 C2703 C -0.09332 0.55838 1.02718
 C2704 C -0.16603 0.59065 1.00756
 C2705 C -0.10399 0.53912 0.99515
 C2706 C -0.12413 0.55083 0.99497
 C2707 C -0.14914 0.57975 1.00928
 C2708 C -0.08811 0.54298 1.01103
 H2709 H -0.11703 0.58241 1.03917
 H2710 H -0.08145 0.56188 1.03954
 H2711 H -0.10066 0.52734 0.98249
 H2712 H -0.13580 0.54786 0.98231
 C2713 C 0.02288 0.62888 0.55257
 C2714 C 0.00907 0.62626 0.53513
 C2715 C 0.00476 0.60499 0.52717
 C2716 C 0.02485 0.66826 0.57073
 C2717 C 0.02848 0.58895 0.55396
 C2718 C 0.03272 0.61029 0.56192
 C2719 C 0.02483 0.65038 0.56218
 C2720 C 0.01420 0.58607 0.53666
 H2721 H 0.00120 0.64061 0.52800
 H2722 H -0.00618 0.60339 0.51375
 H2723 H 0.03613 0.57475 0.56152
 H2724 H 0.04323 0.61224 0.57562
 C2725 C 0.52394 0.12834 0.05334
 C2726 C 0.51035 0.12595 0.03571
 C2727 C 0.50587 0.10476 0.02765
 C2728 C 0.52607 0.16770 0.07154
 C2729 C 0.52898 0.08834 0.05471
 C2730 C 0.53339 0.10960 0.06277
 C2731 C 0.52601 0.14980 0.06301
 C2732 C 0.51492 0.08570 0.03722
 H2733 H 0.50277 0.14042 0.02851
 H2734 H 0.49511 0.10334 0.01409
 H2735 H 0.53633 0.07401 0.06234
 H2736 H 0.54372 0.11139 0.07661
 C2737 C -0.02660 0.13036 0.94523
 C2738 C -0.03521 0.11136 0.93530
 C2739 C -0.03070 0.09023 0.94339
 C2740 C -0.02802 0.16948 0.92692
 C2741 C -0.00924 0.10731 0.97150
 C2742 C -0.01383 0.12836 0.96341
 C2743 C -0.02839 0.15168 0.93546
 C2744 C -0.01736 0.08800 0.96140
 H2745 H -0.04488 0.11283 0.92102
 H2746 H -0.03733 0.07569 0.93535
 H2747 H 0.00093 0.10621 0.98548
 H2748 H -0.00689 0.14304 0.97100
 C2749 C 0.47307 0.62914 0.44489
 C2750 C 0.46455 0.61005 0.43505
 C2751 C 0.46924 0.58898 0.44318
 C2752 C 0.47129 0.66823 0.42657
 C2753 C 0.49070 0.60630 0.47116
 C2754 C 0.48593 0.62728 0.46303
 C2755 C 0.47108 0.65043 0.43511
 C2756 C 0.48266 0.58690 0.46116
 H2757 H 0.45481 0.61141 0.42080
 H2758 H 0.46267 0.57437 0.43521
 H2759 H 0.50092 0.60531 0.48512
 H2760 H 0.49280 0.64203 0.47056
 C2761 C 0.52236 0.87094 0.45220
 C2762 C 0.53158 0.88920 0.44157
 C2763 C 0.52792 0.91079 0.44917
 C2764 C 0.51945 0.83230 0.43292
 C2765 C 0.50639 0.89565 0.47839
 C2766 C 0.51012 0.87412 0.47078
 C2767 C 0.52194 0.84958 0.44219
 C2768 C 0.51479 0.91424 0.46737
 H2769 H 0.54077 0.88682 0.42695
 H2770 H 0.53481 0.92475 0.44045
 H2771 H 0.49641 0.89770 0.49258
 H2772 H 0.50263 0.86004 0.47888
 C2773 C 0.02325 0.37202 0.95192
 C2774 C 0.03235 0.39038 0.94135
 C2775 C 0.02848 0.41192 0.94899
 C2776 C 0.02064 0.33341 0.93255
 C2777 C 0.00698 0.39652 0.97811
 C2778 C 0.01092 0.37505 0.97047
 C2779 C 0.02302 0.35068 0.94186
 C2780 C 0.01527 0.41521 0.96716
 H2781 H 0.04160 0.38811 0.92675
 H2782 H 0.03529 0.42595 0.94033
 H2783 H -0.00305 0.39846 0.99228
 H2784 H 0.00352 0.36088 0.97852
 C2785 C 0.47205 0.36915 0.04901
 C2786 C 0.46373 0.38763 0.06008
 C2787 C 0.46744 0.40911 0.05237
 C2788 C 0.47624 0.33090 0.06838
 C2789 C 0.48708 0.39342 0.02215
 C2790 C 0.48329 0.37201 0.02985
 C2791 C 0.47303 0.34797 0.05913
 C2792 C 0.47975 0.41222 0.03364
 H2793 H 0.45534 0.38551 0.07514
 H2794 H 0.46139 0.42324 0.06147
 H2795 H 0.49637 0.39522 0.00753
 H2796 H 0.49009 0.35775 0.02140
 C2797 C -0.02920 0.86956 0.54966
 C2798 C -0.03730 0.88818 0.56066
 C2799 C -0.03335 0.90959 0.55287
 C2800 C -0.02530 0.83135 0.56912
 C2801 C -0.01390 0.89355 0.52269
 C2802 C -0.01795 0.87221 0.53047
 C2803 C -0.02842 0.84842 0.55986
 C2804 C -0.02101 0.91248 0.53411
 H2805 H -0.04569 0.88622 0.57573
 H2806 H -0.03923 0.92382 0.56191
 H2807 H -0.00462 0.89518 0.50806
 H2808 H -0.01131 0.85785 0.52207
 C2809 C 0.26644 0.28369 0.11932
 C2810 C 0.26342 0.26109 0.12450
 C2811 C 0.26491 0.25417 0.14560
 C2812 C 0.25871 0.30055 0.08153
 C2813 C 0.27322 0.29226 0.15605
 C2814 C 0.27193 0.29905 0.13511
 C2815 C 0.26237 0.29195 0.09835
 C2816 C 0.26912 0.26989 0.16164
 H2817 H 0.25913 0.24902 0.11242
 H2818 H 0.26146 0.23690 0.14950
 H2819 H 0.27658 0.30473 0.16805
 H2820 H 0.27435 0.31654 0.13136
 C2821 C 0.76694 0.78364 0.61983
 C2822 C 0.76410 0.76104 0.62506
 C2823 C 0.76566 0.75418 0.64617
 C2824 C 0.75907 0.80035 0.58199
 C2825 C 0.77370 0.79235 0.65654
 C2826 C 0.77233 0.79908 0.63559
 C2827 C 0.76280 0.79182 0.59884
 C2828 C 0.76978 0.76997 0.66218
 H2829 H 0.75989 0.74891 0.61300
 H2830 H 0.76235 0.73689 0.65011
 H2831 H 0.77698 0.80488 0.66851
 H2832 H 0.77462 0.81658 0.63180
 C2833 C 0.23900 0.71512 0.62006
 C2834 C 0.23764 0.69922 0.63606
 C2835 C 0.23764 0.70584 0.65714
 C2836 C 0.24282 0.69894 0.58125
 C2837 C 0.23938 0.74467 0.64660
 C2838 C 0.23952 0.73793 0.62532
 C2839 C 0.24090 0.70733 0.59854
 C2840 C 0.23897 0.72860 0.66273
 H2841 H 0.23714 0.68155 0.63225
 H2842 H 0.23708 0.69302 0.66913
 H2843 H 0.24050 0.76229 0.65042
 H2844 H 0.24057 0.75042 0.61306
 C2845 C 0.73916 0.21420 0.12072
 C2846 C 0.73784 0.19827 0.13669
 C2847 C 0.73784 0.20486 0.15778
 C2848 C 0.74299 0.19810 0.08189
 C2849 C 0.73950 0.24371 0.14730
 C2850 C 0.73964 0.23700 0.12601
 C2851 C 0.74106 0.20646 0.09919
 C2852 C 0.73913 0.22761 0.16340
 H2853 H 0.73737 0.18060 0.13285
 H2854 H 0.73731 0.19202 0.16975
 H2855 H 0.74059 0.26132 0.15115
 H2856 H 0.74066 0.24952 0.11377
 C2857 C 0.76588 0.21405 0.87942
 C2858 C 0.76479 0.23673 0.87398
 C2859 C 0.76572 0.24312 0.85269
 C2860 C 0.75962 0.19892 0.91823
 C2861 C 0.76957 0.20425 0.84248
 C2862 C 0.76880 0.19796 0.86360
 C2863 C 0.76267 0.20664 0.90087
 C2864 C 0.76749 0.22683 0.83670
 H2865 H 0.76251 0.24936 0.88609
 H2866 H 0.76391 0.26060 0.84871
 H2867 H 0.77109 0.19130 0.83057
 H2868 H 0.76973 0.18039 0.86756
 C2869 C 0.26575 0.71483 0.37888
 C2870 C 0.26472 0.73753 0.37352
 C2871 C 0.26559 0.74401 0.35226
 C2872 C 0.25955 0.69958 0.41766
 C2873 C 0.26926 0.70516 0.34189
 C2874 C 0.26855 0.69879 0.36300
 C2875 C 0.26258 0.70735 0.40032
 C2876 C 0.26723 0.72777 0.33620
 H2877 H 0.26254 0.75012 0.38568
 H2878 H 0.26382 0.76151 0.34834
 H2879 H 0.27069 0.69225 0.32993
 H2880 H 0.26943 0.68121 0.36689
 C2881 C 0.73553 0.78217 0.38092
 C2882 C 0.73646 0.75942 0.37545
 C2883 C 0.73612 0.75285 0.35412
 C2884 C 0.74019 0.79787 0.41977
 C2885 C 0.73332 0.79172 0.34397
 C2886 C 0.73350 0.79816 0.36510
 C2887 C 0.73787 0.78979 0.40243
 C2888 C 0.73513 0.76905 0.33816
 H2889 H 0.73804 0.74685 0.38756
 H2890 H 0.73764 0.73531 0.35011
 H2891 H 0.73232 0.80461 0.33210
 H2892 H 0.73269 0.81578 0.36907
 C2893 C 0.23555 0.28264 0.88065
 C2894 C 0.23330 0.29862 0.86484
 C2895 C 0.23317 0.29217 0.84371
 C2896 C 0.24019 0.29839 0.91948
 C2897 C 0.23644 0.25334 0.85384
 C2898 C 0.23673 0.25990 0.87517
 C2899 C 0.23788 0.29028 0.90215
 C2900 C 0.23525 0.26954 0.83789
 H2901 H 0.23230 0.31622 0.86882
 H2902 H 0.23202 0.30506 0.83184
 H2903 H 0.23818 0.23582 0.84982
 H2904 H 0.23849 0.24735 0.88728
 C2905 C 0.81320 0.37646 0.75895
 C2906 C 0.79818 0.37158 0.74282
 C2907 C 0.78647 0.35134 0.74272
 C2908 C 0.83740 0.41368 0.75648
 C2909 C 0.80416 0.34081 0.77537
 C2910 C 0.81595 0.36113 0.77539
 C2911 C 0.82636 0.39677 0.75795
 C2912 C 0.78953 0.33549 0.75881
 H2913 H 0.79584 0.38324 0.73002
 H2914 H 0.77535 0.34793 0.72973
 H2915 H 0.80706 0.32897 0.78790
 H2916 H 0.82755 0.36465 0.78798
 C2917 C 0.31301 0.87757 0.25845
 C2918 C 0.29776 0.87276 0.24249
 C2919 C 0.28607 0.85252 0.24244
 C2920 C 0.33715 0.91480 0.25581
 C2921 C 0.30420 0.84182 0.27481
 C2922 C 0.31598 0.86215 0.27478
 C2923 C 0.32613 0.89788 0.25736
 C2924 C 0.28936 0.83659 0.25841
 H2925 H 0.29524 0.88448 0.22977
 H2926 H 0.27476 0.84917 0.22958
 H2927 H 0.30727 0.82992 0.28725
 H2928 H 0.32775 0.86562 0.28724
 C2929 C 0.18943 0.87818 0.73990
 C2930 C 0.18713 0.86272 0.72335
 C2931 C 0.19914 0.84258 0.72347
 C2932 C 0.16466 0.91488 0.74245
 C2933 C 0.21617 0.85361 0.75641
 C2934 C 0.20426 0.87366 0.75621
 C2935 C 0.17596 0.89820 0.74090
 C2936 C 0.21350 0.83760 0.74025
 H2937 H 0.17568 0.86598 0.71062
 H2938 H 0.19655 0.83059 0.71088
 H2939 H 0.22711 0.85044 0.76955
 H2940 H 0.20626 0.88543 0.76909
 C2941 C 0.68979 0.37719 0.24046
 C2942 C 0.68757 0.36175 0.22389
 C2943 C 0.69954 0.34160 0.22407
 C2944 C 0.66504 0.41391 0.24288
 C2945 C 0.71640 0.35258 0.25710
 C2946 C 0.70452 0.37264 0.25685
 C2947 C 0.67634 0.39723 0.24139
 C2948 C 0.71380 0.33659 0.24092
 H2949 H 0.67620 0.36503 0.21110
 H2950 H 0.69701 0.32962 0.21145
 H2951 H 0.72725 0.34938 0.27030
 H2952 H 0.70645 0.38441 0.26975
 C2953 C 0.68499 0.62097 0.25818
 C2954 C 0.68240 0.63602 0.27507
 C2955 C 0.69430 0.65628 0.27531
 C2956 C 0.66077 0.58385 0.25527
 C2957 C 0.71176 0.64620 0.24204
 C2958 C 0.69997 0.62604 0.24188
 C2959 C 0.67179 0.60074 0.25692
 C2960 C 0.70883 0.66180 0.25857
 H2961 H 0.67085 0.63231 0.28781
 H2962 H 0.69152 0.66793 0.28818
 H2963 H 0.72285 0.64977 0.22892
 H2964 H 0.70220 0.61459 0.22875
 C2965 C 0.18526 0.12178 0.75755
 C2966 C 0.18287 0.13673 0.77454
 C2967 C 0.19483 0.15695 0.77481
 C2968 C 0.16089 0.08475 0.75470
 C2969 C 0.21199 0.14702 0.74136
 C2970 C 0.20013 0.12690 0.74117
 C2971 C 0.17199 0.10159 0.75630
 C2972 C 0.20926 0.16252 0.75800
 H2973 H 0.17140 0.13299 0.78734
 H2974 H 0.19221 0.16852 0.78776
 H2975 H 0.22299 0.15063 0.72818
 H2976 H 0.20221 0.11552 0.72797
 C2977 C 0.31562 0.12140 0.24133
 C2978 C 0.31878 0.13646 0.22466
 C2979 C 0.30712 0.15681 0.22436
 C2980 C 0.33933 0.08403 0.24423
 C2981 C 0.28873 0.14682 0.25713
 C2982 C 0.30030 0.12657 0.25736
 C2983 C 0.32853 0.10102 0.24262
 C2984 C 0.29221 0.16241 0.24082
 H2985 H 0.33060 0.13269 0.21214
 H2986 H 0.31033 0.16844 0.21166
 H2987 H 0.27735 0.15045 0.27004
 H2988 H 0.29762 0.11512 0.27032
 C2989 C 0.81691 0.62175 0.74200
 C2990 C 0.82002 0.63682 0.72534
 C2991 C 0.80826 0.65711 0.72501
 C2992 C 0.84079 0.58450 0.74494
 C2993 C 0.78986 0.64704 0.75776
 C2994 C 0.80154 0.62685 0.75800
 C2995 C 0.82991 0.60143 0.74331
 C2996 C 0.79330 0.66265 0.74145
 H2997 H 0.83188 0.63311 0.71283
 H2998 H 0.81143 0.66876 0.71232
 H2999 H 0.77845 0.65062 0.77065
 H3000 H 0.79888 0.61539 0.77096
 C3001 C 0.87825 0.77317 0.19593
 C3002 C 0.87570 0.75952 0.21357
 C3003 C 0.85450 0.75515 0.22165
 C3004 C 0.91776 0.77526 0.17801
 C3005 C 0.83835 0.77846 0.19456
 C3006 C 0.85963 0.78276 0.18648
 C3007 C 0.89975 0.77522 0.18635
 C3008 C 0.83556 0.76437 0.21208
 H3009 H 0.89008 0.75184 0.22079
 H3010 H 0.85298 0.74435 0.23523
 H3011 H 0.82411 0.78594 0.18694
 H3012 H 0.86153 0.79315 0.17263
 C3013 C 0.37898 0.27431 0.69627
 C3014 C 0.37639 0.26071 0.71393
 C3015 C 0.35516 0.25628 0.72191
 C3016 C 0.41854 0.27633 0.67843
 C3017 C 0.33907 0.27946 0.69469
 C3018 C 0.36038 0.28382 0.68671
 C3019 C 0.40052 0.27635 0.68675
 C3020 C 0.33624 0.26539 0.71223
 H3021 H 0.39075 0.25309 0.72124
 H3022 H 0.35359 0.24551 0.73551
 H3023 H 0.32485 0.28686 0.68697
 H3024 H 0.36232 0.29417 0.67284
 C3025 C 0.38060 0.72451 0.80368
 C3026 C 0.37855 0.73761 0.78566
 C3027 C 0.35752 0.74223 0.77768
 C3028 C 0.41967 0.72279 0.82181
 C3029 C 0.34055 0.72022 0.80560
 C3030 C 0.36165 0.71566 0.81358
 C3031 C 0.40190 0.72258 0.81332
 C3032 C 0.33827 0.73384 0.78773
 H3033 H 0.39318 0.74474 0.77810
 H3034 H 0.35639 0.75263 0.76381
 H3035 H 0.32606 0.71336 0.81360
 H3036 H 0.36317 0.70574 0.82774
 C3037 C 0.88086 0.22386 0.30452
 C3038 C 0.87881 0.23681 0.28641
 C3039 C 0.85778 0.24130 0.27835
 C3040 C 0.91990 0.22237 0.32272
 C3041 C 0.84082 0.21943 0.30638
 C3042 C 0.86192 0.21501 0.31444
 C3043 C 0.90214 0.22207 0.31422
 C3044 C 0.83854 0.23292 0.28842
 H3045 H 0.89343 0.24394 0.27883
 H3046 H 0.85664 0.25160 0.26442
 H3047 H 0.82634 0.21259 0.31440
 H3048 H 0.86343 0.20520 0.32866
 C3049 C 0.12158 0.27548 0.29814
 C3050 C 0.13991 0.28444 0.30875
 C3051 C 0.16144 0.28039 0.30120
 C3052 C 0.08304 0.27258 0.31760
 C3053 C 0.14613 0.25904 0.27206
 C3054 C 0.12466 0.26316 0.27961
 C3055 C 0.10026 0.27518 0.30824
 C3056 C 0.16477 0.26713 0.28308
 H3057 H 0.13761 0.29367 0.32334
 H3058 H 0.17544 0.28705 0.30991
 H3059 H 0.14809 0.24899 0.25792
 H3060 H 0.11052 0.25586 0.27154
 C3061 C 0.62210 0.77528 0.79825
 C3062 C 0.62530 0.76309 0.77966
 C3063 C 0.64682 0.75899 0.77224
 C3064 C 0.58332 0.77245 0.81731
 C3065 C 0.66194 0.78008 0.80164
 C3066 C 0.64035 0.78410 0.80906
 C3067 C 0.60067 0.77500 0.80815
 C3068 C 0.66538 0.76697 0.78344
 H3069 H 0.61122 0.75589 0.77143
 H3070 H 0.64888 0.74906 0.75804
 H3071 H 0.67588 0.78665 0.81049
 H3072 H 0.63794 0.79323 0.82370
 C3073 C 0.61954 0.22093 0.70304
 C3074 C 0.62258 0.23248 0.72197
 C3075 C 0.64404 0.23662 0.72923
 C3076 C 0.58124 0.22497 0.68400
 C3077 C 0.65943 0.21670 0.69903
 C3078 C 0.63790 0.21264 0.69178
 C3079 C 0.59829 0.22176 0.69318
 C3080 C 0.66271 0.22933 0.71751
 H3081 H 0.60842 0.23929 0.73056
 H3082 H 0.64597 0.24614 0.74366
 H3083 H 0.67345 0.21065 0.68978
 H3084 H 0.63564 0.20403 0.67689
 C3085 C 0.11850 0.72351 0.20319
 C3086 C 0.12176 0.73492 0.22216
 C3087 C 0.14330 0.73885 0.22930
 C3088 C 0.07994 0.72752 0.18459
 C3089 C 0.15834 0.71902 0.19889
 C3090 C 0.13673 0.71517 0.19175
 C3091 C 0.09714 0.72438 0.19355
 C3092 C 0.16183 0.73147 0.21743
 H3093 H 0.10770 0.74175 0.23088
 H3094 H 0.14540 0.74824 0.24378
 H3095 H 0.17225 0.71292 0.18953
 H3096 H 0.13429 0.70667 0.17683
   
