data_POSCAR
  _audit_creation_date              2014-09-24
  _audit_creation_method            'ToBaCCo'
  _symmetry_space_group_name_H-M    'P1'
  _symmetry_Int_Tables_number       1
  _symmetry_cell_setting            triclinic
  loop_
  _symmetry_equiv_pos_as_xyz
 x,y,z
_cell_length_a 45.2963
_cell_length_b 46.0108
_cell_length_c 45.4335
_cell_angle_alpha 89.592300
_cell_angle_beta 90.162800
_cell_angle_gamma 90.096400
loop_
  _atom_site_label
  _atom_site_type_symbol
  _atom_site_fract_x
  _atom_site_fract_y
  _atom_site_fract_z
C1 C 0.31256 1.36462 0.31897
 C2 C 0.32268 1.37592 0.29238
 C3 C 0.35067 1.36882 0.28189
 C4 C 0.36723 1.34696 0.29683
 C5 C 0.35626 1.33384 0.32280
 C6 C 0.32937 1.34386 0.33455
 C7 C 0.28641 1.37518 0.33076
 C8 C 0.27757 1.36723 0.35914
 C9 C 0.29384 1.34566 0.37454
 C10 C 0.31934 1.33346 0.36199
 C11 C 0.33509 1.31132 0.37650
 C12 C 0.36080 1.29933 0.36413
 C13 C 0.37173 1.31133 0.33751
 H14 H 0.30950 1.39216 0.28092
 H15 H 0.38816 1.33962 0.28823
 H16 H 0.27394 1.39139 0.31848
 H17 H 0.28664 1.33777 0.39583
 H18 H 0.32698 1.30296 0.39734
 H19 H 0.39223 1.30354 0.32833
 C20 C 0.32948 0.86679 0.82595
 C21 C 0.34179 0.87694 0.79981
 C22 C 0.36631 0.86314 0.78753
 C23 C 0.37735 0.83763 0.80092
 C24 C 0.36472 0.82677 0.82711
 C25 C 0.34097 0.84185 0.83993
 C26 C 0.30558 0.88140 0.83804
 C27 C 0.29314 0.87228 0.86468
 C28 C 0.30466 0.84719 0.87886
 C29 C 0.32822 0.83173 0.86633
 C30 C 0.33879 0.80602 0.87940
 C31 C 0.36207 0.79032 0.86668
 C32 C 0.37508 0.80102 0.84048
 H33 H 0.33174 0.89545 0.78895
 H34 H 0.39583 0.82641 0.79106
 H35 H 0.29689 0.90046 0.82676
 H36 H 0.29487 0.83868 0.89881
 H37 H 0.32864 0.79798 0.89947
 H38 H 0.39256 0.78908 0.82984
 C39 C 0.84016 1.37305 0.83793
 C40 C 0.85540 1.38421 0.81364
 C41 C 0.88015 1.36958 0.80216
 C42 C 0.88922 1.34346 0.81569
 C43 C 0.87439 1.33232 0.84038
 C44 C 0.84974 1.34715 0.85159
 C45 C 0.81487 1.38710 0.84811
 C46 C 0.79910 1.37597 0.87206
 C47 C 0.80887 1.35023 0.88608
 C48 C 0.83412 1.33567 0.87587
 C49 C 0.84361 1.30949 0.88895
 C50 C 0.86845 1.29469 0.87810
 C51 C 0.88347 1.30620 0.85352
 H52 H 0.84664 1.40354 0.80326
 H53 H 0.90798 1.33171 0.80698
 H54 H 0.80723 1.40677 0.83722
 H55 H 0.79637 1.34094 0.90414
 H56 H 0.83158 1.30050 0.90751
 H57 H 0.90173 1.29459 0.84383
 C58 C 0.82230 0.86712 0.32465
 C59 C 0.83320 0.88273 0.30061
 C60 C 0.86042 0.87572 0.28808
 C61 C 0.87621 0.85150 0.29940
 C62 C 0.86497 0.83505 0.32308
 C63 C 0.83815 0.84327 0.33621
 C64 C 0.79559 0.87524 0.33718
 C65 C 0.78463 0.86068 0.36185
 C66 C 0.80020 0.83666 0.37362
 C67 C 0.82686 0.82745 0.36047
 C68 C 0.84217 0.80259 0.37062
 C69 C 0.86870 0.79354 0.35692
 C70 C 0.87987 0.81021 0.33339
 H71 H 0.82059 0.90096 0.29197
 H72 H 0.89651 0.84435 0.28934
 H73 H 0.78348 0.89358 0.32810
 H74 H 0.79134 0.82494 0.39239
 H75 H 0.83269 0.78996 0.38841
 H76 H 0.90019 0.80359 0.32281
 C77 C 0.66265 0.62871 0.33944
 C78 C 0.65150 0.61510 0.31435
 C79 C 0.62769 0.62697 0.29853
 C80 C 0.61442 0.65278 0.30913
 C81 C 0.62524 0.66649 0.33459
 C82 C 0.64954 0.65445 0.34970
 C83 C 0.68736 0.61725 0.35384
 C84 C 0.69931 0.63109 0.37862
 C85 C 0.68611 0.65671 0.38891
 C86 C 0.66120 0.66844 0.37471
 C87 C 0.64825 0.69425 0.38471
 C88 C 0.62359 0.70631 0.37008
 C89 C 0.61244 0.69231 0.34491
 H90 H 0.66201 0.59536 0.30669
 H91 H 0.59564 0.66248 0.29820
 H92 H 0.69785 0.59822 0.34476
 H93 H 0.69546 0.66765 0.40783
 H94 H 0.65805 0.70515 0.40336
 H95 H 0.59378 0.70167 0.33325
 C96 C 0.67189 0.13530 0.83605
 C97 C 0.66079 0.12151 0.81085
 C98 C 0.63575 0.13227 0.79606
 C99 C 0.62175 0.15740 0.80693
 C100 C 0.63262 0.17146 0.83214
 C101 C 0.65786 0.16042 0.84663
 C102 C 0.69717 0.12465 0.85046
 C103 C 0.70903 0.13905 0.87533
 C104 C 0.69500 0.16437 0.88519
 C105 C 0.66950 0.17491 0.87131
 C106 C 0.65579 0.20005 0.88162
 C107 C 0.63022 0.21093 0.86785
 C108 C 0.61901 0.19670 0.84287
 H109 H 0.67181 0.10234 0.80253
 H110 H 0.60300 0.16669 0.79549
 H111 H 0.70779 0.10583 0.84121
 H112 H 0.70382 0.17589 0.90404
 H113 H 0.66567 0.21142 0.89996
 H114 H 0.59963 0.20531 0.83180
 C115 C 1.17029 0.63221 0.82924
 C116 C 1.15960 0.61811 0.80414
 C117 C 1.13491 0.62883 0.78899
 C118 C 1.12109 0.65430 0.79882
 C119 C 1.13156 0.66864 0.82383
 C120 C 1.15624 0.65757 0.83922
 C121 C 1.19513 0.62148 0.84406
 C122 C 1.20665 0.63576 0.86905
 C123 C 1.19238 0.66127 0.87873
 C124 C 1.16723 0.67216 0.86412
 C125 C 1.15309 0.69764 0.87363
 C126 C 1.12823 0.70864 0.85835
 C127 C 1.11794 0.69414 0.83336
 H128 H 1.17050 0.59868 0.79629
 H129 H 1.10274 0.66354 0.78665
 H130 H 1.20555 0.60249 0.83501
 H131 H 1.20087 0.67274 0.89775
 H132 H 1.16194 0.70919 0.89238
 H133 H 1.09908 0.70271 0.82138
 C134 C 1.16764 0.14133 0.32842
 C135 C 1.15447 0.12835 0.30358
 C136 C 1.12958 0.14128 0.28969
 C137 C 1.11855 0.16736 0.30094
 C138 C 1.13084 0.17993 0.32595
 C139 C 1.15535 0.16696 0.33992
 C140 C 1.19300 0.12926 0.34175
 C141 C 1.20619 0.14243 0.36671
 C142 C 1.19269 0.16744 0.37843
 C143 C 1.16759 0.17982 0.36524
 C144 C 1.15466 0.20512 0.37675
 C145 C 1.12999 0.21781 0.36274
 C146 C 1.11865 0.20535 0.33717
 H147 H 1.16435 0.10884 0.29496
 H148 H 1.09968 0.17775 0.29052
 H149 H 1.20196 0.10969 0.33236
 H150 H 1.20209 0.17777 0.39771
 H151 H 1.16416 0.21518 0.39607
 H152 H 1.09980 0.21526 0.32628
 C153 C 0.67424 1.36425 0.66886
 C154 C 0.66551 1.37866 0.69450
 C155 C 0.64122 1.36888 0.71085
 C156 C 0.62561 1.34403 0.70132
 C157 C 0.63420 1.32927 0.67573
 C158 C 0.65875 1.33938 0.65957
 C159 C 0.69859 1.37416 0.65272
 C160 C 0.70815 1.35936 0.62727
 C161 C 0.69307 1.33402 0.61885
 C162 C 0.66828 1.32422 0.63450
 C163 C 0.65309 1.29930 0.62550
 C164 C 0.62797 1.28944 0.64085
 C165 C 0.61897 1.30434 0.66624
 H166 H 0.67769 1.39761 0.70183
 H167 H 0.60738 1.33554 0.71413
 H168 H 0.71054 1.39267 0.66117
 H169 H 0.70033 1.32210 0.59965
 H170 H 0.66146 1.28740 0.60686
 H171 H 0.60005 1.29651 0.67855
 C172 C 0.66645 0.86450 1.17285
 C173 C 0.65145 0.87296 1.19837
 C174 C 0.62652 0.85730 1.20873
 C175 C 0.61747 0.83253 1.19296
 C176 C 0.63213 0.82399 1.16715
 C177 C 0.65669 0.84005 1.15707
 C178 C 0.69144 0.87999 1.16320
 C179 C 0.70671 0.87166 1.13779
 C180 C 0.69684 0.84704 1.12215
 C181 C 0.67193 0.83127 1.13158
 C182 C 0.66228 0.80660 1.11615
 C183 C 0.63748 0.79072 1.12562
 C184 C 0.62275 0.79943 1.15145
 H185 H 0.66040 0.89115 1.21034
 H186 H 0.59868 0.81997 1.20062
 H187 H 0.69909 0.89866 1.17552
 H188 H 0.70887 0.83949 1.10314
 H189 H 0.67401 0.79976 1.09662
 H190 H 0.60443 0.78680 1.15991
 C191 C 1.16285 1.36570 1.17295
 C192 C 1.14779 1.37342 1.19855
 C193 C 1.12360 1.35695 1.20875
 C194 C 1.11553 1.33158 1.19339
 C195 C 1.13073 1.32328 1.16771
 C196 C 1.15426 1.34068 1.15736
 C197 C 1.18667 1.38258 1.16294
 C198 C 1.20164 1.37546 1.13695
 C199 C 1.19303 1.35012 1.12167
 C200 C 1.16975 1.33271 1.13182
 C201 C 1.16221 1.30710 1.11702
 C202 C 1.13901 1.28945 1.12694
 C203 C 1.12322 1.29772 1.15240
 H204 H 1.15561 1.39202 1.21077
 H205 H 1.09740 1.31835 1.20145
 H206 H 1.19326 1.40167 1.17524
 H207 H 1.20505 1.34271 1.10264
 H208 H 1.17447 1.30080 1.09762
 H209 H 1.10576 1.28396 1.16090
 C210 C 1.17124 0.85775 0.66606
 C211 C 1.15615 0.86958 0.69032
 C212 C 1.13216 0.85455 0.70351
 C213 C 1.12304 0.82795 0.69123
 C214 C 1.13787 0.81587 0.66714
 C215 C 1.16253 0.83042 0.65515
 C216 C 1.19503 0.87259 0.65252
 C217 C 1.21076 0.85962 0.62904
 C218 C 1.20273 0.83171 0.61996
 C219 C 1.17852 0.81752 0.63212
 C220 C 1.16974 0.79079 0.62079
 C221 C 1.14430 0.77721 0.63113
 C222 C 1.12853 0.78945 0.65469
 H223 H 1.16380 0.89003 0.69908
 H224 H 1.10447 0.81637 0.70076
 H225 H 1.20144 0.89361 0.66092
 H226 H 1.21465 0.82132 0.60219
 H227 H 1.18192 0.78113 0.60280
 H228 H 1.10920 0.77841 0.66330
 C229 C 0.33359 0.63827 0.66754
 C230 C 0.34642 0.62411 0.69219
 C231 C 0.37025 0.63715 0.70741
 C232 C 0.38109 0.66400 0.69792
 C233 C 0.36906 0.67794 0.67344
 C234 C 0.34527 0.66523 0.65809
 C235 C 0.30898 0.62650 0.65259
 C236 C 0.29614 0.64141 0.62830
 C237 C 0.30852 0.66794 0.61909
 C238 C 0.33291 0.67989 0.63366
 C239 C 0.34485 0.70662 0.62450
 C240 C 0.36888 0.71891 0.63972
 C241 C 0.38049 0.70468 0.66433
 H242 H 0.33742 0.60361 0.69989
 H243 H 0.39926 0.67410 0.70969
 H244 H 0.29954 0.60635 0.66059
 H245 H 0.29885 0.67956 0.60058
 H246 H 0.33500 0.71808 0.60603
 H247 H 0.39878 0.71437 0.67625
 C248 C 0.34519 0.12724 1.16912
 C249 C 0.36307 0.11701 1.19217
 C250 C 0.38740 0.13353 1.20236
 C251 C 0.39322 0.16054 1.18902
 C252 C 0.37602 0.17058 1.16541
 C253 C 0.35189 0.15398 1.15538
 C254 C 0.32028 0.11142 1.16010
 C255 C 0.30224 0.12168 1.13717
 C256 C 0.30929 0.14833 1.12325
 C257 C 0.33402 0.16450 1.13218
 C258 C 0.34097 0.19124 1.11866
 C259 C 0.36550 0.20750 1.12807
 C260 C 0.38245 0.19725 1.15197
 H261 H 0.35668 0.09693 1.20290
 H262 H 0.41152 0.17369 1.19681
 H263 H 0.31479 0.09107 1.17099
 H264 H 0.29509 0.15706 1.10615
 H265 H 0.32739 0.19937 1.10072
 H266 H 0.40040 0.21017 1.16070
 C267 C 0.83196 0.63555 1.17372
 C268 C 0.84737 0.62581 1.19866
 C269 C 0.87306 0.64023 1.20836
 C270 C 0.88275 0.66514 1.19289
 C271 C 0.86740 0.67530 1.16782
 C272 C 0.84192 0.66037 1.15828
 C273 C 0.80642 0.62103 1.16422
 C274 C 0.79089 0.63082 1.13934
 C275 C 0.80054 0.65596 1.12445
 C276 C 0.82593 0.67064 1.13365
 C277 C 0.83522 0.69570 1.11873
 C278 C 0.86063 0.71058 1.12760
 C279 C 0.87669 0.70034 1.15234
 H280 H 0.83862 0.60746 1.21084
 H281 H 0.90222 0.67665 1.20045
 H282 H 0.79866 0.60197 1.17608
 H283 H 0.78798 0.66466 1.10610
 H284 H 0.82269 0.70365 1.09996
 H285 H 0.89584 0.71217 1.16010
 C286 C 0.83315 0.12268 0.65575
 C287 C 0.84525 0.10899 0.68064
 C288 C 0.86712 0.12260 0.69781
 C289 C 0.87764 0.15039 0.68858
 C290 C 0.86591 0.16428 0.66334
 C291 C 0.84336 0.15038 0.64720
 C292 C 0.81016 0.10942 0.63990
 C293 C 0.79668 0.12400 0.61587
 C294 C 0.80754 0.15128 0.60734
 C295 C 0.83049 0.16447 0.62273
 C296 C 0.84001 0.19205 0.61429
 C297 C 0.86261 0.20601 0.62953
 C298 C 0.87574 0.19211 0.65416
 H299 H 0.83693 0.08776 0.68711
 H300 H 0.89477 0.16160 0.70056
 H301 H 0.80232 0.08851 0.64750
 H302 H 0.79756 0.16280 0.58889
 H303 H 0.82977 0.20281 0.59553
 H304 H 0.89283 0.20315 0.66653
 C305 C 1.37075 0.33205 0.67033
 C306 C 1.38124 0.34541 0.69609
 C307 C 1.36551 0.36858 0.70918
 C308 C 1.33914 0.37798 0.69566
 C309 C 1.32864 0.36504 0.66982
 C310 C 1.34445 0.34198 0.65712
 C311 C 1.38597 0.30858 0.65781
 C312 C 1.37547 0.29483 0.63212
 C313 C 1.34907 0.30526 0.61916
 C314 C 1.33364 0.32854 0.63148
 C315 C 1.30721 0.33828 0.61867
 C316 C 1.29156 0.36147 0.63089
 C317 C 1.30229 0.37462 0.65670
 H318 H 1.40127 0.33697 0.70578
 H319 H 1.32663 0.39561 0.70527
 H320 H 1.40609 0.30090 0.66825
 H321 H 1.33953 0.29520 0.59997
 H322 H 1.29878 0.32787 0.59900
 H323 H 1.28988 0.39180 0.66711
 C324 C 1.37157 0.83114 1.16853
 C325 C 1.38131 0.84555 1.19405
 C326 C 1.36571 0.86977 1.20509
 C327 C 1.34012 0.87913 1.19027
 C328 C 1.33013 0.86499 1.16485
 C329 C 1.34589 0.84095 1.15399
 C330 C 1.38672 0.80679 1.15749
 C331 C 1.37675 0.79237 1.13191
 C332 C 1.35074 0.80237 1.11812
 C333 C 1.33548 0.82627 1.12890
 C334 C 1.30949 0.83529 1.11502
 C335 C 1.29399 0.85926 1.12534
 C336 C 1.30430 0.87413 1.15036
 H337 H 1.40051 0.83725 1.20553
 H338 H 1.32782 0.89748 1.19869
 H339 H 1.40639 0.79916 1.16878
 H340 H 1.34109 0.79117 1.09964
 H341 H 1.30132 0.82376 1.09588
 H342 H 1.29185 0.89223 1.15904
 C343 C 0.87108 0.32105 1.16270
 C344 C 0.88590 0.33129 1.18776
 C345 C 0.87484 0.35484 1.20378
 C346 C 0.84841 0.36835 1.19430
 C347 C 0.83317 0.35825 1.16932
 C348 C 0.84448 0.33429 1.15370
 C349 C 0.88216 0.29732 1.14692
 C350 C 0.86669 0.28612 1.12232
 C351 C 0.83982 0.29912 1.11419
 C352 C 0.82883 0.32310 1.12945
 C353 C 0.80211 0.33576 1.12092
 C354 C 0.79083 0.35985 1.13580
 C355 C 0.80645 0.37116 1.16007
 H356 H 0.90608 0.32076 1.19500
 H357 H 0.83900 0.38597 1.20681
 H358 H 0.90217 0.28726 1.15495
 H359 H 0.82740 0.29067 1.09566
 H360 H 0.79001 0.32692 1.10237
 H361 H 0.79748 0.38931 1.17216
 C362 C 0.86509 0.81808 0.67638
 C363 C 0.87830 0.83000 0.70122
 C364 C 0.86758 0.85563 0.71332
 C365 C 0.84245 0.86918 0.70083
 C366 C 0.82832 0.85694 0.67607
 C367 C 0.84008 0.83141 0.66363
 C368 C 0.87676 0.79290 0.66418
 C369 C 0.86432 0.78095 0.63889
 C370 C 0.83907 0.79381 0.62621
 C371 C 0.82671 0.81890 0.63867
 C372 C 0.80107 0.83140 0.62684
 C373 C 0.78851 0.85643 0.63923
 C374 C 0.80252 0.86933 0.66381
 H375 H 0.89747 0.81953 0.71098
 H376 H 0.83360 0.88868 0.71067
 H377 H 0.89603 0.78278 0.67409
 H378 H 0.82871 0.78406 0.60716
 H379 H 0.79063 0.82141 0.60791
 H380 H 0.79312 0.88835 0.67400
 C381 C 0.63264 0.67632 0.66881
 C382 C 0.62011 0.66283 0.69341
 C383 C 0.63122 0.63645 0.70439
 C384 C 0.65528 0.62315 0.68987
 C385 C 0.66828 0.63658 0.66498
 C386 C 0.65696 0.66341 0.65473
 C387 C 0.62155 0.70293 0.65842
 C388 C 0.63485 0.71693 0.63431
 C389 C 0.65937 0.70444 0.62085
 C390 C 0.67032 0.67776 0.63069
 C391 C 0.69468 0.66555 0.61689
 C392 C 0.70603 0.63888 0.62630
 C393 C 0.69280 0.62427 0.65048
 H394 H 0.60167 0.67314 0.70436
 H395 H 0.66449 0.60305 0.69827
 H396 H 0.60312 0.71300 0.66956
 H397 H 0.66977 0.71546 0.60239
 H398 H 0.70495 0.67690 0.59855
 H399 H 0.70198 0.60400 0.65852
 C400 C 0.63677 1.17140 1.17185
 C401 C 0.62309 1.16095 1.19755
 C402 C 0.63343 1.13575 1.21184
 C403 C 0.65811 1.12121 1.20040
 C404 C 0.67193 1.13134 1.17475
 C405 C 0.66120 1.15646 1.16032
 C406 C 0.62654 1.19672 1.15777
 C407 C 0.64053 1.20769 1.13210
 C408 C 0.66475 1.19219 1.12076
 C409 C 0.67522 1.16688 1.13468
 C410 C 0.69987 1.15210 1.12365
 C411 C 0.71065 1.12698 1.13798
 C412 C 0.69665 1.11694 1.16358
 H413 H 0.60433 1.17246 1.20654
 H414 H 0.66723 1.10248 1.21170
 H415 H 0.60763 1.20728 1.16727
 H416 H 0.67585 1.20007 1.10112
 H417 H 0.71106 1.16080 1.10450
 H418 H 0.70507 1.09780 1.17484
 C419 C 0.12807 0.66840 1.16414
 C420 C 0.11317 0.65850 1.18934
 C421 C 0.12273 0.63370 1.20495
 C422 C 0.14808 0.61884 1.19455
 C423 C 0.16338 0.62872 1.16948
 C424 C 0.15334 0.65364 1.15431
 C425 C 0.11826 0.69323 1.14899
 C426 C 0.13361 0.70395 1.12406
 C427 C 0.15921 0.68934 1.11500
 C428 C 0.16896 0.66423 1.12967
 C429 C 0.19439 0.64983 1.12019
 C430 C 0.20441 0.62458 1.13473
 C431 C 0.18891 0.61438 1.15957
 H432 H 0.09391 0.67029 1.19685
 H433 H 0.15693 0.60016 1.20602
 H434 H 0.09934 0.70445 1.15775
 H435 H 0.17152 0.69738 1.09615
 H436 H 0.20666 0.65896 1.10192
 H437 H 0.19681 0.59525 1.17121
 C438 C 0.13028 1.17099 0.66442
 C439 C 0.11660 1.15967 0.68961
 C440 C 0.12650 1.13372 0.70285
 C441 C 0.15085 1.11917 0.69013
 C442 C 0.16495 1.13053 0.66505
 C443 C 0.15456 1.15646 0.65209
 C444 C 0.12041 1.19707 0.65179
 C445 C 0.13450 1.20880 0.62682
 C446 C 0.15888 1.19444 0.61488
 C447 C 0.16897 1.16834 0.62727
 C448 C 0.19372 1.15439 0.61565
 C449 C 0.20435 1.12855 0.62849
 C450 C 0.18985 1.11679 0.65319
 H451 H 0.09809 1.17129 0.69902
 H452 H 0.15988 1.09962 0.69982
 H453 H 0.10237 1.20855 0.66207
 H454 H 0.17007 1.20372 0.59593
 H455 H 0.20522 1.16440 0.59735
 H456 H 0.19822 1.09706 0.66337
 C457 C 1.37912 0.67126 0.33609
 C458 C 1.39088 0.65887 0.31081
 C459 C 1.37638 0.63619 0.29624
 C460 C 1.34970 0.62514 0.30848
 C461 C 1.33792 0.63702 0.33460
 C462 C 1.35273 0.66040 0.34820
 C463 C 1.39326 0.69505 0.34883
 C464 C 1.38157 0.70874 0.37367
 C465 C 1.35545 0.69728 0.38634
 C466 C 1.34100 0.67332 0.37364
 C467 C 1.31462 0.66258 0.38566
 C468 C 1.29962 0.63904 0.37288
 C469 C 1.31141 0.62637 0.34711
 H470 H 1.41126 0.66770 0.30190
 H471 H 1.33804 0.60731 0.29833
 H472 H 1.41334 0.70336 0.33882
 H473 H 1.34546 0.70711 0.40537
 H474 H 1.30560 0.67268 0.40517
 H475 H 1.29980 0.60883 0.33633
 C476 C 1.37758 1.17645 0.83260
 C477 C 1.38541 1.16800 0.80436
 C478 C 1.36981 1.14623 0.78996
 C479 C 1.34524 1.13305 0.80386
 C480 C 1.33650 1.14196 0.83226
 C481 C 1.35315 1.16358 0.84675
 C482 C 1.39377 1.19812 0.84651
 C483 C 1.38632 1.20753 0.87474
 C484 C 1.36191 1.19452 0.88915
 C485 C 1.34511 1.17290 0.87509
 C486 C 1.31989 1.16118 0.88856
 C487 C 1.30254 1.14008 0.87439
 C488 C 1.31121 1.13032 0.84618
 H489 H 1.40417 1.17817 0.79356
 H490 H 1.33269 1.11652 0.79242
 H491 H 1.41231 1.20795 0.83502
 H492 H 1.35482 1.20173 0.91057
 H493 H 1.31344 1.16881 0.91014
 H494 H 1.29794 1.11455 0.83453
 C495 C 0.86412 0.67190 0.82309
 C496 C 0.87238 0.65661 0.79782
 C497 C 0.85654 0.63176 0.78887
 C498 C 0.83183 0.62285 0.80513
 C499 C 0.82333 0.63788 0.83050
 C500 C 0.83955 0.66244 0.83960
 C501 C 0.87987 0.69668 0.83190
 C502 C 0.87171 0.71199 0.85721
 C503 C 0.84687 0.70257 0.87343
 C504 C 0.83081 0.67788 0.86484
 C505 C 0.80594 0.66856 0.88084
 C506 C 0.78996 0.64383 0.87217
 C507 C 0.79866 0.62886 0.84668
 H508 H 0.89072 0.66463 0.78484
 H509 H 0.81931 0.60401 0.79809
 H510 H 0.89867 0.70404 0.81912
 H511 H 0.83943 0.71474 0.89230
 H512 H 0.79905 0.68045 0.90016
 H513 H 0.78586 0.61057 0.83883
 C514 C 0.86860 1.16365 0.32833
 C515 C 0.87783 1.14845 0.30326
 C516 C 0.86241 1.12340 0.29340
 C517 C 0.83734 1.11432 0.30929
 C518 C 0.82806 1.12914 0.33455
 C519 C 0.84367 1.15391 0.34405
 C520 C 0.88372 1.18872 0.33775
 C521 C 0.87439 1.20400 0.36277
 C522 C 0.84917 1.19423 0.37800
 C523 C 0.83396 1.16930 0.36896
 C524 C 0.80892 1.15973 0.38433
 C525 C 0.79367 1.13475 0.37549
 C526 C 0.80317 1.11972 0.35031
 H527 H 0.89647 1.15716 0.29133
 H528 H 0.82503 1.09538 0.30213
 H529 H 0.90284 1.19639 0.32563
 H530 H 0.84070 1.20632 0.39648
 H531 H 0.80137 1.17161 0.40342
 H532 H 0.79088 1.10110 0.34246
 C533 C 0.62999 0.32762 0.32394
 C534 C 0.61410 0.34114 0.30140
 C535 C 0.62192 0.36888 0.29122
 C536 C 0.64676 0.38284 0.30370
 C537 C 0.66334 0.36909 0.32591
 C538 C 0.65467 0.34153 0.33649
 C539 C 0.62148 0.30016 0.33381
 C540 C 0.63661 0.28645 0.35674
 C541 C 0.66148 0.30012 0.36950
 C542 C 0.67093 0.32761 0.35910
 C543 C 0.69652 0.34125 0.37029
 C544 C 0.70583 0.36854 0.35901
 C545 C 0.68889 0.38221 0.33707
 H546 H 0.59528 0.32996 0.29186
 H547 H 0.65436 0.40366 0.29556
 H548 H 0.60249 0.28954 0.32396
 H549 H 0.67367 0.28919 0.38688
 H550 H 0.70956 0.33010 0.38686
 H551 H 0.69586 0.40315 0.32841
 C552 C 0.62540 0.83275 0.83778
 C553 C 0.60754 0.84338 0.81502
 C554 C 0.61557 0.86843 0.79950
 C555 C 0.64196 0.88300 0.80677
 C556 C 0.66017 0.87253 0.82950
 C557 C 0.65187 0.84719 0.84511
 C558 C 0.61720 0.80758 0.85294
 C559 C 0.63554 0.79558 0.87481
 C560 C 0.66176 0.81028 0.88254
 C561 C 0.67012 0.83609 0.86774
 C562 C 0.69651 0.85077 0.87475
 C563 C 0.70488 0.87634 0.85935
 C564 C 0.68669 0.88672 0.83655
 H565 H 0.58740 0.83200 0.80911
 H566 H 0.64883 0.90192 0.79420
 H567 H 0.59620 0.79757 0.84769
 H568 H 0.67579 0.80141 0.89975
 H569 H 0.71079 0.84180 0.89167
 H570 H 0.69314 0.90609 0.82441
 C571 C 0.13099 0.33582 0.83166
 C572 C 0.12199 0.35219 0.80700
 C573 C 0.13765 0.37742 0.79842
 C574 C 0.16270 0.38577 0.81436
 C575 C 0.17175 0.36986 0.83917
 C576 C 0.15583 0.34491 0.84795
 C577 C 0.11588 0.31034 0.84004
 C578 C 0.12481 0.29405 0.86492
 C579 C 0.14988 0.30355 0.88089
 C580 C 0.16529 0.32864 0.87258
 C581 C 0.19049 0.33733 0.88826
 C582 C 0.20620 0.36226 0.87983
 C583 C 0.19683 0.37829 0.85501
 H584 H 0.10329 0.34482 0.79414
 H585 H 0.17504 0.40487 0.80751
 H586 H 0.09695 0.30329 0.82724
 H587 H 0.15877 0.29104 0.89905
 H588 H 0.19799 0.32468 0.90707
 H589 H 0.20945 0.39684 0.84733
 C590 C 0.12610 0.83706 0.33030
 C591 C 0.11674 0.85242 0.30504
 C592 C 0.13116 0.87847 0.29607
 C593 C 0.15475 0.88871 0.31303
 C594 C 0.16413 0.87373 0.33815
 C595 C 0.15000 0.84779 0.34687
 C596 C 0.11229 0.81092 0.33892
 C597 C 0.12170 0.79532 0.36413
 C598 C 0.14598 0.80653 0.38040
 C599 C 0.16013 0.83245 0.37187
 C600 C 0.18480 0.84302 0.38753
 C601 C 0.19926 0.86861 0.37835
 C602 C 0.18801 0.88427 0.35425
 H603 H 0.09907 0.84308 0.29218
 H604 H 0.16615 0.90851 0.30654
 H605 H 0.09400 0.80272 0.32592
 H606 H 0.15497 0.79511 0.39920
 H607 H 0.19313 0.83110 0.40646
 H608 H 0.19777 0.90484 0.34779
 O609 O 1.11126 1.02704 1.14529
 O610 O 1.14559 1.02533 1.17980
 C611 C 1.12178 1.03583 1.16954
 C612 C 1.10650 1.05899 1.18553
 C613 C 1.11788 1.06933 1.21213
 H614 H 1.13756 1.05949 1.22147
 O615 O 0.89268 0.97296 1.14421
 O616 O 0.85828 0.97258 1.17845
 C617 C 0.88248 0.96299 1.16820
 C618 C 0.89893 0.93956 1.18355
 C619 C 0.89036 0.92922 1.21152
 H620 H 0.87195 0.93932 1.22255
 O621 O 1.03436 1.13797 1.10530
 O622 O 1.03395 1.17212 1.13911
 C623 C 1.04424 1.16177 1.11541
 C624 C 1.06816 1.17772 1.10004
 C625 C 1.07613 1.20543 1.10974
 H626 H 1.06411 1.21523 1.12773
 O627 O 0.97054 0.85682 1.10281
 O628 O 0.97002 0.82377 1.13825
 C629 C 0.96044 0.83343 1.11383
 C630 C 0.93698 0.81741 1.09848
 C631 C 0.92832 0.78994 1.10859
 H632 H 0.93972 0.78003 1.12712
 O633 O 1.15282 1.10158 1.02686
 O634 O 1.18715 1.13561 1.02689
 C635 C 1.17688 1.11176 1.03679
 C636 C 1.19262 1.09628 1.06074
 C637 C 1.22065 1.10557 1.06963
 H638 H 1.23126 1.12336 1.05797
 O639 O 0.85536 0.89639 1.02602
 O640 O 0.82081 0.86260 1.02514
 C641 C 0.83113 0.88610 1.03558
 C642 C 0.81503 0.90095 1.05961
 C643 C 0.78755 0.89032 1.06891
 H644 H 0.77766 0.87199 1.05768
 O645 O 0.97492 1.09965 1.14552
 O646 O 0.97553 1.13384 1.17928
 C647 C 0.96472 1.11052 1.16902
 C648 C 0.93936 1.09672 1.18423
 C649 C 0.92972 1.10770 1.21117
 H650 H 0.94190 1.12534 1.22125
 O651 O 1.02880 0.89706 1.14136
 O652 O 1.02764 0.86374 1.17651
 C653 C 1.03826 0.88701 1.16567
 C654 C 1.06211 0.90185 1.18171
 C655 C 1.06945 0.89212 1.20991
 H656 H 1.05670 0.87471 1.21989
 O657 O 1.14920 0.97086 1.10376
 O658 O 1.18370 0.96924 1.13813
 C659 C 1.17285 0.96019 1.11407
 C660 C 1.18753 0.93637 1.09857
 C661 C 1.21584 0.92789 1.10722
 H662 H 1.22738 0.93984 1.12425
 O663 O 0.85321 1.02904 1.10271
 O664 O 0.81816 1.02951 1.13625
 C665 C 0.82924 1.03933 1.11243
 C666 C 0.81490 1.06356 1.09616
 C667 C 0.78748 1.07459 1.10514
 H668 H 0.77599 1.06422 1.12323
 O669 O 0.89942 1.14410 1.02516
 O670 O 0.86620 1.17906 1.02513
 C671 C 0.88975 1.16784 1.03543
 C672 C 0.90581 1.18189 1.06011
 C673 C 0.89704 1.20921 1.07084
 H674 H 0.87916 1.22061 1.06003
 O675 O 1.10492 0.85007 1.02981
 O676 O 1.13892 0.81583 1.03080
 C677 C 1.11484 0.82628 1.04010
 C678 C 1.09836 0.81148 1.06379
 C679 C 1.10662 0.78389 1.07452
 H680 H 1.12462 0.77260 1.06407
 O681 O 0.89154 1.02920 1.14507
 O682 O 0.85699 1.02957 1.17912
 C683 C 0.88125 1.03923 1.16895
 C684 C 0.89787 1.06262 1.18438
 C685 C 0.88824 1.07426 1.21145
 H686 H 0.86853 1.06556 1.22157
 O687 O 1.11032 0.97088 1.14506
 O688 O 1.14439 0.96880 1.17979
 C689 C 1.12003 0.96004 1.16900
 C690 C 1.10267 0.93675 1.18378
 C691 C 1.11019 0.92616 1.21208
 H692 H 1.12881 0.93562 1.22344
 O693 O 1.02765 0.85449 1.10432
 O694 O 1.02650 0.82148 1.13980
 C695 C 1.03669 0.83072 1.11556
 C696 C 1.05976 0.81395 1.10068
 C697 C 1.06793 0.78645 1.11115
 H698 H 1.05635 0.77702 1.12978
 O699 O 0.97678 1.13928 1.10465
 O700 O 0.97690 1.17333 1.13858
 C701 C 0.96712 1.16321 1.11450
 C702 C 0.94386 1.17933 1.09835
 C703 C 0.93501 1.20662 1.10842
 H704 H 0.94600 1.21607 1.12732
 O705 O 0.85775 1.10553 1.02453
 O706 O 0.82425 1.14026 1.02399
 C707 C 0.83382 1.11623 1.03410
 C708 C 0.81728 1.10100 1.05770
 C709 C 0.78978 1.11151 1.06683
 H710 H 0.78015 1.13025 1.05588
 O711 O 1.14538 0.89006 1.03093
 O712 O 1.17962 0.85601 1.03154
 C713 C 1.16950 0.87991 1.04098
 C714 C 1.18576 0.89625 1.06385
 C715 C 1.21404 0.88752 1.07335
 H716 H 1.22438 0.86875 1.06355
 O717 O 0.97128 0.89724 1.14238
 O718 O 0.97088 0.86394 1.17757
 C719 C 0.96141 0.88760 1.16670
 C720 C 0.93818 0.90337 1.18252
 C721 C 0.92983 0.89381 1.21052
 H722 H 0.94145 0.87581 1.22081
 O723 O 1.03297 1.10004 1.14791
 O724 O 1.03320 1.13429 1.18161
 C725 C 1.04316 1.11057 1.17170
 C726 C 1.06780 1.09558 1.18699
 C727 C 1.07941 1.10583 1.21377
 H728 H 1.06850 1.12375 1.22441
 O729 O 0.85192 0.97223 1.10445
 O730 O 0.81690 0.97194 1.13801
 C731 C 0.82788 0.96188 1.11444
 C732 C 0.81327 0.93747 1.09861
 C733 C 0.78589 0.92598 1.10797
 H734 H 0.77468 0.93568 1.12645
 O735 O 1.15255 1.02721 1.10610
 O736 O 1.18719 1.02586 1.14027
 C737 C 1.17693 1.03643 1.11641
 C738 C 1.19278 1.06002 1.10038
 C739 C 1.22084 1.07005 1.10941
 H740 H 1.23166 1.05988 1.12807
 O741 O 0.89380 0.85454 1.02631
 O742 O 0.85925 0.82074 1.02588
 C743 C 0.88310 0.83086 1.03634
 C744 C 0.89851 0.81583 1.06093
 C745 C 0.88936 0.78843 1.07189
 H746 H 0.87098 0.77729 1.06167
 O747 O 1.11347 1.14237 1.02790
 O748 O 1.14748 1.17667 1.02853
 C749 C 1.12363 1.16589 1.03856
 C750 C 1.10748 1.18014 1.06317
 C751 C 1.11567 1.20786 1.07392
 H752 H 1.13381 1.21952 1.06381
 Cu753 Cu 1.12742 0.99926 1.12159
 Cu754 Cu 1.16879 0.99711 1.16295
 Cu755 Cu 0.87567 1.00089 1.12076
 Cu756 Cu 0.83395 1.00090 1.16126
 Cu757 Cu 1.00482 1.11561 1.12259
 Cu758 Cu 1.00487 1.15678 1.16304
 Cu759 Cu 0.99964 0.87979 1.11902
 Cu760 Cu 0.99864 0.83999 1.16173
 C761 C 1.08136 1.07196 1.17331
 H762 H 1.07287 1.06422 1.15247
 C763 C 1.10489 1.09293 1.22633
 C764 C 0.92298 0.92647 1.16930
 H765 H 0.92935 0.93363 1.14746
 C766 C 0.90578 0.90601 1.22498
 C767 C 1.08366 1.16536 1.07655
 H768 H 1.07746 1.14390 1.06906
 C769 C 1.09979 1.22063 1.09728
 C770 C 0.92236 0.82996 1.07447
 H771 H 0.92916 0.85129 1.06681
 C772 C 0.90448 0.77539 1.09583
 C773 C 1.17903 1.07331 1.07596
 H774 H 1.15724 1.06627 1.06918
 C775 C 1.23487 1.09296 1.09395
 C776 C 0.82755 0.92471 1.07437
 H777 H 0.84887 0.93287 1.06735
 C778 C 0.77292 0.90229 1.09312
 C779 C 0.92354 1.07402 1.17117
 H780 H 0.93088 1.06572 1.15017
 C781 C 0.90424 1.09701 1.22504
 C782 C 1.07848 0.92439 1.16885
 H783 H 1.07280 0.93176 1.14686
 C784 C 1.09342 0.90361 1.22526
 C785 C 1.17273 0.92079 1.07662
 H786 H 1.15070 0.92733 1.07005
 C787 C 1.22904 0.90338 1.09521
 C788 C 0.82953 1.07685 1.07230
 H789 H 0.85095 1.06890 1.06556
 C790 C 0.77494 1.09880 1.09069
 C791 C 0.92936 1.16720 1.07401
 H792 H 0.93595 1.14593 1.06637
 C793 C 0.91153 1.22160 1.09527
 C794 C 1.07477 0.82610 1.07685
 H795 H 1.06863 0.84757 1.06906
 C796 C 1.09141 0.77124 1.09849
 O797 O 1.11274 0.96745 0.85299
 O798 O 1.14818 0.96708 0.81986
 C799 C 1.12378 0.95731 0.82943
 C800 C 1.10847 0.93361 0.81320
 C801 C 1.11957 0.92370 0.78620
 H802 H 1.13898 0.93398 0.77686
 O803 O 0.89654 1.03028 0.84832
 O804 O 0.86216 1.03109 0.81391
 C805 C 0.88619 1.04091 0.82446
 C806 C 0.90216 1.06535 0.80957
 C807 C 0.89159 1.07819 0.78316
 H808 H 0.87156 1.06985 0.77334
 O809 O 0.97791 1.14363 0.89056
 O810 O 0.97916 1.17783 0.85633
 C811 C 0.96860 1.16763 0.88018
 C812 C 0.94484 1.18340 0.89580
 C813 C 0.93611 1.21130 0.88661
 H814 H 0.94736 1.22177 0.86835
 O815 O 1.03150 0.85357 0.88995
 O816 O 1.03121 0.81938 0.85623
 C817 C 1.04122 0.82961 0.88025
 C818 C 1.06482 0.81412 0.89700
 C819 C 1.07576 0.78700 0.88775
 H820 H 1.06616 0.77670 0.86864
 O821 O 1.14542 0.89138 0.97416
 O822 O 1.17952 0.85717 0.97476
 C823 C 1.16962 0.88116 0.96491
 C824 C 1.18631 0.89694 0.94211
 C825 C 1.21415 0.88689 0.93395
 H826 H 1.22359 0.86816 0.94510
 O827 O 0.85821 1.10616 0.96729
 O828 O 0.82462 1.14078 0.96658
 C829 C 0.83450 1.11683 0.95689
 C830 C 0.81888 1.10122 0.93294
 C831 C 0.79103 1.11040 0.92256
 H832 H 0.78048 1.12863 0.93304
 O833 O 1.03489 1.10261 0.85114
 O834 O 1.03644 1.13645 0.81660
 C835 C 1.04566 1.11249 0.82731
 C836 C 1.06963 1.09618 0.81247
 C837 C 1.08022 1.10492 0.78467
 H838 H 1.06956 1.12293 0.77363
 O839 O 0.97542 0.89483 0.84856
 O840 O 0.97421 0.86100 0.81450
 C841 C 0.96466 0.88486 0.82484
 C842 C 0.94019 0.90091 0.80996
 C843 C 0.92738 0.89073 0.78365
 H844 H 0.93616 0.87149 0.77328
 O845 O 1.15234 1.02564 0.89336
 O846 O 1.18761 1.02450 0.86006
 C847 C 1.17662 1.03538 0.88317
 C848 C 1.19189 1.06018 0.89762
 C849 C 1.21871 1.07077 0.88627
 H850 H 1.22865 1.06001 0.86761
 O851 O 0.85599 0.97230 0.88804
 O852 O 0.82143 0.97265 0.85380
 C853 C 0.83186 0.96231 0.87768
 C854 C 0.81639 0.93817 0.89360
 C855 C 0.78838 0.92772 0.88450
 H856 H 0.77738 0.93772 0.86585
 O857 O 1.11157 1.14209 0.97029
 O858 O 1.14554 1.17647 0.97080
 C859 C 1.12159 1.16609 0.96066
 C860 C 1.10576 1.18177 0.93691
 C861 C 1.11446 1.20990 0.92886
 H862 H 1.13214 1.22040 0.94093
 O863 O 0.89674 0.85697 0.96875
 O864 O 0.86213 0.82321 0.96848
 C865 C 0.88629 0.83343 0.95860
 C866 C 0.90167 0.81797 0.93454
 C867 C 0.89131 0.79074 0.92549
 H868 H 0.87298 0.78065 0.93699
 O869 O 0.89909 0.97342 0.85036
 O870 O 0.86469 0.97415 0.81594
 C871 C 0.88870 0.96402 0.82632
 C872 C 0.90379 0.94025 0.81070
 C873 C 0.89211 0.93032 0.78407
 H874 H 0.87325 0.94118 0.77421
 O875 O 1.11099 1.02426 0.85394
 O876 O 1.14618 1.02382 0.82051
 C877 C 1.12193 1.03390 0.83015
 C878 C 1.10672 1.05762 0.81399
 C879 C 1.11696 1.06666 0.78635
 H880 H 1.13549 1.05549 0.77650
 O881 O 0.97393 0.85480 0.88890
 O882 O 0.97309 0.82053 0.85526
 C883 C 0.96315 0.83130 0.87898
 C884 C 0.93848 0.81686 0.89509
 C885 C 0.92715 0.78976 0.88597
 H886 H 0.93698 0.77884 0.86741
 O887 O 1.03533 1.14335 0.89061
 O888 O 1.03663 1.17744 0.85627
 C889 C 1.04586 1.16705 0.88055
 C890 C 1.06930 1.18233 0.89724
 C891 C 1.07860 1.21056 0.88916
 H892 H 1.06791 1.22151 0.87092
 O893 O 0.85600 0.89653 0.96824
 O894 O 0.82136 0.86280 0.96770
 C895 C 0.83208 0.88645 0.95777
 C896 C 0.81677 0.90183 0.93335
 C897 C 0.78881 0.89237 0.92440
 H898 H 0.77821 0.87466 0.93619
 O899 O 1.15354 1.10384 0.96931
 O900 O 1.18774 1.13796 0.96911
 C901 C 1.17734 1.11437 0.95887
 C902 C 1.19240 1.09912 0.93417
 C903 C 1.21929 1.10947 0.92227
 H904 H 1.22947 1.12832 0.93204
 O905 O 1.03338 0.89255 0.84865
 O906 O 1.03287 0.85886 0.81444
 C907 C 1.04380 0.88205 0.82505
 C908 C 1.06948 0.89670 0.81070
 C909 C 1.08115 0.88692 0.78372
 H910 H 1.07034 0.86917 0.77250
 O911 O 0.97702 1.10433 0.85017
 O912 O 0.97852 1.13833 0.81578
 C913 C 0.96737 1.11509 0.82619
 C914 C 0.94224 1.10117 0.81068
 C915 C 0.93154 1.11336 0.78441
 H916 H 0.94265 1.13210 0.77497
 O917 O 0.85847 1.02914 0.89093
 O918 O 0.82392 1.02954 0.85665
 C919 C 0.83448 1.03914 0.88066
 C920 C 0.81903 1.06274 0.89617
 C921 C 0.79131 1.07197 0.88632
 H922 H 0.78086 1.06087 0.86806
 O923 O 1.15057 0.96856 0.89638
 O924 O 1.18604 0.96761 0.86329
 C925 C 1.17477 0.95825 0.88717
 C926 C 1.18919 0.93449 0.90403
 C927 C 1.21717 0.92399 0.89601
 H928 H 1.22894 0.93477 0.87838
 O929 O 1.10490 0.85200 0.97245
 O930 O 1.13881 0.81765 0.97333
 C931 C 1.11527 0.82841 0.96255
 C932 C 1.10043 0.81365 0.93771
 C933 C 1.11055 0.78649 0.92844
 H934 H 1.12838 0.77589 0.94031
 O935 O 0.89972 1.14500 0.96759
 O936 O 0.86644 1.17992 0.96734
 C937 C 0.89017 1.16904 0.95748
 C938 C 0.90646 1.18409 0.93356
 C939 C 0.89796 1.21198 0.92395
 H940 H 0.88023 1.22301 0.93517
 Cu941 Cu 1.12824 0.99641 0.87753
 Cu942 Cu 1.17051 0.99566 0.83766
 Cu943 Cu 0.88088 1.00123 0.87278
 Cu944 Cu 0.83964 1.00188 0.83164
 Cu945 Cu 1.12948 1.11911 0.99857
 Cu946 Cu 1.17041 1.16008 0.99884
 Cu947 Cu 1.12156 0.87421 1.00200
 Cu948 Cu 1.16259 0.83310 1.00261
 Cu949 Cu 0.88215 1.12179 0.99613
 Cu950 Cu 0.84208 1.16355 0.99573
 Cu951 Cu 0.87899 0.87942 0.99752
 Cu952 Cu 0.83739 0.83905 0.99662
 Cu953 Cu 1.00630 1.12004 0.87400
 Cu954 Cu 1.00786 1.16081 0.83269
 Cu955 Cu 1.00364 0.87733 0.87223
 Cu956 Cu 1.00277 0.83662 0.83165
 C957 C 1.08334 0.92012 0.82506
 H958 H 1.07489 0.92754 0.84598
 C959 C 1.10640 0.90032 0.77126
 C960 C 0.92766 1.07701 0.82289
 H961 H 0.93572 1.06778 0.84338
 C962 C 0.90637 1.10231 0.77034
 C963 C 0.93000 1.17010 0.91944
 H964 H 0.93637 1.14844 0.92647
 C965 C 0.91258 1.22569 0.90033
 C966 C 1.07737 0.82718 0.92208
 H967 H 1.06966 0.84829 0.92910
 C968 C 1.09881 0.77317 0.90343
 C969 C 1.17403 0.92090 0.92732
 H970 H 1.15222 0.92837 0.93335
 C971 C 1.22954 0.89974 0.91071
 C972 C 0.83255 1.07725 0.91965
 H973 H 0.85419 1.07032 0.92706
 C974 C 0.77712 1.09580 0.89901
 C975 C 1.08290 1.07234 0.82678
 H976 H 1.07521 1.06572 0.84837
 C977 C 1.10415 1.09032 0.77149
 C978 C 0.92811 0.92577 0.82329
 H979 H 0.93699 0.93333 0.84403
 C980 C 0.90312 0.90538 0.77081
 C981 C 1.17908 1.07440 0.92165
 H982 H 1.15826 1.06649 0.93025
 C983 C 1.23265 1.09540 0.89807
 C984 C 0.83026 0.92493 0.91810
 H985 H 0.85194 0.93221 0.92499
 C986 C 0.77445 0.90476 0.90008
 C987 C 1.08294 1.16826 0.92122
 H988 H 1.07630 1.14638 0.92724
 C989 C 1.10127 1.22452 0.90504
 C990 C 0.92550 0.83073 0.91945
 H991 H 0.93349 0.85184 0.92628
 C992 C 0.90348 0.77663 0.90120
 O993 O 0.96891 0.38954 0.35360
 O994 O 0.97019 0.35485 0.32045
 C995 C 0.95951 0.37863 0.32972
 C996 C 0.93553 0.39390 0.31335
 C997 C 0.92515 0.38430 0.28570
 H998 H 0.93548 0.36576 0.27551
 O999 O 1.02728 0.60653 0.35408
 O1000 O 1.02785 0.63940 0.31860
 C1001 C 1.03776 0.61593 0.32985
 C1002 C 1.06215 0.59956 0.31527
 C1003 C 1.07363 0.60837 0.28767
 H1004 H 1.06392 0.62687 0.27657
 O1005 O 0.85367 0.46405 0.39336
 O1006 O 0.81944 0.46323 0.35881
 C1007 C 0.83003 0.45331 0.38288
 C1008 C 0.81523 0.42876 0.39881
 C1009 C 0.78816 0.41703 0.38890
 H1010 H 0.77758 0.42675 0.36990
 O1011 O 1.14755 0.52706 0.39386
 O1012 O 1.18164 0.52477 0.35944
 C1013 C 1.17187 0.53594 0.38289
 C1014 C 1.18848 0.56002 0.39706
 C1015 C 1.21542 0.57000 0.38537
 H1016 H 1.22472 0.55928 0.36638
 O1017 O 0.89518 0.34958 0.47615
 O1018 O 0.86090 0.31553 0.47743
 C1019 C 0.88472 0.32573 0.46678
 C1020 C 0.89980 0.31043 0.44242
 C1021 C 0.88985 0.28314 0.43295
 H1022 H 0.87182 0.27255 0.44445
 O1023 O 1.11010 0.64093 0.46859
 O1024 O 1.14372 0.67562 0.46911
 C1025 C 1.11981 0.66508 0.45887
 C1026 C 1.10345 0.68112 0.43532
 C1027 C 1.11326 0.70865 0.42631
 H1028 H 1.13238 0.71810 0.43703
 O1029 O 0.89330 0.52341 0.35475
 O1030 O 0.85918 0.52324 0.32008
 C1031 C 0.88283 0.53386 0.33098
 C1032 C 0.89786 0.55897 0.31614
 C1033 C 0.88757 0.56919 0.28876
 H1034 H 0.86921 0.55827 0.27818
 O1035 O 1.10461 0.46948 0.35611
 O1036 O 1.13874 0.46837 0.32165
 C1037 C 1.11469 0.45891 0.33230
 C1038 C 1.09895 0.43487 0.31708
 C1039 C 1.10866 0.42534 0.28943
 H1040 H 1.12688 0.43640 0.27871
 O1041 O 1.02622 0.35354 0.39802
 O1042 O 1.02830 0.31850 0.36526
 C1043 C 1.03742 0.32996 0.38907
 C1044 C 1.06176 0.31621 0.40618
 C1045 C 1.07425 0.28991 0.39682
 H1046 H 1.06514 0.27904 0.37779
 O1047 O 0.96878 0.64763 0.39214
 O1048 O 0.96886 0.68094 0.35711
 C1049 C 0.95802 0.67072 0.38082
 C1050 C 0.93185 0.68462 0.39507
 C1051 C 0.92044 0.71182 0.38560
 H1052 H 0.93163 0.72372 0.36829
 O1053 O 0.84826 0.59871 0.46710
 O1054 O 0.81260 0.63130 0.46607
 C1055 C 0.82371 0.60762 0.45716
 C1056 C 0.80831 0.59064 0.43447
 C1057 C 0.77982 0.59844 0.42544
 H1058 H 0.76853 0.61572 0.43681
 O1059 O 1.14168 0.39699 0.48075
 O1060 O 1.17601 0.36304 0.48178
 C1061 C 1.16559 0.38647 0.47110
 C1062 C 1.18094 0.40065 0.44632
 C1063 C 1.20713 0.38852 0.43585
 H1064 H 1.21680 0.36991 0.44701
 O1065 O 0.96951 0.60497 0.35543
 O1066 O 0.96954 0.63777 0.31985
 C1067 C 0.95932 0.61434 0.33110
 C1068 C 0.93490 0.59823 0.31616
 C1069 C 0.92391 0.60802 0.28880
 H1070 H 0.93414 0.62657 0.27821
 O1071 O 1.02648 0.39107 0.35550
 O1072 O 1.02816 0.35638 0.32232
 C1073 C 1.03749 0.38049 0.33224
 C1074 C 1.06177 0.39618 0.31707
 C1075 C 1.07227 0.38666 0.28961
 H1076 H 1.06185 0.36831 0.27899
 O1077 O 1.14317 0.47036 0.39881
 O1078 O 1.17732 0.46821 0.36443
 C1079 C 1.16678 0.45941 0.38889
 C1080 C 1.18148 0.43567 0.40565
 C1081 C 1.20767 0.42294 0.39532
 H1082 H 1.21803 0.43179 0.37579
 O1083 O 0.85008 0.52073 0.39228
 O1084 O 0.81583 0.51998 0.35770
 C1085 C 0.82566 0.52979 0.38182
 C1086 C 0.80913 0.55260 0.39748
 C1087 C 0.78066 0.56091 0.38834
 H1088 H 0.77014 0.54987 0.37010
 O1089 O 0.88673 0.64083 0.46477
 O1090 O 0.85119 0.67352 0.46387
 C1091 C 0.87574 0.66416 0.45434
 C1092 C 0.89160 0.68068 0.43095
 C1093 C 0.88102 0.70783 0.42159
 H1094 H 0.86146 0.71674 0.43182
 O1095 O 1.10176 0.35697 0.48054
 O1096 O 1.13616 0.32309 0.48170
 C1097 C 1.11237 0.33331 0.47098
 C1098 C 1.09776 0.31780 0.44649
 C1099 C 1.10949 0.29133 0.43694
 H1100 H 1.12820 0.28175 0.44833
 O1101 O 1.10313 0.52672 0.35733
 O1102 O 1.13733 0.52532 0.32296
 C1103 C 1.11360 0.53609 0.33322
 C1104 C 1.09866 0.56023 0.31723
 C1105 C 1.10938 0.56918 0.28979
 H1106 H 1.12777 0.55762 0.28016
 O1107 O 0.89307 0.46619 0.35200
 O1108 O 0.85905 0.46610 0.31721
 C1109 C 0.88305 0.45643 0.32782
 C1110 C 0.89877 0.43278 0.31249
 C1111 C 0.88908 0.42330 0.28486
 H1112 H 0.87091 0.43443 0.27408
 O1113 O 1.02740 0.64655 0.39423
 O1114 O 1.02797 0.67979 0.35912
 C1115 C 1.03826 0.66968 0.38325
 C1116 C 1.06378 0.68401 0.39838
 C1117 C 1.07442 0.71165 0.38946
 H1118 H 1.06315 0.72326 0.37199
 O1119 O 0.96883 0.35085 0.39555
 O1120 O 0.97040 0.31577 0.36281
 C1121 C 0.95965 0.32650 0.38614
 C1122 C 0.93593 0.31096 0.40243
 C1123 C 0.92543 0.28369 0.39309
 H1124 H 0.93551 0.27341 0.37429
 O1125 O 1.15234 0.60274 0.46953
 O1126 O 1.18625 0.63710 0.46917
 C1127 C 1.17604 0.61339 0.45908
 C1128 C 1.19079 0.59820 0.43425
 C1129 C 1.21772 0.60807 0.42212
 H1130 H 1.22875 0.62634 0.43216
 O1131 O 0.85501 0.38934 0.47415
 O1132 O 0.82053 0.35549 0.47550
 C1133 C 0.83110 0.37866 0.46427
 C1134 C 0.81586 0.39277 0.43894
 C1135 C 0.78890 0.38162 0.42875
 H1136 H 0.77888 0.36332 0.44011
 Cu1137 Cu 0.99728 0.37474 0.37885
 Cu1138 Cu 0.99944 0.33284 0.33944
 Cu1139 Cu 0.99833 0.62343 0.37755
 Cu1140 Cu 0.99858 0.66278 0.33526
 Cu1141 Cu 0.87591 0.49365 0.37649
 Cu1142 Cu 0.83513 0.49311 0.33494
 Cu1143 Cu 1.12132 0.49855 0.37993
 Cu1144 Cu 1.16200 0.49646 0.33869
 C1145 C 0.92216 0.41821 0.32632
 H1146 H 0.92945 0.42541 0.34780
 C1147 C 0.90175 0.39906 0.27130
 C1148 C 1.07488 0.57535 0.32971
 H1149 H 1.06671 0.56864 0.35109
 C1150 C 1.09743 0.59316 0.27477
 C1151 C 0.82875 0.41642 0.42394
 H1152 H 0.84971 0.42490 0.43158
 C1153 C 0.77487 0.39322 0.40375
 C1154 C 1.17663 0.57410 0.42156
 H1155 H 1.15574 0.56663 0.43037
 C1156 C 1.23025 0.59408 0.39742
 C1157 C 0.92302 0.32399 0.42717
 H1158 H 0.93060 0.34519 0.43418
 C1159 C 0.90223 0.26969 0.40822
 C1160 C 1.07852 0.66910 0.42142
 H1161 H 1.07094 0.64774 0.42819
 C1162 C 1.09923 0.72420 0.40355
 C1163 C 0.92172 0.57361 0.32960
 H1164 H 0.92969 0.56614 0.35083
 C1165 C 0.90013 0.59374 0.27503
 C1166 C 1.07523 0.42033 0.33056
 H1167 H 1.06773 0.42740 0.35196
 C1168 C 1.09574 0.40121 0.27563
 C1169 C 1.07369 0.33003 0.43116
 H1170 H 1.06479 0.35067 0.43821
 C1171 C 1.09844 0.27765 0.41191
 C1172 C 0.91714 0.66946 0.41781
 H1173 H 0.92525 0.64844 0.42499
 C1174 C 0.89493 0.72366 0.39902
 C1175 C 0.82266 0.56751 0.42069
 H1176 H 0.84486 0.56171 0.42740
 C1177 C 0.76603 0.58409 0.40196
 C1178 C 1.16833 0.42437 0.43132
 H1179 H 1.14776 0.43344 0.43913
 C1180 C 1.22022 0.39887 0.41012
 O1181 O 1.02592 0.39986 0.65273
 O1182 O 1.02585 0.36695 0.68831
 C1183 C 1.03574 0.39037 0.67715
 C1184 C 1.05931 0.40625 0.69261
 C1185 C 1.06822 0.39710 0.72065
 H1186 H 1.05691 0.37915 0.73137
 O1187 O 0.96566 0.60761 0.63983
 O1188 O 0.96605 0.64304 0.67230
 C1189 C 0.95599 0.61893 0.66332
 C1190 C 0.93242 0.60424 0.68008
 C1191 C 0.92365 0.61472 0.70754
 H1192 H 0.93489 0.63329 0.71698
 O1193 O 0.85116 0.52763 0.60462
 O1194 O 0.81624 0.52756 0.63839
 C1195 C 0.82654 0.53672 0.61409
 C1196 C 0.80999 0.55891 0.59739
 C1197 C 0.78216 0.56757 0.60728
 H1198 H 0.77223 0.55683 0.62613
 O1199 O 1.14375 0.47449 0.61127
 O1200 O 1.17724 0.47548 0.64660
 C1201 C 1.16733 0.46485 0.62275
 C1202 C 1.18273 0.44053 0.60846
 C1203 C 1.21027 0.43100 0.61871
 H1204 H 1.22086 0.44214 0.63686
 O1205 O 1.10169 0.35678 0.53793
 O1206 O 1.13598 0.32277 0.53875
 C1207 C 1.11188 0.33309 0.54819
 C1208 C 1.09583 0.31790 0.57187
 C1209 C 1.10394 0.28981 0.58090
 H1210 H 1.12124 0.27858 0.56921
 O1211 O 0.88791 0.64153 0.52171
 O1212 O 0.85240 0.67431 0.52087
 C1213 C 0.87697 0.66516 0.53076
 C1214 C 0.89253 0.68167 0.55364
 C1215 C 0.88108 0.70812 0.56344
 H1216 H 0.86142 0.71715 0.55328
 O1217 O 0.89250 0.47489 0.64929
 O1218 O 0.85762 0.47538 0.68309
 C1219 C 0.88210 0.46599 0.67368
 C1220 C 0.89823 0.44383 0.69079
 C1221 C 0.88918 0.43607 0.71925
 H1222 H 0.87071 0.44724 0.72919
 O1223 O 1.10206 0.53199 0.64695
 O1224 O 1.13510 0.53367 0.68266
 C1225 C 1.11137 0.54286 0.67077
 C1226 C 1.09470 0.56684 0.68429
 C1227 C 1.10295 0.57758 0.71192
 H1228 H 1.12066 0.56711 0.72396
 O1229 O 0.96853 0.35855 0.61419
 O1230 O 0.96879 0.32575 0.64988
 C1231 C 0.95899 0.33498 0.62535
 C1232 C 0.93621 0.31809 0.60981
 C1233 C 0.92817 0.29051 0.62028
 H1234 H 0.93918 0.28133 0.63941
 O1235 O 1.02385 0.64400 0.59698
 O1236 O 1.02344 0.67941 0.62945
 C1237 C 1.03404 0.66787 0.60647
 C1238 C 1.05944 0.68200 0.59195
 C1239 C 1.06951 0.70856 0.60286
 H1240 H 1.05740 0.71948 0.62011
 O1241 O 0.85460 0.39129 0.53173
 O1242 O 0.82010 0.35746 0.53319
 C1243 C 0.83060 0.38145 0.54225
 C1244 C 0.81531 0.39773 0.56582
 C1245 C 0.78757 0.38855 0.57640
 H1246 H 0.77685 0.37012 0.56631
 O1247 O 1.15160 0.60303 0.52765
 O1248 O 1.18571 0.63723 0.52773
 C1249 C 1.17516 0.61380 0.53837
 C1250 C 1.18949 0.59929 0.56417
 C1251 C 1.21698 0.60876 0.57546
 H1252 H 1.22871 0.62612 0.56433
 O1253 O 1.02294 0.60739 0.64042
 O1254 O 1.02295 0.64291 0.67282
 C1255 C 1.03275 0.61867 0.66396
 C1256 C 1.05620 0.60379 0.68093
 C1257 C 1.06476 0.61426 0.70859
 H1258 H 1.05357 0.63284 0.71793
 O1259 O 0.96888 0.39904 0.65347
 O1260 O 0.96884 0.36638 0.68928
 C1261 C 0.95914 0.38979 0.67796
 C1262 C 0.93586 0.40627 0.69290
 C1263 C 0.92678 0.39875 0.72144
 H1264 H 0.93836 0.38163 0.73305
 O1265 O 1.14558 0.53088 0.60988
 O1266 O 1.17884 0.53212 0.64539
 C1267 C 1.16947 0.54094 0.62053
 C1268 C 1.18633 0.56348 0.60418
 C1269 C 1.21389 0.57278 0.61467
 H1270 H 1.22321 0.56274 0.63425
 O1271 O 0.85445 0.47133 0.60686
 O1272 O 0.81948 0.47142 0.64055
 C1273 C 0.83061 0.46107 0.61718
 C1274 C 0.81569 0.43666 0.60220
 C1275 C 0.78805 0.42737 0.61212
 H1276 H 0.77761 0.43861 0.63021
 O1277 O 1.10970 0.64127 0.52578
 O1278 O 1.14350 0.67579 0.52659
 C1279 C 1.11927 0.66514 0.53593
 C1280 C 1.10207 0.68032 0.55900
 C1281 C 1.11242 0.70645 0.57135
 H1282 H 1.13297 0.71593 0.56378
 O1283 O 0.89438 0.35098 0.53391
 O1284 O 0.86016 0.31688 0.53532
 C1285 C 0.88396 0.32778 0.54520
 C1286 C 0.89938 0.31418 0.57070
 C1287 C 0.89113 0.28667 0.58186
 H1288 H 0.87393 0.27448 0.57086
 O1289 O 1.10446 0.47557 0.65219
 O1290 O 1.13764 0.47709 0.68777
 C1291 C 1.11415 0.46653 0.67695
 C1292 C 1.09817 0.44302 0.69272
 C1293 C 1.10748 0.43292 0.72066
 H1294 H 1.12616 0.44303 0.73145
 O1295 O 0.89036 0.53122 0.64589
 O1296 O 0.85553 0.53173 0.67972
 C1297 C 0.87929 0.54195 0.66906
 C1298 C 0.89430 0.56690 0.68303
 C1299 C 0.88523 0.57799 0.71038
 H1300 H 0.86722 0.56768 0.72210
 O1301 O 0.96596 0.64602 0.59782
 O1302 O 0.96590 0.68138 0.63034
 C1303 C 0.95576 0.67001 0.60704
 C1304 C 0.93106 0.68412 0.59112
 C1305 C 0.91910 0.71047 0.60095
 H1306 H 0.92930 0.72157 0.61929
 O1307 O 1.02549 0.35831 0.61483
 O1308 O 1.02567 0.32524 0.65027
 C1309 C 1.03528 0.33481 0.62584
 C1310 C 1.05834 0.31882 0.61008
 C1311 C 1.06654 0.29075 0.61892
 H1312 H 1.05543 0.28033 0.63729
 O1313 O 1.14283 0.39614 0.53811
 O1314 O 1.17713 0.36218 0.53895
 C1315 C 1.16684 0.38595 0.54844
 C1316 C 1.18247 0.40170 0.57217
 C1317 C 1.21010 0.39229 0.58272
 H1318 H 1.22068 0.37398 0.57237
 O1319 O 0.84726 0.60207 0.52433
 O1320 O 0.81163 0.63465 0.52328
 C1321 C 0.82295 0.61178 0.53426
 C1322 C 0.80824 0.59642 0.55913
 C1323 C 0.78063 0.60554 0.57008
 H1324 H 0.76934 0.62367 0.55975
 Cu1325 Cu 0.99714 0.38231 0.63018
 Cu1326 Cu 0.99728 0.34275 0.67312
 Cu1327 Cu 0.99447 0.62272 0.61538
 Cu1328 Cu 0.99465 0.66541 0.65434
 Cu1329 Cu 0.87827 0.37359 0.50395
 Cu1330 Cu 0.83698 0.33296 0.50547
 Cu1331 Cu 1.11850 0.38018 0.50948
 Cu1332 Cu 1.15980 0.33936 0.51036
 Cu1333 Cu 0.87100 0.61741 0.49454
 Cu1334 Cu 0.82835 0.65674 0.49328
 Cu1335 Cu 1.12787 0.61837 0.49786
 Cu1336 Cu 1.16824 0.65979 0.49810
 Cu1337 Cu 0.87578 0.50129 0.62337
 Cu1338 Cu 0.83360 0.50146 0.66379
 Cu1339 Cu 1.12060 0.50312 0.62661
 Cu1340 Cu 1.16056 0.50487 0.66916
 C1341 C 1.07402 0.42948 0.67897
 H1342 H 1.06714 0.43648 0.65719
 C1343 C 1.09241 0.40984 0.73464
 C1344 C 0.91788 0.58022 0.66818
 H1345 H 0.92464 0.57222 0.64687
 C1346 C 0.90002 0.60201 0.72275
 C1347 C 0.82267 0.57303 0.57306
 H1348 H 0.84427 0.56635 0.56554
 C1349 C 0.76761 0.59110 0.59435
 C1350 C 1.16913 0.42590 0.58508
 H1351 H 1.14767 0.43300 0.57733
 C1352 C 1.22405 0.40679 0.60622
 C1353 C 1.07291 0.33212 0.58643
 H1354 H 1.06689 0.35400 0.57981
 C1355 C 1.08950 0.27622 0.60467
 C1356 C 0.91772 0.67001 0.56728
 H1357 H 0.92633 0.64933 0.55999
 C1358 C 0.89379 0.72229 0.58739
 C1359 C 0.92172 0.42901 0.67791
 H1360 H 0.92838 0.43458 0.65569
 C1361 C 0.90307 0.41337 0.73466
 C1362 C 1.07115 0.57994 0.66902
 H1363 H 1.06493 0.57205 0.64746
 C1364 C 1.08831 0.60160 0.72398
 C1365 C 0.92201 0.32962 0.58491
 H1366 H 0.92819 0.35102 0.57695
 C1367 C 0.90556 0.27478 0.60682
 C1368 C 1.07553 0.66813 0.56967
 H1369 H 1.06781 0.64749 0.56127
 C1370 C 1.09615 0.72040 0.59348
 C1371 C 0.82912 0.42193 0.57883
 H1372 H 0.85067 0.42890 0.57125
 C1373 C 0.77390 0.40332 0.59975
 C1374 C 1.17453 0.57656 0.57876
 H1375 H 1.15315 0.56952 0.57077
 C1376 C 1.22932 0.59548 0.60085
 O1377 O 0.47477 0.89191 0.35748
 O1378 O 0.47452 0.85602 0.32558
 C1379 C 0.46487 0.88051 0.33406
 C1380 C 0.44148 0.89549 0.31679
 C1381 C 0.43266 0.88456 0.28938
 H1382 H 0.44364 0.86564 0.28051
 O1383 O 0.53550 1.10523 0.35578
 O1384 O 0.53890 1.13681 0.31922
 C1385 C 0.54730 1.11343 0.33177
 C1386 C 0.57128 1.09604 0.31828
 C1387 C 0.58275 1.10454 0.29084
 H1388 H 0.57290 1.12273 0.27929
 O1389 O 0.35540 0.97334 0.38835
 O1390 O 0.32340 0.97307 0.35169
 C1391 C 0.33172 0.96393 0.37683
 C1392 C 0.31441 0.94147 0.39261
 C1393 C 0.28844 0.92985 0.38052
 H1394 H 0.28009 0.93830 0.35979
 O1395 O 0.64934 1.02066 0.40071
 O1396 O 0.68482 1.01961 0.36758
 C1397 C 0.67379 1.03008 0.39088
 C1398 C 0.68904 1.05426 0.40584
 C1399 C 0.71667 1.06368 0.39576
 H1400 H 0.72744 1.05219 0.37803
 O1401 O 0.38909 0.86444 0.47298
 O1402 O 0.35450 0.83061 0.47305
 C1403 C 0.37919 0.84025 0.46394
 C1404 C 0.39632 0.82295 0.44265
 C1405 C 0.38675 0.79490 0.43548
 H1406 H 0.36712 0.78609 0.44585
 O1407 O 0.60907 1.14275 0.47240
 O1408 O 0.64512 1.17501 0.47376
 C1409 C 0.62096 1.16596 0.46288
 C1410 C 0.60713 1.18210 0.43830
 C1411 C 0.61935 1.20843 0.42863
 H1412 H 0.63809 1.21771 0.44015
 O1413 O 0.40228 1.02624 0.34988
 O1414 O 0.37041 1.02625 0.31310
 C1415 C 0.39404 1.03569 0.32493
 C1416 C 0.41131 1.05856 0.30971
 C1417 C 0.40385 1.06624 0.28086
 H1418 H 0.38658 1.05435 0.26954
 O1419 O 0.60937 0.96442 0.35939
 O1420 O 0.64463 0.96406 0.32603
 C1421 C 0.62023 0.95445 0.33577
 C1422 C 0.60483 0.93088 0.31989
 C1423 C 0.61492 0.92165 0.29245
 H1424 H 0.63353 0.93273 0.28241
 O1425 O 0.53112 0.85315 0.40137
 O1426 O 0.53083 0.81723 0.36953
 C1427 C 0.54097 0.82880 0.39279
 C1428 C 0.56504 0.81423 0.40958
 C1429 C 0.57589 0.78701 0.40072
 H1430 H 0.56540 0.77610 0.38247
 O1431 O 0.47658 1.15054 0.38765
 O1432 O 0.48004 1.18214 0.35117
 C1433 C 0.46775 1.17363 0.37479
 C1434 C 0.44222 1.18984 0.38713
 C1435 C 0.43112 1.21528 0.37360
 H1436 H 0.44210 1.22413 0.35436
 O1437 O 0.35634 1.11116 0.45694
 O1438 O 0.32177 1.14477 0.45515
 C1439 C 0.33257 1.12104 0.44584
 C1440 C 0.31785 1.10498 0.42149
 C1441 C 0.29100 1.11484 0.40931
 H1442 H 0.28118 1.13409 0.41844
 O1443 O 0.64739 0.89444 0.48376
 O1444 O 0.68057 0.85954 0.48703
 C1445 C 0.67126 0.88291 0.47523
 C1446 C 0.68732 0.89580 0.45011
 C1447 C 0.71314 0.88271 0.43967
 H1448 H 0.72265 0.86435 0.45137
 O1449 O 0.47831 1.10667 0.35206
 O1450 O 0.48152 1.13792 0.31520
 C1451 C 0.47034 1.11505 0.32659
 C1452 C 0.44763 1.09805 0.31042
 C1453 C 0.43923 1.10579 0.28153
 H1454 H 0.44995 1.12395 0.27071
 O1455 O 0.53218 0.88961 0.35764
 O1456 O 0.53221 0.85395 0.32551
 C1457 C 0.54250 0.87801 0.33454
 C1458 C 0.56720 0.89280 0.31900
 C1459 C 0.57787 0.88343 0.29144
 H1460 H 0.56729 0.86528 0.28068
 O1461 O 0.64908 0.96387 0.40090
 O1462 O 0.68432 0.96281 0.36756
 C1463 C 0.67317 0.95333 0.39142
 C1464 C 0.68777 0.92944 0.40821
 C1465 C 0.71335 0.91560 0.39768
 H1466 H 0.72340 0.92321 0.37744
 O1467 O 0.35723 1.02996 0.38469
 O1468 O 0.32517 1.02981 0.34809
 C1469 C 0.33436 1.04042 0.37220
 C1470 C 0.31877 1.06555 0.38557
 C1471 C 0.29190 1.07571 0.37379
 H1472 H 0.28210 1.06454 0.35525
 O1473 O 0.39532 1.15280 0.45765
 O1474 O 0.36093 1.18658 0.45586
 C1475 C 0.38522 1.17634 0.44673
 C1476 C 0.40165 1.19116 0.42254
 C1477 C 0.39085 1.21660 0.40883
 H1478 H 0.37037 1.22578 0.41657
 O1479 O 0.60644 0.85530 0.48212
 O1480 O 0.63957 0.82037 0.48572
 C1481 C 0.61662 0.83101 0.47362
 C1482 C 0.60199 0.81536 0.44901
 C1483 C 0.61247 0.78814 0.43978
 H1484 H 0.63093 0.77816 0.45119
 O1485 O 0.60987 1.02149 0.35962
 O1486 O 0.64525 1.02087 0.32640
 C1487 C 0.62125 1.03146 0.33610
 C1488 C 0.60702 1.05610 0.32017
 C1489 C 0.61813 1.06523 0.29276
 H1490 H 0.63642 1.05370 0.28292
 O1491 O 0.39742 0.96937 0.34983
 O1492 O 0.36560 0.96942 0.31303
 C1493 C 0.38825 0.95877 0.32563
 C1494 C 0.40380 0.93343 0.31252
 C1495 C 0.39502 0.92182 0.28514
 H1496 H 0.37735 0.93216 0.27291
 O1497 O 0.53436 1.14772 0.39292
 O1498 O 0.53831 1.17952 0.35664
 C1499 C 0.54653 1.17009 0.38177
 C1500 C 0.57114 1.18424 0.39808
 C1501 C 0.58416 1.21039 0.38826
 H1502 H 0.57521 1.22135 0.36906
 O1503 O 0.47323 0.85490 0.40055
 O1504 O 0.47270 0.81869 0.36903
 C1505 C 0.46244 0.83098 0.39184
 C1506 C 0.43708 0.81796 0.40788
 C1507 C 0.42716 0.78979 0.40116
 H1508 H 0.43955 0.77730 0.38545
 O1509 O 0.64797 1.10162 0.47339
 O1510 O 0.68406 1.13385 0.47433
 C1511 C 0.67280 1.11072 0.46407
 C1512 C 0.68840 1.09433 0.44083
 C1513 C 0.71595 1.10379 0.43001
 H1514 H 0.72634 1.12280 0.43940
 O1515 O 0.34824 0.90365 0.46971
 O1516 O 0.31366 0.86985 0.46982
 C1517 C 0.32470 0.89294 0.45912
 C1518 C 0.31084 0.90687 0.43330
 C1519 C 0.28487 0.89547 0.42106
 H1520 H 0.27446 0.87692 0.43147
 Cu1521 Cu 0.50297 0.87593 0.38244
 Cu1522 Cu 0.50243 0.83277 0.34433
 Cu1523 Cu 0.50576 1.12466 0.37590
 Cu1524 Cu 0.51005 1.16232 0.33198
 Cu1525 Cu 0.38121 0.99962 0.37183
 Cu1526 Cu 0.34304 0.99971 0.32775
 Cu1527 Cu 0.62587 0.99250 0.38349
 Cu1528 Cu 0.66825 0.99178 0.34354
 C1529 C 0.42712 0.92006 0.32804
 H1530 H 0.43374 0.92844 0.34928
 C1531 C 0.40939 0.89724 0.27345
 C1532 C 0.58345 1.07163 0.33278
 H1533 H 0.57500 1.06512 0.35412
 C1534 C 0.60647 1.08959 0.27815
 C1535 C 0.32510 0.93014 0.41926
 H1536 H 0.34539 0.93865 0.42850
 C1537 C 0.27338 0.90699 0.39473
 C1538 C 0.67520 1.06949 0.42860
 H1539 H 0.65372 1.06241 0.43626
 C1540 C 0.73006 1.08857 0.40725
 C1541 C 0.42162 0.83430 0.42890
 H1542 H 0.42883 0.85616 0.43402
 C1543 C 0.40165 0.77819 0.41466
 C1544 C 0.58285 1.17040 0.42322
 H1545 H 0.57360 1.14989 0.43060
 C1546 C 0.60845 1.22250 0.40354
 C1547 C 0.43351 1.07430 0.32430
 H1548 H 0.43916 1.06855 0.34678
 C1549 C 0.41709 1.08996 0.26678
 C1550 C 0.58084 0.91659 0.33278
 H1551 H 0.57323 0.92363 0.35416
 C1552 C 0.60185 0.89802 0.27792
 C1553 C 0.57819 0.82812 0.43380
 H1554 H 0.57021 0.84923 0.44051
 C1555 C 0.59987 0.77390 0.41549
 C1556 C 0.42753 1.17842 0.41177
 H1557 H 0.43572 1.15869 0.42203
 C1558 C 0.40561 1.22916 0.38441
 C1559 C 0.33134 1.08020 0.40958
 H1560 H 0.35216 1.07269 0.41858
 C1561 C 0.27759 1.10025 0.38543
 C1562 C 0.67509 0.91935 0.43453
 H1563 H 0.65499 0.92928 0.44246
 C1564 C 0.72595 0.89197 0.41327
 O1565 O 0.51957 0.90144 0.65324
 O1566 O 0.51676 0.86820 0.68834
 C1567 C 0.52766 0.89163 0.67820
 C1568 C 0.55034 0.90778 0.69497
 C1569 C 0.55917 0.89919 0.72346
 H1570 H 0.54867 0.88071 0.73398
 O1571 O 0.46557 1.11343 0.64385
 O1572 O 0.46455 1.14859 0.67654
 C1573 C 0.45462 1.12464 0.66687
 C1574 C 0.42973 1.10954 0.68172
 C1575 C 0.41870 1.11847 0.70924
 H1576 H 0.42896 1.13654 0.72049
 O1577 O 0.35116 1.03794 0.59723
 O1578 O 0.31527 1.04028 0.62984
 C1579 C 0.32702 1.04883 0.60585
 C1580 C 0.31254 1.07195 0.58816
 C1581 C 0.28450 1.08187 0.59622
 H1582 H 0.27317 1.07113 0.61416
 O1583 O 0.63903 0.97199 0.61874
 O1584 O 0.67206 0.97306 0.65448
 C1585 C 0.66238 0.96201 0.63078
 C1586 C 0.67834 0.93732 0.61708
 C1587 C 0.70523 0.92717 0.62893
 H1588 H 0.71455 0.93760 0.64815
 O1589 O 0.60195 0.85767 0.53909
 O1590 O 0.63513 0.82277 0.54269
 C1591 C 0.61080 0.83399 0.55048
 C1592 C 0.59313 0.81989 0.57373
 C1593 C 0.60136 0.79268 0.58495
 H1594 H 0.61950 0.78117 0.57490
 O1595 O 0.39544 1.15109 0.51539
 O1596 O 0.36108 1.18493 0.51387
 C1597 C 0.38466 1.17458 0.52510
 C1598 C 0.39905 1.18947 0.55035
 C1599 C 0.38791 1.21603 0.56048
 H1600 H 0.36954 1.22609 0.54898
 O1601 O 0.38645 0.98125 0.64229
 O1602 O 0.35068 0.98314 0.67505
 C1603 C 0.37470 0.97216 0.66598
 C1604 C 0.38899 0.94809 0.68250
 C1605 C 0.37748 0.93773 0.70937
 H1606 H 0.35812 0.94784 0.71877
 O1607 O 0.59983 1.03369 0.65262
 O1608 O 0.63300 1.03477 0.68820
 C1609 C 0.60982 1.04491 0.67619
 C1610 C 0.59446 1.07019 0.68943
 C1611 C 0.60386 1.08187 0.71651
 H1612 H 0.62183 1.07152 0.72825
 O1613 O 0.46385 0.86338 0.60956
 O1614 O 0.46082 0.82961 0.64416
 C1615 C 0.45248 0.84010 0.61957
 C1616 C 0.42886 0.82561 0.60263
 C1617 C 0.41882 0.79779 0.61071
 H1618 H 0.42935 0.78634 0.62879
 O1619 O 0.52582 1.14930 0.60375
 O1620 O 0.52526 1.18492 0.63595
 C1621 C 0.53639 1.17298 0.61340
 C1622 C 0.56250 1.18606 0.59872
 C1623 C 0.57399 1.21289 0.60811
 H1624 H 0.56286 1.22476 0.62530
 O1625 O 0.34555 0.90502 0.52708
 O1626 O 0.31111 0.87109 0.52728
 C1627 C 0.32132 0.89492 0.53687
 C1628 C 0.30576 0.91063 0.56055
 C1629 C 0.27972 0.89956 0.57329
 H1630 H 0.26965 0.88046 0.56383
 O1631 O 0.64598 1.10063 0.53047
 O1632 O 0.68251 1.13241 0.53133
 C1633 C 0.67062 1.10912 0.54067
 C1634 C 0.68516 1.09202 0.56411
 C1635 C 0.71496 1.09661 0.57117
 H1636 H 0.72765 1.11156 0.55778
 O1637 O 0.52308 1.11123 0.64547
 O1638 O 0.52236 1.14660 0.67795
 C1639 C 0.53254 1.12243 0.66918
 C1640 C 0.55629 1.10768 0.68616
 C1641 C 0.56588 1.11887 0.71324
 H1642 H 0.55508 1.13780 0.72230
 O1643 O 0.46292 0.90433 0.64772
 O1644 O 0.45987 0.87082 0.68258
 C1645 C 0.45126 0.89461 0.67112
 C1646 C 0.42686 0.91053 0.68481
 C1647 C 0.41553 0.90086 0.71170
 H1648 H 0.42642 0.88321 0.72319
 O1649 O 0.63943 1.02792 0.61202
 O1650 O 0.67301 1.02888 0.64731
 C1651 C 0.66385 1.03689 0.62206
 C1652 C 0.68164 1.05693 0.60421
 C1653 C 0.71123 1.06194 0.61134
 H1654 H 0.72110 1.05074 0.62999
 O1655 O 0.34679 0.98176 0.60132
 O1656 O 0.31109 0.98435 0.63414
 C1657 C 0.32200 0.97325 0.61121
 C1658 C 0.30627 0.94931 0.59679
 C1659 C 0.28035 0.93813 0.60927
 H1660 H 0.27104 0.94823 0.62862
 O1661 O 0.60744 1.14255 0.52976
 O1662 O 0.64369 1.17456 0.53110
 C1663 C 0.61868 1.16566 0.54010
 C1664 C 0.60270 1.18224 0.56300
 C1665 C 0.61349 1.20923 0.57242
 H1666 H 0.63323 1.21826 0.56245
 O1667 O 0.38706 0.86645 0.52973
 O1668 O 0.35263 0.83244 0.52952
 C1669 C 0.37653 0.84281 0.53969
 C1670 C 0.39195 0.82714 0.56348
 C1671 C 0.38256 0.79923 0.57151
 H1672 H 0.36452 0.78896 0.55975
 O1673 O 0.59520 0.97731 0.65496
 O1674 O 0.62815 0.97823 0.69080
 C1675 C 0.60412 0.96877 0.67997
 C1676 C 0.58702 0.94660 0.69593
 C1677 C 0.59504 0.93842 0.72447
 H1678 H 0.61284 0.94975 0.73558
 O1679 O 0.38800 1.03779 0.64106
 O1680 O 0.35213 1.03955 0.67376
 C1681 C 0.37691 1.04827 0.66432
 C1682 C 0.39242 1.07133 0.68034
 C1683 C 0.38227 1.07982 0.70798
 H1684 H 0.36389 1.06846 0.71813
 O1685 O 0.46803 1.15001 0.60003
 O1686 O 0.46722 1.18541 0.63244
 C1687 C 0.45794 1.17426 0.60858
 C1688 C 0.43460 1.18927 0.59111
 C1689 C 0.42305 1.21591 0.60078
 H1690 H 0.43238 1.22554 0.62027
 O1691 O 0.52110 0.86220 0.61258
 O1692 O 0.51811 0.82874 0.64748
 C1693 C 0.52964 0.83838 0.62392
 C1694 C 0.55361 0.82208 0.60988
 C1695 C 0.56225 0.79490 0.62106
 H1696 H 0.55078 0.78534 0.63967
 O1697 O 0.64427 0.89540 0.54150
 O1698 O 0.67768 0.86073 0.54485
 C1699 C 0.66715 0.88471 0.55373
 C1700 C 0.68097 0.89989 0.57914
 C1701 C 0.70788 0.89015 0.59127
 H1702 H 0.71925 0.87247 0.58066
 O1703 O 0.35388 1.11250 0.51463
 O1704 O 0.31931 1.14615 0.51286
 C1705 C 0.32959 1.12278 0.52387
 C1706 C 0.31359 1.10792 0.54822
 C1707 C 0.28564 1.11781 0.55707
 H1708 H 0.27534 1.13584 0.54552
 Cu1709 Cu 0.49237 0.88617 0.62721
 Cu1710 Cu 0.48859 0.84589 0.66918
 Cu1711 Cu 0.49555 1.12749 0.62006
 Cu1712 Cu 0.49470 1.17002 0.65887
 Cu1713 Cu 0.37077 0.88856 0.49988
 Cu1714 Cu 0.32940 0.84763 0.49989
 Cu1715 Cu 0.62181 0.87930 0.51129
 Cu1716 Cu 0.66168 0.83745 0.51550
 Cu1717 Cu 0.37865 1.12858 0.48616
 Cu1718 Cu 0.33738 1.16897 0.48428
 Cu1719 Cu 0.62398 1.11866 0.50145
 Cu1720 Cu 0.66741 1.15728 0.50289
 Cu1721 Cu 0.37178 1.00944 0.61720
 Cu1722 Cu 0.32869 1.01224 0.65648
 Cu1723 Cu 0.61501 1.00263 0.63112
 Cu1724 Cu 0.65482 1.00394 0.67388
 C1725 C 0.56432 0.93163 0.68157
 H1726 H 0.55831 0.93790 0.65933
 C1727 C 0.58172 0.91454 0.73817
 C1728 C 0.41632 1.08591 0.66756
 H1729 H 0.42398 1.07924 0.64607
 C1730 C 0.39482 1.10344 0.72242
 C1731 C 0.32687 1.08489 0.56393
 H1732 H 0.34867 1.07750 0.55776
 C1733 C 0.27112 1.10522 0.58129
 C1734 C 0.66653 0.92354 0.59216
 H1735 H 0.64570 0.93100 0.58312
 C1736 C 0.72015 0.90346 0.61645
 C1737 C 0.56905 0.83436 0.58612
 H1738 H 0.56285 0.85563 0.57781
 C1739 C 0.58643 0.78039 0.60908
 C1740 C 0.42259 1.17634 0.56573
 H1741 H 0.43100 1.15558 0.55844
 C1742 C 0.39946 1.22942 0.58575
 C1743 C 0.41375 0.93427 0.67046
 H1744 H 0.42244 0.94153 0.64946
 C1745 C 0.39046 0.91376 0.72381
 C1746 C 0.57060 1.08324 0.67457
 H1747 H 0.56351 1.07469 0.65355
 C1748 C 0.58977 1.10641 0.72851
 C1749 C 0.41534 0.84011 0.57886
 H1750 H 0.42249 0.86182 0.57281
 C1751 C 0.39548 0.78466 0.59523
 C1752 C 0.57701 1.17096 0.57611
 H1753 H 0.56864 1.15005 0.56909
 C1754 C 0.59956 1.22453 0.59506
 C1755 C 0.31860 0.93571 0.57231
 H1756 H 0.33897 0.94409 0.56309
 C1757 C 0.26724 0.91295 0.59827
 C1758 C 0.66877 1.07184 0.58048
 H1759 H 0.64564 1.06844 0.57536
 C1760 C 0.72801 1.08199 0.59527
 O1761 O 0.47538 0.38885 0.86126
 O1762 O 0.47598 0.35289 0.82942
 C1763 C 0.46545 0.37690 0.83810
 C1764 C 0.44115 0.39080 0.82128
 C1765 C 0.43186 0.37922 0.79430
 H1766 H 0.44301 0.36033 0.78556
 O1767 O 0.53199 0.59868 0.84641
 O1768 O 0.53223 0.63081 0.81021
 C1769 C 0.54262 0.60792 0.82222
 C1770 C 0.56787 0.59228 0.80860
 C1771 C 0.57980 0.60141 0.78146
 H1772 H 0.56927 0.61904 0.76960
 O1773 O 0.35695 0.46763 0.89396
 O1774 O 0.32266 0.46550 0.85945
 C1775 C 0.33284 0.45736 0.88422
 C1776 C 0.31672 0.43521 0.90141
 C1777 C 0.28790 0.42757 0.89346
 H1778 H 0.27705 0.43881 0.87539
 O1779 O 0.64756 0.52596 0.89657
 O1780 O 0.68338 0.52505 0.86384
 C1781 C 0.67159 0.53615 0.88657
 C1782 C 0.68552 0.56170 0.90093
 C1783 C 0.71292 0.57201 0.89106
 H1784 H 0.72432 0.56058 0.87369
 O1785 O 0.39646 0.35549 0.97911
 O1786 O 0.36283 0.32072 0.97888
 C1787 C 0.38734 0.33102 0.97020
 C1788 C 0.40517 0.31435 0.94938
 C1789 C 0.39735 0.28569 0.94294
 H1790 H 0.37861 0.27571 0.95389
 O1791 O 0.60237 0.64750 0.96719
 O1792 O 0.63590 0.68227 0.96684
 C1793 C 0.61264 0.67091 0.95631
 C1794 C 0.59829 0.68425 0.93022
 C1795 C 0.60961 0.71007 0.91791
 H1796 H 0.62805 0.72065 0.92852
 O1797 O 0.39773 0.52104 0.84953
 O1798 O 0.36360 0.51843 0.81493
 C1799 C 0.38748 0.52913 0.82477
 C1800 C 0.40270 0.55212 0.80779
 C1801 C 0.39109 0.56148 0.78072
 H1802 H 0.37195 0.55071 0.77141
 O1803 O 0.61085 0.46623 0.85739
 O1804 O 0.64619 0.46495 0.82418
 C1805 C 0.62188 0.45531 0.83430
 C1806 C 0.60613 0.43090 0.81973
 C1807 C 0.61476 0.42022 0.79200
 H1808 H 0.63300 0.43037 0.78052
 O1809 O 0.53452 0.35309 0.90385
 O1810 O 0.53507 0.31736 0.87174
 C1811 C 0.54509 0.32918 0.89489
 C1812 C 0.56973 0.31524 0.91106
 C1813 C 0.58074 0.28832 0.90183
 H1814 H 0.56988 0.27718 0.88393
 O1815 O 0.47259 0.63891 0.88368
 O1816 O 0.47296 0.67157 0.84794
 C1817 C 0.46254 0.66215 0.87220
 C1818 C 0.43825 0.67811 0.88701
 C1819 C 0.42897 0.70533 0.87630
 H1820 H 0.44004 0.71493 0.85747
 O1821 O 0.35377 0.60324 0.96308
 O1822 O 0.31911 0.63676 0.96070
 C1823 C 0.32992 0.61288 0.95197
 C1824 C 0.31525 0.59658 0.92801
 C1825 C 0.28796 0.60589 0.91654
 H1826 H 0.27723 0.62423 0.92657
 O1827 O 0.65055 0.39706 0.98272
 O1828 O 0.68603 0.36432 0.98472
 C1829 C 0.67506 0.38734 0.97364
 C1830 C 0.69061 0.40225 0.94933
 C1831 C 0.71867 0.39273 0.94101
 H1832 H 0.72937 0.37542 0.95334
 O1833 O 0.47406 0.59813 0.84456
 O1834 O 0.47395 0.63048 0.80855
 C1835 C 0.46394 0.60721 0.82004
 C1836 C 0.43963 0.59088 0.80553
 C1837 C 0.42722 0.60039 0.77868
 H1838 H 0.43649 0.61917 0.76755
 O1839 O 0.53302 0.39080 0.86145
 O1840 O 0.53344 0.35512 0.82927
 C1841 C 0.54309 0.37950 0.83815
 C1842 C 0.56684 0.39442 0.82168
 C1843 C 0.57531 0.38445 0.79395
 H1844 H 0.56354 0.36641 0.78409
 O1845 O 0.65040 0.46912 0.89900
 O1846 O 0.68605 0.46798 0.86612
 C1847 C 0.67505 0.45920 0.89029
 C1848 C 0.69064 0.43680 0.90819
 C1849 C 0.71873 0.42658 0.89994
 H1850 H 0.72959 0.43611 0.88101
 O1851 O 0.35654 0.52407 0.88893
 O1852 O 0.32238 0.52178 0.85434
 C1853 C 0.33257 0.53326 0.87764
 C1854 C 0.31673 0.55784 0.89152
 C1855 C 0.28951 0.56751 0.88029
 H1856 H 0.27976 0.55647 0.86164
 O1857 O 0.39428 0.64305 0.96156
 O1858 O 0.35985 0.67679 0.95930
 C1859 C 0.38399 0.66617 0.95000
 C1860 C 0.39994 0.68029 0.92499
 C1861 C 0.39100 0.70757 0.91380
 H1862 H 0.37316 0.71883 0.92455
 O1863 O 0.61134 0.35632 0.98277
 O1864 O 0.64657 0.32331 0.98441
 C1865 C 0.62252 0.33282 0.97351
 C1866 C 0.60766 0.31690 0.94937
 C1867 C 0.61847 0.29000 0.93970
 H1868 H 0.63749 0.28034 0.95045
 O1869 O 0.61019 0.52290 0.85361
 O1870 O 0.64583 0.52175 0.82068
 C1871 C 0.62136 0.53186 0.82954
 C1872 C 0.60621 0.55493 0.81221
 C1873 C 0.61771 0.56433 0.78505
 H1874 H 0.63715 0.55392 0.77615
 O1875 O 0.39701 0.46446 0.85361
 O1876 O 0.36293 0.46185 0.81897
 C1877 C 0.38683 0.45272 0.83044
 C1878 C 0.40272 0.42781 0.81729
 C1879 C 0.39376 0.41596 0.79018
 H1880 H 0.37582 0.42623 0.77839
 O1881 O 0.53013 0.64048 0.88456
 O1882 O 0.53069 0.67283 0.84855
 C1883 C 0.54015 0.66389 0.87338
 C1884 C 0.56340 0.68045 0.88924
 C1885 C 0.57508 0.70625 0.87727
 H1886 H 0.56640 0.71459 0.85663
 O1887 O 0.47713 0.35167 0.90451
 O1888 O 0.47781 0.31559 0.87279
 C1889 C 0.46787 0.32701 0.89612
 C1890 C 0.44462 0.31205 0.91322
 C1891 C 0.43653 0.28325 0.90696
 H1892 H 0.44895 0.27138 0.89070
 O1893 O 0.64301 0.60816 0.96893
 O1894 O 0.67679 0.64272 0.96807
 C1895 C 0.66696 0.61851 0.95874
 C1896 C 0.68318 0.60233 0.93557
 C1897 C 0.71055 0.61248 0.92492
 H1898 H 0.72027 0.63183 0.93429
 O1899 O 0.35455 0.39342 0.97479
 O1900 O 0.32063 0.35894 0.97442
 C1901 C 0.33105 0.38259 0.96420
 C1902 C 0.31594 0.39785 0.93976
 C1903 C 0.28724 0.38994 0.93104
 H1904 H 0.27577 0.37264 0.94257
 Cu1905 Cu 0.50486 0.37473 0.88597
 Cu1906 Cu 0.50559 0.33166 0.84755
 Cu1907 Cu 0.50220 0.61576 0.86825
 Cu1908 Cu 0.50248 0.65459 0.82518
 Cu1909 Cu 0.38053 0.49455 0.87494
 Cu1910 Cu 0.33948 0.49163 0.83341
 Cu1911 Cu 0.62621 0.49598 0.87987
 Cu1912 Cu 0.66900 0.49478 0.84052
 C1913 C 0.42655 0.41515 0.83250
 H1914 H 0.43341 0.42394 0.85350
 C1915 C 0.40816 0.39140 0.77852
 C1916 C 0.58120 0.56890 0.82364
 H1917 H 0.57254 0.56202 0.84477
 C1918 C 0.60506 0.58777 0.76967
 C1919 C 0.33047 0.42056 0.92484
 H1920 H 0.35283 0.42637 0.93098
 C1921 C 0.27316 0.40488 0.90785
 C1922 C 0.67092 0.57687 0.92340
 H1923 H 0.64965 0.56917 0.93101
 C1924 C 0.72548 0.59741 0.90256
 C1925 C 0.42899 0.32733 0.93473
 H1926 H 0.43465 0.34974 0.93933
 C1927 C 0.41237 0.27016 0.92142
 C1928 C 0.57499 0.66982 0.91593
 H1929 H 0.56653 0.64968 0.92510
 C1930 C 0.59808 0.72131 0.89145
 C1931 C 0.42719 0.56659 0.81978
 H1932 H 0.43593 0.55954 0.84087
 C1933 C 0.40265 0.58588 0.76638
 C1934 C 0.58210 0.41780 0.83422
 H1935 H 0.57562 0.42538 0.85577
 C1936 C 0.59923 0.39690 0.77898
 C1937 C 0.58319 0.32928 0.93493
 H1938 H 0.57496 0.35022 0.94189
 C1939 C 0.60540 0.27573 0.91571
 C1940 C 0.42370 0.66590 0.91148
 H1941 H 0.43052 0.64478 0.91968
 C1942 C 0.40536 0.72027 0.88929
 C1943 C 0.32930 0.57244 0.91550
 H1944 H 0.35048 0.56540 0.92405
 C1945 C 0.27492 0.59160 0.89244
 C1946 C 0.67684 0.42451 0.93305
 H1947 H 0.65496 0.43167 0.93923
 C1948 C 0.73272 0.40426 0.91622
 O1949 O 0.52872 0.40170 1.14756
 O1950 O 0.52869 0.36996 1.18417
 C1951 C 0.53806 0.39346 1.17262
 C1952 C 0.56058 0.41100 1.18815
 C1953 C 0.57000 0.40305 1.21653
 H1954 H 0.55907 0.38519 1.22757
 O1955 O 0.46343 0.60757 1.14426
 O1956 O 0.46194 0.64247 1.17719
 C1957 C 0.45244 0.61834 1.16752
 C1958 C 0.42806 0.60266 1.18292
 C1959 C 0.41607 0.61279 1.20964
 H1960 H 0.42498 0.63244 1.21907
 O1961 O 0.35024 0.52919 1.10125
 O1962 O 0.31507 0.53007 1.13468
 C1963 C 0.32631 0.53974 1.11082
 C1964 C 0.31192 0.56392 1.09430
 C1965 C 0.28455 0.57492 1.10347
 H1966 H 0.27343 0.56471 1.12187
 O1967 O 0.64733 0.48006 1.11159
 O1968 O 0.68078 0.48230 1.14686
 C1969 C 0.67101 0.47077 1.12348
 C1970 C 0.68668 0.44567 1.11047
 C1971 C 0.71323 0.43536 1.12286
 H1972 H 0.72301 0.44642 1.14149
 O1973 O 0.61140 0.35606 1.03996
 O1974 O 0.64656 0.32302 1.04190
 C1975 C 0.62207 0.33282 1.05088
 C1976 C 0.60588 0.31787 1.07482
 C1977 C 0.61590 0.29153 1.08732
 H1978 H 0.63565 0.28172 1.07862
 O1979 O 0.39271 0.64580 1.01922
 O1980 O 0.35821 0.67948 1.01705
 C1981 C 0.38196 0.66964 1.02815
 C1982 C 0.39673 0.68529 1.05248
 C1983 C 0.38687 0.71275 1.06155
 H1984 H 0.36885 0.72315 1.04983
 O1985 O 0.38870 0.47245 1.14350
 O1986 O 0.35382 0.47209 1.17723
 C1987 C 0.37809 0.46228 1.16727
 C1988 C 0.39424 0.43850 1.18281
 C1989 C 0.38351 0.42591 1.20915
 H1990 H 0.36345 0.43420 1.21882
 O1991 O 0.60525 0.53816 1.14762
 O1992 O 0.63868 0.54042 1.18291
 C1993 C 0.61460 0.54910 1.17159
 C1994 C 0.59720 0.57222 1.18609
 C1995 C 0.60644 0.58460 1.21291
 H1996 H 0.62673 0.57707 1.22289
 O1997 O 0.47350 0.35781 1.10869
 O1998 O 0.47335 0.32583 1.14513
 C1999 C 0.46347 0.33473 1.12046
 C2000 C 0.43932 0.31876 1.10573
 C2001 C 0.43114 0.29084 1.11516
 H2002 H 0.44341 0.28032 1.13277
 O2003 O 0.52242 0.64580 1.10325
 O2004 O 0.52106 0.68075 1.13619
 C2005 C 0.53205 0.66987 1.11298
 C2006 C 0.55669 0.68517 1.09771
 C2007 C 0.56677 0.71200 1.10827
 H2008 H 0.55588 0.72182 1.12694
 O2009 O 0.35176 0.39580 1.03156
 O2010 O 0.31818 0.36099 1.03129
 C2011 C 0.32743 0.38533 1.04046
 C2012 C 0.31007 0.40131 1.06226
 C2013 C 0.28203 0.39156 1.07038
 H2014 H 0.27258 0.37276 1.05956
 O2015 O 0.64334 0.60997 1.02605
 O2016 O 0.67718 0.64449 1.02524
 C2017 C 0.66728 0.62078 1.03570
 C2018 C 0.68327 0.60604 1.05989
 C2019 C 0.71122 0.61577 1.06879
 H2020 H 0.72171 0.63364 1.05715
 O2021 O 0.52129 0.60749 1.14501
 O2022 O 0.51966 0.64242 1.17796
 C2023 C 0.53060 0.61886 1.16864
 C2024 C 0.55536 0.60546 1.18482
 C2025 C 0.56454 0.61722 1.21164
 H2026 H 0.55212 0.63489 1.22123
 O2027 O 0.47135 0.39977 1.14575
 O2028 O 0.47177 0.36777 1.18213
 C2029 C 0.46107 0.39032 1.16997
 C2030 C 0.43566 0.40450 1.18401
 C2031 C 0.42515 0.39301 1.21050
 H2032 H 0.43675 0.37519 1.22111
 O2033 O 0.64487 0.53666 1.10626
 O2034 O 0.67847 0.53891 1.14140
 C2035 C 0.66847 0.54733 1.11659
 C2036 C 0.68384 0.57027 1.09974
 C2037 C 0.71172 0.58033 1.10853
 H2038 H 0.72269 0.57010 1.12707
 O2039 O 0.34655 0.47281 1.10480
 O2040 O 0.31134 0.47323 1.13820
 C2041 C 0.32215 0.46318 1.11471
 C2042 C 0.30717 0.43930 1.09907
 C2043 C 0.27911 0.42898 1.10757
 H2044 H 0.26740 0.43968 1.12513
 O2045 O 0.60143 0.64826 1.02532
 O2046 O 0.63508 0.68290 1.02512
 C2047 C 0.61139 0.67202 1.03549
 C2048 C 0.59562 0.68646 1.06020
 C2049 C 0.60564 0.71319 1.07165
 H2050 H 0.62435 0.72398 1.06160
 O2051 O 0.39263 0.35674 1.03562
 O2052 O 0.35927 0.32174 1.03548
 C2053 C 0.38274 0.33289 1.04585
 C2054 C 0.39905 0.31816 1.06990
 C2055 C 0.39091 0.29026 1.07977
 H2056 H 0.37264 0.27914 1.06934
 O2057 O 0.60339 0.48200 1.14723
 O2058 O 0.63653 0.48387 1.18288
 C2059 C 0.61295 0.47332 1.17197
 C2060 C 0.59704 0.45010 1.18779
 C2061 C 0.60637 0.44164 1.21592
 H2062 H 0.62462 0.45289 1.22635
 O2063 O 0.38777 0.52917 1.14403
 O2064 O 0.35292 0.52911 1.17783
 C2065 C 0.37695 0.53913 1.16765
 C2066 C 0.39174 0.56335 1.18291
 C2067 C 0.38043 0.57343 1.20958
 H2068 H 0.36186 0.56230 1.21963
 O2069 O 0.46503 0.64559 1.10141
 O2070 O 0.46382 0.68056 1.13433
 C2071 C 0.45496 0.66970 1.11028
 C2072 C 0.43233 0.68506 1.09279
 C2073 C 0.42249 0.71259 1.10142
 H2074 H 0.43290 0.72278 1.12008
 O2075 O 0.53116 0.35804 1.11137
 O2076 O 0.53068 0.32638 1.14805
 C2077 C 0.54119 0.33522 1.12380
 C2078 C 0.56590 0.31928 1.11040
 C2079 C 0.57585 0.29298 1.12258
 H2080 H 0.56433 0.28368 1.14129
 O2081 O 0.64909 0.39851 1.04006
 O2082 O 0.68444 0.36566 1.04215
 C2083 C 0.67310 0.38927 1.05112
 C2084 C 0.68752 0.40579 1.07517
 C2085 C 0.71411 0.39600 1.08767
 H2086 H 0.72487 0.37731 1.07823
 O2087 O 0.35338 0.60484 1.02069
 O2088 O 0.31867 0.63830 1.01844
 C2089 C 0.32913 0.61517 1.02993
 C2090 C 0.31331 0.60056 1.05474
 C2091 C 0.28586 0.61104 1.06431
 H2092 H 0.27580 0.62937 1.05304
 Cu2093 Cu 0.50144 0.38245 1.12451
 Cu2094 Cu 0.50119 0.34431 1.16857
 Cu2095 Cu 0.49295 0.62298 1.12028
 Cu2096 Cu 0.49142 0.66502 1.15975
 Cu2097 Cu 0.37720 0.37895 1.00533
 Cu2098 Cu 0.33676 0.33706 1.00492
 Cu2099 Cu 0.62700 0.38023 1.01132
 Cu2100 Cu 0.66955 0.34085 1.01343
 Cu2101 Cu 0.37701 0.62096 0.99135
 Cu2102 Cu 0.33550 0.66116 0.98865
 Cu2103 Cu 0.61903 0.62517 0.99699
 Cu2104 Cu 0.65944 0.66672 0.99625
 Cu2105 Cu 0.37178 0.50069 1.12008
 Cu2106 Cu 0.32983 0.50123 1.16036
 Cu2107 Cu 0.62204 0.50924 1.12454
 Cu2108 Cu 0.66200 0.51161 1.16705
 C2109 C 0.57402 0.43480 1.17404
 H2110 H 0.56723 0.44083 1.15194
 C2111 C 0.59354 0.41781 1.23019
 C2112 C 0.41578 0.57775 1.16998
 H2113 H 0.42431 0.57007 1.14920
 C2114 C 0.39225 0.59794 1.22333
 C2115 C 0.32607 0.57685 1.06984
 H2116 H 0.34737 0.56879 1.06287
 C2117 C 0.27145 0.59866 1.08876
 C2118 C 0.67409 0.43075 1.08662
 H2119 H 0.65338 0.43823 1.07733
 C2120 C 0.72685 0.41027 1.11197
 C2121 C 0.58071 0.33124 1.08632
 H2122 H 0.57316 0.35172 1.07715
 C2123 C 0.60074 0.27873 1.11129
 C2124 C 0.41964 0.67175 1.06816
 H2125 H 0.42701 0.65033 1.06175
 C2126 C 0.39946 0.72654 1.08617
 C2127 C 0.42038 0.42742 1.17039
 H2128 H 0.42852 0.43613 1.14974
 C2129 C 0.39897 0.40277 1.22286
 C2130 C 0.57147 0.58270 1.17242
 H2131 H 0.56450 0.57382 1.15150
 C2132 C 0.58995 0.60715 1.22595
 C2133 C 0.42329 0.33213 1.08297
 H2134 H 0.42942 0.35381 1.07576
 C2135 C 0.40693 0.27649 1.10248
 C2136 C 0.57109 0.67270 1.07348
 H2137 H 0.56355 0.65190 1.06533
 C2138 C 0.59128 0.72604 1.09581
 C2139 C 0.32224 0.42542 1.07627
 H2140 H 0.34412 0.43275 1.07010
 C2141 C 0.26646 0.40492 1.09313
 C2142 C 0.66990 0.58309 1.07529
 H2143 H 0.64812 0.57577 1.06874
 C2144 C 0.72542 0.60330 1.09324
 C2145 C 1.11519 1.12997 1.26472
 C2146 C 1.11952 1.10346 1.25358
 H2147 H 1.09923 1.14395 1.25403
 H2148 H 1.13497 1.08875 1.26401
 C2149 C 1.12525 0.61386 0.76203
 C2150 C 1.09736 0.61452 0.75223
 H2151 H 1.14195 0.60222 0.74989
 H2152 H 1.08071 0.62619 0.76442
 C2153 C 0.62611 1.11747 0.76855
 C2154 C 0.59892 1.11983 0.75688
 H2155 H 0.64241 1.10430 0.75757
 H2156 H 0.58260 1.13295 0.76788
 C2157 C 0.61876 0.61239 1.27271
 C2158 C 0.59873 0.62238 1.25338
 H2159 H 0.62930 0.59185 1.26815
 H2160 H 0.58779 0.64280 1.25725
 C2161 C 0.86985 0.89257 1.26390
 C2162 C 0.89729 0.89225 1.25322
 H2163 H 0.85368 0.90649 1.25334
 H2164 H 0.91424 0.87976 1.26430
 C2165 C 0.89506 0.37909 0.77669
 C2166 C 0.89112 0.40523 0.76384
 H2167 H 0.91008 0.36382 0.76675
 H2168 H 0.87741 0.42142 0.77405
 C2169 C 0.37989 0.87454 0.76020
 C2170 C 0.37765 0.90255 0.75151
 H2171 H 0.39186 0.85913 0.74693
 H2172 H 0.36577 0.91807 0.76470
 C2173 C 0.36065 0.38457 1.25719
 C2174 C 0.38894 0.38703 1.24956
 H2175 H 0.34447 0.39664 1.24448
 H2176 H 0.40575 0.37614 1.26250
 C2177 C 0.87695 1.10763 0.72348
 C2178 C 0.89609 1.11819 0.74339
 H2179 H 0.86817 1.08606 0.72732
 H2180 H 0.90551 1.13951 0.74012
 C2181 C 0.88900 0.63071 0.23554
 C2182 C 0.88754 0.60339 0.24630
 H2183 H 0.90159 0.64702 0.24717
 H2184 H 0.87538 0.58713 0.23418
 C2185 C 0.40485 1.12497 0.22662
 C2186 C 0.40527 1.09783 0.23746
 H2187 H 0.41799 1.14151 0.23732
 H2188 H 0.39415 1.08058 0.22578
 C2189 C 0.38410 0.62482 0.73419
 C2190 C 0.38753 0.59647 0.73942
 H2191 H 0.39335 0.64018 0.74969
 H2192 H 0.37794 0.58072 0.72457
 C2193 C 1.11668 0.86471 0.73071
 C2194 C 1.12001 0.89113 0.74283
 H2195 H 1.10244 0.84910 0.74155
 H2196 H 1.13438 0.90679 0.73233
 C2197 C 1.10769 0.36511 0.23621
 C2198 C 1.10746 0.39249 0.24651
 H2199 H 1.09677 0.34797 0.24847
 H2200 H 1.11784 0.40961 0.23380
 C2201 C 0.61106 0.86485 0.23473
 C2202 C 0.61473 0.89021 0.24891
 H2203 H 0.59547 0.84924 0.24354
 H2204 H 0.62866 0.90678 0.23937
 C2205 C 0.63388 0.38427 0.73852
 C2206 C 0.60667 0.38452 0.74989
 H2207 H 0.65160 0.39546 0.74981
 H2208 H 0.58902 0.37359 0.73825
 C2209 C 1.27522 1.10506 1.12941
 C2210 C 1.26402 1.10524 1.10213
 H2211 H 1.26423 1.09305 1.14678
 H2212 H 1.27581 1.11690 1.08502
 C2213 C 1.26886 0.63143 0.61277
 C2214 C 1.25805 0.60433 0.61415
 H2215 H 1.25694 0.64756 0.60000
 H2216 H 1.26961 0.58806 0.62701
 C2217 C 0.77131 1.11399 0.60126
 C2218 C 0.75815 1.08833 0.60602
 H2219 H 0.76084 1.12921 0.58632
 H2220 H 0.76796 1.07234 0.62051
 C2221 C 0.76376 0.61541 1.13024
 C2222 C 0.75420 0.61539 1.10230
 H2223 H 0.75124 0.60441 1.14726
 H2224 H 0.76706 0.62620 1.08541
 C2225 C 1.26890 0.88820 0.87499
 C2226 C 1.25748 0.88569 0.90196
 H2227 H 1.25884 0.90337 0.85971
 H2228 H 1.26769 0.87150 0.91807
 C2229 C 1.25310 0.38190 0.37066
 C2230 C 1.24630 0.38302 0.39922
 H2231 H 1.23963 0.39419 0.35530
 H2232 H 1.25943 0.37143 0.41536
 C2233 C 0.75659 0.87165 0.37386
 C2234 C 0.75231 0.87632 0.40247
 H2235 H 0.74034 0.87947 0.35816
 H2236 H 0.76831 0.86840 0.41839
 C2237 C 0.77152 0.39090 0.88040
 C2238 C 0.76152 0.39152 0.90800
 H2239 H 0.75932 0.40174 0.86301
 H2240 H 0.77406 0.38069 0.92519
 C2241 C 0.73376 0.88818 1.12926
 C2242 C 0.74427 0.88893 1.10170
 H2243 H 0.74543 0.89967 1.14645
 H2244 H 0.73231 0.87769 1.08454
 C2245 C 0.73296 0.36823 0.61076
 C2246 C 0.74536 0.39464 0.61301
 H2247 H 0.74229 0.35275 0.59561
 H2248 H 0.73491 0.41104 0.62628
 C2249 C 0.23436 0.87271 0.61382
 C2250 C 0.24157 0.90089 0.61460
 H2251 H 0.24721 0.85871 0.59978
 H2252 H 0.22924 0.91569 0.62825
 C2253 C 0.22569 0.39295 1.12808
 C2254 C 0.23783 0.39167 1.10122
 H2255 H 0.23492 0.40780 1.14403
 H2256 H 0.22758 0.37868 1.08431
 C2257 C 0.73491 1.12999 0.89019
 C2258 C 0.74829 1.10437 0.88596
 H2259 H 0.74438 1.14490 0.90591
 H2260 H 0.73839 1.08859 0.87151
 C2261 C 0.72688 0.62072 0.39270
 C2262 C 0.73683 0.59329 0.39064
 H2263 H 0.73978 0.63684 0.40424
 H2264 H 0.72402 0.57713 0.37907
 C2265 C 0.23237 1.13215 0.38055
 C2266 C 0.24936 1.11000 0.37113
 H2267 H 0.23923 1.14364 0.40003
 H2268 H 0.24302 1.09822 0.35166
 C2269 C 0.23236 0.62615 0.88406
 C2270 C 0.24653 0.60092 0.87870
 H2271 H 0.24108 0.64044 0.90072
 H2272 H 0.23761 0.58579 0.86301
 C2273 C 1.13304 1.26187 1.11097
 C2274 C 1.10624 1.24972 1.10984
 H2275 H 1.15133 1.25145 1.09997
 H2276 H 1.08811 1.26069 1.12055
 C2277 C 1.13455 0.75072 0.61603
 C2278 C 1.10644 0.74683 0.60839
 H2279 H 1.15115 0.73523 0.60926
 H2280 H 1.09002 0.76251 0.61520
 C2281 C 0.61173 1.26287 0.63168
 C2282 C 0.61247 1.25268 0.60405
 H2283 H 0.59940 1.25118 0.64838
 H2284 H 0.62443 1.26451 0.58724
 C2285 C 0.62843 0.76432 1.10898
 C2286 C 0.60068 0.75401 1.10915
 H2287 H 0.64528 0.75308 1.09667
 H2288 H 0.58394 0.76575 1.12112
 C2289 C 0.87706 1.26643 0.89170
 C2290 C 0.90425 1.25499 0.88930
 H2291 H 0.86011 1.25463 0.90353
 H2292 H 0.92124 1.26696 0.87774
 C2293 C 0.88464 0.76609 0.36510
 C2294 C 0.88163 0.75243 0.39112
 H2295 H 0.89907 0.75679 0.34874
 H2296 H 0.86747 0.76205 0.40750
 C2297 C 0.37529 1.27472 0.38034
 C2298 C 0.39385 1.25528 0.36831
 H2299 H 0.36910 1.27196 0.40316
 H2300 H 0.40054 1.25810 0.34564
 C2301 C 0.37080 0.76216 0.88068
 C2302 C 0.39695 0.74907 0.87647
 H2303 H 0.35467 0.75201 0.89491
 H2304 H 0.41307 0.75947 0.86236
 C2305 C 1.11316 0.73587 0.86689
 C2306 C 1.11179 0.74498 0.89472
 H2307 H 1.10272 0.74851 0.84959
 H2308 H 1.12213 0.73208 0.91190
 C2309 C 1.11567 0.24448 0.37337
 C2310 C 1.11329 0.25096 0.40185
 H2311 H 1.10562 0.25856 0.35699
 H2312 H 1.12353 0.23706 0.41827
 C2313 C 0.60986 0.73420 0.37935
 C2314 C 0.61239 0.74536 0.40655
 H2315 H 0.59735 0.74587 0.36277
 H2316 H 0.62485 0.73365 0.42313
 C2317 C 0.61575 0.23791 0.87810
 C2318 C 0.61811 0.24781 0.90580
 H2319 H 0.60310 0.25000 0.86194
 H2320 H 0.63065 0.23561 0.92196
 C2321 C 0.86865 0.73749 1.11129
 C2322 C 0.89643 0.74690 1.10887
 H2323 H 0.85101 0.74982 1.10102
 H2324 H 0.91401 0.73441 1.11903
 C2325 C 0.87058 0.23547 0.61907
 C2326 C 0.89802 0.24594 0.61945
 H2327 H 0.85326 0.24822 0.60876
 H2328 H 0.91541 0.23347 0.62997
 C2329 C 0.38196 0.74701 0.63128
 C2330 C 0.38347 0.75601 0.60339
 H2331 H 0.39121 0.76025 0.64865
 H2332 H 0.37415 0.74280 0.58603
 C2333 C 0.37231 0.23573 1.11361
 C2334 C 0.39964 0.24705 1.11346
 H2335 H 0.35425 0.24750 1.10345
 H2336 H 0.41767 0.23488 1.12316
 C2337 C 1.11218 1.12428 0.72882
 C2338 C 1.11732 1.09891 0.74274
 H2339 H 1.09620 1.13897 0.73812
 H2340 H 1.13257 1.08350 0.73352
 C2341 C 1.10699 0.62562 0.23073
 C2342 C 1.11165 0.60104 0.24620
 H2343 H 1.09022 0.64043 0.23836
 H2344 H 1.12732 0.58539 0.23817
 C2345 C 0.61891 1.12621 0.23949
 C2346 C 0.61971 1.09875 0.24973
 H2347 H 0.60737 1.14273 0.25174
 H2348 H 0.63128 1.08226 0.23745
 C2349 C 0.61761 0.62508 0.73195
 C2350 C 0.61909 0.59754 0.74164
 H2351 H 0.60546 0.64068 0.74487
 H2352 H 0.63175 0.58178 0.72944
 C2353 C 0.88312 0.86668 0.73953
 C2354 C 0.88765 0.89487 0.74427
 H2355 H 0.89254 0.85082 0.75458
 H2356 H 0.87808 0.91079 0.72938
 C2357 C 0.89052 0.36346 0.23127
 C2358 C 0.88919 0.39033 0.24237
 H2359 H 0.90317 0.34689 0.24264
 H2360 H 0.87687 0.40676 0.23042
 C2361 C 0.37425 0.88501 0.23275
 C2362 C 0.40135 0.88395 0.24472
 H2363 H 0.35723 0.89738 0.24368
 H2364 H 0.41843 0.87166 0.23386
 C2365 C 0.37439 0.38255 0.73546
 C2366 C 0.39973 0.37745 0.75016
 H2367 H 0.35927 0.39836 0.74430
 H2368 H 0.41533 0.36189 0.74183
 C2369 C 1.12410 0.89425 1.27026
 C2370 C 1.09979 0.88981 1.25421
 H2371 H 1.13938 0.91097 1.26324
 H2372 H 1.08338 0.87461 1.26208
 C2373 C 1.12930 0.39458 0.77200
 C2374 C 1.10123 0.39736 0.76337
 H2375 H 1.14677 0.40462 0.75924
 H2376 H 1.08398 0.38744 0.77654
 C2377 C 0.59717 0.87752 0.77430
 C2378 C 0.59395 0.90539 0.76681
 H2379 H 0.58717 0.86065 0.76105
 H2380 H 0.60403 0.92198 0.78038
 C2381 C 0.60545 0.38048 1.26775
 C2382 C 0.60718 0.40799 1.25811
 H2383 H 0.59090 0.36560 1.25645
 H2384 H 0.62072 0.42366 1.26953
 C2385 C 0.87043 1.10752 1.26795
 C2386 C 0.89581 1.11140 1.25313
 H2387 H 0.85513 1.09117 1.26025
 H2388 H 0.91205 1.12634 1.26160
 C2389 C 0.86440 0.61552 0.76190
 C2390 C 0.89197 0.61477 0.75141
 H2391 H 0.84687 0.60431 0.75033
 H2392 H 0.90946 0.62568 0.76331
 C2393 C 0.38019 1.13857 0.76028
 C2394 C 0.38228 1.11121 0.75131
 H2395 H 0.38887 1.15591 0.74652
 H2396 H 0.37358 1.09389 0.76509
 C2397 C 0.38965 0.62629 1.27000
 C2398 C 0.37770 0.60741 1.25109
 H2399 H 0.41110 0.63517 1.26463
 H2400 H 0.35635 0.59799 1.25578
 C2401 C 1.10947 1.26815 0.87217
 C2402 C 1.11281 1.25396 0.89798
 H2403 H 1.09454 1.25936 0.85587
 H2404 H 1.12566 1.26373 0.91534
 C2405 C 1.10707 0.76880 0.37138
 C2406 C 1.11187 0.75339 0.39627
 H2407 H 1.09121 0.76046 0.35571
 H2408 H 1.12666 0.76188 0.41273
 C2409 C 0.62537 1.25775 0.36610
 C2410 C 0.62299 1.24990 0.39428
 H2411 H 0.61611 1.24388 0.34924
 H2412 H 0.63235 1.26370 0.41116
 C2413 C 0.62693 0.76820 0.89014
 C2414 C 0.60995 0.74793 0.87705
 H2415 H 0.63451 0.76524 0.91253
 H2416 H 0.60370 0.75104 0.85424
 C2417 C 0.87613 1.26167 1.10627
 C2418 C 0.90296 1.24958 1.10879
 H2419 H 0.86041 1.25200 1.09126
 H2420 H 0.91953 1.25953 1.12258
 C2421 C 0.87819 0.75460 0.62709
 C2422 C 0.87929 0.74871 0.59841
 H2423 H 0.88904 0.74024 0.64271
 H2424 H 0.86822 0.76277 0.58268
 C2425 C 0.39124 1.27064 0.62124
 C2426 C 0.38496 1.25663 0.59596
 H2427 H 0.40940 1.26301 0.63460
 H2428 H 0.36784 1.26475 0.58161
 C2429 C 0.39204 0.76764 1.12182
 C2430 C 0.38696 0.75481 1.09558
 H2431 H 0.40845 0.75862 1.13652
 H2432 H 0.37226 0.76477 1.07977
 C2433 C 0.88861 0.73855 0.86521
 C2434 C 0.89032 0.74830 0.89288
 H2435 H 0.89945 0.75048 0.84767
 H2436 H 0.87976 0.73602 0.91032
 C2437 C 0.89028 0.23095 0.37156
 C2438 C 0.88990 0.24117 0.39920
 H2439 H 0.90193 0.24281 0.35453
 H2440 H 0.87865 0.22884 0.41616
 C2441 C 0.39600 0.73412 0.38340
 C2442 C 0.38867 0.74942 0.40729
 H2443 H 0.41374 0.74210 0.36973
 H2444 H 0.37138 0.74173 0.42167
 C2445 C 0.40252 0.23103 0.88598
 C2446 C 0.40010 0.24155 0.91321
 H2447 H 0.41707 0.24214 0.87075
 H2448 H 0.38630 0.23081 0.92931
 C2449 C 1.12517 0.72928 1.10852
 C2450 C 1.09917 0.74281 1.11194
 H2451 H 1.14090 0.73822 1.09305
 H2452 H 1.08251 0.73346 1.12606
 C2453 C 1.12546 0.23685 0.61374
 C2454 C 1.09791 0.24712 0.61553
 H2455 H 1.14235 0.24942 0.60261
 H2456 H 1.08103 0.23451 0.62663
 C2457 C 0.62450 0.74503 0.62289
 C2458 C 0.59608 0.75275 0.62249
 H2459 H 0.64098 0.75921 0.61320
 H2460 H 0.57954 0.73889 0.63254
 C2461 C 0.63163 0.23345 1.11726
 C2462 C 0.61015 0.25142 1.12645
 H2463 H 0.64324 0.23896 1.09724
 H2464 H 0.59829 0.24651 1.14639
 C2465 C 1.27482 1.13038 0.88939
 C2466 C 1.26082 1.10523 0.88384
 H2467 H 1.26613 1.14475 0.90593
 H2468 H 1.27028 1.09082 0.86770
 C2469 C 1.27116 0.62967 0.38671
 C2470 C 1.25873 0.60334 0.38344
 H2471 H 1.26044 0.64538 0.40065
 H2472 H 1.26951 0.58767 0.36947
 C2473 C 0.76706 1.12572 0.39213
 C2474 C 0.75839 1.09795 0.39406
 H2475 H 0.75430 1.14255 0.40268
 H2476 H 0.77156 1.08130 0.38369
 C2477 C 0.76334 0.63485 0.88904
 C2478 C 0.75407 0.60714 0.89004
 H2479 H 0.75093 0.65163 0.90005
 H2480 H 0.76720 0.59061 0.87944
 C2481 C 1.26641 0.86734 1.11016
 C2482 C 1.25807 0.89494 1.10712
 H2483 H 1.25289 0.85005 1.10126
 H2484 H 1.27193 0.91200 1.11602
 C2485 C 1.26343 0.37049 0.61689
 C2486 C 1.25292 0.39763 0.61854
 H2487 H 1.25133 0.35411 0.60488
 H2488 H 1.26541 0.41389 0.63039
 C2489 C 0.76014 0.86707 0.62626
 C2490 C 0.74862 0.89370 0.63007
 H2491 H 0.74833 0.85170 0.61270
 H2492 H 0.76002 0.90905 0.64401
 C2493 C 0.76208 0.37137 1.12560
 C2494 C 0.75450 0.39952 1.12603
 H2495 H 0.74730 0.35582 1.11553
 H2496 H 0.76885 0.41514 1.13663
 C2497 C 0.73746 1.11161 1.12799
 C2498 C 0.74676 1.11198 1.10005
 H2499 H 0.74998 1.09986 1.14454
 H2500 H 0.73425 1.12372 1.08350
 C2501 C 0.73275 0.62842 0.61099
 C2502 C 0.73959 0.60045 0.60798
 H2503 H 0.74712 0.64471 0.60129
 H2504 H 0.72561 0.58397 0.61789
 C2505 C 0.23183 1.11457 0.61821
 C2506 C 0.24235 1.11735 0.59069
 H2507 H 0.24391 1.10213 0.63449
 H2508 H 0.23014 1.12989 0.57453
 C2509 C 0.23185 0.60947 1.12546
 C2510 C 0.24278 0.61126 1.09799
 H2511 H 0.24343 0.59700 1.14211
 H2512 H 0.23086 0.62345 1.08136
 C2513 C 0.73300 0.89202 0.86571
 C2514 C 0.74493 0.89257 0.89269
 H2515 H 0.74390 0.90323 0.84773
 H2516 H 0.73325 0.88176 0.91043
 C2517 C 0.73384 0.38299 0.36804
 C2518 C 0.74647 0.37943 0.39451
 H2519 H 0.74389 0.39745 0.35210
 H2520 H 0.73583 0.36519 0.41033
 C2521 C 0.22595 0.87896 0.39404
 C2522 C 0.24694 0.89467 0.38028
 H2523 H 0.22806 0.87344 0.41711
 H2524 H 0.24477 0.89921 0.35697
 C2525 C 0.23344 0.36998 0.89599
 C2526 C 0.24339 0.39731 0.89726
 H2527 H 0.24608 0.35251 0.90595
 H2528 H 0.23050 0.41473 0.88755
   
