data_POSCAR
  _audit_creation_date              2014-09-24
  _audit_creation_method            'ToBaCCo'
  _symmetry_space_group_name_H-M    'P1'
  _symmetry_Int_Tables_number       1
  _symmetry_cell_setting            triclinic
  loop_
  _symmetry_equiv_pos_as_xyz
 x,y,z
_cell_length_a 65.6127
_cell_length_b 65.7154
_cell_length_c 65.3259
_cell_angle_alpha 90.447300
_cell_angle_beta 89.761000
_cell_angle_gamma 89.949600
loop_
  _atom_site_label
  _atom_site_type_symbol
  _atom_site_fract_x
  _atom_site_fract_y
  _atom_site_fract_z
C1 C 0.29979 0.38248 0.00341
 C2 C 0.31048 0.37908 0.02152
 C3 C 0.32807 0.36704 0.02100
 C4 C 0.33411 0.35681 0.00281
 C5 C 0.32333 0.36101 -0.01544
 C6 C 0.30632 0.37411 -0.01536
 C7 C 0.35011 0.34042 0.00338
 C8 C 0.36046 0.33392 -0.01463
 C9 C 0.37309 0.31654 -0.01458
 C10 C 0.37644 0.30662 0.00410
 C11 C 0.36718 0.31325 0.02222
 C12 C 0.35390 0.32987 0.02180
 H13 H 0.28646 0.39221 0.00402
 H14 H 0.33640 0.36505 0.03508
 H15 H 0.32731 0.35332 -0.02957
 H16 H 0.35837 0.34199 -0.02881
 H17 H 0.38648 0.29354 0.00477
 H18 H 0.34588 0.33367 0.03578
 C19 C 0.69679 0.61333 -0.00836
 C20 C 0.68676 0.61574 0.01050
 C21 C 0.67107 0.63023 0.01223
 C22 C 0.66601 0.64294 -0.00440
 C23 C 0.67642 0.64002 -0.02320
 C24 C 0.69163 0.62519 -0.02522
 C25 C 0.65100 0.66003 -0.00182
 C26 C 0.64067 0.66815 -0.01891
 C27 C 0.62869 0.68588 -0.01709
 C28 C 0.62610 0.69468 0.00244
 C29 C 0.63527 0.68635 0.01973
 C30 C 0.64784 0.66925 0.01756
 H31 H 0.70883 0.60213 -0.01005
 H32 H 0.66300 0.63161 0.02664
 H33 H 0.67356 0.64979 -0.03611
 H34 H 0.64218 0.66090 -0.03375
 H35 H 0.61662 0.70806 0.00443
 H36 H 0.65575 0.66388 0.03096
 C37 C 0.69092 0.37765 1.00773
 C38 C 0.68053 0.37526 0.98916
 C39 C 0.66510 0.36052 0.98772
 C40 C 0.66054 0.34763 1.00440
 C41 C 0.67132 0.35051 1.02291
 C42 C 0.68637 0.36551 1.02461
 C43 C 0.64564 0.33044 1.00216
 C44 C 0.63565 0.32223 1.01948
 C45 C 0.62371 0.30448 1.01789
 C46 C 0.62087 0.29572 0.99841
 C47 C 0.62958 0.30421 0.98089
 C48 C 0.64213 0.32133 0.98281
 H49 H 0.70284 0.38897 1.00914
 H50 H 0.65677 0.35917 0.97354
 H51 H 0.66889 0.34057 1.03580
 H52 H 0.63739 0.32943 1.03430
 H53 H 0.61134 0.28236 0.99662
 H54 H 0.64969 0.32685 0.96921
 C55 C 0.30723 0.62597 0.99915
 C56 C 0.31712 0.62817 0.98028
 C57 C 0.33497 0.63987 0.97924
 C58 C 0.34213 0.65067 0.99663
 C59 C 0.33180 0.64801 1.01549
 C60 C 0.31458 0.63550 1.01682
 C61 C 0.35902 0.66599 0.99477
 C62 C 0.37026 0.67233 1.01214
 C63 C 0.38379 0.68895 1.01116
 C64 C 0.38711 0.69819 0.99211
 C65 C 0.37702 0.69152 0.97452
 C66 C 0.36289 0.67567 0.97589
 H67 H 0.29373 0.61654 1.00017
 H68 H 0.34274 0.64100 0.96468
 H69 H 0.33630 0.65633 1.02907
 H70 H 0.36820 0.66470 1.02659
 H71 H 0.39774 0.71073 0.99074
 H72 H 0.35430 0.67183 0.96233
 C73 C 0.00277 0.31034 0.37862
 C74 C 0.02170 0.31996 0.37660
 C75 C 0.02281 0.33861 0.36630
 C76 C 0.00540 0.34699 0.35674
 C77 C -0.01348 0.33686 0.35919
 C78 C -0.01487 0.31881 0.37035
 C79 C 0.00714 0.36525 0.34309
 C80 C -0.01025 0.37706 0.33825
 C81 C -0.00943 0.39219 0.32312
 C82 C 0.00950 0.39658 0.31405
 C83 C 0.02703 0.38567 0.31904
 C84 C 0.02584 0.36999 0.33336
 H85 H 0.00167 0.29623 0.38703
 H86 H 0.03740 0.34617 0.36538
 H87 H -0.02712 0.34225 0.35178
 H88 H -0.02460 0.37431 0.34589
 H89 H 0.01074 0.40835 0.30259
 H90 H 0.03935 0.36095 0.33584
 C91 C -0.00424 0.69014 0.62138
 C92 C 0.01465 0.68066 0.62402
 C93 C 0.01561 0.66262 0.63528
 C94 C -0.00183 0.65486 0.64536
 C95 C -0.02079 0.66463 0.64213
 C96 C -0.02201 0.68210 0.62998
 C97 C 0.00018 0.63778 0.66039
 C98 C -0.01670 0.62544 0.66574
 C99 C -0.01512 0.61069 0.68123
 C100 C 0.00389 0.60782 0.69068
 C101 C 0.02079 0.61959 0.68548
 C102 C 0.01889 0.63456 0.67056
 H103 H -0.00520 0.70383 0.61229
 H104 H 0.03020 0.65511 0.63665
 H105 H -0.03449 0.65947 0.64972
 H106 H -0.03109 0.62729 0.65797
 H107 H 0.00573 0.59647 0.70247
 H108 H 0.03191 0.64424 0.66780
 C109 C 0.98906 0.70339 0.37555
 C110 C 0.97148 0.69779 0.36499
 C111 C 0.97247 0.68230 0.35025
 C112 C 0.99092 0.67182 0.34623
 C113 C 1.00836 0.67721 0.35785
 C114 C 1.00777 0.69348 0.37205
 C115 C 0.99217 0.65655 0.32895
 C116 C 1.01093 0.65245 0.31894
 C117 C 1.01185 0.64005 0.30129
 C118 C 0.99356 0.63241 0.29320
 C119 C 0.97486 0.63573 0.30302
 C120 C 0.97436 0.64710 0.32126
 H121 H 0.98795 0.71562 0.38672
 H122 H 0.95891 0.67933 0.34140
 H123 H 1.02251 0.66906 0.35571
 H124 H 1.02481 0.65959 0.32414
 H125 H 0.99384 0.62314 0.27942
 H126 H 0.95988 0.64894 0.32899
 C127 C 1.00332 0.29346 0.62776
 C128 C 0.98419 0.30247 0.63082
 C129 C 0.98250 0.31923 0.64418
 C130 C 0.99949 0.32621 0.65550
 C131 C 1.01864 0.31689 0.65187
 C132 C 1.02060 0.30074 0.63788
 C133 C 0.99698 0.34212 0.67196
 C134 C 1.01370 0.35408 0.67848
 C135 C 1.01202 0.36730 0.69549
 C136 C 0.99295 0.36929 0.70522
 C137 C 0.97598 0.35832 0.69853
 C138 C 0.97807 0.34463 0.68214
 H139 H 1.00491 0.28081 0.61713
 H140 H 0.96779 0.32644 0.64599
 H141 H 1.03198 0.32139 0.66045
 H142 H 1.02812 0.35300 0.67049
 H143 H 0.99106 0.37966 0.71806
 H144 H 0.96502 0.33544 0.67808
 C145 C 0.37418 -0.00191 0.29987
 C146 C 0.36403 0.01546 0.30692
 C147 C 0.35079 0.01404 0.32362
 C148 C 0.34793 -0.00458 0.33392
 C149 C 0.35907 -0.02185 0.32699
 C150 C 0.37184 -0.02081 0.30958
 C151 C 0.33227 -0.00606 0.35072
 C152 C 0.32229 -0.02467 0.35477
 C153 C 0.30584 -0.02547 0.36851
 C154 C 0.29895 -0.00755 0.37794
 C155 C 0.30864 0.01108 0.37448
 C156 C 0.32579 0.01156 0.36158
 H157 H 0.38423 -0.00043 0.28677
 H158 H 0.34215 0.02746 0.32778
 H159 H 0.35765 -0.03617 0.33490
 H160 H 0.32640 -0.03845 0.34660
 H161 H 0.28599 -0.00817 0.38824
 H162 H 0.33351 0.02593 0.35957
 C163 C 0.62475 0.01027 0.69804
 C164 C 0.63438 0.02788 0.69106
 C165 C 0.64868 0.02651 0.67516
 C166 C 0.65314 0.00758 0.66574
 C167 C 0.64215 -0.00979 0.67222
 C168 C 0.62859 -0.00881 0.68897
 C169 C 0.67037 0.00561 0.65061
 C170 C 0.68079 -0.01311 0.64837
 C171 C 0.69785 -0.01492 0.63561
 C172 C 0.70515 0.00221 0.62542
 C173 C 0.69528 0.02109 0.62725
 C174 C 0.67755 0.02256 0.63939
 H175 H 0.61402 0.01164 0.71063
 H176 H 0.65691 0.04013 0.67105
 H177 H 0.64447 -0.02429 0.66464
 H178 H 0.67640 -0.02629 0.65712
 H179 H 0.71848 0.00068 0.61570
 H180 H 0.66972 0.03701 0.64028
 C181 C 0.38268 1.00252 0.69246
 C182 C 0.38008 0.98343 0.68317
 C183 C 0.36765 0.98175 0.66582
 C184 C 0.35653 0.99868 0.65859
 C185 C 0.35961 1.01781 0.66829
 C186 C 0.37284 1.01978 0.68498
 C187 C 0.34066 0.99609 0.64221
 C188 C 0.33375 1.01297 0.63083
 C189 C 0.31686 1.01135 0.61769
 C190 C 0.30789 0.99213 0.61481
 C191 C 0.31503 0.97500 0.62505
 C192 C 0.33116 0.97701 0.63886
 H193 H 0.39263 1.00404 0.70558
 H194 H 0.36628 0.96704 0.65847
 H195 H 0.35112 1.03111 0.66377
 H196 H 0.34119 1.02756 0.63244
 H197 H 0.29513 0.99029 0.60447
 H198 H 0.33539 0.96377 0.64758
 C199 C 0.61719 0.99290 0.30694
 C200 C 0.62782 0.97631 0.31484
 C201 C 0.64087 0.97914 0.33145
 C202 C 0.64325 0.99853 0.34057
 C203 C 0.63158 1.01494 0.33293
 C204 C 0.61896 1.01244 0.31567
 C205 C 0.65915 1.00191 0.35667
 C206 C 0.66892 1.02097 0.35847
 C207 C 0.68531 1.02369 0.37181
 C208 C 0.69226 1.00731 0.38336
 C209 C 0.68287 0.98818 0.38211
 C210 C 0.66598 0.98573 0.36913
 H211 H 0.60739 0.99035 0.29386
 H212 H 0.64988 0.96631 0.33639
 H213 H 0.63261 1.02978 0.34011
 H214 H 0.66470 1.03355 0.34878
 H215 H 0.70519 1.00961 0.39338
 H216 H 0.65848 0.97110 0.36854
 O217 O 0.80949 0.83573 0.52992
 O218 O 0.83279 0.81175 0.48495
 O219 O 0.80585 0.84009 0.49098
 O220 O 0.83596 0.80742 0.52437
 O221 O 0.81153 0.78432 0.52435
 O222 O 0.78133 0.81711 0.48971
 O223 O 0.80885 0.78814 0.48451
 O224 O 0.78435 0.81339 0.52925
 Cu225 Cu 0.82351 0.82596 0.50751
 Cu226 Cu 0.79405 0.79834 0.50684
 C227 C 0.79289 0.82894 0.53712
 C228 C 0.82505 0.79583 0.47715
 C229 C 0.78841 0.83443 0.48486
 C230 C 0.82889 0.79051 0.53033
 O231 O 0.16564 0.19379 0.48234
 O232 O 0.19388 0.16280 0.51868
 O233 O 0.16649 0.19081 0.52193
 O234 O 0.19253 0.16511 0.47954
 O235 O 0.21751 0.18761 0.48064
 O236 O 0.19029 0.21454 0.52296
 O237 O 0.21832 0.18587 0.52023
 O238 O 0.18982 0.21714 0.48294
 Cu239 Cu 0.17716 0.17593 0.50050
 Cu240 Cu 0.20640 0.20375 0.50173
 C241 C 0.17274 0.21071 0.47645
 C242 C 0.21099 0.16876 0.52542
 C243 C 0.17374 0.20698 0.52968
 C244 C 0.20968 0.17145 0.47325
 O245 O 0.16417 0.80306 0.52204
 O246 O 0.19028 0.83074 0.48135
 O247 O 0.16179 0.80372 0.48281
 O248 O 0.19246 0.83026 0.52106
 O249 O 0.21601 0.80626 0.51929
 O250 O 0.18464 0.77910 0.48038
 O251 O 0.21381 0.80674 0.47919
 O252 O 0.18694 0.77833 0.52003
 Cu253 Cu 0.17497 0.81942 0.50201
 Cu254 Cu 0.20280 0.79019 0.49954
 C255 C 0.17072 0.78585 0.52769
 C256 C 0.20642 0.82360 0.47332
 C257 C 0.16762 0.78683 0.47531
 C258 C 0.20938 0.82295 0.52676
 O259 O 0.83743 0.19334 0.50763
 O260 O 0.80841 0.16919 0.46656
 O261 O 0.83668 0.19611 0.46820
 O262 O 0.80907 0.16601 0.50601
 O263 O 0.78546 0.18985 0.50893
 O264 O 0.81364 0.22057 0.47056
 O265 O 0.78463 0.19292 0.46908
 O266 O 0.81443 0.21779 0.51040
 Cu267 Cu 0.82519 0.17876 0.48691
 Cu268 Cu 0.79715 0.20774 0.49005
 C269 C 0.83117 0.20975 0.51583
 C270 C 0.79163 0.17677 0.46082
 C271 C 0.83003 0.21340 0.46292
 C272 C 0.79255 0.17253 0.51380
 O273 O 0.48835 0.83723 0.80455
 O274 O 0.52588 0.80921 0.83425
 O275 O 0.52745 0.83762 0.80682
 O276 O 0.48656 0.80938 0.83178
 O277 O 0.48809 0.78547 0.80786
 O278 O 0.52921 0.81462 0.78203
 O279 O 0.52788 0.78552 0.81016
 O280 O 0.48968 0.81405 0.77990
 Cu281 Cu 0.50702 0.82563 0.82179
 Cu282 Cu 0.50900 0.79746 0.79254
 C283 C 0.48268 0.83064 0.78720
 C284 C 0.53305 0.79250 0.82759
 C285 C 0.53488 0.83142 0.78994
 C286 C 0.48029 0.79271 0.82422
 O287 O 0.51253 0.18611 0.16429
 O288 O 0.47098 0.16073 0.19119
 O289 O 0.47319 0.18847 0.16395
 O290 O 0.51021 0.15808 0.19215
 O291 O 0.51170 0.18154 0.21648
 O292 O 0.47385 0.21226 0.18802
 O293 O 0.47198 0.18382 0.21593
 O294 O 0.51359 0.21019 0.18803
 Cu295 Cu 0.49178 0.17102 0.17549
 Cu296 Cu 0.49301 0.19937 0.20460
 C297 C 0.51985 0.20265 0.17116
 C298 C 0.46437 0.16779 0.20807
 C299 C 0.46707 0.20540 0.17112
 C300 C 0.51698 0.16431 0.20923
 O301 O 0.51421 0.16887 0.80415
 O302 O 0.47536 0.19725 0.83258
 O303 O 0.47464 0.16922 0.80451
 O304 O 0.51468 0.19593 0.83253
 O305 O 0.51526 0.22029 0.80942
 O306 O 0.47500 0.19265 0.78046
 O307 O 0.47548 0.22143 0.80928
 O308 O 0.51496 0.19257 0.78035
 Cu309 Cu 0.49456 0.18043 0.82073
 Cu310 Cu 0.49510 0.20915 0.79243
 C311 C 0.52143 0.17588 0.78760
 C312 C 0.46903 0.21426 0.82612
 C313 C 0.46812 0.17608 0.78768
 C314 C 0.52185 0.21255 0.82592
 O315 O 0.48895 0.80424 0.16594
 O316 O 0.52820 0.82967 0.19607
 O317 O 0.52817 0.80265 0.16775
 O318 O 0.48885 0.83184 0.19467
 O319 O 0.48626 0.80812 0.21829
 O320 O 0.52615 0.77824 0.19074
 O321 O 0.52605 0.80604 0.21986
 O322 O 0.48647 0.77985 0.18890
 Cu323 Cu 0.50860 0.81950 0.17882
 Cu324 Cu 0.50588 0.79062 0.20685
 C325 C 0.48136 0.78754 0.17187
 C326 C 0.53395 0.82227 0.21295
 C327 C 0.53395 0.78558 0.17453
 C328 C 0.48107 0.82531 0.21115
 O329 O 0.83517 0.50708 0.80331
 O330 O 0.80192 0.47823 0.83724
 O331 O 0.82948 0.46892 0.81011
 O332 O 0.80792 0.51628 0.83061
 O333 O 0.78326 0.51513 0.80771
 O334 O 0.80684 0.46872 0.78517
 O335 O 0.77844 0.47615 0.81317
 O336 O 0.81136 0.50775 0.77953
 Cu337 Cu 0.82097 0.49267 0.82266
 Cu338 Cu 0.79255 0.49184 0.79394
 C339 C 0.82912 0.51237 0.78573
 C340 C 0.78453 0.47237 0.83121
 C341 C 0.82230 0.46103 0.79390
 C342 C 0.79167 0.52350 0.82312
 O343 O 0.19684 0.49389 0.16773
 O344 O 0.16690 0.53362 0.19288
 O345 O 0.19545 0.53322 0.16577
 O346 O 0.16850 0.49436 0.19506
 O347 O 0.19147 0.49635 0.21962
 O348 O 0.21880 0.53582 0.18992
 O349 O 0.18955 0.53613 0.21769
 O350 O 0.22056 0.49618 0.19154
 Cu351 Cu 0.17964 0.51354 0.17796
 Cu352 Cu 0.20745 0.51635 0.20721
 C353 C 0.21377 0.48830 0.17509
 C354 C 0.17290 0.54164 0.20950
 C355 C 0.21167 0.54113 0.17270
 C356 C 0.17525 0.48871 0.21227
 O357 O 0.80427 0.50875 0.16257
 O358 O 0.83562 0.47726 0.19554
 O359 O 0.80821 0.47019 0.16800
 O360 O 0.83155 0.51578 0.19032
 O361 O 0.80826 0.51647 0.21484
 O362 O 0.78358 0.47140 0.19114
 O363 O 0.81178 0.47743 0.21952
 O364 O 0.78026 0.51071 0.18631
 Cu365 Cu 0.82226 0.49289 0.17676
 Cu366 Cu 0.79347 0.49408 0.20536
 C367 C 0.78695 0.51501 0.16855
 C368 C 0.82939 0.47220 0.21317
 C369 C 0.79172 0.46327 0.17539
 C370 C 0.82431 0.52358 0.20663
 O371 O 0.19439 0.51806 0.83580
 O372 O 0.16245 0.48172 0.80836
 O373 O 0.19035 0.47891 0.83603
 O374 O 0.16644 0.52069 0.80847
 O375 O 0.18942 0.51808 0.78377
 O376 O 0.21423 0.47611 0.81223
 O377 O 0.18566 0.47856 0.78394
 O378 O 0.21820 0.51570 0.81189
 Cu379 Cu 0.17613 0.50006 0.82458
 Cu380 Cu 0.20430 0.49683 0.79549
 C381 C 0.21166 0.52311 0.82872
 C382 C 0.16832 0.47411 0.79144
 C383 C 0.20640 0.47051 0.82911
 C384 C 0.17356 0.52638 0.79138
 C385 C 0.28550 0.40290 0.07584
 N386 N 0.30602 0.40051 0.07407
 N387 N 0.31415 0.39264 0.05696
 C388 C 0.30204 0.38717 0.04098
 N389 N 0.28159 0.38948 0.04294
 N390 N 0.27350 0.39713 0.06001
 C391 C 0.27596 0.41248 0.09387
 N392 N 0.25535 0.41282 0.09525
 N393 N 0.24606 0.42296 0.11028
 C394 C 0.25698 0.43322 0.12458
 N395 N 0.27768 0.43267 0.12349
 N396 N 0.28703 0.42243 0.10838
 C397 C 0.24608 0.44616 0.13946
 N398 N 0.25598 0.45721 0.15403
 N399 N 0.24571 0.47021 0.16608
 C400 C 0.22526 0.47265 0.16380
 N401 N 0.21547 0.46142 0.14941
 N402 N 0.22565 0.44840 0.13755
 C403 C 0.70947 0.58350 0.06080
 N404 N 0.71589 0.57931 0.04149
 N405 N 0.70818 0.58916 0.02563
 C406 C 0.69370 0.60370 0.02833
 N407 N 0.68698 0.60772 0.04770
 N408 N 0.69471 0.59779 0.06366
 C409 C 0.71959 0.57342 0.07800
 N410 N 0.71320 0.57580 0.09771
 N411 N 0.72330 0.56692 0.11298
 C412 C 0.74020 0.55554 0.10900
 N413 N 0.74645 0.55321 0.08932
 N414 N 0.73634 0.56191 0.07415
 C415 C 0.75215 0.54593 0.12526
 N416 N 0.77063 0.53797 0.12047
 N417 N 0.78167 0.52857 0.13452
 C418 C 0.77469 0.52664 0.15396
 N419 N 0.75618 0.53467 0.15892
 N420 N 0.74511 0.54425 0.14480
 C421 C 0.70247 0.40806 0.93878
 N422 N 0.68925 0.39241 0.93584
 N423 N 0.68161 0.38234 0.95182
 C424 C 0.68692 0.38757 0.97129
 N425 N 0.69979 0.40350 0.97407
 N426 N 0.70740 0.41351 0.95819
 C427 C 0.71286 0.41813 0.92165
 N428 N 0.72833 0.43117 0.92576
 N429 N 0.73896 0.43958 0.91070
 C430 C 0.73453 0.43539 0.89086
 N431 N 0.71886 0.42252 0.88661
 N432 N 0.70825 0.41394 0.90177
 C433 C 0.74727 0.44434 0.87473
 N434 N 0.74162 0.44432 0.85472
 N435 N 0.75346 0.45305 0.84059
 C436 C 0.77141 0.46187 0.84602
 N437 N 0.77702 0.46167 0.86596
 N438 N 0.76518 0.45314 0.88002
 C439 C 0.28905 0.60287 0.92839
 N440 N 0.27825 0.60735 0.94556
 N441 N 0.28733 0.61531 0.96187
 C442 C 0.30762 0.61923 0.96176
 N443 N 0.31851 0.61496 0.94447
 N444 N 0.30940 0.60680 0.92808
 C445 C 0.27843 0.59346 0.91100
 N446 N 0.28857 0.58527 0.89470
 N447 N 0.27838 0.57557 0.87988
 C448 C 0.25774 0.57384 0.88088
 N449 N 0.24773 0.58229 0.89702
 N450 N 0.25785 0.59187 0.91176
 C451 C 0.24607 0.56187 0.86590
 N452 N 0.22581 0.55927 0.86905
 N453 N 0.21496 0.54730 0.85680
 C454 C 0.22388 0.53749 0.84079
 N455 N 0.24414 0.54026 0.83733
 N456 N 0.25508 0.55223 0.84973
 C457 C 0.07311 0.28985 0.39960
 N458 N 0.05572 0.27963 0.39523
 N459 N 0.03959 0.28933 0.38791
 C460 C 0.04010 0.30967 0.38458
 N461 N 0.05762 0.31996 0.38873
 N462 N 0.07383 0.31023 0.39621
 C463 C 0.09028 0.27865 0.40849
 N464 N 0.10709 0.28826 0.41590
 N465 N 0.12177 0.27767 0.42513
 C466 C 0.12013 0.25716 0.42720
 N467 N 0.10346 0.24766 0.41954
 N468 N 0.08885 0.25818 0.41039
 C469 C 0.13508 0.24522 0.43872
 N470 N 0.13137 0.22522 0.44205
 N471 N 0.14374 0.21427 0.45366
 C472 C 0.16042 0.22283 0.46234
 N473 N 0.16441 0.24281 0.45881
 N474 N 0.15190 0.25384 0.44722
 C475 C 0.06716 0.70986 0.60207
 N476 N 0.04949 0.72020 0.60496
 N477 N 0.03291 0.71077 0.61175
 C478 C 0.03328 0.69060 0.61601
 N479 N 0.05104 0.68020 0.61324
 N480 N 0.06767 0.68965 0.60627
 C481 C 0.08501 0.72072 0.59409
 N482 N 0.10197 0.71072 0.58745
 N483 N 0.11741 0.72095 0.57902
 C484 C 0.11644 0.74152 0.57711
 N485 N 0.09962 0.75143 0.58404
 N486 N 0.08422 0.74125 0.59234
 C487 C 0.13223 0.75302 0.56620
 N488 N 0.12968 0.77330 0.56351
 N489 N 0.14252 0.78379 0.55189
 C490 C 0.15853 0.77446 0.54257
 N491 N 0.16141 0.75421 0.54555
 N492 N 0.14846 0.74366 0.55717
 C493 C 0.91825 0.72834 0.38271
 N494 N 0.93603 0.73853 0.38022
 N495 N 0.95273 0.72888 0.37383
 C496 C 0.95228 0.70867 0.36949
 N497 N 0.93435 0.69850 0.37144
 N498 N 0.91763 0.70815 0.37805
 C499 C 0.90089 0.73878 0.39242
 N500 N 0.88467 0.72826 0.39984
 N501 N 0.87040 0.73767 0.41107
 C502 C 0.87189 0.75791 0.41523
 N503 N 0.88786 0.76843 0.40740
 N504 N 0.90208 0.75905 0.39625
 C505 C 0.85800 0.76809 0.42974
 N506 N 0.86193 0.78750 0.43566
 N507 N 0.85097 0.79640 0.45036
 C508 C 0.83557 0.78628 0.45970
 N509 N 0.83131 0.76694 0.45356
 N510 N 0.84240 0.75796 0.43887
 C511 C 0.93344 0.27617 0.60198
 N512 N 0.93209 0.29527 0.61002
 N513 N 0.94814 0.30376 0.61924
 C514 C 0.96613 0.29353 0.62058
 N515 N 0.96730 0.27447 0.61253
 N516 N 0.95132 0.26597 0.60345
 C517 C 0.91627 0.26641 0.59144
 N518 N 0.91811 0.24678 0.58516
 N519 N 0.90326 0.23775 0.57474
 C520 C 0.88594 0.24797 0.57015
 N521 N 0.88393 0.26762 0.57655
 N522 N 0.89884 0.27668 0.58707
 C523 C 0.87051 0.23794 0.55737
 N524 N 0.85342 0.24778 0.55112
 N525 N 0.84041 0.23870 0.53832
 C526 C 0.84410 0.21949 0.53133
 N527 N 0.86104 0.20967 0.53780
 N528 N 0.87395 0.21869 0.55058
 C529 C 0.37827 0.06996 0.27750
 N530 N 0.37596 0.05242 0.26668
 N531 N 0.37077 0.03527 0.27600
 C532 C 0.36749 0.03500 0.29651
 N533 N 0.36928 0.05266 0.30733
 N534 N 0.37470 0.06983 0.29800
 C535 C 0.38658 0.08795 0.26725
 N536 N 0.39413 0.10395 0.27812
 N537 N 0.40413 0.11889 0.26867
 C538 C 0.40686 0.11832 0.24804
 N539 N 0.39888 0.10256 0.23722
 N540 N 0.38897 0.08766 0.24663
 C541 C 0.42011 0.13295 0.23758
 N542 N 0.42449 0.13004 0.21747
 N543 N 0.43818 0.14162 0.20809
 C544 C 0.44800 0.15664 0.21840
 N545 N 0.44339 0.15990 0.23847
 N546 N 0.42971 0.14819 0.24793
 C547 C 0.61516 0.08170 0.71963
 N548 N 0.61918 0.06480 0.73069
 N549 N 0.62613 0.04800 0.72162
 C550 C 0.62951 0.04744 0.70113
 N551 N 0.62605 0.06452 0.69006
 N552 N 0.61890 0.08135 0.69915
 C553 C 0.60481 0.09893 0.72964
 N554 N 0.59652 0.11433 0.71865
 N555 N 0.58488 0.12839 0.72783
 C556 C 0.58112 0.12747 0.74828
 N557 N 0.58976 0.11232 0.75923
 N558 N 0.60135 0.09833 0.75010
 C559 C 0.56653 0.14122 0.75842
 N560 N 0.56076 0.13737 0.77796
 N561 N 0.54653 0.14862 0.78714
 C562 C 0.53754 0.16423 0.77719
 N563 N 0.54342 0.16833 0.75767
 N564 N 0.55763 0.15693 0.74840
 C565 C 0.40563 0.93238 0.71153
 N566 N 0.39985 0.93123 0.69160
 N567 N 0.39176 0.94741 0.68239
 C568 C 0.38939 0.96532 0.69274
 N569 N 0.39525 0.96631 0.71261
 N570 N 0.40316 0.95020 0.72181
 C571 C 0.41464 0.91503 0.72223
 N572 N 0.41777 0.91650 0.74268
 N573 N 0.42681 0.90154 0.75275
 C574 C 0.43314 0.88449 0.74279
 N575 N 0.42989 0.88284 0.72230
 N576 N 0.42072 0.89786 0.71218
 C577 C 0.44451 0.86907 0.75420
 N578 N 0.45286 0.85246 0.74487
 N579 N 0.46455 0.83965 0.75543
 C580 C 0.46828 0.84310 0.77562
 N581 N 0.45969 0.85953 0.78488
 N582 N 0.44803 0.87223 0.77441
 C583 C 0.61647 0.92027 0.28651
 N584 N 0.61993 0.93719 0.27527
 N585 N 0.62423 0.95483 0.28434
 C586 C 0.62543 0.95622 0.30502
 N587 N 0.62249 0.93919 0.31632
 N588 N 0.61795 0.92152 0.30722
 C589 C 0.60898 0.90183 0.27623
 N590 N 0.59983 0.88665 0.28688
 N591 N 0.59037 0.87151 0.27705
 C592 C 0.58979 0.87105 0.25626
 N593 N 0.59941 0.88595 0.24571
 N594 N 0.60879 0.90104 0.25549
 C595 C 0.57697 0.85648 0.24509
 N596 N 0.57416 0.85902 0.22473
 N597 N 0.56083 0.84764 0.21455
 C598 C 0.54981 0.83319 0.22430
 N599 N 0.55285 0.83027 0.24464
 N600 N 0.56616 0.84181 0.25489
 C601 C 0.39670 0.29029 0.93276
 N602 N 0.38682 0.30845 0.93173
 N603 N 0.37933 0.31723 0.94870
 C604 C 0.38164 0.30828 0.96731
 N605 N 0.39182 0.29030 0.96809
 N606 N 0.39909 0.28149 0.95124
 C607 C 0.40448 0.27949 0.91457
 N608 N 0.40930 0.25952 0.91627
 N609 N 0.41738 0.24933 0.90061
 C610 C 0.42112 0.25868 0.88258
 N611 N 0.41618 0.27870 0.88068
 N612 N 0.40789 0.28893 0.89642
 C613 C 0.43166 0.24717 0.86632
 N614 N 0.43892 0.25620 0.84911
 N615 N 0.45025 0.24562 0.83570
 C616 C 0.45466 0.22570 0.83909
 N617 N 0.44707 0.21671 0.85609
 N618 N 0.43580 0.22721 0.86940
 C619 C 0.60395 0.71479 0.93285
 N620 N 0.61382 0.69675 0.93037
 N621 N 0.62170 0.68720 0.94650
 C622 C 0.61988 0.69526 0.96571
 N623 N 0.60979 0.71319 0.96798
 N624 N 0.60206 0.72276 0.95194
 C625 C 0.59554 0.72609 0.91550
 N626 N 0.58887 0.74539 0.91863
 N627 N 0.58069 0.75594 0.90347
 C628 C 0.57876 0.74761 0.88453
 N629 N 0.58549 0.72827 0.88126
 N630 N 0.59383 0.71770 0.89649
 C631 C 0.56856 0.75940 0.86852
 N632 N 0.56349 0.75105 0.85012
 N633 N 0.55273 0.76172 0.83659
 C634 C 0.54675 0.78109 0.84102
 N635 N 0.55213 0.78942 0.85925
 N636 N 0.56282 0.77881 0.87271
 C637 C 0.40972 0.71472 0.06271
 N638 N 0.39852 0.69742 0.06433
 N639 N 0.39034 0.68880 0.04770
 C640 C 0.39319 0.69705 0.02882
 N641 N 0.40468 0.71417 0.02741
 N642 N 0.41270 0.72282 0.04394
 C643 C 0.41820 0.72527 0.08065
 N644 N 0.42563 0.74436 0.07839
 N645 N 0.43378 0.75428 0.09412
 C646 C 0.43494 0.74552 0.11279
 N647 N 0.42746 0.72638 0.11520
 N648 N 0.41913 0.71644 0.09939
 C649 C 0.44515 0.75662 0.12945
 N650 N 0.44996 0.74760 0.14746
 N651 N 0.46089 0.75761 0.16151
 C652 C 0.46728 0.77696 0.15801
 N653 N 0.46212 0.78597 0.14017
 N654 N 0.45128 0.77602 0.12620
 C655 C 0.59866 0.27605 0.06828
 N656 N 0.60821 0.29427 0.07053
 N657 N 0.61632 0.30359 0.05431
 C658 C 0.61499 0.29515 0.03523
 N659 N 0.60527 0.27701 0.03321
 N660 N 0.59736 0.26766 0.04934
 C661 C 0.58968 0.26517 0.08569
 N662 N 0.58363 0.24561 0.08300
 N663 N 0.57457 0.23556 0.09807
 C664 C 0.57107 0.24466 0.11644
 N665 N 0.57722 0.26424 0.11929
 N666 N 0.58646 0.27431 0.10417
 C667 C 0.55956 0.23353 0.13213
 N668 N 0.55299 0.24266 0.14971
 N669 N 0.54091 0.23266 0.16273
 C670 C 0.53506 0.21322 0.15858
 N671 N 0.54194 0.20409 0.14119
 N672 N 0.55396 0.21403 0.12826
 C673 C 0.28930 0.06154 0.59212
 N674 N 0.28166 0.04261 0.58924
 N675 N 0.29091 0.02651 0.59710
 C676 C 0.30819 0.02854 0.60830
 N677 N 0.31601 0.04757 0.61099
 N678 N 0.30677 0.06378 0.60300
 C679 C 0.27804 0.07900 0.58404
 N680 N 0.28619 0.09801 0.58340
 N681 N 0.27553 0.11345 0.57564
 C682 C 0.25633 0.11038 0.56849
 N683 N 0.24826 0.09144 0.56932
 N684 N 0.25890 0.07606 0.57690
 C685 C 0.24441 0.12670 0.55908
 N686 N 0.22490 0.12290 0.55351
 N687 N 0.21416 0.13671 0.54345
 C688 C 0.22248 0.15490 0.53855
 N689 N 0.24195 0.15894 0.54436
 N690 N 0.25274 0.14506 0.55450
 C691 C 0.71581 0.07880 0.38082
 N692 N 0.69519 0.07854 0.37898
 N693 N 0.68542 0.06111 0.37521
 C694 C 0.69593 0.04335 0.37344
 N695 N 0.71653 0.04373 0.37501
 N696 N 0.72628 0.06112 0.37853
 C697 C 0.72672 0.09714 0.38749
 N698 N 0.74738 0.09698 0.38784
 N699 N 0.75762 0.11213 0.39660
 C700 C 0.74763 0.12803 0.40543
 N701 N 0.72694 0.12849 0.40467
 N702 N 0.71666 0.11331 0.39581
 C703 C 0.75915 0.14273 0.41781
 N704 N 0.74970 0.15795 0.42841
 N705 N 0.76013 0.16949 0.44161
 C706 C 0.78030 0.16606 0.44473
 N707 N 0.78973 0.15110 0.43387
 N708 N 0.77938 0.13969 0.42065
 C709 C 0.72699 0.92966 0.62318
 N710 N 0.73778 0.94722 0.62440
 N711 N 0.72857 0.96472 0.62897
 C712 C 0.70822 0.96533 0.63265
 N713 N 0.69745 0.94768 0.63191
 N714 N 0.70665 0.93016 0.62713
 C715 C 0.73699 0.91112 0.61552
 N716 N 0.72593 0.89497 0.60872
 N717 N 0.73507 0.87943 0.59911
 C718 C 0.75556 0.87952 0.59605
 N719 N 0.76659 0.89544 0.60333
 N720 N 0.75749 0.91094 0.61284
 C721 C 0.76554 0.86429 0.58287
 N722 N 0.78552 0.86656 0.57808
 N723 N 0.79431 0.85467 0.56406
 C724 C 0.78349 0.83998 0.55430
 N725 N 0.76357 0.83731 0.55938
 N726 N 0.75472 0.84932 0.57340
 C727 C 0.27565 0.92118 0.38557
 N728 N 0.29591 0.92070 0.38118
 N729 N 0.30549 0.93746 0.37487
 C730 C 0.29516 0.95528 0.37293
 N731 N 0.27487 0.95556 0.37700
 N732 N 0.26530 0.93885 0.38311
 C733 C 0.26516 0.90373 0.39476
 N734 N 0.24488 0.90500 0.39865
 N735 N 0.23539 0.89052 0.40910
 C736 C 0.24580 0.87418 0.41613
 N737 N 0.26605 0.87264 0.41193
 N738 N 0.27558 0.88718 0.40142
 C739 C 0.23540 0.85970 0.42962
 N740 N 0.24519 0.84328 0.43746
 N741 N 0.23587 0.83132 0.45102
 C742 C 0.21652 0.83548 0.45729
 N743 N 0.20676 0.85176 0.44929
 N744 N 0.21599 0.86360 0.43571
 C745 C 0.06154 0.39752 0.72000
 N746 N 0.06383 0.38602 0.70276
 N747 N 0.04784 0.37640 0.69459
 C748 C 0.02898 0.37799 0.70328
 N749 N 0.02689 0.38973 0.72036
 N750 N 0.04278 0.39923 0.72855
 C751 C 0.07880 0.40772 0.72998
 N752 N 0.07585 0.41657 0.74856
 N753 N 0.09104 0.42599 0.75808
 C754 C 0.10980 0.42702 0.74942
 N755 N 0.11287 0.41817 0.73076
 N756 N 0.09762 0.40860 0.72122
 C757 C 0.12597 0.43808 0.76028
 N758 N 0.14440 0.44197 0.75154
 N759 N 0.15828 0.45307 0.76152
 C760 C 0.15418 0.46057 0.78057
 N761 N 0.13588 0.45644 0.78927
 N762 N 0.12207 0.44543 0.77934
 C763 C 0.06603 0.62321 0.27357
 N764 N 0.06620 0.63279 0.29208
 N765 N 0.04877 0.63880 0.30089
 C766 C 0.03052 0.63515 0.29168
 N767 N 0.03059 0.62569 0.27312
 N768 N 0.04792 0.61997 0.26423
 C769 C 0.08464 0.61523 0.26389
 N770 N 0.08401 0.60942 0.24395
 N771 N 0.09979 0.60005 0.23524
 C772 C 0.11683 0.59596 0.24613
 N773 N 0.11769 0.60203 0.26606
 N774 N 0.10186 0.61157 0.27479
 C775 C 0.13291 0.58351 0.23657
 N776 N 0.14932 0.57676 0.24723
 N777 N 0.16259 0.56383 0.23857
 C778 C 0.15979 0.55718 0.21902
 N779 N 0.14356 0.56418 0.20840
 N780 N 0.13042 0.57707 0.21698
 C781 C 0.93890 0.41782 0.29828
 N782 N 0.93720 0.40457 0.31407
 N783 N 0.95386 0.39673 0.32269
 C784 C 0.97282 0.40185 0.31585
 N785 N 0.97428 0.41552 0.30043
 N786 N 0.95774 0.42327 0.29183
 C787 C 0.92114 0.42508 0.28684
 N788 N 0.92429 0.43397 0.26846
 N789 N 0.90869 0.44010 0.25719
 C790 C 0.88927 0.43774 0.26386
 N791 N 0.88597 0.42898 0.28239
 N792 N 0.90168 0.42262 0.29365
 C793 C 0.87261 0.44484 0.25079
 N794 N 0.85343 0.44819 0.25806
 N795 N 0.83919 0.45631 0.24601
 C796 C 0.84368 0.46115 0.22629
 N797 N 0.86271 0.45740 0.21906
 N798 N 0.87687 0.44945 0.23105
 C799 C 0.93545 0.57928 0.70432
 N800 N 0.95458 0.57566 0.71104
 N801 N 0.97039 0.58547 0.70314
 C802 C 0.96790 0.59943 0.68815
 N803 N 0.94868 0.60282 0.68108
 N804 N 0.93273 0.59294 0.68904
 C805 C 0.91837 0.56924 0.71478
 N806 N 0.92238 0.55809 0.73165
 N807 N 0.90742 0.54944 0.74218
 C808 C 0.88777 0.55147 0.73625
 N809 N 0.88360 0.56248 0.71921
 N810 N 0.89867 0.57131 0.70867
 C811 C 0.87177 0.54205 0.74879
 N812 N 0.85218 0.54014 0.74231
 N813 N 0.83830 0.53087 0.75403
 C814 C 0.84356 0.52338 0.77264
 N815 N 0.86306 0.52551 0.77905
 N816 N 0.87686 0.53459 0.76737
 C817 C 0.72285 0.61166 0.92037
 N818 N 0.70264 0.61622 0.91995
 N819 N 0.69278 0.62144 0.93712
 C820 C 0.70274 0.62204 0.95533
 N821 N 0.72296 0.61775 0.95562
 N822 N 0.73283 0.61277 0.93848
 C823 C 0.73354 0.60356 0.90226
 N824 N 0.75397 0.60056 0.90301
 N825 N 0.76363 0.59075 0.88795
 C826 C 0.75323 0.58346 0.87156
 N827 N 0.73281 0.58681 0.87054
 N828 N 0.72314 0.59673 0.88562
 C829 C 0.76369 0.57005 0.85677
 N830 N 0.75338 0.56052 0.84145
 N831 N 0.76252 0.54632 0.82992
 C832 C 0.78226 0.54112 0.83338
 N833 N 0.79261 0.55096 0.84841
 N834 N 0.78353 0.56516 0.85984
 C835 C 0.27527 0.39002 0.93226
 N836 N 0.26755 0.39421 0.95107
 N837 N 0.27754 0.38883 0.96782
 C838 C 0.29562 0.37880 0.96660
 N839 N 0.30320 0.37422 0.94765
 N840 N 0.29330 0.37988 0.93078
 C841 C 0.26441 0.39755 0.91422
 N842 N 0.27400 0.40047 0.89599
 N843 N 0.26434 0.40967 0.88064
 C844 C 0.24477 0.41613 0.88300
 N845 N 0.23516 0.41276 0.90107
 N846 N 0.24479 0.40374 0.91637
 C847 C 0.23442 0.42834 0.86740
 N848 N 0.21523 0.43508 0.87116
 N849 N 0.20620 0.44796 0.85850
 C850 C 0.21598 0.45463 0.84151
 N851 N 0.23510 0.44764 0.83745
 N852 N 0.24419 0.43472 0.85021
 C853 C 0.28362 0.62217 0.07122
 N854 N 0.30404 0.62563 0.07148
 N855 N 0.31389 0.63077 0.05436
 C856 C 0.30368 0.63242 0.03637
 N857 N 0.28324 0.62930 0.03629
 N858 N 0.27341 0.62434 0.05337
 C859 C 0.27276 0.61418 0.08915
 N860 N 0.25238 0.61100 0.08803
 N861 N 0.24252 0.60155 0.10301
 C862 C 0.25265 0.59485 0.11972
 N863 N 0.27302 0.59834 0.12109
 N864 N 0.28292 0.60785 0.10604
 C865 C 0.24182 0.58234 0.13479
 N866 N 0.25131 0.57496 0.15164
 N867 N 0.24160 0.56222 0.16417
 C868 C 0.22216 0.55634 0.16017
 N869 N 0.21269 0.56390 0.14345
 N870 N 0.22231 0.57667 0.13104
 C871 C 0.71919 0.37858 0.07789
 N872 N 0.69905 0.37389 0.07908
 N873 N 0.68867 0.36882 0.06225
 C874 C 0.69804 0.36851 0.04365
 N875 N 0.71821 0.37294 0.04259
 N876 N 0.72859 0.37777 0.05937
 C877 C 0.73046 0.38640 0.09568
 N878 N 0.75084 0.38948 0.09411
 N879 N 0.76098 0.39893 0.10898
 C880 C 0.75115 0.40575 0.12601
 N881 N 0.73079 0.40235 0.12782
 N882 N 0.72062 0.39280 0.11292
 C883 C 0.76214 0.41861 0.14080
 N884 N 0.75236 0.42771 0.15682
 N885 N 0.76200 0.44132 0.16856
 C886 C 0.78172 0.44632 0.16463
 N887 N 0.79153 0.43693 0.14887
 N888 N 0.78195 0.42332 0.13722
 C889 C 0.92471 0.71275 0.61353
 N890 N 0.92466 0.69212 0.61511
 N891 N 0.94127 0.68226 0.62143
 C892 C 0.95852 0.69268 0.62625
 N893 N 0.95832 0.71328 0.62506
 N894 N 0.94175 0.72310 0.61892
 C895 C 0.90774 0.72389 0.60416
 N896 N 0.90909 0.74438 0.60229
 N897 N 0.89517 0.75469 0.59189
 C898 C 0.87932 0.74496 0.58289
 N899 N 0.87768 0.72445 0.58501
 N900 N 0.89169 0.71408 0.59544
 C901 C 0.86531 0.75658 0.56991
 N902 N 0.84855 0.74795 0.56129
 N903 N 0.83665 0.75871 0.54882
 C904 C 0.84126 0.77838 0.54442
 N905 N 0.85796 0.78691 0.55310
 N906 N 0.86971 0.77625 0.56561
 C907 C 0.93045 0.28890 0.38385
 N908 N 0.94777 0.27826 0.37993
 N909 N 0.96492 0.28781 0.37495
 C910 C 0.96544 0.30838 0.37352
 N911 N 0.94798 0.31906 0.37694
 N912 N 0.93079 0.30949 0.38211
 C913 C 0.91247 0.27813 0.39171
 N914 N 0.89642 0.28833 0.40011
 N915 N 0.88138 0.27823 0.40939
 C916 C 0.88190 0.25759 0.41054
 N917 N 0.89775 0.24747 0.40178
 N918 N 0.91273 0.25752 0.39258
 C919 C 0.86691 0.24621 0.42268
 N920 N 0.86974 0.22599 0.42553
 N921 N 0.85758 0.21561 0.43796
 C922 C 0.84203 0.22498 0.44801
 N923 N 0.83890 0.24519 0.44495
 N924 N 0.85119 0.25565 0.43254
 C925 C 0.07552 0.27304 0.62054
 N926 N 0.05845 0.26184 0.62366
 N927 N 0.04126 0.27062 0.62997
 C928 C 0.04045 0.29096 0.63361
 N929 N 0.05767 0.30217 0.63102
 N930 N 0.07490 0.29337 0.62450
 C931 C 0.09342 0.26331 0.61103
 N932 N 0.10910 0.27445 0.60334
 N933 N 0.12392 0.26548 0.59247
 C934 C 0.12355 0.24506 0.58893
 N935 N 0.10810 0.23397 0.59700
 N936 N 0.09334 0.24290 0.60779
 C937 C 0.13817 0.23510 0.57498
 N938 N 0.13515 0.21538 0.56956
 N939 N 0.14690 0.20645 0.55551
 C940 C 0.16225 0.21682 0.54637
 N941 N 0.16560 0.23649 0.55199
 N942 N 0.15369 0.24552 0.56602
 C943 C 0.05919 0.71658 0.40021
 N944 N 0.06067 0.69971 0.38811
 N945 N 0.04408 0.69191 0.37918
 C946 C 0.02541 0.70061 0.38213
 N947 N 0.02417 0.71726 0.39451
 N948 N 0.04063 0.72508 0.40328
 C949 C 0.07705 0.72642 0.40953
 N950 N 0.07479 0.74527 0.41779
 N951 N 0.09037 0.75466 0.42667
 C952 C 0.10888 0.74559 0.42776
 N953 N 0.11129 0.72667 0.41948
 N954 N 0.09562 0.71726 0.41041
 C955 C 0.12538 0.75629 0.43855
 N956 N 0.14331 0.74709 0.44330
 N957 N 0.15725 0.75689 0.45451
 C958 C 0.15371 0.77622 0.46127
 N959 N 0.13595 0.78539 0.45621
 N960 N 0.12209 0.77564 0.44510
 C961 C 0.60435 0.93974 0.71567
 N962 N 0.61537 0.93810 0.69807
 N963 N 0.62298 0.95470 0.68915
 C964 C 0.61972 0.97355 0.69739
 N965 N 0.60840 0.97497 0.71480
 N966 N 0.60096 0.95848 0.72376
 C967 C 0.59653 0.92184 0.72651
 N968 N 0.58971 0.92411 0.74601
 N969 N 0.58210 0.90840 0.75617
 C970 C 0.58089 0.88975 0.74724
 N971 N 0.58776 0.88735 0.72769
 N972 N 0.59557 0.90313 0.71752
 C973 C 0.57110 0.87313 0.75855
 N974 N 0.56574 0.85532 0.74931
 N975 N 0.55495 0.84141 0.75950
 C976 C 0.54924 0.84485 0.77927
 N977 N 0.55499 0.86245 0.78851
 N978 N 0.56571 0.87629 0.77838
 C979 C 0.40045 0.92902 0.28375
 N980 N 0.38973 0.92704 0.30150
 N981 N 0.38053 0.94318 0.31008
 C982 C 0.38183 0.96191 0.30131
 N983 N 0.39274 0.96364 0.28369
 N984 N 0.40177 0.94762 0.27511
 C985 C 0.41046 0.91172 0.27337
 N986 N 0.41800 0.91444 0.25425
 N987 N 0.42772 0.89949 0.24449
 C988 C 0.43040 0.88117 0.25345
 N989 N 0.42280 0.87828 0.27263
 N990 N 0.41292 0.89330 0.28242
 C991 C 0.44221 0.86545 0.24243
 N992 N 0.44758 0.84754 0.25122
 N993 N 0.45952 0.83429 0.24117
 C994 C 0.46643 0.83853 0.22200
 N995 N 0.46081 0.85629 0.21325
 N996 N 0.44895 0.86945 0.22323
 C997 C 0.59055 0.06076 0.28733
 N998 N 0.58905 0.04159 0.27974
 N999 N 0.59793 0.02611 0.28916
 C1000 C 0.60883 0.02903 0.30657
 N1001 N 0.61021 0.04831 0.31429
 N1002 N 0.60120 0.06388 0.30487
 C1003 C 0.58103 0.07755 0.27608
 N1004 N 0.57965 0.09671 0.28400
 N1005 N 0.57062 0.11150 0.27342
 C1006 C 0.56283 0.10765 0.25452
 N1007 N 0.56436 0.08855 0.24667
 N1008 N 0.57324 0.07382 0.25723
 C1009 C 0.55224 0.12335 0.24266
 N1010 N 0.54586 0.11881 0.22344
 N1011 N 0.53517 0.13219 0.21273
 C1012 C 0.53041 0.15068 0.22077
 N1013 N 0.53696 0.15540 0.23996
 N1014 N 0.54773 0.14197 0.25071
 C1015 C 0.38741 0.07460 0.71456
 N1016 N 0.38435 0.07420 0.69398
 N1017 N 0.37880 0.05698 0.68455
 C1018 C 0.37631 0.03954 0.69534
 N1019 N 0.37909 0.04011 0.71591
 N1020 N 0.38443 0.05729 0.72532
 C1021 C 0.39559 0.09267 0.72512
 N1022 N 0.39756 0.09244 0.74577
 N1023 N 0.40695 0.10755 0.75556
 C1024 C 0.41481 0.12350 0.74512
 N1025 N 0.41257 0.12398 0.72444
 N1026 N 0.40310 0.10882 0.71461
 C1027 C 0.42712 0.13871 0.75616
 N1028 N 0.43611 0.15459 0.74641
 N1029 N 0.44870 0.16708 0.75649
 C1030 C 0.45278 0.16402 0.77663
 N1031 N 0.44358 0.14832 0.78633
 N1032 N 0.43098 0.13596 0.77632
 C1033 C 0.61970 0.71416 0.07544
 N1034 N 0.62406 0.72543 0.05869
 N1035 N 0.62977 0.71654 0.04124
 C1036 C 0.63156 0.69601 0.03986
 N1037 N 0.62772 0.68469 0.05678
 N1038 N 0.62179 0.69360 0.07425
 C1039 C 0.61087 0.72423 0.09358
 N1040 N 0.60184 0.71343 0.10879
 N1041 N 0.59161 0.72294 0.12377
 C1042 C 0.59008 0.74358 0.12403
 N1043 N 0.59948 0.75429 0.10906
 N1044 N 0.60964 0.74482 0.09414
 C1045 C 0.57687 0.75436 0.13875
 N1046 N 0.57350 0.77455 0.13628
 N1047 N 0.56017 0.78440 0.14809
 C1048 C 0.54971 0.77452 0.16293
 N1049 N 0.55327 0.75435 0.16573
 N1050 N 0.56658 0.74441 0.15377
 C1051 C 0.38349 0.28152 0.07496
 N1052 N 0.38027 0.30194 0.07592
 N1053 N 0.37417 0.31205 0.05937
 C1054 C 0.37129 0.30209 0.04129
 N1055 N 0.37420 0.28166 0.04053
 N1056 N 0.38009 0.27158 0.05704
 C1057 C 0.39238 0.27032 0.09214
 N1058 N 0.39493 0.24990 0.09044
 N1059 N 0.40500 0.23965 0.10465
 C1060 C 0.41299 0.24940 0.12113
 N1061 N 0.41017 0.26982 0.12309
 N1062 N 0.40003 0.28012 0.10882
 C1063 C 0.42589 0.23799 0.13536
 N1064 N 0.43466 0.24703 0.15191
 N1065 N 0.44750 0.23663 0.16371
 C1066 C 0.45209 0.21691 0.15925
 N1067 N 0.44318 0.20793 0.14282
 N1068 N 0.43032 0.21824 0.13114
 C1069 C 0.61163 0.27775 0.92536
 N1070 N 0.61483 0.29816 0.92665
 N1071 N 0.62154 0.30659 0.94402
 C1072 C 0.62512 0.29492 0.96074
 N1073 N 0.62226 0.27452 0.95923
 N1074 N 0.61574 0.26611 0.94188
 C1075 C 0.60190 0.26835 0.90740
 N1076 N 0.59904 0.24792 0.90697
 N1077 N 0.58816 0.23922 0.89219
 C1078 C 0.57966 0.25057 0.87722
 N1079 N 0.58281 0.27102 0.87736
 N1080 N 0.59374 0.27976 0.89221
 C1081 C 0.56581 0.24077 0.86252
 N1082 N 0.55684 0.25131 0.84715
 N1083 N 0.54314 0.24232 0.83500
 C1084 C 0.53786 0.22256 0.83797
 N1085 N 0.54698 0.21209 0.85321
 N1086 N 0.56070 0.22099 0.86520
 C1087 C 0.39312 0.72102 0.92031
 N1088 N 0.38983 0.70061 0.92024
 N1089 N 0.38380 0.69121 0.93727
 C1090 C 0.38109 0.70189 0.95498
 N1091 N 0.38411 0.72230 0.95490
 N1092 N 0.38991 0.73168 0.93789
 C1093 C 0.40196 0.73145 0.90257
 N1094 N 0.40396 0.75198 0.90311
 N1095 N 0.41418 0.76163 0.88851
 C1096 C 0.42289 0.75115 0.87279
 N1097 N 0.42059 0.73060 0.87195
 N1098 N 0.41028 0.72091 0.88660
 C1099 C 0.43628 0.76196 0.85845
 N1100 N 0.44629 0.75211 0.84302
 N1101 N 0.45991 0.76196 0.83151
 C1102 C 0.46405 0.78192 0.83518
 N1103 N 0.45384 0.79172 0.85042
 N1104 N 0.44021 0.78196 0.86178
 C1105 C 0.71010 0.93936 0.41306
 N1106 N 0.71778 0.95845 0.41440
 N1107 N 0.70880 0.97383 0.40491
 C1108 C 0.69174 0.97087 0.39361
 N1109 N 0.68389 0.95172 0.39236
 N1110 N 0.69288 0.93624 0.40195
 C1111 C 0.72101 0.92263 0.42307
 N1112 N 0.71337 0.90341 0.42382
 N1113 N 0.72381 0.88859 0.43298
 C1114 C 0.74226 0.89249 0.44156
 N1115 N 0.74981 0.91166 0.44071
 N1116 N 0.73940 0.92641 0.43169
 C1117 C 0.75416 0.87665 0.45192
 N1118 N 0.77314 0.88116 0.45871
 N1119 N 0.78404 0.86748 0.46880
 C1120 C 0.77641 0.84870 0.47255
 N1121 N 0.75743 0.84404 0.46568
 N1122 N 0.74649 0.85778 0.45548
 C1123 C 0.28532 0.92073 0.60967
 N1124 N 0.27463 0.93792 0.61396
 N1125 N 0.28413 0.95490 0.61964
 C1126 C 0.30471 0.95535 0.62149
 N1127 N 0.31545 0.93800 0.61771
 N1128 N 0.30592 0.92100 0.61181
 C1129 C 0.27456 0.90304 0.60100
 N1130 N 0.28476 0.88722 0.59216
 N1131 N 0.27464 0.87255 0.58223
 C1132 C 0.25398 0.87324 0.58082
 N1133 N 0.24386 0.88885 0.59001
 N1134 N 0.25393 0.90345 0.59986
 C1135 C 0.24252 0.85868 0.56809
 N1136 N 0.22237 0.86192 0.56495
 N1137 N 0.21190 0.85014 0.55215
 C1138 C 0.22110 0.83455 0.54201
 N1139 N 0.24124 0.83100 0.54534
 N1140 N 0.25180 0.84293 0.55812
 C1141 C 0.28185 0.06442 0.39823
 N1142 N 0.27112 0.04688 0.39657
 N1143 N 0.27982 0.03004 0.38928
 C1144 C 0.29964 0.02998 0.38325
 N1145 N 0.31044 0.04759 0.38482
 N1146 N 0.30174 0.06449 0.39229
 C1147 C 0.27167 0.08268 0.40649
 N1148 N 0.28224 0.09959 0.41217
 N1149 N 0.27260 0.11549 0.42068
 C1150 C 0.25207 0.11504 0.42362
 N1151 N 0.24160 0.09825 0.41766
 N1152 N 0.25120 0.08240 0.40930
 C1153 C 0.24114 0.13147 0.43447
 N1154 N 0.22078 0.12967 0.43754
 N1155 N 0.21074 0.14307 0.44913
 C1156 C 0.22061 0.15891 0.45806
 N1157 N 0.24096 0.16104 0.45468
 N1158 N 0.25107 0.14755 0.44306
 C1159 C 0.72188 0.07119 0.59774
 N1160 N 0.70253 0.07260 0.60517
 N1161 N 0.69392 0.05681 0.61464
 C1162 C 0.70431 0.03902 0.61688
 N1163 N 0.72362 0.03782 0.60947
 N1164 N 0.73221 0.05352 0.60013
 C1165 C 0.73190 0.08803 0.58692
 N1166 N 0.75155 0.08575 0.58083
 N1167 N 0.76093 0.10027 0.57036
 C1168 C 0.75108 0.11770 0.56552
 N1169 N 0.73140 0.12015 0.57170
 N1170 N 0.72196 0.10555 0.58225
 C1171 C 0.76173 0.13292 0.55301
 N1172 N 0.75268 0.15055 0.54716
 N1173 N 0.76253 0.16356 0.53499
 C1174 C 0.78173 0.15932 0.52826
 N1175 N 0.79072 0.14178 0.53427
 N1176 N 0.78095 0.12889 0.54641
 C1177 C 0.92239 0.61171 0.27530
 N1178 N 0.92242 0.61587 0.29572
 N1179 N 0.93891 0.62381 0.30464
 C1180 C 0.95602 0.62767 0.29349
 N1181 N 0.95580 0.62363 0.27309
 N1182 N 0.93935 0.61585 0.26419
 C1183 C 0.90499 0.60188 0.26516
 N1184 N 0.90563 0.59872 0.24462
 N1185 N 0.89091 0.58844 0.23521
 C1186 C 0.87493 0.58087 0.24593
 N1187 N 0.87406 0.58423 0.26649
 N1188 N 0.88884 0.59459 0.27594
 C1189 C 0.86007 0.56773 0.23545
 N1190 N 0.84423 0.55910 0.24566
 N1191 N 0.83215 0.54565 0.23627
 C1192 C 0.83554 0.54034 0.21639
 N1193 N 0.85118 0.54921 0.20618
 N1194 N 0.86315 0.56268 0.21550
 C1195 C 0.92091 0.37218 0.72806
 N1196 N 0.92120 0.36799 0.70765
 N1197 N 0.93855 0.36262 0.69831
 C1198 C 0.95623 0.36146 0.70902
 N1199 N 0.95579 0.36532 0.72945
 N1200 N 0.93848 0.37049 0.73879
 C1201 C 0.90269 0.38055 0.73824
 N1202 N 0.90290 0.38383 0.75877
 N1203 N 0.88776 0.39383 0.76798
 C1204 C 0.87180 0.40100 0.75704
 N1205 N 0.87131 0.39737 0.73654
 N1206 N 0.88649 0.38729 0.72730
 C1207 C 0.85687 0.41452 0.76707
 N1208 N 0.84165 0.42351 0.75633
 N1209 N 0.82987 0.43770 0.76510
 C1210 C 0.83296 0.44344 0.78487
 N1211 N 0.84791 0.43418 0.79565
 N1212 N 0.85958 0.41997 0.78694
 C1213 C 0.07470 0.60657 0.71678
 N1214 N 0.07524 0.61049 0.69638
 N1215 N 0.05823 0.61546 0.68644
 C1216 C 0.04008 0.61642 0.69652
 N1217 N 0.03966 0.61272 0.71691
 N1218 N 0.05664 0.60800 0.72685
 C1219 C 0.09269 0.59911 0.72774
 N1220 N 0.09189 0.59734 0.74840
 N1221 N 0.10693 0.58837 0.75850
 C1222 C 0.12335 0.58072 0.74837
 N1223 N 0.12439 0.58279 0.72770
 N1224 N 0.10933 0.59188 0.71756
 C1225 C 0.13831 0.56852 0.75963
 N1226 N 0.15384 0.55865 0.74990
 N1227 N 0.16577 0.54577 0.76011
 C1228 C 0.16249 0.54229 0.78034
 N1229 N 0.14720 0.55244 0.79003
 N1230 N 0.13539 0.56531 0.77990
 C1231 C 0.07965 0.40321 0.28747
 N1232 N 0.08056 0.39922 0.30784
 N1233 N 0.06405 0.39272 0.31789
 C1234 C 0.04607 0.39020 0.30792
 N1235 N 0.04534 0.39392 0.28755
 N1236 N 0.06181 0.40019 0.27752
 C1237 C 0.09682 0.41239 0.27638
 N1238 N 0.09537 0.41507 0.25588
 N1239 N 0.10956 0.42536 0.24573
 C1240 C 0.12577 0.43348 0.25567
 N1241 N 0.12749 0.43054 0.27618
 N1242 N 0.11325 0.42016 0.28636
 C1243 C 0.13997 0.44661 0.24440
 N1244 N 0.15596 0.45592 0.25375
 N1245 N 0.16764 0.46903 0.24349
 C1246 C 0.16363 0.47332 0.22358
 N1247 N 0.14779 0.46385 0.21428
 N1248 N 0.13622 0.45075 0.22446
   
