data_POSCAR
  _audit_creation_date              2014-09-24
  _audit_creation_method            'ToBaCCo'
  _symmetry_space_group_name_H-M    'P1'
  _symmetry_Int_Tables_number       1
  _symmetry_cell_setting            triclinic
  loop_
  _symmetry_equiv_pos_as_xyz
 x,y,z
_cell_length_a 82.9518
_cell_length_b 83.0294
_cell_length_c 83.2078
_cell_angle_alpha 89.977200
_cell_angle_beta 89.975900
_cell_angle_gamma 89.926700
loop_
  _atom_site_label
  _atom_site_type_symbol
  _atom_site_fract_x
  _atom_site_fract_y
  _atom_site_fract_z
N1 N 0.35682 0.31211 0.32371
 N2 N 0.35658 0.32329 0.31250
 C3 C 0.36971 0.32158 0.30309
 C4 C 0.37853 0.30872 0.30881
 C5 C 0.37008 0.30292 0.32183
 H6 H 0.37288 0.32935 0.29315
 H7 H 0.37357 0.29308 0.32961
 Cu8 Cu 0.34006 0.33996 0.31230
 Cu9 Cu 0.34079 0.31119 0.34078
 Cu10 Cu 0.31124 0.34069 0.34075
 N11 N 0.32335 0.35645 0.31245
 N12 N 0.31216 0.35670 0.32366
 C13 C 0.30295 0.36994 0.32175
 C14 C 0.30876 0.37837 0.30873
 C15 C 0.32164 0.36955 0.30303
 H16 H 0.29310 0.37343 0.32953
 H17 H 0.32943 0.37272 0.29310
 N18 N 0.31232 0.32352 0.35706
 N19 N 0.32359 0.31227 0.35707
 C20 C 0.32176 0.30298 0.37024
 C21 C 0.30881 0.30876 0.37884
 C22 C 0.30302 0.32170 0.37023
 H23 H 0.32951 0.29305 0.37358
 H24 H 0.29307 0.32943 0.37356
 H25 H 0.32256 0.32245 0.32807
 H26 H 0.33562 0.33552 0.34088
 N27 N 0.35738 0.81245 -0.17641
 N28 N 0.35714 0.82366 -0.18759
 C29 C 0.37032 0.82203 -0.19696
 C30 C 0.37915 0.80917 -0.19124
 C31 C 0.37066 0.80328 -0.17827
 H32 H 0.37344 0.82978 -0.20693
 H33 H 0.37406 0.79334 -0.17058
 Cu34 Cu 0.34027 0.83998 -0.18829
 Cu35 Cu 0.34120 0.81140 -0.15950
 Cu36 Cu 0.31154 0.84077 -0.15962
 N37 N 0.32380 0.85674 -0.18770
 N38 N 0.31252 0.85691 -0.17659
 C39 C 0.30327 0.87012 -0.17852
 C40 C 0.30918 0.87863 -0.19147
 C41 C 0.32214 0.86988 -0.19709
 H42 H 0.29326 0.87347 -0.17088
 H43 H 0.32995 0.87304 -0.20701
 N44 N 0.31255 0.82352 -0.14338
 N45 N 0.32389 0.81233 -0.14332
 C46 C 0.32206 0.80303 -0.13016
 C47 C 0.30904 0.80873 -0.12160
 C48 C 0.30321 0.82164 -0.13025
 H49 H 0.32986 0.79316 -0.12678
 H50 H 0.29323 0.82933 -0.12694
 H51 H 0.32282 0.82243 -0.17232
 H52 H 0.33589 0.83566 -0.15969
 N53 N 0.85648 0.31263 -0.17648
 N54 N 0.85638 0.32401 -0.18749
 C55 C 0.86949 0.32231 -0.19692
 C56 C 0.87818 0.30928 -0.19142
 C57 C 0.86965 0.30335 -0.17850
 H58 H 0.87270 0.33015 -0.20680
 H59 H 0.87302 0.29333 -0.17088
 Cu60 Cu 0.83974 0.34054 -0.18781
 Cu61 Cu 0.84036 0.31161 -0.15949
 Cu62 Cu 0.81093 0.34131 -0.15936
 N63 N 0.82331 0.35729 -0.18739
 N64 N 0.81200 0.35747 -0.17630
 C65 C 0.80277 0.37068 -0.17827
 C66 C 0.80869 0.37914 -0.19124
 C67 C 0.82165 0.37039 -0.19683
 H68 H 0.79280 0.37410 -0.17060
 H69 H 0.82944 0.37350 -0.20679
 N70 N 0.81191 0.32400 -0.14316
 N71 N 0.82311 0.31267 -0.14323
 C72 C 0.82126 0.30336 -0.13008
 C73 C 0.80838 0.30920 -0.12141
 C74 C 0.80265 0.32220 -0.12996
 H75 H 0.82897 0.29339 -0.12678
 H76 H 0.79279 0.33001 -0.12654
 H77 H 0.82206 0.32297 -0.17215
 H78 H 0.83516 0.33586 -0.15927
 N79 N 0.85663 0.81265 0.32366
 N80 N 0.85637 0.82381 0.31243
 C81 C 0.86949 0.82210 0.30301
 C82 C 0.87833 0.80925 0.30873
 C83 C 0.86989 0.80346 0.32177
 H84 H 0.87263 0.82984 0.29305
 H85 H 0.87338 0.79363 0.32956
 Cu86 Cu 0.83982 0.84046 0.31221
 Cu87 Cu 0.84058 0.81169 0.34071
 Cu88 Cu 0.81091 0.84109 0.34056
 N89 N 0.82308 0.85692 0.31233
 N90 N 0.81181 0.85711 0.32348
 C91 C 0.80257 0.87032 0.32155
 C92 C 0.80845 0.87880 0.30857
 C93 C 0.82140 0.87005 0.30293
 H94 H 0.79267 0.87376 0.32929
 H95 H 0.82926 0.87326 0.29306
 N96 N 0.81199 0.82393 0.35689
 N97 N 0.82334 0.81275 0.35697
 C98 C 0.82152 0.80349 0.37015
 C99 C 0.80850 0.80920 0.37870
 C100 C 0.80265 0.82207 0.37002
 H101 H 0.82933 0.79363 0.37355
 H102 H 0.79264 0.82975 0.37330
 H103 H 0.82236 0.82284 0.32791
 H104 H 0.83532 0.83596 0.34076
 N105 N 0.64320 0.68786 0.32388
 N106 N 0.64340 0.67661 0.31276
 C107 C 0.63024 0.67823 0.30341
 C108 C 0.62142 0.69112 0.30906
 C109 C 0.62993 0.69703 0.32199
 H110 H 0.62709 0.67044 0.29349
 H111 H 0.62650 0.70697 0.32967
 Cu112 Cu 0.66021 0.66025 0.31213
 Cu113 Cu 0.65934 0.68891 0.34080
 Cu114 Cu 0.68889 0.65941 0.34079
 N115 N 0.67661 0.64348 0.31274
 N116 N 0.68788 0.64328 0.32386
 C117 C 0.69707 0.63003 0.32195
 C118 C 0.69116 0.62154 0.30901
 C119 C 0.67825 0.63034 0.30337
 H120 H 0.70702 0.62661 0.32963
 H121 H 0.67046 0.62719 0.29345
 N122 N 0.68790 0.67668 0.35699
 N123 N 0.67663 0.68793 0.35699
 C124 C 0.67847 0.69723 0.37013
 C125 C 0.69143 0.69147 0.37872
 C126 C 0.69721 0.67852 0.37013
 H127 H 0.67070 0.70715 0.37348
 H128 H 0.70713 0.67077 0.37349
 H129 H 0.67768 0.67774 0.32806
 H130 H 0.66454 0.66460 0.34074
 N131 N 0.64328 0.18762 -0.17643
 N132 N 0.64343 0.17628 -0.18747
 C133 C 0.63036 0.17799 -0.19695
 C134 C 0.62161 0.19097 -0.19141
 C135 C 0.63009 0.19688 -0.17846
 H136 H 0.62716 0.17015 -0.20682
 H137 H 0.62666 0.20683 -0.17079
 Cu138 Cu 0.66005 0.15972 -0.18752
 Cu139 Cu 0.65935 0.18864 -0.15936
 Cu140 Cu 0.68901 0.15906 -0.15937
 N141 N 0.67666 0.14314 -0.18750
 N142 N 0.68801 0.14300 -0.17645
 C143 C 0.69733 0.12985 -0.17851
 C144 C 0.69144 0.12142 -0.19151
 C145 C 0.67841 0.13012 -0.19702
 H146 H 0.70730 0.12645 -0.17086
 H147 H 0.67057 0.12695 -0.20692
 N148 N 0.68788 0.17630 -0.14307
 N149 N 0.67660 0.18756 -0.14308
 C150 C 0.67842 0.19686 -0.12993
 C151 C 0.69137 0.19110 -0.12132
 C152 C 0.69717 0.17815 -0.12991
 H153 H 0.67067 0.20679 -0.12660
 H154 H 0.70711 0.17043 -0.12656
 H155 H 0.67767 0.17735 -0.17197
 H156 H 0.66475 0.16442 -0.15896
 N157 N 0.14317 0.68778 -0.17627
 N158 N 0.14338 0.67655 -0.18743
 C159 C 0.13032 0.67832 -0.19691
 C160 C 0.12154 0.69122 -0.19125
 C161 C 0.12997 0.69702 -0.17822
 H162 H 0.12717 0.67057 -0.20686
 H163 H 0.12650 0.70689 -0.17047
 Cu164 Cu 0.15993 0.65993 -0.18743
 Cu165 Cu 0.15919 0.68873 -0.15915
 Cu166 Cu 0.18875 0.65913 -0.15916
 N167 N 0.17652 0.64335 -0.18742
 N168 N 0.18776 0.64312 -0.17626
 C169 C 0.19698 0.62990 -0.17821
 C170 C 0.19115 0.62148 -0.19122
 C171 C 0.17825 0.63028 -0.19688
 H172 H 0.20686 0.62642 -0.17047
 H173 H 0.17048 0.62714 -0.20682
 N174 N 0.18766 0.67631 -0.14285
 N175 N 0.17639 0.68758 -0.14284
 C176 C 0.17824 0.69688 -0.12969
 C177 C 0.19120 0.69110 -0.12111
 C178 C 0.19697 0.67815 -0.12970
 H179 H 0.17052 0.70684 -0.12637
 H180 H 0.20694 0.67043 -0.12639
 H181 H 0.17748 0.67744 -0.17180
 H182 H 0.16445 0.66446 -0.15889
 N183 N 0.14306 0.18771 0.32377
 N184 N 0.14331 0.17652 0.31257
 C185 C 0.13027 0.17831 0.30308
 C186 C 0.12146 0.19119 0.30876
 C187 C 0.12986 0.19695 0.32182
 H188 H 0.12716 0.17061 0.29308
 H189 H 0.12637 0.20680 0.32959
 Cu190 Cu 0.15989 0.15992 0.31249
 Cu191 Cu 0.15912 0.18869 0.34083
 Cu192 Cu 0.18900 0.15944 0.34052
 N193 N 0.17670 0.14355 0.31236
 N194 N 0.18808 0.14347 0.32337
 C195 C 0.19743 0.13036 0.32133
 C196 C 0.19152 0.12184 0.30842
 C197 C 0.17844 0.13048 0.30292
 H198 H 0.20741 0.12697 0.32899
 H199 H 0.17055 0.12720 0.29311
 N200 N 0.18782 0.17655 0.35690
 N201 N 0.17638 0.18764 0.35706
 C202 C 0.17813 0.19682 0.37030
 C203 C 0.19122 0.19117 0.37877
 C204 C 0.19716 0.17841 0.37002
 H205 H 0.17024 0.20660 0.37377
 H206 H 0.20723 0.17079 0.37324
 H207 H 0.17739 0.17762 0.32794
 H208 H 0.16464 0.16447 0.34098
 N209 N 0.64323 0.31215 0.67652
 N210 N 0.64333 0.32348 0.68758
 C211 C 0.63022 0.32177 0.69701
 C212 C 0.62153 0.30879 0.69143
 C213 C 0.63006 0.30290 0.67850
 H214 H 0.62698 0.32961 0.70687
 H215 H 0.62668 0.29295 0.67082
 Cu216 Cu 0.65987 0.34009 0.68757
 Cu217 Cu 0.65933 0.31111 0.65946
 Cu218 Cu 0.68893 0.34059 0.65949
 N219 N 0.67653 0.35660 0.68759
 N220 N 0.68790 0.35668 0.67655
 C221 C 0.69719 0.36981 0.67855
 C222 C 0.69128 0.37834 0.69147
 C223 C 0.67824 0.36968 0.69701
 H224 H 0.70718 0.37317 0.67089
 H225 H 0.67038 0.37294 0.70686
 N226 N 0.68789 0.32335 0.64322
 N227 N 0.67660 0.31213 0.64321
 C228 C 0.67843 0.30286 0.63004
 C229 C 0.69141 0.30859 0.62145
 C230 C 0.69720 0.32150 0.63007
 H231 H 0.67065 0.29299 0.62667
 H232 H 0.70714 0.32922 0.62673
 H233 H 0.67752 0.32241 0.67217
 H234 H 0.66462 0.33537 0.65909
 N235 N 0.64304 0.81255 1.17636
 N236 N 0.64302 0.82406 1.18723
 C237 C 0.62993 0.82239 1.19668
 C238 C 0.62137 0.80923 1.19134
 C239 C 0.62997 0.80319 1.17851
 H240 H 0.62666 0.83031 1.20647
 H241 H 0.62673 0.79303 1.17106
 Cu242 Cu 0.65961 0.84058 1.18724
 Cu243 Cu 0.65923 0.81140 1.15939
 Cu244 Cu 0.68884 0.84095 1.15939
 N245 N 0.67620 0.85709 1.18726
 N246 N 0.68771 0.85707 1.17638
 C247 C 0.69711 0.87011 1.17854
 C248 C 0.69109 0.87866 1.19140
 C249 C 0.67791 0.87013 1.19675
 H250 H 0.70727 0.87335 1.17107
 H251 H 0.67000 0.87338 1.20656
 N252 N 0.68782 0.82366 1.14318
 N253 N 0.67657 0.81239 1.14319
 C254 C 0.67843 0.80310 1.13004
 C255 C 0.69136 0.80888 1.12143
 C256 C 0.69711 0.82182 1.13001
 H257 H 0.67069 0.79319 1.12669
 H258 H 0.70701 0.82958 1.12664
 H259 H 0.67746 0.82274 1.17212
 H260 H 0.66466 0.83556 1.15886
 N261 N 0.14313 0.31253 1.17628
 N262 N 0.14331 0.32379 1.18739
 C263 C 0.13014 0.32219 1.19675
 C264 C 0.12134 0.30931 1.19111
 C265 C 0.12987 0.30338 1.17818
 H266 H 0.12697 0.32999 1.20666
 H267 H 0.12647 0.29343 1.17052
 Cu268 Cu 0.16009 0.34014 1.18800
 Cu269 Cu 0.15930 0.31146 1.15936
 Cu270 Cu 0.18881 0.34092 1.15935
 N271 N 0.17647 0.35690 1.18737
 N272 N 0.18774 0.35707 1.17625
 C273 C 0.19690 0.37032 1.17813
 C274 C 0.19096 0.37885 1.19104
 C275 C 0.17806 0.37007 1.19670
 H276 H 0.20685 0.37372 1.17044
 H277 H 0.17025 0.37324 1.20662
 N278 N 0.18786 0.32363 1.14318
 N279 N 0.17661 0.31239 1.14318
 C280 C 0.17847 0.30309 1.13005
 C281 C 0.19143 0.30883 1.12145
 C282 C 0.19718 0.32177 1.13004
 H283 H 0.17071 0.29319 1.12669
 H284 H 0.20709 0.32952 1.12667
 H285 H 0.17762 0.32262 1.17209
 H286 H 0.16447 0.33577 1.15940
 N287 N 0.14319 0.81243 0.67634
 N288 N 0.14332 0.82378 0.68737
 C289 C 0.13028 0.82208 0.69688
 C290 C 0.12157 0.80908 0.69138
 C291 C 0.13005 0.80316 0.67842
 H292 H 0.12709 0.82992 0.70677
 H293 H 0.12667 0.79315 0.67081
 Cu294 Cu 0.15992 0.84029 0.68740
 Cu295 Cu 0.15928 0.81137 0.65928
 Cu296 Cu 0.18900 0.84081 0.65938
 N297 N 0.17652 0.85679 0.68742
 N298 N 0.18796 0.85684 0.67646
 C299 C 0.19728 0.86994 0.67855
 C300 C 0.19130 0.87847 0.69145
 C301 C 0.17821 0.86984 0.69689
 H302 H 0.20735 0.87326 0.67098
 H303 H 0.17029 0.87311 0.70670
 N304 N 0.18790 0.82360 0.64309
 N305 N 0.17657 0.81242 0.64302
 C306 C 0.17836 0.80320 0.62981
 C307 C 0.19135 0.80893 0.62125
 C308 C 0.19720 0.82177 0.62992
 H309 H 0.17056 0.79336 0.62640
 H310 H 0.20717 0.82946 0.62661
 H311 H 0.17761 0.82254 0.67201
 H312 H 0.16478 0.83553 0.65892
 N313 N 0.35699 0.68763 0.67628
 N314 N 0.35702 0.67610 0.68714
 C315 C 0.37007 0.67781 0.69663
 C316 C 0.37861 0.69101 0.69132
 C317 C 0.37003 0.69703 0.67847
 H318 H 0.37334 0.66989 0.70643
 H319 H 0.37326 0.70721 0.67102
 Cu320 Cu 0.34047 0.65953 0.68712
 Cu321 Cu 0.34083 0.68877 0.65929
 Cu322 Cu 0.31126 0.65917 0.65927
 N323 N 0.32391 0.64296 0.68711
 N324 N 0.31239 0.64299 0.67624
 C325 C 0.30300 0.62994 0.67839
 C326 C 0.30903 0.62135 0.69123
 C327 C 0.32222 0.62989 0.69657
 H328 H 0.29283 0.62671 0.67093
 H329 H 0.33014 0.62661 0.70636
 N330 N 0.31225 0.67651 0.64307
 N331 N 0.32351 0.68776 0.64307
 C332 C 0.32166 0.69705 0.62991
 C333 C 0.30872 0.69130 0.62130
 C334 C 0.30296 0.67836 0.62990
 H335 H 0.32942 0.70695 0.62654
 H336 H 0.29306 0.67060 0.62653
 H337 H 0.32264 0.67738 0.67200
 H338 H 0.33548 0.66460 0.65873
 N339 N 0.35687 0.18757 1.17640
 N340 N 0.35676 0.17619 1.18741
 C341 C 0.36982 0.17789 1.19689
 C342 C 0.37851 0.19091 1.19140
 C343 C 0.37001 0.19685 1.17846
 H344 H 0.37302 0.17003 1.20676
 H345 H 0.37338 0.20686 1.17085
 Cu346 Cu 0.34018 0.15966 1.18745
 Cu347 Cu 0.34078 0.18863 1.15934
 Cu348 Cu 0.31120 0.15906 1.15933
 N349 N 0.32361 0.14312 1.18743
 N350 N 0.31225 0.14300 1.17640
 C351 C 0.30297 0.12987 1.17845
 C352 C 0.30889 0.12139 1.19141
 C353 C 0.32190 0.13007 1.19692
 H354 H 0.29299 0.12647 1.17082
 H355 H 0.32973 0.12688 1.20681
 N356 N 0.31228 0.17629 1.14306
 N357 N 0.32352 0.18757 1.14308
 C358 C 0.32167 0.19685 1.12991
 C359 C 0.30876 0.19106 1.12129
 C360 C 0.30301 0.17811 1.12989
 H361 H 0.32939 0.20679 1.12658
 H362 H 0.29311 0.17036 1.12653
 H363 H 0.32244 0.17733 1.17201
 H364 H 0.33540 0.16442 1.15898
 N365 N 0.85670 0.68771 1.17654
 N366 N 0.85654 0.67645 1.18767
 C367 C 0.86969 0.67811 1.19704
 C368 C 0.87843 0.69104 1.19140
 C369 C 0.86991 0.69693 1.17845
 H370 H 0.87293 0.67027 1.20690
 H371 H 0.87332 0.70684 1.17074
 Cu372 Cu 0.84009 0.65975 1.18780
 Cu373 Cu 0.84065 0.68866 1.15948
 Cu374 Cu 0.81127 0.65906 1.15936
 N375 N 0.82345 0.64323 1.18760
 N376 N 0.81226 0.64301 1.17639
 C377 C 0.80310 0.62976 1.17826
 C378 C 0.80894 0.62129 1.19125
 C379 C 0.82178 0.63010 1.19698
 H380 H 0.79326 0.62630 1.17048
 H381 H 0.82957 0.62692 1.20690
 N382 N 0.81228 0.67629 1.14312
 N383 N 0.82346 0.68761 1.14318
 C384 C 0.82157 0.69694 1.13006
 C385 C 0.80869 0.69112 1.12141
 C386 C 0.80300 0.67812 1.12995
 H387 H 0.82924 0.70693 1.12677
 H388 H 0.79313 0.67033 1.12656
 H389 H 0.82243 0.67725 1.17215
 H390 H 0.83556 0.66430 1.15926
 N391 N 0.85672 0.18760 0.67626
 N392 N 0.85656 0.17632 0.68737
 C393 C 0.86971 0.17794 0.69673
 C394 C 0.87848 0.19086 0.69112
 C395 C 0.86995 0.19679 0.67819
 H396 H 0.87288 0.17012 0.70664
 H397 H 0.87334 0.20676 0.67054
 Cu398 Cu 0.83983 0.15992 0.68795
 Cu399 Cu 0.84060 0.18861 0.65930
 Cu400 Cu 0.81125 0.15900 0.65918
 N401 N 0.82351 0.14312 0.68730
 N402 N 0.81231 0.14288 0.67611
 C403 C 0.80318 0.12961 0.67799
 C404 C 0.80907 0.12115 0.69097
 C405 C 0.82189 0.12999 0.69667
 H406 H 0.79327 0.12616 0.67028
 H407 H 0.82963 0.12688 0.70666
 N408 N 0.81219 0.17627 0.64300
 N409 N 0.82336 0.18760 0.64307
 C410 C 0.82149 0.19692 0.62993
 C411 C 0.80862 0.19108 0.62127
 C412 C 0.80293 0.17808 0.62982
 H413 H 0.82918 0.20689 0.62663
 H414 H 0.79310 0.17026 0.62641
 H415 H 0.82225 0.17733 0.67199
 H416 H 0.83552 0.16426 0.65935
 N417 N 0.31209 0.35684 0.67629
 N418 N 0.32344 0.35669 0.68734
 C419 C 0.32174 0.36975 0.69681
 C420 C 0.30873 0.37847 0.69128
 C421 C 0.30281 0.37001 0.67833
 H422 H 0.32958 0.37293 0.70669
 H423 H 0.29282 0.37341 0.67070
 Cu424 Cu 0.33998 0.34008 0.68738
 Cu425 Cu 0.31104 0.34076 0.65926
 Cu426 Cu 0.34054 0.31104 0.65938
 N427 N 0.35652 0.32347 0.68742
 N428 N 0.35661 0.31206 0.67645
 C429 C 0.36975 0.30275 0.67852
 C430 C 0.37827 0.30871 0.69142
 C431 C 0.36960 0.32177 0.69688
 H432 H 0.37311 0.29272 0.67094
 H433 H 0.37285 0.32966 0.70670
 N434 N 0.32330 0.31215 0.64309
 N435 N 0.31209 0.32348 0.64303
 C436 C 0.30284 0.32168 0.62984
 C437 C 0.30858 0.30869 0.62129
 C438 C 0.32147 0.30285 0.62995
 H439 H 0.29297 0.32948 0.62644
 H440 H 0.32918 0.29289 0.62664
 H441 H 0.32227 0.32245 0.67197
 H442 H 0.33527 0.33527 0.65890
 N443 N 0.31237 0.85709 0.17607
 N444 N 0.32368 0.85690 0.18715
 C445 C 0.32195 0.86995 0.19664
 C446 C 0.30899 0.87870 0.19108
 C447 C 0.30311 0.87027 0.17809
 H448 H 0.32976 0.87310 0.20655
 H449 H 0.29316 0.87371 0.17042
 Cu450 Cu 0.34024 0.84032 0.18719
 Cu451 Cu 0.31138 0.84106 0.15898
 Cu452 Cu 0.34098 0.81143 0.15904
 N453 N 0.35680 0.82373 0.18722
 N454 N 0.35698 0.81242 0.17615
 C455 C 0.37015 0.80314 0.17821
 C456 C 0.37857 0.80902 0.19121
 C457 C 0.36983 0.82200 0.19674
 H458 H 0.37359 0.79319 0.17056
 H459 H 0.37298 0.82981 0.20665
 N460 N 0.32377 0.81256 0.14272
 N461 N 0.31250 0.82383 0.14270
 C462 C 0.30324 0.82201 0.12953
 C463 C 0.30903 0.80907 0.12093
 C464 C 0.32196 0.80329 0.12955
 H465 H 0.29330 0.82975 0.12617
 H466 H 0.32971 0.79335 0.12622
 H467 H 0.32263 0.82273 0.17163
 H468 H 0.33562 0.83566 0.15867
 N469 N 0.81223 0.35703 0.17620
 N470 N 0.82357 0.35691 0.18726
 C471 C 0.82181 0.36997 0.19672
 C472 C 0.80878 0.37865 0.19116
 C473 C 0.80292 0.37017 0.17821
 H474 H 0.82963 0.37319 0.20659
 H475 H 0.79295 0.37356 0.17054
 Cu476 Cu 0.84036 0.34053 0.18726
 Cu477 Cu 0.81126 0.34098 0.15916
 Cu478 Cu 0.84067 0.31132 0.15928
 N479 N 0.85664 0.32366 0.18736
 N480 N 0.85669 0.31226 0.17637
 C481 C 0.86978 0.30289 0.17844
 C482 C 0.87831 0.30878 0.19136
 C483 C 0.86970 0.32188 0.19683
 H484 H 0.87314 0.29288 0.17082
 H485 H 0.87298 0.32976 0.20664
 N486 N 0.82351 0.31245 0.14296
 N487 N 0.81231 0.32378 0.14290
 C488 C 0.80306 0.32198 0.12971
 C489 C 0.80879 0.30899 0.12115
 C490 C 0.82168 0.30315 0.12981
 H491 H 0.79317 0.32978 0.12633
 H492 H 0.82938 0.29317 0.12653
 H493 H 0.82259 0.32284 0.17210
 H494 H 0.83555 0.33560 0.15885
 N495 N 0.81220 0.85717 0.67629
 N496 N 0.82350 0.85702 0.68739
 C497 C 0.82179 0.87014 0.69678
 C498 C 0.80882 0.87887 0.69118
 C499 C 0.80293 0.87035 0.67825
 H500 H 0.82962 0.87335 0.70666
 H501 H 0.79297 0.87375 0.67057
 Cu502 Cu 0.84022 0.84054 0.68754
 Cu503 Cu 0.81125 0.84109 0.65927
 Cu504 Cu 0.84087 0.81165 0.65918
 N505 N 0.85673 0.82386 0.68736
 N506 N 0.85694 0.81263 0.67620
 C507 C 0.87014 0.80338 0.67814
 C508 C 0.87859 0.80920 0.69114
 C509 C 0.86982 0.82212 0.69680
 H510 H 0.87358 0.79348 0.67043
 H511 H 0.87298 0.82987 0.70674
 N512 N 0.82364 0.81269 0.64294
 N513 N 0.81231 0.82389 0.64299
 C514 C 0.80299 0.82203 0.62986
 C515 C 0.80882 0.80913 0.62122
 C516 C 0.82182 0.80342 0.62977
 H517 H 0.79299 0.82972 0.62656
 H518 H 0.82962 0.79353 0.62639
 H519 H 0.82265 0.82284 0.67203
 H520 H 0.83559 0.83588 0.65906
 N521 N 0.68780 0.64310 0.67638
 N522 N 0.67651 0.64328 0.68750
 C523 C 0.67815 0.63012 0.69686
 C524 C 0.69108 0.62134 0.69122
 C525 C 0.69699 0.62986 0.67830
 H526 H 0.67034 0.62696 0.70677
 H527 H 0.70696 0.62646 0.67062
 Cu528 Cu 0.66009 0.66004 0.68808
 Cu529 Cu 0.68881 0.65923 0.65943
 Cu530 Cu 0.65918 0.68865 0.65934
 N531 N 0.64326 0.67639 0.68746
 N532 N 0.64303 0.68761 0.67628
 C533 C 0.62975 0.69677 0.67818
 C534 C 0.62127 0.69090 0.69116
 C535 C 0.63012 0.67804 0.69684
 H536 H 0.62632 0.70669 0.67048
 H537 H 0.62700 0.67030 0.70682
 N538 N 0.67649 0.68769 0.64316
 N539 N 0.68781 0.67649 0.64321
 C540 C 0.69715 0.67836 0.63007
 C541 C 0.69133 0.69126 0.62143
 C542 C 0.67832 0.69698 0.62999
 H543 H 0.70712 0.67064 0.62676
 H544 H 0.67052 0.70685 0.62661
 H545 H 0.67753 0.67756 0.67211
 H546 H 0.66445 0.66437 0.65946
 N547 N 0.68802 0.14289 0.17631
 N548 N 0.67660 0.14296 0.18728
 C549 C 0.67828 0.12987 0.19671
 C550 C 0.69136 0.12122 0.19125
 C551 C 0.69734 0.12976 0.17837
 H552 H 0.67038 0.12663 0.20654
 H553 H 0.70740 0.12642 0.17078
 Cu554 Cu 0.65999 0.15951 0.18728
 Cu555 Cu 0.68907 0.15899 0.15926
 Cu556 Cu 0.65935 0.18848 0.15920
 N557 N 0.64338 0.17605 0.18727
 N558 N 0.64324 0.18741 0.17624
 C559 C 0.63008 0.19670 0.17831
 C560 C 0.62160 0.19077 0.19126
 C561 C 0.63031 0.17775 0.19676
 H562 H 0.62669 0.20671 0.17070
 H563 H 0.62714 0.16991 0.20664
 N564 N 0.67664 0.18745 0.14295
 N565 N 0.68798 0.17625 0.14300
 C566 C 0.69729 0.17811 0.12985
 C567 C 0.69145 0.19100 0.12121
 C568 C 0.67845 0.19672 0.12978
 H569 H 0.70727 0.17041 0.12653
 H570 H 0.67065 0.20659 0.12639
 H571 H 0.67767 0.17724 0.17190
 H572 H 0.66484 0.16430 0.15883
 N573 N 0.18763 0.64308 0.17614
 N574 N 0.17632 0.64323 0.18724
 C575 C 0.17809 0.63018 0.19672
 C576 C 0.19108 0.62147 0.19114
 C577 C 0.19693 0.62992 0.17814
 H578 H 0.17029 0.62699 0.20664
 H579 H 0.20685 0.62649 0.17044
 Cu580 Cu 0.15963 0.65971 0.18723
 Cu581 Cu 0.18860 0.65909 0.15903
 Cu582 Cu 0.15906 0.68867 0.15905
 N583 N 0.14319 0.67644 0.18727
 N584 N 0.14305 0.68774 0.17618
 C585 C 0.12990 0.69706 0.17820
 C586 C 0.12143 0.69122 0.19120
 C587 C 0.13014 0.67823 0.19677
 H588 H 0.12649 0.70699 0.17051
 H589 H 0.12694 0.67043 0.20668
 N590 N 0.17625 0.68755 0.14271
 N591 N 0.18751 0.67628 0.14271
 C592 C 0.19680 0.67810 0.12954
 C593 C 0.19104 0.69105 0.12093
 C594 C 0.17809 0.69684 0.12955
 H595 H 0.20675 0.67037 0.12621
 H596 H 0.17036 0.70679 0.12622
 H597 H 0.17729 0.67731 0.17177
 H598 H 0.16433 0.66441 0.15873
 N599 N 0.18761 0.14275 0.67634
 N600 N 0.17624 0.14288 0.68738
 C601 C 0.17796 0.12982 0.69686
 C602 C 0.19100 0.12112 0.69135
 C603 C 0.19691 0.12961 0.67840
 H604 H 0.17013 0.12664 0.70675
 H605 H 0.20693 0.12623 0.67078
 Cu606 Cu 0.15967 0.15949 0.68741
 Cu607 Cu 0.18865 0.15886 0.65929
 Cu608 Cu 0.15906 0.18851 0.65935
 N609 N 0.14310 0.17610 0.68744
 N610 N 0.14299 0.18748 0.67643
 C611 C 0.12986 0.19680 0.67850
 C612 C 0.12135 0.19087 0.69144
 C613 C 0.13003 0.17781 0.69692
 H614 H 0.12648 0.20682 0.67090
 H615 H 0.12682 0.16996 0.70678
 N616 N 0.17631 0.18742 0.64306
 N617 N 0.18756 0.17613 0.64303
 C618 C 0.19683 0.17797 0.62985
 C619 C 0.19106 0.19093 0.62127
 C620 C 0.17814 0.19672 0.62991
 H621 H 0.20675 0.17021 0.62648
 H622 H 0.17041 0.20667 0.62659
 H623 H 0.17737 0.17718 0.67199
 H624 H 0.16443 0.16431 0.65894
 N625 N 0.31230 0.64298 0.32377
 N626 N 0.32354 0.64318 0.31261
 C627 C 0.32191 0.63005 0.30324
 C628 C 0.30904 0.62124 0.30893
 C629 C 0.30315 0.62973 0.32189
 H630 H 0.32967 0.62692 0.29327
 H631 H 0.29320 0.62632 0.32957
 Cu632 Cu 0.33989 0.65996 0.31198
 Cu633 Cu 0.31120 0.65913 0.34067
 Cu634 Cu 0.34059 0.68873 0.34052
 N635 N 0.35663 0.67636 0.31254
 N636 N 0.35675 0.68767 0.32360
 C637 C 0.36998 0.69685 0.32168
 C638 C 0.37856 0.69089 0.30880
 C639 C 0.36982 0.67795 0.30320
 H640 H 0.37334 0.70685 0.32930
 H641 H 0.37303 0.67011 0.29333
 N642 N 0.32330 0.68776 0.35673
 N643 N 0.31213 0.67644 0.35681
 C644 C 0.30284 0.67827 0.36998
 C645 C 0.30852 0.69129 0.37850
 C646 C 0.32140 0.69711 0.36983
 H647 H 0.29300 0.67046 0.37340
 H648 H 0.32908 0.70709 0.37311
 H649 H 0.32226 0.67744 0.32785
 H650 H 0.33548 0.66439 0.34057
 N651 N 0.31209 0.14292 0.82362
 N652 N 0.32342 0.14306 0.81254
 C653 C 0.32178 0.12992 0.80316
 C654 C 0.30881 0.12121 0.80877
 C655 C 0.30286 0.12975 0.82166
 H656 H 0.32964 0.12669 0.79330
 H657 H 0.29286 0.12640 0.82930
 Cu658 Cu 0.33985 0.15975 0.81250
 Cu659 Cu 0.31097 0.15901 0.84068
 Cu660 Cu 0.34055 0.18857 0.84067
 N661 N 0.35656 0.17616 0.81253
 N662 N 0.35668 0.18748 0.82361
 C663 C 0.36986 0.19671 0.82165
 C664 C 0.37843 0.19078 0.80875
 C665 C 0.36972 0.17782 0.80315
 H666 H 0.37320 0.20671 0.82927
 H667 H 0.37296 0.16999 0.79328
 N668 N 0.32325 0.18754 0.85690
 N669 N 0.31199 0.17628 0.85691
 C670 C 0.30266 0.17814 0.87005
 C671 C 0.30841 0.19109 0.87864
 C672 C 0.32137 0.19684 0.87004
 H673 H 0.29274 0.17041 0.87340
 H674 H 0.32910 0.20677 0.87338
 H675 H 0.32219 0.17733 0.82809
 H676 H 0.33520 0.16433 0.84099
 N677 N 0.81244 0.64299 0.82390
 N678 N 0.82402 0.64291 0.81309
 C679 C 0.82236 0.62983 0.80365
 C680 C 0.80913 0.62132 0.80895
 C681 C 0.80304 0.62996 0.82173
 H682 H 0.83034 0.62651 0.79392
 H683 H 0.79282 0.62677 0.82915
 Cu684 Cu 0.84060 0.65946 0.81310
 Cu685 Cu 0.81128 0.65918 0.84085
 Cu686 Cu 0.84096 0.68867 0.84094
 N687 N 0.85717 0.67601 0.81311
 N688 N 0.85715 0.68751 0.82399
 C689 C 0.87020 0.69690 0.82182
 C690 C 0.87877 0.69090 0.80896
 C691 C 0.87023 0.67773 0.80361
 H692 H 0.87343 0.70707 0.82927
 H693 H 0.87349 0.66985 0.79379
 N694 N 0.82360 0.68769 0.85711
 N695 N 0.81227 0.67650 0.85705
 C696 C 0.80293 0.67838 0.87019
 C697 C 0.80875 0.69125 0.87884
 C698 C 0.82176 0.69695 0.87029
 H699 H 0.79296 0.67069 0.87350
 H700 H 0.82957 0.70679 0.87370
 H701 H 0.82277 0.67738 0.82815
 H702 H 0.83550 0.66454 0.84146
 N703 N 0.81233 0.14294 0.32363
 N704 N 0.82367 0.14306 0.31257
 C705 C 0.82209 0.12988 0.30325
 C706 C 0.80913 0.12115 0.30885
 C707 C 0.80313 0.12972 0.32171
 H708 H 0.82996 0.12666 0.29340
 H709 H 0.79312 0.12637 0.32932
 Cu710 Cu 0.84007 0.15978 0.31202
 Cu711 Cu 0.81123 0.15905 0.34056
 Cu712 Cu 0.84081 0.18845 0.34062
 N713 N 0.85684 0.17614 0.31260
 N714 N 0.85698 0.18741 0.32371
 C715 C 0.87021 0.19660 0.32179
 C716 C 0.87875 0.19069 0.30887
 C717 C 0.87000 0.17778 0.30324
 H718 H 0.87357 0.20658 0.32944
 H719 H 0.87318 0.17000 0.29331
 N720 N 0.82349 0.18751 0.35680
 N721 N 0.81219 0.17632 0.35675
 C722 C 0.80284 0.17818 0.36988
 C723 C 0.80863 0.19108 0.37852
 C724 C 0.82163 0.19679 0.36996
 H725 H 0.79288 0.17047 0.37319
 H726 H 0.82941 0.20666 0.37336
 H727 H 0.82247 0.17731 0.32783
 H728 H 0.83554 0.16414 0.34058
 N729 N 0.68787 0.35679 0.32348
 N730 N 0.67643 0.35675 0.31253
 C731 C 0.67810 0.36983 0.30308
 C732 C 0.69118 0.37845 0.30852
 C733 C 0.69718 0.36990 0.32140
 H734 H 0.67020 0.37309 0.29326
 H735 H 0.70724 0.37323 0.32896
 Cu736 Cu 0.65989 0.34018 0.31247
 Cu737 Cu 0.68895 0.34071 0.34051
 Cu738 Cu 0.65937 0.31114 0.34050
 N739 N 0.64331 0.32364 0.31251
 N740 N 0.64326 0.31221 0.32347
 C741 C 0.63016 0.30288 0.32137
 C742 C 0.62163 0.30884 0.30846
 C743 C 0.63025 0.32194 0.30303
 H744 H 0.62684 0.29281 0.32892
 H745 H 0.62702 0.32981 0.29319
 N746 N 0.67664 0.31218 0.35676
 N747 N 0.68791 0.32343 0.35675
 C748 C 0.69719 0.32159 0.36992
 C749 C 0.69141 0.30868 0.37853
 C750 C 0.67847 0.30291 0.36993
 H751 H 0.70711 0.32934 0.37327
 H752 H 0.67071 0.29302 0.37331
 H753 H 0.67766 0.32248 0.32783
 H754 H 0.66475 0.33535 0.34094
 N755 N 0.68778 0.85710 0.82379
 N756 N 0.67643 0.85696 0.81273
 C757 C 0.67815 0.86999 0.80323
 C758 C 0.69116 0.87868 0.80874
 C759 C 0.69706 0.87023 0.82173
 H760 H 0.67034 0.87315 0.79331
 H761 H 0.70703 0.87364 0.82937
 Cu762 Cu 0.65988 0.84039 0.81272
 Cu763 Cu 0.68884 0.84103 0.84084
 Cu764 Cu 0.65933 0.81137 0.84076
 N765 N 0.64334 0.82382 0.81270
 N766 N 0.64325 0.81242 0.82370
 C767 C 0.63012 0.80312 0.82162
 C768 C 0.62161 0.80907 0.80869
 C769 C 0.63027 0.82212 0.80323
 H770 H 0.62676 0.79311 0.82923
 H771 H 0.62706 0.82999 0.79337
 N772 N 0.67658 0.81246 0.85705
 N773 N 0.68778 0.82377 0.85710
 C774 C 0.69704 0.82196 0.87029
 C775 C 0.69132 0.80898 0.87885
 C776 C 0.67844 0.80316 0.87020
 H777 H 0.70691 0.82975 0.87368
 H778 H 0.67074 0.79320 0.87353
 H779 H 0.67762 0.82275 0.82818
 H780 H 0.66462 0.83560 0.84122
 N781 N 0.18767 0.35670 0.82369
 N782 N 0.17655 0.35639 0.81242
 C783 C 0.17821 0.36951 0.80302
 C784 C 0.19096 0.37842 0.80879
 C785 C 0.19676 0.37000 0.82184
 H786 H 0.17050 0.37259 0.79299
 H787 H 0.20657 0.37351 0.82964
 Cu788 Cu 0.16019 0.33960 0.81180
 Cu789 Cu 0.18863 0.34064 0.84070
 Cu790 Cu 0.15914 0.31116 0.84071
 N791 N 0.14339 0.32324 0.81243
 N792 N 0.14308 0.31213 0.82370
 C793 C 0.12977 0.30304 0.82185
 C794 C 0.12135 0.30884 0.80880
 C795 C 0.13026 0.32159 0.80302
 H796 H 0.12625 0.29323 0.82965
 H797 H 0.12719 0.32929 0.79300
 N798 N 0.17635 0.31219 0.85697
 N799 N 0.18760 0.32343 0.85697
 C800 C 0.19689 0.32160 0.87013
 C801 C 0.19112 0.30867 0.87874
 C802 C 0.17818 0.30290 0.87014
 H803 H 0.20681 0.32934 0.87348
 H804 H 0.17044 0.29298 0.87348
 H805 H 0.17757 0.32221 0.82802
 H806 H 0.16430 0.33545 0.84047
 N807 N 0.18780 0.85687 0.32340
 N808 N 0.17643 0.85680 0.31237
 C809 C 0.17820 0.86986 0.30290
 C810 C 0.19124 0.87849 0.30844
 C811 C 0.19712 0.86997 0.32138
 H812 H 0.17035 0.87312 0.29305
 H813 H 0.20710 0.87334 0.32904
 Cu814 Cu 0.15966 0.84045 0.31242
 Cu815 Cu 0.18880 0.84084 0.34047
 Cu816 Cu 0.15929 0.81132 0.34047
 N817 N 0.14325 0.82371 0.31241
 N818 N 0.14321 0.81233 0.32342
 C819 C 0.13009 0.80301 0.32140
 C820 C 0.12154 0.80892 0.30849
 C821 C 0.13016 0.82198 0.30298
 H822 H 0.12676 0.79301 0.32904
 H823 H 0.12687 0.82986 0.29316
 N824 N 0.17652 0.81237 0.35674
 N825 N 0.18774 0.82365 0.35676
 C826 C 0.19700 0.82185 0.36994
 C827 C 0.19127 0.80890 0.37854
 C828 C 0.17836 0.80309 0.36991
 H829 H 0.20688 0.82964 0.37332
 H830 H 0.17063 0.79317 0.37325
 H831 H 0.17742 0.82276 0.32766
 H832 H 0.16451 0.83562 0.34086
 C833 C 0.24996 1.04326 0.24997
 C834 C 0.26029 1.03497 0.23979
 C835 C 0.26038 1.01810 0.23970
 C836 C 0.24996 1.00915 0.24997
 C837 C 0.23954 1.01812 0.26025
 C838 C 0.23964 1.03499 0.26016
 C839 C 0.24997 0.99083 0.24996
 C840 C 0.23956 0.98187 0.26024
 C841 C 0.23966 0.96500 0.26014
 C842 C 0.24998 0.95671 0.24994
 C843 C 0.26030 0.96500 0.23976
 C844 C 0.26039 0.98186 0.23968
 H845 H 0.24997 1.05634 0.24996
 H846 H 0.26869 1.01242 0.23153
 H847 H 0.23125 1.01245 0.26842
 H848 H 0.23126 0.98754 0.26842
 H849 H 0.24998 0.94363 0.24993
 H850 H 0.26868 0.98753 0.23151
 C851 C 0.24990 0.54324 0.75003
 C852 C 0.26023 0.53495 0.73985
 C853 C 0.26032 0.51807 0.73976
 C854 C 0.24991 0.50912 0.75006
 C855 C 0.23950 0.51810 0.76034
 C856 C 0.23958 0.53497 0.76022
 C857 C 0.24990 0.49079 0.75009
 C858 C 0.23947 0.48184 0.76037
 C859 C 0.23956 0.46495 0.76029
 C860 C 0.24990 0.45667 0.75011
 C861 C 0.26022 0.46494 0.73991
 C862 C 0.26031 0.48181 0.73981
 H863 H 0.24990 0.55633 0.75003
 H864 H 0.26860 0.51239 0.73158
 H865 H 0.23123 0.51244 0.76854
 H866 H 0.23118 0.48752 0.76855
 H867 H 0.24991 0.44358 0.75011
 H868 H 0.26860 0.48747 0.73163
 C869 C 0.75033 -0.04348 0.25018
 C870 C 0.76063 -0.03521 0.26037
 C871 C 0.76071 -0.01833 0.26045
 C872 C 0.75030 -0.00936 0.25015
 C873 C 0.73990 -0.01832 0.23989
 C874 C 0.74000 -0.03519 0.23999
 C875 C 0.75027 0.00897 0.25013
 C876 C 0.73984 0.01792 0.23984
 C877 C 0.73991 0.03479 0.23990
 C878 C 0.75022 0.04309 0.25007
 C879 C 0.76053 0.03482 0.26028
 C880 C 0.76066 0.01795 0.26039
 H881 H 0.75033 -0.05656 0.25018
 H882 H 0.76898 -0.01265 0.26863
 H883 H 0.73160 -0.01265 0.23171
 H884 H 0.73155 0.01224 0.23168
 H885 H 0.75020 0.05617 0.25004
 H886 H 0.76895 0.01228 0.26857
 C887 C 0.75011 0.45658 0.75018
 C888 C 0.76042 0.46484 0.76037
 C889 C 0.76050 0.48172 0.76047
 C890 C 0.75009 0.49071 0.75019
 C891 C 0.73968 0.48175 0.73991
 C892 C 0.73978 0.46487 0.74000
 C893 C 0.75009 0.50904 0.75021
 C894 C 0.73966 0.51803 0.73995
 C895 C 0.73974 0.53491 0.74005
 C896 C 0.75007 0.54317 0.75023
 C897 C 0.76041 0.53488 0.76040
 C898 C 0.76051 0.51800 0.76048
 H899 H 0.75012 0.44350 0.75018
 H900 H 0.76878 0.48739 0.76865
 H901 H 0.73140 0.48744 0.73172
 H902 H 0.73137 0.51237 0.73177
 H903 H 0.75006 0.55625 0.75023
 H904 H 0.76881 0.51231 0.76864
 C905 C 0.25000 0.45675 0.24999
 C906 C 0.26033 0.46502 0.26017
 C907 C 0.26042 0.48190 0.26025
 C908 C 0.25000 0.49088 0.24998
 C909 C 0.23958 0.48192 0.23972
 C910 C 0.23968 0.46505 0.23981
 C911 C 0.24999 0.50921 0.24996
 C912 C 0.23956 0.51817 0.23969
 C913 C 0.23963 0.53504 0.23977
 C914 C 0.24995 0.54333 0.24993
 C915 C 0.26029 0.53505 0.26011
 C916 C 0.26040 0.51818 0.26022
 H917 H 0.25000 0.44367 0.24999
 H918 H 0.26872 0.48757 0.26841
 H919 H 0.23128 0.48760 0.23155
 H920 H 0.23128 0.51250 0.23152
 H921 H 0.24994 0.55641 0.24991
 H922 H 0.26868 0.51250 0.26841
 C923 C 0.74974 1.04357 0.75025
 C924 C 0.76006 1.03528 0.74006
 C925 C 0.76016 1.01841 0.73998
 C926 C 0.74977 1.00945 0.75026
 C927 C 0.73934 1.01842 0.76055
 C928 C 0.73942 1.03531 0.76045
 C929 C 0.74982 0.99112 0.75023
 C930 C 0.73942 0.98213 0.76049
 C931 C 0.73956 0.96526 0.76039
 C932 C 0.74991 0.95699 0.75020
 C933 C 0.76021 0.96529 0.74001
 C934 C 0.76026 0.98217 0.73995
 H935 H 0.74975 1.05665 0.75024
 H936 H 0.76846 1.01274 0.73180
 H937 H 0.73105 1.01274 0.76872
 H938 H 0.73110 0.98779 0.76866
 H939 H 0.74993 0.94391 0.75019
 H940 H 0.76855 0.98785 0.73177
 C941 C 0.74997 0.54330 0.25004
 C942 C 0.76029 0.53500 0.23986
 C943 C 0.76038 0.51813 0.23978
 C944 C 0.74996 0.50918 0.25006
 C945 C 0.73954 0.51816 0.26034
 C946 C 0.73964 0.53504 0.26024
 C947 C 0.74998 0.49086 0.25007
 C948 C 0.73957 0.48189 0.26034
 C949 C 0.73968 0.46501 0.26024
 C950 C 0.75003 0.45674 0.25006
 C951 C 0.76034 0.46503 0.23987
 C952 C 0.76041 0.48190 0.23979
 H953 H 0.74997 0.55638 0.25003
 H954 H 0.76867 0.51245 0.23160
 H955 H 0.73125 0.51249 0.26851
 H956 H 0.73126 0.48756 0.26851
 H957 H 0.75004 0.44365 0.25005
 H958 H 0.76870 0.48756 0.23161
 C959 C 0.25039 -0.04367 0.75012
 C960 C 0.26076 -0.03543 0.76029
 C961 C 0.26083 -0.01853 0.76040
 C962 C 0.25034 -0.00954 0.75019
 C963 C 0.23989 -0.01849 0.73996
 C964 C 0.24001 -0.03535 0.74001
 C965 C 0.25027 0.00880 0.75018
 C966 C 0.23984 0.01776 0.73987
 C967 C 0.23986 0.03464 0.73997
 C968 C 0.25015 0.04293 0.75016
 C969 C 0.26049 0.03465 0.76035
 C970 C 0.26063 0.01778 0.76046
 H971 H 0.25038 -0.05675 0.75009
 H972 H 0.26915 -0.01286 0.76853
 H973 H 0.23153 -0.01281 0.73185
 H974 H 0.23160 0.01208 0.73167
 H975 H 0.25010 0.05601 0.75016
 H976 H 0.26890 0.01211 0.76867
 C977 C 0.24992 0.24995 1.04325
 C978 C 0.23973 0.26030 1.03498
 C979 C 0.23966 0.26039 1.01814
 C980 C 0.24991 0.24992 1.00921
 C981 C 0.26017 0.23946 1.01816
 C982 C 0.26010 0.23958 1.03500
 C983 C 0.24991 0.24990 0.99092
 C984 C 0.26029 0.23955 0.98198
 C985 C 0.26018 0.23961 0.96514
 C986 C 0.24989 0.24987 0.95688
 C987 C 0.23962 0.26014 0.96513
 C988 C 0.23952 0.26023 0.98197
 H989 H 0.24992 0.24996 1.05631
 H990 H 0.23151 0.26874 1.01248
 H991 H 0.26832 0.23110 1.01250
 H992 H 0.26858 0.23135 0.98765
 H993 H 0.24989 0.24986 0.94382
 H994 H 0.23123 0.26844 0.98763
 C995 C 0.25009 0.75021 0.54311
 C996 C 0.23985 0.76051 0.53485
 C997 C 0.23975 0.76059 0.51801
 C998 C 0.25006 0.75018 0.50906
 C999 C 0.26040 0.73978 0.51801
 C1000 C 0.26032 0.73989 0.53485
 C1001 C 0.25004 0.75017 0.49077
 C1002 C 0.26039 0.73980 0.48182
 C1003 C 0.26028 0.73988 0.46499
 C1004 C 0.25001 0.75016 0.45673
 C1005 C 0.23976 0.76044 0.46499
 C1006 C 0.23967 0.76054 0.48183
 H1007 H 0.25010 0.75022 0.55617
 H1008 H 0.23153 0.76887 0.51235
 H1009 H 0.26860 0.73150 0.51235
 H1010 H 0.26864 0.73155 0.48748
 H1011 H 0.25000 0.75015 0.44367
 H1012 H 0.23142 0.76878 0.48749
 C1013 C 0.25032 0.75000 -0.04333
 C1014 C 0.26063 0.76021 -0.03508
 C1015 C 0.26071 0.76030 -0.01824
 C1016 C 0.25028 0.75003 -0.00929
 C1017 C 0.23987 0.73975 -0.01823
 C1018 C 0.24000 0.73981 -0.03506
 C1019 C 0.25024 0.75003 0.00901
 C1020 C 0.23989 0.73966 0.01795
 C1021 C 0.23994 0.73976 0.03479
 C1022 C 0.25017 0.75004 0.04305
 C1023 C 0.26043 0.76031 0.03480
 C1024 C 0.26054 0.76041 0.01796
 H1025 H 0.25033 0.74998 -0.05639
 H1026 H 0.26901 0.76847 -0.01258
 H1027 H 0.23155 0.73159 -0.01257
 H1028 H 0.23170 0.73138 0.01229
 H1029 H 0.25015 0.75004 0.05611
 H1030 H 0.26876 0.76867 0.01230
 C1031 C 0.24992 0.24990 0.45687
 C1032 C 0.26019 0.26015 0.46513
 C1033 C 0.26028 0.26023 0.48197
 C1034 C 0.24991 0.24989 0.49091
 C1035 C 0.23955 0.23956 0.48197
 C1036 C 0.23965 0.23965 0.46513
 C1037 C 0.24990 0.24989 0.50920
 C1038 C 0.23956 0.23953 0.51816
 C1039 C 0.23964 0.23962 0.53500
 C1040 C 0.24990 0.24988 0.54325
 C1041 C 0.26016 0.26014 0.53498
 C1042 C 0.26025 0.26024 0.51814
 H1043 H 0.24993 0.24991 0.44381
 H1044 H 0.26852 0.26846 0.48762
 H1045 H 0.23130 0.23133 0.48763
 H1046 H 0.23133 0.23129 0.51250
 H1047 H 0.24990 0.24988 0.55631
 H1048 H 0.26848 0.26848 0.51248
 C1049 C 0.75000 0.75003 1.04331
 C1050 C 0.73983 0.76041 1.03505
 C1051 C 0.73977 0.76053 1.01821
 C1052 C 0.75002 0.75006 1.00926
 C1053 C 0.76026 0.73958 1.01820
 C1054 C 0.76018 0.73967 1.03504
 C1055 C 0.75002 0.75008 0.99098
 C1056 C 0.76043 0.73977 0.98203
 C1057 C 0.76032 0.73986 0.96519
 C1058 C 0.75003 0.75012 0.95694
 C1059 C 0.73974 0.76036 0.96521
 C1060 C 0.73962 0.76042 0.98204
 H1061 H 0.75000 0.75002 1.05636
 H1062 H 0.73163 0.76890 1.01256
 H1063 H 0.76840 0.73122 1.01253
 H1064 H 0.76873 0.73157 0.98768
 H1065 H 0.75004 0.75013 0.94388
 H1066 H 0.73132 0.76861 0.98771
 C1067 C 0.74985 0.24976 0.54310
 C1068 C 0.73963 0.26009 0.53484
 C1069 C 0.73957 0.26020 0.51800
 C1070 C 0.74990 0.24979 0.50906
 C1071 C 0.76020 0.23938 0.51801
 C1072 C 0.76009 0.23946 0.53484
 C1073 C 0.74993 0.24980 0.49077
 C1074 C 0.76029 0.23942 0.48183
 C1075 C 0.76021 0.23951 0.46499
 C1076 C 0.74998 0.24981 0.45672
 C1077 C 0.73972 0.26010 0.46497
 C1078 C 0.73960 0.26018 0.48181
 H1079 H 0.74984 0.24976 0.55616
 H1080 H 0.73137 0.26850 0.51233
 H1081 H 0.76842 0.23109 0.51235
 H1082 H 0.76852 0.23116 0.48749
 H1083 H 0.74999 0.24981 0.44366
 H1084 H 0.73135 0.26844 0.48746
 C1085 C 0.74994 0.25021 -0.04326
 C1086 C 0.76018 0.26048 -0.03499
 C1087 C 0.76029 0.26054 -0.01815
 C1088 C 0.74997 0.25015 -0.00921
 C1089 C 0.73964 0.23979 -0.01816
 C1090 C 0.73972 0.23991 -0.03500
 C1091 C 0.75000 0.25012 0.00908
 C1092 C 0.73968 0.23973 0.01803
 C1093 C 0.73979 0.23979 0.03487
 C1094 C 0.75003 0.25006 0.04313
 C1095 C 0.76026 0.26035 0.03487
 C1096 C 0.76033 0.26047 0.01803
 H1097 H 0.74993 0.25024 -0.05631
 H1098 H 0.76851 0.26879 -0.01249
 H1099 H 0.73143 0.23151 -0.01250
 H1100 H 0.73145 0.23148 0.01237
 H1101 H 0.75004 0.25003 0.05619
 H1102 H 0.76855 0.26874 0.01237
 C1103 C 0.74995 0.75021 0.45689
 C1104 C 0.76018 0.76050 0.46513
 C1105 C 0.76027 0.76058 0.48198
 C1106 C 0.74996 0.75019 0.49093
 C1107 C 0.73964 0.73981 0.48200
 C1108 C 0.73972 0.73991 0.46516
 C1109 C 0.74997 0.75018 0.50923
 C1110 C 0.73960 0.73984 0.51818
 C1111 C 0.73971 0.73991 0.53502
 C1112 C 0.74998 0.75015 0.54328
 C1113 C 0.76025 0.76041 0.53501
 C1114 C 0.76034 0.76050 0.51817
 H1115 H 0.74994 0.75021 0.44383
 H1116 H 0.76847 0.76885 0.48763
 H1117 H 0.73145 0.73153 0.48766
 H1118 H 0.73134 0.73163 0.51253
 H1119 H 0.74999 0.75015 0.55633
 H1120 H 0.76860 0.76872 0.51250
 C1121 C 1.04331 0.25020 0.25004
 C1122 C 1.03502 0.23984 0.26017
 C1123 C 1.01813 0.23972 0.26023
 C1124 C 1.00916 0.25016 0.24999
 C1125 C 1.01813 0.26063 0.23977
 C1126 C 1.03502 0.26055 0.23988
 C1127 C 0.99081 0.25014 0.24997
 C1128 C 0.98184 0.26056 0.23971
 C1129 C 0.96495 0.26045 0.23978
 C1130 C 0.95666 0.25012 0.24993
 C1131 C 0.96494 0.23979 0.26012
 C1132 C 0.98184 0.23970 0.26022
 H1133 H 1.05640 0.25021 0.25006
 H1134 H 1.01245 0.23138 0.26834
 H1135 H 1.01244 0.26895 0.23163
 H1136 H 0.98751 0.26886 0.23156
 H1137 H 0.94356 0.25011 0.24991
 H1138 H 0.98752 0.23140 0.26838
 C1139 C 0.54324 0.24993 0.75006
 C1140 C 0.53497 0.23961 0.76026
 C1141 C 0.51808 0.23952 0.76035
 C1142 C 0.50909 0.24990 0.75006
 C1143 C 0.51805 0.26030 0.73976
 C1144 C 0.53494 0.26023 0.73986
 C1145 C 0.49074 0.24988 0.75006
 C1146 C 0.48176 0.26031 0.73980
 C1147 C 0.46487 0.26021 0.73989
 C1148 C 0.45659 0.24987 0.75005
 C1149 C 0.46488 0.23953 0.76022
 C1150 C 0.48177 0.23945 0.76031
 H1151 H 0.55634 0.24993 0.75006
 H1152 H 0.51241 0.23125 0.76855
 H1153 H 0.51236 0.26856 0.73156
 H1154 H 0.48743 0.26862 0.73165
 H1155 H 0.44349 0.24988 0.75004
 H1156 H 0.48746 0.23115 0.76847
 C1157 C -0.04356 0.24997 0.75013
 C1158 C -0.03528 0.26038 0.76021
 C1159 C -0.01839 0.26048 0.76028
 C1160 C -0.00940 0.24995 0.75013
 C1161 C -0.01837 0.23944 0.73997
 C1162 C -0.03526 0.23956 0.74004
 C1163 C 0.00895 0.24995 0.75013
 C1164 C 0.01793 0.23958 0.73981
 C1165 C 0.03482 0.23963 0.73992
 C1166 C 0.04310 0.24991 0.75013
 C1167 C 0.03482 0.26023 0.76033
 C1168 C 0.01792 0.26031 0.76044
 H1169 H -0.05665 0.24999 0.75013
 H1170 H -0.01271 0.26888 0.76833
 H1171 H -0.01268 0.23104 0.73192
 H1172 H 0.01225 0.23136 0.73158
 H1173 H 0.05620 0.24989 0.75013
 H1174 H 0.01223 0.26854 0.76867
 C1175 C 0.45674 0.24969 0.25003
 C1176 C 0.46500 0.26004 0.26018
 C1177 C 0.48189 0.26016 0.26025
 C1178 C 0.49089 0.24973 0.25002
 C1179 C 0.48194 0.23928 0.23979
 C1180 C 0.46505 0.23935 0.23987
 C1181 C 0.50924 0.24975 0.25002
 C1182 C 0.51823 0.23934 0.23977
 C1183 C 0.53511 0.23944 0.23986
 C1184 C 0.54339 0.24978 0.25001
 C1185 C 0.53508 0.26011 0.26017
 C1186 C 0.51819 0.26019 0.26028
 H1187 H 0.44364 0.24968 0.25003
 H1188 H 0.48755 0.26848 0.26839
 H1189 H 0.48764 0.23096 0.23165
 H1190 H 0.51257 0.23104 0.23161
 H1191 H 0.55648 0.24978 0.25000
 H1192 H 0.51249 0.26848 0.26844
 C1193 C 1.04335 0.75028 0.75009
 C1194 C 1.03507 0.73991 0.76022
 C1195 C 1.01819 0.73981 0.76031
 C1196 C 1.00920 0.75027 0.75009
 C1197 C 1.01816 0.76073 0.73986
 C1198 C 1.03505 0.76064 0.73995
 C1199 C 0.99086 0.75027 0.75009
 C1200 C 0.98189 0.76065 0.73979
 C1201 C 0.96500 0.76057 0.73989
 C1202 C 0.95672 0.75028 0.75009
 C1203 C 0.96501 0.73996 0.76028
 C1204 C 0.98190 0.73988 0.76039
 H1205 H 1.05645 0.75029 0.75009
 H1206 H 1.01252 0.73147 0.76843
 H1207 H 1.01248 0.76906 0.73173
 H1208 H 0.98756 0.76889 0.73157
 H1209 H 0.94362 0.75028 0.75008
 H1210 H 0.98758 0.73162 0.76860
 C1211 C 0.54330 0.75009 0.25009
 C1212 C 0.53502 0.73974 0.26025
 C1213 C 0.51813 0.73963 0.26032
 C1214 C 0.50915 0.75007 0.25007
 C1215 C 0.51812 0.76052 0.23984
 C1216 C 0.53501 0.76044 0.23994
 C1217 C 0.49081 0.75005 0.25006
 C1218 C 0.48184 0.76046 0.23978
 C1219 C 0.46496 0.76037 0.23985
 C1220 C 0.45666 0.75004 0.25001
 C1221 C 0.46494 0.73971 0.26020
 C1222 C 0.48183 0.73963 0.26031
 H1223 H 0.55640 0.75010 0.25010
 H1224 H 0.51246 0.73132 0.26846
 H1225 H 0.51244 0.76884 0.23169
 H1226 H 0.48751 0.76875 0.23161
 H1227 H 0.44356 0.75004 0.24999
 H1228 H 0.48752 0.73135 0.26850
 C1229 C -0.04345 0.75005 0.25006
 C1230 C -0.03518 0.76046 0.26015
 C1231 C -0.01829 0.76059 0.26021
 C1232 C -0.00929 0.75009 0.25003
 C1233 C -0.01825 0.73957 0.23988
 C1234 C -0.03514 0.73966 0.23996
 C1235 C 0.00906 0.75011 0.25003
 C1236 C 0.01805 0.73974 0.23973
 C1237 C 0.03493 0.73982 0.23983
 C1238 C 0.04321 0.75014 0.25000
 C1239 C 0.03491 0.76043 0.26020
 C1240 C 0.01801 0.76050 0.26032
 H1241 H -0.05654 0.75004 0.25007
 H1242 H -0.01262 0.76898 0.26827
 H1243 H -0.01255 0.73119 0.23181
 H1244 H 0.01238 0.73149 0.23152
 H1245 H 0.05631 0.75015 0.24998
 H1246 H 0.01232 0.76874 0.26854
 C1247 C 0.45658 0.75025 0.75021
 C1248 C 0.46484 0.76055 0.76042
 C1249 C 0.48174 0.76063 0.76053
 C1250 C 0.49074 0.75025 0.75023
 C1251 C 0.48179 0.73988 0.73993
 C1252 C 0.46489 0.73995 0.74002
 C1253 C 0.50910 0.75025 0.75025
 C1254 C 0.51810 0.73981 0.74002
 C1255 C 0.53500 0.73990 0.74011
 C1256 C 0.54326 0.75025 0.75026
 C1257 C 0.53495 0.76059 0.76041
 C1258 C 0.51805 0.76069 0.76049
 H1259 H 0.44349 0.75024 0.75020
 H1260 H 0.48740 0.76887 0.76875
 H1261 H 0.48749 0.73163 0.73172
 H1262 H 0.51244 0.73149 0.73188
 H1263 H 0.55635 0.75025 0.75026
 H1264 H 0.51235 0.76901 0.76862
 C1265 C 0.39383 0.30309 0.30297
 C1266 C 0.40655 0.29816 0.29795
 C1267 C 0.42109 0.29192 0.29169
 C1268 C 0.43293 0.28596 0.28576
 C1269 C 0.44578 0.27805 0.27793
 C1270 C 0.45548 0.27036 0.27034
 C1271 C 0.39358 0.80375 0.80315
 C1272 C 0.40626 0.79875 0.79809
 C1273 C 0.42078 0.79245 0.79182
 C1274 C 0.43264 0.78646 0.78591
 C1275 C 0.44554 0.77855 0.77814
 C1276 C 0.45528 0.77087 0.77058
 C1277 C -0.10655 0.30362 0.80268
 C1278 C -0.09384 0.29871 0.79764
 C1279 C -0.07928 0.29248 0.79139
 C1280 C -0.06742 0.28650 0.78550
 C1281 C -0.05454 0.27854 0.77777
 C1282 C -0.04481 0.27080 0.77027
 C1283 C -0.10638 0.80359 0.30287
 C1284 C -0.09367 0.79865 0.29784
 C1285 C -0.07914 0.79240 0.29157
 C1286 C -0.06729 0.78644 0.28565
 C1287 C -0.05442 0.77852 0.27784
 C1288 C -0.04471 0.77082 0.27028
 C1289 C 0.60615 0.69676 0.30317
 C1290 C 0.59345 0.70168 0.29811
 C1291 C 0.57893 0.70791 0.29180
 C1292 C 0.56709 0.71386 0.28586
 C1293 C 0.55424 0.72175 0.27802
 C1294 C 0.54454 0.72943 0.27042
 C1295 C 0.60631 0.19658 0.80274
 C1296 C 0.59357 0.20149 0.79776
 C1297 C 0.57900 0.20771 0.79156
 C1298 C 0.56711 0.21366 0.78570
 C1299 C 0.55422 0.22158 0.77795
 C1300 C 0.54450 0.22929 0.77041
 C1301 C 1.10624 0.69685 0.80292
 C1302 C 1.09352 0.70176 0.79791
 C1303 C 1.07897 0.70796 0.79165
 C1304 C 1.06712 0.71391 0.78573
 C1305 C 1.05427 0.72183 0.77792
 C1306 C 1.04458 0.72955 0.77035
 C1307 C 1.10619 0.19684 0.30290
 C1308 C 1.09347 0.20176 0.29789
 C1309 C 1.07892 0.20797 0.29165
 C1310 C 1.06706 0.21391 0.28574
 C1311 C 1.05420 0.22181 0.27793
 C1312 C 1.04451 0.22951 0.27034
 C1313 C 0.60623 0.30316 0.69726
 C1314 C 0.59349 0.29825 0.70224
 C1315 C 0.57892 0.29204 0.70845
 C1316 C 0.56705 0.28612 0.71432
 C1317 C 0.55416 0.27823 0.72211
 C1318 C 0.54445 0.27055 0.72968
 C1319 C 0.60616 0.80355 0.19731
 C1320 C 0.59348 0.79862 0.20239
 C1321 C 0.57895 0.79241 0.20866
 C1322 C 0.56709 0.78646 0.21455
 C1323 C 0.55422 0.77853 0.22230
 C1324 C 0.54451 0.77081 0.22983
 C1325 C 1.10608 0.30367 0.19702
 C1326 C 1.09339 0.29874 0.20210
 C1327 C 1.07889 0.29250 0.20841
 C1328 C 1.06706 0.28653 0.21435
 C1329 C 1.05422 0.27860 0.22217
 C1330 C 1.04453 0.27090 0.22974
 C1331 C 1.10632 0.80346 0.69731
 C1332 C 1.09361 0.79859 0.70236
 C1333 C 1.07904 0.79244 0.70861
 C1334 C 1.06716 0.78654 0.71449
 C1335 C 1.05427 0.77867 0.72226
 C1336 C 1.04455 0.77098 0.72980
 C1337 C 0.39378 0.69677 0.69734
 C1338 C 0.40643 0.70176 0.70244
 C1339 C 0.42093 0.70803 0.70872
 C1340 C 0.43278 0.71400 0.71461
 C1341 C 0.44566 0.72192 0.72235
 C1342 C 0.45538 0.72962 0.72988
 C1343 C 0.39378 0.19651 0.19730
 C1344 C 0.40650 0.20138 0.20234
 C1345 C 0.42107 0.20753 0.20858
 C1346 C 0.43295 0.21343 0.21445
 C1347 C 0.44584 0.22131 0.22221
 C1348 C 0.45555 0.22900 0.22974
 C1349 C -0.10627 0.69667 0.19723
 C1350 C -0.09356 0.70157 0.20225
 C1351 C -0.07903 0.70778 0.20852
 C1352 C -0.06719 0.71371 0.21446
 C1353 C -0.05433 0.72160 0.22227
 C1354 C -0.04464 0.72929 0.22984
 C1355 C -0.10627 0.19652 0.69706
 C1356 C -0.09360 0.20144 0.70216
 C1357 C -0.07910 0.20767 0.70850
 C1358 C -0.06729 0.21362 0.71447
 C1359 C -0.05446 0.22153 0.72232
 C1360 C -0.04477 0.22922 0.72990
 C1361 C 0.30313 0.39367 0.30289
 C1362 C 0.29823 0.40640 0.29788
 C1363 C 0.29204 0.42097 0.29164
 C1364 C 0.28614 0.43285 0.28574
 C1365 C 0.27828 0.44575 0.27794
 C1366 C 0.27063 0.45549 0.27036
 C1367 C 0.30374 -0.10696 0.80289
 C1368 C 0.29875 -0.09428 0.79781
 C1369 C 0.29250 -0.07974 0.79152
 C1370 C 0.28658 -0.06784 0.78564
 C1371 C 0.27874 -0.05486 0.77791
 C1372 C 0.27109 -0.04504 0.77040
 C1373 C 0.80335 0.39358 0.80316
 C1374 C 0.79847 0.40630 0.79809
 C1375 C 0.79228 0.42084 0.79181
 C1376 C 0.78634 0.43270 0.78588
 C1377 C 0.77844 0.44558 0.77808
 C1378 C 0.77075 0.45530 0.77053
 C1379 C 0.80316 -0.10670 0.30307
 C1380 C 0.79830 -0.09395 0.29809
 C1381 C 0.79217 -0.07935 0.29188
 C1382 C 0.78632 -0.06743 0.28598
 C1383 C 0.77852 -0.05450 0.27818
 C1384 C 0.77091 -0.04474 0.27058
 C1385 C 0.30331 0.60614 0.69721
 C1386 C 0.29836 0.59347 0.70228
 C1387 C 0.29213 0.57895 0.70854
 C1388 C 0.28618 0.56709 0.71442
 C1389 C 0.27827 0.55419 0.72216
 C1390 C 0.27058 0.54447 0.72969
 C1391 C 0.30328 1.10612 0.19728
 C1392 C 0.29840 1.09340 0.20228
 C1393 C 0.29221 1.07885 0.20848
 C1394 C 0.28627 1.06699 0.21434
 C1395 C 0.27835 1.05413 0.22209
 C1396 C 0.27064 1.04445 0.22964
 C1397 C 0.80333 0.60600 0.19707
 C1398 C 0.79841 0.59329 0.20206
 C1399 C 0.79219 0.57877 0.20831
 C1400 C 0.78623 0.56695 0.21424
 C1401 C 0.77831 0.55413 0.22207
 C1402 C 0.77061 0.54447 0.22967
 C1403 C 0.80339 1.10593 0.69691
 C1404 C 0.79842 1.09329 0.70202
 C1405 C 0.79211 1.07885 0.70837
 C1406 C 0.78609 1.06710 0.71435
 C1407 C 0.77811 1.05435 0.72223
 C1408 C 0.77038 1.04474 0.72986
 C1409 C 0.69681 0.60627 0.30312
 C1410 C 0.70172 0.59357 0.29806
 C1411 C 0.70791 0.57903 0.29177
 C1412 C 0.71383 0.56718 0.28584
 C1413 C 0.72169 0.55429 0.27802
 C1414 C 0.72935 0.54457 0.27043
 C1415 C 0.69678 1.10696 0.80291
 C1416 C 0.70166 1.09423 0.79788
 C1417 C 0.70780 1.07962 0.79168
 C1418 C 0.71366 1.06768 0.78584
 C1419 C 0.72147 1.05468 0.77812
 C1420 C 0.72910 1.04488 0.77061
 C1421 C 0.19673 0.60617 0.80296
 C1422 C 0.20160 0.59344 0.79796
 C1423 C 0.20776 0.57888 0.79171
 C1424 C 0.21367 0.56702 0.78580
 C1425 C 0.22156 0.55416 0.77798
 C1426 C 0.22925 0.54448 0.77039
 C1427 C 0.19711 1.10651 0.30264
 C1428 C 0.20195 1.09374 0.29771
 C1429 C 0.20806 1.07912 0.29155
 C1430 C 0.21391 1.06719 0.28570
 C1431 C 0.22172 1.05425 0.27794
 C1432 C 0.22935 1.04451 0.27036
 C1433 C 0.69694 0.39362 0.69732
 C1434 C 0.70185 0.40633 0.70232
 C1435 C 0.70805 0.42088 0.70855
 C1436 C 0.71396 0.43275 0.71445
 C1437 C 0.72182 0.44564 0.72224
 C1438 C 0.72948 0.45535 0.72982
 C1439 C 0.69680 -0.10615 0.19737
 C1440 C 0.70175 -0.09350 0.20244
 C1441 C 0.70799 -0.07900 0.20870
 C1442 C 0.71397 -0.06718 0.21458
 C1443 C 0.72191 -0.05434 0.22234
 C1444 C 0.72964 -0.04467 0.22987
 C1445 C 0.19659 0.39411 0.19691
 C1446 C 0.20152 0.40679 0.20196
 C1447 C 0.20776 0.42129 0.20825
 C1448 C 0.21373 0.43310 0.21420
 C1449 C 0.22166 0.44590 0.22204
 C1450 C 0.22936 0.45556 0.22963
 C1451 C 0.19693 -0.10630 0.69734
 C1452 C 0.20183 -0.09361 0.70237
 C1453 C 0.20803 -0.07909 0.70862
 C1454 C 0.21398 -0.06726 0.71451
 C1455 C 0.22191 -0.05444 0.72230
 C1456 C 0.22965 -0.04480 0.72987
 C1457 C 0.30305 0.30301 0.39408
 C1458 C 0.29807 0.29803 0.40675
 C1459 C 0.29184 0.29179 0.42125
 C1460 C 0.28591 0.28586 0.43308
 C1461 C 0.27807 0.27801 0.44593
 C1462 C 0.27044 0.27039 0.45563
 C1463 C 0.30332 0.80299 -0.10633
 C1464 C 0.29839 0.79802 -0.09362
 C1465 C 0.29222 0.79178 -0.07908
 C1466 C 0.28634 0.78586 -0.06722
 C1467 C 0.27853 0.77803 -0.05433
 C1468 C 0.27091 0.77042 -0.04460
 C1469 C 0.80267 0.30346 -0.10615
 C1470 C 0.79775 0.29849 -0.09345
 C1471 C 0.79158 0.29225 -0.07892
 C1472 C 0.78572 0.28631 -0.06707
 C1473 C 0.77795 0.27844 -0.05419
 C1474 C 0.77038 0.27078 -0.04448
 C1475 C 0.80275 0.80346 0.39395
 C1476 C 0.79780 0.79848 0.40664
 C1477 C 0.79162 0.79223 0.42117
 C1478 C 0.78574 0.78629 0.43302
 C1479 C 0.77796 0.77842 0.44590
 C1480 C 0.77038 0.77078 0.45562
 C1481 C 0.69712 0.30287 0.60617
 C1482 C 0.70205 0.29793 0.59346
 C1483 C 0.70822 0.29173 0.57890
 C1484 C 0.71408 0.28583 0.56702
 C1485 C 0.72184 0.27801 0.55410
 C1486 C 0.72942 0.27038 0.54435
 C1487 C 0.69707 0.80319 1.10615
 C1488 C 0.70202 0.79828 1.09345
 C1489 C 0.70825 0.79210 1.07892
 C1490 C 0.71417 0.78620 1.06707
 C1491 C 0.72201 0.77837 1.05422
 C1492 C 0.72962 0.77072 1.04453
 C1493 C 0.19714 0.30313 1.10617
 C1494 C 0.20208 0.29821 1.09346
 C1495 C 0.20827 0.29203 1.07891
 C1496 C 0.21415 0.28613 1.06705
 C1497 C 0.22195 0.27828 1.05417
 C1498 C 0.22954 0.27062 1.04447
 C1499 C 0.19706 0.80326 0.60596
 C1500 C 0.20201 0.79835 0.59325
 C1501 C 0.20823 0.79216 0.57872
 C1502 C 0.21415 0.78626 0.56688
 C1503 C 0.22199 0.77843 0.55402
 C1504 C 0.22961 0.77079 0.54433
 C1505 C 0.30301 0.69702 0.60603
 C1506 C 0.29807 0.70198 0.59333
 C1507 C 0.29187 0.70821 0.57880
 C1508 C 0.28597 0.71412 0.56694
 C1509 C 0.27816 0.72197 0.55407
 C1510 C 0.27056 0.72961 0.54435
 C1511 C 0.30301 0.19678 1.10604
 C1512 C 0.29802 0.20171 1.09336
 C1513 C 0.29175 0.20791 1.07885
 C1514 C 0.28580 0.21381 1.06703
 C1515 C 0.27794 0.22164 1.05418
 C1516 C 0.27032 0.22928 1.04449
 C1517 C 0.80295 0.69686 1.10615
 C1518 C 0.79798 0.70179 1.09346
 C1519 C 0.79174 0.70798 1.07893
 C1520 C 0.78582 0.71387 1.06708
 C1521 C 0.77799 0.72170 1.05422
 C1522 C 0.77038 0.72935 1.04452
 C1523 C 0.80292 0.19676 0.60598
 C1524 C 0.79797 0.20167 0.59327
 C1525 C 0.79174 0.20784 0.57874
 C1526 C 0.78581 0.21372 0.56689
 C1527 C 0.77795 0.22155 0.55403
 C1528 C 0.77033 0.22918 0.54434
 C1529 C 0.69712 0.69717 0.39400
 C1530 C 0.70204 0.70211 0.40670
 C1531 C 0.70821 0.70830 0.42124
 C1532 C 0.71409 0.71420 0.43310
 C1533 C 0.72189 0.72202 0.44597
 C1534 C 0.72950 0.72965 0.45567
 C1535 C 0.69712 0.19688 -0.10609
 C1536 C 0.70207 0.20190 -0.09342
 C1537 C 0.70827 0.20818 -0.07892
 C1538 C 0.71414 0.21414 -0.06709
 C1539 C 0.72193 0.22200 -0.05423
 C1540 C 0.72951 0.22964 -0.04452
 C1541 C 0.19701 0.69690 -0.10591
 C1542 C 0.20201 0.70191 -0.09327
 C1543 C 0.20827 0.70818 -0.07881
 C1544 C 0.21420 0.71412 -0.06701
 C1545 C 0.22207 0.72198 -0.05420
 C1546 C 0.22971 0.72960 -0.04453
 C1547 C 0.19696 0.19689 0.39402
 C1548 C 0.20192 0.20185 0.40670
 C1549 C 0.20812 0.20808 0.42121
 C1550 C 0.21401 0.21398 0.43305
 C1551 C 0.22181 0.22181 0.44592
 C1552 C 0.22941 0.22942 0.45563
 C1553 C 0.30310 0.39374 0.69718
 C1554 C 0.29822 0.40644 0.70222
 C1555 C 0.29203 0.42099 0.70847
 C1556 C 0.28611 0.43285 0.71437
 C1557 C 0.27823 0.44573 0.72217
 C1558 C 0.27054 0.45543 0.72974
 C1559 C 0.30336 0.89396 0.19698
 C1560 C 0.29847 0.90665 0.20202
 C1561 C 0.29226 0.92118 0.20829
 C1562 C 0.28630 0.93302 0.21421
 C1563 C 0.27837 0.94585 0.22201
 C1564 C 0.27064 0.95551 0.22959
 C1565 C 0.80315 0.39393 0.19700
 C1566 C 0.79827 0.40664 0.20201
 C1567 C 0.79210 0.42119 0.20826
 C1568 C 0.78619 0.43304 0.21419
 C1569 C 0.77832 0.44588 0.22204
 C1570 C 0.77064 0.45555 0.22966
 C1571 C 0.80315 0.89415 0.69705
 C1572 C 0.79823 0.90685 0.70209
 C1573 C 0.79202 0.92139 0.70838
 C1574 C 0.78609 0.93323 0.71434
 C1575 C 0.77820 0.94609 0.72219
 C1576 C 0.77053 0.95579 0.72980
 C1577 C 0.69675 0.60608 0.69713
 C1578 C 0.70169 0.59340 0.70221
 C1579 C 0.70793 0.57888 0.70852
 C1580 C 0.71386 0.56704 0.71447
 C1581 C 0.72175 0.55417 0.72230
 C1582 C 0.72942 0.54445 0.72988
 C1583 C 0.69699 0.10595 0.19713
 C1584 C 0.70187 0.09324 0.20216
 C1585 C 0.70805 0.07868 0.20842
 C1586 C 0.71398 0.06682 0.21432
 C1587 C 0.72188 0.05396 0.22212
 C1588 C 0.72958 0.04427 0.22971
 C1589 C 0.19671 0.60619 0.19698
 C1590 C 0.20160 0.59347 0.20200
 C1591 C 0.20778 0.57892 0.20826
 C1592 C 0.21370 0.56707 0.21419
 C1593 C 0.22158 0.55421 0.22201
 C1594 C 0.22928 0.54452 0.22960
 C1595 C 0.19669 0.10587 0.69730
 C1596 C 0.20165 0.09318 0.70235
 C1597 C 0.20790 0.07864 0.70861
 C1598 C 0.21387 0.06678 0.71450
 C1599 C 0.22180 0.05388 0.72226
 C1600 C 0.22951 0.04415 0.72980
 C1601 C 0.30336 0.60602 0.30301
 C1602 C 0.29841 0.59336 0.29794
 C1603 C 0.29215 0.57888 0.29163
 C1604 C 0.28618 0.56707 0.28568
 C1605 C 0.27828 0.55425 0.27786
 C1606 C 0.27060 0.54456 0.27027
 C1607 C 0.30317 0.10594 0.80293
 C1608 C 0.29826 0.09324 0.79795
 C1609 C 0.29209 0.07868 0.79174
 C1610 C 0.28622 0.06680 0.78586
 C1611 C 0.27840 0.05390 0.77808
 C1612 C 0.27077 0.04417 0.77052
 C1613 C 0.80341 0.60612 0.80298
 C1614 C 0.79847 0.59345 0.79791
 C1615 C 0.79225 0.57892 0.79165
 C1616 C 0.78632 0.56705 0.78578
 C1617 C 0.77843 0.55414 0.77805
 C1618 C 0.77075 0.54440 0.77053
 C1619 C 0.80350 0.10589 0.30299
 C1620 C 0.79858 0.09320 0.29798
 C1621 C 0.79234 0.07869 0.29173
 C1622 C 0.78639 0.06686 0.28583
 C1623 C 0.77849 0.05402 0.27804
 C1624 C 0.77082 0.04433 0.27046
 C1625 C 0.69679 0.39372 0.30266
 C1626 C 0.70167 0.40644 0.29766
 C1627 C 0.70785 0.42101 0.29148
 C1628 C 0.71377 0.43289 0.28564
 C1629 C 0.72166 0.44579 0.27791
 C1630 C 0.72935 0.45550 0.27038
 C1631 C 0.69676 0.89395 0.80285
 C1632 C 0.70162 0.90667 0.79785
 C1633 C 0.70777 0.92124 0.79166
 C1634 C 0.71368 0.93312 0.78581
 C1635 C 0.72156 0.94601 0.77807
 C1636 C 0.72924 0.95573 0.77053
 C1637 C 0.19657 0.39371 0.80292
 C1638 C 0.20148 0.40641 0.79789
 C1639 C 0.20770 0.42096 0.79165
 C1640 C 0.21363 0.43282 0.78576
 C1641 C 0.22153 0.44572 0.77799
 C1642 C 0.22922 0.45544 0.77044
 C1643 C 0.19686 0.89377 0.30264
 C1644 C 0.20174 0.90650 0.29769
 C1645 C 0.20791 0.92107 0.29153
 C1646 C 0.21382 0.93295 0.28567
 C1647 C 0.22169 0.94582 0.27790
 C1648 C 0.22936 0.95551 0.27032
 C1649 C 0.39355 0.30308 0.69730
 C1650 C 0.40628 0.29820 0.70231
 C1651 C 0.42086 0.29203 0.70853
 C1652 C 0.43275 0.28612 0.71440
 C1653 C 0.44564 0.27823 0.72217
 C1654 C 0.45536 0.27054 0.72973
 C1655 C 0.39383 0.80339 0.19712
 C1656 C 0.40654 0.79850 0.20217
 C1657 C 0.42109 0.79230 0.20842
 C1658 C 0.43295 0.78636 0.21432
 C1659 C 0.44579 0.77843 0.22212
 C1660 C 0.45547 0.77071 0.22969
 C1661 C 0.89361 0.30316 0.19717
 C1662 C 0.90636 0.29830 0.20215
 C1663 C 0.92096 0.29217 0.20835
 C1664 C 0.93285 0.28629 0.21422
 C1665 C 0.94575 0.27843 0.22201
 C1666 C 0.95546 0.27076 0.22960
 C1667 C 0.89387 0.80353 0.69701
 C1668 C 0.90657 0.79860 0.70204
 C1669 C 0.92110 0.79237 0.70830
 C1670 C 0.93294 0.78642 0.71424
 C1671 C 0.94579 0.77853 0.72208
 C1672 C 0.95549 0.77086 0.72969
 C1673 C 0.60639 0.30318 0.30253
 C1674 C 0.59369 0.29825 0.29750
 C1675 C 0.57914 0.29203 0.29129
 C1676 C 0.56725 0.28608 0.28546
 C1677 C 0.55434 0.27817 0.27777
 C1678 C 0.54460 0.27047 0.27027
 C1679 C 0.60633 0.80346 0.80281
 C1680 C 0.59359 0.79860 0.79781
 C1681 C 0.57900 0.79243 0.79162
 C1682 C 0.56711 0.78652 0.78578
 C1683 C 0.55419 0.77863 0.77806
 C1684 C 0.54446 0.77094 0.77054
 C1685 C 0.10606 0.30323 0.80293
 C1686 C 0.09335 0.29832 0.79790
 C1687 C 0.07880 0.29209 0.79166
 C1688 C 0.06694 0.28615 0.78578
 C1689 C 0.05405 0.27824 0.77802
 C1690 C 0.04434 0.27055 0.77047
 C1691 C 0.10624 0.80328 0.30268
 C1692 C 0.09351 0.79838 0.29771
 C1693 C 0.07893 0.79219 0.29153
 C1694 C 0.06704 0.78627 0.28568
 C1695 C 0.05414 0.77840 0.27793
 C1696 C 0.04442 0.77074 0.27038
 C1697 C 0.60603 0.69661 0.69711
 C1698 C 0.59337 0.70160 0.70222
 C1699 C 0.57889 0.70791 0.70857
 C1700 C 0.56708 0.71391 0.71454
 C1701 C 0.55424 0.72185 0.72239
 C1702 C 0.54454 0.72956 0.72996
 C1703 C 0.60635 0.19641 0.19719
 C1704 C 0.59364 0.20132 0.20225
 C1705 C 0.57909 0.20754 0.20850
 C1706 C 0.56723 0.21348 0.21439
 C1707 C 0.55434 0.22140 0.22216
 C1708 C 0.54463 0.22910 0.22971
 C1709 C 0.10615 0.69688 0.19706
 C1710 C 0.09343 0.70178 0.20209
 C1711 C 0.07888 0.70798 0.20836
 C1712 C 0.06702 0.71390 0.21428
 C1713 C 0.05415 0.72180 0.22209
 C1714 C 0.04445 0.72949 0.22967
 C1715 C 0.10608 0.19653 0.69734
 C1716 C 0.09336 0.20146 0.70236
 C1717 C 0.07880 0.20769 0.70858
 C1718 C 0.06693 0.21366 0.71445
 C1719 C 0.05405 0.22159 0.72221
 C1720 C 0.04433 0.22930 0.72976
 C1721 C 0.39383 0.69654 0.30292
 C1722 C 0.40652 0.70148 0.29787
 C1723 C 0.42104 0.70774 0.29160
 C1724 C 0.43288 0.71372 0.28568
 C1725 C 0.44572 0.72166 0.27789
 C1726 C 0.45542 0.72937 0.27034
 C1727 C 0.39369 0.19647 0.80288
 C1728 C 0.40639 0.20144 0.79786
 C1729 C 0.42092 0.20769 0.79162
 C1730 C 0.43278 0.21363 0.78573
 C1731 C 0.44566 0.22151 0.77793
 C1732 C 0.45537 0.22920 0.77037
 C1733 C 0.89394 0.69667 0.80294
 C1734 C 0.90659 0.70166 0.79784
 C1735 C 0.92108 0.70795 0.79156
 C1736 C 0.93292 0.71395 0.78568
 C1737 C 0.94578 0.72190 0.77794
 C1738 C 0.95549 0.72962 0.77041
 C1739 C 0.89398 0.19642 0.30293
 C1740 C 0.90663 0.20142 0.29785
 C1741 C 0.92111 0.20774 0.29155
 C1742 C 0.93291 0.21376 0.28562
 C1743 C 0.94574 0.22173 0.27782
 C1744 C 0.95543 0.22945 0.27026
 C1745 C 0.30287 0.30296 0.60604
 C1746 C 0.29792 0.29800 0.59335
 C1747 C 0.29172 0.29177 0.57885
 C1748 C 0.28582 0.28585 0.56701
 C1749 C 0.27800 0.27802 0.55416
 C1750 C 0.27039 0.27039 0.54447
 C1751 C 0.30327 0.80330 0.10571
 C1752 C 0.29829 0.79829 0.09307
 C1753 C 0.29204 0.79201 0.07860
 C1754 C 0.28611 0.78606 0.06680
 C1755 C 0.27827 0.77819 0.05397
 C1756 C 0.27066 0.77056 0.04429
 C1757 C 0.80304 0.30323 0.10592
 C1758 C 0.79806 0.29824 0.09326
 C1759 C 0.79182 0.29199 0.07877
 C1760 C 0.78591 0.28607 0.06694
 C1761 C 0.77809 0.27823 0.05409
 C1762 C 0.77048 0.27061 0.04438
 C1763 C 0.80305 0.80336 0.60599
 C1764 C 0.79808 0.79836 0.59333
 C1765 C 0.79185 0.79208 0.57885
 C1766 C 0.78594 0.78614 0.56703
 C1767 C 0.77812 0.77828 0.55418
 C1768 C 0.77050 0.77065 0.54450
 C1769 C 0.30282 0.69701 0.39378
 C1770 C 0.29791 0.70194 0.40649
 C1771 C 0.29174 0.70815 0.42104
 C1772 C 0.28587 0.71407 0.43290
 C1773 C 0.27808 0.72193 0.44578
 C1774 C 0.27049 0.72958 0.45549
 C1775 C 0.30270 0.19679 0.89392
 C1776 C 0.29779 0.20172 0.90663
 C1777 C 0.29164 0.20792 0.92119
 C1778 C 0.28578 0.21383 0.93306
 C1779 C 0.27800 0.22168 0.94594
 C1780 C 0.27041 0.22933 0.95565
 C1781 C 0.80304 0.69696 0.89411
 C1782 C 0.79810 0.70191 0.90681
 C1783 C 0.79191 0.70814 0.92133
 C1784 C 0.78602 0.71408 0.93317
 C1785 C 0.77820 0.72195 0.94601
 C1786 C 0.77058 0.72960 0.95570
 C1787 C 0.80291 0.19676 0.39380
 C1788 C 0.79797 0.20167 0.40651
 C1789 C 0.79178 0.20786 0.42106
 C1790 C 0.78588 0.21375 0.43292
 C1791 C 0.77807 0.22159 0.44579
 C1792 C 0.77045 0.22923 0.45550
 C1793 C 0.69711 0.30298 0.39381
 C1794 C 0.70204 0.29804 0.40652
 C1795 C 0.70823 0.29183 0.42106
 C1796 C 0.71411 0.28591 0.43291
 C1797 C 0.72191 0.27805 0.44577
 C1798 C 0.72950 0.27039 0.45547
 C1799 C 0.69704 0.80325 0.89411
 C1800 C 0.70199 0.79829 0.90680
 C1801 C 0.70820 0.79206 0.92132
 C1802 C 0.71409 0.78614 0.93316
 C1803 C 0.72189 0.77828 0.94602
 C1804 C 0.72950 0.77064 0.95572
 C1805 C 0.19684 0.30295 0.89401
 C1806 C 0.20179 0.29800 0.90671
 C1807 C 0.20800 0.29178 0.92123
 C1808 C 0.21391 0.28586 0.93307
 C1809 C 0.22174 0.27802 0.94594
 C1810 C 0.22936 0.27039 0.95564
 C1811 C 0.19700 0.80318 0.39380
 C1812 C 0.20196 0.79824 0.40650
 C1813 C 0.20818 0.79204 0.42103
 C1814 C 0.21408 0.78614 0.43288
 C1815 C 0.22190 0.77832 0.44577
 C1816 C 0.22951 0.77070 0.45549
 C1817 C 0.69706 0.69699 0.60617
 C1818 C 0.70200 0.70196 0.59348
 C1819 C 0.70819 0.70821 0.57895
 C1820 C 0.71407 0.71415 0.56710
 C1821 C 0.72187 0.72201 0.55423
 C1822 C 0.72947 0.72965 0.54453
 C1823 C 0.69719 0.19676 0.10596
 C1824 C 0.70214 0.20174 0.09328
 C1825 C 0.70834 0.20801 0.07878
 C1826 C 0.71422 0.21396 0.06694
 C1827 C 0.72201 0.22184 0.05408
 C1828 C 0.72959 0.22950 0.04437
 C1829 C 0.19685 0.69685 0.10572
 C1830 C 0.20188 0.70185 0.09308
 C1831 C 0.20818 0.70812 0.07861
 C1832 C 0.21415 0.71406 0.06681
 C1833 C 0.22204 0.72190 0.05397
 C1834 C 0.22968 0.72952 0.04429
 C1835 C 0.19680 0.19669 0.60602
 C1836 C 0.20177 0.20169 0.59335
 C1837 C 0.20801 0.20795 0.57886
 C1838 C 0.21393 0.21390 0.56704
 C1839 C 0.22178 0.22175 0.55420
 C1840 C 0.22940 0.22938 0.54450
   
