data_POSCAR
  _audit_creation_date              2014-09-24
  _audit_creation_method            'ToBaCCo'
  _symmetry_space_group_name_H-M    'P1'
  _symmetry_Int_Tables_number       1
  _symmetry_cell_setting            triclinic
  loop_
  _symmetry_equiv_pos_as_xyz
 x,y,z
_cell_length_a 53.8154
_cell_length_b 54.6630
_cell_length_c 54.9753
_cell_angle_alpha 90.375800
_cell_angle_beta 90.172200
_cell_angle_gamma 89.781200
loop_
  _atom_site_label
  _atom_site_type_symbol
  _atom_site_fract_x
  _atom_site_fract_y
  _atom_site_fract_z
N1 N 0.35951 1.36041 0.35818
 N2 N 0.36432 0.85509 0.84653
 N3 N 0.84519 1.33971 0.85115
 N4 N 0.85304 0.84972 0.34284
 N5 N 0.63548 0.64287 0.35696
 N6 N 0.65490 0.15442 0.84672
 N7 N 1.12822 0.62870 0.86562
 N8 N 1.14858 0.15544 0.34240
 N9 N 0.63680 1.36161 0.64798
 N10 N 0.65746 0.84530 1.15553
 N11 N 1.15600 1.34010 1.16191
 N12 N 1.14329 0.85536 0.63890
 N13 N 0.34973 0.65070 0.64730
 N14 N 0.35837 0.15033 1.14819
 N15 N 0.84975 0.65687 1.15629
 N16 N 0.83608 0.17091 0.66924
 N17 N 1.35160 0.35926 0.64870
 N18 N 1.36925 0.86090 1.14375
 N19 N 0.84652 0.34253 1.15272
 N20 N 0.84473 0.84253 0.65786
 N21 N 0.63671 0.64310 0.64421
 N22 N 0.66708 1.16715 1.16077
 N23 N 0.14058 0.64626 1.15680
 N24 N 0.15310 1.15586 0.65604
 N25 N 1.34124 0.66011 0.34404
 N26 N 1.36219 1.14207 0.85416
 N27 N 0.84007 0.65528 0.84002
 N28 N 0.86905 1.13716 0.35678
 N29 N 0.63823 0.35505 0.35074
 N30 N 0.63683 0.85699 0.85575
 N31 N 0.15644 0.33971 0.84097
 N32 N 0.15893 0.83956 0.34026
 O33 O 1.09928 1.01452 1.11487
 O34 O 1.12925 1.01351 1.14229
 C35 C 1.10890 1.02243 1.13453
 C36 C 1.09686 1.04275 1.14813
 C37 C 1.10748 1.05135 1.16988
 H38 H 1.12393 1.04250 1.17716
 O39 O 0.92167 0.96903 1.12038
 O40 O 0.89416 0.96793 1.14998
 C41 C 0.91386 0.95982 1.14009
 C42 C 0.92751 0.93904 1.15116
 C43 C 0.92037 0.92957 1.17386
 H44 H 0.90502 0.93794 1.18347
 O45 O 1.03312 1.11585 1.08810
 O46 O 1.03467 1.14380 1.11716
 C47 C 1.04201 1.13561 1.09670
 C48 C 1.06136 1.14883 1.08288
 C49 C 1.06932 1.17224 1.09024
 H50 H 1.06048 1.18103 1.10564
 O51 O 0.98460 0.86965 1.08009
 O52 O 0.98564 0.84020 1.10731
 C53 C 0.97642 0.84952 1.08819
 C54 C 0.95565 0.83728 1.07539
 C55 C 0.94807 0.81354 1.08171
 H56 H 0.95787 0.80364 1.09581
 O57 O 1.12968 1.08339 1.01982
 O58 O 1.15855 1.11188 1.01992
 C59 C 1.15001 1.09186 1.02805
 C60 C 1.16328 1.07848 1.04772
 C61 C 1.18528 1.08786 1.05821
 H62 H 1.19291 1.10482 1.05156
 O63 O 0.88178 0.90727 1.02271
 O64 O 0.85281 0.87885 1.02356
 C65 C 0.86204 0.89862 1.03179
 C66 C 0.85007 0.91177 1.05228
 C67 C 0.82601 0.90568 1.06014
 H68 H 0.81578 0.89141 1.05078
 O69 O 0.98654 1.08186 1.12291
 O70 O 0.98781 1.10958 1.15219
 C71 C 0.97893 1.08994 1.14331
 C72 C 0.95900 1.07658 1.15621
 C73 C 0.94968 1.08490 1.17879
 H74 H 0.95760 1.10099 1.18731
 O75 O 1.03428 0.90241 1.11235
 O76 O 1.03507 0.87338 1.14003
 C77 C 1.04313 0.89352 1.13182
 C78 C 1.06309 0.90665 1.14496
 C79 C 1.06943 0.90010 1.16877
 H80 H 1.05926 0.88566 1.17774
 O81 O 1.13241 0.96736 1.07921
 O82 O 1.16240 0.96645 1.10661
 C83 C 1.15295 0.95871 1.08682
 C84 C 1.16562 0.93909 1.07273
 C85 C 1.18979 0.93136 1.07889
 H86 H 1.19958 0.94060 1.09346
 O87 O 0.88617 1.01827 1.09062
 O88 O 0.85862 1.01717 1.12021
 C89 C 0.86634 1.02624 1.10041
 C90 C 0.85240 1.04663 1.08899
 C91 C 0.82947 1.05428 1.09851
 H92 H 0.82147 1.04466 1.11377
 O93 O 0.91548 1.11740 1.02841
 O94 O 0.88709 1.14653 1.03017
 C95 C 0.90751 1.13735 1.03754
 C96 C 0.92192 1.14955 1.05727
 C97 C 0.91492 1.17280 1.06611
 H98 H 0.89948 1.18224 1.05769
 O99 O 1.09600 0.87148 1.01268
 O100 O 1.12475 0.84267 1.01055
 C101 C 1.10486 0.85117 1.01973
 C102 C 1.09219 0.83767 1.03922
 C103 C 1.10030 0.81425 1.04593
 H104 H 1.11547 0.80555 1.03620
 O105 O 0.92228 1.01694 1.12196
 O106 O 0.89470 1.01572 1.15151
 C107 C 0.91439 1.02453 1.14242
 C108 C 0.92760 1.04438 1.15546
 C109 C 0.91863 1.05289 1.17784
 H110 H 0.90273 1.04405 1.18602
 O111 O 1.09958 0.96662 1.11380
 O112 O 1.12937 0.96571 1.14141
 C113 C 1.10883 0.95776 1.13316
 C114 C 1.09556 0.93779 1.14578
 C115 C 1.10208 0.93059 1.16956
 H116 H 1.11685 0.94001 1.17918
 O117 O 1.03299 0.86962 1.07813
 O118 O 1.03410 0.84040 1.10560
 C119 C 1.04176 0.84949 1.08580
 C120 C 1.06146 0.83690 1.07175
 C121 C 1.06994 0.81355 1.07840
 H122 H 1.06115 0.80418 1.09336
 O123 O 0.98461 1.11522 1.08967
 O124 O 0.98606 1.14319 1.11871
 C125 C 0.97657 1.13499 1.09906
 C126 C 0.95570 1.14832 1.08724
 C127 C 0.94845 1.17155 1.09569
 H128 H 0.95857 1.18005 1.11056
 O129 O 0.88136 1.08434 1.02909
 O130 O 0.85261 1.11310 1.03118
 C131 C 0.86177 1.09301 1.03870
 C132 C 0.85014 1.07963 1.05914
 C133 C 0.82742 1.08736 1.06932
 H134 H 0.81774 1.10294 1.06170
 O135 O 1.13008 0.90463 1.01321
 O136 O 1.15907 0.87604 1.01125
 C137 C 1.15060 0.89573 1.02053
 C138 C 1.16444 0.90831 1.04029
 C139 C 1.18862 0.90091 1.04660
 H140 H 1.19750 0.88616 1.03658
 O141 O 0.98604 0.90301 1.11364
 O142 O 0.98689 0.87370 1.14103
 C143 C 0.97834 0.89398 1.13344
 C144 C 0.95899 0.90690 1.14764
 C145 C 0.95170 0.89782 1.17028
 H146 H 0.96086 0.88176 1.17757
 O147 O 1.03491 1.08091 1.11980
 O148 O 1.03651 1.10859 1.14909
 C149 C 1.04449 1.08886 1.13944
 C150 C 1.06551 1.07526 1.15071
 C151 C 1.07636 1.08341 1.17264
 H152 H 1.06900 1.09953 1.18166
 O153 O 0.88646 0.97061 1.08814
 O154 O 0.85883 0.96977 1.11769
 C155 C 0.86653 0.96225 1.09714
 C156 C 0.85233 0.94332 1.08384
 C157 C 0.82823 0.93734 1.09117
 H158 H 0.81974 0.94717 1.10621
 O159 O 1.13165 1.01534 1.08034
 O160 O 1.16162 1.01438 1.10776
 C161 C 1.15198 1.02361 1.08873
 C162 C 1.16409 1.04485 1.07702
 C163 C 1.18592 1.05449 1.08706
 H164 H 1.19444 1.04559 1.10257
 O165 O 0.91562 0.87342 1.01961
 O166 O 0.88681 0.84483 1.02033
 C167 C 0.90760 0.85311 1.02742
 C168 C 0.92234 0.83911 1.04524
 C169 C 0.91551 0.81519 1.05120
 H170 H 0.89989 0.80663 1.04205
 O171 O 1.09544 1.11685 1.02096
 O172 O 1.12401 1.14564 1.02037
 C173 C 1.10417 1.13682 1.02918
 C174 C 1.09148 1.14947 1.04963
 C175 C 1.09904 1.17286 1.05716
 H176 H 1.11370 1.18211 1.04739
 Cu177 Cu 1.11273 0.99088 1.09432
 Cu178 Cu 1.14869 0.98987 1.12721
 Cu179 Cu 0.90696 0.99379 1.10234
 Cu180 Cu 0.87388 0.99253 1.13787
 Cu181 Cu 1.00966 1.09568 1.10226
 Cu182 Cu 1.01144 1.12907 1.13721
 Cu183 Cu 1.00940 0.88903 1.09321
 Cu184 Cu 1.01055 0.85396 1.12626
 C185 C 1.07575 1.05469 1.13878
 H186 H 1.06776 1.04843 1.12175
 C187 C 1.09736 1.07145 1.18232
 C188 C 0.94701 0.92769 1.13833
 H189 H 0.95239 0.93459 1.12069
 C190 C 0.93256 0.90896 1.18358
 C191 C 1.07248 1.13770 1.06248
 H192 H 1.06673 1.11953 1.05693
 C193 C 1.08824 1.18435 1.07747
 C194 C 0.94266 0.84987 1.05710
 H195 H 0.94793 0.86839 1.05254
 C196 C 0.92802 0.80244 1.06951
 C197 C 1.15301 1.05683 1.05719
 H198 H 1.13588 1.04969 1.04961
 C199 C 1.19661 1.07590 1.07800
 C200 C 0.86301 0.93066 1.06423
 H201 H 0.88169 0.93520 1.05859
 C202 C 0.81498 0.91856 1.07958
 C203 C 0.94796 1.05613 1.14491
 H204 H 0.95466 1.04984 1.12739
 C205 C 0.92938 1.07303 1.18965
 C206 C 1.07604 0.92567 1.13372
 H207 H 1.07115 0.93079 1.11531
 C208 C 1.08882 0.91185 1.18121
 C209 C 1.15320 0.92752 1.05335
 H210 H 1.13447 0.93317 1.04872
 C211 C 1.20140 0.91219 1.06592
 C212 C 0.86241 1.05923 1.06915
 H213 H 0.88016 1.05344 1.06182
 C214 C 0.81701 1.07468 1.08903
 C215 C 0.94241 1.13756 1.06790
 H216 H 0.94774 1.11953 1.06143
 C217 C 0.92808 1.18391 1.08541
 C218 C 1.07262 0.84873 1.05206
 H219 H 1.06648 0.86694 1.04711
 C220 C 1.08951 0.80222 1.06564
 O221 O 1.09045 0.97233 0.87414
 O222 O 1.11841 0.97299 0.84491
 C223 C 1.09863 0.96432 0.85398
 C224 C 1.08545 0.94437 0.84110
 C225 C 1.09486 0.93524 0.81915
 H226 H 1.11133 0.94338 0.81135
 O227 O 0.90729 1.02108 0.88221
 O228 O 0.87719 1.02209 0.85490
 C229 C 0.89774 1.03007 0.86308
 C230 C 0.91025 1.05039 0.85048
 C231 C 0.89972 1.06025 0.82936
 H232 H 0.88289 1.05229 0.82192
 O233 O 0.97731 1.11581 0.91488
 O234 O 0.97642 1.14494 0.88732
 C235 C 0.96897 1.13616 0.90737
 C236 C 0.94998 1.14962 0.92163
 C237 C 0.94347 1.17353 0.91518
 H238 H 0.95313 1.18239 0.90039
 O239 O 1.02525 0.87574 0.90566
 O240 O 1.02345 0.84798 0.87641
 C241 C 1.03301 0.85598 0.89607
 C242 C 1.05376 0.84248 0.90754
 C243 C 1.06090 0.81948 0.89859
 H244 H 1.05065 0.81125 0.88365
 O245 O 1.12831 0.90664 0.96601
 O246 O 1.15738 0.87813 0.96405
 C247 C 1.14845 0.89848 0.95712
 C248 C 1.16155 0.91274 0.93848
 C249 C 1.18635 0.90751 0.93286
 H250 H 1.19608 0.89319 0.94263
 O251 O 0.87864 1.08522 0.98167
 O252 O 0.84985 1.11396 0.98332
 C253 C 0.85807 1.09403 0.97433
 C254 C 0.84399 1.08094 0.95492
 C255 C 0.81982 1.08831 0.94807
 H256 H 0.81094 1.10354 0.95732
 O257 O 1.02294 1.08203 0.87768
 O258 O 1.02127 1.11081 0.84979
 C259 C 1.03017 1.09076 0.85756
 C260 C 1.04977 1.07799 0.84347
 C261 C 1.05592 1.08582 0.82002
 H262 H 1.04544 1.10057 0.81174
 O263 O 0.97604 0.91126 0.87577
 O264 O 0.97461 0.88390 0.84612
 C265 C 0.96683 0.90365 0.85588
 C266 C 0.94656 0.91757 0.84415
 C267 C 0.94007 0.91261 0.81998
 H268 H 0.95053 0.89911 0.80967
 O269 O 1.12500 1.02006 0.90710
 O270 O 1.15263 1.02096 0.87757
 C271 C 1.14464 1.02880 0.89793
 C272 C 1.15816 1.04860 0.91069
 C273 C 1.18037 1.05748 0.90102
 H274 H 1.18792 1.04927 0.88462
 O275 O 0.87368 0.97258 0.91407
 O276 O 0.84385 0.97317 0.88650
 C277 C 0.85324 0.96438 0.90575
 C278 C 0.84090 0.94395 0.91840
 C279 C 0.81793 0.93449 0.91034
 H280 H 0.80870 0.94268 0.89489
 O281 O 1.09445 1.11718 0.97332
 O282 O 1.12338 1.14559 0.97243
 C283 C 1.10303 1.13682 0.96445
 C284 C 1.08958 1.14877 0.94398
 C285 C 1.09932 1.16964 0.93240
 H286 H 1.11639 1.17780 0.93899
 O287 O 0.91343 0.87570 0.97256
 O288 O 0.88493 0.84681 0.97333
 C289 C 0.90461 0.85581 0.96432
 C290 C 0.91722 0.84315 0.94392
 C291 C 0.90997 0.81954 0.93701
 H292 H 0.89541 0.81038 0.94701
 O293 O 0.90790 0.97354 0.88093
 O294 O 0.87833 0.97455 0.85308
 C295 C 0.89894 0.96613 0.86082
 C296 C 0.91279 0.94751 0.84653
 C297 C 0.90611 0.94183 0.82235
 H298 H 0.89070 0.95128 0.81382
 O299 O 1.09080 1.01993 0.87371
 O300 O 1.11828 1.02070 0.84405
 C301 C 1.09827 1.02852 0.85359
 C302 C 1.08358 1.04804 0.84158
 C303 C 1.08973 1.05640 0.81819
 H304 H 1.10496 1.04793 0.80844
 O305 O 0.97674 0.87546 0.90639
 O306 O 0.97485 0.84782 0.87704
 C307 C 0.96748 0.85599 0.89748
 C308 C 0.94770 0.84311 0.91101
 C309 C 0.93983 0.81951 0.90404
 H310 H 0.94872 0.81030 0.88889
 O311 O 1.02588 1.11527 0.91144
 O312 O 1.02461 1.14394 0.88343
 C313 C 1.03433 1.13494 0.90248
 C314 C 1.05612 1.14726 0.91367
 C315 C 1.06636 1.16774 0.90231
 H316 H 1.05784 1.17484 0.88590
 O317 O 0.87817 0.90778 0.97544
 O318 O 0.84954 0.87902 0.97627
 C319 C 0.85759 0.89909 0.96804
 C320 C 0.84328 0.91204 0.94911
 C321 C 0.82047 0.90282 0.94093
 H322 H 0.81280 0.88665 0.94936
 O323 O 1.12852 1.08378 0.97241
 O324 O 1.15770 1.11199 0.97213
 C325 C 1.14853 1.09227 0.96371
 C326 C 1.16055 1.07948 0.94297
 C327 C 1.18299 1.08804 0.93304
 H328 H 1.19209 1.10374 0.94113
 O329 O 1.02440 0.90891 0.87244
 O330 O 1.02299 0.88128 0.84306
 C331 C 1.03221 0.90064 0.85216
 C332 C 1.05288 0.91333 0.83971
 C333 C 1.06255 0.90450 0.81747
 H334 H 1.05431 0.88866 0.80877
 O335 O 0.97425 1.08399 0.87971
 O336 O 0.97287 1.11314 0.85222
 C337 C 0.96450 1.09334 0.86079
 C338 C 0.94275 1.08140 0.84913
 C339 C 0.93177 1.09118 0.82795
 H340 H 0.93974 1.10727 0.81980
 O341 O 0.87558 1.02016 0.91740
 O342 O 0.84535 1.02091 0.89023
 C343 C 0.85503 1.02876 0.90994
 C344 C 0.84256 1.04851 0.92396
 C345 C 0.81835 1.05570 0.91792
 H346 H 0.80843 1.04607 0.90360
 O347 O 1.12732 0.97245 0.90449
 O348 O 1.15549 0.97337 0.87544
 C349 C 1.14752 0.96463 0.89528
 C350 C 1.16134 0.94488 0.90784
 C351 C 1.18615 0.93900 0.90193
 H352 H 1.19575 0.94927 0.88807
 O353 O 1.09449 0.87293 0.96556
 O354 O 1.12323 0.84415 0.96325
 C355 C 1.10263 0.85315 0.95624
 C356 C 1.08796 0.84091 0.93686
 C357 C 1.09471 0.81766 0.92781
 H358 H 1.11078 0.80835 0.93524
 O359 O 0.91348 1.11782 0.98099
 O360 O 0.88512 1.14700 0.98239
 C361 C 0.90489 1.13800 0.97328
 C362 C 0.91807 1.15065 0.95328
 C363 C 0.91137 1.17449 0.94606
 H364 H 0.89662 1.18413 0.95548
 Cu365 Cu 1.10565 0.99613 0.89282
 Cu366 Cu 1.13898 0.99712 0.85752
 Cu367 Cu 0.89406 0.99661 0.90143
 Cu368 Cu 0.85814 0.99778 0.86846
 Cu369 Cu 1.10915 1.09751 0.99669
 Cu370 Cu 1.14377 1.13166 0.99626
 Cu371 Cu 1.10931 0.89178 0.98952
 Cu372 Cu 1.14403 0.85735 0.98699
 Cu373 Cu 0.90002 1.09834 1.00481
 Cu374 Cu 0.86579 1.13305 1.00690
 Cu375 Cu 0.90006 0.89401 0.99759
 Cu376 Cu 0.86562 0.85949 0.99848
 Cu377 Cu 1.00017 1.09630 0.89865
 Cu378 Cu 0.99866 1.13112 0.86546
 Cu379 Cu 1.00074 0.89559 0.89298
 Cu380 Cu 0.99871 0.86247 0.85771
 C381 C 1.06433 0.93347 0.85116
 H382 H 1.05727 0.94023 0.86839
 C383 C 1.08366 0.91546 0.80720
 C384 C 0.93193 1.06089 0.86009
 H385 H 0.93996 1.05350 0.87659
 C386 C 0.91016 1.08060 0.81795
 C387 C 0.93744 1.13843 0.94091
 H388 H 0.94239 1.11990 0.94589
 C389 C 0.92420 1.18601 0.92702
 C390 C 1.06726 0.85297 0.92679
 H391 H 1.06203 0.87094 0.93350
 C392 C 1.08106 0.80683 0.90872
 C393 C 1.14930 0.93161 0.92613
 H394 H 1.13010 0.93567 0.93051
 C395 C 1.19878 0.92042 0.91470
 C396 C 0.85512 1.06099 0.94270
 H397 H 0.87388 1.05550 0.94740
 C398 C 0.80691 1.07556 0.92964
 C399 C 1.06350 1.05890 0.85397
 H400 H 1.05896 1.05295 0.87217
 C401 C 1.07591 1.07535 0.80732
 C402 C 0.93308 0.93526 0.85722
 H403 H 0.93808 0.93913 0.87595
 C404 C 0.91991 0.92448 0.80900
 C405 C 1.14849 1.05952 0.93181
 H406 H 1.13107 1.05298 0.93908
 C407 C 1.19295 1.07700 0.91202
 C408 C 0.85315 0.93277 0.93799
 H409 H 0.87097 0.93970 0.94407
 C410 C 0.80759 0.91386 0.92168
 C411 C 1.06776 1.13796 0.93457
 H412 H 1.06023 1.12179 0.94307
 C413 C 1.08778 1.17902 0.91140
 C414 C 0.93627 0.85470 0.93100
 H415 H 0.94192 0.87300 0.93626
 C416 C 0.92100 0.80763 0.91713
 O417 O 1.08593 0.51791 0.62382
 O418 O 1.11539 0.51709 0.65179
 C419 C 1.09498 0.52565 0.64374
 C420 C 1.08195 0.54526 0.65729
 C421 C 1.09059 0.55279 0.68015
 H422 H 1.10642 0.54357 0.68826
 O423 O 0.90465 0.47001 0.62294
 O424 O 0.87503 0.47051 0.65057
 C425 C 0.89533 0.46188 0.64251
 C426 C 0.90806 0.44195 0.65575
 C427 C 0.90003 0.43473 0.67885
 H428 H 0.88464 0.44429 0.68738
 O429 O 1.02164 0.61629 0.59283
 O430 O 1.02126 0.64409 0.62208
 C431 C 1.02972 0.63612 0.60195
 C432 C 1.04934 0.64987 0.58914
 C433 C 1.05771 0.67239 0.59828
 H434 H 1.04932 0.68004 0.61455
 O435 O 0.97021 0.37745 0.58756
 O436 O 0.97068 0.34760 0.61437
 C437 C 0.96246 0.35686 0.59472
 C438 C 0.94362 0.34353 0.58021
 C439 C 0.93783 0.31930 0.58593
 H440 H 0.94758 0.31018 0.60061
 O441 O 1.11682 0.58548 0.52709
 O442 O 1.14566 0.61400 0.52830
 C443 C 1.13674 0.59404 0.53611
 C444 C 1.14955 0.58134 0.55637
 C445 C 1.17085 0.59187 0.56659
 H446 H 1.17816 0.60867 0.55911
 O447 O 0.87269 0.40884 0.52111
 O448 O 0.84381 0.38030 0.52071
 C449 C 0.85250 0.40022 0.52919
 C450 C 0.83911 0.41334 0.54881
 C451 C 0.81470 0.40687 0.55456
 H452 H 0.80547 0.39258 0.54422
 O453 O 0.97330 0.58139 0.62420
 O454 O 0.97292 0.60904 0.65360
 C455 C 0.96475 0.58928 0.64425
 C456 C 0.94489 0.57562 0.65672
 C457 C 0.93852 0.58166 0.68068
 H458 H 0.94871 0.59585 0.69027
 O459 O 1.01801 0.40983 0.62278
 O460 O 1.01828 0.38035 0.64998
 C461 C 1.02671 0.40051 0.64208
 C462 C 1.04741 0.41275 0.65501
 C463 C 1.05455 0.40497 0.67820
 H464 H 1.04408 0.39074 0.68716
 O465 O 1.11974 0.47171 0.58856
 O466 O 1.14968 0.47081 0.61601
 C467 C 1.14032 0.46324 0.59610
 C468 C 1.15295 0.44402 0.58164
 C469 C 1.17735 0.43645 0.58708
 H470 H 1.18714 0.44511 0.60199
 O471 O 0.87315 0.51914 0.58904
 O472 O 0.84367 0.51938 0.61682
 C473 C 0.85308 0.52798 0.59753
 C474 C 0.84078 0.54896 0.58552
 C475 C 0.81849 0.55816 0.59500
 H476 H 0.80992 0.54922 0.61037
 O477 O 0.90917 0.61917 0.52742
 O478 O 0.88064 0.64823 0.52859
 C479 C 0.90093 0.63910 0.53625
 C480 C 0.91475 0.65157 0.55596
 C481 C 0.90880 0.67568 0.56246
 H482 H 0.89456 0.68545 0.55240
 O483 O 1.08194 0.37636 0.52285
 O484 O 1.11025 0.34707 0.52226
 C485 C 1.09036 0.35617 0.53083
 C486 C 1.07731 0.34327 0.55058
 C487 C 1.08473 0.31958 0.55714
 H488 H 1.09948 0.31048 0.54714
 O489 O 0.90654 0.51754 0.62284
 O490 O 0.87724 0.51805 0.65081
 C491 C 0.89783 0.52586 0.64268
 C492 C 0.91180 0.54505 0.65605
 C493 C 0.90529 0.55182 0.67995
 H494 H 0.89017 0.54260 0.68900
 O495 O 1.08687 0.47040 0.62297
 O496 O 1.11639 0.46926 0.65083
 C497 C 1.09584 0.46145 0.64242
 C498 C 1.08200 0.44174 0.65503
 C499 C 1.08936 0.43311 0.67811
 H500 H 1.10539 0.44095 0.68716
 O501 O 1.01835 0.37592 0.58966
 O502 O 1.01878 0.34634 0.61676
 C503 C 1.02696 0.35567 0.59729
 C504 C 1.04679 0.34304 0.58338
 C505 C 1.05473 0.31940 0.58988
 H506 H 1.04579 0.31012 0.60480
 O507 O 0.97342 0.61701 0.59328
 O508 O 0.97296 0.64493 0.62242
 C509 C 0.96495 0.63686 0.60216
 C510 C 0.94554 0.65047 0.58867
 C511 C 0.93902 0.67459 0.59524
 H512 H 0.94860 0.68355 0.61014
 O513 O 0.87387 0.58689 0.52731
 O514 O 0.84526 0.61585 0.52888
 C515 C 0.85390 0.59556 0.53629
 C516 C 0.84096 0.58213 0.55588
 C517 C 0.81842 0.59101 0.56567
 H518 H 0.81018 0.60759 0.55857
 O519 O 1.11634 0.40941 0.52263
 O520 O 1.14469 0.38014 0.52197
 C521 C 1.13661 0.40036 0.53034
 C522 C 1.15083 0.41328 0.54938
 C523 C 1.17513 0.40601 0.55489
 H524 H 1.18363 0.39120 0.54462
 O525 O 0.96943 0.40701 0.62465
 O526 O 0.96950 0.37756 0.65184
 C527 C 0.96078 0.39760 0.64397
 C528 C 0.93998 0.41012 0.65669
 C529 C 0.93147 0.40273 0.67979
 H530 H 0.94071 0.38782 0.68905
 O531 O 1.02168 0.58289 0.62616
 O532 O 1.02136 0.61049 0.65559
 C533 C 1.02995 0.59085 0.64640
 C534 C 1.05014 0.57725 0.65885
 C535 C 1.05897 0.58449 0.68195
 H536 H 1.05058 0.60003 0.69110
 O537 O 0.87211 0.47124 0.58797
 O538 O 0.84231 0.47150 0.61541
 C539 C 0.85148 0.46325 0.59566
 C540 C 0.83845 0.44391 0.58153
 C541 C 0.81403 0.43686 0.58729
 H542 H 0.80427 0.44610 0.60190
 O543 O 1.11955 0.51935 0.59063
 O544 O 1.14925 0.51882 0.61834
 C545 C 1.13974 0.52787 0.59917
 C546 C 1.15158 0.54908 0.58707
 C547 C 1.17324 0.55992 0.59683
 H548 H 1.18196 0.55229 0.61287
 O549 O 0.90665 0.37541 0.52039
 O550 O 0.87820 0.34647 0.52000
 C551 C 0.89831 0.35536 0.52843
 C552 C 0.91202 0.34266 0.54810
 C553 C 0.90596 0.31860 0.55466
 H554 H 0.89141 0.30890 0.54498
 O555 O 1.08429 0.62051 0.52697
 O556 O 1.11318 0.64900 0.52803
 C557 C 1.09300 0.64020 0.53597
 C558 C 1.08000 0.65226 0.55656
 C559 C 1.08816 0.67489 0.56597
 H560 H 1.10366 0.68399 0.55748
 Cu561 Cu 1.10013 0.49478 0.60369
 Cu562 Cu 1.13570 0.49384 0.63702
 Cu563 Cu 0.89204 0.49432 0.60291
 Cu564 Cu 0.85651 0.49490 0.63610
 Cu565 Cu 0.99758 0.59660 0.60622
 Cu566 Cu 0.99704 0.62989 0.64141
 Cu567 Cu 0.99393 0.39560 0.60361
 Cu568 Cu 0.99426 0.36008 0.63602
 C569 C 1.06157 0.55740 0.64689
 H570 H 1.05511 0.55187 0.62901
 C571 C 1.07920 0.57217 0.69270
 C572 C 0.92811 0.42972 0.64501
 H573 H 0.93422 0.43525 0.62712
 C574 C 0.91147 0.41517 0.69105
 C575 C 1.06039 0.64011 0.56811
 H576 H 1.05424 0.62254 0.56119
 C577 C 1.07694 0.68515 0.58680
 C578 C 0.93092 0.35497 0.56100
 H579 H 0.93534 0.37372 0.55648
 C580 C 0.91896 0.30688 0.57350
 C581 C 1.14006 0.55985 0.56663
 H582 H 1.12326 0.55193 0.55913
 C583 C 1.18274 0.58148 0.58666
 C584 C 0.85076 0.43204 0.56218
 H585 H 0.86968 0.43703 0.55781
 C586 C 0.80208 0.41834 0.57375
 C587 C 0.93168 0.55705 0.64463
 H588 H 0.93652 0.55235 0.62606
 C589 C 0.91876 0.57007 0.69234
 C590 C 1.06099 0.43136 0.64372
 H591 H 1.05548 0.43739 0.62576
 C592 C 1.07548 0.41481 0.68979
 C593 C 1.13999 0.43248 0.56258
 H594 H 1.12107 0.43794 0.55848
 C595 C 1.18863 0.41749 0.57351
 C596 C 0.85183 0.56091 0.56580
 H597 H 0.86931 0.55413 0.55869
 C598 C 0.80717 0.57902 0.58532
 C599 C 0.93334 0.63918 0.56895
 H600 H 0.93793 0.62048 0.56403
 C601 C 0.92068 0.68729 0.58204
 C602 C 1.05816 0.35479 0.56365
 H603 H 1.05245 0.37314 0.55877
 C604 C 1.07377 0.30760 0.57681
 O605 O 1.08789 0.47569 0.38094
 O606 O 1.11659 0.47607 0.35238
 C607 C 1.09632 0.46782 0.36075
 C608 C 1.08234 0.44878 0.34714
 C609 C 1.08949 0.44142 0.32354
 H610 H 1.10526 0.44996 0.31489
 O611 O 0.90569 0.52472 0.38275
 O612 O 0.87658 0.52555 0.35442
 C613 C 0.89699 0.53339 0.36313
 C614 C 0.91050 0.55288 0.35028
 C615 C 0.90314 0.55955 0.32681
 H616 H 0.88790 0.54995 0.31808
 O617 O 0.97167 0.62303 0.41558
 O618 O 0.97146 0.65130 0.38717
 C619 C 0.96298 0.64280 0.40699
 C620 C 0.94223 0.65527 0.41995
 C621 C 0.93177 0.67720 0.41118
 H622 H 0.93941 0.68551 0.39506
 O623 O 1.01799 0.37909 0.40890
 O624 O 1.01856 0.35125 0.37967
 C625 C 1.02638 0.35919 0.40006
 C626 C 1.04557 0.34552 0.41376
 C627 C 1.05262 0.32159 0.40698
 H628 H 1.04359 0.31273 0.39168
 O629 O 1.11680 0.40888 0.47543
 O630 O 1.14482 0.37932 0.47501
 C631 C 1.13680 0.39964 0.46712
 C632 C 1.15074 0.41245 0.44788
 C633 C 1.17331 0.40294 0.43930
 H634 H 1.18087 0.38640 0.44726
 O635 O 0.87362 0.58716 0.47995
 O636 O 0.84476 0.61588 0.48154
 C637 C 0.85319 0.59609 0.47249
 C638 C 0.83943 0.58374 0.45265
 C639 C 0.81653 0.59302 0.44479
 H640 H 0.80848 0.60875 0.45398
 O641 O 1.01957 0.58833 0.38270
 O642 O 1.01966 0.61598 0.35366
 C643 C 1.02790 0.59611 0.36263
 C644 C 1.04758 0.58191 0.34993
 C645 C 1.05346 0.58655 0.32546
 H646 H 1.04307 0.60030 0.31564
 O647 O 0.97039 0.41393 0.37611
 O648 O 0.97071 0.38646 0.34654
 C649 C 0.96203 0.40599 0.35593
 C650 C 0.94149 0.41933 0.34381
 C651 C 0.93333 0.41264 0.32039
 H652 H 0.94302 0.39829 0.31060
 O653 O 1.12193 0.52277 0.41533
 O654 O 1.15086 0.52338 0.38705
 C655 C 1.14201 0.53146 0.40694
 C656 C 1.15460 0.55159 0.42033
 C657 C 1.17806 0.56028 0.41312
 H658 H 1.18758 0.55155 0.39806
 O659 O 0.87147 0.47639 0.41424
 O660 O 0.84204 0.47771 0.38625
 C661 C 0.85101 0.46870 0.40565
 C662 C 0.83772 0.44879 0.41807
 C663 C 0.81312 0.44333 0.41182
 H664 H 0.80357 0.45426 0.39830
 O665 O 1.08447 0.62045 0.47914
 O666 O 1.11374 0.64854 0.48041
 C667 C 1.09375 0.64021 0.47128
 C668 C 1.08183 0.65320 0.45068
 C669 C 1.09303 0.67400 0.44081
 H670 H 1.10982 0.68118 0.44908
 O671 O 0.90583 0.37555 0.47289
 O672 O 0.87714 0.34688 0.47214
 C673 C 0.89715 0.35586 0.46395
 C674 C 0.91019 0.34405 0.44324
 C675 C 0.90203 0.32166 0.43319
 H676 H 0.88639 0.31225 0.44115
 O677 O 0.90433 0.47725 0.37983
 O678 O 0.87504 0.47817 0.35169
 C679 C 0.89544 0.46964 0.35973
 C680 C 0.90885 0.45046 0.34581
 C681 C 0.90105 0.44369 0.32234
 H682 H 0.88537 0.45297 0.31404
 O683 O 1.08605 0.52302 0.38397
 O684 O 1.11455 0.52345 0.35521
 C685 C 1.09418 0.53135 0.36408
 C686 C 1.07983 0.55025 0.35097
 C687 C 1.08522 0.55500 0.32662
 H688 H 1.09974 0.54461 0.31757
 O689 O 0.96986 0.38010 0.40866
 O690 O 0.97037 0.35249 0.37922
 C691 C 0.96166 0.36046 0.39922
 C692 C 0.94156 0.34688 0.41135
 C693 C 0.93298 0.32485 0.40140
 H694 H 0.94152 0.31752 0.38505
 O695 O 1.02020 0.62316 0.41468
 O696 O 1.02064 0.65124 0.38611
 C697 C 1.02919 0.64264 0.40587
 C698 C 1.05037 0.65464 0.41850
 C699 C 1.06195 0.67552 0.40880
 H700 H 1.05481 0.68344 0.39220
 O701 O 0.87162 0.40892 0.47396
 O702 O 0.84257 0.38058 0.47338
 C703 C 0.85118 0.40073 0.46571
 C704 C 0.83772 0.41497 0.44693
 C705 C 0.81315 0.40932 0.44001
 H706 H 0.80357 0.39433 0.44863
 O707 O 1.11900 0.58704 0.47962
 O708 O 1.14818 0.61524 0.48108
 C709 C 1.13957 0.59551 0.47217
 C710 C 1.15331 0.58265 0.45253
 C711 C 1.17685 0.59078 0.44537
 H712 H 1.18541 0.60601 0.45489
 O713 O 1.01900 0.41442 0.37769
 O714 O 1.01928 0.38680 0.34826
 C715 C 1.02771 0.40635 0.35776
 C716 C 1.04825 0.41936 0.34569
 C717 C 1.05525 0.41275 0.32204
 H718 H 1.04491 0.39876 0.31232
 O719 O 0.97125 0.58970 0.38198
 O720 O 0.97113 0.61764 0.35323
 C721 C 0.96268 0.59793 0.36206
 C722 C 0.94240 0.58455 0.34948
 C723 C 0.93458 0.59113 0.32591
 H724 H 0.94404 0.60573 0.31661
 O725 O 0.87056 0.52413 0.41483
 O726 O 0.84133 0.52540 0.38666
 C727 C 0.85035 0.53303 0.40665
 C728 C 0.83779 0.55294 0.42034
 C729 C 0.81475 0.56251 0.41263
 H730 H 0.80574 0.55482 0.39674
 O731 O 1.12132 0.47490 0.41489
 O732 O 1.15019 0.47510 0.38652
 C733 C 1.14130 0.46633 0.40600
 C734 C 1.15346 0.44531 0.41813
 C735 C 1.17619 0.43557 0.40975
 H736 H 1.18546 0.44406 0.39457
 O737 O 1.08104 0.37714 0.47524
 O738 O 1.10914 0.34765 0.47502
 C739 C 1.08916 0.35697 0.46687
 C740 C 1.07567 0.34446 0.44703
 C741 C 1.08209 0.32052 0.44040
 H742 H 1.09634 0.31088 0.45057
 O743 O 0.90720 0.62099 0.47982
 O744 O 0.87835 0.64971 0.48119
 C745 C 0.89822 0.64105 0.47208
 C746 C 0.91053 0.65411 0.45181
 C747 C 0.90034 0.67589 0.44272
 H748 H 0.88390 0.68366 0.45115
 Cu749 Cu 1.10159 0.49897 0.40174
 Cu750 Cu 1.13603 0.49969 0.36751
 Cu751 Cu 0.89088 0.50049 0.40080
 Cu752 Cu 0.85579 0.50180 0.36693
 Cu753 Cu 1.09813 0.60062 0.50302
 Cu754 Cu 1.13308 0.63452 0.50457
 Cu755 Cu 1.09612 0.39588 0.49906
 Cu756 Cu 1.13000 0.36052 0.49855
 Cu757 Cu 0.89387 0.60069 0.50353
 Cu758 Cu 0.85941 0.63534 0.50523
 Cu759 Cu 0.89214 0.39495 0.49704
 Cu760 Cu 0.85759 0.36059 0.49658
 Cu761 Cu 0.99566 0.60336 0.40161
 Cu762 Cu 0.99576 0.63694 0.36723
 Cu763 Cu 0.99432 0.39973 0.39573
 Cu764 Cu 0.99483 0.36654 0.36038
 C765 C 1.06166 0.43761 0.35801
 H766 H 1.05630 0.44273 0.37633
 C767 C 1.07585 0.42342 0.31091
 C768 C 0.93029 0.56529 0.36143
 H769 H 0.93591 0.56028 0.37967
 C770 C 0.91487 0.57858 0.31448
 C771 C 0.93161 0.64411 0.44046
 H772 H 0.93929 0.62708 0.44716
 C773 C 0.91079 0.68765 0.42258
 C774 C 1.05719 0.35672 0.43384
 H775 H 1.05228 0.37531 0.43889
 C776 C 1.07090 0.30901 0.42040
 C777 C 1.14114 0.43376 0.43740
 H778 H 1.12352 0.44093 0.44379
 C779 C 1.18628 0.41436 0.42044
 C780 C 0.84977 0.56351 0.44055
 H781 H 0.86768 0.55653 0.44636
 C782 C 0.80399 0.58258 0.42493
 C783 C 1.06080 0.56359 0.36248
 H784 H 1.05661 0.56000 0.38139
 C785 C 1.07227 0.57297 0.31370
 C786 C 0.92920 0.43832 0.35628
 H787 H 0.93514 0.44331 0.37448
 C788 C 0.91301 0.42472 0.30956
 C789 C 1.14248 0.56289 0.44009
 H790 H 1.12423 0.55667 0.44546
 C791 C 1.18929 0.57993 0.42564
 C792 C 0.84976 0.43474 0.43580
 H793 H 0.86880 0.43897 0.44064
 C794 C 0.80075 0.42367 0.42252
 C795 C 1.06035 0.64386 0.43959
 H796 H 1.05188 0.62757 0.44694
 C797 C 1.08340 0.68529 0.41993
 C798 C 0.93022 0.35625 0.43235
 H799 H 0.93654 0.37354 0.43981
 C800 C 0.91348 0.31204 0.41220
 O801 O 0.47878 0.91821 0.37760
 O802 O 0.47811 0.89038 0.34837
 C803 C 0.47028 0.91039 0.35743
 C804 C 0.45088 0.92468 0.34470
 C805 C 0.44436 0.91938 0.32042
 H806 H 0.45425 0.90510 0.31075
 O807 O 0.53336 1.09049 0.37809
 O808 O 0.53448 1.11931 0.35028
 C809 C 0.54269 1.09930 0.35877
 C810 C 0.56389 1.08655 0.34671
 C811 C 0.57526 1.09623 0.32573
 H812 H 0.56798 1.11283 0.31776
 O813 O 0.37990 0.98365 0.41237
 O814 O 0.35152 0.98370 0.38336
 C815 C 0.36003 0.97512 0.40318
 C816 C 0.34697 0.95461 0.41521
 C817 C 0.32383 0.94677 0.40637
 H818 H 0.31522 0.95634 0.39132
 O819 O 0.63152 1.02330 0.41340
 O820 O 0.66135 1.02218 0.38601
 C821 C 0.65228 1.03088 0.40557
 C822 C 0.66535 1.05059 0.41910
 C823 C 0.68842 1.05960 0.41113
 H824 H 0.69714 1.05157 0.39525
 O825 O 0.41276 0.88151 0.47414
 O826 O 0.38336 0.85354 0.47280
 C827 C 0.40386 0.86197 0.46512
 C828 C 0.41727 0.84952 0.44504
 C829 C 0.41006 0.82620 0.43668
 H830 H 0.39511 0.81674 0.44573
 O831 O 0.59721 1.12095 0.47832
 O832 O 0.62653 1.14906 0.47888
 C833 C 0.60620 1.14078 0.47041
 C834 C 0.59290 1.15414 0.45106
 C835 C 0.59966 1.17811 0.44514
 H836 H 0.61460 1.18698 0.45505
 O837 O 0.41405 1.03144 0.37948
 O838 O 0.38544 1.03196 0.35068
 C839 C 0.40579 1.03982 0.35949
 C840 C 0.41994 1.05911 0.34670
 C841 C 0.41126 1.06916 0.32467
 H842 H 0.39411 1.06256 0.31671
 O843 O 0.59624 0.97760 0.37868
 O844 O 0.62563 0.97617 0.35084
 C845 C 0.60480 0.96896 0.35889
 C846 C 0.59032 0.95012 0.34557
 C847 C 0.59686 0.94258 0.32186
 H848 H 0.61248 0.95101 0.31287
 O849 O 0.52628 0.88322 0.41066
 O850 O 0.52587 0.85538 0.38144
 C851 C 0.53441 0.86337 0.40155
 C852 C 0.55435 0.84966 0.41416
 C853 C 0.56332 0.82772 0.40426
 H854 H 0.55510 0.82047 0.38770
 O855 O 0.48407 1.12410 0.41151
 O856 O 0.48537 1.15271 0.38346
 C857 C 0.47612 1.14422 0.40290
 C858 C 0.45554 1.15780 0.41503
 C859 C 0.44772 1.18038 0.40570
 H860 H 0.45729 1.18812 0.39025
 O861 O 0.37861 1.09868 0.47374
 O862 O 0.35024 1.12785 0.47272
 C863 C 0.35860 1.10750 0.46499
 C864 C 0.34541 1.09371 0.44554
 C865 C 0.32123 1.10016 0.43778
 H866 H 0.31167 1.11545 0.44624
 O867 O 0.62393 0.91146 0.47738
 O868 O 0.65258 0.88250 0.47823
 C869 C 0.64439 0.90257 0.46986
 C870 C 0.65864 0.91532 0.45080
 C871 C 0.68255 0.90720 0.44460
 H872 H 0.69094 0.89212 0.45441
 O873 O 0.48441 1.09011 0.37853
 O874 O 0.48551 1.11878 0.35053
 C875 C 0.47618 1.09924 0.35894
 C876 C 0.45478 1.08774 0.34641
 C877 C 0.44578 1.09755 0.32463
 H878 H 0.45541 1.11274 0.31633
 O879 O 0.52726 0.91692 0.37783
 O880 O 0.52636 0.88912 0.34857
 C881 C 0.53538 0.90854 0.35774
 C882 C 0.55588 0.92109 0.34508
 C883 C 0.56232 0.91420 0.32133
 H884 H 0.55159 0.90027 0.31194
 O885 O 0.62903 0.97571 0.41320
 O886 O 0.65882 0.97429 0.38577
 C887 C 0.64912 0.96642 0.40526
 C888 C 0.66095 0.94607 0.41880
 C889 C 0.68473 0.93730 0.41249
 H890 H 0.69486 0.94588 0.39789
 O891 O 0.37940 1.03177 0.41240
 O892 O 0.35072 1.03156 0.38365
 C893 C 0.35921 1.03999 0.40355
 C894 C 0.34575 1.05999 0.41613
 C895 C 0.32153 1.06620 0.40910
 H896 H 0.31228 1.05559 0.39503
 O897 O 0.41557 1.12887 0.47414
 O898 O 0.38766 1.15846 0.47291
 C899 C 0.40779 1.14879 0.46519
 C900 C 0.42213 1.16029 0.44523
 C901 C 0.41467 1.18292 0.43549
 H902 H 0.39852 1.19213 0.44287
 O903 O 0.58953 0.87846 0.47612
 O904 O 0.61803 0.84938 0.47633
 C905 C 0.59822 0.85857 0.46756
 C906 C 0.58545 0.84679 0.44659
 C907 C 0.59402 0.82453 0.43651
 H908 H 0.60975 0.81521 0.44461
 O909 O 0.59782 1.02519 0.37989
 O910 O 0.62744 1.02407 0.35228
 C911 C 0.60743 1.03336 0.36053
 C912 C 0.59561 1.05433 0.34790
 C913 C 0.60667 1.06431 0.32717
 H914 H 0.62345 1.05605 0.31991
 O915 O 0.41411 0.98400 0.37938
 O916 O 0.38578 0.98461 0.35028
 C917 C 0.40588 0.97622 0.35909
 C918 C 0.41960 0.95705 0.34567
 C919 C 0.41341 0.95167 0.32147
 H920 H 0.39887 0.96206 0.31250
 O921 O 0.53260 1.12256 0.41317
 O922 O 0.53361 1.15153 0.38545
 C923 C 0.54136 1.14254 0.40535
 C924 C 0.56108 1.15512 0.41936
 C925 C 0.56798 1.17916 0.41373
 H926 H 0.55788 1.18872 0.39967
 O927 O 0.47788 0.88378 0.41001
 O928 O 0.47754 0.85581 0.38091
 C929 C 0.46931 0.86406 0.40098
 C930 C 0.44938 0.85073 0.41375
 C931 C 0.44216 0.82736 0.40585
 H932 H 0.45170 0.81878 0.39067
 O933 O 0.63071 1.08683 0.47872
 O934 O 0.66019 1.11475 0.47934
 C935 C 0.65121 1.09501 0.47082
 C936 C 0.66449 1.08191 0.45106
 C937 C 0.68741 1.09060 0.44285
 H938 H 0.69578 1.10632 0.45171
 O939 O 0.37901 0.91547 0.47386
 O940 O 0.34938 0.88776 0.47244
 C941 C 0.35876 0.90761 0.46483
 C942 C 0.34633 0.92147 0.44500
 C943 C 0.32315 0.91388 0.43572
 H944 H 0.31401 0.89837 0.44381
 Cu945 Cu 0.50251 0.90337 0.39693
 Cu946 Cu 0.50188 0.86984 0.36191
 Cu947 Cu 0.50862 1.10386 0.39802
 Cu948 Cu 0.50988 1.13837 0.36457
 Cu949 Cu 0.39965 1.00779 0.39888
 Cu950 Cu 0.36540 1.00797 0.36420
 Cu951 Cu 0.61073 1.00050 0.39905
 Cu952 Cu 0.64628 0.99899 0.36593
 C953 C 0.43849 0.94364 0.35709
 H954 H 0.44317 0.94763 0.37588
 C955 C 0.42554 0.93291 0.30868
 C956 C 0.57411 1.06544 0.35738
 H957 H 0.56576 1.05806 0.37365
 C958 C 0.59675 1.08514 0.31589
 C959 C 0.35800 0.94196 0.43467
 H960 H 0.37601 0.94772 0.44141
 C961 C 0.31184 0.92641 0.41627
 C962 C 0.65373 1.06172 0.43928
 H963 H 0.63581 1.05521 0.44531
 C964 C 0.69954 1.07967 0.42303
 C965 C 0.43701 0.86154 0.43351
 H966 H 0.44239 0.87967 0.43955
 C967 C 0.42251 0.81500 0.41704
 C968 C 0.57351 1.14283 0.43817
 H969 H 0.56841 1.12420 0.44247
 C970 C 0.58738 1.19077 0.42652
 C971 C 0.44189 1.06837 0.35720
 H972 H 0.44853 1.06103 0.37429
 C973 C 0.42418 1.08846 0.31360
 C974 C 0.56976 0.93926 0.35694
 H975 H 0.56488 0.94455 0.37535
 C976 C 0.58276 0.92464 0.30964
 C977 C 0.56536 0.85896 0.43543
 H978 H 0.55876 0.87618 0.44286
 C979 C 0.58292 0.81499 0.41527
 C980 C 0.44276 1.14798 0.43498
 H981 H 0.44847 1.13038 0.44206
 C982 C 0.42749 1.19309 0.41572
 C983 C 0.35740 1.07360 0.43454
 H984 H 0.37616 1.06880 0.43996
 C985 C 0.30915 1.08620 0.41963
 C986 C 0.64810 0.93494 0.43802
 H987 H 0.62959 0.94121 0.44271
 C988 C 0.69560 0.91783 0.42541
 O989 O 0.52366 0.91298 0.62062
 O990 O 0.52241 0.88531 0.64959
 C991 C 0.53146 0.90476 0.64086
 C992 C 0.55158 0.91777 0.65399
 C993 C 0.56082 0.90913 0.67641
 H994 H 0.55284 0.89297 0.68449
 O995 O 0.47764 1.09445 0.61637
 O996 O 0.47791 1.12274 0.64515
 C997 C 0.46893 1.10323 0.63602
 C998 C 0.44780 1.09109 0.64820
 C999 C 0.43869 1.10061 0.67014
 H1000 H 0.44759 1.11638 0.67839
 O1001 O 0.37774 1.03055 0.58155
 O1002 O 0.34839 1.03094 0.60945
 C1003 C 0.35745 1.03906 0.58976
 C1004 C 0.34458 1.05907 0.57671
 C1005 C 0.32016 1.06539 0.58277
 H1006 H 0.31037 1.05491 0.59637
 O1007 O 0.62160 0.97720 0.58890
 O1008 O 0.65021 0.97643 0.61772
 C1009 C 0.64151 0.96838 0.59767
 C1010 C 0.65457 0.94841 0.58458
 C1011 C 0.67864 0.94157 0.59158
 H1012 H 0.68784 0.95132 0.60627
 O1013 O 0.58814 0.87838 0.52369
 O1014 O 0.61674 0.84939 0.52406
 C1015 C 0.59654 0.85837 0.53207
 C1016 C 0.58327 0.84582 0.55194
 C1017 C 0.59238 0.82368 0.56108
 H1018 H 0.60854 0.81522 0.55277
 O1019 O 0.41294 1.13167 0.52146
 O1020 O 0.38487 1.16111 0.52097
 C1021 C 0.40466 1.15190 0.52970
 C1022 C 0.41794 1.16407 0.55019
 C1023 C 0.40865 1.18567 0.56116
 H1024 H 0.39198 1.19423 0.55409
 O1025 O 0.41154 0.98326 0.61564
 O1026 O 0.38280 0.98435 0.64415
 C1027 C 0.40300 0.97569 0.63570
 C1028 C 0.41643 0.95637 0.64919
 C1029 C 0.40983 0.95102 0.67321
 H1030 H 0.39521 0.96146 0.68203
 O1031 O 0.58921 1.02634 0.62197
 O1032 O 0.61740 1.02560 0.65115
 C1033 C 0.59771 1.03460 0.64197
 C1034 C 0.58462 1.05517 0.65420
 C1035 C 0.59124 1.06289 0.67786
 H1036 H 0.60569 1.05323 0.68765
 O1037 O 0.47465 0.88066 0.58653
 O1038 O 0.47333 0.85314 0.61563
 C1039 C 0.46535 0.86140 0.59552
 C1040 C 0.44461 0.84882 0.58289
 C1041 C 0.43413 0.82785 0.59304
 H1042 H 0.44189 0.82043 0.60966
 O1043 O 0.52808 1.12714 0.58553
 O1044 O 0.52853 1.15540 0.61432
 C1045 C 0.53720 1.14655 0.59466
 C1046 C 0.55868 1.15828 0.58265
 C1047 C 0.56831 1.18073 0.59110
 H1048 H 0.55947 1.19003 0.60623
 O1049 O 0.37907 0.91587 0.52129
 O1050 O 0.34942 0.88816 0.52007
 C1051 C 0.35852 0.90773 0.52898
 C1052 C 0.34541 0.92061 0.54900
 C1053 C 0.32375 0.91056 0.55866
 H1054 H 0.31625 0.89390 0.55081
 O1055 O 0.62998 1.08759 0.52619
 O1056 O 0.65973 1.11523 0.52690
 C1057 C 0.65018 1.09571 0.53502
 C1058 C 0.66207 1.08246 0.55534
 C1059 C 0.68528 1.08964 0.56474
 H1060 H 0.69518 1.10471 0.55659
 O1061 O 0.52612 1.09330 0.61850
 O1062 O 0.52614 1.12157 0.64730
 C1063 C 0.53412 1.10139 0.63879
 C1064 C 0.55319 1.08752 0.65251
 C1065 C 0.55972 1.09468 0.67622
 H1066 H 0.55017 1.10996 0.68476
 O1067 O 0.47559 0.91600 0.61805
 O1068 O 0.47424 0.88875 0.64744
 C1069 C 0.46675 0.90873 0.63808
 C1070 C 0.44741 0.92358 0.65039
 C1071 C 0.44060 0.91857 0.67446
 H1072 H 0.45040 0.90434 0.68414
 O1073 O 0.62454 1.02457 0.58991
 O1074 O 0.65279 1.02366 0.61905
 C1075 C 0.64498 1.03195 0.59894
 C1076 C 0.65952 1.05081 0.58630
 C1077 C 0.68300 1.05767 0.59501
 H1078 H 0.69106 1.04837 0.61052
 O1079 O 0.37617 0.98255 0.58359
 O1080 O 0.34724 0.98291 0.61188
 C1081 C 0.35613 0.97404 0.59233
 C1082 C 0.34377 0.95300 0.57998
 C1083 C 0.32178 0.94262 0.58931
 H1084 H 0.31310 0.95049 0.60530
 O1085 O 0.59670 1.12185 0.52553
 O1086 O 0.62636 1.14959 0.52605
 C1087 C 0.60574 1.14167 0.53386
 C1088 C 0.59240 1.15548 0.55308
 C1089 C 0.60184 1.17773 0.56186
 H1090 H 0.61869 1.18514 0.55410
 O1091 O 0.41051 0.87994 0.52172
 O1092 O 0.38101 0.85208 0.52061
 C1093 C 0.40104 0.86028 0.52977
 C1094 C 0.41315 0.84770 0.55065
 C1095 C 0.40298 0.82636 0.56106
 H1096 H 0.38648 0.81819 0.55321
 O1097 O 0.58786 0.97843 0.62218
 O1098 O 0.61633 0.97780 0.65111
 C1099 C 0.59619 0.96987 0.64204
 C1100 C 0.58296 0.94988 0.65439
 C1101 C 0.59195 0.94100 0.67657
 H1102 H 0.60786 0.94965 0.68512
 O1103 O 0.41036 1.03101 0.61640
 O1104 O 0.38117 1.03207 0.64445
 C1105 C 0.40154 1.04000 0.63598
 C1106 C 0.41490 1.06025 0.64855
 C1107 C 0.40624 1.06999 0.67084
 H1108 H 0.38990 1.06234 0.67929
 O1109 O 0.47929 1.12882 0.58432
 O1110 O 0.47993 1.15703 0.61316
 C1111 C 0.47119 1.14880 0.59326
 C1112 C 0.45066 1.16220 0.58115
 C1113 C 0.44097 1.18347 0.59191
 H1114 H 0.44938 1.19069 0.60839
 O1115 O 0.52313 0.87935 0.58707
 O1116 O 0.52206 0.85154 0.61590
 C1117 C 0.53100 0.85944 0.59607
 C1118 C 0.55130 0.84605 0.58346
 C1119 C 0.56066 0.82370 0.59235
 H1120 H 0.55251 0.81565 0.60838
 O1121 O 0.62231 0.91153 0.52472
 O1122 O 0.65110 0.88271 0.52550
 C1123 C 0.64226 0.90281 0.53354
 C1124 C 0.65502 0.91615 0.55351
 C1125 C 0.67906 0.90935 0.56105
 H1126 H 0.68862 0.89456 0.55177
 O1127 O 0.37952 1.09772 0.52091
 O1128 O 0.35085 1.12662 0.52033
 C1129 C 0.35915 1.10647 0.52866
 C1130 C 0.34539 1.09278 0.54758
 C1131 C 0.32100 1.09926 0.55440
 H1132 H 0.31177 1.11454 0.54571
 Cu1133 Cu 0.49949 0.89993 0.60013
 Cu1134 Cu 0.49778 0.86684 0.63499
 Cu1135 Cu 0.50288 1.10817 0.59820
 Cu1136 Cu 0.50318 1.14204 0.63283
 Cu1137 Cu 0.39836 0.90083 0.49784
 Cu1138 Cu 0.36281 0.86763 0.49631
 Cu1139 Cu 0.60305 0.89779 0.50039
 Cu1140 Cu 0.63743 0.86302 0.50111
 Cu1141 Cu 0.39942 1.11141 0.49765
 Cu1142 Cu 0.36570 1.14656 0.49668
 Cu1143 Cu 0.61074 1.10145 0.50216
 Cu1144 Cu 0.64624 1.13491 0.50277
 Cu1145 Cu 0.39676 1.00678 0.59645
 Cu1146 Cu 0.36195 1.00764 0.63024
 Cu1147 Cu 0.60285 1.00185 0.60290
 Cu1148 Cu 0.63697 1.00076 0.63774
 C1149 C 0.56262 0.93835 0.64333
 H1150 H 0.55592 0.94491 0.62595
 C1151 C 0.58111 0.92076 0.68773
 C1152 C 0.43590 1.07081 0.63758
 H1153 H 0.44261 1.06366 0.62038
 C1154 C 0.41815 1.09023 0.68166
 C1155 C 0.35695 1.07264 0.55891
 H1156 H 0.37587 1.06777 0.55421
 C1157 C 0.30828 1.08540 0.57190
 C1158 C 0.64297 0.93576 0.56536
 H1159 H 0.62432 0.94092 0.55992
 C1160 C 0.69095 0.92209 0.58007
 C1161 C 0.56256 0.85671 0.56304
 H1162 H 0.55576 0.87407 0.55627
 C1163 C 0.58127 0.81244 0.58112
 C1164 C 0.43919 1.15276 0.56018
 H1165 H 0.44629 1.13600 0.55217
 C1166 C 0.42013 1.19532 0.58219
 C1167 C 0.43537 0.94267 0.63794
 H1168 H 0.44034 0.94651 0.61928
 C1169 C 0.42168 0.93215 0.68597
 C1170 C 0.56555 1.06760 0.64177
 H1171 H 0.56063 1.06210 0.62342
 C1172 C 0.57873 1.08266 0.68899
 C1173 C 0.43418 0.85846 0.56159
 H1174 H 0.44198 0.87496 0.55400
 C1175 C 0.41347 0.81644 0.58240
 C1176 C 0.57070 1.14603 0.56341
 H1177 H 0.56359 1.12864 0.55695
 C1178 C 0.58990 1.19060 0.58064
 C1179 C 0.35520 0.94194 0.55963
 H1180 H 0.37226 0.94950 0.55250
 C1181 C 0.31182 0.92125 0.57869
 C1182 C 0.64940 1.06300 0.56624
 H1183 H 0.63122 1.05777 0.55955
 C1184 C 0.69579 1.07720 0.58459
 O1185 O 0.46870 0.40573 0.88641
 O1186 O 0.46822 0.37616 0.85889
 C1187 C 0.46006 0.39651 0.86690
 C1188 C 0.44051 0.40961 0.85318
 C1189 C 0.43520 0.40281 0.82915
 H1190 H 0.44565 0.38810 0.82062
 O1191 O 0.51232 0.58639 0.87555
 O1192 O 0.51068 0.61417 0.84666
 C1193 C 0.51987 0.59462 0.85536
 C1194 C 0.54006 0.58181 0.84219
 C1195 C 0.54878 0.59115 0.82019
 H1196 H 0.53994 0.60717 0.81243
 O1197 O 0.37238 0.47272 0.91682
 O1198 O 0.34192 0.47043 0.88999
 C1199 C 0.35194 0.46352 0.90977
 C1200 C 0.34002 0.44427 0.92451
 C1201 C 0.31645 0.43528 0.91810
 H1202 H 0.30678 0.44340 0.90292
 O1203 O 0.61250 0.52322 0.90664
 O1204 O 0.64031 0.52222 0.87726
 C1205 C 0.63236 0.53117 0.89721
 C1206 C 0.64602 0.55135 0.90933
 C1207 C 0.66976 0.55794 0.90132
 H1208 H 0.67842 0.54776 0.88661
 O1209 O 0.40873 0.37722 0.98659
 O1210 O 0.37986 0.34884 0.98919
 C1211 C 0.39973 0.35679 0.97979
 C1212 C 0.41208 0.34265 0.96018
 C1213 C 0.40301 0.31971 0.95275
 H1214 H 0.38739 0.31171 0.96218
 O1215 O 0.58211 0.62478 0.96944
 O1216 O 0.61042 0.65365 0.96652
 C1217 C 0.58988 0.64442 0.95984
 C1218 C 0.57518 0.65625 0.94030
 C1219 C 0.58251 0.67891 0.93064
 H1220 H 0.59878 0.68795 0.93792
 O1221 O 0.40267 0.51938 0.87950
 O1222 O 0.37229 0.51740 0.85257
 C1223 C 0.39255 0.52677 0.85996
 C1224 C 0.40411 0.54707 0.84632
 C1225 C 0.39411 0.55510 0.82409
 H1226 H 0.37828 0.54570 0.81623
 O1227 O 0.57751 0.47456 0.87581
 O1228 O 0.60470 0.47364 0.84588
 C1229 C 0.58519 0.46543 0.85591
 C1230 C 0.57171 0.44447 0.84501
 C1231 C 0.57749 0.43572 0.82155
 H1232 H 0.59163 0.44486 0.81109
 O1233 O 0.51919 0.37370 0.91831
 O1234 O 0.51836 0.34380 0.89119
 C1235 C 0.52762 0.35350 0.91018
 C1236 C 0.54874 0.34161 0.92280
 C1237 C 0.55700 0.31805 0.91611
 H1238 H 0.54721 0.30798 0.90206
 O1239 O 0.46493 0.62078 0.90939
 O1240 O 0.46307 0.64862 0.88059
 C1241 C 0.45582 0.64044 0.90092
 C1242 C 0.43619 0.65341 0.91474
 C1243 C 0.42647 0.67595 0.90681
 H1244 H 0.43379 0.68431 0.89055
 O1245 O 0.37274 0.58526 0.97877
 O1246 O 0.34326 0.61339 0.97895
 C1247 C 0.35216 0.59337 0.97082
 C1248 C 0.33865 0.57989 0.95145
 C1249 C 0.31546 0.58835 0.94351
 H1250 H 0.30713 0.60422 0.95223
 O1251 O 0.62044 0.41348 0.97375
 O1252 O 0.64985 0.38531 0.97321
 C1253 C 0.63999 0.40450 0.96431
 C1254 C 0.65072 0.41626 0.94237
 C1255 C 0.67227 0.40678 0.93111
 H1256 H 0.68163 0.39107 0.93883
 O1257 O 0.46399 0.58625 0.87672
 O1258 O 0.46227 0.61395 0.84778
 C1259 C 0.45465 0.59411 0.85699
 C1260 C 0.43442 0.58019 0.84498
 C1261 C 0.42422 0.58797 0.82275
 H1262 H 0.43151 0.60423 0.81431
 O1263 O 0.51667 0.40668 0.88474
 O1264 O 0.51608 0.37694 0.85742
 C1265 C 0.52409 0.39756 0.86475
 C1266 C 0.54218 0.41103 0.84982
 C1267 C 0.54812 0.40261 0.82646
 H1268 H 0.53913 0.38636 0.81929
 O1269 O 0.61345 0.47535 0.90709
 O1270 O 0.64075 0.47441 0.87726
 C1271 C 0.63309 0.46655 0.89760
 C1272 C 0.64693 0.44653 0.90983
 C1273 C 0.66818 0.43657 0.89883
 H1274 H 0.67479 0.44402 0.88182
 O1275 O 0.37086 0.52008 0.91462
 O1276 O 0.34021 0.51816 0.88798
 C1277 C 0.34990 0.52757 0.90698
 C1278 C 0.33722 0.54784 0.92016
 C1279 C 0.31380 0.55659 0.91257
 H1280 H 0.30459 0.54814 0.89715
 O1281 O 0.40421 0.62105 0.97691
 O1282 O 0.37461 0.64908 0.97742
 C1283 C 0.39459 0.64059 0.96858
 C1284 C 0.40626 0.65325 0.94794
 C1285 C 0.39656 0.67555 0.93967
 H1286 H 0.38100 0.68399 0.94902
 O1287 O 0.58780 0.37915 0.97831
 O1288 O 0.61712 0.35085 0.97846
 C1289 C 0.59626 0.35867 0.97094
 C1290 C 0.58205 0.34417 0.95292
 C1291 C 0.58982 0.32052 0.94634
 H1292 H 0.60581 0.31241 0.95527
 O1293 O 0.57815 0.52237 0.87347
 O1294 O 0.60577 0.52159 0.84394
 C1295 C 0.58603 0.53029 0.85319
 C1296 C 0.57248 0.55040 0.84081
 C1297 C 0.58099 0.56008 0.81860
 H1298 H 0.59727 0.55228 0.80999
 O1299 O 0.40425 0.47156 0.88177
 O1300 O 0.37419 0.46932 0.85450
 C1301 C 0.39495 0.46185 0.86278
 C1302 C 0.40848 0.44137 0.85083
 C1303 C 0.40295 0.43388 0.82683
 H1304 H 0.38877 0.44342 0.81655
 O1305 O 0.51325 0.62086 0.90792
 O1306 O 0.51140 0.64872 0.87911
 C1307 C 0.52093 0.64067 0.89869
 C1308 C 0.54151 0.65423 0.91045
 C1309 C 0.54912 0.67677 0.90107
 H1310 H 0.53932 0.68458 0.88569
 O1311 O 0.47077 0.37351 0.92082
 O1312 O 0.46982 0.34382 0.89349
 C1313 C 0.46218 0.35322 0.91330
 C1314 C 0.44264 0.34091 0.92751
 C1315 C 0.43335 0.31800 0.92026
 H1316 H 0.44101 0.30919 0.90429
 O1317 O 0.61573 0.59060 0.96881
 O1318 O 0.64426 0.61928 0.96590
 C1319 C 0.63529 0.59885 0.95904
 C1320 C 0.64743 0.58462 0.93931
 C1321 C 0.67115 0.59104 0.93089
 H1322 H 0.68092 0.60603 0.93953
 O1323 O 0.37627 0.41235 0.98518
 O1324 O 0.34732 0.38403 0.98766
 C1325 C 0.35583 0.40331 0.97798
 C1326 C 0.34199 0.41498 0.95784
 C1327 C 0.31849 0.40622 0.95111
 H1328 H 0.31027 0.39131 0.96114
 Cu1329 Cu 0.49391 0.39276 0.90547
 Cu1330 Cu 0.49303 0.35712 0.87255
 Cu1331 Cu 0.48866 0.60078 0.89531
 Cu1332 Cu 0.48669 0.63415 0.86060
 Cu1333 Cu 0.39064 0.49615 0.90074
 Cu1334 Cu 0.35412 0.49356 0.86852
 Cu1335 Cu 0.59260 0.49902 0.89363
 Cu1336 Cu 0.62565 0.49790 0.85814
 C1337 C 0.42731 0.42908 0.86379
 H1338 H 0.43147 0.43443 0.88237
 C1339 C 0.41659 0.41472 0.81586
 C1340 C 0.55182 0.56128 0.85225
 H1341 H 0.54538 0.55426 0.86949
 C1342 C 0.56914 0.58056 0.80825
 C1343 C 0.35258 0.43412 0.94453
 H1344 H 0.37089 0.44073 0.94941
 C1345 C 0.30564 0.41603 0.93121
 C1346 C 0.63508 0.56467 0.92848
 H1347 H 0.61665 0.55981 0.93463
 C1348 C 0.68240 0.57776 0.91185
 C1349 C 0.43213 0.35287 0.94767
 H1350 H 0.43898 0.37071 0.95308
 C1351 C 0.41362 0.30714 0.93295
 C1352 C 0.55446 0.64423 0.93025
 H1353 H 0.54891 0.62664 0.93734
 C1354 C 0.56943 0.68931 0.91104
 C1355 C 0.42445 0.55956 0.85639
 H1356 H 0.43204 0.55370 0.87367
 C1357 C 0.40416 0.57538 0.81203
 C1358 C 0.55381 0.43213 0.85885
 H1359 H 0.54946 0.43854 0.87704
 C1360 C 0.56549 0.41484 0.81211
 C1361 C 0.56134 0.35441 0.94127
 H1362 H 0.55541 0.37275 0.94617
 C1363 C 0.57760 0.30740 0.92788
 C1364 C 0.42620 0.64245 0.93555
 H1365 H 0.43339 0.62500 0.94166
 C1366 C 0.40665 0.68714 0.91936
 C1367 C 0.34932 0.55948 0.93983
 H1368 H 0.36747 0.55313 0.94564
 C1369 C 0.30287 0.57690 0.92427
 C1370 C 0.63840 0.43634 0.93167
 H1371 H 0.62171 0.44367 0.93998
 C1372 C 0.68101 0.41692 0.90926
 O1373 O 0.52840 0.42145 1.12513
 O1374 O 0.53085 0.39438 1.15460
 C1375 C 0.53848 0.41388 1.14462
 C1376 C 0.55982 0.42748 1.15520
 C1377 C 0.57011 0.42064 1.17772
 H1378 H 0.56196 0.40567 1.18767
 O1379 O 0.47746 0.59486 1.12249
 O1380 O 0.47829 0.62435 1.15003
 C1381 C 0.46971 0.60409 1.14237
 C1382 C 0.45015 0.59112 1.15616
 C1383 C 0.44343 0.59827 1.17998
 H1384 H 0.45297 0.61329 1.18886
 O1385 O 0.37601 0.52922 1.09376
 O1386 O 0.34830 0.53024 1.12322
 C1387 C 0.35602 0.53771 1.10280
 C1388 C 0.34211 0.55687 1.08957
 C1389 C 0.31996 0.56696 1.09897
 H1390 H 0.31248 0.56023 1.11590
 O1391 O 0.62833 0.48378 1.08234
 O1392 O 0.65884 0.48527 1.10916
 C1393 C 0.64915 0.47599 1.09014
 C1394 C 0.66169 0.45556 1.07713
 C1395 C 0.68574 0.44763 1.08371
 H1396 H 0.69576 0.45702 1.09808
 O1397 O 0.59053 0.38322 1.02550
 O1398 O 0.61978 0.35486 1.02570
 C1399 C 0.59991 0.36394 1.03455
 C1400 C 0.58749 0.35231 1.05566
 C1401 C 0.59500 0.32912 1.06417
 H1402 H 0.60980 0.31937 1.05496
 O1403 O 0.40770 0.62083 1.02441
 O1404 O 0.37811 0.64885 1.02458
 C1405 C 0.39877 0.64077 1.03254
 C1406 C 0.41210 0.65453 1.05183
 C1407 C 0.40263 0.67698 1.06009
 H1408 H 0.38599 0.68454 1.05184
 O1409 O 0.41266 0.48304 1.12646
 O1410 O 0.38462 0.48362 1.15564
 C1411 C 0.40467 0.47523 1.14667
 C1412 C 0.41839 0.45577 1.15968
 C1413 C 0.40918 0.44679 1.18164
 H1414 H 0.39252 0.45481 1.18942
 O1415 O 0.59428 0.53221 1.11513
 O1416 O 0.62451 0.53361 1.14228
 C1417 C 0.60366 0.54127 1.13440
 C1418 C 0.59041 0.56109 1.14765
 C1419 C 0.59966 0.56971 1.16993
 H1420 H 0.61623 0.56146 1.17765
 O1421 O 0.47879 0.38529 1.09621
 O1422 O 0.48084 0.35806 1.12556
 C1423 C 0.47106 0.36571 1.10595
 C1424 C 0.44985 0.35246 1.09467
 C1425 C 0.43992 0.33119 1.10530
 H1426 H 0.44835 0.32360 1.12150
 O1427 O 0.52353 0.62707 1.08543
 O1428 O 0.52440 0.65695 1.11254
 C1429 C 0.53200 0.64751 1.09270
 C1430 C 0.55125 0.66006 1.07812
 C1431 C 0.55979 0.68345 1.08482
 H1432 H 0.55143 0.69275 1.10019
 O1433 O 0.37607 0.41422 1.03264
 O1434 O 0.34703 0.38596 1.03492
 C1435 C 0.35599 0.40630 1.04180
 C1436 C 0.34335 0.42060 1.06109
 C1437 C 0.31979 0.41367 1.06956
 H1438 H 0.31034 0.39845 1.06098
 O1439 O 0.62013 0.59394 1.01604
 O1440 O 0.64829 0.62297 1.01313
 C1441 C 0.64063 0.60337 1.02278
 C1442 C 0.65530 0.59185 1.04253
 C1443 C 0.67758 0.60245 1.05068
 H1444 H 0.68458 0.61867 1.04182
 O1445 O 0.52592 0.59447 1.11927
 O1446 O 0.52707 0.62403 1.14672
 C1447 C 0.53547 0.60392 1.13824
 C1448 C 0.55701 0.59159 1.14993
 C1449 C 0.56654 0.59985 1.17241
 H1450 H 0.55775 0.61514 1.18159
 O1451 O 0.47977 0.42044 1.12800
 O1452 O 0.48200 0.39332 1.15743
 C1453 C 0.47237 0.41248 1.14840
 C1454 C 0.45160 0.42516 1.16102
 C1455 C 0.44205 0.41640 1.18320
 H1456 H 0.45056 0.40067 1.19175
 O1457 O 0.62712 0.53165 1.08079
 O1458 O 0.65745 0.53328 1.10779
 C1459 C 0.64742 0.54087 1.08828
 C1460 C 0.65883 0.56120 1.07455
 C1461 C 0.68115 0.57207 1.08245
 H1462 H 0.69042 0.56498 1.09841
 O1463 O 0.37768 0.48174 1.09406
 O1464 O 0.34955 0.48270 1.12316
 C1465 C 0.35773 0.47379 1.10333
 C1466 C 0.34423 0.45364 1.09114
 C1467 C 0.32067 0.44657 1.09930
 H1468 H 0.31197 0.45643 1.11420
 O1469 O 0.58423 0.62565 1.01696
 O1470 O 0.61231 0.65476 1.01409
 C1471 C 0.59296 0.64604 1.02401
 C1472 C 0.58084 0.65937 1.04438
 C1473 C 0.58898 0.68276 1.05128
 H1474 H 0.60370 0.69149 1.04114
 O1475 O 0.41172 0.38224 1.03383
 O1476 O 0.38269 0.35402 1.03639
 C1477 C 0.40311 0.36316 1.04369
 C1478 C 0.41651 0.35177 1.06428
 C1479 C 0.40671 0.33099 1.07538
 H1480 H 0.38978 0.32289 1.06831
 O1481 O 0.59527 0.48463 1.11661
 O1482 O 0.62563 0.48603 1.14361
 C1483 C 0.60504 0.47726 1.13631
 C1484 C 0.59254 0.45812 1.15079
 C1485 C 0.60257 0.45088 1.17320
 H1486 H 0.61922 0.45963 1.18013
 O1487 O 0.41251 0.53063 1.12475
 O1488 O 0.38492 0.53112 1.15435
 C1489 C 0.40474 0.53921 1.14485
 C1490 C 0.41868 0.55900 1.15717
 C1491 C 0.41276 0.56585 1.18102
 H1492 H 0.39836 0.55612 1.19069
 O1493 O 0.47523 0.62566 1.08707
 O1494 O 0.47570 0.65552 1.11422
 C1495 C 0.46657 0.64575 1.09511
 C1496 C 0.44523 0.65732 1.08235
 C1497 C 0.43557 0.68002 1.09013
 H1498 H 0.44411 0.68954 1.10531
 O1499 O 0.52710 0.38714 1.09256
 O1500 O 0.52924 0.35978 1.12179
 C1501 C 0.53639 0.36770 1.10126
 C1502 C 0.55601 0.35428 1.08774
 C1503 C 0.56351 0.33111 1.09560
 H1504 H 0.55434 0.32291 1.11106
 O1505 O 0.62437 0.41659 1.02106
 O1506 O 0.65386 0.38847 1.02069
 C1507 C 0.64537 0.40880 1.02833
 C1508 C 0.65977 0.42312 1.04638
 C1509 C 0.68393 0.41592 1.05269
 H1510 H 0.69250 0.40048 1.04345
 O1511 O 0.37262 0.58860 1.02639
 O1512 O 0.34312 0.61673 1.02619
 C1513 C 0.35257 0.59746 1.03501
 C1514 C 0.34060 0.58595 1.05615
 C1515 C 0.31873 0.59596 1.06585
 H1516 H 0.30995 0.61147 1.05707
 Cu1517 Cu 0.50321 0.40635 1.10763
 Cu1518 Cu 0.50610 0.37370 1.14281
 Cu1519 Cu 0.50044 0.60754 1.10093
 Cu1520 Cu 0.50148 0.64320 1.13361
 Cu1521 Cu 0.39611 0.39932 1.00929
 Cu1522 Cu 0.36137 0.36535 1.01228
 Cu1523 Cu 0.60288 0.40093 0.99968
 Cu1524 Cu 0.63815 0.36711 0.99957
 Cu1525 Cu 0.39228 0.60108 1.00158
 Cu1526 Cu 0.35683 0.63478 1.00179
 Cu1527 Cu 0.59773 0.60588 0.99307
 Cu1528 Cu 0.63162 0.64057 0.98957
 Cu1529 Cu 0.39749 0.50616 1.10677
 Cu1530 Cu 0.36408 0.50700 1.14209
 Cu1531 Cu 0.60833 0.50788 1.09591
 Cu1532 Cu 0.64466 0.50968 1.12840
 C1533 C 0.57102 0.44648 1.14202
 H1534 H 0.56341 0.45171 1.12455
 C1535 C 0.59142 0.43242 1.18689
 C1536 C 0.43761 0.57147 1.14501
 H1537 H 0.44222 0.56617 1.12654
 C1538 C 0.42484 0.58543 1.19252
 C1539 C 0.35200 0.56625 1.06795
 H1540 H 0.36918 0.55883 1.06075
 C1541 C 0.30824 0.58661 1.08710
 C1542 C 0.64895 0.44317 1.05841
 H1543 H 0.63021 0.44869 1.05364
 C1544 C 0.69695 0.42780 1.07140
 C1545 C 0.56791 0.36467 1.06760
 H1546 H 0.56221 0.38265 1.06152
 C1547 C 0.58292 0.31842 1.08416
 C1548 C 0.43351 0.64490 1.06294
 H1549 H 0.44063 0.62732 1.05692
 C1550 C 0.41425 0.68990 1.07897
 C1551 C 0.43976 0.44506 1.14963
 H1552 H 0.44666 0.45170 1.13242
 C1553 C 0.42072 0.42721 1.19353
 C1554 C 0.56894 0.57199 1.13788
 H1555 H 0.56192 0.56563 1.12047
 C1556 C 0.58783 0.58881 1.18255
 C1557 C 0.43817 0.36231 1.07393
 H1558 H 0.44546 0.37874 1.06572
 C1559 C 0.41820 0.32055 1.09568
 C1560 C 0.56183 0.64825 1.05781
 H1561 H 0.55564 0.63008 1.05276
 C1562 C 0.57879 0.69484 1.07155
 C1563 C 0.35532 0.44070 1.07188
 H1564 H 0.37365 0.44588 1.06572
 C1565 C 0.30841 0.42652 1.08880
 C1566 C 0.64628 0.57106 1.05439
 H1567 H 0.62890 0.56305 1.04843
 C1568 C 0.69071 0.59272 1.07052
 C1569 C 1.13710 1.13851 1.32578
 C1570 C 1.14992 1.12813 1.30628
 C1571 C 1.13647 1.11748 1.28534
 N1572 N 1.14921 1.10802 1.26619
 N1573 N 1.13717 1.09977 1.24657
 C1574 C 1.11195 1.10083 1.24530
 N1575 N 1.09923 1.11022 1.26447
 N1576 N 1.11125 1.11838 1.28410
 C1577 C 1.09837 1.09251 1.22347
 C1578 C 1.11028 1.08024 1.20450
 H1579 H 1.16992 1.12988 1.30530
 H1580 H 1.07850 1.09559 1.22272
 H1581 H 1.11700 1.13733 1.32595
 H1582 H 1.12979 1.07569 1.20649
 C1583 C 1.11398 0.62130 0.84463
 C1584 C 1.12508 0.60920 0.82508
 C1585 C 1.11214 0.60453 0.80197
 N1586 N 1.12468 0.59362 0.78351
 N1587 N 1.11366 0.58966 0.76217
 C1588 C 1.08968 0.59650 0.75840
 N1589 N 1.07708 0.60744 0.77688
 N1590 N 1.08812 0.61142 0.79829
 C1591 C 1.07750 0.59185 0.73478
 C1592 C 1.09014 0.57945 0.71631
 H1593 H 1.14451 0.60412 0.82614
 H1594 H 1.05831 0.59734 0.73237
 H1595 H 1.09484 0.62732 0.84302
 H1596 H 1.10896 0.57329 0.71987
 C1597 C 0.65050 1.14011 0.82498
 C1598 C 0.62693 1.13818 0.81449
 C1599 C 0.62213 1.12458 0.79173
 N1600 N 0.59879 1.12418 0.78237
 N1601 N 0.59406 1.11265 0.76147
 C1602 C 0.61248 1.10101 0.74907
 N1603 N 0.63583 1.10123 0.75851
 N1604 N 0.64058 1.11281 0.77945
 C1605 C 0.60750 1.08909 0.72536
 C1606 C 0.58435 1.09130 0.71401
 H1607 H 0.61128 1.14711 0.82317
 H1608 H 0.62267 1.07991 0.71616
 H1609 H 0.66585 1.13011 0.81689
 H1610 H 0.57000 1.10179 0.72316
 C1611 C 0.62200 0.63730 1.33494
 C1612 C 0.63362 0.62639 1.31499
 C1613 C 0.62095 0.62211 1.29163
 N1614 N 0.63388 0.61219 1.27287
 N1615 N 0.62292 0.60812 1.25151
 C1616 C 0.59859 0.61384 1.24802
 N1617 N 0.58562 0.62384 1.26678
 N1618 N 0.59661 0.62793 1.28820
 C1619 C 0.58630 0.60874 1.22452
 C1620 C 0.59914 0.59701 1.20574
 H1621 H 0.65310 0.62150 1.31616
 H1622 H 0.56679 0.61314 1.22255
 H1623 H 0.60289 0.64339 1.33324
 H1624 H 0.61837 0.59189 1.20883
 C1625 C 0.86379 0.86443 1.32405
 C1626 C 0.88206 0.85565 1.30831
 C1627 C 0.89002 0.86980 1.28706
 N1628 N 0.90596 0.85968 1.27078
 N1629 N 0.91251 0.87187 1.25093
 C1630 C 0.90337 0.89465 1.24659
 N1631 N 0.88758 0.90485 1.26296
 N1632 N 0.88101 0.89264 1.28281
 C1633 C 0.90996 0.90798 1.22433
 C1634 C 0.92541 0.89742 1.20683
 H1635 H 0.88951 0.83739 1.31059
 H1636 H 0.90245 0.92617 1.22193
 H1637 H 0.85566 0.88225 1.32056
 H1638 H 0.93313 0.87948 1.21050
 C1639 C 0.85563 0.34399 0.82736
 C1640 C 0.85722 0.36731 0.81722
 C1641 C 0.86945 0.37193 0.79363
 N1642 N 0.86979 0.39493 0.78452
 N1643 N 0.88081 0.39954 0.76336
 C1644 C 0.89203 0.38134 0.75044
 N1645 N 0.89178 0.35831 0.75959
 N1646 N 0.88070 0.35369 0.78076
 C1647 C 0.90394 0.38625 0.72670
 C1648 C 0.90215 0.40919 0.71573
 H1649 H 0.84973 0.38286 0.82709
 H1650 H 0.91312 0.37130 0.71732
 H1651 H 0.86364 0.32868 0.81750
 H1652 H 0.89166 0.42334 0.72507
 C1653 C 0.37807 0.86228 0.82543
 C1654 C 0.37362 0.88426 0.81347
 C1655 C 0.38623 0.89021 0.79066
 N1656 N 0.38159 0.91186 0.77962
 N1657 N 0.39210 0.91702 0.75838
 C1658 C 0.40760 0.90069 0.74741
 N1659 N 0.41234 0.87910 0.75852
 N1660 N 0.40185 0.87396 0.77977
 C1661 C 0.41840 0.90559 0.72347
 C1662 C 0.41353 0.92730 0.71114
 H1663 H 0.36027 0.89724 0.82070
 H1664 H 0.42924 0.89114 0.71514
 H1665 H 0.39267 0.85026 0.81882
 H1666 H 0.40182 0.94093 0.71984
 C1667 C 0.37487 0.36808 1.33821
 C1668 C 0.36476 0.37947 1.31783
 C1669 C 0.37951 0.38567 1.29625
 N1670 N 0.36813 0.39665 1.27720
 N1671 N 0.38091 0.40237 1.25738
 C1672 C 0.40559 0.39730 1.25574
 N1673 N 0.41701 0.38619 1.27478
 N1674 N 0.40419 0.38047 1.29469
 C1675 C 0.41973 0.40416 1.23385
 C1676 C 0.40837 0.41787 1.21559
 H1677 H 0.34502 0.38330 1.31722
 H1678 H 0.43921 0.39932 1.23268
 H1679 H 0.39445 0.36338 1.33829
 H1680 H 0.38917 0.42332 1.21814
 C1681 C 0.85256 1.16071 0.68732
 C1682 C 0.84485 1.14311 0.70391
 C1683 C 0.86102 1.13414 0.72361
 N1684 N 0.85232 1.11702 0.73910
 N1685 N 0.86643 1.10891 0.75728
 C1686 C 0.88980 1.11760 0.76075
 N1687 N 0.89855 1.13474 0.74524
 N1688 N 0.88442 1.14286 0.72700
 C1689 C 0.90534 1.10880 0.78110
 C1690 C 0.89674 1.09054 0.79655
 H1691 H 0.82612 1.13605 0.70300
 H1692 H 0.92356 1.11670 0.78361
 H1693 H 0.87106 1.16817 0.68928
 H1694 H 0.87869 1.08270 0.79263
 C1695 C 0.86406 0.64855 0.17680
 C1696 C 0.85741 0.62876 0.19119
 C1697 C 0.87175 0.62250 0.21314
 N1698 N 0.86591 0.60227 0.22599
 N1699 N 0.87838 0.59676 0.24619
 C1700 C 0.89712 0.61131 0.25436
 N1701 N 0.90296 0.63156 0.24151
 N1702 N 0.89054 0.63702 0.22125
 C1703 C 0.91032 0.60583 0.27720
 C1704 C 0.90540 0.58442 0.28988
 H1705 H 0.84110 0.61804 0.18694
 H1706 H 0.92308 0.61931 0.28436
 H1707 H 0.88029 0.65906 0.18206
 H1708 H 0.89241 0.57157 0.28186
 C1709 C 0.36478 1.13514 0.16865
 C1710 C 0.37617 1.14489 0.18934
 C1711 C 0.38191 1.13041 0.21111
 N1712 N 0.39369 1.14133 0.23006
 N1713 N 0.39920 1.12875 0.25000
 C1714 C 0.39309 1.10475 0.25185
 N1715 N 0.38112 1.09381 0.23293
 N1716 N 0.37564 1.10642 0.21290
 C1717 C 0.39976 1.09077 0.27381
 C1718 C 0.41512 1.10110 0.29157
 H1719 H 0.38070 1.16417 0.18991
 H1720 H 0.39355 1.07205 0.27538
 H1721 H 0.35947 1.11605 0.16848
 H1722 H 0.42219 1.11937 0.28856
 C1723 C 0.36357 0.64491 0.66908
 C1724 C 0.35289 0.63135 0.68781
 C1725 C 0.36637 0.62347 0.70975
 N1726 N 0.35445 0.60958 0.72638
 N1727 N 0.36619 0.60180 0.74625
 C1728 C 0.39036 0.60760 0.75026
 N1729 N 0.40231 0.62157 0.73365
 N1730 N 0.39056 0.62934 0.71372
 C1731 C 0.40349 0.59918 0.77228
 C1732 C 0.39223 0.58367 0.78911
 H1733 H 0.33360 0.62596 0.68633
 H1734 H 0.42246 0.60508 0.77488
 H1735 H 0.38246 0.65142 0.67108
 H1736 H 0.37379 0.57682 0.78510
 C1737 C 1.12788 0.86238 0.65918
 C1738 C 1.13791 0.87382 0.67965
 C1739 C 1.12351 0.87878 0.70182
 N1740 N 1.13506 0.88900 0.72127
 N1741 N 1.12261 0.89355 0.74167
 C1742 C 1.09810 0.88803 0.74349
 N1743 N 1.08649 0.87771 0.72403
 N1744 N 1.09898 0.87314 0.70355
 C1745 C 1.08428 0.89378 0.76598
 C1746 C 1.09602 0.90617 0.78503
 H1747 H 1.15748 0.87837 0.67992
 H1748 H 1.06470 0.88947 0.76696
 H1749 H 1.10859 0.85678 0.65939
 H1750 H 1.11537 0.91108 0.78285
 C1751 C 1.15118 0.35339 0.18411
 C1752 C 1.12719 0.35682 0.19295
 C1753 C 1.12205 0.37187 0.21468
 N1754 N 1.09823 0.37565 0.22176
 N1755 N 1.09322 0.38902 0.24149
 C1756 C 1.11182 0.39918 0.25489
 N1757 N 1.13566 0.39548 0.24775
 N1758 N 1.14068 0.38211 0.22798
 C1759 C 1.10642 0.41286 0.27749
 C1760 C 1.08218 0.41502 0.28610
 H1761 H 1.11162 0.34889 0.18323
 H1762 H 1.12183 0.41946 0.28837
 H1763 H 1.16651 0.36243 0.19324
 H1764 H 1.06723 0.40728 0.27531
 C1765 C 0.65351 0.85924 0.17752
 C1766 C 0.62985 0.86294 0.18716
 C1767 C 0.62552 0.87727 0.20953
 N1768 N 0.60200 0.88037 0.21777
 N1769 N 0.59768 0.89279 0.23825
 C1770 C 0.61670 0.90263 0.25129
 N1771 N 0.64025 0.89967 0.24297
 N1772 N 0.64458 0.88724 0.22245
 C1773 C 0.61208 0.91531 0.27463
 C1774 C 0.58829 0.91622 0.28461
 H1775 H 0.61386 0.85529 0.17789
 H1776 H 0.62781 0.92231 0.28479
 H1777 H 0.66927 0.86797 0.18623
 H1778 H 0.57314 0.90797 0.27449
 C1779 C 0.62448 0.37660 0.66580
 C1780 C 0.60701 0.36717 0.68180
 C1781 C 0.59933 0.38081 0.70364
 N1782 N 0.58561 0.36953 0.72084
 N1783 N 0.58008 0.38102 0.74155
 C1784 C 0.58806 0.40420 0.74587
 N1785 N 0.60150 0.41563 0.72852
 N1786 N 0.60708 0.40412 0.70780
 C1787 C 0.58298 0.41655 0.76918
 C1788 C 0.57109 0.40424 0.78793
 H1789 H 0.60080 0.34845 0.67976
 H1790 H 0.58883 0.43533 0.77145
 H1791 H 0.63144 0.39493 0.66898
 H1792 H 0.56485 0.38571 0.78454
 C1793 C 1.33798 1.14382 1.13235
 C1794 C 1.31778 1.13032 1.14061
 C1795 C 1.29646 1.12371 1.12512
 N1796 N 1.27808 1.10987 1.13457
 N1797 N 1.25865 1.10336 1.12102
 C1798 C 1.25675 1.11045 1.09745
 N1799 N 1.27508 1.12447 1.08798
 N1800 N 1.29460 1.13097 1.10156
 C1801 C 1.23534 1.10272 1.08239
 C1802 C 1.21842 1.08572 1.09130
 H1803 H 1.31729 1.12451 1.15938
 H1804 H 1.23354 1.10973 1.06411
 H1805 H 1.33780 1.15059 1.11387
 H1806 H 1.22183 1.07823 1.10922
 C1807 C 1.33032 0.63443 0.63930
 C1808 C 1.30855 0.64332 0.62881
 C1809 C 1.28698 0.62767 0.62364
 N1810 N 1.26588 0.63794 0.61485
 N1811 N 1.24600 0.62427 0.61025
 C1812 C 1.24635 0.59977 0.61430
 N1813 N 1.26747 0.58945 0.62318
 N1814 N 1.28741 0.60316 0.62782
 C1815 C 1.22450 0.58460 0.60827
 C1816 C 1.20380 0.59517 0.59721
 H1817 H 1.30672 0.66275 0.62544
 H1818 H 1.22539 0.56502 0.61102
 H1819 H 1.33164 0.61519 0.64374
 H1820 H 1.20404 0.61467 0.59379
 C1821 C 0.81200 1.16114 0.66380
 C1822 C 0.80942 1.13735 0.65502
 C1823 C 0.78721 1.12976 0.64132
 N1824 N 0.78478 1.10623 0.63372
 N1825 N 0.76531 1.09948 0.62027
 C1826 C 0.74770 1.11608 0.61370
 N1827 N 0.75018 1.13961 0.62122
 N1828 N 0.76957 1.14632 0.63477
 C1829 C 0.72596 1.10893 0.59910
 C1830 C 0.71975 1.08450 0.59540
 H1831 H 0.82493 1.12474 0.65631
 H1832 H 0.71351 1.12319 0.59285
 H1833 H 0.79669 1.17387 0.66156
 H1834 H 0.73115 1.07038 0.60361
 C1835 C 0.83137 0.64173 1.14440
 C1836 C 0.81179 0.65172 1.13096
 C1837 C 0.79146 0.63675 1.12082
 N1838 N 0.77328 0.64758 1.10750
 N1839 N 0.75432 0.63455 1.09880
 C1840 C 0.75276 0.61016 1.10313
 N1841 N 0.77096 0.59931 1.11644
 N1842 N 0.78996 0.61234 1.12511
 C1843 C 0.73149 0.59566 1.09414
 C1844 C 0.71320 0.60585 1.07917
 H1845 H 0.81076 0.67133 1.12850
 H1846 H 0.73051 0.57664 1.09931
 H1847 H 0.83206 0.62212 1.14687
 H1848 H 0.71566 0.62448 1.07304
 C1849 C 1.33941 0.86410 0.85017
 C1850 C 1.32987 0.86868 0.87327
 C1851 C 1.30559 0.88071 0.87679
 N1852 N 1.29678 0.88445 0.89960
 N1853 N 1.27487 0.89532 0.90306
 C1854 C 1.26096 0.90300 0.88387
 N1855 N 1.26985 0.89942 0.86105
 N1856 N 1.29176 0.88850 0.85758
 C1857 C 1.23617 0.91402 0.88754
 C1858 C 1.22513 0.91419 0.91042
 H1859 H 1.34083 0.86405 0.88915
 H1860 H 1.22577 0.92013 0.87181
 H1861 H 1.32864 0.86951 0.83441
 H1862 H 1.23537 0.90654 0.92559
 C1863 C 1.33777 0.37446 0.36471
 C1864 C 1.31733 0.36370 0.37589
 C1865 C 1.29436 0.37721 0.38165
 N1866 N 1.27534 0.36530 0.39242
 N1867 N 1.25434 0.37703 0.39784
 C1868 C 1.25148 0.40114 0.39268
 N1869 N 1.27050 0.41309 0.38182
 N1870 N 1.29157 0.40134 0.37640
 C1871 C 1.22833 0.41423 0.39906
 C1872 C 1.20950 0.40254 0.41189
 H1873 H 1.31784 0.34438 0.38007
 H1874 H 1.22666 0.43337 0.39443
 H1875 H 1.33669 0.39352 0.35954
 H1876 H 1.21246 0.38369 0.41721
 C1877 C 0.82788 0.85574 0.34923
 C1878 C 0.82039 0.85891 0.37327
 C1879 C 0.79652 0.87084 0.37921
 N1880 N 0.78964 0.87402 0.40274
 N1881 N 0.76849 0.88555 0.40821
 C1882 C 0.75351 0.89447 0.39036
 N1883 N 0.76042 0.89132 0.36686
 N1884 N 0.78151 0.87974 0.36139
 C1885 C 0.72998 0.90709 0.39603
 C1886 C 0.72053 0.90802 0.41958
 H1887 H 0.83293 0.85409 0.38793
 H1888 H 0.71924 0.91447 0.38109
 H1889 H 0.81554 0.86173 0.33481
 H1890 H 0.73073 0.89899 0.43401
 C1891 C 0.82810 0.35616 0.86293
 C1892 C 0.80611 0.36360 0.85175
 C1893 C 0.78496 0.37310 0.86608
 N1894 N 0.76373 0.38015 0.85471
 N1895 N 0.74407 0.38753 0.86756
 C1896 C 0.74480 0.38795 0.89229
 N1897 N 0.76602 0.38087 0.90366
 N1898 N 0.78570 0.37358 0.89081
 C1899 C 0.72311 0.39594 0.90672
 C1900 C 0.70248 0.40675 0.89573
 H1901 H 0.80355 0.36035 0.83245
 H1902 H 0.72396 0.39437 0.92633
 H1903 H 0.82995 0.35863 0.88243
 H1904 H 0.70289 0.40970 0.87627
 C1905 C 0.67957 0.84934 1.14144
 C1906 C 0.68987 0.87255 1.13910
 C1907 C 0.71242 0.87702 1.12482
 N1908 N 0.72158 0.90002 1.12344
 N1909 N 0.74233 0.90441 1.11114
 C1910 C 0.75472 0.88597 1.09969
 N1911 N 0.74546 0.86296 1.10090
 N1912 N 0.72468 0.85856 1.11324
 C1913 C 0.77837 0.89056 1.08711
 C1914 C 0.78961 0.91347 1.08831
 H1915 H 0.68103 0.88805 1.14793
 H1916 H 0.78779 0.87532 1.07844
 H1917 H 0.68781 0.83411 1.13162
 H1918 H 0.78030 0.92800 1.09827
 C1919 C 0.66225 0.36771 0.64326
 C1920 C 0.67203 0.36814 0.61987
 C1921 C 0.69660 0.37888 0.61519
 N1922 N 0.70541 0.38012 0.59215
 N1923 N 0.72736 0.39038 0.58775
 C1924 C 0.74125 0.39988 0.60621
 N1925 N 0.73242 0.39864 0.62923
 N1926 N 0.71051 0.38837 0.63362
 C1927 C 0.76570 0.41089 0.60170
 C1928 C 0.77636 0.41047 0.57866
 H1929 H 0.66092 0.36180 0.60464
 H1930 H 0.77600 0.41811 0.61707
 H1931 H 0.67310 0.37534 0.65810
 H1932 H 0.76626 0.40182 0.56387
 C1933 C 0.16344 0.87105 0.63176
 C1934 C 0.18498 0.86179 0.62105
 C1935 C 0.20689 0.87701 0.61603
 N1936 N 0.22748 0.86639 0.60646
 N1937 N 0.24759 0.87963 0.60183
 C1938 C 0.24801 0.90405 0.60661
 N1939 N 0.22742 0.91472 0.61627
 N1940 N 0.20724 0.90143 0.62093
 C1941 C 0.27014 0.91879 0.60064
 C1942 C 0.29023 0.90802 0.58863
 H1943 H 0.18633 0.84240 0.61710
 H1944 H 0.26997 0.93826 0.60435
 H1945 H 0.16270 0.89025 0.63675
 H1946 H 0.28918 0.88868 0.58428
 C1947 C 0.17763 0.34617 1.14786
 C1948 C 0.18620 0.37016 1.14638
 C1949 C 0.20870 0.37672 1.13289
 N1950 N 0.21633 0.40033 1.13268
 N1951 N 0.23702 0.40658 1.12110
 C1952 C 0.25086 0.38945 1.10927
 N1953 N 0.24316 0.36584 1.10935
 N1954 N 0.22246 0.35958 1.12096
 C1955 C 0.27421 0.39600 1.09713
 C1956 C 0.28384 0.41964 1.09854
 H1957 H 0.17612 0.38470 1.15554
 H1958 H 0.28455 0.38153 1.08820
 H1959 H 0.18711 0.33186 1.13776
 H1960 H 0.27377 0.43338 1.10888
 C1961 C 0.67686 1.14994 0.86113
 C1962 C 0.68606 1.12638 0.86482
 C1963 C 0.70807 1.12138 0.88001
 N1964 N 0.71539 1.09793 0.88362
 N1965 N 0.73554 1.09297 0.89682
 C1966 C 0.74919 1.11126 0.90699
 N1967 N 0.74179 1.13475 0.90350
 N1968 N 0.72158 1.13973 0.89029
 C1969 C 0.77241 1.10585 0.92034
 C1970 C 0.78139 1.08194 0.92191
 H1971 H 0.67653 1.11096 0.85663
 H1972 H 0.78351 1.12094 0.92705
 H1973 H 0.68564 1.16517 0.87043
 H1974 H 0.77037 1.06732 0.91406
 C1975 C 0.65592 0.62756 0.36451
 C1976 C 0.67557 0.63692 0.37824
 C1977 C 0.69782 0.62259 0.38442
 N1978 N 0.71607 0.63328 0.39769
 N1979 N 0.73663 0.62095 0.40328
 C1980 C 0.73980 0.59742 0.39578
 N1981 N 0.72153 0.58667 0.38245
 N1982 N 0.70089 0.59904 0.37685
 C1983 C 0.76263 0.58384 0.40205
 C1984 C 0.78061 0.59447 0.41704
 H1985 H 0.67518 0.65589 0.38399
 H1986 H 0.76484 0.56532 0.39534
 H1987 H 0.65689 0.60885 0.35795
 H1988 H 0.77700 0.61262 0.42428
 C1989 C 0.17298 1.15190 0.35275
 C1990 C 0.18247 1.12876 0.35801
 C1991 C 0.20607 1.12533 0.37135
 N1992 N 0.21433 1.10240 0.37619
 N1993 N 0.23550 1.09893 0.38834
 C1994 C 0.24924 1.11825 0.39623
 N1995 N 0.24093 1.14121 0.39148
 N1996 N 0.21974 1.14469 0.37930
 C1997 C 0.27322 1.11450 0.40892
 C1998 C 0.28345 1.09115 0.41131
 H1999 H 0.17187 1.11269 0.35304
 H2000 H 0.28369 1.13036 0.41477
 H2001 H 0.18333 1.16787 0.35858
 H2002 H 0.27314 1.07574 0.40406
 C2003 C 0.14925 0.61430 0.87337
 C2004 C 0.16996 0.62518 0.88411
 C2005 C 0.19306 0.61180 0.88934
 N2006 N 0.21244 0.62402 0.89933
 N2007 N 0.23376 0.61256 0.90388
 C2008 C 0.23662 0.58841 0.89858
 N2009 N 0.21722 0.57612 0.88852
 N2010 N 0.19581 0.58762 0.88395
 C2011 C 0.26022 0.57576 0.90402
 C2012 C 0.27919 0.58805 0.91630
 H2013 H 0.16982 0.64466 0.88779
 H2014 H 0.26217 0.55661 0.89928
 H2015 H 0.14989 0.59501 0.86877
 H2016 H 0.27597 0.60686 0.92182
 C2017 C 1.14189 1.31845 1.15609
 C2018 C 1.14067 1.30908 1.13243
 C2019 C 1.12795 1.28608 1.12622
 N2020 N 1.12827 1.27783 1.10291
 N2021 N 1.11761 1.25667 1.09694
 C2022 C 1.10621 1.24292 1.11407
 N2023 N 1.10574 1.25125 1.13739
 N2024 N 1.11643 1.27243 1.14338
 C2025 C 1.09507 1.21910 1.10778
 C2026 C 1.09720 1.20903 1.08445
 H2027 H 1.14969 1.31878 1.11782
 H2028 H 1.08623 1.20893 1.12216
 H2029 H 1.13171 1.30941 1.17042
 H2030 H 1.10740 1.21914 1.07087
 C2031 C 1.13753 0.83356 0.62509
 C2032 C 1.12549 0.81376 0.63575
 C2033 C 1.11917 0.79112 0.62256
 N2034 N 1.10715 0.77309 0.63449
 N2035 N 1.10095 0.75245 0.62307
 C2036 C 1.10654 0.74900 0.59922
 N2037 N 1.11866 0.76702 0.58724
 N2038 N 1.12486 0.78774 0.59869
 C2039 C 1.09944 0.72622 0.58649
 C2040 C 1.08539 0.70835 0.59814
 H2041 H 1.12062 0.81467 0.65483
 H2042 H 1.10474 0.72399 0.56764
 H2043 H 1.14352 0.83214 0.60634
 H2044 H 1.07937 0.71193 0.61662
 C2045 C 0.62433 1.34102 0.63693
 C2046 C 0.63710 1.32006 0.62939
 C2047 C 0.62419 1.29764 0.62147
 N2048 N 0.63760 1.27812 0.61354
 N2049 N 0.62632 1.25747 0.60687
 C2050 C 0.60118 1.25549 0.60799
 N2051 N 0.58776 1.27500 0.61599
 N2052 N 0.59904 1.29569 0.62259
 C2053 C 0.58855 1.23267 0.60065
 C2054 C 0.60152 1.21351 0.58953
 H2055 H 0.65719 1.31962 0.63033
 H2056 H 0.56866 1.23145 0.60315
 H2057 H 0.60420 1.34099 0.63648
 H2058 H 0.62110 1.21597 0.58575
 C2059 C 0.64181 0.82468 1.14985
 C2060 C 0.63927 0.81590 1.12608
 C2061 C 0.62495 0.79385 1.11992
 N2062 N 0.62397 0.78603 1.09648
 N2063 N 0.61189 0.76561 1.09056
 C2064 C 0.60033 0.75223 1.10787
 N2065 N 0.60115 0.76015 1.13132
 N2066 N 0.61325 0.78058 1.13725
 C2067 C 0.58780 0.72910 1.10167
 C2068 C 0.58864 0.71925 1.07818
 H2069 H 0.64847 0.82531 1.11138
 H2070 H 0.57914 0.71909 1.11626
 H2071 H 0.63153 0.81604 1.16433
 H2072 H 0.59871 0.72908 1.06430
 C2073 C 0.85027 1.31740 0.86397
 C2074 C 0.87307 1.30534 0.86262
 C2075 C 0.87851 1.28362 0.87746
 N2076 N 0.90180 1.27410 0.87774
 N2077 N 0.90701 1.25446 0.89105
 C2078 C 0.88915 1.24357 0.90461
 N2079 N 0.86584 1.25308 0.90432
 N2080 N 0.86064 1.27278 0.89105
 C2081 C 0.89457 1.22112 0.91845
 C2082 C 0.91836 1.21098 0.91855
 H2083 H 0.88766 1.31257 0.85125
 H2084 H 0.87934 1.21164 0.92701
 H2085 H 0.83654 1.31091 0.87678
 H2086 H 0.93303 1.22062 0.90919
 C2087 C 0.86707 0.83036 0.35428
 C2088 C 0.85568 0.81023 0.36499
 C2089 C 0.86994 0.78911 0.37422
 N2090 N 0.85792 0.77064 0.38554
 N2091 N 0.87039 0.75116 0.39352
 C2092 C 0.89537 0.74931 0.39041
 N2093 N 0.90740 0.76775 0.37902
 N2094 N 0.89494 0.78730 0.37110
 C2095 C 0.90930 0.72766 0.39898
 C2096 C 0.89803 0.70978 0.41319
 H2097 H 0.83561 0.80945 0.36593
 H2098 H 0.92884 0.72626 0.39460
 H2099 H 0.88715 0.83068 0.35311
 H2100 H 0.87889 0.71262 0.41864
 C2101 C 0.36692 1.33973 0.37270
 C2102 C 0.38036 1.32022 0.36281
 C2103 C 0.38669 1.29813 0.37667
 N2104 N 0.39986 1.28000 0.36571
 N2105 N 0.40562 1.25969 0.37773
 C2106 C 0.39841 1.25667 0.40117
 N2107 N 0.38519 1.27481 0.41216
 N2108 N 0.37943 1.29518 0.40013
 C2109 C 0.40480 1.23417 0.41448
 C2110 C 0.41976 1.21615 0.40385
 H2111 H 0.38585 1.32071 0.34390
 H2112 H 0.39817 1.23221 0.43291
 H2113 H 0.36063 1.33865 0.39136
 H2114 H 0.42708 1.21947 0.38583
 C2115 C 0.37534 0.83629 0.86124
 C2116 C 0.36161 0.81686 0.87037
 C2117 C 0.37386 0.79440 0.87905
 N2118 N 0.36005 0.77570 0.88774
 N2119 N 0.37085 0.75480 0.89439
 C2120 C 0.39585 0.75175 0.89244
 N2121 N 0.40966 0.77045 0.88377
 N2122 N 0.39887 0.79137 0.87721
 C2123 C 0.40799 0.72862 0.89932
 C2124 C 0.39504 0.71021 0.91117
 H2125 H 0.34153 0.81721 0.86921
 H2126 H 0.42766 0.72650 0.89578
 H2127 H 0.39545 0.83520 0.86191
 H2128 H 0.37585 0.71351 0.91620
 C2129 C 1.12168 0.65073 0.87865
 C2130 C 1.11174 0.67095 0.86669
 C2131 C 1.10831 0.69485 0.87861
 N2132 N 1.09916 0.71379 0.86554
 N2133 N 1.09635 0.73577 0.87571
 C2134 C 1.10267 0.73970 0.89935
 N2135 N 1.11189 0.72075 0.91246
 N2136 N 1.11469 0.69871 0.90227
 C2137 C 1.09916 0.76395 0.91072
 C2138 C 1.08764 0.78285 0.89798
 H2139 H 1.10752 0.66969 0.84746
 H2140 H 1.10451 0.76646 0.92955
 H2141 H 1.12682 0.65244 0.89766
 H2142 H 1.08123 0.77929 0.87960
 C2143 C 1.13488 0.17750 0.34731
 C2144 C 1.13643 0.18969 0.36955
 C2145 C 1.12123 0.21142 0.37493
 N2146 N 1.12094 0.22079 0.39779
 N2147 N 1.10740 0.24056 0.40295
 C2148 C 1.09363 0.25173 0.38546
 N2149 N 1.09392 0.24236 0.36256
 N2150 N 1.10741 0.22251 0.35740
 C2151 C 1.07969 0.27433 0.39085
 C2152 C 1.07928 0.28399 0.41435
 H2153 H 1.14837 0.18259 0.38376
 H2154 H 1.07140 0.28427 0.37591
 H2155 H 1.12146 0.18373 0.33394
 H2156 H 1.08828 0.27378 0.42876
 C2157 C 0.62806 0.66341 0.37183
 C2158 C 0.61922 0.68496 0.36149
 C2159 C 0.61486 0.70743 0.37571
 N2160 N 0.60721 0.72791 0.36411
 N2161 N 0.60343 0.74860 0.37644
 C2162 C 0.60723 0.74969 0.40086
 N2163 N 0.61497 0.72920 0.41251
 N2164 N 0.61876 0.70844 0.40015
 C2165 C 0.60224 0.77249 0.41454
 C2166 C 0.59191 0.79266 0.40283
 H2167 H 0.61659 0.68585 0.34198
 H2168 H 0.60525 0.77284 0.43402
 H2169 H 0.63170 0.66293 0.39122
 H2170 H 0.58798 0.79122 0.38353
 C2171 C 0.63984 0.17571 0.85188
 C2172 C 0.63722 0.18488 0.87549
 C2173 C 0.62282 0.20710 0.88125
 N2174 N 0.62206 0.21540 0.90453
 N2175 N 0.60978 0.23585 0.91014
 C2176 C 0.59773 0.24880 0.89267
 N2177 N 0.59831 0.24040 0.86938
 N2178 N 0.61064 0.21993 0.86376
 C2179 C 0.58502 0.27203 0.89859
 C2180 C 0.58704 0.28269 0.92165
 H2181 H 0.64625 0.17552 0.89042
 H2182 H 0.57543 0.28156 0.88413
 H2183 H 0.62990 0.18449 0.83714
 H2184 H 0.59807 0.27342 0.93533
 C2185 C 0.85562 0.68102 1.14810
 C2186 C 0.86259 0.68540 1.12418
 C2187 C 0.87617 0.70774 1.11766
 N2188 N 0.88240 0.71196 1.09418
 N2189 N 0.89552 0.73169 1.08832
 C2190 C 0.90310 0.74777 1.10577
 N2191 N 0.89698 0.74347 1.12924
 N2192 N 0.88379 0.72382 1.13507
 C2193 C 0.91696 0.77000 1.09959
 C2194 C 0.91915 0.77778 1.07565
 H2195 H 0.85990 0.67133 1.11047
 H2196 H 0.92350 0.78160 1.11429
 H2197 H 0.85926 0.69494 1.16178
 H2198 H 0.91074 0.76697 1.06125
 C2199 C 0.84276 0.19247 0.65611
 C2200 C 0.86652 0.19577 0.64679
 C2201 C 0.87204 0.21586 0.63007
 N2202 N 0.89562 0.21929 0.62223
 N2203 N 0.90086 0.23758 0.60724
 C2204 C 0.88268 0.25297 0.59937
 N2205 N 0.85906 0.24933 0.60697
 N2206 N 0.85383 0.23109 0.62203
 C2207 C 0.88851 0.27434 0.58442
 C2208 C 0.91293 0.28195 0.58137
 H2209 H 0.88114 0.18278 0.65093
 H2210 H 0.87334 0.28594 0.57847
 H2211 H 0.82808 0.20493 0.65065
 H2212 H 0.92786 0.27105 0.58900
 C2213 C 0.35648 0.67107 0.63212
 C2214 C 0.36768 0.69213 0.64147
 C2215 C 0.37306 0.71378 0.62646
 N2216 N 0.38337 0.73379 0.63704
 N2217 N 0.38849 0.75354 0.62394
 C2218 C 0.38350 0.75415 0.59970
 N2219 N 0.37309 0.73414 0.58908
 N2220 N 0.36794 0.71434 0.60221
 C2221 C 0.39005 0.77585 0.58504
 C2222 C 0.40283 0.79541 0.59564
 H2223 H 0.37202 0.69318 0.66069
 H2224 H 0.38615 0.77575 0.56572
 H2225 H 0.35115 0.67068 0.61310
 H2226 H 0.40730 0.79430 0.61483
 C2227 C 0.37360 0.17113 1.14253
 C2228 C 0.36328 0.19258 1.13335
 C2229 C 0.37780 0.21499 1.12960
 N2230 N 0.36598 0.23561 1.12237
 N2231 N 0.37862 0.25611 1.11866
 C2232 C 0.40363 0.25686 1.12207
 N2233 N 0.41551 0.23622 1.12942
 N2234 N 0.40282 0.21566 1.13318
 C2235 C 0.41772 0.27929 1.11658
 C2236 C 0.40556 0.29961 1.10696
 H2237 H 0.34351 0.19334 1.12970
 H2238 H 0.43778 0.27909 1.11817
 H2239 H 0.39308 0.17083 1.14755
 H2240 H 0.38557 0.29885 1.10464
 C2241 C 1.14864 1.14071 0.67694
 C2242 C 1.12488 1.13765 0.68650
 C2243 C 1.11999 1.12303 0.70835
 N2244 N 1.09642 1.12127 0.71680
 N2245 N 1.09161 1.10876 0.73694
 C2246 C 1.11018 1.09749 0.74942
 N2247 N 1.13376 1.09909 0.74087
 N2248 N 1.13858 1.11164 0.72071
 C2249 C 1.10513 1.08455 0.77233
 C2250 C 1.08153 1.08491 0.78281
 H2251 H 1.10917 1.14639 0.67775
 H2252 H 1.12058 1.07610 0.78175
 H2253 H 1.16410 1.13091 0.68503
 H2254 H 1.06677 1.09468 0.77353
 C2255 C 1.12382 0.63727 0.17496
 C2256 C 1.12880 0.61684 0.18917
 C2257 C 1.11343 0.61114 0.21042
 N2258 N 1.11805 0.59060 0.22333
 N2259 N 1.10531 0.58602 0.24349
 C2260 C 1.08755 0.60183 0.25156
 N2261 N 1.08283 0.62232 0.23857
 N2262 N 1.09551 0.62686 0.21833
 C2263 C 1.07486 0.59778 0.27483
 C2264 C 1.07945 0.57662 0.28808
 H2265 H 1.14500 0.60559 0.18578
 H2266 H 1.06346 0.61236 0.28220
 H2267 H 1.10738 0.64805 0.17906
 H2268 H 1.09108 0.56260 0.27990
 C2269 C 0.65107 1.15625 0.17877
 C2270 C 0.66052 1.14482 0.19951
 C2271 C 0.64459 1.13572 0.21932
 N2272 N 0.65509 1.12359 0.23822
 N2273 N 0.64123 1.11563 0.25656
 C2274 C 0.61627 1.11955 0.25684
 N2275 N 0.60575 1.13177 0.23797
 N2276 N 0.61963 1.13968 0.21955
 C2277 C 0.60082 1.11075 0.27723
 C2278 C 0.61075 1.09544 0.29509
 H2279 H 0.68044 1.14308 0.20176
 H2280 H 0.58134 1.11570 0.27762
 H2281 H 0.63114 1.15793 0.17680
 H2282 H 0.62993 1.08965 0.29318
 C2283 C 0.62939 0.62775 0.66417
 C2284 C 0.61707 0.63725 0.68443
 C2285 C 0.61103 0.62254 0.70591
 N2286 N 0.59892 0.63328 0.72474
 N2287 N 0.59330 0.62052 0.74448
 C2288 C 0.59960 0.59651 0.74626
 N2289 N 0.61185 0.58573 0.72744
 N2290 N 0.61746 0.59852 0.70761
 C2291 C 0.59294 0.58239 0.76809
 C2292 C 0.57810 0.59295 0.78611
 H2293 H 0.61227 0.65649 0.68500
 H2294 H 0.59891 0.56352 0.76942
 H2295 H 0.63505 0.60871 0.66415
 H2296 H 0.57154 0.61150 0.78336
 C2297 C 0.84851 0.85703 0.67946
 C2298 C 0.87220 0.86143 0.68864
 C2299 C 0.87651 0.87664 0.71035
 N2300 N 0.90011 0.88113 0.71772
 N2301 N 0.90445 0.89422 0.73776
 C2302 C 0.88537 0.90337 0.75120
 N2303 N 0.86173 0.89905 0.74372
 N2304 N 0.85737 0.88596 0.72362
 C2305 C 0.89013 0.91619 0.77438
 C2306 C 0.91422 0.91806 0.78353
 H2307 H 0.88820 0.85374 0.67939
 H2308 H 0.87446 0.92191 0.78536
 H2309 H 0.83265 0.86593 0.68786
 H2310 H 0.92948 0.91117 0.77260
 C2311 C 0.86019 0.34800 0.17469
 C2312 C 0.86173 0.37178 0.18396
 C2313 C 0.87417 0.37772 0.20709
 N2314 N 0.87359 0.40104 0.21565
 N2315 N 0.88412 0.40673 0.23688
 C2316 C 0.89567 0.38932 0.25037
 N2317 N 0.89642 0.36601 0.24173
 N2318 N 0.88584 0.36029 0.22049
 C2319 C 0.90678 0.39529 0.27419
 C2320 C 0.90383 0.41834 0.28492
 H2321 H 0.85314 0.38667 0.17408
 H2322 H 0.91627 0.38082 0.28387
 H2323 H 0.86969 0.33333 0.18411
 H2324 H 0.89280 0.43195 0.27549
 C2325 C 0.38196 0.86714 0.16596
 C2326 C 0.37741 0.88868 0.17891
 C2327 C 0.38980 0.89364 0.20230
 N2328 N 0.38566 0.91510 0.21412
 N2329 N 0.39623 0.91948 0.23563
 C2330 C 0.41132 0.90255 0.24615
 N2331 N 0.41552 0.88112 0.23430
 N2332 N 0.40498 0.87675 0.21276
 C2333 C 0.42227 0.90677 0.27037
 C2334 C 0.41780 0.92840 0.28320
 H2335 H 0.36455 0.90218 0.17188
 H2336 H 0.43283 0.89206 0.27848
 H2337 H 0.39612 0.85469 0.17264
 H2338 H 0.40648 0.94236 0.27463
 C2339 C 0.35475 0.36200 0.67450
 C2340 C 0.37812 0.36408 0.68517
 C2341 C 0.38108 0.37433 0.70988
 N2342 N 0.40409 0.37728 0.71955
 N2343 N 0.40696 0.38759 0.74141
 C2344 C 0.38696 0.39550 0.75437
 N2345 N 0.36396 0.39256 0.74470
 N2346 N 0.36109 0.38221 0.72287
 C2347 C 0.38992 0.40667 0.77869
 C2348 C 0.41291 0.40698 0.79033
 H2349 H 0.39455 0.36019 0.67446
 H2350 H 0.37354 0.41330 0.78808
 H2351 H 0.33856 0.36699 0.68514
 H2352 H 0.42870 0.39879 0.78113
 C2353 C 1.15544 0.85148 1.31715
 C2354 C 1.13201 0.85775 1.30820
 C2355 C 1.12851 0.87039 1.28482
 N2356 N 1.10518 0.87477 1.27649
 N2357 N 1.10157 0.88578 1.25523
 C2358 C 1.12114 0.89296 1.24147
 N2359 N 1.14451 0.88879 1.24990
 N2360 N 1.14813 0.87770 1.27117
 C2361 C 1.11720 0.90418 1.21739
 C2362 C 1.09373 0.90438 1.20658
 H2363 H 1.11562 0.85368 1.31874
 H2364 H 1.13318 0.91060 1.20739
 H2365 H 1.17173 0.85677 1.30695
 H2366 H 1.07839 0.89630 1.21637
 C2367 C 1.15020 0.34331 0.81584
 C2368 C 1.12601 0.34885 0.80870
 C2369 C 1.12078 0.36138 0.78553
 N2370 N 1.09720 0.36822 0.77994
 N2371 N 1.09244 0.38078 0.75974
 C2372 C 1.11109 0.38716 0.74443
 N2373 N 1.13467 0.38029 0.75000
 N2374 N 1.13942 0.36770 0.77018
 C2375 C 1.10599 0.40077 0.72185
 C2376 C 1.08176 0.40550 0.71421
 H2377 H 1.11096 0.34639 0.82148
 H2378 H 1.12144 0.40559 0.71027
 H2379 H 1.16524 0.34693 0.80332
 H2380 H 1.06652 0.39912 0.72532
 C2381 C 0.62222 0.86423 0.83497
 C2382 C 0.63307 0.87525 0.81486
 C2383 C 0.61918 0.88092 0.79252
 N2384 N 0.63117 0.89165 0.77380
 N2385 N 0.61914 0.89690 0.75331
 C2386 C 0.59464 0.89158 0.75066
 N2387 N 0.58261 0.88072 0.76936
 N2388 N 0.59467 0.87547 0.78994
 C2389 C 0.58127 0.89797 0.72809
 C2390 C 0.59302 0.91168 0.71021
 H2391 H 0.65277 0.87918 0.81510
 H2392 H 0.56195 0.89291 0.72614
 H2393 H 0.60273 0.85941 0.83425
 H2394 H 0.61197 0.91751 0.71350
 C2395 C 0.62632 0.37032 1.33297
 C2396 C 0.63943 0.38150 1.31428
 C2397 C 0.62658 0.39147 1.29280
 N2398 N 0.63991 0.40079 1.27415
 N2399 N 0.62855 0.40844 1.25399
 C2400 C 0.60344 0.40695 1.25170
 N2401 N 0.59011 0.39777 1.27040
 N2402 N 0.60146 0.39017 1.29056
 C2403 C 0.59069 0.41444 1.22921
 C2404 C 0.60343 0.42511 1.20999
 H2405 H 0.65954 0.38102 1.31431
 H2406 H 0.57081 0.41173 1.22802
 H2407 H 0.60619 0.37017 1.33208
 H2408 H 0.62297 0.42926 1.21229
 C2409 C 0.88421 1.13072 1.33611
 C2410 C 0.87453 1.11803 1.31618
 C2411 C 0.88893 1.11273 1.29405
 N2412 N 0.87788 1.10048 1.27549
 N2413 N 0.89034 1.09544 1.25520
 C2414 C 0.91436 1.10248 1.25258
 N2415 N 0.92545 1.11486 1.27114
 N2416 N 0.91295 1.11991 1.29152
 C2417 C 0.92818 1.09639 1.23015
 C2418 C 0.91728 1.08168 1.21227
 H2419 H 0.85528 1.11235 1.31635
 H2420 H 0.94711 1.10267 1.22825
 H2421 H 0.90313 1.13739 1.33533
 H2422 H 0.89869 1.07492 1.21555
 C2423 C 0.84461 0.64058 0.81869
 C2424 C 0.86860 0.63591 0.81046
 C2425 C 0.87358 0.62032 0.78916
 N2426 N 0.89737 0.61609 0.78227
 N2427 N 0.90227 0.60256 0.76264
 C2428 C 0.88357 0.59269 0.74917
 N2429 N 0.85975 0.59675 0.75618
 N2430 N 0.85484 0.61029 0.77585
 C2431 C 0.88885 0.57922 0.72650
 C2432 C 0.91294 0.57781 0.71741
 H2433 H 0.88429 0.64364 0.82016
 H2434 H 0.87338 0.57251 0.71577
 H2435 H 0.82905 0.63178 0.80970
 H2436 H 0.92794 0.58582 0.72795
 C2437 C 0.36938 1.12845 0.83276
 C2438 C 0.37954 1.13976 0.81245
 C2439 C 0.38408 1.12655 0.78942
 N2440 N 0.39343 1.13880 0.77016
 N2441 N 0.39744 1.12733 0.74909
 C2442 C 0.39219 1.10316 0.74637
 N2443 N 0.38275 1.09089 0.76562
 N2444 N 0.37874 1.10238 0.78675
 C2445 C 0.39730 1.09029 0.72319
 C2446 C 0.40929 1.10223 0.70423
 H2447 H 0.38329 1.15920 0.81300
 H2448 H 0.39294 1.07103 0.72165
 H2449 H 0.36474 1.10920 0.83163
 H2450 H 0.41451 1.12119 0.70691
 C2451 C 0.35510 0.65624 1.32194
 C2452 C 0.35984 0.63288 1.31275
 C2453 C 0.37494 0.62859 1.29081
 N2454 N 0.37960 0.60534 1.28336
 N2455 N 0.39281 0.60102 1.26334
 C2456 C 0.40195 0.61976 1.24997
 N2457 N 0.39742 0.64305 1.25750
 N2458 N 0.38420 0.64739 1.27758
 C2459 C 0.41525 0.61500 1.22695
 C2460 C 0.41747 0.59127 1.21775
 H2461 H 0.35270 0.61711 1.32225
 H2462 H 0.42127 0.63038 1.21617
 H2463 H 0.36339 0.67186 1.31309
 H2464 H 0.41020 0.57632 1.22841
 C2465 C 1.14433 1.32177 0.85590
 C2466 C 1.13687 1.29917 0.84661
 C2467 C 1.12950 1.27881 0.86251
 N2468 N 1.12178 1.25742 0.85249
 N2469 N 1.11581 1.23857 0.86652
 C2470 C 1.11747 1.24027 0.89116
 N2471 N 1.12531 1.26165 0.90121
 N2472 N 1.13122 1.28055 0.88716
 C2473 C 1.11039 1.21952 0.90677
 C2474 C 1.09830 1.19921 0.89695
 H2475 H 1.13793 1.29578 0.82721
 H2476 H 1.11329 1.22092 0.92623
 H2477 H 1.14321 1.32492 0.87533
 H2478 H 1.09414 1.19912 0.87765
 C2479 C 1.14269 0.81968 0.34698
 C2480 C 1.15087 0.79977 0.36071
 C2481 C 1.13444 0.77973 0.36837
 N2482 N 1.14380 0.76170 0.38256
 N2483 N 1.12938 0.74358 0.39014
 C2484 C 1.10497 0.74269 0.38383
 N2485 N 1.09558 0.76066 0.36949
 N2486 N 1.11004 0.77888 0.36192
 C2487 C 1.08891 0.72270 0.39257
 C2488 C 1.09769 0.70598 0.40972
 H2489 H 1.17018 0.79837 0.36597
 H2490 H 1.06998 0.72174 0.38598
 H2491 H 1.12381 0.81941 0.34019
 H2492 H 1.11633 0.70856 0.41677
 C2493 C 0.62525 1.33327 0.35764
 C2494 C 0.63075 1.32077 0.37901
 C2495 C 0.61909 1.29732 0.38482
 N2496 N 0.62489 1.28591 0.40591
 N2497 N 0.61522 1.26416 0.41099
 C2498 C 0.59946 1.25301 0.39512
 N2499 N 0.59358 1.26448 0.37407
 N2500 N 0.60322 1.28625 0.36900
 C2501 C 0.58939 1.22863 0.40005
 C2502 C 0.59542 1.21605 0.42127
 H2503 H 0.64430 1.32809 0.39168
 H2504 H 0.57797 1.22032 0.38611
 H2505 H 0.61047 1.32657 0.34596
 H2506 H 0.60769 1.22476 0.43433
 C2507 C 0.62937 0.83622 0.86998
 C2508 C 0.61667 0.81655 0.85958
 C2509 C 0.61019 0.79442 0.87319
 N2510 N 0.59753 0.77627 0.86179
 N2511 N 0.59164 0.75592 0.87358
 C2512 C 0.59823 0.75290 0.89723
 N2513 N 0.61097 0.77104 0.90867
 N2514 N 0.61684 0.79146 0.89687
 C2515 C 0.59175 0.73035 0.91030
 C2516 C 0.57704 0.71240 0.89933
 H2517 H 0.61185 0.81696 0.84046
 H2518 H 0.59811 0.72831 0.92886
 H2519 H 0.63496 0.83526 0.88890
 H2520 H 0.56984 0.71581 0.88123
 C2521 C 0.85200 1.32059 1.13895
 C2522 C 0.87566 1.30996 1.13887
 C2523 C 0.88137 1.28678 1.12621
 N2524 N 0.90469 1.27734 1.12749
 N2525 N 0.91017 1.25610 1.11673
 C2526 C 0.89254 1.24344 1.10424
 N2527 N 0.86922 1.25294 1.10284
 N2528 N 0.86372 1.27420 1.11364
 C2529 C 0.89827 1.21961 1.09272
 C2530 C 0.92156 1.20847 1.09524
 H2531 H 0.89066 1.31883 1.14865
 H2532 H 0.88347 1.21039 1.08303
 H2533 H 0.83741 1.31229 1.12812
 H2534 H 0.93550 1.21768 1.10618
 C2535 C 0.85984 0.82115 0.65364
 C2536 C 0.86345 0.81172 0.63031
 C2537 C 0.87780 0.78929 0.62558
 N2538 N 0.88028 0.78110 0.60240
 N2539 N 0.89227 0.76027 0.59771
 C2540 C 0.90226 0.74683 0.61601
 N2541 N 0.90000 0.75515 0.63922
 N2542 N 0.88798 0.77602 0.64393
 C2543 C 0.91408 0.72299 0.61100
 C2544 C 0.91339 0.71275 0.58771
 H2545 H 0.85526 0.82099 0.61488
 H2546 H 0.92145 0.71264 0.62612
 H2547 H 0.86924 0.81269 0.66890
 H2548 H 0.90466 0.72306 0.57322
 C2549 C 0.36393 1.34059 0.63450
 C2550 C 0.37050 1.31797 0.64423
 C2551 C 0.37813 1.29711 0.62878
 N2552 N 0.38544 1.27587 0.63926
 N2553 N 0.39167 1.25659 0.62562
 C2554 C 0.39067 1.25768 0.60093
 N2555 N 0.38323 1.27889 0.59042
 N2556 N 0.37707 1.29823 0.60408
 C2557 C 0.39794 1.23641 0.58577
 C2558 C 0.40996 1.21634 0.59608
 H2559 H 0.36864 1.31498 0.66359
 H2560 H 0.39516 1.23719 0.56627
 H2561 H 0.36575 1.34324 0.61508
 H2562 H 0.41406 1.21692 0.61539
 C2563 C 0.38063 0.84187 1.12945
 C2564 C 0.36749 0.82110 1.12242
 C2565 C 0.38024 0.79854 1.11466
 N2566 N 0.36675 0.77858 1.10837
 N2567 N 0.37802 0.75762 1.10257
 C2568 C 0.40321 0.75578 1.10300
 N2569 N 0.41672 0.77575 1.10929
 N2570 N 0.40544 0.79674 1.11502
 C2571 C 0.41580 0.73264 1.09676
 C2572 C 0.40257 0.71294 1.08723
 H2573 H 0.34752 0.82064 1.12472
 H2574 H 0.43580 0.73154 1.09867
 H2575 H 0.40072 0.84165 1.12812
 H2576 H 0.38283 0.71514 1.08386
 C2577 C 0.85502 0.67663 0.84451
 C2578 C 0.85799 0.68638 0.86781
 C2579 C 0.87297 0.70830 0.87274
 N2580 N 0.87535 0.71658 0.89591
 N2581 N 0.88820 0.73679 0.90074
 C2582 C 0.89922 0.74952 0.88261
 N2583 N 0.89701 0.74114 0.85941
 N2584 N 0.88413 0.72088 0.85456
 C2585 C 0.91226 0.77265 0.88778
 C2586 C 0.91231 0.78270 0.91115
 H2587 H 0.84913 0.67757 0.88308
 H2588 H 0.92015 0.78264 0.87275
 H2589 H 0.86505 0.68468 0.82951
 H2590 H 0.90319 0.77275 0.92556
 C2591 C 0.87529 0.15827 0.37134
 C2592 C 0.88401 0.17965 0.36076
 C2593 C 0.88698 0.20264 0.37446
 N2594 N 0.89410 0.22305 0.36256
 N2595 N 0.89662 0.24418 0.37444
 C2596 C 0.89206 0.24579 0.39869
 N2597 N 0.88487 0.22536 0.41064
 N2598 N 0.88232 0.20417 0.39873
 C2599 C 0.89575 0.26906 0.41193
 C2600 C 0.90515 0.28941 0.39995
 H2601 H 0.88747 0.17997 0.34137
 H2602 H 0.89268 0.26966 0.43138
 H2603 H 0.87067 0.15835 0.39051
 H2604 H 0.90910 0.28783 0.38068
 C2605 C 0.34618 0.68158 0.35863
 C2606 C 0.37000 0.69144 0.36037
 C2607 C 0.37561 0.71397 0.37405
 N2608 N 0.39918 0.72263 0.37424
 N2609 N 0.40466 0.74338 0.38585
 C2610 C 0.38678 0.75628 0.39776
 N2611 N 0.36320 0.74752 0.39774
 N2612 N 0.35770 0.72675 0.38609
 C2613 C 0.39258 0.77975 0.40983
 C2614 C 0.41603 0.79037 0.40772
 H2615 H 0.38524 0.68239 0.35111
 H2616 H 0.37777 0.78933 0.41919
 H2617 H 0.33117 0.68994 0.36886
 H2618 H 0.43000 0.78089 0.39703
 C2619 C 0.37584 0.16345 0.86181
 C2620 C 0.36491 0.18151 0.87642
 C2621 C 0.37809 0.20345 0.88496
 N2622 N 0.36601 0.21984 0.89932
 N2623 N 0.37745 0.23989 0.90736
 C2624 C 0.40146 0.24430 0.90135
 N2625 N 0.41358 0.22790 0.88696
 N2626 N 0.40213 0.20781 0.87892
 C2627 C 0.41414 0.26663 0.90980
 C2628 C 0.40244 0.28360 0.92512
 H2629 H 0.34566 0.17972 0.88173
 H2630 H 0.43303 0.26949 0.90386
 H2631 H 0.39471 0.16592 0.85550
 H2632 H 0.38412 0.27936 0.93199
 C2633 C 1.13652 0.67112 1.14947
 C2634 C 1.13779 0.67828 1.12525
 C2635 C 1.12882 0.70253 1.11775
 N2636 N 1.12825 0.70866 1.09388
 N2637 N 1.11907 0.73021 1.08698
 C2638 C 1.11008 0.74636 1.10371
 N2639 N 1.11078 0.74027 1.12755
 N2640 N 1.11995 0.71877 1.13443
 C2641 C 1.09943 0.77000 1.09659
 C2642 C 1.09929 0.77798 1.07260
 H2643 H 1.14385 0.66535 1.11147
 H2644 H 1.09221 0.78171 1.11089
 H2645 H 1.12913 0.68385 1.16282
 H2646 H 1.10830 0.76693 1.05874
 C2647 C 1.13744 0.17673 0.65130
 C2648 C 1.13454 0.18589 0.62785
 C2649 C 1.11986 0.20792 0.62245
 N2650 N 1.11833 0.21589 0.59919
 N2651 N 1.10595 0.23631 0.59392
 C2652 C 1.09460 0.24955 0.61171
 N2653 N 1.09594 0.24148 0.63497
 N2654 N 1.10835 0.22102 0.64026
 C2655 C 1.08198 0.27282 0.60615
 C2656 C 1.08284 0.28281 0.58287
 H2657 H 1.14365 0.17670 0.61280
 H2658 H 1.07350 0.28290 0.62097
 H2659 H 1.12729 0.18513 0.66618
 H2660 H 1.09267 0.27284 0.56874
 C2661 C 0.62215 0.66438 0.63803
 C2662 C 0.63297 0.68479 0.62736
 C2663 C 0.61914 0.70731 0.62178
 N2664 N 0.63123 0.72613 0.61121
 N2665 N 0.61924 0.74671 0.60579
 C2666 C 0.59467 0.74936 0.61076
 N2667 N 0.58253 0.73057 0.62149
 N2668 N 0.59455 0.70990 0.62690
 C2669 C 0.58133 0.77201 0.60408
 C2670 C 0.59317 0.78992 0.59041
 H2671 H 0.65265 0.68454 0.62334
 H2672 H 0.56195 0.77395 0.60891
 H2673 H 0.60271 0.66508 0.64305
 H2674 H 0.61219 0.78661 0.58481
 C2675 C 0.65890 0.18684 1.14533
 C2676 C 0.63744 0.20065 1.14939
 C2677 C 0.63083 0.22148 1.13372
 N2678 N 0.60885 0.23322 1.13696
 N2679 N 0.60285 0.25240 1.12330
 C2680 C 0.61859 0.26065 1.10591
 N2681 N 0.64059 0.24891 1.10266
 N2682 N 0.64656 0.22965 1.11627
 C2683 C 0.61246 0.28258 1.09153
 C2684 C 0.58946 0.29412 1.09410
 H2685 H 0.62539 0.19667 1.16454
 H2686 H 0.62665 0.29031 1.08004
 H2687 H 0.67060 0.19178 1.13011
 H2688 H 0.57594 0.28579 1.10601
 C2689 C 1.34215 1.13319 0.86893
 C2690 C 1.32131 1.12228 0.85851
 C2691 C 1.29917 1.11598 0.87266
 N2692 N 1.27940 1.10588 0.86114
 N2693 N 1.25893 1.10041 0.87343
 C2694 C 1.25738 1.10489 0.89771
 N2695 N 1.27715 1.11507 0.90927
 N2696 N 1.29769 1.12054 0.89696
 C2697 C 1.23480 1.09845 0.91131
 C2698 C 1.21549 1.08598 0.89979
 H2699 H 1.32065 1.11931 0.83903
 H2700 H 1.23394 1.10258 0.93057
 H2701 H 1.34232 1.13696 0.88830
 H2702 H 1.21764 1.08103 0.88079
 C2703 C 1.32010 0.64487 0.34926
 C2704 C 1.31072 0.64252 0.37278
 C2705 C 1.28864 0.62778 0.37848
 N2706 N 1.28051 0.62672 0.40177
 N2707 N 1.26021 0.61409 0.40733
 C2708 C 1.24722 0.60198 0.38981
 N2709 N 1.25544 0.60289 0.36650
 N2710 N 1.27577 0.61556 0.36092
 C2711 C 1.22411 0.58881 0.39572
 C2712 C 1.21397 0.58979 0.41906
 H2713 H 1.31985 0.65189 0.38772
 H2714 H 1.21426 0.57963 0.38112
 H2715 H 1.31166 0.63445 0.33460
 H2716 H 1.22368 0.60023 0.43294
 C2717 C 0.84818 1.12220 0.36352
 C2718 C 0.82762 1.13222 0.37539
 C2719 C 0.80531 1.11816 0.38150
 N2720 N 0.78654 1.12953 0.39347
 N2721 N 0.76603 1.11742 0.39923
 C2722 C 0.76341 1.09343 0.39322
 N2723 N 0.78217 1.08200 0.38112
 N2724 N 0.80278 1.09415 0.37536
 C2725 C 0.74069 1.08006 0.39993
 C2726 C 0.72277 1.09121 0.41463
 H2727 H 0.82750 1.15151 0.37997
 H2728 H 0.73857 1.06129 0.39394
 H2729 H 0.84785 1.10312 0.35807
 H2730 H 0.72638 1.10956 0.42130
 C2731 C 0.81831 0.65074 0.85446
 C2732 C 0.80859 0.62726 0.85671
 C2733 C 0.78557 0.62216 0.86997
 N2734 N 0.77682 0.59895 0.87055
 N2735 N 0.75554 0.59397 0.88171
 C2736 C 0.74220 0.61201 0.89272
 N2737 N 0.75105 0.63522 0.89231
 N2738 N 0.77235 0.64022 0.88111
 C2739 C 0.71819 0.60678 0.90428
 C2740 C 0.70742 0.58365 0.90258
 H2741 H 0.81801 0.61198 0.84809
 H2742 H 0.70838 0.62175 0.91295
 H2743 H 0.80962 0.66582 0.86413
 H2744 H 0.71707 0.56946 0.89246
 C2745 C 1.34472 0.87033 1.13857
 C2746 C 1.33487 0.87070 1.11506
 C2747 C 1.30976 0.88020 1.10980
 N2748 N 1.30056 0.87896 1.08681
 N2749 N 1.27782 0.88732 1.08179
 C2750 C 1.26344 0.89728 1.09958
 N2751 N 1.27268 0.89860 1.12254
 N2752 N 1.29539 0.89020 1.12757
 C2753 C 1.23821 0.90653 1.09440
 C2754 C 1.22699 0.90374 1.07162
 H2755 H 1.34585 0.86380 1.10002
 H2756 H 1.22806 0.91491 1.10924
 H2757 H 1.33379 0.87786 1.15336
 H2758 H 1.23692 0.89376 1.05757
 C2759 C 1.33399 0.37561 0.63768
 C2760 C 1.31990 0.36899 0.61743
 C2761 C 1.29801 0.38323 0.61005
 N2762 N 1.28262 0.37423 0.59266
 N2763 N 1.26161 0.38587 0.58716
 C2764 C 1.25519 0.40694 0.59883
 N2765 N 1.27078 0.41618 0.61595
 N2766 N 1.29180 0.40450 0.62149
 C2767 C 1.23124 0.41898 0.59392
 C2768 C 1.21391 0.40806 0.57847
 H2769 H 1.32331 0.35172 0.60827
 H2770 H 1.22721 0.43606 0.60312
 H2771 H 1.32939 0.39243 0.64724
 H2772 H 1.21917 0.39123 0.56928
 C2773 C 0.82349 0.84728 0.64263
 C2774 C 0.81441 0.87093 0.63944
 C2775 C 0.79221 0.87630 0.62484
 N2776 N 0.78422 0.89974 0.62293
 N2777 N 0.76359 0.90499 0.61061
 C2778 C 0.75016 0.88699 0.59970
 N2779 N 0.75829 0.86353 0.60138
 N2780 N 0.77896 0.85827 0.61374
 C2781 C 0.72654 0.89257 0.58735
 C2782 C 0.71629 0.91601 0.58845
 H2783 H 0.82380 0.88613 0.64817
 H2784 H 0.71630 0.87767 0.57907
 H2785 H 0.81491 0.83223 0.63286
 H2786 H 0.72637 0.93021 0.59809
 C2787 C 0.82454 0.35663 1.14722
 C2788 C 0.81611 0.36001 1.12347
 C2789 C 0.79445 0.37557 1.11781
 N2790 N 0.78713 0.37840 1.09437
 N2791 N 0.76742 0.39216 1.08895
 C2792 C 0.75429 0.40371 1.10675
 N2793 N 0.76169 0.40100 1.13019
 N2794 N 0.78142 0.38722 1.13563
 C2795 C 0.73166 0.41792 1.10100
 C2796 C 0.72206 0.41856 1.07743
 H2797 H 0.82599 0.35146 1.10852
 H2798 H 0.72139 0.42620 1.11585
 H2799 H 0.81510 0.36609 1.16193
 H2800 H 0.73205 0.40901 1.06313
 C2801 C 0.69210 1.15885 1.15661
 C2802 C 0.69761 1.13432 1.15205
 C2803 C 0.72106 1.12694 1.14018
 N2804 N 0.72590 1.10296 1.13564
 N2805 N 0.74642 1.09626 1.12376
 C2806 C 0.76278 1.11331 1.11580
 N2807 N 0.75793 1.13727 1.12034
 N2808 N 0.73748 1.14395 1.13228
 C2809 C 0.78547 1.10631 1.10245
 C2810 C 0.79312 1.08201 1.10023
 H2811 H 0.68360 1.12056 1.15526
 H2812 H 0.79703 1.12075 1.09534
 H2813 H 0.70600 1.17248 1.15243
 H2814 H 0.78234 1.06795 1.10909
 C2815 C 0.65776 0.63633 0.62945
 C2816 C 0.67835 0.62442 0.63931
 C2817 C 0.70097 0.61905 0.62529
 N2818 N 0.72022 0.60758 0.63637
 N2819 N 0.74095 0.60252 0.62419
 C2820 C 0.74332 0.60877 0.60044
 N2821 N 0.72409 0.62038 0.58932
 N2822 N 0.70328 0.62544 0.60153
 C2823 C 0.76614 0.60252 0.58687
 C2824 C 0.78459 0.58824 0.59765
 H2825 H 0.67831 0.61949 0.65835
 H2826 H 0.76775 0.60812 0.56810
 H2827 H 0.65835 0.64222 0.61068
 H2828 H 0.78162 0.58195 0.61607
 C2829 C 0.17551 1.15264 0.64212
 C2830 C 0.18551 1.12955 0.63747
 C2831 C 0.20778 1.12591 0.62238
 N2832 N 0.21585 1.10288 0.61753
 N2833 N 0.23623 1.09915 0.60434
 C2834 C 0.24935 1.11829 0.59543
 N2835 N 0.24120 1.14136 0.60015
 N2836 N 0.22076 1.14510 0.61335
 C2837 C 0.27281 1.11419 0.58216
 C2838 C 0.28249 1.09066 0.57939
 H2839 H 0.17640 1.11353 0.64466
 H2840 H 0.28353 1.12988 0.57655
 H2841 H 0.18388 1.16848 0.63373
 H2842 H 0.27182 1.07538 0.58615
 C2843 C 0.16088 0.63166 1.14757
 C2844 C 0.18330 0.64224 1.14073
 C2845 C 0.20505 0.62780 1.13307
 N2846 N 0.22532 0.63947 1.12442
 N2847 N 0.24532 0.62688 1.11751
 C2848 C 0.24591 0.60209 1.11911
 N2849 N 0.22570 0.59038 1.12797
 N2850 N 0.20560 0.60300 1.13480
 C2851 C 0.26792 0.58815 1.11101
 C2852 C 0.28626 0.59934 1.09716
 H2853 H 0.18524 0.66194 1.14142
 H2854 H 0.26901 0.56877 1.11485
 H2855 H 0.15920 0.61193 1.14721
 H2856 H 0.28359 0.61827 1.09196
 C2857 C 0.65791 0.87149 0.86312
 C2858 C 0.67811 0.86127 0.87539
 C2859 C 0.70066 0.87518 0.88153
 N2860 N 0.71948 0.86385 0.89345
 N2861 N 0.74017 0.87590 0.89907
 C2862 C 0.74293 0.89977 0.89295
 N2863 N 0.72411 0.91114 0.88095
 N2864 N 0.70334 0.89907 0.87534
 C2865 C 0.76583 0.91315 0.89940
 C2866 C 0.78433 0.90202 0.91338
 H2867 H 0.67784 0.84207 0.88005
 H2868 H 0.76763 0.93198 0.89376
 H2869 H 0.65880 0.89046 0.85760
 H2870 H 0.78116 0.88353 0.91961
 C2871 C 0.66324 0.35903 0.35921
 C2872 C 0.67189 0.38220 0.36546
 C2873 C 0.69599 0.38566 0.37776
 N2874 N 0.70396 0.40853 0.38328
 N2875 N 0.72560 0.41188 0.39464
 C2876 C 0.74003 0.39248 0.40104
 N2877 N 0.73199 0.36959 0.39564
 N2878 N 0.71037 0.36625 0.38423
 C2879 C 0.76443 0.39604 0.41278
 C2880 C 0.77476 0.41926 0.41508
 H2881 H 0.66024 0.39805 0.36220
 H2882 H 0.77515 0.38006 0.41788
 H2883 H 0.67471 0.34323 0.36325
 H2884 H 0.76430 0.43483 0.40840
 C2885 C 0.17955 0.84664 0.35572
 C2886 C 0.19196 0.86888 0.35301
 C2887 C 0.21347 0.87594 0.36810
 N2888 N 0.22370 0.89838 0.36532
 N2889 N 0.24359 0.90494 0.37824
 C2890 C 0.25408 0.88929 0.39443
 N2891 N 0.24382 0.86684 0.39726
 N2892 N 0.22387 0.86028 0.38436
 C2893 C 0.27668 0.89609 0.40813
 C2894 C 0.28769 0.91902 0.40540
 H2895 H 0.18576 0.88181 0.33944
 H2896 H 0.28517 0.88235 0.41953
 H2897 H 0.18494 0.83522 0.37082
 H2898 H 0.27883 0.93197 0.39328
 C2899 C 0.17532 0.35557 0.85070
 C2900 C 0.18783 0.35106 0.87248
 C2901 C 0.20830 0.36678 0.88072
 N2902 N 0.21984 0.36222 0.90218
 N2903 N 0.23897 0.37586 0.90943
 C2904 C 0.24726 0.39453 0.89546
 N2905 N 0.23565 0.39914 0.87405
 N2906 N 0.21650 0.38555 0.86684
 C2907 C 0.26915 0.40889 0.90253
 C2908 C 0.28148 0.40493 0.92450
 H2909 H 0.18332 0.33528 0.88336
 H2910 H 0.27610 0.42178 0.88943
 H2911 H 0.18088 0.37117 0.83996
 H2912 H 0.27380 0.39165 0.93692
   
