data_POSCAR
  _audit_creation_date              2014-09-24
  _audit_creation_method            'ToBaCCo'
  _symmetry_space_group_name_H-M    'P1'
  _symmetry_Int_Tables_number       1
  _symmetry_cell_setting            triclinic
  loop_
  _symmetry_equiv_pos_as_xyz
 x,y,z
_cell_length_a 48.0459
_cell_length_b 48.6663
_cell_length_c 48.7883
_cell_angle_alpha 89.062100
_cell_angle_beta 89.390400
_cell_angle_gamma 90.467700
loop_
  _atom_site_label
  _atom_site_type_symbol
  _atom_site_fract_x
  _atom_site_fract_y
  _atom_site_fract_z
C1 C 0.74311 0.65000 0.95762
 H2 H 0.76217 0.64801 0.94584
 C3 C 0.72025 0.66335 0.94612
 H4 H 0.72202 0.67183 0.92551
 C5 C 0.71725 0.64013 0.99826
 H6 H 0.71575 0.63037 1.01824
 C7 C 0.69409 0.65366 0.98775
 H8 H 0.67515 0.65423 0.99995
 N9 N 0.74109 0.63835 0.98309
 C10 C 0.82310 0.62423 1.01779
 H11 H 0.82119 0.60231 1.02150
 C12 C 0.84724 0.63806 1.02535
 H13 H 0.86376 0.62657 1.03504
 C14 C 0.80353 0.66558 1.00077
 H15 H 0.78637 0.67612 0.99119
 C16 C 0.82729 0.68038 1.00835
 H17 H 0.82823 0.70233 1.00446
 Zn18 Zn 0.77083 0.61627 0.99568
 N19 N 0.80205 0.63796 1.00537
 C20 C 0.80758 0.59484 0.95679
 N21 N 0.78114 0.59257 0.96679
 C22 C 0.76184 0.57662 0.95417
 C23 C 0.76873 0.56300 0.92991
 C24 C 0.81528 0.58168 0.93287
 C25 C 0.75768 0.61307 1.05029
 C26 C 0.74765 0.60234 1.07506
 C27 C 0.74211 0.55820 1.05363
 C28 C 0.75239 0.56995 1.02908
 N29 N 0.75931 0.59709 1.02782
 H30 H 0.82256 0.60800 0.96647
 H31 H 0.74077 0.57557 0.96217
 H32 H 0.75289 0.55134 0.91946
 H33 H 0.83631 0.58459 0.92506
 H34 H 0.76352 0.63456 1.04870
 H35 H 0.74619 0.61610 1.09225
 H36 H 0.73610 0.53670 1.05391
 H37 H 0.75419 0.55757 1.01096
 C38 C 0.84964 0.66652 1.02062
 C39 C 0.69520 0.66495 0.96112
 C40 C 0.73897 0.57461 1.07708
 C41 C 0.79561 0.56617 0.91861
 C42 C 0.72264 0.32268 0.51847
 H43 H 0.74261 0.31949 0.52798
 C44 C 0.69907 0.30853 0.52845
 H45 H 0.70122 0.29428 0.54556
 C46 C 0.69541 0.34622 0.48555
 H47 H 0.69383 0.36146 0.46932
 C48 C 0.67137 0.33269 0.49496
 H49 H 0.65168 0.33747 0.48547
 N50 N 0.72037 0.34126 0.49751
 C51 C 0.80357 0.35879 0.46423
 H52 H 0.80205 0.38096 0.46422
 C53 C 0.82774 0.34651 0.45456
 H54 H 0.84465 0.35947 0.44698
 C55 C 0.78301 0.31526 0.47405
 H56 H 0.76545 0.30325 0.48163
 C57 C 0.80680 0.30203 0.46413
 H58 H 0.80740 0.27979 0.46427
 Zn59 Zn 0.75136 0.36365 0.48730
 N60 N 0.78204 0.34319 0.47422
 C61 C 0.78877 0.38063 0.52770
 N62 N 0.76236 0.38375 0.51851
 C63 C 0.74392 0.40005 0.53188
 C64 C 0.75222 0.41477 0.55490
 C65 C 0.79797 0.39511 0.55026
 C66 C 0.73772 0.37467 0.43356
 C67 C 0.72982 0.38976 0.41047
 C68 C 0.72921 0.43063 0.43795
 C69 C 0.73753 0.41474 0.46053
 N70 N 0.74115 0.38720 0.45799
 H71 H 0.80288 0.36678 0.51773
 H72 H 0.72280 0.40168 0.52459
 H73 H 0.73746 0.42794 0.56512
 H74 H 0.81921 0.39236 0.55693
 H75 H 0.74091 0.35275 0.43213
 H76 H 0.72685 0.37920 0.39135
 H77 H 0.72599 0.45245 0.44037
 H78 H 0.74077 0.42437 0.48004
 C79 C 0.82968 0.31777 0.45450
 C80 C 0.67288 0.31387 0.51698
 C81 C 0.72514 0.41807 0.41254
 C82 C 0.77975 0.41264 0.56407
 C83 C 0.24514 -0.14711 0.03398
 H84 H 0.26035 -0.13856 0.04767
 C85 C 0.22186 -0.16091 0.04479
 H86 H 0.21954 -0.16284 0.06684
 C87 C 0.22943 -0.15412 -0.01126
 H88 H 0.23226 -0.15075 -0.03309
 C89 C 0.20573 -0.16806 -0.00130
 H90 H 0.19055 -0.17555 -0.01568
 N91 N 0.24815 -0.14339 0.00644
 C92 C 0.32989 -0.12539 -0.03048
 H93 H 0.33019 -0.10317 -0.02998
 C94 C 0.35315 -0.13937 -0.04019
 H95 H 0.37112 -0.12766 -0.04736
 C96 C 0.30606 -0.16742 -0.02145
 H97 H 0.28770 -0.17824 -0.01393
 C98 C 0.32881 -0.18225 -0.03125
 H99 H 0.32765 -0.20448 -0.03121
 Zn100 Zn 0.27640 -0.11927 -0.00704
 N101 N 0.30699 -0.13948 -0.02121
 C102 C 0.31499 -0.09973 0.03178
 N103 N 0.28851 -0.09708 0.02257
 C104 C 0.27007 -0.08047 0.03555
 C105 C 0.27799 -0.06587 0.05871
 C106 C 0.32388 -0.08524 0.05454
 C107 C 0.27255 -0.09504 -0.06059
 C108 C 0.25920 -0.08111 -0.08191
 C109 C 0.22094 -0.07204 -0.05094
 C110 C 0.23515 -0.08598 -0.03024
 N111 N 0.26043 -0.09727 -0.03531
 H112 H 0.32917 -0.11373 0.02212
 H113 H 0.24891 -0.07911 0.02851
 H114 H 0.26290 -0.05308 0.06895
 H115 H 0.34498 -0.08804 0.06158
 H116 H 0.29227 -0.10467 -0.06462
 H117 H 0.26940 -0.08010 -0.10182
 H118 H 0.20061 -0.06384 -0.04612
 H119 H 0.22534 -0.08884 -0.01037
 C120 C 0.35284 -0.16821 -0.04066
 C121 C 0.20135 -0.17095 0.02713
 C122 C 0.23265 -0.06970 -0.07753
 C123 C 0.30524 -0.06824 0.06851
 C124 C 0.22061 0.14462 0.46071
 H125 H 0.24055 0.14280 0.45043
 C126 C 0.19922 0.15933 0.44815
 H127 H 0.20306 0.16909 0.42835
 C128 C 0.19097 0.13289 0.49827
 H129 H 0.18738 0.12190 0.51737
 C130 C 0.16918 0.14765 0.48665
 H131 H 0.14926 0.14794 0.49722
 N132 N 0.21610 0.13154 0.48524
 C133 C 0.29227 0.11669 0.52947
 H134 H 0.28652 0.09652 0.53735
 C135 C 0.31582 0.12973 0.53948
 H136 H 0.32799 0.11924 0.55492
 C137 C 0.28299 0.15466 0.50008
 H138 H 0.26993 0.16442 0.48496
 C139 C 0.30677 0.16845 0.50939
 H140 H 0.31178 0.18877 0.50133
 Zn141 Zn 0.24427 0.10861 0.50013
 N142 N 0.27629 0.12917 0.51019
 C143 C 0.28064 0.07123 0.47530
 N144 N 0.25486 0.08241 0.47364
 C145 C 0.23840 0.07790 0.45159
 C146 C 0.24850 0.06318 0.42925
 C147 C 0.29162 0.05664 0.45339
 C148 C 0.22651 0.10878 0.55392
 C149 C 0.21669 0.09877 0.57909
 C150 C 0.21615 0.05299 0.56061
 C151 C 0.22598 0.06399 0.53555
 N152 N 0.23064 0.09151 0.53270
 H153 H 0.29336 0.07484 0.49298
 H154 H 0.21788 0.08681 0.45074
 H155 H 0.23565 0.06103 0.41130
 H156 H 0.31272 0.04909 0.45464
 H157 H 0.23074 0.13053 0.55112
 H158 H 0.21341 0.11312 0.59552
 H159 H 0.21223 0.03111 0.56255
 H160 H 0.22974 0.05065 0.51841
 C161 C 0.32335 0.15599 0.52956
 C162 C 0.17299 0.16075 0.46105
 C163 C 0.21120 0.07056 0.58273
 C164 C 0.27588 0.05330 0.42958
 C165 C 0.14498 0.47503 0.23804
 H166 H 0.14276 0.46304 0.25682
 C167 C 0.15794 0.46368 0.21515
 H168 H 0.16595 0.44298 0.21662
 C169 C 0.13585 0.51603 0.21297
 H170 H 0.12651 0.53611 0.21189
 C171 C 0.14897 0.50563 0.18972
 H172 H 0.14966 0.51798 0.17106
 N173 N 0.13378 0.50056 0.23641
 C174 C 0.11988 0.53366 0.31793
 H175 H 0.09778 0.53746 0.31657
 C176 C 0.13407 0.54021 0.34175
 H177 H 0.12270 0.54927 0.35857
 C178 C 0.16132 0.51718 0.29744
 H179 H 0.17175 0.50809 0.28011
 C180 C 0.17647 0.52380 0.32082
 H181 H 0.19858 0.51971 0.32129
 Zn182 Zn 0.11144 0.51244 0.26608
 N183 N 0.13347 0.52188 0.29661
 C184 C 0.08890 0.47255 0.30219
 N185 N 0.08727 0.48275 0.27616
 C186 C 0.07213 0.46953 0.25686
 C187 C 0.05887 0.44441 0.26327
 C188 C 0.07608 0.44774 0.30941
 C189 C 0.10798 0.56769 0.25457
 C190 C 0.09742 0.59211 0.24398
 C191 C 0.05407 0.56853 0.23506
 C192 C 0.06553 0.54439 0.24602
 N193 N 0.09226 0.54437 0.25495
 H194 H 0.10143 0.48273 0.31720
 H195 H 0.07168 0.47766 0.23610
 H196 H 0.04801 0.43348 0.24740
 H197 H 0.07858 0.43973 0.33007
 H198 H 0.12922 0.56705 0.26167
 H199 H 0.11074 0.61016 0.24332
 H200 H 0.03309 0.56805 0.22719
 H201 H 0.05342 0.52557 0.24652
 C202 C 0.16272 0.53516 0.34350
 C203 C 0.15959 0.47885 0.19041
 C204 C 0.07035 0.59267 0.23342
 C205 C 0.06158 0.43285 0.28967
 C206 C -0.17521 0.02970 0.22008
 H207 H -0.17346 0.04008 0.23943
 C208 C -0.19074 0.04142 0.19890
 H209 H -0.20106 0.06076 0.20245
 C210 C -0.16262 -0.00744 0.19187
 H211 H -0.15107 -0.02611 0.18891
 C212 C -0.17810 0.00335 0.17026
 H213 H -0.17829 -0.00755 0.15109
 N214 N -0.16118 0.00595 0.21606
 C215 C -0.13918 -0.03371 0.29346
 H216 H -0.11716 -0.03610 0.28943
 C217 C -0.15059 -0.04293 0.31834
 H218 H -0.13719 -0.05270 0.33324
 C219 C -0.18312 -0.01760 0.27886
 H220 H -0.19557 -0.00743 0.26348
 C221 C -0.19554 -0.02693 0.30343
 H222 H -0.21761 -0.02388 0.30678
 Zn223 Zn -0.13628 -0.00637 0.24330
 N224 N -0.15529 -0.02067 0.27465
 C225 C -0.11277 0.03015 0.28080
 N226 N -0.11389 0.02402 0.25375
 C227 C -0.10054 0.04006 0.23451
 C228 C -0.08496 0.06305 0.24239
 C229 C -0.09722 0.05248 0.28954
 C230 C -0.12690 -0.05997 0.22722
 C231 C -0.11238 -0.08223 0.21678
 C232 C -0.07193 -0.05281 0.21081
 C233 C -0.08719 -0.03112 0.22166
 N234 N -0.11427 -0.03500 0.22926
 H235 H -0.12416 0.01798 0.29583
 H236 H -0.10222 0.03513 0.21305
 H237 H -0.07445 0.07563 0.22691
 H238 H -0.09678 0.05679 0.31124
 H239 H -0.14843 -0.06249 0.23355
 H240 H -0.12300 -0.10183 0.21509
 H241 H -0.05048 -0.04928 0.20459
 H242 H -0.07746 -0.01119 0.22374
 C243 C -0.17904 -0.03928 0.32375
 C244 C -0.19190 0.02854 0.17326
 C245 C -0.08459 -0.07876 0.20817
 C246 C -0.08304 0.06931 0.27032
 C247 C 0.34136 0.51954 0.73537
 H248 H 0.34378 0.53122 0.75388
 C249 C 0.32824 0.53131 0.71265
 H250 H 0.32035 0.55202 0.71401
 C251 C 0.34997 0.47883 0.71078
 H252 H 0.35905 0.45864 0.70987
 C253 C 0.33671 0.48966 0.68773
 H254 H 0.33570 0.47754 0.66935
 N255 N 0.35235 0.49394 0.73387
 C256 C 0.36570 0.45587 0.81427
 H257 H 0.38761 0.45130 0.81219
 C258 C 0.35145 0.44865 0.83841
 H259 H 0.36256 0.43828 0.85471
 C260 C 0.32490 0.47527 0.79548
 H261 H 0.31477 0.48591 0.77877
 C262 C 0.30969 0.46805 0.81920
 H263 H 0.28784 0.47319 0.82050
 Zn264 Zn 0.37466 0.48103 0.76307
 N265 N 0.35251 0.46951 0.79369
 C266 C 0.39988 0.51675 0.80062
 N267 N 0.39843 0.51039 0.77364
 C268 C 0.41183 0.52609 0.75417
 C269 C 0.42721 0.54934 0.76164
 C270 C 0.41524 0.53942 0.80897
 C271 C 0.38212 0.42575 0.75140
 C272 C 0.39518 0.40262 0.74093
 C273 C 0.43554 0.43076 0.72988
 C274 C 0.42174 0.45339 0.74079
 N275 N 0.39538 0.45053 0.75095
 H276 H 0.38867 0.50468 0.81585
 H277 H 0.40995 0.52098 0.73277
 H278 H 0.43740 0.56183 0.74587
 H279 H 0.41571 0.54407 0.83059
 H280 H 0.36107 0.42409 0.75937
 H281 H 0.38394 0.38324 0.74111
 H282 H 0.45632 0.43353 0.72143
 H283 H 0.43186 0.47329 0.74056
 C284 C 0.32313 0.45499 0.84125
 C285 C 0.32622 0.51649 0.68825
 C286 C 0.42211 0.40500 0.72960
 C287 C 0.42893 0.55628 0.78941
 C288 C 0.67158 0.97052 0.72815
 H289 H 0.67253 0.95893 0.74712
 C290 C 0.68707 0.96188 0.70560
 H291 H 0.69967 0.94363 0.70765
 C292 C 0.65357 1.00775 0.70226
 H293 H 0.64037 1.02555 0.70091
 C294 C 0.66884 0.99990 0.67917
 H295 H 0.66686 1.01161 0.66025
 N296 N 0.65424 0.99236 0.72582
 C297 C 0.62903 1.01233 0.80910
 H298 H 0.60724 1.00681 0.80772
 C299 C 0.63956 1.02192 0.83365
 H300 H 0.62545 1.02358 0.85099
 C301 C 0.67331 1.01693 0.78760
 H302 H 0.68620 1.01509 0.76943
 C303 C 0.68488 1.02648 0.81194
 H304 H 0.70677 1.03194 0.81213
 Zn305 Zn 0.62797 0.99877 0.75448
 N306 N 0.64575 1.01051 0.78662
 C307 C 0.62481 0.94700 0.77831
 N308 N 0.60942 0.96511 0.76352
 C309 C 0.58282 0.95888 0.75626
 C310 C 0.57126 0.93306 0.76303
 C311 C 0.61426 0.92109 0.78523
 C312 C 0.60215 1.05065 0.75608
 C313 C 0.58642 1.07248 0.74603
 C314 C 0.57149 1.04383 0.70891
 C315 C 0.58739 1.02244 0.71979
 N316 N 0.60268 1.02631 0.74274
 H317 H 0.64538 0.95276 0.78498
 H318 H 0.57056 0.97371 0.74512
 H319 H 0.55022 0.92826 0.75684
 H320 H 0.62718 0.90710 0.79686
 H321 H 0.61481 1.05367 0.77393
 H322 H 0.58702 1.09187 0.75659
 H323 H 0.56021 1.04057 0.69014
 H324 H 0.58860 1.00316 0.70916
 C325 C 0.66782 1.02957 0.83537
 C326 C 0.68497 0.97600 0.68039
 C327 C 0.57131 1.06945 0.72179
 C328 C 0.58726 0.91365 0.77737
 C329 C 0.01879 0.22881 -0.16379
 H330 H 0.02976 0.24829 -0.16531
 C331 C 0.02984 0.20566 -0.17634
 H332 H 0.04929 0.20757 -0.18766
 C333 C -0.01937 0.20256 -0.14636
 H334 H -0.03845 0.20134 -0.13449
 C335 C -0.00930 0.17899 -0.15891
 H336 H -0.02069 0.15982 -0.15630
 N337 N -0.00476 0.22661 -0.14818
 C338 C -0.04184 0.28455 -0.17147
 H339 H -0.05172 0.26475 -0.17428
 C340 C -0.04963 0.30709 -0.18770
 H341 H -0.06558 0.30438 -0.20296
 C342 C -0.00951 0.31209 -0.14775
 H343 H 0.00636 0.31405 -0.13243
 C344 C -0.01675 0.33518 -0.16339
 H345 H -0.00649 0.35461 -0.15958
 Zn346 Zn -0.01590 0.25726 -0.12723
 N347 N -0.02279 0.28761 -0.15130
 C348 C 0.00783 0.28762 -0.08474
 N349 N 0.01246 0.26642 -0.10197
 C350 C 0.03681 0.25234 -0.10137
 C351 C 0.05845 0.26081 -0.08453
 C352 C 0.02897 0.29691 -0.06769
 C353 C -0.07355 0.25913 -0.11224
 C354 C -0.09743 0.25013 -0.09807
 C355 C -0.06878 0.21946 -0.07126
 C356 C -0.04557 0.22886 -0.08619
 N357 N -0.04839 0.24789 -0.10662
 H358 H -0.01199 0.29802 -0.08505
 H359 H 0.03981 0.23480 -0.11426
 H360 H 0.07797 0.24987 -0.08512
 H361 H 0.02517 0.31453 -0.05495
 H362 H -0.07534 0.27475 -0.12806
 H363 H -0.11721 0.25909 -0.10356
 H364 H -0.06570 0.20386 -0.05551
 H365 H -0.02525 0.22049 -0.08193
 C366 C -0.03755 0.33303 -0.18325
 C367 C 0.01610 0.18016 -0.17337
 C368 C -0.09549 0.22956 -0.07747
 C369 C 0.05496 0.28387 -0.06796
 C370 C 0.45801 0.23829 0.17177
 H371 H 0.44450 0.25586 0.17138
 C372 C 0.45015 0.21503 0.18716
 H373 H 0.43059 0.21518 0.19838
 C374 C 0.49933 0.21651 0.15714
 H375 H 0.51851 0.21710 0.14539
 C376 C 0.49227 0.19279 0.17229
 H377 H 0.50603 0.17530 0.17170
 N378 N 0.48176 0.23833 0.15635
 C379 C 0.50269 0.32331 0.13463
 H380 H 0.49629 0.32356 0.11343
 C381 C 0.51258 0.34731 0.14646
 H382 H 0.51373 0.36598 0.13411
 C383 C 0.50917 0.29830 0.17614
 H384 H 0.50788 0.27904 0.18747
 C385 C 0.51931 0.32188 0.18881
 H386 H 0.52577 0.32052 0.20998
 Zn387 Zn 0.48885 0.26790 0.13105
 N388 N 0.50145 0.29942 0.14942
 C389 C 0.43706 0.29207 0.12840
 N390 N 0.45530 0.27740 0.11316
 C391 C 0.44956 0.27081 0.08678
 C392 C 0.42416 0.27842 0.07511
 C393 C 0.41155 0.29990 0.11769
 C394 C 0.54115 0.27089 0.10393
 C395 C 0.56336 0.26060 0.08868
 C396 C 0.53444 0.22191 0.07657
 C397 C 0.51266 0.23312 0.09177
 N398 N 0.51658 0.25682 0.10566
 H399 H 0.44245 0.29796 0.14895
 H400 H 0.46454 0.25965 0.07474
 H401 H 0.41982 0.27288 0.05417
 H402 H 0.39748 0.31151 0.13044
 H403 H 0.54407 0.28948 0.11536
 H404 H 0.58304 0.27160 0.08846
 H405 H 0.53124 0.20244 0.06660
 H406 H 0.49309 0.22209 0.09380
 C407 C 0.52135 0.34678 0.17383
 C408 C 0.46693 0.19153 0.18687
 C409 C 0.56042 0.23537 0.07546
 C410 C 0.40468 0.29299 0.09076
 C411 C 0.96868 0.72977 0.65265
 H412 H 0.95752 0.74898 0.65192
 C413 C 0.95616 0.70636 0.66458
 H414 H 0.93540 0.70783 0.67325
 C415 C 1.00879 0.70425 0.64111
 H416 H 1.02898 0.70317 0.63131
 C417 C 0.99726 0.68052 0.65312
 H418 H 1.00891 0.66158 0.65250
 N419 N 0.99440 0.72823 0.64090
 C420 C 1.03428 0.80866 0.63166
 H421 H 1.03900 0.80765 0.60997
 C422 C 1.04170 0.83193 0.64616
 H423 H 1.05244 0.84865 0.63549
 C424 C 1.01412 0.78804 0.67158
 H425 H 1.00309 0.77094 0.68122
 C426 C 1.02163 0.81088 0.68709
 H427 H 1.01632 0.81122 0.70870
 Zn428 Zn 1.00882 0.75899 0.62087
 N429 N 1.02009 0.78765 0.64426
 C430 C 0.97247 0.79892 0.60072
 N431 N 0.98039 0.77241 0.59746
 C432 C 0.96640 0.75553 0.58025
 C433 C 0.94303 0.76513 0.56606
 C434 C 0.94963 0.80930 0.58694
 C435 C 1.06382 0.74499 0.61718
 C436 C 1.08831 0.73479 0.60607
 C437 C 1.06580 0.73213 0.56211
 C438 C 1.04154 0.74252 0.57416
 N439 N 1.04092 0.74812 0.60139
 H440 H 0.98306 0.81200 0.61489
 H441 H 0.97268 0.73435 0.57839
 H442 H 0.93155 0.75123 0.55318
 H443 H 0.94368 0.83036 0.59053
 H444 H 1.06271 0.74964 0.63877
 H445 H 1.10599 0.73191 0.61937
 H446 H 1.06579 0.72693 0.54062
 H447 H 1.02309 0.74533 0.56198
 C448 C 1.03509 0.83343 0.67417
 C449 C 0.97038 0.68121 0.66459
 C450 C 1.08942 0.72763 0.57833
 C451 C 0.93409 0.79226 0.56983
 C452 C 0.53389 0.73271 0.33556
 H453 H 0.54484 0.75221 0.33596
 C454 C 0.54433 0.71133 0.31981
 H455 H 0.56335 0.71461 0.30805
 C456 C 0.49632 0.70456 0.35116
 H457 H 0.47761 0.70194 0.36340
 C458 C 0.50578 0.68278 0.33543
 H459 H 0.49439 0.66348 0.33614
 N460 N 0.51103 0.72855 0.35181
 C461 C 0.47100 0.78614 0.33729
 H462 H 0.46130 0.76637 0.33388
 C463 C 0.46211 0.80932 0.32268
 H464 H 0.44548 0.80694 0.30808
 C465 C 0.50433 0.81281 0.36067
 H466 H 0.52109 0.81410 0.37514
 C467 C 0.49594 0.83657 0.34675
 H468 H 0.50633 0.85581 0.35112
 Zn469 Zn 0.50079 0.75630 0.37670
 N470 N 0.49131 0.78836 0.35632
 C471 C 0.52642 0.78311 0.42016
 N472 N 0.53053 0.76374 0.40080
 C473 C 0.55509 0.75014 0.39890
 C474 C 0.57741 0.75738 0.41545
 C475 C 0.54822 0.79112 0.43703
 C476 C 0.44501 0.75603 0.39759
 C477 C 0.42262 0.74493 0.41271
 C478 C 0.45319 0.70978 0.43032
 C479 C 0.47496 0.72162 0.41501
 N480 N 0.47036 0.74384 0.39849
 H481 H 0.50642 0.79304 0.42181
 H482 H 0.55767 0.73392 0.38431
 H483 H 0.59707 0.74696 0.41289
 H484 H 0.54478 0.80736 0.45155
 H485 H 0.44194 0.77407 0.38483
 H486 H 0.40241 0.75448 0.41117
 H487 H 0.45721 0.69164 0.44274
 H488 H 0.49546 0.71261 0.41562
 C489 C 0.47420 0.83521 0.32769
 C490 C 0.53065 0.68570 0.32027
 C491 C 0.42646 0.72114 0.42890
 C492 C 0.57436 0.77867 0.43429
 C493 C 0.42147 -0.02033 0.28052
 H494 H 0.42465 -0.00051 0.28975
 C495 C 0.43597 -0.04326 0.29029
 H496 H 0.45043 -0.04081 0.30696
 C497 C 0.39753 -0.04789 0.24870
 H498 H 0.38180 -0.04992 0.23321
 C499 C 0.41137 -0.07127 0.25791
 H500 H 0.40646 -0.09086 0.24885
 N501 N 0.40262 -0.02306 0.26012
 C502 C 0.38325 0.06154 0.23745
 H503 H 0.36087 0.05933 0.23921
 C504 C 0.39497 0.08700 0.23065
 H505 H 0.38133 0.10426 0.22710
 C506 C 0.42785 0.04121 0.23956
 H507 H 0.44045 0.02316 0.24281
 C508 C 0.44054 0.06639 0.23236
 H509 H 0.46297 0.06758 0.23027
 Zn510 Zn 0.37945 0.00673 0.25023
 N511 N 0.39965 0.03936 0.24193
 C512 C 0.36651 0.03216 0.29868
 N513 N 0.35610 0.01348 0.28098
 C514 C 0.33251 -0.00114 0.28724
 C515 C 0.31779 0.00381 0.31163
 C516 C 0.35296 0.03722 0.32338
 C517 C 0.37894 -0.00663 0.19656
 C518 C 0.36953 -0.01520 0.17123
 C519 C 0.32232 -0.01271 0.18849
 C520 C 0.33276 -0.00414 0.21374
 N521 N 0.36074 -0.00209 0.21746
 H522 H 0.38589 0.04271 0.29397
 H523 H 0.32542 -0.01705 0.27373
 H524 H 0.29904 -0.00786 0.31642
 H525 H 0.36177 0.05215 0.33712
 H526 H 0.40106 -0.00434 0.19993
 H527 H 0.38467 -0.01933 0.15526
 H528 H 0.30006 -0.01500 0.18602
 H529 H 0.31851 0.00057 0.23023
 C530 C 0.42397 0.08971 0.22783
 C531 C 0.43057 -0.06927 0.27927
 C532 C 0.34091 -0.01893 0.16703
 C533 C 0.32827 0.02304 0.33013
 C534 C 0.06723 1.03572 0.77460
 H535 H 0.05583 1.01877 0.76594
 C536 C 0.05304 1.05926 0.78289
 H537 H 0.03069 1.06022 0.78056
 C538 C 0.11024 1.05529 0.78796
 H539 H 0.13259 1.05357 0.78974
 C540 C 0.09702 1.07924 0.79608
 H541 H 0.10939 1.09578 0.80436
 N542 N 0.09540 1.03444 0.77681
 C543 C 0.07933 0.97814 0.72903
 H544 H 0.07954 0.99787 0.71847
 C545 C 0.06619 0.95562 0.71722
 H546 H 0.05599 0.95832 0.69768
 C547 C 0.09396 0.95037 0.76645
 H548 H 0.10563 0.94815 0.78513
 C549 C 0.08075 0.92738 0.75556
 H550 H 0.08231 0.90774 0.76616
 Zn551 Zn 0.11643 1.00451 0.76380
 N552 N 0.09341 0.97501 0.75288
 C553 C 0.16762 0.98880 0.78856
 N554 N 0.13988 0.99274 0.79250
 C555 C 0.12771 0.98863 0.81752
 C556 C 0.14342 0.97966 0.83976
 C557 C 0.18412 0.97958 0.81023
 C558 C 0.13639 1.04294 0.72417
 C559 C 0.14989 1.05176 0.70019
 C560 C 0.16493 1.00520 0.69287
 C561 C 0.15135 0.99729 0.71733
 N562 N 0.13743 1.01615 0.73243
 H563 H 0.17695 0.99254 0.76859
 H564 H 0.10564 0.99216 0.82010
 H565 H 0.13316 0.97623 0.85939
 H566 H 0.20610 0.97623 0.80663
 H567 H 0.12459 1.05758 0.73575
 H568 H 0.14846 1.07318 0.69406
 H569 H 0.17568 0.98990 0.68098
 H570 H 0.15140 0.97598 0.72401
 C571 C 0.06737 0.92967 0.73020
 C572 C 0.06810 1.08160 0.79330
 C573 C 0.16423 1.03281 0.68403
 C574 C 0.17199 0.97475 0.83623
 C575 C 0.58135 0.54499 0.25929
 H576 H 0.56976 0.52775 0.25143
 C577 C 0.56722 0.56841 0.26791
 H578 H 0.54475 0.56900 0.26660
 C579 C 0.62462 0.56519 0.27082
 H580 H 0.64702 0.56366 0.27213
 C581 C 0.61145 0.58904 0.27923
 H582 H 0.62394 0.60572 0.28708
 N583 N 0.60959 0.54393 0.26065
 C584 C 0.59178 0.48730 0.21309
 H585 H 0.59463 0.50587 0.20085
 C586 C 0.57567 0.46565 0.20322
 H587 H 0.56607 0.46785 0.18334
 C588 C 0.60172 0.46168 0.25349
 H589 H 0.61210 0.46016 0.27299
 C590 C 0.58579 0.43957 0.24445
 H591 H 0.58417 0.42119 0.25718
 Zn592 Zn 0.62954 0.51277 0.24847
 N593 N 0.60476 0.48476 0.23761
 C594 C 0.66991 0.47843 0.27282
 N595 N 0.65158 0.49899 0.27768
 C596 C 0.64733 0.50843 0.30349
 C597 C 0.66170 0.49711 0.32559
 C598 C 0.68450 0.46631 0.29440
 C599 C 0.65544 0.54988 0.21060
 C600 C 0.67147 0.55783 0.18790
 C601 C 0.67994 0.51004 0.17868
 C602 C 0.66403 0.50296 0.20202
 N603 N 0.65234 0.52286 0.21763
 H604 H 0.67264 0.47084 0.25231
 H605 H 0.63206 0.52409 0.30725
 H606 H 0.65751 0.50458 0.34599
 H607 H 0.69858 0.44961 0.29013
 H608 H 0.64526 0.56553 0.22223
 H609 H 0.67350 0.57951 0.18286
 H610 H 0.68897 0.49398 0.16641
 H611 H 0.66048 0.48155 0.20727
 C612 C 0.57291 0.44117 0.21876
 C613 C 0.58239 0.59092 0.27777
 C614 C 0.68395 0.53786 0.17156
 C615 C 0.68027 0.47547 0.32126
 C616 C 0.90862 0.47708 0.76441
 H617 H 0.91098 0.49709 0.77348
 C618 C 0.92289 0.45451 0.77532
 H619 H 0.93637 0.45746 0.79269
 C620 C 0.88707 0.44874 0.73168
 H621 H 0.87251 0.44625 0.71520
 C622 C 0.90080 0.42570 0.74195
 H623 H 0.89684 0.40594 0.73283
 N624 N 0.89102 0.47381 0.74303
 C625 C 0.87537 0.55484 0.70659
 H626 H 0.85297 0.55293 0.70531
 C627 C 0.88853 0.57910 0.69789
 H628 H 0.87605 0.59566 0.68965
 C629 C 0.91853 0.53544 0.71929
 H630 H 0.93006 0.51839 0.72777
 C631 C 0.93265 0.55934 0.71048
 H632 H 0.95507 0.56047 0.71233
 Zn633 Zn 0.86870 0.50364 0.73103
 N634 N 0.89032 0.53390 0.71765
 C635 C 0.85321 0.54073 0.77120
 N636 N 0.84735 0.51525 0.76167
 C637 C 0.82991 0.49780 0.77582
 C638 C 0.81824 0.50564 0.80101
 C639 C 0.84221 0.54925 0.79603
 C640 C 0.86266 0.48776 0.67833
 C641 C 0.85069 0.47693 0.65506
 C642 C 0.80618 0.47589 0.67864
 C643 C 0.81917 0.48685 0.70174
 N644 N 0.84707 0.49193 0.70124
 H645 H 0.86769 0.55414 0.76042
 H646 H 0.82606 0.47738 0.76820
 H647 H 0.80525 0.49123 0.81258
 H648 H 0.84794 0.56939 0.80336
 H649 H 0.88477 0.49211 0.67852
 H650 H 0.86386 0.47328 0.63737
 H651 H 0.78414 0.47112 0.67949
 H652 H 0.80716 0.49054 0.72015
 C653 C 0.91752 0.58175 0.70005
 C654 C 0.91871 0.42828 0.76431
 C655 C 0.82221 0.47027 0.65511
 C656 C 0.82509 0.53144 0.81168
 C657 C 0.26618 0.41236 -0.01179
 H658 H 0.27716 0.41045 0.00738
 C659 C 0.27959 0.42403 -0.03481
 H660 H 0.30081 0.43140 -0.03302
 C661 C 0.22579 0.40353 -0.03777
 H662 H 0.20517 0.39474 -0.03916
 C663 C 0.23824 0.41540 -0.06114
 H664 H 0.22685 0.41573 -0.08017
 N665 N 0.23999 0.40185 -0.01382
 C666 C 0.19732 0.38775 0.06453
 H667 H 0.19293 0.36610 0.06201
 C668 C 0.18868 0.40075 0.08830
 H669 H 0.17730 0.38896 0.10381
 C670 C 0.21806 0.42900 0.04736
 H671 H 0.22990 0.43970 0.03145
 C672 C 0.20943 0.44300 0.07082
 H673 H 0.21462 0.46457 0.07277
 Zn674 Zn 0.22551 0.38012 0.01572
 N675 N 0.21230 0.40173 0.04497
 C676 C 0.26098 0.35875 0.05604
 N677 N 0.25474 0.35752 0.02897
 C678 C 0.27087 0.34297 0.01136
 C679 C 0.29471 0.32949 0.02081
 C680 C 0.28423 0.34546 0.06632
 C681 C 0.17059 0.37306 0.00082
 C682 C 0.14686 0.35985 -0.00871
 C683 C 0.17340 0.31812 -0.01274
 C684 C 0.19668 0.33214 -0.00282
 N685 N 0.19491 0.35922 0.00336
 H686 H 0.24859 0.37083 0.06977
 H687 H 0.26584 0.34271 -0.01019
 H688 H 0.30775 0.31866 0.00641
 H689 H 0.28882 0.34738 0.08789
 H690 H 0.16977 0.39459 0.00592
 H691 H 0.12789 0.37151 -0.01090
 H692 H 0.17525 0.29668 -0.01799
 H693 H 0.21619 0.32151 -0.00046
 C694 C 0.19501 0.42863 0.09189
 C695 C 0.26578 0.42513 -0.06005
 C696 C 0.14809 0.33209 -0.01594
 C697 C 0.30185 0.33104 0.04863
 C698 C 0.74886 0.08317 1.03402
 H699 H 0.74567 0.07278 1.01489
 C700 C 0.75765 0.06830 1.05709
 H701 H 0.76125 0.04645 1.05544
 C702 C 0.74821 0.12427 1.05942
 H703 H 0.74462 0.14617 1.06004
 C704 C 0.75666 0.11021 1.08297
 H705 H 0.75965 0.12156 1.10163
 N706 N 0.74472 0.11072 1.03555
 C707 C 0.69526 0.11041 0.96786
 H708 H 0.68019 0.12246 0.97876
 C709 C 0.68658 0.09528 0.94551
 H710 H 0.66485 0.09578 0.93986
 C711 C 0.74181 0.09614 0.96108
 H712 H 0.76337 0.09682 0.96723
 C713 C 0.73407 0.08110 0.93809
 H714 H 0.74974 0.07003 0.92672
 Zn715 Zn 0.73366 0.13246 1.00519
 N716 N 0.72241 0.11040 0.97546
 C717 C 0.76095 0.17159 0.97078
 N718 N 0.76399 0.15471 0.99302
 C719 C 0.78908 0.15178 1.00533
 C720 C 0.81245 0.16589 0.99513
 C721 C 0.78378 0.18632 0.96002
 C722 C 0.68182 0.13954 1.02923
 C723 C 0.65794 0.15308 1.03783
 C724 C 0.67925 0.19615 1.02337
 C725 C 0.70268 0.18167 1.01465
 N726 N 0.70329 0.15380 1.01728
 H727 H 0.74088 0.17313 0.96104
 H728 H 0.79127 0.13788 1.02263
 H729 H 0.83229 0.16286 1.00501
 H730 H 0.78105 0.19928 0.94202
 H731 H 0.68311 0.11744 1.03155
 H732 H 0.64097 0.14120 1.04693
 H733 H 0.67892 0.21829 1.02089
 H734 H 0.72023 0.19269 1.00568
 C735 C 0.70606 0.08051 0.93019
 C736 C 0.76179 0.08189 1.08196
 C737 C 0.65634 0.18174 1.03478
 C738 C 0.81007 0.18322 0.97200
 C739 C 0.26642 0.56663 0.54554
 H740 H 0.25594 0.55542 0.52966
 C741 C 0.27526 0.55281 0.56928
 H742 H 0.27150 0.53092 0.57148
 C743 C 0.28398 0.60879 0.56211
 H744 H 0.28727 0.63066 0.55912
 C745 C 0.29279 0.59595 0.58618
 H746 H 0.30306 0.60813 0.60152
 N747 N 0.27056 0.59422 0.54266
 C748 C 0.21924 0.58002 0.48709
 H749 H 0.20836 0.58149 0.50654
 C750 C 0.20636 0.56732 0.46503
 H751 H 0.18564 0.55872 0.46782
 C752 C 0.25874 0.59105 0.45944
 H753 H 0.27873 0.60111 0.45701
 C754 C 0.24681 0.57823 0.43698
 H755 H 0.25798 0.57846 0.41758
 Zn756 Zn 0.25794 0.61481 0.51202
 N757 N 0.24469 0.59210 0.48376
 C758 C 0.28579 0.66358 0.49308
 N759 N 0.28830 0.63627 0.49878
 C760 C 0.31296 0.62320 0.49548
 C761 C 0.33629 0.63752 0.48550
 C762 C 0.30857 0.67868 0.48280
 C763 C 0.22113 0.63863 0.55011
 C764 C 0.19902 0.65470 0.55878
 C765 C 0.19073 0.66778 0.51161
 C766 C 0.21339 0.65165 0.50383
 N767 N 0.22818 0.63762 0.52309
 H768 H 0.26612 0.67367 0.49623
 H769 H 0.31440 0.60151 0.50041
 H770 H 0.35561 0.62657 0.48272
 H771 H 0.30610 0.70032 0.47804
 H772 H 0.23241 0.62679 0.56511
 H773 H 0.19388 0.65506 0.58043
 H774 H 0.17916 0.67879 0.49607
 H775 H 0.21909 0.65011 0.48240
 C776 C 0.21993 0.56686 0.43938
 C777 C 0.28828 0.56763 0.59015
 C778 C 0.18344 0.66952 0.53947
 C779 C 0.33421 0.66559 0.47875
 C780 C 0.78246 0.91211 0.47428
 H781 H 0.79495 0.91237 0.49260
 C782 C 0.79224 0.92506 0.45025
 H783 H 0.81222 0.93551 0.45033
 C784 C 0.74189 0.89694 0.45161
 H785 H 0.72267 0.88529 0.45194
 C786 C 0.75066 0.90995 0.42728
 H787 H 0.73793 0.90823 0.40920
 N788 N 0.75794 0.89798 0.47440
 C789 C 0.72838 0.88382 0.55798
 H790 H 0.72756 0.86162 0.55741
 C791 C 0.72100 0.89724 0.58188
 H792 H 0.71421 0.88514 0.59957
 C793 C 0.73841 0.92630 0.53534
 H794 H 0.74541 0.93738 0.51712
 C795 C 0.73071 0.94069 0.55886
 H796 H 0.73182 0.96292 0.55863
 Zn797 Zn 0.74848 0.87643 0.50576
 N798 N 0.73742 0.89834 0.53555
 C799 C 0.79241 0.86331 0.54029
 N800 N 0.78060 0.85627 0.51618
 C801 C 0.79298 0.83773 0.49942
 C802 C 0.81805 0.82525 0.50705
 C803 C 0.81732 0.85169 0.54848
 C804 C 0.69288 0.86721 0.49712
 C805 C 0.66857 0.85346 0.49002
 C806 C 0.69523 0.81194 0.48487
 C807 C 0.71911 0.82648 0.49250
 N808 N 0.71756 0.85379 0.49782
 H809 H 0.78320 0.87881 0.55295
 H810 H 0.78384 0.83316 0.47984
 H811 H 0.82791 0.81085 0.49341
 H812 H 0.82626 0.85801 0.56769
 H813 H 0.69223 0.88891 0.50150
 H814 H 0.64935 0.86487 0.48898
 H815 H 0.69688 0.79039 0.47996
 H816 H 0.73883 0.81608 0.49356
 C817 C 0.72228 0.92603 0.58264
 C818 C 0.77646 0.92367 0.42621
 C819 C 0.66960 0.82559 0.48324
 C820 C 0.83067 0.83260 0.53175
 C821 C -0.02408 0.27358 0.39609
 H822 H -0.00442 0.28457 0.39600
 C823 C -0.04687 0.28386 0.41060
 H824 H -0.04444 0.30271 0.42184
 C825 C -0.05137 0.23633 0.38049
 H826 H -0.05337 0.21824 0.36813
 C827 C -0.07457 0.24568 0.39496
 H828 H -0.09406 0.23448 0.39363
 N829 N -0.02679 0.25040 0.38115
 C830 C 0.05565 0.21710 0.36490
 H831 H 0.05479 0.21680 0.34275
 C832 C 0.07914 0.20732 0.37830
 H833 H 0.09624 0.19940 0.36623
 C834 C 0.03401 0.22760 0.40729
 H835 H 0.01628 0.23543 0.41843
 C836 C 0.05704 0.21767 0.42160
 H837 H 0.05686 0.21806 0.44379
 Zn838 Zn 0.00344 0.23992 0.35842
 N839 N 0.03387 0.22730 0.37942
 C840 C 0.04051 0.28185 0.34269
 N841 N 0.01477 0.27145 0.33757
 C842 C -0.00339 0.28540 0.32133
 C843 C 0.00394 0.31130 0.31024
 C844 C 0.04854 0.30745 0.33224
 C845 C -0.01024 0.18618 0.35166
 C846 C -0.01992 0.16240 0.33952
 C847 C -0.02373 0.18755 0.29662
 C848 C -0.01373 0.21108 0.30970
 N849 N -0.00778 0.20999 0.33691
 H850 H 0.05448 0.27111 0.35619
 H851 H -0.02401 0.27708 0.31810
 H852 H -0.01106 0.32269 0.29827
 H853 H 0.06886 0.31552 0.33741
 H854 H -0.00528 0.18590 0.37324
 H855 H -0.02213 0.14395 0.35208
 H856 H -0.02915 0.18881 0.27515
 H857 H -0.01138 0.23022 0.29833
 C858 C 0.08007 0.20750 0.40703
 C859 C -0.07266 0.27004 0.40984
 C860 C -0.02736 0.16290 0.31178
 C861 C 0.02995 0.32290 0.31643
 C862 C 1.05274 0.76850 0.06787
 H863 H 1.03728 0.75810 0.05578
 C864 C 1.07792 0.77718 0.05567
 H865 H 1.08160 0.77341 0.03413
 C866 C 1.06687 0.78592 0.11064
 H867 H 1.06242 0.78925 0.13211
 C868 C 1.09222 0.79473 0.09940
 H869 H 1.10700 0.80494 0.11247
 N870 N 1.04786 0.77274 0.09500
 C871 C 0.99190 0.72051 0.07828
 H872 H 1.01052 0.70915 0.08312
 C873 C 0.97049 0.70793 0.06378
 H874 H 0.97303 0.68693 0.05727
 C875 C 0.96544 0.76115 0.08236
 H876 H 0.96333 0.78168 0.09020
 C877 C 0.94363 0.74947 0.06772
 H878 H 0.92492 0.76126 0.06444
 Zn879 Zn 1.01479 0.76006 0.11305
 N880 N 0.98869 0.74637 0.08786
 C881 C 0.97711 0.78400 0.15025
 N882 N 0.99824 0.78955 0.13218
 C883 C 1.00671 0.81585 0.12676
 C884 C 0.99415 0.83775 0.14009
 C885 C 0.96379 0.80531 0.16386
 C886 C 1.05061 0.72628 0.14465
 C887 C 1.05756 0.70451 0.16206
 C888 C 1.00896 0.69180 0.16518
 C889 C 1.00286 0.71419 0.14794
 N890 N 1.02361 0.73098 0.13808
 H891 H 0.97031 0.76306 0.15391
 H892 H 1.02282 0.82003 0.11164
 H893 H 1.00111 0.85850 0.13529
 H894 H 0.94694 0.80040 0.17807
 H895 H 1.06705 0.73906 0.13621
 H896 H 1.07927 0.70123 0.16677
 H897 H 0.99223 0.67852 0.17258
 H898 H 0.98160 0.71772 0.14186
 C899 C 0.94565 0.72221 0.05896
 C900 C 1.09817 0.79025 0.07161
 C901 C 1.03667 0.68680 0.17247
 C902 C 0.97229 0.83262 0.15884
 C903 C 0.52522 0.27295 0.57791
 H904 H 0.50559 0.28344 0.57580
 C905 C 0.54847 0.28211 0.56269
 H906 H 0.54633 0.29942 0.54868
 C907 C 0.55226 0.23878 0.59986
 H908 H 0.55402 0.22229 0.61478
 C909 C 0.57594 0.24729 0.58520
 H910 H 0.59541 0.23690 0.58891
 N911 N 0.52753 0.25173 0.59625
 C912 C 0.44748 0.21313 0.61515
 H913 H 0.45208 0.20804 0.63624
 C914 C 0.42378 0.20209 0.60337
 H915 H 0.41021 0.18903 0.61587
 C916 C 0.46031 0.23533 0.57329
 H917 H 0.47484 0.24790 0.56152
 C918 C 0.43645 0.22483 0.56064
 H919 H 0.43285 0.22949 0.53920
 Zn920 Zn 0.49725 0.24093 0.61976
 N921 N 0.46528 0.22939 0.60018
 C922 C 0.46539 0.26643 0.66071
 N923 N 0.48724 0.27032 0.64308
 C924 C 0.50101 0.29487 0.64153
 C925 C 0.49219 0.31697 0.65732
 C926 C 0.45590 0.28791 0.67683
 C927 C 0.51066 0.18606 0.62744
 C928 C 0.51895 0.16227 0.64124
 C929 C 0.52268 0.18846 0.68274
 C930 C 0.51408 0.21180 0.66812
 N931 N 0.50847 0.21017 0.64094
 H932 H 0.45501 0.24673 0.66210
 H933 H 0.51863 0.29753 0.62780
 H934 H 0.50309 0.33647 0.65533
 H935 H 0.43814 0.28434 0.69030
 H936 H 0.50607 0.18542 0.60580
 H937 H 0.52077 0.14340 0.62993
 H938 H 0.52737 0.19016 0.70430
 H939 H 0.51224 0.23124 0.67838
 C940 C 0.41798 0.20773 0.57575
 C941 C 0.57439 0.26946 0.56657
 C942 C 0.52530 0.16328 0.66922
 C943 C 0.46904 0.31377 0.67495
 C944 C 0.49363 0.77321 0.90003
 H945 H 0.51389 0.78291 0.89786
 C946 C 0.47217 0.78664 0.91388
 H947 H 0.47625 0.80657 0.92261
 C948 C 0.46340 0.73609 0.89007
 H949 H 0.45967 0.71682 0.88006
 C950 C 0.44150 0.74861 0.90398
 H951 H 0.42133 0.73853 0.90467
 N952 N 0.48883 0.74853 0.88819
 C953 C 0.56679 0.70604 0.87188
 H954 H 0.56309 0.70135 0.85062
 C955 C 0.59119 0.69730 0.88432
 H956 H 0.60606 0.68567 0.87248
 C957 C 0.55169 0.72703 0.91286
 H958 H 0.53625 0.73875 0.92379
 C959 C 0.57575 0.71827 0.92631
 H960 H 0.57866 0.72337 0.94761
 Zn961 Zn 0.51696 0.73339 0.86545
 N962 N 0.54796 0.72120 0.88596
 C963 C 0.55662 0.76702 0.83815
 N964 N 0.52892 0.76139 0.84029
 C965 C 0.50990 0.77786 0.82785
 C966 C 0.51855 0.80178 0.81365
 C967 C 0.56613 0.79031 0.82396
 C968 C 0.49839 0.67999 0.86467
 C969 C 0.48776 0.65559 0.85451
 C970 C 0.48663 0.67670 0.80936
 C971 C 0.49737 0.70093 0.82049
 N972 N 0.50265 0.70213 0.84779
 H973 H 0.57155 0.75424 0.84845
 H974 H 0.48793 0.77322 0.83020
 H975 H 0.50308 0.81528 0.80489
 H976 H 0.58829 0.79454 0.82340
 H977 H 0.50307 0.68148 0.88624
 H978 H 0.48434 0.63843 0.86859
 H979 H 0.48213 0.67611 0.78768
 H980 H 0.50124 0.71876 0.80744
 C981 C 0.59607 0.70358 0.91181
 C982 C 0.44556 0.77447 0.91569
 C983 C 0.48147 0.65368 0.82656
 C984 C 0.54703 0.80858 0.81221
 N985 N 0.47449 -0.11560 0.32095
 C986 C 0.46431 -0.14085 0.31457
 N987 N 0.44362 -0.14231 0.29587
 N988 N 0.43339 -0.11963 0.28432
 C989 C 0.44331 -0.09443 0.29097
 N990 N 0.46416 -0.09288 0.30947
 N991 N 0.93399 0.35562 0.78117
 C992 C 0.95252 0.35784 0.80186
 N993 N 0.96055 0.38340 0.80960
 N994 N 0.95027 0.40576 0.79740
 C995 C 0.93154 0.40352 0.77687
 N996 N 0.92378 0.37797 0.76892
 N997 N 0.05678 1.15426 0.81056
 C998 C 0.02910 1.15476 0.81637
 N999 N 0.01410 1.13110 0.81415
 N1000 N 0.02632 1.10791 0.80647
 C1001 C 0.05409 1.10739 0.80100
 N1002 N 0.06901 1.13108 0.80308
 N1003 N 0.57070 0.66213 0.29973
 C1004 C 0.54334 0.66168 0.30694
 N1005 N 0.52858 0.63803 0.30367
 N1006 N 0.54076 0.61570 0.29380
 C1007 C 0.56826 0.61606 0.28706
 N1008 N 0.58291 0.63979 0.29004
 N1009 N 0.53520 0.39573 0.17158
 C1010 C 0.53341 0.37177 0.18620
 N1011 N 0.54389 0.37100 0.21194
 N1012 N 0.55593 0.39316 0.22247
 C1013 C 0.55797 0.41704 0.20773
 N1014 N 0.54722 0.41788 0.18210
 N1015 N 0.04610 0.88281 0.67549
 C1016 C 0.04208 0.85863 0.68930
 N1017 N 0.04528 0.85809 0.71694
 N1018 N 0.05275 0.88076 0.73010
 C1019 C 0.05699 0.90490 0.71619
 N1020 N 0.05334 0.90546 0.68865
 N1021 N 0.92892 0.65443 0.67941
 C1022 C 0.95686 0.65560 0.67508
 N1023 N 0.97192 0.63241 0.67935
 N1024 N 0.95955 0.60903 0.68754
 C1025 C 0.93156 0.60781 0.69158
 N1026 N 0.91654 0.63103 0.68746
 N1027 N 0.43061 0.16348 0.21010
 C1028 C 0.45693 0.16545 0.19985
 N1029 N 0.47291 0.14250 0.19988
 N1030 N 0.46282 0.11855 0.20945
 C1031 C 0.43628 0.11655 0.21923
 N1032 N 0.42052 0.13958 0.21956
 N1033 N 0.27973 0.44725 -0.13187
 C1034 C 0.30799 0.44814 -0.13286
 N1035 N 0.32221 0.44233 -0.10958
 N1036 N 0.30879 0.43567 -0.08635
 C1037 C 0.28055 0.43446 -0.08542
 N1038 N 0.26630 0.44041 -0.10867
 N1039 N 0.82580 0.94794 0.37248
 C1040 C 0.80899 0.95196 0.35059
 N1041 N 0.78120 0.94748 0.35389
 N1042 N 0.77076 0.93891 0.37801
 C1043 C 0.78764 0.93476 0.39986
 N1044 N 0.81536 0.93957 0.39660
 N1045 N 0.78360 0.06657 1.15297
 C1046 C 0.79480 0.04114 1.15081
 N1047 N 0.79407 0.02878 1.12601
 N1048 N 0.78305 0.04141 1.10431
 C1049 C 0.77234 0.06703 1.10643
 N1050 N 0.77267 0.07925 1.13125
 N1051 N 0.30862 0.51427 0.64084
 C1052 C 0.31488 0.52949 0.66310
 N1053 N 0.31189 0.55718 0.66134
 N1054 N 0.30326 0.56915 0.63826
 C1055 C 0.29715 0.55398 0.61595
 N1056 N 0.29982 0.52625 0.61777
 N1057 N 0.16384 0.54647 0.39255
 C1058 C 0.17794 0.54201 0.36878
 N1059 N 0.20610 0.54468 0.36860
 N1060 N 0.21953 0.55198 0.39115
 C1061 C 0.20537 0.55667 0.41487
 N1062 N 0.17726 0.55361 0.41512
 N1063 N 0.66063 0.04584 0.88101
 C1064 C 0.67815 0.04088 0.85965
 N1065 N 0.70544 0.04808 0.86212
 N1066 N 0.71461 0.06003 0.88477
 C1067 C 0.69682 0.06540 0.90582
 N1068 N 0.66971 0.05791 0.90350
 N1069 N 0.69752 0.97851 0.63099
 C1070 C 0.69725 0.96427 0.65522
 N1071 N 0.70622 0.93791 0.65547
 N1072 N 0.71468 0.92610 0.63249
 C1073 C 0.71460 0.94014 0.60822
 N1074 N 0.70617 0.96672 0.60795
 N1075 N 0.17685 0.48165 0.14244
 C1076 C 0.17043 0.46613 0.16511
 N1077 N 0.17262 0.43842 0.16363
 N1078 N 0.18062 0.42667 0.14044
 C1079 C 0.18687 0.44211 0.11772
 N1080 N 0.18505 0.46989 0.11924
 N1081 N -0.14449 0.27794 0.43665
 C1082 C -0.14462 0.30471 0.44411
 N1083 N -0.12074 0.31965 0.44110
 N1084 N -0.09779 0.30846 0.43082
 C1085 C -0.09772 0.28182 0.42300
 N1086 N -0.12154 0.26676 0.42621
 N1087 N 0.40195 0.82976 0.94394
 C1088 C 0.37730 0.81660 0.94887
 N1089 N 0.37545 0.78935 0.94354
 N1090 N 0.39722 0.77592 0.93341
 C1091 C 0.42182 0.78911 0.92833
 N1092 N 0.42375 0.81631 0.93392
 N1093 N 1.16992 0.81763 0.06593
 C1094 C 1.17496 0.81738 0.03852
 N1095 N 1.15471 0.80767 0.02189
 N1096 N 1.13043 0.79874 0.03229
 C1097 C 1.12535 0.79929 0.05974
 N1098 N 1.14569 0.80878 0.07630
 N1099 N 0.64853 0.28115 0.54841
 C1100 C 0.64716 0.30118 0.52878
 N1101 N 0.62166 0.31023 0.52110
 N1102 N 0.59854 0.29992 0.53273
 C1103 C 0.59993 0.28003 0.55251
 N1104 N 0.62541 0.27078 0.55997
 N1105 N 0.36043 0.19195 0.52820
 C1106 C 0.34795 0.17005 0.54111
 N1107 N 0.35861 0.16089 0.56518
 N1108 N 0.38071 0.17299 0.57597
 C1109 C 0.39332 0.19476 0.56316
 N1110 N 0.38277 0.20402 0.53897
 N1111 N 0.87554 0.70920 0.03095
 C1112 C 0.87513 0.68139 0.02899
 N1113 N 0.89840 0.66728 0.03579
 N1114 N 0.92100 0.68033 0.04454
 C1115 C 0.92132 0.70809 0.04691
 N1116 N 0.89814 0.72227 0.03983
 N1117 N 0.66801 0.67916 0.92085
 C1118 C 0.66991 0.67664 0.94852
 N1119 N 0.64754 0.68358 0.96418
 N1120 N 0.62422 0.69258 0.95263
 C1121 C 0.62223 0.69473 0.92493
 N1122 N 0.64465 0.68796 0.90932
 N1123 N 0.12536 0.17951 0.46137
 C1124 C 0.14932 0.17442 0.44736
 N1125 N 0.15059 0.18087 0.42020
 N1126 N 0.12873 0.19167 0.40753
 C1127 C 0.10469 0.19656 0.42148
 N1128 N 0.10353 0.19044 0.44873
 N1129 N 0.55654 0.11795 0.72185
 C1130 C 0.55730 0.09338 0.70903
 N1131 N 0.54661 0.09174 0.68346
 N1132 N 0.53597 0.11380 0.67109
 C1133 C 0.53553 0.13845 0.68376
 N1134 N 0.54583 0.14001 0.70950
 N1135 N 1.07796 0.63952 0.21515
 C1136 C 1.06036 0.61786 0.21927
 N1137 N 1.03432 0.61933 0.20871
 N1138 N 1.02642 0.64147 0.19438
 C1139 C 1.04430 0.66292 0.18993
 N1140 N 1.07013 0.66152 0.20080
 N1141 N 0.95531 0.90234 0.18255
 C1142 C 0.93077 0.89806 0.19608
 N1143 N 0.92020 0.87210 0.19768
 N1144 N 0.93354 0.85131 0.18615
 C1145 C 0.95796 0.85561 0.17243
 N1146 N 0.96860 0.88155 0.17092
 N1147 N 0.45946 0.38380 0.70192
 C1148 C 0.43538 0.38099 0.71662
 N1149 N 0.42297 0.35583 0.71817
 N1150 N 0.43397 0.33448 0.70538
 C1151 C 0.45785 0.33731 0.69043
 N1152 N 0.47045 0.36242 0.68907
 N1153 N 0.44919 0.58472 0.82536
 C1154 C 0.44397 0.58124 0.79836
 N1155 N 0.45170 0.60155 0.78031
 N1156 N 0.46391 0.62451 0.78904
 C1157 C 0.46890 0.62799 0.81616
 N1158 N 0.46141 0.60752 0.83403
 N1159 N -0.05945 0.09424 0.30668
 C1160 C -0.06689 0.09321 0.27999
 N1161 N -0.06035 0.11495 0.26319
 N1162 N -0.04731 0.13702 0.27295
 C1163 C -0.04020 0.13807 0.29984
 N1164 N -0.04639 0.11612 0.31635
 N1165 N 0.03293 0.39105 0.28114
 C1166 C 0.05208 0.40449 0.29644
 N1167 N 0.06359 0.39096 0.31797
 N1168 N 0.05644 0.36515 0.32402
 C1169 C 0.03738 0.35162 0.30888
 N1170 N 0.02555 0.36512 0.28737
 N1171 N 0.54874 0.87965 0.78346
 C1172 C 0.57635 0.88587 0.78459
 N1173 N 0.59408 0.86619 0.79348
 N1174 N 0.58470 0.84153 0.80138
 C1175 C 0.55713 0.83534 0.80078
 N1176 N 0.53930 0.85488 0.79149
 N1177 N 0.72304 0.58158 0.12218
 C1178 C 0.72710 0.56472 0.10059
 N1179 N 0.71788 0.53823 0.10305
 N1180 N 0.70478 0.52932 0.12581
 C1181 C 0.70028 0.54655 0.14701
 N1182 N 0.70990 0.57276 0.14478
 N1183 N 0.19164 1.07818 0.62869
 C1184 C 0.19982 1.06016 0.60932
 N1185 N 0.19681 1.03280 0.61481
 N1186 N 0.18592 1.02394 0.63868
 C1187 C 0.17755 1.04210 0.65793
 N1188 N 0.18072 1.06936 0.65241
 N1189 N 0.22948 0.94410 0.87588
 C1190 C 0.21842 0.94223 0.90166
 N1191 N 0.19225 0.95193 0.90575
 N1192 N 0.17773 0.96253 0.88510
 C1193 C 0.18871 0.96407 0.85937
 N1194 N 0.21498 0.95479 0.85522
 N1195 N 0.71618 0.42308 0.36308
 C1196 C 0.71513 0.43396 0.38853
 N1197 N 0.70349 0.45907 0.39160
 N1198 N 0.69292 0.47252 0.37015
 C1199 C 0.69371 0.46149 0.34475
 N1200 N 0.70575 0.43658 0.34164
 N1201 N 0.77247 0.43929 0.60653
 C1202 C 0.79006 0.42849 0.58758
 N1203 N 0.81784 0.43202 0.59078
 N1204 N 0.82774 0.44559 0.61201
 C1205 C 0.81036 0.45620 0.63112
 N1206 N 0.78244 0.45281 0.62797
 N1207 N 0.34161 -0.05217 0.09962
 C1208 C 0.31418 -0.05401 0.09359
 N1209 N 0.29534 -0.04356 0.11155
 N1210 N 0.30368 -0.03205 0.13474
 C1211 C 0.33119 -0.03041 0.14080
 N1212 N 0.34991 -0.04059 0.12267
 N1213 N 0.31729 0.04330 0.40174
 C1214 C 0.28916 0.04254 0.40446
 N1215 N 0.27380 0.03411 0.38284
 N1216 N 0.28614 0.02697 0.35940
 C1217 C 0.31430 0.02835 0.35661
 N1218 N 0.32958 0.03645 0.37831
 N1219 N 0.82547 0.56674 0.87769
 C1220 C 0.80303 0.55584 0.89111
 N1221 N 0.78751 0.53646 0.87830
 N1222 N 0.79440 0.52832 0.85309
 C1223 C 0.81683 0.53957 0.83969
 N1224 N 0.83219 0.55883 0.85259
 N1225 N 0.11723 0.70796 0.54035
 C1226 C 0.11457 0.71405 0.56735
 N1227 N 0.13499 0.70613 0.58470
 N1228 N 0.15696 0.69244 0.57564
 C1229 C 0.15957 0.68608 0.54878
 N1230 N 0.13937 0.69431 0.53122
 N1231 N 0.58423 0.19474 1.05752
 C1232 C 0.58483 0.22204 1.06276
 N1233 N 0.60892 0.23626 1.05804
 N1234 N 0.63152 0.22364 1.04863
 C1235 C 0.63100 0.19623 1.04382
 N1236 N 0.60684 0.18211 1.04828
 N1237 N 0.88356 0.19951 0.95533
 C1238 C 0.88148 0.21927 0.93543
 N1239 N 0.85555 0.22770 0.92828
 N1240 N 0.83289 0.21660 0.94009
 C1241 C 0.83513 0.19669 0.95975
 N1242 N 0.86094 0.18853 0.96723
 N1243 N 0.40562 0.68211 0.45477
 C1244 C 0.40266 0.70746 0.44320
 N1245 N 0.37717 0.71932 0.44395
 N1246 N 0.35552 0.70627 0.45565
 C1247 C 0.35845 0.68077 0.46696
 N1248 N 0.38398 0.66904 0.46637
 N1249 N 0.59676 0.81281 0.46371
 C1250 C 0.59865 0.78917 0.44947
 N1251 N 0.62381 0.77670 0.44767
 N1252 N 0.64621 0.78770 0.45921
 C1253 C 0.64439 0.81168 0.47294
 N1254 N 0.61914 0.82384 0.47516
 N1255 N 0.07652 0.31992 -0.04010
 C1256 C 0.07868 0.29524 -0.05247
 N1257 N 0.10358 0.28219 -0.05187
 N1258 N 0.12547 0.29351 -0.03970
 C1259 C 0.12339 0.31841 -0.02772
 N1260 N 0.09840 0.33126 -0.02801
 N1261 N 0.35821 0.31297 0.09613
 C1262 C 0.37749 0.30150 0.07945
 N1263 N 0.37144 0.29878 0.05245
 N1264 N 0.34722 0.30759 0.04257
 C1265 C 0.32809 0.31937 0.05933
 N1266 N 0.33411 0.32170 0.08630
 N1267 N 0.89262 0.78825 0.53984
 C1268 C 0.90778 0.80275 0.55815
 N1269 N 0.89768 0.82705 0.56691
 N1270 N 0.87344 0.83641 0.55813
 C1271 C 0.85811 0.82196 0.54009
 N1272 N 0.86827 0.79774 0.53086
   
