data_POSCAR
  _audit_creation_date              2014-09-24
  _audit_creation_method            'ToBaCCo'
  _symmetry_space_group_name_H-M    'P1'
  _symmetry_Int_Tables_number       1
  _symmetry_cell_setting            triclinic
  loop_
  _symmetry_equiv_pos_as_xyz
 x,y,z
_cell_length_a 87.9418
_cell_length_b 88.0119
_cell_length_c 88.1722
_cell_angle_alpha 89.978900
_cell_angle_beta 89.980500
_cell_angle_gamma 89.940200
loop_
  _atom_site_label
  _atom_site_type_symbol
  _atom_site_fract_x
  _atom_site_fract_y
  _atom_site_fract_z
N1 N 0.36015 0.31794 0.32882
 N2 N 0.35993 0.32853 0.31828
 C3 C 0.37170 0.32628 0.30873
 C4 C 0.37958 0.31366 0.31362
 C5 C 0.37204 0.30861 0.32635
 H6 H 0.37439 0.33329 0.29902
 H7 H 0.37500 0.29891 0.33329
 Cu8 Cu 0.34435 0.34423 0.31827
 Cu9 Cu 0.34502 0.31701 0.34495
 Cu10 Cu 0.31708 0.34492 0.34492
 N11 N 0.32862 0.35980 0.31825
 N12 N 0.31802 0.36002 0.32878
 C13 C 0.30867 0.37189 0.32629
 C14 C 0.31373 0.37941 0.31355
 C15 C 0.32637 0.37154 0.30869
 H16 H 0.29895 0.37485 0.33321
 H17 H 0.33339 0.37423 0.29898
 N18 N 0.31808 0.32863 0.36027
 N19 N 0.32872 0.31801 0.36028
 C20 C 0.32630 0.30857 0.37208
 C21 C 0.31359 0.31353 0.37974
 C22 C 0.30862 0.32622 0.37206
 H23 H 0.33323 0.29882 0.37492
 H24 H 0.29886 0.33314 0.37489
 H25 H 0.32782 0.32772 0.33315
 H26 H 0.34008 0.33998 0.34530
 N27 N 0.36051 0.81815 -0.17148
 N28 N 0.36031 0.82875 -0.18202
 C29 C 0.37210 0.82652 -0.19155
 C30 C 0.37996 0.81388 -0.18665
 C31 C 0.37240 0.80881 -0.17394
 H32 H 0.37480 0.83353 -0.20126
 H33 H 0.37535 0.79911 -0.16699
 Cu34 Cu 0.34467 0.84443 -0.18203
 Cu35 Cu 0.34536 0.81721 -0.15537
 Cu36 Cu 0.31740 0.84509 -0.15539
 N37 N 0.32895 0.86003 -0.18205
 N38 N 0.31832 0.86023 -0.17152
 C39 C 0.30895 0.87209 -0.17401
 C40 C 0.31403 0.87964 -0.18673
 C41 C 0.32670 0.87179 -0.19160
 H42 H 0.29923 0.87502 -0.16709
 H43 H 0.33373 0.87449 -0.20130
 N44 N 0.31840 0.82878 -0.14003
 N45 N 0.32905 0.81817 -0.14003
 C46 C 0.32665 0.80872 -0.12823
 C47 C 0.31394 0.81365 -0.12056
 C48 C 0.30895 0.82634 -0.12823
 H49 H 0.33359 0.79898 -0.12540
 H50 H 0.29918 0.83325 -0.12539
 H51 H 0.32814 0.82791 -0.16716
 H52 H 0.34037 0.84017 -0.15500
 N53 N 0.85987 0.31849 -0.17132
 N54 N 0.85974 0.32915 -0.18179
 C55 C 0.87147 0.32685 -0.19136
 C56 C 0.87923 0.31411 -0.18657
 C57 C 0.87165 0.30906 -0.17387
 H58 H 0.87423 0.33389 -0.20103
 H59 H 0.87453 0.29929 -0.16699
 Cu60 Cu 0.84432 0.34503 -0.18175
 Cu61 Cu 0.84477 0.31761 -0.15519
 Cu62 Cu 0.81689 0.34552 -0.15517
 N63 N 0.82846 0.36047 -0.18178
 N64 N 0.81779 0.36062 -0.17130
 C65 C 0.80836 0.37242 -0.17383
 C66 C 0.81345 0.37997 -0.18654
 C67 C 0.82618 0.37220 -0.19135
 H68 H 0.79860 0.37531 -0.16695
 H69 H 0.83324 0.37494 -0.20102
 N70 N 0.81789 0.32926 -0.13981
 N71 N 0.82851 0.31863 -0.13982
 C72 C 0.82611 0.30920 -0.12801
 C73 C 0.81343 0.31418 -0.12032
 C74 C 0.80846 0.32687 -0.12799
 H75 H 0.83305 0.29945 -0.12518
 H76 H 0.79871 0.33380 -0.12515
 H77 H 0.82766 0.32841 -0.16713
 H78 H 0.83986 0.34058 -0.15479
 N79 N 0.85992 0.81836 0.32875
 N80 N 0.85970 0.82896 0.31821
 C81 C 0.87146 0.82671 0.30866
 C82 C 0.87934 0.81407 0.31354
 C83 C 0.87179 0.80902 0.32627
 H84 H 0.87415 0.83370 0.29894
 H85 H 0.87475 0.79932 0.33319
 Cu86 Cu 0.84407 0.84461 0.31821
 Cu87 Cu 0.84479 0.81742 0.34488
 Cu88 Cu 0.81685 0.84533 0.34487
 N89 N 0.82840 0.86023 0.31820
 N90 N 0.81778 0.86045 0.32873
 C91 C 0.80843 0.87231 0.32624
 C92 C 0.81350 0.87983 0.31350
 C93 C 0.82616 0.87198 0.30863
 H94 H 0.79871 0.87526 0.33317
 H95 H 0.83317 0.87465 0.29891
 N96 N 0.81784 0.82904 0.36021
 N97 N 0.82848 0.81841 0.36021
 C98 C 0.82607 0.80897 0.37201
 C99 C 0.81337 0.81393 0.37969
 C100 C 0.80840 0.82662 0.37201
 H101 H 0.83301 0.79923 0.37485
 H102 H 0.79864 0.83355 0.37485
 H103 H 0.82757 0.82812 0.33310
 H104 H 0.83984 0.84039 0.34523
 N105 N 0.63991 0.68206 0.32890
 N106 N 0.64005 0.67139 0.31844
 C107 C 0.62832 0.67369 0.30886
 C108 C 0.62055 0.68641 0.31365
 C109 C 0.62811 0.69148 0.32635
 H110 H 0.62558 0.66665 0.29920
 H111 H 0.62522 0.70125 0.33322
 Cu112 Cu 0.65545 0.65551 0.31847
 Cu113 Cu 0.65500 0.68294 0.34502
 Cu114 Cu 0.68291 0.65508 0.34501
 N115 N 0.67136 0.64013 0.31844
 N116 N 0.68204 0.64000 0.32889
 C117 C 0.69148 0.62822 0.32633
 C118 C 0.68642 0.62067 0.31362
 C119 C 0.67367 0.62842 0.30885
 H120 H 0.70126 0.62534 0.33319
 H121 H 0.66662 0.62568 0.29919
 N122 N 0.68190 0.67132 0.36037
 N123 N 0.67126 0.68194 0.36037
 C124 C 0.67364 0.69136 0.37219
 C125 C 0.68633 0.68639 0.37987
 C126 C 0.69132 0.67371 0.37219
 H127 H 0.66670 0.70110 0.37503
 H128 H 0.70108 0.66679 0.37503
 H129 H 0.67211 0.67217 0.33305
 H130 H 0.65994 0.66000 0.34543
 N131 N 0.63994 0.18162 -0.17117
 N132 N 0.64016 0.17105 -0.18171
 C133 C 0.62836 0.17328 -0.19122
 C134 C 0.62047 0.18590 -0.18631
 C135 C 0.62804 0.19095 -0.17361
 H136 H 0.62567 0.16631 -0.20096
 H137 H 0.62511 0.20066 -0.16669
 Cu138 Cu 0.65591 0.15549 -0.18195
 Cu139 Cu 0.65511 0.18260 -0.15512
 Cu140 Cu 0.68306 0.15474 -0.15513
 N141 N 0.67151 0.13979 -0.18174
 N142 N 0.68211 0.13958 -0.17120
 C143 C 0.69147 0.12771 -0.17367
 C144 C 0.68640 0.12016 -0.18638
 C145 C 0.67375 0.12801 -0.19127
 H146 H 0.70120 0.12480 -0.16675
 H147 H 0.66676 0.12533 -0.20100
 N148 N 0.68209 0.17107 -0.13983
 N149 N 0.67145 0.18168 -0.13983
 C150 C 0.67384 0.19114 -0.12806
 C151 C 0.68655 0.18621 -0.12038
 C152 C 0.69154 0.17351 -0.12804
 H153 H 0.66688 0.20086 -0.12523
 H154 H 0.70130 0.16660 -0.12520
 H155 H 0.67237 0.17196 -0.16698
 H156 H 0.66005 0.15960 -0.15493
 N157 N 0.13975 0.68180 -0.17102
 N158 N 0.13973 0.67098 -0.18131
 C159 C 0.12797 0.67321 -0.19085
 C160 C 0.12033 0.68608 -0.18622
 C161 C 0.12801 0.69128 -0.17364
 H162 H 0.12515 0.66609 -0.20044
 H163 H 0.12528 0.70121 -0.16694
 Cu164 Cu 0.15532 0.65530 -0.18122
 Cu165 Cu 0.15500 0.68288 -0.15501
 Cu166 Cu 0.18291 0.65492 -0.15500
 N167 N 0.17097 0.63968 -0.18130
 N168 N 0.18181 0.63967 -0.17101
 C169 C 0.19127 0.62793 -0.17364
 C170 C 0.18604 0.62026 -0.18621
 C171 C 0.17318 0.62792 -0.19084
 H172 H 0.20119 0.62517 -0.16693
 H173 H 0.16604 0.62513 -0.20043
 N174 N 0.18204 0.67132 -0.13979
 N175 N 0.17141 0.68196 -0.13979
 C176 C 0.17385 0.69141 -0.12802
 C177 C 0.18655 0.68644 -0.12036
 C178 C 0.19150 0.67374 -0.12801
 H179 H 0.16690 0.70115 -0.12516
 H180 H 0.20122 0.66678 -0.12515
 H181 H 0.17209 0.67202 -0.16690
 H182 H 0.15999 0.65996 -0.15437
 N183 N 0.13983 0.18193 0.32885
 N184 N 0.13997 0.17126 0.31840
 C185 C 0.12823 0.17352 0.30884
 C186 C 0.12045 0.18624 0.31362
 C187 C 0.12802 0.19133 0.32631
 H188 H 0.12552 0.16650 0.29915
 H189 H 0.12514 0.20112 0.33316
 Cu190 Cu 0.15562 0.15563 0.31840
 Cu191 Cu 0.15497 0.18289 0.34496
 Cu192 Cu 0.18292 0.15498 0.34494
 N193 N 0.17127 0.14000 0.31838
 N194 N 0.18196 0.13986 0.32882
 C195 C 0.19138 0.12807 0.32625
 C196 C 0.18628 0.12051 0.31355
 C197 C 0.17354 0.12829 0.30879
 H198 H 0.20118 0.12519 0.33308
 H199 H 0.16650 0.12558 0.29911
 N200 N 0.18192 0.17127 0.36027
 N201 N 0.17128 0.18189 0.36028
 C202 C 0.17367 0.19130 0.37209
 C203 C 0.18635 0.18633 0.37977
 C204 C 0.19134 0.17366 0.37208
 H205 H 0.16672 0.20104 0.37495
 H206 H 0.20109 0.16672 0.37493
 H207 H 0.17219 0.17221 0.33311
 H208 H 0.15997 0.15998 0.34534
 N209 N 0.63994 0.31796 0.67135
 N210 N 0.64029 0.32841 0.68201
 C211 C 0.62856 0.32613 0.69160
 C212 C 0.62056 0.31364 0.68660
 C213 C 0.62800 0.30870 0.67377
 H214 H 0.62596 0.33304 0.70140
 H215 H 0.62493 0.29913 0.66671
 Cu216 Cu 0.65596 0.34401 0.68201
 Cu217 Cu 0.65497 0.31710 0.65510
 Cu218 Cu 0.68290 0.34497 0.65510
 N219 N 0.67159 0.35965 0.68201
 N220 N 0.68206 0.35999 0.67134
 C221 C 0.69133 0.37191 0.67377
 C222 C 0.68638 0.37935 0.68660
 C223 C 0.67387 0.37136 0.69160
 H224 H 0.70092 0.37497 0.66672
 H225 H 0.66695 0.37396 0.70140
 N226 N 0.68182 0.32877 0.63967
 N227 N 0.67119 0.31816 0.63967
 C228 C 0.67358 0.30874 0.62786
 C229 C 0.68626 0.31370 0.62017
 C230 C 0.69124 0.32636 0.62785
 H231 H 0.66666 0.29899 0.62504
 H232 H 0.70102 0.33325 0.62502
 H233 H 0.67232 0.32763 0.66681
 H234 H 0.65992 0.34004 0.65493
 N235 N 0.63990 0.81813 1.17132
 N236 N 0.64000 0.82882 1.18175
 C237 C 0.62827 0.82654 1.19133
 C238 C 0.62053 0.81380 1.18657
 C239 C 0.62812 0.80871 1.17388
 H240 H 0.62551 0.83359 1.20099
 H241 H 0.62525 0.79894 1.16702
 Cu242 Cu 0.65539 0.84468 1.18173
 Cu243 Cu 0.65500 0.81722 1.15519
 Cu244 Cu 0.68289 0.84504 1.15521
 N245 N 0.67130 0.86003 1.18177
 N246 N 0.68200 0.86011 1.17134
 C247 C 0.69146 0.87186 1.17391
 C248 C 0.68637 0.87944 1.18659
 C249 C 0.67360 0.87173 1.19135
 H250 H 0.70125 0.87471 1.16705
 H251 H 0.66655 0.87449 1.20101
 N252 N 0.68190 0.82882 1.13985
 N253 N 0.67127 0.81822 1.13984
 C254 C 0.67367 0.80881 1.12802
 C255 C 0.68636 0.81378 1.12035
 C256 C 0.69133 0.82643 1.12804
 H257 H 0.66674 0.79908 1.12518
 H258 H 0.70109 0.83335 1.12521
 H259 H 0.67207 0.82798 1.16720
 H260 H 0.65991 0.84016 1.15479
 N261 N 0.13982 0.31825 1.17122
 N262 N 0.14003 0.32885 1.18173
 C263 C 0.12826 0.32663 1.19128
 C264 C 0.12041 0.31400 1.18643
 C265 C 0.12795 0.30892 1.17371
 H266 H 0.12558 0.33365 1.20099
 H267 H 0.12500 0.29922 1.16678
 Cu268 Cu 0.15565 0.34448 1.18172
 Cu269 Cu 0.15496 0.31727 1.15510
 Cu270 Cu 0.18286 0.34516 1.15507
 N271 N 0.17129 0.36009 1.18170
 N272 N 0.18190 0.36029 1.17118
 C273 C 0.19124 0.37215 1.17364
 C274 C 0.18617 0.37969 1.18636
 C275 C 0.17353 0.37185 1.19124
 H276 H 0.20095 0.37509 1.16670
 H277 H 0.16651 0.37454 1.20095
 N278 N 0.18190 0.32886 1.13976
 N279 N 0.17128 0.31824 1.13976
 C280 C 0.17371 0.30879 1.12798
 C281 C 0.18642 0.31374 1.12032
 C282 C 0.19136 0.32643 1.12797
 H283 H 0.16680 0.29904 1.12515
 H284 H 0.20111 0.33334 1.12513
 H285 H 0.17214 0.32797 1.16687
 H286 H 0.15987 0.34022 1.15471
 N287 N 0.13983 0.81830 0.67108
 N288 N 0.14002 0.82890 0.68160
 C289 C 0.12825 0.82667 0.69113
 C290 C 0.12040 0.81404 0.68627
 C291 C 0.12796 0.80897 0.67356
 H292 H 0.12558 0.83364 0.70088
 H293 H 0.12503 0.79925 0.66665
 Cu294 Cu 0.15574 0.84443 0.68183
 Cu295 Cu 0.15500 0.81731 0.65501
 Cu296 Cu 0.18289 0.84516 0.65501
 N297 N 0.17130 0.86013 0.68159
 N298 N 0.18192 0.86030 0.67107
 C299 C 0.19126 0.87215 0.67353
 C300 C 0.18619 0.87971 0.68624
 C301 C 0.17354 0.87189 0.69112
 H302 H 0.20099 0.87507 0.66662
 H303 H 0.16657 0.87456 0.70086
 N304 N 0.18195 0.82886 0.63971
 N305 N 0.17133 0.81825 0.63971
 C306 C 0.17376 0.80882 0.62791
 C307 C 0.18645 0.81378 0.62025
 C308 C 0.19141 0.82645 0.62792
 H309 H 0.16682 0.79909 0.62506
 H310 H 0.20115 0.83338 0.62508
 H311 H 0.17222 0.82794 0.66684
 H312 H 0.15989 0.84027 0.65478
 N313 N 0.36017 0.68193 0.67124
 N314 N 0.36005 0.67125 0.68168
 C315 C 0.37179 0.67350 0.69125
 C316 C 0.37955 0.68624 0.68648
 C317 C 0.37197 0.69134 0.67379
 H318 H 0.37451 0.66647 0.70093
 H319 H 0.37482 0.70113 0.66695
 Cu320 Cu 0.34442 0.65560 0.68167
 Cu321 Cu 0.34503 0.68291 0.65512
 Cu322 Cu 0.31713 0.65500 0.65510
 N323 N 0.32879 0.63996 0.68165
 N324 N 0.31811 0.63984 0.67121
 C325 C 0.30871 0.62804 0.67375
 C326 C 0.31381 0.62045 0.68643
 C327 C 0.32654 0.62822 0.69121
 H328 H 0.29893 0.62518 0.66690
 H329 H 0.33357 0.62550 0.70090
 N330 N 0.31810 0.67132 0.63977
 N331 N 0.32872 0.68194 0.63978
 C332 C 0.32631 0.69137 0.62797
 C333 C 0.31364 0.68641 0.62027
 C334 C 0.30868 0.67373 0.62795
 H335 H 0.33324 0.70111 0.62512
 H336 H 0.29894 0.66680 0.62510
 H337 H 0.32780 0.67221 0.66694
 H338 H 0.34005 0.66000 0.65471
 N339 N 0.36033 0.18169 1.17115
 N340 N 0.36012 0.17109 1.18168
 C341 C 0.37190 0.17330 1.19121
 C342 C 0.37977 0.18592 1.18632
 C343 C 0.37221 0.19100 1.17362
 H344 H 0.37458 0.16632 1.20094
 H345 H 0.37513 0.20073 1.16671
 Cu346 Cu 0.34442 0.15554 1.18190
 Cu347 Cu 0.34516 0.18268 1.15509
 Cu348 Cu 0.31728 0.15482 1.15510
 N349 N 0.32885 0.13986 1.18169
 N350 N 0.31825 0.13967 1.17116
 C351 C 0.30892 0.12780 1.17361
 C352 C 0.31399 0.12024 1.18631
 C353 C 0.32662 0.12808 1.19121
 H354 H 0.29919 0.12490 1.16670
 H355 H 0.33360 0.12538 1.20094
 N356 N 0.31820 0.17114 1.13981
 N357 N 0.32882 0.18175 1.13980
 C358 C 0.32638 0.19121 1.12802
 C359 C 0.31367 0.18626 1.12037
 C360 C 0.30873 0.17357 1.12804
 H361 H 0.33329 0.20095 1.12517
 H362 H 0.29898 0.16664 1.12521
 H363 H 0.32794 0.17204 1.16693
 H364 H 0.34028 0.15971 1.15486
 N365 N 0.86015 0.68178 1.17120
 N366 N 0.85997 0.67116 1.18171
 C367 C 0.87174 0.67339 1.19124
 C368 C 0.87959 0.68603 1.18637
 C369 C 0.87201 0.69111 1.17367
 H370 H 0.87443 0.66640 1.20097
 H371 H 0.87492 0.70084 1.16676
 Cu372 Cu 0.84427 0.65560 1.18191
 Cu373 Cu 0.84498 0.68276 1.15513
 Cu374 Cu 0.81712 0.65489 1.15513
 N375 N 0.82871 0.63991 1.18171
 N376 N 0.81810 0.63973 1.17119
 C377 C 0.80877 0.62787 1.17365
 C378 C 0.81384 0.62030 1.18635
 C379 C 0.82648 0.62813 1.19123
 H380 H 0.79904 0.62496 1.16674
 H381 H 0.83346 0.62544 1.20097
 N382 N 0.81804 0.67120 1.13984
 N383 N 0.82865 0.68182 1.13983
 C384 C 0.82621 0.69127 1.12805
 C385 C 0.81351 0.68631 1.12039
 C386 C 0.80857 0.67362 1.12806
 H387 H 0.83313 0.70102 1.12520
 H388 H 0.79883 0.66669 1.12523
 H389 H 0.82777 0.67210 1.16696
 H390 H 0.84010 0.65980 1.15488
 N391 N 0.86004 0.18183 0.67117
 N392 N 0.85967 0.17143 0.68187
 C393 C 0.87142 0.17368 0.69142
 C394 C 0.87945 0.18613 0.68636
 C395 C 0.87201 0.19106 0.67353
 H396 H 0.87399 0.16682 0.70127
 H397 H 0.87508 0.20063 0.66646
 Cu398 Cu 0.84391 0.15593 0.68229
 Cu399 Cu 0.84498 0.18269 0.65502
 Cu400 Cu 0.81715 0.15484 0.65503
 N401 N 0.82842 0.14017 0.68187
 N402 N 0.81803 0.13979 0.67116
 C403 C 0.80880 0.12782 0.67351
 C404 C 0.81374 0.12038 0.68634
 C405 C 0.82617 0.12840 0.69141
 H406 H 0.79924 0.12474 0.66644
 H407 H 0.83304 0.12583 0.70126
 N408 N 0.81814 0.17105 0.63966
 N409 N 0.82875 0.18167 0.63965
 C410 C 0.82632 0.19110 0.62784
 C411 C 0.81364 0.18612 0.62018
 C412 C 0.80869 0.17344 0.62786
 H413 H 0.83322 0.20086 0.62501
 H414 H 0.79894 0.16652 0.62504
 H415 H 0.82762 0.17220 0.66682
 H416 H 0.84017 0.15969 0.65514
 N417 N 0.31797 0.36010 0.67115
 N418 N 0.32863 0.35995 0.68163
 C419 C 0.32633 0.37167 0.69119
 C420 C 0.31362 0.37946 0.68639
 C421 C 0.30855 0.37191 0.67368
 H422 H 0.33338 0.37441 0.70086
 H423 H 0.29879 0.37481 0.66681
 Cu424 Cu 0.34452 0.34457 0.68160
 Cu425 Cu 0.31707 0.34502 0.65503
 Cu426 Cu 0.34496 0.31713 0.65505
 N427 N 0.35991 0.32867 0.68164
 N428 N 0.36005 0.31802 0.67117
 C429 C 0.37186 0.30860 0.67371
 C430 C 0.37942 0.31366 0.68641
 C431 C 0.37164 0.32637 0.69121
 H432 H 0.37475 0.29883 0.66684
 H433 H 0.37438 0.33341 0.70087
 N434 N 0.32871 0.31815 0.63969
 N435 N 0.31808 0.32878 0.63969
 C436 C 0.30865 0.32638 0.62789
 C437 C 0.31362 0.31369 0.62022
 C438 C 0.32631 0.30872 0.62790
 H439 H 0.29889 0.33331 0.62505
 H440 H 0.33324 0.29896 0.62508
 H441 H 0.32787 0.32795 0.66701
 H442 H 0.34006 0.34011 0.65464
 N443 N 0.31815 0.86031 0.17093
 N444 N 0.32883 0.86018 0.18138
 C445 C 0.32655 0.87192 0.19093
 C446 C 0.31382 0.87969 0.18614
 C447 C 0.30873 0.87211 0.17346
 H448 H 0.33360 0.87467 0.20059
 H449 H 0.29897 0.87500 0.16658
 Cu450 Cu 0.34469 0.84476 0.18138
 Cu451 Cu 0.31725 0.84520 0.15483
 Cu452 Cu 0.34513 0.81730 0.15488
 N453 N 0.36010 0.82889 0.18144
 N454 N 0.36022 0.81821 0.17100
 C455 C 0.37201 0.80877 0.17357
 C456 C 0.37958 0.81386 0.18626
 C457 C 0.37182 0.82660 0.19102
 H458 H 0.37490 0.79900 0.16671
 H459 H 0.37456 0.83365 0.20067
 N460 N 0.32888 0.81830 0.13953
 N461 N 0.31825 0.82893 0.13951
 C462 C 0.30883 0.82653 0.12770
 C463 C 0.31381 0.81384 0.12004
 C464 C 0.32649 0.80887 0.12773
 H465 H 0.29908 0.83346 0.12485
 H466 H 0.33342 0.79911 0.12491
 H467 H 0.32803 0.82812 0.16684
 H468 H 0.34022 0.84027 0.15445
 N469 N 0.81831 0.36055 0.17088
 N470 N 0.82915 0.36056 0.18117
 C471 C 0.82694 0.37233 0.19070
 C472 C 0.81409 0.37999 0.18606
 C473 C 0.80886 0.37231 0.17350
 H474 H 0.83408 0.37512 0.20029
 H475 H 0.79893 0.37506 0.16680
 Cu476 Cu 0.84480 0.34494 0.18110
 Cu477 Cu 0.81721 0.34530 0.15488
 Cu478 Cu 0.84513 0.31735 0.15491
 N479 N 0.86039 0.32927 0.18120
 N480 N 0.86038 0.31843 0.17092
 C481 C 0.87211 0.30896 0.17356
 C482 C 0.87979 0.31418 0.18613
 C483 C 0.87215 0.32705 0.19075
 H484 H 0.87485 0.29903 0.16687
 H485 H 0.87496 0.33418 0.20033
 N486 N 0.82872 0.31825 0.13968
 N487 N 0.81809 0.32889 0.13967
 C488 C 0.80863 0.32646 0.12789
 C489 C 0.81359 0.31376 0.12024
 C490 C 0.82629 0.30880 0.12791
 H491 H 0.79891 0.33342 0.12502
 H492 H 0.83324 0.29907 0.12506
 H493 H 0.82804 0.32821 0.16679
 H494 H 0.84013 0.34026 0.15426
 N495 N 0.81820 0.86054 0.67103
 N496 N 0.82883 0.86036 0.68153
 C497 C 0.82660 0.87215 0.69104
 C498 C 0.81397 0.88003 0.68615
 C499 C 0.80888 0.87244 0.67347
 H500 H 0.83361 0.87483 0.70074
 H501 H 0.79913 0.87537 0.66658
 Cu502 Cu 0.84441 0.84464 0.68174
 Cu503 Cu 0.81723 0.84536 0.65498
 Cu504 Cu 0.84512 0.81745 0.65500
 N505 N 0.86011 0.82905 0.68155
 N506 N 0.86028 0.81842 0.67105
 C507 C 0.87216 0.80908 0.67352
 C508 C 0.87974 0.81415 0.68620
 C509 C 0.87188 0.82680 0.69107
 H510 H 0.87508 0.79933 0.66663
 H511 H 0.87458 0.83380 0.70078
 N512 N 0.82879 0.81839 0.63971
 N513 N 0.81817 0.82902 0.63970
 C514 C 0.80871 0.82659 0.62792
 C515 C 0.81367 0.81389 0.62027
 C516 C 0.82638 0.80893 0.62794
 H517 H 0.79896 0.83353 0.62507
 H518 H 0.83332 0.79919 0.62511
 H519 H 0.82792 0.82812 0.66685
 H520 H 0.84024 0.84041 0.65473
 N521 N 0.68181 0.63963 0.67121
 N522 N 0.67098 0.63963 0.68152
 C523 C 0.67320 0.62786 0.69106
 C524 C 0.68606 0.62020 0.68641
 C525 C 0.69128 0.62789 0.67383
 H526 H 0.66607 0.62505 0.70065
 H527 H 0.70120 0.62514 0.66712
 Cu528 Cu 0.65530 0.65524 0.68143
 Cu529 Cu 0.68289 0.65488 0.65519
 Cu530 Cu 0.65495 0.68282 0.65522
 N531 N 0.63969 0.67091 0.68154
 N532 N 0.63970 0.68174 0.67124
 C533 C 0.62795 0.69121 0.67387
 C534 C 0.62026 0.68600 0.68645
 C535 C 0.62792 0.67314 0.69109
 H536 H 0.62521 0.70113 0.66717
 H537 H 0.62511 0.66601 0.70068
 N538 N 0.67136 0.68193 0.63997
 N539 N 0.68200 0.67130 0.63996
 C540 C 0.69145 0.67373 0.62817
 C541 C 0.68649 0.68643 0.62051
 C542 C 0.67378 0.69139 0.62819
 H543 H 0.70118 0.66677 0.62530
 H544 H 0.66683 0.70111 0.62533
 H545 H 0.67205 0.67197 0.66709
 H546 H 0.65997 0.65992 0.65458
 N547 N 0.68204 0.13943 0.17101
 N548 N 0.67141 0.13961 0.18152
 C549 C 0.67364 0.12782 0.19103
 C550 C 0.68627 0.11996 0.18614
 C551 C 0.69136 0.12754 0.17345
 H552 H 0.66663 0.12513 0.20075
 H553 H 0.70111 0.12462 0.16655
 Cu554 Cu 0.65584 0.15532 0.18174
 Cu555 Cu 0.68302 0.15461 0.15496
 Cu556 Cu 0.65512 0.18251 0.15500
 N557 N 0.64013 0.17090 0.18156
 N558 N 0.63994 0.18153 0.17106
 C559 C 0.62806 0.19086 0.17353
 C560 C 0.62049 0.18578 0.18623
 C561 C 0.62835 0.17313 0.19109
 H562 H 0.62514 0.20061 0.16664
 H563 H 0.62566 0.16613 0.20081
 N564 N 0.67145 0.18158 0.13970
 N565 N 0.68208 0.17096 0.13969
 C566 C 0.69154 0.17340 0.12791
 C567 C 0.68658 0.18611 0.12026
 C568 C 0.67387 0.19105 0.12793
 H569 H 0.70129 0.16647 0.12506
 H570 H 0.66693 0.20080 0.12511
 H571 H 0.67234 0.17181 0.16684
 H572 H 0.66003 0.15952 0.15473
 N573 N 0.18187 0.63984 0.17106
 N574 N 0.17139 0.64018 0.18170
 C575 C 0.17365 0.62846 0.19128
 C576 C 0.18616 0.62045 0.18630
 C577 C 0.19114 0.62789 0.17348
 H578 H 0.16673 0.62589 0.20109
 H579 H 0.20073 0.62481 0.16644
 Cu580 Cu 0.15581 0.65589 0.18186
 Cu581 Cu 0.18275 0.65489 0.15486
 Cu582 Cu 0.15484 0.68283 0.15488
 N583 N 0.14013 0.67149 0.18173
 N584 N 0.13980 0.68198 0.17109
 C585 C 0.12787 0.69127 0.17354
 C586 C 0.12044 0.68631 0.18637
 C587 C 0.12842 0.67378 0.19133
 H588 H 0.12480 0.70087 0.16651
 H589 H 0.12584 0.66687 0.20114
 N590 N 0.17107 0.68175 0.13947
 N591 N 0.18170 0.67112 0.13946
 C592 C 0.19113 0.67351 0.12765
 C593 C 0.18617 0.68620 0.11998
 C594 C 0.17348 0.69118 0.12766
 H595 H 0.20090 0.66660 0.12483
 H596 H 0.16658 0.70096 0.12485
 H597 H 0.17219 0.67223 0.16661
 H598 H 0.15978 0.65986 0.15473
 N599 N 0.18173 0.13943 0.67115
 N600 N 0.17112 0.13963 0.68169
 C601 C 0.17335 0.12783 0.69119
 C602 C 0.18597 0.11994 0.68629
 C603 C 0.19105 0.12752 0.67359
 H604 H 0.16635 0.12515 0.70092
 H605 H 0.20077 0.12460 0.66667
 Cu606 Cu 0.15554 0.15536 0.68190
 Cu607 Cu 0.18269 0.15462 0.65510
 Cu608 Cu 0.15479 0.18254 0.65512
 N609 N 0.13982 0.17096 0.68171
 N610 N 0.13963 0.18157 0.67118
 C611 C 0.12774 0.19090 0.67364
 C612 C 0.12017 0.18584 0.68635
 C613 C 0.12804 0.17321 0.69123
 H614 H 0.12482 0.20063 0.66673
 H615 H 0.12535 0.16622 0.70096
 N616 N 0.17113 0.18159 0.63982
 N617 N 0.18176 0.17097 0.63981
 C618 C 0.19121 0.17340 0.62803
 C619 C 0.18625 0.18611 0.62037
 C620 C 0.17355 0.19106 0.62805
 H621 H 0.20096 0.16648 0.62517
 H622 H 0.16661 0.20081 0.62522
 H623 H 0.17200 0.17186 0.66695
 H624 H 0.15967 0.15956 0.65487
 N625 N 0.31804 0.63971 0.32871
 N626 N 0.32874 0.63983 0.31827
 C627 C 0.32649 0.62810 0.30870
 C628 C 0.31375 0.62035 0.31348
 C629 C 0.30864 0.62793 0.32616
 H630 H 0.33353 0.62538 0.29902
 H631 H 0.29883 0.62507 0.33300
 Cu632 Cu 0.34437 0.65544 0.31827
 Cu633 Cu 0.31704 0.65485 0.34481
 Cu634 Cu 0.34496 0.68273 0.34480
 N635 N 0.36001 0.67107 0.31825
 N636 N 0.36012 0.68175 0.32869
 C637 C 0.37192 0.69114 0.32614
 C638 C 0.37952 0.68604 0.31347
 C639 C 0.37175 0.67332 0.30869
 H640 H 0.37477 0.70093 0.33298
 H641 H 0.37449 0.66628 0.29901
 N642 N 0.32863 0.68176 0.36012
 N643 N 0.31801 0.67115 0.36013
 C644 C 0.30857 0.67356 0.37193
 C645 C 0.31354 0.68623 0.37961
 C646 C 0.32622 0.69119 0.37192
 H647 H 0.29883 0.66663 0.37479
 H648 H 0.33316 0.70092 0.37477
 H649 H 0.32772 0.67203 0.33296
 H650 H 0.33995 0.65981 0.34521
 N651 N 0.31815 0.13941 0.82899
 N652 N 0.32899 0.13940 0.81869
 C653 C 0.32677 0.12766 0.80913
 C654 C 0.31391 0.12003 0.81377
 C655 C 0.30869 0.12769 0.82636
 H656 H 0.33390 0.12486 0.79954
 H657 H 0.29876 0.12495 0.83306
 Cu658 Cu 0.34464 0.15499 0.81878
 Cu659 Cu 0.31704 0.15463 0.84501
 Cu660 Cu 0.34495 0.18254 0.84500
 N661 N 0.36024 0.17065 0.81868
 N662 N 0.36021 0.18147 0.82898
 C663 C 0.37194 0.19093 0.82635
 C664 C 0.37964 0.18572 0.81377
 C665 C 0.37200 0.17287 0.80913
 H666 H 0.37467 0.20085 0.83306
 H667 H 0.37482 0.16575 0.79954
 N668 N 0.32854 0.18165 0.86024
 N669 N 0.31792 0.17103 0.86024
 C670 C 0.30847 0.17345 0.87203
 C671 C 0.31341 0.18613 0.87969
 C672 C 0.32611 0.19109 0.87202
 H673 H 0.29875 0.16650 0.87490
 H674 H 0.33305 0.20081 0.87488
 H675 H 0.32785 0.17171 0.83312
 H676 H 0.33995 0.15963 0.84563
 N677 N 0.81820 0.63979 0.82890
 N678 N 0.82890 0.63989 0.81846
 C679 C 0.82662 0.62816 0.80890
 C680 C 0.81387 0.62042 0.81367
 C681 C 0.80878 0.62802 0.82635
 H682 H 0.83369 0.62539 0.79924
 H683 H 0.79900 0.62516 0.83322
 Cu684 Cu 0.84478 0.65529 0.81848
 Cu685 Cu 0.81729 0.65490 0.84501
 Cu686 Cu 0.84512 0.68278 0.84498
 N687 N 0.86015 0.67120 0.81843
 N688 N 0.86023 0.68189 0.82886
 C689 C 0.87198 0.69134 0.82629
 C690 C 0.87959 0.68626 0.81361
 C691 C 0.87188 0.67350 0.80886
 H692 H 0.87482 0.70112 0.83315
 H693 H 0.87467 0.66645 0.79920
 N694 N 0.82887 0.68178 0.86034
 N695 N 0.81826 0.67116 0.86036
 C696 C 0.80884 0.67355 0.87218
 C697 C 0.81380 0.68623 0.87985
 C698 C 0.82647 0.69120 0.87215
 H699 H 0.79910 0.66662 0.87503
 H700 H 0.83339 0.70095 0.87498
 H701 H 0.82806 0.67198 0.83300
 H702 H 0.84025 0.65983 0.84541
 N703 N 0.81809 0.13963 0.32863
 N704 N 0.82856 0.13999 0.31796
 C705 C 0.82629 0.12828 0.30838
 C706 C 0.81381 0.12027 0.31340
 C707 C 0.80884 0.12769 0.32623
 H708 H 0.83323 0.12567 0.29860
 H709 H 0.79927 0.12460 0.33329
 Cu710 Cu 0.84418 0.15562 0.31795
 Cu711 Cu 0.81722 0.15463 0.34486
 Cu712 Cu 0.84509 0.18255 0.34483
 N713 N 0.85978 0.17127 0.31793
 N714 N 0.86011 0.18172 0.32858
 C715 C 0.87203 0.19100 0.32616
 C716 C 0.87947 0.18605 0.31333
 C717 C 0.87149 0.17355 0.30833
 H718 H 0.87510 0.20057 0.33321
 H719 H 0.87411 0.16663 0.29855
 N720 N 0.82889 0.18146 0.36027
 N721 N 0.81828 0.17083 0.36028
 C722 C 0.80885 0.17322 0.37209
 C723 C 0.81380 0.18590 0.37977
 C724 C 0.82648 0.19088 0.37208
 H725 H 0.79909 0.16631 0.37492
 H726 H 0.83337 0.20065 0.37489
 H727 H 0.82777 0.17193 0.33312
 H728 H 0.84019 0.15956 0.34503
 N729 N 0.68181 0.36035 0.32883
 N730 N 0.67098 0.36037 0.31853
 C731 C 0.67319 0.37213 0.30899
 C732 C 0.68605 0.37976 0.31364
 C733 C 0.69127 0.37208 0.32621
 H734 H 0.66607 0.37494 0.29940
 H735 H 0.70119 0.37481 0.33293
 Cu736 Cu 0.65533 0.34477 0.31861
 Cu737 Cu 0.68292 0.34511 0.34485
 Cu738 Cu 0.65502 0.31720 0.34483
 N739 N 0.63974 0.32912 0.31851
 N740 N 0.63976 0.31828 0.32881
 C741 C 0.62803 0.30882 0.32618
 C742 C 0.62034 0.31404 0.31361
 C743 C 0.62798 0.32690 0.30897
 H744 H 0.62530 0.29890 0.33289
 H745 H 0.62516 0.33403 0.29938
 N746 N 0.67142 0.31808 0.36006
 N747 N 0.68204 0.32870 0.36006
 C748 C 0.69149 0.32627 0.37185
 C749 C 0.68655 0.31358 0.37951
 C750 C 0.67386 0.30862 0.37184
 H751 H 0.70121 0.33322 0.37471
 H752 H 0.66691 0.29890 0.37471
 H753 H 0.67212 0.32805 0.33294
 H754 H 0.66001 0.34011 0.34546
 N755 N 0.68179 0.86053 0.82899
 N756 N 0.67096 0.86056 0.81870
 C757 C 0.67319 0.87230 0.80914
 C758 C 0.68606 0.87991 0.81376
 C759 C 0.69127 0.87224 0.82635
 H760 H 0.66606 0.87511 0.79954
 H761 H 0.70120 0.87497 0.83305
 Cu762 Cu 0.65529 0.84498 0.81880
 Cu763 Cu 0.68289 0.84531 0.84502
 Cu764 Cu 0.65496 0.81743 0.84504
 N765 N 0.63968 0.82934 0.81872
 N766 N 0.63969 0.81852 0.82902
 C767 C 0.62795 0.80907 0.82641
 C768 C 0.62026 0.81429 0.81383
 C769 C 0.62790 0.82713 0.80919
 H770 H 0.62522 0.79915 0.83312
 H771 H 0.62509 0.83426 0.79959
 N772 N 0.67137 0.81830 0.86026
 N773 N 0.68200 0.82892 0.86025
 C774 C 0.69146 0.82649 0.87203
 C775 C 0.68650 0.81381 0.87971
 C776 C 0.67380 0.80886 0.87205
 H777 H 0.70118 0.83343 0.87489
 H778 H 0.66686 0.79914 0.87492
 H779 H 0.67207 0.82825 0.83313
 H780 H 0.65999 0.84034 0.84565
 N781 N 0.18168 0.36017 0.82894
 N782 N 0.17108 0.35999 0.81841
 C783 C 0.17332 0.37176 0.80888
 C784 C 0.18595 0.37962 0.81378
 C785 C 0.19101 0.37204 0.82649
 H786 H 0.16634 0.37444 0.79915
 H787 H 0.20073 0.37496 0.83340
 Cu788 Cu 0.15551 0.34429 0.81820
 Cu789 Cu 0.18265 0.34501 0.84501
 Cu790 Cu 0.15477 0.31715 0.84501
 N791 N 0.13980 0.32872 0.81841
 N792 N 0.13961 0.31813 0.82894
 C793 C 0.12773 0.30880 0.82649
 C794 C 0.12016 0.31386 0.81378
 C795 C 0.12803 0.32649 0.80888
 H796 H 0.12481 0.29908 0.83341
 H797 H 0.12535 0.33347 0.79915
 N798 N 0.17109 0.31808 0.86031
 N799 N 0.18171 0.32869 0.86031
 C800 C 0.19116 0.32626 0.87209
 C801 C 0.18621 0.31357 0.87977
 C802 C 0.17351 0.30863 0.87210
 H803 H 0.20090 0.33319 0.87494
 H804 H 0.16658 0.29889 0.87494
 H805 H 0.17200 0.32779 0.83317
 H806 H 0.15965 0.34012 0.84523
 N807 N 0.18175 0.86037 0.32869
 N808 N 0.17113 0.86020 0.31818
 C809 C 0.17338 0.87196 0.30865
 C810 C 0.18603 0.87978 0.31352
 C811 C 0.19110 0.87222 0.32622
 H812 H 0.16640 0.87466 0.29892
 H813 H 0.20084 0.87512 0.33312
 Cu814 Cu 0.15556 0.84452 0.31800
 Cu815 Cu 0.18274 0.84523 0.34478
 Cu816 Cu 0.15485 0.81738 0.34479
 N817 N 0.13986 0.82897 0.31820
 N818 N 0.13968 0.81836 0.32871
 C819 C 0.12781 0.80902 0.32625
 C820 C 0.12024 0.81409 0.31355
 C821 C 0.12808 0.82673 0.30867
 H822 H 0.12490 0.79929 0.33316
 H823 H 0.12539 0.83371 0.29893
 N824 N 0.17117 0.81832 0.36009
 N825 N 0.18179 0.82893 0.36008
 C826 C 0.19125 0.82651 0.37187
 C827 C 0.18629 0.81383 0.37955
 C828 C 0.17360 0.80888 0.37189
 H829 H 0.20099 0.83344 0.37470
 H830 H 0.16667 0.79914 0.37474
 H831 H 0.17210 0.82804 0.33295
 H832 H 0.15978 0.84035 0.34503
 O833 O 0.23073 0.98514 0.25133
 O834 O 0.25159 1.01493 0.23071
 O835 O 0.25162 0.98515 0.23068
 O836 O 0.23074 1.01495 0.25135
 O837 O 0.24844 1.01492 0.26916
 O838 O 0.26932 0.98512 0.24849
 O839 O 0.26930 1.01490 0.24852
 O840 O 0.24844 0.98510 0.26914
 Cu841 Cu 0.23938 1.00004 0.23923
 Cu842 Cu 0.26066 1.00000 0.26063
 C843 C 0.23622 0.97989 0.26356
 C844 C 0.26382 1.02013 0.23627
 C845 C 0.26386 0.97993 0.23624
 C846 C 0.23622 1.02017 0.26358
 O847 O 0.24840 0.51482 0.76928
 O848 O 0.26928 0.48506 0.74859
 O849 O 0.26924 0.51487 0.74860
 O850 O 0.24841 0.48500 0.76924
 O851 O 0.23069 0.48503 0.75145
 O852 O 0.25152 0.51489 0.73081
 O853 O 0.25156 0.48508 0.73079
 O854 O 0.23068 0.51485 0.75149
 Cu855 Cu 0.26061 0.49993 0.76072
 Cu856 Cu 0.23933 0.49996 0.73935
 C857 C 0.23616 0.52006 0.76373
 C858 C 0.26380 0.47985 0.73634
 C859 C 0.26374 0.52012 0.73637
 C860 C 0.23618 0.47978 0.76368
 O861 O 0.74859 -0.01516 0.23093
 O862 O 0.76947 0.01457 0.25161
 O863 O 0.76944 -0.01526 0.25158
 O864 O 0.74863 0.01462 0.23094
 O865 O 0.73090 0.01465 0.24874
 O866 O 0.75171 -0.01524 0.26938
 O867 O 0.75174 0.01459 0.26941
 O868 O 0.73086 -0.01514 0.24872
 Cu869 Cu 0.76082 -0.00031 0.23948
 Cu870 Cu 0.73952 -0.00028 0.26086
 C871 C 0.73634 -0.02036 0.23648
 C872 C 0.76398 0.01980 0.26385
 C873 C 0.76393 -0.02050 0.26381
 C874 C 0.73639 0.01986 0.23649
 O875 O 0.73089 0.51478 0.74870
 O876 O 0.75176 0.48495 0.76938
 O877 O 0.75174 0.51478 0.76937
 O878 O 0.73091 0.48495 0.74871
 O879 O 0.74863 0.48494 0.73091
 O880 O 0.76947 0.51477 0.75158
 O881 O 0.76949 0.48494 0.75158
 O882 O 0.74862 0.51478 0.73091
 Cu883 Cu 0.73954 0.49986 0.76083
 Cu884 Cu 0.76083 0.49986 0.73945
 C885 C 0.73638 0.52001 0.73647
 C886 C 0.76400 0.47972 0.76382
 C887 C 0.76397 0.52001 0.76381
 C888 C 0.73640 0.47972 0.73647
 O889 O 0.25154 0.48505 0.26916
 O890 O 0.23070 0.51490 0.24849
 O891 O 0.23071 0.48511 0.24851
 O892 O 0.25155 0.51488 0.26917
 O893 O 0.26928 0.51487 0.25138
 O894 O 0.24844 0.48510 0.23071
 O895 O 0.24843 0.51489 0.23069
 O896 O 0.26927 0.48504 0.25136
 Cu897 Cu 0.23934 0.49999 0.26063
 Cu898 Cu 0.26065 0.49998 0.23925
 C899 C 0.26377 0.47980 0.26359
 C900 C 0.23618 0.52011 0.23624
 C901 C 0.23620 0.47989 0.23627
 C902 C 0.26378 0.52010 0.26361
 O903 O 0.75144 1.01510 0.73091
 O904 O 0.73058 0.98540 0.75167
 O905 O 0.73059 1.01526 0.75159
 O906 O 0.75142 0.98532 0.73099
 O907 O 0.76915 0.98533 0.74877
 O908 O 0.74832 1.01527 0.76937
 O909 O 0.74831 0.98541 0.76945
 O910 O 0.76917 1.01512 0.74870
 Cu911 Cu 0.73921 1.00027 0.73951
 Cu912 Cu 0.76051 1.00028 0.76087
 C913 C 0.76369 1.02030 0.73644
 C914 C 0.73609 0.98017 0.76390
 C915 C 0.73610 1.02053 0.76379
 C916 C 0.76367 0.98010 0.73654
 O917 O 0.74839 0.51496 0.26926
 O918 O 0.76926 0.48516 0.24858
 O919 O 0.76925 0.51495 0.24861
 O920 O 0.74843 0.48514 0.26927
 O921 O 0.73071 0.48516 0.25149
 O922 O 0.75152 0.51497 0.23083
 O923 O 0.75153 0.48518 0.23080
 O924 O 0.73066 0.51498 0.25148
 Cu925 Cu 0.76062 0.50005 0.26073
 Cu926 Cu 0.73931 0.50007 0.23936
 C927 C 0.73616 0.52021 0.26371
 C928 C 0.76377 0.47996 0.23634
 C929 C 0.76375 0.52018 0.23637
 C930 C 0.73621 0.47992 0.26372
 O931 O 0.23098 0.01457 0.74881
 O932 O 0.25185 -0.01540 0.76935
 O933 O 0.25183 0.01447 0.76946
 O934 O 0.23096 -0.01522 0.74873
 O935 O 0.24867 -0.01518 0.73091
 O936 O 0.26954 0.01452 0.75164
 O937 O 0.26956 -0.01535 0.75154
 O938 O 0.24868 0.01461 0.73099
 Cu939 Cu 0.23963 -0.00040 0.76089
 Cu940 Cu 0.26090 -0.00034 0.73949
 C941 C 0.23644 0.01983 0.73657
 C942 C 0.26407 -0.02064 0.76375
 C943 C 0.26404 0.01973 0.76389
 C944 C 0.23643 -0.02039 0.73646
 O945 O 0.24850 0.26913 0.98516
 O946 O 0.26923 0.24829 1.01493
 O947 O 0.26925 0.24831 0.98517
 O948 O 0.24855 0.26918 1.01492
 O949 O 0.23072 0.25148 1.01496
 O950 O 0.25142 0.23061 0.98520
 O951 O 0.25140 0.23060 1.01495
 O952 O 0.23066 0.25143 0.98520
 Cu953 Cu 0.26068 0.26051 1.00004
 Cu954 Cu 0.23925 0.23925 1.00008
 C955 C 0.23622 0.26365 0.97997
 C956 C 0.26366 0.23608 1.02016
 C957 C 0.26368 0.23609 0.97997
 C958 C 0.23629 0.26370 1.02016
 O959 O 0.24855 0.76941 0.48497
 O960 O 0.26931 0.74862 0.51475
 O961 O 0.26931 0.74860 0.48498
 O962 O 0.24859 0.76946 0.51473
 O963 O 0.23077 0.75174 0.51477
 O964 O 0.25149 0.73088 0.48502
 O965 O 0.25149 0.73090 0.51480
 O966 O 0.23073 0.75170 0.48502
 Cu967 Cu 0.26073 0.76080 0.49985
 Cu968 Cu 0.23933 0.73952 0.49991
 C969 C 0.23628 0.76392 0.47978
 C970 C 0.26375 0.73640 0.52001
 C971 C 0.26374 0.73637 0.47978
 C972 C 0.23633 0.76397 0.51997
 O973 O 0.26953 0.75142 -0.01502
 O974 O 0.24870 0.73076 0.01479
 O975 O 0.24869 0.73072 -0.01496
 O976 O 0.26949 0.75149 0.01476
 O977 O 0.25173 0.76930 0.01471
 O978 O 0.23093 0.74853 -0.01499
 O979 O 0.23094 0.74857 0.01476
 O980 O 0.25177 0.76923 -0.01507
 Cu981 Cu 0.26090 0.73931 -0.00010
 Cu982 Cu 0.23956 0.76070 -0.00016
 C983 C 0.26402 0.76366 -0.02028
 C984 C 0.23645 0.73632 0.02000
 C985 C 0.23645 0.73626 -0.02018
 C986 C 0.26396 0.76375 0.01996
 O987 O 0.26920 0.25139 0.48519
 O988 O 0.24842 0.23063 0.51497
 O989 O 0.24843 0.23064 0.48520
 O990 O 0.26919 0.25139 0.51495
 O991 O 0.25140 0.26917 0.51495
 O992 O 0.23064 0.24842 0.48520
 O993 O 0.23063 0.24841 0.51496
 O994 O 0.25141 0.26917 0.48519
 Cu995 Cu 0.26060 0.23922 0.50008
 Cu996 Cu 0.23923 0.26058 0.50008
 C997 C 0.26367 0.26363 0.47997
 C998 C 0.23617 0.23616 0.52019
 C999 C 0.23618 0.23618 0.47998
 C1000 C 0.26366 0.26364 0.52017
 O1001 O 0.74857 0.76935 0.98518
 O1002 O 0.76927 0.74847 1.01493
 O1003 O 0.76932 0.74852 0.98517
 O1004 O 0.74860 0.76935 1.01494
 O1005 O 0.73076 0.75165 1.01493
 O1006 O 0.75148 0.73083 0.98515
 O1007 O 0.75143 0.73077 1.01492
 O1008 O 0.73073 0.75166 0.98518
 Cu1009 Cu 0.76074 0.76070 1.00005
 Cu1010 Cu 0.73930 0.73945 1.00004
 C1011 C 0.73630 0.76388 0.97997
 C1012 C 0.76369 0.73625 1.02015
 C1013 C 0.76375 0.73631 0.97994
 C1014 C 0.73633 0.76387 1.02016
 O1015 O 0.74849 0.26908 0.48504
 O1016 O 0.76920 0.24821 0.51479
 O1017 O 0.76924 0.24826 0.48503
 O1018 O 0.74848 0.26905 0.51481
 O1019 O 0.73066 0.25134 0.51478
 O1020 O 0.75142 0.23055 0.48501
 O1021 O 0.75138 0.23050 0.51476
 O1022 O 0.73067 0.25137 0.48502
 Cu1023 Cu 0.76065 0.26043 0.49992
 Cu1024 Cu 0.73924 0.23916 0.49989
 C1025 C 0.73624 0.26360 0.47981
 C1026 C 0.76363 0.23598 0.51999
 C1027 C 0.76369 0.23604 0.47980
 C1028 C 0.73622 0.26355 0.52003
 O1029 O 0.76923 0.25168 -0.01497
 O1030 O 0.74855 0.23084 0.01481
 O1031 O 0.74849 0.23089 -0.01496
 O1032 O 0.76927 0.25165 0.01479
 O1033 O 0.75145 0.26939 0.01484
 O1034 O 0.73066 0.24863 -0.01491
 O1035 O 0.73072 0.24858 0.01486
 O1036 O 0.75140 0.26942 -0.01492
 Cu1037 Cu 0.76068 0.23948 -0.00009
 Cu1038 Cu 0.73926 0.26079 -0.00003
 C1039 C 0.76366 0.26392 -0.02017
 C1040 C 0.73629 0.23635 0.02007
 C1041 C 0.73622 0.23640 -0.02016
 C1042 C 0.76372 0.26388 0.02003
 O1043 O 0.73065 0.74862 0.48522
 O1044 O 0.75143 0.76939 0.51496
 O1045 O 0.75139 0.76941 0.48520
 O1046 O 0.73067 0.74861 0.51499
 O1047 O 0.74849 0.73086 0.51497
 O1048 O 0.76921 0.75166 0.48517
 O1049 O 0.76924 0.75164 0.51494
 O1050 O 0.74847 0.73087 0.48520
 Cu1051 Cu 0.73924 0.76079 0.50010
 Cu1052 Cu 0.76065 0.73947 0.50007
 C1053 C 0.73621 0.73639 0.47999
 C1054 C 0.76370 0.76388 0.52016
 C1055 C 0.76364 0.76389 0.47996
 C1056 C 0.73623 0.73637 0.52020
 O1057 O 0.98502 0.24850 0.26924
 O1058 O 1.01489 0.26938 0.24867
 O1059 O 0.98506 0.26936 0.24858
 O1060 O 1.01485 0.24848 0.26927
 O1061 O 1.01491 0.23081 0.25144
 O1062 O 0.98512 0.25169 0.23076
 O1063 O 1.01495 0.25170 0.23084
 O1064 O 0.98508 0.23083 0.25141
 Cu1065 Cu 0.99995 0.26071 0.26074
 Cu1066 Cu 1.00002 0.23948 0.23932
 C1067 C 0.97982 0.23629 0.26365
 C1068 C 1.02015 0.26392 0.23643
 C1069 C 0.97987 0.26390 0.23632
 C1070 C 1.02011 0.23627 0.26370
 O1071 O 0.51486 0.26914 0.74862
 O1072 O 0.48501 0.24834 0.76931
 O1073 O 0.51487 0.24833 0.76932
 O1074 O 0.48503 0.26918 0.74864
 O1075 O 0.48505 0.25146 0.73086
 O1076 O 0.51489 0.23062 0.75154
 O1077 O 0.48503 0.23062 0.75153
 O1078 O 0.51487 0.25143 0.73084
 Cu1079 Cu 0.49995 0.26052 0.76077
 Cu1080 Cu 0.49996 0.23924 0.73941
 C1081 C 0.52009 0.26365 0.73638
 C1082 C 0.47978 0.23612 0.76376
 C1083 C 0.52012 0.23611 0.76377
 C1084 C 0.47981 0.26369 0.73641
 O1085 O 0.01471 0.24835 0.73083
 O1086 O -0.01512 0.26930 0.75142
 O1087 O 0.01473 0.26923 0.75144
 O1088 O -0.01512 0.24837 0.73086
 O1089 O -0.01512 0.23071 0.74871
 O1090 O 0.01471 0.25158 0.76929
 O1091 O -0.01513 0.25164 0.76928
 O1092 O 0.01471 0.23070 0.74868
 Cu1093 Cu -0.00020 0.26059 0.73934
 Cu1094 Cu -0.00021 0.23938 0.76079
 C1095 C 0.01994 0.23614 0.73642
 C1096 C -0.02036 0.26386 0.76368
 C1097 C 0.01996 0.26377 0.76369
 C1098 C -0.02035 0.23616 0.73646
 O1099 O 0.48522 0.23046 0.24870
 O1100 O 0.51506 0.25134 0.26927
 O1101 O 0.48521 0.25136 0.26928
 O1102 O 0.51505 0.23047 0.24864
 O1103 O 0.51501 0.24814 0.23080
 O1104 O 0.48518 0.26902 0.25144
 O1105 O 0.51502 0.26901 0.25142
 O1106 O 0.48518 0.24813 0.23086
 Cu1107 Cu 0.50014 0.23913 0.26077
 Cu1108 Cu 0.50010 0.26035 0.23934
 C1109 C 0.47997 0.23592 0.23646
 C1110 C 0.52028 0.26355 0.26367
 C1111 C 0.47996 0.26356 0.26369
 C1112 C 0.52026 0.23593 0.23638
 O1113 O 1.01495 0.76949 0.74871
 O1114 O 0.98511 0.74861 0.76929
 O1115 O 1.01494 0.74861 0.76931
 O1116 O 0.98512 0.76948 0.74865
 O1117 O 0.98517 0.75181 0.73082
 O1118 O 1.01498 0.73094 0.75149
 O1119 O 0.98515 0.73094 0.75147
 O1120 O 1.01500 0.75182 0.73088
 Cu1121 Cu 1.00002 0.76083 0.76079
 Cu1122 Cu 1.00007 0.73959 0.73937
 C1123 C 1.02021 0.76403 0.73647
 C1124 C 0.97990 0.73639 0.76371
 C1125 C 1.02019 0.73641 0.76374
 C1126 C 0.97992 0.76402 0.73639
 O1127 O 0.48512 0.75171 0.23080
 O1128 O 0.51490 0.73082 0.25148
 O1129 O 0.48507 0.73084 0.25144
 O1130 O 0.51493 0.75173 0.23089
 O1131 O 0.51487 0.76939 0.24872
 O1132 O 0.48501 0.74850 0.26928
 O1133 O 0.51485 0.74848 0.26931
 O1134 O 0.48505 0.76938 0.24864
 Cu1135 Cu 0.50001 0.73949 0.23936
 Cu1136 Cu 0.49994 0.76071 0.26079
 C1137 C 0.47987 0.76393 0.23637
 C1138 C 0.52010 0.73627 0.26374
 C1139 C 0.47981 0.73629 0.26368
 C1140 C 0.52013 0.76394 0.23648
 O1141 O 0.01474 0.74848 0.23071
 O1142 O -0.01507 0.76937 0.25138
 O1143 O 0.01478 0.76935 0.25134
 O1144 O -0.01508 0.74846 0.23081
 O1145 O -0.01503 0.73080 0.24867
 O1146 O 0.01482 0.75170 0.26919
 O1147 O -0.01503 0.75172 0.26923
 O1148 O 0.01480 0.73083 0.24857
 Cu1149 Cu -0.00016 0.76070 0.23927
 Cu1150 Cu -0.00010 0.73948 0.26071
 C1151 C 0.01999 0.73627 0.23629
 C1152 C -0.02029 0.76392 0.26363
 C1153 C 0.02004 0.76390 0.26358
 C1154 C -0.02029 0.73624 0.23642
 O1155 O 0.51483 0.75175 0.76946
 O1156 O 0.48500 0.73092 0.74879
 O1157 O 0.51484 0.73093 0.74879
 O1158 O 0.48496 0.75175 0.76947
 O1159 O 0.48494 0.76946 0.75168
 O1160 O 0.51483 0.74864 0.73100
 O1161 O 0.48498 0.74864 0.73099
 O1162 O 0.51481 0.76946 0.75167
 Cu1163 Cu 0.49991 0.73956 0.76092
 Cu1164 Cu 0.49989 0.76084 0.73955
 C1165 C 0.52006 0.76397 0.76389
 C1166 C 0.47976 0.73641 0.73654
 C1167 C 0.52008 0.73642 0.73655
 C1168 C 0.47971 0.76397 0.76392
 C1169 C 0.41812 0.29513 0.29485
 C1170 C 0.41783 0.27771 0.29411
 C1171 C 0.43067 0.27155 0.28803
 C1172 C 0.44255 0.28341 0.28328
 C1173 C 0.44550 0.29287 0.29759
 C1174 C 0.43265 0.29903 0.30367
 C1175 C 0.42124 0.30030 0.27852
 C1176 C 0.43409 0.29413 0.27243
 C1177 C 0.40432 0.30177 0.30146
 C1178 C 0.39301 0.30721 0.30697
 C1179 C 0.45632 0.27670 0.27666
 C1180 C 0.46735 0.27091 0.27095
 H1181 H 0.40835 0.27082 0.29797
 H1182 H 0.43220 0.25938 0.28667
 H1183 H 0.45668 0.29457 0.30251
 H1184 H 0.43282 0.30601 0.31382
 H1185 H 0.41396 0.30804 0.27226
 H1186 H 0.43782 0.29661 0.26096
 C1187 C 0.41782 0.79561 0.79503
 C1188 C 0.41962 0.77858 0.79835
 C1189 C 0.43247 0.77239 0.79229
 C1190 C 0.44227 0.78383 0.78351
 C1191 C 0.44541 0.79673 0.79478
 C1192 C 0.43255 0.80292 0.80083
 C1193 C 0.41866 0.79693 0.77769
 C1194 C 0.43152 0.79074 0.77163
 C1195 C 0.40401 0.80229 0.80160
 C1196 C 0.39270 0.80776 0.80708
 C1197 C 0.45605 0.77710 0.77691
 C1198 C 0.46708 0.77131 0.77119
 H1199 H 0.41148 0.77195 0.80482
 H1200 H 0.43534 0.76046 0.79359
 H1201 H 0.45672 0.80066 0.79774
 H1202 H 0.43286 0.81215 0.80899
 H1203 H 0.40991 0.80219 0.77077
 H1204 H 0.43377 0.79071 0.75952
 C1205 C -0.08223 0.29550 0.79472
 C1206 C -0.07980 0.29956 0.77796
 C1207 C -0.06693 0.29339 0.77191
 C1208 C -0.05776 0.28377 0.78321
 C1209 C -0.06907 0.27190 0.78920
 C1210 C -0.08193 0.27807 0.79524
 C1211 C -0.06758 0.30051 0.80275
 C1212 C -0.05472 0.29435 0.79670
 C1213 C -0.09605 0.30214 0.80128
 C1214 C -0.10736 0.30761 0.80677
 C1215 C -0.04399 0.27705 0.77662
 C1216 C -0.03296 0.27124 0.77093
 H1217 H -0.08753 0.30660 0.77141
 H1218 H -0.06363 0.29517 0.76018
 H1219 H -0.06715 0.25972 0.78869
 H1220 H -0.09103 0.27117 0.79990
 H1221 H -0.06735 0.30822 0.81235
 H1222 H -0.04346 0.29678 0.80111
 C1223 C -0.08214 0.79550 0.29477
 C1224 C -0.07575 0.80457 0.28133
 C1225 C -0.06290 0.79840 0.27525
 C1226 C -0.05770 0.78377 0.28321
 C1227 C -0.07155 0.77316 0.28259
 C1228 C -0.08439 0.77933 0.28867
 C1229 C -0.06891 0.79425 0.30606
 C1230 C -0.05606 0.78808 0.29998
 C1231 C -0.09594 0.80215 0.30136
 C1232 C -0.10725 0.80760 0.30687
 C1233 C -0.04393 0.77706 0.27660
 C1234 C -0.03290 0.77126 0.27089
 H1235 H -0.08091 0.81487 0.27692
 H1236 H -0.05704 0.80343 0.26564
 H1237 H -0.07129 0.76182 0.27776
 H1238 H -0.09514 0.77328 0.28904
 H1239 H -0.06960 0.79786 0.31782
 H1240 H -0.04574 0.78641 0.30652
 C1241 C 0.58200 0.70489 0.29490
 C1242 C 0.57384 0.71606 0.30551
 C1243 C 0.56096 0.72217 0.29944
 C1244 C 0.55750 0.71650 0.28335
 C1245 C 0.55705 0.69912 0.28464
 C1246 C 0.56994 0.69301 0.29071
 C1247 C 0.58481 0.71387 0.28024
 C1248 C 0.57194 0.71997 0.27417
 C1249 C 0.59583 0.69831 0.30147
 C1250 C 0.60714 0.69289 0.30698
 C1251 C 0.54372 0.72315 0.27674
 C1252 C 0.53269 0.72892 0.27101
 H1253 H 0.57786 0.71897 0.31678
 H1254 H 0.55394 0.73029 0.30552
 H1255 H 0.54748 0.69221 0.28107
 H1256 H 0.57141 0.68087 0.29233
 H1257 H 0.59594 0.71532 0.27509
 H1258 H 0.57203 0.72665 0.26381
 C1259 C 0.58197 0.20456 0.79496
 C1260 C 0.58032 0.20171 0.77787
 C1261 C 0.56747 0.20787 0.77179
 C1262 C 0.55753 0.21628 0.78339
 C1263 C 0.56814 0.22804 0.79068
 C1264 C 0.58099 0.22188 0.79676
 C1265 C 0.56722 0.19844 0.80201
 C1266 C 0.55437 0.20461 0.79592
 C1267 C 0.59576 0.19789 0.80155
 C1268 C 0.60706 0.19241 0.80704
 C1269 C 0.54376 0.22299 0.77677
 C1270 C 0.53273 0.22877 0.77105
 H1271 H 0.58855 0.19547 0.77112
 H1272 H 0.56470 0.20690 0.75983
 H1273 H 0.56581 0.24015 0.79098
 H1274 H 0.58966 0.22871 0.80226
 H1275 H 0.56691 0.19001 0.81099
 H1276 H 0.54306 0.20146 0.79969
 C1277 C 1.08200 0.70482 0.79485
 C1278 C 1.07846 0.69908 0.77880
 C1279 C 1.06562 0.70526 0.77273
 C1280 C 1.05758 0.71656 0.78330
 C1281 C 1.06977 0.72836 0.78734
 C1282 C 1.08262 0.72218 0.79342
 C1283 C 1.06758 0.70155 0.80410
 C1284 C 1.05473 0.70772 0.79803
 C1285 C 1.09577 0.69814 0.80146
 C1286 C 1.10701 0.69264 0.80702
 C1287 C 1.04382 0.72327 0.77670
 C1288 C 1.03279 0.72906 0.77099
 H1289 H 1.08548 0.69097 0.77270
 H1290 H 1.06162 0.70242 0.76143
 H1291 H 1.06846 0.74049 0.78553
 H1292 H 1.09231 0.72902 0.79680
 H1293 H 1.06747 0.69498 0.81452
 H1294 H 1.04362 0.70644 0.80324
 C1295 C 1.08198 0.20482 0.29481
 C1296 C 1.08193 0.22225 0.29470
 C1297 C 1.06906 0.22838 0.28864
 C1298 C 1.05750 0.21647 0.28328
 C1299 C 1.05452 0.20643 0.29719
 C1300 C 1.06740 0.20030 0.30325
 C1301 C 1.07923 0.20019 0.27825
 C1302 C 1.06635 0.20632 0.27219
 C1303 C 1.09579 0.19821 0.30139
 C1304 C 1.10708 0.19275 0.30691
 C1305 C 1.04372 0.22314 0.27668
 C1306 C 1.03270 0.22893 0.27097
 H1307 H 1.09121 0.22918 0.29895
 H1308 H 1.06731 0.24056 0.28771
 H1309 H 1.04330 0.20433 0.30187
 H1310 H 1.06720 0.19294 0.31313
 H1311 H 1.08676 0.19283 0.27183
 H1312 H 1.06285 0.20419 0.26058
 C1313 C 0.58191 0.29522 0.70521
 C1314 C 0.57350 0.30592 0.71612
 C1315 C 0.56064 0.29976 0.72217
 C1316 C 0.55744 0.28351 0.71673
 C1317 C 0.57197 0.27455 0.72047
 C1318 C 0.58482 0.28070 0.71442
 C1319 C 0.57001 0.29069 0.69330
 C1320 C 0.55715 0.28454 0.69936
 C1321 C 0.59574 0.30183 0.69866
 C1322 C 0.60708 0.30724 0.69321
 C1323 C 0.54368 0.27680 0.72334
 C1324 C 0.53268 0.27100 0.72908
 H1325 H 0.57734 0.31730 0.71889
 H1326 H 0.55346 0.30588 0.73012
 H1327 H 0.57214 0.26428 0.72730
 H1328 H 0.59599 0.27571 0.71606
 H1329 H 0.57157 0.29216 0.68118
 H1330 H 0.54769 0.28074 0.69242
 C1331 C 0.58200 0.79535 0.20534
 C1332 C 0.57596 0.80413 0.21913
 C1333 C 0.56308 0.79803 0.22521
 C1334 C 0.55751 0.78376 0.21690
 C1335 C 0.57117 0.77286 0.21700
 C1336 C 0.58404 0.77896 0.21092
 C1337 C 0.56859 0.79471 0.19420
 C1338 C 0.55572 0.78861 0.20028
 C1339 C 0.59582 0.80192 0.19875
 C1340 C 0.60713 0.80734 0.19324
 C1341 C 0.54374 0.77710 0.22351
 C1342 C 0.53272 0.77131 0.22923
 H1343 H 0.58136 0.81420 0.22375
 H1344 H 0.55744 0.80289 0.23503
 H1345 H 0.57078 0.76138 0.22149
 H1346 H 0.59467 0.77271 0.21021
 H1347 H 0.56918 0.79867 0.18256
 H1348 H 0.54527 0.78736 0.19385
 C1349 C 1.08190 0.29553 0.20524
 C1350 C 1.06768 0.30545 0.20318
 C1351 C 1.05485 0.29929 0.20927
 C1352 C 1.05750 0.28381 0.21684
 C1353 C 1.07018 0.28657 0.22849
 C1354 C 1.08301 0.29273 0.22239
 C1355 C 1.07767 0.28005 0.19843
 C1356 C 1.06484 0.27389 0.20453
 C1357 C 1.09568 0.30216 0.19862
 C1358 C 1.10698 0.30758 0.19310
 C1359 C 1.04375 0.27709 0.22346
 C1360 C 1.03274 0.27128 0.22918
 H1361 H 1.06771 0.31637 0.19746
 H1362 H 1.04388 0.30492 0.20877
 H1363 H 1.06918 0.28388 0.24047
 H1364 H 1.09300 0.29532 0.22915
 H1365 H 1.08422 0.27439 0.18965
 H1366 H 1.06040 0.26296 0.20095
 C1367 C 1.08197 0.79551 0.70518
 C1368 C 1.07362 0.80624 0.71609
 C1369 C 1.06079 0.80010 0.72223
 C1370 C 1.05757 0.78384 0.71684
 C1371 C 1.07211 0.77489 0.72055
 C1372 C 1.08494 0.78102 0.71442
 C1373 C 1.07002 0.79095 0.69334
 C1374 C 1.05720 0.78481 0.69947
 C1375 C 1.09574 0.80212 0.69853
 C1376 C 1.10702 0.80756 0.69298
 C1377 C 1.04383 0.77716 0.72350
 C1378 C 1.03281 0.77138 0.72922
 H1379 H 1.07750 0.81762 0.71884
 H1380 H 1.05367 0.80623 0.73021
 H1381 H 1.07232 0.76465 0.72742
 H1382 H 1.09612 0.77604 0.71603
 H1383 H 1.07154 0.79235 0.68120
 H1384 H 1.04771 0.78098 0.69259
 C1385 C 0.41799 0.70485 0.70532
 C1386 C 0.43254 0.70088 0.69653
 C1387 C 0.44539 0.70704 0.70262
 C1388 C 0.44242 0.71656 0.71689
 C1389 C 0.43392 0.70589 0.72776
 C1390 C 0.42108 0.69974 0.72168
 C1391 C 0.41772 0.72228 0.70599
 C1392 C 0.43055 0.72843 0.71207
 C1393 C 0.40420 0.69821 0.69872
 C1394 C 0.39292 0.69275 0.69319
 C1395 C 0.45617 0.72326 0.72352
 C1396 C 0.46718 0.72906 0.72926
 H1397 H 0.43273 0.69387 0.68641
 H1398 H 0.45657 0.70529 0.69771
 H1399 H 0.43764 0.70343 0.73924
 H1400 H 0.41379 0.69203 0.72795
 H1401 H 0.40825 0.72917 0.70209
 H1402 H 0.43208 0.74060 0.71336
 C1403 C 0.41821 0.20444 0.20520
 C1404 C 0.41520 0.21401 0.21944
 C1405 C 0.42802 0.22014 0.22556
 C1406 C 0.44261 0.21611 0.21684
 C1407 C 0.43958 0.22121 0.20047
 C1408 C 0.42675 0.21508 0.19435
 C1409 C 0.43001 0.19255 0.21011
 C1410 C 0.44284 0.19869 0.21623
 C1411 C 0.40443 0.19783 0.19856
 C1412 C 0.39316 0.19239 0.19302
 C1413 C 0.45635 0.22279 0.22349
 C1414 C 0.46737 0.22857 0.22921
 H1415 H 0.40399 0.21581 0.22428
 H1416 H 0.42779 0.22720 0.23566
 H1417 H 0.44683 0.22902 0.19426
 H1418 H 0.42301 0.21764 0.18290
 H1419 H 0.42839 0.18038 0.20894
 H1420 H 0.45222 0.19177 0.22031
 C1421 C -0.08200 0.70462 0.20523
 C1422 C -0.08363 0.70874 0.22207
 C1423 C -0.07082 0.71490 0.22817
 C1424 C -0.05762 0.71635 0.21685
 C1425 C -0.06414 0.72555 0.20356
 C1426 C -0.07696 0.71938 0.19745
 C1427 C -0.06809 0.69410 0.20446
 C1428 C -0.05527 0.70026 0.21057
 C1429 C -0.09577 0.69798 0.19860
 C1430 C -0.10703 0.69252 0.19307
 C1431 C -0.04389 0.72307 0.22348
 C1432 C -0.03288 0.72887 0.22919
 H1433 H -0.09395 0.70701 0.22860
 H1434 H -0.07016 0.71845 0.23995
 H1435 H -0.05918 0.73603 0.19936
 H1436 H -0.08298 0.72459 0.18803
 H1437 H -0.06831 0.68277 0.19958
 H1438 H -0.04450 0.69423 0.21093
 C1439 C -0.08205 0.20461 0.70516
 C1440 C -0.06749 0.20065 0.69640
 C1441 C -0.05466 0.20679 0.70252
 C1442 C -0.05766 0.21629 0.71680
 C1443 C -0.06618 0.20562 0.72764
 C1444 C -0.07901 0.19948 0.72152
 C1445 C -0.08233 0.22203 0.70585
 C1446 C -0.06951 0.22818 0.71197
 C1447 C -0.09584 0.19800 0.69853
 C1448 C -0.10713 0.19258 0.69302
 C1449 C -0.04393 0.22299 0.72345
 C1450 C -0.03293 0.22879 0.72919
 H1451 H -0.06727 0.19363 0.68628
 H1452 H -0.04346 0.20504 0.69765
 H1453 H -0.06250 0.20315 0.73913
 H1454 H -0.08632 0.19176 0.72777
 H1455 H -0.09179 0.22894 0.70194
 H1456 H -0.06799 0.24034 0.71329
 C1457 C 0.29520 0.41791 0.29473
 C1458 C 0.29946 0.43247 0.30332
 C1459 C 0.29331 0.44532 0.29723
 C1460 C 0.28352 0.44235 0.28315
 C1461 C 0.27161 0.43067 0.28826
 C1462 C 0.27776 0.41782 0.29435
 C1463 C 0.30007 0.42081 0.27826
 C1464 C 0.29393 0.43366 0.27217
 C1465 C 0.30183 0.40412 0.30135
 C1466 C 0.30727 0.39282 0.30687
 C1467 C 0.27684 0.45612 0.27654
 C1468 C 0.27108 0.46717 0.27083
 H1469 H 0.30665 0.43266 0.31332
 H1470 H 0.29525 0.45651 0.30201
 H1471 H 0.25943 0.43231 0.28713
 H1472 H 0.27083 0.40846 0.29843
 H1473 H 0.30761 0.41338 0.27192
 H1474 H 0.29621 0.43724 0.26061
 C1475 C 0.29572 -0.08258 0.79480
 C1476 C 0.28948 -0.08482 0.77870
 C1477 C 0.28328 -0.07199 0.77262
 C1478 C 0.28393 -0.05816 0.78323
 C1479 C 0.30079 -0.05650 0.78740
 C1480 C 0.30698 -0.06933 0.79348
 C1481 C 0.28229 -0.07624 0.80396
 C1482 C 0.27610 -0.06341 0.79788
 C1483 C 0.30241 -0.09637 0.80141
 C1484 C 0.30789 -0.10766 0.80694
 C1485 C 0.27719 -0.04438 0.77662
 C1486 C 0.27140 -0.03332 0.77095
 H1487 H 0.28986 -0.09554 0.77262
 H1488 H 0.27836 -0.07173 0.76132
 H1489 H 0.30730 -0.04617 0.78568
 H1490 H 0.31880 -0.06999 0.79696
 H1491 H 0.27797 -0.08142 0.81427
 H1492 H 0.26648 -0.05760 0.80299
 C1493 C 0.79535 0.41782 0.79505
 C1494 C 0.79460 0.43119 0.80621
 C1495 C 0.78851 0.44406 0.80012
 C1496 C 0.78375 0.44231 0.78347
 C1497 C 0.77289 0.42866 0.78328
 C1498 C 0.77898 0.41579 0.78937
 C1499 C 0.80420 0.42389 0.78132
 C1500 C 0.79811 0.43677 0.77524
 C1501 C 0.80192 0.40399 0.80164
 C1502 C 0.80734 0.39268 0.80716
 C1503 C 0.77711 0.45609 0.77684
 C1504 C 0.77134 0.46712 0.77111
 H1505 H 0.79849 0.43058 0.81788
 H1506 H 0.78718 0.45449 0.80657
 H1507 H 0.76142 0.42906 0.77874
 H1508 H 0.77274 0.40517 0.79003
 H1509 H 0.81432 0.41851 0.77674
 H1510 H 0.80302 0.44242 0.76545
 C1511 C 0.79534 -0.08238 0.29501
 C1512 C 0.77790 -0.08202 0.29555
 C1513 C 0.77177 -0.06917 0.28945
 C1514 C 0.78368 -0.05795 0.28340
 C1515 C 0.79326 -0.06720 0.27213
 C1516 C 0.79940 -0.08004 0.27824
 C1517 C 0.80042 -0.06773 0.30297
 C1518 C 0.79429 -0.05488 0.29686
 C1519 C 0.80195 -0.09618 0.30164
 C1520 C 0.80738 -0.10748 0.30717
 C1521 C 0.77701 -0.04418 0.27677
 C1522 C 0.77124 -0.03314 0.27106
 H1523 H 0.77098 -0.09108 0.30024
 H1524 H 0.75959 -0.06724 0.28892
 H1525 H 0.79502 -0.06398 0.26037
 H1526 H 0.80639 -0.08783 0.27171
 H1527 H 0.80816 -0.06746 0.31256
 H1528 H 0.79677 -0.04362 0.30122
 C1529 C 0.29522 0.58198 0.70523
 C1530 C 0.28734 0.58459 0.72055
 C1531 C 0.28121 0.57173 0.72662
 C1532 C 0.28354 0.55752 0.71677
 C1533 C 0.30078 0.55651 0.71428
 C1534 C 0.30692 0.56937 0.70822
 C1535 C 0.28307 0.57459 0.69516
 C1536 C 0.27693 0.56174 0.70122
 C1537 C 0.30185 0.59578 0.69865
 C1538 C 0.30731 0.60707 0.69314
 C1539 C 0.27686 0.54375 0.72338
 C1540 C 0.27108 0.53273 0.72910
 H1541 H 0.28663 0.59556 0.72613
 H1542 H 0.27524 0.57170 0.73740
 H1543 H 0.30758 0.54660 0.71707
 H1544 H 0.31898 0.57047 0.70583
 H1545 H 0.27954 0.57911 0.68425
 H1546 H 0.26816 0.55523 0.69549
 C1547 C 0.29538 1.08182 0.20508
 C1548 C 0.28640 1.08470 0.21973
 C1549 C 0.28024 1.07187 0.22581
 C1550 C 0.28367 1.05742 0.21665
 C1551 C 0.30106 1.05687 0.21537
 C1552 C 0.30722 1.06970 0.20928
 C1553 C 0.28417 1.07373 0.19447
 C1554 C 0.27801 1.06090 0.20055
 C1555 C 0.30202 1.09559 0.19849
 C1556 C 0.30749 1.10686 0.19298
 C1557 C 0.27697 1.04369 0.22327
 C1558 C 0.27117 1.03270 0.22900
 H1559 H 0.28498 1.09582 0.22486
 H1560 H 0.27355 1.07201 0.23616
 H1561 H 0.30793 1.04728 0.21897
 H1562 H 0.31938 1.07110 0.20768
 H1563 H 0.28125 1.07778 0.18320
 H1564 H 0.26983 1.05395 0.19450
 C1565 C 0.79526 0.58188 0.20514
 C1566 C 0.78652 0.57215 0.19362
 C1567 C 0.78038 0.55932 0.19971
 C1568 C 0.78357 0.55748 0.21673
 C1569 C 0.77769 0.57221 0.22402
 C1570 C 0.78384 0.58504 0.21792
 C1571 C 0.80708 0.57111 0.21213
 C1572 C 0.80093 0.55828 0.21822
 C1573 C 0.80189 0.59565 0.19854
 C1574 C 0.80735 0.60692 0.19303
 C1575 C 0.77688 0.54374 0.22335
 C1576 C 0.77109 0.53274 0.22909
 H1577 H 0.78521 0.57513 0.18174
 H1578 H 0.77381 0.55130 0.19305
 H1579 H 0.76943 0.57253 0.23316
 H1580 H 0.78084 0.59635 0.22184
 H1581 H 0.81920 0.57341 0.21234
 H1582 H 0.80779 0.54957 0.22365
 C1583 C 0.79525 1.08188 0.70505
 C1584 C 0.79857 1.06745 0.69583
 C1585 C 0.79242 1.05462 0.70194
 C1586 C 0.78357 1.05749 0.71666
 C1587 C 0.77173 1.06966 0.71258
 C1588 C 0.77787 1.08248 0.70647
 C1589 C 0.80100 1.07838 0.72111
 C1590 C 0.79485 1.06555 0.72721
 C1591 C 0.80187 1.09566 0.69845
 C1592 C 0.80730 1.10695 0.69296
 C1593 C 0.77687 1.04378 0.72332
 C1594 C 0.77106 1.03281 0.72910
 H1595 H 0.80514 1.06733 0.68541
 H1596 H 0.79374 1.04351 0.69676
 H1597 H 0.75958 1.06833 0.71436
 H1598 H 0.77100 1.09214 0.70303
 H1599 H 0.80912 1.08539 0.72718
 H1600 H 0.79772 1.06157 0.73851
 C1601 C 0.70490 0.58216 0.29483
 C1602 C 0.70604 0.56892 0.30613
 C1603 C 0.71212 0.55605 0.30005
 C1604 C 0.71647 0.55766 0.28328
 C1605 C 0.72719 0.57142 0.28267
 C1606 C 0.72110 0.58429 0.28874
 C1607 C 0.69579 0.57584 0.28139
 C1608 C 0.70188 0.56296 0.27532
 C1609 C 0.69833 0.59598 0.30142
 C1610 C 0.69291 0.60728 0.30694
 C1611 C 0.72310 0.54387 0.27667
 C1612 C 0.72884 0.53282 0.27096
 H1613 H 0.70242 0.56963 0.31788
 H1614 H 0.71371 0.54571 0.30660
 H1615 H 0.73855 0.57108 0.27786
 H1616 H 0.72724 0.59498 0.28913
 H1617 H 0.68552 0.58108 0.27698
 H1618 H 0.69681 0.55715 0.26571
 C1619 C 0.70468 1.08243 0.79507
 C1620 C 0.70719 1.06962 0.80662
 C1621 C 0.71332 1.05679 0.80048
 C1622 C 0.71635 1.05802 0.78339
 C1623 C 0.72643 1.07216 0.78158
 C1624 C 0.72030 1.08499 0.78772
 C1625 C 0.69488 1.07535 0.78253
 C1626 C 0.70101 1.06252 0.77639
 C1627 C 0.69804 1.09621 0.80173
 C1628 C 0.69257 1.10748 0.80728
 C1629 C 0.72303 1.04425 0.77673
 C1630 C 0.72879 1.03320 0.77102
 H1631 H 0.70443 1.07057 0.81858
 H1632 H 0.71581 1.04675 0.80719
 H1633 H 0.73740 1.07210 0.77593
 H1634 H 0.72601 1.09591 0.78733
 H1635 H 0.68411 1.08005 0.77873
 H1636 H 0.69550 1.05623 0.76735
 C1637 C 0.20469 0.58190 0.79486
 C1638 C 0.20792 0.56943 0.80661
 C1639 C 0.21406 0.55658 0.80053
 C1640 C 0.21637 0.55746 0.78331
 C1641 C 0.22608 0.57173 0.78076
 C1642 C 0.21994 0.58458 0.78684
 C1643 C 0.19453 0.57433 0.78290
 C1644 C 0.20067 0.56147 0.77683
 C1645 C 0.19805 0.59568 0.80147
 C1646 C 0.19257 0.60693 0.80703
 C1647 C 0.22305 0.54369 0.77670
 C1648 C 0.22883 0.53266 0.77099
 H1649 H 0.20563 0.57062 0.81865
 H1650 H 0.21702 0.54675 0.80737
 H1651 H 0.23682 0.57174 0.77469
 H1652 H 0.22541 0.59560 0.78596
 H1653 H 0.18353 0.57873 0.77943
 H1654 H 0.19492 0.55485 0.76817
 C1655 C 0.20486 1.08210 0.29467
 C1656 C 0.21716 1.07479 0.30464
 C1657 C 0.22328 1.06192 0.29857
 C1658 C 0.21649 1.05762 0.28312
 C1659 C 0.21864 1.07179 0.27317
 C1660 C 0.21253 1.08466 0.27924
 C1661 C 0.19317 1.06946 0.29189
 C1662 C 0.19928 1.05659 0.28582
 C1663 C 0.19826 1.09590 0.30127
 C1664 C 0.19280 1.10717 0.30681
 C1665 C 0.22314 1.04384 0.27653
 C1666 C 0.22890 1.03279 0.27083
 H1667 H 0.22082 1.07937 0.31547
 H1668 H 0.23215 1.05547 0.30421
 H1669 H 0.22448 1.07172 0.26232
 H1670 H 0.21313 1.09561 0.27359
 H1671 H 0.18113 1.07055 0.29441
 H1672 H 0.19249 1.04665 0.28315
 C1673 C 0.70482 0.41795 0.70527
 C1674 C 0.72120 0.41584 0.71089
 C1675 C 0.72735 0.42867 0.71696
 C1676 C 0.71653 0.44237 0.71683
 C1677 C 0.70219 0.43688 0.72511
 C1678 C 0.69603 0.42404 0.71904
 C1679 C 0.70556 0.43133 0.69412
 C1680 C 0.71171 0.44417 0.70020
 C1681 C 0.69820 0.40413 0.69870
 C1682 C 0.69280 0.39281 0.69323
 C1683 C 0.72324 0.45613 0.72345
 C1684 C 0.72904 0.46713 0.72918
 H1685 H 0.72741 0.40519 0.71020
 H1686 H 0.73884 0.42901 0.72147
 H1687 H 0.69733 0.44255 0.73492
 H1688 H 0.68591 0.41871 0.72365
 H1689 H 0.70162 0.43077 0.68247
 H1690 H 0.71304 0.45460 0.69375
 C1691 C 0.70490 -0.08210 0.20532
 C1692 C 0.72178 -0.08370 0.20945
 C1693 C 0.72789 -0.07085 0.21551
 C1694 C 0.71653 -0.05765 0.21685
 C1695 C 0.70320 -0.06409 0.22607
 C1696 C 0.69709 -0.07694 0.22001
 C1697 C 0.70412 -0.06829 0.19471
 C1698 C 0.71024 -0.05543 0.20077
 C1699 C 0.69831 -0.09590 0.19875
 C1700 C 0.69287 -0.10719 0.19326
 C1701 C 0.72320 -0.04390 0.22345
 C1702 C 0.72898 -0.03290 0.22919
 H1703 H 0.72834 -0.09403 0.20780
 H1704 H 0.73970 -0.07017 0.21905
 H1705 H 0.69897 -0.05902 0.23648
 H1706 H 0.68764 -0.08291 0.22524
 H1707 H 0.69923 -0.06859 0.18342
 H1708 H 0.71057 -0.04471 0.19468
 C1709 C 0.20465 0.41818 0.20509
 C1710 C 0.22209 0.41793 0.20571
 C1711 C 0.22825 0.43076 0.21178
 C1712 C 0.21636 0.44259 0.21665
 C1713 C 0.20574 0.43407 0.22755
 C1714 C 0.19958 0.42124 0.22147
 C1715 C 0.20062 0.43272 0.19634
 C1716 C 0.20677 0.44555 0.20241
 C1717 C 0.19803 0.40441 0.19850
 C1718 C 0.19260 0.39311 0.19300
 C1719 C 0.22305 0.45633 0.22326
 C1720 C 0.22885 0.46732 0.22899
 H1721 H 0.22901 0.40849 0.20178
 H1722 H 0.24043 0.43231 0.21305
 H1723 H 0.20332 0.43776 0.23905
 H1724 H 0.19190 0.41392 0.22777
 H1725 H 0.19357 0.43290 0.18624
 H1726 H 0.20499 0.45673 0.19752
 C1727 C 0.20480 -0.08192 0.70506
 C1728 C 0.19292 -0.07014 0.71005
 C1729 C 0.19909 -0.05734 0.71617
 C1730 C 0.21653 -0.05757 0.71670
 C1731 C 0.22155 -0.06055 0.70029
 C1732 C 0.21539 -0.07335 0.69418
 C1733 C 0.21444 -0.08496 0.71925
 C1734 C 0.22061 -0.07215 0.72536
 C1735 C 0.19815 -0.09566 0.69844
 C1736 C 0.19269 -0.10692 0.69292
 C1737 C 0.22324 -0.04387 0.72336
 C1738 C 0.22905 -0.03291 0.72913
 H1739 H 0.18073 -0.07175 0.70894
 H1740 H 0.19219 -0.04797 0.72029
 H1741 H 0.22932 -0.05328 0.69406
 H1742 H 0.21789 -0.07707 0.68271
 H1743 H 0.21628 -0.09617 0.72406
 H1744 H 0.22773 -0.07240 0.73542
 C1745 C 0.29495 0.29489 0.41819
 C1746 C 0.29712 0.27763 0.41943
 C1747 C 0.29103 0.27154 0.43228
 C1748 C 0.28336 0.28331 0.44262
 C1749 C 0.27165 0.29133 0.43248
 C1750 C 0.27774 0.29742 0.41963
 C1751 C 0.30173 0.30137 0.43286
 C1752 C 0.29564 0.29528 0.44571
 C1753 C 0.30154 0.30148 0.40440
 C1754 C 0.30701 0.30695 0.39311
 C1755 C 0.27673 0.27667 0.45638
 C1756 C 0.27098 0.27093 0.46739
 H1757 H 0.30288 0.27079 0.41094
 H1758 H 0.29159 0.25948 0.43479
 H1759 H 0.25962 0.29211 0.43512
 H1760 H 0.27093 0.30339 0.41127
 H1761 H 0.31055 0.30999 0.43313
 H1762 H 0.29924 0.29868 0.45699
 C1763 C 0.29535 0.79493 -0.08209
 C1764 C 0.29754 0.77767 -0.08086
 C1765 C 0.29145 0.77156 -0.06802
 C1766 C 0.28376 0.78330 -0.05766
 C1767 C 0.27204 0.79132 -0.06780
 C1768 C 0.27814 0.79743 -0.08064
 C1769 C 0.30212 0.80140 -0.06740
 C1770 C 0.29603 0.79529 -0.05455
 C1771 C 0.30193 0.80155 -0.09588
 C1772 C 0.30738 0.80705 -0.10717
 C1773 C 0.27711 0.77666 -0.04390
 C1774 C 0.27135 0.77093 -0.03288
 H1775 H 0.30331 0.77084 -0.08935
 H1776 H 0.29202 0.75949 -0.06551
 H1777 H 0.26001 0.79208 -0.06516
 H1778 H 0.27132 0.80341 -0.08900
 H1779 H 0.31094 0.81001 -0.06711
 H1780 H 0.29963 0.79866 -0.04327
 C1781 C 0.79483 0.29544 -0.08190
 C1782 C 0.80278 0.28079 -0.07675
 C1783 C 0.79672 0.27464 -0.06392
 C1784 C 0.78328 0.28374 -0.05749
 C1785 C 0.77193 0.28499 -0.07067
 C1786 C 0.77800 0.29113 -0.08350
 C1787 C 0.79547 0.30606 -0.06810
 C1788 C 0.78940 0.29991 -0.05527
 C1789 C 0.80139 0.30208 -0.09568
 C1790 C 0.80686 0.30759 -0.10694
 C1791 C 0.77667 0.27705 -0.04375
 C1792 C 0.77095 0.27127 -0.03275
 H1793 H 0.81229 0.27564 -0.08272
 H1794 H 0.80104 0.26424 -0.05888
 H1795 H 0.76016 0.28132 -0.06999
 H1796 H 0.77144 0.29272 -0.09381
 H1797 H 0.80024 0.31742 -0.06841
 H1798 H 0.78899 0.30600 -0.04458
 C1799 C 0.79478 0.79525 0.41815
 C1800 C 0.78710 0.80699 0.42850
 C1801 C 0.78104 0.80088 0.44136
 C1802 C 0.78325 0.78363 0.44259
 C1803 C 0.80046 0.78110 0.44110
 C1804 C 0.80652 0.78721 0.42825
 C1805 C 0.78251 0.78326 0.41506
 C1806 C 0.77645 0.77715 0.42791
 C1807 C 0.80135 0.80186 0.40435
 C1808 C 0.80680 0.80735 0.39307
 C1809 C 0.77665 0.77697 0.45636
 C1810 C 0.77092 0.77121 0.46737
 H1811 H 0.78643 0.81904 0.42593
 H1812 H 0.77519 0.80769 0.44980
 H1813 H 0.80727 0.77501 0.44938
 H1814 H 0.81853 0.78634 0.42550
 H1815 H 0.77890 0.77987 0.40379
 H1816 H 0.76764 0.76852 0.42763
 C1817 C 0.70497 0.29491 0.58180
 C1818 C 0.72086 0.30103 0.57799
 C1819 C 0.72695 0.29491 0.56516
 C1820 C 0.71657 0.28326 0.55739
 C1821 C 0.70153 0.29167 0.55467
 C1822 C 0.69543 0.29780 0.56751
 C1823 C 0.70689 0.27759 0.58256
 C1824 C 0.71299 0.27146 0.56973
 C1825 C 0.69837 0.30154 0.59557
 C1826 C 0.69287 0.30707 0.60682
 C1827 C 0.72320 0.27660 0.54364
 C1828 C 0.72893 0.27085 0.53262
 H1829 H 0.72683 0.30936 0.58483
 H1830 H 0.73814 0.29802 0.56099
 H1831 H 0.69612 0.29271 0.54365
 H1832 H 0.68480 0.30408 0.56748
 H1833 H 0.70380 0.27074 0.59233
 H1834 H 0.71510 0.25937 0.56851
 C1835 C 0.70507 0.79516 1.08193
 C1836 C 0.71508 0.78118 1.08490
 C1837 C 0.72119 0.77509 1.07207
 C1838 C 0.71669 0.78357 1.05751
 C1839 C 0.72139 0.80013 1.06029
 C1840 C 0.71528 0.80622 1.07314
 C1841 C 0.69313 0.78983 1.07041
 C1842 C 0.69924 0.78374 1.05757
 C1843 C 0.69846 0.80174 1.09571
 C1844 C 0.69296 0.80721 1.10698
 C1845 C 0.72332 0.77694 1.04376
 C1846 C 0.72905 0.77118 1.03275
 H1847 H 0.71720 0.77649 1.09610
 H1848 H 0.72855 0.76517 1.07227
 H1849 H 0.72891 0.80649 1.05288
 H1850 H 0.71759 0.81779 1.07673
 H1851 H 0.68095 0.79070 1.07222
 H1852 H 0.69229 0.77941 1.04837
 C1853 C 0.20510 0.29507 1.08192
 C1854 C 0.21083 0.27873 1.08399
 C1855 C 0.21692 0.27262 1.07115
 C1856 C 0.21668 0.28346 1.05749
 C1857 C 0.22492 0.29781 1.06297
 C1858 C 0.21883 0.30392 1.07581
 C1859 C 0.19389 0.29430 1.06860
 C1860 C 0.19997 0.28819 1.05576
 C1861 C 0.19851 0.30167 1.09570
 C1862 C 0.19302 0.30715 1.10696
 C1863 C 0.22330 0.27681 1.04374
 C1864 C 0.22902 0.27104 1.03274
 H1865 H 0.21021 0.27252 1.09462
 H1866 H 0.22151 0.26117 1.07078
 H1867 H 0.23472 0.30272 1.05729
 H1868 H 0.22342 0.31403 1.08115
 H1869 H 0.18218 0.29818 1.06922
 H1870 H 0.19349 0.28685 1.04537
 C1871 C 0.20510 0.79524 0.58176
 C1872 C 0.19988 0.80321 0.56716
 C1873 C 0.20598 0.79713 0.55431
 C1874 C 0.21669 0.78369 0.55731
 C1875 C 0.20722 0.77235 0.56659
 C1876 C 0.20113 0.77843 0.57944
 C1877 C 0.22253 0.79587 0.58131
 C1878 C 0.22863 0.78980 0.56846
 C1879 C 0.19851 0.80180 0.59556
 C1880 C 0.19303 0.80724 0.60686
 C1881 C 0.22331 0.77707 0.54355
 C1882 C 0.22905 0.77131 0.53254
 H1883 H 0.19210 0.81279 0.56695
 H1884 H 0.20342 0.80151 0.54308
 H1885 H 0.20551 0.76057 0.56338
 H1886 H 0.19422 0.77185 0.58725
 H1887 H 0.22948 0.80061 0.59032
 H1888 H 0.24080 0.78935 0.56644
 C1889 C 0.29501 0.70507 0.58181
 C1890 C 0.27943 0.69845 0.57764
 C1891 C 0.27333 0.70456 0.56480
 C1892 C 0.28342 0.71670 0.55738
 C1893 C 0.29880 0.70887 0.55479
 C1894 C 0.30489 0.70276 0.56763
 C1895 C 0.29246 0.72230 0.58279
 C1896 C 0.28636 0.72841 0.56995
 C1897 C 0.30161 0.69847 0.59560
 C1898 C 0.30707 0.69299 0.60688
 C1899 C 0.27678 0.72335 0.54362
 C1900 C 0.27105 0.72910 0.53260
 H1901 H 0.27365 0.68979 0.58424
 H1902 H 0.26233 0.70111 0.56040
 H1903 H 0.30442 0.70820 0.54385
 H1904 H 0.31574 0.69687 0.56769
 H1905 H 0.29514 0.72909 0.59271
 H1906 H 0.28383 0.74044 0.56888
 C1907 C 0.29496 0.20482 1.08193
 C1908 C 0.30507 0.21688 1.07444
 C1909 C 0.29896 0.22295 1.06159
 C1910 C 0.28334 0.21637 1.05750
 C1911 C 0.27352 0.21882 1.07170
 C1912 C 0.27963 0.21274 1.08455
 C1913 C 0.29189 0.19305 1.06945
 C1914 C 0.28579 0.19912 1.05660
 C1915 C 0.30157 0.19826 1.09572
 C1916 C 0.30707 0.19282 1.10700
 C1917 C 0.27670 0.22299 1.04374
 C1918 C 0.27096 0.22875 1.03273
 H1919 H 0.31603 0.22039 1.07887
 H1920 H 0.30470 0.23166 1.05501
 H1921 H 0.26272 0.22480 1.07167
 H1922 H 0.27407 0.21353 1.09552
 H1923 H 0.29426 0.18100 1.07064
 H1924 H 0.28293 0.19228 1.04677
 C1925 C 0.79486 0.70491 1.08194
 C1926 C 0.80500 0.71695 1.07446
 C1927 C 0.79892 0.72305 1.06162
 C1928 C 0.78329 0.71650 1.05750
 C1929 C 0.77346 0.71896 1.07170
 C1930 C 0.77954 0.71286 1.08455
 C1931 C 0.79178 0.69316 1.06945
 C1932 C 0.78570 0.69925 1.05660
 C1933 C 0.80144 0.69833 1.09573
 C1934 C 0.80692 0.69287 1.10702
 C1935 C 0.77667 0.72314 1.04374
 C1936 C 0.77096 0.72891 1.03273
 H1937 H 0.81597 0.72044 1.07892
 H1938 H 0.80468 0.73175 1.05505
 H1939 H 0.76267 0.72497 1.07167
 H1940 H 0.77398 0.71365 1.09551
 H1941 H 0.79413 0.68110 1.07062
 H1942 H 0.78284 0.69242 1.04676
 C1943 C 0.79490 0.20471 0.58177
 C1944 C 0.79169 0.22181 0.58297
 C1945 C 0.78558 0.22789 0.57013
 C1946 C 0.78328 0.21627 0.55734
 C1947 C 0.77353 0.20365 0.56441
 C1948 C 0.77964 0.19757 0.57725
 C1949 C 0.80508 0.20298 0.56773
 C1950 C 0.79897 0.20905 0.55488
 C1951 C 0.80152 0.19814 0.59555
 C1952 C 0.80703 0.19269 0.60682
 C1953 C 0.77664 0.22289 0.54359
 C1954 C 0.77091 0.22865 0.53257
 H1955 H 0.79395 0.22853 0.59304
 H1956 H 0.78262 0.23983 0.56920
 H1957 H 0.76274 0.19987 0.55977
 H1958 H 0.77408 0.18861 0.58363
 H1959 H 0.81614 0.19747 0.56787
 H1960 H 0.80478 0.20875 0.54402
 C1961 C 0.70496 0.70507 0.41826
 C1962 C 0.71985 0.69745 0.42323
 C1963 C 0.72594 0.70356 0.43606
 C1964 C 0.71654 0.71669 0.44267
 C1965 C 0.70054 0.71014 0.44497
 C1966 C 0.69445 0.70404 0.43213
 C1967 C 0.70882 0.72200 0.41676
 C1968 C 0.71491 0.72811 0.42959
 C1969 C 0.69837 0.69846 0.40450
 C1970 C 0.69290 0.69297 0.39323
 C1971 C 0.72317 0.72334 0.45641
 C1972 C 0.72891 0.72908 0.46742
 H1973 H 0.72519 0.68814 0.41715
 H1974 H 0.73649 0.69946 0.44099
 H1975 H 0.69451 0.71032 0.45571
 H1976 H 0.68320 0.69898 0.43188
 H1977 H 0.70699 0.72860 0.40652
 H1978 H 0.71828 0.73995 0.43033
 C1979 C 0.70506 0.20498 -0.08192
 C1980 C 0.69355 0.21404 -0.07244
 C1981 C 0.69960 0.22018 -0.05960
 C1982 C 0.71657 0.21666 -0.05750
 C1983 C 0.72419 0.22223 -0.07216
 C1984 C 0.71814 0.21609 -0.08500
 C1985 C 0.71168 0.19314 -0.07097
 C1986 C 0.71773 0.19928 -0.05813
 C1987 C 0.69852 0.19833 -0.09572
 C1988 C 0.69310 0.19282 -0.10700
 C1989 C 0.72317 0.22334 -0.04375
 C1990 C 0.72891 0.22910 -0.03274
 H1991 H 0.68171 0.21557 -0.07558
 H1992 H 0.69294 0.22695 -0.05174
 H1993 H 0.73351 0.23031 -0.07244
 H1994 H 0.72228 0.21891 -0.09626
 H1995 H 0.71167 0.18099 -0.07314
 H1996 H 0.72288 0.19239 -0.04930
 C1997 C 0.20511 0.70499 -0.08186
 C1998 C 0.19355 0.71366 -0.07210
 C1999 C 0.19964 0.71974 -0.05926
 C2000 C 0.21670 0.71655 -0.05744
 C2001 C 0.22400 0.72250 -0.07212
 C2002 C 0.21791 0.71641 -0.08496
 C2003 C 0.21214 0.69312 -0.07118
 C2004 C 0.21823 0.69921 -0.05834
 C2005 C 0.19854 0.69842 -0.09566
 C2006 C 0.19309 0.69298 -0.10695
 C2007 C 0.22335 0.72319 -0.04370
 C2008 C 0.22912 0.72894 -0.03272
 H2009 H 0.18163 0.71496 -0.07505
 H2010 H 0.19294 0.72624 -0.05120
 H2011 H 0.23316 0.73076 -0.07240
 H2012 H 0.22184 0.71947 -0.09623
 H2013 H 0.21236 0.68102 -0.07353
 H2014 H 0.22366 0.69231 -0.04968
 C2015 C 0.20494 0.20493 0.41823
 C2016 C 0.22152 0.21000 0.41636
 C2017 C 0.22761 0.21610 0.42919
 C2018 C 0.21651 0.21652 0.44264
 C2019 C 0.21115 0.20005 0.44461
 C2020 C 0.20507 0.19396 0.43177
 C2021 C 0.19647 0.21909 0.42391
 C2022 C 0.20256 0.22518 0.43674
 C2023 C 0.19836 0.19834 0.40444
 C2024 C 0.19290 0.19288 0.39316
 C2025 C 0.22314 0.22315 0.45639
 C2026 C 0.22888 0.22889 0.46740
 H2027 H 0.22790 0.20895 0.40587
 H2028 H 0.23922 0.22026 0.42969
 H2029 H 0.21208 0.19373 0.45514
 H2030 H 0.20079 0.18240 0.43130
 H2031 H 0.18662 0.22395 0.41828
 H2032 H 0.19791 0.23526 0.44213
 C2033 C 0.29517 0.41801 0.70513
 C2034 C 0.29255 0.43072 0.69349
 C2035 C 0.28645 0.44359 0.69957
 C2036 C 0.28358 0.44248 0.71670
 C2037 C 0.29899 0.43808 0.72360
 C2038 C 0.30509 0.42521 0.71752
 C2039 C 0.27963 0.41549 0.71263
 C2040 C 0.27354 0.42836 0.71872
 C2041 C 0.30174 0.40418 0.69855
 C2042 C 0.30715 0.39287 0.69305
 C2043 C 0.27693 0.45625 0.72333
 C2044 C 0.27116 0.46727 0.72906
 H2045 H 0.29522 0.42969 0.68151
 H2046 H 0.28391 0.45359 0.69282
 H2047 H 0.30459 0.44446 0.73253
 H2048 H 0.31590 0.42056 0.72123
 H2049 H 0.27393 0.40457 0.71316
 H2050 H 0.26261 0.42845 0.72446
 C2051 C 0.29537 0.91823 0.20489
 C2052 C 0.29273 0.93096 0.19327
 C2053 C 0.28662 0.94381 0.19937
 C2054 C 0.28373 0.94267 0.21650
 C2055 C 0.29915 0.93827 0.22340
 C2056 C 0.30526 0.92542 0.21729
 C2057 C 0.27982 0.91568 0.21238
 C2058 C 0.27371 0.92853 0.21848
 C2059 C 0.30195 0.90442 0.19828
 C2060 C 0.30737 0.89311 0.19278
 C2061 C 0.27705 0.95641 0.22315
 C2062 C 0.27124 0.96739 0.22892
 H2063 H 0.29541 0.92994 0.18129
 H2064 H 0.28406 0.95381 0.19262
 H2065 H 0.30475 0.94467 0.23231
 H2066 H 0.31610 0.92080 0.22099
 H2067 H 0.27413 0.90475 0.21286
 H2068 H 0.26276 0.92860 0.22419
 C2069 C 0.79543 0.41832 0.20502
 C2070 C 0.79276 0.43105 0.19340
 C2071 C 0.78658 0.44387 0.19951
 C2072 C 0.78369 0.44271 0.21663
 C2073 C 0.79911 0.43836 0.22355
 C2074 C 0.80528 0.42554 0.21744
 C2075 C 0.77988 0.41570 0.21248
 C2076 C 0.77371 0.42853 0.21859
 C2077 C 0.80208 0.40456 0.19838
 C2078 C 0.80756 0.39332 0.19281
 C2079 C 0.77697 0.45643 0.22328
 C2080 C 0.77115 0.46741 0.22903
 H2081 H 0.79544 0.43005 0.18143
 H2082 H 0.78399 0.45387 0.19277
 H2083 H 0.80466 0.44475 0.23249
 H2084 H 0.81611 0.42093 0.22117
 H2085 H 0.77424 0.40475 0.21297
 H2086 H 0.76277 0.42855 0.22430
 C2087 C 0.79537 0.91848 0.70504
 C2088 C 0.79265 0.93124 0.69347
 C2089 C 0.78647 0.94405 0.69962
 C2090 C 0.78362 0.94284 0.71675
 C2091 C 0.79906 0.93849 0.72361
 C2092 C 0.80524 0.92569 0.71746
 C2093 C 0.77984 0.91584 0.71254
 C2094 C 0.77367 0.92864 0.71870
 C2095 C 0.80202 0.90471 0.69838
 C2096 C 0.80748 0.89343 0.69284
 C2097 C 0.77688 0.95655 0.72346
 C2098 C 0.77105 0.96753 0.72923
 H2099 H 0.79531 0.93029 0.68148
 H2100 H 0.78386 0.95406 0.69292
 H2101 H 0.80463 0.94488 0.73256
 H2102 H 0.81609 0.92110 0.72114
 H2103 H 0.77421 0.90488 0.71301
 H2104 H 0.76274 0.92863 0.72444
 C2105 C 0.70479 0.58184 0.70533
 C2106 C 0.71342 0.57205 0.69377
 C2107 C 0.71959 0.55921 0.69985
 C2108 C 0.71652 0.55741 0.71689
 C2109 C 0.69917 0.55829 0.71851
 C2110 C 0.69300 0.57113 0.71244
 C2111 C 0.71630 0.58498 0.71803
 C2112 C 0.72247 0.57214 0.72410
 C2113 C 0.69812 0.59562 0.69872
 C2114 C 0.69262 0.60687 0.69317
 C2115 C 0.72324 0.54365 0.72349
 C2116 C 0.72903 0.53262 0.72920
 H2117 H 0.71466 0.57500 0.68188
 H2118 H 0.72609 0.55114 0.69315
 H2119 H 0.69234 0.54962 0.72401
 H2120 H 0.68088 0.57348 0.71275
 H2121 H 0.71934 0.59628 0.72191
 H2122 H 0.73079 0.57245 0.73319
 C2123 C 0.70483 0.08150 0.20501
 C2124 C 0.71349 0.07166 0.19351
 C2125 C 0.71964 0.05884 0.19966
 C2126 C 0.71652 0.05713 0.21670
 C2127 C 0.69917 0.05801 0.21828
 C2128 C 0.69302 0.07083 0.21213
 C2129 C 0.71631 0.08470 0.21771
 C2130 C 0.72246 0.07188 0.22386
 C2131 C 0.69820 0.09528 0.19836
 C2132 C 0.69276 0.10656 0.19282
 C2133 C 0.72323 0.04341 0.22340
 C2134 C 0.72903 0.03242 0.22918
 H2135 H 0.71474 0.07454 0.18160
 H2136 H 0.72614 0.05073 0.19302
 H2137 H 0.69232 0.04937 0.22380
 H2138 H 0.68090 0.07317 0.21239
 H2139 H 0.71935 0.09602 0.22154
 H2140 H 0.73077 0.07224 0.23296
 C2141 C 0.20452 0.58180 0.20495
 C2142 C 0.20143 0.58001 0.22199
 C2143 C 0.20758 0.56716 0.22807
 C2144 C 0.21623 0.55736 0.21652
 C2145 C 0.22803 0.56809 0.20946
 C2146 C 0.22188 0.58093 0.20338
 C2147 C 0.19858 0.56708 0.19772
 C2148 C 0.20475 0.55423 0.20381
 C2149 C 0.19791 0.59562 0.19838
 C2150 C 0.19253 0.60697 0.19291
 C2151 C 0.22296 0.54363 0.22316
 C2152 C 0.22879 0.53265 0.22892
 H2153 H 0.19500 0.58812 0.22870
 H2154 H 0.20642 0.56428 0.23999
 H2155 H 0.24017 0.56582 0.20928
 H2156 H 0.22874 0.58966 0.19800
 H2157 H 0.19027 0.56678 0.18863
 H2158 H 0.20171 0.54293 0.19993
 C2159 C 0.20463 0.08146 0.70513
 C2160 C 0.21676 0.07400 0.69505
 C2161 C 0.22297 0.06120 0.70119
 C2162 C 0.21644 0.05711 0.71682
 C2163 C 0.19919 0.05607 0.71443
 C2164 C 0.19298 0.06886 0.70828
 C2165 C 0.21257 0.08420 0.72039
 C2166 C 0.21877 0.07141 0.72653
 C2167 C 0.19794 0.09523 0.69848
 C2168 C 0.19247 0.10652 0.69296
 C2169 C 0.22321 0.04340 0.72351
 C2170 C 0.22905 0.03241 0.72928
 H2171 H 0.22021 0.07841 0.68408
 H2172 H 0.23173 0.05466 0.69548
 H2173 H 0.19244 0.04616 0.71733
 H2174 H 0.18091 0.06992 0.70593
 H2175 H 0.21327 0.09522 0.72587
 H2176 H 0.22479 0.07148 0.73728
 C2177 C 0.29519 0.58193 0.29468
 C2178 C 0.28508 0.57308 0.30580
 C2179 C 0.27896 0.56022 0.29975
 C2180 C 0.28355 0.55747 0.28318
 C2181 C 0.30100 0.55755 0.28318
 C2182 C 0.30712 0.57041 0.28923
 C2183 C 0.28507 0.58492 0.28082
 C2184 C 0.27895 0.57206 0.27477
 C2185 C 0.30179 0.59573 0.30125
 C2186 C 0.30725 0.60700 0.30677
 C2187 C 0.27688 0.54370 0.27659
 C2188 C 0.27111 0.53268 0.27088
 H2189 H 0.28287 0.57665 0.31738
 H2190 H 0.27152 0.55276 0.30615
 H2191 H 0.30793 0.54835 0.27878
 H2192 H 0.31930 0.57224 0.29000
 H2193 H 0.28289 0.59614 0.27618
 H2194 H 0.27153 0.57227 0.26494
 C2195 C 0.29527 0.08170 0.79486
 C2196 C 0.28486 0.07305 0.80585
 C2197 C 0.27876 0.06018 0.79980
 C2198 C 0.28366 0.05722 0.78336
 C2199 C 0.30111 0.05716 0.78372
 C2200 C 0.30721 0.07003 0.78976
 C2201 C 0.28546 0.08464 0.78076
 C2202 C 0.27936 0.07177 0.77472
 C2203 C 0.30188 0.09549 0.80145
 C2204 C 0.30736 0.10673 0.80700
 C2205 C 0.27704 0.04343 0.77680
 C2206 C 0.27132 0.03236 0.77112
 H2207 H 0.28241 0.07677 0.81733
 H2208 H 0.27110 0.05287 0.80611
 H2209 H 0.30806 0.04787 0.77952
 H2210 H 0.31939 0.07177 0.79073
 H2211 H 0.28347 0.09583 0.77596
 H2212 H 0.27214 0.07194 0.76473
 C2213 C 0.79537 0.58188 0.79496
 C2214 C 0.80001 0.57911 0.77841
 C2215 C 0.79390 0.56624 0.77235
 C2216 C 0.78374 0.55740 0.78343
 C2217 C 0.77180 0.56897 0.78879
 C2218 C 0.77791 0.58183 0.79485
 C2219 C 0.79990 0.56730 0.80341
 C2220 C 0.79379 0.55443 0.79735
 C2221 C 0.80196 0.59570 0.80153
 C2222 C 0.80739 0.60701 0.80702
 C2223 C 0.77708 0.54363 0.77682
 C2224 C 0.77131 0.53261 0.77109
 H2225 H 0.80739 0.58662 0.77199
 H2226 H 0.79606 0.56273 0.76074
 H2227 H 0.75962 0.56722 0.78788
 H2228 H 0.77097 0.59109 0.79912
 H2229 H 0.80724 0.56711 0.81330
 H2230 H 0.79591 0.54322 0.80204
 C2231 C 0.79546 0.08163 0.29484
 C2232 C 0.79928 0.07933 0.27801
 C2233 C 0.79315 0.06647 0.27199
 C2234 C 0.78379 0.05716 0.28338
 C2235 C 0.77190 0.06832 0.28961
 C2236 C 0.77803 0.08118 0.29564
 C2237 C 0.80075 0.06699 0.30271
 C2238 C 0.79462 0.05412 0.29669
 C2239 C 0.80205 0.09546 0.30136
 C2240 C 0.80744 0.10680 0.30680
 C2241 C 0.77711 0.04339 0.27682
 C2242 C 0.77132 0.03237 0.27112
 H2243 H 0.80615 0.08715 0.27139
 H2244 H 0.79477 0.06326 0.26021
 H2245 H 0.75972 0.06631 0.28928
 H2246 H 0.77111 0.09019 0.30045
 H2247 H 0.80863 0.06675 0.31219
 H2248 H 0.79724 0.04286 0.30100
 C2249 C 0.70474 0.41809 0.29476
 C2250 C 0.69987 0.43271 0.30292
 C2251 C 0.70602 0.44556 0.29687
 C2252 C 0.71645 0.44252 0.28325
 C2253 C 0.70667 0.43347 0.27201
 C2254 C 0.70051 0.42062 0.27807
 C2255 C 0.72219 0.41828 0.29510
 C2256 C 0.72834 0.43113 0.28904
 C2257 C 0.69809 0.40432 0.30135
 C2258 C 0.69259 0.39308 0.30689
 C2259 C 0.72313 0.45628 0.27667
 C2260 C 0.72890 0.46731 0.27097
 H2261 H 0.69225 0.43295 0.31261
 H2262 H 0.70368 0.45680 0.30137
 H2263 H 0.70481 0.43682 0.26031
 H2264 H 0.69340 0.41296 0.27154
 H2265 H 0.72911 0.40911 0.29961
 H2266 H 0.74053 0.43297 0.28839
 C2267 C 0.70477 0.91822 0.79486
 C2268 C 0.71288 0.92827 0.80655
 C2269 C 0.71901 0.94113 0.80051
 C2270 C 0.71643 0.94269 0.78337
 C2271 C 0.69915 0.94153 0.78124
 C2272 C 0.69302 0.92866 0.78728
 C2273 C 0.71672 0.91511 0.78255
 C2274 C 0.72285 0.92797 0.77651
 C2275 C 0.69813 0.90444 0.80144
 C2276 C 0.69263 0.89321 0.80699
 C2277 C 0.72308 0.95648 0.77682
 C2278 C 0.72881 0.96754 0.77114
 H2279 H 0.71382 0.92547 0.81851
 H2280 H 0.72518 0.94936 0.80730
 H2281 H 0.69234 0.95001 0.77542
 H2282 H 0.68096 0.92611 0.78662
 H2283 H 0.72007 0.90381 0.77890
 H2284 H 0.73145 0.92769 0.76768
 C2285 C 0.20459 0.41805 0.79497
 C2286 C 0.20243 0.43227 0.80483
 C2287 C 0.20860 0.44508 0.79871
 C2288 C 0.21633 0.44243 0.78334
 C2289 C 0.20407 0.43510 0.77334
 C2290 C 0.19790 0.42229 0.77945
 C2291 C 0.22181 0.41693 0.79233
 C2292 C 0.22798 0.42974 0.78622
 C2293 C 0.19793 0.40428 0.80159
 C2294 C 0.19246 0.39301 0.80710
 C2295 C 0.22304 0.45617 0.77669
 C2296 C 0.22884 0.46718 0.77095
 H2297 H 0.19659 0.43226 0.81568
 H2298 H 0.20803 0.45605 0.80431
 H2299 H 0.20059 0.43955 0.76239
 H2300 H 0.18915 0.41575 0.77374
 H2301 H 0.22856 0.40694 0.79498
 H2302 H 0.24001 0.43072 0.78363
 C2303 C 0.20467 0.91817 0.29473
 C2304 C 0.20274 0.91930 0.27746
 C2305 C 0.20890 0.93212 0.27138
 C2306 C 0.21638 0.94257 0.28315
 C2307 C 0.22800 0.93246 0.29137
 C2308 C 0.22184 0.91964 0.29746
 C2309 C 0.19777 0.93291 0.30101
 C2310 C 0.20393 0.94574 0.29492
 C2311 C 0.19801 0.90441 0.30132
 C2312 C 0.19254 0.89315 0.30684
 C2313 C 0.22308 0.95630 0.27654
 C2314 C 0.22887 0.96731 0.27082
 H2315 H 0.19712 0.91073 0.27061
 H2316 H 0.20854 0.93456 0.25931
 H2317 H 0.24002 0.93511 0.29227
 H2318 H 0.22858 0.91129 0.30356
 H2319 H 0.18883 0.93324 0.30950
 H2320 H 0.20027 0.95706 0.29819
 C2321 C 0.41798 0.29517 0.70516
 C2322 C 0.42098 0.30020 0.72155
 C2323 C 0.43384 0.29408 0.72764
 C2324 C 0.44245 0.28352 0.71674
 C2325 C 0.44539 0.29315 0.70253
 C2326 C 0.43253 0.29927 0.69644
 C2327 C 0.41782 0.27774 0.70573
 C2328 C 0.43068 0.27162 0.71182
 C2329 C 0.40415 0.30176 0.69857
 C2330 C 0.39284 0.30719 0.69307
 C2331 C 0.45621 0.27684 0.72337
 C2332 C 0.46723 0.27105 0.72912
 H2333 H 0.41362 0.30785 0.72783
 H2334 H 0.43751 0.29650 0.73914
 H2335 H 0.45659 0.29500 0.69768
 H2336 H 0.43270 0.30636 0.68636
 H2337 H 0.40842 0.27082 0.70176
 H2338 H 0.43229 0.25945 0.71306
 C2339 C 0.41810 0.79538 0.20506
 C2340 C 0.43258 0.79904 0.19604
 C2341 C 0.44545 0.79293 0.20214
 C2342 C 0.44256 0.78376 0.21666
 C2343 C 0.43059 0.77187 0.21224
 C2344 C 0.41773 0.77798 0.20614
 C2345 C 0.42138 0.80085 0.22126
 C2346 C 0.43424 0.79474 0.22736
 C2347 C 0.40429 0.80197 0.19845
 C2348 C 0.39299 0.80739 0.19293
 C2349 C 0.45632 0.77709 0.22331
 C2350 C 0.46732 0.77130 0.22907
 H2351 H 0.43271 0.80582 0.18575
 H2352 H 0.45659 0.79447 0.19708
 H2353 H 0.43207 0.75972 0.21379
 H2354 H 0.40819 0.77107 0.20248
 H2355 H 0.41420 0.80877 0.22742
 H2356 H 0.43809 0.79744 0.23874
 C2357 C 0.91812 0.29548 0.20509
 C2358 C 0.92898 0.28873 0.19324
 C2359 C 0.94183 0.28257 0.19933
 C2360 C 0.94254 0.28376 0.21667
 C2361 C 0.92781 0.27630 0.22233
 C2362 C 0.91497 0.28246 0.21624
 C2363 C 0.92776 0.30690 0.21406
 C2364 C 0.94060 0.30074 0.22015
 C2365 C 0.90435 0.30214 0.19847
 C2366 C 0.89311 0.30763 0.19290
 C2367 C 0.95629 0.27706 0.22330
 C2368 C 0.96730 0.27126 0.22903
 H2369 H 0.92675 0.28873 0.18113
 H2370 H 0.95060 0.27730 0.19244
 H2371 H 0.92749 0.26700 0.23042
 H2372 H 0.90365 0.27845 0.21911
 H2373 H 0.92471 0.31876 0.21557
 H2374 H 0.94857 0.30732 0.22686
 C2375 C 0.91819 0.79555 0.70505
 C2376 C 0.91834 0.79572 0.72245
 C2377 C 0.93118 0.78958 0.72857
 C2378 C 0.94260 0.78386 0.71669
 C2379 C 0.94568 0.79760 0.70642
 C2380 C 0.93284 0.80374 0.70030
 C2381 C 0.92072 0.77885 0.70069
 C2382 C 0.93356 0.77271 0.70681
 C2383 C 0.90440 0.80218 0.69842
 C2384 C 0.89312 0.80765 0.69289
 C2385 C 0.95634 0.77717 0.72335
 C2386 C 0.96735 0.77138 0.72910
 H2387 H 0.90916 0.80021 0.72935
 H2388 H 0.93299 0.78882 0.74073
 H2389 H 0.95694 0.80211 0.70418
 H2390 H 0.93311 0.81352 0.69280
 H2391 H 0.91307 0.77240 0.69350
 H2392 H 0.93691 0.76099 0.70485
 C2393 C 0.58203 0.29527 0.29471
 C2394 C 0.58398 0.29006 0.27821
 C2395 C 0.57116 0.28385 0.27215
 C2396 C 0.55764 0.28346 0.28318
 C2397 C 0.55557 0.29997 0.28839
 C2398 C 0.56840 0.30618 0.29445
 C2399 C 0.57638 0.28116 0.30325
 C2400 C 0.56356 0.27495 0.29719
 C2401 C 0.59579 0.30198 0.30130
 C2402 C 0.60702 0.30749 0.30685
 C2403 C 0.54389 0.27672 0.27660
 C2404 C 0.53288 0.27091 0.27091
 H2405 H 0.59451 0.29111 0.27186
 H2406 H 0.57070 0.27959 0.26061
 H2407 H 0.54499 0.30624 0.28738
 H2408 H 0.56880 0.31778 0.29861
 H2409 H 0.58202 0.27641 0.31312
 H2410 H 0.55820 0.26489 0.30190
 C2411 C 0.58190 0.79557 0.79495
 C2412 C 0.58328 0.79198 0.77797
 C2413 C 0.57044 0.78580 0.77191
 C2414 C 0.55748 0.78380 0.78343
 C2415 C 0.55501 0.79965 0.79024
 C2416 C 0.56784 0.80584 0.79629
 C2417 C 0.57723 0.78050 0.80237
 C2418 C 0.56439 0.77431 0.79631
 C2419 C 0.59567 0.80225 0.80154
 C2420 C 0.60692 0.80775 0.80708
 C2421 C 0.54371 0.77708 0.77684
 C2422 C 0.53268 0.77129 0.77114
 H2423 H 0.59345 0.79406 0.77130
 H2424 H 0.56961 0.78259 0.76005
 H2425 H 0.54414 0.80552 0.79027
 H2426 H 0.56798 0.81701 0.80150
 H2427 H 0.58351 0.77511 0.81151
 H2428 H 0.55967 0.76364 0.80029
 C2429 C 0.08172 0.29526 0.79496
 C2430 C 0.08490 0.28414 0.78194
 C2431 C 0.07207 0.27799 0.77582
 C2432 C 0.05732 0.28357 0.78332
 C2433 C 0.05795 0.30096 0.78215
 C2434 C 0.07078 0.30710 0.78827
 C2435 C 0.07214 0.28622 0.80637
 C2436 C 0.05931 0.28007 0.80026
 C2437 C 0.09550 0.30190 0.80158
 C2438 C 0.10677 0.30737 0.80710
 C2439 C 0.04358 0.27689 0.77667
 C2440 C 0.03256 0.27111 0.77094
 H2441 H 0.09621 0.28133 0.77788
 H2442 H 0.07241 0.26992 0.76651
 H2443 H 0.04914 0.30783 0.77692
 H2444 H 0.07296 0.31924 0.78828
 H2445 H 0.07520 0.28471 0.81821
 H2446 H 0.05138 0.27331 0.80685
 C2447 C 0.08181 0.79548 0.29473
 C2448 C 0.08488 0.78538 0.28088
 C2449 C 0.07205 0.77921 0.27479
 C2450 C 0.05741 0.78375 0.28315
 C2451 C 0.05742 0.80119 0.28316
 C2452 C 0.07025 0.80735 0.28925
 C2453 C 0.07296 0.78535 0.30582
 C2454 C 0.06013 0.77918 0.29973
 C2455 C 0.09559 0.80213 0.30134
 C2456 C 0.10686 0.80760 0.30686
 C2457 C 0.04366 0.77705 0.27653
 C2458 C 0.03264 0.77126 0.27082
 H2459 H 0.09613 0.78324 0.27627
 H2460 H 0.07232 0.77180 0.26495
 H2461 H 0.04820 0.80809 0.27872
 H2462 H 0.07203 0.81953 0.29002
 H2463 H 0.07650 0.78314 0.31740
 H2464 H 0.05268 0.77171 0.30610
 C2465 C 0.58190 0.70476 0.70539
 C2466 C 0.58164 0.72219 0.70487
 C2467 C 0.56880 0.72838 0.71094
 C2468 C 0.55748 0.71654 0.71695
 C2469 C 0.56665 0.70690 0.72823
 C2470 C 0.57950 0.70070 0.72215
 C2471 C 0.56723 0.69978 0.69739
 C2472 C 0.55439 0.70597 0.70347
 C2473 C 0.59568 0.69807 0.69878
 C2474 C 0.60693 0.69256 0.69322
 C2475 C 0.54372 0.72327 0.72356
 C2476 C 0.53269 0.72908 0.72928
 H2477 H 0.59076 0.72906 0.70021
 H2478 H 0.56692 0.74056 0.71147
 H2479 H 0.56339 0.70515 0.73997
 H2480 H 0.58723 0.69367 0.72869
 H2481 H 0.56695 0.69207 0.68779
 H2482 H 0.54312 0.70356 0.69907
 C2483 C 0.58203 0.20437 0.20508
 C2484 C 0.57835 0.19839 0.22101
 C2485 C 0.56552 0.20454 0.22713
 C2486 C 0.55761 0.21608 0.21671
 C2487 C 0.55479 0.20753 0.20182
 C2488 C 0.56763 0.20137 0.19570
 C2489 C 0.58275 0.22171 0.20681
 C2490 C 0.56991 0.22787 0.21292
 C2491 C 0.59581 0.19773 0.19845
 C2492 C 0.60710 0.19227 0.19292
 C2493 C 0.54386 0.22278 0.22336
 C2494 C 0.53285 0.22858 0.22910
 H2495 H 0.58527 0.19011 0.22700
 H2496 H 0.56143 0.20153 0.23836
 H2497 H 0.54370 0.20642 0.19653
 H2498 H 0.56754 0.19499 0.18517
 H2499 H 0.59250 0.22854 0.20358
 H2500 H 0.56867 0.23998 0.21492
 C2501 C 0.08179 0.70470 0.20506
 C2502 C 0.07056 0.69282 0.21113
 C2503 C 0.05770 0.69896 0.21721
 C2504 C 0.05733 0.71639 0.21662
 C2505 C 0.05971 0.72043 0.19986
 C2506 C 0.07257 0.71428 0.19378
 C2507 C 0.08485 0.71532 0.21851
 C2508 C 0.07200 0.72146 0.22459
 C2509 C 0.09563 0.69810 0.19849
 C2510 C 0.10697 0.69271 0.19300
 C2511 C 0.04357 0.72309 0.22325
 C2512 C 0.03256 0.72890 0.22900
 H2513 H 0.07256 0.68065 0.21073
 H2514 H 0.04867 0.69206 0.22201
 H2515 H 0.05200 0.72752 0.19334
 H2516 H 0.07588 0.71612 0.18206
 H2517 H 0.09612 0.71780 0.22289
 H2518 H 0.07226 0.72921 0.23417
 C2519 C 0.08170 0.20450 0.70515
 C2520 C 0.08489 0.21679 0.71708
 C2521 C 0.07206 0.22296 0.72319
 C2522 C 0.05728 0.21624 0.71677
 C2523 C 0.05867 0.19905 0.71933
 C2524 C 0.07151 0.19288 0.71322
 C2525 C 0.07134 0.21222 0.69343
 C2526 C 0.05850 0.21839 0.69954
 C2527 C 0.09548 0.19784 0.69854
 C2528 C 0.10677 0.19236 0.69302
 C2529 C 0.04354 0.22296 0.72342
 C2530 C 0.03253 0.22876 0.72915
 H2531 H 0.09622 0.22033 0.72043
 H2532 H 0.07241 0.23179 0.73177
 H2533 H 0.05035 0.19233 0.72545
 H2534 H 0.07418 0.18087 0.71412
 H2535 H 0.07390 0.21285 0.68140
 H2536 H 0.05007 0.22430 0.69274
 C2537 C 0.41797 0.70467 0.29469
 C2538 C 0.41654 0.70852 0.27777
 C2539 C 0.42939 0.71468 0.27173
 C2540 C 0.44242 0.71640 0.28320
 C2541 C 0.44480 0.70043 0.28977
 C2542 C 0.43195 0.69426 0.29581
 C2543 C 0.42280 0.71959 0.30230
 C2544 C 0.43566 0.72575 0.29626
 C2545 C 0.40416 0.69802 0.30125
 C2546 C 0.39288 0.69255 0.30676
 C2547 C 0.45619 0.72312 0.27662
 C2548 C 0.46721 0.72892 0.27092
 H2549 H 0.40632 0.70661 0.27113
 H2550 H 0.43019 0.71805 0.25991
 H2551 H 0.45562 0.69448 0.28967
 H2552 H 0.43175 0.68302 0.30088
 H2553 H 0.41662 0.72488 0.31156
 H2554 H 0.44050 0.73632 0.30037
 C2555 C 0.41796 0.20449 0.79485
 C2556 C 0.41653 0.20823 0.77791
 C2557 C 0.42936 0.21443 0.77184
 C2558 C 0.44237 0.21627 0.78332
 C2559 C 0.44482 0.20036 0.78999
 C2560 C 0.43199 0.19416 0.79605
 C2561 C 0.42271 0.21948 0.80237
 C2562 C 0.43554 0.22567 0.79631
 C2563 C 0.40419 0.19780 0.80145
 C2564 C 0.39296 0.19228 0.80701
 C2565 C 0.45613 0.22301 0.77672
 C2566 C 0.46716 0.22880 0.77102
 H2567 H 0.40633 0.20624 0.77127
 H2568 H 0.43015 0.21774 0.76001
 H2569 H 0.45567 0.19445 0.78992
 H2570 H 0.43184 0.18294 0.80117
 H2571 H 0.41648 0.22481 0.81158
 H2572 H 0.44032 0.23630 0.80034
 C2573 C 0.91809 0.70486 0.79488
 C2574 C 0.93122 0.70635 0.80626
 C2575 C 0.94408 0.71249 0.80019
 C2576 C 0.94254 0.71654 0.78333
 C2577 C 0.92863 0.72707 0.78244
 C2578 C 0.91578 0.72093 0.78851
 C2579 C 0.92466 0.69563 0.78164
 C2580 C 0.93752 0.70177 0.77557
 C2581 C 0.90428 0.69823 0.80146
 C2582 C 0.89299 0.69277 0.80695
 C2583 C 0.95631 0.72323 0.77671
 C2584 C 0.96732 0.72903 0.77098
 H2585 H 0.93046 0.70293 0.81807
 H2586 H 0.95433 0.71431 0.80678
 H2587 H 0.92885 0.73835 0.77746
 H2588 H 0.90500 0.72695 0.78873
 H2589 H 0.91962 0.68522 0.77737
 H2590 H 0.94350 0.69661 0.76611
 C2591 C 0.91807 0.20455 0.29470
 C2592 C 0.91665 0.20832 0.27776
 C2593 C 0.92949 0.21451 0.27172
 C2594 C 0.94249 0.21634 0.28320
 C2595 C 0.94493 0.20040 0.28985
 C2596 C 0.93209 0.19420 0.29589
 C2597 C 0.92282 0.21952 0.30225
 C2598 C 0.93566 0.22572 0.29621
 C2599 C 0.90426 0.19789 0.30124
 C2600 C 0.89293 0.19247 0.30671
 C2601 C 0.95624 0.22308 0.27662
 C2602 C 0.96724 0.22891 0.27091
 H2603 H 0.90646 0.20632 0.27111
 H2604 H 0.93029 0.21783 0.25988
 H2605 H 0.95578 0.19450 0.28979
 H2606 H 0.93193 0.18299 0.30101
 H2607 H 0.91662 0.22482 0.31149
 H2608 H 0.94046 0.23632 0.30028
 C2609 C 0.29495 0.29498 0.58185
 C2610 C 0.28327 0.28242 0.58499
 C2611 C 0.27718 0.27631 0.57216
 C2612 C 0.28335 0.28335 0.55746
 C2613 C 0.30068 0.28155 0.55850
 C2614 C 0.30677 0.28766 0.57133
 C2615 C 0.28653 0.30659 0.57191
 C2616 C 0.28044 0.30047 0.55908
 C2617 C 0.30155 0.30160 0.59561
 C2618 C 0.30703 0.30710 0.60687
 C2619 C 0.27671 0.27670 0.54372
 C2620 C 0.27097 0.27094 0.53273
 H2621 H 0.28007 0.27866 0.59627
 H2622 H 0.26875 0.26730 0.57247
 H2623 H 0.30755 0.27591 0.54995
 H2624 H 0.31886 0.28724 0.57378
 H2625 H 0.28539 0.31854 0.57474
 H2626 H 0.27409 0.30719 0.55092
 C2627 C 0.29516 0.79510 0.08168
 C2628 C 0.28349 0.78254 0.08482
 C2629 C 0.27740 0.77641 0.07200
 C2630 C 0.28359 0.78345 0.05729
 C2631 C 0.30091 0.78165 0.05835
 C2632 C 0.30700 0.78777 0.07118
 C2633 C 0.28675 0.80670 0.07173
 C2634 C 0.28067 0.80057 0.05890
 C2635 C 0.30174 0.80173 0.09544
 C2636 C 0.30722 0.80724 0.10670
 C2637 C 0.27697 0.77679 0.04355
 C2638 C 0.27125 0.77104 0.03254
 H2639 H 0.28028 0.77879 0.09611
 H2640 H 0.26898 0.76741 0.07231
 H2641 H 0.30779 0.77600 0.04981
 H2642 H 0.31909 0.78736 0.07364
 H2643 H 0.28560 0.81865 0.07455
 H2644 H 0.27432 0.80728 0.05073
 C2645 C 0.79503 0.29519 0.08174
 C2646 C 0.80120 0.30227 0.06706
 C2647 C 0.79511 0.29617 0.05422
 C2648 C 0.78345 0.28359 0.05732
 C2649 C 0.77161 0.29087 0.06788
 C2650 C 0.77770 0.29696 0.08072
 C2651 C 0.79795 0.27807 0.08010
 C2652 C 0.79186 0.27198 0.06726
 C2653 C 0.80161 0.30177 0.09554
 C2654 C 0.80705 0.30722 0.10683
 C2655 C 0.77680 0.27695 0.04358
 C2656 C 0.77104 0.27119 0.03259
 H2657 H 0.80961 0.31128 0.06678
 H2658 H 0.79830 0.29996 0.04294
 H2659 H 0.75950 0.29117 0.06551
 H2660 H 0.77081 0.30247 0.08934
 H2661 H 0.80419 0.27132 0.08832
 H2662 H 0.79290 0.26000 0.06448
 C2663 C 0.79505 0.79521 0.58184
 C2664 C 0.80119 0.80229 0.56715
 C2665 C 0.79509 0.79618 0.55432
 C2666 C 0.78344 0.78360 0.55744
 C2667 C 0.77161 0.79087 0.56801
 C2668 C 0.77772 0.79698 0.58084
 C2669 C 0.79797 0.77810 0.58020
 C2670 C 0.79187 0.77199 0.56737
 C2671 C 0.80165 0.80182 0.59562
 C2672 C 0.80711 0.80730 0.60689
 C2673 C 0.77678 0.77695 0.54371
 C2674 C 0.77102 0.77119 0.53272
 H2675 H 0.80960 0.81130 0.56685
 H2676 H 0.79826 0.79997 0.54304
 H2677 H 0.75950 0.79116 0.56566
 H2678 H 0.77084 0.80247 0.58947
 H2679 H 0.80423 0.77135 0.58842
 H2680 H 0.79291 0.76002 0.56460
 C2681 C 0.29493 0.70492 0.41804
 C2682 C 0.29521 0.69413 0.43172
 C2683 C 0.28913 0.70027 0.44456
 C2684 C 0.28337 0.71659 0.44245
 C2685 C 0.27213 0.71576 0.42914
 C2686 C 0.27821 0.70962 0.41631
 C2687 C 0.30313 0.71933 0.42343
 C2688 C 0.29705 0.72546 0.43626
 C2689 C 0.30150 0.69829 0.40426
 C2690 C 0.30697 0.69281 0.39299
 C2691 C 0.27675 0.72327 0.45619
 C2692 C 0.27102 0.72904 0.46720
 H2693 H 0.29974 0.68266 0.43135
 H2694 H 0.28847 0.69406 0.45518
 H2695 H 0.26044 0.71969 0.42973
 H2696 H 0.27173 0.70830 0.40591
 H2697 H 0.31280 0.72432 0.41762
 H2698 H 0.30153 0.73570 0.44146
 C2699 C 0.29488 0.20470 0.91822
 C2700 C 0.30382 0.21836 0.92433
 C2701 C 0.29775 0.22447 0.93718
 C2702 C 0.28334 0.21631 0.94266
 C2703 C 0.28798 0.19959 0.94439
 C2704 C 0.29404 0.19348 0.93154
 C2705 C 0.27856 0.21053 0.91617
 C2706 C 0.27249 0.21663 0.92902
 C2707 C 0.30143 0.19812 0.90441
 C2708 C 0.30687 0.19267 0.89311
 C2709 C 0.27672 0.22297 0.95642
 C2710 C 0.27098 0.22874 0.96741
 H2711 H 0.31397 0.22289 0.91899
 H2712 H 0.30272 0.23421 0.94286
 H2713 H 0.28660 0.19311 0.95478
 H2714 H 0.29786 0.18177 0.93090
 H2715 H 0.27233 0.20995 0.90556
 H2716 H 0.26105 0.22127 0.92941
 C2717 C 0.79512 0.70493 0.91825
 C2718 C 0.78919 0.72119 0.91609
 C2719 C 0.78307 0.72731 0.92892
 C2720 C 0.78348 0.71656 0.94264
 C2721 C 0.80025 0.71204 0.94435
 C2722 C 0.80637 0.70592 0.93153
 C2723 C 0.78151 0.69596 0.92446
 C2724 C 0.77539 0.70208 0.93729
 C2725 C 0.80173 0.69831 0.90449
 C2726 C 0.80721 0.69282 0.89322
 C2727 C 0.77682 0.72322 0.95638
 C2728 C 0.77106 0.72898 0.96737
 H2729 H 0.78971 0.72735 0.90543
 H2730 H 0.77836 0.73871 0.92923
 H2731 H 0.80676 0.71354 0.95470
 H2732 H 0.81812 0.70220 0.93088
 H2733 H 0.77702 0.68576 0.91920
 H2734 H 0.76567 0.69710 0.94302
 C2735 C 0.79504 0.20465 0.41811
 C2736 C 0.78912 0.22091 0.41594
 C2737 C 0.78300 0.22703 0.42877
 C2738 C 0.78342 0.21629 0.44250
 C2739 C 0.80018 0.21176 0.44420
 C2740 C 0.80629 0.20564 0.43138
 C2741 C 0.78143 0.19569 0.42433
 C2742 C 0.77532 0.20181 0.43715
 C2743 C 0.80166 0.19802 0.40435
 C2744 C 0.80718 0.19251 0.39310
 C2745 C 0.77676 0.22296 0.45623
 C2746 C 0.77100 0.22872 0.46723
 H2747 H 0.78963 0.22706 0.40528
 H2748 H 0.77829 0.23844 0.42908
 H2749 H 0.80669 0.21327 0.45455
 H2750 H 0.81804 0.20191 0.43074
 H2751 H 0.77693 0.18549 0.41906
 H2752 H 0.76560 0.19684 0.44289
 C2753 C 0.70509 0.29499 0.41803
 C2754 C 0.69913 0.30231 0.43269
 C2755 C 0.70520 0.29619 0.44554
 C2756 C 0.71662 0.28337 0.44247
 C2757 C 0.72852 0.29034 0.43179
 C2758 C 0.72245 0.29645 0.41894
 C2759 C 0.70189 0.27795 0.41984
 C2760 C 0.70796 0.27184 0.43269
 C2761 C 0.69853 0.30159 0.40423
 C2762 C 0.69309 0.30704 0.39292
 C2763 C 0.72323 0.27671 0.45623
 C2764 C 0.72896 0.27094 0.46724
 H2765 H 0.69088 0.31148 0.43294
 H2766 H 0.70214 0.30013 0.45681
 H2767 H 0.74065 0.29042 0.43408
 H2768 H 0.72938 0.30175 0.41022
 H2769 H 0.69549 0.27126 0.41171
 H2770 H 0.70674 0.25991 0.43557
 C2771 C 0.70507 0.79526 0.91823
 C2772 C 0.69912 0.80257 0.93289
 C2773 C 0.70520 0.79647 0.94574
 C2774 C 0.71663 0.78366 0.94267
 C2775 C 0.72851 0.79063 0.93197
 C2776 C 0.72243 0.79672 0.91912
 C2777 C 0.70188 0.77821 0.92005
 C2778 C 0.70796 0.77211 0.93290
 C2779 C 0.69850 0.80183 0.90443
 C2780 C 0.69305 0.80727 0.89312
 C2781 C 0.72326 0.77701 0.95642
 C2782 C 0.72901 0.77123 0.96741
 H2783 H 0.69086 0.81175 0.93314
 H2784 H 0.70215 0.80041 0.95700
 H2785 H 0.74064 0.79072 0.93426
 H2786 H 0.72935 0.80203 0.91040
 H2787 H 0.69548 0.77151 0.91193
 H2788 H 0.70675 0.76018 0.93579
 C2789 C 0.20486 0.29495 0.91823
 C2790 C 0.19689 0.30010 0.93284
 C2791 C 0.20300 0.29402 0.94569
 C2792 C 0.21648 0.28337 0.94266
 C2793 C 0.22779 0.29288 0.93339
 C2794 C 0.22168 0.29897 0.92055
 C2795 C 0.20430 0.27752 0.91865
 C2796 C 0.21041 0.27144 0.93150
 C2797 C 0.19826 0.30153 0.90443
 C2798 C 0.19278 0.30700 0.89315
 C2799 C 0.22314 0.27674 0.95640
 C2800 C 0.22891 0.27098 0.96740
 H2801 H 0.18727 0.30785 0.93307
 H2802 H 0.19862 0.29654 0.95692
 H2803 H 0.23958 0.29464 0.93660
 H2804 H 0.22823 0.30592 0.91275
 H2805 H 0.19958 0.27058 0.90964
 H2806 H 0.21091 0.25927 0.93349
 C2807 C 0.20495 0.79524 0.41802
 C2808 C 0.21983 0.78655 0.41526
 C2809 C 0.22593 0.78046 0.42810
 C2810 C 0.21655 0.78365 0.44245
 C2811 C 0.20055 0.77773 0.43883
 C2812 C 0.19445 0.78382 0.42598
 C2813 C 0.20883 0.80710 0.43018
 C2814 C 0.21493 0.80100 0.44303
 C2815 C 0.19835 0.80182 0.40423
 C2816 C 0.19287 0.80727 0.39294
 C2817 C 0.22320 0.77700 0.45620
 C2818 C 0.22896 0.77124 0.46720
 H2819 H 0.22510 0.78528 0.40419
 H2820 H 0.23643 0.77396 0.42803
 H2821 H 0.19455 0.76944 0.44571
 H2822 H 0.18324 0.78074 0.42185
 H2823 H 0.20700 0.81922 0.42880
 H2824 H 0.21831 0.80790 0.45266
 C2825 C 0.70502 0.70503 0.58198
 C2826 C 0.72083 0.69875 0.57807
 C2827 C 0.72690 0.70485 0.56523
 C2828 C 0.71658 0.71664 0.55755
 C2829 C 0.71316 0.72843 0.56993
 C2830 C 0.70708 0.72232 0.58278
 C2831 C 0.69537 0.70228 0.56773
 C2832 C 0.70145 0.70839 0.55488
 C2833 C 0.69845 0.69843 0.59579
 C2834 C 0.69302 0.69298 0.60710
 C2835 C 0.72320 0.72329 0.54379
 C2836 C 0.72894 0.72905 0.53278
 H2837 H 0.72676 0.69031 0.58484
 H2838 H 0.73804 0.70163 0.56098
 H2839 H 0.71535 0.74050 0.56873
 H2840 H 0.70408 0.72916 0.59258
 H2841 H 0.68469 0.69611 0.56775
 H2842 H 0.69599 0.70744 0.54389
 C2843 C 0.70516 0.20485 0.08183
 C2844 C 0.69478 0.21658 0.07414
 C2845 C 0.70084 0.22272 0.06130
 C2846 C 0.71670 0.21654 0.05742
 C2847 C 0.71477 0.19923 0.05663
 C2848 C 0.70871 0.19309 0.06947
 C2849 C 0.72022 0.21322 0.08453
 C2850 C 0.72628 0.21937 0.07170
 C2851 C 0.69860 0.19821 0.09561
 C2852 C 0.69315 0.19271 0.10689
 C2853 C 0.72331 0.22323 0.04367
 C2854 C 0.72902 0.22901 0.03266
 H2855 H 0.68367 0.21982 0.07844
 H2856 H 0.69492 0.23122 0.05460
 H2857 H 0.71793 0.19240 0.04688
 H2858 H 0.70668 0.18099 0.07071
 H2859 H 0.72563 0.21426 0.09555
 H2860 H 0.73690 0.22566 0.07174
 C2861 C 0.20498 0.70498 0.08167
 C2862 C 0.21687 0.69473 0.07404
 C2863 C 0.22301 0.70085 0.06123
 C2864 C 0.21666 0.71662 0.05730
 C2865 C 0.21930 0.72624 0.07159
 C2866 C 0.21317 0.72012 0.08440
 C2867 C 0.19323 0.70837 0.06925
 C2868 C 0.19936 0.71450 0.05644
 C2869 C 0.19833 0.69834 0.09542
 C2870 C 0.19281 0.69283 0.10665
 C2871 C 0.22334 0.72328 0.04357
 C2872 C 0.22912 0.72903 0.03258
 H2873 H 0.22024 0.68369 0.07838
 H2874 H 0.23162 0.69504 0.05458
 H2875 H 0.22548 0.73692 0.07164
 H2876 H 0.21409 0.72554 0.09542
 H2877 H 0.18113 0.70622 0.07045
 H2878 H 0.19253 0.71757 0.04665
 C2879 C 0.20486 0.20481 0.58193
 C2880 C 0.22067 0.19852 0.57802
 C2881 C 0.22676 0.20463 0.56518
 C2882 C 0.21645 0.21644 0.55751
 C2883 C 0.21304 0.22822 0.56990
 C2884 C 0.20695 0.22210 0.58274
 C2885 C 0.19523 0.20210 0.56766
 C2886 C 0.20132 0.20821 0.55483
 C2887 C 0.19828 0.19820 0.59571
 C2888 C 0.19282 0.19271 0.60699
 C2889 C 0.22309 0.22309 0.54376
 C2890 C 0.22885 0.22885 0.53276
 H2891 H 0.22659 0.19007 0.58478
 H2892 H 0.23790 0.20140 0.56094
 H2893 H 0.21525 0.24029 0.56872
 H2894 H 0.20395 0.22894 0.59255
 H2895 H 0.18454 0.19593 0.56766
 H2896 H 0.19586 0.20728 0.54383
   
