data_POSCAR
  _audit_creation_date              2014-09-24
  _audit_creation_method            'ToBaCCo'
  _symmetry_space_group_name_H-M    'P1'
  _symmetry_Int_Tables_number       1
  _symmetry_cell_setting            triclinic
  loop_
  _symmetry_equiv_pos_as_xyz
 x,y,z
_cell_length_a 97.5168
_cell_length_b 97.9658
_cell_length_c 98.5914
_cell_angle_alpha 89.898700
_cell_angle_beta 90.061700
_cell_angle_gamma 89.973400
loop_
  _atom_site_label
  _atom_site_type_symbol
  _atom_site_fract_x
  _atom_site_fract_y
  _atom_site_fract_z
N1 N 0.35746 0.31904 0.32915
 N2 N 0.35718 0.32870 0.31990
 C3 C 0.36762 0.32669 0.31116
 C4 C 0.37474 0.31508 0.31516
 C5 C 0.36797 0.31056 0.32663
 H6 H 0.36972 0.33298 0.30239
 H7 H 0.37053 0.30176 0.33276
 Cu8 Cu 0.34279 0.34256 0.32014
 Cu9 Cu 0.34415 0.31784 0.34374
 Cu10 Cu 0.31886 0.34258 0.34480
 N11 N 0.32862 0.35661 0.32099
 N12 N 0.31928 0.35642 0.33060
 C13 C 0.31058 0.36691 0.32873
 C14 C 0.31462 0.37412 0.31733
 C15 C 0.32616 0.36729 0.31270
 H16 H 0.30196 0.36913 0.33525
 H17 H 0.33214 0.36975 0.30380
 N18 N 0.32022 0.32771 0.35825
 N19 N 0.32986 0.31827 0.35775
 C20 C 0.32802 0.30944 0.36804
 C21 C 0.31667 0.31345 0.37543
 C22 C 0.31200 0.32513 0.36895
 H23 H 0.33452 0.30074 0.37006
 H24 H 0.30314 0.33114 0.37167
 H25 H 0.32821 0.32750 0.33359
 H26 H 0.33953 0.33847 0.34430
 N27 N 0.35643 0.81951 -0.17089
 N28 N 0.35511 0.82793 -0.18119
 C29 C 0.36581 0.82640 -0.18961
 C30 C 0.37441 0.81634 -0.18444
 C31 C 0.36802 0.81220 -0.17249
 H32 H 0.36707 0.83218 -0.19887
 H33 H 0.37153 0.80456 -0.16537
 Cu34 Cu 0.33958 0.84014 -0.18287
 Cu35 Cu 0.34303 0.81898 -0.15616
 Cu36 Cu 0.31825 0.84440 -0.15655
 N37 N 0.32749 0.85578 -0.18174
 N38 N 0.31922 0.85755 -0.17139
 C39 C 0.31203 0.86914 -0.17326
 C40 C 0.31599 0.87501 -0.18551
 C41 C 0.32588 0.86614 -0.19055
 H42 H 0.30440 0.87285 -0.16624
 H43 H 0.33157 0.86704 -0.19990
 N44 N 0.31906 0.83008 -0.14249
 N45 N 0.32848 0.82040 -0.14228
 C46 C 0.32609 0.81211 -0.13161
 C47 C 0.31456 0.81674 -0.12481
 C48 C 0.31041 0.82816 -0.13203
 H49 H 0.33211 0.80316 -0.12916
 H50 H 0.30170 0.83461 -0.12984
 H51 H 0.32639 0.82739 -0.16614
 H52 H 0.33887 0.83954 -0.15828
 N53 N 0.85764 0.32003 -0.17149
 N54 N 0.85719 0.32972 -0.18070
 C55 C 0.86750 0.32786 -0.18957
 C56 C 0.87486 0.31641 -0.18572
 C57 C 0.86832 0.31172 -0.17414
 H58 H 0.86956 0.33443 -0.19814
 H59 H 0.87098 0.30280 -0.16822
 Cu60 Cu 0.84322 0.34384 -0.18026
 Cu61 Cu 0.84414 0.31891 -0.15696
 Cu62 Cu 0.81898 0.34408 -0.15605
 N63 N 0.82935 0.35804 -0.17954
 N64 N 0.81975 0.35810 -0.17022
 C65 C 0.81163 0.36910 -0.17215
 C66 C 0.81646 0.37640 -0.18331
 C67 C 0.82773 0.36894 -0.18768
 H68 H 0.80300 0.37163 -0.16578
 H69 H 0.83431 0.37118 -0.19618
 N70 N 0.82004 0.32900 -0.14266
 N71 N 0.82962 0.31948 -0.14310
 C72 C 0.82760 0.31062 -0.13286
 C73 C 0.81622 0.31469 -0.12554
 C74 C 0.81170 0.32643 -0.13204
 H75 H 0.83401 0.30185 -0.13083
 H76 H 0.80287 0.33251 -0.12937
 H77 H 0.82837 0.32881 -0.16707
 H78 H 0.83964 0.33956 -0.15616
 N79 N 0.85703 0.81886 0.32925
 N80 N 0.85670 0.82846 0.31993
 C81 C 0.86715 0.82641 0.31119
 C82 C 0.87428 0.81485 0.31526
 C83 C 0.86755 0.81040 0.32678
 H84 H 0.86924 0.83268 0.30239
 H85 H 0.87015 0.80167 0.33297
 Cu86 Cu 0.84242 0.84245 0.32010
 Cu87 Cu 0.84380 0.81768 0.34384
 Cu88 Cu 0.81910 0.84285 0.34543
 N89 N 0.82868 0.85687 0.32159
 N90 N 0.81975 0.85694 0.33156
 C91 C 0.81163 0.86796 0.33038
 C92 C 0.81559 0.87534 0.31900
 C93 C 0.82648 0.86790 0.31367
 H94 H 0.80341 0.87028 0.33733
 H95 H 0.83246 0.87032 0.30478
 N96 N 0.82013 0.82773 0.35856
 N97 N 0.82959 0.81813 0.35790
 C98 C 0.82769 0.80925 0.36814
 C99 C 0.81648 0.81342 0.37566
 C100 C 0.81196 0.82521 0.36929
 H101 H 0.83409 0.80045 0.37005
 H102 H 0.80326 0.83139 0.37215
 H103 H 0.82793 0.82762 0.33393
 H104 H 0.83974 0.83843 0.34435
 N105 N 0.64328 0.68069 0.33102
 N106 N 0.64283 0.67113 0.32170
 C107 C 0.63220 0.67368 0.31330
 C108 C 0.62568 0.68550 0.31759
 C109 C 0.63304 0.68962 0.32888
 H110 H 0.62956 0.66755 0.30458
 H111 H 0.63108 0.69845 0.33514
 Cu112 Cu 0.65639 0.65646 0.32128
 Cu113 Cu 0.65715 0.68111 0.34521
 Cu114 Cu 0.68204 0.65607 0.34419
 N115 N 0.67090 0.64273 0.32069
 N116 N 0.68089 0.64282 0.32964
 C117 C 0.68965 0.63261 0.32693
 C118 C 0.68499 0.62566 0.31565
 C119 C 0.67300 0.63234 0.31196
 H120 H 0.69872 0.63037 0.33283
 H121 H 0.66645 0.62997 0.30342
 N122 N 0.68156 0.67028 0.35820
 N123 N 0.67203 0.67982 0.35870
 C124 C 0.67454 0.68798 0.36941
 C125 C 0.68626 0.68338 0.37594
 C126 C 0.69039 0.67213 0.36853
 H127 H 0.66843 0.69676 0.37213
 H128 H 0.69916 0.66569 0.37055
 H129 H 0.67190 0.67140 0.33373
 H130 H 0.66131 0.66046 0.34522
 N131 N 0.64226 0.18195 -0.17046
 N132 N 0.64183 0.17239 -0.17977
 C133 C 0.63118 0.17485 -0.18815
 C134 C 0.62460 0.18662 -0.18384
 C135 C 0.63194 0.19081 -0.17257
 H136 H 0.62853 0.16867 -0.19682
 H137 H 0.62989 0.19960 -0.16628
 Cu138 Cu 0.65537 0.15779 -0.17994
 Cu139 Cu 0.65603 0.18224 -0.15624
 Cu140 Cu 0.68026 0.15632 -0.15620
 N141 N 0.66934 0.14362 -0.18017
 N142 N 0.67887 0.14289 -0.17076
 C143 C 0.68702 0.13209 -0.17331
 C144 C 0.68244 0.12571 -0.18507
 C145 C 0.67118 0.13341 -0.18909
 H146 H 0.69576 0.12932 -0.16715
 H147 H 0.66470 0.13174 -0.19781
 N148 N 0.67986 0.17096 -0.14242
 N149 N 0.67069 0.18087 -0.14264
 C150 C 0.67321 0.18950 -0.13236
 C151 C 0.68453 0.18489 -0.12526
 C152 C 0.68846 0.17305 -0.13189
 H153 H 0.66721 0.19850 -0.13017
 H154 H 0.69713 0.16662 -0.12941
 H155 H 0.67119 0.17194 -0.16697
 H156 H 0.65982 0.16142 -0.15588
 N157 N 0.14211 0.68036 -0.17150
 N158 N 0.14281 0.67087 -0.18087
 C159 C 0.13255 0.67271 -0.18982
 C160 C 0.12494 0.68394 -0.18587
 C161 C 0.13131 0.68853 -0.17414
 H162 H 0.13068 0.66627 -0.19851
 H163 H 0.12846 0.69727 -0.16810
 Cu164 Cu 0.15705 0.65704 -0.18058
 Cu165 Cu 0.15543 0.68135 -0.15675
 Cu166 Cu 0.18092 0.65648 -0.15598
 N167 N 0.17134 0.64327 -0.18017
 N168 N 0.18061 0.64291 -0.17049
 C169 C 0.18915 0.63233 -0.17275
 C170 C 0.18504 0.62579 -0.18455
 C171 C 0.17370 0.63304 -0.18893
 H172 H 0.19785 0.62976 -0.16644
 H173 H 0.16754 0.63093 -0.19780
 N174 N 0.17943 0.67113 -0.14229
 N175 N 0.16981 0.68061 -0.14269
 C176 C 0.17172 0.68930 -0.13230
 C177 C 0.18308 0.68513 -0.12494
 C178 C 0.18768 0.67354 -0.13157
 H179 H 0.16529 0.69803 -0.13021
 H180 H 0.19657 0.66748 -0.12895
 H181 H 0.17149 0.67190 -0.16683
 H182 H 0.16020 0.66075 -0.15632
 N183 N 0.14306 0.18144 0.33050
 N184 N 0.14223 0.17220 0.32090
 C185 C 0.13141 0.17511 0.31288
 C186 C 0.12513 0.18684 0.31772
 C187 C 0.13285 0.19054 0.32893
 H188 H 0.12843 0.16925 0.30408
 H189 H 0.13112 0.19915 0.33554
 Cu190 Cu 0.15543 0.15733 0.31984
 Cu191 Cu 0.15726 0.18106 0.34437
 Cu192 Cu 0.18119 0.15498 0.34244
 N193 N 0.16911 0.14291 0.31871
 N194 N 0.17909 0.14201 0.32764
 C195 C 0.18697 0.13114 0.32467
 C196 C 0.18170 0.12487 0.31321
 C197 C 0.17035 0.13266 0.30971
 H198 H 0.19597 0.12815 0.33034
 H199 H 0.16345 0.13091 0.30132
 N200 N 0.18156 0.16906 0.35667
 N201 N 0.17239 0.17894 0.35747
 C202 C 0.17530 0.18678 0.36830
 C203 C 0.18688 0.18163 0.37464
 C204 C 0.19056 0.17039 0.36695
 H205 H 0.16950 0.19569 0.37128
 H206 H 0.19907 0.16358 0.36880
 H207 H 0.17170 0.17111 0.33264
 H208 H 0.16074 0.16026 0.34383
 N209 N 0.64194 0.32043 0.67088
 N210 N 0.64249 0.33003 0.68014
 C211 C 0.63212 0.32827 0.68896
 C212 C 0.62461 0.31695 0.68503
 C213 C 0.63115 0.31224 0.67347
 H214 H 0.63013 0.33478 0.69757
 H215 H 0.62843 0.30341 0.66750
 Cu216 Cu 0.65678 0.34382 0.67978
 Cu217 Cu 0.65547 0.31921 0.65637
 Cu218 Cu 0.68103 0.34401 0.65562
 N219 N 0.67109 0.35755 0.67952
 N220 N 0.68051 0.35779 0.66999
 C221 C 0.68911 0.36831 0.67235
 C222 C 0.68488 0.37493 0.68405
 C223 C 0.67341 0.36781 0.68826
 H224 H 0.69794 0.37076 0.66619
 H225 H 0.66716 0.37000 0.69704
 N226 N 0.67968 0.32914 0.64208
 N227 N 0.67003 0.31970 0.64251
 C228 C 0.67200 0.31085 0.63227
 C229 C 0.68343 0.31483 0.62498
 C230 C 0.68803 0.32652 0.63148
 H231 H 0.66553 0.30214 0.63024
 H232 H 0.69695 0.33249 0.62885
 H233 H 0.67145 0.32878 0.66651
 H234 H 0.66035 0.33979 0.65565
 N235 N 0.64480 0.81796 1.17122
 N236 N 0.64307 0.82846 1.17932
 C237 C 0.63180 0.82635 1.18694
 C238 C 0.62618 0.81381 1.18345
 C239 C 0.63478 0.80881 1.17344
 H240 H 0.62808 0.83335 1.19455
 H241 H 0.63387 0.79926 1.16803
 Cu242 Cu 0.65601 0.84366 1.17919
 Cu243 Cu 0.66011 0.81662 1.15862
 Cu244 Cu 0.67748 0.84690 1.15296
 N245 N 0.67039 0.85753 1.17916
 N246 N 0.67873 0.85862 1.16877
 C247 C 0.68730 0.86915 1.17077
 C248 C 0.68426 0.87505 1.18315
 C249 C 0.67340 0.86741 1.18821
 H250 H 0.69495 0.87242 1.16354
 H251 H 0.66807 0.86896 1.19769
 N252 N 0.67914 0.83098 1.14102
 N253 N 0.67267 0.81936 1.14320
 C254 C 0.67618 0.81042 1.13343
 C255 C 0.68546 0.81669 1.12480
 C256 C 0.68708 0.82972 1.12995
 H257 H 0.67245 0.80005 1.13278
 H258 H 0.69360 0.83770 1.12597
 H259 H 0.67348 0.83155 1.16618
 H260 H 0.65858 0.83687 1.15550
 N261 N 0.14285 0.32014 1.17160
 N262 N 0.14379 0.33012 1.18043
 C263 C 0.13357 0.32894 1.18952
 C264 C 0.12574 0.31763 1.18619
 C265 C 0.13197 0.31230 1.17473
 H266 H 0.13184 0.33589 1.19784
 H267 H 0.12892 0.30331 1.16916
 Cu268 Cu 0.15818 0.34380 1.17902
 Cu269 Cu 0.15581 0.31799 1.15672
 Cu270 Cu 0.18177 0.34206 1.15432
 N271 N 0.17285 0.35718 1.17766
 N272 N 0.18203 0.35641 1.16795
 C273 C 0.19086 0.36688 1.16913
 C274 C 0.18704 0.37472 1.18019
 C275 C 0.17555 0.36819 1.18537
 H276 H 0.19942 0.36860 1.16240
 H277 H 0.16951 0.37130 1.19401
 N278 N 0.17977 0.32679 1.14150
 N279 N 0.16992 0.31761 1.14242
 C280 C 0.17133 0.30857 1.13224
 C281 C 0.18258 0.31225 1.12450
 C282 C 0.18766 0.32386 1.13070
 H283 H 0.16456 0.30002 1.13050
 H284 H 0.19655 0.32969 1.12765
 H285 H 0.17203 0.32761 1.16623
 H286 H 0.16093 0.33836 1.15506
 N287 N 0.14341 0.81947 0.66922
 N288 N 0.14297 0.82915 0.67842
 C289 C 0.13232 0.82672 0.68682
 C290 C 0.12579 0.81485 0.68266
 C291 C 0.13316 0.81059 0.67144
 H292 H 0.12963 0.83300 0.69542
 H293 H 0.13117 0.80172 0.66524
 Cu294 Cu 0.15649 0.84386 0.67845
 Cu295 Cu 0.15721 0.81884 0.65499
 Cu296 Cu 0.18174 0.84430 0.65522
 N297 N 0.17066 0.85796 0.67858
 N298 N 0.18040 0.85800 0.66939
 C299 C 0.18891 0.86851 0.67172
 C300 C 0.18439 0.87553 0.68305
 C301 C 0.17270 0.86852 0.68712
 H302 H 0.19780 0.87078 0.66559
 H303 H 0.16630 0.87079 0.69577
 N304 N 0.18145 0.82961 0.64165
 N305 N 0.17202 0.81996 0.64143
 C306 C 0.17455 0.81156 0.63091
 C307 C 0.18617 0.81610 0.62422
 C308 C 0.19025 0.82757 0.63134
 H309 H 0.16850 0.80267 0.62841
 H310 H 0.19892 0.83404 0.62909
 H311 H 0.17202 0.82891 0.66602
 H312 H 0.16106 0.83949 0.65451
 N313 N 0.35738 0.68064 0.67092
 N314 N 0.35711 0.67097 0.68017
 C315 C 0.36756 0.67298 0.68893
 C316 C 0.37467 0.68457 0.68495
 C317 C 0.36790 0.68910 0.67346
 H318 H 0.36965 0.66667 0.69770
 H319 H 0.37045 0.69790 0.66734
 Cu320 Cu 0.34277 0.65709 0.67991
 Cu321 Cu 0.34407 0.68178 0.65627
 Cu322 Cu 0.31886 0.65695 0.65523
 N323 N 0.32864 0.64304 0.67911
 N324 N 0.31930 0.64317 0.66948
 C325 C 0.31061 0.63268 0.67138
 C326 C 0.31467 0.62553 0.68283
 C327 C 0.32620 0.63239 0.68745
 H328 H 0.30199 0.63044 0.66487
 H329 H 0.33217 0.62998 0.69638
 N330 N 0.32018 0.67177 0.64172
 N331 N 0.32976 0.68126 0.64221
 C332 C 0.32789 0.69003 0.63185
 C333 C 0.31658 0.68591 0.62443
 C334 C 0.31197 0.67426 0.63098
 H335 H 0.33434 0.69876 0.62982
 H336 H 0.30315 0.66818 0.62826
 H337 H 0.32818 0.67210 0.66638
 H338 H 0.33954 0.66114 0.65573
 N339 N 0.35797 0.18038 1.17005
 N340 N 0.35817 0.17092 1.17952
 C341 C 0.36854 0.17346 1.18814
 C342 C 0.37527 0.18512 1.18387
 C343 C 0.36829 0.18923 1.17230
 H344 H 0.37107 0.16724 1.19685
 H345 H 0.37038 0.19814 1.16616
 Cu346 Cu 0.34490 0.15619 1.17982
 Cu347 Cu 0.34400 0.18063 1.15586
 Cu348 Cu 0.31968 0.15473 1.15670
 N349 N 0.33126 0.14181 1.18020
 N350 N 0.32139 0.14124 1.17114
 C351 C 0.31326 0.13049 1.17393
 C352 C 0.31829 0.12398 1.18541
 C353 C 0.32975 0.13147 1.18905
 H354 H 0.30422 0.12781 1.16818
 H355 H 0.33648 0.12959 1.19755
 N356 N 0.31972 0.16930 1.14289
 N357 N 0.32903 0.17907 1.14246
 C358 C 0.32627 0.18733 1.13186
 C359 C 0.31463 0.18258 1.12534
 C360 C 0.31079 0.17113 1.13263
 H361 H 0.33216 0.19629 1.12921
 H362 H 0.30216 0.16454 1.13056
 H363 H 0.32914 0.17056 1.16698
 H364 H 0.34023 0.15988 1.15580
 N365 N 0.85654 0.68141 1.16895
 N366 N 0.85750 0.67211 1.17852
 C367 C 0.86833 0.67504 1.18648
 C368 C 0.87449 0.68683 1.18165
 C369 C 0.86668 0.69057 1.17049
 H370 H 0.87139 0.66915 1.19525
 H371 H 0.86829 0.69925 1.16391
 Cu372 Cu 0.84443 0.65716 1.17969
 Cu373 Cu 0.84224 0.68100 1.15518
 Cu374 Cu 0.81843 0.65484 1.15733
 N375 N 0.83075 0.64277 1.18096
 N376 N 0.82066 0.64189 1.17217
 C377 C 0.81279 0.63106 1.17533
 C378 C 0.81821 0.62480 1.18676
 C379 C 0.82962 0.63256 1.19004
 H380 H 0.80370 0.62809 1.16980
 H381 H 0.83663 0.63085 1.19836
 N382 N 0.81794 0.66893 1.14305
 N383 N 0.82705 0.67885 1.14220
 C384 C 0.82404 0.68672 1.13138
 C385 C 0.81246 0.68153 1.12510
 C386 C 0.80888 0.67025 1.13281
 H387 H 0.82976 0.69567 1.12840
 H388 H 0.80038 0.66343 1.13103
 H389 H 0.82798 0.67093 1.16704
 H390 H 0.83888 0.66017 1.15574
 N391 N 0.85796 0.17998 0.67215
 N392 N 0.85711 0.17001 0.68104
 C393 C 0.86738 0.17127 0.69010
 C394 C 0.87512 0.18263 0.68668
 C395 C 0.86881 0.18789 0.67521
 H396 H 0.86917 0.16436 0.69846
 H397 H 0.87177 0.19689 0.66958
 Cu398 Cu 0.84276 0.15626 0.67973
 Cu399 Cu 0.84494 0.18204 0.65727
 Cu400 Cu 0.81912 0.15783 0.65500
 N401 N 0.82810 0.14284 0.67846
 N402 N 0.81893 0.14353 0.66872
 C403 C 0.81002 0.13314 0.67007
 C404 C 0.81375 0.12544 0.68129
 C405 C 0.82531 0.13195 0.68636
 H406 H 0.80145 0.13141 0.66335
 H407 H 0.83123 0.12904 0.69517
 N408 N 0.82101 0.17306 0.64207
 N409 N 0.83078 0.18233 0.64296
 C410 C 0.82927 0.19136 0.63275
 C411 C 0.81803 0.18758 0.62500
 C412 C 0.81306 0.17593 0.63126
 H413 H 0.83595 0.19998 0.63099
 H414 H 0.80420 0.17005 0.62824
 H415 H 0.82883 0.17235 0.66681
 H416 H 0.83998 0.16164 0.65572
 N417 N 0.31841 0.35777 0.67013
 N418 N 0.32844 0.35782 0.67904
 C419 C 0.32639 0.36816 0.68783
 C420 C 0.31438 0.37486 0.68423
 C421 C 0.30966 0.36797 0.67293
 H422 H 0.33296 0.37048 0.69636
 H423 H 0.30055 0.37024 0.66710
 Cu424 Cu 0.34291 0.34407 0.67839
 Cu425 Cu 0.31718 0.34455 0.65556
 Cu426 Cu 0.34200 0.31945 0.65443
 N427 N 0.35640 0.32936 0.67791
 N428 N 0.35589 0.31982 0.66857
 C429 C 0.36609 0.31083 0.67069
 C430 C 0.37345 0.31490 0.68199
 C431 C 0.36702 0.32675 0.68630
 H432 H 0.36801 0.30200 0.66442
 H433 H 0.36969 0.33284 0.69503
 N434 N 0.32709 0.32079 0.64100
 N435 N 0.31759 0.33035 0.64154
 C436 C 0.30872 0.32853 0.63124
 C437 C 0.31280 0.31727 0.62382
 C438 C 0.32453 0.31263 0.63030
 H439 H 0.29996 0.33498 0.62926
 H440 H 0.33059 0.30382 0.62757
 H441 H 0.32732 0.32917 0.66599
 H442 H 0.33790 0.34010 0.65447
 N443 N 0.31851 0.85746 0.16957
 N444 N 0.32819 0.85794 0.17883
 C445 C 0.32580 0.86862 0.18711
 C446 C 0.31396 0.87516 0.18280
 C447 C 0.30965 0.86777 0.17163
 H448 H 0.33208 0.87129 0.19574
 H449 H 0.30077 0.86976 0.16536
 Cu450 Cu 0.34280 0.84438 0.17920
 Cu451 Cu 0.31806 0.84358 0.15554
 Cu452 Cu 0.34384 0.81919 0.15593
 N453 N 0.35687 0.83031 0.17965
 N454 N 0.35737 0.82059 0.17049
 C455 C 0.36805 0.81230 0.17328
 C456 C 0.37456 0.81705 0.18487
 C457 C 0.36715 0.82851 0.18859
 H458 H 0.37070 0.80333 0.16747
 H459 H 0.36912 0.83508 0.19716
 N460 N 0.32915 0.81957 0.14209
 N461 N 0.31928 0.82880 0.14213
 C462 C 0.31064 0.82627 0.13180
 C463 C 0.31522 0.81491 0.12484
 C464 C 0.32704 0.81095 0.13163
 H465 H 0.30169 0.83232 0.12944
 H466 H 0.33345 0.80226 0.12929
 H467 H 0.32831 0.82861 0.16654
 H468 H 0.33895 0.83962 0.15521
 N469 N 0.81900 0.35785 0.17035
 N470 N 0.82899 0.35792 0.17930
 C471 C 0.82689 0.36829 0.18807
 C472 C 0.81489 0.37496 0.18440
 C473 C 0.81023 0.36804 0.17309
 H474 H 0.83342 0.37063 0.19662
 H475 H 0.80115 0.37028 0.16721
 Cu476 Cu 0.84350 0.34419 0.17870
 Cu477 Cu 0.81781 0.34459 0.15582
 Cu478 Cu 0.84266 0.31952 0.15480
 N479 N 0.85702 0.32950 0.17828
 N480 N 0.85653 0.31994 0.16896
 C481 C 0.86677 0.31099 0.17109
 C482 C 0.87414 0.31510 0.18236
 C483 C 0.86766 0.32694 0.18666
 H484 H 0.86871 0.30216 0.16482
 H485 H 0.87033 0.33307 0.19537
 N486 N 0.82777 0.32081 0.14134
 N487 N 0.81826 0.33036 0.14183
 C488 C 0.80940 0.32849 0.13154
 C489 C 0.81351 0.31722 0.12415
 C490 C 0.82523 0.31262 0.13066
 H491 H 0.80063 0.33492 0.12952
 H492 H 0.83132 0.30381 0.12796
 H493 H 0.82795 0.32924 0.16630
 H494 H 0.83855 0.34015 0.15478
 N495 N 0.81783 0.85901 0.67019
 N496 N 0.82721 0.85918 0.67976
 C497 C 0.82481 0.86987 0.68802
 C498 C 0.81325 0.87670 0.68339
 C499 C 0.80914 0.86949 0.67203
 H500 H 0.83085 0.87234 0.69687
 H501 H 0.80049 0.87171 0.66554
 Cu502 Cu 0.84136 0.84518 0.68059
 Cu503 Cu 0.81742 0.84517 0.65614
 Cu504 Cu 0.84305 0.82067 0.65662
 N505 N 0.85579 0.83145 0.68065
 N506 N 0.85649 0.82198 0.67125
 C507 C 0.86735 0.81386 0.67382
 C508 C 0.87378 0.81846 0.68550
 C509 C 0.86614 0.82966 0.68952
 H510 H 0.87017 0.80511 0.66778
 H511 H 0.86800 0.83607 0.69823
 N512 N 0.82844 0.82115 0.64271
 N513 N 0.81863 0.83043 0.64272
 C514 C 0.81004 0.82799 0.63234
 C515 C 0.81457 0.81661 0.62540
 C516 C 0.82633 0.81255 0.63223
 H517 H 0.80114 0.83411 0.62995
 H518 H 0.83269 0.80383 0.62990
 H519 H 0.82725 0.82983 0.66701
 H520 H 0.83832 0.84114 0.65639
 N521 N 0.68057 0.64330 0.66987
 N522 N 0.67129 0.64308 0.67953
 C523 C 0.67389 0.63245 0.68786
 C524 C 0.68547 0.62570 0.68317
 C525 C 0.68937 0.63290 0.67172
 H526 H 0.66802 0.63000 0.69683
 H527 H 0.69799 0.63077 0.66518
 Cu528 Cu 0.65710 0.65712 0.68043
 Cu529 Cu 0.68092 0.65715 0.65571
 Cu530 Cu 0.65562 0.68186 0.65683
 N531 N 0.64270 0.67096 0.68071
 N532 N 0.64237 0.68062 0.67145
 C533 C 0.63190 0.68912 0.67404
 C534 C 0.62522 0.68463 0.68557
 C535 C 0.63233 0.67301 0.68953
 H536 H 0.62935 0.69794 0.66794
 H537 H 0.63030 0.66675 0.69834
 N538 N 0.66988 0.68144 0.64278
 N539 N 0.67951 0.67201 0.64227
 C540 C 0.68768 0.67454 0.63154
 C541 C 0.68299 0.68618 0.62503
 C542 C 0.67167 0.69024 0.63244
 H543 H 0.69652 0.66850 0.62880
 H544 H 0.66515 0.69892 0.63040
 H545 H 0.67158 0.67225 0.66696
 H546 H 0.66024 0.66126 0.65628
 N547 N 0.68044 0.14124 0.17091
 N548 N 0.67071 0.14186 0.18009
 C549 C 0.67240 0.13159 0.18901
 C550 C 0.68382 0.12409 0.18526
 C551 C 0.68864 0.13052 0.17367
 H552 H 0.66579 0.12968 0.19759
 H553 H 0.69760 0.12778 0.16782
 Cu554 Cu 0.65690 0.15612 0.17955
 Cu555 Cu 0.68181 0.15466 0.15630
 Cu556 Cu 0.65695 0.18018 0.15530
 N557 N 0.64315 0.17043 0.17917
 N558 N 0.64304 0.17977 0.16959
 C559 C 0.63254 0.18844 0.17184
 C560 C 0.62576 0.18431 0.18352
 C561 C 0.63279 0.17283 0.18783
 H562 H 0.63021 0.19725 0.16563
 H563 H 0.63052 0.16667 0.19664
 N564 N 0.67192 0.17874 0.14184
 N565 N 0.68140 0.16912 0.14234
 C566 C 0.69030 0.17104 0.13209
 C567 C 0.68628 0.18240 0.12472
 C568 C 0.67455 0.18700 0.13119
 H569 H 0.69905 0.16459 0.13009
 H570 H 0.66852 0.19586 0.12850
 H571 H 0.67219 0.17059 0.16631
 H572 H 0.66119 0.15954 0.15543
 N573 N 0.18099 0.64215 0.16997
 N574 N 0.17180 0.64250 0.17969
 C575 C 0.17417 0.63218 0.18839
 C576 C 0.18545 0.62490 0.18393
 C577 C 0.18951 0.63151 0.17214
 H578 H 0.16806 0.63004 0.19728
 H579 H 0.19814 0.62895 0.16577
 Cu580 Cu 0.15760 0.65637 0.18022
 Cu581 Cu 0.18130 0.65583 0.15551
 Cu582 Cu 0.15584 0.68070 0.15631
 N583 N 0.14327 0.67013 0.18044
 N584 N 0.14252 0.67960 0.17103
 C585 C 0.13172 0.68776 0.17364
 C586 C 0.12539 0.68317 0.18538
 C587 C 0.13302 0.67194 0.18937
 H588 H 0.12884 0.69651 0.16758
 H589 H 0.13119 0.66551 0.19809
 N590 N 0.17021 0.68006 0.14226
 N591 N 0.17982 0.67057 0.14185
 C592 C 0.18805 0.67303 0.13114
 C593 C 0.18344 0.68465 0.12452
 C594 C 0.17210 0.68879 0.13188
 H595 H 0.19692 0.66697 0.12852
 H596 H 0.16566 0.69753 0.12980
 H597 H 0.17194 0.67126 0.16638
 H598 H 0.16057 0.66011 0.15595
 N599 N 0.18187 0.14256 0.66917
 N600 N 0.17286 0.14213 0.67906
 C601 C 0.17558 0.13129 0.68704
 C602 C 0.18695 0.12457 0.68191
 C603 C 0.19066 0.13205 0.67055
 H604 H 0.16983 0.12861 0.69602
 H605 H 0.19906 0.12997 0.66372
 Cu606 Cu 0.15847 0.15579 0.68063
 Cu607 Cu 0.18152 0.15664 0.65522
 Cu608 Cu 0.15552 0.18065 0.65721
 N609 N 0.14374 0.16915 0.68133
 N610 N 0.14259 0.17879 0.67211
 C611 C 0.13158 0.18654 0.67494
 C612 C 0.12546 0.18154 0.68661
 C613 C 0.13348 0.17048 0.69037
 H614 H 0.12840 0.19530 0.66904
 H615 H 0.13192 0.16384 0.69899
 N616 N 0.16957 0.18084 0.64288
 N617 N 0.17944 0.17167 0.64206
 C618 C 0.18731 0.17454 0.63120
 C619 C 0.18217 0.18611 0.62489
 C620 C 0.17092 0.18980 0.63260
 H621 H 0.19623 0.16875 0.62821
 H622 H 0.16413 0.19833 0.63080
 H623 H 0.17201 0.17144 0.66678
 H624 H 0.16067 0.16017 0.65639
 N625 N 0.31878 0.64196 0.32976
 N626 N 0.32837 0.64161 0.32043
 C627 C 0.32597 0.63097 0.31210
 C628 C 0.31419 0.62436 0.31644
 C629 C 0.30995 0.63164 0.32770
 H630 H 0.33216 0.62838 0.30338
 H631 H 0.30113 0.62959 0.33399
 Cu632 Cu 0.34277 0.65538 0.31993
 Cu633 Cu 0.31827 0.65581 0.34378
 Cu634 Cu 0.34393 0.68030 0.34353
 N635 N 0.35697 0.66932 0.31978
 N636 N 0.35749 0.67895 0.32904
 C637 C 0.36820 0.68722 0.32636
 C638 C 0.37471 0.68256 0.31476
 C639 C 0.36728 0.67116 0.31090
 H640 H 0.37083 0.69613 0.33225
 H641 H 0.36925 0.66467 0.30226
 N642 N 0.32919 0.67984 0.35730
 N643 N 0.31939 0.67055 0.35719
 C644 C 0.31069 0.67299 0.36747
 C645 C 0.31514 0.68437 0.37446
 C646 C 0.32696 0.68844 0.36777
 H647 H 0.30178 0.66687 0.36977
 H648 H 0.33328 0.69717 0.37018
 H649 H 0.32837 0.67102 0.33289
 H650 H 0.33918 0.65987 0.34400
 N651 N 0.32027 0.14184 0.82829
 N652 N 0.32995 0.14293 0.81910
 C653 C 0.32866 0.13265 0.81013
 C654 C 0.31757 0.12466 0.81390
 C655 C 0.31251 0.13083 0.82550
 H656 H 0.33534 0.13108 0.80154
 H657 H 0.30370 0.12771 0.83137
 Cu658 Cu 0.34329 0.15770 0.81967
 Cu659 Cu 0.31832 0.15484 0.84307
 Cu660 Cu 0.34227 0.18088 0.84481
 N661 N 0.35693 0.17213 0.82113
 N662 N 0.35640 0.18119 0.83092
 C663 C 0.36677 0.19011 0.82942
 C664 C 0.37428 0.18645 0.81808
 C665 C 0.36772 0.17496 0.81309
 H666 H 0.36870 0.19860 0.83614
 H667 H 0.37044 0.16924 0.80413
 N668 N 0.32722 0.17885 0.85797
 N669 N 0.31805 0.16897 0.85728
 C670 C 0.30914 0.17035 0.86762
 C671 C 0.31289 0.18163 0.87523
 C672 C 0.32441 0.18673 0.86880
 H673 H 0.30064 0.16356 0.86956
 H674 H 0.33025 0.19563 0.87170
 H675 H 0.32746 0.17120 0.83331
 H676 H 0.33886 0.16009 0.84386
 N677 N 0.81926 0.64290 0.83075
 N678 N 0.82886 0.64250 0.82141
 C679 C 0.82633 0.63192 0.81303
 C680 C 0.81448 0.62538 0.81734
 C681 C 0.81033 0.63267 0.82863
 H682 H 0.83249 0.62932 0.80429
 H683 H 0.80148 0.63067 0.83492
 Cu684 Cu 0.84352 0.65609 0.82096
 Cu685 Cu 0.81879 0.65667 0.84495
 Cu686 Cu 0.84383 0.68153 0.84391
 N687 N 0.85724 0.67061 0.82033
 N688 N 0.85713 0.68051 0.82932
 C689 C 0.86731 0.68931 0.82657
 C690 C 0.87426 0.68479 0.81522
 C691 C 0.86762 0.67283 0.81154
 H692 H 0.86951 0.69833 0.83247
 H693 H 0.86999 0.66640 0.80295
 N694 N 0.82957 0.68095 0.85797
 N695 N 0.82002 0.67144 0.85845
 C696 C 0.81179 0.67388 0.86916
 C697 C 0.81636 0.68554 0.87570
 C698 C 0.82766 0.68971 0.86829
 H699 H 0.80298 0.66778 0.87185
 H700 H 0.83408 0.69845 0.87031
 H701 H 0.82845 0.67143 0.83346
 H702 H 0.83949 0.66087 0.84492
 N703 N 0.81949 0.14217 0.33048
 N704 N 0.82893 0.14235 0.32098
 C705 C 0.82664 0.13206 0.31227
 C706 C 0.81514 0.12498 0.31648
 C707 C 0.81089 0.13165 0.32815
 H708 H 0.83289 0.12986 0.30350
 H709 H 0.80202 0.12926 0.33428
 Cu710 Cu 0.84317 0.15615 0.32063
 Cu711 Cu 0.81894 0.15602 0.34477
 Cu712 Cu 0.84440 0.18093 0.34388
 N713 N 0.85737 0.17000 0.32015
 N714 N 0.85790 0.17968 0.32933
 C715 C 0.86860 0.18794 0.32659
 C716 C 0.87508 0.18320 0.31500
 C717 C 0.86765 0.17178 0.31124
 H718 H 0.87127 0.19688 0.33244
 H719 H 0.86962 0.16523 0.30265
 N720 N 0.82986 0.18043 0.35777
 N721 N 0.82024 0.17095 0.35824
 C722 C 0.81192 0.17354 0.36885
 C723 C 0.81646 0.18526 0.37531
 C724 C 0.82787 0.18929 0.36799
 H725 H 0.80303 0.16752 0.37151
 H726 H 0.83430 0.19803 0.37001
 H727 H 0.82845 0.17124 0.33379
 H728 H 0.83959 0.16035 0.34472
 N729 N 0.67988 0.35759 0.32787
 N730 N 0.67024 0.35641 0.31863
 C731 C 0.67150 0.36665 0.30960
 C732 C 0.68253 0.37470 0.31335
 C733 C 0.68759 0.36863 0.32504
 H734 H 0.66481 0.36818 0.30099
 H735 H 0.69633 0.37186 0.33096
 Cu736 Cu 0.65688 0.34171 0.31929
 Cu737 Cu 0.68175 0.34470 0.34281
 Cu738 Cu 0.65772 0.31871 0.34467
 N739 N 0.64324 0.32732 0.32078
 N740 N 0.64366 0.31832 0.33067
 C741 C 0.63315 0.30954 0.32924
 C742 C 0.62568 0.31324 0.31785
 C743 C 0.63240 0.32459 0.31276
 H744 H 0.63105 0.30116 0.33607
 H745 H 0.62971 0.33034 0.30377
 N746 N 0.67272 0.32081 0.35789
 N747 N 0.68190 0.33067 0.35715
 C748 C 0.69083 0.32928 0.36749
 C749 C 0.68709 0.31802 0.37515
 C750 C 0.67554 0.31293 0.36874
 H751 H 0.69938 0.33604 0.36936
 H752 H 0.66973 0.30400 0.37164
 H753 H 0.67265 0.32830 0.33319
 H754 H 0.66122 0.33950 0.34353
 N755 N 0.68139 0.85783 0.83019
 N756 N 0.67180 0.85829 0.82086
 C757 C 0.67430 0.86892 0.81251
 C758 C 0.68614 0.87542 0.81687
 C759 C 0.69031 0.86807 0.82814
 H760 H 0.66811 0.87161 0.80380
 H761 H 0.69913 0.87006 0.83447
 Cu762 Cu 0.65713 0.84478 0.82058
 Cu763 Cu 0.68177 0.84407 0.84437
 Cu764 Cu 0.65605 0.81973 0.84413
 N765 N 0.64310 0.83067 0.82023
 N766 N 0.64259 0.82105 0.82951
 C767 C 0.63188 0.81278 0.82690
 C768 C 0.62533 0.81743 0.81529
 C769 C 0.63276 0.82881 0.81135
 H770 H 0.62923 0.80390 0.83287
 H771 H 0.63075 0.83530 0.80271
 N772 N 0.67067 0.82018 0.85801
 N773 N 0.68052 0.82941 0.85792
 C774 C 0.68915 0.82694 0.86827
 C775 C 0.68460 0.81560 0.87528
 C776 C 0.67279 0.81160 0.86853
 H777 H 0.69810 0.83301 0.87058
 H778 H 0.66641 0.80290 0.87093
 H779 H 0.67157 0.82905 0.83343
 H780 H 0.66087 0.84014 0.84462
 N781 N 0.18121 0.35773 0.82946
 N782 N 0.17119 0.35794 0.82054
 C783 C 0.17337 0.36831 0.81176
 C784 C 0.18545 0.37484 0.81540
 C785 C 0.19007 0.36783 0.82669
 H786 H 0.16685 0.37074 0.80322
 H787 H 0.19920 0.36996 0.83254
 Cu788 Cu 0.15658 0.34433 0.82114
 Cu789 Cu 0.18229 0.34445 0.84402
 Cu790 Cu 0.15731 0.31954 0.84506
 N791 N 0.14304 0.32966 0.82154
 N792 N 0.14347 0.32005 0.83085
 C793 C 0.13326 0.31112 0.82865
 C794 C 0.12596 0.31528 0.81732
 C795 C 0.13247 0.32713 0.81308
 H796 H 0.13129 0.30225 0.83487
 H797 H 0.12988 0.33328 0.80434
 N798 N 0.17217 0.32073 0.85856
 N799 N 0.18174 0.33021 0.85805
 C800 C 0.19060 0.32827 0.86835
 C801 C 0.18644 0.31701 0.87576
 C802 C 0.17468 0.31250 0.86926
 H803 H 0.19941 0.33464 0.87034
 H804 H 0.16856 0.30371 0.87196
 H805 H 0.17205 0.32922 0.83352
 H806 H 0.16153 0.34015 0.84507
 N807 N 0.17997 0.85789 0.32850
 N808 N 0.17037 0.85725 0.31917
 C809 C 0.17216 0.86751 0.31027
 C810 C 0.18346 0.87506 0.31424
 C811 C 0.18815 0.86866 0.32591
 H812 H 0.16566 0.86941 0.30159
 H813 H 0.19698 0.87146 0.33193
 Cu814 Cu 0.15658 0.84300 0.31957
 Cu815 Cu 0.18118 0.84456 0.34317
 Cu816 Cu 0.15635 0.81904 0.34390
 N817 N 0.14286 0.82871 0.31980
 N818 N 0.14264 0.81940 0.32941
 C819 C 0.13212 0.81078 0.32710
 C820 C 0.12550 0.81487 0.31531
 C821 C 0.13261 0.82628 0.31101
 H822 H 0.12967 0.80203 0.33334
 H823 H 0.13044 0.83241 0.30214
 N824 N 0.17115 0.82053 0.35754
 N825 N 0.18062 0.83016 0.35714
 C826 C 0.18945 0.82824 0.36747
 C827 C 0.18539 0.81687 0.37476
 C828 C 0.17372 0.81226 0.36818
 H829 H 0.19819 0.83468 0.36954
 H830 H 0.16773 0.80335 0.37078
 H831 H 0.17171 0.82857 0.33306
 H832 H 0.16056 0.83964 0.34374
 C833 C 0.25989 0.97134 0.24226
 C834 C 0.25093 0.96436 0.25085
 C835 C 0.24210 0.97132 0.25957
 C836 C 0.24199 0.98573 0.25967
 C837 C 0.25095 0.99298 0.25090
 C838 C 0.26001 0.98576 0.24221
 C839 C 0.26873 0.99314 0.23356
 C840 C 0.26854 1.00735 0.23339
 C841 C 0.25957 1.01469 0.24182
 C842 C 0.25072 1.00745 0.25070
 C843 C 0.23296 0.99307 0.26804
 C844 C 0.23273 1.00729 0.26782
 C845 C 0.24155 1.01467 0.25926
 C846 C 0.24128 1.02910 0.25882
 C847 C 0.25009 1.03606 0.25005
 C848 C 0.25918 1.02909 0.24161
 H849 H 0.27573 0.98797 0.22677
 H850 H 0.27546 1.01255 0.22654
 H851 H 0.22589 0.98788 0.27474
 H852 H 0.22548 1.01244 0.27436
 H853 H 0.25089 0.95328 0.25080
 H854 H 0.24985 1.04714 0.24978
 C855 C 0.26052 0.47162 0.74259
 C856 C 0.25120 0.46465 0.75082
 C857 C 0.24218 0.47158 0.75936
 C858 C 0.24247 0.48599 0.75986
 C859 C 0.25183 0.49324 0.75150
 C860 C 0.26087 0.48604 0.74279
 C861 C 0.26981 0.49343 0.73436
 C862 C 0.26991 0.50765 0.73449
 C863 C 0.26114 0.51499 0.74313
 C864 C 0.25207 0.50772 0.75178
 C865 C 0.23375 0.49332 0.76855
 C866 C 0.23408 0.50753 0.76892
 C867 C 0.24313 0.51491 0.76060
 C868 C 0.24333 0.52934 0.76065
 C869 C 0.25208 0.53634 0.75187
 C870 C 0.26098 0.52941 0.74318
 H871 H 0.27672 0.48827 0.72748
 H872 H 0.27691 0.51286 0.72772
 H873 H 0.22658 0.48810 0.77514
 H874 H 0.22709 0.51269 0.77572
 H875 H 0.25096 0.45357 0.75056
 H876 H 0.25204 0.54742 0.75186
 C877 C 0.75900 -0.02966 0.26025
 C878 C 0.75017 -0.03664 0.25151
 C879 C 0.74122 -0.02975 0.24280
 C880 C 0.74112 -0.01532 0.24262
 C881 C 0.74997 -0.00804 0.25150
 C882 C 0.75890 -0.01523 0.26040
 C883 C 0.76731 -0.00780 0.26932
 C884 C 0.76712 0.00642 0.26939
 C885 C 0.75848 0.01373 0.26058
 C886 C 0.74988 0.00645 0.25148
 C887 C 0.73258 -0.00799 0.23372
 C888 C 0.73260 0.00623 0.23361
 C889 C 0.74117 0.01364 0.24238
 C890 C 0.74122 0.02806 0.24242
 C891 C 0.74971 0.03507 0.25144
 C892 C 0.75827 0.02816 0.26051
 H893 H 0.77406 -0.01292 0.27641
 H894 H 0.77386 0.01163 0.27640
 H895 H 0.72586 -0.01320 0.22669
 H896 H 0.72577 0.01138 0.22661
 H897 H 0.75025 -0.04772 0.25150
 H898 H 0.74964 0.04615 0.25142
 C899 C 0.75781 0.47112 0.75902
 C900 C 0.74921 0.46443 0.74983
 C901 C 0.74089 0.47161 0.74076
 C902 C 0.74093 0.48603 0.74089
 C903 C 0.74968 0.49303 0.75007
 C904 C 0.75824 0.48557 0.75911
 C905 C 0.76713 0.49276 0.76778
 C906 C 0.76740 0.50699 0.76781
 C907 C 0.75883 0.51456 0.75914
 C908 C 0.74985 0.50753 0.75021
 C909 C 0.73237 0.49360 0.73221
 C910 C 0.73241 0.50781 0.73248
 C911 C 0.74104 0.51496 0.74141
 C912 C 0.74119 0.52938 0.74172
 C913 C 0.75007 0.53615 0.75055
 C914 C 0.75889 0.52900 0.75919
 H915 H 0.77404 0.48744 0.77456
 H916 H 0.77437 0.51202 0.77473
 H917 H 0.72549 0.48858 0.72519
 H918 H 0.72564 0.51316 0.72557
 H919 H 0.74893 0.45335 0.74975
 H920 H 0.75014 0.54723 0.75070
 C921 C 0.26120 0.47038 0.25719
 C922 C 0.25264 0.46325 0.24835
 C923 C 0.24408 0.47000 0.23915
 C924 C 0.24400 0.48445 0.23875
 C925 C 0.25261 0.49185 0.24774
 C926 C 0.26128 0.48479 0.25698
 C927 C 0.26962 0.49231 0.26586
 C928 C 0.26950 0.50653 0.26569
 C929 C 0.26103 0.51373 0.25662
 C930 C 0.25253 0.50634 0.24753
 C931 C 0.23571 0.49168 0.22952
 C932 C 0.23557 0.50590 0.22937
 C933 C 0.24386 0.51342 0.23831
 C934 C 0.24360 0.52785 0.23844
 C935 C 0.25187 0.53495 0.24759
 C936 C 0.26063 0.52814 0.25654
 H937 H 0.27626 0.48725 0.27311
 H938 H 0.27604 0.51183 0.27282
 H939 H 0.22925 0.48642 0.22230
 H940 H 0.22885 0.51096 0.22221
 H941 H 0.25261 0.45217 0.24868
 H942 H 0.25162 0.54603 0.24763
 C943 C 0.75938 0.97269 0.74292
 C944 C 0.75056 0.96566 0.75161
 C945 C 0.74172 0.97256 0.76037
 C946 C 0.74168 0.98698 0.76059
 C947 C 0.75057 0.99428 0.75178
 C948 C 0.75944 0.98711 0.74288
 C949 C 0.76795 0.99453 0.73404
 C950 C 0.76773 1.00875 0.73391
 C951 C 0.75909 1.01606 0.74270
 C952 C 0.75046 1.00876 0.75176
 C953 C 0.73307 0.99428 0.76941
 C954 C 0.73303 1.00850 0.76946
 C955 C 0.74161 1.01592 0.76068
 C956 C 0.74142 1.03033 0.76041
 C957 C 0.74978 1.03737 0.75128
 C958 C 0.75860 1.03048 0.74249
 H959 H 0.77475 0.98940 0.72705
 H960 H 0.77435 1.01396 0.72679
 H961 H 0.72626 0.98903 0.77635
 H962 H 0.72613 1.01363 0.77636
 H963 H 0.75052 0.95458 0.75150
 H964 H 0.74950 1.04845 0.75111
 C965 C 0.75937 0.52904 0.24217
 C966 C 0.75018 0.53601 0.25050
 C967 C 0.74068 0.52907 0.25855
 C968 C 0.74047 0.51464 0.25853
 C969 C 0.74990 0.50740 0.25025
 C970 C 0.75934 0.51462 0.24197
 C971 C 0.76858 0.50725 0.23386
 C972 C 0.76854 0.49303 0.23383
 C973 C 0.75932 0.48567 0.24199
 C974 C 0.74991 0.49291 0.25028
 C975 C 0.73123 0.50728 0.26666
 C976 C 0.73121 0.49306 0.26666
 C977 C 0.74047 0.48569 0.25857
 C978 C 0.74046 0.47126 0.25839
 C979 C 0.74964 0.46430 0.25002
 C980 C 0.75910 0.47125 0.24195
 H981 H 0.77597 0.51242 0.22748
 H982 H 0.77580 0.48784 0.22733
 H983 H 0.72394 0.51247 0.27313
 H984 H 0.72381 0.48789 0.27302
 H985 H 0.75027 0.54709 0.25057
 H986 H 0.74955 0.45322 0.24995
 C987 C 0.25586 -0.02921 0.76214
 C988 C 0.24691 -0.03626 0.75360
 C989 C 0.23803 -0.02936 0.74482
 C990 C 0.23811 -0.01493 0.74443
 C991 C 0.24724 -0.00763 0.75298
 C992 C 0.25612 -0.01479 0.76193
 C993 C 0.26523 -0.00739 0.77016
 C994 C 0.26572 0.00681 0.76955
 C995 C 0.25710 0.01412 0.76070
 C996 C 0.24775 0.00684 0.75234
 C997 C 0.22954 -0.00764 0.73552
 C998 C 0.23005 0.00656 0.73488
 C999 C 0.23912 0.01398 0.74315
 C1000 C 0.24005 0.02836 0.74226
 C1001 C 0.24940 0.03535 0.75044
 C1002 C 0.25782 0.02851 0.75968
 H1003 H 0.27219 -0.01252 0.77704
 H1004 H 0.27307 0.01199 0.77595
 H1005 H 0.22248 -0.01288 0.72884
 H1006 H 0.22338 0.01166 0.72770
 H1007 H 0.24689 -0.04733 0.75373
 H1008 H 0.25000 0.04640 0.74972
 C1009 C 0.25940 0.24059 0.97143
 C1010 C 0.25051 0.24936 0.96452
 C1011 C 0.24180 0.25824 0.97145
 C1012 C 0.24186 0.25841 0.98578
 C1013 C 0.25091 0.24961 0.99296
 C1014 C 0.25976 0.24069 0.98576
 C1015 C 0.26852 0.23196 0.99307
 C1016 C 0.26864 0.23203 1.00721
 C1017 C 0.25995 0.24076 1.01453
 C1018 C 0.25099 0.24964 1.00735
 C1019 C 0.23316 0.26714 0.99310
 C1020 C 0.23318 0.26710 1.00723
 C1021 C 0.24199 0.25842 1.01454
 C1022 C 0.24187 0.25807 1.02886
 C1023 C 0.25063 0.24919 1.03578
 C1024 C 0.25971 0.24065 1.02887
 H1025 H 0.27531 0.22494 0.98792
 H1026 H 0.27553 0.22506 1.01235
 H1027 H 0.22620 0.27403 0.98796
 H1028 H 0.22616 0.27390 1.01237
 H1029 H 0.25034 0.24924 0.95351
 H1030 H 0.25046 0.24899 1.04679
 C1031 C 0.25885 0.74092 0.47054
 C1032 C 0.24988 0.74957 0.46359
 C1033 C 0.24064 0.75795 0.47047
 C1034 C 0.24026 0.75776 0.48479
 C1035 C 0.24927 0.74897 0.49201
 C1036 C 0.25861 0.74050 0.48486
 C1037 C 0.26737 0.73181 0.49221
 C1038 C 0.26709 0.73154 0.50633
 C1039 C 0.25804 0.73995 0.51361
 C1040 C 0.24904 0.74875 0.50640
 C1041 C 0.23130 0.76627 0.49207
 C1042 C 0.23115 0.76613 0.50620
 C1043 C 0.23992 0.75745 0.51355
 C1044 C 0.24006 0.75743 0.52788
 C1045 C 0.24906 0.74880 0.53483
 C1046 C 0.25792 0.74002 0.52794
 H1047 H 0.27455 0.72515 0.48708
 H1048 H 0.27413 0.72474 0.51151
 H1049 H 0.22441 0.77321 0.48690
 H1050 H 0.22415 0.77297 0.51133
 H1051 H 0.25011 0.74979 0.45258
 H1052 H 0.24912 0.74886 0.54584
 C1053 C 0.24397 0.73795 0.02850
 C1054 C 0.25283 0.74672 0.03540
 C1055 C 0.26192 0.75527 0.02849
 C1056 C 0.26211 0.75525 0.01415
 C1057 C 0.25309 0.74646 0.00696
 C1058 C 0.24403 0.73771 0.01415
 C1059 C 0.23506 0.72925 0.00683
 C1060 C 0.23493 0.72939 -0.00731
 C1061 C 0.24374 0.73803 -0.01463
 C1062 C 0.25293 0.74665 -0.00745
 C1063 C 0.27080 0.76401 0.00683
 C1064 C 0.27060 0.76422 -0.00730
 C1065 C 0.26174 0.75565 -0.01463
 C1066 C 0.26118 0.75606 -0.02896
 C1067 C 0.25201 0.74760 -0.03586
 C1068 C 0.24340 0.73856 -0.02897
 H1069 H 0.22794 0.72254 0.01198
 H1070 H 0.22770 0.72280 -0.01245
 H1071 H 0.27771 0.77092 0.01199
 H1072 H 0.27736 0.77130 -0.01244
 H1073 H 0.25269 0.74687 0.04641
 H1074 H 0.25166 0.74797 -0.04686
 C1075 C 0.25868 0.25727 0.47102
 C1076 C 0.25034 0.24801 0.46413
 C1077 C 0.24134 0.23939 0.47104
 C1078 C 0.24073 0.23980 0.48535
 C1079 C 0.24936 0.24895 0.49252
 C1080 C 0.25835 0.25777 0.48534
 C1081 C 0.26688 0.26668 0.49265
 C1082 C 0.26657 0.26698 0.50676
 C1083 C 0.25774 0.25836 0.51408
 C1084 C 0.24902 0.24928 0.50690
 C1085 C 0.23188 0.23119 0.49267
 C1086 C 0.23144 0.23162 0.50678
 C1087 C 0.23995 0.24055 0.51409
 C1088 C 0.23952 0.24115 0.52840
 C1089 C 0.24805 0.25025 0.53530
 C1090 C 0.25723 0.25869 0.52839
 H1091 H 0.27392 0.27348 0.48750
 H1092 H 0.27329 0.27408 0.51190
 H1093 H 0.22521 0.22403 0.48753
 H1094 H 0.22434 0.22488 0.51191
 H1095 H 0.25068 0.24769 0.45313
 H1096 H 0.24771 0.25059 0.54630
 C1097 C 0.75670 0.73945 0.97161
 C1098 C 0.74793 0.74836 0.96473
 C1099 C 0.73887 0.75689 0.97166
 C1100 C 0.73867 0.75679 0.98600
 C1101 C 0.74763 0.74790 0.99316
 C1102 C 0.75663 0.73912 0.98594
 C1103 C 0.76546 0.73046 0.99324
 C1104 C 0.76547 0.73039 1.00737
 C1105 C 0.75673 0.73906 1.01471
 C1106 C 0.74770 0.74789 1.00755
 C1107 C 0.72999 0.76552 0.99334
 C1108 C 0.73009 0.76554 1.00747
 C1109 C 0.73883 0.75678 1.01476
 C1110 C 0.73911 0.75680 1.02910
 C1111 C 0.74795 0.74796 1.03599
 C1112 C 0.75670 0.73913 1.02904
 H1113 H 0.77251 0.72369 0.98807
 H1114 H 0.77246 0.72351 1.01250
 H1115 H 0.72312 0.77251 0.98821
 H1116 H 0.72329 0.77255 1.01263
 H1117 H 0.74806 0.74854 0.95372
 H1118 H 0.74805 0.74799 1.04700
 C1119 C 0.75834 0.24094 0.47138
 C1120 C 0.74984 0.25008 0.46446
 C1121 C 0.74100 0.25888 0.47136
 C1122 C 0.74066 0.25873 0.48569
 C1123 C 0.74941 0.24968 0.49289
 C1124 C 0.75825 0.24069 0.48572
 C1125 C 0.76697 0.23197 0.49307
 C1126 C 0.76705 0.23206 0.50721
 C1127 C 0.75836 0.24084 0.51450
 C1128 C 0.74945 0.24974 0.50730
 C1129 C 0.73202 0.26756 0.49298
 C1130 C 0.73200 0.26755 0.50712
 C1131 C 0.74071 0.25881 0.51446
 C1132 C 0.74088 0.25882 0.52881
 C1133 C 0.74973 0.25003 0.53573
 C1134 C 0.75848 0.24115 0.52883
 H1135 H 0.77393 0.22509 0.48795
 H1136 H 0.77405 0.22523 0.51237
 H1137 H 0.72525 0.27461 0.48782
 H1138 H 0.72514 0.27452 0.51225
 H1139 H 0.75001 0.25028 0.45345
 H1140 H 0.74988 0.25016 0.54674
 C1141 C 0.75908 0.25832 -0.02912
 C1142 C 0.75068 0.24909 -0.03601
 C1143 C 0.74214 0.24003 -0.02906
 C1144 C 0.74186 0.24011 -0.01474
 C1145 C 0.75038 0.24937 -0.00757
 C1146 C 0.75905 0.25852 -0.01478
 C1147 C 0.76752 0.26747 -0.00747
 C1148 C 0.76748 0.26750 0.00667
 C1149 C 0.75896 0.25857 0.01399
 C1150 C 0.75024 0.24949 0.00682
 C1151 C 0.73321 0.23130 -0.00741
 C1152 C 0.73299 0.23151 0.00672
 C1153 C 0.74140 0.24053 0.01403
 C1154 C 0.74134 0.24076 0.02837
 C1155 C 0.75002 0.24971 0.03526
 C1156 C 0.75879 0.25855 0.02832
 H1157 H 0.77431 0.27451 -0.01262
 H1158 H 0.77417 0.27462 0.01181
 H1159 H 0.72651 0.22419 -0.01256
 H1160 H 0.72618 0.22449 0.01188
 H1161 H 0.75076 0.24899 -0.04701
 H1162 H 0.74996 0.24979 0.04627
 C1163 C 0.75894 0.75896 0.47206
 C1164 C 0.75009 0.75020 0.46513
 C1165 C 0.74123 0.74145 0.47206
 C1166 C 0.74127 0.74125 0.48639
 C1167 C 0.75037 0.74995 0.49356
 C1168 C 0.75922 0.75889 0.48637
 C1169 C 0.76820 0.76738 0.49367
 C1170 C 0.76849 0.76710 0.50779
 C1171 C 0.75984 0.75831 0.51511
 C1172 C 0.75068 0.74966 0.50794
 C1173 C 0.73259 0.73247 0.49371
 C1174 C 0.73282 0.73227 0.50783
 C1175 C 0.74179 0.74076 0.51513
 C1176 C 0.74203 0.74074 0.52945
 C1177 C 0.75096 0.74941 0.53637
 C1178 C 0.75993 0.75805 0.52944
 H1179 H 0.77511 0.77429 0.48850
 H1180 H 0.77555 0.77388 0.51293
 H1181 H 0.72556 0.72567 0.48856
 H1182 H 0.72587 0.72540 0.51299
 H1183 H 0.75002 0.75028 0.45412
 H1184 H 0.75102 0.74934 0.54738
 C1185 C 0.97072 0.25960 0.24100
 C1186 C 0.96376 0.25047 0.24943
 C1187 C 0.97078 0.24194 0.25844
 C1188 C 0.98526 0.24223 0.25888
 C1189 C 0.99249 0.25130 0.25022
 C1190 C 0.98521 0.26009 0.24129
 C1191 C 0.99258 0.26897 0.23279
 C1192 C 1.00686 0.26929 0.23310
 C1193 C 1.01428 0.26066 0.24183
 C1194 C 1.00705 0.25158 0.25048
 C1195 C 0.99268 0.23359 0.26760
 C1196 C 1.00696 0.23390 0.26789
 C1197 C 1.01433 0.24279 0.25941
 C1198 C 1.02881 0.24330 0.25973
 C1199 C 1.03577 0.25245 0.25133
 C1200 C 1.02877 0.26100 0.24233
 H1201 H 0.98736 0.27575 0.22581
 H1202 H 1.01203 0.27641 0.22643
 H1203 H 0.98751 0.22647 0.27427
 H1204 H 1.01218 0.22711 0.27488
 H1205 H 0.95264 0.25020 0.24918
 H1206 H 1.04690 0.25275 0.25162
 C1207 C 0.52781 0.24043 0.75685
 C1208 C 0.53480 0.24932 0.74820
 C1209 C 0.52779 0.25808 0.73941
 C1210 C 0.51329 0.25818 0.73933
 C1211 C 0.50605 0.24932 0.74821
 C1212 C 0.51333 0.24035 0.75695
 C1213 C 0.50596 0.23177 0.76575
 C1214 C 0.49168 0.23202 0.76602
 C1215 C 0.48426 0.24082 0.75745
 C1216 C 0.49150 0.24957 0.74848
 C1217 C 0.50588 0.26704 0.73083
 C1218 C 0.49159 0.26725 0.73106
 C1219 C 0.48422 0.25867 0.73986
 C1220 C 0.46974 0.25887 0.74026
 C1221 C 0.46276 0.25022 0.74915
 C1222 C 0.46978 0.24128 0.75775
 H1223 H 0.51119 0.22485 0.77260
 H1224 H 0.48651 0.22531 0.77309
 H1225 H 0.51107 0.27396 0.72398
 H1226 H 0.48637 0.27426 0.72430
 H1227 H 0.54593 0.24938 0.74827
 H1228 H 0.45164 0.25047 0.74940
 C1229 C -0.02823 0.25928 0.75870
 C1230 C -0.03527 0.25028 0.75022
 C1231 C -0.02832 0.24140 0.74155
 C1232 C -0.01383 0.24148 0.74124
 C1233 C -0.00652 0.25061 0.74977
 C1234 C -0.01374 0.25956 0.75854
 C1235 C -0.00631 0.26856 0.76685
 C1236 C 0.00798 0.26865 0.76672
 C1237 C 0.01534 0.25977 0.75823
 C1238 C 0.00803 0.25068 0.74965
 C1239 C -0.00646 0.23251 0.73286
 C1240 C 0.00782 0.23252 0.73280
 C1241 C 0.01525 0.24152 0.74111
 C1242 C 0.02974 0.24141 0.74135
 C1243 C 0.03678 0.25030 0.74993
 C1244 C 0.02983 0.25952 0.75825
 H1245 H -0.01149 0.27560 0.77358
 H1246 H 0.01321 0.27567 0.77342
 H1247 H -0.01168 0.22529 0.72636
 H1248 H 0.01298 0.22530 0.72626
 H1249 H -0.04640 0.25014 0.75042
 H1250 H 0.04791 0.25014 0.75005
 C1251 C 0.47163 0.26276 0.25473
 C1252 C 0.46466 0.25413 0.24584
 C1253 C 0.47168 0.24554 0.23694
 C1254 C 0.48616 0.24543 0.23690
 C1255 C 0.49341 0.25401 0.24601
 C1256 C 0.48612 0.26274 0.25496
 C1257 C 0.49348 0.27095 0.26408
 C1258 C 0.50775 0.27053 0.26452
 C1259 C 0.51518 0.26194 0.25578
 C1260 C 0.50795 0.25364 0.24639
 C1261 C 0.49357 0.23674 0.22826
 C1262 C 0.50785 0.23645 0.22856
 C1263 C 0.51524 0.24479 0.23756
 C1264 C 0.52971 0.24428 0.23824
 C1265 C 0.53665 0.25233 0.24770
 C1266 C 0.52964 0.26115 0.25638
 H1267 H 0.48826 0.27765 0.27111
 H1268 H 0.51292 0.27690 0.27188
 H1269 H 0.48838 0.22998 0.22126
 H1270 H 0.51305 0.22945 0.22181
 H1271 H 0.45353 0.25410 0.24582
 H1272 H 0.54775 0.25184 0.24821
 C1273 C 0.97052 0.75926 0.73995
 C1274 C 0.96350 0.75025 0.74845
 C1275 C 0.97046 0.74115 0.75693
 C1276 C 0.98496 0.74118 0.75719
 C1277 C 0.99225 0.75038 0.74870
 C1278 C 0.98502 0.75940 0.73997
 C1279 C 0.99244 0.76842 0.73165
 C1280 C 1.00673 0.76855 0.73184
 C1281 C 1.01410 0.75976 0.74045
 C1282 C 1.00680 0.75061 0.74900
 C1283 C 0.99233 0.73243 0.76584
 C1284 C 1.00661 0.73266 0.76614
 C1285 C 1.01403 0.74167 0.75782
 C1286 C 1.02852 0.74189 0.75793
 C1287 C 1.03556 0.75076 0.74930
 C1288 C 1.02860 0.75972 0.74066
 H1289 H 0.98725 0.77548 0.72492
 H1290 H 1.01196 0.77561 0.72516
 H1291 H 0.98710 0.72535 0.77250
 H1292 H 1.01180 0.72567 0.77294
 H1293 H 0.95237 0.75021 0.74835
 H1294 H 1.04669 0.75081 0.74941
 C1295 C 0.52917 0.74123 0.25878
 C1296 C 0.53612 0.75017 0.25014
 C1297 C 0.52907 0.75904 0.24149
 C1298 C 0.51458 0.75907 0.24138
 C1299 C 0.50736 0.75004 0.25011
 C1300 C 0.51467 0.74108 0.25885
 C1301 C 0.50731 0.73232 0.26748
 C1302 C 0.49301 0.73231 0.26751
 C1303 C 0.48557 0.74110 0.25895
 C1304 C 0.49280 0.74999 0.25009
 C1305 C 0.50714 0.76776 0.23272
 C1306 C 0.49285 0.76767 0.23267
 C1307 C 0.48549 0.75883 0.24122
 C1308 C 0.47099 0.75868 0.24127
 C1309 C 0.46404 0.74990 0.25007
 C1310 C 0.47107 0.74117 0.25887
 H1311 H 0.51255 0.72542 0.27433
 H1312 H 0.48784 0.72531 0.27429
 H1313 H 0.51231 0.77472 0.22589
 H1314 H 0.48762 0.77463 0.22587
 H1315 H 0.54725 0.75021 0.25013
 H1316 H 0.45291 0.74985 0.25006
 C1317 C -0.02922 0.74287 0.23953
 C1318 C -0.03614 0.75207 0.24789
 C1319 C -0.02908 0.76056 0.25685
 C1320 C -0.01463 0.75992 0.25759
 C1321 C -0.00745 0.75070 0.24908
 C1322 C -0.01475 0.74216 0.23998
 C1323 C -0.00741 0.73326 0.23149
 C1324 C 0.00685 0.73271 0.23195
 C1325 C 0.01429 0.74104 0.24092
 C1326 C 0.00707 0.75002 0.24966
 C1327 C -0.00722 0.76815 0.26666
 C1328 C 0.00703 0.76738 0.26735
 C1329 C 0.01435 0.75838 0.25895
 C1330 C 0.02880 0.75760 0.25946
 C1331 C 0.03577 0.74875 0.25078
 C1332 C 0.02876 0.74055 0.24151
 H1333 H -0.01264 0.72669 0.22434
 H1334 H 0.01200 0.72564 0.22524
 H1335 H -0.01238 0.77524 0.27334
 H1336 H 0.01226 0.77395 0.27449
 H1337 H -0.04725 0.75254 0.24752
 H1338 H 0.04688 0.74834 0.25116
 C1339 C 0.47066 0.75531 0.76322
 C1340 C 0.46379 0.74626 0.75463
 C1341 C 0.47088 0.73714 0.74633
 C1342 C 0.48536 0.73699 0.74648
 C1343 C 0.49254 0.74620 0.75504
 C1344 C 0.48517 0.75539 0.76347
 C1345 C 0.49251 0.76468 0.77155
 C1346 C 0.50679 0.76491 0.77144
 C1347 C 0.51428 0.75591 0.76320
 C1348 C 0.50710 0.74646 0.75491
 C1349 C 0.49284 0.72815 0.73806
 C1350 C 0.50712 0.72839 0.73795
 C1351 C 0.51444 0.73747 0.74627
 C1352 C 0.52892 0.73807 0.74594
 C1353 C 0.53582 0.74750 0.75407
 C1354 C 0.52877 0.75633 0.76271
 H1355 H 0.48727 0.77200 0.77791
 H1356 H 0.51192 0.77237 0.77774
 H1357 H 0.48770 0.72106 0.73136
 H1358 H 0.51238 0.72149 0.73114
 H1359 H 0.45266 0.74629 0.75441
 H1360 H 0.54694 0.74788 0.75375
 C1361 C 0.38974 0.29476 0.31122
 C1362 C 0.40100 0.28849 0.30515
 C1363 C 0.40961 0.29581 0.29640
 C1364 C 0.40655 0.30958 0.29360
 C1365 C 0.39517 0.31586 0.29961
 C1366 C 0.38670 0.30853 0.30856
 C1367 C 0.42119 0.28843 0.29002
 C1368 C 0.43242 0.29443 0.28489
 C1369 C 0.44355 0.28653 0.27829
 C1370 C 0.45144 0.29277 0.26809
 C1371 C 0.46114 0.28521 0.26082
 C1372 C 0.46319 0.27136 0.26376
 C1373 C 0.45587 0.26527 0.27438
 C1374 C 0.44625 0.27281 0.28170
 H1375 H 0.38332 0.28871 0.31784
 H1376 H 0.40300 0.27783 0.30734
 H1377 H 0.41269 0.31547 0.28659
 H1378 H 0.39307 0.32647 0.29732
 H1379 H 0.42030 0.27742 0.28966
 H1380 H 0.43333 0.30543 0.28498
 H1381 H 0.44968 0.30334 0.26538
 H1382 H 0.46666 0.29001 0.25256
 H1383 H 0.45735 0.25457 0.27676
 H1384 H 0.44086 0.26778 0.28988
 C1385 C 0.39210 0.81731 0.79790
 C1386 C 0.40406 0.81224 0.79198
 C1387 C 0.41107 0.80113 0.79771
 C1388 C 0.40584 0.79526 0.80969
 C1389 C 0.39391 0.80040 0.81569
 C1390 C 0.38673 0.81142 0.80982
 C1391 C 0.42322 0.79573 0.79034
 C1392 C 0.43146 0.78572 0.79491
 C1393 C 0.44253 0.77936 0.78668
 C1394 C 0.45193 0.77061 0.79316
 C1395 C 0.46159 0.76325 0.78564
 C1396 C 0.46208 0.76458 0.77149
 C1397 C 0.45301 0.77357 0.76501
 C1398 C 0.44331 0.78086 0.77247
 H1399 H 0.38717 0.82585 0.79297
 H1400 H 0.40775 0.81697 0.78274
 H1401 H 0.41066 0.78654 0.81441
 H1402 H 0.39024 0.79545 0.82480
 H1403 H 0.42529 0.80030 0.78058
 H1404 H 0.43006 0.78172 0.80503
 H1405 H 0.45152 0.76914 0.80404
 H1406 H 0.46834 0.75614 0.79079
 H1407 H 0.45310 0.77455 0.75406
 H1408 H 0.43614 0.78711 0.76688
 C1409 C -0.11032 0.31391 0.79373
 C1410 C -0.09905 0.30832 0.78703
 C1411 C -0.09015 0.29933 0.79374
 C1412 C -0.09289 0.29580 0.80732
 C1413 C -0.10426 0.30132 0.81401
 C1414 C -0.11308 0.31047 0.80730
 C1415 C -0.07860 0.29344 0.78595
 C1416 C -0.06709 0.28845 0.79156
 C1417 C -0.05603 0.28216 0.78335
 C1418 C -0.04786 0.27189 0.78918
 C1419 C -0.03825 0.26484 0.78132
 C1420 C -0.03658 0.26810 0.76757
 C1421 C -0.04417 0.27882 0.76190
 C1422 C -0.05372 0.28590 0.76974
 H1423 H -0.11698 0.32073 0.78815
 H1424 H -0.09729 0.31106 0.77652
 H1425 H -0.08651 0.28857 0.81271
 H1426 H -0.10611 0.29844 0.82445
 H1427 H -0.07976 0.29328 0.77504
 H1428 H -0.06590 0.28837 0.80247
 H1429 H -0.04932 0.26893 0.79968
 H1430 H -0.03252 0.25650 0.78580
 H1431 H -0.04296 0.28145 0.75129
 H1432 H -0.05936 0.29416 0.76504
 C1433 C -0.11078 0.79450 0.31151
 C1434 C -0.09949 0.78816 0.30559
 C1435 C -0.09078 0.79540 0.29688
 C1436 C -0.09377 0.80917 0.29396
 C1437 C -0.10519 0.81552 0.29984
 C1438 C -0.11375 0.80826 0.30875
 C1439 C -0.07917 0.78792 0.29071
 C1440 C -0.06789 0.79381 0.28559
 C1441 C -0.05676 0.78565 0.27934
 C1442 C -0.04916 0.79127 0.26861
 C1443 C -0.03958 0.78329 0.26164
 C1444 C -0.03738 0.76968 0.26545
 C1445 C -0.04437 0.76427 0.27662
 C1446 C -0.05388 0.77222 0.28361
 H1447 H -0.11727 0.78849 0.31811
 H1448 H -0.09753 0.77751 0.30788
 H1449 H -0.08752 0.81500 0.28699
 H1450 H -0.10723 0.82612 0.29748
 H1451 H -0.08006 0.77691 0.29051
 H1452 H -0.06694 0.80480 0.28540
 H1453 H -0.05107 0.80163 0.26525
 H1454 H -0.03427 0.78755 0.25296
 H1455 H -0.04272 0.75377 0.27967
 H1456 H -0.05910 0.76773 0.29221
 C1457 C 0.61080 0.70615 0.31461
 C1458 C 0.59960 0.71283 0.30878
 C1459 C 0.59089 0.70602 0.29972
 C1460 C 0.59377 0.69234 0.29640
 C1461 C 0.60508 0.68566 0.30218
 C1462 C 0.61369 0.69248 0.31139
 C1463 C 0.57941 0.71383 0.29358
 C1464 C 0.56816 0.70819 0.28808
 C1465 C 0.55715 0.71646 0.28165
 C1466 C 0.54924 0.71065 0.27123
 C1467 C 0.53960 0.71853 0.26416
 C1468 C 0.53764 0.73229 0.26752
 C1469 C 0.54500 0.73795 0.27835
 C1470 C 0.55456 0.73008 0.28546
 H1471 H 0.61729 0.71183 0.32148
 H1472 H 0.59774 0.72341 0.31138
 H1473 H 0.58756 0.68683 0.28916
 H1474 H 0.60702 0.67515 0.29944
 H1475 H 0.58042 0.72483 0.29367
 H1476 H 0.56713 0.69720 0.28774
 H1477 H 0.55089 0.70016 0.26821
 H1478 H 0.53406 0.71407 0.25574
 H1479 H 0.54357 0.74856 0.28107
 H1480 H 0.55997 0.73477 0.29382
 C1481 C 0.60934 0.20700 0.81335
 C1482 C 0.59799 0.21348 0.80760
 C1483 C 0.58938 0.20651 0.79856
 C1484 C 0.59251 0.19290 0.79518
 C1485 C 0.60395 0.18643 0.80089
 C1486 C 0.61247 0.19340 0.81006
 C1487 C 0.57776 0.21408 0.79243
 C1488 C 0.56665 0.20817 0.78695
 C1489 C 0.55560 0.21618 0.78033
 C1490 C 0.54803 0.21021 0.76976
 C1491 C 0.53845 0.21792 0.76246
 C1492 C 0.53621 0.23165 0.76576
 C1493 C 0.54321 0.23745 0.77673
 C1494 C 0.55272 0.22975 0.78407
 H1495 H 0.61575 0.21278 0.82021
 H1496 H 0.59592 0.22402 0.81023
 H1497 H 0.58640 0.18729 0.78793
 H1498 H 0.60606 0.17596 0.79813
 H1499 H 0.57858 0.22509 0.79246
 H1500 H 0.56582 0.19716 0.78668
 H1501 H 0.54994 0.19974 0.76680
 H1502 H 0.53317 0.21335 0.75393
 H1503 H 0.54156 0.24805 0.77938
 H1504 H 0.55788 0.23455 0.79252
 C1505 C 1.11005 0.68631 0.79355
 C1506 C 1.09876 0.69184 0.78680
 C1507 C 1.08987 0.70089 0.79341
 C1508 C 1.09264 0.70448 0.80696
 C1509 C 1.10402 0.69899 0.81372
 C1510 C 1.11284 0.68981 0.80709
 C1511 C 1.07836 0.70681 0.78553
 C1512 C 1.06704 0.71227 0.79105
 C1513 C 1.05611 0.71874 0.78275
 C1514 C 1.04818 0.72923 0.78847
 C1515 C 1.03868 0.73641 0.78055
 C1516 C 1.03687 0.73306 0.76685
 C1517 C 1.04424 0.72217 0.76127
 C1518 C 1.05367 0.71496 0.76917
 H1519 H 1.11669 0.67945 0.78802
 H1520 H 1.09698 0.68905 0.77631
 H1521 H 1.08629 0.71174 0.81231
 H1522 H 1.10588 0.70192 0.82414
 H1523 H 1.07944 0.70667 0.77461
 H1524 H 1.06593 0.71263 0.80195
 H1525 H 1.04975 0.73225 0.79892
 H1526 H 1.03312 0.74488 0.78495
 H1527 H 1.04292 0.71949 0.75070
 H1528 H 1.05911 0.70655 0.76455
 C1529 C 1.11002 0.20747 0.31595
 C1530 C 1.09873 0.21433 0.31051
 C1531 C 1.09002 0.20787 0.30119
 C1532 C 1.09297 0.19438 0.29725
 C1533 C 1.10433 0.18753 0.30265
 C1534 C 1.11299 0.19400 0.31207
 C1535 C 1.07853 0.21586 0.29532
 C1536 C 1.06738 0.21031 0.28955
 C1537 C 1.05650 0.21862 0.28298
 C1538 C 1.04869 0.21278 0.27251
 C1539 C 1.03918 0.22064 0.26529
 C1540 C 1.03724 0.23443 0.26855
 C1541 C 1.04453 0.24014 0.27939
 C1542 C 1.05398 0.23228 0.28665
 H1543 H 1.11653 0.21287 0.32302
 H1544 H 1.09680 0.22477 0.31358
 H1545 H 1.08679 0.18916 0.28977
 H1546 H 1.10630 0.17717 0.29942
 H1547 H 1.07953 0.22684 0.29573
 H1548 H 1.06638 0.19933 0.28899
 H1549 H 1.05033 0.20225 0.26957
 H1550 H 1.03370 0.21614 0.25685
 H1551 H 1.04312 0.25078 0.28202
 H1552 H 1.05933 0.23702 0.29501
 C1553 C 0.60935 0.31473 0.70536
 C1554 C 0.59803 0.30912 0.71198
 C1555 C 0.58941 0.29984 0.70532
 C1556 C 0.59248 0.29610 0.69188
 C1557 C 0.60388 0.30168 0.68527
 C1558 C 0.61244 0.31108 0.69193
 C1559 C 0.57786 0.29381 0.71304
 C1560 C 0.56669 0.28822 0.70732
 C1561 C 0.55568 0.28162 0.71537
 C1562 C 0.54779 0.27126 0.70935
 C1563 C 0.53816 0.26398 0.71699
 C1564 C 0.53619 0.26708 0.73072
 C1565 C 0.54352 0.27783 0.73660
 C1566 C 0.55308 0.28515 0.72898
 H1567 H 0.61579 0.32177 0.71091
 H1568 H 0.59602 0.31203 0.72239
 H1569 H 0.58635 0.28866 0.68652
 H1570 H 0.60594 0.29862 0.67493
 H1571 H 0.57878 0.29400 0.72397
 H1572 H 0.56577 0.28788 0.69639
 H1573 H 0.54947 0.26844 0.69886
 H1574 H 0.53263 0.25561 0.71235
 H1575 H 0.54208 0.28032 0.74720
 H1576 H 0.55848 0.29344 0.73385
 C1577 C 0.61082 0.79340 0.18600
 C1578 C 0.59928 0.78697 0.19139
 C1579 C 0.59034 0.79399 0.20006
 C1580 C 0.59326 0.80767 0.20330
 C1581 C 0.60488 0.81412 0.19792
 C1582 C 0.61380 0.80706 0.18918
 C1583 C 0.57871 0.78631 0.20605
 C1584 C 0.56758 0.79203 0.21171
 C1585 C 0.55665 0.78379 0.21827
 C1586 C 0.54892 0.78960 0.22881
 C1587 C 0.53941 0.78173 0.23602
 C1588 C 0.53742 0.76797 0.23268
 C1589 C 0.54459 0.76231 0.22176
 C1590 C 0.55401 0.77017 0.21451
 H1591 H 0.61747 0.78751 0.17948
 H1592 H 0.59735 0.77640 0.18880
 H1593 H 0.58686 0.81337 0.21022
 H1594 H 0.60684 0.82462 0.20068
 H1595 H 0.57961 0.77531 0.20588
 H1596 H 0.56665 0.80302 0.21218
 H1597 H 0.55064 0.80009 0.23183
 H1598 H 0.53398 0.78619 0.24450
 H1599 H 0.54313 0.75169 0.21907
 H1600 H 0.55928 0.76546 0.20608
 C1601 C 1.11054 0.31659 0.20667
 C1602 C 1.09913 0.31145 0.21353
 C1603 C 1.09030 0.30209 0.20726
 C1604 C 1.09322 0.29781 0.19395
 C1605 C 1.10468 0.30290 0.18710
 C1606 C 1.11348 0.31235 0.19338
 C1607 C 1.07873 0.29647 0.21525
 C1608 C 1.06744 0.29090 0.20974
 C1609 C 1.05650 0.28441 0.21797
 C1610 C 1.04842 0.27415 0.21204
 C1611 C 1.03886 0.26692 0.21980
 C1612 C 1.03715 0.26996 0.23359
 C1613 C 1.04471 0.28061 0.23940
 C1614 C 1.05420 0.28788 0.23165
 H1615 H 1.11717 0.32370 0.21191
 H1616 H 1.09723 0.31478 0.22384
 H1617 H 1.08693 0.29029 0.18890
 H1618 H 1.10663 0.29939 0.17688
 H1619 H 1.07979 0.29687 0.22616
 H1620 H 1.06640 0.29042 0.19883
 H1621 H 1.04988 0.27137 0.20151
 H1622 H 1.03318 0.25863 0.21522
 H1623 H 1.04347 0.28306 0.25003
 H1624 H 1.05978 0.29607 0.23648
 C1625 C 1.11072 0.79434 0.68555
 C1626 C 1.09940 0.78777 0.69123
 C1627 C 1.09067 0.79466 0.70021
 C1628 C 1.09367 0.80830 0.70358
 C1629 C 1.10510 0.81487 0.69794
 C1630 C 1.11372 0.80798 0.68880
 C1631 C 1.07905 0.78695 0.70620
 C1632 C 1.06792 0.79268 0.71184
 C1633 C 1.05680 0.78448 0.71816
 C1634 C 1.04905 0.79021 0.72872
 C1635 C 1.03930 0.78237 0.73566
 C1636 C 1.03707 0.76872 0.73202
 C1637 C 1.04429 0.76316 0.72107
 C1638 C 1.05396 0.77098 0.71410
 H1639 H 1.11722 0.78859 0.67874
 H1640 H 1.09745 0.77722 0.68857
 H1641 H 1.08745 0.81387 0.71076
 H1642 H 1.10711 0.82536 0.70071
 H1643 H 1.07987 0.77594 0.70591
 H1644 H 1.06707 0.80367 0.71240
 H1645 H 1.05092 0.80061 0.73196
 H1646 H 1.03389 0.78676 0.74419
 H1647 H 1.04267 0.75262 0.71816
 H1648 H 1.05927 0.76635 0.70565
 C1649 C 0.38979 0.70480 0.68892
 C1650 C 0.40100 0.71105 0.69511
 C1651 C 0.40949 0.70373 0.70402
 C1652 C 0.40634 0.68998 0.70682
 C1653 C 0.39500 0.68373 0.70068
 C1654 C 0.38665 0.69107 0.69160
 C1655 C 0.42102 0.71110 0.71051
 C1656 C 0.43208 0.70508 0.71602
 C1657 C 0.44314 0.71301 0.72271
 C1658 C 0.45065 0.70698 0.73331
 C1659 C 0.46024 0.71462 0.74065
 C1660 C 0.46256 0.72836 0.73736
 C1661 C 0.45562 0.73420 0.72634
 C1662 C 0.44611 0.72658 0.71898
 H1663 H 0.38347 0.71086 0.68218
 H1664 H 0.40307 0.72169 0.69290
 H1665 H 0.41237 0.68408 0.71393
 H1666 H 0.39284 0.67315 0.70299
 H1667 H 0.42024 0.72211 0.71067
 H1668 H 0.43289 0.69407 0.71618
 H1669 H 0.44868 0.69651 0.73628
 H1670 H 0.46546 0.71001 0.74921
 H1671 H 0.45732 0.74480 0.72368
 H1672 H 0.44101 0.73142 0.71049
 C1673 C 0.39000 0.18908 0.20425
 C1674 C 0.40119 0.19517 0.21062
 C1675 C 0.40992 0.20395 0.20342
 C1676 C 0.40702 0.20676 0.18970
 C1677 C 0.39571 0.20072 0.18334
 C1678 C 0.38714 0.19174 0.19053
 C1679 C 0.42144 0.21033 0.21086
 C1680 C 0.43274 0.21543 0.20497
 C1681 C 0.44382 0.22203 0.21291
 C1682 C 0.45164 0.23243 0.20686
 C1683 C 0.46126 0.23972 0.21450
 C1684 C 0.46329 0.23657 0.22823
 C1685 C 0.45606 0.22573 0.23410
 C1686 C 0.44650 0.21842 0.22649
 H1687 H 0.38348 0.18242 0.21018
 H1688 H 0.40307 0.19298 0.22124
 H1689 H 0.41325 0.21378 0.18391
 H1690 H 0.39375 0.20300 0.17277
 H1691 H 0.42046 0.21074 0.22179
 H1692 H 0.43376 0.21530 0.19405
 H1693 H 0.44989 0.23528 0.19638
 H1694 H 0.46674 0.24813 0.20986
 H1695 H 0.45758 0.22317 0.24469
 H1696 H 0.44114 0.21009 0.23135
 C1697 C -0.11044 0.70749 0.18334
 C1698 C -0.09917 0.71435 0.18879
 C1699 C -0.09047 0.70789 0.19814
 C1700 C -0.09340 0.69440 0.20211
 C1701 C -0.10473 0.68754 0.19671
 C1702 C -0.11339 0.69401 0.18727
 C1703 C -0.07900 0.71585 0.20401
 C1704 C -0.06775 0.71023 0.20954
 C1705 C -0.05688 0.71845 0.21614
 C1706 C -0.04908 0.71251 0.22658
 C1707 C -0.03959 0.72030 0.23386
 C1708 C -0.03766 0.73411 0.23067
 C1709 C -0.04493 0.73993 0.21985
 C1710 C -0.05437 0.73215 0.21254
 H1711 H -0.11694 0.71288 0.17624
 H1712 H -0.09725 0.72480 0.18569
 H1713 H -0.08722 0.68919 0.20963
 H1714 H -0.10667 0.67718 0.19998
 H1715 H -0.08007 0.72684 0.20379
 H1716 H -0.06668 0.69924 0.20990
 H1717 H -0.05072 0.70196 0.22946
 H1718 H -0.03412 0.71571 0.24228
 H1719 H -0.04349 0.75059 0.21727
 H1720 H -0.05973 0.73696 0.20420
 C1721 C -0.10963 0.18394 0.70716
 C1722 C -0.09829 0.18928 0.71400
 C1723 C -0.08957 0.19870 0.70763
 C1724 C -0.09253 0.20281 0.69426
 C1725 C -0.10393 0.19753 0.68744
 C1726 C -0.11263 0.18804 0.69382
 C1727 C -0.07810 0.20460 0.71556
 C1728 C -0.06682 0.21009 0.70997
 C1729 C -0.05599 0.21700 0.71803
 C1730 C -0.04789 0.22702 0.71172
 C1731 C -0.03840 0.23461 0.71923
 C1732 C -0.03676 0.23216 0.73314
 C1733 C -0.04434 0.22174 0.73936
 C1734 C -0.05378 0.21413 0.73187
 H1735 H -0.11617 0.17680 0.71246
 H1736 H -0.09635 0.18608 0.72435
 H1737 H -0.08634 0.21038 0.68913
 H1738 H -0.10592 0.20092 0.67718
 H1739 H -0.07925 0.20452 0.72647
 H1740 H -0.06570 0.21019 0.69906
 H1741 H -0.04927 0.22934 0.70106
 H1742 H -0.03269 0.24270 0.71431
 H1743 H -0.04314 0.21972 0.75011
 H1744 H -0.05937 0.20613 0.73702
 C1745 C 0.29422 0.38948 0.31474
 C1746 C 0.28770 0.40079 0.30899
 C1747 C 0.29464 0.40926 0.29980
 C1748 C 0.30824 0.40603 0.29627
 C1749 C 0.31474 0.39463 0.30196
 C1750 C 0.30782 0.38625 0.31129
 C1751 C 0.28702 0.42081 0.29364
 C1752 C 0.29298 0.43189 0.28819
 C1753 C 0.28501 0.44287 0.28141
 C1754 C 0.29129 0.45056 0.27110
 C1755 C 0.28372 0.46009 0.26362
 C1756 C 0.26980 0.46217 0.26646
 C1757 C 0.26366 0.45505 0.27718
 C1758 C 0.27122 0.44559 0.28470
 H1759 H 0.28847 0.38315 0.32171
 H1760 H 0.27716 0.40292 0.31173
 H1761 H 0.31380 0.41204 0.28890
 H1762 H 0.32520 0.39243 0.29904
 H1763 H 0.27596 0.41997 0.29361
 H1764 H 0.30404 0.43273 0.28805
 H1765 H 0.30192 0.44877 0.26845
 H1766 H 0.28854 0.46543 0.25526
 H1767 H 0.25291 0.45656 0.27947
 H1768 H 0.26615 0.44033 0.29294
 C1769 C 0.31555 -0.10886 0.79542
 C1770 C 0.31017 -0.09727 0.78909
 C1771 C 0.30019 -0.08930 0.79551
 C1772 C 0.29562 -0.09319 0.80848
 C1773 C 0.30093 -0.10484 0.81481
 C1774 C 0.31093 -0.11296 0.80834
 C1775 C 0.29416 -0.07768 0.78793
 C1776 C 0.28787 -0.06702 0.79378
 C1777 C 0.28079 -0.05622 0.78587
 C1778 C 0.26989 -0.04909 0.79193
 C1779 C 0.26206 -0.03983 0.78437
 C1780 C 0.26515 -0.03744 0.77070
 C1781 C 0.27643 -0.04396 0.76480
 C1782 C 0.28429 -0.05318 0.77233
 H1783 H 0.32318 -0.11463 0.78993
 H1784 H 0.31378 -0.09458 0.77904
 H1785 H 0.28764 -0.08754 0.81362
 H1786 H 0.29699 -0.10748 0.82472
 H1787 H 0.29479 -0.07823 0.77699
 H1788 H 0.28717 -0.06650 0.80472
 H1789 H 0.26709 -0.05111 0.80237
 H1790 H 0.25333 -0.03487 0.78904
 H1791 H 0.27895 -0.04213 0.75425
 H1792 H 0.29296 -0.05796 0.76744
 C1793 C 0.81807 0.39497 0.80004
 C1794 C 0.81289 0.40684 0.79414
 C1795 C 0.80073 0.41281 0.79884
 C1796 C 0.79394 0.40667 0.80988
 C1797 C 0.79918 0.39477 0.81589
 C1798 C 0.81127 0.38861 0.81097
 C1799 C 0.79548 0.42496 0.79140
 C1800 C 0.78387 0.43174 0.79425
 C1801 C 0.77845 0.44274 0.78533
 C1802 C 0.76977 0.45278 0.79078
 C1803 C 0.76361 0.46255 0.78235
 C1804 C 0.76599 0.46239 0.76831
 C1805 C 0.77480 0.45250 0.76288
 C1806 C 0.78094 0.44276 0.77126
 H1807 H 0.82745 0.39090 0.79587
 H1808 H 0.81838 0.41129 0.78567
 H1809 H 0.78451 0.41081 0.81387
 H1810 H 0.79354 0.39033 0.82425
 H1811 H 0.80155 0.42838 0.78286
 H1812 H 0.77798 0.42925 0.80319
 H1813 H 0.76755 0.45290 0.80154
 H1814 H 0.75659 0.46992 0.78669
 H1815 H 0.77650 0.45200 0.75203
 H1816 H 0.78710 0.43491 0.76654
 C1817 C 0.81430 -0.10639 0.30187
 C1818 C 0.80817 -0.09446 0.29686
 C1819 C 0.79738 -0.08816 0.30398
 C1820 C 0.79297 -0.09405 0.31618
 C1821 C 0.79900 -0.10596 0.32115
 C1822 C 0.80973 -0.11242 0.31406
 C1823 C 0.78978 -0.07606 0.29885
 C1824 C 0.79345 -0.06849 0.28809
 C1825 C 0.78465 -0.05750 0.28237
 C1826 C 0.79051 -0.04780 0.27360
 C1827 C 0.78229 -0.03817 0.26693
 C1828 C 0.76805 -0.03808 0.26895
 C1829 C 0.76220 -0.04750 0.27795
 C1830 C 0.77036 -0.05714 0.28455
 H1831 H 0.82244 -0.11093 0.29597
 H1832 H 0.81178 -0.09050 0.28728
 H1833 H 0.78465 -0.08950 0.32187
 H1834 H 0.79508 -0.11000 0.33058
 H1835 H 0.78058 -0.07336 0.30435
 H1836 H 0.80315 -0.07032 0.28313
 H1837 H 0.80143 -0.04791 0.27161
 H1838 H 0.78694 -0.03115 0.25979
 H1839 H 0.75120 -0.04774 0.27942
 H1840 H 0.76526 -0.06466 0.29079
 C1841 C 0.29428 0.61019 0.68546
 C1842 C 0.28775 0.59896 0.69132
 C1843 C 0.29464 0.59060 0.70066
 C1844 C 0.30824 0.59386 0.70421
 C1845 C 0.31477 0.60517 0.69840
 C1846 C 0.30787 0.61345 0.68894
 C1847 C 0.28700 0.57912 0.70691
 C1848 C 0.29292 0.56818 0.71270
 C1849 C 0.28492 0.55723 0.71945
 C1850 C 0.29108 0.54968 0.72995
 C1851 C 0.28348 0.54009 0.73733
 C1852 C 0.26965 0.53782 0.73418
 C1853 C 0.26364 0.54485 0.72332
 C1854 C 0.27122 0.55436 0.71591
 H1855 H 0.28855 0.61642 0.67838
 H1856 H 0.27721 0.59681 0.68854
 H1857 H 0.31379 0.58794 0.71169
 H1858 H 0.32522 0.60739 0.70133
 H1859 H 0.27594 0.57989 0.70670
 H1860 H 0.30398 0.56741 0.71307
 H1861 H 0.30164 0.55158 0.73280
 H1862 H 0.28821 0.53482 0.74579
 H1863 H 0.25295 0.54319 0.72080
 H1864 H 0.26624 0.55951 0.70754
 C1865 C 0.30210 1.10406 0.18657
 C1866 C 0.29656 1.09285 0.19344
 C1867 C 0.30134 1.08931 0.20644
 C1868 C 0.31160 1.09726 0.21246
 C1869 C 0.31719 1.10841 0.20559
 C1870 C 0.31250 1.11197 0.19256
 C1871 C 0.29539 1.07794 0.21437
 C1872 C 0.28949 1.06696 0.20873
 C1873 C 0.28277 1.05620 0.21692
 C1874 C 0.27156 1.04916 0.21137
 C1875 C 0.26416 1.03986 0.21925
 C1876 C 0.26802 1.03737 0.23272
 C1877 C 0.27960 1.04384 0.23811
 C1878 C 0.28701 1.05311 0.23024
 H1879 H 0.29817 1.10652 0.17660
 H1880 H 0.28832 1.08724 0.18866
 H1881 H 0.31532 1.09484 0.22255
 H1882 H 0.32504 1.11430 0.21065
 H1883 H 0.29587 1.07881 0.22530
 H1884 H 0.28888 1.06610 0.19781
 H1885 H 0.26818 1.05128 0.20111
 H1886 H 0.25517 1.03496 0.21502
 H1887 H 0.28268 1.04195 0.24850
 H1888 H 0.29594 1.05792 0.23467
 C1889 C 0.81766 0.60931 0.20707
 C1890 C 0.81243 0.59801 0.21401
 C1891 C 0.80245 0.58966 0.20803
 C1892 C 0.79764 0.59294 0.19497
 C1893 C 0.80282 0.60428 0.18804
 C1894 C 0.81288 0.61262 0.19401
 C1895 C 0.79672 0.57821 0.21605
 C1896 C 0.79083 0.56717 0.21048
 C1897 C 0.78393 0.55639 0.21856
 C1898 C 0.77361 0.54858 0.21235
 C1899 C 0.76598 0.53918 0.21990
 C1900 C 0.76868 0.53736 0.23374
 C1901 C 0.77937 0.54464 0.23986
 C1902 C 0.78704 0.55399 0.23233
 H1903 H 0.82527 0.61555 0.21208
 H1904 H 0.81617 0.59582 0.22414
 H1905 H 0.78960 0.58705 0.19018
 H1906 H 0.79888 0.60649 0.17801
 H1907 H 0.79725 0.57917 0.22696
 H1908 H 0.79035 0.56625 0.19955
 H1909 H 0.77109 0.55014 0.20176
 H1910 H 0.75766 0.53370 0.21508
 H1911 H 0.78156 0.54328 0.25055
 H1912 H 0.79526 0.55937 0.23739
 C1913 C 0.79468 1.10819 0.68065
 C1914 C 0.78781 1.09692 0.68604
 C1915 C 0.79288 1.09017 0.69755
 C1916 C 0.80497 1.09501 0.70366
 C1917 C 0.81182 1.10634 0.69831
 C1918 C 0.80673 1.11314 0.68677
 C1919 C 0.78477 1.07881 0.70339
 C1920 C 0.79026 1.06872 0.71087
 C1921 C 0.78210 1.05796 0.71781
 C1922 C 0.78854 1.05003 0.72788
 C1923 C 0.78105 1.04061 0.73554
 C1924 C 0.76698 1.03891 0.73321
 C1925 C 0.76059 1.04636 0.72285
 C1926 C 0.76807 1.05569 0.71511
 H1927 H 0.79038 1.11306 0.67177
 H1928 H 0.77844 1.09348 0.68122
 H1929 H 0.80896 1.09036 0.71282
 H1930 H 0.82100 1.10984 0.70339
 H1931 H 0.77388 1.07905 0.70140
 H1932 H 0.80125 1.06857 0.71247
 H1933 H 0.79932 1.05145 0.73012
 H1934 H 0.78610 1.03499 0.74359
 H1935 H 0.74971 1.04515 0.72096
 H1936 H 0.76268 1.06113 0.70720
 C1937 C 0.70570 0.61129 0.31133
 C1938 C 0.71215 0.60013 0.30537
 C1939 C 0.70481 0.59112 0.29705
 C1940 C 0.69082 0.59373 0.29454
 C1941 C 0.68436 0.60503 0.30047
 C1942 C 0.69171 0.61386 0.30902
 C1943 C 0.71239 0.57952 0.29100
 C1944 C 0.70659 0.56819 0.28594
 C1945 C 0.71492 0.55702 0.28003
 C1946 C 0.70953 0.54925 0.26932
 C1947 C 0.71770 0.53958 0.26269
 C1948 C 0.73130 0.53745 0.26683
 C1949 C 0.73646 0.54465 0.27797
 C1950 C 0.72832 0.55423 0.28463
 H1951 H 0.71177 0.61799 0.31765
 H1952 H 0.72296 0.59849 0.30733
 H1953 H 0.68488 0.58726 0.28789
 H1954 H 0.67358 0.60675 0.29846
 H1955 H 0.72345 0.58042 0.29087
 H1956 H 0.69555 0.56719 0.28561
 H1957 H 0.69919 0.55109 0.26570
 H1958 H 0.71361 0.53416 0.25402
 H1959 H 0.74695 0.54310 0.28127
 H1960 H 0.73262 0.55956 0.29323
 C1961 C 0.68270 1.10964 0.79587
 C1962 C 0.68828 1.09833 0.78929
 C1963 C 0.69915 1.09101 0.79508
 C1964 C 0.70452 1.09537 0.80758
 C1965 C 0.69904 1.10679 0.81414
 C1966 C 0.68800 1.11413 0.80840
 C1967 C 0.70502 1.07946 0.78735
 C1968 C 0.71182 1.06900 0.79303
 C1969 C 0.71829 1.05797 0.78496
 C1970 C 0.72952 1.05089 0.79049
 C1971 C 0.73669 1.04133 0.78273
 C1972 C 0.73262 1.03861 0.76937
 C1973 C 0.72102 1.04510 0.76403
 C1974 C 0.71381 1.05460 0.77178
 H1975 H 0.67435 1.11488 0.79087
 H1976 H 0.68407 1.09529 0.77958
 H1977 H 0.71319 1.09024 0.81217
 H1978 H 0.70354 1.10978 0.82371
 H1979 H 0.70363 1.07978 0.77647
 H1980 H 0.71328 1.06875 0.80391
 H1981 H 0.73308 1.05318 0.80065
 H1982 H 0.74571 1.03644 0.78693
 H1983 H 0.71778 1.04305 0.75372
 H1984 H 0.70487 1.05936 0.76732
 C1985 C 0.18864 0.61129 0.79490
 C1986 C 0.19442 0.60006 0.78840
 C1987 C 0.20297 0.59100 0.79547
 C1988 C 0.20586 0.59358 0.80923
 C1989 C 0.20012 0.60493 0.81574
 C1990 C 0.19138 0.61386 0.80866
 C1991 C 0.20905 0.57947 0.78785
 C1992 C 0.21408 0.56805 0.79353
 C1993 C 0.22041 0.55703 0.78536
 C1994 C 0.23083 0.54899 0.79114
 C1995 C 0.23789 0.53941 0.78328
 C1996 C 0.23451 0.53766 0.76957
 C1997 C 0.22367 0.54514 0.76394
 C1998 C 0.21656 0.55463 0.77179
 H1999 H 0.18216 0.61805 0.78903
 H2000 H 0.19218 0.59843 0.77776
 H2001 H 0.21272 0.58708 0.81495
 H2002 H 0.20247 0.60665 0.82634
 H2003 H 0.20931 0.58056 0.77693
 H2004 H 0.21414 0.56690 0.80445
 H2005 H 0.23388 0.55052 0.80160
 H2006 H 0.24633 0.53376 0.78772
 H2007 H 0.22097 0.54387 0.75336
 H2008 H 0.20819 0.56017 0.76712
 C2009 C 0.18305 1.10965 0.29282
 C2010 C 0.18842 1.09833 0.28606
 C2011 C 0.19783 1.08963 0.29251
 C2012 C 0.20191 1.09260 0.30588
 C2013 C 0.19659 1.10397 0.31262
 C2014 C 0.18712 1.11265 0.30617
 C2015 C 0.20379 1.07820 0.28465
 C2016 C 0.20942 1.06705 0.29030
 C2017 C 0.21647 1.05634 0.28229
 C2018 C 0.22677 1.04853 0.28858
 C2019 C 0.23451 1.03919 0.28108
 C2020 C 0.23195 1.03743 0.26721
 C2021 C 0.22129 1.04474 0.26101
 C2022 C 0.21351 1.05402 0.26850
 H2023 H 0.17593 1.11618 0.28745
 H2024 H 0.18526 1.09638 0.27571
 H2025 H 0.20948 1.08644 0.31107
 H2026 H 0.19996 1.10595 0.32289
 H2027 H 0.20368 1.07929 0.27373
 H2028 H 0.20957 1.06597 0.30123
 H2029 H 0.22918 1.05003 0.29920
 H2030 H 0.24281 1.03370 0.28597
 H2031 H 0.21920 1.04345 0.25030
 H2032 H 0.20532 1.05940 0.26338
 C2033 C 0.68850 0.38919 0.70475
 C2034 C 0.69420 0.40039 0.71138
 C2035 C 0.70265 0.40960 0.70442
 C2036 C 0.70558 0.40717 0.69064
 C2037 C 0.69993 0.39583 0.68400
 C2038 C 0.69123 0.38679 0.69097
 C2039 C 0.70851 0.42117 0.71218
 C2040 C 0.71328 0.43276 0.70666
 C2041 C 0.71912 0.44390 0.71507
 C2042 C 0.71479 0.44615 0.72851
 C2043 C 0.72145 0.45573 0.73664
 C2044 C 0.73234 0.46343 0.73143
 C2045 C 0.73614 0.46186 0.71781
 C2046 C 0.72951 0.45221 0.70965
 H2047 H 0.68207 0.38232 0.71053
 H2048 H 0.69192 0.40189 0.72203
 H2049 H 0.71236 0.41381 0.68502
 H2050 H 0.70228 0.39423 0.67339
 H2051 H 0.70872 0.41999 0.72310
 H2052 H 0.71345 0.43401 0.69576
 H2053 H 0.70642 0.44040 0.73287
 H2054 H 0.71841 0.45686 0.74714
 H2055 H 0.74462 0.46768 0.71369
 H2056 H 0.73291 0.45080 0.69929
 C2057 C 0.70392 -0.10862 0.18450
 C2058 C 0.71016 -0.09695 0.18973
 C2059 C 0.70372 -0.08916 0.19980
 C2060 C 0.69083 -0.09344 0.20467
 C2061 C 0.68458 -0.10519 0.19944
 C2062 C 0.69101 -0.11283 0.18921
 C2063 C 0.71098 -0.07679 0.20475
 C2064 C 0.70750 -0.06959 0.21581
 C2065 C 0.71600 -0.05825 0.22123
 C2066 C 0.71006 -0.04894 0.23034
 C2067 C 0.71809 -0.03902 0.23677
 C2068 C 0.73221 -0.03828 0.23420
 C2069 C 0.73811 -0.04729 0.22486
 C2070 C 0.73014 -0.05719 0.21846
 H2071 H 0.70932 -0.11435 0.17680
 H2072 H 0.72015 -0.09404 0.18588
 H2073 H 0.68537 -0.08776 0.21233
 H2074 H 0.67459 -0.10811 0.20323
 H2075 H 0.71989 -0.07371 0.19900
 H2076 H 0.69836 -0.07217 0.22142
 H2077 H 0.69925 -0.04961 0.23280
 H2078 H 0.71343 -0.03234 0.24420
 H2079 H 0.74906 -0.04705 0.22299
 H2080 H 0.73532 -0.06438 0.21193
 C2081 C 0.20439 0.39352 0.17790
 C2082 C 0.21088 0.40523 0.18278
 C2083 C 0.20688 0.41112 0.19511
 C2084 C 0.19621 0.40496 0.20253
 C2085 C 0.18970 0.39324 0.19764
 C2086 C 0.19375 0.38733 0.18528
 C2087 C 0.21475 0.42303 0.20020
 C2088 C 0.21058 0.43117 0.21033
 C2089 C 0.21929 0.44203 0.21634
 C2090 C 0.21309 0.45198 0.22457
 C2091 C 0.22108 0.46154 0.23153
 C2092 C 0.23540 0.46137 0.23031
 C2093 C 0.24161 0.45165 0.22189
 C2094 C 0.23367 0.44205 0.21501
 H2095 H 0.20782 0.38936 0.16833
 H2096 H 0.21916 0.40965 0.17691
 H2097 H 0.19305 0.40886 0.21229
 H2098 H 0.18167 0.38872 0.20372
 H2099 H 0.22440 0.42511 0.19522
 H2100 H 0.20042 0.42992 0.21452
 H2101 H 0.20207 0.45212 0.22591
 H2102 H 0.21613 0.46877 0.23824
 H2103 H 0.25268 0.45119 0.22106
 H2104 H 0.23899 0.43433 0.20922
 C2105 C 0.20398 -0.10797 0.68506
 C2106 C 0.21050 -0.09696 0.69127
 C2107 C 0.20422 -0.09000 0.70199
 C2108 C 0.19128 -0.09439 0.70654
 C2109 C 0.18478 -0.10554 0.70038
 C2110 C 0.19105 -0.11248 0.68955
 C2111 C 0.21186 -0.07878 0.70859
 C2112 C 0.20586 -0.06795 0.71439
 C2113 C 0.21384 -0.05704 0.72120
 C2114 C 0.20792 -0.04997 0.73211
 C2115 C 0.21559 -0.04045 0.73948
 C2116 C 0.22924 -0.03777 0.73593
 C2117 C 0.23499 -0.04431 0.72467
 C2118 C 0.22733 -0.05377 0.71726
 H2119 H 0.20926 -0.11300 0.67684
 H2120 H 0.22051 -0.09383 0.68767
 H2121 H 0.18634 -0.08948 0.71507
 H2122 H 0.17489 -0.10873 0.70420
 H2123 H 0.22294 -0.07955 0.70847
 H2124 H 0.19478 -0.06725 0.71463
 H2125 H 0.19752 -0.05222 0.73525
 H2126 H 0.21105 -0.03553 0.74822
 H2127 H 0.24554 -0.04231 0.72181
 H2128 H 0.23206 -0.05856 0.70857
 C2129 C 0.31414 0.29282 0.39024
 C2130 C 0.30853 0.28612 0.40141
 C2131 C 0.29946 0.29288 0.41014
 C2132 C 0.29590 0.30653 0.40731
 C2133 C 0.30147 0.31323 0.39603
 C2134 C 0.31071 0.30646 0.38741
 C2135 C 0.29350 0.28504 0.42156
 C2136 C 0.28801 0.29065 0.43272
 C2137 C 0.28161 0.28232 0.44358
 C2138 C 0.27100 0.28801 0.45136
 C2139 C 0.26390 0.28003 0.46081
 C2140 C 0.26744 0.26629 0.46271
 C2141 C 0.27844 0.26074 0.45546
 C2142 C 0.28558 0.26871 0.44609
 H2143 H 0.32101 0.28718 0.38371
 H2144 H 0.31128 0.27556 0.40324
 H2145 H 0.28862 0.31198 0.41354
 H2146 H 0.29855 0.32372 0.39412
 H2147 H 0.29367 0.27404 0.42057
 H2148 H 0.28758 0.30163 0.43375
 H2149 H 0.26783 0.29849 0.44973
 H2150 H 0.25532 0.28441 0.46627
 H2151 H 0.28127 0.25014 0.45684
 H2152 H 0.29408 0.26410 0.44075
 C2153 C 0.29422 0.81412 -0.10949
 C2154 C 0.28773 0.80828 -0.09828
 C2155 C 0.29466 0.79895 -0.08993
 C2156 C 0.30828 0.79542 -0.09315
 C2157 C 0.31476 0.80121 -0.10445
 C2158 C 0.30781 0.81065 -0.11275
 C2159 C 0.28702 0.79265 -0.07852
 C2160 C 0.29293 0.78690 -0.06760
 C2161 C 0.28494 0.78010 -0.05668
 C2162 C 0.29125 0.76981 -0.04891
 C2163 C 0.28371 0.76238 -0.03934
 C2164 C 0.26978 0.76524 -0.03730
 C2165 C 0.26361 0.77594 -0.04453
 C2166 C 0.27113 0.78340 -0.05404
 H2167 H 0.28845 0.82118 -0.11573
 H2168 H 0.27720 0.81106 -0.09614
 H2169 H 0.31386 0.78797 -0.08722
 H2170 H 0.32522 0.79829 -0.10666
 H2171 H 0.27596 0.79278 -0.07935
 H2172 H 0.30399 0.78661 -0.06679
 H2173 H 0.30189 0.76717 -0.05063
 H2174 H 0.28858 0.75407 -0.03391
 H2175 H 0.25286 0.77827 -0.04303
 H2176 H 0.26601 0.79162 -0.05934
 C2177 C 0.81357 0.29407 -0.11071
 C2178 C 0.80795 0.28739 -0.09950
 C2179 C 0.79890 0.29417 -0.09076
 C2180 C 0.79541 0.30783 -0.09360
 C2181 C 0.80098 0.31451 -0.10491
 C2182 C 0.81017 0.30771 -0.11357
 C2183 C 0.79297 0.28631 -0.07929
 C2184 C 0.78741 0.29188 -0.06813
 C2185 C 0.78127 0.28352 -0.05711
 C2186 C 0.77077 0.28915 -0.04912
 C2187 C 0.76396 0.28116 -0.03944
 C2188 C 0.76768 0.26747 -0.03751
 C2189 C 0.77861 0.26201 -0.04494
 C2190 C 0.78545 0.26998 -0.05456
 H2191 H 0.82043 0.28840 -0.11722
 H2192 H 0.81072 0.27683 -0.09766
 H2193 H 0.78819 0.31333 -0.08733
 H2194 H 0.79813 0.32502 -0.10682
 H2195 H 0.79330 0.27531 -0.08022
 H2196 H 0.78680 0.30286 -0.06718
 H2197 H 0.76746 0.29958 -0.05075
 H2198 H 0.75545 0.28548 -0.03385
 H2199 H 0.78160 0.25145 -0.04355
 H2200 H 0.79388 0.26541 -0.06004
 C2201 C 0.81412 0.79302 0.39080
 C2202 C 0.80865 0.78653 0.40216
 C2203 C 0.79969 0.79345 0.41088
 C2204 C 0.79609 0.80704 0.40784
 C2205 C 0.80153 0.81354 0.39640
 C2206 C 0.81065 0.80661 0.38778
 C2207 C 0.79388 0.78585 0.42251
 C2208 C 0.78850 0.79171 0.43358
 C2209 C 0.78210 0.78362 0.44459
 C2210 C 0.77131 0.78939 0.45206
 C2211 C 0.76412 0.78155 0.46155
 C2212 C 0.76777 0.76789 0.46378
 C2213 C 0.77897 0.76230 0.45689
 C2214 C 0.78619 0.77012 0.44747
 H2215 H 0.82092 0.78727 0.38430
 H2216 H 0.81143 0.77600 0.40415
 H2217 H 0.78888 0.81261 0.41405
 H2218 H 0.79859 0.82399 0.39436
 H2219 H 0.79403 0.77483 0.42175
 H2220 H 0.78809 0.80271 0.43440
 H2221 H 0.76806 0.79979 0.45013
 H2222 H 0.75540 0.78594 0.46676
 H2223 H 0.78188 0.75175 0.45855
 H2224 H 0.79482 0.76549 0.44234
 C2225 C 0.68612 0.29415 0.61032
 C2226 C 0.69175 0.28743 0.59916
 C2227 C 0.70077 0.29419 0.59036
 C2228 C 0.70426 0.30786 0.59311
 C2229 C 0.69868 0.31458 0.60437
 C2230 C 0.68949 0.30781 0.61307
 C2231 C 0.70669 0.28634 0.57892
 C2232 C 0.71199 0.29195 0.56764
 C2233 C 0.71823 0.28366 0.55665
 C2234 C 0.72853 0.28949 0.54853
 C2235 C 0.73548 0.28160 0.53890
 C2236 C 0.73210 0.26780 0.53714
 C2237 C 0.72137 0.26213 0.54471
 C2238 C 0.71439 0.27000 0.55428
 H2239 H 0.67927 0.28850 0.61688
 H2240 H 0.68902 0.27686 0.59740
 H2241 H 0.71149 0.31332 0.58682
 H2242 H 0.70154 0.32509 0.60622
 H2243 H 0.70659 0.27535 0.57997
 H2244 H 0.71232 0.30293 0.56657
 H2245 H 0.73157 0.30001 0.55002
 H2246 H 0.74384 0.28608 0.53322
 H2247 H 0.71865 0.25149 0.54345
 H2248 H 0.70612 0.26527 0.55988
 C2249 C 0.70510 0.81600 1.10851
 C2250 C 0.71172 0.81046 1.09724
 C2251 C 0.70575 0.79973 1.08991
 C2252 C 0.69307 0.79445 1.09425
 C2253 C 0.68652 0.79987 1.10566
 C2254 C 0.69242 0.81077 1.11284
 C2255 C 0.71349 0.79378 1.07845
 C2256 C 0.70757 0.78755 1.06782
 C2257 C 0.71551 0.78083 1.05684
 C2258 C 0.70918 0.77052 1.04917
 C2259 C 0.71666 0.76310 1.03958
 C2260 C 0.73056 0.76598 1.03744
 C2261 C 0.73675 0.77670 1.04454
 C2262 C 0.72929 0.78416 1.05406
 H2263 H 0.71005 0.82420 1.11398
 H2264 H 0.72157 0.81457 1.09421
 H2265 H 0.68835 0.78592 1.08909
 H2266 H 0.67680 0.79559 1.10881
 H2267 H 0.72453 0.79458 1.07900
 H2268 H 0.69650 0.78681 1.06737
 H2269 H 0.69856 0.76785 1.05097
 H2270 H 0.71176 0.75479 1.03419
 H2271 H 0.74748 0.77907 1.04293
 H2272 H 0.73445 0.79239 1.05927
 C2273 C 0.18404 0.29186 1.10919
 C2274 C 0.18943 0.28518 1.09788
 C2275 C 0.19885 0.29176 1.08934
 C2276 C 0.20292 0.30517 1.09246
 C2277 C 0.19757 0.31183 1.10381
 C2278 C 0.18807 0.30526 1.11232
 C2279 C 0.20477 0.28398 1.07787
 C2280 C 0.21056 0.28978 1.06694
 C2281 C 0.21748 0.28179 1.05617
 C2282 C 0.22799 0.28800 1.04863
 C2283 C 0.23559 0.28045 1.03924
 C2284 C 0.23266 0.26662 1.03716
 C2285 C 0.22178 0.26052 1.04417
 C2286 C 0.21416 0.26805 1.05352
 H2287 H 0.17690 0.28639 1.11560
 H2288 H 0.18627 0.27479 1.09583
 H2289 H 0.21049 0.31047 1.08642
 H2290 H 0.20094 0.32214 1.10588
 H2291 H 0.20447 0.27298 1.07873
 H2292 H 0.21094 0.30079 1.06608
 H2293 H 0.23068 0.29858 1.05039
 H2294 H 0.24405 0.28525 1.03396
 H2295 H 0.21942 0.24983 1.04263
 H2296 H 0.20580 0.26301 1.05869
 C2297 C 0.20664 0.81326 0.60916
 C2298 C 0.21310 0.80759 0.59787
 C2299 C 0.20602 0.79869 0.58921
 C2300 C 0.19232 0.79536 0.59224
 C2301 C 0.18586 0.80098 0.60362
 C2302 C 0.19294 0.81004 0.61218
 C2303 C 0.21361 0.79266 0.57764
 C2304 C 0.20769 0.78729 0.56657
 C2305 C 0.21574 0.78080 0.55555
 C2306 C 0.20967 0.77039 0.54781
 C2307 C 0.21739 0.76316 0.53824
 C2308 C 0.23123 0.76638 0.53618
 C2309 C 0.23712 0.77723 0.54333
 C2310 C 0.22943 0.78449 0.55284
 H2311 H 0.21250 0.82000 0.61562
 H2312 H 0.22371 0.81017 0.59590
 H2313 H 0.18661 0.78823 0.58606
 H2314 H 0.17531 0.79825 0.60567
 H2315 H 0.22467 0.79268 0.57846
 H2316 H 0.19663 0.78704 0.56572
 H2317 H 0.19911 0.76746 0.54957
 H2318 H 0.21273 0.75473 0.53284
 H2319 H 0.24781 0.77984 0.54181
 H2320 H 0.23433 0.79283 0.55812
 C2321 C 0.31404 0.70631 0.60929
 C2322 C 0.30843 0.71282 0.59797
 C2323 C 0.29941 0.70589 0.58929
 C2324 C 0.29592 0.69228 0.59232
 C2325 C 0.30148 0.68577 0.60373
 C2326 C 0.31064 0.69271 0.61232
 C2327 C 0.29341 0.71354 0.57774
 C2328 C 0.28799 0.70772 0.56664
 C2329 C 0.28145 0.71579 0.55565
 C2330 C 0.27103 0.70976 0.54784
 C2331 C 0.26376 0.71746 0.53828
 C2332 C 0.26693 0.73127 0.53628
 C2333 C 0.27777 0.73716 0.54352
 C2334 C 0.28508 0.72947 0.55303
 H2335 H 0.32086 0.71207 0.61577
 H2336 H 0.31114 0.72336 0.59599
 H2337 H 0.28869 0.68670 0.58613
 H2338 H 0.29860 0.67531 0.60578
 H2339 H 0.29347 0.72454 0.57859
 H2340 H 0.28771 0.69672 0.56577
 H2341 H 0.26814 0.69922 0.54955
 H2342 H 0.25532 0.71283 0.53282
 H2343 H 0.28033 0.74782 0.54205
 H2344 H 0.29341 0.73436 0.55838
 C2345 C 0.29397 0.18510 1.11042
 C2346 C 0.28731 0.19070 1.09917
 C2347 C 0.29418 0.19970 1.09043
 C2348 C 0.30787 0.20319 1.09334
 C2349 C 0.31452 0.19765 1.10467
 C2350 C 0.30765 0.18850 1.11331
 C2351 C 0.28644 0.20563 1.07889
 C2352 C 0.29225 0.21101 1.06775
 C2353 C 0.28412 0.21745 1.05672
 C2354 C 0.29016 0.22779 1.04885
 C2355 C 0.28242 0.23494 1.03922
 C2356 C 0.26856 0.23171 1.03721
 C2357 C 0.26269 0.22093 1.04451
 C2358 C 0.27041 0.21376 1.05409
 H2359 H 0.28827 0.17827 1.11696
 H2360 H 0.27670 0.18799 1.09730
 H2361 H 0.31342 0.21041 1.08712
 H2362 H 0.32506 0.20051 1.10662
 H2363 H 0.27538 0.20554 1.07977
 H2364 H 0.30330 0.21131 1.06685
 H2365 H 0.30073 0.23073 1.05056
 H2366 H 0.28705 0.24334 1.03372
 H2367 H 0.25200 0.21832 1.04304
 H2368 H 0.26553 0.20547 1.05950
 C2369 C 0.79195 0.68282 1.10978
 C2370 C 0.78519 0.68807 1.09841
 C2371 C 0.79173 0.69742 1.08978
 C2372 C 0.80520 0.70155 1.09285
 C2373 C 0.81194 0.69635 1.10428
 C2374 C 0.80539 0.68693 1.11288
 C2375 C 0.78382 0.70317 1.07826
 C2376 C 0.78952 0.70889 1.06723
 C2377 C 0.78130 0.71550 1.05639
 C2378 C 0.78724 0.72609 1.04876
 C2379 C 0.77941 0.73343 1.03935
 C2380 C 0.76557 0.73016 1.03731
 C2381 C 0.75978 0.71917 1.04438
 C2382 C 0.76759 0.71180 1.05374
 H2383 H 0.78650 0.67573 1.11624
 H2384 H 0.77477 0.68484 1.09638
 H2385 H 0.81047 0.70905 1.08672
 H2386 H 0.82229 0.69974 1.10633
 H2387 H 0.77278 0.70277 1.07913
 H2388 H 0.80057 0.70943 1.06635
 H2389 H 0.79780 0.72904 1.05049
 H2390 H 0.78397 0.74197 1.03402
 H2391 H 0.74910 0.71652 1.04286
 H2392 H 0.76279 0.70335 1.05896
 C2393 C 0.81641 0.20793 0.60956
 C2394 C 0.81096 0.21454 0.59820
 C2395 C 0.80160 0.20786 0.58967
 C2396 C 0.79766 0.19442 0.59285
 C2397 C 0.80306 0.18783 0.60426
 C2398 C 0.81248 0.19451 0.61277
 C2399 C 0.79561 0.21557 0.57814
 C2400 C 0.78994 0.20969 0.56718
 C2401 C 0.78300 0.21762 0.55632
 C2402 C 0.77257 0.21131 0.54875
 C2403 C 0.76494 0.21879 0.53929
 C2404 C 0.76776 0.23265 0.53716
 C2405 C 0.77859 0.23882 0.54418
 C2406 C 0.78625 0.23136 0.55360
 H2407 H 0.82351 0.21347 0.61594
 H2408 H 0.81404 0.22495 0.59608
 H2409 H 0.79015 0.18904 0.58681
 H2410 H 0.79979 0.17750 0.60638
 H2411 H 0.79576 0.22657 0.57895
 H2412 H 0.78968 0.19869 0.56637
 H2413 H 0.76996 0.20071 0.55054
 H2414 H 0.75652 0.21393 0.53399
 H2415 H 0.78089 0.24952 0.54260
 H2416 H 0.79456 0.23646 0.55878
 C2417 C 0.70674 0.68575 0.39111
 C2418 C 0.71331 0.69131 0.40240
 C2419 C 0.70641 0.70038 0.41101
 C2420 C 0.69277 0.70397 0.40795
 C2421 C 0.68620 0.69845 0.39657
 C2422 C 0.69311 0.68925 0.38804
 C2423 C 0.71413 0.70632 0.42254
 C2424 C 0.70832 0.71192 0.43354
 C2425 C 0.71650 0.71836 0.44450
 C2426 C 0.71066 0.72902 0.45207
 C2427 C 0.71851 0.73617 0.46158
 C2428 C 0.73227 0.73264 0.46376
 C2429 C 0.73794 0.72157 0.45676
 C2430 C 0.73010 0.71439 0.44731
 H2431 H 0.71249 0.67888 0.38468
 H2432 H 0.72387 0.68850 0.40441
 H2433 H 0.68721 0.71124 0.41408
 H2434 H 0.67571 0.70139 0.39451
 H2435 H 0.72519 0.70606 0.42175
 H2436 H 0.69727 0.71244 0.43436
 H2437 H 0.70017 0.73217 0.45022
 H2438 H 0.71404 0.74478 0.46686
 H2439 H 0.74855 0.71873 0.45838
 H2440 H 0.73481 0.70586 0.44215
 C2441 C 0.68863 0.20548 -0.11091
 C2442 C 0.69454 0.21191 -0.09975
 C2443 C 0.70292 0.20462 -0.09072
 C2444 C 0.70553 0.19072 -0.09327
 C2445 C 0.69966 0.18428 -0.10457
 C2446 C 0.69106 0.19158 -0.11343
 C2447 C 0.70903 0.21219 -0.07921
 C2448 C 0.71388 0.20643 -0.06782
 C2449 C 0.71996 0.21470 -0.05675
 C2450 C 0.73050 0.20910 -0.04876
 C2451 C 0.73733 0.21715 -0.03918
 C2452 C 0.73358 0.23084 -0.03736
 C2453 C 0.72257 0.23623 -0.04475
 C2454 C 0.71572 0.22821 -0.05427
 H2455 H 0.68229 0.21152 -0.11764
 H2456 H 0.69251 0.22266 -0.09813
 H2457 H 0.71224 0.18483 -0.08677
 H2458 H 0.70178 0.17357 -0.10627
 H2459 H 0.70939 0.22319 -0.08025
 H2460 H 0.71394 0.19545 -0.06669
 H2461 H 0.73384 0.19867 -0.05035
 H2462 H 0.74589 0.21288 -0.03358
 H2463 H 0.71955 0.24679 -0.04341
 H2464 H 0.70725 0.23271 -0.05978
 C2465 C 0.18584 0.70552 -0.10986
 C2466 C 0.19167 0.71202 -0.09867
 C2467 C 0.20082 0.70507 -0.09011
 C2468 C 0.20420 0.69144 -0.09312
 C2469 C 0.19843 0.68494 -0.10441
 C2470 C 0.18916 0.69190 -0.11290
 C2471 C 0.20709 0.71272 -0.07871
 C2472 C 0.21260 0.70687 -0.06763
 C2473 C 0.21936 0.71487 -0.05672
 C2474 C 0.22955 0.70857 -0.04878
 C2475 C 0.23697 0.71610 -0.03921
 C2476 C 0.23418 0.73001 -0.03732
 C2477 C 0.22358 0.73617 -0.04473
 C2478 C 0.21613 0.72866 -0.05424
 H2479 H 0.17893 0.71129 -0.11626
 H2480 H 0.18901 0.72257 -0.09669
 H2481 H 0.21152 0.68583 -0.08703
 H2482 H 0.20124 0.67446 -0.10646
 H2483 H 0.20714 0.72371 -0.07966
 H2484 H 0.21272 0.69587 -0.06669
 H2485 H 0.23214 0.69794 -0.05037
 H2486 H 0.24522 0.71124 -0.03365
 H2487 H 0.22130 0.74691 -0.04336
 H2488 H 0.20798 0.73377 -0.05968
 C2489 C 0.20733 0.18292 0.39006
 C2490 C 0.21401 0.18813 0.40146
 C2491 C 0.20739 0.19742 0.41007
 C2492 C 0.19393 0.20154 0.40692
 C2493 C 0.18726 0.19638 0.39546
 C2494 C 0.19388 0.18700 0.38689
 C2495 C 0.21519 0.20315 0.42164
 C2496 C 0.20936 0.20872 0.43265
 C2497 C 0.21741 0.21542 0.44355
 C2498 C 0.21118 0.22577 0.45123
 C2499 C 0.21880 0.23320 0.46071
 C2500 C 0.23271 0.23025 0.46274
 C2501 C 0.23880 0.21950 0.45561
 C2502 C 0.23120 0.21204 0.44618
 H2503 H 0.21284 0.17588 0.38361
 H2504 H 0.22443 0.18493 0.40355
 H2505 H 0.18861 0.20901 0.41303
 H2506 H 0.17692 0.19978 0.39335
 H2507 H 0.22624 0.20287 0.42081
 H2508 H 0.19830 0.20910 0.43348
 H2509 H 0.20055 0.22849 0.44950
 H2510 H 0.21400 0.24157 0.46608
 H2511 H 0.24955 0.21711 0.45712
 H2512 H 0.23625 0.20378 0.44090
 C2513 C 0.29374 0.38927 0.68878
 C2514 C 0.28739 0.40045 0.69484
 C2515 C 0.29487 0.40942 0.70308
 C2516 C 0.30887 0.40675 0.70543
 C2517 C 0.31522 0.39545 0.69943
 C2518 C 0.30774 0.38666 0.69094
 C2519 C 0.28745 0.42100 0.70931
 C2520 C 0.29340 0.43243 0.71394
 C2521 C 0.28531 0.44361 0.72014
 C2522 C 0.29121 0.45155 0.73046
 C2523 C 0.28334 0.46126 0.73737
 C2524 C 0.26954 0.46325 0.73391
 C2525 C 0.26384 0.45589 0.72313
 C2526 C 0.27168 0.44626 0.71620
 H2527 H 0.28758 0.38259 0.68252
 H2528 H 0.27657 0.40215 0.69301
 H2529 H 0.31490 0.41319 0.71203
 H2530 H 0.32601 0.39368 0.70133
 H2531 H 0.27641 0.42001 0.70994
 H2532 H 0.30444 0.43351 0.71370
 H2533 H 0.30173 0.44982 0.73357
 H2534 H 0.28784 0.46681 0.74576
 H2535 H 0.25318 0.45733 0.72036
 H2536 H 0.26696 0.44077 0.70790
 C2537 C 0.29352 0.89041 0.18557
 C2538 C 0.28703 0.90169 0.19134
 C2539 C 0.29402 0.91019 0.20044
 C2540 C 0.30770 0.90704 0.20383
 C2541 C 0.31419 0.89569 0.19810
 C2542 C 0.30718 0.88726 0.18888
 C2543 C 0.28641 0.92173 0.20659
 C2544 C 0.29232 0.93269 0.21229
 C2545 C 0.28425 0.94367 0.21889
 C2546 C 0.29021 0.95108 0.22957
 C2547 C 0.28248 0.96063 0.23683
 C2548 C 0.26873 0.96300 0.23338
 C2549 C 0.26296 0.95616 0.22231
 C2550 C 0.27067 0.94667 0.21502
 H2551 H 0.28770 0.88407 0.17869
 H2552 H 0.27644 0.90377 0.18869
 H2553 H 0.31334 0.91308 0.21111
 H2554 H 0.32471 0.89356 0.20089
 H2555 H 0.27534 0.92100 0.20638
 H2556 H 0.30337 0.93345 0.21274
 H2557 H 0.30069 0.94908 0.23265
 H2558 H 0.28703 0.96579 0.24543
 H2559 H 0.25235 0.95793 0.21953
 H2560 H 0.26589 0.94163 0.20649
 C2561 C 0.79416 0.38928 0.18875
 C2562 C 0.78769 0.40042 0.19474
 C2563 C 0.79500 0.40939 0.20312
 C2564 C 0.80899 0.40679 0.20564
 C2565 C 0.81547 0.39552 0.19968
 C2566 C 0.80814 0.38672 0.19107
 C2567 C 0.78739 0.42092 0.20925
 C2568 C 0.79316 0.43224 0.21435
 C2569 C 0.78481 0.44335 0.22034
 C2570 C 0.79023 0.45111 0.23105
 C2571 C 0.78208 0.46076 0.23772
 C2572 C 0.76846 0.46287 0.23364
 C2573 C 0.76326 0.45569 0.22251
 C2574 C 0.77139 0.44612 0.21581
 H2575 H 0.78810 0.38260 0.18240
 H2576 H 0.77688 0.40207 0.19276
 H2577 H 0.81491 0.41323 0.21233
 H2578 H 0.82625 0.39379 0.20170
 H2579 H 0.77633 0.41998 0.20940
 H2580 H 0.80420 0.43328 0.21464
 H2581 H 0.80058 0.44929 0.23462
 H2582 H 0.78619 0.46618 0.24638
 H2583 H 0.75276 0.45724 0.21924
 H2584 H 0.76705 0.44079 0.20721
 C2585 C 0.79287 0.89203 0.68592
 C2586 C 0.78635 0.90330 0.69167
 C2587 C 0.79327 0.91171 0.70090
 C2588 C 0.80687 0.90849 0.70446
 C2589 C 0.81339 0.89713 0.69877
 C2590 C 0.80647 0.88880 0.68941
 C2591 C 0.78563 0.92319 0.70707
 C2592 C 0.79156 0.93429 0.71245
 C2593 C 0.78354 0.94521 0.71916
 C2594 C 0.78964 0.95274 0.72968
 C2595 C 0.78196 0.96222 0.73706
 C2596 C 0.76811 0.96441 0.73390
 C2597 C 0.76217 0.95745 0.72298
 C2598 C 0.76984 0.94803 0.71558
 H2599 H 0.78712 0.88575 0.67893
 H2600 H 0.77581 0.90544 0.68889
 H2601 H 0.81242 0.91447 0.71186
 H2602 H 0.82385 0.89491 0.70172
 H2603 H 0.77458 0.92229 0.70717
 H2604 H 0.80262 0.93520 0.71256
 H2605 H 0.80020 0.95086 0.73254
 H2606 H 0.78663 0.96747 0.74555
 H2607 H 0.75149 0.95908 0.72043
 H2608 H 0.76493 0.94287 0.70718
 C2609 C 0.70608 0.61062 0.68561
 C2610 C 0.71281 0.59942 0.69131
 C2611 C 0.70611 0.59090 0.70063
 C2612 C 0.69251 0.59396 0.70431
 C2613 C 0.68579 0.60527 0.69867
 C2614 C 0.69249 0.61370 0.68921
 C2615 C 0.71398 0.57948 0.70671
 C2616 C 0.70830 0.56834 0.71232
 C2617 C 0.71658 0.55740 0.71882
 C2618 C 0.71066 0.54953 0.72921
 C2619 C 0.71850 0.53992 0.73631
 C2620 C 0.73233 0.53794 0.73301
 C2621 C 0.73812 0.54528 0.72225
 C2622 C 0.73029 0.55483 0.71511
 H2623 H 0.71168 0.61698 0.67855
 H2624 H 0.72334 0.59740 0.68842
 H2625 H 0.68711 0.58789 0.71175
 H2626 H 0.67534 0.60737 0.70170
 H2627 H 0.72503 0.58045 0.70651
 H2628 H 0.69726 0.56736 0.71272
 H2629 H 0.70010 0.55120 0.73217
 H2630 H 0.71394 0.53438 0.74468
 H2631 H 0.74879 0.54382 0.71959
 H2632 H 0.73509 0.56023 0.70680
 C2633 C 0.68601 0.10929 0.20590
 C2634 C 0.69159 0.09810 0.21274
 C2635 C 0.70084 0.08932 0.20624
 C2636 C 0.70460 0.09210 0.19274
 C2637 C 0.69908 0.10338 0.18590
 C2638 C 0.68969 0.11208 0.19239
 C2639 C 0.70677 0.07791 0.21422
 C2640 C 0.71226 0.06660 0.20879
 C2641 C 0.71858 0.05570 0.21720
 C2642 C 0.72914 0.04771 0.21164
 C2643 C 0.73613 0.03817 0.21966
 C2644 C 0.73254 0.03640 0.23332
 C2645 C 0.72158 0.04385 0.23872
 C2646 C 0.71455 0.05331 0.23072
 H2647 H 0.67899 0.11585 0.21133
 H2648 H 0.68865 0.09631 0.22319
 H2649 H 0.71201 0.08582 0.18749
 H2650 H 0.70216 0.10525 0.17552
 H2651 H 0.70656 0.07904 0.22513
 H2652 H 0.71271 0.06546 0.19789
 H2653 H 0.73234 0.04924 0.20123
 H2654 H 0.74466 0.03256 0.21539
 H2655 H 0.71870 0.04256 0.24926
 H2656 H 0.70609 0.05881 0.23522
 C2657 C 0.18909 0.61017 0.20438
 C2658 C 0.19487 0.59885 0.21080
 C2659 C 0.20338 0.58984 0.20366
 C2660 C 0.20620 0.59256 0.18991
 C2661 C 0.20047 0.60399 0.18348
 C2662 C 0.19178 0.61288 0.19063
 C2663 C 0.20943 0.57819 0.21121
 C2664 C 0.21459 0.56688 0.20547
 C2665 C 0.22084 0.55572 0.21361
 C2666 C 0.23137 0.54780 0.20790
 C2667 C 0.23836 0.53811 0.21576
 C2668 C 0.23478 0.53611 0.22939
 C2669 C 0.22379 0.54344 0.23490
 C2670 C 0.21678 0.55306 0.22706
 H2671 H 0.18266 0.61690 0.21030
 H2672 H 0.19266 0.59713 0.22143
 H2673 H 0.21301 0.58609 0.18412
 H2674 H 0.20277 0.60581 0.17289
 H2675 H 0.20957 0.57911 0.22215
 H2676 H 0.21481 0.56590 0.19455
 H2677 H 0.23458 0.54952 0.19752
 H2678 H 0.24691 0.53259 0.21140
 H2679 H 0.22091 0.54198 0.24541
 H2680 H 0.20833 0.55850 0.23166
 C2681 C 0.20709 0.10870 0.68339
 C2682 C 0.21364 0.09728 0.68889
 C2683 C 0.20698 0.08900 0.69846
 C2684 C 0.19361 0.09249 0.70254
 C2685 C 0.18708 0.10396 0.69709
 C2686 C 0.19375 0.11223 0.68748
 C2687 C 0.21466 0.07744 0.70452
 C2688 C 0.20870 0.06662 0.71047
 C2689 C 0.21660 0.05576 0.71750
 C2690 C 0.21023 0.04837 0.72798
 C2691 C 0.21769 0.03893 0.73568
 C2692 C 0.23159 0.03663 0.73290
 C2693 C 0.23782 0.04347 0.72204
 C2694 C 0.23037 0.05285 0.71431
 H2695 H 0.21263 0.11490 0.67615
 H2696 H 0.22400 0.09492 0.68569
 H2697 H 0.18825 0.08665 0.71020
 H2698 H 0.17680 0.10634 0.70047
 H2699 H 0.22572 0.07812 0.70418
 H2700 H 0.19764 0.06596 0.71089
 H2701 H 0.19961 0.05031 0.73056
 H2702 H 0.21277 0.03379 0.74411
 H2703 H 0.24855 0.04176 0.71977
 H2704 H 0.23551 0.05787 0.70597
 C2705 C 0.29362 0.60935 0.31349
 C2706 C 0.28708 0.59812 0.30769
 C2707 C 0.29408 0.58956 0.29866
 C2708 C 0.30778 0.59260 0.29533
 C2709 C 0.31432 0.60392 0.30109
 C2710 C 0.30733 0.61237 0.31028
 C2711 C 0.28643 0.57810 0.29245
 C2712 C 0.29234 0.56696 0.28711
 C2713 C 0.28433 0.55604 0.28035
 C2714 C 0.29063 0.54826 0.27015
 C2715 C 0.28307 0.53868 0.26276
 C2716 C 0.26914 0.53665 0.26559
 C2717 C 0.26296 0.54391 0.27616
 C2718 C 0.27050 0.55343 0.28358
 H2719 H 0.28782 0.61576 0.32031
 H2720 H 0.27648 0.59612 0.31027
 H2721 H 0.31340 0.58652 0.28808
 H2722 H 0.32485 0.60600 0.29834
 H2723 H 0.27538 0.57905 0.29229
 H2724 H 0.30339 0.56599 0.28711
 H2725 H 0.30128 0.54997 0.26753
 H2726 H 0.28793 0.53321 0.25452
 H2727 H 0.25220 0.54242 0.27845
 H2728 H 0.26540 0.55879 0.29173
 C2729 C 0.31612 0.10941 0.79351
 C2730 C 0.31068 0.09812 0.78674
 C2731 C 0.30124 0.08947 0.79318
 C2732 C 0.29726 0.09243 0.80657
 C2733 C 0.30265 0.10376 0.81333
 C2734 C 0.31211 0.11242 0.80687
 C2735 C 0.29519 0.07808 0.78528
 C2736 C 0.28948 0.06697 0.79092
 C2737 C 0.28246 0.05620 0.78292
 C2738 C 0.27238 0.04821 0.78931
 C2739 C 0.26473 0.03872 0.78190
 C2740 C 0.26717 0.03694 0.76800
 C2741 C 0.27765 0.04441 0.76172
 C2742 C 0.28531 0.05389 0.76910
 H2743 H 0.32325 0.11591 0.78813
 H2744 H 0.31382 0.09617 0.77639
 H2745 H 0.28970 0.08628 0.81178
 H2746 H 0.29934 0.10573 0.82361
 H2747 H 0.29536 0.07916 0.77437
 H2748 H 0.28930 0.06592 0.80184
 H2749 H 0.27007 0.04968 0.79995
 H2750 H 0.25659 0.03310 0.78688
 H2751 H 0.27968 0.04310 0.75100
 H2752 H 0.29333 0.05941 0.76389
 C2753 C 0.79376 0.61055 0.81441
 C2754 C 0.78708 0.59935 0.80868
 C2755 C 0.79396 0.59063 0.79970
 C2756 C 0.80769 0.59352 0.79635
 C2757 C 0.81437 0.60482 0.80203
 C2758 C 0.80749 0.61343 0.81118
 C2759 C 0.78616 0.57913 0.79368
 C2760 C 0.79189 0.56790 0.78830
 C2761 C 0.78365 0.55685 0.78199
 C2762 C 0.78954 0.54891 0.77166
 C2763 C 0.78170 0.53922 0.76469
 C2764 C 0.76788 0.53724 0.76806
 C2765 C 0.76214 0.54463 0.77879
 C2766 C 0.76997 0.55425 0.78580
 H2767 H 0.78803 0.61704 0.82122
 H2768 H 0.77646 0.59749 0.81130
 H2769 H 0.81324 0.58731 0.78915
 H2770 H 0.82493 0.60676 0.79928
 H2771 H 0.77511 0.58009 0.79377
 H2772 H 0.80293 0.56692 0.78797
 H2773 H 0.80007 0.55061 0.76860
 H2774 H 0.78621 0.53370 0.75630
 H2775 H 0.75146 0.54323 0.78147
 H2776 H 0.76519 0.55972 0.79406
 C2777 C 0.81157 0.11063 0.29584
 C2778 C 0.80579 0.09945 0.28923
 C2779 C 0.79718 0.09038 0.29619
 C2780 C 0.79421 0.09290 0.30993
 C2781 C 0.79993 0.10421 0.31655
 C2782 C 0.80877 0.11313 0.30959
 C2783 C 0.79116 0.07888 0.28845
 C2784 C 0.78632 0.06733 0.29400
 C2785 C 0.78027 0.05625 0.28568
 C2786 C 0.76999 0.04793 0.29129
 C2787 C 0.76324 0.03822 0.28329
 C2788 C 0.76681 0.03660 0.26961
 C2789 C 0.77754 0.04436 0.26418
 C2790 C 0.78432 0.05399 0.27215
 H2791 H 0.81810 0.11740 0.29006
 H2792 H 0.80812 0.09786 0.27860
 H2793 H 0.78731 0.08637 0.31555
 H2794 H 0.79753 0.10590 0.32713
 H2795 H 0.79087 0.08009 0.27754
 H2796 H 0.78628 0.06608 0.30491
 H2797 H 0.76679 0.04934 0.30171
 H2798 H 0.75489 0.03236 0.28760
 H2799 H 0.78042 0.04319 0.25363
 H2800 H 0.79260 0.05975 0.26762
 C2801 C 0.68384 0.38985 0.29287
 C2802 C 0.68906 0.40122 0.28606
 C2803 C 0.69830 0.41007 0.29250
 C2804 C 0.70236 0.40721 0.30591
 C2805 C 0.69718 0.39579 0.31271
 C2806 C 0.68786 0.38697 0.30627
 C2807 C 0.70405 0.42158 0.28457
 C2808 C 0.70939 0.43288 0.29015
 C2809 C 0.71615 0.44374 0.28206
 C2810 C 0.72617 0.45189 0.28831
 C2811 C 0.73370 0.46136 0.28074
 C2812 C 0.73118 0.46291 0.26683
 C2813 C 0.72076 0.45529 0.26067
 C2814 C 0.71319 0.44588 0.26822
 H2815 H 0.67684 0.38322 0.28750
 H2816 H 0.68591 0.40308 0.27568
 H2817 H 0.70981 0.41351 0.31108
 H2818 H 0.70053 0.39389 0.32300
 H2819 H 0.70398 0.42044 0.27366
 H2820 H 0.70950 0.43399 0.30107
 H2821 H 0.72857 0.45054 0.29896
 H2822 H 0.74182 0.46709 0.28560
 H2823 H 0.71872 0.45641 0.24992
 H2824 H 0.70518 0.44024 0.26312
 C2825 C 0.70675 0.89040 0.81421
 C2826 C 0.71334 0.90174 0.80868
 C2827 C 0.70640 0.91054 0.79978
 C2828 C 0.69270 0.90763 0.79633
 C2829 C 0.68611 0.89619 0.80183
 C2830 C 0.69305 0.88749 0.81088
 C2831 C 0.71413 0.92217 0.79396
 C2832 C 0.70836 0.93345 0.78871
 C2833 C 0.71663 0.94457 0.78259
 C2834 C 0.71093 0.95243 0.77207
 C2835 C 0.71891 0.96211 0.76523
 C2836 C 0.73264 0.96414 0.76894
 C2837 C 0.73816 0.95684 0.77987
 C2838 C 0.73019 0.94724 0.78676
 H2839 H 0.71252 0.88383 0.82094
 H2840 H 0.72393 0.90366 0.81139
 H2841 H 0.68711 0.91393 0.78921
 H2842 H 0.67556 0.89422 0.79901
 H2843 H 0.72519 0.92128 0.79408
 H2844 H 0.69731 0.93439 0.78829
 H2845 H 0.70049 0.95067 0.76877
 H2846 H 0.71456 0.96762 0.75672
 H2847 H 0.74875 0.95832 0.78283
 H2848 H 0.73477 0.94184 0.79521
 C2849 C 0.20635 0.38883 0.81088
 C2850 C 0.21292 0.39996 0.80494
 C2851 C 0.20563 0.40922 0.79682
 C2852 C 0.19157 0.40690 0.79446
 C2853 C 0.18499 0.39563 0.80035
 C2854 C 0.19230 0.38656 0.80873
 C2855 C 0.21334 0.42077 0.79082
 C2856 C 0.20769 0.43238 0.78619
 C2857 C 0.21616 0.44355 0.78045
 C2858 C 0.21076 0.45180 0.77007
 C2859 C 0.21903 0.46151 0.76361
 C2860 C 0.23274 0.46319 0.76758
 C2861 C 0.23793 0.45553 0.77842
 C2862 C 0.22969 0.44589 0.78491
 H2863 H 0.21239 0.38194 0.81705
 H2864 H 0.22378 0.40139 0.80680
 H2865 H 0.18567 0.41359 0.78797
 H2866 H 0.17416 0.39413 0.79847
 H2867 H 0.22437 0.41962 0.79042
 H2868 H 0.19667 0.43364 0.78613
 H2869 H 0.20034 0.45031 0.76658
 H2870 H 0.21493 0.46730 0.75516
 H2871 H 0.24850 0.45674 0.78159
 H2872 H 0.23402 0.44018 0.79328
 C2873 C 0.18591 0.88997 0.29374
 C2874 C 0.19150 0.90125 0.28710
 C2875 C 0.20048 0.91009 0.29388
 C2876 C 0.20394 0.90730 0.30747
 C2877 C 0.19840 0.89594 0.31410
 C2878 C 0.18931 0.88716 0.30731
 C2879 C 0.20648 0.92159 0.28614
 C2880 C 0.21176 0.93286 0.29183
 C2881 C 0.21839 0.94378 0.28373
 C2882 C 0.22879 0.95164 0.28974
 C2883 C 0.23614 0.96113 0.28203
 C2884 C 0.23308 0.96297 0.26826
 C2885 C 0.22227 0.95566 0.26239
 C2886 C 0.21487 0.94624 0.27008
 H2887 H 0.17912 0.88333 0.28810
 H2888 H 0.18880 0.90306 0.27659
 H2889 H 0.21116 0.91361 0.31293
 H2890 H 0.20124 0.89407 0.32456
 H2891 H 0.20656 0.92054 0.27522
 H2892 H 0.21188 0.93393 0.30274
 H2893 H 0.23159 0.95004 0.30025
 H2894 H 0.24454 0.96667 0.28665
 H2895 H 0.21978 0.95704 0.25177
 H2896 H 0.20655 0.94083 0.26523
 C2897 C 0.38816 0.29415 0.68500
 C2898 C 0.39936 0.28744 0.69076
 C2899 C 0.40819 0.29427 0.69969
 C2900 C 0.40541 0.30797 0.70299
 C2901 C 0.39411 0.31468 0.69728
 C2902 C 0.38540 0.30786 0.68816
 C2903 C 0.41969 0.28646 0.70575
 C2904 C 0.43100 0.29212 0.71109
 C2905 C 0.44197 0.28384 0.71750
 C2906 C 0.44971 0.28952 0.72810
 C2907 C 0.45928 0.28157 0.73516
 C2908 C 0.46134 0.26789 0.73159
 C2909 C 0.45413 0.26235 0.72061
 C2910 C 0.44462 0.27029 0.71352
 H2911 H 0.38156 0.28848 0.67822
 H2912 H 0.40116 0.27684 0.68819
 H2913 H 0.41171 0.31348 0.71016
 H2914 H 0.39225 0.32522 0.69998
 H2915 H 0.41864 0.27546 0.70576
 H2916 H 0.43209 0.30310 0.71136
 H2917 H 0.44795 0.29995 0.73128
 H2918 H 0.46472 0.28593 0.74370
 H2919 H 0.45563 0.25178 0.71776
 H2920 H 0.43929 0.26571 0.70505
 C2921 C 0.38938 0.81467 0.20552
 C2922 C 0.40054 0.80898 0.21238
 C2923 C 0.40929 0.79969 0.20589
 C2924 C 0.40647 0.79600 0.19237
 C2925 C 0.39521 0.80163 0.18553
 C2926 C 0.38655 0.81106 0.19202
 C2927 C 0.42071 0.79367 0.21385
 C2928 C 0.43204 0.78816 0.20838
 C2929 C 0.44300 0.78170 0.21668
 C2930 C 0.45118 0.77147 0.21083
 C2931 C 0.46082 0.76436 0.21865
 C2932 C 0.46252 0.76750 0.23242
 C2933 C 0.45488 0.77814 0.23814
 C2934 C 0.44530 0.78528 0.23033
 H2935 H 0.38285 0.82172 0.21095
 H2936 H 0.40236 0.81186 0.22283
 H2937 H 0.41270 0.78856 0.18713
 H2938 H 0.39332 0.79860 0.17514
 H2939 H 0.41957 0.79385 0.22476
 H2940 H 0.43317 0.78781 0.19747
 H2941 H 0.44974 0.76862 0.20031
 H2942 H 0.46658 0.75609 0.21413
 H2943 H 0.45611 0.78068 0.24876
 H2944 H 0.43968 0.79348 0.23509
 C2945 C 0.88899 0.29444 0.18529
 C2946 C 0.90022 0.28776 0.19105
 C2947 C 0.90899 0.29458 0.20005
 C2948 C 0.90613 0.30826 0.20338
 C2949 C 0.89480 0.31494 0.19767
 C2950 C 0.88614 0.30811 0.18852
 C2951 C 0.92050 0.28679 0.20613
 C2952 C 0.93176 0.29246 0.21157
 C2953 C 0.94277 0.28423 0.21802
 C2954 C 0.95069 0.29011 0.22840
 C2955 C 0.96032 0.28227 0.23550
 C2956 C 0.96228 0.26849 0.23220
 C2957 C 0.95490 0.26277 0.22143
 C2958 C 0.94533 0.27059 0.21429
 H2959 H 0.88245 0.28876 0.17847
 H2960 H 0.90208 0.27718 0.18844
 H2961 H 0.91238 0.31377 0.21059
 H2962 H 0.89288 0.32546 0.20041
 H2963 H 0.91949 0.27579 0.20608
 H2964 H 0.93279 0.30345 0.21186
 H2965 H 0.94903 0.30062 0.23137
 H2966 H 0.96588 0.28678 0.24388
 H2967 H 0.95633 0.25214 0.21877
 H2968 H 0.93990 0.26585 0.20598
 C2969 C 0.88889 0.81600 0.70595
 C2970 C 0.90020 0.81034 0.71259
 C2971 C 0.90893 0.80121 0.70586
 C2972 C 0.90598 0.79768 0.69234
 C2973 C 0.89459 0.80329 0.68571
 C2974 C 0.88592 0.81254 0.69244
 C2975 C 0.92047 0.79512 0.71360
 C2976 C 0.93169 0.78964 0.70790
 C2977 C 0.94268 0.78297 0.71596
 C2978 C 0.95058 0.77265 0.70991
 C2979 C 0.96020 0.76532 0.71755
 C2980 C 0.96214 0.76833 0.73131
 C2981 C 0.95479 0.77905 0.73722
 C2982 C 0.94523 0.78642 0.72960
 H2983 H 0.88235 0.82290 0.71156
 H2984 H 0.90212 0.81309 0.72306
 H2985 H 0.91219 0.79036 0.68691
 H2986 H 0.89261 0.80037 0.67532
 H2987 H 0.91948 0.79515 0.72452
 H2988 H 0.93268 0.78943 0.69697
 H2989 H 0.94892 0.76989 0.69940
 H2990 H 0.96574 0.75697 0.71289
 H2991 H 0.95621 0.78148 0.74785
 H2992 H 0.93980 0.79467 0.73450
 C2993 C 0.60991 0.29309 0.31620
 C2994 C 0.59850 0.28655 0.31062
 C2995 C 0.59017 0.29324 0.30109
 C2996 C 0.59359 0.30661 0.29711
 C2997 C 0.60505 0.31312 0.30263
 C2998 C 0.61336 0.30643 0.31222
 C2999 C 0.57864 0.28562 0.29492
 C3000 C 0.56770 0.29160 0.28915
 C3001 C 0.55692 0.28385 0.28186
 C3002 C 0.54939 0.29049 0.27163
 C3003 C 0.54003 0.28324 0.26367
 C3004 C 0.53797 0.26927 0.26593
 C3005 C 0.54498 0.26272 0.27650
 C3006 C 0.55428 0.26996 0.28451
 H3007 H 0.61616 0.28754 0.32341
 H3008 H 0.59621 0.27619 0.31372
 H3009 H 0.58772 0.31197 0.28945
 H3010 H 0.60738 0.32340 0.29933
 H3011 H 0.57948 0.27461 0.29499
 H3012 H 0.56688 0.30261 0.28908
 H3013 H 0.55114 0.30119 0.26946
 H3014 H 0.53476 0.28839 0.25545
 H3015 H 0.54346 0.25193 0.27835
 H3016 H 0.55943 0.26457 0.29263
 C3017 C 0.61006 0.81496 0.79496
 C3018 C 0.59874 0.80922 0.78841
 C3019 C 0.59017 0.79997 0.79519
 C3020 C 0.59327 0.79641 0.80869
 C3021 C 0.60466 0.80210 0.81523
 C3022 C 0.61318 0.81145 0.80844
 C3023 C 0.57865 0.79373 0.78756
 C3024 C 0.56750 0.78822 0.79340
 C3025 C 0.55655 0.78120 0.78558
 C3026 C 0.54853 0.77127 0.79213
 C3027 C 0.53894 0.76359 0.78484
 C3028 C 0.53713 0.76583 0.77091
 C3029 C 0.54462 0.77616 0.76446
 C3030 C 0.55416 0.78388 0.77173
 H3031 H 0.61649 0.82195 0.78933
 H3032 H 0.59669 0.81202 0.77796
 H3033 H 0.58718 0.78901 0.81416
 H3034 H 0.60676 0.79913 0.82560
 H3035 H 0.57962 0.79365 0.77664
 H3036 H 0.56654 0.78826 0.80433
 H3037 H 0.55006 0.76909 0.80280
 H3038 H 0.53331 0.75555 0.78994
 H3039 H 0.54331 0.77802 0.75370
 H3040 H 0.55968 0.79180 0.76638
 C3041 C 0.11116 0.29462 0.81424
 C3042 C 0.10001 0.28795 0.80836
 C3043 C 0.09135 0.29478 0.79923
 C3044 C 0.09423 0.30847 0.79592
 C3045 C 0.10547 0.31514 0.80177
 C3046 C 0.11404 0.30830 0.81103
 C3047 C 0.07992 0.28698 0.79305
 C3048 C 0.06877 0.29263 0.78733
 C3049 C 0.05780 0.28435 0.78091
 C3050 C 0.05000 0.29009 0.77035
 C3051 C 0.04036 0.28221 0.76334
 C3052 C 0.03829 0.26850 0.76689
 C3053 C 0.04557 0.26291 0.77782
 C3054 C 0.05513 0.27078 0.78488
 H3055 H 0.11762 0.28892 0.82115
 H3056 H 0.09814 0.27736 0.81096
 H3057 H 0.08805 0.31401 0.78864
 H3058 H 0.10741 0.32567 0.79904
 H3059 H 0.08087 0.27598 0.79331
 H3060 H 0.06779 0.30361 0.78680
 H3061 H 0.05174 0.30054 0.76718
 H3062 H 0.03488 0.28662 0.75483
 H3063 H 0.04407 0.25233 0.78067
 H3064 H 0.06046 0.26613 0.79332
 C3065 C 0.11113 0.81106 0.29467
 C3066 C 0.09992 0.80521 0.28811
 C3067 C 0.09080 0.79674 0.29517
 C3068 C 0.09330 0.79398 0.30898
 C3069 C 0.10463 0.79978 0.31555
 C3070 C 0.11361 0.80845 0.30847
 C3071 C 0.07925 0.79069 0.28749
 C3072 C 0.06774 0.78575 0.29309
 C3073 C 0.05666 0.77966 0.28477
 C3074 C 0.04862 0.76913 0.29028
 C3075 C 0.03900 0.76231 0.28223
 C3076 C 0.03720 0.76607 0.26862
 C3077 C 0.04464 0.77705 0.26329
 C3078 C 0.05420 0.78389 0.27132
 H3079 H 0.11795 0.81747 0.28881
 H3080 H 0.09834 0.80737 0.27744
 H3081 H 0.08673 0.78720 0.31470
 H3082 H 0.10629 0.79754 0.32618
 H3083 H 0.08038 0.79044 0.27657
 H3084 H 0.06654 0.78561 0.30399
 H3085 H 0.05020 0.76581 0.30065
 H3086 H 0.03334 0.75379 0.28643
 H3087 H 0.04329 0.78007 0.25280
 H3088 H 0.05974 0.79235 0.26689
 C3089 C 0.61039 0.70503 0.68962
 C3090 C 0.59923 0.71138 0.69577
 C3091 C 0.59067 0.70412 0.70463
 C3092 C 0.59368 0.69034 0.70744
 C3093 C 0.60497 0.68399 0.70133
 C3094 C 0.61338 0.69125 0.69228
 C3095 C 0.57919 0.71159 0.71107
 C3096 C 0.56797 0.70568 0.71633
 C3097 C 0.55692 0.71373 0.72286
 C3098 C 0.54916 0.70776 0.73330
 C3099 C 0.53952 0.71549 0.74046
 C3100 C 0.53740 0.72926 0.73715
 C3101 C 0.54461 0.73506 0.72631
 C3102 C 0.55417 0.72735 0.71912
 H3103 H 0.61677 0.71104 0.68292
 H3104 H 0.59725 0.72204 0.69357
 H3105 H 0.58756 0.68450 0.71450
 H3106 H 0.60704 0.67338 0.70362
 H3107 H 0.58013 0.72259 0.71136
 H3108 H 0.56700 0.69468 0.71635
 H3109 H 0.55095 0.69725 0.73627
 H3110 H 0.53408 0.71091 0.74889
 H3111 H 0.54306 0.74568 0.72363
 H3112 H 0.55948 0.73215 0.71075
 C3113 C 0.61119 0.18806 0.20405
 C3114 C 0.60010 0.19414 0.21059
 C3115 C 0.59130 0.20302 0.20359
 C3116 C 0.59401 0.20592 0.18985
 C3117 C 0.60523 0.19989 0.18331
 C3118 C 0.61390 0.19084 0.19032
 C3119 C 0.57991 0.20940 0.21124
 C3120 C 0.56854 0.21465 0.20558
 C3121 C 0.55758 0.22118 0.21374
 C3122 C 0.54955 0.23153 0.20786
 C3123 C 0.53996 0.23869 0.21566
 C3124 C 0.53816 0.23546 0.22940
 C3125 C 0.54564 0.22469 0.23513
 C3126 C 0.55516 0.21750 0.22735
 H3127 H 0.61776 0.18134 0.20987
 H3128 H 0.59836 0.19187 0.22122
 H3129 H 0.58772 0.21302 0.18419
 H3130 H 0.60705 0.20227 0.17274
 H3131 H 0.58106 0.20966 0.22216
 H3132 H 0.56737 0.21468 0.19467
 H3133 H 0.55109 0.23445 0.19737
 H3134 H 0.53432 0.24706 0.21112
 H3135 H 0.54433 0.22207 0.24573
 H3136 H 0.56066 0.20919 0.23211
 C3137 C 0.11060 0.68562 0.20599
 C3138 C 0.09933 0.69117 0.21271
 C3139 C 0.09039 0.70016 0.20603
 C3140 C 0.09309 0.70369 0.19245
 C3141 C 0.10446 0.69818 0.18572
 C3142 C 0.11331 0.68905 0.19241
 C3143 C 0.07888 0.70608 0.21389
 C3144 C 0.06751 0.71145 0.20835
 C3145 C 0.05654 0.71779 0.21665
 C3146 C 0.04851 0.72825 0.21094
 C3147 C 0.03893 0.73527 0.21886
 C3148 C 0.03715 0.73182 0.23255
 C3149 C 0.04464 0.72096 0.23810
 C3150 C 0.05414 0.71390 0.23020
 H3151 H 0.11729 0.67882 0.21156
 H3152 H 0.09759 0.68842 0.22322
 H3153 H 0.08670 0.71090 0.18705
 H3154 H 0.10626 0.70107 0.17528
 H3155 H 0.08000 0.70596 0.22481
 H3156 H 0.06637 0.71181 0.19745
 H3157 H 0.05005 0.73135 0.20050
 H3158 H 0.03330 0.74373 0.21447
 H3159 H 0.04334 0.71819 0.24867
 H3160 H 0.05967 0.70552 0.23482
 C3161 C 0.11033 0.18317 0.70710
 C3162 C 0.09902 0.18861 0.71388
 C3163 C 0.09022 0.19787 0.70737
 C3164 C 0.09304 0.20169 0.69390
 C3165 C 0.10440 0.19629 0.68713
 C3166 C 0.11320 0.18700 0.69366
 C3167 C 0.07883 0.20393 0.71528
 C3168 C 0.06760 0.20954 0.70969
 C3169 C 0.05692 0.21662 0.71777
 C3170 C 0.04901 0.22682 0.71149
 C3171 C 0.03970 0.23457 0.71904
 C3172 C 0.03807 0.23210 0.73294
 C3173 C 0.04546 0.22152 0.73913
 C3174 C 0.05471 0.21374 0.73161
 H3175 H 0.11695 0.17618 0.71253
 H3176 H 0.09717 0.18562 0.72431
 H3177 H 0.08679 0.20912 0.68863
 H3178 H 0.10628 0.19947 0.67678
 H3179 H 0.08001 0.20388 0.72619
 H3180 H 0.06642 0.20965 0.69878
 H3181 H 0.05040 0.22915 0.70083
 H3182 H 0.03412 0.24279 0.71415
 H3183 H 0.04424 0.21948 0.74987
 H3184 H 0.06016 0.20561 0.73672
 C3185 C 0.38951 0.68510 0.29415
 C3186 C 0.40068 0.69082 0.28737
 C3187 C 0.40943 0.70004 0.29395
 C3188 C 0.40661 0.70364 0.30748
 C3189 C 0.39535 0.69797 0.31426
 C3190 C 0.38670 0.68860 0.30768
 C3191 C 0.42086 0.70611 0.28606
 C3192 C 0.43213 0.71168 0.29160
 C3193 C 0.44311 0.71814 0.28337
 C3194 C 0.45120 0.72844 0.28923
 C3195 C 0.46086 0.73553 0.28145
 C3196 C 0.46268 0.73231 0.26772
 C3197 C 0.45514 0.72160 0.26200
 C3198 C 0.44554 0.71448 0.26977
 H3199 H 0.38297 0.67811 0.28865
 H3200 H 0.40249 0.68801 0.27690
 H3201 H 0.41283 0.71102 0.31280
 H3202 H 0.39346 0.70092 0.32467
 H3203 H 0.41978 0.70592 0.27514
 H3204 H 0.43321 0.71205 0.30251
 H3205 H 0.44966 0.73137 0.29972
 H3206 H 0.46654 0.74387 0.28597
 H3207 H 0.45646 0.71900 0.25141
 H3208 H 0.43998 0.70623 0.26500
 C3209 C 0.38967 0.20689 0.81630
 C3210 C 0.40094 0.21363 0.81069
 C3211 C 0.40935 0.20711 0.80116
 C3212 C 0.40618 0.19367 0.79724
 C3213 C 0.39485 0.18695 0.80280
 C3214 C 0.38645 0.19348 0.81238
 C3215 C 0.42071 0.21498 0.79498
 C3216 C 0.43178 0.20928 0.78919
 C3217 C 0.44249 0.21739 0.78218
 C3218 C 0.45015 0.21120 0.77180
 C3219 C 0.45950 0.21882 0.76417
 C3220 C 0.46143 0.23272 0.76691
 C3221 C 0.45430 0.23880 0.77765
 C3222 C 0.44501 0.23119 0.78532
 H3223 H 0.38336 0.21232 0.82352
 H3224 H 0.40306 0.22403 0.81377
 H3225 H 0.41215 0.18841 0.78964
 H3226 H 0.39269 0.17663 0.79953
 H3227 H 0.41967 0.22597 0.79511
 H3228 H 0.43279 0.19828 0.78896
 H3229 H 0.44852 0.20056 0.76927
 H3230 H 0.46489 0.21403 0.75584
 H3231 H 0.45574 0.24952 0.77990
 H3232 H 0.43978 0.23621 0.79359
 C3233 C 0.88841 0.70560 0.81083
 C3234 C 0.89947 0.71221 0.80476
 C3235 C 0.90854 0.70507 0.79632
 C3236 C 0.90609 0.69113 0.79381
 C3237 C 0.89488 0.68451 0.79983
 C3238 C 0.88599 0.69167 0.80850
 C3239 C 0.91999 0.71283 0.79011
 C3240 C 0.93144 0.70724 0.78499
 C3241 C 0.94248 0.71566 0.77886
 C3242 C 0.95053 0.71014 0.76840
 C3243 C 0.96018 0.71824 0.76163
 C3244 C 0.96202 0.73193 0.76536
 C3245 C 0.95451 0.73728 0.77622
 C3246 C 0.94494 0.72919 0.78302
 H3247 H 0.88166 0.71153 0.81723
 H3248 H 0.90099 0.72298 0.80673
 H3249 H 0.91260 0.68534 0.78706
 H3250 H 0.89327 0.67378 0.79780
 H3251 H 0.91886 0.72382 0.78993
 H3252 H 0.93264 0.69627 0.78477
 H3253 H 0.94895 0.69971 0.76511
 H3254 H 0.96582 0.71402 0.75317
 H3255 H 0.95583 0.74783 0.77920
 H3256 H 0.93941 0.73364 0.79143
 C3257 C 0.88982 0.18558 0.29435
 C3258 C 0.90096 0.19125 0.28750
 C3259 C 0.90972 0.20052 0.29400
 C3260 C 0.90696 0.20419 0.30752
 C3261 C 0.89573 0.19856 0.31437
 C3262 C 0.88705 0.18917 0.30787
 C3263 C 0.92106 0.20659 0.28602
 C3264 C 0.93239 0.21211 0.29148
 C3265 C 0.94321 0.21867 0.28314
 C3266 C 0.95127 0.22902 0.28894
 C3267 C 0.96075 0.23623 0.28106
 C3268 C 0.96240 0.23308 0.26729
 C3269 C 0.95487 0.22234 0.26162
 C3270 C 0.94547 0.21508 0.26949
 H3271 H 0.88327 0.17856 0.28891
 H3272 H 0.90274 0.18839 0.27703
 H3273 H 0.91320 0.21162 0.31277
 H3274 H 0.89387 0.20157 0.32476
 H3275 H 0.91986 0.20645 0.27512
 H3276 H 0.93359 0.21242 0.30238
 H3277 H 0.94984 0.23189 0.29945
 H3278 H 0.96642 0.24459 0.28554
 H3279 H 0.95607 0.21979 0.25100
 H3280 H 0.93993 0.20679 0.26478
 C3281 C 0.29218 0.31483 0.60886
 C3282 C 0.28550 0.30920 0.59767
 C3283 C 0.29233 0.30011 0.58903
 C3284 C 0.30602 0.29657 0.59195
 C3285 C 0.31270 0.30216 0.60322
 C3286 C 0.30585 0.31137 0.61179
 C3287 C 0.28452 0.29411 0.57761
 C3288 C 0.29025 0.28856 0.56654
 C3289 C 0.28200 0.28202 0.55570
 C3290 C 0.28786 0.27141 0.54809
 C3291 C 0.27996 0.26416 0.53869
 C3292 C 0.26614 0.26755 0.53668
 C3293 C 0.26044 0.27855 0.54373
 C3294 C 0.26832 0.28584 0.55306
 H3295 H 0.28649 0.32172 0.61531
 H3296 H 0.27491 0.31195 0.59577
 H3297 H 0.31153 0.28928 0.58579
 H3298 H 0.32322 0.29927 0.60518
 H3299 H 0.27346 0.29429 0.57853
 H3300 H 0.30129 0.28814 0.56559
 H3301 H 0.29840 0.26838 0.54981
 H3302 H 0.28446 0.25560 0.53337
 H3303 H 0.24977 0.28128 0.54224
 H3304 H 0.26359 0.29434 0.55826
 C3305 C 0.29474 0.81100 0.11004
 C3306 C 0.28840 0.80502 0.09884
 C3307 C 0.29575 0.79641 0.09013
 C3308 C 0.30963 0.79367 0.09304
 C3309 C 0.31597 0.79960 0.10436
 C3310 C 0.30861 0.80840 0.11293
 C3311 C 0.28827 0.79012 0.07862
 C3312 C 0.29423 0.78492 0.06749
 C3313 C 0.28619 0.77845 0.05642
 C3314 C 0.29230 0.76816 0.04856
 C3315 C 0.28460 0.76102 0.03889
 C3316 C 0.27074 0.76421 0.03685
 C3317 C 0.26480 0.77495 0.04414
 C3318 C 0.27248 0.78211 0.05374
 H3319 H 0.28865 0.81751 0.11653
 H3320 H 0.27767 0.80718 0.09695
 H3321 H 0.31557 0.78679 0.08682
 H3322 H 0.32666 0.79735 0.10633
 H3323 H 0.27722 0.78985 0.07948
 H3324 H 0.30528 0.78487 0.06659
 H3325 H 0.30288 0.76526 0.05030
 H3326 H 0.28929 0.75267 0.03340
 H3327 H 0.25410 0.77753 0.04265
 H3328 H 0.26755 0.79037 0.05912
 C3329 C 0.79293 0.31467 0.10916
 C3330 C 0.78631 0.30903 0.09794
 C3331 C 0.79322 0.29999 0.08930
 C3332 C 0.80691 0.29653 0.09225
 C3333 C 0.81353 0.30212 0.10355
 C3334 C 0.80661 0.31129 0.11212
 C3335 C 0.78548 0.29396 0.07785
 C3336 C 0.79129 0.28864 0.06671
 C3337 C 0.78315 0.28208 0.05581
 C3338 C 0.78922 0.27170 0.04803
 C3339 C 0.78146 0.26442 0.03855
 C3340 C 0.76757 0.26754 0.03661
 C3341 C 0.76165 0.27834 0.04382
 C3342 C 0.76939 0.28565 0.05324
 H3343 H 0.78719 0.32152 0.11561
 H3344 H 0.77571 0.31173 0.09601
 H3345 H 0.81248 0.28928 0.08609
 H3346 H 0.82406 0.29927 0.10554
 H3347 H 0.77442 0.29393 0.07880
 H3348 H 0.80234 0.28845 0.06575
 H3349 H 0.79983 0.26886 0.04970
 H3350 H 0.78613 0.25602 0.03311
 H3351 H 0.75093 0.28086 0.04238
 H3352 H 0.76449 0.29397 0.05857
 C3353 C 0.79404 0.81277 0.61070
 C3354 C 0.78764 0.80685 0.59952
 C3355 C 0.79493 0.79825 0.59076
 C3356 C 0.80881 0.79546 0.59359
 C3357 C 0.81522 0.80134 0.60489
 C3358 C 0.80791 0.81014 0.61351
 C3359 C 0.78738 0.79209 0.57924
 C3360 C 0.79325 0.78690 0.56808
 C3361 C 0.78504 0.78063 0.55705
 C3362 C 0.79075 0.76999 0.54936
 C3363 C 0.78277 0.76301 0.53981
 C3364 C 0.76904 0.76670 0.53774
 C3365 C 0.76351 0.77775 0.54487
 C3366 C 0.77147 0.78477 0.55433
 H3367 H 0.78799 0.81927 0.61723
 H3368 H 0.77689 0.80902 0.59770
 H3369 H 0.81470 0.78857 0.58732
 H3370 H 0.82591 0.79907 0.60681
 H3371 H 0.77632 0.79195 0.58011
 H3372 H 0.80430 0.78666 0.56714
 H3373 H 0.80121 0.76671 0.55114
 H3374 H 0.78712 0.75440 0.53444
 H3375 H 0.75291 0.78068 0.54337
 H3376 H 0.76688 0.79329 0.55960
 C3377 C 0.29437 0.68822 0.38877
 C3378 C 0.28780 0.69404 0.39989
 C3379 C 0.29498 0.70246 0.40891
 C3380 C 0.30892 0.70524 0.40637
 C3381 C 0.31551 0.69947 0.39512
 C3382 C 0.30831 0.69080 0.38626
 C3383 C 0.28727 0.70842 0.42041
 C3384 C 0.29297 0.71325 0.43182
 C3385 C 0.28457 0.71917 0.44288
 C3386 C 0.29007 0.72968 0.45088
 C3387 C 0.28190 0.73637 0.46046
 C3388 C 0.26818 0.73250 0.46226
 C3389 C 0.26288 0.72153 0.45484
 C3390 C 0.27103 0.71482 0.44533
 H3391 H 0.28841 0.68183 0.38205
 H3392 H 0.27703 0.69188 0.40149
 H3393 H 0.31472 0.71200 0.41286
 H3394 H 0.32624 0.70170 0.39343
 H3395 H 0.27622 0.70865 0.41934
 H3396 H 0.30400 0.71341 0.43297
 H3397 H 0.30051 0.73311 0.44930
 H3398 H 0.28608 0.74492 0.46606
 H3399 H 0.25230 0.71844 0.45614
 H3400 H 0.26661 0.70637 0.43979
 C3401 C 0.29251 0.18322 0.89067
 C3402 C 0.28591 0.18859 0.90204
 C3403 C 0.29265 0.19787 0.91058
 C3404 C 0.30613 0.20183 0.90739
 C3405 C 0.31272 0.19650 0.89597
 C3406 C 0.30599 0.18713 0.88747
 C3407 C 0.28495 0.20379 0.92212
 C3408 C 0.29087 0.20935 0.93310
 C3409 C 0.28294 0.21624 0.94394
 C3410 C 0.28932 0.22653 0.95159
 C3411 C 0.28184 0.23410 0.96106
 C3412 C 0.26789 0.23136 0.96311
 C3413 C 0.26163 0.22070 0.95597
 C3414 C 0.26910 0.21309 0.94657
 H3415 H 0.28691 0.17620 0.88426
 H3416 H 0.27545 0.18554 0.90415
 H3417 H 0.31154 0.20930 0.91343
 H3418 H 0.32308 0.19979 0.89382
 H3419 H 0.27389 0.20368 0.92127
 H3420 H 0.30193 0.20953 0.93394
 H3421 H 0.29998 0.22909 0.94984
 H3422 H 0.28676 0.24241 0.96642
 H3423 H 0.25085 0.21849 0.95746
 H3424 H 0.26392 0.20490 0.94132
 C3425 C 0.81377 0.70593 0.89081
 C3426 C 0.80806 0.71245 0.90204
 C3427 C 0.79890 0.70555 0.91061
 C3428 C 0.79542 0.69194 0.90758
 C3429 C 0.80109 0.68543 0.89626
 C3430 C 0.81036 0.69234 0.88776
 C3431 C 0.79276 0.71322 0.92205
 C3432 C 0.78711 0.70740 0.93305
 C3433 C 0.78043 0.71546 0.94395
 C3434 C 0.77002 0.70934 0.95171
 C3435 C 0.76269 0.71696 0.96125
 C3436 C 0.76576 0.73079 0.96327
 C3437 C 0.77656 0.73677 0.95604
 C3438 C 0.78394 0.72916 0.94656
 H3439 H 0.82069 0.71167 0.88442
 H3440 H 0.81079 0.72297 0.90403
 H3441 H 0.78810 0.68638 0.91367
 H3442 H 0.79821 0.67497 0.89421
 H3443 H 0.79290 0.72422 0.92118
 H3444 H 0.78677 0.69640 0.93393
 H3445 H 0.76721 0.69878 0.95001
 H3446 H 0.75428 0.71225 0.96669
 H3447 H 0.77905 0.74744 0.95751
 H3448 H 0.79225 0.73412 0.94125
 C3449 C 0.81365 0.20593 0.38998
 C3450 C 0.80795 0.21262 0.40112
 C3451 C 0.79895 0.20581 0.40990
 C3452 C 0.79555 0.19212 0.40715
 C3453 C 0.80121 0.18542 0.39592
 C3454 C 0.81037 0.19224 0.38723
 C3455 C 0.79292 0.21364 0.42131
 C3456 C 0.78750 0.20801 0.43253
 C3457 C 0.78116 0.21627 0.44349
 C3458 C 0.77091 0.21037 0.45161
 C3459 C 0.76390 0.21819 0.46126
 C3460 C 0.76717 0.23201 0.46302
 C3461 C 0.77785 0.23777 0.45544
 C3462 C 0.78488 0.22996 0.44586
 H3463 H 0.82047 0.21161 0.38342
 H3464 H 0.81061 0.22321 0.40287
 H3465 H 0.78834 0.18660 0.41343
 H3466 H 0.79843 0.17489 0.39408
 H3467 H 0.79303 0.22463 0.42027
 H3468 H 0.78717 0.19703 0.43358
 H3469 H 0.76794 0.19982 0.45012
 H3470 H 0.75558 0.21364 0.46695
 H3471 H 0.78048 0.24844 0.45669
 H3472 H 0.79310 0.23477 0.44026
 C3473 C 0.70750 0.31647 0.39060
 C3474 C 0.71414 0.31107 0.40197
 C3475 C 0.70746 0.30170 0.41048
 C3476 C 0.69399 0.29769 0.40727
 C3477 C 0.68737 0.30304 0.39585
 C3478 C 0.69404 0.31250 0.38738
 C3479 C 0.71522 0.29577 0.42201
 C3480 C 0.70935 0.29006 0.43295
 C3481 C 0.71733 0.28320 0.44382
 C3482 C 0.71101 0.27285 0.45147
 C3483 C 0.71854 0.26530 0.46095
 C3484 C 0.73247 0.26811 0.46303
 C3485 C 0.73866 0.27885 0.45593
 C3486 C 0.73116 0.28642 0.44649
 H3487 H 0.71304 0.32357 0.38423
 H3488 H 0.72458 0.31419 0.40409
 H3489 H 0.68862 0.29017 0.41329
 H3490 H 0.67702 0.29971 0.39368
 H3491 H 0.72628 0.29601 0.42120
 H3492 H 0.69829 0.28974 0.43375
 H3493 H 0.70036 0.27025 0.44972
 H3494 H 0.71366 0.25695 0.46630
 H3495 H 0.74942 0.28113 0.45746
 H3496 H 0.73628 0.29466 0.44124
 C3497 C 0.70523 0.81159 0.88982
 C3498 C 0.71168 0.80564 0.90099
 C3499 C 0.70436 0.79719 0.90990
 C3500 C 0.69042 0.79455 0.90722
 C3501 C 0.68397 0.80044 0.89592
 C3502 C 0.69130 0.80911 0.88716
 C3503 C 0.71193 0.79099 0.92141
 C3504 C 0.70607 0.78615 0.93276
 C3505 C 0.71421 0.77984 0.94384
 C3506 C 0.70821 0.76964 0.95192
 C3507 C 0.71604 0.76259 0.96156
 C3508 C 0.72994 0.76578 0.96335
 C3509 C 0.73576 0.77647 0.95588
 C3510 C 0.72795 0.78354 0.94630
 H3511 H 0.71129 0.81799 0.88318
 H3512 H 0.72246 0.80769 0.90269
 H3513 H 0.68452 0.78778 0.91362
 H3514 H 0.67324 0.79829 0.89411
 H3515 H 0.72297 0.79051 0.92038
 H3516 H 0.69503 0.78629 0.93383
 H3517 H 0.69761 0.76673 0.95036
 H3518 H 0.71144 0.75428 0.96721
 H3519 H 0.74647 0.77908 0.95722
 H3520 H 0.73279 0.79176 0.94074
 C3521 C 0.20706 0.31431 0.89069
 C3522 C 0.21370 0.30859 0.90188
 C3523 C 0.20680 0.29955 0.91054
 C3524 C 0.19309 0.29614 0.90763
 C3525 C 0.18645 0.30181 0.89635
 C3526 C 0.19335 0.31099 0.88777
 C3527 C 0.21457 0.29349 0.92200
 C3528 C 0.20880 0.28807 0.93313
 C3529 C 0.21703 0.28156 0.94403
 C3530 C 0.21116 0.27097 0.95170
 C3531 C 0.21905 0.26373 0.96115
 C3532 C 0.23286 0.26712 0.96317
 C3533 C 0.23857 0.27812 0.95607
 C3534 C 0.23070 0.28539 0.94668
 H3535 H 0.21280 0.32117 0.88423
 H3536 H 0.22431 0.31125 0.90377
 H3537 H 0.18752 0.28889 0.91381
 H3538 H 0.17590 0.29901 0.89439
 H3539 H 0.22562 0.29354 0.92106
 H3540 H 0.19776 0.28777 0.93409
 H3541 H 0.20062 0.26794 0.94998
 H3542 H 0.21455 0.25517 0.96650
 H3543 H 0.24923 0.28084 0.95756
 H3544 H 0.23542 0.29387 0.94143
 C3545 C 0.20605 0.81413 0.38964
 C3546 C 0.21270 0.80839 0.40082
 C3547 C 0.20581 0.79931 0.40945
 C3548 C 0.19210 0.79589 0.40654
 C3549 C 0.18545 0.80158 0.39527
 C3550 C 0.19234 0.81080 0.38673
 C3551 C 0.21358 0.79319 0.42087
 C3552 C 0.20781 0.78780 0.43201
 C3553 C 0.21601 0.78124 0.44290
 C3554 C 0.21007 0.77074 0.45063
 C3555 C 0.21791 0.76351 0.46012
 C3556 C 0.23174 0.76682 0.46213
 C3557 C 0.23752 0.77774 0.45495
 C3558 C 0.22971 0.78499 0.44551
 H3559 H 0.21177 0.82100 0.38319
 H3560 H 0.22331 0.81106 0.40272
 H3561 H 0.18655 0.78863 0.41271
 H3562 H 0.17491 0.79876 0.39330
 H3563 H 0.22463 0.79315 0.41988
 H3564 H 0.19677 0.78761 0.43302
 H3565 H 0.19951 0.76776 0.44892
 H3566 H 0.21335 0.75502 0.46554
 H3567 H 0.24819 0.78042 0.45644
 H3568 H 0.23450 0.79339 0.44020
 C3569 C 0.68551 0.70669 0.61004
 C3570 C 0.69115 0.71327 0.59880
 C3571 C 0.70021 0.70640 0.59015
 C3572 C 0.70376 0.69279 0.59313
 C3573 C 0.69816 0.68620 0.60444
 C3574 C 0.68893 0.69307 0.61299
 C3575 C 0.70623 0.71408 0.57867
 C3576 C 0.71165 0.70827 0.56759
 C3577 C 0.71832 0.71636 0.55674
 C3578 C 0.72897 0.71042 0.54920
 C3579 C 0.73635 0.71818 0.53979
 C3580 C 0.73305 0.73195 0.53772
 C3581 C 0.72203 0.73776 0.54473
 C3582 C 0.71460 0.73000 0.55405
 H3583 H 0.67865 0.71240 0.61652
 H3584 H 0.68843 0.72383 0.59687
 H3585 H 0.71108 0.68728 0.58699
 H3586 H 0.70107 0.67574 0.60645
 H3587 H 0.70622 0.72509 0.57957
 H3588 H 0.71188 0.69727 0.56665
 H3589 H 0.73195 0.69991 0.55099
 H3590 H 0.74494 0.71363 0.53451
 H3591 H 0.71941 0.74840 0.54321
 H3592 H 0.70611 0.73480 0.55923
 C3593 C 0.70691 0.18495 0.10978
 C3594 C 0.71358 0.19060 0.09858
 C3595 C 0.70675 0.19974 0.08992
 C3596 C 0.69308 0.20329 0.09286
 C3597 C 0.68642 0.19768 0.10416
 C3598 C 0.69325 0.18840 0.11272
 C3599 C 0.71454 0.20574 0.07845
 C3600 C 0.70879 0.21123 0.06732
 C3601 C 0.71696 0.21766 0.05632
 C3602 C 0.71089 0.22789 0.04830
 C3603 C 0.71863 0.23498 0.03863
 C3604 C 0.73252 0.23182 0.03674
 C3605 C 0.73844 0.22118 0.04422
 C3606 C 0.73072 0.21405 0.05382
 H3607 H 0.71260 0.17803 0.11624
 H3608 H 0.72415 0.18782 0.09667
 H3609 H 0.68757 0.21061 0.08670
 H3610 H 0.67591 0.20061 0.10613
 H3611 H 0.72559 0.20558 0.07939
 H3612 H 0.69774 0.21159 0.06639
 H3613 H 0.70030 0.23078 0.04990
 H3614 H 0.71396 0.24328 0.03302
 H3615 H 0.74917 0.21864 0.04287
 H3616 H 0.73565 0.20585 0.05934
 C3617 C 0.18611 0.70506 0.10936
 C3618 C 0.19192 0.71159 0.09816
 C3619 C 0.20112 0.70469 0.08966
 C3620 C 0.20458 0.69108 0.09275
 C3621 C 0.19882 0.68455 0.10404
 C3622 C 0.18949 0.69146 0.11246
 C3623 C 0.20738 0.71235 0.07824
 C3624 C 0.21292 0.70650 0.06722
 C3625 C 0.21975 0.71446 0.05629
 C3626 C 0.22983 0.70807 0.04834
 C3627 C 0.23730 0.71553 0.03874
 C3628 C 0.23469 0.72947 0.03686
 C3629 C 0.22419 0.73574 0.04428
 C3630 C 0.21669 0.72830 0.05381
 H3631 H 0.17915 0.71080 0.11571
 H3632 H 0.18922 0.72213 0.09614
 H3633 H 0.21195 0.68552 0.08672
 H3634 H 0.20168 0.67409 0.10613
 H3635 H 0.20740 0.72335 0.07915
 H3636 H 0.21304 0.69550 0.06633
 H3637 H 0.23229 0.69740 0.04992
 H3638 H 0.24547 0.71058 0.03317
 H3639 H 0.22206 0.74652 0.04292
 H3640 H 0.20863 0.73351 0.05927
 C3641 C 0.18356 0.20658 0.60963
 C3642 C 0.18879 0.21329 0.59825
 C3643 C 0.19804 0.20673 0.58955
 C3644 C 0.20212 0.19328 0.59257
 C3645 C 0.19695 0.18657 0.60401
 C3646 C 0.18759 0.19314 0.61267
 C3647 C 0.20375 0.21457 0.57800
 C3648 C 0.20929 0.20886 0.56691
 C3649 C 0.21587 0.21698 0.55600
 C3650 C 0.22625 0.21091 0.54818
 C3651 C 0.23355 0.21860 0.53866
 C3652 C 0.23047 0.23244 0.53672
 C3653 C 0.21968 0.23838 0.54400
 C3654 C 0.21234 0.23070 0.55346
 H3655 H 0.17655 0.21205 0.61614
 H3656 H 0.18561 0.22371 0.59626
 H3657 H 0.20957 0.18799 0.58638
 H3658 H 0.20030 0.17624 0.60604
 H3659 H 0.20346 0.22557 0.57889
 H3660 H 0.20970 0.19786 0.56601
 H3661 H 0.22908 0.20034 0.54984
 H3662 H 0.24194 0.21392 0.53317
 H3663 H 0.21719 0.24906 0.54258
 H3664 H 0.20406 0.23563 0.55884
   
