data_POSCAR
  _audit_creation_date              2014-09-24
  _audit_creation_method            'ToBaCCo'
  _symmetry_space_group_name_H-M    'P1'
  _symmetry_Int_Tables_number       1
  _symmetry_cell_setting            triclinic
  loop_
  _symmetry_equiv_pos_as_xyz
 x,y,z
_cell_length_a 39.7638
_cell_length_b 41.5847
_cell_length_c 48.4183
_cell_angle_alpha 89.498000
_cell_angle_beta 90.018900
_cell_angle_gamma 89.950900
loop_
  _atom_site_label
  _atom_site_type_symbol
  _atom_site_fract_x
  _atom_site_fract_y
  _atom_site_fract_z
B1 B 0.27092 0.23937 0.28419
 B2 B 0.23107 0.23575 0.27280
 B3 B 0.24692 0.27247 0.27883
 B4 B 0.28798 0.27271 0.26960
 B5 B 0.29722 0.23527 0.25725
 B6 B 0.26164 0.21232 0.25956
 B7 B 0.24895 0.26215 0.22391
 B8 B 0.28879 0.26591 0.23543
 B9 B 0.27275 0.22918 0.22911
 B10 B 0.23193 0.22879 0.23843
 B11 B 0.22262 0.26594 0.25060
 B12 B 0.25795 0.28914 0.24871
 B13 B 0.73365 0.74913 0.28173
 B14 B 0.77364 0.75707 0.27292
 B15 B 0.76254 0.71940 0.28173
 B16 B 0.72339 0.71239 0.26972
 B17 B 0.71045 0.74640 0.25298
 B18 B 0.74182 0.77432 0.25501
 B19 B 0.76598 0.72299 0.22626
 B20 B 0.72603 0.71505 0.23509
 B21 B 0.73703 0.75271 0.22628
 B22 B 0.77623 0.75973 0.23821
 B23 B 0.78922 0.72571 0.25503
 B24 B 0.75782 0.69780 0.25297
 B25 B 0.72754 0.24664 -0.22343
 B26 B 0.71881 0.28413 -0.23430
 B27 B 0.75833 0.27478 -0.22521
 B28 B 0.76616 0.23657 -0.23479
 B29 B 0.73069 0.22266 -0.25088
 B30 B 0.70134 0.25256 -0.25039
 B31 B 0.75475 0.27395 -0.28088
 B32 B 0.76363 0.23623 -0.26930
 B33 B 0.72416 0.24619 -0.27915
 B34 B 0.71601 0.28425 -0.26918
 B35 B 0.75131 0.29808 -0.25338
 B36 B 0.78103 0.26849 -0.25378
 B37 B 0.25642 0.77383 -0.22326
 B38 B 0.26364 0.73454 -0.23028
 B39 B 0.22390 0.74777 -0.22574
 B40 B 0.22059 0.78497 -0.23965
 B41 B 0.25893 0.79470 -0.25323
 B42 B 0.28585 0.76355 -0.24691
 B43 B 0.23550 0.74196 -0.28048
 B44 B 0.22823 0.78093 -0.27387
 B45 B 0.26785 0.76790 -0.27811
 B46 B 0.27126 0.73067 -0.26414
 B47 B 0.23275 0.72099 -0.25092
 B48 B 0.20615 0.75244 -0.25713
 B49 B 1.23915 1.25719 0.76977
 B50 B 1.27895 1.26835 0.76349
 B51 B 1.27075 1.23008 0.77249
 B52 B 1.23372 1.21931 0.75802
 B53 B 1.21945 1.25167 0.73954
 B54 B 1.24771 1.28227 0.74303
 B55 B 1.27986 1.23284 0.71749
 B56 B 1.24001 1.22146 0.72352
 B57 B 1.24817 1.25974 0.71468
 B58 B 1.28506 1.27053 0.72916
 B59 B 1.29939 1.23819 0.74761
 B60 B 1.27117 1.20754 0.74404
 B61 B 0.75915 0.72374 0.71595
 B62 B 0.76473 0.76256 0.72402
 B63 B 0.72593 0.74918 0.71681
 B64 B 0.72202 0.71141 0.72931
 B65 B 0.75909 0.70170 0.74499
 B66 B 0.78592 0.73364 0.74167
 B67 B 0.73174 0.75320 0.77207
 B68 B 0.72603 0.71445 0.76383
 B69 B 0.76487 0.72761 0.77130
 B70 B 0.76896 0.76556 0.75869
 B71 B 0.73181 0.77520 0.74303
 B72 B 0.70508 0.74333 0.74628
 B73 B 1.23464 0.73879 0.22696
 B74 B 1.27500 0.73429 0.23708
 B75 B 1.26043 0.77077 0.22771
 B76 B 1.22040 0.77455 0.23885
 B77 B 1.21014 0.73948 0.25511
 B78 B 1.24402 0.71429 0.25391
 B79 B 1.26239 0.76694 0.28341
 B80 B 1.22214 0.77168 0.27375
 B81 B 1.23619 0.73498 0.28257
 B82 B 1.27639 0.73141 0.27157
 B83 B 1.28658 0.76670 0.25514
 B84 B 1.25260 0.79162 0.25667
 B85 B 0.75754 1.27287 0.22702
 B86 B 0.71858 1.28696 0.23242
 B87 B 0.72421 1.24759 0.22672
 B88 B 0.76060 1.23602 0.24182
 B89 B 0.77720 1.26917 0.25760
 B90 B 0.75083 1.30082 0.25150
 B91 B 0.71623 1.25608 0.28166
 B92 B 0.75516 1.24138 0.27586
 B93 B 0.74945 1.28118 0.28201
 B94 B 0.71307 1.29269 0.26665
 B95 B 0.69670 1.25984 0.25095
 B96 B 0.72260 1.22794 0.25701
 N97 N 0.56773 1.02985 0.03001
 N98 N 0.59283 1.04942 0.03597
 N99 N 0.54172 0.96453 0.05201
 N100 N 0.54756 0.94416 0.07248
 N101 N 0.56533 0.96241 0.03316
 N102 N 0.58794 0.94061 0.04040
 N103 N 0.54386 1.03201 0.04865
 N104 N 0.55220 1.05309 0.06774
 C105 C 0.58263 1.06415 0.05936
 C106 C 0.57628 0.92915 0.06486
 N107 N 0.44625 0.96544 0.03182
 N108 N 0.42201 0.94519 0.03885
 N109 N 0.47082 1.03382 0.04767
 N110 N 0.46277 1.05525 0.06655
 N111 N 0.44779 1.03304 0.02822
 N112 N 0.42366 1.05402 0.03334
 N113 N 0.46940 0.96632 0.05114
 N114 N 0.46162 0.94667 0.07168
 Mn115 Mn 0.50645 0.99925 0.05004
 C116 C 0.43220 0.93330 0.06366
 C117 C 0.43354 1.06808 0.05713
 N118 N 0.56674 0.95912 -0.02656
 N119 N 0.59151 0.93908 -0.03237
 N120 N 0.54585 1.02641 -0.04902
 N121 N 0.55425 1.04696 -0.06886
 N122 N 0.56867 1.02644 -0.02938
 N123 N 0.59302 1.04685 -0.03529
 N124 N 0.54388 0.95876 -0.04620
 N125 N 0.55266 0.93839 -0.06574
 Mn126 Mn 0.56729 0.99439 0.00181
 C127 C 0.58218 0.92587 -0.05664
 C128 C 0.58363 1.05977 -0.05983
 N129 N 0.44888 1.02942 -0.03135
 N130 N 0.42551 1.05037 -0.03881
 N131 N 0.47050 0.96067 -0.04726
 N132 N 0.46167 0.93985 -0.06648
 N133 N 0.44740 0.96189 -0.02786
 N134 N 0.42268 0.94171 -0.03320
 N135 N 0.47277 1.02811 -0.05006
 N136 N 0.46619 1.04810 -0.07069
 Mn137 Mn 0.44736 0.99742 0.00019
 Mn138 Mn 0.50826 0.99349 -0.04838
 Cl139 Cl 0.50732 0.99613 0.00088
 C140 C 0.43684 1.06215 -0.06326
 C141 C 0.43203 0.92778 -0.05715
 N142 N 0.97631 0.55339 0.53573
 N143 N 0.95141 0.57385 0.53987
 N144 N 1.04736 0.52950 0.55363
 N145 N 1.07134 0.53500 0.57190
 N146 N 1.04717 0.55200 0.53447
 N147 N 1.07095 0.57339 0.53916
 N148 N 0.97641 0.53086 0.55487
 N149 N 0.95152 0.53528 0.57249
 C150 C 0.93607 0.56221 0.56288
 C151 C 1.08610 0.56235 0.56244
 N152 N 1.04439 0.43797 0.53421
 N153 N 1.06943 0.41737 0.53727
 N154 N 0.97494 0.46181 0.55478
 N155 N 0.95026 0.45811 0.57270
 N156 N 0.97348 0.43969 0.53563
 N157 N 0.94772 0.42027 0.54010
 N158 N 1.04572 0.46021 0.55327
 N159 N 1.07170 0.45536 0.56977
 Mn160 Mn 1.01116 0.49555 0.55444
 C161 C 1.08632 0.42856 0.55951
 C162 C 0.93339 0.43215 0.56331
 N163 N 1.04573 0.55240 0.47513
 N164 N 1.07090 0.57249 0.47080
 N165 N 0.97366 0.53212 0.45696
 N166 N 0.94966 0.53909 0.43897
 N167 N 0.97505 0.55410 0.47624
 N168 N 0.95221 0.57657 0.47186
 N169 N 1.04458 0.53057 0.45572
 N170 N 1.06888 0.53539 0.43754
 Mn171 Mn 1.01106 0.55328 0.50537
 C172 C 1.08526 0.56154 0.44733
 C173 C 0.93631 0.56680 0.44871
 N174 N 0.97189 0.44003 0.47590
 N175 N 0.94845 0.41837 0.47084
 N176 N 1.04295 0.46104 0.45563
 N177 N 1.06737 0.45592 0.43770
 N178 N 1.04270 0.43841 0.47472
 N179 N 1.06686 0.41727 0.47024
 N180 N 0.97198 0.46243 0.45660
 N181 N 0.94858 0.45651 0.43790
 Mn182 Mn 1.00806 0.43865 0.50515
 Mn183 Mn 1.00826 0.49656 0.45588
 Cl184 Cl 1.00960 0.49599 0.50517
 C185 C 0.93381 0.42907 0.44720
 C186 C 1.08219 0.42855 0.44712
 N187 N 1.04727 0.43911 0.02939
 N188 N 1.06929 0.41638 0.03566
 N189 N 0.97635 0.45889 0.04983
 N190 N 0.95613 0.45094 0.07032
 N191 N 0.97670 0.43631 0.03104
 N192 N 0.95671 0.41227 0.03849
 N193 N 1.04691 0.46136 0.04849
 N194 N 1.06872 0.45430 0.06818
 C195 C 1.08288 0.42643 0.05973
 C196 C 0.94365 0.42202 0.06293
 N197 N 0.97144 0.55073 0.03085
 N198 N 0.94915 0.57280 0.03784
 N199 N 1.04382 0.53082 0.04874
 N200 N 1.06474 0.53884 0.06866
 N201 N 1.04198 0.55386 0.03008
 N202 N 1.06164 0.57818 0.03696
 N203 N 0.97321 0.52808 0.04988
 N204 N 0.95205 0.53407 0.07017
 Mn205 Mn 1.01011 0.49479 0.04935
 C206 C 0.93686 0.56181 0.06226
 C207 C 1.07612 0.56823 0.06091
 N208 N 0.97523 0.43718 -0.02876
 N209 N 0.95544 0.41281 -0.03482
 N210 N 1.04440 0.46246 -0.04933
 N211 N 1.06332 0.45473 -0.07068
 N212 N 1.04557 0.43960 -0.03039
 N213 N 1.06531 0.41588 -0.03854
 N214 N 0.97381 0.45947 -0.04817
 N215 N 0.95282 0.45064 -0.06790
 Mn216 Mn 1.01119 0.43789 0.00032
 C217 C 0.94119 0.42165 -0.05906
 C218 C 1.07672 0.42589 -0.06352
 N219 N 1.04088 0.55423 -0.02938
 N220 N 1.06178 0.57798 -0.03496
 N221 N 0.97083 0.52940 -0.04817
 N222 N 0.95074 0.53723 -0.06885
 N223 N 0.97031 0.55186 -0.02921
 N224 N 0.94989 0.57554 -0.03679
 N225 N 1.04142 0.53268 -0.04909
 N226 N 1.06251 0.54168 -0.06885
 Mn227 Mn 1.00608 0.55285 0.00057
 Mn228 Mn 1.00764 0.49601 -0.04887
 Cl229 Cl 1.00874 0.49538 0.00029
 C230 C 1.07544 0.56978 -0.05945
 C231 C 0.93735 0.56578 -0.06137
 N232 N 0.56394 1.03114 0.52959
 N233 N 0.58487 1.05451 0.53637
 N234 N 0.54270 0.96099 0.54544
 N235 N 0.54776 0.93591 0.56189
 N236 N 0.56710 0.96356 0.52729
 N237 N 0.58937 0.94040 0.53089
 N238 N 0.53969 1.02863 0.54786
 N239 N 0.54325 1.05025 0.56736
 C240 C 0.57138 1.06641 0.55993
 C241 C 0.57699 0.92322 0.55247
 N242 N 0.44752 0.95937 0.52356
 N243 N 0.42441 0.93714 0.52784
 N244 N 0.46767 1.02643 0.54530
 N245 N 0.46115 1.04933 0.56326
 N246 N 0.44543 1.02682 0.52526
 N247 N 0.42300 1.04971 0.52915
 N248 N 0.47014 0.95864 0.54330
 N249 N 0.46299 0.93580 0.56152
 Mn250 Mn 0.50506 0.99357 0.54578
 C251 C 0.43457 0.92229 0.55141
 C252 C 0.43322 1.06370 0.55285
 N253 N 0.56995 0.96666 0.46808
 N254 N 0.59299 0.94431 0.46431
 N255 N 0.54457 1.03378 0.44969
 N256 N 0.54994 1.05791 0.43234
 N257 N 0.56673 1.03413 0.46981
 N258 N 0.58787 1.05835 0.46656
 N259 N 0.54737 0.96594 0.44830
 N260 N 0.55448 0.94295 0.43053
 Mn261 Mn 0.56730 0.99900 0.49870
 C262 C 0.58301 0.92957 0.44089
 C263 C 0.57696 1.07315 0.44318
 N264 N 0.44811 1.02973 0.46576
 N265 N 0.42574 1.05271 0.46134
 N266 N 0.47446 0.96346 0.44575
 N267 N 0.47052 0.94023 0.42754
 N268 N 0.45069 0.96204 0.46454
 N269 N 0.43039 0.93764 0.46001
 N270 N 0.47219 1.03120 0.44726
 N271 N 0.46693 1.05530 0.42983
 Mn272 Mn 0.44763 0.99455 0.49474
 Mn273 Mn 0.50968 0.99853 0.44737
 Cl274 Cl 0.50743 0.99643 0.49663
 C275 C 0.43788 1.06862 0.43891
 C276 C 0.44303 0.92417 0.43693
 N277 N 1.04930 1.03775 0.52698
 N278 N 1.07384 1.05662 0.53559
 N279 N 1.02777 0.96819 0.53979
 N280 N 1.03716 0.94640 0.55813
 N281 N 1.05038 0.97104 0.52016
 N282 N 1.07600 0.95147 0.52498
 N283 N 1.02594 1.03518 0.54603
 N284 N 1.03357 1.05244 0.56774
 C285 C 1.06318 1.06606 0.56088
 C286 C 1.06700 0.93576 0.54849
 N287 N 0.93031 0.96890 0.52600
 N288 N 0.90604 0.94936 0.53444
 N289 N 0.95409 1.03349 0.54935
 N290 N 0.94775 1.05090 0.57138
 N291 N 0.92924 1.03572 0.53159
 N292 N 0.90536 1.05471 0.54105
 N293 N 0.95629 0.96659 0.54266
 N294 N 0.95081 0.94514 0.56219
 Mn295 Mn 0.99103 1.00090 0.54453
 C296 C 0.91973 0.93414 0.55669
 C297 C 0.91749 1.06435 0.56576
 N298 N 1.04592 0.97953 0.46060
 N299 N 1.06910 0.95998 0.45060
 N300 N 1.02015 1.04890 0.45006
 N301 N 1.02579 1.07222 0.43204
 N302 N 1.04516 1.04647 0.46768
 N303 N 1.06850 1.06810 0.46202
 N304 N 1.02074 0.98225 0.44319
 N305 N 1.02595 0.96481 0.42109
 Mn306 Mn 1.04809 1.00866 0.49380
 C307 C 1.05593 0.95075 0.42603
 C308 C 1.05579 1.08432 0.43997
 N309 N 0.92518 1.04396 0.47251
 N310 N 0.90165 1.06625 0.46963
 N311 N 0.94902 0.98054 0.44657
 N312 N 0.94361 0.95978 0.42667
 N313 N 0.92675 0.97697 0.46637
 N314 N 0.90535 0.95381 0.46034
 N315 N 0.94839 1.04754 0.45348
 N316 N 0.94178 1.07246 0.43750
 Mn317 Mn 0.92744 1.00633 0.49907
 Mn318 Mn 0.98450 1.01487 0.44815
 Cl319 Cl 0.98781 1.00764 0.49640
 C320 C 0.91281 1.08412 0.44791
 C321 C 0.91638 0.94320 0.43555
 N322 N 0.54555 0.52970 0.03047
 N323 N 0.57029 0.54879 0.03811
 N324 N 0.51963 0.46096 0.04095
 N325 N 0.52819 0.43819 0.05862
 N326 N 0.54206 0.46351 0.02116
 N327 N 0.56681 0.44280 0.02527
 N328 N 0.52289 0.52735 0.05005
 N329 N 0.53146 0.54476 0.07152
 C330 C 0.56089 0.55826 0.06367
 C331 C 0.55733 0.42665 0.04840
 N332 N 0.42291 0.46759 0.02753
 N333 N 0.40008 0.44488 0.03177
 N334 N 0.45095 0.52995 0.05347
 N335 N 0.44827 0.54965 0.07451
 N336 N 0.42587 0.53409 0.03619
 N337 N 0.40534 0.55667 0.04498
 N338 N 0.44845 0.46346 0.04434
 N339 N 0.44429 0.43777 0.05989
 Mn340 Mn 0.48543 0.49549 0.04742
 C341 C 0.41427 0.42617 0.05178
 C342 C 0.41981 0.56627 0.06882
 N343 N 0.53797 0.47580 -0.03797
 N344 N 0.56113 0.45773 -0.04980
 N345 N 0.51676 0.54700 -0.04513
 N346 N 0.52533 0.56886 -0.06368
 N347 N 0.54161 0.54179 -0.02780
 N348 N 0.56763 0.55998 -0.03415
 N349 N 0.51291 0.48098 -0.05511
 N350 N 0.51815 0.46644 -0.07877
 Mn351 Mn 0.54209 0.50258 -0.00355
 C352 C 0.54802 0.45164 -0.07510
 C353 C 0.55687 0.57720 -0.05624
 N354 N 0.42147 0.54613 -0.02236
 N355 N 0.39813 0.56861 -0.02536
 N356 N 0.44151 0.48354 -0.05101
 N357 N 0.43530 0.46406 -0.07160
 N358 N 0.41909 0.47990 -0.03136
 N359 N 0.39662 0.45805 -0.03820
 N360 N 0.44506 0.54982 -0.04108
 N361 N 0.43892 0.57505 -0.05683
 Mn362 Mn 0.42180 0.50686 0.00254
 Mn363 Mn 0.47894 0.51544 -0.04821
 Cl364 Cl 0.48212 0.50505 -0.00047
 C365 C 0.40993 0.58685 -0.04661
 C366 C 0.40734 0.44832 -0.06333
 C367 C 0.29958 1.17536 0.21267
 C368 C 0.31681 1.15660 0.19359
 C369 C 0.32190 1.16749 0.16645
 C370 C 0.30789 1.19727 0.15845
 C371 C 0.29038 1.21610 0.17762
 C372 C 0.28685 1.20589 0.20531
 C373 C 0.34410 1.14802 0.14834
 C374 C 0.34703 1.15164 0.12087
 C375 C 0.37031 1.13147 0.10433
 C376 C 0.36173 1.12346 0.07712
 C377 C 0.38255 1.10333 0.06156
 C378 C 0.41270 1.09124 0.07275
 C379 C 0.42199 1.10036 0.09955
 C380 C 0.40107 1.12024 0.11517
 H381 H 0.29765 1.16625 0.23361
 H382 H 0.32718 1.13377 0.20040
 H383 H 0.31171 1.20694 0.13789
 H384 H 0.28189 1.23961 0.17106
 H385 H 0.35845 1.12909 0.15839
 H386 H 0.33089 1.16835 0.10988
 H387 H 0.33843 1.13211 0.06815
 H388 H 0.37482 1.09689 0.04089
 H389 H 0.44520 1.09169 0.10866
 H390 H 0.40912 1.12686 0.13571
 C391 C 0.80887 0.71557 0.68160
 C392 C 0.82507 0.70007 0.66001
 C393 C 0.80945 0.67479 0.64617
 C394 C 0.77642 0.66615 0.65357
 C395 C 0.75961 0.68250 0.67480
 C396 C 0.77573 0.70739 0.68924
 C397 C 0.82902 0.65792 0.62469
 C398 C 0.82860 0.62590 0.62169
 C399 C 0.85403 0.60886 0.60471
 C400 C 0.86504 0.57825 0.61319
 C401 C 0.89133 0.56285 0.59934
 C402 C 0.90685 0.57758 0.57644
 C403 C 0.89477 0.60751 0.56710
 C404 C 0.86863 0.62301 0.58107
 H405 H 0.82276 0.73387 0.69251
 H406 H 0.85055 0.70709 0.65478
 H407 H 0.76366 0.64685 0.64299
 H408 H 0.73442 0.67503 0.68033
 H409 H 0.84791 0.67191 0.61387
 H410 H 0.81216 0.61157 0.63471
 H411 H 0.85407 0.56670 0.63119
 H412 H 0.89987 0.53963 0.60685
 H413 H 0.90595 0.61926 0.54929
 H414 H 0.86010 0.64615 0.57343
 C415 C 0.74242 0.79106 0.18300
 C416 C 0.72803 0.80946 0.16164
 C417 C 0.69324 0.80843 0.15669
 C418 C 0.67342 0.78729 0.17254
 C419 C 0.68756 0.76947 0.19403
 C420 C 0.72226 0.77104 0.19970
 C421 C 0.67802 0.82997 0.13546
 C422 C 0.64604 0.84019 0.13735
 C423 C 0.62913 0.86251 0.11770
 C424 C 0.59790 0.87534 0.12549
 C425 C 0.58063 0.89658 0.10814
 C426 C 0.59414 0.90548 0.08244
 C427 C 0.62509 0.89232 0.07425
 C428 C 0.64245 0.87093 0.09166
 H429 H 0.76908 0.79337 0.18691
 H430 H 0.74395 0.82532 0.14953
 H431 H 0.64680 0.78452 0.16865
 H432 H 0.67096 0.75451 0.20631
 H433 H 0.69419 0.83892 0.11919
 H434 H 0.63136 0.83306 0.15519
 H435 H 0.58685 0.86913 0.14528
 H436 H 0.55679 0.90624 0.11500
 H437 H 0.63598 0.89867 0.05444
 H438 H 0.66600 0.86108 0.08450
 C439 C 1.20155 0.27002 0.67785
 C440 C 1.18803 0.28599 0.65506
 C441 C 1.20642 0.30987 0.64132
 C442 C 1.23943 0.31650 0.64998
 C443 C 1.25347 0.29969 0.67244
 C444 C 1.23460 0.27629 0.68681
 C445 C 1.18946 0.32805 0.61899
 C446 C 1.19227 0.36000 0.61608
 C447 C 1.16818 0.37888 0.59910
 C448 C 1.15819 0.40935 0.60823
 C449 C 1.13214 0.42595 0.59491
 C450 C 1.11590 0.41252 0.57198
 C451 C 1.12730 0.38293 0.56178
 C452 C 1.15322 0.36626 0.57519
 H453 H 1.18563 0.25299 0.68866
 H454 H 1.16246 0.28063 0.64887
 H455 H 1.25423 0.33474 0.63953
 H456 H 1.27866 0.30579 0.67900
 H457 H 1.17004 0.31550 0.60769
 H458 H 1.20913 0.37300 0.62958
 H459 H 1.16950 0.41969 0.62646
 H460 H 1.12413 0.44890 0.60302
 H461 H 1.11559 0.37223 0.54388
 H462 H 1.16106 0.34326 0.56710
 C463 C 0.67627 1.23426 -0.19157
 C464 C 0.65979 1.21625 -0.17139
 C465 C 0.67708 1.19320 -0.15564
 C466 C 0.71210 1.18996 -0.15953
 C467 C 0.72883 1.20845 -0.17970
 C468 C 0.71098 1.23040 -0.19644
 C469 C 0.65663 1.17221 -0.13710
 C470 C 0.66841 1.14761 -0.12186
 C471 C 0.64576 1.12597 -0.10591
 C472 C 0.65758 1.11157 -0.08149
 C473 C 0.63713 1.09053 -0.06634
 C474 C 0.60457 1.08295 -0.07557
 C475 C 0.59278 1.09704 -0.10018
 C476 C 0.61314 1.11835 -0.11521
 H477 H 0.66120 1.25049 -0.20404
 H478 H 0.63292 1.21950 -0.16891
 H479 H 0.72665 1.17266 -0.14781
 H480 H 0.75543 1.20447 -0.18296
 H481 H 0.62984 1.17698 -0.13660
 H482 H 0.69513 1.14316 -0.12041
 H483 H 0.68268 1.11675 -0.07404
 H484 H 0.64701 1.07988 -0.04753
 H485 H 0.56793 1.09143 -0.10791
 H486 H 0.60356 1.12817 -0.13443
 C487 C 1.18595 0.71262 0.31116
 C488 C 1.17155 0.69088 0.32958
 C489 C 1.19167 0.67089 0.34600
 C490 C 1.22687 0.67392 0.34447
 C491 C 1.24152 0.69559 0.32550
 C492 C 1.22116 0.71478 0.30814
 C493 C 1.17456 0.64556 0.36230
 C494 C 1.18412 0.63564 0.38747
 C495 C 1.16229 0.61365 0.40372
 C496 C 1.15575 0.62022 0.43156
 C497 C 1.13131 0.60266 0.44604
 C498 C 1.11350 0.57780 0.43305
 C499 C 1.12168 0.56986 0.40574
 C500 C 1.14574 0.58769 0.39118
 H501 H 1.16909 0.72689 0.29849
 H502 H 1.14438 0.68911 0.33049
 H503 H 1.24297 0.65845 0.35679
 H504 H 1.26862 0.69626 0.32362
 H505 H 1.15091 0.63683 0.35411
 H506 H 1.20561 0.64665 0.39737
 H507 H 1.16832 0.63999 0.44169
 H508 H 1.12576 0.60907 0.46719
 H509 H 1.10860 0.55065 0.39529
 H510 H 1.15084 0.58168 0.36986
 C511 C 0.26672 0.82768 -0.19686
 C512 C 0.28511 0.84640 -0.17836
 C513 C 0.30561 0.83198 -0.15823
 C514 C 0.30559 0.79827 -0.15591
 C515 C 0.28745 0.77954 -0.17469
 C516 C 0.26901 0.79377 -0.19645
 C517 C 0.32872 0.85263 -0.14197
 C518 C 0.34140 0.84452 -0.11717
 C519 C 0.36536 0.86549 -0.10216
 C520 C 0.36319 0.86773 -0.07332
 C521 C 0.38507 0.88776 -0.05872
 C522 C 0.41029 0.90522 -0.07258
 C523 C 0.41330 0.90210 -0.10134
 C524 C 0.39087 0.88265 -0.11604
 H525 H 0.25230 0.84014 -0.21262
 H526 H 0.28422 0.87235 -0.18043
 H527 H 0.32095 0.78613 -0.14060
 H528 H 0.28882 0.75396 -0.17215
 H529 H 0.33512 0.87590 -0.15075
 H530 H 0.33278 0.82288 -0.10682
 H531 H 0.34402 0.85449 -0.06213
 H532 H 0.38226 0.88962 -0.03654
 H533 H 0.43248 0.91529 -0.11255
 H534 H 0.39369 0.88080 -0.13821
 C535 C 0.75779 0.33513 0.30890
 C536 C 0.77458 0.35446 0.32800
 C537 C 0.79704 0.34103 0.34726
 C538 C 0.80093 0.30738 0.34774
 C539 C 0.78407 0.28810 0.32863
 C540 C 0.76314 0.30157 0.30814
 C541 C 0.81749 0.36307 0.36477
 C542 C 0.83610 0.35353 0.38657
 C543 C 0.85912 0.37495 0.40235
 C544 C 0.87072 0.36445 0.42833
 C545 C 0.89431 0.38239 0.44311
 C546 C 0.90713 0.41130 0.43222
 C547 C 0.89524 0.42221 0.40645
 C548 C 0.87160 0.40424 0.39161
 H549 H 0.74171 0.34692 0.29387
 H550 H 0.77076 0.38025 0.32711
 H551 H 0.81792 0.29562 0.36201
 H552 H 0.78820 0.26274 0.33004
 H553 H 0.81713 0.38828 0.35910
 H554 H 0.83453 0.32887 0.39366
 H555 H 0.86181 0.34197 0.43710
 H556 H 0.90294 0.37329 0.46290
 H557 H 0.90479 0.44431 0.39744
 H558 H 0.86417 0.41295 0.37142
 C559 C 1.21450 0.25733 0.17763
 C560 C 1.19786 0.27157 0.15501
 C561 C 1.20176 0.30453 0.14918
 C562 C 1.22466 0.32222 0.16500
 C563 C 1.24041 0.30834 0.18777
 C564 C 1.23545 0.27580 0.19480
 C565 C 1.18064 0.32057 0.12775
 C566 C 1.17129 0.35153 0.13022
 C567 C 1.14935 0.36984 0.11086
 C568 C 1.13889 0.35820 0.08502
 C569 C 1.11776 0.37684 0.06806
 C570 C 1.10683 0.40737 0.07657
 C571 C 1.11785 0.41914 0.10205
 C572 C 1.13884 0.40063 0.11892
 H573 H 1.20984 0.23221 0.18230
 H574 H 1.18075 0.25720 0.14286
 H575 H 1.22963 0.34731 0.16052
 H576 H 1.25487 0.32408 0.20062
 H577 H 1.17111 0.30609 0.11106
 H578 H 1.17901 0.36441 0.14848
 H579 H 1.14681 0.33492 0.07772
 H580 H 1.10969 0.36722 0.04844
 H581 H 1.10993 0.44258 0.10916
 H582 H 1.14664 0.41039 0.13858
 C583 C 0.68611 0.74153 0.67372
 C584 C 0.66601 0.75412 0.65230
 C585 C 0.66472 0.78743 0.64737
 C586 C 0.68296 0.80795 0.66458
 C587 C 0.70217 0.79561 0.68615
 C588 C 0.70452 0.76219 0.69093
 C589 C 0.64299 0.80140 0.62553
 C590 C 0.65359 0.82652 0.61034
 C591 C 0.63156 0.84698 0.59294
 C592 C 0.64623 0.86481 0.57140
 C593 C 0.62792 0.88860 0.55749
 C594 C 0.59469 0.89555 0.56524
 C595 C 0.57949 0.87699 0.58617
 C596 C 0.59772 0.85277 0.59985
 H597 H 0.68674 0.71577 0.67704
 H598 H 0.65166 0.73789 0.63950
 H599 H 0.68167 0.83380 0.66184
 H600 H 0.71533 0.81262 0.69902
 H601 H 0.61787 0.79188 0.62285
 H602 H 0.67979 0.83359 0.61172
 H603 H 0.67234 0.86102 0.56590
 H604 H 0.64030 0.90244 0.54141
 H605 H 0.55388 0.88181 0.59250
 H606 H 0.58591 0.83995 0.61680
 C607 C 1.16834 0.72097 -0.20835
 C608 C 1.15022 0.70278 -0.18922
 C609 C 1.16250 0.69765 -0.16245
 C610 C 1.19205 0.71381 -0.15447
 C611 C 1.21009 0.73250 -0.17369
 C612 C 1.19955 0.73488 -0.20138
 C613 C 1.14417 0.67414 -0.14466
 C614 C 1.15516 0.66237 -0.12040
 C615 C 1.13624 0.63719 -0.10507
 C616 C 1.13465 0.63843 -0.07619
 C617 C 1.11549 0.61598 -0.06138
 C618 C 1.09825 0.59130 -0.07511
 C619 C 1.10122 0.58902 -0.10390
 C620 C 1.11989 0.61187 -0.11879
 H621 H 1.15840 0.72236 -0.22911
 H622 H 1.12721 0.69129 -0.19591
 H623 H 1.20202 0.71146 -0.13379
 H624 H 1.23331 0.74319 -0.16715
 H625 H 1.12059 0.66504 -0.15265
 H626 H 1.17775 0.67165 -0.11097
 H627 H 1.14737 0.65743 -0.06515
 H628 H 1.11380 0.61817 -0.03915
 H629 H 1.08826 0.57021 -0.11498
 H630 H 1.12149 0.60972 -0.14102
 C631 C 0.65879 1.23956 0.30399
 C632 C 0.63971 1.22562 0.32506
 C633 C 0.65434 1.21785 0.35053
 C634 C 0.68777 1.22724 0.35547
 C635 C 0.70676 1.24193 0.33446
 C636 C 0.69317 1.24660 0.30788
 C637 C 0.63426 1.19844 0.37040
 C638 C 0.64785 1.17692 0.38796
 C639 C 0.62768 1.15244 0.40320
 C640 C 0.64118 1.13810 0.42711
 C641 C 0.62429 1.11293 0.44057
 C642 C 0.59373 1.10122 0.43013
 C643 C 0.57998 1.11573 0.40640
 C644 C 0.59674 1.14100 0.39303
 H645 H 0.64657 1.24339 0.28428
 H646 H 0.61380 1.21924 0.32085
 H647 H 0.69955 1.22269 0.37528
 H648 H 0.73266 1.24759 0.33869
 H649 H 0.60720 1.19963 0.36829
 H650 H 0.67490 1.17579 0.39031
 H651 H 0.66512 1.14614 0.43520
 H652 H 0.63556 1.10215 0.45879
 H653 H 0.55655 1.10712 0.39778
 H654 H 0.58595 1.15051 0.37416
 C655 C 0.80568 0.72600 0.18284
 C656 C 0.82336 0.71136 0.16125
 C657 C 0.81949 0.67839 0.15598
 C658 C 0.79622 0.66077 0.17184
 C659 C 0.77908 0.67517 0.19353
 C660 C 0.78352 0.70798 0.19949
 C661 C 0.84038 0.66284 0.13438
 C662 C 0.84826 0.63140 0.13544
 C663 C 0.87027 0.61443 0.11551
 C664 C 0.88180 0.58359 0.12284
 C665 C 0.90289 0.56640 0.10531
 C666 C 0.91292 0.57957 0.07985
 C667 C 0.90089 0.61012 0.07205
 C668 C 0.87969 0.62742 0.08967
 H669 H 0.81025 0.75114 0.18694
 H670 H 0.84089 0.72561 0.14918
 H671 H 0.79121 0.63570 0.16778
 H672 H 0.76243 0.66023 0.20579
 H673 H 0.85110 0.67815 0.11853
 H674 H 0.83962 0.61717 0.15285
 H675 H 0.87477 0.57280 0.14246
 H676 H 0.91163 0.54287 0.11187
 H677 H 0.90811 0.62078 0.05245
 H678 H 0.87076 0.65072 0.08285
 C679 C 0.32228 1.23933 0.67613
 C680 C 0.34267 1.22638 0.65537
 C681 C 0.34247 1.19322 0.65033
 C682 C 0.32242 1.17309 0.66684
 C683 C 0.30280 1.18580 0.68784
 C684 C 0.30193 1.21916 0.69258
 C685 C 0.36459 1.17918 0.62909
 C686 C 0.35409 1.15468 0.61352
 C687 C 0.37648 1.13533 0.59590
 C688 C 0.36257 1.11931 0.57325
 C689 C 0.38157 1.09702 0.55853
 C690 C 0.41464 1.08976 0.56663
 C691 C 0.42896 1.10639 0.58883
 C692 C 0.41011 1.12915 0.60329
 H693 H 0.32296 1.26499 0.67955
 H694 H 0.35845 1.24224 0.64315
 H695 H 0.32258 1.14729 0.66401
 H696 H 0.28813 1.16923 0.70028
 H697 H 0.38981 1.18861 0.62673
 H698 H 0.32784 1.14769 0.61434
 H699 H 0.33661 1.12345 0.56738
 H700 H 0.36989 1.08454 0.54150
 H701 H 0.45444 1.10124 0.59545
 H702 H 0.42129 1.14055 0.62107
 C703 C 0.77492 0.32591 -0.19778
 C704 C 0.79246 0.34230 -0.17752
 C705 C 0.81342 0.32589 -0.15897
 C706 C 0.81547 0.29205 -0.16060
 C707 C 0.79733 0.27538 -0.18093
 C708 C 0.77700 0.29218 -0.19998
 C709 C 0.83279 0.34584 -0.13925
 C710 C 0.85884 0.33573 -0.12390
 C711 C 0.87901 0.35842 -0.10714
 C712 C 0.89374 0.34765 -0.08243
 C713 C 0.91331 0.36844 -0.06653
 C714 C 0.91907 0.40031 -0.07529
 C715 C 0.90464 0.41104 -0.10016
 C716 C 0.88484 0.39034 -0.11594
 H717 H 0.75971 0.34012 -0.21184
 H718 H 0.79019 0.36825 -0.17682
 H719 H 0.83100 0.27836 -0.14645
 H720 H 0.79973 0.24949 -0.18203
 H721 H 0.82583 0.37100 -0.13821
 H722 H 0.86578 0.31060 -0.12336
 H723 H 0.88995 0.32313 -0.07535
 H724 H 0.92434 0.35939 -0.04754
 H725 H 0.90894 0.43534 -0.10757
 H726 H 0.87484 0.39919 -0.13535
 C727 C 0.27395 0.81626 0.31468
 C728 C 0.29476 0.83315 0.33255
 C729 C 0.32109 0.81760 0.34647
 C730 C 0.32488 0.78416 0.34355
 C731 C 0.30407 0.76716 0.32542
 C732 C 0.27910 0.78324 0.30995
 C733 C 0.34583 0.83772 0.36122
 C734 C 0.36507 0.82740 0.38217
 C735 C 0.38829 0.84974 0.39613
 C736 C 0.38798 0.85169 0.42498
 C737 C 0.40668 0.87541 0.43830
 C738 C 0.42680 0.89688 0.42301
 C739 C 0.42885 0.89356 0.39426
 C740 C 0.40944 0.87038 0.38087
 H741 H 0.25513 0.82972 0.30329
 H742 H 0.29118 0.85886 0.33458
 H743 H 0.34520 0.77147 0.35377
 H744 H 0.30909 0.74188 0.32225
 H745 H 0.34748 0.86279 0.35500
 H746 H 0.36165 0.80351 0.39078
 H747 H 0.37199 0.83589 0.43709
 H748 H 0.40488 0.87741 0.46054
 H749 H 0.44418 0.90985 0.38206
 H750 H 0.41042 0.86893 0.35856
 C751 C 1.17878 1.19850 0.28086
 C752 C 1.15480 1.18389 0.29799
 C753 C 1.15340 1.19111 0.32623
 C754 C 1.17536 1.21442 0.33671
 C755 C 1.19944 1.22863 0.31976
 C756 C 1.20186 1.22076 0.29164
 C757 C 1.12946 1.17352 0.34426
 C758 C 1.13468 1.16936 0.37147
 C759 C 1.11288 1.14953 0.38955
 C760 C 1.12653 1.13700 0.41414
 C761 C 1.10761 1.11662 0.43109
 C762 C 1.07455 1.10855 0.42383
 C763 C 1.06027 1.12227 0.39995
 C764 C 1.07919 1.14267 0.38298
 H765 H 1.17961 1.19173 0.25934
 H766 H 1.13788 1.16625 0.28930
 H767 H 1.17441 1.22164 0.35810
 H768 H 1.21701 1.24474 0.32931
 H769 H 1.10855 1.16164 0.33435
 H770 H 1.15740 1.17863 0.38075
 H771 H 1.15227 1.14228 0.41987
 H772 H 1.11916 1.10652 0.44948
 H773 H 1.03466 1.11675 0.39406
 H774 H 1.06734 1.15285 0.36480
 C775 C 0.68279 0.66851 -0.22576
 C776 C 0.66293 0.65067 -0.20738
 C777 C 0.66605 0.65497 -0.17878
 C778 C 0.68967 0.67709 -0.16887
 C779 C 0.70955 0.69448 -0.18705
 C780 C 0.70606 0.69105 -0.21576
 C781 C 0.64266 0.63831 -0.15985
 C782 C 0.64896 0.63488 -0.13279
 C783 C 0.62440 0.62202 -0.11287
 C784 C 0.63626 0.60998 -0.08755
 C785 C 0.61399 0.59690 -0.06834
 C786 C 0.57946 0.59579 -0.07416
 C787 C 0.56732 0.60944 -0.09880
 C788 C 0.58958 0.62261 -0.11799
 H789 H 0.67922 0.66520 -0.24771
 H790 H 0.64461 0.63398 -0.21552
 H791 H 0.69206 0.68239 -0.14716
 H792 H 0.72659 0.71180 -0.17823
 H793 H 0.61961 0.62897 -0.16854
 H794 H 0.67344 0.64101 -0.12466
 H795 H 0.66292 0.60994 -0.08292
 H796 H 0.62396 0.58663 -0.04940
 H797 H 0.54072 0.60916 -0.10359
 H798 H 0.57937 0.63311 -0.13671
 C799 C 0.82223 1.21326 0.71640
 C800 C 0.84241 1.19226 0.70138
 C801 C 0.82786 1.16751 0.68602
 C802 C 0.79301 1.16233 0.68793
 C803 C 0.77285 1.18327 0.70302
 C804 C 0.78692 1.21027 0.71590
 C805 C 0.84957 1.14799 0.66795
 C806 C 0.83824 1.13509 0.64443
 C807 C 0.85978 1.11766 0.62461
 C808 C 0.84787 1.11345 0.59759
 C809 C 0.86692 1.09667 0.57825
 C810 C 0.89826 1.08370 0.58561
 C811 C 0.91036 1.08799 0.61256
 C812 C 0.89125 1.10461 0.63196
 H813 H 0.83430 1.23278 0.72722
 H814 H 0.86934 1.19613 0.70090
 H815 H 0.78121 1.14223 0.67772
 H816 H 0.74614 1.17852 0.70410
 H817 H 0.87604 1.14693 0.67299
 H818 H 0.81232 1.13906 0.63843
 H819 H 0.82367 1.12312 0.59141
 H820 H 0.85695 1.09360 0.55762
 H821 H 0.93432 1.07790 0.61885
 H822 H 0.90101 1.10641 0.65272
 C823 C 0.32957 0.73218 0.20719
 C824 C 0.35221 0.71593 0.19031
 C825 C 0.34875 0.68285 0.18643
 C826 C 0.32460 0.66568 0.20162
 C827 C 0.30229 0.68185 0.21870
 C828 C 0.30292 0.71556 0.22010
 C829 C 0.36917 0.66660 0.16557
 C830 C 0.35464 0.64617 0.14810
 C831 C 0.37314 0.62873 0.12671
 C832 C 0.35565 0.61891 0.10313
 C833 C 0.37136 0.59967 0.08360
 C834 C 0.40463 0.58949 0.08769
 C835 C 0.42246 0.59994 0.11095
 C836 C 0.40686 0.61950 0.13034
 H837 H 0.33256 0.75786 0.20949
 H838 H 0.37144 0.72937 0.17936
 H839 H 0.32268 0.63979 0.19992
 H840 H 0.28443 0.66778 0.23048
 H841 H 0.39535 0.67325 0.16326
 H842 H 0.32762 0.64269 0.14900
 H843 H 0.32958 0.62568 0.10007
 H844 H 0.35709 0.59183 0.06584
 H845 H 0.44817 0.59231 0.11451
 H846 H 0.42073 0.62614 0.14866
 C847 C 1.18611 0.82698 0.71291
 C848 C 1.16801 0.84532 0.69368
 C849 C 1.17304 0.84137 0.66521
 C850 C 1.19722 0.81904 0.65639
 C851 C 1.21541 0.80087 0.67560
 C852 C 1.20977 0.80408 0.70416
 C853 C 1.15112 0.85951 0.64573
 C854 C 1.15611 0.86163 0.61832
 C855 C 1.13252 0.87882 0.59964
 C856 C 1.14459 0.89242 0.57490
 C857 C 1.12311 0.91004 0.55753
 C858 C 1.08913 0.91409 0.56458
 C859 C 1.07672 0.89909 0.58858
 C860 C 1.09810 0.88152 0.60585
 H861 H 1.18091 0.83042 0.73462
 H862 H 1.14949 0.86228 0.70112
 H863 H 1.20160 0.81452 0.63475
 H864 H 1.23311 0.78345 0.66779
 H865 H 1.12993 0.87203 0.65468
 H866 H 1.17865 0.85185 0.60917
 H867 H 1.17089 0.89017 0.56940
 H868 H 1.13328 0.92125 0.53908
 H869 H 1.05051 0.90139 0.59431
 H870 H 1.08751 0.87012 0.62404
 C871 C 0.67645 0.33251 0.21785
 C872 C 0.65784 0.34932 0.19789
 C873 C 0.66217 0.34293 0.16967
 C874 C 0.68579 0.31971 0.16178
 C875 C 0.70438 0.30319 0.18157
 C876 C 0.69971 0.30884 0.20994
 C877 C 0.64003 0.35899 0.14925
 C878 C 0.64655 0.36005 0.12206
 C879 C 0.62292 0.37417 0.10185
 C880 C 0.63549 0.38768 0.07729
 C881 C 0.61385 0.40322 0.05874
 C882 C 0.57934 0.40520 0.06453
 C883 C 0.56651 0.38965 0.08809
 C884 C 0.58805 0.37415 0.10655
 H885 H 0.67196 0.33758 0.23943
 H886 H 0.63955 0.36696 0.20453
 H887 H 0.68925 0.31304 0.14046
 H888 H 0.72154 0.28498 0.17433
 H889 H 0.61756 0.37048 0.15708
 H890 H 0.67045 0.35173 0.11421
 H891 H 0.66222 0.38732 0.07299
 H892 H 0.62432 0.41497 0.04064
 H893 H 0.53988 0.39040 0.09277
 H894 H 0.57735 0.36255 0.12460
 C895 C 0.81898 0.80177 0.28022
 C896 C 0.83820 0.82184 0.29701
 C897 C 0.83620 0.81940 0.32589
 C898 C 0.81548 0.79561 0.33765
 C899 C 0.79607 0.77589 0.32093
 C900 C 0.79732 0.77869 0.29196
 C901 C 0.85605 0.84192 0.34294
 C902 C 0.84864 0.84843 0.36937
 C903 C 0.86729 0.87191 0.38636
 C904 C 0.85212 0.88324 0.41061
 C905 C 0.86829 0.90599 0.42697
 C906 C 0.89996 0.91787 0.41933
 C907 C 0.91561 0.90599 0.39554
 C908 C 0.89961 0.88305 0.37931
 H909 H 0.82082 0.80481 0.25805
 H910 H 0.85426 0.83973 0.28738
 H911 H 0.81404 0.79193 0.35974
 H912 H 0.77961 0.75878 0.33100
 H913 H 0.87609 0.85481 0.33262
 H914 H 0.82673 0.83759 0.37881
 H915 H 0.82742 0.87480 0.41671
 H916 H 0.85574 0.91470 0.44530
 H917 H 0.94029 0.91444 0.38942
 H918 H 0.91289 0.87414 0.36147
 C919 C 0.31877 0.31684 -0.22686
 C920 C 0.33467 0.33811 -0.20895
 C921 C 0.33014 0.33520 -0.18032
 C922 C 0.31008 0.31022 -0.16984
 C923 C 0.29392 0.28940 -0.18762
 C924 C 0.29807 0.29221 -0.21638
 C925 C 0.34762 0.35770 -0.16193
 C926 C 0.33800 0.36273 -0.13579
 C927 C 0.35659 0.38368 -0.11683
 C928 C 0.33987 0.39601 -0.09369
 C929 C 0.35658 0.41644 -0.07559
 C930 C 0.39019 0.42476 -0.08054
 C931 C 0.40727 0.41150 -0.10304
 C932 C 0.39077 0.39087 -0.12088
 H933 H 0.32260 0.31993 -0.24885
 H934 H 0.35040 0.35699 -0.21749
 H935 H 0.30697 0.30615 -0.14791
 H936 H 0.27807 0.27111 -0.17850
 H937 H 0.36851 0.37103 -0.17060
 H938 H 0.31501 0.35213 -0.12802
 H939 H 0.31368 0.39029 -0.08991
 H940 H 0.34303 0.42638 -0.05823
 H941 H 0.43345 0.41715 -0.10690
 H942 H 0.40503 0.38056 -0.13763
 C943 C 1.19921 0.25370 -0.18651
 C944 C 1.18075 0.26833 -0.16520
 C945 C 1.18090 0.30196 -0.16209
 C946 C 1.20086 0.32044 -0.18009
 C947 C 1.21868 0.30607 -0.20136
 C948 C 1.21840 0.27246 -0.20498
 C949 C 1.16083 0.31752 -0.13986
 C950 C 1.14956 0.34796 -0.14240
 C951 C 1.13132 0.36672 -0.12103
 C952 C 1.12406 0.35504 -0.09428
 C953 C 1.10685 0.37443 -0.07530
 C954 C 1.09672 0.40579 -0.08263
 C955 C 1.10444 0.41748 -0.10913
 C956 C 1.12144 0.39822 -0.12801
 H957 H 1.19810 0.22786 -0.18868
 H958 H 1.16593 0.25341 -0.15140
 H959 H 1.20324 0.34618 -0.17774
 H960 H 1.23323 0.32171 -0.21473
 H961 H 1.15507 0.30339 -0.12163
 H962 H 1.15370 0.36044 -0.16181
 H963 H 1.13141 0.33112 -0.08782
 H964 H 1.10120 0.36476 -0.05499
 H965 H 1.09699 0.44150 -0.11546
 H966 H 1.12680 0.40808 -0.14833
 C967 C 0.69148 0.74663 0.32347
 C968 C 0.67209 0.76175 0.34379
 C969 C 0.67689 0.79442 0.34970
 C970 C 0.70150 0.81165 0.33503
 C971 C 0.72029 0.79683 0.31449
 C972 C 0.71562 0.76410 0.30828
 C973 C 0.65408 0.81109 0.36911
 C974 C 0.66438 0.83610 0.38421
 C975 C 0.64150 0.85691 0.40026
 C976 C 0.65452 0.87357 0.42292
 C977 C 0.63504 0.89637 0.43663
 C978 C 0.60229 0.90353 0.42757
 C979 C 0.58892 0.88649 0.40518
 C980 C 0.60829 0.86325 0.39169
 H981 H 0.68651 0.72165 0.31896
 H982 H 0.65291 0.74809 0.35456
 H983 H 0.70512 0.83713 0.33835
 H984 H 0.73774 0.81157 0.30283
 H985 H 0.62828 0.80292 0.37056
 H986 H 0.69091 0.84201 0.38468
 H987 H 0.68012 0.86935 0.42972
 H988 H 0.64604 0.90913 0.45381
 H989 H 0.56374 0.89156 0.39778
 H990 H 0.59777 0.85140 0.37386
 C991 C 0.80452 0.73347 -0.18496
 C992 C 0.82379 0.71989 -0.16337
 C993 C 0.82463 0.68636 -0.15906
 C994 C 0.80459 0.66695 -0.17599
 C995 C 0.78599 0.68027 -0.19755
 C996 C 0.78551 0.71373 -0.20253
 C997 C 0.84602 0.67178 -0.13687
 C998 C 0.85839 0.64173 -0.13907
 C999 C 0.87815 0.62363 -0.11787
 C1000 C 0.88795 0.59212 -0.12437
 C1001 C 0.90644 0.57340 -0.10576
 C1002 C 0.91586 0.58561 -0.07998
 C1003 C 0.90585 0.61701 -0.07308
 C1004 C 0.88710 0.63589 -0.09182
 H1005 H 0.80499 0.75925 -0.18815
 H1006 H 0.83860 0.73553 -0.15039
 H1007 H 0.80295 0.64125 -0.17266
 H1008 H 0.77164 0.66393 -0.21021
 H1009 H 0.85183 0.68624 -0.11906
 H1010 H 0.85397 0.62901 -0.15814
 H1011 H 0.88135 0.58180 -0.14412
 H1012 H 0.91369 0.54935 -0.11178
 H1013 H 0.91281 0.62709 -0.05334
 H1014 H 0.87995 0.65990 -0.08580
 C1015 C 0.27170 1.19557 0.32331
 C1016 C 0.28719 1.17960 0.34535
 C1017 C 0.31665 1.19176 0.35714
 C1018 C 0.32901 1.22159 0.34775
 C1019 C 0.31304 1.23801 0.32597
 C1020 C 0.28441 1.22497 0.31306
 C1021 C 0.33445 1.17171 0.37802
 C1022 C 0.36811 1.17053 0.37998
 C1023 C 0.38622 1.14589 0.39674
 C1024 C 0.41853 1.13635 0.38843
 C1025 C 0.43551 1.11159 0.40236
 C1026 C 0.42070 1.09605 0.42517
 C1027 C 0.38896 1.10643 0.43425
 C1028 C 0.37188 1.13111 0.42022
 H1029 H 0.25075 1.18375 0.31345
 H1030 H 0.27717 1.15664 0.35214
 H1031 H 0.35134 1.23196 0.35683
 H1032 H 0.32404 1.26025 0.31854
 H1033 H 0.31947 1.15442 0.38944
 H1034 H 0.38307 1.18571 0.36647
 H1035 H 0.43031 1.14749 0.37059
 H1036 H 0.46007 1.10432 0.39502
 H1037 H 0.37708 1.09516 0.45197
 H1038 H 0.34751 1.13847 0.42783
 C1039 C 1.20052 0.74100 0.18023
 C1040 C 1.18417 0.72589 0.15810
 C1041 C 1.18588 0.69234 0.15500
 C1042 C 1.20587 0.67457 0.17356
 C1043 C 1.22158 0.68946 0.19571
 C1044 C 1.21919 0.72287 0.19960
 C1045 C 1.16640 0.67616 0.13276
 C1046 C 1.15552 0.64566 0.13561
 C1047 C 1.13630 0.62689 0.11486
 C1048 C 1.12922 0.59459 0.12132
 C1049 C 1.11044 0.57557 0.10345
 C1050 C 1.09806 0.58829 0.07853
 C1051 C 1.10554 0.62041 0.07157
 C1052 C 1.12451 0.63960 0.08955
 H1053 H 1.19794 0.76677 0.18247
 H1054 H 1.16935 0.74030 0.14388
 H1055 H 1.20923 0.64890 0.17137
 H1056 H 1.23462 0.67420 0.21024
 H1057 H 1.16021 0.69007 0.11450
 H1058 H 1.16048 0.63322 0.15490
 H1059 H 1.13802 0.58397 0.14052
 H1060 H 1.10522 0.55092 0.10943
 H1061 H 1.09626 0.63087 0.05248
 H1062 H 1.12931 0.66428 0.08364
 C1063 C 0.72188 1.22573 0.66938
 C1064 C 0.70582 1.20961 0.64781
 C1065 C 0.67244 1.19920 0.65057
 C1066 C 0.65477 1.20727 0.67470
 C1067 C 0.67091 1.22296 0.69632
 C1068 C 0.70510 1.23160 0.69443
 C1069 C 0.65710 1.17953 0.62836
 C1070 C 0.63170 1.15897 0.63323
 C1071 C 0.61627 1.13754 0.61241
 C1072 C 0.58477 1.12416 0.61861
 C1073 C 0.56997 1.10183 0.60110
 C1074 C 0.58643 1.09205 0.57694
 C1075 C 0.61765 1.10586 0.57022
 C1076 C 0.63253 1.12842 0.58782
 H1077 H 0.74792 1.23198 0.66676
 H1078 H 0.71993 1.20424 0.62927
 H1079 H 0.62846 1.20140 0.67720
 H1080 H 0.65639 1.22767 0.71474
 H1081 H 0.66805 1.18119 0.60795
 H1082 H 0.62150 1.15705 0.65388
 H1083 H 0.57168 1.13067 0.63738
 H1084 H 0.54584 1.09173 0.60682
 H1085 H 0.63093 1.09864 0.55176
 H1086 H 0.65712 1.13765 0.58252
 C1087 C 0.79981 0.26284 0.18571
 C1088 C 0.82077 0.27435 0.16436
 C1089 C 0.82204 0.30738 0.15789
 C1090 C 0.80065 0.32832 0.17219
 C1091 C 0.78038 0.31707 0.19355
 C1092 C 0.77956 0.28419 0.20082
 C1093 C 0.84565 0.32007 0.13650
 C1094 C 0.85886 0.34973 0.13863
 C1095 C 0.88074 0.36648 0.11814
 C1096 C 0.89163 0.39756 0.12482
 C1097 C 0.91155 0.41536 0.10667
 C1098 C 0.92141 0.40265 0.08119
 C1099 C 0.91058 0.37156 0.07417
 C1100 C 0.89032 0.35358 0.09247
 H1101 H 0.80010 0.23745 0.19075
 H1102 H 0.83666 0.25758 0.15340
 H1103 H 0.79951 0.35367 0.16704
 H1104 H 0.76523 0.33455 0.20434
 H1105 H 0.85246 0.30464 0.11954
 H1106 H 0.85331 0.36324 0.15710
 H1107 H 0.88461 0.40833 0.14429
 H1108 H 0.91940 0.43920 0.11279
 H1109 H 0.91785 0.36114 0.05464
 H1110 H 0.88232 0.32985 0.08637
 C1111 C 0.31241 0.75842 0.68261
 C1112 C 0.33407 0.76983 0.66185
 C1113 C 0.33420 0.80252 0.65440
 C1114 C 0.31292 0.82373 0.66847
 C1115 C 0.29197 0.81256 0.68947
 C1116 C 0.29100 0.77969 0.69669
 C1117 C 0.35800 0.81492 0.63334
 C1118 C 0.34931 0.83878 0.61593
 C1119 C 0.37322 0.85593 0.59760
 C1120 C 0.36075 0.87115 0.57374
 C1121 C 0.38125 0.89147 0.55800
 C1122 C 0.41452 0.89760 0.56615
 C1123 C 0.42743 0.88162 0.58955
 C1124 C 0.40702 0.86082 0.60509
 H1125 H 0.31299 0.73311 0.68794
 H1126 H 0.35071 0.75313 0.65157
 H1127 H 0.31322 0.84926 0.66385
 H1128 H 0.27658 0.82998 0.70013
 H1129 H 0.38294 0.80450 0.63240
 H1130 H 0.32334 0.84670 0.61538
 H1131 H 0.33474 0.86797 0.56768
 H1132 H 0.37058 0.90346 0.54008
 H1133 H 0.45299 0.88592 0.59630
 H1134 H 0.41720 0.85002 0.62372
 C1135 C 0.26580 1.19044 -0.18496
 C1136 C 0.28046 1.17255 -0.16337
 C1137 C 0.31446 1.17685 -0.15639
 C1138 C 0.33286 1.20085 -0.17025
 C1139 C 0.31849 1.21828 -0.19190
 C1140 C 0.28481 1.21326 -0.19985
 C1141 C 0.33050 1.15564 -0.13526
 C1142 C 0.36349 1.14850 -0.13601
 C1143 C 0.38123 1.12657 -0.11647
 C1144 C 0.41337 1.11556 -0.12388
 C1145 C 0.43148 1.09499 -0.10645
 C1146 C 0.41797 1.08501 -0.08103
 C1147 C 0.38606 1.09637 -0.07325
 C1148 C 0.36783 1.11700 -0.09076
 H1149 H 0.24003 1.18542 -0.19063
 H1150 H 0.26557 1.15444 -0.15281
 H1151 H 0.35865 1.20603 -0.16475
 H1152 H 0.33427 1.23539 -0.20276
 H1153 H 0.31434 1.14418 -0.12015
 H1154 H 0.37850 1.15795 -0.15287
 H1155 H 0.42449 1.12271 -0.14341
 H1156 H 0.45603 1.08674 -0.11301
 H1157 H 0.37511 1.08918 -0.05368
 H1158 H 0.34357 1.12553 -0.08391
 C1159 C 0.75614 0.67999 0.32406
 C1160 C 0.77000 0.66057 0.34496
 C1161 C 0.80448 0.66198 0.35092
 C1162 C 0.82492 0.68305 0.33558
 C1163 C 0.81131 0.70185 0.31443
 C1164 C 0.77671 0.70071 0.30832
 C1165 C 0.81950 0.63963 0.37143
 C1166 C 0.84574 0.64823 0.38705
 C1167 C 0.86511 0.62553 0.40453
 C1168 C 0.88225 0.63753 0.42754
 C1169 C 0.90430 0.61793 0.44252
 C1170 C 0.91027 0.58609 0.43441
 C1171 C 0.89255 0.57373 0.41177
 C1172 C 0.87001 0.59325 0.39700
 H1173 H 0.72956 0.67788 0.31968
 H1174 H 0.75385 0.64416 0.35629
 H1175 H 0.85180 0.68399 0.33906
 H1176 H 0.82826 0.71682 0.30248
 H1177 H 0.80899 0.61570 0.37340
 H1178 H 0.85384 0.67312 0.38684
 H1179 H 0.87912 0.66238 0.43357
 H1180 H 0.91762 0.62814 0.45988
 H1181 H 0.89673 0.54927 0.40508
 H1182 H 0.85775 0.58351 0.37895
 C1183 C 0.67451 1.23498 0.19332
 C1184 C 0.65857 1.21682 0.17319
 C1185 C 0.67551 1.19193 0.15973
 C1186 C 0.70965 1.18647 0.16627
 C1187 C 0.72588 1.20506 0.18644
 C1188 C 0.70838 1.22937 0.20054
 C1189 C 0.65535 1.17151 0.14076
 C1190 C 0.66740 1.14807 0.12463
 C1191 C 0.64493 1.12743 0.10768
 C1192 C 0.65725 1.11380 0.08325
 C1193 C 0.63683 1.09379 0.06722
 C1194 C 0.60376 1.08661 0.07550
 C1195 C 0.59149 1.10005 0.10002
 C1196 C 0.61181 1.12012 0.11596
 H1197 H 0.65970 1.25308 0.20367
 H1198 H 0.63234 1.22171 0.16875
 H1199 H 0.72367 1.16732 0.15666
 H1200 H 0.75171 1.19956 0.19168
 H1201 H 0.62859 1.17633 0.14015
 H1202 H 0.69421 1.14419 0.12306
 H1203 H 0.68272 1.11872 0.07651
 H1204 H 0.64710 1.08360 0.04852
 H1205 H 0.56626 1.09470 0.10711
 H1206 H 0.60170 1.12916 0.13513
 C1207 C 1.19003 0.73033 0.68204
 C1208 C 1.17683 0.71273 0.66024
 C1209 C 1.19511 0.68744 0.64869
 C1210 C 1.22780 0.68111 0.65842
 C1211 C 1.24152 0.69946 0.67985
 C1212 C 1.22267 0.72420 0.69217
 C1213 C 1.17867 0.66796 0.62710
 C1214 C 1.18206 0.63594 0.62551
 C1215 C 1.16006 0.61617 0.60760
 C1216 C 1.15060 0.58527 0.61655
 C1217 C 1.12716 0.56734 0.60156
 C1218 C 1.11307 0.57985 0.57711
 C1219 C 1.12391 0.61004 0.56738
 C1220 C 1.14715 0.62802 0.58243
 H1221 H 1.17412 0.74839 0.69130
 H1222 H 1.15156 0.71802 0.65315
 H1223 H 1.24265 0.66194 0.64960
 H1224 H 1.26641 0.69349 0.68732
 H1225 H 1.15973 0.67991 0.61462
 H1226 H 1.19836 0.62356 0.64006
 H1227 H 1.16041 0.57547 0.63573
 H1228 H 1.11950 0.54402 0.60943
 H1229 H 1.11383 0.62014 0.54841
 H1230 H 1.15471 0.65131 0.57446
 C1231 C 0.68062 0.76346 -0.19540
 C1232 C 0.66366 0.78028 -0.17497
 C1233 C 0.67981 0.80431 -0.15986
 C1234 C 0.71420 0.81022 -0.16505
 C1235 C 0.73146 0.79294 -0.18554
 C1236 C 0.71476 0.76954 -0.20129
 C1237 C 0.65864 0.82353 -0.14069
 C1238 C 0.66983 0.84564 -0.12287
 C1239 C 0.64650 0.86516 -0.10569
 C1240 C 0.65751 0.87687 -0.08013
 C1241 C 0.63635 0.89592 -0.06387
 C1242 C 0.60383 0.90406 -0.07301
 C1243 C 0.59283 0.89248 -0.09862
 C1244 C 0.61389 0.87334 -0.11481
 H1245 H 0.66634 0.74608 -0.20706
 H1246 H 0.63727 0.77510 -0.17159
 H1247 H 0.72764 0.82878 -0.15416
 H1248 H 0.75748 0.79882 -0.18974
 H1249 H 0.63186 0.81890 -0.14138
 H1250 H 0.69654 0.84913 -0.12003
 H1251 H 0.68254 0.87123 -0.07271
 H1252 H 0.64566 0.90468 -0.04431
 H1253 H 0.56808 0.89862 -0.10638
 H1254 H 0.60481 0.86578 -0.13478
 C1255 C 1.20294 0.31511 0.29465
 C1256 C 1.18876 0.33622 0.31343
 C1257 C 1.20240 0.33972 0.33982
 C1258 C 1.23156 0.32220 0.34684
 C1259 C 1.24643 0.30134 0.32759
 C1260 C 1.23182 0.29689 0.30137
 C1261 C 1.18531 0.36242 0.35863
 C1262 C 1.18351 0.35871 0.38613
 C1263 C 1.16033 0.37848 0.40319
 C1264 C 1.14601 0.36492 0.42710
 C1265 C 1.12124 0.38151 0.44185
 C1266 C 1.11037 0.41209 0.43302
 C1267 C 1.12594 0.42639 0.40998
 C1268 C 1.15080 0.40992 0.39534
 H1269 H 1.19089 0.31344 0.27470
 H1270 H 1.16653 0.34962 0.30735
 H1271 H 1.24312 0.32497 0.36692
 H1272 H 1.26894 0.28843 0.33341
 H1273 H 1.17005 0.38080 0.34879
 H1274 H 1.19605 0.33844 0.39585
 H1275 H 1.15309 0.34093 0.43380
 H1276 H 1.10992 0.36999 0.45970
 H1277 H 1.11855 0.45019 0.40299
 H1278 H 1.16218 0.42179 0.37772
 C1279 C 0.27758 0.77512 0.17506
 C1280 C 0.29330 0.79124 0.15303
 C1281 C 0.30588 0.82247 0.15640
 C1282 C 0.30039 0.83808 0.18160
 C1283 C 0.28464 0.82212 0.20350
 C1284 C 0.27374 0.79005 0.20090
 C1285 C 0.32528 0.83822 0.13382
 C1286 C 0.35148 0.85751 0.13928
 C1287 C 0.37233 0.87422 0.11817
 C1288 C 0.40432 0.88501 0.12606
 C1289 C 0.42404 0.90325 0.10796
 C1290 C 0.41212 0.91151 0.08154
 C1291 C 0.38039 0.90019 0.07326
 C1292 C 0.36062 0.88168 0.09141
 H1293 H 0.27019 0.75040 0.17214
 H1294 H 0.29697 0.77878 0.13372
 H1295 H 0.30866 0.86260 0.18459
 H1296 H 0.28207 0.83490 0.22275
 H1297 H 0.31920 0.83220 0.11270
 H1298 H 0.35905 0.86051 0.16060
 H1299 H 0.41395 0.87972 0.14654
 H1300 H 0.44837 0.91154 0.11498
 H1301 H 0.37052 0.90630 0.05304
 H1302 H 0.33584 0.87432 0.08476
 C1303 C 0.79401 0.27571 0.67511
 C1304 C 0.80919 0.29189 0.65310
 C1305 C 0.80046 0.32368 0.64671
 C1306 C 0.77442 0.33830 0.66172
 C1307 C 0.75885 0.32183 0.68362
 C1308 C 0.76901 0.29042 0.69119
 C1309 C 0.82016 0.34071 0.62509
 C1310 C 0.82540 0.37258 0.62509
 C1311 C 0.85093 0.38858 0.60729
 C1312 C 0.86520 0.41747 0.61638
 C1313 C 0.89150 0.43192 0.60174
 C1314 C 0.90397 0.41792 0.57752
 C1315 C 0.88872 0.38984 0.56762
 C1316 C 0.86236 0.37534 0.58228
 H1317 H 0.80239 0.25171 0.67915
 H1318 H 0.82883 0.27982 0.64164
 H1319 H 0.76622 0.36250 0.65683
 H1320 H 0.73956 0.33424 0.69516
 H1321 H 0.83419 0.32585 0.61092
 H1322 H 0.81367 0.38703 0.64089
 H1323 H 0.85671 0.42838 0.63538
 H1324 H 0.90251 0.45376 0.60974
 H1325 H 0.89750 0.37880 0.54877
 H1326 H 0.85123 0.35375 0.57401
 C1327 C 1.22801 1.20024 0.67393
 C1328 C 1.21226 1.18015 0.65529
 C1329 C 1.18881 1.15752 0.66438
 C1330 C 1.18204 1.15461 0.69284
 C1331 C 1.19824 1.17470 0.71173
 C1332 C 1.22135 1.19798 0.70247
 C1333 C 1.17191 1.13809 0.64320
 C1334 C 1.14064 1.12686 0.64610
 C1335 C 1.12175 1.11191 0.62323
 C1336 C 1.08664 1.11057 0.62527
 C1337 C 1.06760 1.09675 0.60436
 C1338 C 1.08332 1.08402 0.58092
 C1339 C 1.11836 1.08566 0.57850
 C1340 C 1.13752 1.09917 0.59960
 H1341 H 1.24524 1.21781 0.66554
 H1342 H 1.21792 1.18287 0.63350
 H1343 H 1.16458 1.13675 0.70059
 H1344 H 1.19258 1.17199 0.73349
 H1345 H 1.18448 1.13635 0.62349
 H1346 H 1.12717 1.13122 0.66514
 H1347 H 1.07385 1.12016 0.64316
 H1348 H 1.04054 1.09558 0.60674
 H1349 H 1.13102 1.07536 0.56086
 H1350 H 1.16455 1.09869 0.59748
 C1351 C 0.67912 0.67186 0.22739
 C1352 C 0.65850 0.65340 0.21032
 C1353 C 0.66054 0.65644 0.18148
 C1354 C 0.68313 0.67879 0.17004
 C1355 C 0.70391 0.69678 0.18697
 C1356 C 0.70220 0.69383 0.21590
 C1357 C 0.63814 0.63688 0.16395
 C1358 C 0.64473 0.63101 0.13728
 C1359 C 0.62228 0.61277 0.11879
 C1360 C 0.63517 0.60237 0.09339
 C1361 C 0.61503 0.58522 0.07511
 C1362 C 0.58161 0.57810 0.08198
 C1363 C 0.56839 0.58903 0.10706
 C1364 C 0.58841 0.60642 0.12524
 H1365 H 0.67692 0.66879 0.24953
 H1366 H 0.64100 0.63659 0.21968
 H1367 H 0.68466 0.68307 0.14803
 H1368 H 0.72124 0.71320 0.17706
 H1369 H 0.61628 0.62641 0.17376
 H1370 H 0.66827 0.63903 0.12843
 H1371 H 0.66104 0.60729 0.08775
 H1372 H 0.62579 0.57707 0.05585
 H1373 H 0.54251 0.58413 0.11266
 H1374 H 0.57698 0.61495 0.14405
 C1375 C 1.19945 0.78714 0.32235
 C1376 C 1.17923 0.80482 0.33994
 C1377 C 1.15607 0.82699 0.32938
 C1378 C 1.15258 0.83026 0.30051
 C1379 C 1.17287 0.81223 0.28274
 C1380 C 1.19688 0.79067 0.29347
 C1381 C 1.13690 0.84617 0.34953
 C1382 C 1.12159 0.87398 0.34359
 C1383 C 1.10521 0.89321 0.36521
 C1384 C 1.07593 0.91025 0.35862
 C1385 C 1.05978 0.92853 0.37864
 C1386 C 1.07306 0.93065 0.40548
 C1387 C 1.10277 0.91411 0.41201
 C1388 C 1.11873 0.89544 0.39203
 H1389 H 1.21769 0.77124 0.33177
 H1390 H 1.18241 0.80173 0.36204
 H1391 H 1.13434 0.84652 0.29150
 H1392 H 1.17002 0.81556 0.26066
 H1393 H 1.13676 0.83755 0.37073
 H1394 H 1.12046 0.88297 0.32258
 H1395 H 1.06530 0.90909 0.33805
 H1396 H 1.03701 0.94127 0.37295
 H1397 H 1.11363 0.91562 0.43247
 H1398 H 1.14192 0.88328 0.39745
 C1399 C 0.70068 0.30518 -0.18605
 C1400 C 0.68158 0.32387 -0.16856
 C1401 C 0.65785 0.34548 -0.17906
 C1402 C 0.65373 0.34813 -0.20793
 C1403 C 0.67314 0.32905 -0.22572
 C1404 C 0.69686 0.30718 -0.21494
 C1405 C 0.63843 0.36384 -0.15848
 C1406 C 0.61746 0.38822 -0.16390
 C1407 C 0.60029 0.40513 -0.14115
 C1408 C 0.56747 0.41649 -0.14504
 C1409 C 0.55030 0.43116 -0.12336
 C1410 C 0.56586 0.43503 -0.09750
 C1411 C 0.59896 0.42432 -0.09377
 C1412 C 0.61612 0.40970 -0.11542
 H1413 H 0.71827 0.28879 -0.17643
 H1414 H 0.68543 0.32125 -0.14648
 H1415 H 0.63549 0.36441 -0.21690
 H1416 H 0.66936 0.33126 -0.24780
 H1417 H 0.64185 0.35658 -0.13710
 H1418 H 0.61170 0.39524 -0.18492
 H1419 H 0.55491 0.41347 -0.16470
 H1420 H 0.52485 0.43952 -0.12688
 H1421 H 0.61173 0.42753 -0.07422
 H1422 H 0.64191 0.40229 -0.11204
 C1423 C 0.75525 1.19210 0.30968
 C1424 C 0.77036 1.17318 0.33010
 C1425 C 0.80425 1.17767 0.33683
 C1426 C 0.82364 1.19916 0.32088
 C1427 C 0.80853 1.21797 0.30034
 C1428 C 0.77358 1.21642 0.29601
 C1429 C 0.81864 1.15945 0.36031
 C1430 C 0.84378 1.17092 0.37575
 C1431 C 0.85996 1.15164 0.39771
 C1432 C 0.89482 1.15419 0.40104
 C1433 C 0.91180 1.13326 0.41881
 C1434 C 0.89404 1.11004 0.43409
 C1435 C 0.85884 1.10924 0.43264
 C1436 C 0.84185 1.12981 0.41436
 H1437 H 0.72882 1.18841 0.30543
 H1438 H 0.75525 1.15580 0.34134
 H1439 H 0.85036 1.20176 0.32441
 H1440 H 0.82393 1.23510 0.28912
 H1441 H 0.80777 1.13621 0.36520
 H1442 H 0.85468 1.19415 0.37091
 H1443 H 0.90917 1.17114 0.38867
 H1444 H 0.93900 1.13434 0.41978
 H1445 H 0.84472 1.09145 0.44427
 H1446 H 0.81475 1.12807 0.41277
 C1447 C 0.26315 0.68472 -0.19706
 C1448 C 0.27704 0.66673 -0.17545
 C1449 C 0.30976 0.67301 -0.16633
 C1450 C 0.32965 0.69515 -0.18115
 C1451 C 0.31580 0.71302 -0.20291
 C1452 C 0.28154 0.70978 -0.20962
 C1453 C 0.32238 0.65608 -0.14147
 C1454 C 0.34467 0.66935 -0.12423
 C1455 C 0.35916 0.65154 -0.10059
 C1456 C 0.39318 0.65624 -0.09436
 C1457 C 0.40921 0.63647 -0.07505
 C1458 C 0.39121 0.61232 -0.06109
 C1459 C 0.35646 0.60952 -0.06535
 C1460 C 0.34051 0.62891 -0.08517
 H1461 H 0.23747 0.67979 -0.20304
 H1462 H 0.26170 0.64882 -0.16508
 H1463 H 0.35569 0.69916 -0.17568
 H1464 H 0.33135 0.73089 -0.21307
 H1465 H 0.31243 0.63235 -0.13703
 H1466 H 0.35461 0.69308 -0.12864
 H1467 H 0.40789 0.67384 -0.10573
 H1468 H 0.43607 0.63898 -0.07200
 H1469 H 0.34220 0.59090 -0.05486
 H1470 H 0.31393 0.62551 -0.08900
 C1471 C 0.77729 0.78332 0.67409
 C1472 C 0.78975 0.80553 0.65526
 C1473 C 0.80866 0.83160 0.66423
 C1474 C 0.81473 0.83537 0.69267
 C1475 C 0.80152 0.81323 0.71180
 C1476 C 0.78245 0.78689 0.70272
 C1477 C 0.82176 0.85377 0.64299
 C1478 C 0.85223 0.86693 0.64470
 C1479 C 0.86830 0.88327 0.62095
 C1480 C 0.90342 0.88278 0.61933
 C1481 C 0.91984 0.89781 0.59740
 C1482 C 0.90148 0.91395 0.57672
 C1483 C 0.86627 0.91399 0.57787
 C1484 C 0.84974 0.89889 0.59994
 H1485 H 0.76289 0.76365 0.66581
 H1486 H 0.78489 0.80206 0.63346
 H1487 H 0.82902 0.85567 0.70013
 H1488 H 0.80590 0.81700 0.73360
 H1489 H 0.80782 0.85546 0.62382
 H1490 H 0.86744 0.86239 0.66291
 H1491 H 0.91823 0.87080 0.63515
 H1492 H 0.94708 0.89753 0.59704
 H1493 H 0.85164 0.92682 0.56245
 H1494 H 0.82260 0.90038 0.60085
 C1495 C 0.34152 0.26296 0.20294
 C1496 C 0.35991 0.27592 0.18090
 C1497 C 0.35534 0.30814 0.17309
 C1498 C 0.33600 0.32820 0.19000
 C1499 C 0.31798 0.31525 0.21210
 C1500 C 0.31763 0.28186 0.21681
 C1501 C 0.37073 0.32054 0.14741
 C1502 C 0.35459 0.34194 0.13122
 C1503 C 0.36964 0.35823 0.10684
 C1504 C 0.34900 0.37795 0.09018
 C1505 C 0.36305 0.39837 0.07015
 C1506 C 0.39800 0.39946 0.06671
 C1507 C 0.41834 0.37798 0.08175
 C1508 C 0.40442 0.35761 0.10163
 H1509 H 0.34471 0.23776 0.20797
 H1510 H 0.37626 0.26040 0.16907
 H1511 H 0.33407 0.35373 0.18569
 H1512 H 0.30282 0.33131 0.22440
 H1513 H 0.39481 0.31073 0.14149
 H1514 H 0.32914 0.34881 0.13664
 H1515 H 0.32211 0.37883 0.09370
 H1516 H 0.34691 0.41488 0.05889
 H1517 H 0.44543 0.37833 0.07933
 H1518 H 0.42147 0.34312 0.11386
   
