data_POSCAR
  _audit_creation_date              2014-09-24
  _audit_creation_method            'ToBaCCo'
  _symmetry_space_group_name_H-M    'P1'
  _symmetry_Int_Tables_number       1
  _symmetry_cell_setting            triclinic
  loop_
  _symmetry_equiv_pos_as_xyz
 x,y,z
_cell_length_a 48.0472
_cell_length_b 48.0578
_cell_length_c 48.0327
_cell_angle_alpha 89.953000
_cell_angle_beta 90.004200
_cell_angle_gamma 89.977500
loop_
  _atom_site_label
  _atom_site_type_symbol
  _atom_site_fract_x
  _atom_site_fract_y
  _atom_site_fract_z
C1 C 0.23637 0.93951 -0.02532
 C2 C 0.23650 0.92576 0.00060
 C3 C 0.23542 0.93983 0.02596
 C4 C 0.23436 0.96918 0.02604
 C5 C 0.23497 0.98406 0.00048
 C6 C 0.23455 0.96927 -0.02528
 C7 C 0.22967 0.98473 -0.04966
 C8 C 0.22900 1.01360 -0.04942
 C9 C 0.23331 1.02886 -0.02482
 C10 C 0.23454 1.01385 0.00075
 C11 C 0.23060 0.98397 0.05087
 C12 C 0.23011 1.01276 0.05114
 C13 C 0.23396 1.02839 0.02666
 C14 C 0.23469 1.05802 0.02701
 C15 C 0.23361 1.07207 0.00137
 C16 C 0.23362 1.05854 -0.02458
 H17 H 0.22447 0.97508 -0.06918
 H18 H 0.22336 1.02343 -0.06877
 H19 H 0.22684 0.97356 0.07044
 H20 H 0.22510 1.02221 0.07083
 H21 H 0.23830 0.90329 0.00142
 H22 H 0.23474 1.09456 0.00158
 C23 C 0.74475 0.44145 0.47529
 C24 C 0.74514 0.42785 0.50107
 C25 C 0.74493 0.44236 0.52632
 C26 C 0.74456 0.47186 0.52590
 C27 C 0.74494 0.48617 0.49997
 C28 C 0.74417 0.47095 0.47460
 C29 C 0.74130 0.48569 0.44947
 C30 C 0.74127 0.51460 0.44894
 C31 C 0.74411 0.53016 0.47350
 C32 C 0.74502 0.51582 0.49941
 C33 C 0.74223 0.48746 0.55051
 C34 C 0.74247 0.51635 0.54997
 C35 C 0.74493 0.53103 0.52480
 C36 C 0.74574 0.56050 0.52412
 C37 C 0.74559 0.57410 0.49838
 C38 C 0.74453 0.55966 0.47314
 H39 H 0.73817 0.47522 0.42986
 H40 H 0.73823 0.52442 0.42896
 H41 H 0.73941 0.47772 0.57055
 H42 H 0.73980 0.52686 0.56964
 H43 H 0.74595 0.40530 0.50151
 H44 H 0.74658 0.59665 0.49797
 C45 C 0.75551 1.02621 0.94116
 C46 C 0.75172 1.00121 0.92671
 C47 C 0.74647 0.97605 0.94049
 C48 C 0.74369 0.97608 0.96987
 C49 C 0.74898 1.00086 0.98503
 C50 C 0.75563 1.02584 0.97064
 C51 C 0.76295 1.04948 0.98614
 C52 C 0.76142 1.04943 1.01500
 C53 C 0.75253 1.02572 1.02961
 C54 C 0.74739 1.00076 1.01465
 C55 C 0.73454 0.95247 0.98442
 C56 C 0.73268 0.95243 1.01330
 C57 C 0.74050 0.97581 1.02914
 C58 C 0.73995 0.97574 1.05887
 C59 C 0.74300 1.00134 1.07274
 C60 C 0.74930 1.02606 1.05882
 H61 H 0.77054 1.06820 0.97626
 H62 H 0.76774 1.06818 1.02565
 H63 H 0.72768 0.93397 0.97364
 H64 H 0.72378 0.93409 1.02268
 H65 H 0.75269 1.00137 0.90416
 H66 H 0.74148 1.00219 1.09524
 C67 C 0.24862 0.52315 0.44113
 C68 C 0.24751 0.49757 0.42730
 C69 C 0.24506 0.47228 0.44159
 C70 C 0.24333 0.47255 0.47107
 C71 C 0.24561 0.49821 0.48564
 C72 C 0.24826 0.52358 0.47064
 C73 C 0.25075 0.54855 0.48559
 C74 C 0.24920 0.54897 0.51443
 C75 C 0.24677 0.52427 0.52989
 C76 C 0.24493 0.49855 0.51532
 C77 C 0.23824 0.44816 0.48637
 C78 C 0.23743 0.44849 0.51529
 C79 C 0.24172 0.47322 0.53029
 C80 C 0.24158 0.47360 0.55979
 C81 C 0.24300 0.49916 0.57364
 C82 C 0.24534 0.52446 0.55941
 H83 H 0.25409 0.56826 0.47536
 H84 H 0.24984 0.56915 0.52416
 H85 H 0.23405 0.42855 0.47627
 H86 H 0.23260 0.42912 0.52561
 H87 H 0.24840 0.49738 0.40474
 H88 H 0.24281 0.49937 0.59622
 C89 C 1.06111 0.23075 0.02905
 C90 C 1.07466 0.22920 0.00313
 C91 C 1.06062 0.23000 -0.02254
 C92 C 1.03099 0.23067 -0.02223
 C93 C 1.01650 0.23258 0.00355
 C94 C 1.03142 0.23138 0.02922
 C95 C 1.01598 0.22834 0.05393
 C96 C 0.98718 0.23000 0.05404
 C97 C 0.97217 0.23427 0.02939
 C98 C 0.98675 0.23434 0.00368
 C99 C 1.01522 0.22660 -0.04654
 C100 C 0.98644 0.22859 -0.04639
 C101 C 0.97165 0.23464 -0.02189
 C102 C 0.94208 0.23822 -0.02167
 C103 C 0.92854 0.23849 0.00433
 C104 C 0.94282 0.23633 0.02958
 H105 H 1.02548 0.22306 0.07353
 H106 H 0.97691 0.22680 0.07377
 H107 H 1.02453 0.22013 -0.06589
 H108 H 0.97621 0.22340 -0.06564
 H109 H 1.09717 0.22936 0.00286
 H110 H 0.90616 0.24115 0.00532
 C111 C 0.55784 0.75225 0.52573
 C112 C 0.57177 0.75042 0.50022
 C113 C 0.55758 0.74718 0.47499
 C114 C 0.52812 0.74553 0.47520
 C115 C 0.51343 0.74845 0.50074
 C116 C 0.52832 0.75165 0.52610
 C117 C 0.51323 0.75443 0.55099
 C118 C 0.48438 0.75274 0.55132
 C119 C 0.46904 0.74995 0.52656
 C120 C 0.48376 0.74783 0.50094
 C121 C 0.51296 0.73987 0.45085
 C122 C 0.48407 0.73933 0.45102
 C123 C 0.46896 0.74437 0.47555
 C124 C 0.43947 0.74469 0.47567
 C125 C 0.42543 0.74617 0.50116
 C126 C 0.43951 0.74840 0.52659
 H127 H 0.52337 0.75803 0.57070
 H128 H 0.47456 0.75365 0.57145
 H129 H 0.52314 0.73507 0.43141
 H130 H 0.47388 0.73402 0.43172
 H131 H 0.59433 0.75133 0.50002
 H132 H 0.40286 0.74604 0.50122
 C133 C -0.02647 0.75749 0.05999
 C134 C -0.00084 0.75377 0.07375
 C135 C 0.02381 0.74764 0.05960
 C136 C 0.02317 0.74469 0.03035
 C137 C -0.00160 0.75091 0.01548
 C138 C -0.02631 0.75809 0.03023
 C139 C -0.04923 0.76757 0.01469
 C140 C -0.04917 0.76694 -0.01424
 C141 C -0.02623 0.75671 -0.02930
 C142 C -0.00150 0.75019 -0.01427
 C143 C 0.04635 0.73480 0.01566
 C144 C 0.04636 0.73374 -0.01318
 C145 C 0.02344 0.74320 -0.02878
 C146 C 0.02409 0.74437 -0.05839
 C147 C -0.00107 0.74916 -0.07249
 C148 C -0.02641 0.75467 -0.05891
 H149 H -0.06705 0.77709 0.02446
 H150 H -0.06701 0.77598 -0.02442
 H151 H 0.06460 0.72705 0.02630
 H152 H 0.06437 0.72445 -0.02279
 H153 H 0.00012 0.75487 0.09625
 H154 H -0.00089 0.74872 -0.09501
 C155 C 0.52756 0.25135 0.56352
 C156 C 0.50219 0.25177 0.57779
 C157 C 0.47655 0.25177 0.56395
 C158 C 0.47613 0.25129 0.53441
 C159 C 0.50166 0.25083 0.51941
 C160 C 0.52745 0.25090 0.53399
 C161 C 0.55228 0.25004 0.51859
 C162 C 0.55204 0.25040 0.48970
 C163 C 0.52694 0.24989 0.47473
 C164 C 0.50140 0.25028 0.48971
 C165 C 0.45104 0.25172 0.51937
 C166 C 0.45078 0.25034 0.49049
 C167 C 0.47562 0.25012 0.47510
 C168 C 0.47557 0.24934 0.44557
 C169 C 0.50097 0.24912 0.43137
 C170 C 0.52654 0.24945 0.44522
 H171 H 0.57241 0.24899 0.52844
 H172 H 0.57200 0.25112 0.47949
 H173 H 0.43109 0.25325 0.52951
 H174 H 0.43066 0.24942 0.48060
 H175 H 0.50240 0.25208 0.60037
 H176 H 0.50084 0.24868 0.40879
 C177 C 0.94362 -0.02351 0.25130
 C178 C 0.92988 0.00175 0.25580
 C179 C 0.94431 0.02661 0.26049
 C180 C 0.97377 0.02607 0.26180
 C181 C 0.98823 0.00096 0.25601
 C182 C 0.97309 -0.02378 0.25016
 C183 C 0.98781 -0.04780 0.24251
 C184 C 1.01669 -0.04830 0.24283
 C185 C 1.03214 -0.02479 0.25080
 C186 C 1.01790 0.00053 0.25622
 C187 C 0.98912 0.04949 0.26999
 C188 C 1.01806 0.04901 0.27045
 C189 C 1.03315 0.02530 0.26204
 C190 C 1.06290 0.02490 0.26090
 C191 C 1.07616 -0.00108 0.25764
 C192 C 1.06146 -0.02572 0.25280
 H193 H 0.97726 -0.06641 0.23561
 H194 H 1.02668 -0.06731 0.23618
 H195 H 0.97896 0.06825 0.27710
 H196 H 1.02810 0.06724 0.27878
 H197 H 0.90732 0.00206 0.25571
 H198 H 1.09867 -0.00234 0.25805
 C199 C 0.44358 0.47751 0.74667
 C200 C 0.42967 0.50308 0.74635
 C201 C 0.44382 0.52849 0.74511
 C202 C 0.47333 0.52848 0.74468
 C203 C 0.48799 0.50276 0.74573
 C204 C 0.47307 0.47720 0.74583
 C205 C 0.48805 0.45221 0.74352
 C206 C 0.51695 0.45203 0.74319
 C207 C 0.53228 0.47683 0.74530
 C208 C 0.51766 0.50257 0.74559
 C209 C 0.48862 0.55321 0.74170
 C210 C 0.51754 0.55303 0.74170
 C211 C 0.53259 0.52811 0.74464
 C212 C 0.56212 0.52780 0.74511
 C213 C 0.57601 0.50218 0.74559
 C214 C 0.56180 0.47676 0.74555
 H215 H 0.47776 0.43242 0.74103
 H216 H 0.52691 0.43210 0.74047
 H217 H 0.47856 0.57304 0.73858
 H218 H 0.52778 0.57275 0.73847
 H219 H 0.40712 0.50323 0.74735
 H220 H 0.59857 0.50201 0.74630
 C221 C 1.02705 0.94332 0.73650
 C222 C 1.00076 0.93040 0.73660
 C223 C 0.97584 0.94526 0.73543
 C224 C 0.97666 0.97460 0.73422
 C225 C 1.00264 0.98869 0.73492
 C226 C 1.02794 0.97308 0.73477
 C227 C 1.05282 0.98775 0.73014
 C228 C 1.05346 1.01662 0.72944
 C229 C 1.02930 1.03266 0.73336
 C230 C 1.00327 1.01849 0.73426
 C231 C 0.95232 0.99012 0.73015
 C232 C 0.95295 1.01890 0.72917
 C233 C 0.97785 1.03383 0.73306
 C234 C 0.97842 1.06350 0.73320
 C235 C 1.00449 1.07673 0.73264
 C236 C 1.03000 1.06234 0.73356
 H237 H 1.07210 0.97749 0.72520
 H238 H 1.07316 1.02582 0.72399
 H239 H 0.93248 0.98025 0.72645
 H240 H 0.93361 1.02883 0.72375
 H241 H 0.99929 0.90797 0.73843
 H242 H 1.00490 1.09923 0.73345
 C243 C 0.47678 0.55977 0.23900
 C244 C 0.50224 0.57388 0.23970
 C245 C 0.52782 0.55989 0.23966
 C246 C 0.52802 0.53037 0.23897
 C247 C 0.50239 0.51555 0.23916
 C248 C 0.47672 0.53027 0.23838
 C249 C 0.45192 0.51507 0.23545
 C250 C 0.45195 0.48617 0.23558
 C251 C 0.47680 0.47106 0.23851
 C252 C 0.50243 0.48588 0.23913
 C253 C 0.55293 0.51524 0.23655
 C254 C 0.55296 0.48632 0.23642
 C255 C 0.52809 0.47113 0.23874
 C256 C 0.52797 0.44163 0.23915
 C257 C 0.50248 0.42756 0.23956
 C258 C 0.47695 0.44157 0.23925
 H259 H 0.43211 0.52515 0.23221
 H260 H 0.43218 0.47599 0.23247
 H261 H 0.57276 0.52541 0.23388
 H262 H 0.57282 0.47620 0.23370
 H263 H 0.50213 0.59642 0.24069
 H264 H 0.50255 0.40501 0.24052
 O265 O 0.25496 0.17572 0.21119
 O266 O 0.28692 0.16872 0.24982
 O267 O 0.18266 0.20864 0.25197
 O268 O 0.17287 0.24506 0.27955
 O269 O 0.21612 0.24778 0.17807
 O270 O 0.25436 0.27903 0.17005
 O271 O 0.25518 0.28768 0.32167
 O272 O 0.22309 0.25000 0.32906
 O273 O 0.32663 0.24874 0.28796
 O274 O 0.33550 0.21779 0.24911
 O275 O 0.29321 0.32014 0.25066
 O276 O 0.25263 0.32736 0.21756
 O277 O 0.25402 0.32038 0.28746
 O278 O 0.22459 0.32935 0.24836
 O279 O 0.32637 0.28638 0.24930
 O280 O 0.33473 0.24598 0.21870
 O281 O 0.29368 0.25158 0.32182
 O282 O 0.26038 0.21919 0.33114
 O283 O 0.25490 0.20964 0.17810
 O284 O 0.28523 0.24818 0.16968
 O285 O 0.18230 0.24711 0.21124
 O286 O 0.17556 0.27960 0.24999
 O287 O 0.21681 0.17582 0.25158
 O288 O 0.25743 0.16700 0.28013
 Zr289 Zr 0.25423 0.19818 0.24915
 O290 O 0.27978 0.22249 0.27514
 Zr291 Zr 0.20474 0.24658 0.24919
 O292 O 0.22867 0.27315 0.27480
 Zr293 Zr 0.25362 0.24703 0.20029
 O294 O 0.27968 0.27313 0.22365
 Zr295 Zr 0.25590 0.24968 0.29967
 O296 O 0.22971 0.22254 0.27643
 Zr297 Zr 0.30427 0.24885 0.25042
 O298 O 0.28081 0.22244 0.22425
 Zr299 Zr 0.25527 0.29779 0.25017
 O300 O 0.22876 0.27372 0.22440
 O301 O 0.22801 0.22094 0.22342
 O302 O 0.28177 0.27550 0.27633
 C303 C 0.25516 0.18405 0.18569
 C304 C 0.19119 0.18326 0.25285
 C305 C 0.19054 0.24762 0.18574
 C306 C 0.25413 0.31302 0.31313
 C307 C 0.31906 0.25025 0.31354
 C308 C 0.31868 0.31193 0.24962
 H309 H 0.29112 0.21006 0.28701
 H310 H 0.29106 0.28447 0.21081
 H311 H 0.21605 0.20881 0.21184
 H312 H 0.21605 0.28456 0.28635
 H313 H 0.21076 0.23415 0.32441
 H314 H 0.17946 0.25569 0.29588
 H315 H 0.33080 0.26069 0.20483
 H316 H 0.29994 0.23517 0.17594
 H317 H 0.24909 0.20306 0.32529
 H318 H 0.24247 0.17041 0.29386
 H319 H 0.26911 0.32497 0.20545
 H320 H 0.24106 0.29343 0.17639
 H321 H 0.30064 0.17476 0.23567
 H322 H 0.33051 0.20331 0.26287
 H323 H 0.18100 0.29279 0.23511
 H324 H 0.20919 0.32367 0.26078
 O325 O 0.74664 0.82575 0.21301
 O326 O 0.71770 0.83375 0.25247
 O327 O 0.82124 0.79374 0.25358
 O328 O 0.83133 0.75735 0.28118
 O329 O 0.78914 0.75446 0.17920
 O330 O 0.75083 0.72293 0.17141
 O331 O 0.74832 0.71534 0.32297
 O332 O 0.78113 0.75259 0.33044
 O333 O 0.67743 0.75189 0.28972
 O334 O 0.66938 0.78470 0.24988
 O335 O 0.71142 0.68172 0.25193
 O336 O 0.75183 0.67405 0.21995
 O337 O 0.74948 0.68173 0.28968
 O338 O 0.78078 0.67353 0.25019
 O339 O 0.67808 0.71531 0.25033
 O340 O 0.66883 0.75507 0.22067
 O341 O 0.71109 0.75057 0.32298
 O342 O 0.74382 0.78354 0.33213
 O343 O 0.74893 0.79292 0.17895
 O344 O 0.71953 0.75358 0.17067
 O345 O 0.82186 0.75545 0.21345
 O346 O 0.82869 0.72283 0.25193
 O347 O 0.78717 0.82650 0.25036
 O348 O 0.74798 0.83447 0.28211
 Zr349 Zr 0.74984 0.80375 0.25060
 O350 O 0.72413 0.77961 0.27646
 Zr351 Zr 0.79938 0.75573 0.25092
 O352 O 0.77565 0.72909 0.27654
 Zr353 Zr 0.75107 0.75517 0.20133
 O354 O 0.72500 0.72899 0.22505
 Zr355 Zr 0.74847 0.75290 0.30088
 O356 O 0.77463 0.77995 0.27791
 Zr357 Zr 0.69992 0.75296 0.25183
 O358 O 0.72352 0.77932 0.22557
 Zr359 Zr 0.74926 0.70426 0.25191
 O360 O 0.77565 0.72852 0.22599
 O361 O 0.77621 0.78127 0.22478
 O362 O 0.72275 0.72674 0.27780
 C363 C 0.74664 0.81821 0.18737
 C364 C 0.81279 0.81912 0.25228
 C365 C 0.81453 0.75471 0.18775
 C366 C 0.74863 0.68983 0.31517
 C367 C 0.68557 0.75058 0.31521
 C368 C 0.68591 0.68980 0.25068
 H369 H 0.71270 0.79196 0.28832
 H370 H 0.71370 0.71757 0.21223
 H371 H 0.78782 0.79343 0.21288
 H372 H 0.78818 0.71780 0.28834
 H373 H 0.79333 0.76860 0.32601
 H374 H 0.82471 0.74693 0.29766
 H375 H 0.67396 0.74173 0.20586
 H376 H 0.70457 0.76625 0.17699
 H377 H 0.75476 0.79981 0.32601
 H378 H 0.76445 0.83189 0.29422
 H379 H 0.73644 0.67752 0.20672
 H380 H 0.76410 0.70864 0.17808
 H381 H 0.70262 0.82698 0.24019
 H382 H 0.67210 0.79711 0.26607
 H383 H 0.82314 0.70943 0.23730
 H384 H 0.79493 0.67829 0.26436
 O385 O 0.75686 0.18077 0.79009
 O386 O 0.72649 0.17162 0.75247
 O387 O 0.82719 0.21728 0.74971
 O388 O 0.83825 0.25497 0.72648
 O389 O 0.79161 0.25390 0.82526
 O390 O 0.75311 0.28228 0.83408
 O391 O 0.75040 0.29095 0.68048
 O392 O 0.78330 0.25652 0.67163
 O393 O 0.68164 0.25191 0.71558
 O394 O 0.67208 0.22368 0.75356
 O395 O 0.71530 0.32472 0.75025
 O396 O 0.75265 0.33551 0.78110
 O397 O 0.75287 0.32493 0.71329
 O398 O 0.78547 0.33237 0.75487
 O399 O 0.68180 0.29137 0.75235
 O400 O 0.67612 0.24989 0.78625
 O401 O 0.71421 0.25399 0.68128
 O402 O 0.75433 0.22100 0.67354
 O403 O 0.75420 0.21336 0.82436
 O404 O 0.72160 0.25245 0.83160
 O405 O 0.82585 0.25466 0.79253
 O406 O 0.83047 0.28914 0.75256
 O407 O 0.79513 0.18246 0.75097
 O408 O 0.75549 0.17463 0.71996
 Zr409 Zr 0.75663 0.20365 0.75302
 O410 O 0.72914 0.22693 0.72812
 Zr411 Zr 0.80400 0.25396 0.75405
 O412 O 0.77956 0.27855 0.72702
 Zr413 Zr 0.75465 0.25171 0.80253
 O414 O 0.72897 0.27822 0.77881
 Zr415 Zr 0.75254 0.25384 0.70299
 O416 O 0.78047 0.22899 0.72643
 Zr417 Zr 0.70442 0.25350 0.75265
 O418 O 0.72866 0.22666 0.77791
 Zr419 Zr 0.75291 0.30290 0.75152
 O420 O 0.77879 0.27973 0.77877
 O421 O 0.78163 0.22707 0.77935
 O422 O 0.72657 0.27970 0.72609
 C423 C 0.75550 0.18801 0.81575
 C424 C 0.82027 0.19149 0.74921
 C425 C 0.81726 0.25481 0.81796
 C426 C 0.75106 0.31654 0.68793
 C427 C 0.68889 0.25268 0.68991
 C428 C 0.68983 0.31688 0.75086
 H429 H 0.71756 0.21402 0.71708
 H430 H 0.71749 0.28972 0.79141
 H431 H 0.79399 0.21527 0.79088
 H432 H 0.79180 0.28992 0.71500
 H433 H 0.79901 0.24470 0.67781
 H434 H 0.83076 0.26000 0.70799
 H435 H 0.67686 0.26736 0.79711
 H436 H 0.70884 0.23709 0.82655
 H437 H 0.73779 0.20903 0.67611
 H438 H 0.76953 0.18077 0.70618
 H439 H 0.74107 0.32937 0.79696
 H440 H 0.76372 0.29845 0.82696
 H441 H 0.71144 0.17751 0.76525
 H442 H 0.67938 0.20668 0.74456
 H443 H 0.82675 0.30023 0.76952
 H444 H 0.79701 0.33099 0.73787
 O445 O 0.24749 0.82049 0.79060
 O446 O 0.27823 0.82864 0.75165
 O447 O 0.17543 0.78634 0.74904
 O448 O 0.16542 0.75029 0.72205
 O449 O 0.20881 0.74688 0.82333
 O450 O 0.24824 0.71660 0.83056
 O451 O 0.24878 0.70981 0.67893
 O452 O 0.21569 0.74764 0.67204
 O453 O 0.31976 0.74920 0.71221
 O454 O 0.32782 0.78016 0.75217
 O455 O 0.28662 0.67733 0.74823
 O456 O 0.24788 0.66828 0.78187
 O457 O 0.24752 0.67677 0.71282
 O458 O 0.21785 0.66778 0.75306
 O459 O 0.32013 0.71070 0.75016
 O460 O 0.32811 0.75069 0.78175
 O461 O 0.28604 0.74602 0.67915
 O462 O 0.25293 0.77828 0.66997
 O463 O 0.24735 0.78632 0.82344
 O464 O 0.27830 0.74839 0.83137
 O465 O 0.17588 0.74709 0.78927
 O466 O 0.16933 0.71566 0.74983
 O467 O 0.20809 0.82051 0.75159
 O468 O 0.24803 0.82968 0.72135
 Zr469 Zr 0.24619 0.79850 0.75243
 O470 O 0.27224 0.77481 0.72610
 Zr471 Zr 0.19799 0.74907 0.75164
 O472 O 0.22192 0.72327 0.72566
 Zr473 Zr 0.24657 0.74907 0.80089
 O474 O 0.27304 0.72366 0.77694
 Zr475 Zr 0.24862 0.74764 0.70130
 O476 O 0.22214 0.77410 0.72481
 Zr477 Zr 0.29745 0.74833 0.75018
 O478 O 0.27337 0.77412 0.77678
 Zr479 Zr 0.24876 0.69902 0.75026
 O480 O 0.22217 0.72226 0.77645
 O481 O 0.22049 0.77490 0.77796
 O482 O 0.27484 0.72189 0.72423
 C483 C 0.24783 0.81197 0.81602
 C484 C 0.18279 0.81202 0.74954
 C485 C 0.18341 0.74601 0.81490
 C486 C 0.24796 0.68437 0.68724
 C487 C 0.31156 0.74741 0.68678
 C488 C 0.31213 0.68522 0.74878
 H489 H 0.28334 0.78752 0.71430
 H490 H 0.28468 0.71221 0.78946
 H491 H 0.20834 0.78654 0.78984
 H492 H 0.20937 0.71188 0.71399
 H493 H 0.20370 0.76380 0.67651
 H494 H 0.17262 0.74174 0.70478
 H495 H 0.32429 0.73575 0.79540
 H496 H 0.29309 0.76107 0.82468
 H497 H 0.24301 0.79493 0.67675
 H498 H 0.23224 0.82651 0.70851
 H499 H 0.26400 0.67137 0.79430
 H500 H 0.23554 0.70186 0.82382
 H501 H 0.29261 0.82229 0.76498
 H502 H 0.32313 0.79419 0.73783
 H503 H 0.17469 0.70230 0.76459
 H504 H 0.20351 0.67194 0.73887
 O505 O 0.24813 0.32467 0.71690
 O506 O 0.21917 0.33260 0.75651
 O507 O 0.32310 0.29369 0.75854
 O508 O 0.33318 0.25742 0.78647
 O509 O 0.29202 0.25241 0.68426
 O510 O 0.25321 0.22181 0.67594
 O511 O 0.25101 0.21481 0.82750
 O512 O 0.28326 0.25285 0.83485
 O513 O 0.17959 0.25018 0.79385
 O514 O 0.17155 0.28339 0.75409
 O515 O 0.21415 0.18057 0.75565
 O516 O 0.25561 0.17352 0.72441
 O517 O 0.25117 0.18103 0.79436
 O518 O 0.28329 0.17254 0.75592
 O519 O 0.18073 0.21408 0.75474
 O520 O 0.17128 0.25357 0.72480
 O521 O 0.21318 0.24986 0.82718
 O522 O 0.24550 0.28270 0.83672
 O523 O 0.25219 0.29167 0.68319
 O524 O 0.22246 0.25260 0.67488
 O525 O 0.32455 0.25542 0.71858
 O526 O 0.33140 0.22289 0.75686
 O527 O 0.28874 0.32605 0.75439
 O528 O 0.24962 0.33404 0.78587
 Zr529 Zr 0.25167 0.30298 0.75471
 O530 O 0.22614 0.27876 0.78069
 Zr531 Zr 0.30167 0.25541 0.75576
 O532 O 0.27801 0.22855 0.78121
 Zr533 Zr 0.25369 0.25406 0.70585
 O534 O 0.22759 0.22788 0.72950
 Zr535 Zr 0.25061 0.25233 0.80530
 O536 O 0.27652 0.27959 0.78234
 Zr537 Zr 0.20225 0.25182 0.75608
 O538 O 0.22575 0.27815 0.72971
 Zr539 Zr 0.25186 0.20341 0.75655
 O540 O 0.27833 0.22779 0.73083
 O541 O 0.27846 0.28055 0.72925
 O542 O 0.22517 0.22588 0.78223
 C543 C 0.24906 0.31696 0.69133
 C544 C 0.31439 0.31896 0.75677
 C545 C 0.31734 0.25352 0.69293
 C546 C 0.25071 0.18924 0.81982
 C547 C 0.18769 0.24916 0.81935
 C548 C 0.18861 0.18860 0.75462
 H549 H 0.21456 0.29105 0.79247
 H550 H 0.21646 0.21636 0.71661
 H551 H 0.29009 0.29267 0.71732
 H552 H 0.29052 0.21738 0.79313
 H553 H 0.29511 0.26912 0.83039
 H554 H 0.32673 0.24648 0.80266
 H555 H 0.17675 0.24045 0.70992
 H556 H 0.20744 0.26526 0.68111
 H557 H 0.25502 0.29962 0.83002
 H558 H 0.26587 0.33140 0.79827
 H559 H 0.23991 0.17628 0.71138
 H560 H 0.26644 0.20747 0.68256
 H561 H 0.20419 0.32563 0.74421
 H562 H 0.17378 0.29548 0.77059
 H563 H 0.32573 0.20914 0.74261
 H564 H 0.29759 0.17789 0.76973
 O565 O 0.75545 0.68231 0.70699
 O566 O 0.78608 0.67480 0.74645
 O567 O 0.68157 0.71296 0.74915
 O568 O 0.67100 0.74898 0.77686
 O569 O 0.71373 0.75634 0.67560
 O570 O 0.75280 0.78581 0.66743
 O571 O 0.75277 0.79190 0.81955
 O572 O 0.72099 0.75303 0.82607
 O573 O 0.82450 0.75656 0.78515
 O574 O 0.83332 0.72390 0.74583
 O575 O 0.79036 0.82616 0.74880
 O576 O 0.74942 0.83351 0.71627
 O577 O 0.75139 0.82516 0.78588
 O578 O 0.72151 0.83442 0.74718
 O579 O 0.82384 0.79282 0.74605
 O580 O 0.83331 0.75327 0.71637
 O581 O 0.79166 0.75551 0.81920
 O582 O 0.75880 0.72363 0.82819
 O583 O 0.75199 0.71651 0.67435
 O584 O 0.78303 0.75481 0.66668
 O585 O 0.68024 0.75197 0.70883
 O586 O 0.67315 0.78386 0.74807
 O587 O 0.71599 0.68067 0.74518
 O588 O 0.75521 0.67220 0.77595
 Zr589 Zr 0.75301 0.70381 0.74532
 O590 O 0.77824 0.72792 0.77181
 Zr591 Zr 0.70288 0.75135 0.74657
 O592 O 0.72646 0.77785 0.77253
 Zr593 Zr 0.75147 0.75353 0.69734
 O594 O 0.77726 0.77946 0.72116
 Zr595 Zr 0.75398 0.75423 0.79691
 O596 O 0.72820 0.72712 0.77320
 Zr597 Zr 0.80224 0.75511 0.74754
 O598 O 0.77912 0.72894 0.72082
 Zr599 Zr 0.75266 0.80331 0.74824
 O600 O 0.72638 0.77934 0.72216
 O601 O 0.72635 0.72667 0.72006
 O602 O 0.77942 0.78090 0.77400
 C603 C 0.75413 0.69090 0.68164
 C604 C 0.69034 0.68769 0.74756
 C605 C 0.68823 0.75494 0.68343
 C606 C 0.75153 0.81738 0.81141
 C607 C 0.81701 0.75644 0.81081
 C608 C 0.81589 0.81825 0.74697
 H609 H 0.78980 0.71548 0.78347
 H610 H 0.78843 0.79115 0.70844
 H611 H 0.71454 0.71483 0.70805
 H612 H 0.71370 0.78887 0.78432
 H613 H 0.70936 0.73670 0.82130
 H614 H 0.67764 0.75905 0.79352
 H615 H 0.82786 0.76634 0.70141
 H616 H 0.79745 0.74128 0.67249
 H617 H 0.75042 0.70643 0.82076
 H618 H 0.73938 0.67503 0.78883
 H619 H 0.76600 0.83179 0.70418
 H620 H 0.74024 0.80065 0.67425
 H621 H 0.80035 0.68163 0.73324
 H622 H 0.83032 0.71102 0.76163
 H623 H 0.67832 0.79738 0.73339
 H624 H 0.70623 0.82826 0.75952
 O625 O 0.25155 0.67518 0.28685
 O626 O 0.22145 0.66624 0.24895
 O627 O 0.32232 0.71148 0.24589
 O628 O 0.33397 0.74934 0.22368
 O629 O 0.28706 0.74677 0.32215
 O630 O 0.24926 0.77693 0.33069
 O631 O 0.24567 0.78558 0.17735
 O632 O 0.27884 0.75127 0.16844
 O633 O 0.17715 0.74688 0.21212
 O634 O 0.16745 0.71846 0.25031
 O635 O 0.21120 0.81942 0.24745
 O636 O 0.24818 0.83005 0.27780
 O637 O 0.24841 0.81942 0.21028
 O638 O 0.28150 0.82639 0.25188
 O639 O 0.17745 0.78629 0.24899
 O640 O 0.17120 0.74494 0.28268
 O641 O 0.20982 0.74798 0.17787
 O642 O 0.25006 0.71561 0.17020
 O643 O 0.24840 0.70783 0.32101
 O644 O 0.21718 0.74759 0.32857
 O645 O 0.32114 0.74872 0.28930
 O646 O 0.32585 0.78337 0.24920
 O647 O 0.29022 0.67674 0.24819
 O648 O 0.25083 0.66908 0.21670
 Zr649 Zr 0.25178 0.69810 0.24977
 O650 O 0.22446 0.72155 0.22483
 Zr651 Zr 0.29937 0.74820 0.25080
 O652 O 0.27511 0.77293 0.22379
 Zr653 Zr 0.25004 0.74613 0.29931
 O654 O 0.22449 0.77275 0.27559
 Zr655 Zr 0.24802 0.74836 0.19972
 O656 O 0.27577 0.72333 0.22317
 Zr657 Zr 0.19981 0.74825 0.24931
 O658 O 0.22390 0.72129 0.27462
 Zr659 Zr 0.24859 0.79732 0.24839
 O660 O 0.27437 0.77404 0.27564
 O661 O 0.27687 0.72136 0.27609
 O662 O 0.22216 0.77433 0.22284
 C663 C 0.24967 0.68248 0.31246
 C664 C 0.31535 0.68571 0.24594
 C665 C 0.31266 0.74798 0.31474
 C666 C 0.24637 0.81113 0.18491
 C667 C 0.18448 0.74705 0.18645
 C668 C 0.18567 0.81176 0.24786
 H669 H 0.21286 0.70867 0.21376
 H670 H 0.21309 0.78432 0.28820
 H671 H 0.28905 0.70934 0.28759
 H672 H 0.28739 0.78428 0.21178
 H673 H 0.29459 0.73951 0.17462
 H674 H 0.32658 0.75366 0.20497
 H675 H 0.17226 0.76228 0.29372
 H676 H 0.20378 0.73289 0.32322
 H677 H 0.23396 0.70315 0.17321
 H678 H 0.26511 0.67508 0.20312
 H679 H 0.23842 0.82309 0.29452
 H680 H 0.26135 0.79225 0.32411
 H681 H 0.20630 0.67227 0.26154
 H682 H 0.17444 0.70166 0.24072
 H683 H 0.32258 0.79421 0.26641
 H684 H 0.29260 0.82548 0.23455
 O685 O 0.75041 0.31971 0.29169
 O686 O 0.78130 0.32754 0.25274
 O687 O 0.67844 0.28610 0.24710
 O688 O 0.66793 0.24870 0.22230
 O689 O 0.70965 0.24612 0.32366
 O690 O 0.74936 0.21639 0.33226
 O691 O 0.75035 0.20886 0.18058
 O692 O 0.71898 0.24792 0.17320
 O693 O 0.82261 0.24684 0.21461
 O694 O 0.83004 0.27905 0.25451
 O695 O 0.78848 0.17622 0.25433
 O696 O 0.74673 0.16814 0.28401
 O697 O 0.75332 0.17598 0.21453
 O698 O 0.72025 0.16644 0.25197
 O699 O 0.82221 0.20939 0.25291
 O700 O 0.83026 0.24926 0.28404
 O701 O 0.78922 0.24381 0.18122
 O702 O 0.75714 0.27656 0.17099
 O703 O 0.74778 0.28581 0.32471
 O704 O 0.77903 0.24829 0.33334
 O705 O 0.67722 0.24886 0.28922
 O706 O 0.67163 0.21524 0.25085
 O707 O 0.71108 0.32000 0.25235
 O708 O 0.75113 0.32887 0.22246
 Zr709 Zr 0.74899 0.29771 0.25354
 O710 O 0.77520 0.27370 0.22767
 Zr711 Zr 0.70030 0.24867 0.25213
 O712 O 0.72448 0.22245 0.22682
 Zr713 Zr 0.74793 0.24854 0.30220
 O714 O 0.77471 0.22290 0.27893
 Zr715 Zr 0.75159 0.24662 0.20279
 O716 O 0.72511 0.27343 0.22569
 Zr717 Zr 0.79977 0.24712 0.25230
 O718 O 0.77547 0.27318 0.27847
 Zr719 Zr 0.75079 0.19819 0.25202
 O720 O 0.72377 0.22175 0.27754
 O721 O 0.72256 0.27450 0.27866
 O722 O 0.77734 0.22072 0.22622
 C723 C 0.74933 0.31137 0.31714
 C724 C 0.68591 0.31170 0.24858
 C725 C 0.68437 0.24705 0.31491
 C726 C 0.75224 0.18352 0.18892
 C727 C 0.81467 0.24467 0.18912
 C728 C 0.81404 0.18396 0.25426
 H729 H 0.78660 0.28617 0.21591
 H730 H 0.78590 0.21157 0.29195
 H731 H 0.71032 0.28646 0.29013
 H732 H 0.71214 0.21104 0.21496
 H733 H 0.70747 0.26445 0.17761
 H734 H 0.67580 0.24107 0.20489
 H735 H 0.82544 0.23522 0.29831
 H736 H 0.79393 0.26092 0.32680
 H737 H 0.74967 0.29421 0.17835
 H738 H 0.73565 0.32546 0.20930
 H739 H 0.76179 0.17142 0.29767
 H740 H 0.73585 0.20206 0.32624
 H741 H 0.79562 0.32105 0.26607
 H742 H 0.82648 0.29221 0.23906
 H743 H 0.67704 0.20212 0.26580
 H744 H 0.70612 0.17134 0.23783
 C745 C 0.24514 0.10836 0.09646
 N746 N 0.23530 0.11873 0.07218
 N747 N 0.23164 0.10231 0.05026
 C748 C 0.23760 0.07467 0.05142
 N749 N 0.24789 0.06446 0.07581
 N750 N 0.25139 0.08086 0.09797
 C751 C 0.24909 0.12725 0.12012
 N752 N 0.25343 0.11781 0.14648
 N753 N 0.25579 0.13571 0.16764
 C754 C 0.25412 0.16359 0.16303
 N755 N 0.25006 0.17282 0.13666
 N756 N 0.24753 0.15504 0.11567
 C757 C 0.74945 0.61351 0.59349
 N758 N 0.76365 0.58908 0.59365
 N759 N 0.76234 0.57195 0.57184
 C760 C 0.74639 0.57838 0.54934
 N761 N 0.73234 0.60289 0.54931
 N762 N 0.73387 0.62011 0.57090
 C763 C 0.75130 0.63320 0.61671
 N764 N 0.74337 0.65998 0.61276
 N765 N 0.74467 0.67823 0.63349
 C766 C 0.75371 0.67038 0.65907
 N767 N 0.76159 0.64352 0.66316
 N768 N 0.76056 0.62526 0.64225
 C769 C 0.73841 0.90639 0.11013
 N770 N 0.74518 0.90366 0.08284
 N771 N 0.74505 0.92578 0.06602
 C772 C 0.73794 0.95146 0.07566
 N773 N 0.73119 0.95382 0.10306
 N774 N 0.73136 0.93186 0.11987
 C775 C 0.73989 0.88286 0.12954
 N776 N 0.73625 0.88749 0.15713
 N777 N 0.73834 0.86676 0.17533
 C778 C 0.74406 0.84053 0.16668
 N779 N 0.74755 0.83573 0.13901
 N780 N 0.74559 0.85659 0.12073
 C781 C 0.24134 0.40383 0.61251
 N782 N 0.25566 0.40317 0.58815
 N783 N 0.25535 0.42503 0.57102
 C784 C 0.24036 0.44817 0.57740
 N785 N 0.22609 0.44870 0.60179
 N786 N 0.22659 0.42700 0.61900
 C787 C 0.24280 0.38070 0.63242
 N788 N 0.23451 0.38469 0.65910
 N789 N 0.23648 0.36426 0.67770
 C790 C 0.24656 0.33896 0.67029
 N791 N 0.25465 0.33481 0.64350
 N792 N 0.25294 0.35539 0.62491
 C793 C 0.75915 0.09793 0.89124
 N794 N 0.77173 0.07398 0.88315
 N795 N 0.77122 0.05154 0.89940
 C796 C 0.75811 0.05212 0.92442
 N797 N 0.74530 0.07608 0.93240
 N798 N 0.74598 0.09864 0.91622
 C799 C 0.75866 0.12194 0.87233
 N800 N 0.75021 0.14753 0.88099
 N801 N 0.74935 0.16889 0.86320
 C802 C 0.75662 0.16523 0.83611
 N803 N 0.76502 0.13966 0.82760
 N804 N 0.76612 0.11848 0.84536
 C805 C 0.25057 0.59339 0.38908
 N806 N 0.26586 0.57043 0.38308
 N807 N 0.26561 0.54848 0.39998
 C808 C 0.25001 0.54856 0.42355
 N809 N 0.23431 0.57141 0.42927
 N810 N 0.23477 0.59352 0.41250
 C811 C 0.25044 0.61700 0.36972
 N812 N 0.24084 0.64246 0.37749
 N813 N 0.24075 0.66361 0.35945
 C814 C 0.24996 0.65987 0.33297
 N815 N 0.25945 0.63441 0.32531
 N816 N 0.25983 0.61344 0.34336
 C817 C 0.24357 0.88813 0.90551
 N818 N 0.23636 0.87788 0.93074
 N819 N 0.23395 0.89459 0.95261
 C820 C 0.23856 0.92244 0.95047
 N821 N 0.24633 0.93253 0.92513
 N822 N 0.24860 0.91582 0.90304
 C823 C 0.24572 0.86901 0.88175
 N824 N 0.24874 0.87828 0.85515
 N825 N 0.24966 0.86029 0.83397
 C826 C 0.24774 0.83245 0.83874
 N827 N 0.24492 0.82336 0.86532
 N828 N 0.24387 0.84125 0.88636
 C829 C 0.74608 0.38872 0.40553
 N830 N 0.73104 0.38217 0.42850
 N831 N 0.73031 0.39925 0.45026
 C832 C 0.74465 0.42358 0.45002
 N833 N 0.76010 0.42993 0.42715
 N834 N 0.76061 0.41295 0.40519
 C835 C 0.74714 0.36915 0.38211
 N836 N 0.75628 0.37703 0.35650
 N837 N 0.75691 0.35881 0.33553
 C838 C 0.74871 0.33205 0.33960
 N839 N 0.73972 0.32429 0.36522
 N840 N 0.73882 0.34249 0.38602
 C841 C 0.11325 0.23894 0.09756
 N842 N 0.12277 0.22884 0.07305
 N843 N 0.10576 0.22588 0.05145
 C844 C 0.07836 0.23285 0.05315
 N845 N 0.06904 0.24336 0.07778
 N846 N 0.08601 0.24615 0.09961
 C847 C 0.13271 0.24222 0.12090
 N848 N 0.12380 0.24703 0.14734
 N849 N 0.14206 0.24905 0.16822
 C850 C 0.16982 0.24658 0.16326
 N851 N 0.17856 0.24201 0.13682
 N852 N 0.16039 0.23980 0.11609
 C853 C 0.61004 0.75668 0.59574
 N854 N 0.61561 0.77166 0.57245
 N855 N 0.59861 0.77068 0.55061
 C856 C 0.57535 0.75464 0.55112
 N857 N 0.57001 0.73931 0.57431
 N858 N 0.58690 0.74049 0.59632
 C859 C 0.62966 0.75704 0.61915
 N860 N 0.62253 0.74675 0.64454
 N861 N 0.64093 0.74654 0.66536
 C862 C 0.66715 0.75636 0.66138
 N863 N 0.67417 0.76662 0.63601
 N864 N 0.65574 0.76710 0.61535
 C865 C 0.09420 0.74102 0.89133
 N866 N 0.06859 0.73534 0.88109
 N867 N 0.04638 0.73584 0.89755
 C868 C 0.04859 0.74193 0.92511
 N869 N 0.07442 0.74772 0.93528
 N870 N 0.09680 0.74717 0.91880
 C871 C 0.11806 0.74162 0.87222
 N872 N 0.14451 0.74591 0.88133
 N873 N 0.16562 0.74704 0.86325
 C874 C 0.16090 0.74407 0.83549
 N875 N 0.13449 0.73974 0.82656
 N876 N 0.11353 0.73848 0.84455
 C877 C 0.59604 0.24886 0.39226
 N878 N 0.57361 0.26504 0.38668
 N879 N 0.55198 0.26556 0.40394
 C880 C 0.55184 0.24987 0.42745
 N881 N 0.57415 0.23329 0.43279
 N882 N 0.59599 0.23299 0.41565
 C883 C 0.61931 0.24807 0.37256
 N884 N 0.64480 0.23844 0.38017
 N885 N 0.66575 0.23815 0.36192
 C886 C 0.66177 0.24716 0.33540
 N887 N 0.63626 0.25661 0.32786
 N888 N 0.61548 0.25720 0.34612
 C889 C 0.90390 0.75848 0.11114
 N890 N 0.90103 0.75365 0.08344
 N891 N 0.92325 0.75388 0.06671
 C892 C 0.94919 0.75921 0.07686
 N893 N 0.95168 0.76397 0.10466
 N894 N 0.92964 0.76369 0.12136
 C895 C 0.88011 0.75738 0.13040
 N896 N 0.88479 0.75951 0.15815
 N897 N 0.86381 0.75843 0.17616
 C898 C 0.83724 0.75522 0.16719
 N899 N 0.83241 0.75311 0.13937
 N900 N 0.85352 0.75408 0.12127
 C901 C 0.40651 0.25326 0.61635
 N902 N 0.40663 0.23683 0.59337
 N903 N 0.42869 0.23640 0.57650
 C904 C 0.45119 0.25276 0.58167
 N905 N 0.45101 0.26896 0.60481
 N906 N 0.42915 0.26918 0.62181
 C907 C 0.38291 0.25331 0.63575
 N908 N 0.38645 0.26320 0.66193
 N909 N 0.36546 0.26316 0.67997
 C910 C 0.34001 0.25353 0.67245
 N911 N 0.33631 0.24380 0.64616
 N912 N 0.35747 0.24355 0.62815
 C913 C 0.89174 0.24936 0.90887
 N914 N 0.91968 0.25283 0.90673
 N915 N 0.93598 0.24944 0.92899
 C916 C 0.92523 0.24199 0.95416
 N917 N 0.89713 0.23915 0.95605
 N918 N 0.88080 0.24270 0.93399
 C919 C 0.87314 0.25224 0.88474
 N920 N 0.84526 0.25150 0.88885
 N921 N 0.82782 0.25283 0.86744
 C922 C 0.83745 0.25484 0.84098
 N923 N 0.86542 0.25573 0.83670
 N924 N 0.88298 0.25451 0.85826
 C925 C 0.38852 0.74438 0.40452
 N926 N 0.38102 0.73039 0.42788
 N927 N 0.39753 0.73007 0.45012
 C928 C 0.42222 0.74378 0.44996
 N929 N 0.42954 0.75814 0.42666
 N930 N 0.41312 0.75826 0.40426
 C931 C 0.36946 0.74528 0.38065
 N932 N 0.37794 0.75400 0.35506
 N933 N 0.36008 0.75476 0.33375
 C934 C 0.33310 0.74713 0.33746
 N935 N 0.32476 0.73853 0.36304
 N936 N 0.34259 0.73750 0.38417
 C937 C 0.11479 0.09398 0.25996
 N938 N 0.08714 0.09695 0.25499
 N939 N 0.07027 0.07489 0.25568
 C940 C 0.08016 0.04900 0.26164
 N941 N 0.10796 0.04634 0.26636
 N942 N 0.12484 0.06824 0.26561
 C943 C 0.13405 0.11772 0.25850
 N944 N 0.16181 0.11317 0.26069
 N945 N 0.17975 0.13416 0.25897
 C946 C 0.17069 0.16062 0.25510
 N947 N 0.14286 0.16533 0.25303
 N948 N 0.12484 0.14422 0.25464
 C949 C 0.61417 0.59812 0.74575
 N950 N 0.58998 0.59829 0.76037
 N951 N 0.57320 0.57617 0.76007
 C952 C 0.57973 0.55327 0.74477
 N953 N 0.60403 0.55320 0.73034
 N954 N 0.62090 0.57514 0.73084
 C955 C 0.63348 0.62181 0.74650
 N956 N 0.66008 0.61829 0.73779
 N957 N 0.67801 0.63935 0.73835
 C958 C 0.67001 0.66486 0.74739
 N959 N 0.64331 0.66854 0.75599
 N960 N 0.62538 0.64731 0.75570
 C961 C 0.90985 0.11579 0.73983
 N962 N 0.90778 0.08867 0.74744
 N963 N 0.92967 0.07173 0.74524
 C964 C 0.95443 0.08094 0.73498
 N965 N 0.95626 0.10828 0.72779
 N966 N 0.93455 0.12528 0.73011
 C967 C 0.88618 0.13499 0.74233
 N968 N 0.89023 0.16265 0.73846
 N969 N 0.86914 0.18045 0.74066
 C970 C 0.84311 0.17130 0.74664
 N971 N 0.83894 0.14358 0.75043
 N972 N 0.86014 0.12573 0.74839
 C973 C 0.40564 0.61071 0.23989
 N974 N 0.40601 0.58661 0.25465
 N975 N 0.42843 0.57023 0.25430
 C976 C 0.45111 0.57708 0.23881
 N977 N 0.45069 0.60132 0.22427
 N978 N 0.42844 0.61781 0.22482
 C979 C 0.38163 0.62958 0.24090
 N980 N 0.38451 0.65630 0.23229
 N981 N 0.36323 0.67394 0.23373
 C982 C 0.33813 0.66550 0.24353
 N983 N 0.33508 0.63866 0.25192
 N984 N 0.35652 0.62103 0.25074
 C985 C 0.09468 0.88980 0.74309
 N986 N 0.09779 0.91725 0.74896
 N987 N 0.07620 0.93464 0.74688
 C988 C 0.05072 0.92548 0.73852
 N989 N 0.04790 0.89783 0.73309
 N990 N 0.06930 0.88044 0.73527
 C991 C 0.11800 0.87009 0.74512
 N992 N 0.11313 0.84250 0.74174
 N993 N 0.13385 0.82420 0.74321
 C994 C 0.16032 0.83274 0.74798
 N995 N 0.16531 0.86039 0.75134
 N996 N 0.14449 0.87875 0.74998
 C997 C 0.59818 0.38952 0.24074
 N998 N 0.57565 0.38318 0.22497
 N999 N 0.55380 0.40016 0.22407
 C1000 C 0.55351 0.42416 0.23895
 N1001 N 0.57597 0.43036 0.25503
 N1002 N 0.59800 0.41346 0.25574
 C1003 C 0.62155 0.36991 0.24233
 N1004 N 0.64651 0.37747 0.25327
 N1005 N 0.66732 0.35913 0.25494
 C1006 C 0.66375 0.33256 0.24597
 N1007 N 0.63879 0.32509 0.23510
 N1008 N 0.61815 0.34344 0.23318
 C1009 C 0.89096 0.90682 0.24870
 N1010 N 0.88356 0.93108 0.23631
 N1011 N 0.90074 0.95278 0.23638
 C1012 C 0.92606 0.95115 0.24884
 N1013 N 0.93340 0.92685 0.26140
 N1014 N 0.91627 0.90501 0.26114
 C1015 C 0.87112 0.88360 0.24961
 N1016 N 0.87908 0.85763 0.25756
 N1017 N 0.86061 0.83690 0.25846
 C1018 C 0.83352 0.84155 0.25177
 N1019 N 0.82566 0.86753 0.24396
 N1020 N 0.84411 0.88812 0.24282
 C1021 C 0.39123 0.40762 0.75101
 N1022 N 0.38441 0.43003 0.73526
 N1023 N 0.40142 0.45177 0.73352
 C1024 C 0.42596 0.45209 0.74751
 N1025 N 0.43264 0.42976 0.76362
 N1026 N 0.41571 0.40781 0.76515
 C1027 C 0.37171 0.38426 0.75314
 N1028 N 0.37982 0.35889 0.76272
 N1029 N 0.36169 0.33787 0.76401
 C1030 C 0.33479 0.34167 0.75607
 N1031 N 0.32678 0.36707 0.74672
 N1032 N 0.34490 0.38790 0.74516
 C1033 C 0.11122 0.23682 0.90777
 N1034 N 0.12112 0.22660 0.93210
 N1035 N 0.10458 0.22402 0.95410
 C1036 C 0.07730 0.23148 0.95296
 N1037 N 0.06755 0.24199 0.92848
 N1038 N 0.08407 0.24447 0.90626
 C1039 C 0.13034 0.24023 0.88419
 N1040 N 0.12122 0.24658 0.85813
 N1041 N 0.13928 0.24945 0.83717
 C1042 C 0.16704 0.24629 0.84170
 N1043 N 0.17598 0.24004 0.86774
 N1044 N 0.15802 0.23699 0.88852
 C1045 C 0.60859 0.74539 0.40394
 N1046 N 0.58389 0.75912 0.40329
 N1047 N 0.56738 0.75941 0.42562
 C1048 C 0.57474 0.74565 0.44927
 N1049 N 0.59950 0.73204 0.44980
 N1050 N 0.61608 0.73193 0.42762
 C1051 C 0.62786 0.74612 0.38021
 N1052 N 0.65471 0.73831 0.38396
 N1053 N 0.67281 0.73964 0.36308
 C1054 C 0.66477 0.74859 0.33752
 N1055 N 0.63780 0.75616 0.33357
 N1056 N 0.61967 0.75508 0.35462
 C1057 C 0.90482 0.75901 0.88902
 N1058 N 0.93082 0.76379 0.87934
 N1059 N 0.95257 0.76294 0.89637
 C1060 C 0.94952 0.75739 0.92398
 N1061 N 0.92330 0.75256 0.93362
 N1062 N 0.90137 0.75344 0.91654
 C1063 C 0.88143 0.75890 0.86933
 N1064 N 0.85471 0.75523 0.87786
 N1065 N 0.83399 0.75463 0.85934
 C1066 C 0.83933 0.75753 0.83168
 N1067 N 0.86601 0.76123 0.82329
 N1068 N 0.88662 0.76194 0.84174
 C1069 C 0.40602 0.24838 0.39260
 N1070 N 0.40599 0.26481 0.41560
 N1071 N 0.42776 0.26488 0.43287
 C1072 C 0.45007 0.24814 0.42808
 N1073 N 0.44992 0.23179 0.40503
 N1074 N 0.42839 0.23193 0.38765
 C1075 C 0.38304 0.24904 0.37249
 N1076 N 0.38725 0.23953 0.34625
 N1077 N 0.36683 0.24013 0.32757
 C1078 C 0.34129 0.24997 0.33448
 N1079 N 0.33693 0.25936 0.36081
 N1080 N 0.35753 0.25907 0.37946
 C1081 C 0.09506 0.74338 0.11015
 N1082 N 0.09654 0.75515 0.08448
 N1083 N 0.07415 0.75598 0.06806
 C1084 C 0.04957 0.74478 0.07655
 N1085 N 0.04826 0.73300 0.10221
 N1086 N 0.07052 0.73232 0.11866
 C1087 C 0.11888 0.74378 0.12931
 N1088 N 0.11490 0.73742 0.15651
 N1089 N 0.13592 0.73846 0.17447
 C1090 C 0.16184 0.74570 0.16594
 N1091 N 0.16600 0.75188 0.13864
 N1092 N 0.14482 0.75107 0.12064
 C1093 C 0.59873 0.25069 0.61445
 N1094 N 0.59806 0.26686 0.59127
 N1095 N 0.57563 0.26706 0.57489
 C1096 C 0.55327 0.25073 0.58078
 N1097 N 0.55399 0.23481 0.60413
 N1098 N 0.57623 0.23482 0.62064
 C1099 C 0.62272 0.25095 0.63341
 N1100 N 0.61972 0.24121 0.65973
 N1101 N 0.64096 0.24172 0.67746
 C1102 C 0.66616 0.25165 0.66951
 N1103 N 0.66935 0.26120 0.64306
 N1104 N 0.64792 0.26099 0.62534
 C1105 C 0.89188 0.23770 0.10071
 N1106 N 0.88472 0.22274 0.07789
 N1107 N 0.90127 0.22195 0.05571
 C1108 C 0.92567 0.23616 0.05537
 N1109 N 0.93272 0.25145 0.07813
 N1110 N 0.91623 0.25206 0.10049
 C1111 C 0.87259 0.23919 0.12438
 N1112 N 0.88054 0.24933 0.14959
 N1113 N 0.86236 0.25082 0.17059
 C1114 C 0.83558 0.24247 0.16693
 N1115 N 0.82778 0.23238 0.14175
 N1116 N 0.84593 0.23064 0.12095
 C1117 C 0.38807 0.74702 0.59745
 N1118 N 0.38336 0.72981 0.57560
 N1119 N 0.40004 0.73014 0.55349
 C1120 C 0.42206 0.74779 0.55221
 N1121 N 0.42643 0.76546 0.57388
 N1122 N 0.40990 0.76492 0.59621
 C1123 C 0.36889 0.74682 0.62128
 N1124 N 0.37607 0.75801 0.64626
 N1125 N 0.35813 0.75780 0.66751
 C1126 C 0.33233 0.74664 0.66436
 N1127 N 0.32527 0.73553 0.63938
 N1128 N 0.34324 0.73544 0.61834
 C1129 C 0.24072 0.11105 0.90710
 N1130 N 0.24750 0.08373 0.90463
 N1131 N 0.24494 0.06657 0.92637
 C1132 C 0.23516 0.07584 0.95132
 N1133 N 0.22850 0.10328 0.95338
 N1134 N 0.23119 0.12044 0.93187
 C1135 C 0.24401 0.13077 0.88397
 N1136 N 0.24143 0.15840 0.88903
 N1137 N 0.24395 0.17682 0.86854
 C1138 C 0.24903 0.16837 0.84210
 N1139 N 0.25162 0.14068 0.83690
 N1140 N 0.24927 0.12217 0.85753
 C1141 C 0.74402 0.61140 0.40262
 N1142 N 0.75892 0.58737 0.40238
 N1143 N 0.75881 0.57051 0.42447
 C1144 C 0.74344 0.57683 0.44740
 N1145 N 0.72859 0.60087 0.44745
 N1146 N 0.72891 0.61780 0.42556
 C1147 C 0.74512 0.63118 0.37936
 N1148 N 0.73693 0.65785 0.38350
 N1149 N 0.73819 0.67635 0.36295
 C1150 C 0.74741 0.66886 0.33735
 N1151 N 0.75542 0.64208 0.33302
 N1152 N 0.75446 0.62357 0.35375
 C1153 C 0.75477 0.09600 0.11073
 N1154 N 0.76657 0.07146 0.11814
 N1155 N 0.76548 0.04962 0.10119
 C1156 C 0.75254 0.05141 0.07614
 N1157 N 0.74060 0.07599 0.06875
 N1158 N 0.74185 0.09796 0.08566
 C1159 C 0.75478 0.11929 0.13044
 N1160 N 0.74677 0.14526 0.12260
 N1161 N 0.74621 0.16597 0.14108
 C1162 C 0.75338 0.16130 0.16805
 N1163 N 0.76138 0.13535 0.17578
 N1164 N 0.76216 0.11478 0.15731
 C1165 C 0.24563 0.59528 0.61073
 N1166 N 0.22821 0.57367 0.61575
 N1167 N 0.22795 0.55160 0.59907
 C1168 C 0.24518 0.55012 0.57672
 N1169 N 0.26304 0.57157 0.57201
 N1170 N 0.26308 0.59388 0.58854
 C1171 C 0.24613 0.61899 0.62996
 N1172 N 0.25691 0.64404 0.62243
 N1173 N 0.25718 0.66524 0.64039
 C1174 C 0.24695 0.66194 0.66657
 N1175 N 0.23630 0.63688 0.67400
 N1176 N 0.23572 0.61589 0.65600
 C1177 C 0.74487 0.90554 0.88888
 N1178 N 0.75617 0.90393 0.91474
 N1179 N 0.75615 0.92608 0.93148
 C1180 C 0.74451 0.95052 0.92314
 N1181 N 0.73323 0.95197 0.89727
 N1182 N 0.73340 0.92995 0.88050
 C1183 C 0.74618 0.88202 0.86941
 N1184 N 0.74025 0.88630 0.84216
 N1185 N 0.74202 0.86557 0.82394
 C1186 C 0.74959 0.83967 0.83223
 N1187 N 0.75536 0.83521 0.85958
 N1188 N 0.75382 0.85610 0.87785
 C1189 C 0.24662 0.40157 0.39014
 N1190 N 0.25949 0.40104 0.41532
 N1191 N 0.25862 0.42320 0.43203
 C1192 C 0.24448 0.44653 0.42440
 N1193 N 0.23166 0.44689 0.39921
 N1194 N 0.23273 0.42491 0.38244
 C1195 C 0.24856 0.37807 0.37069
 N1196 N 0.24191 0.38198 0.34353
 N1197 N 0.24387 0.36119 0.32540
 C1198 C 0.25230 0.33555 0.33371
 N1199 N 0.25883 0.33148 0.36095
 N1200 N 0.25714 0.35245 0.37911
 C1201 C 0.23814 0.88829 0.09661
 N1202 N 0.25253 0.91260 0.09629
 N1203 N 0.25147 0.92928 0.07409
 C1204 C 0.23563 0.92249 0.05162
 N1205 N 0.22136 0.89812 0.05208
 N1206 N 0.22262 0.88136 0.07409
 C1207 C 0.24014 0.86887 0.12011
 N1208 N 0.23203 0.84209 0.11663
 N1209 N 0.23412 0.82392 0.13739
 C1210 C 0.24415 0.83184 0.16256
 N1211 N 0.25209 0.85873 0.16624
 N1212 N 0.25026 0.87692 0.14528
 C1213 C 0.74569 0.39219 0.59805
 N1214 N 0.73016 0.38525 0.57552
 N1215 N 0.72964 0.40154 0.55312
 C1216 C 0.74470 0.42542 0.55225
 N1217 N 0.76061 0.43216 0.57468
 N1218 N 0.76093 0.41596 0.59727
 C1219 C 0.74675 0.37328 0.62205
 N1220 N 0.75701 0.38150 0.64713
 N1221 N 0.75808 0.36371 0.66849
 C1222 C 0.74920 0.33705 0.66534
 N1223 N 0.73900 0.32898 0.64029
 N1224 N 0.73765 0.34676 0.61913
 C1225 C 0.09996 0.11230 0.74245
 N1226 N 0.07573 0.12262 0.73244
 N1227 N 0.05368 0.10628 0.72922
 C1228 C 0.05463 0.07877 0.73579
 N1229 N 0.07902 0.06856 0.74610
 N1230 N 0.10131 0.08490 0.74921
 C1231 C 0.12360 0.13130 0.74635
 N1232 N 0.14979 0.12205 0.75194
 N1233 N 0.17080 0.14008 0.75477
 C1234 C 0.16619 0.16791 0.75232
 N1235 N 0.14001 0.17694 0.74693
 N1236 N 0.11919 0.15903 0.74394
 C1237 C 0.59801 0.61204 0.24313
 N1238 N 0.57542 0.61896 0.22768
 N1239 N 0.55359 0.60201 0.22620
 C1240 C 0.55335 0.57744 0.24016
 N1241 N 0.57588 0.57067 0.25595
 N1242 N 0.59792 0.58753 0.25722
 C1243 C 0.62138 0.63165 0.24522
 N1244 N 0.64682 0.62364 0.25473
 N1245 N 0.66767 0.64195 0.25637
 C1246 C 0.66364 0.66893 0.24885
 N1247 N 0.63819 0.67681 0.23949
 N1248 N 0.61754 0.65853 0.23757
 C1249 C 0.11036 0.90201 0.24678
 N1250 N 0.11843 0.92612 0.23449
 N1251 N 0.10255 0.94876 0.23594
 C1252 C 0.07793 0.94826 0.24978
 N1253 N 0.06995 0.92415 0.26233
 N1254 N 0.08578 0.90139 0.26072
 C1255 C 0.12900 0.87779 0.24617
 N1256 N 0.12054 0.85217 0.25478
 N1257 N 0.13826 0.83073 0.25488
 C1258 C 0.16508 0.83432 0.24663
 N1259 N 0.17335 0.85990 0.23799
 N1260 N 0.15567 0.88115 0.23764
 C1261 C 0.61292 0.40572 0.74612
 N1262 N 0.58918 0.40617 0.76147
 N1263 N 0.57269 0.42852 0.76121
 C1264 C 0.57908 0.45105 0.74527
 N1265 N 0.60292 0.45050 0.73011
 N1266 N 0.61950 0.42834 0.73056
 C1267 C 0.63216 0.38197 0.74708
 N1268 N 0.65864 0.38532 0.73796
 N1269 N 0.67671 0.36441 0.73916
 C1270 C 0.66898 0.33919 0.74922
 N1271 N 0.64237 0.33562 0.75813
 N1272 N 0.62429 0.35673 0.75721
 C1273 C 0.89277 0.09708 0.26274
 N1274 N 0.88502 0.07299 0.27525
 N1275 N 0.90195 0.05110 0.27545
 C1276 C 0.92737 0.05234 0.26316
 N1277 N 0.93516 0.07652 0.25065
 N1278 N 0.91826 0.09856 0.25061
 C1279 C 0.87290 0.12022 0.26098
 N1280 N 0.88090 0.14605 0.25266
 N1281 N 0.86228 0.16659 0.25061
 C1282 C 0.83502 0.16186 0.25648
 N1283 N 0.82713 0.13603 0.26471
 N1284 N 0.84572 0.11565 0.26700
 C1285 C 0.39125 0.59838 0.74420
 N1286 N 0.38508 0.57529 0.72924
 N1287 N 0.40227 0.55359 0.72906
 C1288 C 0.42633 0.55401 0.74388
 N1289 N 0.43240 0.57708 0.75910
 N1290 N 0.41529 0.59897 0.75908
 C1291 C 0.37127 0.62149 0.74513
 N1292 N 0.37863 0.64710 0.75459
 N1293 N 0.35997 0.66767 0.75552
 C1294 C 0.33326 0.66320 0.74733
 N1295 N 0.32600 0.63759 0.73798
 N1296 N 0.34466 0.61719 0.73677
 C1297 C 0.90409 0.89540 0.73822
 N1298 N 0.90491 0.91971 0.75260
 N1299 N 0.92741 0.93596 0.75142
 C1300 C 0.94969 0.92870 0.73551
 N1301 N 0.94868 0.90440 0.72117
 N1302 N 0.92638 0.88809 0.72254
 C1303 C 0.88050 0.87613 0.74053
 N1304 N 0.88394 0.84934 0.73248
 N1305 N 0.86322 0.83120 0.73473
 C1306 C 0.83810 0.83911 0.74485
 N1307 N 0.83443 0.86602 0.75277
 N1308 N 0.85538 0.88421 0.75080
 C1309 C 0.40672 0.38950 0.24244
 N1310 N 0.40670 0.41408 0.25637
 N1311 N 0.42875 0.43093 0.25515
 C1312 C 0.45139 0.42407 0.23959
 N1313 N 0.45126 0.39943 0.22579
 N1314 N 0.42942 0.38250 0.22721
 C1315 C 0.38335 0.36992 0.24449
 N1316 N 0.38724 0.34299 0.23709
 N1317 N 0.36655 0.32474 0.23894
 C1318 C 0.34103 0.33271 0.24799
 N1319 N 0.33695 0.35973 0.25528
 N1320 N 0.35783 0.37801 0.25371
   
