data_POSCAR
  _audit_creation_date              2014-09-24
  _audit_creation_method            'ToBaCCo'
  _symmetry_space_group_name_H-M    'P1'
  _symmetry_Int_Tables_number       1
  _symmetry_cell_setting            triclinic
  loop_
  _symmetry_equiv_pos_as_xyz
 x,y,z
_cell_length_a 38.4149
_cell_length_b 38.3302
_cell_length_c 38.0324
_cell_angle_alpha 90.104500
_cell_angle_beta 90.531100
_cell_angle_gamma 90.459400
loop_
  _atom_site_label
  _atom_site_type_symbol
  _atom_site_fract_x
  _atom_site_fract_y
  _atom_site_fract_z
N1 N 0.34534 1.34349 0.36342
 N2 N 0.33618 0.83853 0.84486
 N3 N 0.84526 1.35002 0.84034
 N4 N 0.84619 0.84444 0.34441
 N5 N 0.65070 0.65323 0.33909
 N6 N 0.65703 0.15536 0.84634
 N7 N 1.14845 0.65024 0.84587
 N8 N 1.15999 0.16274 0.36156
 N9 N 0.64744 1.35299 0.66597
 N10 N 0.65787 0.84979 1.14519
 N11 N 1.15327 1.35343 1.16344
 N12 N 1.15411 0.84899 0.65340
 N13 N 0.35128 0.64262 0.64915
 N14 N 0.34703 0.15401 1.15836
 N15 N 0.84960 0.65818 1.14580
 N16 N 0.85321 0.15953 0.63220
 N17 N 1.35214 0.34355 0.65538
 N18 N 1.34519 0.84762 1.14600
 N19 N 0.84857 0.34695 1.15755
 N20 N 0.85177 0.85181 0.64617
 N21 N 0.64693 0.65172 0.65435
 N22 N 0.66027 1.15168 1.15122
 N23 N 0.15802 0.66237 1.14679
 N24 N 0.15648 1.15718 0.65003
 N25 N 1.34467 0.64538 0.35402
 N26 N 1.34079 1.14324 0.84291
 N27 N 0.84304 0.64893 0.83988
 N28 N 0.85114 1.14830 0.35051
 N29 N 0.65135 0.33571 0.33893
 N30 N 0.64416 0.85453 0.84953
 N31 N 0.14581 0.34495 0.85316
 N32 N 0.15386 0.84704 0.34868
 O33 O 0.97360 0.87530 0.81993
 O34 O 0.97505 0.83722 0.77655
 C35 C 0.96182 0.86433 0.79054
 C36 C 0.93184 0.88321 0.77369
 C37 C 0.91711 0.87275 0.74082
 H38 H 0.92763 0.85078 0.72662
 O39 O 1.03523 1.12168 0.81239
 O40 O 1.03957 1.16208 0.77154
 C41 C 1.04999 1.13386 0.78529
 C42 C 1.08075 1.11579 0.77122
 C43 C 1.09658 1.12637 0.73964
 H44 H 1.08520 1.14705 0.72407
 O45 O 0.82375 0.96913 0.86328
 O46 O 0.78250 0.96848 0.82273
 C47 C 0.79505 0.95658 0.85113
 C48 C 0.77802 0.92679 0.86997
 C49 C 0.74419 0.91302 0.86163
 H50 H 0.72852 0.92477 0.84110
 O51 O 1.17501 1.03982 0.88483
 O52 O 1.21836 1.04079 0.84724
 C53 C 1.20393 1.05227 0.87470
 C54 C 1.22046 1.08108 0.89445
 C55 C 1.25217 1.09550 0.88345
 H56 H 1.26530 1.08409 0.86120
 O57 O 0.88026 0.82387 0.94898
 O58 O 0.83988 0.78275 0.94904
 C59 C 0.86793 0.79514 0.93695
 C60 C 0.88625 0.77658 0.90825
 C61 C 0.87377 0.74470 0.89386
 H62 H 0.85058 0.73249 0.90436
 O63 O 1.11129 1.16865 0.97269
 O64 O 1.15099 1.21021 0.97263
 C65 C 1.12343 1.19666 0.95991
 C66 C 1.10729 1.21432 0.92944
 C67 C 1.11954 1.24763 0.92127
 H68 H 1.13801 1.26088 0.93854
 O69 O 0.87371 1.03691 0.81533
 O70 O 0.83247 1.03533 0.77486
 C71 C 0.86100 1.04778 0.78623
 C72 C 0.87889 1.07559 0.76566
 C73 C 0.86492 1.08717 0.73350
 H74 H 0.84153 1.07500 0.72286
 O75 O 1.13165 0.97075 0.83382
 O76 O 1.17535 0.97170 0.79652
 C77 C 1.14615 0.95952 0.80623
 C78 C 1.12921 0.93187 0.78521
 C79 C 1.14345 0.92215 0.75298
 H80 H 1.16634 0.93540 0.74300
 O81 O 1.04131 0.82685 0.86845
 O82 O 1.04441 0.78787 0.82603
 C83 C 1.05457 0.79921 0.85603
 C84 C 1.08240 0.78116 0.87709
 C85 C 1.09678 0.74867 0.86702
 H86 H 1.08744 0.73565 0.84344
 O87 O 0.96751 1.17143 0.85645
 O88 O 0.97152 1.21246 0.81603
 C89 C 0.95838 1.20080 0.84426
 C90 C 0.93209 1.22133 0.86313
 C91 C 0.92000 1.25280 0.84918
 H92 H 0.93036 1.26266 0.82469
 O93 O 0.84194 1.13193 0.95615
 O94 O 0.80253 1.17344 0.95619
 C95 C 0.81361 1.14454 0.94466
 C96 C 0.79286 1.12620 0.91753
 C97 C 0.76028 1.13914 0.90839
 H98 H 0.74999 1.16172 0.92189
 O99 O 1.17451 0.87590 0.97209
 O100 O 1.21479 0.83532 0.97424
 C101 C 1.20309 0.86347 0.96133
 C102 C 1.22186 0.88225 0.93307
 C103 C 1.25197 0.86867 0.91682
 H104 H 1.26256 0.84384 0.92498
 O105 O 0.96675 1.12441 0.80755
 O106 O 0.96979 1.16487 0.76669
 C107 C 0.95565 1.13728 0.77882
 C108 C 0.92511 1.11989 0.76112
 C109 C 0.91033 1.13152 0.72886
 H110 H 0.92193 1.15333 0.71508
 O111 O 1.04198 0.87653 0.82214
 O112 O 1.04461 0.83844 0.77884
 C113 C 1.05546 0.86625 0.79362
 C114 C 1.08482 0.88634 0.77848
 C115 C 1.09973 0.87671 0.74624
 H116 H 1.08893 0.85497 0.73142
 O117 O 1.17603 0.97160 0.88533
 O118 O 1.21938 0.97355 0.84778
 C119 C 1.20536 0.96078 0.87491
 C120 C 1.22295 0.93161 0.89264
 C121 C 1.25363 0.91891 0.87838
 H122 H 1.26587 0.93231 0.85659
 O123 O 0.82934 1.03783 0.86736
 O124 O 0.78843 1.03764 0.82639
 C125 C 0.80146 1.05032 0.85464
 C126 C 0.78573 1.08068 0.87285
 C127 C 0.75302 1.09493 0.86318
 H128 H 0.73770 1.08339 0.84209
 O129 O 0.88697 1.18259 0.95607
 O130 O 0.84767 1.22412 0.95558
 C131 C 0.87496 1.21081 0.94315
 C132 C 0.89174 1.22704 0.91206
 C133 C 0.87945 1.25856 0.89731
 H134 H 0.85853 1.27255 0.90981
 O135 O 1.12528 0.82976 0.96942
 O136 O 1.16532 0.78901 0.97320
 C137 C 1.13811 0.80127 0.95864
 C138 C 1.12229 0.78263 0.92809
 C139 C 1.13584 0.75052 0.91764
 H140 H 1.15668 0.73863 0.93272
 O141 O 1.13139 1.03797 0.83170
 O142 O 1.17529 1.03827 0.79468
 C143 C 1.14554 1.04889 0.80364
 C144 C 1.12764 1.07436 0.78103
 C145 C 1.14260 1.08454 0.74919
 H146 H 1.16675 1.07304 0.74054
 O147 O 0.88019 0.96928 0.82542
 O148 O 0.83968 0.96787 0.78423
 C149 C 0.86837 0.95670 0.79698
 C150 C 0.88717 0.92880 0.77801
 C151 C 0.87429 0.91863 0.74527
 H152 H 0.85195 0.93172 0.73388
 O153 O 1.03361 1.16798 0.86152
 O154 O 1.03846 1.20940 0.82169
 C155 C 1.04709 1.19654 0.85140
 C156 C 1.07268 1.21455 0.87502
 C157 C 1.08688 1.24775 0.86669
 H158 H 1.07993 1.26053 0.84228
 O159 O 0.97375 0.82400 0.86359
 O160 O 0.97596 0.78526 0.82075
 C161 C 0.96270 0.79603 0.84921
 C162 C 0.93324 0.77704 0.86538
 C163 C 0.92060 0.74548 0.85134
 H164 H 0.93335 0.73373 0.82900
 O165 O 1.16737 1.12999 0.97677
 O166 O 1.20659 1.17237 0.97804
 C167 C 1.19610 1.14329 0.96641
 C168 C 1.21684 1.12565 0.93959
 C169 C 1.24871 1.14008 0.92831
 H170 H 1.25929 1.16345 0.94054
 O171 O 0.83544 0.87489 0.95012
 O172 O 0.79547 0.83330 0.95105
 C173 C 0.80661 0.86226 0.93954
 C174 C 0.78528 0.88087 0.91366
 C175 C 0.75208 0.86822 0.90583
 H176 H 0.74195 0.84551 0.91943
 Cu177 Cu 1.00752 0.85447 0.84766
 Cu178 Cu 1.01049 0.80866 0.79617
 Cu179 Cu 1.00026 1.14185 0.83803
 Cu180 Cu 1.00543 1.19082 0.78963
 Cu181 Cu 0.85529 1.00367 0.84712
 Cu182 Cu 0.80766 1.00188 0.79835
 Cu183 Cu 1.14913 1.00522 0.86301
 Cu184 Cu 1.20156 1.00618 0.81809
 C185 C 0.91632 0.91140 0.79200
 H186 H 0.92635 0.91933 0.81752
 C187 C 0.88819 0.89093 0.72689
 C188 C 1.09643 1.08954 0.79153
 H189 H 1.08507 1.08183 0.81632
 C190 C 1.12757 1.11046 0.72862
 C191 C 0.79787 0.91028 0.89628
 H192 H 0.82387 0.91963 0.90263
 C193 C 0.73136 0.88346 0.88031
 C194 C 1.20328 1.09595 0.92290
 H195 H 1.17846 1.08527 0.93112
 C196 C 1.26639 1.12526 0.90013
 C197 C 0.91613 0.79201 0.89400
 H198 H 0.92558 0.81659 0.90464
 C199 C 0.89109 0.72904 0.86533
 C200 C 1.08338 1.19797 0.90658
 H201 H 1.07398 1.17203 0.91289
 C202 C 1.11058 1.26398 0.89020
 C203 C 0.90907 1.09176 0.77880
 H204 H 0.91956 1.08286 0.80371
 C205 C 0.88009 1.11485 0.71487
 C206 C 1.09966 0.91423 0.79762
 H207 H 1.08888 0.92154 0.82278
 C208 C 1.12912 0.89478 0.73356
 C209 C 1.09544 0.79758 0.90791
 H210 H 1.08530 0.82264 0.91583
 C211 C 1.12362 0.73336 0.88759
 C212 C 0.91822 1.20894 0.89479
 H213 H 0.92735 1.18445 0.90547
 C214 C 0.89375 1.27144 0.86579
 C215 C 0.80526 1.09677 0.90013
 H216 H 0.83067 1.08693 0.90743
 C217 C 0.74045 1.12430 0.88158
 C218 C 1.20760 0.91370 0.92048
 H219 H 1.18374 0.92372 0.93143
 C220 C 1.26761 0.88744 0.88918
 O221 O 1.02462 0.88324 1.17677
 O222 O 1.02196 0.84226 1.21726
 C223 C 1.03520 0.87042 1.20564
 C224 C 1.06443 0.88707 1.22520
 C225 C 1.07623 0.87196 1.25645
 H226 H 1.06258 0.84974 1.26748
 O227 O 0.96617 1.12678 1.18110
 O228 O 0.96193 1.16609 1.22301
 C229 C 0.95128 1.13791 1.20841
 C230 C 0.92055 1.11836 1.22209
 C231 C 0.90587 1.12678 1.25481
 H232 H 0.91759 1.14703 1.27102
 O233 O 0.82445 1.03815 1.11166
 O234 O 0.78024 1.03809 1.14817
 C235 C 0.79570 1.05076 1.12171
 C236 C 0.78105 1.08165 1.10368
 C237 C 0.74992 1.09659 1.11550
 H238 H 0.73553 1.08438 1.13658
 O239 O 1.16775 0.97204 1.13403
 O240 O 1.20889 0.97162 1.17487
 C241 C 1.19632 0.96030 1.14601
 C242 C 1.21496 0.93255 1.12707
 C243 C 1.24770 0.92192 1.13932
 H244 H 1.25998 0.93495 1.16156
 O245 O 1.12211 0.83113 1.03851
 O246 O 1.16240 0.79066 1.04240
 C247 C 1.13364 0.80341 1.05242
 C248 C 1.11390 0.78660 1.08130
 C249 C 1.12515 0.75490 1.09583
 H250 H 1.14771 0.74205 1.08513
 O251 O 0.89016 1.17867 1.02652
 O252 O 0.85041 1.21970 1.02453
 C253 C 0.87750 1.20668 1.03849
 C254 C 0.89217 1.22393 1.07022
 C255 C 0.87674 1.25484 1.08128
 H256 H 0.85686 1.26717 1.06528
 O257 O 0.86573 0.96980 1.16477
 O258 O 0.82159 0.97002 1.20149
 C259 C 0.85090 0.95833 1.19225
 C260 C 0.86772 0.93056 1.21298
 C261 C 0.85365 0.91911 1.24490
 H262 H 0.83063 0.93138 1.25537
 O263 O 1.12070 1.03928 1.18402
 O264 O 1.16168 1.03681 1.22477
 C265 C 1.13371 1.04983 1.21298
 C266 C 1.11768 1.07854 1.23293
 C267 C 1.13378 1.08993 1.26393
 H268 H 1.15637 1.07641 1.27419
 O269 O 0.96026 0.83339 1.12471
 O270 O 0.95761 0.79238 1.16513
 C271 C 0.94844 0.80424 1.13541
 C272 C 0.92384 0.78436 1.11277
 C273 C 0.90949 0.75193 1.12324
 H274 H 0.91631 0.74077 1.14849
 O275 O 1.03467 1.17932 1.14097
 O276 O 1.03185 1.22057 1.18115
 C277 C 1.04498 1.20858 1.15298
 C278 C 1.07251 1.22744 1.13284
 C279 C 1.08803 1.25969 1.14343
 H280 H 1.08012 1.27231 1.16752
 O281 O 0.83409 0.87271 1.01854
 O282 O 0.79440 0.83079 1.01848
 C283 C 0.80593 0.85968 1.03044
 C284 C 0.78628 0.87778 1.05863
 C285 C 0.75493 0.86323 1.07067
 H286 H 0.74470 0.83943 1.05896
 O287 O 1.16169 1.12838 1.04525
 O288 O 1.20044 1.17114 1.04384
 C289 C 1.18956 1.14258 1.05677
 C290 C 1.20975 1.12621 1.08551
 C291 C 1.24201 1.14023 1.09551
 H292 H 1.25247 1.16273 1.08184
 O293 O 1.03445 1.13262 1.18989
 O294 O 1.03208 1.17241 1.23143
 C295 C 1.04579 1.14487 1.21908
 C296 C 1.07577 1.12636 1.23703
 C297 C 1.09331 1.13812 1.26840
 H298 H 1.08467 1.16144 1.28171
 O299 O 0.95616 0.88107 1.17372
 O300 O 0.95373 0.84014 1.21417
 C301 C 0.94252 0.86837 1.20129
 C302 C 0.91272 0.88627 1.21764
 C303 C 0.89825 0.87484 1.24962
 H304 H 0.90968 0.85305 1.26350
 O305 O 1.17004 1.04009 1.13806
 O306 O 1.21119 1.03982 1.17876
 C307 C 1.19848 1.05237 1.15053
 C308 C 1.21533 1.08218 1.13175
 C309 C 1.24813 1.09683 1.14160
 H310 H 1.26280 1.08597 1.16335
 O311 O 0.82459 0.96864 1.11034
 O312 O 0.78080 0.96850 1.14735
 C313 C 0.79585 0.95576 1.12063
 C314 C 0.78068 0.92465 1.10231
 C315 C 0.74947 0.90905 1.11418
 H316 H 0.73544 0.92050 1.13584
 O317 O 1.11507 1.17737 1.04213
 O318 O 1.15520 1.21877 1.04082
 C319 C 1.12733 1.20647 1.05317
 C320 C 1.11084 1.22589 1.08192
 C321 C 1.12482 1.25810 1.09193
 H322 H 1.14555 1.26994 1.07677
 O323 O 0.88478 0.82803 1.01780
 O324 O 0.84454 0.78671 1.01689
 C325 C 0.87251 0.79955 1.02936
 C326 C 0.88900 0.78177 1.05909
 C327 C 0.87613 0.74922 1.06909
 H328 H 0.85686 0.73575 1.05295
 O329 O 1.12105 0.97099 1.18300
 O330 O 1.16192 0.96852 1.22390
 C331 C 1.13318 0.95750 1.21101
 C332 C 1.11351 0.92835 1.22782
 C333 C 1.12547 0.91193 1.25893
 H334 H 1.14929 0.92073 1.27167
 O335 O 0.86987 1.03708 1.16241
 O336 O 0.82601 1.03695 1.19942
 C337 C 0.85585 1.04830 1.19028
 C338 C 0.87405 1.07480 1.21252
 C339 C 0.86043 1.08335 1.24541
 H340 H 0.83720 1.07029 1.25483
 O341 O 0.96774 1.17737 1.13596
 O342 O 0.96323 1.21757 1.17697
 C343 C 0.95407 1.20541 1.14706
 C344 C 0.92728 1.22334 1.12457
 C345 C 0.91028 1.25432 1.13548
 H346 H 0.91648 1.26589 1.16078
 O347 O 1.02730 0.83558 1.12909
 O348 O 1.02477 0.79447 1.16957
 C349 C 1.03831 0.80710 1.14193
 C350 C 1.06751 0.78871 1.12503
 C351 C 1.07923 0.75703 1.13899
 H352 H 1.06655 0.74551 1.16156
 O353 O 1.17060 0.87860 1.04026
 O354 O 1.21130 0.83844 1.04284
 C355 C 1.19865 0.86700 1.05364
 C356 C 1.21626 0.88655 1.08252
 C357 C 1.24899 0.87601 1.09562
 H358 H 1.26201 0.85388 1.08405
 O359 O 0.83719 1.13519 1.02409
 O360 O 0.79842 1.17738 1.02333
 C361 C 0.80886 1.14827 1.03508
 C362 C 0.78801 1.12974 1.06204
 C363 C 0.75672 1.14408 1.07417
 H364 H 0.74725 1.16841 1.06341
 Cu365 Cu 0.99188 0.86273 1.14707
 Cu366 Cu 0.98912 0.81374 1.19552
 Cu367 Cu 1.00128 1.14995 1.15827
 Cu368 Cu 0.99671 1.19752 1.20729
 Cu369 Cu 0.86297 0.85399 0.98364
 Cu370 Cu 0.81499 0.80448 0.98379
 Cu371 Cu 1.14410 0.85788 1.00477
 Cu372 Cu 1.19224 0.80917 1.00867
 Cu373 Cu 0.86846 1.15320 0.99094
 Cu374 Cu 0.82138 1.20286 0.98962
 Cu375 Cu 1.13474 1.14662 1.00920
 Cu376 Cu 1.18073 1.19725 1.00812
 Cu377 Cu 0.85026 1.00327 1.13323
 Cu378 Cu 0.79744 1.00376 1.17732
 Cu379 Cu 1.14080 1.00571 1.15560
 Cu380 Cu 1.18964 1.00400 1.20460
 C381 C 1.08286 0.91558 1.21131
 H382 H 1.07390 0.92709 1.18690
 C383 C 1.10657 0.88361 1.27310
 C384 C 0.90445 1.09209 1.20122
 H385 H 0.91500 1.08574 1.17570
 C386 C 0.87589 1.10901 1.26650
 C387 C 0.79978 1.09831 1.07676
 H388 H 0.82410 1.08734 1.06797
 C389 C 0.73777 1.12786 1.10090
 C390 C 1.19957 0.91506 1.09833
 H391 H 1.17408 0.92294 1.08904
 C392 C 1.26468 0.89384 1.12406
 C393 C 1.08480 0.80321 1.09596
 H394 H 1.07619 0.82792 1.08536
 C395 C 1.10784 0.74016 1.12473
 C396 C 0.91769 1.20842 1.09171
 H397 H 0.92929 1.18419 1.08326
 C398 C 0.88467 1.26976 1.11352
 C399 C 0.89742 0.91431 1.19990
 H400 H 0.90808 0.92288 1.17507
 C401 C 0.86868 0.89144 1.26339
 C402 C 1.08862 1.09632 1.22005
 H403 H 1.07664 1.08711 1.19584
 C404 C 1.12270 1.11935 1.28175
 C405 C 0.91343 0.79890 1.08048
 H406 H 0.92303 0.82437 1.07271
 C407 C 0.88535 0.73462 1.10105
 C408 C 1.08442 1.21112 1.10190
 H409 H 1.07400 1.18601 1.09374
 C410 C 1.11455 1.27483 1.12244
 C411 C 0.79882 0.90874 1.07442
 H412 H 0.82314 0.91999 1.06552
 C413 C 0.73661 0.87830 1.09831
 C414 C 1.19680 1.09718 1.10345
 H415 H 1.17161 1.08670 1.09565
 C416 C 1.26142 1.12604 1.12301
 O417 O 1.11988 0.53419 0.67886
 O418 O 1.15740 0.53799 0.72287
 C419 C 1.12930 0.54755 0.70796
 C420 C 1.10760 0.57475 0.72433
 C421 C 1.11796 0.59041 0.75628
 H422 H 1.14168 0.58224 0.76936
 O423 O 0.85375 0.46494 0.65321
 O424 O 0.81257 0.46523 0.69325
 C425 C 0.84148 0.45388 0.68204
 C426 C 0.86094 0.42782 0.70304
 C427 C 0.84809 0.41727 0.73576
 H428 H 0.82418 0.42818 0.74573
 O429 O 1.02290 0.67319 0.63131
 O430 O 1.01920 0.71158 0.67441
 C431 C 1.03333 0.70122 0.64632
 C432 C 1.06259 0.72112 0.63084
 C433 C 1.07484 0.75287 0.64527
 H434 H 1.06230 0.76402 0.66803
 O435 O 0.96509 0.34254 0.61671
 O436 O 0.96088 0.30162 0.65712
 C437 C 0.95264 0.31374 0.62713
 C438 C 0.92786 0.29335 0.60554
 C439 C 0.92281 0.25865 0.61488
 H440 H 0.93896 0.24672 0.63501
 O441 O 1.16151 0.62875 0.54635
 O442 O 1.20124 0.67064 0.54808
 C443 C 1.18972 0.64140 0.55853
 C444 C 1.21019 0.62249 0.58485
 C445 C 1.24418 0.63347 0.59147
 H446 H 1.25546 0.65484 0.57667
 O447 O 0.81083 0.37202 0.51971
 O448 O 0.77320 0.32841 0.51766
 C449 C 0.78277 0.35761 0.53017
 C450 C 0.76228 0.37485 0.55799
 C451 C 0.73275 0.35884 0.57306
 H452 H 0.72331 0.33394 0.56320
 O453 O 0.95146 0.62087 0.66814
 O454 O 0.94796 0.65929 0.71116
 C455 C 0.93716 0.63169 0.69612
 C456 C 0.90716 0.61260 0.71096
 C457 C 0.89394 0.62209 0.74400
 H458 H 0.90637 0.64272 0.75916
 O459 O 1.02632 0.38805 0.67644
 O460 O 1.02106 0.34639 0.71595
 C461 C 1.03496 0.37467 0.70571
 C462 C 1.06313 0.39042 0.72716
 C463 C 1.07299 0.37481 0.75877
 H464 H 1.05802 0.35310 0.76910
 O465 O 1.17434 0.46767 0.63824
 O466 O 1.21248 0.47062 0.68188
 C467 C 1.20231 0.45740 0.65276
 C468 C 1.22231 0.42929 0.63549
 C469 C 1.25430 0.41780 0.64904
 H470 H 1.26553 0.43010 0.67223
 O471 O 0.80726 0.53390 0.60508
 O472 O 0.76621 0.53436 0.64515
 C473 C 0.77975 0.54704 0.61757
 C474 C 0.76455 0.57853 0.60095
 C475 C 0.73463 0.59411 0.61491
 H476 H 0.72126 0.58202 0.63672
 O477 O 0.86812 0.67900 0.52370
 O478 O 0.83050 0.72190 0.52068
 C479 C 0.85714 0.70816 0.53498
 C480 C 0.87588 0.72463 0.56558
 C481 C 0.86799 0.75819 0.57953
 H482 H 0.84731 0.77361 0.56809
 O483 O 1.12984 0.33364 0.54673
 O484 O 1.16899 0.29189 0.54784
 C485 C 1.14085 0.30507 0.55914
 C486 C 1.12069 0.28769 0.58731
 C487 C 1.13091 0.25520 0.60088
 H488 H 1.15349 0.24223 0.59036
 O489 O 0.85359 0.53198 0.65488
 O490 O 0.81216 0.53192 0.69471
 C491 C 0.84124 0.54311 0.68365
 C492 C 0.86042 0.56951 0.70458
 C493 C 0.84795 0.57910 0.73770
 H494 H 0.82488 0.56671 0.74830
 O495 O 1.12504 0.46741 0.68401
 O496 O 1.16218 0.46989 0.72841
 C497 C 1.13497 0.45688 0.71409
 C498 C 1.11388 0.42916 0.73136
 C499 C 1.12408 0.41238 0.76295
 H500 H 1.14804 0.41991 0.77624
 O501 O 1.03194 0.33710 0.63080
 O502 O 1.02667 0.29612 0.67108
 C503 C 1.04207 0.30836 0.64433
 C504 C 1.07233 0.28939 0.62903
 C505 C 1.08313 0.25681 0.64228
 H506 H 1.06909 0.24473 0.66369
 O507 O 0.95642 0.66805 0.61938
 O508 O 0.95351 0.70649 0.66247
 C509 C 0.94463 0.69618 0.63190
 C510 C 0.92018 0.71766 0.61160
 C511 C 0.91366 0.75126 0.62336
 H512 H 0.92796 0.76180 0.64576
 O513 O 0.81957 0.63151 0.52149
 O514 O 0.78111 0.67375 0.51815
 C515 C 0.79115 0.64498 0.53143
 C516 C 0.77039 0.62700 0.55924
 C517 C 0.74025 0.64201 0.57350
 H518 H 0.73095 0.66674 0.56355
 O519 O 1.17995 0.37846 0.54735
 O520 O 1.21997 0.33757 0.54826
 C521 C 1.20786 0.36598 0.56006
 C522 C 1.22521 0.38447 0.58967
 C523 C 1.25720 0.37324 0.60358
 H524 H 1.27039 0.35134 0.59178
 O525 O 0.95734 0.38460 0.66969
 O526 O 0.95314 0.34363 0.71002
 C527 C 0.94198 0.37155 0.69630
 C528 C 0.91018 0.38820 0.71071
 C529 C 0.89640 0.37768 0.74343
 H530 H 0.90965 0.35813 0.75897
 O531 O 1.01986 0.61880 0.67199
 O532 O 1.01570 0.65774 0.71447
 C533 C 1.02931 0.63044 0.70183
 C534 C 1.05777 0.61384 0.72164
 C535 C 1.06815 0.62843 0.75384
 H536 H 1.05389 0.64988 0.76524
 O537 O 0.80428 0.46460 0.60599
 O538 O 0.76304 0.46520 0.64587
 C539 C 0.77587 0.45253 0.61811
 C540 C 0.75882 0.42212 0.60086
 C541 C 0.72941 0.40599 0.61560
 H542 H 0.71752 0.41759 0.63846
 O543 O 1.17229 0.53524 0.63693
 O544 O 1.21085 0.53940 0.68001
 C545 C 1.19937 0.54937 0.65024
 C546 C 1.21610 0.57830 0.63053
 C547 C 1.25040 0.59047 0.63763
 H548 H 1.26590 0.57868 0.65827
 O549 O 0.86674 0.33456 0.52370
 O550 O 0.83054 0.28968 0.52205
 C551 C 0.85754 0.30488 0.53513
 C552 C 0.87925 0.28853 0.56349
 C553 C 0.87308 0.25413 0.57561
 H554 H 0.85132 0.23910 0.56522
 O555 O 1.11589 0.67826 0.54572
 O556 O 1.15590 0.71980 0.54835
 C557 C 1.12756 0.70663 0.55881
 C558 C 1.10855 0.72376 0.58728
 C559 C 1.12050 0.75542 0.60169
 H560 H 1.14315 0.76831 0.59081
 Cu561 Cu 1.14428 0.50065 0.65508
 Cu562 Cu 1.18936 0.50501 0.70757
 Cu563 Cu 0.83345 0.49875 0.62522
 Cu564 Cu 0.78411 0.49904 0.67333
 Cu565 Cu 0.98815 0.64121 0.64346
 Cu566 Cu 0.98329 0.68724 0.69505
 Cu567 Cu 0.99590 0.36744 0.64472
 Cu568 Cu 0.98962 0.31818 0.69239
 C569 C 1.07729 0.58661 0.70717
 H570 H 1.06962 0.57563 0.68197
 C571 C 1.09824 0.61750 0.77074
 C572 C 0.89223 0.41346 0.69085
 H573 H 0.90223 0.42138 0.66553
 C574 C 0.86539 0.39245 0.75604
 C575 C 1.07948 0.70716 0.60165
 H576 H 1.07059 0.68255 0.59062
 C577 C 1.10377 0.77012 0.63069
 C578 C 0.90675 0.30811 0.57922
 H579 H 0.91102 0.33511 0.57197
 C580 C 0.89517 0.23955 0.60170
 C581 C 1.19636 0.59465 0.60390
 H582 H 1.16979 0.58641 0.59856
 C583 C 1.26423 0.61818 0.61742
 C584 C 0.77448 0.40670 0.57173
 H585 H 0.79746 0.41884 0.56068
 C586 C 0.71621 0.37421 0.60198
 C587 C 0.89035 0.58606 0.69149
 H588 H 0.89994 0.57900 0.66576
 C589 C 0.86434 0.60526 0.75731
 C590 C 1.08312 0.41797 0.71411
 H591 H 1.07532 0.42976 0.68944
 C592 C 1.10326 0.38498 0.77648
 C593 C 1.20831 0.41268 0.60558
 H594 H 1.18341 0.42110 0.59520
 C595 C 1.27184 0.38998 0.63321
 C596 C 0.78194 0.59502 0.57303
 H597 H 0.80533 0.58338 0.56269
 C598 C 0.72239 0.62583 0.60136
 C599 C 0.90202 0.70474 0.58235
 H600 H 0.90764 0.67855 0.57340
 C601 C 0.88759 0.77130 0.60865
 C602 C 1.09131 0.30435 0.60141
 H603 H 1.08348 0.32949 0.59121
 C604 C 1.11222 0.23958 0.62834
 O605 O 1.13151 0.47300 0.33591
 O606 O 1.17458 0.47045 0.29818
 C607 C 1.14518 0.45955 0.30890
 C608 C 1.12603 0.43072 0.29114
 C609 C 1.13523 0.41701 0.25780
 H610 H 1.15776 0.42697 0.24404
 O611 O 0.87910 0.53792 0.31530
 O612 O 0.84217 0.53686 0.27065
 C613 C 0.86925 0.54942 0.28539
 C614 C 0.88930 0.57804 0.26815
 C615 C 0.87747 0.59394 0.23664
 H616 H 0.85359 0.58509 0.22404
 O617 O 0.97510 0.67041 0.36577
 O618 O 0.97714 0.71201 0.32582
 C619 C 0.96362 0.69886 0.35328
 C620 C 0.93392 0.71684 0.37008
 C621 C 0.92270 0.74868 0.35611
 H622 H 0.93605 0.76038 0.33404
 O623 O 1.03553 0.33424 0.38991
 O624 O 1.03842 0.29426 0.34833
 C625 C 1.04780 0.30597 0.37805
 C626 C 1.07421 0.28636 0.39751
 C627 C 1.08314 0.25338 0.38520
 H628 H 1.06857 0.24127 0.36381
 O629 O 1.17892 0.37959 0.47910
 O630 O 1.21894 0.33869 0.47886
 C631 C 1.20692 0.36728 0.46700
 C632 C 1.22475 0.38664 0.43848
 C633 C 1.25643 0.37508 0.42404
 H634 H 1.26858 0.35158 0.43383
 O635 O 0.82329 0.63064 0.45305
 O636 O 0.78447 0.67239 0.44864
 C637 C 0.79631 0.64319 0.43839
 C638 C 0.77982 0.62353 0.40860
 C639 C 0.74748 0.63306 0.39355
 H640 H 0.73331 0.65498 0.40405
 O641 O 1.04675 0.62773 0.31858
 O642 O 1.04863 0.66906 0.27856
 C643 C 1.06014 0.64075 0.29093
 C644 C 1.09002 0.62278 0.27434
 C645 C 1.10535 0.63363 0.24234
 H646 H 1.09457 0.65553 0.22811
 O647 O 0.97111 0.37984 0.33490
 O648 O 0.97580 0.33905 0.29419
 C649 C 0.96253 0.36711 0.30515
 C650 C 0.93614 0.38414 0.28319
 C651 C 0.92550 0.36858 0.25156
 H652 H 0.93783 0.34501 0.24225
 O653 O 1.17389 0.54213 0.38660
 O654 O 1.21732 0.54183 0.34925
 C655 C 1.20282 0.55427 0.37642
 C656 C 1.21907 0.58363 0.39594
 C657 C 1.25145 0.59739 0.38598
 H658 H 1.26524 0.58570 0.36429
 O659 O 0.82766 0.46890 0.35984
 O660 O 0.79069 0.46826 0.31517
 C661 C 0.80043 0.45643 0.34481
 C662 C 0.78060 0.42726 0.36150
 C663 C 0.74912 0.41476 0.34670
 H664 H 0.73833 0.42709 0.32348
 O665 O 1.11598 0.67730 0.47708
 O666 O 1.15602 0.71880 0.48051
 C667 C 1.12875 0.70597 0.46647
 C668 C 1.11352 0.72390 0.43611
 C669 C 1.12745 0.75596 0.42583
 H670 H 1.14713 0.76895 0.44187
 O671 O 0.86543 0.32708 0.45588
 O672 O 0.82752 0.28378 0.45322
 C673 C 0.85590 0.29745 0.44373
 C674 C 0.87817 0.27946 0.41815
 C675 C 0.86942 0.24644 0.40382
 H676 H 0.84594 0.23302 0.41197
 O677 O 0.88182 0.47007 0.31981
 O678 O 0.84500 0.46859 0.27507
 C679 C 0.87200 0.45730 0.29061
 C680 C 0.89143 0.42804 0.27567
 C681 C 0.88037 0.41163 0.24435
 H682 H 0.85813 0.42142 0.22984
 O683 O 1.13518 0.54032 0.33027
 O684 O 1.17879 0.53787 0.29308
 C685 C 1.14993 0.55039 0.30207
 C686 C 1.13390 0.57768 0.28019
 C687 C 1.14882 0.58826 0.24830
 H688 H 1.17174 0.57529 0.23849
 O689 O 0.96813 0.33035 0.38114
 O690 O 0.97302 0.29043 0.33954
 C691 C 0.95845 0.30177 0.36686
 C692 C 0.92924 0.28187 0.38119
 C693 C 0.92052 0.24917 0.36716
 H694 H 0.93637 0.23756 0.34688
 O695 O 1.04247 0.67304 0.36993
 O696 O 1.04456 0.71458 0.33005
 C697 C 1.05403 0.70236 0.35955
 C698 C 1.07875 0.72194 0.38230
 C699 C 1.09372 0.75403 0.37182
 H700 H 1.08710 0.76527 0.34656
 O701 O 0.82022 0.37759 0.45172
 O702 O 0.78225 0.33445 0.44867
 C703 C 0.79371 0.36363 0.43728
 C704 C 0.77714 0.38147 0.40654
 C705 C 0.74570 0.36932 0.39116
 H706 H 0.73253 0.34689 0.40228
 O707 O 1.16628 0.63299 0.47869
 O708 O 1.20597 0.67495 0.48129
 C709 C 1.19485 0.64636 0.46847
 C710 C 1.21499 0.62878 0.44098
 C711 C 1.24737 0.64225 0.43069
 H712 H 1.25829 0.66522 0.44340
 O713 O 1.03814 0.38253 0.34138
 O714 O 1.04128 0.34134 0.30105
 C715 C 1.05112 0.37040 0.31338
 C716 C 1.07804 0.38914 0.29405
 C717 C 1.08579 0.37770 0.26036
 H718 H 1.07050 0.35705 0.24803
 O719 O 0.97858 0.62307 0.31793
 O720 O 0.98032 0.66451 0.27785
 C721 C 0.96758 0.63603 0.28932
 C722 C 0.93844 0.61914 0.27001
 C723 C 0.92674 0.63379 0.23852
 H724 H 0.94047 0.65581 0.22717
 O725 O 0.83118 0.53717 0.36305
 O726 O 0.79398 0.53642 0.31850
 C727 C 0.80402 0.54859 0.34812
 C728 C 0.78426 0.57676 0.36487
 C729 C 0.75230 0.58647 0.35057
 H730 H 0.74151 0.57267 0.32802
 O731 O 1.17635 0.47403 0.38724
 O732 O 1.21955 0.47418 0.34964
 C733 C 1.20567 0.46262 0.37729
 C734 C 1.22393 0.43464 0.39631
 C735 C 1.25607 0.42368 0.38361
 H736 H 1.26838 0.43718 0.36194
 O737 O 1.13198 0.33100 0.47902
 O738 O 1.17121 0.28933 0.47895
 C739 C 1.14307 0.30219 0.46716
 C740 C 1.12268 0.28440 0.43911
 C741 C 1.13269 0.25197 0.42478
 H742 H 1.15598 0.23914 0.43422
 O743 O 0.87524 0.67424 0.45519
 O744 O 0.83712 0.71663 0.45117
 C745 C 0.86535 0.70260 0.44127
 C746 C 0.88619 0.71900 0.41266
 C747 C 0.87557 0.75091 0.39781
 H748 H 0.85283 0.76400 0.40783
 Cu749 Cu 1.14959 0.50757 0.36375
 Cu750 Cu 1.20142 0.50588 0.31973
 Cu751 Cu 0.85864 0.50363 0.34388
 Cu752 Cu 0.81456 0.50251 0.29062
 Cu753 Cu 1.13556 0.65015 0.51174
 Cu754 Cu 1.18355 0.70029 0.51504
 Cu755 Cu 1.15136 0.35981 0.51286
 Cu756 Cu 1.19884 0.31027 0.51357
 Cu757 Cu 0.85032 0.64979 0.48888
 Cu758 Cu 0.80477 0.70031 0.48410
 Cu759 Cu 0.84433 0.35712 0.48782
 Cu760 Cu 0.80006 0.30558 0.48529
 Cu761 Cu 1.01114 0.64413 0.34699
 Cu762 Cu 1.01292 0.69373 0.29924
 Cu763 Cu 1.00274 0.36098 0.36645
 Cu764 Cu 1.00795 0.31256 0.31698
 C765 C 1.09753 0.41604 0.30909
 H766 H 1.09097 0.42475 0.33531
 C767 C 1.11442 0.39020 0.24266
 C768 C 0.91992 0.59094 0.28446
 H769 H 0.92875 0.57978 0.30908
 C770 C 0.89639 0.62201 0.22202
 C771 C 0.91565 0.70217 0.39862
 H772 H 0.92384 0.67734 0.40929
 C773 C 0.89379 0.76563 0.36948
 C774 C 1.09332 0.30139 0.42505
 H775 H 1.08617 0.32706 0.43436
 C776 C 1.11255 0.23669 0.39753
 C777 C 1.20866 0.41649 0.42416
 H778 H 1.18367 0.42499 0.43380
 C779 C 1.27189 0.39388 0.39634
 C780 C 0.79773 0.59504 0.39405
 H781 H 0.82281 0.58764 0.40480
 C782 C 0.73382 0.61412 0.36449
 C783 C 1.10446 0.59460 0.29246
 H784 H 1.09335 0.58639 0.31721
 C785 C 1.13489 0.61603 0.22905
 C786 C 0.91953 0.41424 0.29476
 H787 H 0.92763 0.42608 0.31943
 C788 C 0.89754 0.38174 0.23250
 C789 C 1.20120 0.59932 0.42375
 H790 H 1.17598 0.58917 0.43136
 C791 C 1.26561 0.62681 0.40333
 C792 C 0.79401 0.41061 0.39155
 H793 H 0.81840 0.41987 0.40279
 C794 C 0.73143 0.38605 0.36125
 C795 C 1.08871 0.70733 0.41469
 H796 H 1.07831 0.68222 0.42262
 C797 C 1.11833 0.77080 0.39389
 C798 C 0.90838 0.29657 0.40691
 H799 H 0.91510 0.32211 0.41730
 C800 C 0.89092 0.23135 0.37814
 O801 O 0.47941 0.87025 0.31850
 O802 O 0.48119 0.82936 0.27765
 C803 C 0.46850 0.85743 0.28963
 C804 C 0.43944 0.87440 0.27097
 C805 C 0.42700 0.86082 0.23901
 H806 H 0.44003 0.83910 0.22665
 O807 O 0.54778 1.11698 0.32098
 O808 O 0.54980 1.15620 0.27887
 C809 C 0.56136 1.12856 0.29287
 C810 C 0.59177 1.11042 0.27738
 C811 C 0.60655 1.12137 0.24531
 H812 H 0.59486 1.14255 0.23068
 O813 O 0.33875 0.95779 0.37079
 O814 O 0.29953 0.95697 0.32810
 C815 C 0.31063 0.94603 0.35762
 C816 C 0.29048 0.91891 0.37583
 C817 C 0.25719 0.91080 0.36348
 H818 H 0.24577 0.92556 0.34204
 O819 O 0.68633 1.02826 0.38417
 O820 O 0.72989 1.02796 0.34684
 C821 C 0.71557 1.04012 0.37412
 C822 C 0.73216 1.06923 0.39381
 C823 C 0.76359 1.08467 0.38243
 H824 H 0.77678 1.07459 0.35956
 O825 O 0.38240 0.81845 0.46061
 O826 O 0.34204 0.77742 0.45844
 C827 C 0.37041 0.79045 0.44702
 C828 C 0.38910 0.77366 0.41697
 C829 C 0.37753 0.74152 0.40255
 H830 H 0.35544 0.72819 0.41401
 O831 O 0.63009 1.16512 0.47327
 O832 O 0.67141 1.20545 0.47361
 C833 C 0.64353 1.19256 0.46052
 C834 C 0.62753 1.20949 0.42963
 C835 C 0.64171 1.24096 0.41783
 H836 H 0.66304 1.25346 0.43198
 O837 O 0.38907 1.02364 0.32296
 O838 O 0.34958 1.02155 0.28061
 C839 C 0.37772 1.03391 0.29344
 C840 C 0.39572 1.06166 0.27399
 C841 C 0.38084 1.07308 0.24266
 H842 H 0.35833 1.05970 0.23150
 O843 O 0.63975 0.96128 0.33275
 O844 O 0.68325 0.96105 0.29525
 C845 C 0.65375 0.94966 0.30504
 C846 C 0.63602 0.92225 0.28413
 C847 C 0.64913 0.91313 0.25129
 H848 H 0.67154 0.92683 0.24082
 O849 O 0.54242 0.82213 0.37141
 O850 O 0.54497 0.78152 0.33056
 C851 C 0.55398 0.79323 0.36038
 C852 C 0.57837 0.77346 0.38243
 C853 C 0.59229 0.74158 0.37109
 H854 H 0.58456 0.73065 0.34590
 O855 O 0.47783 1.16667 0.36385
 O856 O 0.48073 1.20693 0.32264
 C857 C 0.46709 1.19516 0.35059
 C858 C 0.43781 1.21391 0.36757
 C859 C 0.42631 1.24661 0.35504
 H860 H 0.43936 1.25910 0.33324
 O861 O 0.33323 1.12053 0.45280
 O862 O 0.29363 1.16166 0.44928
 C863 C 0.30561 1.13267 0.43888
 C864 C 0.28765 1.11339 0.40979
 C865 C 0.25553 1.12492 0.39644
 H866 H 0.24359 1.14742 0.40846
 O867 O 0.67070 0.86455 0.47216
 O868 O 0.70962 0.82257 0.47540
 C869 C 0.69904 0.85101 0.46204
 C870 C 0.71969 0.86849 0.43434
 C871 C 0.75067 0.85364 0.42223
 H872 H 0.76006 0.82947 0.43342
 O873 O 0.47917 1.11662 0.31804
 O874 O 0.48032 1.15647 0.27650
 C875 C 0.46743 1.12857 0.28917
 C876 C 0.43788 1.10970 0.27155
 C877 C 0.42063 1.12236 0.24095
 H878 H 0.42896 1.14655 0.22888
 O879 O 0.54778 0.86973 0.32233
 O880 O 0.54972 0.82930 0.28125
 C881 C 0.56130 0.85764 0.29441
 C882 C 0.59123 0.87674 0.27813
 C883 C 0.60515 0.86769 0.24486
 H884 H 0.59369 0.84648 0.22976
 O885 O 0.68369 0.95966 0.38413
 O886 O 0.72725 0.95911 0.34680
 C887 C 0.71207 0.94667 0.37359
 C888 C 0.72656 0.91575 0.39169
 C889 C 0.75738 0.90030 0.37983
 H890 H 0.77165 0.91204 0.35839
 O891 O 0.33423 1.02595 0.36273
 O892 O 0.29483 1.02420 0.32019
 C893 C 0.30623 1.03746 0.34866
 C894 C 0.28758 1.06705 0.36538
 C895 C 0.25522 1.07918 0.35220
 H896 H 0.24284 1.06636 0.32992
 O897 O 0.38262 1.16805 0.45341
 O898 O 0.34284 1.20902 0.45004
 C899 C 0.37144 1.19621 0.43981
 C900 C 0.39129 1.21402 0.41135
 C901 C 0.38047 1.24659 0.39853
 H902 H 0.35819 1.25891 0.41038
 O903 O 0.62021 0.81923 0.47319
 O904 O 0.65928 0.77748 0.47723
 C905 C 0.63194 0.78998 0.46355
 C906 C 0.61515 0.77131 0.43449
 C907 C 0.62824 0.73926 0.42354
 H908 H 0.64865 0.72649 0.43845
 O909 O 0.64138 1.02871 0.33268
 O910 O 0.68486 1.02831 0.29519
 C911 C 0.65561 1.04006 0.30489
 C912 C 0.63813 1.06739 0.28385
 C913 C 0.65221 1.07842 0.25180
 H914 H 0.67565 1.06651 0.24186
 O915 O 0.38360 0.95591 0.31911
 O916 O 0.34376 0.95445 0.27706
 C917 C 0.37196 0.94337 0.29015
 C918 C 0.39128 0.91555 0.27170
 C919 C 0.37896 0.90138 0.23961
 H920 H 0.35527 0.91117 0.22771
 O921 O 0.54545 1.16351 0.37030
 O922 O 0.54898 1.20348 0.32892
 C923 C 0.55893 1.19142 0.35857
 C924 C 0.58690 1.20925 0.37949
 C925 C 0.60187 1.24091 0.36811
 H926 H 0.59247 1.25302 0.34418
 O927 O 0.47542 0.82389 0.36720
 O928 O 0.47758 0.78272 0.32675
 C929 C 0.46403 0.79524 0.35447
 C930 C 0.43459 0.77641 0.37176
 C931 C 0.42258 0.74427 0.35822
 H932 H 0.43503 0.73279 0.33557
 O933 O 0.67912 1.11969 0.47739
 O934 O 0.72003 1.16043 0.47850
 C935 C 0.70816 1.13171 0.46683
 C936 C 0.72819 1.11330 0.43985
 C937 C 0.75992 1.12752 0.42894
 H938 H 0.77066 1.15059 0.44166
 O939 O 0.33151 0.86322 0.46065
 O940 O 0.29085 0.82246 0.45800
 C941 C 0.30333 0.85131 0.44727
 C942 C 0.28615 0.87149 0.41853
 C943 C 0.25262 0.86299 0.40485
 H944 H 0.23806 0.84115 0.41540
 Cu945 Cu 0.51149 0.85096 0.34879
 Cu946 Cu 0.51382 0.80206 0.30034
 Cu947 Cu 0.51219 1.13684 0.34723
 Cu948 Cu 0.51544 1.18421 0.29777
 Cu949 Cu 0.36517 0.99080 0.34826
 Cu950 Cu 0.31837 0.98911 0.29749
 Cu951 Cu 0.65864 0.99474 0.36250
 Cu952 Cu 0.71088 0.99413 0.31748
 C953 C 0.42173 0.90207 0.28689
 H954 H 0.43099 0.91233 0.31186
 C955 C 0.39689 0.87392 0.22331
 C956 C 0.60772 1.08323 0.29617
 H957 H 0.59698 1.07500 0.32108
 C958 C 0.63680 1.10522 0.23242
 C959 C 0.30465 0.89969 0.40366
 H960 H 0.33068 0.90609 0.41293
 C961 C 0.23830 0.88318 0.37719
 C962 C 0.71475 1.08375 0.42269
 H963 H 0.69001 1.07296 0.43097
 C964 C 0.77728 1.11402 0.40018
 C965 C 0.41780 0.79070 0.40130
 H966 H 0.42670 0.81557 0.41171
 C967 C 0.39428 0.72667 0.37319
 C968 C 0.59992 1.19383 0.41060
 H969 H 0.58925 1.16918 0.41951
 C970 C 0.62936 1.25663 0.38745
 C971 C 0.42473 1.07933 0.28786
 H972 H 0.43616 1.07007 0.31222
 C973 C 0.39178 1.10356 0.22682
 C974 C 0.60694 0.90432 0.29718
 H975 H 0.59711 0.91133 0.32282
 C976 C 0.63421 0.88633 0.23146
 C977 C 0.58954 0.78778 0.41446
 H978 H 0.57974 0.81285 0.42285
 C979 C 0.61744 0.72467 0.39183
 C980 C 0.42020 1.19811 0.39588
 H981 H 0.42846 1.17285 0.40537
 C982 C 0.39774 1.26326 0.37046
 C983 C 0.30319 1.08427 0.39429
 H984 H 0.32814 1.07550 0.40425
 C985 C 0.23881 1.10807 0.36771
 C986 C 0.70803 0.89973 0.41910
 H987 H 0.68396 0.91115 0.42801
 C988 C 0.76941 0.86921 0.39499
 O989 O 0.52530 0.87942 0.67942
 O990 O 0.52526 0.84071 0.72223
 C991 C 0.53660 0.86880 0.70908
 C992 C 0.56377 0.88934 0.72745
 C993 C 0.57654 0.88054 0.76134
 H994 H 0.56651 0.85790 0.77502
 O995 O 0.46743 1.12750 0.66635
 O996 O 0.46627 1.16745 0.70803
 C997 C 0.45468 1.13911 0.69465
 C998 C 0.42547 1.12062 0.71224
 C999 C 0.41459 1.13328 0.74472
 H1000 H 0.42824 1.15490 0.75725
 O1001 O 0.32067 1.03431 0.61969
 O1002 O 0.27829 1.03644 0.65807
 C1003 C 0.29238 1.04785 0.63015
 C1004 C 0.27699 1.07790 0.61002
 C1005 C 0.24648 1.09524 0.62130
 H1006 H 0.23294 1.08612 0.64440
 O1007 O 0.67222 0.96103 0.63072
 O1008 O 0.71117 0.96033 0.67365
 C1009 C 0.69971 0.94844 0.64462
 C1010 C 0.71760 0.91970 0.62601
 C1011 C 0.75184 0.90811 0.63438
 H1012 H 0.76638 0.91964 0.65603
 O1013 O 0.62015 0.82162 0.54140
 O1014 O 0.65915 0.77985 0.54505
 C1015 C 0.63125 0.79370 0.55545
 C1016 C 0.61190 0.77804 0.58485
 C1017 C 0.62174 0.74591 0.59978
 H1018 H 0.64333 0.73152 0.58899
 O1019 O 0.37945 1.17062 0.52278
 O1020 O 0.33964 1.21154 0.51875
 C1021 C 0.36693 1.19943 0.53323
 C1022 C 0.38325 1.21855 0.56335
 C1023 C 0.36834 1.24958 0.57553
 H1024 H 0.34590 1.26042 0.56211
 O1025 O 0.36316 0.96689 0.67428
 O1026 O 0.32113 0.96747 0.71313
 C1027 C 0.34970 0.95496 0.70245
 C1028 C 0.36801 0.92567 0.72113
 C1029 C 0.35561 0.90840 0.75210
 H1030 H 0.33167 0.91653 0.76433
 O1031 O 0.62455 1.03516 0.66833
 O1032 O 0.66277 1.03343 0.71180
 C1033 C 0.63627 1.04709 0.69728
 C1034 C 0.61985 1.07715 0.71492
 C1035 C 0.63432 1.08885 0.74654
 H1036 H 0.65661 1.07570 0.75794
 O1037 O 0.46098 0.82892 0.62854
 O1038 O 0.46081 0.79028 0.67151
 C1039 C 0.45012 0.80038 0.64154
 C1040 C 0.42470 0.77858 0.62197
 C1041 C 0.41590 0.74569 0.63481
 H1042 H 0.42844 0.73585 0.65841
 O1043 O 0.53617 1.18049 0.62485
 O1044 O 0.53445 1.22093 0.66598
 C1045 C 0.54765 1.20893 0.63809
 C1046 C 0.57775 1.22656 0.62125
 C1047 C 0.59207 1.25869 0.63329
 H1048 H 0.58009 1.27241 0.65489
 O1049 O 0.33354 0.86615 0.52922
 O1050 O 0.29284 0.82534 0.52727
 C1051 C 0.30472 0.85397 0.54004
 C1052 C 0.28489 0.87273 0.56803
 C1053 C 0.25315 0.85878 0.57964
 H1054 H 0.24282 0.83504 0.56789
 O1055 O 0.67634 1.12154 0.54526
 O1056 O 0.71745 1.16188 0.54540
 C1057 C 0.70508 1.13356 0.55701
 C1058 C 0.72414 1.11427 0.58434
 C1059 C 0.75681 1.12533 0.59686
 H1060 H 0.76861 1.14851 0.58574
 O1061 O 0.53575 1.13106 0.67111
 O1062 O 0.53506 1.17108 0.71271
 C1063 C 0.54767 1.14314 0.70005
 C1064 C 0.57713 1.12439 0.71778
 C1065 C 0.59273 1.13592 0.74997
 H1066 H 0.58303 1.15878 0.76333
 O1067 O 0.45771 0.88061 0.67282
 O1068 O 0.45867 0.84149 0.71514
 C1069 C 0.44602 0.86871 0.70148
 C1070 C 0.41663 0.88497 0.71938
 C1071 C 0.40490 0.86946 0.75004
 H1072 H 0.41867 0.84751 0.76136
 O1073 O 0.67753 1.02829 0.62872
 O1074 O 0.71578 1.02728 0.67246
 C1075 C 0.70570 1.03887 0.64304
 C1076 C 0.72526 1.06662 0.62598
 C1077 C 0.75785 1.07776 0.63878
 H1078 H 0.77046 1.06427 0.66036
 O1079 O 0.32328 0.96483 0.61860
 O1080 O 0.28087 0.96537 0.65704
 C1081 C 0.29494 0.95197 0.62984
 C1082 C 0.27939 0.92032 0.61171
 C1083 C 0.24765 0.90511 0.62294
 H1084 H 0.23347 0.91691 0.64430
 O1085 O 0.63044 1.17186 0.54176
 O1086 O 0.67204 1.21174 0.54148
 C1087 C 0.64303 1.20089 0.55247
 C1088 C 0.62443 1.22194 0.57863
 C1089 C 0.63796 1.25415 0.59011
 H1090 H 0.66149 1.26468 0.57855
 O1091 O 0.37739 0.81503 0.53021
 O1092 O 0.33761 0.77343 0.52878
 C1093 C 0.36502 0.78665 0.54243
 C1094 C 0.38253 0.77070 0.57381
 C1095 C 0.37305 0.73770 0.58806
 H1096 H 0.35274 0.72214 0.57567
 O1097 O 0.61883 0.96861 0.67302
 O1098 O 0.65797 0.96707 0.71563
 C1099 C 0.62858 0.95849 0.70315
 C1100 C 0.60673 0.93569 0.72419
 C1101 C 0.61659 0.92931 0.75883
 H1102 H 0.63778 0.94402 0.77094
 O1103 O 0.36976 1.03505 0.66724
 O1104 O 0.32850 1.03679 0.70698
 C1105 C 0.35756 1.04822 0.69515
 C1106 C 0.37742 1.07745 0.71309
 C1107 C 0.36684 1.09152 0.74577
 H1108 H 0.34408 1.08099 0.75871
 O1109 O 0.46816 1.17698 0.62011
 O1110 O 0.46567 1.21734 0.66126
 C1111 C 0.45478 1.20472 0.63211
 C1112 C 0.42562 1.22140 0.61214
 C1113 C 0.40983 1.25241 0.62402
 H1114 H 0.41945 1.26517 0.64764
 O1115 O 0.52816 0.83155 0.63125
 O1116 O 0.52721 0.79312 0.67440
 C1117 C 0.53936 0.80385 0.64553
 C1118 C 0.56689 0.78366 0.62890
 C1119 C 0.57665 0.75161 0.64328
 H1120 H 0.56347 0.74121 0.66611
 O1121 O 0.66667 0.87023 0.53957
 O1122 O 0.70572 0.82836 0.54248
 C1123 C 0.69449 0.85777 0.55221
 C1124 C 0.71425 0.87692 0.57886
 C1125 C 0.74807 0.86682 0.58619
 H1126 H 0.76003 0.84624 0.57096
 O1127 O 0.33087 1.12292 0.52223
 O1128 O 0.29139 1.16414 0.51808
 C1129 C 0.30247 1.13635 0.53241
 C1130 C 0.28249 1.12061 0.56199
 C1131 C 0.25208 1.13692 0.57362
 H1132 H 0.24250 1.15991 0.56025
 Cu1133 Cu 0.49328 0.85937 0.64864
 Cu1134 Cu 0.49272 0.81283 0.70002
 Cu1135 Cu 0.50230 1.15017 0.64142
 Cu1136 Cu 0.49988 1.19796 0.69102
 Cu1137 Cu 0.36036 0.84443 0.49518
 Cu1138 Cu 0.31217 0.79562 0.49303
 Cu1139 Cu 0.64017 0.84804 0.50609
 Cu1140 Cu 0.68723 0.79789 0.51051
 Cu1141 Cu 0.36050 1.14143 0.48802
 Cu1142 Cu 0.31303 1.19055 0.48356
 Cu1143 Cu 0.64953 1.14035 0.50988
 Cu1144 Cu 0.69870 1.18859 0.51003
 Cu1145 Cu 0.34810 1.00001 0.64138
 Cu1146 Cu 0.29799 1.00200 0.68706
 Cu1147 Cu 0.64463 0.99778 0.64507
 Cu1148 Cu 0.68988 0.99656 0.69770
 C1149 C 0.57938 0.91692 0.70908
 H1150 H 0.57178 0.92248 0.68217
 C1151 C 0.60326 0.90106 0.77678
 C1152 C 0.40706 1.09243 0.69665
 H1153 H 0.41531 1.08279 0.67130
 C1154 C 0.38570 1.11955 0.76146
 C1155 C 0.29454 1.09099 0.58017
 H1156 H 0.31824 1.07864 0.57154
 C1157 C 0.23403 1.12493 0.60301
 C1158 C 0.69924 0.90352 0.59825
 H1159 H 0.67272 0.91099 0.59211
 C1160 C 0.76681 0.88138 0.61371
 C1161 C 0.58422 0.79653 0.59949
 H1162 H 0.57676 0.82153 0.58864
 C1163 C 0.60384 0.73276 0.62911
 C1164 C 0.41208 1.20489 0.58163
 H1165 H 0.42339 1.18073 0.57258
 C1166 C 0.38108 1.26652 0.60564
 C1167 C 0.39869 0.91322 0.70535
 H1168 H 0.40832 0.92480 0.68134
 C1169 C 0.37478 0.87979 0.76622
 C1170 C 0.59114 1.09478 0.70074
 H1171 H 0.58013 1.08568 0.67603
 C1172 C 0.62159 1.11767 0.76411
 C1173 C 0.40850 0.79062 0.59125
 H1174 H 0.41554 0.81624 0.58151
 C1175 C 0.39034 0.72524 0.61868
 C1176 C 0.59412 1.20891 0.59372
 H1177 H 0.58398 1.18395 0.58474
 C1178 C 0.62230 1.27267 0.61731
 C1179 C 0.29766 0.90371 0.58407
 H1180 H 0.32228 0.91450 0.57547
 C1181 C 0.23450 0.87431 0.60683
 C1182 C 0.70905 1.08454 0.59852
 H1183 H 0.68363 1.07615 0.58908
 C1184 C 0.77394 1.10692 0.62408
 O1185 O 0.62122 0.54356 1.16531
 O1186 O 0.66072 0.54812 1.20744
 C1187 C 0.63265 0.55838 1.19310
 C1188 C 0.61369 0.58818 1.20878
 C1189 C 0.62446 0.60220 1.24145
 H1190 H 0.64615 0.59085 1.25563
 O1191 O 0.37991 0.46472 1.19313
 O1192 O 0.34035 0.46624 1.23452
 C1193 C 0.36780 0.45317 1.22212
 C1194 C 0.38577 0.42344 1.23993
 C1195 C 0.37354 0.40656 1.27098
 H1196 H 0.35059 0.41608 1.28409
 O1197 O 0.52222 0.68370 1.11244
 O1198 O 0.52053 0.72660 1.15106
 C1199 C 0.53284 0.71333 1.12347
 C1200 C 0.56165 0.73168 1.10613
 C1201 C 0.57388 0.76326 1.12020
 H1202 H 0.56012 0.77588 1.14142
 O1203 O 0.46717 0.33299 1.13313
 O1204 O 0.46922 0.29314 1.17480
 C1205 C 0.45595 0.30483 1.14638
 C1206 C 0.42675 0.28567 1.12940
 C1207 C 0.41655 0.25338 1.14287
 H1208 H 0.43078 0.24187 1.16463
 O1209 O 0.67156 0.63635 1.03306
 O1210 O 0.71202 0.67736 1.03270
 C1211 C 0.70021 0.64882 1.04485
 C1212 C 0.71900 0.62910 1.07290
 C1213 C 0.75226 0.63898 1.08658
 H1214 H 0.76537 0.66213 1.07696
 O1215 O 0.32255 0.37281 1.04335
 O1216 O 0.28036 0.33385 1.04731
 C1217 C 0.29471 0.36202 1.05770
 C1218 C 0.28006 0.38177 1.08771
 C1219 C 0.24754 0.37258 1.10246
 H1220 H 0.23205 0.35153 1.09127
 O1221 O 0.46001 0.63518 1.16726
 O1222 O 0.46029 0.67864 1.20533
 C1223 C 0.45027 0.64847 1.19625
 C1224 C 0.42694 0.62901 1.21968
 C1225 C 0.41706 0.64339 1.25203
 H1226 H 0.42725 0.66851 1.26048
 O1227 O 0.53644 0.38149 1.17899
 O1228 O 0.53945 0.34141 1.22033
 C1229 C 0.54992 0.37004 1.20721
 C1230 C 0.57846 0.38997 1.22432
 C1231 C 0.59507 0.37761 1.25484
 H1232 H 0.58600 0.35360 1.26674
 O1233 O 0.67174 0.47139 1.12613
 O1234 O 0.71096 0.47605 1.16865
 C1235 C 0.69968 0.46099 1.14089
 C1236 C 0.71873 0.43054 1.12617
 C1237 C 0.75043 0.41971 1.14113
 H1238 H 0.76182 0.43416 1.16295
 O1239 O 0.33408 0.53119 1.13975
 O1240 O 0.29496 0.53308 1.18164
 C1241 C 0.30581 0.54325 1.15191
 C1242 C 0.28513 0.56931 1.13176
 C1243 C 0.25417 0.58235 1.14611
 H1244 H 0.24525 0.57329 1.17147
 O1245 O 0.35972 0.66455 1.02694
 O1246 O 0.31651 0.70214 1.02570
 C1247 C 0.34610 0.69297 1.03706
 C1248 C 0.36443 0.71489 1.06310
 C1249 C 0.35089 0.74714 1.07338
 H1250 H 0.32737 0.75702 1.06114
 O1251 O 0.62778 0.32376 1.04386
 O1252 O 0.66809 0.28323 1.04634
 C1253 C 0.63964 0.29588 1.05710
 C1254 C 0.62037 0.27870 1.08578
 C1255 C 0.63104 0.24634 1.09946
 H1256 H 0.65322 0.23314 1.08837
 O1257 O 0.38386 0.53374 1.18732
 O1258 O 0.34419 0.53522 1.22870
 C1259 C 0.37176 0.54738 1.21507
 C1260 C 0.38889 0.57902 1.22984
 C1261 C 0.37876 0.59392 1.26207
 H1262 H 0.35928 0.58087 1.27781
 O1263 O 0.62351 0.47562 1.17310
 O1264 O 0.66307 0.48110 1.21517
 C1265 C 0.63572 0.46693 1.20297
 C1266 C 0.61955 0.43849 1.22282
 C1267 C 0.63558 0.42624 1.25368
 H1268 H 0.65833 0.43935 1.26462
 O1269 O 0.53525 0.32899 1.13522
 O1270 O 0.53653 0.28916 1.17703
 C1271 C 0.54723 0.30069 1.14792
 C1272 C 0.57460 0.28122 1.12962
 C1273 C 0.58530 0.24880 1.14267
 H1274 H 0.57242 0.23718 1.16507
 O1275 O 0.45382 0.67774 1.11340
 O1276 O 0.45349 0.72033 1.15226
 C1277 C 0.44102 0.70591 1.12488
 C1278 C 0.41084 0.72135 1.10660
 C1279 C 0.39691 0.75361 1.11697
 H1280 H 0.40903 0.76827 1.13822
 O1281 O 0.31840 0.61061 1.03352
 O1282 O 0.27600 0.64895 1.03285
 C1283 C 0.29086 0.62278 1.04701
 C1284 C 0.27706 0.60745 1.08042
 C1285 C 0.24627 0.62022 1.09571
 H1286 H 0.23164 0.64029 1.08227
 O1287 O 0.67584 0.37117 1.04304
 O1288 O 0.71685 0.33143 1.04620
 C1289 C 0.70402 0.36014 1.05660
 C1290 C 0.72112 0.38095 1.08520
 C1291 C 0.75292 0.37058 1.10075
 H1292 H 0.76592 0.34743 1.09143
 O1293 O 0.46896 0.37656 1.18568
 O1294 O 0.47282 0.33633 1.22681
 C1295 C 0.45947 0.36394 1.21511
 C1296 C 0.43169 0.38024 1.23557
 C1297 C 0.41993 0.36426 1.26635
 H1298 H 0.43260 0.34104 1.27625
 O1299 O 0.52641 0.63543 1.15897
 O1300 O 0.52685 0.67822 1.19794
 C1301 C 0.53911 0.64958 1.18641
 C1302 C 0.56833 0.63266 1.20519
 C1303 C 0.57945 0.64590 1.23774
 H1304 H 0.56657 0.66815 1.24930
 O1305 O 0.33766 0.46375 1.13945
 O1306 O 0.29765 0.46575 1.18043
 C1307 C 0.30896 0.45321 1.15181
 C1308 C 0.28803 0.42620 1.13343
 C1309 C 0.25553 0.41722 1.14692
 H1310 H 0.24564 0.43044 1.16994
 O1311 O 0.67076 0.53961 1.11947
 O1312 O 0.70999 0.54329 1.16205
 C1313 C 0.69866 0.55255 1.13218
 C1314 C 0.71788 0.57987 1.11348
 C1315 C 0.75103 0.58898 1.12547
 H1316 H 0.76346 0.57396 1.14615
 O1317 O 0.37027 0.32597 1.04330
 O1318 O 0.32893 0.28623 1.04812
 C1319 C 0.35826 0.29875 1.05788
 C1320 C 0.37846 0.28233 1.08690
 C1321 C 0.36827 0.25001 1.10149
 H1322 H 0.34563 0.23621 1.09126
 O1323 O 0.62081 0.68113 1.03064
 O1324 O 0.66077 0.72264 1.03024
 C1325 C 0.63224 0.71038 1.04156
 C1326 C 0.61199 0.72980 1.06783
 C1327 C 0.62455 0.76115 1.08301
 H1328 H 0.64942 0.77193 1.07514
 Cu1329 Cu 0.64268 0.50702 1.14165
 Cu1330 Cu 0.68981 0.51283 1.19230
 Cu1331 Cu 0.36356 0.49837 1.16123
 Cu1332 Cu 0.31602 0.50001 1.20973
 Cu1333 Cu 0.49005 0.65385 1.13365
 Cu1334 Cu 0.49019 0.70493 1.17991
 Cu1335 Cu 0.50183 0.35917 1.15408
 Cu1336 Cu 0.50467 0.31147 1.20340
 C1337 C 0.58541 0.60354 1.19090
 H1338 H 0.57708 0.59322 1.16563
 C1339 C 0.60719 0.63096 1.25589
 C1340 C 0.41511 0.40994 1.22309
 H1341 H 0.42455 0.42184 1.19915
 C1342 C 0.39112 0.37663 1.28425
 C1343 C 0.58033 0.71551 1.07944
 H1344 H 0.57101 0.69083 1.06893
 C1345 C 0.60532 0.77768 1.10949
 C1346 C 0.40788 0.29987 1.10109
 H1347 H 0.41559 0.32504 1.09072
 C1348 C 0.38764 0.23564 1.12944
 C1349 C 0.70227 0.59940 1.08685
 H1350 H 0.67635 0.59205 1.07797
 C1351 C 0.76808 0.61837 1.11316
 C1352 C 0.30002 0.40878 1.10346
 H1353 H 0.32533 0.41560 1.09305
 C1354 C 0.23545 0.39070 1.13211
 C1355 C 0.41339 0.59666 1.20922
 H1356 H 0.42082 0.58594 1.18403
 C1357 C 0.39309 0.62626 1.27332
 C1358 C 0.59071 0.42069 1.20874
 H1359 H 0.57869 0.42999 1.18467
 C1360 C 0.62394 0.39567 1.26946
 C1361 C 0.70453 0.41109 1.09804
 H1362 H 0.67992 0.41905 1.08662
 C1363 C 0.76766 0.39003 1.12874
 C1364 C 0.29619 0.58181 1.09878
 H1365 H 0.32017 0.57213 1.08781
 C1366 C 0.23472 0.60774 1.12865
 C1367 C 0.39462 0.70252 1.07941
 H1368 H 0.40485 0.67741 1.07171
 C1369 C 0.36685 0.76656 1.10018
 C1370 C 0.59188 0.29575 1.10087
 H1371 H 0.58392 0.32102 1.09109
 C1372 C 0.61336 0.23139 1.12801
 O1373 O 0.62370 0.45896 0.84150
 O1374 O 0.66190 0.45628 0.79876
 C1375 C 0.63434 0.44472 0.81345
 C1376 C 0.61505 0.41391 0.79835
 C1377 C 0.62430 0.40033 0.76523
 H1378 H 0.64479 0.41275 0.75030
 O1379 O 0.37680 0.52161 0.82738
 O1380 O 0.33803 0.51726 0.78445
 C1381 C 0.36550 0.53090 0.79742
 C1382 C 0.38346 0.55862 0.77768
 C1383 C 0.37065 0.56851 0.74470
 H1384 H 0.34881 0.55463 0.73285
 O1385 O 0.45872 0.66697 0.87008
 O1386 O 0.45675 0.70585 0.82762
 C1387 C 0.44441 0.69355 0.85616
 C1388 C 0.41259 0.70891 0.87338
 C1389 C 0.39739 0.74113 0.86264
 H1390 H 0.40897 0.75618 0.84166
 O1391 O 0.52612 0.31257 0.89917
 O1392 O 0.52615 0.27137 0.85872
 C1393 C 0.53757 0.28394 0.88741
 C1394 C 0.56667 0.26599 0.90470
 C1395 C 0.57739 0.23442 0.89056
 H1396 H 0.56136 0.22106 0.87105
 O1397 O 0.67545 0.36921 0.97455
 O1398 O 0.71645 0.32933 0.97683
 C1399 C 0.70398 0.35708 0.96358
 C1400 C 0.72220 0.37500 0.93450
 C1401 C 0.75319 0.36151 0.92121
 H1402 H 0.76475 0.33862 0.93308
 O1403 O 0.31304 0.60932 0.96322
 O1404 O 0.26985 0.64680 0.96280
 C1405 C 0.28403 0.61966 0.95081
 C1406 C 0.26810 0.60151 0.92033
 C1407 C 0.23751 0.61423 0.90445
 H1408 H 0.22380 0.63582 0.91621
 O1409 O 0.53217 0.62124 0.82711
 O1410 O 0.53153 0.65951 0.78408
 C1411 C 0.54466 0.63242 0.79830
 C1412 C 0.57490 0.61363 0.78195
 C1413 C 0.58992 0.62444 0.74963
 H1414 H 0.57948 0.64675 0.73580
 O1415 O 0.46285 0.35974 0.84439
 O1416 O 0.46567 0.31854 0.80391
 C1417 C 0.45388 0.34735 0.81463
 C1418 C 0.42889 0.36588 0.79230
 C1419 C 0.42098 0.35301 0.75869
 H1420 H 0.43435 0.33043 0.74843
 O1421 O 0.67501 0.53087 0.88182
 O1422 O 0.71363 0.52958 0.83945
 C1423 C 0.70225 0.54332 0.86761
 C1424 C 0.71933 0.57489 0.88386
 C1425 C 0.75103 0.58953 0.87151
 H1426 H 0.76452 0.57742 0.84988
 O1427 O 0.32897 0.45576 0.87823
 O1428 O 0.29053 0.45227 0.83493
 C1429 C 0.30112 0.44311 0.86525
 C1430 C 0.28029 0.41748 0.88494
 C1431 C 0.24729 0.40873 0.87237
 H1432 H 0.23677 0.42169 0.84932
 O1433 O 0.62256 0.67948 0.96243
 O1434 O 0.66191 0.72157 0.96140
 C1435 C 0.63391 0.70792 0.94952
 C1436 C 0.61415 0.72449 0.92021
 C1437 C 0.62403 0.75717 0.90606
 H1438 H 0.64627 0.77124 0.91678
 O1439 O 0.36427 0.31914 0.97550
 O1440 O 0.32256 0.27963 0.97950
 C1441 C 0.35061 0.29033 0.96566
 C1442 C 0.36733 0.26997 0.93720
 C1443 C 0.35220 0.23922 0.92351
 H1444 H 0.32830 0.22908 0.93461
 O1445 O 0.37545 0.45343 0.82912
 O1446 O 0.33713 0.44955 0.78579
 C1447 C 0.36491 0.43941 0.80054
 C1448 C 0.38478 0.41046 0.78508
 C1449 C 0.37647 0.39676 0.75155
 H1450 H 0.35567 0.40811 0.73606
 O1451 O 0.62517 0.52786 0.83517
 O1452 O 0.66368 0.52506 0.79273
 C1453 C 0.63627 0.53823 0.80549
 C1454 C 0.61845 0.56680 0.78583
 C1455 C 0.63216 0.57779 0.75361
 H1456 H 0.65440 0.56459 0.74257
 O1457 O 0.45745 0.31080 0.89144
 O1458 O 0.45872 0.27018 0.85044
 C1459 C 0.44501 0.28287 0.87777
 C1460 C 0.41367 0.26608 0.89364
 C1461 C 0.39796 0.23530 0.87985
 H1462 H 0.40939 0.22231 0.85750
 O1463 O 0.52771 0.67167 0.87270
 O1464 O 0.52610 0.71044 0.83004
 C1465 C 0.53842 0.70007 0.85929
 C1466 C 0.56650 0.72054 0.87699
 C1467 C 0.57641 0.75315 0.86378
 H1468 H 0.56235 0.76434 0.84174
 O1469 O 0.31919 0.36897 0.97423
 O1470 O 0.27702 0.32989 0.97725
 C1471 C 0.29028 0.35687 0.96292
 C1472 C 0.27370 0.37442 0.93197
 C1473 C 0.24059 0.36478 0.91769
 H1474 H 0.22545 0.34404 0.92953
 O1475 O 0.66803 0.63016 0.96545
 O1476 O 0.70805 0.67171 0.96427
 C1477 C 0.69628 0.64237 0.95355
 C1478 C 0.71554 0.62281 0.92658
 C1479 C 0.74718 0.63606 0.91471
 H1480 H 0.75804 0.65976 0.92608
 O1481 O 0.53000 0.36037 0.85069
 O1482 O 0.53203 0.31876 0.81068
 C1483 C 0.54317 0.34779 0.82290
 C1484 C 0.57130 0.36677 0.80377
 C1485 C 0.58132 0.35415 0.77077
 H1486 H 0.56879 0.33120 0.75959
 O1487 O 0.46421 0.61770 0.82349
 O1488 O 0.46297 0.65619 0.78060
 C1489 C 0.45246 0.62774 0.79387
 C1490 C 0.42545 0.60661 0.77557
 C1491 C 0.41158 0.61678 0.74264
 H1492 H 0.42136 0.63987 0.72956
 O1493 O 0.32347 0.52243 0.86955
 O1494 O 0.28497 0.51868 0.82625
 C1495 C 0.29512 0.53219 0.85511
 C1496 C 0.27424 0.55963 0.87237
 C1497 C 0.24350 0.57246 0.85693
 H1498 H 0.23404 0.56177 0.83221
 O1499 O 0.67703 0.46183 0.88387
 O1500 O 0.71554 0.46023 0.84138
 C1501 C 0.70460 0.44913 0.87068
 C1502 C 0.72292 0.42005 0.88889
 C1503 C 0.75396 0.40566 0.87555
 H1504 H 0.76590 0.41677 0.85241
 O1505 O 0.63006 0.31862 0.97618
 O1506 O 0.67043 0.27817 0.97765
 C1507 C 0.64173 0.28953 0.96548
 C1508 C 0.62061 0.26947 0.93908
 C1509 C 0.63251 0.23889 0.92178
 H1510 H 0.65845 0.22917 0.92688
 O1511 O 0.36220 0.65541 0.95943
 O1512 O 0.31969 0.69368 0.95845
 C1513 C 0.34862 0.68269 0.94655
 C1514 C 0.36624 0.70230 0.91765
 C1515 C 0.35236 0.73409 0.90668
 H1516 H 0.32937 0.74421 0.91934
 Cu1517 Cu 0.64667 0.49512 0.86489
 Cu1518 Cu 0.69226 0.49255 0.81396
 Cu1519 Cu 0.35526 0.48886 0.85529
 Cu1520 Cu 0.30916 0.48382 0.80362
 Cu1521 Cu 0.64164 0.65274 0.99830
 Cu1522 Cu 0.68938 0.70224 0.99703
 Cu1523 Cu 0.64828 0.34967 1.00900
 Cu1524 Cu 0.69702 0.30177 1.01205
 Cu1525 Cu 0.34226 0.63076 0.99625
 Cu1526 Cu 0.29110 0.67611 0.99445
 Cu1527 Cu 0.34805 0.35086 1.00848
 Cu1528 Cu 0.29849 0.30400 1.01368
 Cu1529 Cu 0.49575 0.64072 0.85266
 Cu1530 Cu 0.49434 0.68662 0.80174
 Cu1531 Cu 0.49362 0.33978 0.87598
 Cu1532 Cu 0.49610 0.29057 0.82728
 C1533 C 0.58814 0.39696 0.81737
 H1534 H 0.58077 0.40681 0.84292
 C1535 C 0.60730 0.37053 0.75144
 C1536 C 0.41132 0.57731 0.79267
 H1537 H 0.42100 0.56989 0.81841
 C1538 C 0.38404 0.59750 0.72736
 C1539 C 0.39650 0.69005 0.90108
 H1540 H 0.40727 0.66539 0.90954
 C1541 C 0.36721 0.75374 0.87978
 C1542 C 0.58766 0.28280 0.92972
 H1543 H 0.57887 0.30729 0.94062
 C1544 C 0.61039 0.22173 0.89702
 C1545 C 0.70757 0.40456 0.91852
 H1546 H 0.68340 0.41484 0.92849
 C1547 C 0.76912 0.37634 0.89189
 C1548 C 0.28593 0.57404 0.90432
 H1549 H 0.30982 0.56467 0.91620
 C1550 C 0.22518 0.59983 0.87272
 C1551 C 0.58968 0.58468 0.79965
 H1552 H 0.57921 0.57638 0.82465
 C1553 C 0.61873 0.60634 0.73547
 C1554 C 0.41125 0.39493 0.80508
 H1555 H 0.41724 0.40461 0.83124
 C1556 C 0.39485 0.36792 0.73840
 C1557 C 0.70204 0.59202 0.91153
 H1558 H 0.67737 0.58193 0.92083
 C1559 C 0.76489 0.62025 0.88741
 C1560 C 0.29310 0.40090 0.91502
 H1561 H 0.31883 0.40807 0.92456
 C1562 C 0.22756 0.38261 0.88771
 C1563 C 0.58522 0.70663 0.90548
 H1564 H 0.57781 0.68125 0.91555
 C1565 C 0.60489 0.77149 0.87783
 C1566 C 0.39814 0.28268 0.92235
 H1567 H 0.40974 0.30642 0.93278
 C1568 C 0.36711 0.22164 0.89492
 N1569 N 1.13844 1.15472 1.33206
 N1570 N 1.14364 1.12870 1.31220
 N1571 N 1.13749 0.62979 0.81725
 N1572 N 1.10946 0.63668 0.80097
 N1573 N 0.63401 1.15050 0.81756
 N1574 N 0.64088 1.12694 0.79525
 N1575 N 0.64307 0.63634 1.30712
 N1576 N 0.61708 0.64614 1.28886
 N1577 N 0.86337 0.85464 1.31352
 N1578 N 0.85257 0.88034 1.29543
 N1579 N 0.86191 0.35870 0.80864
 N1580 N 0.85007 0.38269 0.78893
 N1581 N 0.34115 0.86249 0.81706
 N1582 N 0.36568 0.85809 0.79558
 N1583 N 0.35493 0.36400 1.33399
 N1584 N 0.38063 0.35667 1.31462
 N1585 N 0.87207 1.15077 0.66319
 N1586 N 0.86293 1.12526 0.68260
 N1587 N 0.85729 0.63621 0.17444
 N1588 N 0.88537 0.64120 0.19168
 N1589 N 0.37172 1.14478 0.18419
 N1590 N 0.36982 1.11519 0.19873
 N1591 N 0.37323 0.63465 0.67774
 N1592 N 0.36614 0.60790 0.69608
 N1593 N 1.13612 0.85913 0.68359
 N1594 N 1.14632 0.88492 0.70198
 N1595 N 1.14898 0.37519 0.19285
 N1596 N 1.12165 0.37208 0.21084
 N1597 N 0.63992 0.85584 0.17679
 N1598 N 0.65049 0.87892 0.19844
 N1599 N 0.63891 0.36877 0.69807
 N1600 N 0.61609 0.35555 0.71812
 N1601 N 1.31643 1.13386 1.15344
 N1602 N 1.29387 1.14340 1.13086
 N1603 N 1.31994 0.62383 0.64524
 N1604 N 1.29770 0.63370 0.62274
 N1605 N 0.82207 1.14332 0.62169
 N1606 N 0.80686 1.11869 0.63770
 N1607 N 0.81918 0.65299 1.12543
 N1608 N 0.80026 0.62636 1.13076
 N1609 N 1.31022 0.84566 0.86970
 N1610 N 1.29578 0.87528 0.86836
 N1611 N 1.31694 0.35374 0.38377
 N1612 N 1.30207 0.38256 0.37800
 N1613 N 0.81683 0.86268 0.35589
 N1614 N 0.79987 0.85206 0.38245
 N1615 N 0.81584 0.36872 0.85128
 N1616 N 0.79978 0.35963 0.87895
 N1617 N 0.68811 0.86899 1.13680
 N1618 N 0.70536 0.86095 1.10955
 N1619 N 0.67474 0.36862 0.64692
 N1620 N 0.68762 0.35639 0.61876
 N1621 N 0.18449 0.86728 0.64340
 N1622 N 0.20289 0.85712 0.61773
 N1623 N 0.18281 0.35798 1.14232
 N1624 N 0.20367 0.38282 1.14969
 N1625 N 0.68762 1.13550 0.84894
 N1626 N 0.70803 1.14108 0.87475
 N1627 N 0.68132 0.64575 0.35795
 N1628 N 0.70184 0.62247 0.34715
 N1629 N 0.19165 1.14624 0.37019
 N1630 N 0.20570 1.12068 0.35438
 N1631 N 0.17816 0.63996 0.86500
 N1632 N 0.19469 0.61289 0.85532
 N1633 N 1.13046 1.32487 1.15792
 N1634 N 1.13438 1.30555 1.13118
 N1635 N 1.14303 0.81859 0.63567
 N1636 N 1.11643 0.80177 0.64659
 N1637 N 0.63007 1.32192 0.65545
 N1638 N 0.63889 1.30472 0.62838
 N1639 N 0.64681 0.82241 1.12308
 N1640 N 0.61809 0.80703 1.12901
 N1641 N 0.85631 1.32068 0.85956
 N1642 N 0.88145 1.30234 0.84861
 N1643 N 0.85665 0.81432 0.36248
 N1644 N 0.88284 0.79704 0.35249
 N1645 N 0.36053 1.31138 0.37271
 N1646 N 0.38588 1.29664 0.35744
 N1647 N 0.35640 0.80787 0.84767
 N1648 N 0.34999 0.78629 0.87226
 N1649 N 1.13084 0.68150 0.85341
 N1650 N 1.14022 0.70099 0.87888
 N1651 N 1.15132 0.19113 0.38287
 N1652 N 1.12241 0.20622 0.37866
 N1653 N 0.62977 0.68073 0.35025
 N1654 N 0.63579 0.69496 0.37979
 N1655 N 0.65058 0.18119 0.87181
 N1656 N 0.62040 0.19392 0.87416
 N1657 N 0.87124 0.68698 1.13885
 N1658 N 0.86654 0.70396 1.11070
 N1659 N 0.86129 0.18954 0.61301
 N1660 N 0.88851 0.20723 0.61906
 N1661 N 0.35700 0.67287 0.62886
 N1662 N 0.38261 0.69286 0.63595
 N1663 N 0.35205 0.18505 1.13942
 N1664 N 0.37903 0.20336 1.14595
 N1665 N 1.13703 1.14734 0.67953
 N1666 N 1.14570 1.12101 0.69770
 N1667 N 1.14192 0.65169 0.17839
 N1668 N 1.15192 0.62590 0.19679
 N1669 N 0.64276 1.14143 0.18194
 N1670 N 0.65338 1.11597 0.20045
 N1671 N 0.62836 0.64271 0.68504
 N1672 N 0.63626 0.61625 0.70350
 N1673 N 0.87499 0.85678 0.67469
 N1674 N 0.86950 0.88205 0.69540
 N1675 N 0.85812 0.36857 0.18582
 N1676 N 0.88602 0.36227 0.20266
 N1677 N 0.35678 0.86627 0.17579
 N1678 N 0.38429 0.85711 0.19200
 N1679 N 0.36085 0.36112 0.68669
 N1680 N 0.38635 0.35151 0.70561
 N1681 N 1.14592 0.86896 1.32011
 N1682 N 1.11759 0.86419 1.30325
 N1683 N 1.13968 0.36822 0.82522
 N1684 N 1.11239 0.36442 0.80650
 N1685 N 0.62038 0.86232 0.82251
 N1686 N 0.62242 0.89164 0.80747
 N1687 N 0.63543 0.35189 1.31005
 N1688 N 0.64285 0.38218 1.29903
 N1689 N 0.86904 1.14177 1.31916
 N1690 N 0.85956 1.11677 1.29922
 N1691 N 0.86022 0.64027 0.80870
 N1692 N 0.84911 0.61499 0.78996
 N1693 N 0.35028 1.12619 0.81177
 N1694 N 0.37607 1.13610 0.79376
 N1695 N 0.35883 0.62960 1.32403
 N1696 N 0.38186 0.64350 1.30479
 N1697 N 1.12439 1.31531 0.85696
 N1698 N 1.12897 1.29571 0.88333
 N1699 N 1.13195 0.81863 0.35630
 N1700 N 1.13751 0.80115 0.38400
 N1701 N 0.63542 1.30476 0.34992
 N1702 N 0.64598 1.28826 0.37669
 N1703 N 0.63969 0.82336 0.86862
 N1704 N 0.61331 0.80417 0.86164
 N1705 N 0.86940 1.31778 1.15021
 N1706 N 0.86448 1.29972 1.12268
 N1707 N 0.85521 0.82275 0.62370
 N1708 N 0.88157 0.80336 0.62693
 N1709 N 0.37145 1.31430 0.64476
 N1710 N 0.36298 1.29708 0.61731
 N1711 N 0.36253 0.81716 1.13585
 N1712 N 0.35082 0.79843 1.11074
 N1713 N 0.85305 0.67919 0.85875
 N1714 N 0.87906 0.69735 0.84871
 N1715 N 0.85811 0.17897 0.36973
 N1716 N 0.88290 0.19906 0.36085
 N1717 N 0.35652 0.67731 0.36874
 N1718 N 0.38295 0.69408 0.35762
 N1719 N 0.35913 0.17336 0.85488
 N1720 N 0.34959 0.19067 0.88178
 N1721 N 1.14568 0.69218 1.12967
 N1722 N 1.11980 0.70893 1.14127
 N1723 N 1.14819 0.18861 0.63275
 N1724 N 1.12255 0.20676 0.64335
 N1725 N 0.63814 0.68221 0.63609
 N1726 N 0.61320 0.70106 0.64627
 N1727 N 0.65006 0.18212 1.13355
 N1728 N 0.62419 0.19954 1.14415
 N1729 N 1.31117 1.12954 0.85942
 N1730 N 1.29735 1.14175 0.88700
 N1731 N 1.31458 0.62954 0.36710
 N1732 N 1.29740 0.64270 0.39210
 N1733 N 0.82334 1.12655 0.36040
 N1734 N 0.80706 1.13309 0.38849
 N1735 N 0.81357 0.62924 0.84967
 N1736 N 0.79594 0.63785 0.87627
 N1737 N 1.31407 0.85706 1.12897
 N1738 N 1.29709 0.88335 1.13943
 N1739 N 1.32170 0.35329 0.63727
 N1740 N 1.30376 0.37856 0.64889
 N1741 N 0.82144 0.87211 0.64403
 N1742 N 0.79986 0.86559 0.61953
 N1743 N 0.81798 0.35397 1.13810
 N1744 N 0.79956 0.38032 1.14609
 N1745 N 0.68981 1.13358 1.13982
 N1746 N 0.70705 1.14460 1.11356
 N1747 N 0.67559 0.63228 0.64261
 N1748 N 0.69257 0.64292 0.61587
 N1749 N 0.18538 1.13686 0.64013
 N1750 N 0.20403 1.14464 0.61375
 N1751 N 0.18733 0.64639 1.13181
 N1752 N 0.20429 0.62151 1.14563
 N1753 N 0.67472 0.87506 0.85314
 N1754 N 0.69854 0.86599 0.87443
 N1755 N 0.68218 0.34799 0.35564
 N1756 N 0.69963 0.37408 0.34448
 N1757 N 0.18503 0.85153 0.36792
 N1758 N 0.20543 0.87648 0.36045
 N1759 N 0.17549 0.34918 0.87487
 N1760 N 0.19539 0.37517 0.86987
   
