data_POSCAR
  _audit_creation_date              2014-09-24
  _audit_creation_method            'ToBaCCo'
  _symmetry_space_group_name_H-M    'P1'
  _symmetry_Int_Tables_number       1
  _symmetry_cell_setting            triclinic
  loop_
  _symmetry_equiv_pos_as_xyz
 x,y,z
_cell_length_a 43.3148
_cell_length_b 43.3146
_cell_length_c 43.3146
_cell_angle_alpha 89.999200
_cell_angle_beta 90.001400
_cell_angle_gamma 90.002000
loop_
  _atom_site_label
  _atom_site_type_symbol
  _atom_site_fract_x
  _atom_site_fract_y
  _atom_site_fract_z
N1 N 0.34809 1.34798 0.34776
 N2 N 0.34790 0.84788 0.84811
 N3 N 0.84815 1.34773 0.84808
 N4 N 0.84770 0.84802 0.34817
 N5 N 0.65211 0.65222 0.34819
 N6 N 0.65169 0.15199 0.84771
 N7 N 1.15231 0.65192 0.84796
 N8 N 1.15183 0.15188 0.34772
 N9 N 0.65206 1.34823 0.65209
 N10 N 0.65233 0.84796 1.15207
 N11 N 1.15183 1.34805 1.15209
 N12 N 1.15215 0.84786 0.65189
 N13 N 0.34801 0.65197 0.65193
 N14 N 0.34789 0.15206 1.15201
 N15 N 0.84796 0.65198 1.15195
 N16 N 0.84818 0.15210 0.65204
 N17 N 1.34828 0.34782 0.65225
 N18 N 1.34765 0.84790 1.15186
 N19 N 0.84822 0.34823 1.15230
 N20 N 0.84793 0.84794 0.65209
 N21 N 0.65214 0.65221 0.65172
 N22 N 0.65190 1.15238 1.15188
 N23 N 0.15213 0.65189 1.15212
 N24 N 0.15210 1.15202 0.65219
 N25 N 1.34779 0.65204 0.34799
 N26 N 1.34805 1.15165 0.84770
 N27 N 0.84763 0.65211 0.84825
 N28 N 0.84811 1.15209 0.34803
 N29 N 0.65209 0.34823 0.34783
 N30 N 0.65185 0.84806 0.84800
 N31 N 0.15185 0.34771 0.84809
 N32 N 0.15219 0.84785 0.34798
 O33 O 0.96982 0.88827 0.84624
 O34 O 0.96969 0.85235 0.81017
 C35 C 0.95921 0.87747 0.82112
 C36 C 0.93380 0.89384 0.80508
 C37 C 0.92278 0.88329 0.77643
 H38 H 0.93371 0.86366 0.76545
 O39 O 1.02964 1.11089 0.84584
 O40 O 1.02957 1.14677 0.80972
 C41 C 1.04013 1.12167 0.82066
 C42 C 1.06551 1.10532 0.80455
 C43 C 1.07661 1.11600 0.77599
 H44 H 1.06575 1.13572 0.76509
 O45 O 0.84568 0.96966 0.88909
 O46 O 0.80955 0.96947 0.85321
 C47 C 0.82051 0.95910 0.87838
 C48 C 0.80438 0.93387 0.89492
 C49 C 0.77574 0.92284 0.88439
 H50 H 0.76483 0.93367 0.86466
 O51 O 1.15364 1.02982 0.88830
 O52 O 1.18969 1.02977 0.85235
 C53 C 1.17874 1.04039 0.87741
 C54 C 1.19488 1.06579 0.89365
 C55 C 1.22327 1.07694 0.88266
 H56 H 1.23390 1.06617 0.86274
 O57 O 0.88868 0.84636 0.97001
 O58 O 0.85275 0.81029 0.97016
 C59 C 0.87775 0.82128 0.95945
 C60 C 0.89390 0.80517 0.93398
 C61 C 0.88285 0.77681 0.92284
 H62 H 0.86294 0.76620 0.93363
 O63 O 1.11148 1.15339 0.96946
 O64 O 1.14739 1.18947 0.96928
 C65 C 1.12226 1.17851 0.95883
 C66 C 1.10579 1.19458 0.93349
 C67 C 1.11632 1.22323 0.92248
 H68 H 1.13604 1.23415 0.93332
 O69 O 0.88795 1.02967 0.84646
 O70 O 0.85200 1.02953 0.81040
 C71 C 0.87706 1.04019 0.82134
 C72 C 0.89332 1.06559 0.80519
 C73 C 0.88237 1.07682 0.77679
 H74 H 0.86244 1.06612 0.76613
 O75 O 1.11135 0.96958 0.84598
 O76 O 1.14725 0.96952 0.80988
 C77 C 1.12212 0.95905 0.82081
 C78 C 1.10570 0.93374 0.80466
 C79 C 1.11631 0.92272 0.77605
 H80 H 1.13604 0.93357 0.76516
 O81 O 1.03011 0.84602 0.88848
 O82 O 1.03005 0.80992 0.85258
 C83 C 1.04067 0.82091 0.87762
 C84 C 1.06605 0.80479 0.89392
 C85 C 1.07732 0.77645 0.88293
 H86 H 1.06667 0.76584 0.86294
 O87 O 0.96957 1.15325 0.88839
 O88 O 0.96945 1.18933 0.85247
 C89 C 0.95897 1.17839 0.87761
 C90 C 0.93358 1.19448 0.89403
 C91 C 0.92260 1.22315 0.88349
 H92 H 0.93353 1.23410 0.86384
 O93 O 0.84519 1.11101 0.97004
 O94 O 0.80905 1.14687 0.96993
 C95 C 0.82000 1.12174 0.95951
 C96 C 0.80390 1.10528 0.93422
 C97 C 0.77530 1.11585 0.92313
 H98 H 0.76435 1.13556 0.93396
 O99 O 1.15331 0.88805 0.96975
 O100 O 1.18941 0.85215 0.96978
 C101 C 1.17839 0.87717 0.95913
 C102 C 1.19447 0.89342 0.93367
 C103 C 1.22286 0.88247 0.92249
 H104 H 1.23351 0.86256 0.93323
 O105 O 0.96945 1.11087 0.84611
 O106 O 0.96932 1.14676 0.81000
 C107 C 0.95885 1.12164 0.82097
 C108 C 0.93352 1.10522 0.80487
 C109 C 0.92254 1.11580 0.77624
 H110 H 0.93343 1.13551 0.76535
 O111 O 1.03009 0.88819 0.84620
 O112 O 1.03003 0.85224 0.81014
 C113 C 1.04065 0.87730 0.82110
 C114 C 1.06607 0.89355 0.80499
 C115 C 1.07729 0.88259 0.77662
 H116 H 1.06657 0.86266 0.76597
 O117 O 1.15360 0.96955 0.88842
 O118 O 1.18967 0.96946 0.85249
 C119 C 1.17874 0.95897 0.87762
 C120 C 1.19484 0.93362 0.89403
 C121 C 1.22348 0.92260 0.88347
 H122 H 1.23441 0.93347 0.86377
 O123 O 0.84572 1.02984 0.88871
 O124 O 0.80965 1.02968 0.85277
 C125 C 0.82061 1.04035 0.87780
 C126 C 0.80443 1.06571 0.89401
 C127 C 0.77608 1.07689 0.88296
 H128 H 0.76551 1.06619 0.86298
 O129 O 0.88781 1.15295 0.96968
 O130 O 0.85184 1.18897 0.96956
 C131 C 0.87693 1.17799 0.95899
 C132 C 0.89325 1.19406 0.93356
 C133 C 0.88235 1.22249 0.92239
 H134 H 0.86243 1.23314 0.93311
 O135 O 1.11114 0.84569 0.97005
 O136 O 1.14708 0.80962 0.97008
 C137 C 1.12195 0.82052 0.95956
 C138 C 1.10558 0.80438 0.93422
 C139 C 1.11623 0.77580 0.92317
 H140 H 1.13594 0.76490 0.93404
 O141 O 1.11128 1.02982 0.84620
 O142 O 1.14720 1.02982 0.81012
 C143 C 1.12214 1.04041 0.82110
 C144 C 1.10583 1.06581 0.80498
 C145 C 1.11686 1.07710 0.77667
 H146 H 1.13686 1.06646 0.76609
 O147 O 0.88800 0.96935 0.84678
 O148 O 0.85202 0.96917 0.81076
 C149 C 0.87712 0.95867 0.82173
 C150 C 0.89344 0.93330 0.80560
 C151 C 0.88250 0.92214 0.77720
 H152 H 0.86254 0.93283 0.76659
 O153 O 1.02992 1.15310 0.88816
 O154 O 1.02985 1.18914 0.85219
 C155 C 1.04053 1.17816 0.87722
 C156 C 1.06604 1.19424 0.89339
 C157 C 1.07720 1.22265 0.88244
 H158 H 1.06641 1.23333 0.86257
 O159 O 0.96989 0.84592 0.88854
 O160 O 0.96975 0.80981 0.85266
 C161 C 0.95931 0.82077 0.87779
 C162 C 0.93399 0.80470 0.89427
 C163 C 0.92289 0.77608 0.88374
 H164 H 0.93368 0.76512 0.86401
 O165 O 1.15402 1.11123 0.96965
 O166 O 1.19012 1.14713 0.96947
 C167 C 1.17918 1.12198 0.95907
 C168 C 1.19530 1.10548 0.93378
 C169 C 1.22394 1.11602 0.92273
 H170 H 1.23488 1.13574 0.93354
 O171 O 0.84618 0.88833 0.97041
 O172 O 0.81012 0.85238 0.97058
 C173 C 0.82102 0.87746 0.95995
 C174 C 0.80479 0.89373 0.93461
 C175 C 0.77638 0.88274 0.92344
 H176 H 0.76576 0.86281 0.93417
 Cu177 Cu 0.99996 0.87071 0.87095
 Cu178 Cu 0.99985 0.82747 0.82776
 Cu179 Cu 0.99964 1.12845 0.87074
 Cu180 Cu 0.99951 1.17163 0.82750
 Cu181 Cu 0.87046 0.99963 0.87135
 Cu182 Cu 0.82720 0.99942 0.82815
 Cu183 Cu 1.12887 0.99966 0.87083
 Cu184 Cu 1.17207 0.99961 0.82760
 C185 C 0.91922 0.91912 0.81926
 H186 H 0.92738 0.92720 0.84147
 C187 C 0.89704 0.89721 0.76241
 C188 C 1.08003 1.07995 0.81863
 H189 H 1.07180 1.07176 0.84078
 C190 C 1.10239 1.10214 0.76197
 C191 C 0.81848 0.91942 0.92031
 H192 H 0.84069 0.92760 0.92837
 C193 C 0.76166 0.89719 0.89840
 C194 C 1.18119 1.08009 0.91933
 H195 H 1.15898 1.07202 0.92752
 C196 C 1.23801 1.10198 0.89706
 C197 C 0.91958 0.81883 0.91966
 H198 H 0.92782 0.84102 0.92774
 C199 C 0.89722 0.76206 0.89779
 C200 C 1.08039 1.18050 0.91904
 H201 H 1.07231 1.15829 0.92722
 C202 C 1.10226 1.23736 0.89686
 C203 C 0.91902 1.07984 0.81893
 H204 H 0.92719 1.07174 0.84113
 C205 C 0.89688 1.10186 0.76211
 C206 C 1.08031 0.91925 0.81872
 H207 H 1.07218 0.92744 0.84091
 C208 C 1.10235 0.89704 0.76194
 C209 C 1.08021 0.81846 0.91970
 H210 H 1.07205 0.84063 0.92790
 C211 C 1.10235 0.76175 0.89742
 C212 C 0.91898 1.18035 0.91934
 H213 H 0.92712 1.15813 0.92742
 C214 C 0.89690 1.23724 0.89743
 C215 C 0.81805 1.07994 0.91976
 H216 H 0.84023 1.07184 0.92800
 C217 C 0.76132 1.10190 0.89739
 C218 C 1.18074 0.91911 0.91940
 H219 H 1.15854 0.92728 0.92751
 C220 C 1.23757 0.89693 0.89746
 O221 O 1.03018 0.88876 1.15397
 O222 O 1.03024 0.85286 1.19007
 C223 C 1.04076 0.87794 1.17909
 C224 C 1.06609 0.89430 1.19523
 C225 C 1.07735 0.88330 1.22356
 H226 H 1.06669 0.86330 1.23415
 O227 O 0.96977 1.11232 1.15313
 O228 O 0.96980 1.14839 1.18905
 C229 C 0.95924 1.12325 1.17823
 C230 C 0.93398 1.10690 1.19454
 C231 C 0.92285 1.11788 1.22296
 H232 H 0.93348 1.13792 1.23348
 O233 O 0.84645 1.03033 1.11222
 O234 O 0.81048 1.03038 1.14825
 C235 C 0.82137 1.04092 1.12313
 C236 C 0.80515 1.06621 1.10677
 C237 C 0.77676 1.07743 1.11773
 H238 H 0.76621 1.06685 1.13778
 O239 O 1.15316 0.96977 1.11159
 O240 O 1.18922 0.96980 1.14753
 C241 C 1.17821 0.95912 1.12251
 C242 C 1.19426 0.93361 1.10629
 C243 C 1.22264 0.92239 1.11726
 H244 H 1.23327 0.93310 1.13720
 O245 O 1.11129 0.84585 1.03023
 O246 O 1.14725 0.80981 1.03033
 C247 C 1.12214 0.82074 1.04083
 C248 C 1.10580 0.80467 1.06622
 C249 C 1.11641 0.77606 1.07725
 H250 H 1.13609 0.76513 1.06635
 O251 O 0.88758 1.15359 1.02999
 O252 O 0.85159 1.18960 1.02996
 C253 C 0.87670 1.17872 1.04052
 C254 C 0.89309 1.19498 1.06578
 C255 C 0.88214 1.22337 1.07704
 H256 H 0.86207 1.23393 1.06649
 O257 O 0.88882 0.97012 1.15447
 O258 O 0.85298 0.97010 1.19063
 C259 C 0.87806 0.95959 1.17964
 C260 C 0.89445 0.93424 1.19573
 C261 C 0.88383 0.92318 1.22432
 H262 H 0.86413 0.93405 1.23525
 O263 O 1.11118 1.03053 1.15348
 O264 O 1.14707 1.03067 1.18959
 C265 C 1.12200 1.04120 1.17856
 C266 C 1.10566 1.06669 1.19453
 C267 C 1.11619 1.07768 1.22318
 H268 H 1.13580 1.06672 1.23417
 O269 O 0.97005 0.84631 1.11174
 O270 O 0.97006 0.81028 1.14772
 C271 C 0.95951 0.82120 1.12261
 C272 C 0.93421 0.80500 1.10629
 C273 C 0.92304 0.77660 1.11724
 H274 H 0.93372 0.76599 1.13721
 O275 O 1.02984 1.15455 1.11050
 O276 O 1.02991 1.19077 1.14628
 C277 C 1.04039 1.17974 1.12120
 C278 C 1.06576 1.19578 1.10480
 C279 C 1.07680 1.22437 1.11540
 H280 H 1.06586 1.23534 1.13504
 O281 O 0.84690 0.88848 1.03074
 O282 O 0.81088 0.85250 1.03093
 C283 C 0.82188 0.87757 1.04147
 C284 C 0.80584 0.89383 1.06694
 C285 C 0.77746 0.88286 1.07812
 H286 H 0.76683 0.86294 1.06737
 O287 O 1.15369 1.11131 1.02992
 O288 O 1.18978 1.14722 1.02981
 C289 C 1.17877 1.12220 1.04050
 C290 C 1.19485 1.10599 1.06598
 C291 C 1.22321 1.11699 1.07720
 H292 H 1.23385 1.13690 1.06644
 O293 O 1.03010 1.11234 1.15285
 O294 O 1.03018 1.14841 1.18878
 C295 C 1.04075 1.12331 1.17788
 C296 C 1.06617 1.10704 1.19402
 C297 C 1.07734 1.11798 1.22244
 H298 H 1.06665 1.13794 1.23306
 O299 O 0.96992 0.88855 1.15403
 O300 O 0.96995 0.85264 1.19012
 C301 C 0.95935 0.87768 1.17914
 C302 C 0.93397 0.89396 1.19527
 C303 C 0.92273 0.88295 1.22362
 H304 H 0.93340 0.86296 1.23422
 O305 O 1.15381 1.03006 1.11147
 O306 O 1.18989 1.03018 1.14738
 C307 C 1.17899 1.04060 1.12221
 C308 C 1.19517 1.06587 1.10571
 C309 C 1.22378 1.07694 1.11632
 H310 H 1.23466 1.06615 1.13608
 O311 O 0.84658 0.97007 1.11208
 O312 O 0.81055 0.97002 1.14805
 C313 C 0.82146 0.95949 1.12292
 C314 C 0.80539 0.93408 1.10655
 C315 C 0.77676 0.92301 1.11712
 H316 H 0.76581 0.93387 1.13681
 O317 O 1.11169 1.15378 1.02970
 O318 O 1.14764 1.18984 1.02958
 C319 C 1.12255 1.17893 1.04018
 C320 C 1.10621 1.19518 1.06545
 C321 C 1.11721 1.22355 1.07669
 H322 H 1.13727 1.23409 1.06611
 O323 O 0.88892 0.84588 1.03023
 O324 O 0.85303 0.80977 1.03039
 C325 C 0.87819 0.82069 1.04077
 C326 C 0.89469 0.80454 1.06601
 C327 C 0.88414 0.77589 1.07701
 H328 H 0.86445 0.76496 1.06613
 O329 O 1.11125 0.97031 1.15424
 O330 O 1.14714 0.97039 1.19034
 C331 C 1.12202 0.95987 1.17945
 C332 C 1.10561 0.93458 1.19564
 C333 C 1.11628 0.92351 1.22422
 H334 H 1.13601 0.93435 1.23511
 O335 O 0.88900 1.03033 1.15419
 O336 O 0.85321 1.03039 1.19041
 C337 C 0.87827 1.04093 1.17934
 C338 C 0.89465 1.06640 1.19529
 C339 C 0.88416 1.07743 1.22393
 H340 H 0.86459 1.06645 1.23497
 O341 O 0.96963 1.15438 1.11060
 O342 O 0.96968 1.19061 1.14637
 C343 C 0.95909 1.17955 1.12135
 C344 C 0.93364 1.19555 1.10505
 C345 C 0.92265 1.22416 1.11566
 H346 H 0.93367 1.23513 1.13525
 O347 O 1.03031 0.84634 1.11187
 O348 O 1.03034 0.81032 1.14785
 C349 C 1.04091 0.82126 1.12278
 C350 C 1.06629 0.80512 1.10650
 C351 C 1.07751 0.77676 1.11749
 H352 H 1.06684 0.76615 1.13746
 O353 O 1.15346 0.88831 1.03006
 O354 O 1.18960 0.85246 1.03016
 C355 C 1.17862 0.87757 1.04064
 C356 C 1.19468 0.89401 1.06602
 C357 C 1.22330 0.88342 1.07707
 H358 H 1.23423 0.86373 1.06620
 O359 O 0.84566 1.11097 1.03021
 O360 O 0.80949 1.14680 1.03016
 C361 C 0.82052 1.12176 1.04076
 C362 C 0.80454 1.10548 1.06624
 C363 C 0.77592 1.11607 1.07724
 H364 H 0.76493 1.13566 1.06624
 Cu365 Cu 1.00011 0.87109 1.12929
 Cu366 Cu 1.00015 0.82791 1.17257
 Cu367 Cu 0.99982 1.12978 1.12819
 Cu368 Cu 0.99989 1.17316 1.17124
 Cu369 Cu 0.87126 0.87088 1.00035
 Cu370 Cu 0.82806 0.82763 1.00055
 Cu371 Cu 1.12871 0.87057 1.00003
 Cu372 Cu 1.17198 0.82742 1.00010
 Cu373 Cu 0.87017 1.12855 0.99999
 Cu374 Cu 0.82689 1.17170 0.99989
 Cu375 Cu 1.12913 1.12883 0.99966
 Cu376 Cu 1.17235 1.17202 0.99949
 Cu377 Cu 0.87129 1.00020 1.12963
 Cu378 Cu 0.82819 1.00022 1.17295
 Cu379 Cu 1.12876 1.00017 1.12910
 Cu380 Cu 1.17196 1.00029 1.17231
 C381 C 1.08024 0.92007 1.18157
 H382 H 1.07208 0.92827 1.15939
 C383 C 1.10239 0.89775 1.23825
 C384 C 0.91984 1.08104 1.18100
 H385 H 0.92787 1.07284 1.15879
 C386 C 0.89801 1.10326 1.23786
 C387 C 0.81874 1.08028 1.08091
 H388 H 0.84094 1.07217 1.07272
 C389 C 0.76195 1.10229 1.10308
 C390 C 1.18057 0.91937 1.08054
 H391 H 1.15839 0.92749 1.07234
 C392 C 1.23736 0.89736 1.10279
 C393 C 1.08047 0.81879 1.08075
 H394 H 1.07234 0.84097 1.07255
 C395 C 1.10251 0.76203 1.10298
 C396 C 0.91896 1.18137 1.07984
 H397 H 0.92714 1.15918 1.07172
 C398 C 0.89682 1.23816 1.10192
 C399 C 0.91980 0.91973 1.18162
 H400 H 0.92793 0.92794 1.15944
 C401 C 0.89772 0.89743 1.23835
 C402 C 1.08038 1.08128 1.18036
 H403 H 1.07230 1.07310 1.15815
 C404 C 1.10227 1.10341 1.23723
 C405 C 0.92001 0.81867 1.08054
 H406 H 0.92807 0.84089 1.07239
 C407 C 0.89807 0.76184 1.10272
 C408 C 1.08035 1.18160 1.07955
 H409 H 1.07214 1.15941 1.07144
 C410 C 1.10262 1.23834 1.10161
 C411 C 0.81952 0.91956 1.08119
 H412 H 0.84171 0.92775 1.07307
 C413 C 0.76271 0.89731 1.10314
 C414 C 1.18112 1.08030 1.08027
 H415 H 1.15894 1.07210 1.07215
 C416 C 1.23788 1.10260 1.10230
 O417 O 0.96973 0.38804 0.34721
 O418 O 0.96962 0.35205 0.31121
 C419 C 0.95905 0.37714 0.32216
 C420 C 0.93364 0.39344 0.30603
 C421 C 0.92250 0.38251 0.27760
 H422 H 0.93322 0.36257 0.26698
 O423 O 1.02979 0.61158 0.34602
 O424 O 1.02980 0.64744 0.30989
 C425 C 1.04034 0.62235 0.32087
 C426 C 1.06574 0.60595 0.30482
 C427 C 1.07684 0.61653 0.27621
 H428 H 1.06602 0.63624 0.26526
 O429 O 0.84607 0.46974 0.38895
 O430 O 0.80997 0.46958 0.35307
 C431 C 0.82093 0.45914 0.37820
 C432 C 0.80481 0.43386 0.39465
 C433 C 0.77620 0.42283 0.38404
 H434 H 0.76535 0.43365 0.36427
 O435 O 1.15382 0.52969 0.38844
 O436 O 1.18983 0.52972 0.35245
 C437 C 1.17898 0.54019 0.37762
 C438 C 1.19514 0.56550 0.39404
 C439 C 1.22375 0.57658 0.38343
 H440 H 1.23468 0.56574 0.36372
 O441 O 0.88842 0.34627 0.47049
 O442 O 0.85247 0.31021 0.47066
 C443 C 0.87752 0.32114 0.46000
 C444 C 0.89379 0.30495 0.43464
 C445 C 0.88279 0.27659 0.42341
 H446 H 0.86278 0.26601 0.43405
 O447 O 1.11122 0.65354 0.46958
 O448 O 1.14717 0.68959 0.46949
 C449 C 1.12209 0.67862 0.45895
 C450 C 1.10582 0.69474 0.43354
 C451 C 1.11684 0.72310 0.42235
 H452 H 1.13677 0.73371 0.43310
 O453 O 0.88812 0.53016 0.34663
 O454 O 0.85215 0.53005 0.31061
 C455 C 0.87718 0.54073 0.32155
 C456 C 0.89339 0.56618 0.30540
 C457 C 0.88240 0.57733 0.27699
 H458 H 0.86248 0.56657 0.26637
 O459 O 1.11102 0.46987 0.34605
 O460 O 1.14679 0.46983 0.30983
 C461 C 1.12171 0.45933 0.32085
 C462 C 1.10527 0.43394 0.30482
 C463 C 1.11579 0.42290 0.27618
 H464 H 1.13540 0.43384 0.26518
 O465 O 1.03022 0.34578 0.38925
 O466 O 1.03012 0.30963 0.35341
 C467 C 1.04074 0.32062 0.37845
 C468 C 1.06619 0.30456 0.39471
 C469 C 1.07718 0.27595 0.38406
 H470 H 1.06618 0.26501 0.36444
 O471 O 0.96959 0.65389 0.38833
 O472 O 0.96947 0.68997 0.35241
 C473 C 0.95901 0.67903 0.37755
 C474 C 0.93370 0.69514 0.39403
 C475 C 0.92263 0.72377 0.38349
 H476 H 0.93340 0.73468 0.36374
 O477 O 0.84628 0.61136 0.47016
 O478 O 0.81017 0.64725 0.47023
 C479 C 0.82115 0.62219 0.45962
 C480 C 0.80499 0.60591 0.43425
 C481 C 0.77665 0.61692 0.42303
 H482 H 0.76605 0.63688 0.43374
 O483 O 1.15438 0.38856 0.46999
 O484 O 1.19053 0.35271 0.46993
 C485 C 1.17951 0.37779 0.45940
 C486 C 1.19547 0.39414 0.43394
 C487 C 1.22408 0.38362 0.42285
 H488 H 1.23513 0.36402 0.43379
 O489 O 0.96956 0.61152 0.34609
 O490 O 0.96945 0.64738 0.30995
 C491 C 0.95896 0.62227 0.32095
 C492 C 0.93359 0.60582 0.30491
 C493 C 0.92255 0.61633 0.27627
 H494 H 0.93342 0.63601 0.26530
 O495 O 1.03007 0.38802 0.34689
 O496 O 1.03001 0.35202 0.31089
 C497 C 1.04059 0.37713 0.32176
 C498 C 1.06587 0.39349 0.30548
 C499 C 1.07702 0.38252 0.27706
 H500 H 1.06638 0.36249 0.26653
 O501 O 1.15344 0.46946 0.38822
 O502 O 1.18937 0.46944 0.35215
 C503 C 1.17849 0.45885 0.37725
 C504 C 1.19471 0.43351 0.39350
 C505 C 1.22310 0.42237 0.38248
 H506 H 1.23361 0.43303 0.36244
 O507 O 0.84589 0.52991 0.38895
 O508 O 0.80975 0.52983 0.35310
 C509 C 0.82070 0.54038 0.37820
 C510 C 0.80457 0.56571 0.39461
 C511 C 0.77597 0.57680 0.38400
 H512 H 0.76506 0.56598 0.36427
 O513 O 0.88848 0.65361 0.46994
 O514 O 0.85250 0.68963 0.47003
 C515 C 0.87753 0.67867 0.45935
 C516 C 0.89368 0.69477 0.43384
 C517 C 0.88266 0.72315 0.42269
 H518 H 0.86279 0.73380 0.43351
 O519 O 1.11220 0.34625 0.46995
 O520 O 1.14816 0.31022 0.46988
 C521 C 1.12307 0.32117 0.45934
 C522 C 1.10670 0.30503 0.43402
 C523 C 1.11763 0.27666 0.42275
 H524 H 1.13765 0.26606 0.43333
 O525 O 1.11128 0.53017 0.34641
 O526 O 1.14714 0.53018 0.31027
 C527 C 1.12214 0.54082 0.32134
 C528 C 1.10592 0.56630 0.30528
 C529 C 1.11694 0.57749 0.27692
 H530 H 1.13687 0.56674 0.26631
 O531 O 0.88844 0.46982 0.34666
 O532 O 0.85252 0.46964 0.31059
 C533 C 0.87766 0.45918 0.32155
 C534 C 0.89409 0.43377 0.30551
 C535 C 0.88358 0.42275 0.27685
 H536 H 0.86395 0.43367 0.26586
 O537 O 1.02977 0.65393 0.38826
 O538 O 1.02979 0.69001 0.35234
 C539 C 1.04031 0.67908 0.37746
 C540 C 1.06567 0.69518 0.39387
 C541 C 1.07676 0.72379 0.38328
 H542 H 1.06596 0.73471 0.36355
 O543 O 0.97001 0.34570 0.38946
 O544 O 0.96989 0.30956 0.35360
 C545 C 0.95945 0.32054 0.37873
 C546 C 0.93411 0.30446 0.39515
 C547 C 0.92306 0.27586 0.38455
 H548 H 0.93396 0.26493 0.36487
 O549 O 1.15345 0.61122 0.46958
 O550 O 1.18950 0.64718 0.46948
 C551 C 1.17854 0.62208 0.45896
 C552 C 1.19468 0.60576 0.43361
 C553 C 1.22305 0.61675 0.42242
 H554 H 1.23364 0.63671 0.43313
 O555 O 0.84622 0.38850 0.47045
 O556 O 0.81013 0.35259 0.47061
 C557 C 0.82112 0.37760 0.45991
 C558 C 0.80505 0.39378 0.43441
 C559 C 0.77668 0.38279 0.42315
 H560 H 0.76600 0.36289 0.43389
 Cu561 Cu 1.00003 0.37050 0.37179
 Cu562 Cu 0.99989 0.32721 0.32865
 Cu563 Cu 0.99968 0.62914 0.37077
 Cu564 Cu 0.99962 0.67231 0.32752
 Cu565 Cu 0.87075 0.49991 0.37137
 Cu566 Cu 0.82750 0.49974 0.32821
 Cu567 Cu 1.12880 0.49979 0.37089
 Cu568 Cu 1.17187 0.49979 0.32754
 C569 C 0.91939 0.41919 0.31969
 H570 H 0.92746 0.42736 0.34191
 C571 C 0.89755 0.39703 0.26279
 C572 C 1.08020 0.58056 0.31894
 H573 H 1.07197 0.57244 0.34112
 C574 C 1.10254 0.60253 0.26219
 C575 C 0.81881 0.41944 0.42011
 H576 H 0.84100 0.42764 0.42824
 C577 C 0.76206 0.39721 0.39803
 C578 C 1.18103 0.58000 0.41941
 H579 H 1.15884 0.57181 0.42752
 C580 C 1.23778 0.60231 0.39739
 C581 C 0.91958 0.31859 0.42047
 H582 H 0.92779 0.34077 0.42858
 C583 C 0.89731 0.26184 0.39843
 C584 C 1.08011 0.68107 0.41928
 H585 H 1.07189 0.65889 0.42739
 C586 C 1.10246 0.73782 0.39729
 C587 C 0.91910 0.58048 0.31906
 H588 H 0.92730 0.57241 0.34127
 C589 C 0.89687 0.60233 0.26221
 C590 C 1.08003 0.41933 0.31905
 H591 H 1.07198 0.42752 0.34126
 C592 C 1.10192 0.39710 0.26221
 C593 C 1.08086 0.31869 0.41996
 H594 H 1.07269 0.34087 0.42812
 C595 C 1.10299 0.26192 0.39783
 C596 C 0.91932 0.68106 0.41948
 H597 H 0.92754 0.65887 0.42756
 C598 C 0.89701 0.73785 0.39759
 C599 C 0.81866 0.58017 0.42001
 H600 H 0.84084 0.57196 0.42814
 C601 C 0.76194 0.60251 0.39797
 C602 C 1.18119 0.41936 0.41935
 H603 H 1.15900 0.42743 0.42759
 C604 C 1.23798 0.39750 0.39703
 O605 O 1.03049 0.38897 0.65409
 O606 O 1.03061 0.35307 0.69020
 C607 C 1.04102 0.37823 0.67927
 C608 C 1.06627 0.39470 0.69543
 C609 C 1.07724 0.38412 0.72407
 H610 H 1.06635 0.36441 0.73495
 O611 O 0.97015 0.61175 0.65417
 O612 O 0.97026 0.64776 0.69016
 C613 C 0.95965 0.62267 0.67928
 C614 C 0.93432 0.60638 0.69549
 C615 C 0.92307 0.61739 0.72385
 H616 H 0.93370 0.63740 0.73443
 O617 O 0.84692 0.53035 0.61236
 O618 O 0.81092 0.53042 0.64835
 C619 C 0.82186 0.54099 0.62325
 C620 C 0.80573 0.56637 0.60691
 C621 C 0.77732 0.57759 0.61781
 H622 H 0.76668 0.56695 0.63779
 O623 O 1.15411 0.46977 0.61144
 O624 O 1.19022 0.46990 0.64734
 C625 C 1.17921 0.45922 0.62234
 C626 C 1.19532 0.43378 0.60616
 C627 C 1.22368 0.42261 0.61718
 H628 H 1.23430 0.43336 0.63711
 O629 O 1.11213 0.34624 0.53019
 O630 O 1.14804 0.31015 0.53024
 C631 C 1.12292 0.32110 0.54076
 C632 C 1.10651 0.30504 0.56614
 C633 C 1.11704 0.27640 0.57719
 H634 H 1.13672 0.26543 0.56633
 O635 O 0.88866 0.65386 0.53022
 O636 O 0.85269 0.68988 0.53034
 C637 C 0.87785 0.67900 0.54077
 C638 C 0.89427 0.69517 0.56608
 C639 C 0.88364 0.72378 0.57710
 H640 H 0.86391 0.73466 0.56626
 O641 O 0.88918 0.47010 0.65464
 O642 O 0.85334 0.47006 0.69080
 C643 C 0.87843 0.45956 0.67981
 C644 C 0.89484 0.43421 0.69585
 C645 C 0.88427 0.42311 0.72444
 H646 H 0.86457 0.43395 0.73541
 O647 O 1.11204 0.53042 0.65335
 O648 O 1.14804 0.53055 0.68935
 C649 C 1.12296 0.54111 0.67838
 C650 C 1.10671 0.56654 0.69447
 C651 C 1.11768 0.57770 0.72286
 H652 H 1.13762 0.56697 0.73348
 O653 O 0.97043 0.34646 0.61175
 O654 O 0.97054 0.31039 0.64768
 C655 C 0.95988 0.32135 0.62264
 C656 C 0.93439 0.30525 0.60645
 C657 C 0.92324 0.27684 0.61740
 H658 H 0.93407 0.26613 0.63724
 O659 O 1.03015 0.65396 0.61151
 O660 O 1.03034 0.69013 0.64734
 C661 C 1.04072 0.67915 0.62219
 C662 C 1.06596 0.69526 0.60564
 C663 C 1.07703 0.72389 0.61616
 H664 H 1.06625 0.73481 0.63591
 O665 O 0.84633 0.38875 0.53075
 O666 O 0.81022 0.35286 0.53098
 C667 C 0.82121 0.37800 0.54140
 C668 C 0.80515 0.39446 0.56675
 C669 C 0.77648 0.38396 0.57773
 H670 H 0.76551 0.36431 0.56682
 O671 O 1.15368 0.61140 0.52985
 O672 O 1.18972 0.64736 0.52974
 C673 C 1.17881 0.62229 0.54035
 C674 C 1.19505 0.60602 0.56568
 C675 C 1.22344 0.61704 0.57682
 H676 H 1.23401 0.63702 0.56611
 O677 O 1.03039 0.61163 0.65384
 O678 O 1.03058 0.64761 0.68986
 C679 C 1.04104 0.62247 0.67892
 C680 C 1.06645 0.60610 0.69496
 C681 C 1.07749 0.61665 0.72360
 H682 H 1.06661 0.63631 0.73457
 O683 O 0.97029 0.38867 0.65400
 O684 O 0.97040 0.35271 0.69005
 C685 C 0.95976 0.37776 0.67910
 C686 C 0.93438 0.39397 0.69528
 C687 C 0.92320 0.38291 0.72363
 H688 H 0.93390 0.36292 0.73419
 O689 O 1.15433 0.52997 0.61106
 O690 O 1.19049 0.53013 0.64691
 C691 C 1.17952 0.54052 0.62176
 C692 C 1.19561 0.56579 0.60525
 C693 C 1.22424 0.57685 0.61577
 H694 H 1.23520 0.56600 0.63545
 O695 O 0.84686 0.47001 0.61241
 O696 O 0.81085 0.47001 0.64840
 C697 C 0.82178 0.45942 0.62331
 C698 C 0.80562 0.43403 0.60702
 C699 C 0.77718 0.42290 0.61794
 H700 H 0.76654 0.43363 0.63787
 O701 O 1.11132 0.65358 0.52991
 O702 O 1.14726 0.68964 0.52980
 C703 C 1.12222 0.67869 0.54045
 C704 C 1.10602 0.69484 0.56587
 C705 C 1.11703 0.72323 0.57702
 H706 H 1.13694 0.73385 0.56623
 O707 O 0.88866 0.34636 0.53070
 O708 O 0.85274 0.31029 0.53094
 C709 C 0.87792 0.32121 0.54130
 C710 C 0.89449 0.30504 0.56651
 C711 C 0.88396 0.27639 0.57752
 H712 H 0.86418 0.26552 0.56675
 O713 O 1.11195 0.47012 0.65376
 O714 O 1.14793 0.47021 0.68979
 C715 C 1.12283 0.45962 0.67889
 C716 C 1.10651 0.43428 0.69508
 C717 C 1.11744 0.42307 0.72348
 H718 H 1.13740 0.43374 0.73412
 O719 O 0.88918 0.53024 0.65467
 O720 O 0.85334 0.53026 0.69083
 C721 C 0.87843 0.54076 0.67985
 C722 C 0.89483 0.56608 0.69595
 C723 C 0.88420 0.57712 0.72454
 H724 H 0.86451 0.56623 0.73544
 O725 O 0.96993 0.65370 0.61169
 O726 O 0.97004 0.68986 0.64753
 C727 C 0.95936 0.67881 0.62253
 C728 C 0.93391 0.69487 0.60627
 C729 C 0.92266 0.72323 0.61724
 H730 H 0.93337 0.73388 0.63716
 O731 O 1.03079 0.34669 0.61174
 O732 O 1.03092 0.31066 0.64771
 C733 C 1.04147 0.32164 0.62263
 C734 C 1.06689 0.30553 0.60636
 C735 C 1.07804 0.27713 0.61733
 H736 H 1.06728 0.26651 0.63726
 O737 O 1.15451 0.38848 0.53016
 O738 O 1.19063 0.35260 0.53022
 C739 C 1.17967 0.37771 0.54070
 C740 C 1.19577 0.39414 0.56602
 C741 C 1.22438 0.38358 0.57708
 H742 H 1.23532 0.36386 0.56626
 O743 O 0.84647 0.61136 0.53045
 O744 O 0.81033 0.64722 0.53054
 C745 C 0.82134 0.62214 0.54106
 C746 C 0.80529 0.60580 0.56649
 C747 C 0.77665 0.61638 0.57746
 H748 H 0.76571 0.63601 0.56648
 Cu749 Cu 1.00051 0.37128 0.62927
 Cu750 Cu 1.00065 0.32807 0.67250
 Cu751 Cu 1.00017 0.62915 0.62922
 Cu752 Cu 1.00035 0.67247 0.67233
 Cu753 Cu 0.87099 0.37108 0.50062
 Cu754 Cu 0.82776 0.32789 0.50086
 Cu755 Cu 1.12971 0.37097 0.50010
 Cu756 Cu 1.17295 0.32779 0.50008
 Cu757 Cu 0.87108 0.62895 0.50022
 Cu758 Cu 0.82780 0.67210 0.50032
 Cu759 Cu 1.12880 0.62883 0.49975
 Cu760 Cu 1.17202 0.67207 0.49961
 Cu761 Cu 0.87161 0.50018 0.62990
 Cu762 Cu 0.82847 0.50019 0.67319
 Cu763 Cu 1.12949 0.50007 0.62881
 Cu764 Cu 1.17278 0.50023 0.67198
 C765 C 1.08079 0.42006 0.68136
 H766 H 1.07264 0.42816 0.65915
 C767 C 1.10292 0.39805 0.73818
 C768 C 0.92017 0.58060 0.68185
 H769 H 0.92829 0.57239 0.65967
 C770 C 0.89807 0.60287 0.73856
 C771 C 0.81942 0.58052 0.58113
 H772 H 0.84163 0.57241 0.57298
 C773 C 0.76257 0.60254 0.60320
 C774 C 1.18165 0.41951 0.58046
 H775 H 1.15946 0.42761 0.57224
 C776 C 1.23841 0.39758 0.60277
 C777 C 1.08116 0.31919 0.58064
 H778 H 1.07308 0.34140 0.57245
 C779 C 1.10304 0.26236 0.60289
 C780 C 0.91968 0.68113 0.58057
 H781 H 0.92782 0.65895 0.57239
 C782 C 0.89759 0.73788 0.60279
 C783 C 0.92017 0.41974 0.68168
 H784 H 0.92827 0.42798 0.65951
 C785 C 0.89821 0.39736 0.73841
 C786 C 1.08098 0.58077 0.68081
 H787 H 1.07279 0.57268 0.65861
 C788 C 1.10320 0.60268 0.73763
 C789 C 0.91998 0.31906 0.58088
 H790 H 0.92804 0.34128 0.57271
 C791 C 0.89809 0.26220 0.60306
 C792 C 1.08036 0.68115 0.58022
 H793 H 1.07215 0.65894 0.57216
 C794 C 1.10267 0.73795 0.60210
 C795 C 0.81931 0.41977 0.58130
 H796 H 0.84154 0.42781 0.57315
 C797 C 0.76240 0.39794 0.60341
 C798 C 1.18143 0.58027 0.57992
 H799 H 1.15922 0.57206 0.57187
 C800 C 1.23823 0.60257 0.60180
 O801 O 0.61172 1.03046 0.65332
 O802 O 0.64760 1.03066 0.68943
 C803 C 0.62245 1.04109 0.67846
 C804 C 0.60596 1.06646 0.69450
 C805 C 0.61642 1.07748 0.72318
 H806 H 0.63607 1.06659 0.73418
 O807 O 0.38875 0.96992 0.65397
 O808 O 0.35288 0.96999 0.69010
 C809 C 0.37794 0.95941 0.67913
 C810 C 0.39427 0.93409 0.69532
 C811 C 0.38325 0.92286 0.72367
 H812 H 0.36326 0.93353 0.73424
 O813 O 0.53018 1.15452 0.61060
 O814 O 0.53014 1.19066 0.64646
 C815 C 0.54067 1.17971 0.62137
 C816 C 0.56602 1.19583 0.60501
 C817 C 0.57705 1.22443 0.61564
 H818 H 0.56616 1.23534 0.63534
 O819 O 0.46983 0.84671 0.61206
 O820 O 0.46993 0.81069 0.64803
 C821 C 0.45924 0.82165 0.62300
 C822 C 0.43378 0.80552 0.60679
 C823 C 0.42259 0.77713 0.61776
 H824 H 0.43329 0.76652 0.63772
 O825 O 0.65393 1.11193 0.52971
 O826 O 0.69003 1.14784 0.52959
 C827 C 0.67903 1.12282 0.54026
 C828 C 0.69512 1.10661 0.56572
 C829 C 0.72350 1.11757 0.57693
 H830 H 0.73418 1.13747 0.56618
 O831 O 0.34632 0.88834 0.53019
 O832 O 0.31025 0.85241 0.53029
 C833 C 0.32118 0.87755 0.54076
 C834 C 0.30507 0.89398 0.56610
 C835 C 0.27644 0.88341 0.57713
 H836 H 0.26551 0.86371 0.56627
 O837 O 0.46996 1.11212 0.65289
 O838 O 0.46989 1.14811 0.68889
 C839 C 0.45933 1.12301 0.67796
 C840 C 0.43396 1.10668 0.69414
 C841 C 0.42276 1.11762 0.72255
 H842 H 0.43343 1.13760 0.73316
 O843 O 0.53049 0.88888 0.65390
 O844 O 0.53067 0.85302 0.69003
 C845 C 0.54116 0.87811 0.67900
 C846 C 0.56657 0.89451 0.69500
 C847 C 0.57758 0.88397 0.72364
 H848 H 0.56668 0.86431 0.73460
 O849 O 0.65432 0.97042 0.61107
 O850 O 0.69043 0.97050 0.64696
 C851 C 0.67949 0.95994 0.62186
 C852 C 0.69558 0.93456 0.60549
 C853 C 0.72416 0.92344 0.61613
 H854 H 0.73509 0.93429 0.63583
 O855 O 0.34615 1.02991 0.61159
 O856 O 0.31015 1.03000 0.64759
 C857 C 0.32099 1.04043 0.62241
 C858 C 0.30477 1.06568 0.60597
 C859 C 0.27618 1.07674 0.61664
 H860 H 0.26534 1.06596 0.63644
 O861 O 0.38803 1.15356 0.52965
 O862 O 0.35202 1.18955 0.52968
 C863 C 0.37716 1.17868 0.54020
 C864 C 0.39356 1.19491 0.56547
 C865 C 0.38259 1.22328 0.57675
 H866 H 0.36254 1.23385 0.56619
 O867 O 0.61138 0.84672 0.53017
 O868 O 0.64732 0.81066 0.53011
 C869 C 0.62227 0.82164 0.54075
 C870 C 0.60605 0.80551 0.56620
 C871 C 0.61705 0.77711 0.57732
 H872 H 0.63693 0.76648 0.56651
 O873 O 0.38888 1.03020 0.65354
 O874 O 0.35305 1.03031 0.68971
 C875 C 0.37812 1.04083 0.67867
 C876 C 0.39449 1.06629 0.69466
 C877 C 0.38394 1.07730 0.72330
 H878 H 0.36432 1.06634 0.73427
 O879 O 0.61210 0.97015 0.65336
 O880 O 0.64804 0.97026 0.68942
 C881 C 0.62302 0.95957 0.67845
 C882 C 0.60681 0.93411 0.69457
 C883 C 0.61777 0.92293 0.72298
 H884 H 0.63770 0.93366 0.73362
 O885 O 0.53011 0.84638 0.61175
 O886 O 0.53031 0.81032 0.64768
 C887 C 0.54070 0.82122 0.62250
 C888 C 0.56597 0.80509 0.60596
 C889 C 0.57704 0.77644 0.61647
 H890 H 0.56625 0.76550 0.63621
 O891 O 0.46999 1.15421 0.61040
 O892 O 0.46993 1.19036 0.64625
 C893 C 0.45942 1.17936 0.62116
 C894 C 0.43402 1.19541 0.60482
 C895 C 0.42302 1.22400 0.61546
 H896 H 0.43398 1.23492 0.63510
 O897 O 0.34603 1.11109 0.53007
 O898 O 0.30988 1.14694 0.53008
 C899 C 0.32096 1.12195 0.54072
 C900 C 0.30498 1.10575 0.56623
 C901 C 0.27665 1.11674 0.57750
 H902 H 0.26597 1.13663 0.56675
 O903 O 0.65375 0.88883 0.53007
 O904 O 0.68982 0.85290 0.53001
 C905 C 0.67887 0.87797 0.54062
 C906 C 0.69506 0.89425 0.56597
 C907 C 0.72339 0.88321 0.57721
 H908 H 0.73395 0.86321 0.56654
 O909 O 0.47029 0.88887 0.65444
 O910 O 0.47039 0.85302 0.69059
 C911 C 0.45985 0.87813 0.67965
 C912 C 0.43454 0.89455 0.69580
 C913 C 0.42345 0.88392 0.72439
 H914 H 0.43429 0.86420 0.73530
 O915 O 0.53033 1.11205 0.65272
 O916 O 0.53030 1.14804 0.68873
 C917 C 0.54092 1.12296 0.67780
 C918 C 0.56633 1.10670 0.69398
 C919 C 0.57742 1.11763 0.72242
 H920 H 0.56664 1.13755 0.73304
 O921 O 0.34665 0.96966 0.61160
 O922 O 0.31064 0.96970 0.64760
 C923 C 0.32159 0.95905 0.62254
 C924 C 0.30549 0.93360 0.60632
 C925 C 0.27710 0.92241 0.61729
 H926 H 0.26647 0.93315 0.63722
 O927 O 0.65416 1.03059 0.61110
 O928 O 0.69024 1.03076 0.64702
 C929 C 0.67929 1.04120 0.62188
 C930 C 0.69541 1.06650 0.60543
 C931 C 0.72404 1.07750 0.61601
 H932 H 0.73493 1.06667 0.63574
 O933 O 0.38869 0.84611 0.53036
 O934 O 0.35282 0.80999 0.53046
 C935 C 0.37791 0.82100 0.54099
 C936 C 0.39427 0.80500 0.56645
 C937 C 0.38372 0.77637 0.57748
 H938 H 0.36408 0.76539 0.56655
 O939 O 0.61174 1.15415 0.52965
 O940 O 0.64768 1.19021 0.52955
 C941 C 0.62262 1.17926 0.54017
 C942 C 0.60634 1.19541 0.56553
 C943 C 0.61733 1.22376 0.57678
 H944 H 0.63732 1.23437 0.56614
 Cu945 Cu 0.62947 1.00041 0.62864
 Cu946 Cu 0.67267 1.00059 0.67184
 Cu947 Cu 0.37120 0.99995 0.62907
 Cu948 Cu 0.32808 1.00003 0.67238
 Cu949 Cu 0.50013 1.12961 0.62808
 Cu950 Cu 0.50006 1.17288 0.67122
 Cu951 Cu 0.50018 0.87129 0.62943
 Cu952 Cu 0.50036 0.82814 0.67269
 C953 C 0.58064 1.08098 0.68031
 H954 H 0.57263 1.07282 0.65808
 C955 C 0.60238 1.10315 0.73724
 C956 C 0.42005 0.91991 0.68169
 H957 H 0.42826 0.92804 0.65951
 C958 C 0.39770 0.89783 0.73840
 C959 C 0.58056 1.18174 0.57968
 H960 H 0.57236 1.15957 0.57153
 C961 C 0.60281 1.23847 0.60178
 C962 C 0.41956 0.81917 0.58101
 H963 H 0.42766 0.84136 0.57281
 C964 C 0.39764 0.76234 0.60322
 C965 C 0.68136 1.08095 0.58002
 H966 H 0.65916 1.07277 0.57191
 C967 C 0.73816 1.10313 0.60200
 C968 C 0.31918 0.91934 0.58060
 H969 H 0.34138 0.92744 0.57241
 C970 C 0.26237 0.89739 0.60282
 C971 C 0.41977 1.08090 0.68048
 H972 H 0.42785 1.07272 0.65827
 C973 C 0.39783 1.10304 0.73734
 C974 C 0.58109 0.91984 0.68087
 H975 H 0.57290 0.92793 0.65867
 C976 C 0.60326 0.89794 0.73772
 C977 C 0.68146 0.92005 0.58014
 H978 H 0.65929 0.92829 0.57200
 C979 C 0.73814 0.89766 0.60223
 C980 C 0.31875 1.08009 0.58050
 H981 H 0.34092 1.07190 0.57232
 C982 C 0.26205 1.10238 0.60264
 C983 C 0.41940 1.18128 0.57954
 H984 H 0.42759 1.15909 0.57141
 C985 C 0.39721 1.23802 0.60169
 C986 C 0.58039 0.81920 0.58055
 H987 H 0.57220 0.84142 0.57249
 C988 C 0.60268 0.76237 0.60239
 O989 O 0.61106 0.97000 0.34593
 O990 O 0.64698 0.96995 0.30984
 C991 C 0.62194 0.95937 0.32085
 C992 C 0.60569 0.93395 0.30478
 C993 C 0.61673 0.92271 0.27646
 H994 H 0.63667 0.93343 0.26584
 O995 O 0.38849 1.03020 0.34630
 O996 O 0.35253 1.03016 0.31025
 C997 C 0.37755 1.04083 0.32125
 C998 C 0.39373 1.06631 0.30519
 C999 C 0.38273 1.07749 0.27682
 H1000 H 0.36283 1.06673 0.26617
 O1001 O 0.46972 1.15390 0.38847
 O1002 O 0.46957 1.19001 0.35257
 C1003 C 0.45909 1.17902 0.37768
 C1004 C 0.43366 1.19502 0.39403
 C1005 C 0.42266 1.22366 0.38349
 H1006 H 0.43363 1.23467 0.36390
 O1007 O 0.53013 0.84660 0.38828
 O1008 O 0.53021 0.81049 0.35239
 C1009 C 0.54079 0.82153 0.37743
 C1010 C 0.56624 0.80549 0.39371
 C1011 C 0.57749 0.77712 0.38278
 H1012 H 0.56679 0.76645 0.36285
 O1013 O 0.65360 0.88897 0.46981
 O1014 O 0.68970 0.85307 0.46972
 C1015 C 0.67874 0.87819 0.45923
 C1016 C 0.69486 0.89460 0.43388
 C1017 C 0.72348 0.88398 0.42287
 H1018 H 0.73437 0.86428 0.43376
 O1019 O 0.34552 1.11089 0.46983
 O1020 O 0.30933 1.14670 0.46980
 C1021 C 0.32030 1.12157 0.45935
 C1022 C 0.30415 1.10506 0.43410
 C1023 C 0.27552 1.11562 0.42305
 H1024 H 0.26459 1.13533 0.43389
 O1025 O 0.52994 1.11172 0.34610
 O1026 O 0.52985 1.14767 0.31005
 C1027 C 0.54046 1.12260 0.32099
 C1028 C 0.56579 1.10631 0.30480
 C1029 C 0.57697 1.11731 0.27643
 H1030 H 0.56628 1.13729 0.26585
 O1031 O 0.46961 0.88851 0.34606
 O1032 O 0.46961 0.85251 0.31005
 C1033 C 0.45903 0.87759 0.32098
 C1034 C 0.43369 0.89387 0.30481
 C1035 C 0.42247 0.88287 0.27646
 H1036 H 0.43311 0.86286 0.26589
 O1037 O 0.65328 1.03051 0.38791
 O1038 O 0.68929 1.03047 0.35192
 C1039 C 0.67836 1.04109 0.37699
 C1040 C 0.69453 1.06648 0.39323
 C1041 C 0.72297 1.07758 0.38229
 H1042 H 0.73359 1.06684 0.36236
 O1043 O 0.34668 0.96943 0.38831
 O1044 O 0.31062 0.96933 0.35237
 C1045 C 0.32165 0.95873 0.37741
 C1046 C 0.30562 0.93325 0.39366
 C1047 C 0.27726 0.92202 0.38270
 H1048 H 0.26662 0.93273 0.36276
 O1049 O 0.61159 1.15413 0.46946
 O1050 O 0.64752 1.19021 0.46928
 C1051 C 0.62235 1.17928 0.45887
 C1052 C 0.60584 1.19543 0.43362
 C1053 C 0.61639 1.22407 0.42260
 H1054 H 0.63615 1.23495 0.43339
 O1055 O 0.38873 0.84591 0.47011
 O1056 O 0.35285 0.80979 0.47012
 C1057 C 0.37795 0.82074 0.45959
 C1058 C 0.39435 0.80463 0.43423
 C1059 C 0.38371 0.77603 0.42318
 H1060 H 0.36401 0.76513 0.43405
 O1061 O 0.38862 0.96998 0.34566
 O1062 O 0.35269 0.96992 0.30958
 C1063 C 0.37784 0.95949 0.32048
 C1064 C 0.39425 0.93420 0.30432
 C1065 C 0.38363 0.92316 0.27572
 H1066 H 0.36394 0.93405 0.26479
 O1067 O 0.61098 1.03021 0.34560
 O1068 O 0.64684 1.03020 0.30947
 C1069 C 0.62173 1.04070 0.32041
 C1070 C 0.60531 1.06603 0.30429
 C1071 C 0.61589 1.07709 0.27567
 H1072 H 0.63558 1.06622 0.26473
 O1073 O 0.46980 0.84633 0.38838
 O1074 O 0.46983 0.81019 0.35252
 C1075 C 0.45925 0.82118 0.37759
 C1076 C 0.43390 0.80504 0.39394
 C1077 C 0.42264 0.77668 0.38296
 H1078 H 0.43330 0.76607 0.36298
 O1079 O 0.53001 1.15396 0.38830
 O1080 O 0.52990 1.19005 0.35239
 C1081 C 0.54057 1.17905 0.37741
 C1082 C 0.56604 1.19514 0.39360
 C1083 C 0.57721 1.22353 0.38263
 H1084 H 0.56641 1.23421 0.36276
 O1085 O 0.34640 0.88820 0.46995
 O1086 O 0.31033 0.85228 0.46996
 C1087 C 0.32128 0.87736 0.45938
 C1088 C 0.30521 0.89369 0.43395
 C1089 C 0.27660 0.88307 0.42289
 H1090 H 0.26567 0.86338 0.43378
 O1091 O 0.65388 1.11174 0.46945
 O1092 O 0.68999 1.14763 0.46926
 C1093 C 0.67901 1.12250 0.45883
 C1094 C 0.69506 1.10604 0.43348
 C1095 C 0.72374 1.11652 0.42249
 H1096 H 0.73473 1.13616 0.43340
 O1097 O 0.52978 0.88865 0.34575
 O1098 O 0.52984 0.85269 0.30971
 C1099 C 0.54029 0.87786 0.32058
 C1100 C 0.56555 0.89429 0.30441
 C1101 C 0.57666 0.88364 0.27583
 H1102 H 0.56587 0.86388 0.26494
 O1103 O 0.46974 1.11167 0.34606
 O1104 O 0.46959 1.14760 0.30999
 C1105 C 0.45916 1.12245 0.32093
 C1106 C 0.43385 1.10600 0.30482
 C1107 C 0.42281 1.11657 0.27619
 H1108 H 0.43363 1.13629 0.26527
 O1109 O 0.34605 1.02974 0.38834
 O1110 O 0.30996 1.02966 0.35242
 C1111 C 0.32088 1.04021 0.37751
 C1112 C 0.30464 1.06548 0.39386
 C1113 C 0.27625 1.07665 0.38287
 H1114 H 0.26567 1.06596 0.36289
 O1115 O 0.65332 0.97019 0.38815
 O1116 O 0.68937 0.97011 0.35219
 C1117 C 0.67841 0.95957 0.37729
 C1118 C 0.69453 0.93419 0.39362
 C1119 C 0.72291 0.92294 0.38269
 H1120 H 0.73356 0.93363 0.36274
 O1121 O 0.61140 0.84647 0.46988
 O1122 O 0.64734 0.81041 0.46979
 C1123 C 0.62220 0.82132 0.45931
 C1124 C 0.60582 0.80518 0.43397
 C1125 C 0.61645 0.77656 0.42296
 H1126 H 0.63615 0.76567 0.43385
 O1127 O 0.38785 1.15318 0.46938
 O1128 O 0.35182 1.18915 0.46934
 C1129 C 0.37691 1.17823 0.45875
 C1130 C 0.39320 1.19441 0.43339
 C1131 C 0.38225 1.22281 0.42221
 H1132 H 0.36224 1.23339 0.43286
 Cu1133 Cu 0.62857 1.00026 0.37051
 Cu1134 Cu 0.67175 1.00019 0.32725
 Cu1135 Cu 0.37106 0.99983 0.37076
 Cu1136 Cu 0.32782 0.99975 0.32755
 Cu1137 Cu 0.62919 1.12938 0.49954
 Cu1138 Cu 0.67244 1.17258 0.49937
 Cu1139 Cu 0.62893 0.87134 0.49995
 Cu1140 Cu 0.67215 0.82814 0.49988
 Cu1141 Cu 0.37047 1.12859 0.49971
 Cu1142 Cu 0.32714 1.17170 0.49970
 Cu1143 Cu 0.37112 0.87073 0.50015
 Cu1144 Cu 0.32795 0.82750 0.50021
 Cu1145 Cu 0.49984 1.12922 0.37085
 Cu1146 Cu 0.49969 1.17246 0.32764
 Cu1147 Cu 0.49984 0.87112 0.37072
 Cu1148 Cu 0.49988 0.82782 0.32758
 C1149 C 0.57998 0.91972 0.31846
 H1150 H 0.57176 0.92788 0.34063
 C1151 C 0.60236 0.89762 0.26179
 C1152 C 0.41940 1.08061 0.31891
 H1153 H 0.42760 1.07250 0.34110
 C1154 C 0.39715 1.10255 0.26212
 C1155 C 0.41903 1.18080 0.41925
 H1156 H 0.42721 1.15860 0.42734
 C1157 C 0.39686 1.23765 0.39734
 C1158 C 0.58045 0.81923 0.41943
 H1159 H 0.57230 0.84142 0.42759
 C1160 C 0.60253 0.76244 0.39727
 C1161 C 0.68079 0.91997 0.41935
 H1162 H 0.65860 0.92810 0.42751
 C1163 C 0.73759 0.89791 0.39718
 C1164 C 0.31828 1.07971 0.41961
 H1165 H 0.34049 1.07164 0.42779
 C1166 C 0.26150 1.10166 0.39733
 C1167 C 0.57999 1.08054 0.31843
 H1168 H 0.57189 1.07234 0.34063
 C1169 C 0.60195 1.10283 0.26167
 C1170 C 0.41956 0.91966 0.31844
 H1171 H 0.42769 0.92786 0.34063
 C1172 C 0.39749 0.89739 0.26172
 C1173 C 0.68087 1.08075 0.41895
 H1174 H 0.65864 1.07272 0.42711
 C1175 C 0.73778 1.10252 0.39681
 C1176 C 0.31931 0.91904 0.41941
 H1177 H 0.34149 0.92720 0.42761
 C1178 C 0.26254 0.89700 0.39717
 C1179 C 0.58039 1.18138 0.41922
 H1180 H 0.57231 1.15917 0.42740
 C1181 C 0.60231 1.23819 0.39701
 C1182 C 0.41971 0.81872 0.41970
 H1183 H 0.42785 0.84090 0.42790
 C1184 C 0.39761 0.76198 0.39744
 O1185 O 0.61187 0.53064 1.15356
 O1186 O 0.64789 0.53075 1.18954
 C1187 C 0.62277 0.54126 1.17864
 C1188 C 0.60643 0.56655 1.19486
 C1189 C 0.61741 0.57771 1.22326
 H1190 H 0.63742 0.56706 1.23382
 O1191 O 0.38882 0.47020 1.15399
 O1192 O 0.35297 0.47014 1.19014
 C1193 C 0.37812 0.45970 1.17920
 C1194 C 0.39462 0.43443 1.19534
 C1195 C 0.38405 0.42334 1.22395
 H1196 H 0.36432 0.43415 1.23487
 O1197 O 0.53037 0.65367 1.11184
 O1198 O 0.53043 0.68974 1.14777
 C1199 C 0.54099 0.67875 1.12269
 C1200 C 0.56634 0.69488 1.10632
 C1201 C 0.57766 0.72320 1.11731
 H1202 H 0.56711 0.73375 1.13738
 O1203 O 0.47016 0.34639 1.11156
 O1204 O 0.47033 0.31035 1.14751
 C1205 C 0.45963 0.32129 1.12248
 C1206 C 0.43416 0.30514 1.10631
 C1207 C 0.42296 0.27676 1.11732
 H1208 H 0.43373 0.26611 1.13723
 O1209 O 0.65338 0.61207 1.02982
 O1210 O 0.68939 0.64805 1.02967
 C1211 C 0.67848 0.62300 1.04034
 C1212 C 0.69467 0.60676 1.06574
 C1213 C 0.72308 0.61772 1.07691
 H1214 H 0.73369 0.63769 1.06622
 O1215 O 0.34606 0.38815 1.03039
 O1216 O 0.30999 0.35222 1.03060
 C1217 C 0.32094 0.37736 1.04102
 C1218 C 0.30488 0.39380 1.06636
 C1219 C 0.27622 0.38330 1.07740
 H1220 H 0.26524 0.36363 1.06653
 O1221 O 0.46992 0.61164 1.15405
 O1222 O 0.46986 0.64755 1.19013
 C1223 C 0.45933 0.62246 1.17916
 C1224 C 0.43390 0.60612 1.19518
 C1225 C 0.42283 0.61670 1.22379
 H1226 H 0.43370 0.63637 1.23476
 O1227 O 0.53043 0.38888 1.15371
 O1228 O 0.53062 0.35299 1.18981
 C1229 C 0.54103 0.37813 1.17886
 C1230 C 0.56634 0.39461 1.19497
 C1231 C 0.57738 0.38404 1.22360
 H1232 H 0.56654 0.36431 1.23451
 O1233 O 0.65416 0.47035 1.11133
 O1234 O 0.69026 0.47046 1.14723
 C1235 C 0.67930 0.45985 1.12219
 C1236 C 0.69551 0.43453 1.10592
 C1237 C 0.72387 0.42336 1.11697
 H1238 H 0.73442 0.43404 1.13697
 O1239 O 0.34605 0.52981 1.11131
 O1240 O 0.30996 0.52985 1.14723
 C1241 C 0.32086 0.54030 1.12206
 C1242 C 0.30470 0.56559 1.10560
 C1243 C 0.27609 0.57665 1.11621
 H1244 H 0.26518 0.56579 1.13591
 O1245 O 0.38884 0.65357 1.03037
 O1246 O 0.35288 0.68961 1.03036
 C1247 C 0.37794 0.67864 1.04097
 C1248 C 0.39415 0.69477 1.06640
 C1249 C 0.38311 0.72314 1.07755
 H1250 H 0.36318 0.73373 1.06676
 O1251 O 0.61235 0.34718 1.03014
 O1252 O 0.64836 0.31119 1.03022
 C1253 C 0.62327 0.32213 1.04079
 C1254 C 0.60696 0.30600 1.06619
 C1255 C 0.61787 0.27758 1.07737
 H1256 H 0.63783 0.26696 1.06669
 O1257 O 0.38837 0.53045 1.15355
 O1258 O 0.35244 0.53045 1.18962
 C1259 C 0.37745 0.54110 1.17860
 C1260 C 0.39364 0.56657 1.19468
 C1261 C 0.38263 0.57776 1.22304
 H1262 H 0.36268 0.56704 1.23364
 O1263 O 0.61179 0.47033 1.15344
 O1264 O 0.64777 0.47041 1.18946
 C1265 C 0.62270 0.45976 1.17852
 C1266 C 0.60648 0.43432 1.19463
 C1267 C 0.61745 0.42312 1.22302
 H1268 H 0.63736 0.43387 1.23367
 O1269 O 0.53048 0.34665 1.11123
 O1270 O 0.53069 0.31059 1.14717
 C1271 C 0.54114 0.32155 1.12203
 C1272 C 0.56657 0.30552 1.10565
 C1273 C 0.57755 0.27686 1.11619
 H1274 H 0.56659 0.26589 1.13581
 O1275 O 0.47014 0.65401 1.11182
 O1276 O 0.47008 0.69013 1.14770
 C1277 C 0.45960 0.67919 1.12257
 C1278 C 0.43428 0.69528 1.10610
 C1279 C 0.42316 0.72389 1.11664
 H1280 H 0.43394 0.73485 1.13637
 O1281 O 0.34648 0.61139 1.03017
 O1282 O 0.31041 0.64732 1.03016
 C1283 C 0.32135 0.62222 1.04072
 C1284 C 0.30516 0.60588 1.06605
 C1285 C 0.27679 0.61686 1.07727
 H1286 H 0.26620 0.63685 1.06659
 O1287 O 0.65481 0.38928 1.02983
 O1288 O 0.69099 0.35345 1.02990
 C1289 C 0.68001 0.37856 1.04036
 C1290 C 0.69609 0.39501 1.06567
 C1291 C 0.72469 0.38444 1.07676
 H1292 H 0.73565 0.36475 1.06593
 O1293 O 0.47017 0.38883 1.15359
 O1294 O 0.47032 0.35292 1.18968
 C1295 C 0.45965 0.37796 1.17872
 C1296 C 0.43426 0.39422 1.19488
 C1297 C 0.42306 0.38321 1.22324
 H1298 H 0.43378 0.36325 1.23383
 O1299 O 0.53012 0.61157 1.15426
 O1300 O 0.53015 0.64745 1.19038
 C1301 C 0.54066 0.62234 1.17942
 C1302 C 0.56603 0.60596 1.19548
 C1303 C 0.57707 0.61651 1.22411
 H1304 H 0.56614 0.63614 1.23510
 O1305 O 0.34649 0.46955 1.11176
 O1306 O 0.31048 0.46954 1.14775
 C1307 C 0.32146 0.45890 1.12272
 C1308 C 0.30537 0.43343 1.10655
 C1309 C 0.27696 0.42231 1.11752
 H1310 H 0.26633 0.43309 1.13743
 O1311 O 0.65394 0.53056 1.11101
 O1312 O 0.69011 0.53069 1.14685
 C1313 C 0.67910 0.54114 1.12174
 C1314 C 0.69516 0.56648 1.10529
 C1315 C 0.72379 0.57749 1.11583
 H1316 H 0.73474 0.56659 1.13549
 O1317 O 0.38859 0.34602 1.03038
 O1318 O 0.35271 0.30990 1.03060
 C1319 C 0.37786 0.32088 1.04099
 C1320 C 0.39438 0.30479 1.06626
 C1321 C 0.38383 0.27617 1.07730
 H1322 H 0.36408 0.26527 1.06650
 O1323 O 0.61102 0.65423 1.02976
 O1324 O 0.64687 0.69038 1.02959
 C1325 C 0.62183 0.67939 1.04025
 C1326 C 0.60560 0.69543 1.06576
 C1327 C 0.61631 0.72400 1.07683
 H1328 H 0.63593 0.73495 1.06585
 Cu1329 Cu 0.62932 0.50048 1.12875
 Cu1330 Cu 0.67261 0.50061 1.17190
 Cu1331 Cu 0.37103 0.50000 1.12905
 Cu1332 Cu 0.32785 0.49999 1.17230
 Cu1333 Cu 0.50012 0.62912 1.12940
 Cu1334 Cu 0.50012 0.67234 1.17261
 Cu1335 Cu 0.50032 0.37127 1.12891
 Cu1336 Cu 0.50053 0.32809 1.17215
 C1337 C 0.58062 0.58070 1.18127
 H1338 H 0.57243 0.57262 1.15907
 C1339 C 0.60286 0.60263 1.23808
 C1340 C 0.42001 0.41996 1.18123
 H1341 H 0.42811 0.42818 1.15904
 C1342 C 0.39802 0.39763 1.23797
 C1343 C 0.58035 0.68129 1.08042
 H1344 H 0.57216 0.65913 1.07221
 C1345 C 0.60258 0.73796 1.10271
 C1346 C 0.41982 0.31886 1.08065
 H1347 H 0.42790 0.34106 1.07244
 C1348 C 0.39787 0.26207 1.10293
 C1349 C 0.68101 0.58101 1.07997
 H1350 H 0.65880 0.57282 1.07190
 C1351 C 0.73784 0.60320 1.10189
 C1352 C 0.31904 0.41914 1.08085
 H1353 H 0.34125 0.42720 1.07266
 C1354 C 0.26218 0.39733 1.10307
 C1355 C 0.41939 0.58078 1.18103
 H1356 H 0.42762 0.57266 1.15886
 C1357 C 0.39709 0.60276 1.23779
 C1358 C 0.58080 0.42002 1.18091
 H1359 H 0.57261 0.42811 1.15871
 C1360 C 0.60302 0.39805 1.23771
 C1361 C 0.68192 0.42033 1.08014
 H1362 H 0.65973 0.42842 1.07191
 C1363 C 0.73865 0.39837 1.10252
 C1364 C 0.31881 0.58011 1.08024
 H1365 H 0.34100 0.57192 1.07213
 C1366 C 0.26205 0.60239 1.10228
 C1367 C 0.41985 0.68114 1.08070
 H1368 H 0.42809 0.65895 1.07262
 C1369 C 0.39746 0.73790 1.10260
 C1370 C 0.58118 0.31968 1.08038
 H1371 H 0.57303 0.34190 1.07230
 C1372 C 0.60328 0.26280 1.10230
 O1373 O 0.61075 0.46972 0.84592
 O1374 O 0.64654 0.46969 0.80971
 C1375 C 0.62150 0.45912 0.82078
 C1376 C 0.60516 0.43365 0.80483
 C1377 C 0.61570 0.42266 0.77619
 H1378 H 0.63528 0.43365 0.76519
 O1379 O 0.38801 0.52968 0.84639
 O1380 O 0.35202 0.52960 0.81038
 C1381 C 0.37709 0.54023 0.82129
 C1382 C 0.39335 0.56562 0.80510
 C1383 C 0.38237 0.57681 0.77671
 H1384 H 0.36239 0.56614 0.76611
 O1385 O 0.46952 0.65328 0.88802
 O1386 O 0.46929 0.68927 0.85201
 C1387 C 0.45886 0.67835 0.87716
 C1388 C 0.43360 0.69453 0.89358
 C1389 C 0.42239 0.72292 0.88265
 H1390 H 0.43297 0.73348 0.86260
 O1391 O 0.53015 0.34575 0.88940
 O1392 O 0.53018 0.30956 0.85359
 C1393 C 0.54075 0.32062 0.87863
 C1394 C 0.56626 0.30467 0.89490
 C1395 C 0.57725 0.27606 0.88430
 H1396 H 0.56619 0.26505 0.86475
 O1397 O 0.65442 0.38932 0.96966
 O1398 O 0.69061 0.35351 0.96967
 C1399 C 0.67956 0.37856 0.95910
 C1400 C 0.69555 0.39487 0.93364
 C1401 C 0.72416 0.38428 0.92264
 H1402 H 0.73513 0.36468 0.93363
 O1403 O 0.34670 0.61144 0.96986
 O1404 O 0.31066 0.64740 0.96983
 C1405 C 0.32162 0.62232 0.95925
 C1406 C 0.30545 0.60602 0.93388
 C1407 C 0.27709 0.61704 0.92266
 H1408 H 0.26654 0.63706 0.93330
 O1409 O 0.52981 0.61121 0.84564
 O1410 O 0.52965 0.64712 0.80954
 C1411 C 0.54030 0.62209 0.82050
 C1412 C 0.56566 0.60585 0.80433
 C1413 C 0.57688 0.61689 0.77599
 H1414 H 0.56621 0.63689 0.76542
 O1415 O 0.46962 0.38775 0.84721
 O1416 O 0.46961 0.35173 0.81123
 C1417 C 0.45899 0.37681 0.82216
 C1418 C 0.43356 0.39306 0.80602
 C1419 C 0.42244 0.38212 0.77758
 H1420 H 0.43321 0.36220 0.76696
 O1421 O 0.65287 0.53032 0.88787
 O1422 O 0.68885 0.53038 0.85186
 C1423 C 0.67788 0.54100 0.87693
 C1424 C 0.69395 0.56649 0.89319
 C1425 C 0.72237 0.57767 0.88229
 H1426 H 0.73304 0.56694 0.86237
 O1427 O 0.34583 0.46942 0.88880
 O1428 O 0.30970 0.46928 0.85293
 C1429 C 0.32067 0.45884 0.87806
 C1430 C 0.30455 0.43355 0.89452
 C1431 C 0.27592 0.42253 0.88397
 H1432 H 0.26500 0.43336 0.86426
 O1433 O 0.61088 0.65411 0.96952
 O1434 O 0.64676 0.69023 0.96929
 C1435 C 0.62163 0.67924 0.95888
 C1436 C 0.60519 0.69528 0.93352
 C1437 C 0.61571 0.72392 0.92251
 H1438 H 0.63537 0.73488 0.93342
 O1439 O 0.38826 0.34577 0.97018
 O1440 O 0.35236 0.30966 0.97033
 C1441 C 0.37741 0.32063 0.95969
 C1442 C 0.39372 0.30444 0.93437
 C1443 C 0.38273 0.27609 0.92310
 H1444 H 0.36270 0.26551 0.93370
 O1445 O 0.38832 0.46938 0.84664
 O1446 O 0.35239 0.46922 0.81057
 C1447 C 0.37753 0.45874 0.82153
 C1448 C 0.39395 0.43333 0.80550
 C1449 C 0.38347 0.42230 0.77683
 H1450 H 0.36382 0.43320 0.76584
 O1451 O 0.61094 0.52989 0.84522
 O1452 O 0.64677 0.52991 0.80905
 C1453 C 0.62166 0.54037 0.82000
 C1454 C 0.60521 0.56563 0.80386
 C1455 C 0.61583 0.57671 0.77528
 H1456 H 0.63556 0.56589 0.76437
 O1457 O 0.46994 0.34529 0.88933
 O1458 O 0.46995 0.30912 0.85349
 C1459 C 0.45945 0.32009 0.87859
 C1460 C 0.43411 0.30398 0.89496
 C1461 C 0.42308 0.27538 0.88432
 H1462 H 0.43400 0.26447 0.86464
 O1463 O 0.52979 0.65344 0.88788
 O1464 O 0.52961 0.68948 0.85192
 C1465 C 0.54028 0.67857 0.87698
 C1466 C 0.56565 0.69478 0.89324
 C1467 C 0.57681 0.72319 0.88227
 H1468 H 0.56611 0.73379 0.86230
 O1469 O 0.34616 0.38810 0.97014
 O1470 O 0.31011 0.35214 0.97028
 C1471 C 0.32106 0.37718 0.95961
 C1472 C 0.30493 0.39340 0.93419
 C1473 C 0.27655 0.38242 0.92302
 H1474 H 0.26590 0.36250 0.93376
 O1475 O 0.65316 0.61173 0.96952
 O1476 O 0.68922 0.64766 0.96930
 C1477 C 0.67827 0.62251 0.95886
 C1478 C 0.69433 0.60608 0.93347
 C1479 C 0.72299 0.61663 0.92249
 H1480 H 0.73393 0.63629 0.93340
 O1481 O 0.52996 0.38771 0.84680
 O1482 O 0.53000 0.35167 0.81084
 C1483 C 0.54053 0.37681 0.82170
 C1484 C 0.56581 0.39317 0.80545
 C1485 C 0.57700 0.38222 0.77704
 H1486 H 0.56639 0.36219 0.76647
 O1487 O 0.46960 0.61088 0.84580
 O1488 O 0.46940 0.64673 0.80965
 C1489 C 0.45898 0.62160 0.82065
 C1490 C 0.43364 0.60515 0.80461
 C1491 C 0.42262 0.61570 0.77598
 H1492 H 0.43352 0.63537 0.76504
 O1493 O 0.34599 0.52962 0.88889
 O1494 O 0.30982 0.52957 0.85305
 C1495 C 0.32084 0.54016 0.87811
 C1496 C 0.30483 0.56562 0.89445
 C1497 C 0.27625 0.57671 0.88385
 H1498 H 0.26527 0.56580 0.86421
 O1499 O 0.65356 0.46998 0.88767
 O1500 O 0.68951 0.46997 0.85163
 C1501 C 0.67867 0.45944 0.87677
 C1502 C 0.69495 0.43418 0.89314
 C1503 C 0.72334 0.42295 0.88217
 H1504 H 0.73389 0.43352 0.86211
 O1505 O 0.61244 0.34673 0.96984
 O1506 O 0.64846 0.31076 0.96983
 C1507 C 0.62332 0.32161 0.95930
 C1508 C 0.60691 0.30534 0.93407
 C1509 C 0.61785 0.27694 0.92282
 H1510 H 0.63795 0.26641 0.93334
 O1511 O 0.38885 0.65390 0.97009
 O1512 O 0.35294 0.68999 0.97008
 C1513 C 0.37804 0.67905 0.95955
 C1514 C 0.39435 0.69513 0.93413
 C1515 C 0.38374 0.72376 0.92312
 H1516 H 0.36415 0.73474 0.93412
 Cu1517 Cu 0.62846 0.49998 0.87029
 Cu1518 Cu 0.67155 0.49998 0.82696
 Cu1519 Cu 0.37064 0.49951 0.87126
 Cu1520 Cu 0.32738 0.49939 0.82811
 Cu1521 Cu 0.62852 0.62943 0.99966
 Cu1522 Cu 0.67168 0.67269 0.99942
 Cu1523 Cu 0.62989 0.37171 0.99987
 Cu1524 Cu 0.67322 0.32860 0.99990
 Cu1525 Cu 0.37132 0.62897 1.00011
 Cu1526 Cu 0.32811 0.67219 1.00010
 Cu1527 Cu 0.37086 0.37062 1.00029
 Cu1528 Cu 0.32767 0.32736 1.00050
 Cu1529 Cu 0.49969 0.62861 0.87045
 Cu1530 Cu 0.49944 0.67177 0.82716
 Cu1531 Cu 0.49991 0.37024 0.87177
 Cu1532 Cu 0.49994 0.32692 0.82867
 C1533 C 0.57994 0.41901 0.81905
 H1534 H 0.57187 0.42719 0.84126
 C1535 C 0.60187 0.39686 0.76221
 C1536 C 0.41911 0.57983 0.81876
 H1537 H 0.42731 0.57175 0.84096
 C1538 C 0.39689 0.60179 0.76195
 C1539 C 0.41956 0.68093 0.91945
 H1540 H 0.42767 0.65873 0.92761
 C1541 C 0.39752 0.73774 0.89728
 C1542 C 0.58099 0.31890 0.92006
 H1543 H 0.57281 0.34110 0.92816
 C1544 C 0.60313 0.26210 0.89800
 C1545 C 0.68136 0.42010 0.91900
 H1546 H 0.65916 0.42820 0.92720
 C1547 C 0.73814 0.39806 0.89682
 C1548 C 0.31902 0.58019 0.91974
 H1549 H 0.34120 0.57195 0.92787
 C1550 C 0.26229 0.60252 0.89771
 C1551 C 0.57985 0.58009 0.81796
 H1552 H 0.57172 0.57186 0.84014
 C1553 C 0.60191 0.60246 0.76127
 C1554 C 0.41927 0.41879 0.81968
 H1555 H 0.42732 0.42696 0.84190
 C1556 C 0.39748 0.39661 0.76278
 C1557 C 0.68022 0.58074 0.91891
 H1558 H 0.65801 0.57265 0.92706
 C1559 C 0.73710 0.60267 0.89681
 C1560 C 0.31865 0.41909 0.91990
 H1561 H 0.34085 0.42727 0.92799
 C1562 C 0.26184 0.39687 0.89798
 C1563 C 0.57988 0.68112 0.91899
 H1564 H 0.57182 0.65891 0.92718
 C1565 C 0.60177 0.73796 0.89680
 C1566 C 0.41954 0.31808 0.92026
 H1567 H 0.42774 0.34026 0.92841
 C1568 C 0.39729 0.26137 0.89813
 N1569 N 1.12054 1.15685 1.30114
 C1570 C 1.13840 1.13914 1.31990
 N1571 N 1.14388 1.10940 1.31152
 N1572 N 1.13228 1.09799 1.28541
 C1573 C 1.11450 1.11576 1.26668
 N1574 N 1.10876 1.14539 1.27516
 N1575 N 1.10961 0.64409 0.81198
 C1576 C 1.13940 0.63856 0.82018
 N1577 N 1.15699 0.62076 0.80127
 N1578 N 1.14537 0.60908 0.77532
 C1579 C 1.11570 0.61487 0.76702
 N1580 N 1.09804 0.63260 0.78590
 N1581 N 0.64394 1.10945 0.81154
 C1582 C 0.63824 1.13915 0.81993
 N1583 N 0.62024 1.15672 0.80119
 N1584 N 0.60855 1.14517 0.77520
 C1585 C 0.61452 1.11559 0.76670
 N1586 N 0.63243 1.09794 0.78544
 N1587 N 0.60935 0.64427 1.31231
 C1588 C 0.63916 0.63880 1.32047
 N1589 N 0.65674 0.62096 1.30157
 N1590 N 0.64509 0.60918 1.27568
 C1591 C 0.61539 0.61490 1.26743
 N1592 N 0.59775 0.63267 1.28629
 N1593 N 0.85589 0.89086 1.31244
 C1594 C 0.86123 0.86100 1.32051
 N1595 N 0.87905 0.84342 1.30161
 N1596 N 0.89094 0.85511 1.27579
 C1597 C 0.88535 0.88486 1.26762
 N1598 N 0.86759 0.90251 1.28649
 N1599 N 0.85657 0.39068 0.81257
 C1600 C 0.86179 0.36077 0.82051
 N1601 N 0.87951 0.34319 0.80152
 N1602 N 0.89140 0.35493 0.77572
 C1603 C 0.88590 0.38473 0.76767
 N1604 N 0.86826 0.40238 0.78664
 N1605 N 0.39082 0.85590 0.81243
 C1606 C 0.36099 0.86141 0.82050
 N1607 N 0.34354 0.87937 0.80161
 N1608 N 0.35532 0.89122 0.77582
 C1609 C 0.38503 0.88546 0.76765
 N1610 N 0.40256 0.86757 0.78650
 N1611 N 0.35603 0.39081 1.31198
 C1612 C 0.36164 0.36103 1.32014
 N1613 N 0.37970 0.34358 1.30135
 N1614 N 0.39155 0.35533 1.27553
 C1615 C 0.38569 0.38500 1.26726
 N1616 N 0.36770 0.40251 1.28603
 N1617 N 0.89074 1.14391 0.68810
 C1618 C 0.86097 1.13851 0.67977
 N1619 N 0.84330 1.12054 0.69846
 N1620 N 0.85482 1.10858 0.72433
 C1621 C 0.88448 1.11423 0.73276
 N1622 N 0.90222 1.13213 0.71409
 N1623 N 0.84320 0.62054 0.19847
 C1624 C 0.86081 0.63847 0.17969
 N1625 N 0.89057 0.64399 0.18799
 N1626 N 0.90209 0.63238 0.21404
 C1627 C 0.88441 0.61455 0.23281
 N1628 N 0.85477 0.60875 0.22440
 N1629 N 0.39067 1.14402 0.18783
 C1630 C 0.36083 1.13861 0.17972
 N1631 N 0.34323 1.12086 0.19867
 N1632 N 0.35489 1.10912 0.22457
 C1633 C 0.38461 1.11478 0.23278
 N1634 N 0.40228 1.13246 0.21386
 N1635 N 0.39062 0.64383 0.68793
 C1636 C 0.36085 0.63840 0.67964
 N1637 N 0.34322 0.62040 0.69834
 N1638 N 0.35479 0.60846 0.72420
 C1639 C 0.38445 0.61415 0.73260
 N1640 N 0.40214 0.63206 0.71391
 N1641 N 1.14423 0.89056 0.68785
 C1642 C 1.13868 0.86079 0.67961
 N1643 N 1.12072 0.84323 0.69840
 N1644 N 1.10889 0.85487 0.72428
 C1645 C 1.11468 0.88453 0.73262
 N1646 N 1.13258 0.90215 0.71386
 N1647 N 1.12016 0.34342 0.19846
 C1648 C 1.13830 0.36094 0.17980
 N1649 N 1.14396 0.39065 0.18818
 N1650 N 1.13228 0.40220 0.21419
 C1651 C 1.11422 0.38461 0.23283
 N1652 N 1.10830 0.35502 0.22434
 N1653 N 0.65665 0.87922 0.19871
 C1654 C 0.63919 0.86140 0.17969
 N1655 N 0.60933 0.85593 0.18765
 N1656 N 0.59754 0.86751 0.21359
 C1657 C 0.61507 0.88528 0.23257
 N1658 N 0.64482 0.89099 0.22451
 N1659 N 0.64384 0.39078 0.68814
 C1660 C 0.63848 0.36100 0.67982
 N1661 N 0.62056 0.34330 0.69853
 N1662 N 0.60861 0.35481 0.72441
 C1663 C 0.61422 0.38447 0.73283
 N1664 N 0.63206 0.40224 0.71414
 N1665 N 1.31194 1.10931 1.14422
 C1666 C 1.32020 1.13906 1.13852
 N1667 N 1.30144 1.15651 1.12044
 N1668 N 1.27557 1.14481 1.10865
 C1669 C 1.26720 1.11519 1.11460
 N1670 N 1.28595 1.09766 1.13262
 N1671 N 1.30154 0.65657 0.62043
 C1672 C 1.32041 0.63899 0.63829
 N1673 N 1.31233 0.60914 0.64361
 N1674 N 1.28639 0.59749 0.63188
 C1675 C 1.26754 0.61514 0.61411
 N1676 N 1.27572 0.64488 0.60852
 N1677 N 0.80167 1.15689 0.62062
 C1678 C 0.82050 1.13923 0.63845
 N1679 N 0.81230 1.10941 0.64377
 N1680 N 0.78631 1.09787 0.63207
 C1681 C 0.76750 1.11560 0.61432
 N1682 N 0.77580 1.14531 0.60873
 N1683 N 0.80153 0.65680 1.12042
 C1684 C 0.82023 0.63916 1.13840
 N1685 N 0.81190 0.60940 1.14386
 N1686 N 0.78590 0.59791 1.13212
 C1687 C 0.76721 0.61562 1.11422
 N1688 N 0.77564 0.64526 1.10851
 N1689 N 1.30127 0.84320 0.87936
 C1690 C 1.32011 0.86078 0.86147
 N1691 N 1.31185 0.89054 0.85588
 N1692 N 1.28577 0.90209 0.86740
 C1693 C 1.26696 0.88445 0.88522
 N1694 N 1.27532 0.85481 0.89107
 N1695 N 1.31226 0.35600 0.39053
 C1696 C 1.32038 0.36143 0.36071
 N1697 N 1.30146 0.37922 0.34312
 N1698 N 1.27556 0.39097 0.35477
 C1699 C 1.26733 0.38528 0.38448
 N1700 N 1.28624 0.36757 0.40214
 N1701 N 0.80125 0.87954 0.34350
 C1702 C 0.81995 0.86148 0.36105
 N1703 N 0.81161 0.85588 0.39079
 N1704 N 0.78560 0.86755 0.40233
 C1705 C 0.76693 0.88555 0.38471
 N1706 N 0.77536 0.89139 0.35509
 N1707 N 0.81210 0.35589 0.89065
 C1708 C 0.82042 0.36128 0.86088
 N1709 N 0.80175 0.37927 0.84322
 N1710 N 0.77590 0.39127 0.85474
 C1711 C 0.76748 0.38563 0.88440
 N1712 N 0.78613 0.36771 0.90213
 N1713 N 0.68836 0.89068 1.14453
 C1714 C 0.68012 0.86094 1.13880
 N1715 N 0.69903 0.84344 1.12090
 N1716 N 0.72500 0.85512 1.10932
 C1717 C 0.73333 0.88475 1.11530
 N1718 N 0.71445 0.90231 1.13313
 N1719 N 0.69855 0.37969 0.65695
 C1720 C 0.67981 0.36176 0.63930
 N1721 N 0.68817 0.35625 0.60955
 N1722 N 0.71424 0.36788 0.59809
 C1723 C 0.73297 0.38572 0.61581
 N1724 N 0.72450 0.39150 0.64543
 N1725 N 0.18815 0.85574 0.60922
 C1726 C 0.17991 0.86128 0.63900
 N1727 N 0.19874 0.87917 0.65658
 N1728 N 0.22467 0.89092 0.64497
 C1729 C 0.23301 0.88513 0.61531
 N1730 N 0.21420 0.86732 0.59766
 N1731 N 0.18776 0.35606 1.10940
 C1732 C 0.17958 0.36150 1.13921
 N1733 N 0.19851 0.37924 1.15684
 N1734 N 0.22447 0.39092 1.14524
 C1735 C 0.23276 0.38519 1.11555
 N1736 N 0.21384 0.36754 1.09785
 N1737 N 0.69823 1.12060 0.84320
 C1738 C 0.67924 1.13834 0.86076
 N1739 N 0.68718 1.14358 0.89067
 N1740 N 0.71310 1.13187 0.90239
 C1741 C 0.73207 1.11422 0.88475
 N1742 N 0.72402 1.10871 0.85496
 N1743 N 0.69862 0.65661 0.37966
 C1744 C 0.67975 0.63916 0.36169
 N1745 N 0.68786 0.60935 0.35612
 N1746 N 0.71381 0.59763 0.36774
 C1747 C 0.73266 0.61516 0.38565
 N1748 N 0.72445 0.64485 0.39147
 N1749 N 0.18748 1.14361 0.39061
 C1750 C 0.17940 1.13820 0.36076
 N1751 N 0.19823 1.12025 0.34325
 N1752 N 0.22402 1.10833 0.35499
 C1753 C 0.23222 1.11400 0.38472
 N1754 N 0.21339 1.13187 0.40230
 N1755 N 0.18820 0.60917 0.85583
 C1756 C 0.18000 0.63894 0.86142
 N1757 N 0.19881 0.65645 0.87941
 N1758 N 0.22467 0.64476 0.89122
 C1759 C 0.23298 0.61510 0.88539
 N1760 N 0.21419 0.59752 0.86747
 N1761 N 1.15655 1.30158 1.12063
 C1762 C 1.13891 1.32041 1.13848
 N1763 N 1.10905 1.31231 1.14370
 N1764 N 1.09745 1.28640 1.13186
 C1765 C 1.11515 1.26760 1.11407
 N1766 N 1.14490 1.27580 1.10860
 N1767 N 1.15666 0.80135 0.62044
 C1768 C 1.13914 0.82021 0.63837
 N1769 N 1.10933 0.81208 0.64386
 N1770 N 1.09767 0.78610 0.63222
 C1771 C 1.11525 0.76727 0.61437
 N1772 N 1.14495 0.77550 0.60861
 N1773 N 0.60927 1.31250 0.64372
 C1774 C 0.63912 1.32062 0.63843
 N1775 N 0.65674 1.30178 0.62057
 N1776 N 0.64508 1.27597 0.60862
 C1777 C 0.61534 1.26775 0.61417
 N1778 N 0.59766 1.28657 0.63195
 N1779 N 0.62102 0.80138 1.15662
 C1780 C 0.63897 0.82021 1.13910
 N1781 N 0.64455 0.81202 1.10932
 N1782 N 0.63290 0.78603 1.09769
 C1783 C 0.61499 0.76723 1.11527
 N1784 N 0.60921 0.77552 1.14494
 N1785 N 0.89067 1.31152 0.85582
 C1786 C 0.86097 1.31993 0.86150
 N1787 N 0.84337 1.30119 0.87948
 N1788 N 0.85490 1.27520 0.89117
 C1789 C 0.88449 1.26668 0.88523
 N1790 N 0.90215 1.28541 0.86734
 N1791 N 0.89043 0.81210 0.35602
 C1792 C 0.86066 0.82031 0.36162
 N1793 N 0.84313 0.80145 0.37954
 N1794 N 0.85480 0.77553 0.39125
 C1795 C 0.88446 0.76722 0.38539
 N1796 N 0.90205 0.78606 0.36755
 N1797 N 0.39069 1.31192 0.35573
 C1798 C 0.36090 1.32018 0.36116
 N1799 N 0.34323 1.30133 0.37895
 N1800 N 0.35477 1.27539 0.39074
 C1801 C 0.38444 1.26704 0.38507
 N1802 N 0.40218 1.28585 0.36734
 N1803 N 0.37918 0.80128 0.84346
 C1804 C 0.36131 0.82014 0.86104
 N1805 N 0.35579 0.81192 0.89082
 N1806 N 0.36738 0.78590 0.90241
 C1807 C 0.38520 0.76707 0.88477
 N1808 N 0.39096 0.77538 0.85510
 N1809 N 1.12093 0.69846 0.84341
 C1810 C 1.13882 0.67959 0.86095
 N1811 N 1.14426 0.68770 0.89078
 N1812 N 1.13258 0.71366 0.90244
 C1813 C 1.11474 0.73249 0.88483
 N1814 N 1.10906 0.72428 0.85512
 N1815 N 1.10921 0.18786 0.35588
 C1816 C 1.13900 0.17959 0.36127
 N1817 N 1.15666 0.19836 0.37916
 N1818 N 1.14510 0.22423 0.39107
 C1819 C 1.11542 0.23259 0.38544
 N1820 N 1.09770 0.21385 0.36761
 N1821 N 0.64432 0.68828 0.39085
 C1822 C 0.63872 0.68000 0.36109
 N1823 N 0.62078 0.69880 0.34353
 N1824 N 0.60901 0.72472 0.35514
 C1825 C 0.61484 0.73310 0.38478
 N1826 N 0.63273 0.71433 0.40241
 N1827 N 0.60917 0.18810 0.85587
 C1828 C 0.63894 0.17976 0.86123
 N1829 N 0.65665 0.19844 0.87917
 N1830 N 0.64516 0.22431 0.89116
 C1831 C 0.61550 0.23275 0.88557
 N1832 N 0.59773 0.21410 0.86768
 N1833 N 0.85625 0.68773 1.10917
 C1834 C 0.86157 0.67961 1.13901
 N1835 N 0.87941 0.69847 1.15663
 N1836 N 0.89132 0.72430 1.14497
 C1837 C 0.88573 0.73253 1.11525
 N1838 N 0.86797 0.71369 1.09756
 N1839 N 0.87982 0.19849 0.65673
 C1840 C 0.86177 0.17978 0.63916
 N1841 N 0.85620 0.18812 0.60942
 N1842 N 0.86787 0.21413 0.59788
 C1843 C 0.88583 0.23282 0.61552
 N1844 N 0.89167 0.22438 0.64514
 N1845 N 0.37939 0.69852 0.65679
 C1846 C 0.36148 0.67976 0.63914
 N1847 N 0.35597 0.68810 0.60939
 N1848 N 0.36758 0.71417 0.59792
 C1849 C 0.38540 0.73292 0.61564
 N1850 N 0.39117 0.72448 0.64527
 N1851 N 0.35590 0.18803 1.10934
 C1852 C 0.36138 0.17978 1.13911
 N1853 N 0.37935 0.19854 1.15670
 N1854 N 0.39125 0.22440 1.14508
 C1855 C 0.38553 0.23274 1.11542
 N1856 N 0.36761 0.21401 1.09777
 N1857 N 1.15649 1.12058 0.69871
 C1858 C 1.13904 1.13858 0.67986
 N1859 N 1.10925 1.14417 0.68799
 N1860 N 1.09753 1.13251 0.71393
 C1861 C 1.11504 1.11455 0.73274
 N1862 N 1.14473 1.10874 0.72452
 N1863 N 1.15658 0.62059 0.19874
 C1864 C 1.13910 0.63848 0.17981
 N1865 N 1.10930 0.64408 0.18794
 N1866 N 1.09761 0.63257 0.21396
 C1867 C 1.11516 0.61476 0.23286
 N1868 N 1.14484 0.60890 0.22464
 N1869 N 0.62044 1.15690 0.19838
 C1870 C 0.63829 1.13935 0.17948
 N1871 N 0.64367 1.10950 0.18753
 N1872 N 0.63201 1.09782 0.21349
 C1873 C 0.61425 1.11543 0.23238
 N1874 N 0.60859 1.14517 0.22421
 N1875 N 0.62070 0.65666 0.69823
 C1876 C 0.63853 0.63914 0.67929
 N1877 N 0.64383 0.60925 0.68726
 N1878 N 0.63208 0.59751 0.71315
 C1879 C 0.61432 0.61511 0.73206
 N1880 N 0.60876 0.64489 0.72399
 N1881 N 0.89062 0.85575 0.68808
 C1882 C 0.86084 0.86129 0.67987
 N1883 N 0.84325 0.87910 0.69877
 N1884 N 0.85487 0.89078 0.72472
 C1885 C 0.88454 0.88499 0.73303
 N1886 N 0.90220 0.86725 0.71415
 N1887 N 0.85595 0.39075 0.18851
 C1888 C 0.86165 0.36105 0.18010
 N1889 N 0.87965 0.34348 0.19883
 N1890 N 0.89134 0.35502 0.22482
 C1891 C 0.88537 0.38460 0.23334
 N1892 N 0.86746 0.40225 0.21461
 N1893 N 0.37890 0.84335 0.19848
 C1894 C 0.36109 0.86090 0.17954
 N1895 N 0.35571 0.89076 0.18760
 N1896 N 0.36737 0.90243 0.21356
 C1897 C 0.38512 0.88480 0.23245
 N1898 N 0.39074 0.85506 0.22431
 N1899 N 0.37970 0.34308 0.69878
 C1900 C 0.36168 0.36065 0.68005
 N1901 N 0.35593 0.39033 0.68847
 N1902 N 0.36742 0.40182 0.71459
 C1903 C 0.38534 0.38419 0.73331
 N1904 N 0.39136 0.35463 0.72478
 N1905 N 1.14433 0.89079 1.31228
 C1906 C 1.13875 0.86097 1.32034
 N1907 N 1.12079 0.84355 1.30143
 N1908 N 1.10898 0.85536 1.27563
 C1909 C 1.11478 0.88506 1.26748
 N1910 N 1.13269 0.90256 1.28635
 N1911 N 1.10921 0.35590 0.81212
 C1912 C 1.13899 0.36131 0.82040
 N1913 N 1.15661 0.37931 0.80171
 N1914 N 1.14504 0.39130 0.77588
 C1915 C 1.11537 0.38564 0.76749
 N1916 N 1.09768 0.36771 0.78617
 N1917 N 0.60933 0.85618 0.81190
 C1918 C 0.63909 0.86161 0.82025
 N1919 N 0.65678 0.87951 0.80152
 N1920 N 0.64528 0.89137 0.77559
 C1921 C 0.61564 0.88567 0.76713
 N1922 N 0.59788 0.86785 0.78585
 N1923 N 0.60946 0.35616 1.31181
 C1924 C 0.63920 0.36176 1.32012
 N1925 N 0.65675 0.37979 1.30139
 N1926 N 0.64514 0.39161 1.27549
 C1927 C 0.61552 0.38576 1.26708
 N1928 N 0.59789 0.36781 1.28579
 N1929 N 0.85618 1.10950 1.31200
 C1930 C 0.86166 1.13926 1.32031
 N1931 N 0.87962 1.15689 1.30158
 N1932 N 0.89148 1.14534 1.27567
 C1933 C 0.88574 1.11569 1.26726
 N1934 N 0.86787 1.09799 1.28598
 N1935 N 0.85593 0.60933 0.81249
 C1936 C 0.86123 0.63917 0.82062
 N1937 N 0.87914 0.65678 0.80182
 N1938 N 0.89115 0.64513 0.77604
 C1939 C 0.88562 0.61540 0.76781
 N1940 N 0.86777 0.59772 0.78658
 N1941 N 0.35591 1.10918 0.81146
 C1942 C 0.36151 1.13888 0.81990
 N1943 N 0.37955 1.15651 0.80124
 N1944 N 0.39138 1.14502 0.77530
 C1945 C 0.38553 1.11543 0.76676
 N1946 N 0.36757 1.09773 0.78540
 N1947 N 0.39057 0.64415 1.31214
 C1948 C 0.36074 0.63870 1.32023
 N1949 N 0.34316 0.62098 1.30124
 N1950 N 0.35482 0.60929 1.27532
 C1951 C 0.38454 0.61499 1.26713
 N1952 N 0.40220 0.63265 1.28609
 N1953 N 1.14398 1.31156 0.89063
 C1954 C 1.13836 1.31994 0.86091
 N1955 N 1.12036 1.30122 0.84330
 N1956 N 1.10859 1.27527 0.85484
 C1957 C 1.11448 1.26678 0.88444
 N1958 N 1.13239 1.28549 0.90211
 N1959 N 1.10930 0.81207 0.35574
 C1960 C 1.13911 0.82015 0.36134
 N1961 N 1.15658 0.80118 0.37920
 N1962 N 1.14481 0.77530 0.39088
 C1963 C 1.11511 0.76712 0.38504
 N1964 N 1.09758 0.78606 0.36724
 N1965 N 0.62071 1.30169 0.34316
 C1966 C 0.63855 1.32055 0.36076
 N1967 N 0.64396 1.31239 0.39058
 N1968 N 0.63233 1.28638 0.40217
 C1969 C 0.61458 1.26754 0.38450
 N1970 N 0.60889 1.27581 0.35480
 N1971 N 0.62040 0.80157 0.84313
 C1972 C 0.63825 0.82036 0.86082
 N1973 N 0.64356 0.81212 0.89063
 N1974 N 0.63183 0.78611 0.90213
 C1975 C 0.61407 0.76734 0.88437
 N1976 N 0.60848 0.77569 0.85468
 N1977 N 0.84329 1.30182 1.12076
 C1978 C 0.86098 1.32047 1.13876
 N1979 N 0.89074 1.31210 1.14416
 N1980 N 0.90218 1.28612 1.13232
 C1981 C 0.88444 1.26750 1.11438
 N1982 N 0.85479 1.27596 1.10875
 N1983 N 0.85581 0.81202 0.60934
 C1984 C 0.86134 0.82021 0.63913
 N1985 N 0.87924 0.80135 0.65668
 N1986 N 0.89103 0.77547 0.64501
 C1987 C 0.88526 0.76719 0.61533
 N1988 N 0.86742 0.78602 0.59772
 N1989 N 0.34350 1.30145 0.62065
 C1990 C 0.36113 1.32013 0.63866
 N1991 N 0.39092 1.31186 0.64403
 N1992 N 0.40245 1.28594 0.63215
 C1993 C 0.38475 1.26729 0.61419
 N1994 N 0.35507 1.27566 0.60859
 N1995 N 0.34330 0.80125 1.12058
 C1996 C 0.36074 0.82024 1.13844
 N1997 N 0.39056 0.81218 1.14404
 N1998 N 0.40231 0.78617 1.13257
 C1999 C 0.38479 0.76721 1.11478
 N2000 N 0.35509 0.77537 1.10892
 N2001 N 0.89053 0.68775 0.85640
 C2002 C 0.86066 0.67974 0.86179
 N2003 N 0.84312 0.69874 0.87954
 N2004 N 0.85486 0.72461 0.89127
 C2005 C 0.88460 0.73274 0.88560
 N2006 N 0.90222 0.71375 0.86794
 N2007 N 0.89086 0.18787 0.35635
 C2008 C 0.86103 0.17972 0.36168
 N2009 N 0.84342 0.19850 0.37960
 N2010 N 0.85506 0.22430 0.39159
 C2011 C 0.88478 0.23256 0.38601
 N2012 N 0.90246 0.21380 0.36816
 N2013 N 0.37921 0.69856 0.34350
 C2014 C 0.36120 0.67975 0.36099
 N2015 N 0.35561 0.68795 0.39077
 N2016 N 0.36727 0.71392 0.40242
 C2017 C 0.38523 0.73270 0.38486
 N2018 N 0.39104 0.72440 0.35520
 N2019 N 0.34336 0.19811 0.87919
 C2020 C 0.36098 0.17929 0.86132
 N2021 N 0.39083 0.18740 0.85605
 N2022 N 0.40244 0.21332 0.86787
 C2023 C 0.38476 0.23211 0.88567
 N2024 N 0.35502 0.22390 0.89119
 N2025 N 1.12096 0.69856 1.15683
 C2026 C 1.13875 0.67966 1.13921
 N2027 N 1.14416 0.68781 1.10939
 N2028 N 1.13255 0.71383 1.09781
 C2029 C 1.11482 0.73270 1.11550
 N2030 N 1.10917 0.72446 1.14520
 N2031 N 1.12091 0.19870 0.65674
 C2032 C 1.13880 0.17980 0.63923
 N2033 N 1.14449 0.18803 0.60947
 N2034 N 1.13304 0.21411 0.59785
 C2035 C 1.11521 0.23298 0.61543
 N2036 N 1.10928 0.22465 0.64507
 N2037 N 0.65662 0.69880 0.62034
 C2038 C 0.63913 0.67991 0.63826
 N2039 N 0.60935 0.68809 0.64389
 N2040 N 0.59770 0.71413 0.63239
 C2041 C 0.61526 0.73300 0.61456
 N2042 N 0.64492 0.72471 0.60866
 N2043 N 0.65676 0.19890 1.12049
 C2044 C 0.63912 0.18018 1.13844
 N2045 N 0.60940 0.18858 1.14402
 N2046 N 0.59795 0.21467 1.13242
 C2047 C 0.61566 0.23337 1.11454
 N2048 N 0.64526 0.22487 1.10871
 N2049 N 1.30150 1.12023 0.84313
 C2050 C 1.32039 1.13810 0.86068
 N2051 N 1.31224 1.14358 0.89049
 N2052 N 1.28623 1.13200 0.90212
 C2053 C 1.26736 1.11421 0.88450
 N2054 N 1.27562 1.10845 0.85481
 N2055 N 1.31194 0.60919 0.35568
 C2056 C 1.32010 0.63896 0.36139
 N2057 N 1.30123 0.65638 0.37939
 N2058 N 1.27535 0.64461 0.39109
 C2059 C 1.26709 0.61496 0.38513
 N2060 N 1.28594 0.59747 0.36720
 N2061 N 0.80152 1.12078 0.34318
 C2062 C 0.82036 1.13858 0.36085
 N2063 N 0.81210 1.14400 0.39064
 N2064 N 0.78603 1.13241 0.40213
 C2065 C 0.76721 1.11471 0.38439
 N2066 N 0.77557 1.10901 0.35472
 N2067 N 0.81129 0.64446 0.89068
 C2068 C 0.81979 0.63873 0.86102
 N2069 N 0.80113 0.62066 0.84341
 N2070 N 0.77514 0.60893 0.85490
 C2071 C 0.76655 0.61490 0.88444
 N2072 N 0.78518 0.63289 0.90212
 N2073 N 1.31149 0.85551 1.10925
 C2074 C 1.31985 0.86124 1.13896
 N2075 N 1.30110 0.87929 1.15648
 N2076 N 1.27518 0.89103 1.14487
 C2077 C 1.26673 0.88508 1.11528
 N2078 N 1.28544 0.86708 1.09769
 N2079 N 1.30162 0.37903 0.65686
 C2080 C 1.32065 0.36139 0.63924
 N2081 N 1.31269 0.35615 0.60934
 N2082 N 1.28672 0.36777 0.59767
 C2083 C 1.26771 0.38533 0.61536
 N2084 N 1.27577 0.39084 0.64514
 N2085 N 0.80144 0.84356 0.62058
 C2086 C 0.82029 0.86101 0.63859
 N2087 N 0.81216 0.89080 0.64418
 N2088 N 0.78622 0.90253 0.63253
 C2089 C 0.76740 0.88501 0.61458
 N2090 N 0.77563 0.85533 0.60875
 N2091 N 0.81278 0.35669 1.10930
 C2092 C 0.82068 0.36190 1.13922
 N2093 N 0.80168 0.37963 1.15678
 N2094 N 0.77590 0.39153 1.14499
 C2095 C 0.76789 0.38604 1.11519
 N2096 N 0.78688 0.36840 1.09756
 N2097 N 0.69841 1.12101 1.15675
 C2098 C 0.67962 1.13885 1.13906
 N2099 N 0.68784 1.14417 1.10925
 N2100 N 0.71384 1.13243 1.09775
 C2101 C 0.73261 1.11466 1.11550
 N2102 N 0.72429 1.10910 1.14520
 N2103 N 0.69866 0.62084 0.65662
 C2104 C 0.67999 0.63885 0.63897
 N2105 N 0.68845 0.64446 0.60927
 N2106 N 0.71453 0.63282 0.59785
 C2107 C 0.73316 0.61486 0.61556
 N2108 N 0.72462 0.60902 0.64515
 N2109 N 0.19875 1.15646 0.62094
 C2110 C 0.17981 1.13897 0.63880
 N2111 N 0.18789 1.10915 0.64435
 N2112 N 0.21389 1.09745 0.63279
 C2113 C 0.23279 1.11501 0.61498
 N2114 N 0.22460 1.14471 0.60920
 N2115 N 0.18805 0.60912 1.14432
 C2116 C 0.17982 0.63888 1.13866
 N2117 N 0.19859 0.65634 1.12058
 N2118 N 0.22443 0.64462 1.10874
 C2119 C 0.23276 0.61498 1.11464
 N2120 N 0.21402 0.59746 1.13266
 N2121 N 0.69817 0.84339 0.87974
 C2122 C 0.67946 0.86097 0.86170
 N2123 N 0.68771 0.89076 0.85628
 N2124 N 0.71364 0.90234 0.86809
 C2125 C 0.73233 0.88469 0.88604
 N2126 N 0.72398 0.85502 0.89173
 N2127 N 0.69853 0.34348 0.37937
 C2128 C 0.67980 0.36110 0.36139
 N2129 N 0.68807 0.39088 0.35596
 N2130 N 0.71404 0.40242 0.36772
 C2131 C 0.73274 0.38474 0.38564
 N2132 N 0.72437 0.35507 0.39132
 N2133 N 0.18827 0.85542 0.39065
 C2134 C 0.18001 0.86111 0.36091
 N2135 N 0.19887 0.87902 0.34338
 N2136 N 0.22482 0.89067 0.35502
 C2137 C 0.23318 0.88475 0.38465
 N2138 N 0.21436 0.86689 0.40224
 N2139 N 0.19841 0.34299 0.87943
 C2140 C 0.17951 0.36063 0.86166
 N2141 N 0.18763 0.39048 0.85635
 N2142 N 0.21362 0.40206 0.86801
 C2143 C 0.23250 0.38436 0.88570
 N2144 N 0.22428 0.35463 0.89128
   
