data_POSCAR
  _audit_creation_date              2014-09-24
  _audit_creation_method            'ToBaCCo'
  _symmetry_space_group_name_H-M    'P1'
  _symmetry_Int_Tables_number       1
  _symmetry_cell_setting            triclinic
  loop_
  _symmetry_equiv_pos_as_xyz
 x,y,z
_cell_length_a 69.8195
_cell_length_b 69.8507
_cell_length_c 70.5059
_cell_angle_alpha 90.091200
_cell_angle_beta 89.837200
_cell_angle_gamma 90.004000
loop_
  _atom_site_label
  _atom_site_type_symbol
  _atom_site_fract_x
  _atom_site_fract_y
  _atom_site_fract_z
C1 C 0.19315 0.21873 0.21305
 C2 C 0.20378 0.22384 0.19694
 C3 C 0.21966 0.21315 0.19169
 C4 C 0.22510 0.19723 0.20250
 C5 C 0.21460 0.19219 0.21843
 C6 C 0.19852 0.20300 0.22374
 C7 C 0.17710 0.22647 0.22148
 N8 N 0.17274 0.21578 0.23691
 C9 C 0.18566 0.20142 0.23849
 C10 C 0.22312 0.17622 0.22613
 N11 N 0.23844 0.17159 0.21522
 C12 C 0.23985 0.18425 0.20076
 C13 C 0.22717 0.22138 0.17555
 N14 N 0.21619 0.23669 0.17103
 C15 C 0.20187 0.23838 0.18392
 H16 H 0.16917 0.23890 0.21677
 H17 H 0.18565 0.19066 0.24954
 H18 H 0.21856 0.16854 0.23868
 H19 H 0.25078 0.18400 0.18984
 H20 H 0.23964 0.21664 0.16769
 H21 H 0.19094 0.24937 0.18380
 C22 C 0.69226 0.71977 0.71409
 C23 C 0.70296 0.72510 0.69808
 C24 C 0.71887 0.71449 0.69276
 C25 C 0.72427 0.69843 0.70339
 C26 C 0.71369 0.69316 0.71920
 C27 C 0.69760 0.70390 0.72458
 C28 C 0.67616 0.72739 0.72256
 N29 N 0.67176 0.71648 0.73783
 C30 C 0.68468 0.70211 0.73926
 C31 C 0.72218 0.67709 0.72672
 N32 N 0.73755 0.67261 0.71582
 C33 C 0.73903 0.68547 0.70154
 C34 C 0.72644 0.72292 0.67677
 N35 N 0.71549 0.73828 0.67239
 C36 C 0.70111 0.73981 0.68523
 H37 H 0.66825 0.73988 0.71800
 H38 H 0.68464 0.69120 0.75016
 H39 H 0.71757 0.66924 0.73915
 H40 H 0.75000 0.68536 0.69065
 H41 H 0.73895 0.71826 0.66890
 H42 H 0.69017 0.75080 0.68520
 C43 C 0.30271 0.77545 0.72035
 C44 C 0.29208 0.76979 0.70446
 C45 C 0.27592 0.78002 0.69925
 C46 C 0.27020 0.79602 0.70988
 C47 C 0.28072 0.80162 0.72559
 C48 C 0.29707 0.79127 0.73085
 C49 C 0.31910 0.76835 0.72857
 N50 N 0.32340 0.77950 0.74370
 C51 C 0.31012 0.79354 0.74530
 C52 C 0.27204 0.81768 0.73301
 N53 N 0.25662 0.82182 0.72216
 C54 C 0.25529 0.80878 0.70798
 C55 C 0.26861 0.77145 0.68323
 N56 N 0.27995 0.75637 0.67873
 C57 C 0.29433 0.75516 0.69153
 H58 H 0.32734 0.75608 0.72389
 H59 H 0.31003 0.80458 0.75609
 H60 H 0.27664 0.82581 0.74528
 H61 H 0.24439 0.80867 0.69708
 H62 H 0.25606 0.77586 0.67537
 H63 H 0.30560 0.74451 0.69135
 C64 C 0.80811 0.28090 0.21220
 C65 C 0.79760 0.27564 0.19609
 C66 C 0.78170 0.28621 0.19081
 C67 C 0.77611 0.30218 0.20157
 C68 C 0.78650 0.30737 0.21748
 C69 C 0.80258 0.29668 0.22283
 C70 C 0.82414 0.27328 0.22066
 N71 N 0.82833 0.28409 0.23607
 C72 C 0.81534 0.29842 0.23760
 C73 C 0.77784 0.32334 0.22513
 N74 N 0.76257 0.32783 0.21421
 C75 C 0.76130 0.31507 0.19979
 C76 C 0.77432 0.27785 0.17471
 N77 N 0.78538 0.26256 0.17023
 C78 C 0.79964 0.26101 0.18312
 H79 H 0.83215 0.26084 0.21599
 H80 H 0.81520 0.30925 0.24861
 H81 H 0.78228 0.33112 0.23767
 H82 H 0.75043 0.31519 0.18886
 H83 H 0.76186 0.28249 0.16683
 H84 H 0.81062 0.25007 0.18304
 C85 C 0.80815 0.72015 0.28612
 C86 C 0.79754 0.72546 0.30221
 C87 C 0.78162 0.71489 0.30753
 C88 C 0.77611 0.69888 0.29683
 C89 C 0.78659 0.69363 0.28094
 C90 C 0.80270 0.70432 0.27555
 C91 C 0.82424 0.72773 0.27764
 N92 N 0.82853 0.71685 0.26229
 C93 C 0.81556 0.70252 0.26080
 C94 C 0.77801 0.67760 0.27337
 N95 N 0.76269 0.67314 0.28431
 C96 C 0.76132 0.68596 0.29868
 C97 C 0.77415 0.72328 0.32362
 N98 N 0.78518 0.73859 0.32805
 C99 C 0.79950 0.74012 0.31515
 H100 H 0.83222 0.74018 0.28227
 H101 H 0.81549 0.69163 0.24985
 H102 H 0.78254 0.66976 0.26088
 H103 H 0.75040 0.68586 0.30962
 H104 H 0.76166 0.71864 0.33151
 H105 H 0.81048 0.75107 0.31521
 C106 C 0.30423 0.22159 -0.21762
 C107 C 0.29360 0.22698 -0.20157
 C108 C 0.27738 0.21674 -0.19651
 C109 C 0.27158 0.20100 -0.20745
 C110 C 0.28208 0.19567 -0.22331
 C111 C 0.29850 0.20603 -0.22843
 C112 C 0.32063 0.22883 -0.22580
 N113 N 0.32486 0.21800 -0.24120
 C114 C 0.31152 0.20403 -0.24302
 C115 C 0.27326 0.17985 -0.23106
 N116 N 0.25778 0.17561 -0.22024
 C117 C 0.25654 0.18834 -0.20578
 C118 C 0.27003 0.22506 -0.18034
 N119 N 0.28142 0.24000 -0.17560
 C120 C 0.29586 0.24137 -0.18839
 H121 H 0.32889 0.24099 -0.22091
 H122 H 0.31135 0.19324 -0.25407
 H123 H 0.27781 0.17197 -0.24353
 H124 H 0.24561 0.18833 -0.19485
 H125 H 0.25740 0.22060 -0.17257
 H126 H 0.30714 0.25200 -0.18808
 C127 C 0.69273 0.27991 -0.21472
 C128 C 0.70352 0.27449 -0.19887
 C129 C 0.71948 0.28506 -0.19368
 C130 C 0.72484 0.30116 -0.20429
 C131 C 0.71418 0.30653 -0.21996
 C132 C 0.69803 0.29584 -0.22521
 C133 C 0.67657 0.27235 -0.22303
 N134 N 0.67208 0.28335 -0.23819
 C135 C 0.68501 0.29773 -0.23973
 C136 C 0.72264 0.32264 -0.22748
 N137 N 0.73807 0.32704 -0.21671
 C138 C 0.73962 0.31410 -0.20251
 C139 C 0.72713 0.27655 -0.17781
 N140 N 0.71617 0.26119 -0.17337
 C141 C 0.70172 0.25973 -0.18606
 H142 H 0.66867 0.25984 -0.21841
 H143 H 0.68493 0.30870 -0.25056
 H144 H 0.71794 0.33057 -0.23982
 H145 H 0.75064 0.31412 -0.19173
 H146 H 0.73968 0.28116 -0.17005
 H147 H 0.69076 0.24876 -0.18594
 C148 C 0.19355 0.77872 0.28433
 C149 C 0.20399 0.77329 0.30041
 C150 C 0.21986 0.78382 0.30592
 C151 C 0.22547 0.79991 0.29542
 C152 C 0.21515 0.80528 0.27953
 C153 C 0.19910 0.79462 0.27395
 C154 C 0.17751 0.77124 0.27575
 N155 N 0.17333 0.78224 0.26052
 C156 C 0.18634 0.79656 0.25922
 C157 C 0.22376 0.82141 0.27220
 N158 N 0.23895 0.82580 0.28329
 C159 C 0.24021 0.81286 0.29752
 C160 C 0.22710 0.77534 0.32200
 N161 N 0.21599 0.76004 0.32624
 C162 C 0.20184 0.75858 0.31322
 H163 H 0.16946 0.75879 0.28024
 H164 H 0.18646 0.80755 0.24840
 H165 H 0.21932 0.82936 0.25978
 H166 H 0.25098 0.81289 0.30854
 H167 H 0.23945 0.77996 0.33005
 H168 H 0.19081 0.74768 0.31315
 C169 C 0.47236 0.44643 0.46791
 C170 C 0.47772 0.45692 0.45181
 C171 C 0.46751 0.47313 0.44676
 C172 C 0.45183 0.47905 0.45776
 C173 C 0.44653 0.46869 0.47368
 C174 C 0.45685 0.45228 0.47878
 C175 C 0.47956 0.43006 0.47609
 N176 N 0.46877 0.42597 0.49156
 C177 C 0.45487 0.43937 0.49340
 C178 C 0.43075 0.47760 0.48146
 N179 N 0.42649 0.49301 0.47062
 C180 C 0.43920 0.49409 0.45611
 C181 C 0.47579 0.48033 0.43052
 N182 N 0.49068 0.46886 0.42573
 C183 C 0.49206 0.45452 0.43855
 H184 H 0.49167 0.42171 0.47118
 H185 H 0.44412 0.43963 0.50450
 H186 H 0.42288 0.47318 0.49396
 H187 H 0.43915 0.50494 0.44516
 H188 H 0.47133 0.49291 0.42274
 H189 H 0.50265 0.44320 0.43821
 C190 C -0.02837 -0.05808 0.96502
 C191 C -0.02274 -0.04755 0.94904
 C192 C -0.03316 -0.03161 0.94356
 C193 C -0.04934 -0.02601 0.95401
 C194 C -0.05491 -0.03641 0.96982
 C195 C -0.04437 -0.05254 0.97536
 C196 C -0.02102 -0.07419 0.97356
 N197 N -0.03220 -0.07842 0.98872
 C198 C -0.04650 -0.06537 0.99003
 C199 C -0.07107 -0.02778 0.97712
 N200 N -0.07529 -0.01250 0.96609
 C201 C -0.06220 -0.01121 0.95194
 C202 C -0.02449 -0.02429 0.92757
 N203 N -0.00918 -0.03542 0.92335
 C204 C -0.00791 -0.04967 0.93629
 H205 H -0.00854 -0.08224 0.96909
 H206 H -0.05759 -0.06526 1.00080
 H207 H -0.07915 -0.03227 0.98947
 H208 H -0.06207 -0.00036 0.94098
 H209 H -0.02899 -0.01187 0.91957
 H210 H 0.00296 -0.06073 0.93636
 C211 C 1.02957 0.55636 0.96442
 C212 C 1.02432 0.54572 0.94838
 C213 C 1.03494 0.52981 0.94309
 C214 C 1.05095 0.52436 0.95377
 C215 C 1.05614 0.53489 0.96963
 C216 C 1.04540 0.55098 0.97498
 C217 C 1.02194 0.57246 0.97286
 N218 N 1.03279 0.57681 0.98817
 C219 C 1.04714 0.56387 0.98968
 C220 C 1.07219 0.52638 0.97719
 N221 N 1.07671 0.51106 0.96626
 C222 C 1.06392 0.50961 0.95192
 C223 C 1.02661 0.52232 0.92703
 N224 N 1.01129 0.53331 0.92259
 C225 C 1.00969 0.54764 0.93546
 H226 H 1.00948 0.58040 0.96822
 H227 H 1.05802 0.56386 1.00060
 H228 H 1.07999 0.53098 0.98964
 H229 H 1.06406 0.49869 0.94100
 H230 H 1.03130 0.50984 0.91915
 H231 H 0.99873 0.55860 0.93538
 C232 C 0.53110 0.05738 0.46490
 C233 C 0.52571 0.04662 0.44898
 C234 C 0.53632 0.03071 0.44368
 C235 C 0.55245 0.02537 0.45424
 C236 C 0.55778 0.03601 0.46997
 C237 C 0.54704 0.05211 0.47534
 C238 C 0.52350 0.07349 0.47333
 N239 N 0.53447 0.07798 0.48851
 C240 C 0.54888 0.06509 0.48994
 C241 C 0.57391 0.02757 0.47744
 N242 N 0.57834 0.01218 0.46658
 C243 C 0.56542 0.01062 0.45237
 C244 C 0.52783 0.02307 0.42777
 N245 N 0.51243 0.03399 0.42342
 C246 C 0.51093 0.04841 0.43621
 H247 H 0.51097 0.08136 0.46879
 H248 H 0.55984 0.06519 0.50078
 H249 H 0.58181 0.03226 0.48981
 H250 H 0.56546 -0.00038 0.44153
 H251 H 0.53246 0.01056 0.41993
 H252 H 0.49994 0.05934 0.43618
 C253 C -0.02815 0.05769 0.53370
 C254 C -0.02233 0.04696 0.54946
 C255 C -0.03276 0.03102 0.55498
 C256 C -0.04913 0.02562 0.54480
 C257 C -0.05487 0.03623 0.52922
 C258 C -0.04432 0.05236 0.52365
 C259 C -0.02082 0.07383 0.52515
 N260 N -0.03217 0.07828 0.51026
 C261 C -0.04657 0.06534 0.50914
 C262 C -0.07116 0.02775 0.52214
 N263 N -0.07531 0.01235 0.53306
 C264 C -0.06202 0.01085 0.54694
 C265 C -0.02388 0.02345 0.57068
 N266 N -0.00843 0.03444 0.57470
 C267 C -0.00727 0.04883 0.56190
 H268 H -0.00821 0.08176 0.52941
 H269 H -0.05779 0.06540 0.49858
 H270 H -0.07938 0.03239 0.50999
 H271 H -0.06180 -0.00015 0.55774
 H272 H -0.02831 0.01095 0.57863
 H273 H 0.00366 0.05982 0.56172
 C274 C 0.46944 0.55711 0.03664
 C275 C 0.47461 0.54651 0.05271
 C276 C 0.46395 0.53063 0.05796
 C277 C 0.44799 0.52516 0.04720
 C278 C 0.44288 0.53564 0.03132
 C279 C 0.45367 0.55170 0.02601
 C280 C 0.47714 0.57316 0.02824
 N281 N 0.46638 0.57748 0.01288
 C282 C 0.45200 0.56455 0.01131
 C283 C 0.42687 0.52711 0.02369
 N284 N 0.42228 0.51181 0.03457
 C285 C 0.43501 0.51042 0.04897
 C286 C 0.47222 0.52316 0.07404
 N287 N 0.48753 0.53415 0.07854
 C288 C 0.48919 0.54844 0.06568
 H289 H 0.48959 0.58111 0.03294
 H290 H 0.44118 0.56452 0.00033
 H291 H 0.41913 0.53165 0.01119
 H292 H 0.43479 0.49952 0.05987
 H293 H 0.46749 0.51071 0.08188
 H294 H 0.50018 0.55939 0.06579
 C295 C 0.53190 -0.05782 0.03756
 C296 C 0.52673 -0.04722 0.05369
 C297 C 0.53741 -0.03136 0.05893
 C298 C 0.55338 -0.02591 0.04811
 C299 C 0.55849 -0.03639 0.03218
 C300 C 0.54768 -0.05244 0.02687
 C301 C 0.52418 -0.07385 0.02913
 N302 N 0.53493 -0.07818 0.01369
 C303 C 0.54932 -0.06527 0.01211
 C304 C 0.57449 -0.02786 0.02447
 N305 N 0.57909 -0.01257 0.03537
 C306 C 0.56637 -0.01117 0.04985
 C307 C 0.52912 -0.02388 0.07507
 N308 N 0.51379 -0.03484 0.07960
 C309 C 0.51213 -0.04914 0.06671
 H310 H 0.51173 -0.08178 0.03384
 H311 H 0.56012 -0.06526 0.00106
 H312 H 0.58222 -0.03240 0.01191
 H313 H 0.56658 -0.00026 0.06077
 H314 H 0.53385 -0.01142 0.08293
 H315 H 0.50112 -0.06006 0.06683
 C316 C 1.02693 0.44686 0.53197
 C317 C 1.02176 0.45734 0.54817
 C318 C 1.03206 0.47353 0.55319
 C319 C 1.04765 0.47943 0.54206
 C320 C 1.05276 0.46907 0.52605
 C321 C 1.04235 0.45269 0.52098
 C322 C 1.01963 0.43050 0.52380
 N323 N 1.03027 0.42641 0.50822
 C324 C 1.04418 0.43978 0.50630
 C325 C 1.06849 0.47792 0.51814
 N326 N 1.07289 0.49331 0.52900
 C327 C 1.06035 0.49444 0.54365
 C328 C 1.02396 0.48072 0.56955
 N329 N 1.00910 0.46927 0.57443
 C330 C 1.00756 0.45495 0.56156
 H331 H 1.00757 0.42216 0.52881
 H332 H 1.05483 0.44003 0.49511
 H333 H 1.07621 0.47346 0.50554
 H334 H 1.06054 0.50527 0.55466
 H335 H 1.02853 0.49328 0.57734
 H336 H 0.99694 0.44366 0.56196
 C337 C 0.40538 0.00772 0.22625
 H338 H 0.40605 0.02069 0.23463
 C339 C 0.41801 0.00508 0.21109
 H340 H 0.42849 0.01606 0.20796
 C341 C 0.39124 -0.02260 0.22063
 H342 H 0.38096 -0.03346 0.22451
 C343 C 0.40362 -0.02585 0.20536
 H344 H 0.40243 -0.03907 0.19742
 N345 N 0.39218 -0.00592 0.23057
 C346 C 0.34637 0.02459 0.26001
 H347 H 0.34547 0.01630 0.27293
 C348 C 0.33391 0.03994 0.25715
 H349 H 0.32361 0.04355 0.26809
 C350 C 0.36104 0.02995 0.23014
 H351 H 0.37137 0.02580 0.21948
 C352 C 0.34887 0.04541 0.22670
 H353 H 0.35001 0.05301 0.21337
 Zn354 Zn 0.37580 -0.00125 0.25152
 N355 N 0.35974 0.02003 0.24669
 C356 C 0.39039 0.02023 0.28264
 N357 N 0.39160 0.00350 0.27280
 C358 C 0.40474 -0.01007 0.27740
 C359 C 0.41706 -0.00729 0.29272
 C360 C 0.40245 0.02361 0.29806
 C361 C 0.34669 -0.02712 0.24237
 C362 C 0.33421 -0.04253 0.24489
 C363 C 0.34838 -0.04811 0.27561
 C364 C 0.36058 -0.03259 0.27250
 N365 N 0.35969 -0.02259 0.25598
 H366 H 0.38017 0.03103 0.27853
 H367 H 0.40564 -0.02308 0.26910
 H368 H 0.42751 -0.01821 0.29606
 H369 H 0.40107 0.03689 0.30589
 H370 H 0.34610 -0.01876 0.22947
 H371 H 0.32421 -0.04611 0.23372
 H372 H 0.34919 -0.05579 0.28891
 H373 H 0.37063 -0.02846 0.28338
 C374 C 0.33511 0.05062 0.24033
 C375 C 0.41719 -0.01187 0.20037
 C376 C 0.33499 -0.05330 0.26167
 C377 C 0.41599 0.00973 0.30331
 C378 C 0.11146 -0.00847 0.71160
 H379 H 0.12106 -0.02058 0.71198
 C380 C 0.10028 -0.00535 0.69550
 H381 H 0.10142 -0.01515 0.68364
 C382 C 0.09881 0.01937 0.72622
 H383 H 0.09834 0.02891 0.73831
 C384 C 0.08739 0.02303 0.71042
 H385 H 0.07796 0.03534 0.71057
 N386 N 0.11029 0.00365 0.72667
 C387 C 0.16040 -0.02034 0.74678
 H388 H 0.16688 -0.00649 0.74898
 C389 C 0.17208 -0.03644 0.74482
 H390 H 0.18749 -0.03469 0.74512
 C391 C 0.13255 -0.03949 0.74383
 H392 H 0.11709 -0.04053 0.74365
 C393 C 0.14370 -0.05597 0.74176
 H394 H 0.13669 -0.06970 0.74011
 Zn395 Zn 0.12494 -0.00042 0.74887
 N396 N 0.14101 -0.02209 0.74601
 C397 C 0.11688 -0.00920 0.78684
 N398 N 0.10862 -0.00511 0.76988
 C399 C 0.08925 -0.00502 0.76785
 C400 C 0.07738 -0.00861 0.78341
 C401 C 0.10554 -0.01284 0.80278
 C402 C 0.15154 0.02771 0.73867
 C403 C 0.16308 0.04387 0.74089
 C404 C 0.14982 0.04819 0.77229
 C405 C 0.13852 0.03194 0.76946
 N406 N 0.13981 0.02188 0.75297
 H407 H 0.13232 -0.00956 0.78797
 H408 H 0.08293 -0.00221 0.75419
 H409 H 0.06200 -0.00810 0.78157
 H410 H 0.11238 -0.01612 0.81615
 H411 H 0.15209 0.01959 0.72560
 H412 H 0.17269 0.04796 0.72952
 H413 H 0.14857 0.05603 0.78550
 H414 H 0.12873 0.02744 0.78046
 C415 C 0.16376 -0.05455 0.74218
 C416 C 0.08791 0.01049 0.69483
 C417 C 0.16243 0.05426 0.75795
 C418 C 0.08549 -0.01250 0.80119
 C419 C 0.59503 0.49148 0.22505
 H420 H 0.59425 0.47852 0.23340
 C421 C 0.58250 0.49416 0.20988
 H422 H 0.57201 0.48320 0.20671
 C423 C 0.60931 0.52174 0.21949
 H424 H 0.61961 0.53256 0.22341
 C425 C 0.59705 0.52502 0.20423
 H426 H 0.59834 0.53822 0.19631
 N427 N 0.60825 0.50508 0.22940
 C428 C 0.65381 0.47453 0.25881
 H429 H 0.65472 0.48293 0.27169
 C430 C 0.66629 0.45917 0.25594
 H431 H 0.67687 0.45590 0.26666
 C432 C 0.63931 0.46910 0.22895
 H433 H 0.62896 0.47315 0.21834
 C434 C 0.65152 0.45365 0.22548
 H435 H 0.65014 0.44572 0.21234
 Zn436 Zn 0.62449 0.50038 0.25035
 N437 N 0.64052 0.47905 0.24550
 C438 C 0.60979 0.47912 0.28160
 N439 N 0.60857 0.49573 0.27164
 C440 C 0.59546 0.50937 0.27624
 C441 C 0.58323 0.50681 0.29173
 C442 C 0.59782 0.47595 0.29719
 C443 C 0.65373 0.52620 0.24129
 C444 C 0.66627 0.54154 0.24393
 C445 C 0.65198 0.54702 0.27471
 C446 C 0.63970 0.53159 0.27147
 N447 N 0.64064 0.52167 0.25488
 H448 H 0.62000 0.46826 0.27750
 H449 H 0.59455 0.52229 0.26785
 H450 H 0.57283 0.51781 0.29510
 H451 H 0.59925 0.46279 0.30515
 H452 H 0.65442 0.51782 0.22838
 H453 H 0.67668 0.54482 0.23300
 H454 H 0.65081 0.55493 0.28788
 H455 H 0.62952 0.52753 0.28229
 C456 C 0.66522 0.44848 0.23909
 C457 C 0.58346 0.51109 0.19920
 C458 C 0.66547 0.55221 0.26082
 C459 C 0.58438 0.48995 0.30249
 C460 C 0.90443 0.50871 0.72452
 H461 H 0.90524 0.52157 0.73305
 C462 C 0.91677 0.50629 0.70909
 H463 H 0.92718 0.51734 0.70591
 C464 C 0.89018 0.47849 0.71871
 H465 H 0.87994 0.46759 0.72260
 C466 C 0.90227 0.47547 0.70317
 H467 H 0.90091 0.46237 0.69505
 N468 N 0.89128 0.49502 0.72886
 C469 C 0.84575 0.52528 0.75895
 H470 H 0.84493 0.51686 0.77180
 C471 C 0.83324 0.54063 0.75629
 H472 H 0.82271 0.54387 0.76713
 C473 C 0.86011 0.53079 0.72896
 H474 H 0.87041 0.52678 0.71823
 C475 C 0.84786 0.54623 0.72570
 H476 H 0.84918 0.55419 0.71260
 Zn477 Zn 0.87513 0.49952 0.75002
 N478 N 0.85899 0.52081 0.74548
 C479 C 0.88994 0.52078 0.78119
 N480 N 0.89113 0.50415 0.77118
 C481 C 0.90434 0.49058 0.77558
 C482 C 0.91673 0.49324 0.79087
 C483 C 0.90206 0.52404 0.79658
 C484 C 0.84593 0.47368 0.74102
 C485 C 0.83345 0.45829 0.74361
 C486 C 0.84792 0.45257 0.77417
 C487 C 0.86014 0.46807 0.77098
 N488 N 0.85908 0.47813 0.75451
 H489 H 0.87965 0.53159 0.77724
 H490 H 0.90523 0.47765 0.76715
 H491 H 0.92722 0.48230 0.79406
 H492 H 0.90067 0.53723 0.80456
 H493 H 0.84515 0.48217 0.72822
 H494 H 0.82299 0.45507 0.73275
 H495 H 0.84919 0.44455 0.78723
 H496 H 0.87038 0.47206 0.78172
 C497 C 0.83422 0.55136 0.73949
 C498 C 0.91572 0.48953 0.69812
 C499 C 0.83437 0.44747 0.76036
 C500 C 0.91565 0.51014 0.80164
 C501 C 0.22334 0.40335 0.00853
 H502 H 0.23171 0.40403 0.02140
 C503 C 0.20794 0.41583 0.00598
 H504 H 0.20462 0.42619 0.01695
 C505 C 0.21799 0.38939 -0.02165
 H506 H 0.22208 0.37926 -0.03250
 C507 C 0.20251 0.40162 -0.02480
 H508 H 0.19460 0.40046 -0.03794
 N509 N 0.22792 0.39032 -0.00510
 C510 C 0.25835 0.34475 0.02446
 H511 H 0.27129 0.34405 0.01600
 C512 C 0.25577 0.33216 0.03961
 H513 H 0.26677 0.32169 0.04266
 C514 C 0.22805 0.35890 0.03028
 H515 H 0.21718 0.36918 0.02647
 C516 C 0.22486 0.34656 0.04553
 H517 H 0.21167 0.34778 0.05355
 Zn518 Zn 0.24928 0.37424 -0.00072
 N519 N 0.24469 0.35794 0.02024
 C520 C 0.28058 0.38909 0.02050
 N521 N 0.27059 0.39032 0.00401
 C522 C 0.27506 0.40364 -0.00932
 C523 C 0.29042 0.41612 -0.00654
 C524 C 0.29603 0.40130 0.02388
 C525 C 0.24033 0.34523 -0.02654
 C526 C 0.24291 0.33300 -0.04202
 C527 C 0.27372 0.34769 -0.04769
 C528 C 0.27054 0.35966 -0.03211
 N529 N 0.25393 0.35839 -0.02205
 H530 H 0.27656 0.37871 0.03113
 H531 H 0.26664 0.40456 -0.02214
 H532 H 0.29367 0.42672 -0.01727
 H533 H 0.30399 0.39989 0.03696
 H534 H 0.22742 0.34428 -0.01807
 H535 H 0.23194 0.32256 -0.04530
 H536 H 0.28688 0.34915 -0.05573
 H537 H 0.28137 0.36990 -0.02808
 C538 C 0.23886 0.33301 0.05042
 C539 C 0.19727 0.41504 -0.01086
 C540 C 0.25977 0.33419 -0.05288
 C541 C 0.30117 0.41502 0.01024
 C542 C 0.72621 0.09535 -0.00985
 H543 H 0.73453 0.09442 -0.02279
 C544 C 0.71085 0.08290 -0.00691
 H545 H 0.70750 0.07231 -0.01763
 C546 C 0.72093 0.10993 0.02008
 H547 H 0.72504 0.12030 0.03068
 C548 C 0.70548 0.09774 0.02362
 H549 H 0.69762 0.09917 0.03680
 N550 N 0.73080 0.10868 0.00346
 C551 C 0.76085 0.15371 -0.02744
 H552 H 0.77392 0.15454 -0.01928
 C553 C 0.75802 0.16605 -0.04273
 H554 H 0.76914 0.17619 -0.04643
 C555 C 0.73054 0.13934 -0.03249
 H556 H 0.71970 0.12918 -0.02825
 C557 C 0.72713 0.15139 -0.04790
 H558 H 0.71363 0.15034 -0.05536
 Zn559 Zn 0.75208 0.12473 -0.00150
 N560 N 0.74729 0.14055 -0.02275
 C561 C 0.78339 0.10952 -0.02268
 N562 N 0.77342 0.10862 -0.00610
 C563 C 0.77796 0.09562 0.00750
 C564 C 0.79337 0.08315 0.00490
 C565 C 0.79890 0.09730 -0.02588
 C566 C 0.74320 0.15427 0.02383
 C567 C 0.74588 0.16687 0.03899
 C568 C 0.77678 0.15239 0.04455
 C569 C 0.77351 0.14008 0.02927
 N570 N 0.75681 0.14107 0.01942
 H571 H 0.77932 0.11964 -0.03350
 H572 H 0.76955 0.09497 0.02040
 H573 H 0.79667 0.07283 0.01585
 H574 H 0.80685 0.09844 -0.03903
 H575 H 0.73016 0.15492 0.01559
 H576 H 0.73470 0.17702 0.04250
 H577 H 0.79022 0.15149 0.05212
 H578 H 0.78439 0.12987 0.02525
 C579 C 0.74098 0.16495 -0.05323
 C580 C 0.70022 0.08403 0.01000
 C581 C 0.76284 0.16597 0.04963
 C582 C 0.80411 0.08392 -0.01195
 C583 C 0.22950 0.59081 0.50239
 H584 H 0.24342 0.58441 0.50033
 C585 C 0.21345 0.57904 0.50426
 H586 H 0.21531 0.56365 0.50401
 C587 C 0.21015 0.61854 0.50518
 H588 H 0.20902 0.63399 0.50538
 C589 C 0.19372 0.60730 0.50714
 H590 H 0.17993 0.61423 0.50872
 N591 N 0.22763 0.61018 0.50317
 C592 C 0.24483 0.66210 0.48196
 H593 H 0.24742 0.66840 0.49571
 C594 C 0.24146 0.67399 0.46643
 H595 H 0.24190 0.68937 0.46837
 C596 C 0.24102 0.63452 0.46274
 H597 H 0.24072 0.61908 0.46150
 C598 C 0.23760 0.64588 0.44682
 H599 H 0.23455 0.63906 0.43336
 Zn600 Zn 0.24926 0.62638 0.50075
 N601 N 0.24482 0.64275 0.47981
 C602 C 0.28201 0.61301 0.48050
 N603 N 0.27171 0.61164 0.49685
 C604 C 0.27738 0.59991 0.51115
 C605 C 0.29361 0.58842 0.50905
 C606 C 0.29833 0.60178 0.47780
 C607 C 0.24051 0.63944 0.53805
 C608 C 0.24327 0.65045 0.55436
 C609 C 0.27177 0.66380 0.54005
 C610 C 0.26846 0.65254 0.52402
 N611 N 0.25286 0.64091 0.52316
 H612 H 0.27763 0.62281 0.46952
 H613 H 0.26907 0.59930 0.52411
 H614 H 0.29756 0.57879 0.52040
 H615 H 0.30635 0.60308 0.46470
 H616 H 0.22852 0.62972 0.53736
 H617 H 0.23331 0.64905 0.56607
 H618 H 0.28399 0.67334 0.54024
 H619 H 0.27820 0.65323 0.51208
 C620 C 0.23787 0.66591 0.44854
 C621 C 0.19526 0.58726 0.50679
 C622 C 0.25899 0.66296 0.55545
 C623 C 0.30423 0.58914 0.49212
 C624 C 0.72486 0.90463 0.50942
 H625 H 0.73322 0.90544 0.52230
 C626 C 0.70950 0.91712 0.50673
 H627 H 0.70619 0.92761 0.51757
 C628 C 0.71950 0.89035 0.47940
 H629 H 0.72357 0.88007 0.46867
 C630 C 0.70404 0.90258 0.47611
 H631 H 0.69614 0.90128 0.46298
 N632 N 0.72941 0.89143 0.49595
 C633 C 0.75946 0.84610 0.52623
 H634 H 0.77249 0.84526 0.51791
 C635 C 0.75667 0.83366 0.54146
 H636 H 0.76759 0.82317 0.54472
 C637 C 0.72916 0.86041 0.53159
 H638 H 0.71835 0.87067 0.52757
 C639 C 0.72576 0.84822 0.54692
 H640 H 0.71248 0.84955 0.55478
 Zn641 Zn 0.75069 0.87533 0.50062
 N642 N 0.74590 0.85928 0.52173
 C643 C 0.78202 0.89029 0.52176
 N644 N 0.77203 0.89138 0.50526
 C645 C 0.77656 0.90454 0.49178
 C646 C 0.79200 0.91695 0.49440
 C647 C 0.79756 0.90245 0.52498
 C648 C 0.74184 0.84606 0.47498
 C649 C 0.74458 0.83362 0.45970
 C650 C 0.77553 0.84809 0.45426
 C651 C 0.77218 0.86028 0.46963
 N652 N 0.75544 0.85922 0.47950
 H653 H 0.77797 0.88004 0.53249
 H654 H 0.76814 0.90535 0.47895
 H655 H 0.79530 0.92740 0.48354
 H656 H 0.80554 0.90113 0.53806
 H657 H 0.72881 0.84527 0.48329
 H658 H 0.73362 0.82317 0.45641
 H659 H 0.78880 0.84939 0.44639
 H660 H 0.78302 0.87052 0.47367
 C661 C 0.73964 0.83465 0.55208
 C662 C 0.69883 0.91616 0.48990
 C663 C 0.76160 0.83457 0.44907
 C664 C 0.80278 0.91596 0.51116
 C665 C 0.00846 0.22596 0.40250
 H666 H 0.02129 0.23461 0.40327
 C667 C 0.00597 0.21063 0.41494
 H668 H 0.01692 0.20764 0.42536
 C669 C -0.02165 0.21983 0.38832
 H670 H -0.03249 0.22358 0.37809
 C671 C -0.02475 0.20438 0.40050
 H672 H -0.03784 0.19617 0.39923
 N673 N -0.00514 0.23011 0.38937
 C674 C 0.02526 0.26028 0.34432
 H675 H 0.01678 0.27322 0.34348
 C676 C 0.04071 0.25759 0.33199
 H677 H 0.04421 0.26868 0.32184
 C678 C 0.03096 0.23019 0.35870
 H679 H 0.02690 0.21937 0.36886
 C680 C 0.04653 0.22691 0.34665
 H681 H 0.05430 0.21354 0.34772
 Zn682 Zn -0.00066 0.25133 0.37329
 N683 N 0.02082 0.24677 0.35747
 C684 C 0.02016 0.28308 0.38799
 N685 N 0.00361 0.27285 0.38907
 C686 C -0.01016 0.27727 0.40203
 C687 C -0.00778 0.29281 0.41428
 C688 C 0.02314 0.29872 0.39999
 C689 C -0.02619 0.24180 0.34427
 C690 C -0.04148 0.24424 0.33179
 C691 C -0.04752 0.27520 0.34592
 C692 C -0.03211 0.27216 0.35813
 N693 N -0.02194 0.25558 0.35725
 H694 H 0.03113 0.27911 0.37791
 H695 H -0.02302 0.26867 0.40283
 H696 H -0.01886 0.29601 0.42458
 H697 H 0.03627 0.30687 0.39870
 H698 H -0.01769 0.22886 0.34369
 H699 H -0.04483 0.23296 0.32179
 H700 H -0.05531 0.28857 0.34672
 H701 H -0.02820 0.28318 0.36816
 C702 C 0.05161 0.24073 0.33309
 C703 C -0.01080 0.19956 0.41400
 C704 C -0.05241 0.26111 0.33254
 C705 C 0.00904 0.30380 0.41332
 C706 C -0.00949 0.72341 0.09562
 H707 H -0.02243 0.73190 0.09501
 C708 C -0.00702 0.70800 0.08321
 H709 H -0.01828 0.70456 0.07325
 C710 C 0.02084 0.71762 0.10947
 H711 H 0.03183 0.72163 0.11946
 C712 C 0.02390 0.70209 0.09734
 H713 H 0.03728 0.69430 0.09817
 N714 N 0.00425 0.72779 0.10855
 C715 C -0.02556 0.75857 0.15369
 H716 H -0.01698 0.77146 0.15435
 C717 C -0.04085 0.75609 0.16625
 H718 H -0.04389 0.76712 0.17664
 C719 C -0.03152 0.72829 0.13971
 H720 H -0.02770 0.71737 0.12953
 C721 C -0.04692 0.72521 0.15202
 H722 H -0.05504 0.71205 0.15088
 Zn723 Zn -0.00006 0.74921 0.12448
 N724 N -0.02133 0.74486 0.14062
 C725 C -0.02110 0.78076 0.10977
 N726 N -0.00457 0.77052 0.10855
 C727 C 0.00901 0.77477 0.09535
 C728 C 0.00644 0.79013 0.08297
 C729 C -0.02426 0.79625 0.09767
 C730 C 0.02584 0.74007 0.15324
 C731 C 0.04130 0.74266 0.16550
 C732 C 0.04713 0.77345 0.15104
 C733 C 0.03157 0.77027 0.13904
 N734 N 0.02141 0.75369 0.14021
 H735 H -0.03197 0.77685 0.11998
 H736 H 0.02191 0.76623 0.09452
 H737 H 0.01758 0.79349 0.07280
 H738 H -0.03758 0.80411 0.09874
 H739 H 0.01729 0.72719 0.15411
 H740 H 0.04449 0.73171 0.17587
 H741 H 0.05522 0.78661 0.14970
 H742 H 0.02760 0.78111 0.12890
 C743 C -0.05179 0.73924 0.16549
 C744 C 0.00985 0.69708 0.08401
 C745 C 0.05220 0.75952 0.16447
 C746 C -0.01036 0.80114 0.08408
 C747 C 0.49118 0.22524 0.59642
 H748 H 0.47828 0.23377 0.59560
 C749 C 0.49390 0.20994 0.58394
 H750 H 0.48303 0.20684 0.57345
 C751 C 0.52128 0.21940 0.61074
 H752 H 0.53203 0.22327 0.62103
 C753 C 0.52459 0.20399 0.59852
 H754 H 0.53775 0.19591 0.59984
 N755 N 0.50468 0.22953 0.60963
 C756 C 0.47388 0.25964 0.65458
 H757 H 0.48242 0.27252 0.65559
 C758 C 0.45828 0.25700 0.66672
 H759 H 0.45497 0.26791 0.67715
 C760 C 0.46829 0.22953 0.64009
 H761 H 0.47236 0.21874 0.62986
 C762 C 0.45259 0.22629 0.65197
 H763 H 0.44450 0.21316 0.65046
 Zn764 Zn 0.49998 0.25075 0.62573
 N765 N 0.47843 0.24610 0.64143
 C766 C 0.47901 0.28234 0.61102
 N767 N 0.49563 0.27224 0.60997
 C768 C 0.50942 0.27676 0.59708
 C769 C 0.50699 0.29230 0.58489
 C770 C 0.47597 0.29798 0.59909
 C771 C 0.52547 0.24141 0.65483
 C772 C 0.54075 0.24393 0.66732
 C773 C 0.54662 0.27492 0.65330
 C774 C 0.53124 0.27180 0.64106
 N775 N 0.52116 0.25515 0.64188
 H776 H 0.46802 0.27829 0.62105
 H777 H 0.52234 0.26825 0.59630
 H778 H 0.51809 0.29560 0.57465
 H779 H 0.46278 0.30604 0.60036
 H780 H 0.51697 0.22847 0.65543
 H781 H 0.54386 0.23287 0.67760
 H782 H 0.55467 0.28812 0.65220
 H783 H 0.52736 0.28274 0.63098
 C784 C 0.44736 0.24016 0.66547
 C785 C 0.51077 0.19904 0.58493
 C786 C 0.55160 0.26085 0.66662
 C787 C 0.49009 0.30318 0.58584
 C788 C 0.50920 0.72351 0.90533
 H789 H 0.52217 0.73196 0.90592
 C790 C 0.50667 0.70816 0.91776
 H791 H 0.51776 0.70495 0.92797
 C792 C 0.47872 0.71794 0.89170
 H793 H 0.46773 0.72194 0.88171
 C794 C 0.47559 0.70250 0.90387
 H795 H 0.46233 0.69453 0.90281
 N796 N 0.49540 0.72797 0.89250
 C797 C 0.52504 0.75855 0.84719
 H798 H 0.51650 0.77147 0.84663
 C799 C 0.54028 0.75604 0.83457
 H800 H 0.54356 0.76725 0.82448
 C801 C 0.53110 0.72834 0.86119
 H802 H 0.52728 0.71742 0.87133
 C803 C 0.54648 0.72525 0.84884
 H804 H 0.55433 0.71191 0.84965
 Zn805 Zn 0.49971 0.74933 0.87655
 N806 N 0.52089 0.74490 0.86030
 C807 C 0.52097 0.78079 0.89121
 N808 N 0.50436 0.77068 0.89246
 C809 C 0.49087 0.77504 0.90572
 C810 C 0.49360 0.79039 0.91813
 C811 C 0.52431 0.79624 0.90335
 C812 C 0.47370 0.74012 0.84791
 C813 C 0.45811 0.74258 0.83582
 C814 C 0.45218 0.77333 0.85042
 C815 C 0.46791 0.77029 0.86223
 N816 N 0.47815 0.75377 0.86094
 H817 H 0.53172 0.77686 0.88088
 H818 H 0.47796 0.76652 0.90666
 H819 H 0.48275 0.79353 0.92868
 H820 H 0.53748 0.80429 0.90194
 H821 H 0.48226 0.72723 0.84702
 H822 H 0.45458 0.73136 0.82580
 H823 H 0.44429 0.78663 0.85155
 H824 H 0.47196 0.78121 0.87230
 C825 C 0.55127 0.73922 0.83533
 C826 C 0.48969 0.69741 0.91711
 C827 C 0.44706 0.75934 0.83702
 C828 C 0.51050 0.80124 0.91702
 C829 C 0.10051 0.22587 0.31452
 C830 C 0.09924 0.23120 0.29544
 C831 C 0.08245 0.23970 0.28866
 C832 C 0.06697 0.24284 0.30089
 C833 C 0.15730 0.21905 0.24924
 C834 C 0.08504 0.22899 0.32677
 C835 C 0.11514 0.22791 0.28281
 C836 C 0.12845 0.22513 0.27223
 C837 C 0.14401 0.22186 0.25984
 C838 C 0.06808 0.23750 0.32010
 H839 H 0.11345 0.21934 0.31992
 H840 H 0.08130 0.24382 0.27390
 H841 H 0.05404 0.24918 0.29526
 H842 H 0.08643 0.22495 0.34153
 C843 C 0.60002 0.72498 0.81593
 C844 C 0.59846 0.73055 0.79694
 C845 C 0.58151 0.73896 0.79048
 C846 C 0.56615 0.74180 0.80294
 C847 C 0.65630 0.71956 0.75018
 C848 C 0.58468 0.72778 0.82842
 C849 C 0.61425 0.72762 0.78410
 C850 C 0.62750 0.72512 0.77337
 C851 C 0.64302 0.72215 0.76084
 C852 C 0.56756 0.73623 0.82207
 H853 H 0.61310 0.71850 0.82109
 H854 H 0.58013 0.74328 0.77579
 H855 H 0.55309 0.74810 0.79756
 H856 H 0.58630 0.72358 0.84310
 C857 C 0.39760 0.77315 0.81948
 C858 C 0.39857 0.76752 0.80045
 C859 C 0.41539 0.75929 0.79333
 C860 C 0.43118 0.75665 0.80520
 C861 C 0.33918 0.77701 0.75569
 C862 C 0.41337 0.77054 0.83138
 C863 C 0.38231 0.77015 0.78823
 C864 C 0.36869 0.77233 0.77799
 C865 C 0.35277 0.77486 0.76597
 C866 C 0.43034 0.76223 0.82437
 H867 H 0.38462 0.77949 0.82515
 H868 H 0.41632 0.75493 0.77860
 H869 H 0.44412 0.75045 0.79932
 H870 H 0.41219 0.77476 0.84612
 C871 C -0.08268 0.26123 0.28788
 C872 C -0.09956 0.26983 0.29441
 C873 C -0.10108 0.27553 0.31339
 C874 C -0.08576 0.27268 0.32580
 C875 C -0.15715 0.28115 0.24778
 C876 C -0.06735 0.25836 0.30027
 C877 C -0.11531 0.27286 0.28163
 C878 C -0.12850 0.27543 0.27094
 C879 C -0.14395 0.27849 0.25844
 C880 C -0.06871 0.26407 0.31938
 H881 H -0.08133 0.25682 0.27320
 H882 H -0.11410 0.28215 0.31861
 H883 H -0.08735 0.27701 0.34048
 H884 H -0.05433 0.25193 0.29483
 C885 C -0.09585 0.74864 0.19579
 C886 C -0.09899 0.73062 0.20386
 C887 C -0.08672 0.71541 0.19942
 C888 C -0.07137 0.71819 0.18694
 C889 C -0.15686 0.71972 0.25058
 C890 C -0.08051 0.75146 0.18332
 C891 C -0.11481 0.72772 0.21667
 C892 C -0.12806 0.72525 0.22739
 C893 C -0.14358 0.72230 0.23991
 C894 C -0.06809 0.73626 0.17874
 H895 H -0.10530 0.76050 0.19908
 H896 H -0.08899 0.70141 0.20563
 H897 H -0.06193 0.70627 0.18391
 H898 H -0.07851 0.76547 0.17706
 C899 C 0.40239 0.24935 0.69449
 C900 C 0.39894 0.23125 0.70226
 C901 C 0.41131 0.21606 0.69804
 C902 C 0.42706 0.21893 0.68608
 C903 C 0.33975 0.22060 0.74737
 C904 C 0.41813 0.25227 0.68254
 C905 C 0.38274 0.22829 0.71458
 C906 C 0.36917 0.22583 0.72490
 C907 C 0.35330 0.22300 0.73701
 C908 C 0.43065 0.23708 0.67819
 H909 H 0.39288 0.26121 0.69762
 H910 H 0.40881 0.20200 0.70403
 H911 H 0.43656 0.20702 0.68321
 H912 H 0.42036 0.26633 0.67650
 C913 C 0.59589 0.25152 0.69633
 C914 C 0.59901 0.26954 0.70448
 C915 C 0.58663 0.28470 0.70031
 C916 C 0.57119 0.28189 0.68803
 C917 C 0.65735 0.28051 0.75031
 C918 C 0.58046 0.24867 0.68405
 C919 C 0.61495 0.27248 0.71705
 C920 C 0.62831 0.27498 0.72756
 C921 C 0.64397 0.27795 0.73984
 C922 C 0.56794 0.26384 0.67974
 H923 H 0.60542 0.23970 0.69942
 H924 H 0.58888 0.29869 0.70658
 H925 H 0.56167 0.29377 0.68520
 H926 H 0.57848 0.23468 0.67772
 C927 C 0.09666 0.75037 0.19400
 C928 C 0.09986 0.76845 0.20197
 C929 C 0.08752 0.78362 0.19769
 C930 C 0.07204 0.78074 0.18548
 C931 C 0.15791 0.77934 0.24816
 C932 C 0.08117 0.74746 0.18180
 C933 C 0.11577 0.77142 0.21457
 C934 C 0.12908 0.77392 0.22514
 C935 C 0.14464 0.77684 0.23754
 C936 C 0.06868 0.76261 0.17740
 H937 H 0.10615 0.73854 0.19718
 H938 H 0.08984 0.79765 0.20383
 H939 H 0.06254 0.79262 0.18258
 H940 H 0.07911 0.73341 0.17562
 C941 C 0.31651 0.09932 0.22517
 C942 C 0.29723 0.09811 0.23050
 C943 C 0.29031 0.08141 0.23905
 C944 C 0.30261 0.06597 0.24227
 C945 C 0.25083 0.15615 0.21841
 C946 C 0.32884 0.08389 0.22837
 C947 C 0.28455 0.11400 0.22717
 C948 C 0.27392 0.12730 0.22440
 C949 C 0.26147 0.14286 0.22116
 C950 C 0.32202 0.06703 0.23696
 H951 H 0.32204 0.11220 0.21859
 H952 H 0.27539 0.08031 0.24318
 H953 H 0.29687 0.05311 0.24868
 H954 H 0.34375 0.08525 0.22434
 C955 C 0.80062 0.58638 0.71535
 C956 C 0.79623 0.59888 0.73027
 C957 C 0.80419 0.59585 0.74821
 C958 C 0.81652 0.58038 0.75123
 C959 C 0.74991 0.65712 0.71885
 C960 C 0.81296 0.57091 0.71834
 C961 C 0.78356 0.61482 0.72716
 C962 C 0.77296 0.62817 0.72454
 C963 C 0.76054 0.64379 0.72146
 C964 C 0.82106 0.56774 0.73632
 H965 H 0.79449 0.58856 0.70142
 H966 H 0.80092 0.60547 0.75984
 H967 H 0.82271 0.57847 0.76516
 H968 H 0.81596 0.56130 0.70664
 C969 C 0.80062 0.41231 0.78428
 C970 C 0.79629 0.39991 0.76929
 C971 C 0.80439 0.40303 0.75138
 C972 C 0.81676 0.41849 0.74846
 C973 C 0.74977 0.34171 0.78042
 C974 C 0.81300 0.42777 0.78140
 C975 C 0.78356 0.38399 0.77229
 C976 C 0.77290 0.37065 0.77483
 C977 C 0.76042 0.35504 0.77783
 C978 C 0.82122 0.43104 0.76345
 H979 H 0.79439 0.41006 0.79819
 H980 H 0.80118 0.39348 0.73969
 H981 H 0.82304 0.42048 0.73454
 H982 H 0.81594 0.43732 0.79315
 C983 C 0.29032 -0.08432 0.26174
 C984 C 0.29709 -0.10106 0.27030
 C985 C 0.31621 -0.10220 0.27607
 C986 C 0.32854 -0.08668 0.27329
 C987 C 0.25068 -0.15949 0.28069
 C988 C 0.30263 -0.06879 0.25893
 C989 C 0.28441 -0.11705 0.27316
 C990 C 0.27378 -0.13044 0.27554
 C991 C 0.26133 -0.14611 0.27832
 C992 C 0.32189 -0.06979 0.26467
 H993 H 0.27553 -0.08326 0.25727
 H994 H 0.32161 -0.11511 0.28266
 H995 H 0.34334 -0.08799 0.27764
 H996 H 0.29701 -0.05590 0.25249
 C997 C 0.20428 -0.09024 0.74835
 C998 C 0.19947 -0.10421 0.73494
 C999 C 0.18287 -0.10210 0.72406
 C1000 C 0.17117 -0.08603 0.72650
 C1001 C 0.24491 -0.16345 0.72477
 C1002 C 0.19262 -0.07415 0.75080
 C1003 C 0.21170 -0.12057 0.73220
 C1004 C 0.22207 -0.13418 0.72988
 C1005 C 0.23434 -0.15001 0.72713
 C1006 C 0.17595 -0.07183 0.73985
 H1007 H 0.21707 -0.09175 0.75688
 H1008 H 0.17904 -0.11281 0.71360
 H1009 H 0.15858 -0.08454 0.71770
 H1010 H 0.19655 -0.06361 0.76137
 C1011 C 0.69882 0.41360 0.21447
 C1012 C 0.70332 0.40109 0.22929
 C1013 C 0.69538 0.40404 0.24730
 C1014 C 0.68300 0.41945 0.25051
 C1015 C 0.75007 0.34322 0.21735
 C1016 C 0.68643 0.42900 0.21764
 C1017 C 0.71609 0.38524 0.22601
 C1018 C 0.72679 0.37198 0.22327
 C1019 C 0.73934 0.35646 0.22007
 C1020 C 0.67837 0.43211 0.23570
 H1021 H 0.70493 0.41147 0.20048
 H1022 H 0.69873 0.39442 0.25886
 H1023 H 0.67685 0.42131 0.26450
 H1024 H 0.68336 0.43863 0.20602
 C1025 C 0.69548 0.59668 0.25208
 C1026 C 0.70365 0.59963 0.26994
 C1027 C 0.69939 0.58708 0.28482
 C1028 C 0.68698 0.57166 0.28187
 C1029 C 0.75025 0.65769 0.28128
 C1030 C 0.68308 0.58125 0.24909
 C1031 C 0.71640 0.61552 0.27302
 C1032 C 0.72707 0.62883 0.27561
 C1033 C 0.73957 0.64440 0.27866
 C1034 C 0.67868 0.56857 0.26396
 H1035 H 0.69864 0.60634 0.24047
 H1036 H 0.70568 0.58920 0.29870
 H1037 H 0.68409 0.56201 0.29354
 H1038 H 0.67673 0.57941 0.23521
 C1039 C 0.19596 0.09004 0.78114
 C1040 C 0.19928 0.10288 0.76628
 C1041 C 0.19042 0.09997 0.74873
 C1042 C 0.17835 0.08422 0.74602
 C1043 C 0.24590 0.16108 0.77688
 C1044 C 0.18390 0.07431 0.77847
 C1045 C 0.21191 0.11893 0.76902
 C1046 C 0.22257 0.13229 0.77141
 C1047 C 0.23513 0.14785 0.77431
 C1048 C 0.17498 0.07118 0.76086
 H1049 H 0.20280 0.09213 0.79477
 H1050 H 0.19285 0.10984 0.73714
 H1051 H 0.17151 0.08235 0.73238
 H1052 H 0.18182 0.06439 0.79009
 C1053 C 0.24814 0.30302 0.09431
 C1054 C 0.23009 0.29491 0.09751
 C1055 C 0.21491 0.29920 0.08532
 C1056 C 0.21774 0.31157 0.06999
 C1057 C 0.21917 0.24886 0.15552
 C1058 C 0.25101 0.31538 0.07898
 C1059 C 0.22714 0.28225 0.11334
 C1060 C 0.22465 0.27168 0.12662
 C1061 C 0.22171 0.25935 0.14219
 C1062 C 0.23583 0.31981 0.06665
 H1063 H 0.25998 0.29984 0.10369
 H1064 H 0.20089 0.29296 0.08764
 H1065 H 0.20584 0.31449 0.06062
 H1066 H 0.26503 0.32169 0.07694
 C1067 C 0.71511 0.80114 0.58686
 C1068 C 0.73012 0.79683 0.59925
 C1069 C 0.74825 0.80484 0.59623
 C1070 C 0.75136 0.81713 0.58089
 C1071 C 0.71854 0.75060 0.65701
 C1072 C 0.71818 0.81343 0.57152
 C1073 C 0.72694 0.78418 0.61505
 C1074 C 0.72428 0.77360 0.62828
 C1075 C 0.72118 0.76120 0.64378
 C1076 C 0.73635 0.82157 0.56836
 H1077 H 0.70104 0.79497 0.58903
 H1078 H 0.75996 0.80164 0.60576
 H1079 H 0.76543 0.82335 0.57898
 H1080 H 0.70641 0.81637 0.56199
 C1081 C 0.78597 0.80109 0.41405
 C1082 C 0.77092 0.79686 0.40165
 C1083 C 0.75283 0.80492 0.40475
 C1084 C 0.74978 0.81716 0.42018
 C1085 C 0.78223 0.75086 0.34353
 C1086 C 0.78295 0.81333 0.42947
 C1087 C 0.77405 0.78428 0.38575
 C1088 C 0.77665 0.77375 0.37244
 C1089 C 0.77967 0.76141 0.35684
 C1090 C 0.76481 0.82152 0.43272
 H1091 H 0.80002 0.79488 0.41181
 H1092 H 0.74109 0.80179 0.39522
 H1093 H 0.73572 0.82342 0.42214
 H1094 H 0.79475 0.81620 0.43900
 C1095 C 0.28367 0.30132 -0.08877
 C1096 C 0.26843 0.29724 -0.10099
 C1097 C 0.25037 0.30521 -0.09749
 C1098 C 0.24754 0.31721 -0.08185
 C1099 C 0.27875 0.25206 -0.15991
 C1100 C 0.28087 0.31332 -0.07312
 C1101 C 0.27131 0.28489 -0.11710
 C1102 C 0.27368 0.27454 -0.13060
 C1103 C 0.27643 0.26242 -0.14641
 C1104 C 0.26277 0.32141 -0.06948
 H1105 H 0.29769 0.29517 -0.09132
 H1106 H 0.23849 0.30220 -0.10689
 H1107 H 0.23351 0.32341 -0.07957
 H1108 H 0.29281 0.31608 -0.06374
 C1109 C 0.72565 0.18338 -0.10150
 C1110 C 0.73121 0.20260 -0.10043
 C1111 C 0.73996 0.20953 -0.08396
 C1112 C 0.74317 0.19731 -0.06862
 C1113 C 0.71929 0.24882 -0.15806
 C1114 C 0.72882 0.17113 -0.08616
 C1115 C 0.72792 0.21521 -0.11622
 C1116 C 0.72518 0.22579 -0.12943
 C1117 C 0.72199 0.23819 -0.14488
 C1118 C 0.73763 0.17795 -0.06953
 H1119 H 0.71891 0.17785 -0.11420
 H1120 H 0.74427 0.22440 -0.08297
 H1121 H 0.74973 0.20306 -0.05593
 H1122 H 0.72462 0.15626 -0.08740
 C1123 C 0.23953 0.68547 0.39834
 C1124 C 0.22862 0.70217 0.40019
 C1125 C 0.22056 0.70694 0.41777
 C1126 C 0.22346 0.69511 0.43347
 C1127 C 0.21862 0.74776 0.34171
 C1128 C 0.24244 0.67360 0.41402
 C1129 C 0.22583 0.71453 0.38411
 C1130 C 0.22354 0.72495 0.37070
 C1131 C 0.22088 0.73722 0.35505
 C1132 C 0.23449 0.67832 0.43179
 H1133 H 0.24588 0.68167 0.38481
 H1134 H 0.21204 0.71982 0.41934
 H1135 H 0.21694 0.69900 0.44688
 H1136 H 0.25119 0.66091 0.41233
 C1137 C 0.28314 0.68999 0.59559
 C1138 C 0.26743 0.69878 0.60438
 C1139 C 0.24898 0.69575 0.59730
 C1140 C 0.24622 0.68402 0.58146
 C1141 C 0.27737 0.74413 0.66318
 C1142 C 0.28042 0.67826 0.57973
 C1143 C 0.27024 0.71106 0.62055
 C1144 C 0.27253 0.72143 0.63404
 C1145 C 0.27515 0.73364 0.64978
 C1146 C 0.26192 0.67517 0.57246
 H1147 H 0.29748 0.69221 0.60098
 H1148 H 0.23672 0.70254 0.60396
 H1149 H 0.23184 0.68215 0.57606
 H1150 H 0.29276 0.67147 0.57327
 C1151 C 0.76324 0.21079 0.08019
 C1152 C 0.77180 0.20401 0.09680
 C1153 C 0.77748 0.18484 0.09799
 C1154 C 0.77460 0.17247 0.08265
 C1155 C 0.78252 0.25029 0.15476
 C1156 C 0.76033 0.19844 0.06484
 C1157 C 0.77474 0.21671 0.11262
 C1158 C 0.77719 0.22732 0.12590
 C1159 C 0.78007 0.23972 0.14145
 C1160 C 0.76597 0.17913 0.06590
 H1161 H 0.75884 0.22562 0.07910
 H1162 H 0.78407 0.17943 0.11080
 H1163 H 0.77886 0.15764 0.08400
 H1164 H 0.75389 0.20407 0.05205
 C1165 C 0.49969 0.34802 0.55695
 C1166 C 0.48172 0.35135 0.54886
 C1167 C 0.46648 0.33896 0.55282
 C1168 C 0.46918 0.32329 0.56484
 C1169 C 0.47149 0.41030 0.50364
 C1170 C 0.50243 0.33235 0.56895
 C1171 C 0.47891 0.36749 0.53651
 C1172 C 0.47657 0.38100 0.52615
 C1173 C 0.47382 0.39681 0.51402
 C1174 C 0.48720 0.31980 0.57305
 H1175 H 0.51157 0.35755 0.55402
 H1176 H 0.45252 0.34137 0.54659
 H1177 H 0.45725 0.31376 0.56750
 H1178 H 0.51639 0.33020 0.57524
 C1179 C -0.02459 0.85011 0.06553
 C1180 C -0.01913 0.84873 0.04647
 C1181 C -0.01082 0.83182 0.03967
 C1182 C -0.00797 0.81634 0.05188
 C1183 C -0.02960 0.90694 0.00038
 C1184 C -0.02177 0.83463 0.07777
 C1185 C -0.02202 0.86467 0.03389
 C1186 C -0.02442 0.87802 0.02334
 C1187 C -0.02722 0.89362 0.01097
 C1188 C -0.01341 0.81757 0.07108
 H1189 H -0.03099 0.86315 0.07095
 H1190 H -0.00659 0.83059 0.02492
 H1191 H -0.00174 0.80332 0.04624
 H1192 H -0.02588 0.83612 0.09251
 C1193 C 0.01005 0.66635 0.03953
 C1194 C 0.01861 0.64953 0.04614
 C1195 C 0.02427 0.64821 0.06512
 C1196 C 0.02142 0.66365 0.07744
 C1197 C 0.02986 0.59145 -0.00019
 C1198 C 0.00717 0.68181 0.05183
 C1199 C 0.02162 0.63364 0.03345
 C1200 C 0.02418 0.62034 0.02283
 C1201 C 0.02722 0.60476 0.01041
 C1202 C 0.01283 0.68064 0.07094
 H1203 H 0.00567 0.66754 0.02485
 H1204 H 0.03086 0.63523 0.07040
 H1205 H 0.02570 0.66222 0.09212
 H1206 H 0.00077 0.69477 0.04633
 C1207 C 0.50186 0.15480 0.55485
 C1208 C 0.52001 0.15163 0.54700
 C1209 C 0.53515 0.16394 0.55150
 C1210 C 0.53217 0.17936 0.56383
 C1211 C 0.53140 0.09349 0.50079
 C1212 C 0.49884 0.17022 0.56717
 C1213 C 0.52311 0.13574 0.53434
 C1214 C 0.52572 0.12242 0.52374
 C1215 C 0.52878 0.10682 0.51136
 C1216 C 0.51397 0.18268 0.57181
 H1217 H 0.49005 0.14533 0.55150
 H1218 H 0.54925 0.16165 0.54546
 H1219 H 0.54404 0.18883 0.56692
 H1220 H 0.48473 0.17224 0.57327
 C1221 C -0.00120 0.15540 0.44382
 C1222 C -0.01926 0.15202 0.45179
 C1223 C -0.03457 0.16416 0.44743
 C1224 C -0.03185 0.17962 0.43514
 C1225 C -0.02948 0.09381 0.49798
 C1226 C 0.00156 0.17086 0.43154
 C1227 C -0.02208 0.13611 0.46443
 C1228 C -0.02442 0.12277 0.47502
 C1229 C -0.02715 0.10715 0.48740
 C1230 C -0.01374 0.18315 0.42705
 H1231 H 0.01073 0.14606 0.44705
 H1232 H -0.04860 0.16171 0.45357
 H1233 H -0.04384 0.18896 0.43217
 H1234 H 0.01560 0.17304 0.42535
 C1235 C 0.46570 0.66256 0.95094
 C1236 C 0.48079 0.65008 0.95506
 C1237 C 0.49881 0.65306 0.94682
 C1238 C 0.50172 0.66846 0.93450
 C1239 C 0.46938 0.59209 1.00126
 C1240 C 0.46858 0.67796 0.93861
 C1241 C 0.47777 0.63421 0.96771
 C1242 C 0.47518 0.62092 0.97830
 C1243 C 0.47208 0.60537 0.99069
 C1244 C 0.48663 0.68108 0.93024
 H1245 H 0.45171 0.66042 0.95729
 H1246 H 0.51058 0.64345 0.94988
 H1247 H 0.51571 0.67033 0.92810
 H1248 H 0.45675 0.68756 0.93583
 C1249 C 0.50177 0.84548 0.94719
 C1250 C 0.51994 0.84856 0.95495
 C1251 C 0.53503 0.83621 0.95033
 C1252 C 0.53198 0.82082 0.93799
 C1253 C 0.53172 0.90642 1.00134
 C1254 C 0.49869 0.83009 0.93486
 C1255 C 0.52311 0.86440 0.96764
 C1256 C 0.52580 0.87765 0.97827
 C1257 C 0.52898 0.89317 0.99072
 C1258 C 0.51376 0.81759 0.93011
 H1259 H 0.49001 0.85499 0.95064
 H1260 H 0.54914 0.83843 0.95630
 H1261 H 0.54381 0.81131 0.93482
 H1262 H 0.48457 0.82813 0.92885
 C1263 C -0.00074 0.34847 0.44254
 C1264 C 0.01724 0.35188 0.45059
 C1265 C 0.03254 0.33961 0.44649
 C1266 C 0.02989 0.32397 0.43437
 C1267 C 0.02745 0.41074 0.49611
 C1268 C -0.00342 0.33283 0.43043
 C1269 C 0.01999 0.36798 0.46305
 C1270 C 0.02231 0.38147 0.47348
 C1271 C 0.02506 0.39726 0.48569
 C1272 C 0.01187 0.32040 0.42620
 H1273 H -0.01267 0.35791 0.44558
 H1274 H 0.04650 0.34209 0.45269
 H1275 H 0.04188 0.31453 0.43160
 H1276 H -0.01740 0.33062 0.42417
 C1277 C 0.34031 0.55568 0.46909
 C1278 C 0.35295 0.55231 0.48408
 C1279 C 0.34982 0.56112 0.50166
 C1280 C 0.33405 0.57319 0.50427
 C1281 C 0.41116 0.50559 0.47368
 C1282 C 0.32454 0.56775 0.47167
 C1283 C 0.36902 0.53966 0.48143
 C1284 C 0.38238 0.52898 0.47910
 C1285 C 0.39794 0.51640 0.47623
 C1286 C 0.32120 0.57661 0.48931
 H1287 H 0.34256 0.54888 0.45544
 H1288 H 0.35955 0.55865 0.51334
 H1289 H 0.33201 0.57999 0.51794
 H1290 H 0.31478 0.56987 0.45996
 C1291 C 0.83933 0.05004 -0.03572
 C1292 C 0.85180 0.04594 -0.02076
 C1293 C 0.84871 0.05424 -0.00294
 C1294 C 0.83321 0.06659 -0.00006
 C1295 C 0.91005 -0.00072 -0.03130
 C1296 C 0.82383 0.06240 -0.03289
 C1297 C 0.86774 0.03319 -0.02369
 C1298 C 0.88108 0.02251 -0.02611
 C1299 C 0.89671 0.00999 -0.02892
 C1300 C 0.82059 0.07082 -0.01501
 H1301 H 0.84156 0.04365 -0.04957
 H1302 H 0.85830 0.05120 0.00873
 H1303 H 0.83125 0.07303 0.01379
 H1304 H 0.81424 0.06517 -0.04460
 C1305 C 0.66529 0.05064 0.03476
 C1306 C 0.65270 0.04616 0.02000
 C1307 C 0.65562 0.05401 0.00198
 C1308 C 0.67108 0.06631 -0.00129
 C1309 C 0.59456 -0.00018 0.03218
 C1310 C 0.68075 0.06295 0.03152
 C1311 C 0.63678 0.03350 0.02335
 C1312 C 0.62346 0.02289 0.02615
 C1313 C 0.60786 0.01045 0.02942
 C1314 C 0.68382 0.07093 0.01345
 H1315 H 0.66320 0.04459 0.04875
 H1316 H 0.64593 0.05068 -0.00953
 H1317 H 0.67291 0.07242 -0.01529
 H1318 H 0.69045 0.06601 0.04310
 C1319 C 0.14791 0.56796 0.52521
 C1320 C 0.14595 0.55119 0.51451
 C1321 C 0.15993 0.54635 0.50107
 C1322 C 0.17589 0.55815 0.49843
 C1323 C 0.08743 0.50514 0.52598
 C1324 C 0.16385 0.57980 0.52258
 C1325 C 0.12977 0.53878 0.51753
 C1326 C 0.11633 0.52827 0.52013
 C1327 C 0.10070 0.51585 0.52326
 C1328 C 0.17807 0.57497 0.50922
 H1329 H 0.13720 0.57181 0.53569
 H1330 H 0.15853 0.53341 0.49268
 H1331 H 0.18645 0.55417 0.48786
 H1332 H 0.16524 0.59251 0.53127
 C1333 C 0.15266 0.44484 -0.00190
 C1334 C 0.14968 0.45304 -0.01975
 C1335 C 0.16226 0.44888 -0.03468
 C1336 C 0.17774 0.43654 -0.03180
 C1337 C 0.09138 0.49936 -0.03089
 C1338 C 0.16814 0.43251 0.00102
 C1339 C 0.13372 0.46571 -0.02275
 C1340 C 0.12036 0.47632 -0.02530
 C1341 C 0.10473 0.48874 -0.02831
 C1342 C 0.18086 0.42820 -0.01392
 H1343 H 0.14298 0.44793 0.00975
 H1344 H 0.16012 0.45519 -0.04854
 H1345 H 0.18742 0.43372 -0.04351
 H1346 H 0.17001 0.42613 0.01488
 C1347 C 0.65426 0.94610 0.49860
 C1348 C 0.65128 0.95414 0.48068
 C1349 C 0.66383 0.94979 0.46577
 C1350 C 0.67929 0.93745 0.46874
 C1351 C 0.59303 1.00049 0.46940
 C1352 C 0.66972 0.93377 0.50161
 C1353 C 0.63535 0.96683 0.47759
 C1354 C 0.62201 0.97744 0.47500
 C1355 C 0.60638 0.98987 0.47197
 C1356 C 0.68242 0.92929 0.48671
 H1357 H 0.64461 0.94933 0.51023
 H1358 H 0.66168 0.95597 0.45185
 H1359 H 0.68894 0.93449 0.45706
 H1360 H 0.67160 0.92753 0.51553
 C1361 C 0.84748 0.94557 0.50211
 C1362 C 0.85065 0.95366 0.52000
 C1363 C 0.83820 0.94945 0.53501
 C1364 C 0.82263 0.93719 0.53217
 C1365 C 0.90913 0.99997 0.53040
 C1366 C 0.83192 0.93332 0.49923
 C1367 C 0.86665 0.96631 0.52292
 C1368 C 0.88005 0.97691 0.52533
 C1369 C 0.89574 0.98934 0.52809
 C1370 C 0.81931 0.92898 0.51423
 H1371 H 0.85706 0.94869 0.49040
 H1372 H 0.84049 0.95568 0.54890
 H1373 H 0.81305 0.93433 0.54393
 H1374 H 0.82990 0.92703 0.48533
 C1375 C 0.34564 0.44514 0.00174
 C1376 C 0.34867 0.45301 0.01975
 C1377 C 0.33619 0.44850 0.03465
 C1378 C 0.32074 0.43615 0.03157
 C1379 C 0.40681 0.49943 0.03146
 C1380 C 0.33019 0.43280 -0.00137
 C1381 C 0.36458 0.46570 0.02294
 C1382 C 0.37791 0.47633 0.02562
 C1383 C 0.39350 0.48879 0.02877
 C1384 C 0.31756 0.42816 0.01352
 H1385 H 0.35525 0.44850 -0.00988
 H1386 H 0.33837 0.45455 0.04863
 H1387 H 0.31114 0.43307 0.04326
 H1388 H 0.32828 0.42669 -0.01536
 C1389 C 0.55562 0.49944 0.34730
 C1390 C 0.54760 0.48142 0.35077
 C1391 C 0.55155 0.46618 0.33847
 C1392 C 0.56350 0.46893 0.32276
 C1393 C 0.50268 0.47140 0.40997
 C1394 C 0.56755 0.50223 0.33160
 C1395 C 0.53532 0.47859 0.36696
 C1396 C 0.52503 0.47627 0.38052
 C1397 C 0.51298 0.47362 0.39641
 C1398 C 0.57164 0.48699 0.31914
 H1399 H 0.55269 0.51132 0.35677
 H1400 H 0.54537 0.45218 0.34099
 H1401 H 0.56617 0.45698 0.31330
 H1402 H 0.57380 0.51623 0.32935
 C1403 C 0.06596 -0.01153 0.85150
 C1404 C 0.04920 -0.02235 0.84959
 C1405 C 0.04442 -0.03016 0.83194
 C1406 C 0.05627 -0.02707 0.81623
 C1407 C 0.00325 -0.03273 0.90794
 C1408 C 0.07785 -0.00843 0.83581
 C1409 C 0.03679 -0.02526 0.86566
 C1410 C 0.02629 -0.02765 0.87905
 C1411 C 0.01390 -0.03040 0.89466
 C1412 C 0.07310 -0.01611 0.81797
 H1413 H 0.06976 -0.00536 0.86509
 H1414 H 0.03151 -0.03860 0.83031
 H1415 H 0.05236 -0.03339 0.80275
 H1416 H 0.09056 0.00026 0.83756
 C1417 C 0.06034 0.03550 0.65568
 C1418 C 0.05120 0.02002 0.64689
 C1419 C 0.05424 0.00143 0.65360
 C1420 C 0.06629 -0.00169 0.66909
 C1421 C 0.00426 0.03146 0.58978
 C1422 C 0.07239 0.03242 0.67118
 C1423 C 0.03852 0.02322 0.63116
 C1424 C 0.02779 0.02586 0.61805
 C1425 C 0.01514 0.02889 0.60277
 C1426 C 0.07546 0.01378 0.67811
 H1427 H 0.05811 0.04995 0.65057
 H1428 H 0.04719 -0.01064 0.64695
 H1429 H 0.06815 -0.01616 0.67424
 H1430 H 0.07942 0.04459 0.67766
 C1431 C 0.55365 0.50204 0.15513
 C1432 C 0.54562 0.52012 0.15202
 C1433 C 0.54991 0.53525 0.16434
 C1434 C 0.56219 0.53233 0.17969
 C1435 C 0.49972 0.53120 0.09402
 C1436 C 0.56592 0.49908 0.17048
 C1437 C 0.53303 0.52316 0.13618
 C1438 C 0.52251 0.52570 0.12290
 C1439 C 0.51021 0.52866 0.10733
 C1440 C 0.57035 0.51420 0.18293
 H1441 H 0.55047 0.49025 0.14565
 H1442 H 0.54373 0.54929 0.16210
 H1443 H 0.56511 0.54418 0.18916
 H1444 H 0.57217 0.48504 0.17244
 C1445 C 0.45107 -0.03594 0.16550
 C1446 C 0.45538 -0.02081 0.15322
 C1447 C 0.44727 -0.00276 0.15635
 C1448 C 0.43488 0.00017 0.17170
 C1449 C 0.50156 -0.03187 0.09513
 C1450 C 0.43868 -0.03305 0.18085
 C1451 C 0.46806 -0.02383 0.13736
 C1452 C 0.47866 -0.02636 0.12406
 C1453 C 0.49103 -0.02932 0.10847
 C1454 C 0.43042 -0.01496 0.18412
 H1455 H 0.45732 -0.04996 0.16323
 H1456 H 0.45046 0.00903 0.14689
 H1457 H 0.42857 0.01419 0.17368
 H1458 H 0.43574 -0.04491 0.19029
 C1459 C 0.94461 0.49947 0.65351
 C1460 C 0.95264 0.48149 0.64983
 C1461 C 0.94868 0.46613 0.66195
 C1462 C 0.93671 0.46873 0.67768
 C1463 C 0.99725 0.47180 0.59031
 C1464 C 0.93265 0.50210 0.66923
 C1465 C 0.96488 0.47879 0.63358
 C1466 C 0.97510 0.47657 0.61995
 C1467 C 0.98705 0.47399 0.60397
 C1468 C 0.92854 0.48675 0.68149
 H1469 H 0.94753 0.51144 0.64419
 H1470 H 0.95487 0.45216 0.65926
 H1471 H 0.93403 0.45669 0.68698
 H1472 H 0.92638 0.51608 0.67164
 C1473 C 0.94527 0.50111 0.84581
 C1474 C 0.95323 0.51921 0.84904
 C1475 C 0.94895 0.53434 0.83678
 C1476 C 0.93674 0.53141 0.82136
 C1477 C 0.99907 0.53035 0.90712
 C1478 C 0.93307 0.49814 0.83039
 C1479 C 0.96578 0.52225 0.86492
 C1480 C 0.97628 0.52480 0.87823
 C1481 C 0.98857 0.52779 0.89382
 C1482 C 0.92865 0.51327 0.81799
 H1483 H 0.94845 0.48931 0.85524
 H1484 H 0.95508 0.54840 0.83911
 H1485 H 0.93383 0.54328 0.81193
 H1486 H 0.92688 0.48408 0.82833
 C1487 C 0.44565 0.00115 0.34754
 C1488 C 0.45369 0.01926 0.35052
 C1489 C 0.44941 0.03426 0.33811
 C1490 C 0.43713 0.03119 0.32277
 C1491 C 0.50005 0.03089 0.40811
 C1492 C 0.43339 -0.00196 0.33220
 C1493 C 0.46635 0.02243 0.36630
 C1494 C 0.47697 0.02510 0.37949
 C1495 C 0.48941 0.02822 0.39493
 C1496 C 0.42899 0.01303 0.31963
 H1497 H 0.44883 -0.01055 0.35709
 H1498 H 0.45560 0.04832 0.34026
 H1499 H 0.43424 0.04295 0.31321
 H1500 H 0.42716 -0.01603 0.33031
   
