data_POSCAR
  _audit_creation_date              2014-09-24
  _audit_creation_method            'ToBaCCo'
  _symmetry_space_group_name_H-M    'P1'
  _symmetry_Int_Tables_number       1
  _symmetry_cell_setting            triclinic
  loop_
  _symmetry_equiv_pos_as_xyz
 x,y,z
_cell_length_a 63.1105
_cell_length_b 66.6544
_cell_length_c 63.2154
_cell_angle_alpha 89.844200
_cell_angle_beta 90.737000
_cell_angle_gamma 89.428200
loop_
  _atom_site_label
  _atom_site_type_symbol
  _atom_site_fract_x
  _atom_site_fract_y
  _atom_site_fract_z
N1 N 0.30442 0.43790 0.90476
 N2 N 0.31021 0.45381 0.91554
 C3 C 0.31271 0.46931 0.90221
 C4 C 0.30838 0.46282 0.88193
 C5 C 0.30289 0.44282 0.88405
 H6 H 0.31777 0.48412 0.90693
 H7 H 0.29879 0.43253 0.87147
 Cu8 Cu 0.31562 0.45270 0.94588
 Cu9 Cu 0.30051 0.41237 0.91945
 Cu10 Cu 0.33048 0.40561 0.96357
 N11 N 0.33309 0.44823 0.97140
 N12 N 0.34202 0.43070 0.97587
 C13 C 0.35908 0.43379 0.98857
 C14 C 0.36044 0.45426 0.99252
 C15 C 0.34331 0.46274 0.98190
 H16 H 0.37018 0.42221 0.99363
 H17 H 0.34046 0.47858 0.97922
 N18 N 0.30778 0.38669 0.95568
 N19 N 0.29577 0.39009 0.93882
 C20 C 0.27953 0.37724 0.93866
 C21 C 0.28142 0.36484 0.95615
 C22 C 0.29966 0.37110 0.96659
 H23 H 0.26666 0.37752 0.92719
 H24 H 0.30552 0.36588 0.98182
 H25 H 0.30663 0.42448 0.95570
 H26 H 0.33037 0.42672 0.93871
 N27 N 0.45424 0.85312 0.44743
 N28 N 0.45579 0.86496 0.43087
 C29 C 0.46306 0.88292 0.43721
 C30 C 0.46573 0.88226 0.45899
 C31 C 0.46018 0.86308 0.46492
 H32 H 0.46527 0.89572 0.42694
 H33 H 0.45994 0.85691 0.48076
 Cu34 Cu 0.44675 0.85588 0.40304
 Cu35 Cu 0.44382 0.82596 0.44507
 Cu36 Cu 0.41440 0.81615 0.40001
 N37 N 0.44244 0.84134 0.37679
 N38 N 0.43008 0.82559 0.37552
 C39 C 0.43238 0.81700 0.35641
 C40 C 0.44693 0.82803 0.34525
 C41 C 0.45286 0.84343 0.35857
 H42 H 0.42508 0.80311 0.35154
 H43 H 0.46511 0.85436 0.35593
 N44 N 0.41024 0.80176 0.42673
 N45 N 0.42309 0.80427 0.44312
 C46 C 0.41583 0.79382 0.45960
 C47 C 0.39721 0.78471 0.45352
 C48 C 0.39415 0.78987 0.43248
 H49 H 0.42215 0.79497 0.47552
 H50 H 0.38045 0.78662 0.42265
 H51 H 0.44321 0.82050 0.41294
 H52 H 0.42208 0.83686 0.42425
 N53 N 0.92171 0.88306 0.82688
 N54 N 0.93854 0.88115 0.83920
 C55 C 0.95036 0.86561 0.83265
 C56 C 0.94061 0.85728 0.81515
 C57 C 0.92248 0.86882 0.81178
 H58 H 0.96622 0.86223 0.83839
 H59 H 0.91206 0.86835 0.79808
 Cu60 Cu 0.94671 0.90185 0.85892
 Cu61 Cu 0.90286 0.90645 0.82917
 Cu62 Cu 0.90982 0.93356 0.87576
 N63 N 0.95432 0.92650 0.87320
 N64 N 0.93975 0.93803 0.88170
 C65 C 0.94924 0.95270 0.89282
 C66 C 0.97090 0.95053 0.89050
 C67 C 0.97360 0.93376 0.87792
 H68 H 0.94098 0.96422 0.90161
 H69 H 0.98839 0.92674 0.87343
 N70 N 0.88388 0.93495 0.85835
 N71 N 0.88162 0.92585 0.83993
 C72 C 0.86370 0.93274 0.83042
 C73 C 0.85449 0.94684 0.84353
 C74 C 0.86756 0.94767 0.86116
 H75 H 0.85823 0.92845 0.81480
 H76 H 0.86620 0.95785 0.87437
 H77 H 0.92068 0.92652 0.84677
 H78 H 0.90807 0.90520 0.86080
 N79 N 0.43596 -0.11098 0.27394
 N80 N 0.45468 -0.10968 0.28313
 C81 C 0.46878 -0.12069 0.27211
 C82 C 0.45829 -0.12879 0.25484
 C83 C 0.43751 -0.12241 0.25655
 H84 H 0.48531 -0.12279 0.27638
 H85 H 0.42428 -0.12661 0.24650
 Cu86 Cu 0.45821 -0.09392 0.30882
 Cu87 Cu 0.41070 -0.09995 0.28687
 Cu88 Cu 0.42057 -0.05875 0.31877
 N89 N 0.46125 -0.07461 0.33154
 N90 N 0.44681 -0.06085 0.33570
 C91 C 0.45374 -0.04957 0.35211
 C92 C 0.47356 -0.05676 0.35836
 C93 C 0.47770 -0.07260 0.34496
 H94 H 0.44508 -0.03712 0.35889
 H95 H 0.49171 -0.08206 0.34498
 N96 N 0.39242 -0.06396 0.30550
 N97 N 0.38882 -0.08046 0.29458
 C98 C 0.36854 -0.08065 0.28811
 C99 C 0.35870 -0.06334 0.29495
 C100 C 0.37428 -0.05295 0.30593
 H101 H 0.36170 -0.09216 0.27820
 H102 H 0.37254 -0.03855 0.31358
 H103 H 0.42882 -0.07545 0.29215
 H104 H 0.42068 -0.08891 0.31661
 N105 N 0.79257 0.30166 0.34655
 N106 N 0.81190 0.29409 0.34598
 C107 C 0.81339 0.27867 0.35976
 C108 C 0.79410 0.27667 0.36970
 C109 C 0.78125 0.29157 0.36103
 H110 H 0.82750 0.26966 0.36258
 H111 H 0.76474 0.29439 0.36445
 Cu112 Cu 0.83345 0.30573 0.32776
 Cu113 Cu 0.78314 0.32260 0.32661
 Cu114 Cu 0.82390 0.35009 0.30497
 N115 N 0.85390 0.31733 0.30819
 N116 N 0.84998 0.33512 0.29991
 C117 C 0.86642 0.34068 0.28805
 C118 C 0.88153 0.32551 0.28859
 C119 C 0.87310 0.31084 0.30157
 H120 H 0.86713 0.35471 0.27947
 H121 H 0.88044 0.29667 0.30593
 N122 N 0.79393 0.35842 0.30274
 N123 N 0.77827 0.34783 0.31055
 C124 C 0.75974 0.35695 0.30536
 C125 C 0.76403 0.37396 0.29355
 C126 C 0.78583 0.37444 0.29228
 H127 H 0.74428 0.35159 0.30974
 H128 H 0.79512 0.38552 0.28410
 H129 H 0.80808 0.32347 0.30510
 H130 H 0.81103 0.33569 0.33147
 N131 N -0.17813 0.84848 0.80465
 N132 N -0.18203 0.85949 0.82140
 C133 C -0.19454 0.87510 0.81579
 C134 C -0.19921 0.87337 0.79451
 C135 C -0.18843 0.85642 0.78781
 H136 H -0.20115 0.88588 0.82671
 H137 H -0.18825 0.85017 0.77204
 Cu138 Cu -0.17555 0.84964 0.84952
 Cu139 Cu -0.15988 0.82489 0.80632
 Cu140 Cu -0.15811 0.80225 0.85554
 N141 N -0.18035 0.83477 0.87521
 N142 N -0.17482 0.81577 0.87713
 C143 C -0.18350 0.80829 0.89480
 C144 C -0.19525 0.82342 0.90414
 C145 C -0.19269 0.84005 0.89145
 H146 H -0.18242 0.79276 0.89975
 H147 H -0.20060 0.85445 0.89288
 N148 N -0.14584 0.78980 0.83012
 N149 N -0.14594 0.79884 0.81149
 C150 C -0.13425 0.78799 0.79795
 C151 C -0.12670 0.77122 0.80847
 C152 C -0.13436 0.77272 0.82880
 H153 H -0.13082 0.79233 0.78187
 H154 H -0.13067 0.76283 0.84195
 H155 H -0.17585 0.81701 0.83290
 H156 H -0.14826 0.82622 0.83705
 N157 N 0.93895 0.36704 0.43584
 N158 N 0.92152 0.36243 0.44586
 C159 C 0.91697 0.37698 0.45978
 C160 C 0.93240 0.39153 0.45838
 C161 C 0.94609 0.38478 0.44300
 H162 H 0.90373 0.37669 0.47045
 H163 H 0.96040 0.39197 0.43777
 Cu164 Cu 0.90695 0.33736 0.44101
 Cu165 Cu 0.95169 0.34887 0.41547
 Cu166 Cu 0.91892 0.31083 0.39805
 N167 N 0.89868 0.30945 0.43812
 N168 N 0.90331 0.29912 0.42109
 C169 C 0.89517 0.28063 0.42265
 C170 C 0.88496 0.27931 0.44176
 C171 C 0.88733 0.29787 0.45116
 H172 H 0.89609 0.26927 0.41050
 H173 H 0.88088 0.30271 0.46609
 N174 N 0.94422 0.31896 0.38298
 N175 N 0.95753 0.33251 0.39030
 C176 C 0.97481 0.33256 0.37805
 C177 C 0.97205 0.31835 0.36241
 C178 C 0.95248 0.31016 0.36584
 H179 H 0.98849 0.34193 0.38057
 H180 H 0.94533 0.29787 0.35728
 H181 H 0.92225 0.34157 0.40589
 H182 H 0.93648 0.32222 0.42228
 N183 N 0.43469 0.42159 0.85241
 N184 N 0.42992 0.44085 0.85273
 C185 C 0.43310 0.44787 0.87257
 C186 C 0.43977 0.43195 0.88526
 C187 C 0.44052 0.41559 0.87191
 H188 H 0.43046 0.46322 0.87747
 H189 H 0.44550 0.40047 0.87594
 Cu190 Cu 0.41925 0.45405 0.82700
 Cu191 Cu 0.43384 0.40546 0.82678
 Cu192 Cu 0.43342 0.43364 0.78086
 N193 N 0.40836 0.46470 0.80004
 N194 N 0.41547 0.45747 0.78211
 C195 C 0.40582 0.46699 0.76585
 C196 C 0.39139 0.48057 0.77388
 C197 C 0.39333 0.47875 0.79570
 H198 H 0.40781 0.46298 0.74942
 H199 H 0.38398 0.48646 0.80743
 N200 N 0.44120 0.40503 0.78157
 N201 N 0.44132 0.39416 0.79906
 C202 C 0.44578 0.37492 0.79414
 C203 C 0.44800 0.37364 0.77247
 C204 C 0.44493 0.39295 0.76499
 H205 H 0.44610 0.36258 0.80529
 H206 H 0.44451 0.39769 0.74861
 H207 H 0.44468 0.43001 0.81225
 H208 H 0.41659 0.42370 0.80577
 N209 N 0.79057 0.89606 0.97218
 N210 N 0.80854 0.89971 0.98212
 C211 C 0.80922 0.88931 1.00042
 C212 C 0.79082 0.87836 1.00189
 C213 C 0.77935 0.88294 0.98367
 H214 H 0.82271 0.88863 1.01113
 H215 H 0.76447 0.87645 0.97868
 Cu216 Cu 0.83085 0.91493 0.96881
 Cu217 Cu 0.78416 0.90718 0.94418
 Cu218 Cu 0.81836 0.94375 0.92639
 N219 N 0.85062 0.93422 0.95756
 N220 N 0.84555 0.94553 0.94116
 C221 C 0.86201 0.95736 0.93661
 C222 C 0.87822 0.95330 0.95096
 C223 C 0.87048 0.93857 0.96407
 H224 H 0.86216 0.96812 0.92378
 H225 H 0.87868 0.93163 0.97737
 N226 N 0.79024 0.93920 0.91340
 N227 N 0.77743 0.92497 0.91987
 C228 C 0.76011 0.92482 0.90715
 C229 C 0.76219 0.93961 0.89192
 C230 C 0.78146 0.94841 0.89634
 H231 H 0.74714 0.91445 0.90860
 H232 H 0.78880 0.96021 0.88733
 H233 H 0.81439 0.91434 0.93329
 H234 H 0.80128 0.93238 0.95157
 N235 N 0.28049 0.86770 0.30120
 N236 N 0.29485 0.86909 0.28642
 C237 C 0.28793 0.88180 0.27127
 C238 C 0.26828 0.88905 0.27699
 C239 C 0.26403 0.88001 0.29619
 H240 H 0.29648 0.88543 0.25706
 H241 H 0.24969 0.88155 0.30526
 Cu242 Cu 0.32079 0.85357 0.28790
 Cu243 Cu 0.28363 0.84793 0.32406
 Cu244 Cu 0.32912 0.81739 0.32386
 N245 N 0.34174 0.83283 0.28347
 N246 N 0.34546 0.81849 0.29740
 C247 C 0.36100 0.80639 0.28992
 C248 C 0.36687 0.81356 0.27017
 C249 C 0.35429 0.83030 0.26671
 H250 H 0.36733 0.79330 0.29805
 H251 H 0.35424 0.84002 0.25299
 N252 N 0.30683 0.81538 0.34594
 N253 N 0.28973 0.82704 0.34563
 C254 C 0.27685 0.82141 0.36125
 C255 C 0.28602 0.80550 0.37209
 C256 C 0.30518 0.80208 0.36211
 H257 H 0.26146 0.82801 0.36422
 H258 H 0.31645 0.79017 0.36563
 H259 H 0.31626 0.84602 0.32567
 H260 H 0.30301 0.82779 0.30785
 N261 N 0.84082 0.38012 0.42549
 N262 N 0.84262 0.38395 0.44583
 C263 C 0.83573 0.36789 0.45677
 C264 C 0.82927 0.35342 0.44238
 C265 C 0.83370 0.36142 0.42282
 H266 H 0.83271 0.36794 0.47358
 H267 H 0.82788 0.35579 0.40782
 Cu268 Cu 0.84957 0.41110 0.45573
 Cu269 Cu 0.83481 0.40159 0.40566
 Cu270 Cu 0.83246 0.44898 0.42175
 N271 N 0.85287 0.44002 0.46227
 N272 N 0.84490 0.45424 0.44983
 C273 C 0.85019 0.47224 0.45762
 C274 C 0.86259 0.46934 0.47550
 C275 C 0.86415 0.44872 0.47798
 H276 H 0.84713 0.48639 0.44970
 H277 H 0.87373 0.44069 0.48959
 N278 N 0.81663 0.43990 0.39702
 N279 N 0.81768 0.42119 0.39059
 C280 C 0.80375 0.41852 0.37459
 C281 C 0.79372 0.43663 0.37070
 C282 C 0.80243 0.45000 0.38491
 H283 H 0.80072 0.40435 0.36685
 H284 H 0.79801 0.46558 0.38698
 H285 H 0.85453 0.42563 0.42719
 H286 H 0.82662 0.42204 0.43582
 N287 N 0.94432 0.85086 -0.05651
 N288 N 0.95377 0.84825 -0.07473
 C289 C 0.96842 0.86259 -0.07716
 C290 C 0.96802 0.87485 -0.05953
 C291 C 0.95251 0.86703 -0.04678
 H292 H 0.97873 0.86383 -0.09062
 H293 H 0.94770 0.87258 -0.03150
 Cu294 Cu 0.94673 0.82592 -0.09321
 Cu295 Cu 0.92187 0.83321 -0.04723
 Cu296 Cu 0.91351 0.79018 -0.07651
 N297 N 0.94670 0.79929 -0.10572
 N298 N 0.93425 0.78515 -0.09859
 C299 C 0.93781 0.76818 -0.10951
 C300 C 0.95329 0.77190 -0.12430
 C301 C 0.95852 0.79182 -0.12154
 H302 H 0.92946 0.75429 -0.10713
 H303 H 0.97010 0.80021 -0.13030
 N304 N 0.89826 0.79602 -0.05007
 N305 N 0.90234 0.81196 -0.03839
 C306 C 0.89038 0.81137 -0.02093
 C307 C 0.87790 0.79449 -0.02185
 C308 C 0.88317 0.78511 -0.04056
 H309 H 0.89027 0.82267 -0.00870
 H310 H 0.87669 0.77128 -0.04662
 H311 H 0.93503 0.80837 -0.06181
 H312 H 0.91243 0.82106 -0.07576
 N313 N 0.30744 0.36129 0.79485
 N314 N 0.32670 0.35859 0.78763
 C315 C 0.33224 0.37486 0.77642
 C316 C 0.31552 0.38841 0.77686
 C317 C 0.30005 0.37936 0.78862
 H318 H 0.34731 0.37675 0.76873
 H319 H 0.28456 0.38539 0.79232
 Cu320 Cu 0.34257 0.33407 0.79361
 Cu321 Cu 0.29335 0.34106 0.81148
 Cu322 Cu 0.32953 0.31130 0.83893
 N323 N 0.35905 0.31168 0.80492
 N324 N 0.35412 0.30318 0.82297
 C325 C 0.36839 0.28872 0.82767
 C326 C 0.38285 0.28796 0.81151
 C327 C 0.37656 0.30273 0.79734
 H328 H 0.36808 0.27937 0.84167
 H329 H 0.38426 0.30676 0.78276
 N330 N 0.29977 0.31434 0.84701
 N331 N 0.28577 0.32517 0.83617
 C332 C 0.26662 0.32332 0.84503
 C333 C 0.26882 0.31050 0.86209
 C334 C 0.28993 0.30508 0.86294
 H335 H 0.25225 0.33064 0.83939
 H336 H 0.29750 0.29492 0.87414
 H337 H 0.32197 0.33912 0.82561
 H338 H 0.31420 0.31598 0.81090
 N339 N 0.15111 0.56495 0.53600
 N340 N 0.14331 0.55631 0.55287
 C341 C 0.12890 0.54259 0.54687
 C342 C 0.12784 0.54244 0.52504
 C343 C 0.14207 0.55688 0.51863
 H344 H 0.11999 0.53332 0.55758
 H345 H 0.14527 0.56150 0.50257
 Cu346 Cu 0.15340 0.56324 0.58104
 Cu347 Cu 0.17166 0.58667 0.53833
 Cu348 Cu 0.20151 0.58434 0.58487
 N349 N 0.16995 0.56218 0.60704
 N350 N 0.18917 0.56952 0.60841
 C351 C 0.19754 0.56489 0.62761
 C352 C 0.18270 0.55402 0.63870
 C353 C 0.16540 0.55268 0.62515
 H354 H 0.21336 0.56868 0.63291
 H355 H 0.15088 0.54464 0.62785
 N356 N 0.21057 0.59903 0.55928
 N357 N 0.19853 0.60122 0.54216
 C358 C 0.20833 0.61342 0.52836
 C359 C 0.22765 0.61874 0.53709
 C360 C 0.22857 0.60934 0.55660
 H361 H 0.20218 0.61762 0.51291
 H362 H 0.24127 0.61039 0.56817
 H363 H 0.18542 0.56919 0.56115
 H364 H 0.17346 0.59311 0.57074
 N365 N 0.60753 0.67105 0.05007
 N366 N 0.60302 0.68422 0.06483
 C367 C 0.61112 0.70212 0.05926
 C368 C 0.62044 0.69986 0.03968
 C369 C 0.61794 0.68004 0.03439
 H370 H 0.60973 0.71578 0.06837
 H371 H 0.62333 0.67269 0.02017
 Cu372 Cu 0.58570 0.67675 0.08909
 Cu373 Cu 0.59893 0.64353 0.05178
 Cu374 Cu 0.56073 0.63033 0.08446
 N375 N 0.56231 0.66811 0.10760
 N376 N 0.55273 0.65069 0.10532
 C377 C 0.53637 0.64982 0.11862
 C378 C 0.53568 0.66736 0.13004
 C379 C 0.55235 0.67867 0.12277
 H380 H 0.52544 0.63747 0.11959
 H381 H 0.55641 0.69371 0.12763
 N382 N 0.56710 0.61490 0.05928
 N383 N 0.58251 0.61986 0.04660
 C384 C 0.58274 0.60737 0.02995
 C385 C 0.56652 0.59387 0.03244
 C386 C 0.55701 0.59890 0.05127
 H387 H 0.59339 0.60852 0.01675
 H388 H 0.54338 0.59188 0.05826
 H389 H 0.56900 0.65721 0.07034
 H390 H 0.58854 0.64601 0.08929
 N391 N 0.70063 0.19408 0.64244
 N392 N 0.71705 0.18815 0.65394
 C393 C 0.73428 0.19839 0.64768
 C394 C 0.72804 0.21117 0.63136
 C395 C 0.70675 0.20786 0.62833
 H396 H 0.74981 0.19732 0.65505
 H397 H 0.69615 0.21602 0.61773
 Cu398 Cu 0.71331 0.16856 0.67678
 Cu399 Cu 0.67192 0.18676 0.64934
 Cu400 Cu 0.66499 0.16525 0.69836
 N401 N 0.70596 0.14632 0.69558
 N402 N 0.68696 0.14469 0.70378
 C403 C 0.68685 0.12878 0.71708
 C404 C 0.70686 0.12004 0.71719
 C405 C 0.71855 0.13166 0.70352
 H406 H 0.67372 0.12479 0.72703
 H407 H 0.73530 0.13011 0.70042
 N408 N 0.64279 0.18174 0.68401
 N409 N 0.64504 0.18819 0.66442
 C410 C 0.62894 0.20069 0.65938
 C411 C 0.61621 0.20276 0.67678
 C412 C 0.62522 0.19032 0.69212
 H413 H 0.62804 0.20946 0.64498
 H414 H 0.62030 0.18885 0.70837
 H415 H 0.68063 0.18735 0.68098
 H416 H 0.67588 0.16193 0.66948
 N417 N 1.08942 0.08858 0.20394
 N418 N 1.09164 0.06974 0.19824
 C419 C 1.11038 0.06265 0.20587
 C420 C 1.12022 0.07790 0.21700
 C421 C 1.10646 0.09411 0.21541
 H422 H 1.11633 0.04753 0.20375
 H423 H 1.10865 0.10887 0.22211
 Cu424 Cu 1.06956 0.05683 0.18124
 Cu425 Cu 1.06502 0.10500 0.19565
 Cu426 Cu 1.02255 0.07989 0.17308
 N427 N 1.04684 0.04411 0.16503
 N428 N 1.02895 0.05366 0.16065
 C429 C 1.01666 0.04189 0.14831
 C430 C 1.02725 0.02387 0.14527
 C431 C 1.04631 0.02580 0.15608
 H432 H 1.00107 0.04597 0.14233
 H433 H 1.05905 0.01485 0.15684
 N434 N 1.02056 0.10805 0.18293
 N435 N 1.03681 0.11741 0.19166
 C436 C 1.03056 0.13588 0.19769
 C437 C 1.00943 0.13839 0.19242
 C438 C 1.00355 0.12050 0.18298
 H439 H 1.04059 0.14671 0.20551
 H440 H 0.98799 0.11677 0.17692
 H441 H 1.04532 0.08088 0.19728
 H442 H 1.05295 0.08851 0.17005
 N443 N 0.05868 0.12532 1.08042
 N444 N 0.04513 0.13185 1.09449
 C445 C 0.03033 0.11782 1.09760
 C446 C 0.03483 0.10177 1.08460
 C447 C 0.05301 0.10689 1.07406
 H448 H 0.01644 0.11989 1.10722
 H449 H 0.06074 0.09842 1.06174
 Cu450 Cu 0.04503 0.15942 1.10395
 Cu451 Cu 0.08129 0.14191 1.06992
 Cu452 Cu 0.07676 0.19266 1.08099
 N453 N 0.03799 0.18769 1.10304
 N454 N 0.04982 0.20051 1.09285
 C455 C 0.04166 0.21907 1.09504
 C456 C 0.02381 0.21773 1.10735
 C457 C 0.02199 0.19765 1.11228
 H458 H 0.04926 0.23264 1.08975
 H459 H 0.01061 0.19094 1.12275
 N460 N 0.09839 0.18153 1.06229
 N461 N 0.09942 0.16233 1.05729
 C462 C 0.11338 0.15989 1.04162
 C463 C 0.12162 0.17840 1.03681
 C464 C 0.11202 0.19178 1.05027
 H465 H 0.11665 0.14584 1.03372
 H466 H 0.11355 0.20793 1.05011
 H467 H 0.08205 0.16395 1.09277
 H468 H 0.06219 0.16710 1.07092
 N469 N 0.15546 0.71492 0.67980
 N470 N 0.14947 0.70489 0.69672
 C471 C 0.13305 0.71451 0.70557
 C472 C 0.12848 0.73139 0.69376
 C473 C 0.14297 0.73134 0.67753
 H474 H 0.12463 0.70939 0.71933
 H475 H 0.14379 0.74200 0.66465
 Cu476 Cu 0.16264 0.67961 0.70619
 Cu477 Cu 0.17817 0.70508 0.66116
 Cu478 Cu 0.20118 0.66142 0.67556
 N479 N 0.18115 0.65796 0.71560
 N480 N 0.19593 0.65049 0.70338
 C481 C 0.20534 0.63484 0.71324
 C482 C 0.19591 0.63244 0.73265
 C483 C 0.18061 0.64733 0.73371
 H484 H 0.21779 0.62562 0.70663
 H485 H 0.16947 0.64982 0.74631
 N486 N 0.21258 0.67784 0.65321
 N487 N 0.20368 0.69498 0.64754
 C488 C 0.21451 0.70279 0.63130
 C489 C 0.23114 0.68989 0.62680
 C490 C 0.22947 0.67423 0.64100
 H491 H 0.21045 0.71664 0.62319
 H492 H 0.23952 0.66103 0.64213
 H493 H 0.16672 0.67903 0.67380
 H494 H 0.18710 0.69247 0.68976
 N495 N 1.20241 0.15831 0.21000
 N496 N 1.22021 0.16421 0.20152
 C497 C 1.23666 0.15657 0.21273
 C498 C 1.22875 0.14493 0.22893
 C499 C 1.20693 0.14620 0.22661
 H500 H 1.25311 0.15809 0.20845
 H501 H 1.19527 0.13841 0.23586
 Cu502 Cu 1.22013 0.17836 0.17464
 Cu503 Cu 1.17497 0.16595 0.19757
 Cu504 Cu 1.17621 0.20253 0.15820
 N505 N 1.21610 0.18608 0.14516
 N506 N 1.19927 0.19624 0.13861
 C507 C 1.20080 0.19955 0.11759
 C508 C 1.21940 0.19063 0.11071
 C509 C 1.22868 0.18228 0.12864
 H510 H 1.18895 0.20723 0.10796
 H511 H 1.24346 0.17395 0.12962
 N512 N 1.15087 0.19766 0.17539
 N513 N 1.15018 0.18273 0.18916
 C514 C 1.13063 0.18197 0.19723
 C515 C 1.11849 0.19724 0.18840
 C516 C 1.13178 0.20704 0.17464
 H517 H 1.12563 0.17128 0.20902
 H518 H 1.12769 0.21950 0.16432
 H519 H 1.18237 0.17424 0.16702
 H520 H 1.18745 0.19278 0.18846
 N521 N 0.65397 1.05356 0.57111
 N522 N 0.65679 1.06795 0.55698
 C523 C 0.64622 1.06329 0.53913
 C524 C 0.63602 1.04535 0.54218
 C525 C 0.64111 1.03953 0.56265
 H526 H 0.64560 1.07245 0.52498
 H527 H 0.63640 1.02590 0.57054
 Cu528 Cu 0.67255 1.09294 0.56270
 Cu529 Cu 0.66837 1.05381 0.59915
 Cu530 Cu 0.68800 1.09822 0.61247
 N531 N 0.68175 1.11888 0.57375
 N532 N 0.68583 1.12117 0.59403
 C533 C 0.69532 1.13881 0.59721
 C534 C 0.69819 1.14785 0.57781
 C535 C 0.68896 1.13501 0.56322
 H536 H 0.70280 1.14297 0.61200
 H537 H 0.69007 1.13599 0.54619
 N538 N 0.69968 1.07381 0.62427
 N539 N 0.69213 1.05602 0.61963
 C540 C 0.70437 1.04196 0.62945
 C541 C 0.72070 1.05173 0.64002
 C542 C 0.71704 1.07183 0.63654
 H543 H 0.70208 1.02593 0.62831
 H544 H 0.72644 1.08419 0.64234
 H545 H 0.65949 1.08395 0.59120
 H546 H 0.68603 1.07354 0.58438
 N547 N 0.57411 0.56747 0.14358
 N548 N 0.55374 0.57194 0.14537
 C549 C 0.54272 0.56054 0.13138
 C550 C 0.55698 0.54837 0.12065
 C551 C 0.57657 0.55333 0.12877
 H552 H 0.52562 0.55997 0.13029
 H553 H 0.59148 0.54605 0.12517
 Cu554 Cu 0.54324 0.59065 0.16780
 Cu555 Cu 0.59668 0.57705 0.16261
 Cu556 Cu 0.58099 0.60785 0.20042
 N557 N 0.53624 0.60536 0.19401
 N558 N 0.55149 0.61142 0.20677
 C559 C 0.54318 0.62030 0.22380
 C560 C 0.52149 0.62024 0.22168
 C561 C 0.51744 0.61098 0.20236
 H562 H 0.55231 0.62698 0.23651
 H563 H 0.50211 0.60861 0.19498
 N564 N 0.60887 0.59583 0.20134
 N565 N 0.61469 0.58269 0.18707
 C566 C 0.63329 0.57425 0.19316
 C567 C 0.63923 0.58262 0.21230
 C568 C 0.62348 0.59638 0.21694
 H569 H 0.64134 0.56233 0.18479
 H570 H 0.62191 0.60500 0.23131
 H571 H 0.57012 0.57824 0.18135
 H572 H 0.57371 0.59960 0.16294
 N573 N 0.65155 0.67539 0.21771
 N574 N 0.64431 0.68386 0.20018
 C575 C 0.62441 0.69070 0.20335
 C576 C 0.61895 0.68616 0.22393
 C577 C 0.63657 0.67653 0.23258
 H578 H 0.61453 0.69803 0.19148
 H579 H 0.63835 0.67056 0.24843
 Cu580 Cu 0.66144 0.68439 0.17470
 Cu581 Cu 0.67975 0.66304 0.21989
 Cu582 Cu 0.69461 0.64494 0.17143
 N583 N 0.67590 0.67791 0.14844
 N584 N 0.68709 0.66124 0.14716
 C585 C 0.69485 0.65940 0.12766
 C586 C 0.68890 0.67613 0.11614
 C587 C 0.67686 0.68773 0.12975
 H588 H 0.70563 0.64759 0.12284
 H589 H 0.66979 0.70228 0.12648
 N590 N 0.70882 0.63698 0.19790
 N591 N 0.70331 0.64368 0.21668
 C592 C 0.71673 0.63584 0.23141
 C593 C 0.73175 0.62435 0.22105
 C594 C 0.72618 0.62531 0.19995
 H595 H 0.71584 0.63857 0.24823
 H596 H 0.73416 0.61796 0.18701
 H597 H 0.69340 0.66989 0.19045
 H598 H 0.67027 0.65254 0.19199
 N599 N 0.14867 0.05797 1.05959
 N600 N 0.15051 0.05564 1.08019
 C601 C 0.13752 0.04104 1.08661
 C602 C 0.12667 0.03404 1.06913
 C603 C 0.13394 0.04516 1.05222
 H604 H 0.13578 0.03622 1.10284
 H605 H 0.12895 0.04397 1.03584
 Cu606 Cu 0.16931 0.07203 1.09684
 Cu607 Cu 0.16568 0.07765 1.04447
 Cu608 Cu 0.20563 0.10068 1.07380
 N609 N 0.19441 0.08039 1.11190
 N610 N 0.20897 0.09132 1.10285
 C611 C 0.22542 0.09350 1.11641
 C612 C 0.22082 0.08313 1.13473
 C613 C 0.20107 0.07507 1.13137
 H614 H 0.23992 0.10127 1.11284
 H615 H 0.19258 0.06530 1.14193
 N616 N 0.20249 0.10371 1.04293
 N617 N 0.18758 0.09478 1.03162
 C618 C 0.18925 0.10060 1.01127
 C619 C 0.20590 0.11388 1.00987
 C620 C 0.21391 0.11548 1.03017
 H621 H 0.17842 0.09647 0.99866
 H622 H 0.22649 0.12526 1.03538
 H623 H 0.19070 0.07447 1.06552
 H624 H 0.17354 0.09709 1.06847
 N625 N 0.60172 0.21190 0.56541
 N626 N 0.60782 0.20113 0.54914
 C627 C 0.62723 0.20710 0.54323
 C628 C 0.63349 0.22252 0.55643
 C629 C 0.61691 0.22519 0.57031
 H630 H 0.63599 0.20097 0.53012
 H631 H 0.61586 0.23607 0.58292
 Cu632 Cu 0.58914 0.18121 0.53658
 Cu633 Cu 0.57409 0.20836 0.57838
 Cu634 Cu 0.55176 0.16205 0.56766
 N635 N 0.57106 0.15946 0.52696
 N636 N 0.55653 0.15193 0.53931
 C637 C 0.54734 0.13626 0.52960
 C638 C 0.55652 0.13393 0.51005
 C639 C 0.57152 0.14889 0.50885
 H640 H 0.53535 0.12689 0.53652
 H641 H 0.58248 0.15138 0.49612
 N642 N 0.54273 0.17925 0.59116
 N643 N 0.55081 0.19708 0.59499
 C644 C 0.54108 0.20512 0.61187
 C645 C 0.52609 0.19172 0.61880
 C646 C 0.52755 0.17550 0.60535
 H647 H 0.54487 0.21947 0.61883
 H648 H 0.51835 0.16192 0.60591
 H649 H 0.57910 0.17891 0.57368
 H650 H 0.55763 0.19014 0.55672
 N651 N 0.10460 0.56456 0.72057
 N652 N 0.10362 0.54767 0.70991
 C653 C 0.11219 0.53271 0.72146
 C654 C 0.11938 0.54051 0.74031
 C655 C 0.11463 0.56088 0.73924
 H656 H 0.11441 0.51747 0.71600
 H657 H 0.11857 0.57216 0.75087
 Cu658 Cu 0.09425 0.54683 0.68089
 Cu659 Cu 0.09240 0.58960 0.70872
 Cu660 Cu 0.07804 0.58743 0.65509
 N661 N 0.07753 0.54475 0.65524
 N662 N 0.07140 0.56079 0.64464
 C663 C 0.06113 0.55510 0.62686
 C664 C 0.06077 0.53437 0.62656
 C665 C 0.07131 0.52829 0.64478
 H666 H 0.05470 0.56526 0.61498
 H667 H 0.07457 0.51307 0.64990
 N668 N 0.07572 0.61186 0.67226
 N669 N 0.07980 0.61275 0.69279
 C670 C 0.07215 0.63039 0.70019
 C671 C 0.06280 0.64083 0.68344
 C672 C 0.06566 0.62871 0.66606
 H673 H 0.07196 0.63466 0.71668
 H674 H 0.05917 0.63111 0.65034
 H675 H 0.07315 0.57687 0.68537
 H676 H 0.10097 0.58316 0.67889
 N677 N 0.64916 0.54215 0.05645
 N678 N 0.64717 0.55372 0.03963
 C679 C 0.63491 0.54456 0.02513
 C680 C 0.62852 0.52645 0.03340
 C681 C 0.63770 0.52537 0.05337
 H682 H 0.63116 0.55045 0.00955
 H683 H 0.63713 0.51284 0.06425
 Cu684 Cu 0.66124 0.57940 0.03776
 Cu685 Cu 0.66920 0.54857 0.07935
 Cu686 Cu 0.69760 0.59286 0.07324
 N687 N 0.68023 0.60153 0.03206
 N688 N 0.69459 0.60692 0.04612
 C689 C 0.70478 0.62321 0.03888
 C690 C 0.69639 0.62820 0.01918
 C691 C 0.68084 0.61410 0.01537
 H692 H 0.71703 0.63111 0.04750
 H693 H 0.67036 0.61337 0.00174
 N694 N 0.70169 0.57438 0.09752
 N695 N 0.69055 0.55790 0.10033
 C696 C 0.69770 0.54847 0.11802
 C697 C 0.71425 0.55942 0.12648
 C698 C 0.71628 0.57571 0.11313
 H699 H 0.69205 0.53423 0.12377
 H700 H 0.72793 0.58743 0.11445
 H701 H 0.66839 0.57908 0.07605
 H702 H 0.68893 0.56559 0.06060
 N703 N 0.06298 0.71353 0.59253
 N704 N 0.04874 0.70002 0.59733
 C705 C 0.03374 0.70858 0.60942
 C706 C 0.03864 0.72863 0.61189
 C707 C 0.05723 0.73127 0.60091
 H708 H 0.02056 0.70075 0.61629
 H709 H 0.06660 0.74476 0.60018
 Cu710 Cu 0.05140 0.67250 0.58735
 Cu711 Cu 0.08919 0.70654 0.57788
 Cu712 Cu 0.10083 0.65601 0.58102
 N713 N 0.05706 0.64620 0.57496
 N714 N 0.07665 0.63947 0.57359
 C715 C 0.07684 0.62250 0.56220
 C716 C 0.05639 0.61850 0.55572
 C717 C 0.04409 0.63371 0.56425
 H718 H 0.09106 0.61494 0.55691
 H719 H 0.02748 0.63667 0.56098
 N720 N 0.12251 0.67628 0.57627
 N721 N 0.11795 0.69543 0.57309
 C722 C 0.13485 0.70433 0.56431
 C723 C 0.15053 0.68989 0.56160
 C724 C 0.14228 0.67246 0.56974
 H725 H 0.13485 0.71951 0.55822
 H726 H 0.14904 0.65755 0.56836
 H727 H 0.08322 0.67781 0.56689
 H728 H 0.08803 0.68169 0.59576
 N729 N 0.54745 1.06083 0.64278
 N730 N 0.54658 1.07910 0.63464
 C731 C 0.53547 1.07859 0.61621
 C732 C 0.52810 1.05920 0.61349
 C733 C 0.53570 1.04856 0.63080
 H734 H 0.53279 1.09131 0.60582
 H735 H 0.53497 1.03249 0.63307
 Cu736 Cu 0.55966 1.10175 0.64998
 Cu737 Cu 0.56918 1.05210 0.66370
 Cu738 Cu 0.59979 1.08826 0.68235
 N739 N 0.56644 1.11717 0.67588
 N740 N 0.58244 1.11151 0.68813
 C741 C 0.58286 1.12262 0.70573
 C742 C 0.56606 1.13597 0.70484
 C743 C 0.55599 1.13234 0.68555
 H744 H 0.59411 1.12042 0.71859
 H745 H 0.54173 1.13955 0.67946
 N746 N 0.60951 1.06082 0.68240
 N747 N 0.59752 1.04641 0.67492
 C748 C 0.60778 1.02875 0.67743
 C749 C 0.62712 1.03252 0.68704
 C750 C 0.62772 1.05297 0.69005
 H751 H 0.60151 1.01432 0.67287
 H752 H 0.64037 1.06150 0.69729
 H753 H 0.56289 1.08066 0.67269
 H754 H 0.58163 1.07697 0.65055
 N755 N 0.43703 0.35446 0.94315
 N756 N 0.41806 0.35142 0.95078
 C757 C 0.41692 0.35927 0.97033
 C758 C 0.43621 0.36796 0.97503
 C759 C 0.44858 0.36472 0.95741
 H760 H 0.40290 0.35920 0.98001
 H761 H 0.46471 0.36954 0.95508
 Cu762 Cu 0.39660 0.33799 0.93409
 Cu763 Cu 0.44499 0.34445 0.91536
 Cu764 Cu 0.41574 0.30257 0.90168
 N765 N 0.37870 0.31708 0.92305
 N766 N 0.38665 0.30205 0.91220
 C767 C 0.37320 0.28651 0.91325
 C768 C 0.35576 0.29237 0.92494
 C769 C 0.35978 0.31191 0.93066
 H770 H 0.37705 0.27139 0.90831
 H771 H 0.35152 0.32024 0.94274
 N772 N 0.44295 0.30954 0.88806
 N773 N 0.45377 0.32568 0.89332
 C774 C 0.47078 0.32718 0.88090
 C775 C 0.47074 0.31125 0.86702
 C776 C 0.45288 0.30033 0.87193
 H777 H 0.48207 0.33926 0.88162
 H778 H 0.44720 0.28709 0.86387
 H779 H 0.41647 0.33303 0.90170
 H780 H 0.42891 0.32010 0.92504
 N781 N 0.94513 0.45220 0.34650
 N782 N 0.92690 0.44992 0.35604
 C783 C 0.92628 0.46181 0.37323
 C784 C 0.94465 0.47294 0.37370
 C785 C 0.95615 0.46664 0.35638
 H786 H 0.91297 0.46313 0.38377
 H787 H 0.97187 0.47134 0.35202
 Cu788 Cu 0.90466 0.43433 0.34275
 Cu789 Cu 0.95399 0.43476 0.32334
 Cu790 Cu 0.91842 0.39782 0.30955
 N791 N 0.88465 0.42438 0.32161
 N792 N 0.88994 0.40950 0.30905
 C793 C 0.87430 0.40663 0.29478
 C794 C 0.85854 0.42073 0.29832
 C795 C 0.86552 0.43167 0.31557
 H796 H 0.87511 0.39612 0.28180
 H797 H 0.85787 0.44469 0.32239
 N798 N 0.94837 0.39629 0.30217
 N799 N 0.96209 0.41040 0.30714
 C800 C 0.98144 0.40462 0.30047
 C801 C 0.97952 0.38619 0.29058
 C802 C 0.95837 0.38141 0.29192
 H803 H 0.99585 0.41300 0.30292
 H804 H 0.95086 0.36788 0.28629
 H805 H 0.92496 0.42742 0.31082
 H806 H 0.93493 0.41310 0.33437
 N807 N 0.28935 0.92732 0.40093
 N808 N 0.29575 0.94600 0.40164
 C809 C 0.28550 0.95674 0.38659
 C810 C 0.27182 0.94410 0.37604
 C811 C 0.27463 0.92550 0.38548
 H812 H 0.28812 0.97245 0.38329
 H813 H 0.26704 0.91161 0.38109
 Cu814 Cu 0.31788 0.95410 0.42110
 Cu815 Cu 0.30196 0.90688 0.41925
 Cu816 Cu 0.33480 0.92353 0.46015
 N817 N 0.34504 0.95772 0.43492
 N818 N 0.35226 0.94612 0.45031
 C819 C 0.37178 0.95259 0.45620
 C820 C 0.37683 0.96894 0.44350
 C821 C 0.35940 0.97163 0.43032
 H822 H 0.38163 0.94572 0.46839
 H823 H 0.35725 0.98274 0.41797
 N824 N 0.31965 0.89748 0.46110
 N825 N 0.30848 0.89087 0.44476
 C826 C 0.29829 0.87414 0.45040
 C827 C 0.30301 0.86993 0.47124
 C828 C 0.31650 0.88510 0.47773
 H829 H 0.28636 0.86683 0.44079
 H830 H 0.32212 0.88783 0.49369
 H831 H 0.30561 0.92720 0.44373
 H832 H 0.33019 0.92009 0.42933
 O833 O 0.20871 0.51128 0.71523
 O834 O 0.22018 0.47809 0.71440
 O835 O 0.19653 0.52544 0.77865
 O836 O 0.21385 0.52086 0.81000
 O837 O 0.23350 0.56484 0.74327
 O838 O 0.26852 0.56561 0.73159
 O839 O 0.27786 0.47993 0.80677
 O840 O 0.24274 0.47529 0.81116
 O841 O 0.29115 0.46651 0.74267
 O842 O 0.27497 0.47537 0.70900
 O843 O 0.31471 0.51573 0.76939
 O844 O 0.30198 0.55049 0.77487
 O845 O 0.29646 0.50890 0.80375
 O846 O 0.28581 0.54569 0.80168
 O847 O 0.31064 0.49863 0.73858
 O848 O 0.28827 0.50252 0.70500
 O849 O 0.27680 0.45802 0.77426
 O850 O 0.23720 0.45604 0.77993
 O851 O 0.22788 0.53971 0.71028
 O852 O 0.26622 0.54535 0.70642
 O853 O 0.21934 0.55748 0.77529
 O854 O 0.23635 0.54575 0.80858
 O855 O 0.19252 0.50314 0.75168
 O856 O 0.20896 0.46907 0.74715
 Zr857 Zr 0.22348 0.49704 0.74105
 O858 O 0.25122 0.48070 0.74872
 Zr859 Zr 0.22962 0.52794 0.78168
 O860 O 0.25689 0.51212 0.79188
 Zr861 Zr 0.25092 0.53907 0.73522
 O862 O 0.27972 0.52480 0.74398
 Zr863 Zr 0.25614 0.48214 0.78151
 O864 O 0.22721 0.49721 0.77413
 Zr865 Zr 0.27776 0.49454 0.73552
 O866 O 0.24966 0.50913 0.72515
 Zr867 Zr 0.28353 0.52422 0.77716
 O868 O 0.25633 0.54137 0.76819
 O869 O 0.22436 0.52719 0.74926
 O870 O 0.28310 0.49435 0.76811
 C871 C 0.21272 0.52764 0.70535
 C872 C 0.18518 0.51491 0.76597
 C873 C 0.22240 0.56924 0.75952
 C874 C 0.29217 0.49220 0.81300
 C875 C 0.28914 0.45477 0.75856
 C876 C 0.32205 0.50611 0.75348
 H877 H 0.24980 0.46663 0.74401
 H878 H 0.29163 0.53150 0.73696
 H879 H 0.21141 0.53470 0.74495
 H880 H 0.25782 0.51290 0.80748
 H881 H 0.22729 0.47775 0.80966
 H882 H 0.22279 0.51086 0.81759
 H883 H 0.29668 0.51492 0.70636
 H884 H 0.26405 0.53357 0.69716
 H885 H 0.24426 0.44547 0.78864
 H886 H 0.19455 0.46922 0.74068
 H887 H 0.30642 0.55191 0.76000
 H888 H 0.27463 0.56857 0.74573
 H889 H 0.23176 0.48155 0.70467
 H890 H 0.26446 0.46498 0.71239
 H891 H 0.24587 0.55657 0.80391
 H892 H 0.27876 0.54009 0.81424
 O893 O 0.19916 0.05785 0.26228
 O894 O 0.20064 0.04439 0.29655
 O895 O 0.26467 0.07259 0.25124
 O896 O 0.29590 0.05656 0.25157
 O897 O 0.22869 0.04274 0.20379
 O898 O 0.21818 0.00845 0.19844
 O899 O 0.29199 -0.00986 0.28826
 O900 O 0.29805 0.02418 0.29538
 O901 O 0.22933 -0.02204 0.30104
 O902 O 0.19485 -0.00659 0.29147
 O903 O 0.25336 -0.03849 0.24144
 O904 O 0.26241 -0.02131 0.20956
 O905 O 0.28672 -0.02528 0.25651
 O906 O 0.28948 -0.00791 0.21969
 O907 O 0.22835 -0.03844 0.26702
 O908 O 0.19267 -0.01923 0.26176
 O909 O 0.26105 -0.00904 0.31125
 O910 O 0.26690 0.02762 0.31715
 O911 O 0.19494 0.04258 0.23028
 O912 O 0.19255 0.00869 0.21866
 O913 O 0.26063 0.05560 0.21368
 O914 O 0.29415 0.03783 0.22380
 O915 O 0.23454 0.07455 0.27062
 O916 O 0.23364 0.05600 0.30573
 Zr917 Zr 0.22641 0.04410 0.27544
 O918 O 0.23492 0.01638 0.28961
 Zr919 Zr 0.26734 0.04217 0.24312
 O920 O 0.27810 0.01487 0.25639
 Zr921 Zr 0.22105 0.02256 0.22824
 O922 O 0.23001 -0.00585 0.24017
 Zr923 Zr 0.26791 0.01234 0.28776
 O924 O 0.25971 0.04108 0.27543
 Zr925 Zr 0.22208 -0.00761 0.27229
 O926 O 0.21115 0.02017 0.25979
 Zr927 Zr 0.26320 -0.00863 0.24018
 O928 O 0.25405 0.01861 0.22541
 O929 O 0.23468 0.04650 0.24388
 O930 O 0.25464 -0.01167 0.27159
 C931 C 0.18916 0.05503 0.24469
 C932 C 0.25011 0.08251 0.26079
 C933 C 0.24484 0.05400 0.20082
 C934 C 0.29578 -0.02382 0.27477
 C935 C 0.24547 -0.02108 0.31353
 C936 C 0.24087 -0.04740 0.25414
 H937 H 0.23029 0.01628 0.30451
 H938 H 0.22314 -0.01642 0.23165
 H939 H 0.22980 0.05930 0.23743
 H940 H 0.29372 0.01383 0.25574
 H941 H 0.29635 0.03896 0.29548
 H942 H 0.30352 0.04750 0.26153
 H943 H 0.19533 -0.02782 0.24931
 H944 H 0.18462 0.00600 0.23174
 H945 H 0.27658 0.02045 0.32715
 H946 H 0.22649 0.06926 0.30698
 H947 H 0.24732 -0.02287 0.20553
 H948 H 0.23270 0.00712 0.19285
 H949 H 0.19078 0.03389 0.29162
 H950 H 0.19847 0.00120 0.30428
 H951 H 0.28938 0.03008 0.21131
 H952 H 0.30239 -0.00549 0.22833
 O953 O 0.53549 0.70951 0.25570
 O954 O 0.52825 0.72545 0.28690
 O955 O 0.47671 0.68573 0.23392
 O956 O 0.44322 0.69799 0.23071
 O957 O 0.51424 0.71583 0.19100
 O958 O 0.52171 0.74949 0.18322
 O959 O 0.43324 0.76703 0.25821
 O960 O 0.43105 0.73400 0.26948
 O961 O 0.49187 0.78914 0.27733
 O962 O 0.52879 0.77692 0.27562
 O963 O 0.47272 0.79661 0.21531
 O964 O 0.47177 0.77698 0.18418
 O965 O 0.43923 0.77858 0.22487
 O966 O 0.44683 0.75885 0.19013
 O967 O 0.49574 0.80170 0.24268
 O968 O 0.53368 0.78609 0.24474
 O969 O 0.46054 0.77413 0.28451
 O970 O 0.45912 0.73744 0.29542
 O971 O 0.54271 0.72129 0.22266
 O972 O 0.54286 0.75573 0.20816
 O973 O 0.48283 0.70050 0.19724
 O974 O 0.44594 0.71416 0.20042
 O975 O 0.50032 0.68998 0.26107
 O976 O 0.49571 0.71269 0.29303
 Zr977 Zr 0.50555 0.72136 0.26240
 O978 O 0.49244 0.74924 0.27130
 Zr979 Zr 0.47026 0.71514 0.22377
 O980 O 0.45451 0.74195 0.23201
 Zr981 Zr 0.51547 0.73864 0.21393
 O982 O 0.50123 0.76674 0.22021
 Zr983 Zr 0.45995 0.74892 0.26411
 O984 O 0.47273 0.72024 0.25667
 Zr985 Zr 0.50462 0.77251 0.25262
 O986 O 0.52025 0.74511 0.24613
 Zr987 Zr 0.46823 0.76550 0.21514
 O988 O 0.48295 0.73842 0.20547
 O989 O 0.50256 0.71497 0.23039
 O990 O 0.47218 0.77258 0.24681
 C991 C 0.54755 0.71127 0.23959
 C992 C 0.48927 0.67897 0.24842
 C993 C 0.50011 0.70259 0.18696
 C994 C 0.42829 0.77770 0.24195
 C995 C 0.47419 0.78819 0.28697
 C996 C 0.48287 0.80799 0.22816
 H997 H 0.49496 0.75156 0.28657
 H998 H 0.50773 0.77730 0.21150
 H999 H 0.50978 0.70231 0.22646
 H1000 H 0.43917 0.74076 0.22894
 H1001 H 0.43466 0.71962 0.27148
 H1002 H 0.43310 0.70712 0.23775
 H1003 H 0.53163 0.79341 0.23122
 H1004 H 0.54976 0.75803 0.22208
 H1005 H 0.44772 0.74473 0.30295
 H1006 H 0.50314 0.70003 0.29699
 H1007 H 0.48711 0.77882 0.18198
 H1008 H 0.50783 0.75041 0.17578
 H1009 H 0.53659 0.73735 0.28291
 H1010 H 0.52427 0.77041 0.28887
 H1011 H 0.45152 0.72066 0.18757
 H1012 H 0.43345 0.75427 0.19645
 O1013 O 0.05599 0.73865 0.72909
 O1014 O 0.05513 0.73070 0.76523
 O1015 O 0.00452 0.70686 0.70174
 O1016 O -0.03095 0.70500 0.70521
 O1017 O 0.01396 0.76883 0.68698
 O1018 O 0.00543 0.79942 0.70477
 O1019 O -0.05258 0.73064 0.77480
 O1020 O -0.03973 0.70144 0.75946
 O1021 O -0.00678 0.76205 0.80335
 O1022 O 0.02907 0.76771 0.79799
 O1023 O -0.04120 0.79390 0.76120
 O1024 O -0.04709 0.79495 0.72473
 O1025 O -0.06178 0.76079 0.76008
 O1026 O -0.06122 0.76789 0.71889
 O1027 O -0.01141 0.79457 0.78188
 O1028 O 0.02874 0.79180 0.77650
 O1029 O -0.02233 0.73174 0.79855
 O1030 O -0.00764 0.70123 0.78065
 O1031 O 0.04656 0.76800 0.71272
 O1032 O 0.03105 0.79909 0.72628
 O1033 O -0.00410 0.73988 0.68151
 O1034 O -0.04169 0.73398 0.69343
 O1035 O 0.03363 0.70600 0.72346
 O1036 O 0.03367 0.70349 0.76295
 Zr1037 Zr 0.02828 0.72993 0.74480
 O1038 O 0.00964 0.73760 0.77109
 Zr1039 Zr -0.01370 0.73127 0.71208
 O1040 O -0.03416 0.73794 0.73725
 Zr1041 Zr 0.01439 0.77232 0.72005
 O1042 O -0.00532 0.78136 0.74481
 Zr1043 Zr -0.02109 0.72702 0.76576
 O1044 O -0.00215 0.71774 0.74022
 Zr1045 Zr 0.00602 0.76884 0.77344
 O1046 O 0.02723 0.76136 0.74885
 Zr1047 Zr -0.03583 0.76919 0.74108
 O1048 O -0.01683 0.76266 0.71437
 O1049 O 0.01692 0.74155 0.71631
 O1050 O -0.02444 0.75796 0.76967
 C1051 C 0.05995 0.75397 0.71740
 C1052 C 0.02253 0.69952 0.70773
 C1053 C 0.00679 0.75484 0.67501
 C1054 C -0.06541 0.74547 0.77195
 C1055 C -0.01714 0.74680 0.81004
 C1056 C -0.02920 0.80191 0.77534
 H1057 H 0.01584 0.73184 0.78425
 H1058 H -0.00541 0.79619 0.74467
 H1059 H 0.02623 0.73764 0.70453
 H1060 H -0.04829 0.73215 0.73456
 H1061 H -0.03096 0.69234 0.75074
 H1062 H -0.04034 0.70262 0.71733
 H1063 H 0.02324 0.80354 0.76844
 H1064 H 0.04188 0.79587 0.73727
 H1065 H -0.01783 0.69641 0.79130
 H1066 H 0.04638 0.69645 0.75747
 H1067 H -0.03478 0.80384 0.72296
 H1068 H -0.00881 0.79723 0.69847
 H1069 H 0.05865 0.74500 0.76738
 H1070 H 0.03870 0.75637 0.79479
 H1071 H -0.04233 0.74795 0.68807
 H1072 H -0.07031 0.75648 0.72274
 O1073 O -0.00831 0.03026 0.05425
 O1074 O -0.04204 0.02226 0.04098
 O1075 O 0.01792 -0.02581 0.07384
 O1076 O 0.02286 -0.05638 0.05967
 O1077 O 0.05590 0.01259 0.03584
 O1078 O 0.05604 0.02316 0.00070
 O1079 O -0.01687 -0.06334 -0.01050
 O1080 O -0.02135 -0.06885 0.02567
 O1081 O -0.04286 -0.00799 -0.02602
 O1082 O -0.03891 0.02600 -0.01484
 O1083 O 0.02074 -0.02247 -0.04424
 O1084 O 0.05450 -0.02411 -0.02651
 O1085 O 0.01385 -0.05536 -0.02695
 O1086 O 0.05073 -0.04960 -0.00976
 O1087 O -0.01045 -0.00521 -0.04501
 O1088 O -0.00933 0.03156 -0.02808
 O1089 O -0.04651 -0.03837 -0.01001
 O1090 O -0.04864 -0.04340 0.02920
 O1091 O 0.02272 0.03819 0.03825
 O1092 O 0.02934 0.04168 -0.00027
 O1093 O 0.05304 -0.01718 0.05335
 O1094 O 0.04871 -0.05188 0.03829
 O1095 O -0.00808 -0.00189 0.07414
 O1096 O -0.04333 -0.00947 0.05582
 Zr1097 Zr -0.01577 0.00225 0.04170
 O1098 O -0.02876 -0.00951 0.01354
 Zr1099 Zr 0.02466 -0.02978 0.04158
 O1100 O 0.01262 -0.04393 0.01423
 Zr1101 Zr 0.02849 0.01438 0.01681
 O1102 O 0.01818 0.00182 -0.01197
 Zr1103 Zr -0.02048 -0.04001 0.01162
 O1104 O -0.00880 -0.02869 0.04093
 Zr1105 Zr -0.01496 0.00362 -0.01321
 O1106 O -0.00459 0.01778 0.01494
 Zr1107 Zr 0.02492 -0.02912 -0.01216
 O1108 O 0.03831 -0.01593 0.01512
 O1109 O 0.01708 0.00045 0.04352
 O1110 O -0.00784 -0.02671 -0.01505
 C1111 C 0.00766 0.04166 0.05139
 C1112 C 0.00575 -0.01330 0.08343
 C1113 C 0.06268 -0.00077 0.04898
 C1114 C -0.00260 -0.06632 -0.02454
 C1115 C -0.05241 -0.02465 -0.02331
 C1116 C 0.00445 -0.01526 -0.05394
 H1117 H -0.04432 -0.00758 0.01368
 H1118 H 0.02474 0.00889 -0.02397
 H1119 H 0.02330 0.00671 0.05629
 H1120 H 0.01638 -0.05837 0.01438
 H1121 H -0.02072 -0.06676 0.04117
 H1122 H 0.01366 -0.06559 0.05158
 H1123 H 0.00024 0.02918 -0.04011
 H1124 H 0.01498 0.04772 0.00047
 H1125 H -0.05697 -0.05430 0.02257
 H1126 H -0.04573 -0.00221 0.06927
 H1127 H 0.05501 -0.00971 -0.03029
 H1128 H 0.06393 0.01065 -0.00251
 H1129 H -0.03931 0.03213 0.02963
 H1130 H -0.04954 0.02256 -0.00408
 H1131 H 0.06002 -0.04580 0.02976
 H1132 H 0.04521 -0.06275 -0.00523
 O1133 O 0.01296 0.55705 0.52937
 O1134 O -0.02293 0.55750 0.53560
 O1135 O 0.03187 0.49686 0.54899
 O1136 O 0.02879 0.46542 0.53816
 O1137 O 0.05246 0.52295 0.48753
 O1138 O 0.03574 0.52690 0.45465
 O1139 O -0.04332 0.46118 0.50594
 O1140 O -0.02838 0.46343 0.53965
 O1141 O -0.06568 0.51652 0.48750
 O1142 O -0.05482 0.54918 0.48785
 O1143 O -0.02593 0.48654 0.44632
 O1144 O 0.00976 0.47855 0.44400
 O1145 O -0.02691 0.45839 0.47421
 O1146 O 0.01433 0.45826 0.46804
 O1147 O -0.04350 0.51602 0.45189
 O1148 O -0.03302 0.55130 0.46459
 O1149 O -0.06400 0.49050 0.51087
 O1150 O -0.04687 0.49450 0.54699
 O1151 O 0.02986 0.55500 0.49778
 O1152 O 0.01602 0.55102 0.46109
 O1153 O 0.05519 0.49913 0.51329
 O1154 O 0.03929 0.46401 0.50744
 O1155 O 0.01516 0.52651 0.55596
 O1156 O -0.02447 0.52995 0.55695
 Zr1157 Zr -0.00540 0.53092 0.52956
 O1158 O -0.03302 0.51905 0.51553
 Zr1159 Zr 0.02330 0.49018 0.51782
 O1160 O -0.00365 0.47594 0.50507
 Zr1161 Zr 0.01984 0.52790 0.48386
 O1162 O -0.00606 0.51462 0.46838
 Zr1163 Zr -0.03149 0.48775 0.51819
 O1164 O -0.00446 0.49954 0.53352
 Zr1165 Zr -0.03401 0.52466 0.48279
 O1166 O -0.00802 0.53928 0.49737
 Zr1167 Zr -0.00603 0.48323 0.47289
 O1168 O 0.02209 0.49634 0.48524
 O1169 O 0.02262 0.52122 0.51586
 O1170 O -0.03412 0.49359 0.48581
 C1171 C 0.02571 0.56376 0.51541
 C1172 C 0.02770 0.51184 0.56095
 C1173 C 0.06324 0.51190 0.50040
 C1174 C -0.04023 0.45251 0.48818
 C1175 C -0.07418 0.50258 0.49851
 C1176 C -0.03838 0.50086 0.44042
 H1177 H -0.04577 0.52447 0.52256
 H1178 H -0.00530 0.51841 0.45327
 H1179 H 0.03500 0.52733 0.52300
 H1180 H -0.00257 0.46129 0.50746
 H1181 H -0.01935 0.46815 0.55153
 H1182 H 0.01466 0.46032 0.54190
 H1183 H -0.02537 0.54812 0.45142
 H1184 H 0.00662 0.56134 0.46733
 H1185 H -0.05873 0.48498 0.54853
 H1186 H -0.01805 0.53869 0.56792
 H1187 H 0.01331 0.49195 0.43841
 H1188 H 0.03906 0.51259 0.45198
 H1189 H -0.02544 0.56415 0.52176
 H1190 H -0.05434 0.55210 0.50317
 H1191 H 0.04636 0.46749 0.49405
 H1192 H 0.00995 0.44736 0.47766
 O1193 O 0.56932 0.02654 0.48439
 O1194 O 0.56703 0.01602 0.45018
 O1195 O 0.51686 0.06625 0.49266
 O1196 O 0.48177 0.06491 0.48479
 O1197 O 0.52659 0.02124 0.53971
 O1198 O 0.52594 -0.01297 0.54203
 O1199 O 0.45971 0.00490 0.44546
 O1200 O 0.47034 0.03704 0.43903
 O1201 O 0.51377 -0.03183 0.43677
 O1202 O 0.54943 -0.03312 0.45144
 O1203 O 0.47673 -0.03962 0.49194
 O1204 O 0.47255 -0.02022 0.52485
 O1205 O 0.45238 -0.01196 0.47583
 O1206 O 0.45383 0.00117 0.51279
 O1207 O 0.50399 -0.04918 0.47092
 O1208 O 0.54301 -0.04557 0.47945
 O1209 O 0.49052 -0.00801 0.42478
 O1210 O 0.50231 0.02768 0.42129
 O1211 O 0.56241 0.01252 0.51646
 O1212 O 0.54996 -0.02201 0.52265
 O1213 O 0.50468 0.04653 0.52846
 O1214 O 0.47045 0.04745 0.51133
 O1215 O 0.54426 0.05649 0.47188
 O1216 O 0.54299 0.03853 0.43735
 Zr1217 Zr 0.54046 0.02545 0.46787
 O1218 O 0.52284 0.00412 0.45088
 Zr1219 Zr 0.49912 0.03976 0.49619
 O1220 O 0.47936 0.01964 0.47956
 Zr1221 Zr 0.53061 0.00265 0.51337
 O1222 O 0.51149 -0.01907 0.49853
 Zr1223 Zr 0.49116 0.01374 0.44921
 O1224 O 0.50917 0.03624 0.46468
 Zr1225 Zr 0.52208 -0.02311 0.46749
 O1226 O 0.54234 -0.00270 0.48299
 Zr1227 Zr 0.48011 -0.00844 0.49478
 O1228 O 0.49859 0.01212 0.51241
 O1229 O 0.53057 0.03052 0.49881
 O1230 O 0.49053 -0.01410 0.46426
 C1231 C 0.57486 0.02082 0.50308
 C1232 C 0.53379 0.06976 0.48220
 C1233 C 0.51494 0.03679 0.54293
 C1234 C 0.44732 -0.00519 0.45732
 C1235 C 0.50110 -0.02448 0.42270
 C1236 C 0.48730 -0.05276 0.48158
 H1237 H 0.52887 0.00254 0.43660
 H1238 H 0.51220 -0.03160 0.50690
 H1239 H 0.53928 0.04012 0.50699
 H1240 H 0.46483 0.02528 0.47859
 H1241 H 0.47822 0.04973 0.44052
 H1242 H 0.47169 0.05988 0.47399
 H1243 H 0.53706 -0.05084 0.49273
 H1244 H 0.55978 -0.02464 0.51086
 H1245 H 0.49187 0.02518 0.40977
 H1246 H 0.55496 0.04808 0.43742
 H1247 H 0.48358 -0.03028 0.52871
 H1248 H 0.51050 -0.01262 0.54454
 H1249 H 0.57047 0.00215 0.45477
 H1250 H 0.55174 -0.02384 0.43946
 H1251 H 0.46769 0.03665 0.52168
 H1252 H 0.44621 0.01179 0.50471
 O1253 O 0.48388 0.43990 -0.03570
 O1254 O 0.52144 0.43733 -0.03549
 O1255 O 0.46505 0.43213 0.02684
 O1256 O 0.47530 0.44471 0.05896
 O1257 O 0.44041 0.48219 -0.00707
 O1258 O 0.45341 0.51313 -0.01874
 O1259 O 0.53761 0.48588 0.05833
 O1260 O 0.52956 0.45216 0.06160
 O1261 O 0.55830 0.49140 -0.00580
 O1262 O 0.54283 0.48294 -0.04017
 O1263 O 0.51791 0.53252 0.02023
 O1264 O 0.47773 0.53389 0.02459
 O1265 O 0.51710 0.51405 0.05503
 O1266 O 0.47832 0.51890 0.05255
 O1267 O 0.53556 0.52214 -0.00898
 O1268 O 0.52313 0.50674 -0.04321
 O1269 O 0.55973 0.47907 0.02776
 O1270 O 0.54864 0.44226 0.03110
 O1271 O 0.46313 0.46789 -0.04028
 O1272 O 0.47225 0.50345 -0.04353
 O1273 O 0.44163 0.46435 0.02375
 O1274 O 0.45838 0.47399 0.05758
 O1275 O 0.48493 0.42142 -0.00082
 O1276 O 0.52425 0.42217 -0.00268
 Zr1277 Zr 0.50302 0.44633 -0.00933
 O1278 O 0.52921 0.46372 -0.00029
 Zr1279 Zr 0.47430 0.46220 0.03101
 O1280 O 0.49946 0.47997 0.04225
 Zr1281 Zr 0.47225 0.48697 -0.01490
 O1282 O 0.49694 0.50613 -0.00534
 Zr1283 Zr 0.52874 0.46806 0.03256
 O1284 O 0.50364 0.44860 0.02388
 Zr1285 Zr 0.52588 0.49252 -0.01328
 O1286 O 0.50115 0.47437 -0.02468
 Zr1287 Zr 0.49792 0.50846 0.02791
 O1288 O 0.47135 0.49136 0.01815
 O1289 O 0.47374 0.45864 -0.00151
 O1290 O 0.52706 0.49658 0.01938
 C1291 C 0.46928 0.45005 -0.04541
 C1292 C 0.47052 0.41896 0.01305
 C1293 C 0.43163 0.47315 0.00847
 C1294 C 0.53158 0.50340 0.06437
 C1295 C 0.56823 0.48725 0.01151
 C1296 C 0.53148 0.53498 0.00547
 H1297 H 0.54253 0.45706 -0.00466
 H1298 H 0.49511 0.51939 -0.01219
 H1299 H 0.46155 0.45054 -0.00629
 H1300 H 0.49871 0.48076 0.05784
 H1301 H 0.52192 0.43946 0.05913
 H1302 H 0.48779 0.44910 0.06725
 H1303 H 0.51399 0.51877 -0.04165
 H1304 H 0.48363 0.49760 -0.05229
 H1305 H 0.56114 0.44469 0.04037
 H1306 H 0.51932 0.41015 -0.01048
 H1307 H 0.48072 0.54036 0.01086
 H1308 H 0.45197 0.51898 -0.00445
 H1309 H 0.52073 0.44843 -0.04591
 H1310 H 0.54932 0.46973 -0.03679
 H1311 H 0.45199 0.48696 0.05308
 H1312 H 0.47942 0.50905 0.06426
 O1313 O 0.76065 0.26059 0.44412
 O1314 O 0.72489 0.26331 0.45609
 O1315 O 0.79819 0.29310 0.48654
 O1316 O 0.80424 0.29474 0.52144
 O1317 O 0.81489 0.23203 0.47116
 O1318 O 0.80261 0.19999 0.48273
 O1319 O 0.74798 0.26060 0.56251
 O1320 O 0.75569 0.29213 0.54757
 O1321 O 0.70751 0.23117 0.52101
 O1322 O 0.70780 0.22260 0.48391
 O1323 O 0.76174 0.20286 0.54595
 O1324 O 0.79990 0.20224 0.53614
 O1325 O 0.76929 0.23282 0.56481
 O1326 O 0.80709 0.22837 0.55169
 O1327 O 0.73125 0.20189 0.52640
 O1328 O 0.72909 0.19878 0.48536
 O1329 O 0.71619 0.25888 0.54010
 O1330 O 0.72619 0.29146 0.52303
 O1331 O 0.78084 0.23211 0.44700
 O1332 O 0.77484 0.19950 0.46375
 O1333 O 0.82273 0.26091 0.48872
 O1334 O 0.82145 0.26681 0.52787
 O1335 O 0.76844 0.29168 0.46582
 O1336 O 0.73074 0.29097 0.47699
 Zr1337 Zr 0.75204 0.26618 0.47585
 O1338 O 0.73347 0.25621 0.50121
 Zr1339 Zr 0.79552 0.26776 0.50629
 O1340 O 0.77864 0.25841 0.53299
 Zr1341 Zr 0.78347 0.22606 0.47974
 O1342 O 0.76658 0.21450 0.50554
 Zr1343 Zr 0.74660 0.26670 0.52978
 O1344 O 0.76402 0.27853 0.50428
 Zr1345 Zr 0.73502 0.22479 0.50360
 O1346 O 0.75143 0.23457 0.47645
 Zr1347 Zr 0.77864 0.22693 0.53367
 O1348 O 0.79744 0.23624 0.50814
 O1349 O 0.78352 0.25711 0.47789
 O1350 O 0.74698 0.23565 0.53199
 C1351 C 0.77229 0.24657 0.43620
 C1352 C 0.78611 0.29961 0.47146
 C1353 C 0.82724 0.24661 0.47590
 C1354 C 0.75696 0.24610 0.57287
 C1355 C 0.70351 0.24470 0.53489
 C1356 C 0.74315 0.19616 0.54198
 H1357 H 0.71873 0.26113 0.49925
 H1358 H 0.76747 0.19969 0.50568
 H1359 H 0.79194 0.26214 0.46595
 H1360 H 0.78490 0.26416 0.54602
 H1361 H 0.76059 0.30223 0.53725
 H1362 H 0.79586 0.29565 0.53450
 H1363 H 0.73780 0.18765 0.49130
 H1364 H 0.76015 0.20159 0.45848
 H1365 H 0.71854 0.29484 0.53617
 H1366 H 0.73135 0.29828 0.46332
 H1367 H 0.79411 0.19120 0.52747
 H1368 H 0.81162 0.20194 0.49548
 H1369 H 0.72380 0.24895 0.45230
 H1370 H 0.70299 0.23644 0.48064
 H1371 H 0.82785 0.25322 0.52692
 H1372 H 0.80700 0.24115 0.55960
 O1373 O 0.80318 0.76342 -0.00914
 O1374 O 0.79512 0.73178 -0.02312
 O1375 O 0.74999 0.80043 -0.02609
 O1376 O 0.71467 0.80072 -0.02164
 O1377 O 0.77470 0.80016 0.03721
 O1378 O 0.76953 0.77807 0.06706
 O1379 O 0.68854 0.73514 -0.00381
 O1380 O 0.69817 0.75237 -0.03400
 O1381 O 0.73868 0.69560 0.01174
 O1382 O 0.77814 0.70005 0.01404
 O1383 O 0.71321 0.72980 0.05795
 O1384 O 0.71649 0.76381 0.06999
 O1385 O 0.68792 0.74389 0.03104
 O1386 O 0.69779 0.77804 0.04751
 O1387 O 0.73785 0.70700 0.04721
 O1388 O 0.77801 0.71029 0.04475
 O1389 O 0.71453 0.70835 -0.01184
 O1390 O 0.72536 0.72904 -0.04338
 O1391 O 0.80237 0.77286 0.02553
 O1392 O 0.79177 0.75592 0.05791
 O1393 O 0.75103 0.81266 0.01295
 O1394 O 0.71183 0.80655 0.01172
 O1395 O 0.77541 0.77798 -0.03606
 O1396 O 0.76914 0.74250 -0.04640
 Zr1397 Zr 0.77199 0.75360 -0.01508
 O1398 O 0.75161 0.72950 -0.00874
 Zr1399 Zr 0.73599 0.78729 0.00037
 O1400 O 0.71399 0.76471 0.00674
 Zr1401 Zr 0.77083 0.76876 0.03517
 O1402 O 0.75011 0.74549 0.04363
 Zr1403 Zr 0.72014 0.73950 -0.01218
 O1404 O 0.74043 0.76316 -0.02066
 Zr1405 Zr 0.75462 0.72109 0.02314
 O1406 O 0.77699 0.74349 0.01624
 Zr1407 Zr 0.71853 0.75467 0.03806
 O1408 O 0.73923 0.77897 0.03242
 O1409 O 0.76737 0.77841 0.00412
 O1410 O 0.72317 0.72979 0.01896
 C1411 C 0.81188 0.77048 0.00777
 C1412 C 0.76535 0.79478 -0.03787
 C1413 C 0.76597 0.81470 0.02671
 C1414 C 0.67923 0.73709 0.01403
 C1415 C 0.72299 0.69378 -0.00122
 C1416 C 0.72189 0.71229 0.05832
 H1417 H 0.75454 0.71815 -0.01834
 H1418 H 0.75254 0.74162 0.05857
 H1419 H 0.77733 0.78920 0.00048
 H1420 H 0.69952 0.77005 0.00418
 H1421 H 0.70633 0.76144 -0.04321
 H1422 H 0.70355 0.79077 -0.02467
 H1423 H 0.77426 0.71509 0.05903
 H1424 H 0.79830 0.74404 0.05114
 H1425 H 0.71294 0.72094 -0.04768
 H1426 H 0.78118 0.74756 -0.05475
 H1427 H 0.73035 0.76090 0.07683
 H1428 H 0.75595 0.78546 0.06861
 H1429 H 0.79975 0.72525 -0.00974
 H1430 H 0.77592 0.69704 -0.00113
 H1431 H 0.71469 0.80858 0.02700
 H1432 H 0.68775 0.78074 0.03568
 O1433 O 1.04160 0.22303 0.22623
 O1434 O 1.04073 0.22626 0.26353
 O1435 O 0.97814 0.21988 0.20625
 O1436 O 0.94812 0.23796 0.21051
 O1437 O 1.01868 0.26304 0.17516
 O1438 O 1.03544 0.29207 0.18398
 O1439 O 0.95261 0.28709 0.26701
 O1440 O 0.94599 0.25338 0.26410
 O1441 O 1.01784 0.28946 0.28923
 O1442 O 1.05052 0.27528 0.27814
 O1443 O 0.99538 0.32548 0.24231
 O1444 O 0.99290 0.32173 0.20225
 O1445 O 0.95997 0.31063 0.24204
 O1446 O 0.96370 0.30933 0.20268
 O1447 O 1.02382 0.31565 0.26237
 O1448 O 1.05684 0.29396 0.25323
 O1449 O 0.98335 0.28011 0.29137
 O1450 O 0.97518 0.24304 0.28595
 O1451 O 1.04944 0.24636 0.20108
 O1452 O 1.05775 0.28255 0.20627
 O1453 O 0.98642 0.24818 0.17746
 O1454 O 0.95333 0.26367 0.19077
 O1455 O 1.00504 0.20905 0.22787
 O1456 O 1.00608 0.21597 0.26695
 Zr1457 Zr 1.01606 0.23545 0.24252
 O1458 O 1.00904 0.25784 0.26491
 Zr1459 Zr 0.97828 0.25137 0.20954
 O1460 O 0.96883 0.27375 0.23093
 Zr1461 Zr 1.02710 0.27001 0.20634
 O1462 O 1.01934 0.29393 0.22669
 Zr1463 Zr 0.97676 0.26556 0.26225
 O1464 O 0.98331 0.24166 0.24101
 Zr1465 Zr 1.02534 0.28432 0.25773
 O1466 O 1.03481 0.26098 0.23732
 Zr1467 Zr 0.98649 0.29973 0.22548
 O1468 O 0.99474 0.27791 0.20275
 O1469 O 1.01016 0.24395 0.21128
 O1470 O 0.99322 0.29178 0.25653
 C1471 C 1.05231 0.22924 0.21040
 C1472 C 0.99020 0.20602 0.21418
 C1473 C 1.00244 0.25441 0.16708
 C1474 C 0.94893 0.30384 0.25743
 C1475 C 1.00025 0.28828 0.29894
 C1476 C 1.01007 0.32877 0.25603
 H1477 H 1.01258 0.25293 0.27932
 H1478 H 1.02761 0.30595 0.22311
 H1479 H 1.01378 0.23357 0.20073
 H1480 H 0.95341 0.27606 0.22917
 H1481 H 0.94705 0.23940 0.25891
 H1482 H 0.94110 0.24323 0.22326
 H1483 H 1.05638 0.30597 0.24399
 H1484 H 1.06587 0.27611 0.21799
 H1485 H 0.96595 0.24825 0.29731
 H1486 H 1.01214 0.20242 0.26435
 H1487 H 1.00694 0.32751 0.20547
 H1488 H 1.02288 0.30099 0.18244
 H1489 H 1.05245 0.23585 0.26174
 H1490 H 1.04631 0.26260 0.28498
 H1491 H 0.95947 0.27467 0.18235
 H1492 H 0.95051 0.30188 0.20532
 O1493 O 0.69043 1.01442 0.73815
 O1494 O 0.68100 1.00785 0.77252
 O1495 O 0.74738 1.05032 0.74723
 O1496 O 0.78054 1.04625 0.75843
 O1497 O 0.74214 1.00249 0.70066
 O1498 O 0.74961 0.96727 0.70345
 O1499 O 0.78125 0.99311 0.81255
 O1500 O 0.77062 1.02654 0.81040
 O1501 O 0.72751 0.95793 0.80850
 O1502 O 0.69681 0.95686 0.78758
 O1503 O 0.77690 0.94367 0.76860
 O1504 O 0.79251 0.95687 0.73857
 O1505 O 0.79578 0.97158 0.78874
 O1506 O 0.80679 0.98201 0.75052
 O1507 O 0.74299 0.93668 0.77781
 O1508 O 0.70658 0.94439 0.76008
 O1509 O 0.74688 0.98295 0.82331
 O1510 O 0.73454 1.01914 0.81925
 O1511 O 0.70455 0.99240 0.71455
 O1512 O 0.71993 0.95914 0.71377
 O1513 O 0.76223 1.02728 0.71499
 O1514 O 0.79426 1.02445 0.74001
 O1515 O 0.71268 1.04467 0.75443
 O1516 O 0.70160 1.03057 0.78973
 Zr1517 Zr 0.71249 1.01381 0.76345
 O1518 O 0.72277 0.99386 0.78766
 Zr1519 Zr 0.76191 1.02199 0.74797
 O1520 O 0.77428 1.00373 0.77244
 Zr1521 Zr 0.73459 0.98476 0.72688
 O1522 O 0.74675 0.96445 0.74946
 Zr1523 Zr 0.75312 1.00233 0.79775
 O1524 O 0.74230 1.02329 0.77474
 Zr1525 Zr 0.72692 0.96462 0.77591
 O1526 O 0.71365 0.98386 0.75247
 Zr1527 Zr 0.77628 0.97423 0.76125
 O1528 O 0.76556 0.99287 0.73596
 O1529 O 0.73187 1.01422 0.73724
 O1530 O 0.75660 0.97289 0.78725
 C1531 C 0.68981 1.00424 0.72090
 C1532 C 0.72815 1.05625 0.74958
 C1533 C 0.75307 1.01852 0.69927
 C1534 C 0.79530 0.98022 0.80694
 C1535 C 0.73678 0.96634 0.82433
 C1536 C 0.76229 0.93163 0.77414
 H1537 H 0.71278 0.99410 0.79959
 H1538 H 0.74768 0.95116 0.74261
 H1539 H 0.72587 1.02356 0.72649
 H1540 H 0.78819 1.00890 0.77717
 H1541 H 0.76385 1.03899 0.80488
 H1542 H 0.78150 1.04502 0.77400
 H1543 H 0.71546 0.93591 0.75082
 H1544 H 0.70686 0.95683 0.72187
 H1545 H 0.74111 1.01759 0.83350
 H1546 H 0.69112 1.04072 0.78461
 H1547 H 0.78161 0.95140 0.72887
 H1548 H 0.76461 0.97146 0.70319
 H1549 H 0.67840 0.99359 0.76911
 H1550 H 0.69012 0.96929 0.79290
 H1551 H 0.79698 1.01465 0.72859
 H1552 H 0.81342 0.99084 0.76121
 O1553 O 0.77228 0.55122 0.23510
 O1554 O 0.80224 0.52962 0.23580
 O1555 O 0.72576 0.52023 0.19910
 O1556 O 0.71007 0.49004 0.20010
 O1557 O 0.70979 0.54601 0.25963
 O1558 O 0.71607 0.53632 0.29553
 O1559 O 0.75171 0.44142 0.24976
 O1560 O 0.74727 0.45180 0.21322
 O1561 O 0.79688 0.47084 0.27889
 O1562 O 0.80749 0.50602 0.28298
 O1563 O 0.73744 0.46699 0.30357
 O1564 O 0.70357 0.48801 0.29881
 O1565 O 0.72514 0.44886 0.27257
 O1566 O 0.69383 0.47160 0.27329
 O1567 O 0.77094 0.47895 0.30737
 O1568 O 0.78615 0.51387 0.30537
 O1569 O 0.78651 0.45356 0.24958
 O1570 O 0.78226 0.46702 0.21275
 O1571 O 0.74827 0.55847 0.26074
 O1572 O 0.74808 0.54581 0.29721
 O1573 O 0.69910 0.52938 0.22998
 O1574 O 0.68943 0.49313 0.22750
 O1575 O 0.75979 0.53095 0.20254
 O1576 O 0.79183 0.50952 0.20840
 Zr1577 Zr 0.77062 0.51979 0.23191
 O1578 O 0.78031 0.49307 0.24711
 Zr1579 Zr 0.72051 0.50479 0.22784
 O1580 O 0.72821 0.47706 0.24250
 Zr1581 Zr 0.73677 0.53034 0.27025
 O1582 O 0.74465 0.50393 0.28695
 Zr1583 Zr 0.76022 0.46971 0.23767
 O1584 O 0.75179 0.49604 0.22048
 Zr1585 Zr 0.77599 0.49572 0.27982
 O1586 O 0.76879 0.52339 0.26492
 Zr1587 Zr 0.72595 0.48029 0.27544
 O1588 O 0.71602 0.50741 0.26072
 O1589 O 0.73947 0.52820 0.23765
 O1590 O 0.75723 0.47201 0.27018
 C1591 C 0.76165 0.56357 0.24659
 C1592 C 0.74205 0.52972 0.19241
 C1593 C 0.69752 0.54373 0.24350
 C1594 C 0.73776 0.43646 0.26345
 C1595 C 0.79838 0.45603 0.26599
 C1596 C 0.75541 0.46807 0.31322
 H1597 H 0.79521 0.49004 0.24351
 H1598 H 0.74271 0.50606 0.30226
 H1599 H 0.73532 0.54074 0.23025
 H1600 H 0.71893 0.46629 0.23712
 H1601 H 0.74596 0.46057 0.20060
 H1602 H 0.71374 0.47568 0.20188
 H1603 H 0.77409 0.51554 0.31507
 H1604 H 0.76362 0.54692 0.29569
 H1605 H 0.78602 0.45261 0.21132
 H1606 H 0.79578 0.52107 0.19938
 H1607 H 0.71135 0.49371 0.31104
 H1608 H 0.70405 0.52702 0.29383
 H1609 H 0.80407 0.53330 0.25087
 H1610 H 0.81473 0.50337 0.26948
 H1611 H 0.68293 0.49694 0.24111
 H1612 H 0.69162 0.46522 0.25934
 O1613 O 0.51399 0.19232 0.73318
 O1614 O 0.48128 0.19120 0.75163
 O1615 O 0.50661 0.23446 0.68490
 O1616 O 0.49518 0.26675 0.68138
 O1617 O 0.55926 0.23552 0.72592
 O1618 O 0.56553 0.25089 0.76006
 O1619 O 0.45802 0.29185 0.74214
 O1620 O 0.45024 0.27358 0.71245
 O1621 O 0.46221 0.24747 0.79197
 O1622 O 0.48285 0.21725 0.79756
 O1623 O 0.50932 0.29192 0.78677
 O1624 O 0.53922 0.29708 0.76519
 O1625 O 0.48817 0.30572 0.75559
 O1626 O 0.52477 0.30624 0.73772
 O1627 O 0.49412 0.26566 0.80363
 O1628 O 0.51078 0.23024 0.80612
 O1629 O 0.44530 0.26378 0.76486
 O1630 O 0.43915 0.24446 0.73088
 O1631 O 0.54364 0.20620 0.74787
 O1632 O 0.55333 0.22695 0.77794
 O1633 O 0.54188 0.25025 0.69806
 O1634 O 0.52191 0.28279 0.69499
 O1635 O 0.49271 0.20761 0.70206
 O1636 O 0.46128 0.20608 0.72508
 Zr1637 Zr 0.49186 0.21622 0.73408
 O1638 O 0.47411 0.23437 0.75465
 Zr1639 Zr 0.51098 0.25594 0.70887
 O1640 O 0.49340 0.27569 0.72788
 Zr1641 Zr 0.53700 0.23704 0.75045
 O1642 O 0.52113 0.25642 0.77134
 Zr1643 Zr 0.46626 0.26142 0.73925
 O1644 O 0.48229 0.24248 0.71772
 Zr1645 Zr 0.49288 0.24284 0.78072
 O1646 O 0.50989 0.22252 0.76159
 Zr1647 Zr 0.51124 0.28252 0.75515
 O1648 O 0.52994 0.26435 0.73498
 O1649 O 0.51949 0.22936 0.72378
 O1650 O 0.48363 0.26955 0.76599
 C1651 C 0.53336 0.19147 0.73977
 C1652 C 0.49944 0.21649 0.68539
 C1653 C 0.55806 0.24135 0.70654
 C1654 C 0.46868 0.30669 0.74942
 C1655 C 0.44630 0.25699 0.78391
 C1656 C 0.50115 0.28364 0.80308
 H1657 H 0.46125 0.22716 0.75902
 H1658 H 0.53044 0.25957 0.78355
 H1659 H 0.52725 0.22021 0.71429
 H1660 H 0.48961 0.28781 0.71957
 H1661 H 0.45234 0.26392 0.70076
 H1662 H 0.48309 0.27503 0.68618
 H1663 H 0.52151 0.24013 0.81062
 H1664 H 0.54347 0.21810 0.78553
 H1665 H 0.42645 0.25293 0.73349
 H1666 H 0.46281 0.19281 0.71815
 H1667 H 0.54817 0.28691 0.77253
 H1668 H 0.56663 0.26338 0.75164
 H1669 H 0.49035 0.19023 0.76449
 H1670 H 0.47184 0.21067 0.78883
 H1671 H 0.53477 0.28674 0.70303
 H1672 H 0.51409 0.31098 0.72721
 O1673 O 0.32041 0.75464 0.46921
 O1674 O 0.31753 0.72124 0.46331
 O1675 O 0.25601 0.77523 0.45134
 O1676 O 0.22319 0.77261 0.46315
 O1677 O 0.28967 0.79765 0.50639
 O1678 O 0.29151 0.78552 0.54198
 O1679 O 0.21876 0.70780 0.50304
 O1680 O 0.21861 0.71890 0.46749
 O1681 O 0.27885 0.68620 0.51718
 O1682 O 0.31489 0.69855 0.51329
 O1683 O 0.25008 0.72688 0.55768
 O1684 O 0.24482 0.76205 0.55880
 O1685 O 0.21853 0.72685 0.53291
 O1686 O 0.22066 0.76537 0.53668
 O1687 O 0.27841 0.70700 0.54981
 O1688 O 0.31565 0.71711 0.53837
 O1689 O 0.24838 0.68675 0.49763
 O1690 O 0.25006 0.69937 0.45965
 O1691 O 0.32177 0.77083 0.50091
 O1692 O 0.31662 0.76650 0.53783
 O1693 O 0.25908 0.79894 0.48698
 O1694 O 0.22259 0.78455 0.49274
 O1695 O 0.28619 0.75804 0.44338
 O1696 O 0.28650 0.72029 0.44450
 Zr1697 Zr 0.29119 0.73974 0.47065
 O1698 O 0.27908 0.71490 0.48734
 Zr1699 Zr 0.25001 0.76866 0.48310
 O1700 O 0.23542 0.74474 0.49904
 Zr1701 Zr 0.29206 0.76716 0.51476
 O1702 O 0.27910 0.74395 0.53297
 Zr1703 Zr 0.24590 0.71694 0.48724
 O1704 O 0.25782 0.74096 0.46896
 Zr1705 Zr 0.28770 0.71634 0.51950
 O1706 O 0.30218 0.73952 0.50240
 Zr1707 Zr 0.24577 0.74495 0.53071
 O1708 O 0.25885 0.77010 0.51517
 O1709 O 0.28292 0.76756 0.48303
 O1710 O 0.25483 0.71715 0.51896
 C1711 C 0.33004 0.76485 0.48355
 C1712 C 0.27079 0.77012 0.43860
 C1713 C 0.27512 0.80721 0.49608
 C1714 C 0.21110 0.71292 0.52097
 C1715 C 0.26242 0.67773 0.50924
 C1716 C 0.26335 0.71269 0.56196
 H1717 H 0.28388 0.70220 0.48081
 H1718 H 0.28412 0.74506 0.54780
 H1719 H 0.28961 0.77841 0.47482
 H1720 H 0.21984 0.74605 0.49766
 H1721 H 0.22298 0.72576 0.45436
 H1722 H 0.21731 0.75908 0.46090
 H1723 H 0.31224 0.72400 0.55177
 H1724 H 0.32487 0.75403 0.53543
 H1725 H 0.23959 0.68838 0.46007
 H1726 H 0.29510 0.72509 0.43251
 H1727 H 0.25960 0.76563 0.56238
 H1728 H 0.27687 0.79084 0.54315
 H1729 H 0.32447 0.71770 0.47695
 H1730 H 0.31283 0.69225 0.49928
 H1731 H 0.22627 0.79136 0.50618
 H1732 H 0.20887 0.76226 0.52680
 O1733 O 0.24129 0.18081 0.98650
 O1734 O 0.27617 0.19113 0.97968
 O1735 O 0.21804 0.21995 1.03335
 O1736 O 0.21111 0.25418 1.03671
 O1737 O 0.18238 0.20690 0.97561
 O1738 O 0.18263 0.22060 0.94086
 O1739 O 0.25933 0.29219 0.98534
 O1740 O 0.25960 0.28021 1.01916
 O1741 O 0.28429 0.25416 0.94444
 O1742 O 0.28009 0.22078 0.93342
 O1743 O 0.22212 0.27941 0.93302
 O1744 O 0.18784 0.27301 0.94492
 O1745 O 0.22768 0.29655 0.96820
 O1746 O 0.18962 0.28378 0.97490
 O1747 O 0.25092 0.26139 0.92253
 O1748 O 0.25208 0.22270 0.91701
 O1749 O 0.28826 0.26695 0.97759
 O1750 O 0.28326 0.25257 1.01448
 O1751 O 0.21398 0.18514 0.96290
 O1752 O 0.20859 0.20372 0.92991
 O1753 O 0.18373 0.22190 1.00793
 O1754 O 0.18707 0.25920 1.01513
 O1755 O 0.24536 0.20025 1.02229
 O1756 O 0.28074 0.20981 1.00949
 Zr1757 Zr 0.25211 0.21031 0.99146
 O1758 O 0.26713 0.23449 0.97663
 Zr1759 Zr 0.21191 0.23909 1.00737
 O1760 O 0.22615 0.26478 0.99435
 Zr1761 Zr 0.20968 0.21641 0.96053
 O1762 O 0.22227 0.24151 0.94525
 Zr1763 Zr 0.25922 0.26118 0.99242
 O1764 O 0.24534 0.23674 1.00862
 Zr1765 Zr 0.25541 0.23882 0.94567
 O1766 O 0.24265 0.21264 0.95938
 Zr1767 Zr 0.21583 0.26754 0.96285
 O1768 O 0.20019 0.24277 0.97628
 O1769 O 0.21941 0.21269 0.99187
 O1770 O 0.24875 0.26535 0.96140
 C1771 C 0.22623 0.17415 0.97460
 C1772 C 0.23194 0.20598 1.03624
 C1773 C 0.17519 0.21013 0.99416
 C1774 C 0.24520 0.30320 0.97594
 C1775 C 0.29490 0.26329 0.95885
 C1776 C 0.23706 0.27551 0.92012
 H1777 H 0.28253 0.23157 0.97701
 H1778 H 0.21634 0.24241 0.93072
 H1779 H 0.21319 0.20100 0.99908
 H1780 H 0.22257 0.27678 1.00280
 H1781 H 0.25388 0.27229 1.03098
 H1782 H 0.22597 0.25519 1.04169
 H1783 H 0.24000 0.22859 0.90895
 H1784 H 0.22285 0.19804 0.92725
 H1785 H 0.29391 0.26340 1.01506
 H1786 H 0.28217 0.19661 1.01671
 H1787 H 0.18657 0.26196 0.93458
 H1788 H 0.17422 0.23163 0.94717
 H1789 H 0.27295 0.18894 0.96450
 H1790 H 0.28821 0.21539 0.94569
 H1791 H 0.17637 0.25844 1.00357
 H1792 H 0.19458 0.29165 0.98722
 C1793 C 0.31401 0.40820 0.76691
 C1794 C 0.32783 0.41535 0.75203
 C1795 C 0.32012 0.43385 0.74665
 C1796 C 0.30233 0.43658 0.75884
 O1797 O 0.29858 0.42105 0.77116
 H1798 H 0.34167 0.40790 0.74571
 H1799 H 0.32675 0.44422 0.73537
 C1800 C 0.25504 -0.09698 0.26446
 C1801 C 0.25275 -0.09850 0.24282
 C1802 C 0.24450 -0.08054 0.23635
 C1803 C 0.24233 -0.06934 0.25451
 O1804 O 0.24878 -0.07928 0.27164
 H1805 H 0.25813 -0.11064 0.23283
 H1806 H 0.24226 -0.07550 0.22018
 C1807 C 0.78714 0.88575 0.78294
 C1808 C 0.78020 0.88220 0.76252
 C1809 C 0.76789 0.89843 0.75733
 C1810 C 0.76828 0.91054 0.77496
 O1811 O 0.78005 0.90299 0.79046
 H1812 H 0.78405 0.86961 0.75245
 H1813 H 0.76069 0.90174 0.74207
 C1814 C 0.46632 0.85680 0.23929
 C1815 C 0.45915 0.85613 0.21863
 C1816 C 0.46655 0.83841 0.21087
 C1817 C 0.47761 0.82949 0.22742
 O1818 O 0.47756 0.84070 0.24469
 H1819 H 0.44855 0.86665 0.21069
 H1820 H 0.46277 0.83195 0.19560
 C1821 C -0.04777 0.84602 0.79912
 C1822 C -0.02997 0.85363 0.78974
 C1823 C -0.02130 0.83803 0.77907
 C1824 C -0.03446 0.82208 0.78269
 O1825 O -0.05059 0.82673 0.79501
 H1826 H -0.02358 0.86857 0.79139
 H1827 H -0.00672 0.83803 0.77023
 C1828 C -0.01844 -0.10781 -0.05494
 C1829 C -0.00212 -0.10162 -0.06761
 C1830 C 0.00630 -0.08544 -0.05758
 C1831 C -0.00555 -0.08292 -0.03956
 O1832 O -0.02065 -0.09645 -0.03794
 H1833 H 0.00300 -0.10807 -0.08239
 H1834 H 0.01928 -0.07631 -0.06295
 C1835 C -0.06572 0.40876 0.47065
 C1836 C -0.07964 0.41399 0.48643
 C1837 C -0.07174 0.43105 0.49497
 C1838 C -0.05363 0.43507 0.48377
 O1839 O -0.04994 0.42163 0.46886
 H1840 H -0.09374 0.40625 0.49134
 H1841 H -0.07843 0.43963 0.50783
 C1842 C 0.47119 -0.10194 0.47223
 C1843 C 0.46967 -0.10229 0.49403
 C1844 C 0.47509 -0.08352 0.50045
 C1845 C 0.47995 -0.07339 0.48216
 O1846 O 0.47759 -0.08444 0.46501
 H1847 H 0.46467 -0.11452 0.50402
 H1848 H 0.47573 -0.07792 0.51650
 C1849 C 0.44172 0.37929 -0.00730
 C1850 C 0.42900 0.38285 0.00993
 C1851 C 0.43939 0.39705 0.02156
 C1852 C 0.45763 0.40096 0.01054
 O1853 O 0.45913 0.39002 -0.00677
 H1854 H 0.41348 0.37683 0.01300
 H1855 H 0.43350 0.40483 0.03533
 C1856 C 0.81253 0.33852 0.44553
 C1857 C 0.79625 0.33581 0.43105
 C1858 C 0.78383 0.32151 0.43949
 C1859 C 0.79343 0.31638 0.45848
 O1860 O 0.81090 0.32675 0.46233
 H1861 H 0.79360 0.34347 0.41612
 H1862 H 0.76975 0.31513 0.43235
 C1863 C 0.78639 0.86224 0.01713
 C1864 C 0.79832 0.85808 0.03510
 C1865 C 0.79107 0.84012 0.04237
 C1866 C 0.77522 0.83476 0.02833
 O1867 O 0.77235 0.84818 0.01309
 H1868 H 0.81152 0.86651 0.04142
 H1869 H 0.79750 0.83138 0.05545
 C1870 C 0.78865 0.26134 0.38557
 C1871 C 0.79707 0.24220 0.38556
 C1872 C 0.79031 0.23355 0.40375
 C1873 C 0.77836 0.24808 0.41375
 O1874 O 0.77724 0.26503 0.40265
 H1875 H 0.80758 0.23563 0.37403
 H1876 H 0.79476 0.21885 0.40972
 C1877 C 0.78989 0.82148 -0.07836
 C1878 C 0.77592 0.83637 -0.07226
 C1879 C 0.76457 0.82820 -0.05632
 C1880 C 0.77244 0.80893 -0.05397
 O1881 O 0.78783 0.80479 -0.06730
 H1882 H 0.77399 0.85127 -0.07883
 H1883 H 0.75212 0.83542 -0.04740
 C1884 C 0.31029 0.47490 0.86254
 C1885 C 0.32326 0.49136 0.86100
 C1886 C 0.31904 0.49941 0.84158
 C1887 C 0.30368 0.48736 0.83275
 O1888 O 0.29840 0.47236 0.84539
 H1889 H 0.33411 0.49710 0.87286
 H1890 H 0.32566 0.51295 0.83502
 C1891 C 0.25831 -0.05070 0.35778
 C1892 C 0.24181 -0.06219 0.35029
 C1893 C 0.23409 -0.05209 0.33301
 C1894 C 0.24662 -0.03533 0.33123
 O1895 O 0.26132 -0.03445 0.34624
 H1896 H 0.23624 -0.07628 0.35655
 H1897 H 0.22135 -0.05672 0.32255
 C1898 C -0.01336 -0.03831 -0.09957
 C1899 C 0.00806 -0.04061 -0.10311
 C1900 C 0.01776 -0.02960 -0.08777
 C1901 C 0.00158 -0.02140 -0.07599
 O1902 O -0.01733 -0.02643 -0.08336
 H1903 H 0.01573 -0.05020 -0.11454
 H1904 H 0.03459 -0.02931 -0.08424
 C1905 C -0.04928 0.48713 0.38867
 C1906 C -0.03502 0.50221 0.38484
 C1907 C -0.03207 0.51141 0.40381
 C1908 C -0.04425 0.50099 0.41797
 O1909 O -0.05479 0.48621 0.40880
 H1910 H -0.02721 0.50567 0.37015
 H1911 H -0.02055 0.52288 0.40740
 C1912 C 0.48771 -0.04990 0.37559
 C1913 C 0.50762 -0.05811 0.37906
 C1914 C 0.51513 -0.04918 0.39679
 C1915 C 0.49941 -0.03602 0.40293
 O1916 O 0.48263 -0.03630 0.39004
 H1917 H 0.51564 -0.06957 0.37001
 H1918 H 0.53022 -0.05213 0.40458
 C1919 C 0.44543 0.43160 -0.09203
 C1920 C 0.44607 0.41408 -0.08039
 C1921 C 0.45440 0.41911 -0.06132
 C1922 C 0.45818 0.43939 -0.06252
 O1923 O 0.45263 0.44720 -0.08115
 H1924 H 0.44149 0.39925 -0.08541
 H1925 H 0.45782 0.40912 -0.04816
 C1926 C 0.45723 0.82253 0.32541
 C1927 C 0.47130 0.83477 0.31517
 C1928 C 0.47924 0.82342 0.29931
 C1929 C 0.46940 0.80509 0.30099
 O1930 O 0.45586 0.80449 0.31675
 H1931 H 0.47570 0.84995 0.31914
 H1932 H 0.49101 0.82788 0.28797
 C1933 C -0.03843 0.75787 0.85977
 C1934 C -0.04249 0.73758 0.85969
 C1935 C -0.03381 0.73052 0.84153
 C1936 C -0.02501 0.74699 0.83187
 O1937 O -0.02776 0.76365 0.84293
 H1938 H -0.05133 0.72907 0.87113
 H1939 H -0.03463 0.71535 0.83556
 C1940 C 0.38289 0.80570 0.25541
 C1941 C 0.38498 0.81263 0.23494
 C1942 C 0.40195 0.80259 0.22699
 C1943 C 0.40905 0.79027 0.24316
 O1944 O 0.39752 0.79207 0.26049
 H1945 H 0.37545 0.82387 0.22679
 H1946 H 0.40865 0.80438 0.21144
 C1947 C -0.11103 0.75677 0.80062
 C1948 C -0.10680 0.73832 0.80968
 C1949 C -0.08983 0.73091 0.79901
 C1950 C -0.08493 0.74548 0.78433
 O1951 O -0.09784 0.76117 0.78525
 H1952 H -0.11466 0.73145 0.82293
 H1953 H -0.08131 0.71705 0.80232
 C1954 C 0.87186 0.26278 0.44922
 C1955 C 0.87076 0.24409 0.43999
 C1956 C 0.85455 0.23465 0.44991
 C1957 C 0.84711 0.24835 0.46443
 O1958 O 0.85764 0.26535 0.46408
 H1959 H 0.87994 0.23840 0.42693
 H1960 H 0.84812 0.22008 0.44615
 C1961 C 0.86194 0.78847 -0.00635
 C1962 C 0.86242 0.79427 0.01456
 C1963 C 0.84419 0.78719 0.02294
 C1964 C 0.83381 0.77771 0.00648
 O1965 O 0.84460 0.77840 -0.01136
 H1966 H 0.87439 0.80305 0.02258
 H1967 H 0.83866 0.78948 0.03890
 C1968 C -0.10099 -0.03693 -0.04782
 C1969 C -0.09456 -0.02259 -0.06204
 C1970 C -0.07530 -0.01659 -0.05486
 C1971 C -0.07130 -0.02771 -0.03677
 O1972 O -0.08686 -0.04020 -0.03244
 H1973 H -0.10303 -0.01692 -0.07583
 H1974 H -0.06542 -0.00521 -0.06181
 C1975 C -0.12446 0.48490 0.48561
 C1976 C -0.12911 0.50513 0.48414
 C1977 C -0.11113 0.51461 0.49049
 C1978 C -0.09692 0.49947 0.49552
 O1979 O -0.10496 0.48140 0.49263
 H1980 H -0.14335 0.51212 0.47771
 H1981 H -0.10821 0.53058 0.49014
 C1982 C 0.39536 -0.01963 0.44283
 C1983 C 0.39823 -0.00450 0.42815
 C1984 C 0.41791 0.00258 0.43191
 C1985 C 0.42582 -0.00849 0.44871
 O1986 O 0.41217 -0.02209 0.45552
 H1987 H 0.38745 0.00076 0.41587
 H1988 H 0.42563 0.01449 0.42337
 C1989 C 0.37736 0.46505 0.00117
 C1990 C 0.37667 0.48557 0.00443
 C1991 C 0.39690 0.49089 0.00909
 C1992 C 0.40846 0.47332 0.00860
 O1993 O 0.39672 0.45751 0.00389
 H1994 H 0.36325 0.49568 0.00259
 H1995 H 0.40279 0.50594 0.01142
 C1996 C 0.37490 0.49130 0.76145
 C1997 C 0.37534 0.49317 0.73971
 C1998 C 0.35582 0.50027 0.73394
 C1999 C 0.34497 0.50244 0.75257
 O2000 O 0.35649 0.49703 0.76935
 H2001 H 0.38794 0.48877 0.72919
 H2002 H 0.34981 0.50259 0.71799
 C2003 C 0.33664 -0.05752 0.28971
 C2004 C 0.32211 -0.07113 0.28207
 C2005 C 0.30493 -0.06008 0.27613
 C2006 C 0.31000 -0.04052 0.28073
 O2007 O 0.32928 -0.03878 0.28912
 H2008 H 0.32407 -0.08718 0.28033
 H2009 H 0.29052 -0.06554 0.26879
 C2010 C 0.13316 0.52944 0.75523
 C2011 C 0.12920 0.50991 0.76120
 C2012 C 0.14814 0.50235 0.76829
 C2013 C 0.16222 0.51784 0.76624
 O2014 O 0.15324 0.53423 0.75818
 H2015 H 0.11477 0.50160 0.75859
 H2016 H 0.15170 0.48693 0.77254
 C2017 C 0.14055 0.07716 0.22878
 C2018 C 0.14680 0.09162 0.24307
 C2019 C 0.16582 0.08513 0.25097
 C2020 C 0.16996 0.06729 0.24076
 O2021 O 0.15464 0.06236 0.22724
 H2022 H 0.13835 0.10515 0.24748
 H2023 H 0.17558 0.09253 0.26274
 C2024 C 0.59865 0.68998 0.23451
 C2025 C 0.59399 0.68241 0.25420
 C2026 C 0.57420 0.68930 0.25843
 C2027 C 0.56814 0.70066 0.24105
 O2028 O 0.58295 0.70107 0.22637
 H2029 H 0.60382 0.67295 0.26430
 H2030 H 0.56525 0.68645 0.27260
 C2031 C 0.11030 0.74482 0.69693
 C2032 C 0.10630 0.76242 0.68602
 C2033 C 0.08704 0.76893 0.69302
 C2034 C 0.08084 0.75473 0.70758
 O2035 O 0.09494 0.74016 0.70998
 H2036 H 0.11594 0.76934 0.67407
 H2037 H 0.07820 0.78199 0.68756
 C2038 C 0.65326 0.23404 0.55544
 C2039 C 0.65801 0.25001 0.56843
 C2040 C 0.67743 0.25634 0.56223
 C2041 C 0.68313 0.24374 0.54593
 O2042 O 0.66849 0.23016 0.54178
 H2043 H 0.64848 0.25630 0.58093
 H2044 H 0.68648 0.26854 0.56893
 C2045 C 0.63140 0.71457 0.02672
 C2046 C 0.62778 0.71643 0.00525
 C2047 C 0.64464 0.72669 -0.00223
 C2048 C 0.65735 0.73018 0.01524
 O2049 O 0.64935 0.72287 0.03286
 H2050 H 0.61521 0.70970 -0.00402
 H2051 H 0.64804 0.72994 -0.01862
 C2052 C 0.11002 0.01886 0.06889
 C2053 C 0.10748 0.00435 0.08423
 C2054 C 0.08963 -0.00573 0.07839
 C2055 C 0.08257 0.00362 0.06010
 O2056 O 0.09493 0.01848 0.05427
 H2057 H 0.11732 0.00162 0.09810
 H2058 H 0.08225 -0.01792 0.08681
 C2059 C 0.11354 0.53050 0.51155
 C2060 C 0.11567 0.52853 0.48999
 C2061 C 0.09777 0.51911 0.48325
 C2062 C 0.08609 0.51581 0.50120
 O2063 O 0.09562 0.52277 0.51843
 H2064 H 0.12817 0.53433 0.48020
 H2065 H 0.09299 0.51640 0.46701
 C2066 C 0.62346 0.03491 0.52601
 C2067 C 0.62983 0.03367 0.50531
 C2068 C 0.61272 0.02694 0.49436
 C2069 C 0.59703 0.02465 0.50914
 O2070 O 0.60349 0.02944 0.52851
 H2071 H 0.64485 0.03821 0.49884
 H2072 H 0.61143 0.02496 0.47740
 C2073 C 0.61626 0.51117 0.02199
 C2074 C 0.61957 0.50674 0.00102
 C2075 C 0.60286 0.49530 -0.00501
 C2076 C 0.59045 0.49360 0.01270
 O2077 O 0.59857 0.50324 0.02920
 H2078 H 0.63202 0.51228 -0.00900
 H2079 H 0.59924 0.49014 -0.02087
 C2080 C 0.02062 0.00653 0.13240
 C2081 C 0.02819 -0.01272 0.13567
 C2082 C 0.02145 -0.02341 0.11857
 C2083 C 0.01024 -0.00993 0.10605
 O2084 O 0.00964 0.00827 0.11448
 H2085 H 0.03848 -0.01801 0.14837
 H2086 H 0.02570 -0.03875 0.11482
 C2087 C 0.05232 0.52133 0.60990
 C2088 C 0.05551 0.50084 0.60951
 C2089 C 0.04640 0.49464 0.59113
 C2090 C 0.03817 0.51177 0.58176
 O2091 O 0.04171 0.52807 0.59309
 H2092 H 0.06388 0.49156 0.62100
 H2093 H 0.04596 0.47945 0.58514
 C2094 C 0.51767 0.05057 0.59622
 C2095 C 0.50630 0.03309 0.59802
 C2096 C 0.50192 0.02735 0.57795
 C2097 C 0.51111 0.04150 0.56520
 O2098 O 0.52068 0.05583 0.57619
 H2099 H 0.50249 0.02496 0.61230
 H2100 H 0.49443 0.01354 0.57308
 C2101 C 0.55309 0.53057 0.10736
 C2102 C 0.56568 0.51360 0.10891
 C2103 C 0.55876 0.50121 0.09342
 C2104 C 0.54247 0.51148 0.08328
 O2105 O 0.53884 0.52941 0.09177
 H2106 H 0.57865 0.51073 0.11990
 H2107 H 0.56518 0.48656 0.08961
 C2108 C 0.18505 0.54410 0.65951
 C2109 C 0.16968 0.53193 0.66783
 C2110 C 0.17808 0.52461 0.68614
 C2111 C 0.19800 0.53282 0.68784
 O2112 O 0.20236 0.54478 0.67168
 H2113 H 0.15435 0.52833 0.66110
 H2114 H 0.17065 0.51426 0.69692
 C2115 C 0.23440 0.07919 0.15321
 C2116 C 0.25404 0.08741 0.15700
 C2117 C 0.26085 0.07903 0.17565
 C2118 C 0.24483 0.06633 0.18163
 O2119 O 0.22880 0.06646 0.16809
 H2120 H 0.26236 0.09812 0.14735
 H2121 H 0.27568 0.08179 0.18388
 C2122 C 0.73974 0.22739 0.62120
 C2123 C 0.73565 0.24739 0.62520
 C2124 C 0.74318 0.25760 0.60816
 C2125 C 0.75127 0.24304 0.59504
 O2126 O 0.74904 0.22475 0.60284
 H2127 H 0.72644 0.25357 0.63800
 H2128 H 0.74149 0.27350 0.60494
 C2129 C 0.69718 0.68100 0.09519
 C2130 C 0.70477 0.66641 0.08178
 C2131 C 0.71480 0.67643 0.06628
 C2132 C 0.71253 0.69645 0.07121
 O2133 O 0.70165 0.69941 0.08874
 H2134 H 0.70382 0.65032 0.08361
 H2135 H 0.72317 0.66993 0.05309
 C2136 C 0.51985 0.67287 0.14588
 C2137 C 0.50207 0.66174 0.15007
 C2138 C 0.49195 0.67176 0.16576
 C2139 C 0.50437 0.68821 0.17001
 O2140 O 0.52134 0.68895 0.15798
 H2141 H 0.49711 0.64790 0.14269
 H2142 H 0.47750 0.66739 0.17349
 C2143 C 0.02832 0.74325 0.62591
 C2144 C 0.03200 0.76360 0.62541
 C2145 C 0.02254 0.77109 0.64301
 C2146 C 0.01375 0.75475 0.65293
 O2147 O 0.01717 0.73784 0.64252
 H2148 H 0.04148 0.77180 0.61423
 H2149 H 0.02330 0.78635 0.64874
 C2150 C 0.50722 0.63101 0.23603
 C2151 C 0.50917 0.62937 0.25775
 C2152 C 0.50041 0.64650 0.26572
 C2153 C 0.49370 0.65735 0.24828
 O2154 O 0.49783 0.64801 0.23030
 H2155 H 0.51810 0.61812 0.26657
 H2156 H 0.50082 0.65139 0.28203
 C2157 C 0.04884 0.65870 0.68398
 C2158 C 0.03607 0.66444 0.66708
 C2159 C 0.02459 0.68033 0.67400
 C2160 C 0.03119 0.68330 0.69461
 O2161 O 0.04599 0.67021 0.70082
 H2162 H 0.03480 0.65759 0.65164
 H2163 H 0.01280 0.68882 0.66506
 C2164 C 0.02129 0.08459 0.08006
 C2165 C 0.00271 0.08053 0.09038
 C2166 C -0.00517 0.06399 0.08063
 C2167 C 0.00921 0.05928 0.06508
 O2168 O 0.02533 0.07172 0.06474
 H2169 H -0.00427 0.08866 0.10339
 H2170 H -0.01953 0.05614 0.08454
 C2171 C 0.05083 0.60530 0.53803
 C2172 C 0.06232 0.60443 0.51965
 C2173 C 0.05355 0.58938 0.50815
 C2174 C 0.03750 0.58203 0.52049
 O2175 O 0.03574 0.59171 0.53868
 H2176 H 0.07582 0.61342 0.51544
 H2177 H 0.05884 0.58381 0.49302
 C2178 C 0.55277 0.11755 0.49498
 C2179 C 0.56351 0.11514 0.47629
 C2180 C 0.55706 0.09715 0.46850
 C2181 C 0.54271 0.09002 0.48291
 O2182 O 0.54005 0.10237 0.49901
 H2183 H 0.57527 0.12491 0.46958
 H2184 H 0.56266 0.08977 0.45437
 C2185 C 0.56000 0.57807 0.01781
 C2186 C 0.56931 0.57425 -0.00139
 C2187 C 0.55905 0.55794 -0.00920
 C2188 C 0.54423 0.55317 0.00583
 O2189 O 0.54478 0.56535 0.02224
 H2190 H 0.58232 0.58208 -0.00859
 H2191 H 0.56245 0.55004 -0.02372
 C2192 C 0.71438 0.16298 0.57357
 C2193 C 0.72966 0.16832 0.58828
 C2194 C 0.74287 0.18066 0.57786
 C2195 C 0.73462 0.18223 0.55762
 O2196 O 0.71725 0.17150 0.55487
 H2197 H 0.73136 0.16346 0.60455
 H2198 H 0.75669 0.18802 0.58438
 C2199 C 0.70137 0.64585 0.00601
 C2200 C 0.69140 0.65039 -0.01300
 C2201 C 0.69896 0.66866 -0.01880
 C2202 C 0.71314 0.67389 -0.00303
 O2203 O 0.71462 0.66008 0.01207
 H2204 H 0.67948 0.64176 -0.02127
 H2205 H 0.69416 0.67745 -0.03250
 C2206 C 0.20019 0.61612 0.74766
 C2207 C 0.19084 0.61387 0.76712
 C2208 C 0.19845 0.59600 0.77479
 C2209 C 0.21179 0.58883 0.75935
 O2210 O 0.21287 0.60101 0.74296
 H2211 H 0.17952 0.62381 0.77457
 H2212 H 0.19436 0.58881 0.78954
 C2213 C 0.24107 0.13123 0.24281
 C2214 C 0.26260 0.13277 0.24635
 C2215 C 0.26855 0.11525 0.25597
 C2216 C 0.25020 0.10434 0.25778
 O2217 O 0.23349 0.11404 0.24981
 H2218 H 0.27295 0.14459 0.24113
 H2219 H 0.28458 0.11026 0.25953
 C2220 C 0.71579 1.10533 0.73240
 C2221 C 0.73328 1.10951 0.74478
 C2222 C 0.73893 1.09183 0.75405
 C2223 C 0.72451 1.07799 0.74670
 O2224 O 0.71036 1.08612 0.73340
 H2225 H 0.74153 1.12362 0.74604
 H2226 H 0.75270 1.08902 0.76405
 C2227 C 0.74892 0.61180 0.22986
 C2228 C 0.76877 0.61071 0.22105
 C2229 C 0.77756 0.59324 0.22840
 C2230 C 0.76234 0.58489 0.24105
 O2231 O 0.74501 0.59618 0.24202
 H2232 H 0.77517 0.62047 0.20905
 H2233 H 0.79227 0.58639 0.22334
 C2234 C 0.56044 0.14949 0.72067
 C2235 C 0.57172 0.15174 0.73941
 C2236 C 0.56205 0.16710 0.74967
 C2237 C 0.54543 0.17292 0.73666
 O2238 O 0.54435 0.16230 0.71900
 H2239 H 0.58579 0.14371 0.74472
 H2240 H 0.56704 0.17386 0.76444
 C2241 C 0.99638 0.15646 0.19623
 C2242 C 0.97617 0.15969 0.18827
 C2243 C 0.97074 0.17867 0.19446
 C2244 C 0.98794 0.18548 0.20595
 O2245 O 1.00352 0.17206 0.20699
 H2246 H 0.96680 0.14967 0.17860
 H2247 H 0.95621 0.18673 0.19067
 C2248 C 0.24417 0.63151 0.52803
 C2249 C 0.26545 0.62853 0.53217
 C2250 C 0.27522 0.64477 0.52387
 C2251 C 0.25921 0.65662 0.51530
 O2252 O 0.24025 0.64855 0.51773
 H2253 H 0.27283 0.61640 0.54108
 H2254 H 0.29191 0.64825 0.52515
 C2255 C 0.21129 0.12685 0.99196
 C2256 C 0.20234 0.12566 0.97199
 C2257 C 0.20849 0.14270 0.96185
 C2258 C 0.22086 0.15288 0.97635
 O2259 O 0.22261 0.14325 0.99457
 H2260 H 0.19149 0.11448 0.96606
 H2261 H 0.20329 0.14782 0.94635
 C2262 C 0.24649 0.69183 0.60968
 C2263 C 0.26355 0.67910 0.60664
 C2264 C 0.27274 0.68564 0.58850
 C2265 C 0.26055 0.70182 0.58190
 O2266 O 0.24463 0.70561 0.59471
 H2267 H 0.26847 0.66639 0.61624
 H2268 H 0.28632 0.67908 0.58073
 C2269 C 0.22758 0.18952 1.08898
 C2270 C 0.24364 0.17665 1.08296
 C2271 C 0.24699 0.18076 1.06218
 C2272 C 0.23278 0.19590 1.05701
 O2273 O 0.22088 0.20123 1.07325
 H2274 H 0.25203 0.16565 1.09260
 H2275 H 0.25867 0.17381 1.05209
 C2276 C 0.72825 0.55423 0.14458
 C2277 C 0.74773 0.56293 0.14793
 C2278 C 0.75561 0.55433 0.16590
 C2279 C 0.74034 0.54106 0.17238
 O2280 O 0.72363 0.54090 0.15943
 H2281 H 0.75532 0.57421 0.13840
 H2282 H 0.77054 0.55768 0.17366
 C2283 C 0.73807 1.04348 0.65314
 C2284 C 0.75695 1.05334 0.65658
 C2285 C 0.76636 1.04387 0.67339
 C2286 C 0.75254 1.02893 0.67890
 O2287 O 0.73543 1.02858 0.66658
 H2288 H 0.76239 1.06678 0.64879
 H2289 H 0.78063 1.04835 0.68170
 C2290 C 0.51249 0.19379 0.63739
 C2291 C 0.49855 0.17940 0.64421
 C2292 C 0.49087 0.18648 0.66284
 C2293 C 0.50059 0.20470 0.66588
 O2294 O 0.51372 0.20917 0.65047
 H2295 H 0.49500 0.16515 0.63690
 H2296 H 0.48012 0.17893 0.67336
 C2297 C 1.01340 0.23428 0.11829
 C2298 C 1.01502 0.25417 0.11253
 C2299 C 1.00857 0.26468 0.12977
 C2300 C 1.00330 0.25038 0.14454
 O2301 O 1.00620 0.23197 0.13761
 H2302 H 1.02193 0.26022 0.09832
 H2303 H 1.00951 0.28074 0.13207
 C2304 C 0.59930 0.21793 0.67923
 C2305 C 0.59242 0.23062 0.66321
 C2306 C 0.57676 0.24200 0.67179
 C2307 C 0.57532 0.23554 0.69245
 O2308 O 0.58896 0.22088 0.69703
 H2309 H 0.59782 0.23123 0.64705
 H2310 H 0.56699 0.25314 0.66373
 C2311 C 1.09587 0.20082 0.19251
 C2312 C 1.08233 0.18534 0.19693
 C2313 C 1.06404 0.19424 0.20304
 C2314 C 1.06765 0.21460 0.20200
 O2315 O 1.08703 0.21876 0.19546
 H2316 H 1.08574 0.16941 0.19651
 H2317 H 1.04992 0.18680 0.20845
 C2318 C 0.16835 0.69068 0.54689
 C2319 C 0.17404 0.67469 0.53430
 C2320 C 0.19022 0.68138 0.52238
 C2321 C 0.19345 0.70090 0.52872
 O2322 O 0.18016 0.70669 0.54364
 H2323 H 0.16701 0.65995 0.53368
 H2324 H 0.19906 0.67288 0.51083
 C2325 C 0.13518 0.18329 1.01904
 C2326 C 0.13608 0.17212 1.00079
 C2327 C 0.15034 0.18162 0.98850
 C2328 C 0.15721 0.19778 1.00031
 O2329 O 0.14798 0.19888 1.01890
 H2330 H 0.12744 0.15864 0.99696
 H2331 H 0.15579 0.17684 0.97313
 C2332 C 0.65675 0.57638 0.22638
 C2333 C 0.66241 0.58650 0.24454
 C2334 C 0.67836 0.57542 0.25343
 C2335 C 0.68120 0.55929 0.24009
 O2336 O 0.66815 0.55985 0.22354
 H2337 H 0.65567 0.60028 0.25062
 H2338 H 0.68697 0.57872 0.26790
 C2339 C 0.64376 1.01811 0.69298
 C2340 C 0.64627 0.99940 0.68409
 C2341 C 0.66421 0.99167 0.69332
 C2342 C 0.67098 1.00618 0.70731
 O2343 O 0.65865 1.02227 0.70711
 H2344 H 0.63649 0.99246 0.67204
 H2345 H 0.67144 0.97718 0.69032
 C2346 C 0.84020 0.42524 0.28447
 C2347 C 0.83429 0.41373 0.26732
 C2348 C 0.81764 0.42373 0.25816
 C2349 C 0.81472 0.44066 0.27032
 O2350 O 0.82834 0.44160 0.28637
 H2351 H 0.84140 0.39984 0.26196
 H2352 H 0.80880 0.41931 0.24418
 C2353 C 0.83633 0.96017 0.83889
 C2354 C 0.82883 0.97428 0.85291
 C2355 C 0.81263 0.98377 0.84258
 C2356 C 0.81148 0.97487 0.82293
 O2357 O 0.82584 0.96045 0.82060
 H2358 H 0.83455 0.97740 0.86874
 H2359 H 0.80274 0.99574 0.84868
 C2360 C 0.40120 0.27451 0.80977
 C2361 C 0.40818 0.26150 0.82542
 C2362 C 0.42597 0.25269 0.81757
 C2363 C 0.42832 0.26093 0.79770
 O2364 O 0.41335 0.27420 0.79293
 H2365 H 0.40141 0.25906 0.84084
 H2366 H 0.43622 0.24185 0.82550
 C2367 C 0.90186 0.32548 0.27719
 C2368 C 0.90851 0.34147 0.26514
 C2369 C 0.92718 0.33551 0.25665
 C2370 C 0.93070 0.31627 0.26402
 O2371 O 0.91535 0.31007 0.27660
 H2372 H 0.90059 0.35575 0.26259
 H2373 H 0.93697 0.34410 0.24607
 C2374 C 0.38160 0.77651 0.46810
 C2375 C 0.38542 0.77437 0.48954
 C2376 C 0.36645 0.76971 0.49793
 C2377 C 0.35251 0.76914 0.48101
 O2378 O 0.36159 0.77314 0.46277
 H2379 H 0.40009 0.77667 0.49820
 H2380 H 0.36308 0.76716 0.51446
 C2381 C 0.34316 0.27923 0.93827
 C2382 C 0.35081 0.27176 0.95727
 C2383 C 0.33352 0.26495 0.96758
 C2384 C 0.31668 0.26872 0.95404
 O2385 O 0.32238 0.27751 0.93624
 H2386 H 0.36690 0.27235 0.96333
 H2387 H 0.33314 0.25821 0.98316
 C2388 C 0.77672 0.44069 0.35536
 C2389 C 0.76104 0.42735 0.34990
 C2390 C 0.74952 0.43675 0.33433
 C2391 C 0.75934 0.45493 0.33137
 O2392 O 0.77581 0.45736 0.34415
 H2393 H 0.75866 0.41242 0.35615
 H2394 H 0.73651 0.43055 0.32521
 C2395 C 0.74798 0.94389 0.87368
 C2396 C 0.73006 0.93308 0.86876
 C2397 C 0.72291 0.94061 0.84986
 C2398 C 0.73685 0.95561 0.84474
 O2399 O 0.75211 0.95763 0.85915
 H2400 H 0.72343 0.92071 0.87750
 H2401 H 0.70952 0.93540 0.84061
 C2402 C 0.27537 0.79386 0.38879
 C2403 C 0.25359 0.79334 0.39005
 C2404 C 0.24944 0.78360 0.40832
 C2405 C 0.26893 0.77873 0.41708
 O2406 O 0.28491 0.78484 0.40520
 H2407 H 0.24203 0.79984 0.37918
 H2408 H 0.23397 0.78089 0.41489
 C2409 C 0.25255 0.30371 0.87658
 C2410 C 0.23229 0.31151 0.87781
 C2411 C 0.22334 0.30160 0.89431
 C2412 C 0.23884 0.28845 0.90159
 O2413 O 0.25653 0.28972 0.89089
 H2414 H 0.22515 0.32333 0.86827
 H2415 H 0.20760 0.30390 0.90052
 C2416 C 0.48552 0.30786 0.84953
 C2417 C 0.50136 0.32095 0.84403
 C2418 C 0.50991 0.31322 0.82609
 C2419 C 0.49881 0.29590 0.82214
 O2420 O 0.48397 0.29260 0.83631
 H2421 H 0.50568 0.33482 0.85171
 H2422 H 0.52235 0.31968 0.81671
 C2423 C 0.98714 0.31198 0.34637
 C2424 C 1.00803 0.31773 0.34584
 C2425 C 1.01604 0.30866 0.32840
 C2426 C 0.99939 0.29812 0.31961
 O2427 O 0.98181 0.30009 0.33050
 H2428 H 1.01633 0.32751 0.35671
 H2429 H 1.03193 0.31015 0.32236
 C2430 C 0.44969 0.35528 0.75981
 C2431 C 0.43844 0.35213 0.74130
 C2432 C 0.44363 0.33312 0.73526
 C2433 C 0.45799 0.32630 0.75031
 O2434 O 0.46165 0.33966 0.76534
 H2435 H 0.42746 0.36235 0.73344
 H2436 H 0.43800 0.32528 0.72133
 C2437 C 0.99608 0.37325 0.28158
 C2438 C 1.01743 0.37393 0.28650
 C2439 C 1.02615 0.35747 0.27686
 C2440 C 1.00948 0.34837 0.26649
 O2441 O 0.99130 0.35784 0.26945
 H2442 H 1.02543 0.38445 0.29678
 H2443 H 1.04246 0.35237 0.27784
 C2444 C 0.29043 0.85637 0.48429
 C2445 C 0.26966 0.86054 0.48934
 C2446 C 0.26127 0.84267 0.49534
 C2447 C 0.27758 0.82893 0.49358
 O2448 O 0.29524 0.83712 0.48665
 H2449 H 0.26122 0.87464 0.48726
 H2450 H 0.24501 0.83978 0.49956
 C2451 C 0.26492 0.35102 0.96353
 C2452 C 0.24362 0.35513 0.96080
 C2453 C 0.23352 0.33816 0.96668
 C2454 C 0.24933 0.32474 0.97253
 O2455 O 0.26855 0.33253 0.97071
 H2456 H 0.23637 0.36867 0.95442
 H2457 H 0.21665 0.33547 0.96569
 C2458 C 0.74891 0.38889 0.28471
 C2459 C 0.72741 0.38905 0.28835
 C2460 C 0.71996 0.40647 0.27949
 C2461 C 0.73739 0.41550 0.27077
 O2462 O 0.75499 0.40489 0.27400
 H2463 H 0.71843 0.37829 0.29733
 H2464 H 0.70396 0.41241 0.28023
   
