data_POSCAR
  _audit_creation_date              2014-09-24
  _audit_creation_method            'ToBaCCo'
  _symmetry_space_group_name_H-M    'P1'
  _symmetry_Int_Tables_number       1
  _symmetry_cell_setting            triclinic
  loop_
  _symmetry_equiv_pos_as_xyz
 x,y,z
_cell_length_a 70.1848
_cell_length_b 70.6591
_cell_length_c 71.4033
_cell_angle_alpha 89.955900
_cell_angle_beta 90.027100
_cell_angle_gamma 89.997700
loop_
  _atom_site_label
  _atom_site_type_symbol
  _atom_site_fract_x
  _atom_site_fract_y
  _atom_site_fract_z
O1 O 0.34155 0.31470 -0.01812
 O2 O 0.31584 0.34134 0.01808
 O3 O 0.34185 0.31510 0.01818
 O4 O 0.31562 0.34103 -0.01821
 O5 O 0.29311 0.31930 -0.01790
 O6 O 0.31952 0.29314 0.01862
 O7 O 0.29335 0.31955 0.01853
 O8 O 0.31920 0.29277 -0.01781
 Cu9 Cu 0.33095 0.33022 -0.00006
 Cu10 Cu 0.30404 0.30399 0.00039
 C11 C 0.33491 0.29910 -0.02406
 C12 C 0.30013 0.33513 0.02442
 C13 C 0.33531 0.29963 0.02454
 C14 C 0.29977 0.33478 -0.02421
 O15 O 0.65392 0.68078 -0.01879
 O16 O 0.68027 0.65508 0.01772
 O17 O 0.65405 0.68115 0.01756
 O18 O 0.68010 0.65470 -0.01859
 O19 O 0.70239 0.67666 -0.01897
 O20 O 0.67622 0.70326 0.01729
 O21 O 0.70258 0.67705 0.01744
 O22 O 0.67609 0.70289 -0.01916
 Cu23 Cu 0.66486 0.66574 -0.00049
 Cu24 Cu 0.69155 0.69219 -0.00088
 C25 C 0.66039 0.69629 -0.02515
 C26 C 0.69601 0.66154 0.02373
 C27 C 0.66056 0.69679 0.02353
 C28 C 0.69580 0.66100 -0.02490
 O29 O 0.65574 0.31898 1.01821
 O30 O 0.68217 0.34415 0.98143
 O31 O 0.65567 0.31835 0.98186
 O32 O 0.68214 0.34479 1.01772
 O33 O 0.70423 0.32263 1.01819
 O34 O 0.67763 0.29603 0.98221
 O35 O 0.70428 0.32197 0.98180
 O36 O 0.67770 0.29667 1.01867
 Cu37 Cu 0.66672 0.33377 0.99975
 Cu38 Cu 0.69316 0.30707 1.00024
 C39 C 0.66211 0.30348 1.02469
 C40 C 0.69784 0.33751 0.97544
 C41 C 0.66201 0.30261 0.97597
 C42 C 0.69781 0.33839 1.02403
 O43 O 0.34302 0.68194 1.01873
 O44 O 0.31704 0.65458 0.98316
 O45 O 0.34269 0.68117 0.98242
 O46 O 0.31752 0.65520 1.01948
 O47 O 0.29468 0.67659 1.01934
 O48 O 0.32007 0.70283 0.98220
 O49 O 0.29427 0.67609 0.98290
 O50 O 0.32030 0.70351 1.01862
 Cu51 Cu 0.33233 0.66608 1.00097
 Cu52 Cu 0.30504 0.69192 1.00075
 C53 C 0.33622 0.69748 1.02466
 C54 C 0.30115 0.66056 0.97702
 C55 C 0.33583 0.69651 0.97605
 C56 C 0.30170 0.66128 1.02570
 O57 O -0.02000 0.34646 0.32145
 O58 O 0.01719 0.32070 0.34715
 O59 O 0.01697 0.34639 0.32109
 O60 O -0.01977 0.32070 0.34751
 O61 O -0.02009 0.29834 0.32603
 O62 O 0.01680 0.32412 0.29947
 O63 O 0.01700 0.29828 0.32568
 O64 O -0.02030 0.32423 0.29979
 Cu65 Cu -0.00139 0.33578 0.33645
 Cu66 Cu -0.00169 0.30899 0.31057
 C67 C -0.02644 0.33987 0.30616
 C68 C 0.02342 0.30505 0.34091
 C69 C 0.02313 0.33974 0.30572
 C70 C -0.02618 0.30504 0.34143
 O71 O 0.01901 0.67920 0.65442
 O72 O -0.01834 0.65453 0.68089
 O73 O -0.01790 0.68034 0.65487
 O74 O 0.01861 0.65345 0.68046
 O75 O 0.01964 0.67566 0.70212
 O76 O -0.01703 0.70264 0.67640
 O77 O -0.01744 0.67670 0.70260
 O78 O 0.02001 0.70155 0.67593
 Cu79 Cu 0.00024 0.66466 0.66551
 Cu80 Cu 0.00138 0.69137 0.69144
 C81 C 0.02583 0.69466 0.66052
 C82 C -0.02421 0.66127 0.69633
 C83 C -0.02364 0.69620 0.66109
 C84 C 0.02533 0.65987 0.69570
 O85 O 1.01751 0.65377 0.31913
 O86 O 0.98121 0.68010 0.34552
 O87 O 0.98056 0.65424 0.31961
 O88 O 1.01814 0.67939 0.34527
 O89 O 1.01834 0.70180 0.32380
 O90 O 0.98065 0.67642 0.29786
 O91 O 0.98129 0.70244 0.32393
 O92 O 1.01773 0.67605 0.29748
 Cu93 Cu 0.99934 0.66465 0.33453
 Cu94 Cu 0.99952 0.69142 0.30859
 C95 C 1.02376 0.66030 0.30374
 C96 C 0.97513 0.69585 0.33934
 C97 C 0.97424 0.66090 0.30429
 C98 C 1.02461 0.69499 0.33911
 O99 O 0.97989 0.32085 0.65276
 O100 O 1.01718 0.34653 0.67840
 O101 O 1.01685 0.32088 0.65231
 O102 O 0.98022 0.34653 0.67885
 O103 O 0.98047 0.32423 0.70048
 O104 O 1.01723 0.29844 0.67375
 O105 O 1.01755 0.32421 0.70001
 O106 O 0.98013 0.29840 0.67423
 Cu107 Cu 0.99850 0.33592 0.66343
 Cu108 Cu 0.99887 0.30906 0.68928
 C109 C 0.97369 0.30518 0.65899
 C110 C 1.02369 0.33987 0.69364
 C111 C 1.02330 0.30521 0.65836
 C112 C 0.97416 0.33989 0.69427
 O113 O 0.31877 -0.01798 0.34552
 O114 O 0.34534 0.01890 0.32032
 O115 O 0.31945 0.01871 0.34635
 O116 O 0.34479 -0.01781 0.31955
 O117 O 0.32246 -0.01700 0.29783
 O118 O 0.29694 0.01965 0.32481
 O119 O 0.32296 0.01983 0.29864
 O120 O 0.29628 -0.01716 0.32395
 Cu121 Cu 0.33432 0.00036 0.33509
 Cu122 Cu 0.30740 0.00140 0.30913
 C123 C 0.30291 -0.02379 0.33917
 C124 C 0.33878 0.02563 0.30513
 C125 C 0.30382 0.02538 0.34027
 C126 C 0.33809 -0.02358 0.30405
 O127 O 0.65487 0.01759 0.68175
 O128 O 0.68047 -0.01961 0.65608
 O129 O 0.65429 -0.01913 0.68189
 O130 O 0.68085 0.01706 0.65576
 O131 O 0.70329 0.01693 0.67740
 O132 O 0.67651 -0.01937 0.70373
 O133 O 0.70284 -0.01984 0.67778
 O134 O 0.67716 0.01747 0.70354
 Cu135 Cu 0.66538 -0.00101 0.66671
 Cu136 Cu 0.69219 -0.00122 0.69281
 C137 C 0.66154 0.02383 0.69709
 C138 C 0.69612 -0.02599 0.66241
 C139 C 0.66073 -0.02537 0.69732
 C140 C 0.69669 0.02308 0.66196
 O141 O 0.31890 1.01864 0.65414
 O142 O 0.34410 0.98093 0.67941
 O143 O 0.31810 0.98195 0.65346
 O144 O 0.34481 1.01764 0.68016
 O145 O 0.32243 1.01773 0.70183
 O146 O 0.29564 0.98189 0.67505
 O147 O 0.32180 0.98089 0.70115
 O148 O 0.29637 1.01871 0.67566
 Cu149 Cu 0.33371 0.99979 0.66464
 Cu150 Cu 0.30680 0.99980 0.69061
 C151 C 0.30328 1.02507 0.66045
 C152 C 0.33738 0.97451 0.69465
 C153 C 0.30224 0.97589 0.65959
 C154 C 0.33827 1.02375 0.69560
 O155 O 0.68237 1.01727 0.34387
 O156 O 0.65651 0.98065 0.31770
 O157 O 0.68237 0.98060 0.34383
 O158 O 0.65655 1.01736 0.31769
 O159 O 0.67902 1.01746 0.29611
 O160 O 0.70497 0.98056 0.32237
 O161 O 0.67894 0.98063 0.29608
 O162 O 0.70498 1.01734 0.32247
 Cu163 Cu 0.66720 0.99897 0.33291
 Cu164 Cu 0.69424 0.99900 0.30709
 C165 C 0.69821 1.02349 0.33783
 C166 C 0.66317 0.97446 0.30235
 C167 C 0.69817 0.97439 0.33771
 C168 C 0.66325 1.02362 0.30237
 C169 C 0.80613 0.86237 0.51795
 C170 C 0.79953 0.86937 0.50081
 C171 C 0.80635 0.86239 0.48377
 C172 C 0.82042 0.84805 0.48374
 C173 C 0.82737 0.84086 0.50102
 C174 C 0.82025 0.84808 0.51819
 C175 C 0.82785 0.84125 0.53511
 C176 C 0.84197 0.82742 0.53522
 C177 C 0.84903 0.81985 0.51840
 C178 C 0.84176 0.82671 0.50112
 C179 C 0.82816 0.84115 0.46692
 C180 C 0.84222 0.82727 0.46702
 C181 C 0.84913 0.81975 0.48395
 C182 C 0.86365 0.80586 0.48419
 C183 C 0.87073 0.79934 0.50132
 C184 C 0.86361 0.80602 0.51836
 H185 H 0.82317 0.84674 0.54848
 H186 H 0.84747 0.82292 0.54865
 H187 H 0.82362 0.84661 0.45348
 H188 H 0.84783 0.82272 0.45366
 H189 H 0.78866 0.88029 0.50074
 H190 H 0.88182 0.78865 0.50139
 C191 C 0.20490 0.14933 0.51784
 C192 C 0.21198 0.14253 0.50083
 C193 C 0.20506 0.14912 0.48366
 C194 C 0.19077 0.16325 0.48337
 C195 C 0.18347 0.17037 0.50052
 C196 C 0.19060 0.16344 0.51782
 C197 C 0.18363 0.17117 0.53461
 C198 C 0.16965 0.18514 0.53445
 C199 C 0.16209 0.19194 0.51751
 C200 C 0.16921 0.18464 0.50036
 C201 C 0.18397 0.17080 0.46642
 C202 C 0.17000 0.18478 0.46627
 C203 C 0.16227 0.19176 0.48306
 C204 C 0.14816 0.20606 0.48304
 C205 C 0.14137 0.21314 0.50005
 C206 C 0.14797 0.20623 0.51721
 H207 H 0.18910 0.16669 0.54807
 H208 H 0.16503 0.19074 0.54780
 H209 H 0.18957 0.16618 0.45308
 H210 H 0.16551 0.19024 0.45281
 H211 H 0.22281 0.13156 0.50096
 H212 H 0.13040 0.22397 0.49992
 C213 C 0.14518 0.79669 0.48162
 C214 C 0.13942 0.78890 0.49871
 C215 C 0.14531 0.79659 0.51580
 C216 C 0.15779 0.81231 0.51594
 C217 C 0.16404 0.82020 0.49872
 C218 C 0.15769 0.81240 0.48149
 C219 C 0.16419 0.82036 0.46462
 C220 C 0.17637 0.83590 0.46462
 C221 C 0.18286 0.84385 0.48150
 C222 C 0.17664 0.83595 0.49872
 C223 C 0.16436 0.82021 0.53281
 C224 C 0.17650 0.83578 0.53282
 C225 C 0.18291 0.84381 0.51595
 C226 C 0.19519 0.85969 0.51581
 C227 C 0.20094 0.86748 0.49872
 C228 C 0.19518 0.85970 0.48164
 H229 H 0.15997 0.81464 0.45120
 H230 H 0.18058 0.84166 0.45120
 H231 H 0.16021 0.81442 0.54623
 H232 H 0.18076 0.84148 0.54624
 H233 H 0.12962 0.77703 0.49871
 H234 H 0.21052 0.87953 0.49871
 C235 C 0.80324 0.13807 0.51674
 C236 C 0.79753 0.13032 0.49962
 C237 C 0.80332 0.13814 0.48256
 C238 C 0.81563 0.15400 0.48247
 C239 C 0.82182 0.16187 0.49972
 C240 C 0.81554 0.15394 0.51692
 C241 C 0.82195 0.16191 0.53382
 C242 C 0.83407 0.17749 0.53387
 C243 C 0.84061 0.18548 0.51702
 C244 C 0.83438 0.17765 0.49977
 C245 C 0.82215 0.16201 0.46562
 C246 C 0.83429 0.17758 0.46567
 C247 C 0.84072 0.18553 0.48257
 C248 C 0.85316 0.20130 0.48275
 C249 C 0.85888 0.20903 0.49987
 C250 C 0.85303 0.20125 0.51693
 H251 H 0.81772 0.15614 0.54722
 H252 H 0.83823 0.18323 0.54730
 H253 H 0.81799 0.15628 0.45219
 H254 H 0.83853 0.18336 0.45227
 H255 H 0.78795 0.11826 0.49958
 H256 H 0.86864 0.22094 0.49992
 C257 C 0.51475 0.80009 0.85716
 C258 C 0.49734 0.79317 0.86376
 C259 C 0.48002 0.79904 0.85603
 C260 C 0.47997 0.81229 0.84116
 C261 C 0.49752 0.81961 0.83442
 C262 C 0.51498 0.81347 0.84242
 C263 C 0.53217 0.82099 0.83558
 C264 C 0.53226 0.83401 0.82094
 C265 C 0.51516 0.84031 0.81281
 C266 C 0.49761 0.83302 0.81958
 C267 C 0.46291 0.81808 0.83259
 C268 C 0.46300 0.83118 0.81802
 C269 C 0.48016 0.83902 0.81146
 C270 C 0.48038 0.85237 0.79668
 C271 C 0.49780 0.85916 0.78997
 C272 C 0.51512 0.85347 0.79786
 H273 H 0.54576 0.81688 0.84147
 H274 H 0.54594 0.83901 0.81602
 H275 H 0.44929 0.81241 0.83694
 H276 H 0.44945 0.83492 0.81181
 H277 H 0.49728 0.78296 0.87512
 H278 H 0.49787 0.86949 0.77872
 C279 C 0.51855 0.14315 0.19939
 C280 C 0.50135 0.13620 0.20644
 C281 C 0.48380 0.14274 0.19980
 C282 C 0.48329 0.15678 0.18569
 C283 C 0.50063 0.16396 0.17833
 C284 C 0.51834 0.15712 0.18518
 C285 C 0.53532 0.16455 0.17778
 C286 C 0.53496 0.17818 0.16370
 C287 C 0.51760 0.18517 0.15671
 C288 C 0.50026 0.17796 0.16404
 C289 C 0.46593 0.16363 0.17856
 C290 C 0.46557 0.17743 0.16465
 C291 C 0.48255 0.18466 0.15706
 C292 C 0.48233 0.19858 0.14281
 C293 C 0.49953 0.20550 0.13572
 C294 C 0.51708 0.19902 0.14240
 H295 H 0.54909 0.15991 0.18281
 H296 H 0.54847 0.18316 0.15835
 H297 H 0.45242 0.15837 0.18366
 H298 H 0.45179 0.18236 0.15991
 H299 H 0.50161 0.12541 0.21726
 H300 H 0.49926 0.21611 0.12473
 C301 C 0.51758 0.14115 0.80262
 C302 C 0.50036 0.13396 0.79582
 C303 C 0.48287 0.13942 0.80344
 C304 C 0.48243 0.15262 0.81832
 C305 C 0.49978 0.16019 0.82529
 C306 C 0.51743 0.15442 0.81744
 C307 C 0.53441 0.16214 0.82454
 C308 C 0.53414 0.17492 0.83936
 C309 C 0.51686 0.18080 0.84740
 C310 C 0.49949 0.17339 0.84029
 C311 C 0.46518 0.15807 0.82673
 C312 C 0.46490 0.17099 0.84142
 C313 C 0.48186 0.17898 0.84830
 C314 C 0.48172 0.19203 0.86332
 C315 C 0.49896 0.19891 0.87038
 C316 C 0.51645 0.19360 0.86263
 H317 H 0.54812 0.15834 0.81874
 H318 H 0.54769 0.18007 0.84449
 H319 H 0.45170 0.15225 0.82215
 H320 H 0.45123 0.17445 0.84751
 H321 H 0.50059 0.12372 0.78450
 H322 H 0.49876 0.20894 0.88188
 C323 C 0.51697 0.85962 0.19662
 C324 C 0.49972 0.86676 0.20336
 C325 C 0.48224 0.86109 0.19582
 C326 C 0.48187 0.84776 0.18105
 C327 C 0.49926 0.84023 0.17414
 C328 C 0.51688 0.84619 0.18193
 C329 C 0.53391 0.83850 0.17490
 C330 C 0.53371 0.82557 0.16021
 C331 C 0.51645 0.81951 0.15222
 C332 C 0.49905 0.82688 0.15927
 C333 C 0.46465 0.84211 0.17270
 C334 C 0.46444 0.82903 0.15814
 C335 C 0.48144 0.82110 0.15132
 C336 C 0.48137 0.80790 0.13643
 C337 C 0.49865 0.80106 0.12944
 C338 C 0.51611 0.80656 0.13713
 H339 H 0.54760 0.84242 0.18067
 H340 H 0.54727 0.82044 0.15513
 H341 H 0.45114 0.84788 0.17722
 H342 H 0.45078 0.82541 0.15210
 H343 H 0.49990 0.87709 0.21460
 H344 H 0.49850 0.79091 0.11804
 C345 C 0.80597 0.48278 0.86241
 C346 C 0.79910 0.49991 0.86948
 C347 C 0.80460 0.51728 0.86182
 C348 C 0.81759 0.51768 0.84667
 C349 C 0.82497 0.50042 0.83953
 C350 C 0.81918 0.48290 0.84745
 C351 C 0.82713 0.46604 0.84053
 C352 C 0.84020 0.46631 0.82589
 C353 C 0.84586 0.48345 0.81758
 C354 C 0.83834 0.50069 0.82460
 C355 C 0.82368 0.53485 0.83874
 C356 C 0.83665 0.53511 0.82400
 C357 C 0.84434 0.51822 0.81687
 C358 C 0.85780 0.51836 0.80213
 C359 C 0.86491 0.50124 0.79525
 C360 C 0.85919 0.48386 0.80273
 H361 H 0.82352 0.45245 0.84654
 H362 H 0.84599 0.45290 0.82129
 H363 H 0.81855 0.54831 0.84390
 H364 H 0.84060 0.54874 0.81829
 H365 H 0.78895 0.49972 0.88094
 H366 H 0.87526 0.50146 0.78397
 C367 C 0.14176 0.48189 0.19876
 C368 C 0.13513 0.49918 0.20564
 C369 C 0.14210 0.51641 0.19887
 C370 C 0.15615 0.51648 0.18467
 C371 C 0.16312 0.49903 0.17760
 C372 C 0.15596 0.48166 0.18471
 C373 C 0.16300 0.46457 0.17742
 C374 C 0.17695 0.46450 0.16357
 C375 C 0.18413 0.48151 0.15619
 C376 C 0.17724 0.49896 0.16334
 C377 C 0.16353 0.53350 0.17750
 C378 C 0.17723 0.53343 0.16342
 C379 C 0.18438 0.51634 0.15622
 C380 C 0.19830 0.51612 0.14190
 C381 C 0.20499 0.49882 0.13507
 C382 C 0.19817 0.48159 0.14198
 H383 H 0.15780 0.45104 0.18235
 H384 H 0.18204 0.45091 0.15870
 H385 H 0.15878 0.54708 0.18270
 H386 H 0.18215 0.54696 0.15824
 H387 H 0.12425 0.49924 0.21644
 H388 H 0.21568 0.49877 0.12409
 C389 C 0.80388 0.48261 0.13907
 C390 C 0.79806 0.49983 0.13129
 C391 C 0.80370 0.51714 0.13897
 C392 C 0.81597 0.51738 0.15469
 C393 C 0.82226 0.50002 0.16259
 C394 C 0.81611 0.48256 0.15483
 C395 C 0.82258 0.46556 0.16284
 C396 C 0.83465 0.46566 0.17830
 C397 C 0.84109 0.48276 0.18612
 C398 C 0.83478 0.50012 0.17823
 C399 C 0.82236 0.53448 0.16254
 C400 C 0.83447 0.53458 0.17797
 C401 C 0.84101 0.51758 0.18593
 C402 C 0.85344 0.51754 0.20155
 C403 C 0.85924 0.50032 0.20934
 C404 C 0.85348 0.48300 0.20176
 H405 H 0.81842 0.45197 0.15721
 H406 H 0.83886 0.45214 0.18409
 H407 H 0.81811 0.54800 0.15678
 H408 H 0.83861 0.54817 0.18361
 H409 H 0.78852 0.49976 0.11933
 H410 H 0.86897 0.50040 0.22115
 C411 C 0.19519 0.51472 0.86141
 C412 C 0.20071 0.49733 0.86903
 C413 C 0.19488 0.48019 0.86113
 C414 C 0.18273 0.48030 0.84531
 C415 C 0.17671 0.49783 0.83759
 C416 C 0.18302 0.51511 0.84561
 C417 C 0.17676 0.53229 0.83779
 C418 C 0.16475 0.53254 0.82228
 C419 C 0.15819 0.51562 0.81420
 C420 C 0.16429 0.49809 0.82187
 C421 C 0.17622 0.46338 0.83719
 C422 C 0.16423 0.46363 0.82167
 C423 C 0.15794 0.48081 0.81388
 C424 C 0.14563 0.48119 0.79818
 C425 C 0.14003 0.49858 0.79062
 C426 C 0.14588 0.51573 0.79850
 H427 H 0.18103 0.54576 0.84364
 H428 H 0.16070 0.54619 0.81667
 H429 H 0.18027 0.44973 0.84279
 H430 H 0.15998 0.45016 0.81581
 H431 H 0.21018 0.49714 0.88105
 H432 H 0.13035 0.49876 0.77876
 C433 C 0.28685 0.37467 0.05772
 C434 C 0.26870 0.36904 0.06357
 C435 C 0.26104 0.35194 0.05715
 C436 C 0.27140 0.34064 0.04469
 C437 C 0.28954 0.34639 0.03846
 C438 C 0.29721 0.36344 0.04527
 C439 C 0.25778 0.38130 0.07556
 C440 C 0.24902 0.39219 0.08527
 C441 C 0.23924 0.40565 0.09626
 C442 C 0.23135 0.41770 0.10532
 C443 C 0.22251 0.43275 0.11575
 C444 C 0.20307 0.43665 0.11353
 C445 C 0.19493 0.45227 0.12253
 C446 C 0.20619 0.46406 0.13384
 C447 C 0.22560 0.45993 0.13621
 C448 C 0.23371 0.44433 0.12724
 H449 H 0.29289 0.38790 0.06257
 H450 H 0.24697 0.34747 0.06156
 H451 H 0.26509 0.32761 0.03969
 H452 H 0.31112 0.36828 0.04078
 H453 H 0.19431 0.42788 0.10453
 H454 H 0.17999 0.45544 0.12035
 H455 H 0.23451 0.46901 0.14474
 H456 H 0.24879 0.44154 0.12893
 C457 C 0.73586 0.64553 0.05601
 C458 C 0.72849 0.62845 0.06281
 C459 C 0.71024 0.62263 0.05745
 C460 C 0.69951 0.63361 0.04506
 C461 C 0.70692 0.65062 0.03783
 C462 C 0.72513 0.65659 0.04361
 C463 C 0.73989 0.61633 0.07452
 C464 C 0.74920 0.60557 0.08390
 C465 C 0.75978 0.59229 0.09439
 C466 C 0.76853 0.58039 0.10291
 C467 C 0.77859 0.56555 0.11254
 C468 C 0.79159 0.55426 0.10273
 C469 C 0.80022 0.53882 0.11155
 C470 C 0.79599 0.53457 0.13029
 C471 C 0.78315 0.54608 0.14017
 C472 C 0.77451 0.56153 0.13133
 H473 H 0.75000 0.65014 0.06002
 H474 H 0.70442 0.60940 0.06259
 H475 H 0.68555 0.62862 0.04092
 H476 H 0.73124 0.66959 0.03828
 H477 H 0.79473 0.55715 0.08815
 H478 H 0.80993 0.52996 0.10368
 H479 H 0.77949 0.54280 0.15455
 H480 H 0.76433 0.57006 0.13900
 C481 C 0.73796 0.35320 0.94339
 C482 C 0.73073 0.37031 0.93650
 C483 C 0.71245 0.37621 0.94166
 C484 C 0.70157 0.36529 0.95397
 C485 C 0.70885 0.34828 0.96132
 C486 C 0.72707 0.34222 0.95570
 C487 C 0.74233 0.38244 0.92500
 C488 C 0.75178 0.39325 0.91583
 C489 C 0.76251 0.40663 0.90563
 C490 C 0.77134 0.41865 0.89738
 C491 C 0.78144 0.43370 0.88810
 C492 C 0.79306 0.44585 0.89856
 C493 C 0.80156 0.46151 0.89002
 C494 C 0.79858 0.46512 0.87091
 C495 C 0.78718 0.45272 0.86039
 C496 C 0.77866 0.43705 0.86896
 H497 H 0.75213 0.34854 0.93954
 H498 H 0.70674 0.38946 0.93646
 H499 H 0.68760 0.37036 0.95799
 H500 H 0.73309 0.32921 0.96113
 H501 H 0.79518 0.44348 0.91341
 H502 H 0.81016 0.47104 0.89837
 H503 H 0.78449 0.45548 0.84570
 H504 H 0.76955 0.42784 0.86078
 C505 C 0.26180 0.64334 0.94477
 C506 C 0.26940 0.62616 0.93848
 C507 C 0.28760 0.62059 0.94427
 C508 C 0.29807 0.63196 0.95652
 C509 C 0.29045 0.64910 0.96320
 C510 C 0.27227 0.65477 0.95704
 C511 C 0.25830 0.61378 0.92677
 C512 C 0.24920 0.60289 0.91735
 C513 C 0.23882 0.58954 0.90678
 C514 C 0.23020 0.57764 0.89815
 C515 C 0.22023 0.56284 0.88836
 C516 C 0.22444 0.55898 0.86957
 C517 C 0.21583 0.54362 0.86056
 C518 C 0.20288 0.53206 0.87026
 C519 C 0.19854 0.53615 0.88901
 C520 C 0.20713 0.55150 0.89800
 H521 H 0.24769 0.64776 0.94043
 H522 H 0.29359 0.60730 0.93953
 H523 H 0.31202 0.62718 0.96097
 H524 H 0.26599 0.66786 0.96193
 H525 H 0.23468 0.56756 0.86203
 H526 H 0.21958 0.54046 0.84618
 H527 H 0.18875 0.52725 0.89675
 H528 H 0.20389 0.55427 0.91257
 C529 C 0.05756 0.26649 0.35663
 C530 C 0.06465 0.27423 0.37328
 C531 C 0.05868 0.29220 0.37901
 C532 C 0.04549 0.30231 0.36832
 C533 C 0.03805 0.29459 0.35170
 C534 C 0.04435 0.27662 0.34587
 C535 C 0.07749 0.26362 0.38497
 C536 C 0.08793 0.25514 0.39543
 C537 C 0.09975 0.24572 0.40842
 C538 C 0.10949 0.23811 0.42012
 C539 C 0.12063 0.22959 0.43480
 C540 C 0.13210 0.24101 0.44619
 C541 C 0.14158 0.23318 0.46156
 C542 C 0.13974 0.21383 0.46564
 C543 C 0.12849 0.20235 0.45400
 C544 C 0.11899 0.21021 0.43861
 H545 H 0.06205 0.25256 0.35209
 H546 H 0.06404 0.29830 0.39190
 H547 H 0.04096 0.31611 0.37321
 H548 H 0.03888 0.27028 0.33316
 H549 H 0.13333 0.25604 0.44346
 H550 H 0.15004 0.24226 0.47052
 H551 H 0.12668 0.18746 0.45713
 H552 H 0.11000 0.20129 0.43000
 C553 C 0.06008 0.73263 0.64379
 C554 C 0.06642 0.72484 0.62688
 C555 C 0.06002 0.70695 0.62135
 C556 C 0.04710 0.69699 0.63249
 C557 C 0.04036 0.70481 0.64935
 C558 C 0.04715 0.72267 0.65499
 C559 C 0.07879 0.73542 0.61469
 C560 C 0.08876 0.74401 0.60388
 C561 C 0.09994 0.75375 0.59058
 C562 C 0.10907 0.76178 0.57870
 C563 C 0.11945 0.77102 0.56392
 C564 C 0.13206 0.76059 0.55278
 C565 C 0.14094 0.76910 0.53742
 C566 C 0.13736 0.78815 0.53311
 C567 C 0.12488 0.79863 0.54445
 C568 C 0.11600 0.79011 0.55982
 H569 H 0.06490 0.74651 0.64817
 H570 H 0.06480 0.70082 0.60826
 H571 H 0.04219 0.68328 0.62774
 H572 H 0.04222 0.72908 0.66788
 H573 H 0.13469 0.74577 0.55572
 H574 H 0.15035 0.76076 0.52868
 H575 H 0.12170 0.81325 0.54112
 H576 H 0.10612 0.79825 0.56823
 C577 C 0.94294 0.73560 0.35586
 C578 C 0.93637 0.72833 0.37292
 C579 C 0.94182 0.71016 0.37857
 C580 C 0.95409 0.69943 0.36744
 C581 C 0.96111 0.70674 0.35045
 C582 C 0.95521 0.72487 0.34466
 C583 C 0.92490 0.73978 0.38517
 C584 C 0.91579 0.74920 0.39601
 C585 C 0.90571 0.76000 0.40934
 C586 C 0.89762 0.76900 0.42126
 C587 C 0.88860 0.77943 0.43611
 C588 C 0.89965 0.79103 0.44771
 C589 C 0.89136 0.80007 0.46308
 C590 C 0.87191 0.79766 0.46693
 C591 C 0.86080 0.78623 0.45511
 C592 C 0.86912 0.77717 0.43974
 H593 H 0.93886 0.74969 0.35139
 H594 H 0.93687 0.70442 0.39178
 H595 H 0.95833 0.68553 0.37230
 H596 H 0.96038 0.73091 0.33168
 H597 H 0.91476 0.79277 0.44512
 H598 H 0.90016 0.80869 0.47216
 H599 H 0.84583 0.78401 0.45807
 H600 H 0.86048 0.76809 0.43094
 C601 C 0.93994 0.26637 0.64317
 C602 C 0.93292 0.27402 0.62645
 C603 C 0.93872 0.29206 0.62074
 C604 C 0.95172 0.30232 0.63151
 C605 C 0.95913 0.29466 0.64819
 C606 C 0.95296 0.27663 0.65401
 C607 C 0.92042 0.26317 0.61462
 C608 C 0.91032 0.25438 0.60410
 C609 C 0.89895 0.24444 0.59110
 C610 C 0.88965 0.23627 0.57945
 C611 C 0.87907 0.22692 0.56488
 C612 C 0.86631 0.23728 0.55382
 C613 C 0.85732 0.22871 0.53855
 C614 C 0.86095 0.20967 0.53426
 C615 C 0.87353 0.19924 0.54556
 C616 C 0.88252 0.20783 0.56084
 H617 H 0.93559 0.25238 0.64769
 H618 H 0.93341 0.29809 0.60779
 H619 H 0.95615 0.31615 0.62663
 H620 H 0.95841 0.27034 0.66676
 H621 H 0.86367 0.25210 0.55671
 H622 H 0.84783 0.23701 0.52984
 H623 H 0.87675 0.18463 0.54224
 H624 H 0.89252 0.19973 0.56918
 C625 C 0.37830 0.05960 0.29192
 C626 C 0.37217 0.06596 0.27437
 C627 C 0.35475 0.05967 0.26713
 C628 C 0.34364 0.04682 0.27729
 C629 C 0.34989 0.04006 0.29479
 C630 C 0.36726 0.04676 0.30208
 C631 C 0.38433 0.07812 0.26348
 C632 C 0.39512 0.08781 0.25451
 C633 C 0.40844 0.09854 0.24421
 C634 C 0.42040 0.10712 0.23557
 C635 C 0.43535 0.11662 0.22550
 C636 C 0.44715 0.10619 0.21353
 C637 C 0.46263 0.11489 0.20478
 C638 C 0.46642 0.13413 0.20784
 C639 C 0.45441 0.14464 0.21963
 C640 C 0.43891 0.13591 0.22842
 H641 H 0.39180 0.06432 0.29762
 H642 H 0.34992 0.06445 0.25351
 H643 H 0.33035 0.04194 0.27129
 H644 H 0.37247 0.04186 0.31551
 H645 H 0.44461 0.09124 0.21128
 H646 H 0.47187 0.10656 0.19585
 H647 H 0.45732 0.15945 0.22231
 H648 H 0.42996 0.14406 0.23777
 C649 C 0.64621 0.05738 0.73574
 C650 C 0.62901 0.06428 0.72854
 C651 C 0.62283 0.05850 0.71081
 C652 C 0.63362 0.04563 0.70043
 C653 C 0.65076 0.03832 0.70767
 C654 C 0.65706 0.04450 0.72536
 C655 C 0.61713 0.07657 0.73956
 C656 C 0.60653 0.08646 0.74853
 C657 C 0.59340 0.09755 0.75868
 C658 C 0.58156 0.10658 0.76701
 C659 C 0.56670 0.11682 0.77649
 C660 C 0.55452 0.12861 0.76622
 C661 C 0.53889 0.13709 0.77493
 C662 C 0.53534 0.13394 0.79402
 C663 C 0.54779 0.12240 0.80436
 C664 C 0.56344 0.11390 0.79563
 H665 H 0.65108 0.06171 0.74948
 H666 H 0.60951 0.06371 0.70513
 H667 H 0.62837 0.04119 0.68687
 H668 H 0.67018 0.03913 0.73132
 H669 H 0.55681 0.13082 0.75137
 H670 H 0.52929 0.14578 0.76672
 H671 H 0.54507 0.11957 0.81903
 H672 H 0.57266 0.10465 0.80365
 C673 C 0.37568 0.93908 0.70758
 C674 C 0.36959 0.93308 0.72526
 C675 C 0.35257 0.94013 0.73273
 C676 C 0.34183 0.95337 0.72264
 C677 C 0.34805 0.95974 0.70499
 C678 C 0.36501 0.95230 0.69750
 C679 C 0.38137 0.92035 0.73593
 C680 C 0.39193 0.91007 0.74453
 C681 C 0.40504 0.89852 0.75422
 C682 C 0.41685 0.88908 0.76216
 C683 C 0.43166 0.87837 0.77124
 C684 C 0.43482 0.88036 0.79051
 C685 C 0.45034 0.87135 0.79896
 C686 C 0.46279 0.86021 0.78821
 C687 C 0.45936 0.85801 0.76897
 C688 C 0.44384 0.86702 0.76053
 H689 H 0.38886 0.93375 0.70169
 H690 H 0.34776 0.93563 0.74644
 H691 H 0.32885 0.95884 0.72879
 H692 H 0.37020 0.95687 0.68395
 H693 H 0.42560 0.88927 0.79888
 H694 H 0.45298 0.87346 0.81376
 H695 H 0.46894 0.84965 0.76044
 H696 H 0.44163 0.86552 0.74559
 C697 C 0.64721 0.94178 0.26319
 C698 C 0.62995 0.93499 0.27036
 C699 C 0.62397 0.94052 0.28822
 C700 C 0.63499 0.95305 0.29877
 C701 C 0.65219 0.96026 0.29158
 C702 C 0.65830 0.95432 0.27375
 C703 C 0.61781 0.92306 0.25921
 C704 C 0.60696 0.91346 0.25021
 C705 C 0.59351 0.90269 0.24010
 C706 C 0.58143 0.89389 0.23185
 C707 C 0.56631 0.88389 0.22250
 C708 C 0.55409 0.87224 0.23287
 C709 C 0.53834 0.86384 0.22426
 C710 C 0.53471 0.86695 0.20517
 C711 C 0.54717 0.87840 0.19474
 C712 C 0.56293 0.88681 0.20338
 H713 H 0.65193 0.93763 0.24935
 H714 H 0.61062 0.93538 0.29389
 H715 H 0.62988 0.95730 0.31244
 H716 H 0.67145 0.95963 0.26781
 H717 H 0.55648 0.87002 0.24770
 H718 H 0.52875 0.85522 0.23253
 H719 H 0.54439 0.88118 0.18008
 H720 H 0.57218 0.89595 0.19527
 C721 C 0.37411 0.28439 0.94257
 C722 C 0.36822 0.26621 0.93746
 C723 C 0.35096 0.25905 0.94427
 C724 C 0.33981 0.26992 0.95645
 C725 C 0.34587 0.28806 0.96200
 C726 C 0.36304 0.29526 0.95474
 C727 C 0.38047 0.25467 0.92604
 C728 C 0.39140 0.24529 0.91691
 C729 C 0.40493 0.23469 0.90674
 C730 C 0.41707 0.22599 0.89849
 C731 C 0.43225 0.21606 0.88918
 C732 C 0.43553 0.21886 0.87002
 C733 C 0.45133 0.21051 0.86141
 C734 C 0.46393 0.19925 0.87188
 C735 C 0.46040 0.19626 0.89101
 C736 C 0.44461 0.20459 0.89959
 H737 H 0.38747 0.29005 0.93742
 H738 H 0.34630 0.24495 0.94045
 H739 H 0.32669 0.26397 0.96181
 H740 H 0.36811 0.30916 0.95870
 H741 H 0.42617 0.22785 0.86187
 H742 H 0.45403 0.21321 0.84671
 H743 H 0.47009 0.18778 0.89933
 H744 H 0.44230 0.20247 0.91445
 C745 C 0.62102 0.70975 0.94108
 C746 C 0.62696 0.72769 0.93517
 C747 C 0.64422 0.73511 0.94169
 C748 C 0.65536 0.72475 0.95432
 C749 C 0.64930 0.70685 0.96062
 C750 C 0.63210 0.69939 0.95370
 C751 C 0.61478 0.73871 0.92316
 C752 C 0.60396 0.74770 0.91353
 C753 C 0.59058 0.75793 0.90278
 C754 C 0.57858 0.76638 0.89407
 C755 C 0.56357 0.77612 0.88427
 C756 C 0.56044 0.77277 0.86518
 C757 C 0.54484 0.78106 0.85613
 C758 C 0.53230 0.79279 0.86612
 C759 C 0.53567 0.79631 0.88518
 C760 C 0.55125 0.78805 0.89419
 H761 H 0.60766 0.70390 0.93616
 H762 H 0.64891 0.74902 0.93726
 H763 H 0.66852 0.73089 0.95940
 H764 H 0.62703 0.68566 0.95824
 H765 H 0.56978 0.76343 0.85742
 H766 H 0.54226 0.77798 0.84149
 H767 H 0.52601 0.80517 0.89311
 H768 H 0.55345 0.79061 0.90900
 C769 C 0.35177 0.73787 0.05617
 C770 C 0.36934 0.73116 0.06268
 C771 C 0.37566 0.71317 0.05737
 C772 C 0.36468 0.70205 0.04533
 C773 C 0.34718 0.70879 0.03839
 C774 C 0.34073 0.72674 0.04412
 C775 C 0.38140 0.74296 0.07403
 C776 C 0.39213 0.75261 0.08312
 C777 C 0.40540 0.76357 0.09325
 C778 C 0.41733 0.77261 0.10147
 C779 C 0.43227 0.78294 0.11074
 C780 C 0.43552 0.78045 0.12994
 C781 C 0.45116 0.78915 0.13851
 C782 C 0.46363 0.80045 0.12794
 C783 C 0.46010 0.80316 0.10878
 C784 C 0.44446 0.79449 0.10024
 H785 H 0.34677 0.75180 0.06014
 H786 H 0.38926 0.70786 0.06228
 H787 H 0.37006 0.68831 0.04122
 H788 H 0.32734 0.73235 0.03901
 H789 H 0.42628 0.77140 0.13816
 H790 H 0.45387 0.78665 0.15325
 H791 H 0.46969 0.81167 0.10038
 H792 H 0.44217 0.79638 0.08534
 C793 C 0.64593 0.26520 0.05843
 C794 C 0.62877 0.27281 0.06497
 C795 C 0.62289 0.29070 0.05887
 C796 C 0.63393 0.30082 0.04604
 C797 C 0.65104 0.29317 0.03910
 C798 C 0.65703 0.27532 0.04560
 C799 C 0.61660 0.26199 0.07715
 C800 C 0.60580 0.25309 0.08687
 C801 C 0.59246 0.24288 0.09766
 C802 C 0.58049 0.23433 0.10633
 C803 C 0.56554 0.22437 0.11595
 C804 C 0.56198 0.22777 0.13496
 C805 C 0.54648 0.21910 0.14381
 C806 C 0.53447 0.20693 0.13369
 C807 C 0.53825 0.20339 0.11473
 C808 C 0.55374 0.21203 0.10592
 H809 H 0.65057 0.25132 0.06301
 H810 H 0.60960 0.29670 0.06378
 H811 H 0.62891 0.31453 0.04135
 H812 H 0.67012 0.26903 0.04052
 H813 H 0.57093 0.23742 0.14282
 H814 H 0.54357 0.22216 0.15839
 H815 H 0.52901 0.19417 0.10670
 H816 H 0.55627 0.20940 0.09118
 C817 C 0.29090 0.06048 0.62253
 C818 C 0.27281 0.06650 0.62817
 C819 C 0.26487 0.05945 0.64476
 C820 C 0.27490 0.04621 0.65552
 C821 C 0.29297 0.03983 0.64975
 C822 C 0.30092 0.04726 0.63322
 C823 C 0.26225 0.07929 0.61641
 C824 C 0.25382 0.08966 0.60586
 C825 C 0.24445 0.10138 0.59277
 C826 C 0.23688 0.11101 0.58097
 C827 C 0.22840 0.12201 0.56620
 C828 C 0.20888 0.12047 0.56237
 C829 C 0.20105 0.12987 0.54693
 C830 C 0.21268 0.14093 0.53525
 C831 C 0.23216 0.14266 0.53933
 C832 C 0.23997 0.13328 0.55476
 H833 H 0.29715 0.06581 0.60969
 H834 H 0.25084 0.06398 0.64922
 H835 H 0.26839 0.04075 0.66816
 H836 H 0.31479 0.04268 0.62838
 H837 H 0.19984 0.11164 0.57102
 H838 H 0.18605 0.12815 0.54380
 H839 H 0.24136 0.15097 0.53034
 H840 H 0.25511 0.13443 0.55749
 C841 C 0.73693 0.05592 0.35367
 C842 C 0.72964 0.06202 0.37088
 C843 C 0.71163 0.05595 0.37670
 C844 C 0.70108 0.04352 0.36559
 C845 C 0.70839 0.03689 0.34841
 C846 C 0.72638 0.04349 0.34247
 C847 C 0.74087 0.07376 0.38310
 C848 C 0.75001 0.08315 0.39396
 C849 C 0.76037 0.09363 0.40735
 C850 C 0.76892 0.10213 0.41933
 C851 C 0.77875 0.11175 0.43424
 C852 C 0.79160 0.10175 0.44552
 C853 C 0.80003 0.11055 0.46097
 C854 C 0.79575 0.12947 0.46521
 C855 C 0.78304 0.13953 0.45372
 C856 C 0.77460 0.13071 0.43827
 H857 H 0.75088 0.06052 0.34906
 H858 H 0.70587 0.06056 0.39001
 H859 H 0.68730 0.03889 0.37068
 H860 H 0.73252 0.03879 0.32936
 H861 H 0.79479 0.08704 0.44263
 H862 H 0.80964 0.10253 0.46981
 H863 H 0.77935 0.15404 0.45699
 H864 H 0.76454 0.13852 0.42974
 C865 C 0.70996 0.94026 0.62354
 C866 C 0.72817 0.93462 0.62925
 C867 C 0.73557 0.94114 0.64627
 C868 C 0.72494 0.95359 0.65736
 C869 C 0.70681 0.95971 0.65150
 C870 C 0.69934 0.95271 0.63458
 C871 C 0.73959 0.92308 0.61703
 C872 C 0.74901 0.91395 0.60620
 C873 C 0.75984 0.90390 0.59286
 C874 C 0.76888 0.89587 0.58093
 C875 C 0.77940 0.88698 0.56605
 C876 C 0.77720 0.86762 0.56240
 C877 C 0.78636 0.85941 0.54701
 C878 C 0.79782 0.87051 0.53521
 C879 C 0.80016 0.88984 0.53907
 C880 C 0.79103 0.89802 0.55445
 H881 H 0.70413 0.93536 0.61036
 H882 H 0.74968 0.93693 0.65078
 H883 H 0.73110 0.95874 0.67030
 H884 H 0.68543 0.95712 0.62966
 H885 H 0.76811 0.85899 0.57120
 H886 H 0.78419 0.84453 0.54405
 H887 H 0.80880 0.89863 0.53000
 H888 H 0.79272 0.91303 0.55706
 C889 C 0.28863 0.94175 0.37730
 C890 C 0.27029 0.93659 0.37157
 C891 C 0.26287 0.94378 0.35481
 C892 C 0.27364 0.95636 0.34398
 C893 C 0.29194 0.96194 0.34985
 C894 C 0.29939 0.95432 0.36653
 C895 C 0.25885 0.92473 0.38348
 C896 C 0.24952 0.91522 0.39407
 C897 C 0.23892 0.90461 0.40717
 C898 C 0.23016 0.89600 0.41892
 C899 C 0.22010 0.88627 0.43360
 C900 C 0.22419 0.86729 0.43760
 C901 C 0.21560 0.85839 0.45293
 C902 C 0.20280 0.86841 0.46433
 C903 C 0.19855 0.88734 0.46010
 C904 C 0.20713 0.89622 0.44478
 H905 H 0.29448 0.93632 0.39027
 H906 H 0.24865 0.93993 0.35029
 H907 H 0.26749 0.96198 0.33123
 H908 H 0.31343 0.95830 0.37144
 H909 H 0.23434 0.85952 0.42915
 H910 H 0.21926 0.84387 0.45619
 H911 H 0.18888 0.89532 0.46889
 H912 H 0.20399 0.91095 0.44191
 C913 C 0.05795 0.35507 0.73193
 C914 C 0.06464 0.37227 0.72476
 C915 C 0.05841 0.37854 0.70721
 C916 C 0.04534 0.36782 0.69696
 C917 C 0.03828 0.35065 0.70414
 C918 C 0.04487 0.34429 0.72168
 C919 C 0.07726 0.38400 0.73561
 C920 C 0.08747 0.39442 0.74443
 C921 C 0.09897 0.40731 0.75443
 C922 C 0.10839 0.41888 0.76267
 C923 C 0.11912 0.43336 0.77214
 C924 C 0.13208 0.44448 0.76207
 C925 C 0.14122 0.45969 0.77076
 C926 C 0.13756 0.46387 0.78963
 C927 C 0.12479 0.45249 0.79976
 C928 C 0.11564 0.43727 0.79106
 H929 H 0.06264 0.35012 0.74554
 H930 H 0.06346 0.39186 0.70154
 H931 H 0.04059 0.37313 0.68351
 H932 H 0.03969 0.33115 0.72760
 H933 H 0.13474 0.44168 0.74738
 H934 H 0.15085 0.46846 0.76268
 H935 H 0.12155 0.45573 0.81424
 H936 H 0.10550 0.42888 0.79892
 C937 C 0.05738 0.62101 0.28930
 C938 C 0.06327 0.62719 0.27161
 C939 C 0.05673 0.64453 0.26463
 C940 C 0.04414 0.65554 0.27521
 C941 C 0.03789 0.64927 0.29289
 C942 C 0.04479 0.63195 0.29988
 C943 C 0.07541 0.61527 0.26046
 C944 C 0.08525 0.60467 0.25146
 C945 C 0.09638 0.59155 0.24137
 C946 C 0.10556 0.57975 0.23319
 C947 C 0.11610 0.56496 0.22401
 C948 C 0.11330 0.56129 0.20492
 C949 C 0.12229 0.54580 0.19650
 C950 C 0.13416 0.53392 0.20711
 C951 C 0.13715 0.53786 0.22614
 C952 C 0.12820 0.55333 0.23454
 H953 H 0.06232 0.60759 0.29482
 H954 H 0.06117 0.64942 0.25092
 H955 H 0.03907 0.66879 0.26943
 H956 H 0.04029 0.62671 0.31343
 H957 H 0.10383 0.57009 0.19669
 H958 H 0.11962 0.54277 0.18186
 H959 H 0.14611 0.52870 0.23456
 H960 H 0.13033 0.55594 0.24934
 C961 C 0.93904 0.37872 0.29256
 C962 C 0.93302 0.37267 0.27487
 C963 C 0.93974 0.35552 0.26763
 C964 C 0.95267 0.34459 0.27794
 C965 C 0.95907 0.35076 0.29560
 C966 C 0.95196 0.36787 0.30286
 C967 C 0.92060 0.38458 0.26397
 C968 C 0.91058 0.39518 0.25514
 C969 C 0.89929 0.40829 0.24517
 C970 C 0.89005 0.42005 0.23697
 C971 C 0.87953 0.43475 0.22759
 C972 C 0.88306 0.43876 0.20869
 C973 C 0.87408 0.45414 0.20006
 C974 C 0.86143 0.46558 0.21025
 C975 C 0.85773 0.46133 0.22910
 C976 C 0.86670 0.44595 0.23772
 H977 H 0.93397 0.39200 0.29827
 H978 H 0.93521 0.35073 0.25392
 H979 H 0.95789 0.33151 0.27196
 H980 H 0.95656 0.37302 0.31640
 H981 H 0.89310 0.43030 0.20078
 H982 H 0.87735 0.45743 0.18560
 H983 H 0.84819 0.47015 0.23722
 H984 H 0.86400 0.44309 0.25239
 C985 C 0.94277 0.64628 0.73574
 C986 C 0.93529 0.62941 0.72855
 C987 C 0.94049 0.62340 0.71061
 C988 C 0.95336 0.63398 0.69999
 C989 C 0.96126 0.65077 0.70720
 C990 C 0.95566 0.65693 0.72511
 C991 C 0.92301 0.61768 0.73976
 C992 C 0.91311 0.60714 0.74879
 C993 C 0.90200 0.59402 0.75891
 C994 C 0.89291 0.58218 0.76715
 C995 C 0.88260 0.56730 0.77647
 C996 C 0.87075 0.55533 0.76606
 C997 C 0.86214 0.53973 0.77461
 C998 C 0.86524 0.53601 0.79368
 C999 C 0.87686 0.54824 0.80416
 C1000 C 0.88548 0.56385 0.79558
 H1001 H 0.93889 0.65103 0.74965
 H1002 H 0.93482 0.61034 0.70493
 H1003 H 0.95734 0.62884 0.68626
 H1004 H 0.96150 0.66978 0.73106
 H1005 H 0.86856 0.55777 0.75123
 H1006 H 0.85339 0.53032 0.76629
 H1007 H 0.87964 0.54538 0.81881
 H1008 H 0.89479 0.57291 0.80372
 C1009 C 0.73437 0.64558 0.94259
 C1010 C 0.72732 0.62806 0.93666
 C1011 C 0.70952 0.62185 0.94293
 C1012 C 0.69893 0.63290 0.95535
 C1013 C 0.70601 0.65042 0.96179
 C1014 C 0.72381 0.65672 0.95502
 C1015 C 0.73864 0.61593 0.92489
 C1016 C 0.74794 0.60519 0.91551
 C1017 C 0.75863 0.59196 0.90508
 C1018 C 0.76756 0.58012 0.89668
 C1019 C 0.77798 0.56536 0.88731
 C1020 C 0.79115 0.55450 0.89739
 C1021 C 0.80023 0.53916 0.88887
 C1022 C 0.79630 0.53460 0.87014
 C1023 C 0.78328 0.54568 0.85998
 C1024 C 0.77418 0.56103 0.86853
 H1025 H 0.74818 0.65050 0.93785
 H1026 H 0.70394 0.60829 0.93846
 H1027 H 0.68532 0.62752 0.96012
 H1028 H 0.72977 0.67009 0.95956
 H1029 H 0.79409 0.55763 0.91197
 H1030 H 0.81008 0.53063 0.89695
 H1031 H 0.77988 0.54215 0.84560
 H1032 H 0.76389 0.56923 0.86065
 C1033 C 0.26084 0.35028 0.94364
 C1034 C 0.26805 0.36761 0.93733
 C1035 C 0.28607 0.37362 0.94320
 C1036 C 0.29671 0.36259 0.95561
 C1037 C 0.28948 0.34528 0.96244
 C1038 C 0.27147 0.33915 0.95607
 C1039 C 0.25675 0.37979 0.92557
 C1040 C 0.24759 0.39065 0.91615
 C1041 C 0.23724 0.40408 0.90562
 C1042 C 0.22872 0.41613 0.89707
 C1043 C 0.21896 0.43117 0.88742
 C1044 C 0.20598 0.44254 0.89717
 C1045 C 0.19768 0.45818 0.88838
 C1046 C 0.20222 0.46255 0.86973
 C1047 C 0.21502 0.45095 0.85991
 C1048 C 0.22333 0.43529 0.86872
 H1049 H 0.24688 0.34552 0.93921
 H1050 H 0.29177 0.38704 0.93843
 H1051 H 0.31049 0.36784 0.96006
 H1052 H 0.26539 0.32594 0.96092
 H1053 H 0.20262 0.43958 0.91169
 H1054 H 0.18800 0.46711 0.89621
 H1055 H 0.21891 0.45431 0.84561
 H1056 H 0.23349 0.42670 0.86111
 C1057 C 0.28931 0.62268 0.05906
 C1058 C 0.27135 0.62850 0.06523
 C1059 C 0.26373 0.64563 0.05884
 C1060 C 0.27391 0.65675 0.04605
 C1061 C 0.29186 0.65079 0.03937
 C1062 C 0.29951 0.63369 0.04629
 C1063 C 0.26046 0.61630 0.07733
 C1064 C 0.25158 0.60543 0.08698
 C1065 C 0.24144 0.59197 0.09768
 C1066 C 0.23301 0.57990 0.10626
 C1067 C 0.22318 0.56482 0.11579
 C1068 C 0.22675 0.56112 0.13476
 C1069 C 0.21823 0.54552 0.14350
 C1070 C 0.20606 0.53357 0.13332
 C1071 C 0.20237 0.53748 0.11440
 C1072 C 0.21085 0.55306 0.10570
 H1073 H 0.29533 0.60941 0.06389
 H1074 H 0.24980 0.65025 0.06349
 H1075 H 0.26752 0.66980 0.04114
 H1076 H 0.31326 0.62858 0.04162
 H1077 H 0.23640 0.57003 0.14266
 H1078 H 0.22142 0.54253 0.15805
 H1079 H 0.19315 0.52829 0.10632
 H1080 H 0.20810 0.55569 0.09099
 C1081 C 0.71189 0.37759 0.05599
 C1082 C 0.72964 0.37126 0.06230
 C1083 C 0.73657 0.35367 0.05644
 C1084 C 0.72591 0.34257 0.04404
 C1085 C 0.70815 0.34898 0.03725
 C1086 C 0.70122 0.36658 0.04360
 C1087 C 0.74098 0.38332 0.07412
 C1088 C 0.75022 0.39404 0.08361
 C1089 C 0.76071 0.40728 0.09422
 C1090 C 0.76937 0.41915 0.10284
 C1091 C 0.77933 0.43400 0.11257
 C1092 C 0.77509 0.43798 0.13132
 C1093 C 0.78357 0.45348 0.14021
 C1094 C 0.79642 0.46507 0.13041
 C1095 C 0.80084 0.46083 0.11171
 C1096 C 0.79237 0.44534 0.10285
 H1097 H 0.70642 0.39121 0.06041
 H1098 H 0.75033 0.34866 0.06122
 H1099 H 0.73176 0.32913 0.03956
 H1100 H 0.68764 0.37205 0.03881
 H1101 H 0.76488 0.42941 0.13891
 H1102 H 0.77977 0.45675 0.15455
 H1103 H 0.81055 0.46975 0.10390
 H1104 H 0.79563 0.44248 0.08830
 C1105 C 0.94443 0.73560 0.64605
 C1106 C 0.93780 0.72867 0.62889
 C1107 C 0.94336 0.71069 0.62283
 C1108 C 0.95580 0.69979 0.63365
 C1109 C 0.96296 0.70674 0.65078
 C1110 C 0.95688 0.72471 0.65696
 C1111 C 0.92611 0.74028 0.61694
 C1112 C 0.91679 0.74978 0.60630
 C1113 C 0.90647 0.76063 0.59315
 C1114 C 0.89818 0.76964 0.58134
 C1115 C 0.88896 0.78006 0.56656
 C1116 C 0.89983 0.79180 0.55492
 C1117 C 0.89138 0.80072 0.53955
 C1118 C 0.87195 0.79807 0.53572
 C1119 C 0.86101 0.78654 0.54760
 C1120 C 0.86949 0.77758 0.56299
 H1121 H 0.94025 0.74953 0.65085
 H1122 H 0.93834 0.70521 0.60954
 H1123 H 0.96002 0.68605 0.62838
 H1124 H 0.96199 0.73058 0.67005
 H1125 H 0.91493 0.79370 0.55747
 H1126 H 0.90006 0.80941 0.53042
 H1127 H 0.84606 0.78412 0.54467
 H1128 H 0.86098 0.76840 0.57181
 C1129 C 0.94028 0.26712 0.35680
 C1130 C 0.93407 0.27438 0.37397
 C1131 C 0.94063 0.29203 0.38003
 C1132 C 0.95354 0.30229 0.36915
 C1133 C 0.96019 0.29503 0.35195
 C1134 C 0.95320 0.27736 0.34583
 C1135 C 0.92154 0.26355 0.38581
 C1136 C 0.91139 0.25475 0.39628
 C1137 C 0.89992 0.24478 0.40919
 C1138 C 0.89050 0.23657 0.42074
 C1139 C 0.87974 0.22716 0.43516
 C1140 C 0.86690 0.23750 0.44614
 C1141 C 0.85772 0.22886 0.46126
 C1142 C 0.86121 0.20977 0.46550
 C1143 C 0.87386 0.19936 0.45426
 C1144 C 0.88304 0.20802 0.43913
 H1145 H 0.93531 0.25344 0.35199
 H1146 H 0.93594 0.29777 0.39332
 H1147 H 0.95847 0.31581 0.37439
 H1148 H 0.95790 0.27127 0.33270
 H1149 H 0.86436 0.25235 0.44330
 H1150 H 0.84819 0.23715 0.46993
 H1151 H 0.87698 0.18472 0.45754
 H1152 H 0.89309 0.19994 0.43085
 C1153 C 0.05674 0.29262 0.61987
 C1154 C 0.06347 0.27503 0.62594
 C1155 C 0.05721 0.26761 0.64303
 C1156 C 0.04410 0.27767 0.65394
 C1157 C 0.03699 0.29531 0.64784
 C1158 C 0.04365 0.30270 0.63069
 C1159 C 0.07632 0.26449 0.61421
 C1160 C 0.08680 0.25602 0.60378
 C1161 C 0.09870 0.24657 0.59089
 C1162 C 0.10852 0.23890 0.57932
 C1163 C 0.11981 0.23026 0.56483
 C1164 C 0.11831 0.21082 0.56127
 C1165 C 0.12802 0.20281 0.54611
 C1166 C 0.13934 0.21418 0.53443
 C1167 C 0.14103 0.23359 0.53825
 C1168 C 0.13135 0.24157 0.55341
 H1169 H 0.06148 0.29848 0.60664
 H1170 H 0.06231 0.25398 0.64785
 H1171 H 0.03939 0.27148 0.66703
 H1172 H 0.03863 0.31620 0.62546
 H1173 H 0.10928 0.20196 0.56991
 H1174 H 0.12631 0.18787 0.54316
 H1175 H 0.14954 0.24260 0.52927
 H1176 H 0.13249 0.25665 0.55594
 C1177 C 0.05833 0.70751 0.37741
 C1178 C 0.06485 0.72521 0.37144
 C1179 C 0.05852 0.73263 0.35436
 C1180 C 0.04547 0.72252 0.34341
 C1181 C 0.03848 0.70482 0.34948
 C1182 C 0.04530 0.69738 0.36656
 C1183 C 0.07738 0.73593 0.38335
 C1184 C 0.08749 0.74458 0.39398
 C1185 C 0.09887 0.75432 0.40713
 C1186 C 0.10817 0.76231 0.41891
 C1187 C 0.11877 0.77146 0.43360
 C1188 C 0.11550 0.79056 0.43776
 C1189 C 0.12457 0.79898 0.45307
 C1190 C 0.13708 0.78838 0.46432
 C1191 C 0.14050 0.76932 0.45993
 C1192 C 0.13143 0.76092 0.44462
 H1193 H 0.06311 0.70165 0.39062
 H1194 H 0.06346 0.74636 0.34962
 H1195 H 0.04065 0.72874 0.33038
 H1196 H 0.04038 0.68383 0.37176
 H1197 H 0.10559 0.79880 0.42945
 H1198 H 0.12151 0.81361 0.45646
 H1199 H 0.14993 0.76089 0.46859
 H1200 H 0.13393 0.74609 0.44164
 C1201 C 0.64431 0.94161 0.73610
 C1202 C 0.62704 0.93501 0.72876
 C1203 C 0.62114 0.94091 0.71098
 C1204 C 0.63226 0.95355 0.70066
 C1205 C 0.64951 0.96050 0.70798
 C1206 C 0.65551 0.95427 0.72577
 C1207 C 0.61493 0.92271 0.73957
 C1208 C 0.60415 0.91269 0.74820
 C1209 C 0.59082 0.90130 0.75781
 C1210 C 0.57887 0.89187 0.76557
 C1211 C 0.56395 0.88099 0.77426
 C1212 C 0.55325 0.86830 0.76348
 C1213 C 0.53769 0.85888 0.77138
 C1214 C 0.53274 0.86199 0.79017
 C1215 C 0.54367 0.87451 0.80102
 C1216 C 0.55924 0.88395 0.79310
 H1217 H 0.64900 0.93717 0.74988
 H1218 H 0.60778 0.93592 0.70518
 H1219 H 0.62722 0.95803 0.68702
 H1220 H 0.66870 0.95938 0.73180
 H1221 H 0.55666 0.86602 0.74886
 H1222 H 0.52927 0.84944 0.76276
 H1223 H 0.53985 0.87731 0.81545
 H1224 H 0.56731 0.89387 0.80152
 C1225 C 0.35359 0.94421 0.26433
 C1226 C 0.37072 0.93700 0.27141
 C1227 C 0.37675 0.94209 0.28939
 C1228 C 0.36592 0.95460 0.30014
 C1229 C 0.34886 0.96224 0.29304
 C1230 C 0.34268 0.95674 0.27509
 C1231 C 0.38273 0.92517 0.26000
 C1232 C 0.39345 0.91572 0.25070
 C1233 C 0.40673 0.90523 0.24011
 C1234 C 0.41869 0.89678 0.23133
 C1235 C 0.43367 0.88739 0.22119
 C1236 C 0.43626 0.86779 0.22280
 C1237 C 0.45180 0.85904 0.21407
 C1238 C 0.46481 0.86985 0.20363
 C1239 C 0.46197 0.88943 0.20185
 C1240 C 0.44646 0.89814 0.21054
 H1241 H 0.34883 0.94043 0.25039
 H1242 H 0.39002 0.93664 0.29498
 H1243 H 0.37107 0.95851 0.31390
 H1244 H 0.32964 0.96238 0.26922
 H1245 H 0.42655 0.85936 0.23114
 H1246 H 0.45394 0.84396 0.21579
 H1247 H 0.47198 0.89798 0.19398
 H1248 H 0.44468 0.91332 0.20930
 C1249 C 0.62417 0.05774 0.28822
 C1250 C 0.63036 0.06356 0.27050
 C1251 C 0.64767 0.05683 0.26342
 C1252 C 0.65863 0.04410 0.27392
 C1253 C 0.65233 0.03792 0.29162
 C1254 C 0.63506 0.04503 0.29871
 C1255 C 0.61844 0.07584 0.25945
 C1256 C 0.60780 0.08579 0.25057
 C1257 C 0.59460 0.09707 0.24066
 C1258 C 0.58271 0.10636 0.23265
 C1259 C 0.56777 0.11703 0.22371
 C1260 C 0.56383 0.11449 0.20464
 C1261 C 0.54815 0.12355 0.19647
 C1262 C 0.53635 0.13525 0.20733
 C1263 C 0.54058 0.13800 0.22634
 C1264 C 0.55624 0.12898 0.23448
 H1265 H 0.61077 0.06283 0.29382
 H1266 H 0.65257 0.06120 0.24970
 H1267 H 0.67184 0.03887 0.26806
 H1268 H 0.62980 0.04059 0.31227
 H1269 H 0.57255 0.10514 0.19622
 H1270 H 0.54490 0.12105 0.18185
 H1271 H 0.53149 0.14682 0.23495
 H1272 H 0.55905 0.13092 0.24927
 C1273 C 0.37787 0.05709 0.71015
 C1274 C 0.37170 0.06285 0.72788
 C1275 C 0.35425 0.05632 0.73484
 C1276 C 0.34315 0.04385 0.72422
 C1277 C 0.34942 0.03772 0.70651
 C1278 C 0.36683 0.04463 0.69953
 C1279 C 0.38378 0.07473 0.73915
 C1280 C 0.39450 0.08425 0.74839
 C1281 C 0.40774 0.09484 0.75895
 C1282 C 0.41963 0.10336 0.76775
 C1283 C 0.43453 0.11284 0.77794
 C1284 C 0.44740 0.10216 0.78856
 C1285 C 0.46283 0.11097 0.79731
 C1286 C 0.46549 0.13057 0.79560
 C1287 C 0.45239 0.14131 0.78519
 C1288 C 0.43694 0.13247 0.77640
 H1289 H 0.39138 0.06201 0.70465
 H1290 H 0.34937 0.06064 0.74858
 H1291 H 0.32983 0.03878 0.72999
 H1292 H 0.37208 0.04022 0.68595
 H1293 H 0.44575 0.08696 0.78973
 H1294 H 0.47291 0.10246 0.80515
 H1295 H 0.45441 0.15642 0.78353
 H1296 H 0.42715 0.14084 0.76809
 C1297 C 0.62135 0.71112 0.05711
 C1298 C 0.62735 0.72917 0.06255
 C1299 C 0.64461 0.73639 0.05582
 C1300 C 0.65569 0.72571 0.04342
 C1301 C 0.64956 0.70768 0.03756
 C1302 C 0.63237 0.70043 0.04472
 C1303 C 0.61521 0.74055 0.07427
 C1304 C 0.60446 0.74990 0.08363
 C1305 C 0.59121 0.76062 0.09403
 C1306 C 0.57934 0.76958 0.10241
 C1307 C 0.56452 0.78001 0.11176
 C1308 C 0.56011 0.77627 0.13054
 C1309 C 0.54467 0.78536 0.13907
 C1310 C 0.53357 0.79831 0.12887
 C1311 C 0.53822 0.80219 0.11014
 C1312 C 0.55365 0.79312 0.10165
 H1313 H 0.60799 0.70541 0.06218
 H1314 H 0.64935 0.75039 0.05989
 H1315 H 0.66884 0.73170 0.03816
 H1316 H 0.62725 0.68661 0.04052
 H1317 H 0.56832 0.76602 0.13845
 H1318 H 0.54108 0.78200 0.15344
 H1319 H 0.52967 0.81199 0.10203
 H1320 H 0.55683 0.79602 0.08708
 C1321 C 0.35166 0.26060 0.05743
 C1322 C 0.36892 0.26803 0.06396
 C1323 C 0.37479 0.28601 0.05813
 C1324 C 0.36366 0.29641 0.04559
 C1325 C 0.34645 0.28896 0.03867
 C1326 C 0.34046 0.27101 0.04487
 C1327 C 0.38110 0.25710 0.07606
 C1328 C 0.39199 0.24837 0.08587
 C1329 C 0.40549 0.23869 0.09697
 C1330 C 0.41763 0.23091 0.10613
 C1331 C 0.43281 0.22227 0.11665
 C1332 C 0.44445 0.23352 0.12803
 C1333 C 0.46025 0.22562 0.13701
 C1334 C 0.46452 0.20635 0.13478
 C1335 C 0.45265 0.19502 0.12360
 C1336 C 0.43683 0.20295 0.11459
 H1337 H 0.34700 0.24667 0.06182
 H1338 H 0.38813 0.29189 0.06307
 H1339 H 0.36869 0.31018 0.04112
 H1340 H 0.32730 0.26487 0.03979
 H1341 H 0.44157 0.24851 0.12960
 H1342 H 0.46938 0.23459 0.14542
 H1343 H 0.45592 0.18019 0.12152
 H1344 H 0.42803 0.19415 0.10568
 C1345 C 0.64549 0.26297 0.94399
 C1346 C 0.62829 0.27034 0.93724
 C1347 C 0.62252 0.28850 0.94259
 C1348 C 0.63370 0.29913 0.95489
 C1349 C 0.65083 0.29173 0.96205
 C1350 C 0.65673 0.27360 0.95630
 C1351 C 0.61600 0.25905 0.92559
 C1352 C 0.60513 0.24979 0.91627
 C1353 C 0.59174 0.23919 0.90589
 C1354 C 0.57978 0.23035 0.89751
 C1355 C 0.56488 0.22004 0.88814
 C1356 C 0.56039 0.22395 0.86941
 C1357 C 0.54492 0.21493 0.86085
 C1358 C 0.53388 0.20187 0.87096
 C1359 C 0.53859 0.19784 0.88964
 C1360 C 0.55404 0.20684 0.89817
 H1361 H 0.65005 0.24889 0.93999
 H1362 H 0.60921 0.29433 0.93749
 H1363 H 0.62875 0.31304 0.95900
 H1364 H 0.66983 0.26749 0.96157
 H1365 H 0.56858 0.23426 0.86157
 H1366 H 0.54129 0.21841 0.84651
 H1367 H 0.53008 0.18796 0.89769
 H1368 H 0.55728 0.20381 0.91270
 C1369 C 0.35110 0.73550 0.94263
 C1370 C 0.36830 0.72821 0.93583
 C1371 C 0.37448 0.71033 0.94167
 C1372 C 0.36372 0.69989 0.95447
 C1373 C 0.34656 0.70720 0.96166
 C1374 C 0.34025 0.72505 0.95545
 C1375 C 0.38015 0.73921 0.92349
 C1376 C 0.39079 0.74800 0.91348
 C1377 C 0.40404 0.75777 0.90218
 C1378 C 0.41598 0.76564 0.89287
 C1379 C 0.43099 0.77442 0.88222
 C1380 C 0.44357 0.76311 0.87193
 C1381 C 0.45920 0.77126 0.86290
 C1382 C 0.46237 0.79084 0.86400
 C1383 C 0.44954 0.80221 0.87406
 C1384 C 0.43389 0.79402 0.88312
 H1385 H 0.34621 0.74936 0.93825
 H1386 H 0.38779 0.70456 0.93653
 H1387 H 0.36898 0.68620 0.95892
 H1388 H 0.32713 0.73108 0.96074
 H1389 H 0.44155 0.74792 0.87126
 H1390 H 0.46906 0.76227 0.85535
 H1391 H 0.45195 0.81730 0.87527
 H1392 H 0.42435 0.80289 0.89118
 C1393 C 0.71185 0.94081 0.37685
 C1394 C 0.73019 0.93534 0.37143
 C1395 C 0.73777 0.94197 0.35452
 C1396 C 0.72718 0.95432 0.34325
 C1397 C 0.70889 0.96024 0.34882
 C1398 C 0.70126 0.95316 0.36565
 C1399 C 0.74149 0.92381 0.38381
 C1400 C 0.75076 0.91465 0.39477
 C1401 C 0.76137 0.90452 0.40825
 C1402 C 0.77020 0.89639 0.42031
 C1403 C 0.78045 0.88736 0.43533
 C1404 C 0.77805 0.86801 0.43892
 C1405 C 0.78693 0.85968 0.45442
 C1406 C 0.79833 0.87064 0.46640
 C1407 C 0.80088 0.88996 0.46258
 C1408 C 0.79203 0.89826 0.44710
 H1409 H 0.70586 0.93582 0.38994
 H1410 H 0.75199 0.93788 0.35023
 H1411 H 0.73347 0.95953 0.33040
 H1412 H 0.68723 0.95741 0.37035
 H1413 H 0.76899 0.85948 0.42999
 H1414 H 0.78460 0.84481 0.45733
 H1415 H 0.80948 0.89865 0.47179
 H1416 H 0.79388 0.91327 0.44454
 C1417 C 0.26244 0.94357 0.64307
 C1418 C 0.26979 0.93709 0.62602
 C1419 C 0.28797 0.94278 0.62029
 C1420 C 0.29865 0.95513 0.63138
 C1421 C 0.29128 0.96200 0.64840
 C1422 C 0.27312 0.95593 0.65422
 C1423 C 0.25850 0.92527 0.61393
 C1424 C 0.24927 0.91576 0.60325
 C1425 C 0.23877 0.90508 0.59011
 C1426 C 0.23007 0.89639 0.57837
 C1427 C 0.22005 0.88656 0.56372
 C1428 C 0.20699 0.89638 0.55251
 C1429 C 0.19842 0.88740 0.53725
 C1430 C 0.20276 0.86847 0.53310
 C1431 C 0.21564 0.85857 0.54455
 C1432 C 0.22422 0.86757 0.55982
 H1433 H 0.24835 0.93930 0.64761
 H1434 H 0.29379 0.93789 0.60710
 H1435 H 0.31258 0.95950 0.62649
 H1436 H 0.26703 0.96097 0.66723
 H1437 H 0.20378 0.91111 0.55530
 H1438 H 0.18869 0.89530 0.52843
 H1439 H 0.21938 0.84405 0.54135
 H1440 H 0.23444 0.85989 0.56829
 C1441 C 0.29132 0.05925 0.37948
 C1442 C 0.27341 0.06580 0.37380
 C1443 C 0.26561 0.05953 0.35686
 C1444 C 0.27560 0.04658 0.34574
 C1445 C 0.29351 0.03972 0.35149
 C1446 C 0.30130 0.04632 0.36843
 C1447 C 0.26295 0.07845 0.38578
 C1448 C 0.25455 0.08875 0.39641
 C1449 C 0.24518 0.10044 0.40951
 C1450 C 0.23757 0.11010 0.42124
 C1451 C 0.22899 0.12120 0.43588
 C1452 C 0.20942 0.11979 0.43950
 C1453 C 0.20146 0.12938 0.45474
 C1454 C 0.21300 0.14051 0.46644
 C1455 C 0.23254 0.14208 0.46258
 C1456 C 0.24048 0.13251 0.44735
 H1457 H 0.29748 0.06399 0.39258
 H1458 H 0.25173 0.06447 0.35235
 H1459 H 0.26920 0.04176 0.33279
 H1460 H 0.31504 0.04135 0.37327
 H1461 H 0.20043 0.11093 0.43082
 H1462 H 0.18641 0.12776 0.45771
 H1463 H 0.24168 0.15045 0.47158
 H1464 H 0.25566 0.13358 0.44477
 C1465 C 0.71083 0.05643 0.62280
 C1466 C 0.72920 0.06174 0.62826
 C1467 C 0.73672 0.05501 0.64517
 C1468 C 0.72600 0.04276 0.65642
 C1469 C 0.70765 0.03703 0.65082
 C1470 C 0.70011 0.04418 0.63398
 C1471 C 0.74053 0.07336 0.61598
 C1472 C 0.74970 0.08269 0.60510
 C1473 C 0.76009 0.09316 0.59170
 C1474 C 0.76866 0.10169 0.57974
 C1475 C 0.77850 0.11139 0.56487
 C1476 C 0.77436 0.13036 0.56089
 C1477 C 0.78285 0.13928 0.54550
 C1478 C 0.79561 0.12929 0.53403
 C1479 C 0.79988 0.11035 0.53822
 C1480 C 0.79140 0.10146 0.55360
 H1481 H 0.70488 0.06151 0.60972
 H1482 H 0.75096 0.05898 0.64951
 H1483 H 0.73222 0.03748 0.66929
 H1484 H 0.68604 0.04009 0.62926
 H1485 H 0.76427 0.13812 0.56941
 H1486 H 0.77916 0.15380 0.54228
 H1487 H 0.80952 0.10239 0.52939
 H1488 H 0.79459 0.08673 0.55645
 C1489 C 0.93907 0.62256 0.29095
 C1490 C 0.93333 0.62848 0.27312
 C1491 C 0.94043 0.64541 0.26570
 C1492 C 0.95347 0.65624 0.27597
 C1493 C 0.95960 0.65019 0.29377
 C1494 C 0.95209 0.63332 0.30121
 C1495 C 0.92084 0.61661 0.26228
 C1496 C 0.91075 0.60598 0.25356
 C1497 C 0.89940 0.59280 0.24376
 C1498 C 0.89011 0.58096 0.23575
 C1499 C 0.87954 0.56615 0.22661
 C1500 C 0.88295 0.56194 0.20774
 C1501 C 0.87395 0.54645 0.19936
 C1502 C 0.86140 0.53508 0.20977
 C1503 C 0.85783 0.53953 0.22860
 C1504 C 0.86682 0.55502 0.23696
 H1505 H 0.93370 0.60946 0.29682
 H1506 H 0.93613 0.65009 0.25187
 H1507 H 0.95900 0.66914 0.26984
 H1508 H 0.95647 0.62826 0.31487
 H1509 H 0.89291 0.57033 0.19965
 H1510 H 0.87712 0.54301 0.18491
 H1511 H 0.84837 0.53078 0.23689
 H1512 H 0.86422 0.55804 0.25162
 C1513 C 0.94010 0.37876 0.70884
 C1514 C 0.93468 0.37273 0.72673
 C1515 C 0.94157 0.35554 0.73376
 C1516 C 0.95411 0.34458 0.72305
 C1517 C 0.95995 0.35075 0.70520
 C1518 C 0.95262 0.36787 0.69814
 C1519 C 0.92287 0.38476 0.73811
 C1520 C 0.91345 0.39549 0.74741
 C1521 C 0.90300 0.40876 0.75802
 C1522 C 0.89462 0.42069 0.76683
 C1523 C 0.88530 0.43561 0.77703
 C1524 C 0.89625 0.44826 0.78761
 C1525 C 0.88761 0.46368 0.79640
 C1526 C 0.86790 0.46656 0.79477
 C1527 C 0.85689 0.45371 0.78437
 C1528 C 0.86557 0.43827 0.77555
 H1529 H 0.93490 0.39207 0.70329
 H1530 H 0.93753 0.35077 0.74762
 H1531 H 0.95951 0.33148 0.72889
 H1532 H 0.95680 0.37302 0.68446
 H1533 H 0.91154 0.44642 0.78874
 H1534 H 0.89631 0.47356 0.80423
 H1535 H 0.84170 0.45590 0.78278
 H1536 H 0.85699 0.42866 0.76727
 C1537 C 0.05906 0.62024 0.70912
 C1538 C 0.06562 0.62635 0.72660
 C1539 C 0.05944 0.64373 0.73379
 C1540 C 0.04655 0.65484 0.72363
 C1541 C 0.03965 0.64865 0.70616
 C1542 C 0.04618 0.63129 0.69896
 C1543 C 0.07813 0.61436 0.73732
 C1544 C 0.08826 0.60374 0.74602
 C1545 C 0.09970 0.59065 0.75587
 C1546 C 0.10908 0.57892 0.76396
 C1547 C 0.11977 0.56426 0.77322
 C1548 C 0.11636 0.56010 0.79211
 C1549 C 0.12542 0.54468 0.80059
 C1550 C 0.13804 0.53333 0.79025
 C1551 C 0.14166 0.53777 0.77142
 C1552 C 0.13260 0.55318 0.76296
 H1553 H 0.06371 0.60680 0.70344
 H1554 H 0.06440 0.64857 0.74734
 H1555 H 0.04180 0.66812 0.72956
 H1556 H 0.04118 0.62611 0.68556
 H1557 H 0.10631 0.56845 0.80013
 H1558 H 0.12220 0.54125 0.81503
 H1559 H 0.15116 0.52902 0.76319
 H1560 H 0.13522 0.55616 0.74830
 C1561 C 0.05662 0.35489 0.26675
 C1562 C 0.06354 0.37206 0.27378
 C1563 C 0.05774 0.37830 0.29146
 C1564 C 0.04485 0.36762 0.30198
 C1565 C 0.03755 0.35049 0.29493
 C1566 C 0.04373 0.34414 0.27727
 C1567 C 0.07583 0.38382 0.26259
 C1568 C 0.08568 0.39430 0.25343
 C1569 C 0.09662 0.40728 0.24294
 C1570 C 0.10541 0.41898 0.23419
 C1571 C 0.11516 0.43367 0.22402
 C1572 C 0.10481 0.44543 0.21194
 C1573 C 0.11370 0.46078 0.20326
 C1574 C 0.13307 0.46447 0.20648
 C1575 C 0.14352 0.45247 0.21833
 C1576 C 0.13459 0.43709 0.22706
 H1577 H 0.06096 0.34996 0.25303
 H1578 H 0.06294 0.39160 0.29702
 H1579 H 0.04042 0.37291 0.31552
 H1580 H 0.03837 0.33103 0.27144
 H1581 H 0.08975 0.44300 0.20960
 H1582 H 0.10541 0.47003 0.19430
 H1583 H 0.15841 0.45530 0.22116
 H1584 H 0.14269 0.42818 0.23650
   
