data_POSCAR
  _audit_creation_date              2014-09-24
  _audit_creation_method            'ToBaCCo'
  _symmetry_space_group_name_H-M    'P1'
  _symmetry_Int_Tables_number       1
  _symmetry_cell_setting            triclinic
  loop_
  _symmetry_equiv_pos_as_xyz
 x,y,z
_cell_length_a 36.0802
_cell_length_b 24.4190
_cell_length_c 27.0684
_cell_angle_alpha 89.919000
_cell_angle_beta 89.817400
_cell_angle_gamma 89.967000
loop_
  _atom_site_label
  _atom_site_type_symbol
  _atom_site_fract_x
  _atom_site_fract_y
  _atom_site_fract_z
C1 C 0.01034 -0.01331 0.15808
 C2 C -0.00431 0.03047 -0.16190
 C3 C -0.05152 -0.13149 0.07021
 C4 C -0.10063 0.02851 0.07852
 C5 C -0.05316 -0.11828 -0.08662
 C6 C 0.10204 -0.01246 -0.08504
 C7 C 0.05197 0.14312 -0.07555
 C8 C 0.10409 -0.02471 0.06922
 C9 C -0.10415 0.04176 -0.06665
 C10 C 0.05479 0.13023 0.08405
 O11 O -0.01930 -0.10674 -0.09820
 O12 O -0.07218 -0.09500 -0.05204
 O13 O -0.07730 0.07515 -0.07641
 O14 O -0.10178 -0.00172 -0.03997
 O15 O 0.02146 0.11729 0.09663
 O16 O 0.07356 0.10810 0.04852
 O17 O -0.01617 0.06784 -0.13254
 O18 O 0.00899 -0.01600 -0.14720
 O19 O -0.00579 0.03078 0.14292
 O20 O 0.02124 -0.05245 0.12996
 O21 O 0.07367 -0.04075 -0.09940
 O22 O 0.10117 0.02369 -0.05018
 O23 O -0.01620 -0.12488 0.07716
 O24 O -0.07143 -0.10237 0.04068
 O25 O 0.07747 -0.05902 0.07785
 O26 O 0.10229 0.01692 0.04009
 O27 O 0.01649 0.13719 -0.08031
 O28 O 0.07244 0.11345 -0.04700
 O29 O -0.03975 0.13428 0.09322
 O30 O -0.04461 0.15448 -0.05664
 O31 O 0.04254 -0.12046 -0.09690
 O32 O 0.04698 -0.14108 0.05206
 O33 O -0.00783 -0.07904 -0.01070
 O34 O -0.04861 0.05083 0.00677
 O35 O 0.04923 -0.03811 -0.00982
 O36 O -0.02773 -0.02266 0.06379
 O37 O -0.09981 -0.00912 0.04515
 O38 O -0.07248 0.05707 0.09277
 O39 O 0.03362 0.01902 0.06357
 O40 O 0.02928 0.03630 -0.06761
 O41 O 0.00901 0.09096 0.00680
 O42 O -0.03198 -0.00625 -0.06697
 Zr43 Zr -0.01638 0.05931 0.07005
 Zr44 Zr 0.01802 -0.04620 -0.07398
 Zr45 Zr -0.05663 -0.03363 -0.00176
 Zr46 Zr 0.02175 -0.06311 0.05375
 Zr47 Zr -0.02072 0.07559 -0.05665
 Zr48 Zr 0.05814 0.04636 -0.00185
 H49 H 0.07223 -0.06000 -0.01236
 H50 H -0.04174 -0.03468 0.09334
 H51 H 0.01267 0.13102 0.00936
 H52 H -0.04785 -0.01283 -0.09611
 H53 H -0.04385 0.15565 0.06263
 H54 H -0.05446 0.15977 -0.02283
 H55 H 0.03985 -0.15722 0.01996
 H56 H 0.04885 -0.14016 -0.06606
 C57 C 0.25586 0.28323 0.08900
 C58 C 0.24605 0.22600 0.40836
 C59 C 0.19591 0.39536 0.18300
 C60 C 0.14770 0.23459 0.16956
 C61 C 0.19465 0.37718 0.33725
 C62 C 0.34957 0.27232 0.33107
 C63 C 0.30157 0.11803 0.31767
 C64 C 0.35218 0.29234 0.17888
 C65 C 0.14442 0.21566 0.31544
 C66 C 0.30403 0.13632 0.15841
 O67 O 0.22851 0.36545 0.34827
 O68 O 0.17546 0.35419 0.30287
 O69 O 0.17163 0.18255 0.32395
 O70 O 0.14636 0.25988 0.28951
 O71 O 0.27046 0.14870 0.14670
 O72 O 0.32260 0.15776 0.19420
 O73 O 0.23293 0.18936 0.37924
 O74 O 0.25863 0.27296 0.39422
 O75 O 0.24138 0.23726 0.10302
 O76 O 0.26716 0.32034 0.11898
 O77 O 0.32124 0.29967 0.34687
 O78 O 0.34923 0.23793 0.29496
 O79 O 0.23125 0.38996 0.17586
 O80 O 0.17597 0.36435 0.21107
 O81 O 0.32508 0.32590 0.17074
 O82 O 0.35050 0.24926 0.20624
 O83 O 0.26625 0.12313 0.32452
 O84 O 0.32143 0.14830 0.28891
 O85 O 0.20957 0.13049 0.15035
 O86 O 0.20513 0.10460 0.29986
 O87 O 0.28995 0.37969 0.34664
 O88 O 0.29408 0.40541 0.19819
 O89 O 0.23954 0.34023 0.26035
 O90 O 0.20003 0.21039 0.23989
 O91 O 0.29703 0.30065 0.25757
 O92 O 0.22001 0.28642 0.18497
 O93 O 0.14813 0.27089 0.20408
 O94 O 0.17603 0.20716 0.15402
 O95 O 0.28187 0.24596 0.18211
 O96 O 0.27775 0.22397 0.31312
 O97 O 0.25764 0.17165 0.23786
 O98 O 0.21615 0.26532 0.31539
 Zr99 Zr 0.23215 0.20508 0.17555
 Zr100 Zr 0.26585 0.30590 0.32208
 Zr101 Zr 0.19111 0.29421 0.25122
 Zr102 Zr 0.26926 0.32726 0.19529
 Zr103 Zr 0.22804 0.18402 0.30266
 Zr104 Zr 0.30638 0.21680 0.24662
 H105 H 0.31979 0.32293 0.26062
 H106 H 0.20566 0.29955 0.15622
 H107 H 0.26181 0.13183 0.23396
 H108 H 0.20048 0.27086 0.34504
 H109 H 0.20562 0.10801 0.18035
 H110 H 0.19477 0.10098 0.26622
 H111 H 0.28807 0.41990 0.23139
 H112 H 0.29649 0.40018 0.31627
 C113 C 0.49085 0.01748 0.15904
 C114 C 0.50159 -0.01586 -0.16077
 C115 C 0.55414 0.14063 0.07057
 C116 C 0.60248 -0.02080 0.08181
 C117 C 0.55545 0.13261 -0.08212
 C118 C 0.40034 0.02813 -0.08143
 C119 C 0.44884 -0.12842 -0.07882
 C120 C 0.39855 0.03612 0.07032
 C121 C 0.60621 -0.02767 -0.07429
 C122 C 0.44444 -0.12399 0.07928
 O123 O 0.52117 0.12207 -0.09180
 O124 O 0.57534 0.10590 -0.05032
 O125 O 0.57902 -0.06081 -0.08378
 O126 O 0.60444 0.01219 -0.04298
 O127 O 0.47623 -0.10841 0.09707
 O128 O 0.42873 -0.10242 0.04125
 O129 O 0.51612 -0.05399 -0.13456
 O130 O 0.49041 0.03077 -0.14418
 O131 O 0.50672 -0.02657 0.14317
 O132 O 0.48166 0.05834 0.13203
 O133 O 0.42865 0.05696 -0.09511
 O134 O 0.40103 -0.00985 -0.04830
 O135 O 0.51908 0.13304 0.07859
 O136 O 0.57441 0.11100 0.04166
 O137 O 0.42557 0.06919 0.07974
 O138 O 0.40039 -0.00612 0.04185
 O139 O 0.48438 -0.12293 -0.08466
 O140 O 0.42886 -0.09952 -0.04910
 O141 O 0.54001 -0.13022 0.08850
 O142 O 0.54699 -0.14260 -0.05942
 O143 O 0.46105 0.13480 -0.09284
 O144 O 0.45707 0.14967 0.05784
 O145 O 0.51122 0.08871 -0.00746
 O146 O 0.55081 -0.04242 0.00587
 O147 O 0.45333 0.04940 -0.00712
 O148 O 0.53044 0.02936 0.06469
 O149 O 0.60200 0.01597 0.04721
 O150 O 0.57398 -0.05017 0.09484
 O151 O 0.46842 -0.01110 0.06433
 O152 O 0.47313 -0.02300 -0.06715
 O153 O 0.49307 -0.08094 0.00489
 O154 O 0.53431 0.01856 -0.06664
 Zr155 Zr 0.51791 -0.05296 0.06975
 Zr156 Zr 0.48450 0.05947 -0.07074
 Zr157 Zr 0.55984 0.04225 -0.00097
 Zr158 Zr 0.48141 0.07109 0.05636
 Zr159 Zr 0.52301 -0.06375 -0.05884
 Zr160 Zr 0.44416 -0.03521 -0.00190
 H161 H 0.43067 0.07211 -0.00878
 H162 H 0.54418 0.04131 0.09436
 H163 H 0.48917 -0.12102 0.00636
 H164 H 0.54930 0.02681 -0.09641
 H165 H 0.54340 -0.14966 0.05677
 H166 H 0.56067 -0.14565 -0.02790
 H167 H 0.46121 0.16509 0.02445
 H168 H 0.45338 0.15321 -0.06188
 C169 C 0.76047 0.27421 0.09112
 C170 C 0.74582 0.22956 0.40991
 C171 C 0.69868 0.39421 0.17901
 C172 C 0.64888 0.23399 0.16708
 C173 C 0.69548 0.38080 0.33417
 C174 C 0.84956 0.27131 0.33643
 C175 C 0.79999 0.11807 0.32588
 C176 C 0.85343 0.28432 0.17723
 C177 C 0.64398 0.22289 0.31967
 C178 C 0.80455 0.13063 0.16512
 O179 O 0.72899 0.36809 0.34652
 O180 O 0.67655 0.35770 0.29951
 O181 O 0.67061 0.18867 0.32877
 O182 O 0.64645 0.26464 0.29053
 O183 O 0.77116 0.14346 0.15253
 O184 O 0.82298 0.15255 0.20086
 O185 O 0.73178 0.19294 0.38175
 O186 O 0.75881 0.27605 0.39495
 O187 O 0.74458 0.22982 0.10620
 O188 O 0.77068 0.31365 0.11914
 O189 O 0.82138 0.30085 0.34944
 O190 O 0.84960 0.23633 0.30058
 O191 O 0.73397 0.38657 0.17212
 O192 O 0.67805 0.36468 0.20766
 O193 O 0.82692 0.31904 0.16920
 O194 O 0.85153 0.24345 0.20757
 O195 O 0.76441 0.12459 0.33050
 O196 O 0.82075 0.14715 0.29690
 O197 O 0.70941 0.12624 0.15689
 O198 O 0.70267 0.10733 0.30338
 O199 O 0.79069 0.38214 0.34426
 O200 O 0.79731 0.40121 0.19776
 O201 O 0.74088 0.33983 0.25893
 O202 O 0.69952 0.21039 0.24191
 O203 O 0.79870 0.29892 0.25863
 O204 O 0.72165 0.28377 0.18503
 O205 O 0.64915 0.27068 0.20154
 O206 O 0.67719 0.20484 0.15389
 O207 O 0.78285 0.24153 0.18565
 O208 O 0.77722 0.22491 0.31595
 O209 O 0.75769 0.17024 0.24255
 O210 O 0.71635 0.26805 0.31540
 Zr211 Zr 0.73276 0.20152 0.17896
 Zr212 Zr 0.76650 0.30747 0.32214
 Zr213 Zr 0.69169 0.29502 0.25006
 Zr214 Zr 0.77134 0.32384 0.19511
 Zr215 Zr 0.72701 0.18585 0.30574
 Zr216 Zr 0.80722 0.21433 0.25098
 H217 H 0.82191 0.32027 0.26129
 H218 H 0.70804 0.29623 0.15541
 H219 H 0.76140 0.13017 0.24008
 H220 H 0.70091 0.27531 0.34495
 H221 H 0.70596 0.10492 0.18767
 H222 H 0.68897 0.10594 0.27179
 H223 H 0.78847 0.41844 0.22870
 H224 H 0.79866 0.40035 0.31333
 C225 C 0.00869 0.48132 0.15928
 C226 C -0.00597 0.52949 -0.16026
 C227 C -0.05212 0.36416 0.06977
 C228 C -0.10212 0.52645 0.07873
 C229 C -0.05367 0.37882 -0.08588
 C230 C 0.10002 0.48769 -0.08674
 C231 C 0.05121 0.64010 -0.07185
 C232 C 0.10278 0.47227 0.07364
 C233 C -0.10519 0.54095 -0.06523
 C234 C 0.05416 0.62456 0.08729
 O235 O -0.01990 0.39076 -0.09744
 O236 O -0.07301 0.40213 -0.05159
 O237 O -0.07806 0.57396 -0.07453
 O238 O -0.10300 0.49677 -0.03920
 O239 O 0.02062 0.61219 0.09925
 O240 O 0.07302 0.60284 0.05168
 O241 O -0.01773 0.56641 -0.13040
 O242 O 0.00750 0.48285 -0.14608
 O243 O -0.00723 0.52567 0.14442
 O244 O 0.01957 0.44239 0.13086
 O245 O 0.07178 0.45904 -0.10057
 O246 O 0.10013 0.52130 -0.04982
 O247 O -0.01680 0.37054 0.07651
 O248 O -0.07232 0.39402 0.04110
 O249 O 0.07626 0.43736 0.08102
 O250 O 0.10138 0.51300 0.04330
 O251 O 0.01601 0.63378 -0.07835
 O252 O 0.07155 0.61093 -0.04286
 O253 O -0.04020 0.63006 0.09596
 O254 O -0.04459 0.65248 -0.05225
 O255 O 0.04194 0.37774 -0.09630
 O256 O 0.04669 0.35535 0.05140
 O257 O -0.00889 0.41831 -0.01012
 O258 O -0.04958 0.54761 0.00851
 O259 O 0.04870 0.45830 -0.00896
 O260 O -0.02880 0.47323 0.06473
 O261 O -0.10129 0.48841 0.04567
 O262 O -0.07373 0.55408 0.09362
 O263 O 0.03261 0.51473 0.06512
 O264 O 0.02839 0.53374 -0.06551
 O265 O 0.00837 0.58720 0.00910
 O266 O -0.03307 0.49142 -0.06575
 Zr267 Zr -0.01738 0.55507 0.07183
 Zr268 Zr 0.01699 0.45159 -0.07311
 Zr269 Zr -0.05789 0.46341 -0.00092
 Zr270 Zr 0.02094 0.43289 0.05446
 Zr271 Zr -0.02157 0.57304 -0.05445
 Zr272 Zr 0.05754 0.54244 0.00024
 H273 H 0.07191 0.43693 -0.01189
 H274 H -0.04301 0.46100 0.09406
 H275 H 0.01215 0.62719 0.01215
 H276 H -0.04902 0.48516 -0.09488
 H277 H -0.04368 0.65228 0.06572
 H278 H -0.05596 0.65594 -0.01910
 H279 H 0.03887 0.33917 0.01960
 H280 H 0.04901 0.35845 -0.06556
 C281 C 0.25506 0.74439 0.08884
 C282 C 0.24707 0.76978 0.40912
 C283 C 0.19762 0.88704 0.16748
 C284 C 0.14719 0.72493 0.17608
 C285 C 0.19551 0.89120 0.32290
 C286 C 0.35133 0.78611 0.32518
 C287 C 0.30287 0.63073 0.33171
 C288 C 0.35271 0.78255 0.16963
 C289 C 0.14639 0.72740 0.32229
 C290 C 0.30349 0.62594 0.17225
 O291 O 0.23059 0.88442 0.33096
 O292 O 0.17603 0.86301 0.29212
 O293 O 0.17442 0.69811 0.33575
 O294 O 0.14769 0.76740 0.29089
 O295 O 0.26855 0.63285 0.16434
 O296 O 0.32313 0.65364 0.20317
 O297 O 0.23558 0.72435 0.39047
 O298 O 0.26164 0.80929 0.38459
 O299 O 0.23954 0.70559 0.11321
 O300 O 0.26591 0.79028 0.10722
 O301 O 0.32368 0.81779 0.33592
 O302 O 0.35083 0.74662 0.29386
 O303 O 0.23197 0.87714 0.15751
 O304 O 0.17763 0.86111 0.19946
 O305 O 0.32509 0.81379 0.15815
 O306 O 0.35182 0.74435 0.20283
 O307 O 0.26889 0.64156 0.34262
 O308 O 0.32244 0.65524 0.29831
 O309 O 0.20729 0.61411 0.18159
 O310 O 0.20883 0.62146 0.33215
 O311 O 0.29445 0.90018 0.31531
 O312 O 0.29288 0.89333 0.16555
 O313 O 0.24070 0.84344 0.24465
 O314 O 0.20060 0.71198 0.25138
 O315 O 0.29864 0.80365 0.24621
 O316 O 0.21922 0.77510 0.18199
 O317 O 0.14828 0.76684 0.20481
 O318 O 0.17487 0.69343 0.16553
 O319 O 0.28070 0.73376 0.18350
 O320 O 0.28103 0.74052 0.31543
 O321 O 0.25875 0.67323 0.25253
 O322 O 0.21907 0.78144 0.31306
 Zr323 Zr 0.23075 0.69288 0.18830
 Zr324 Zr 0.26872 0.82290 0.30926
 Zr325 Zr 0.19195 0.79670 0.24719
 Zr326 Zr 0.26909 0.81640 0.18164
 Zr327 Zr 0.23102 0.69938 0.31579
 Zr328 Zr 0.30785 0.71893 0.24961
 H329 H 0.32155 0.82591 0.24579
 H330 H 0.20459 0.78319 0.15197
 H331 H 0.26274 0.63315 0.25362
 H332 H 0.20323 0.79187 0.34139
 H333 H 0.19707 0.60533 0.21461
 H334 H 0.20527 0.60337 0.29984
 H335 H 0.29851 0.90990 0.19800
 H336 H 0.28970 0.91894 0.28353
 C337 C 0.49192 0.52085 0.15878
 C338 C 0.50012 0.48755 -0.16053
 C339 C 0.55277 0.64701 0.07018
 C340 C 0.60357 0.48579 0.07959
 C341 C 0.55299 0.63798 -0.08292
 C342 C 0.39935 0.53018 -0.08188
 C343 C 0.44844 0.37641 -0.07777
 C344 C 0.39849 0.53877 0.07336
 C345 C 0.60542 0.47845 -0.07432
 C346 C 0.44746 0.38504 0.08507
 O347 O 0.51948 0.62527 -0.09468
 O348 O 0.57291 0.61359 -0.04989
 O349 O 0.57847 0.44481 -0.08325
 O350 O 0.60367 0.51963 -0.04452
 O351 O 0.48154 0.39566 0.09565
 O352 O 0.42848 0.40785 0.05030
 O353 O 0.51607 0.45073 -0.13438
 O354 O 0.48796 0.53381 -0.14406
 O355 O 0.50852 0.47786 0.14212
 O356 O 0.48194 0.56201 0.13249
 O357 O 0.42732 0.55962 -0.09568
 O358 O 0.40031 0.49353 -0.04736
 O359 O 0.51784 0.63886 0.07849
 O360 O 0.57320 0.61780 0.04107
 O361 O 0.42533 0.57242 0.08227
 O362 O 0.40006 0.49792 0.04334
 O363 O 0.48379 0.38278 -0.08465
 O364 O 0.42873 0.40368 -0.04644
 O365 O 0.54373 0.37707 0.08644
 O366 O 0.54608 0.36252 -0.05895
 O367 O 0.45884 0.63943 -0.09089
 O368 O 0.45553 0.65403 0.05884
 O369 O 0.50991 0.59381 -0.00771
 O370 O 0.55152 0.46400 0.00452
 O371 O 0.45223 0.55389 -0.00633
 O372 O 0.53071 0.53579 0.06427
 O373 O 0.60278 0.52301 0.04536
 O374 O 0.57541 0.45643 0.09299
 O375 O 0.46951 0.49380 0.06461
 O376 O 0.47223 0.48141 -0.06606
 O377 O 0.49315 0.42416 0.00521
 O378 O 0.53321 0.52413 -0.06689
 Zr379 Zr 0.51970 0.45331 0.06841
 Zr380 Zr 0.48292 0.56389 -0.07068
 Zr381 Zr 0.55930 0.54881 -0.00169
 Zr382 Zr 0.48082 0.57612 0.05677
 Zr383 Zr 0.52250 0.44165 -0.05877
 Zr384 Zr 0.44378 0.46924 -0.00035
 H385 H 0.42922 0.57587 -0.00787
 H386 H 0.54467 0.54763 0.09380
 H387 H 0.48907 0.38412 0.00700
 H388 H 0.54796 0.53224 -0.09691
 H389 H 0.54497 0.35641 0.05507
 H390 H 0.56146 0.36052 -0.02879
 H391 H 0.45983 0.67017 0.02576
 H392 H 0.45153 0.65710 -0.05945
 C393 C 0.75274 0.78236 0.09035
 C394 C 0.74718 0.72859 0.40911
 C395 C 0.69581 0.89569 0.18174
 C396 C 0.64704 0.73684 0.16871
 C397 C 0.69519 0.88134 0.33632
 C398 C 0.84924 0.77111 0.33406
 C399 C 0.80013 0.61836 0.32052
 C400 C 0.85198 0.78835 0.17548
 C401 C 0.64402 0.72158 0.32121
 C402 C 0.80318 0.63436 0.16108
 O403 O 0.72890 0.86853 0.34781
 O404 O 0.67583 0.85811 0.30217
 O405 O 0.67096 0.68762 0.32924
 O406 O 0.64600 0.76406 0.29285
 O407 O 0.76972 0.64761 0.14904
 O408 O 0.82182 0.65577 0.19685
 O409 O 0.73320 0.69196 0.38084
 O410 O 0.75942 0.77560 0.39442
 O411 O 0.73937 0.73599 0.10506
 O412 O 0.76569 0.81950 0.11891
 O413 O 0.82129 0.80054 0.34802
 O414 O 0.84894 0.73699 0.29757
 O415 O 0.73119 0.88917 0.17434
 O416 O 0.67580 0.86572 0.21070
 O417 O 0.82506 0.82258 0.16765
 O418 O 0.85027 0.74703 0.20526
 O419 O 0.76491 0.62512 0.32770
 O420 O 0.82033 0.64768 0.29119
 O421 O 0.70837 0.62900 0.15495
 O422 O 0.70308 0.60751 0.30171
 O423 O 0.79075 0.88231 0.34437
 O424 O 0.79550 0.90400 0.19802
 O425 O 0.73972 0.84119 0.25979
 O426 O 0.69868 0.71164 0.24182
 O427 O 0.79762 0.80078 0.25755
 O428 O 0.71984 0.78619 0.18627
 O429 O 0.64759 0.77271 0.20383
 O430 O 0.67512 0.70767 0.15471
 O431 O 0.78129 0.74467 0.18333
 O432 O 0.77718 0.72567 0.31403
 O433 O 0.75680 0.67221 0.24035
 O434 O 0.71609 0.76817 0.31622
 Zr435 Zr 0.73114 0.70440 0.17776
 Zr436 Zr 0.76617 0.80803 0.32193
 Zr437 Zr 0.69059 0.79595 0.25192
 Zr438 Zr 0.76955 0.82664 0.19498
 Zr439 Zr 0.72701 0.68628 0.30476
 Zr440 Zr 0.80623 0.71649 0.24806
 H441 H 0.82083 0.82214 0.26012
 H442 H 0.70532 0.79911 0.15765
 H443 H 0.76062 0.63225 0.23696
 H444 H 0.70097 0.77484 0.34618
 H445 H 0.70483 0.60743 0.18557
 H446 H 0.68916 0.60644 0.27028
 H447 H 0.78674 0.92094 0.22914
 H448 H 0.79832 0.90094 0.31346
 C449 C 0.00576 -0.01671 0.33987
 C450 C -0.00837 0.02462 0.65963
 C451 C -0.10632 0.02462 0.41817
 C452 C -0.05580 -0.13846 0.43082
 C453 C -0.10941 0.03473 0.56995
 C454 C 0.04751 0.13440 0.57628
 C455 C 0.09640 -0.01653 0.58301
 C456 C 0.04992 0.12306 0.41133
 C457 C -0.05734 -0.12667 0.58197
 C458 C 0.09892 -0.02939 0.42650
 O459 O -0.08254 0.06856 0.57837
 O460 O -0.10736 -0.00759 0.54147
 O461 O -0.02389 -0.11379 0.59428
 O462 O -0.07697 -0.10220 0.54871
 O463 O 0.07222 -0.06356 0.41794
 O464 O 0.09703 0.01159 0.45642
 O465 O 0.00548 -0.02129 0.64456
 O466 O -0.02243 0.06109 0.63117
 O467 O 0.01554 -0.05676 0.36764
 O468 O -0.01045 0.02729 0.35521
 O469 O 0.01211 0.12818 0.58228
 O470 O 0.06749 0.10746 0.54493
 O471 O -0.07779 0.05238 0.40358
 O472 O -0.10576 -0.01221 0.45273
 O473 O 0.01610 0.11160 0.40032
 O474 O 0.06858 0.10160 0.44721
 O475 O 0.06829 -0.04552 0.59728
 O476 O 0.09586 0.01852 0.54720
 O477 O 0.04230 -0.14522 0.44489
 O478 O 0.03751 -0.12634 0.59344
 O479 O -0.04903 0.14955 0.55337
 O480 O -0.04548 0.13058 0.40748
 O481 O -0.05454 0.04610 0.49191
 O482 O -0.01328 -0.08317 0.50813
 O483 O 0.00364 0.08588 0.49145
 O484 O -0.03334 -0.02748 0.43428
 O485 O -0.07641 -0.10810 0.45863
 O486 O -0.02068 -0.13092 0.42302
 O487 O 0.02799 0.01449 0.43413
 O488 O 0.02378 0.03050 0.56467
 O489 O 0.04437 -0.04333 0.50697
 O490 O -0.03729 -0.01225 0.56514
 Zr491 Zr 0.01655 -0.06762 0.44374
 Zr492 Zr -0.02632 0.06990 0.55530
 Zr493 Zr -0.06259 -0.03831 0.50004
 Zr494 Zr -0.02212 0.05475 0.42826
 Zr495 Zr 0.01295 -0.05184 0.57121
 Zr496 Zr 0.05291 0.04119 0.49903
 H497 H 0.00775 0.12588 0.48901
 H498 H -0.04725 -0.03995 0.40491
 H499 H 0.06748 -0.06500 0.50930
 H500 H -0.05271 -0.01986 0.59466
 H501 H 0.03619 -0.16108 0.47757
 H502 H 0.04534 -0.14461 0.56251
 H503 H -0.04807 0.15170 0.43847
 H504 H -0.06385 0.15124 0.52270
 C505 C 0.25467 0.28084 0.91024
 C506 C 0.24488 0.22698 0.59078
 C507 C 0.14640 0.23342 0.83260
 C508 C 0.19494 0.39608 0.81570
 C509 C 0.14286 0.21666 0.68172
 C510 C 0.30032 0.11796 0.68052
 C511 C 0.34795 0.27288 0.66523
 C512 C 0.30410 0.13485 0.83829
 C513 C 0.19248 0.37963 0.66551
 C514 C 0.35137 0.29179 0.82119
 O515 O 0.17024 0.18365 0.67307
 O516 O 0.14471 0.25961 0.70954
 O517 O 0.22625 0.36759 0.65328
 O518 O 0.17335 0.35511 0.69929
 O519 O 0.32411 0.32522 0.82946
 O520 O 0.34969 0.24959 0.79254
 O521 O 0.25696 0.27422 0.60493
 O522 O 0.23184 0.19011 0.61986
 O523 O 0.26550 0.31877 0.88067
 O524 O 0.24062 0.23473 0.89623
 O525 O 0.26503 0.12388 0.67361
 O526 O 0.32029 0.14825 0.70902
 O527 O 0.17492 0.20569 0.84734
 O528 O 0.14677 0.26935 0.79751
 O529 O 0.27047 0.14701 0.85092
 O530 O 0.32236 0.15729 0.80254
 O531 O 0.31963 0.30139 0.65109
 O532 O 0.34787 0.23847 0.70149
 O533 O 0.29314 0.40454 0.80169
 O534 O 0.28769 0.38116 0.65224
 O535 O 0.20356 0.10511 0.70002
 O536 O 0.20896 0.12825 0.84785
 O537 O 0.19847 0.20956 0.75978
 O538 O 0.23798 0.33955 0.73983
 O539 O 0.25663 0.17183 0.76048
 O540 O 0.21881 0.28534 0.81484
 O541 O 0.17467 0.36426 0.78896
 O542 O 0.23021 0.38979 0.82308
 O543 O 0.28086 0.24497 0.81654
 O544 O 0.27625 0.22489 0.68556
 O545 O 0.29595 0.30109 0.74124
 O546 O 0.21455 0.26604 0.68432
 Zr547 Zr 0.26818 0.32646 0.80432
 Zr548 Zr 0.22652 0.18449 0.69625
 Zr549 Zr 0.18935 0.29347 0.74913
 Zr550 Zr 0.23110 0.20367 0.82363
 Zr551 Zr 0.26420 0.30695 0.67721
 Zr552 Zr 0.30555 0.21717 0.75140
 H553 H 0.26088 0.13198 0.76400
 H554 H 0.20451 0.29863 0.84368
 H555 H 0.31881 0.32321 0.73809
 H556 H 0.19899 0.27228 0.65480
 H557 H 0.28814 0.41867 0.76809
 H558 H 0.29490 0.40118 0.68248
 H559 H 0.20511 0.10643 0.81752
 H560 H 0.19093 0.10311 0.73248
 C561 C 0.48885 0.02257 0.33983
 C562 C 0.49659 -0.01334 0.65912
 C563 C 0.59993 -0.01510 0.42244
 C564 C 0.54905 0.14551 0.42684
 C565 C 0.60147 -0.02515 0.56791
 C566 C 0.44499 -0.12671 0.57307
 C567 C 0.39558 0.02696 0.58282
 C568 C 0.44434 -0.11615 0.41476
 C569 C 0.54905 0.13421 0.58543
 C570 C 0.39475 0.03728 0.42365
 O571 O 0.57434 -0.05795 0.57807
 O572 O 0.59937 0.01789 0.54048
 O573 O 0.51509 0.12260 0.59594
 O574 O 0.56871 0.11133 0.55114
 O575 O 0.42129 0.07193 0.41581
 O576 O 0.39608 -0.00318 0.45427
 O577 O 0.48405 0.03284 0.64301
 O578 O 0.51179 -0.05034 0.63238
 O579 O 0.47792 0.06305 0.36634
 O580 O 0.50549 -0.02035 0.35640
 O581 O 0.48008 -0.11975 0.58059
 O582 O 0.42500 -0.09829 0.54310
 O583 O 0.57190 -0.04389 0.40812
 O584 O 0.59862 0.02337 0.45515
 O585 O 0.47815 -0.10456 0.40349
 O586 O 0.42490 -0.09299 0.44893
 O587 O 0.42336 0.05686 0.59599
 O588 O 0.39622 -0.00851 0.54735
 O589 O 0.45091 0.15434 0.44149
 O590 O 0.45387 0.13836 0.58904
 O591 O 0.54177 -0.13804 0.55801
 O592 O 0.53956 -0.12143 0.40941
 O593 O 0.54685 -0.03563 0.49371
 O594 O 0.50533 0.09422 0.50688
 O595 O 0.48899 -0.07582 0.49285
 O596 O 0.52642 0.03632 0.43457
 O597 O 0.56899 0.11733 0.45717
 O598 O 0.51400 0.13817 0.41907
 O599 O 0.46531 -0.00577 0.43391
 O600 O 0.46769 -0.01963 0.56470
 O601 O 0.44770 0.05347 0.50541
 O602 O 0.52872 0.02305 0.56560
 Zr603 Zr 0.47644 0.07654 0.44223
 Zr604 Zr 0.51797 -0.05909 0.55670
 Zr605 Zr 0.55455 0.04908 0.50063
 Zr606 Zr 0.51556 -0.04594 0.42994
 Zr607 Zr 0.47844 0.06289 0.56971
 Zr608 Zr 0.43950 -0.03105 0.49886
 H609 H 0.48542 -0.11594 0.49082
 H610 H 0.54076 0.04767 0.40506
 H611 H 0.42444 0.07487 0.50723
 H612 H 0.54389 0.02994 0.59535
 H613 H 0.45817 0.17200 0.47288
 H614 H 0.44685 0.15576 0.55739
 H615 H 0.54225 -0.14243 0.44047
 H616 H 0.55365 -0.14275 0.52529
 C617 C 0.75883 0.27541 0.90976
 C618 C 0.74495 0.22869 0.59148
 C619 C 0.64707 0.23459 0.83317
 C620 C 0.69818 0.39524 0.81995
 C621 C 0.64271 0.22134 0.68454
 C622 C 0.79791 0.11779 0.67688
 C623 C 0.84868 0.27040 0.66686
 C624 C 0.80157 0.13293 0.83925
 C625 C 0.69508 0.37908 0.66467
 C626 C 0.85208 0.28599 0.82013
 O627 O 0.66939 0.18760 0.67492
 O628 O 0.64516 0.26421 0.71207
 O629 O 0.72877 0.36670 0.65319
 O630 O 0.67576 0.35675 0.69956
 O631 O 0.82547 0.32015 0.82895
 O632 O 0.84995 0.24376 0.79174
 O633 O 0.75823 0.27491 0.60614
 O634 O 0.73052 0.19234 0.61989
 O635 O 0.76919 0.31451 0.88127
 O636 O 0.74244 0.23133 0.89527
 O637 O 0.76262 0.12437 0.67132
 O638 O 0.81853 0.14596 0.70633
 O639 O 0.67531 0.20653 0.84775
 O640 O 0.64762 0.27129 0.79866
 O641 O 0.76797 0.14514 0.85073
 O642 O 0.82041 0.15387 0.80321
 O643 O 0.82060 0.29913 0.65249
 O644 O 0.84819 0.23496 0.70228
 O645 O 0.79582 0.40145 0.80276
 O646 O 0.79019 0.38039 0.65536
 O647 O 0.70150 0.10685 0.69885
 O648 O 0.70660 0.12801 0.84552
 O649 O 0.69810 0.21104 0.75967
 O650 O 0.73981 0.33988 0.74117
 O651 O 0.75569 0.17005 0.75981
 O652 O 0.71986 0.28488 0.81594
 O653 O 0.67738 0.36566 0.79191
 O654 O 0.73331 0.38774 0.82675
 O655 O 0.78094 0.24206 0.81599
 O656 O 0.77601 0.22389 0.68561
 O657 O 0.79705 0.29826 0.74212
 O658 O 0.71519 0.26743 0.68551
 Zr659 Zr 0.76977 0.32412 0.80516
 Zr660 Zr 0.72568 0.18548 0.69621
 Zr661 Zr 0.69059 0.29547 0.75056
 Zr662 Zr 0.73064 0.20275 0.82283
 Zr663 Zr 0.76551 0.30632 0.67856
 Zr664 Zr 0.80519 0.21375 0.75101
 H665 H 0.75935 0.13001 0.76288
 H666 H 0.70617 0.29779 0.84545
 H667 H 0.82013 0.31987 0.73911
 H668 H 0.69971 0.27414 0.65600
 H669 H 0.78890 0.41756 0.77051
 H670 H 0.79773 0.39927 0.68604
 H671 H 0.70348 0.10628 0.81499
 H672 H 0.68837 0.10495 0.73095
 C673 C 0.00630 0.48330 0.34127
 C674 C -0.00860 0.52772 0.66097
 C675 C -0.10505 0.52577 0.41801
 C676 C -0.05578 0.36396 0.43292
 C677 C -0.10886 0.53838 0.57065
 C678 C 0.04792 0.63929 0.57524
 C679 C 0.09682 0.48498 0.58307
 C680 C 0.05127 0.62622 0.41233
 C681 C -0.05762 0.37660 0.58315
 C682 C 0.09959 0.47059 0.43064
 O683 O -0.08200 0.57224 0.57908
 O684 O -0.10688 0.49621 0.54206
 O685 O -0.02408 0.38919 0.59544
 O686 O -0.07713 0.40147 0.55005
 O687 O 0.07266 0.43702 0.42186
 O688 O 0.09773 0.51295 0.45886
 O689 O 0.00499 0.48167 0.64603
 O690 O -0.02169 0.56484 0.63227
 O691 O 0.01601 0.44393 0.36976
 O692 O -0.00936 0.52809 0.35595
 O693 O 0.01259 0.63270 0.58180
 O694 O 0.06795 0.61130 0.54474
 O695 O -0.07664 0.55420 0.40404
 O696 O -0.10482 0.48955 0.45297
 O697 O 0.01754 0.61420 0.40083
 O698 O 0.06968 0.60442 0.44831
 O699 O 0.06850 0.45674 0.59777
 O700 O 0.09633 0.52101 0.54812
 O701 O 0.04197 0.35653 0.44744
 O702 O 0.03720 0.37732 0.59655
 O703 O -0.04878 0.65282 0.55416
 O704 O -0.04417 0.63258 0.40656
 O705 O -0.05368 0.54924 0.49244
 O706 O -0.01322 0.41952 0.51003
 O707 O 0.00428 0.58865 0.49204
 O708 O -0.03271 0.47504 0.43559
 O709 O -0.07633 0.39483 0.46034
 O710 O -0.02058 0.37113 0.42541
 O711 O 0.02890 0.51645 0.43513
 O712 O 0.02429 0.53384 0.56605
 O713 O 0.04432 0.45950 0.50878
 O714 O -0.03710 0.49138 0.56633
 Zr715 Zr 0.01675 0.43450 0.44581
 Zr716 Zr -0.02572 0.57340 0.55612
 Zr717 Zr -0.06215 0.46490 0.50123
 Zr718 Zr -0.02100 0.55711 0.42871
 Zr719 Zr 0.01289 0.45144 0.57287
 Zr720 Zr 0.05343 0.54397 0.50013
 H721 H 0.00841 0.62861 0.48922
 H722 H -0.04648 0.46213 0.40628
 H723 H 0.06714 0.43723 0.51135
 H724 H -0.05260 0.48387 0.59579
 H725 H 0.03654 0.34158 0.48067
 H726 H 0.04467 0.35801 0.56597
 H727 H -0.04771 0.65373 0.43737
 H728 H -0.06232 0.65507 0.52249
 C729 C 0.25297 0.74321 0.90938
 C730 C 0.24525 0.76900 0.58889
 C731 C 0.14501 0.72609 0.82596
 C732 C 0.19468 0.88733 0.82950
 C733 C 0.14416 0.72854 0.67409
 C734 C 0.30082 0.62861 0.66621
 C735 C 0.34931 0.78460 0.67073
 C736 C 0.30187 0.62456 0.82597
 C737 C 0.19363 0.89175 0.67677
 C738 C 0.35058 0.78121 0.82690
 O739 O 0.17208 0.69858 0.66093
 O740 O 0.14548 0.76735 0.70665
 O741 O 0.22859 0.88401 0.66779
 O742 O 0.17398 0.86300 0.70720
 O743 O 0.32279 0.81153 0.84015
 O744 O 0.34922 0.74344 0.79345
 O745 O 0.25959 0.80851 0.61342
 O746 O 0.23370 0.72344 0.60752
 O747 O 0.26323 0.78939 0.89085
 O748 O 0.23774 0.70406 0.88527
 O749 O 0.26685 0.64003 0.65520
 O750 O 0.32018 0.65313 0.69962
 O751 O 0.17252 0.69375 0.83574
 O752 O 0.14607 0.76658 0.79540
 O753 O 0.26688 0.63195 0.83458
 O754 O 0.32120 0.65207 0.79426
 O755 O 0.32183 0.81704 0.66093
 O756 O 0.34844 0.74503 0.70226
 O757 O 0.29073 0.89201 0.83200
 O758 O 0.29261 0.89904 0.68249
 O759 O 0.20597 0.62040 0.66685
 O760 O 0.20460 0.61274 0.81616
 O761 O 0.19798 0.71074 0.74712
 O762 O 0.23847 0.84207 0.75340
 O763 O 0.25616 0.67198 0.74560
 O764 O 0.21685 0.77399 0.81629
 O765 O 0.17485 0.86086 0.79793
 O766 O 0.22896 0.87661 0.84001
 O767 O 0.27823 0.73240 0.81417
 O768 O 0.27869 0.73927 0.68221
 O769 O 0.29640 0.80222 0.75149
 O770 O 0.21691 0.78056 0.68523
 Zr771 Zr 0.26669 0.81522 0.81641
 Zr772 Zr 0.22857 0.69820 0.68226
 Zr773 Zr 0.18951 0.79559 0.75123
 Zr774 Zr 0.22823 0.69151 0.81030
 Zr775 Zr 0.26670 0.82185 0.68860
 Zr776 Zr 0.30542 0.71739 0.74778
 H777 H 0.26020 0.63191 0.74463
 H778 H 0.20244 0.78265 0.84646
 H779 H 0.31938 0.82431 0.75157
 H780 H 0.20130 0.79166 0.65699
 H781 H 0.29693 0.90812 0.79946
 H782 H 0.28789 0.91764 0.71434
 H783 H 0.19166 0.60651 0.78450
 H784 H 0.20267 0.60245 0.69935
 C785 C 0.48883 0.51706 0.33956
 C786 C 0.49571 0.48280 0.65932
 C787 C 0.59952 0.47958 0.42211
 C788 C 0.54956 0.63960 0.42692
 C789 C 0.60070 0.46949 0.56915
 C790 C 0.44422 0.36688 0.57213
 C791 C 0.39504 0.52400 0.58009
 C792 C 0.44361 0.37734 0.41458
 C793 C 0.54941 0.62908 0.58458
 C794 C 0.39475 0.53404 0.42554
 O795 O 0.57355 0.43662 0.57920
 O796 O 0.59885 0.51192 0.54100
 O797 O 0.51536 0.61777 0.59504
 O798 O 0.56903 0.60544 0.55069
 O799 O 0.42170 0.56757 0.41697
 O800 O 0.39593 0.49247 0.45484
 O801 O 0.48389 0.52907 0.64273
 O802 O 0.51015 0.44475 0.63290
 O803 O 0.47825 0.55757 0.36620
 O804 O 0.50511 0.47372 0.35604
 O805 O 0.47926 0.37407 0.58017
 O806 O 0.42437 0.39590 0.54245
 O807 O 0.57160 0.45051 0.40773
 O808 O 0.59826 0.51752 0.45520
 O809 O 0.47747 0.38910 0.40321
 O810 O 0.42431 0.40097 0.44871
 O811 O 0.42305 0.55288 0.59416
 O812 O 0.39584 0.48735 0.54569
 O813 O 0.45188 0.64883 0.44034
 O814 O 0.45406 0.63337 0.58848
 O815 O 0.54136 0.35648 0.55972
 O816 O 0.53925 0.37224 0.40955
 O817 O 0.54633 0.45820 0.49389
 O818 O 0.50559 0.58878 0.50658
 O819 O 0.48869 0.41833 0.49283
 O820 O 0.52656 0.53006 0.43441
 O821 O 0.56939 0.61109 0.45715
 O822 O 0.51455 0.63232 0.41903
 O823 O 0.46518 0.48847 0.43342
 O824 O 0.46714 0.47511 0.56470
 O825 O 0.44814 0.54787 0.50490
 O826 O 0.52845 0.51736 0.56563
 Zr827 Zr 0.47694 0.57074 0.44196
 Zr828 Zr 0.51730 0.43521 0.55713
 Zr829 Zr 0.55442 0.54297 0.50064
 Zr830 Zr 0.51524 0.44784 0.42969
 Zr831 Zr 0.47848 0.55775 0.56927
 Zr832 Zr 0.43934 0.46327 0.49846
 H833 H 0.48501 0.37825 0.49074
 H834 H 0.54087 0.54155 0.40492
 H835 H 0.42519 0.56999 0.50654
 H836 H 0.54347 0.52454 0.59546
 H837 H 0.45821 0.66614 0.47225
 H838 H 0.44772 0.65121 0.55677
 H839 H 0.54234 0.35173 0.44083
 H840 H 0.55219 0.35054 0.52653
 C841 C 0.75158 0.78327 0.90865
 C842 C 0.74675 0.72794 0.59045
 C843 C 0.64564 0.73910 0.82845
 C844 C 0.69634 0.89710 0.81698
 C845 C 0.64312 0.72118 0.68128
 C846 C 0.79843 0.61873 0.67868
 C847 C 0.84901 0.76984 0.66725
 C848 C 0.80075 0.63675 0.84155
 C849 C 0.69601 0.88006 0.66016
 C850 C 0.85113 0.78940 0.82043
 O851 O 0.67000 0.68738 0.67288
 O852 O 0.64535 0.76495 0.70775
 O853 O 0.72975 0.86712 0.64940
 O854 O 0.67632 0.85834 0.69497
 O855 O 0.82426 0.82333 0.82892
 O856 O 0.84919 0.74683 0.79247
 O857 O 0.75956 0.77454 0.60484
 O858 O 0.73221 0.69177 0.61899
 O859 O 0.76496 0.82002 0.87979
 O860 O 0.73749 0.73741 0.89427
 O861 O 0.76322 0.62494 0.67241
 O862 O 0.81868 0.64730 0.70829
 O863 O 0.67341 0.71019 0.84350
 O864 O 0.64668 0.77543 0.79385
 O865 O 0.76706 0.64961 0.85235
 O866 O 0.81976 0.65671 0.80520
 O867 O 0.82119 0.79843 0.65183
 O868 O 0.84820 0.73554 0.70352
 O869 O 0.79509 0.90415 0.80053
 O870 O 0.79145 0.88060 0.65373
 O871 O 0.70188 0.60779 0.69864
 O872 O 0.70585 0.63121 0.84551
 O873 O 0.69776 0.71322 0.75773
 O874 O 0.73965 0.84194 0.73846
 O875 O 0.75527 0.67201 0.75998
 O876 O 0.71881 0.78764 0.81274
 O877 O 0.67613 0.86761 0.78806
 O878 O 0.73160 0.89053 0.82382
 O879 O 0.77992 0.74518 0.81620
 O880 O 0.77644 0.72480 0.68569
 O881 O 0.79674 0.79999 0.74139
 O882 O 0.71564 0.76817 0.68286
 Zr883 Zr 0.76878 0.82704 0.80352
 Zr884 Zr 0.72605 0.68640 0.69536
 Zr885 Zr 0.69032 0.79753 0.74677
 Zr886 Zr 0.72951 0.70585 0.82186
 Zr887 Zr 0.76602 0.80708 0.67694
 Zr888 Zr 0.80478 0.71569 0.75191
 H889 H 0.75900 0.63207 0.76394
 H890 H 0.70426 0.80086 0.84133
 H891 H 0.81990 0.82144 0.73846
 H892 H 0.70048 0.77432 0.65295
 H893 H 0.78780 0.92033 0.76846
 H894 H 0.79826 0.90000 0.68445
 H895 H 0.70295 0.60890 0.81529
 H896 H 0.68898 0.60609 0.73092
 C897 C 0.01884 -0.02123 0.21070
 C898 C 0.04655 -0.05672 0.22502
 C899 C 0.04509 -0.05793 0.27471
 C900 C 0.01657 -0.02309 0.28773
 O901 O 0.00051 0.00010 0.24881
 H902 H 0.06530 -0.07984 0.20170
 H903 H 0.06257 -0.08205 0.29885
 C904 C 0.25987 0.29562 1.04067
 C905 C 0.27554 0.34474 1.02570
 C906 C 0.27524 0.34398 0.97616
 C907 C 0.25942 0.29464 0.96311
 O908 O 0.24992 0.26454 1.00237
 H909 H 0.28612 0.37775 1.04835
 H910 H 0.28546 0.37614 0.95214
 C911 C 0.07192 0.17421 0.11242
 C912 C 0.05240 0.20999 0.14214
 C913 C 0.07851 0.24074 0.16517
 C914 C 0.11193 0.22082 0.14808
 O915 O 0.10806 0.18063 0.11590
 H916 H 0.02278 0.21164 0.14796
 H917 H 0.07386 0.27151 0.19327
 C918 C 0.38805 0.30455 0.15639
 C919 C 0.42073 0.27919 0.16966
 C920 C 0.44754 0.30548 0.14349
 C921 C 0.42905 0.34417 0.11579
 O922 O 0.39294 0.34392 0.12358
 H923 H 0.42463 0.24688 0.19658
 H924 H 0.47710 0.29845 0.14530
 C925 C 0.32187 0.09382 0.12886
 C926 C 0.30291 0.05553 0.10135
 C927 C 0.32955 0.02621 0.07749
 C928 C 0.36260 0.04945 0.09195
 O929 O 0.35808 0.09032 0.12327
 H930 H 0.27322 0.05062 0.09821
 H931 H 0.32536 -0.00635 0.05099
 C932 C 0.17627 0.43564 0.15248
 C933 C 0.19272 0.48069 0.13114
 C934 C 0.16712 0.50100 0.09905
 C935 C 0.13703 0.46629 0.10273
 O936 O 0.14242 0.42675 0.13539
 H937 H 0.22039 0.49580 0.13742
 H938 H 0.17028 0.53626 0.07513
 C939 C 0.32095 0.07713 0.34752
 C940 C 0.30441 0.03157 0.36781
 C941 C 0.33019 0.00967 0.39871
 C942 C 0.36047 0.04400 0.39522
 O943 O 0.35504 0.08480 0.36393
 H944 H 0.27666 0.01698 0.36136
 H945 H 0.32707 -0.02636 0.42169
 C946 C 0.17643 0.41873 0.36745
 C947 C 0.19494 0.45807 0.39426
 C948 C 0.16813 0.48465 0.42031
 C949 C 0.13547 0.45885 0.40781
 O950 O 0.14037 0.41898 0.37559
 H951 H 0.22449 0.46540 0.39552
 H952 H 0.17205 0.51743 0.44667
 C953 C 0.10854 0.20243 0.33744
 C954 C 0.07563 0.22683 0.32387
 C955 C 0.04919 0.20089 0.35101
 C956 C 0.06810 0.16339 0.37960
 O957 O 0.10416 0.16401 0.37138
 H958 H 0.07138 0.25844 0.29639
 H959 H 0.01958 0.20743 0.34930
 C960 C 0.38557 0.28552 0.35268
 C961 C 0.41884 0.26590 0.33471
 C962 C 0.44524 0.29724 0.35656
 C963 C 0.42615 0.33308 0.38662
 O964 O 0.38992 0.32617 0.38435
 H965 H 0.42316 0.23521 0.30644
 H966 H 0.47472 0.29611 0.34956
 C967 C 0.47943 0.02291 0.21079
 C968 C 0.44870 0.05373 0.22313
 C969 C 0.44840 0.05590 0.27282
 C970 C 0.47892 0.02621 0.28757
 O971 O 0.49795 0.00530 0.24999
 H972 H 0.42931 0.07360 0.19845
 H973 H 0.42858 0.07744 0.29581
 C974 C 0.76950 0.28244 1.03876
 C975 C 0.79604 0.32010 1.02474
 C976 C 0.79543 0.32068 0.97508
 C977 C 0.76857 0.28332 0.96184
 O978 O 0.75271 0.25925 1.00053
 H979 H 0.81339 0.34512 1.04823
 H980 H 0.81229 0.34612 0.95113
 C981 C 0.57278 0.18397 0.09921
 C982 C 0.55447 0.22551 0.12364
 C983 C 0.58089 0.25148 0.15090
 C984 C 0.61345 0.22362 0.14146
 O985 O 0.60861 0.18271 0.10994
 H986 H 0.52512 0.23439 0.12295
 H987 H 0.57668 0.28533 0.17608
 C988 C -0.11156 0.29141 0.14935
 C989 C -0.08049 0.25907 0.15544
 C990 C -0.05437 0.28046 0.12438
 C991 C -0.07146 0.32376 0.10105
 O992 O -0.10619 0.33057 0.11614
 H993 H -0.07702 0.22483 0.18045
 H994 H -0.02596 0.26726 0.12012
 C995 C 0.86331 0.04201 0.10019
 C996 C 0.83015 0.02026 0.08429
 C997 C 0.80351 0.05007 0.10765
 C998 C 0.82245 0.08726 0.13638
 O999 O 0.85875 0.08254 0.13197
 H1000 H 0.82592 -0.01147 0.05700
 H1001 H 0.77385 0.04649 0.10305
 C1002 C 0.68002 0.43684 0.14888
 C1003 C 0.69830 0.47767 0.12339
 C1004 C 0.67190 0.50287 0.09525
 C1005 C 0.63929 0.47535 0.10514
 O1006 O 0.64416 0.43532 0.13783
 H1007 H 0.72763 0.48667 0.12410
 H1008 H 0.67616 0.53614 0.06939
 C1009 C -0.18358 0.07987 0.35462
 C1010 C -0.20249 0.04485 0.38602
 C1011 C -0.17595 0.01727 0.41178
 C1012 C -0.14253 0.03754 0.39494
 O1013 O -0.14703 0.07527 0.35990
 H1014 H -0.23216 0.04133 0.39090
 H1015 H -0.18047 -0.01211 0.44117
 C1016 C 0.67726 0.42370 0.36324
 C1017 C 0.69578 0.46003 0.39328
 C1018 C 0.66881 0.48858 0.41729
 C1019 C 0.63585 0.46689 0.40059
 O1020 O 0.64087 0.42761 0.36766
 H1021 H 0.72535 0.46346 0.39860
 H1022 H 0.67271 0.51932 0.44558
 C1023 C 0.60856 0.21541 0.34604
 C1024 C 0.57725 0.24661 0.33780
 C1025 C 0.55104 0.22622 0.36916
 C1026 C 0.56837 0.18477 0.39473
 O1027 O 0.60330 0.17797 0.38076
 H1028 H 0.57374 0.27947 0.31134
 H1029 H 0.52242 0.23871 0.37215
 C1030 C -0.11527 0.28040 0.36306
 C1031 C -0.08295 0.25157 0.35456
 C1032 C -0.05642 0.27745 0.38181
 C1033 C -0.07446 0.31997 0.40518
 O1034 O -0.11019 0.32181 0.39393
 H1035 H -0.07890 0.21726 0.32985
 H1036 H -0.02717 0.26792 0.38305
 C1037 C 0.01687 0.47298 0.21192
 C1038 C 0.04293 0.43499 0.22650
 C1039 C 0.04241 0.43591 0.27619
 C1040 C 0.01601 0.47434 0.28901
 O1041 O 0.00042 0.49775 0.24987
 H1042 H 0.06014 0.40913 0.20340
 H1043 H 0.05909 0.41074 0.30049
 C1044 C 0.26297 0.73145 1.03733
 C1045 C 0.27485 0.67988 1.02398
 C1046 C 0.27389 0.67932 0.97418
 C1047 C 0.26152 0.73058 0.96072
 O1048 O 0.25499 0.76299 0.99897
 H1049 H 0.28193 0.64602 1.04804
 H1050 H 0.28025 0.64503 0.95029
 C1051 C 0.07152 0.66725 0.11662
 C1052 C 0.05210 0.70516 0.14420
 C1053 C 0.07833 0.73425 0.16866
 C1054 C 0.11157 0.71116 0.15446
 O1055 O 0.10760 0.67067 0.12273
 H1056 H 0.02236 0.70981 0.14713
 H1057 H 0.07374 0.76662 0.19528
 C1058 C 0.42724 0.83207 0.09859
 C1059 C 0.41601 0.78887 0.06926
 C1060 C 0.39071 0.76037 0.09626
 C1061 C 0.38654 0.78928 0.13947
 O1062 O 0.40825 0.83348 0.14082
 H1063 H 0.42395 0.78089 0.03131
 H1064 H 0.37411 0.72624 0.08364
 C1065 C 0.32234 0.58486 0.14199
 C1066 C 0.30428 0.54472 0.11565
 C1067 C 0.33090 0.52037 0.08766
 C1068 C 0.36312 0.54819 0.09850
 O1069 O 0.35809 0.58726 0.13156
 H1070 H 0.27498 0.53598 0.11530
 H1071 H 0.32703 0.48789 0.06099
 C1072 C 0.13929 0.96595 0.09423
 C1073 C 0.17144 0.99483 0.08484
 C1074 C 0.19780 0.97020 0.11305
 C1075 C 0.17948 0.92889 0.13782
 O1076 O 0.14403 0.92616 0.12653
 H1077 H 0.17541 1.02840 0.05921
 H1078 H 0.22703 0.97984 0.11431
 C1079 C 0.32025 0.58723 0.36015
 C1080 C 0.30106 0.54590 0.38379
 C1081 C 0.32703 0.51819 0.41022
 C1082 C 0.35981 0.54537 0.40090
 O1083 O 0.35586 0.58702 0.37033
 H1084 H 0.27156 0.53810 0.38289
 H1085 H 0.32241 0.48389 0.43485
 C1086 C 0.17579 -0.06952 0.35460
 C1087 C 0.19319 -0.03023 0.38265
 C1088 C 0.16634 -0.00881 0.41220
 C1089 C 0.13452 -0.03735 0.40075
 O1090 O 0.14010 -0.07423 0.36568
 H1091 H 0.22228 -0.02034 0.38323
 H1092 H 0.16984 0.02235 0.44021
 C1093 C 0.11014 0.71254 0.34335
 C1094 C 0.07685 0.73339 0.32701
 C1095 C 0.05039 0.70433 0.35160
 C1096 C 0.06943 0.66834 0.38163
 O1097 O 0.10578 0.67310 0.37662
 H1098 H 0.07242 0.76434 0.29897
 H1099 H 0.02071 0.70778 0.34713
 C1100 C 0.38664 -0.20232 0.34845
 C1101 C 0.41971 -0.22645 0.33483
 C1102 C 0.44614 -0.19781 0.35928
 C1103 C 0.42696 -0.15922 0.38627
 O1104 O 0.39089 -0.16174 0.37985
 H1105 H 0.42412 -0.25881 0.30815
 H1106 H 0.47582 -0.20276 0.35633
 C1107 C 0.48032 0.52379 0.21058
 C1108 C 0.44864 0.55188 0.22374
 C1109 C 0.44764 0.55048 0.27345
 C1110 C 0.47877 0.52165 0.28737
 O1111 O 0.49882 0.50455 0.24919
 H1112 H 0.42894 0.57201 0.19966
 H1113 H 0.42706 0.56948 0.29709
 C1114 C 0.75204 0.79824 1.03799
 C1115 C 0.75638 0.85237 1.02439
 C1116 C 0.75598 0.85266 0.97476
 C1117 C 0.75141 0.79871 0.96103
 O1118 O 0.74860 0.76501 0.99946
 H1119 H 0.75977 0.88769 1.04811
 H1120 H 0.75901 0.88821 0.95112
 C1121 C 0.57119 0.68995 0.09924
 C1122 C 0.55286 0.73097 0.12444
 C1123 C 0.57925 0.75575 0.15267
 C1124 C 0.61167 0.72771 0.14291
 O1125 O 0.60688 0.68794 0.11035
 H1126 H 0.52353 0.74025 0.12374
 H1127 H 0.57509 0.78889 0.17861
 C1128 C 0.92870 0.82880 0.10189
 C1129 C 0.94557 0.78631 0.12664
 C1130 C 0.91881 0.76484 0.15663
 C1131 C 0.88752 0.79628 0.14866
 O1132 O 0.89344 0.83509 0.11522
 H1133 H 0.97422 0.77359 0.12401
 H1134 H 0.92199 0.73110 0.18225
 C1135 C 0.86155 0.54225 0.09865
 C1136 C 0.82828 0.52276 0.08088
 C1137 C 0.80183 0.55460 0.10244
 C1138 C 0.82088 0.59070 0.13215
 O1139 O 0.85715 0.58338 0.12994
 H1140 H 0.82398 0.49110 0.05356
 H1141 H 0.77226 0.55283 0.09624
 C1142 C 0.63499 0.97117 0.10549
 C1143 C 0.66729 0.99976 0.09519
 C1144 C 0.69389 0.97713 0.12450
 C1145 C 0.67620 0.93674 0.15115
 O1146 O 0.64039 0.93302 0.13984
 H1147 H 0.67133 1.03216 0.06836
 H1148 H 0.72303 0.98734 0.12506
 C1149 C -0.18121 0.57563 0.35000
 C1150 C -0.19964 0.53515 0.37571
 C1151 C -0.17326 0.50939 0.40324
 C1152 C -0.14056 0.53634 0.39267
 O1153 O -0.14529 0.57651 0.36023
 H1154 H -0.22906 0.52696 0.37567
 H1155 H -0.17757 0.47633 0.42930
 C1156 C 0.67736 -0.07502 0.36532
 C1157 C 0.69624 -0.03792 0.39419
 C1158 C 0.66955 -0.00788 0.41745
 C1159 C 0.63632 -0.02934 0.40143
 O1160 O 0.64099 -0.06998 0.36966
 H1161 H 0.72590 -0.03450 0.39885
 H1162 H 0.67378 0.02398 0.44461
 C1163 C 0.60873 0.71272 0.34768
 C1164 C 0.57715 0.74351 0.34010
 C1165 C 0.55107 0.72165 0.37082
 C1166 C 0.56873 0.67978 0.39548
 O1167 O 0.60376 0.67410 0.38146
 H1168 H 0.57337 0.77704 0.31441
 H1169 H 0.52231 0.73349 0.37391
 C1170 C -0.11544 -0.22067 0.36039
 C1171 C -0.08314 -0.24912 0.35078
 C1172 C -0.05647 -0.22383 0.37821
 C1173 C -0.07446 -0.18207 0.40275
 O1174 O -0.11024 -0.18013 0.39206
 H1175 H -0.07920 -0.28267 0.32520
 H1176 H -0.02717 -0.23310 0.37875
 C1177 C -0.00712 0.04298 0.78973
 C1178 C -0.01907 0.09429 0.77465
 C1179 C -0.02002 0.09263 0.72526
 C1180 C -0.00888 0.04048 0.71235
 O1181 O -0.00046 0.00973 0.75157
 H1182 H -0.02646 0.12934 0.79715
 H1183 H -0.02834 0.12593 0.70125
 C1184 C 0.24668 0.21025 0.46098
 C1185 C 0.24278 0.15624 0.47501
 C1186 C 0.24245 0.15655 0.52479
 C1187 C 0.24615 0.21076 0.53828
 O1188 O 0.24907 0.24400 0.49944
 H1189 H 0.24003 0.12065 0.45147
 H1190 H 0.23941 0.12121 0.54868
 C1191 C 0.06650 0.17261 0.61016
 C1192 C 0.04815 0.21044 0.63901
 C1193 C 0.07444 0.23244 0.66906
 C1194 C 0.10700 0.20581 0.65712
 O1195 O 0.10230 0.16939 0.62125
 H1196 H 0.01884 0.21953 0.63909
 H1197 H 0.07021 0.26327 0.69722
 C1198 C 0.38362 0.28279 0.64007
 C1199 C 0.41611 0.25561 0.65119
 C1200 C 0.44312 0.28235 0.62543
 C1201 C 0.42520 0.32358 0.60027
 O1202 O 0.38906 0.32400 0.60901
 H1203 H 0.41987 0.22195 0.67676
 H1204 H 0.47253 0.27435 0.62617
 C1205 C 0.31940 0.07502 0.65182
 C1206 C 0.30156 0.03283 0.62806
 C1207 C 0.32807 0.00727 0.60042
 C1208 C 0.36026 0.03608 0.60912
 O1209 O 0.35510 0.07712 0.64046
 H1210 H 0.27242 0.02337 0.62954
 H1211 H 0.32413 -0.02687 0.57553
 C1212 C 0.17439 0.42437 0.63837
 C1213 C 0.19305 0.46337 0.61111
 C1214 C 0.16616 0.49418 0.58934
 C1215 C 0.13303 0.47144 0.60471
 O1216 O 0.13797 0.42916 0.63465
 H1217 H 0.22270 0.46758 0.60646
 H1218 H 0.17021 0.52726 0.56322
 C1219 C 0.36397 0.04304 0.89829
 C1220 C 0.33093 0.02078 0.91451
 C1221 C 0.30396 0.05217 0.89371
 C1222 C 0.32251 0.09099 0.86611
 O1223 O 0.35894 0.08559 0.86870
 H1224 H 0.32702 -0.01260 0.94036
 H1225 H 0.27433 0.04804 0.89880
 C1226 C 0.13509 0.47916 0.88601
 C1227 C 0.16714 0.50873 0.89357
 C1228 C 0.19362 0.48321 0.86574
 C1229 C 0.17588 0.44015 0.84307
 O1230 O 0.14030 0.43765 0.85521
 H1231 H 0.17106 0.54333 0.91795
 H1232 H 0.22270 0.49324 0.86360
 C1233 C 0.06872 0.18109 0.89620
 C1234 C 0.05024 0.21635 0.86475
 C1235 C 0.07718 0.24309 0.83901
 C1236 C 0.11024 0.22192 0.85602
 O1237 O 0.10526 0.18463 0.89111
 H1238 H 0.02065 0.22022 0.85958
 H1239 H 0.07313 0.27228 0.80938
 C1240 C 0.42889 0.33706 0.89009
 C1241 C 0.44634 0.29623 0.86371
 C1242 C 0.41941 0.27328 0.83526
 C1243 C 0.38740 0.30215 0.84574
 O1244 O 0.39306 0.34093 0.87920
 H1245 H 0.47541 0.28538 0.86439
 H1246 H 0.42287 0.24020 0.80906
 C1247 C 0.49553 -0.03023 0.78753
 C1248 C 0.48976 -0.08388 0.77378
 C1249 C 0.48759 -0.08294 0.72414
 C1250 C 0.49224 -0.02879 0.71096
 O1251 O 0.49673 0.00398 0.74947
 H1252 H 0.48810 -0.11966 0.79735
 H1253 H 0.48421 -0.11791 0.70000
 C1254 C 0.74750 0.21349 0.46220
 C1255 C 0.74511 0.15907 0.47572
 C1256 C 0.74470 0.15878 0.52543
 C1257 C 0.74689 0.21303 0.53921
 O1258 O 0.74897 0.24691 0.50082
 H1259 H 0.74322 0.12361 0.45188
 H1260 H 0.74253 0.12309 0.54907
 C1261 C 0.56684 0.17429 0.61747
 C1262 C 0.54778 0.20981 0.64792
 C1263 C 0.57406 0.23412 0.67627
 C1264 C 0.60699 0.21053 0.66158
 O1265 O 0.60280 0.17435 0.62586
 H1266 H 0.51815 0.21519 0.65073
 H1267 H 0.56963 0.26351 0.70560
 C1268 C -0.11548 0.28316 0.64409
 C1269 C -0.08213 0.26112 0.65911
 C1270 C -0.05569 0.29247 0.63682
 C1271 C -0.07490 0.33084 0.60962
 O1272 O -0.11115 0.32528 0.61387
 H1273 H -0.07765 0.22860 0.68565
 H1274 H -0.02603 0.28952 0.64153
 C1275 C 0.85542 0.04401 0.59630
 C1276 C 0.82341 0.01437 0.58858
 C1277 C 0.79777 0.03673 0.61966
 C1278 C 0.81614 0.07769 0.64453
 O1279 O 0.85114 0.08234 0.63038
 H1280 H 0.81911 -0.01872 0.56266
 H1281 H 0.76887 0.02574 0.62301
 C1282 C 0.67714 0.41988 0.63360
 C1283 C 0.69598 0.45632 0.60377
 C1284 C 0.66939 0.48176 0.57669
 C1285 C 0.63653 0.45795 0.59154
 O1286 O 0.64106 0.42052 0.62616
 H1287 H 0.72561 0.46186 0.60073
 H1288 H 0.67355 0.51215 0.54806
 C1289 C 0.85994 0.05392 0.91202
 C1290 C 0.82714 0.02993 0.92682
 C1291 C 0.80054 0.05572 0.90006
 C1292 C 0.81942 0.09254 0.87059
 O1293 O 0.85543 0.09173 0.87782
 H1294 H 0.82307 -0.00106 0.95494
 H1295 H 0.77091 0.04973 0.90274
 C1296 C 0.64036 0.47037 0.89850
 C1297 C 0.67194 0.50146 0.90490
 C1298 C 0.69772 0.47912 0.87394
 C1299 C 0.67978 0.43669 0.85053
 O1300 O 0.64500 0.43126 0.86535
 H1301 H 0.67593 0.53539 0.93001
 H1302 H 0.72644 0.49100 0.86998
 C1303 C 0.57109 0.17324 0.89166
 C1304 C 0.55173 0.20738 0.85994
 C1305 C 0.57778 0.23852 0.83691
 C1306 C 0.61119 0.22083 0.85559
 O1307 O 0.60728 0.18176 0.88934
 H1308 H 0.52220 0.20808 0.85299
 H1309 H 0.57316 0.26780 0.80750
 C1310 C 0.92835 0.33684 0.88429
 C1311 C 0.94711 0.29802 0.85700
 C1312 C 0.92056 0.27154 0.83062
 C1313 C 0.88777 0.29702 0.84335
 O1314 O 0.89236 0.33648 0.87605
 H1315 H 0.97670 0.29140 0.85531
 H1316 H 0.92476 0.23936 0.80370
 C1317 C -0.00909 0.54282 0.79149
 C1318 C -0.02205 0.59392 0.77719
 C1319 C -0.02265 0.59346 0.72773
 C1320 C -0.01023 0.54226 0.71398
 O1321 O -0.00155 0.51087 0.75273
 H1322 H -0.03034 0.62807 0.80026
 H1323 H -0.03149 0.62692 0.70423
 C1324 C 0.23923 0.78239 0.46067
 C1325 C 0.22696 0.83374 0.47402
 C1326 C 0.22619 0.83337 0.52377
 C1327 C 0.23807 0.78182 0.53723
 O1328 O 0.24583 0.75002 0.49896
 H1329 H 0.22036 0.86790 0.45005
 H1330 H 0.21900 0.86725 0.54774
 C1331 C 0.06687 0.67982 0.60702
 C1332 C 0.04850 0.71735 0.63614
 C1333 C 0.07515 0.74202 0.66393
 C1334 C 0.10801 0.71725 0.65036
 O1335 O 0.10308 0.67943 0.61574
 H1336 H 0.01897 0.72412 0.63820
 H1337 H 0.07096 0.77289 0.69206
 C1338 C 0.42599 0.83155 0.60266
 C1339 C 0.44373 0.78992 0.62749
 C1340 C 0.41687 0.76513 0.65495
 C1341 C 0.38478 0.79401 0.64520
 O1342 O 0.39021 0.83428 0.61332
 H1343 H 0.47295 0.78021 0.62677
 H1344 H 0.42051 0.73142 0.68049
 C1345 C 0.31846 0.58396 0.63839
 C1346 C 0.29932 0.54504 0.61182
 C1347 C 0.32579 0.51454 0.58862
 C1348 C 0.35910 0.53740 0.60258
 O1349 O 0.35473 0.57939 0.63295
 H1350 H 0.26960 0.54066 0.60857
 H1351 H 0.32131 0.48152 0.56268
 C1352 C 0.13244 0.97353 0.60717
 C1353 C 0.16519 0.99707 0.59151
 C1354 C 0.19233 0.97097 0.61721
 C1355 C 0.17437 0.93405 0.64744
 O1356 O 0.13791 0.93519 0.64119
 H1357 H 0.16900 1.02707 0.56246
 H1358 H 0.22179 0.97556 0.61209
 C1359 C 0.36309 0.54161 0.89498
 C1360 C 0.33030 0.51796 0.91034
 C1361 C 0.30315 0.54489 0.88530
 C1362 C 0.32116 0.58258 0.85583
 O1363 O 0.35765 0.58092 0.86181
 H1364 H 0.32652 0.48687 0.93846
 H1365 H 0.27364 0.53963 0.88984
 C1366 C 0.13506 0.97604 0.89433
 C1367 C 0.16825 1.00033 0.90758
 C1368 C 0.19509 0.97135 0.88352
 C1369 C 0.17647 0.93191 0.85697
 O1370 O 0.14006 0.93493 0.86304
 H1371 H 0.17256 1.03342 0.93353
 H1372 H 0.22474 0.97699 0.88630
 C1373 C 0.06982 0.68144 0.89781
 C1374 C 0.05183 0.72341 0.87373
 C1375 C 0.07800 0.74691 0.84424
 C1376 C 0.10990 0.71694 0.85219
 O1377 O 0.10507 0.67732 0.88485
 H1378 H 0.02285 0.73421 0.87634
 H1379 H 0.07408 0.78077 0.81894
 C1380 C 0.42935 0.83093 0.89021
 C1381 C 0.44703 0.79275 0.86109
 C1382 C 0.41967 0.76727 0.83519
 C1383 C 0.38708 0.79215 0.84987
 O1384 O 0.39289 0.83090 0.88334
 H1385 H 0.47649 0.78610 0.85777
 H1386 H 0.42321 0.73595 0.80731
 C1387 C 0.49358 0.47138 0.78825
 C1388 C 0.48788 0.41716 0.77626
 C1389 C 0.48650 0.41576 0.72656
 C1390 C 0.49145 0.46923 0.71159
 O1391 O 0.49544 0.50376 0.74899
 H1392 H 0.48597 0.38245 0.80106
 H1393 H 0.48332 0.37976 0.70364
 C1394 C 0.74969 0.71231 0.46128
 C1395 C 0.74885 0.65782 0.47483
 C1396 C 0.74861 0.65760 0.52462
 C1397 C 0.74934 0.71195 0.53831
 O1398 O 0.75037 0.74582 0.49986
 H1399 H 0.74784 0.62229 0.45096
 H1400 H 0.74743 0.62191 0.54838
 C1401 C 0.56726 0.67028 0.61567
 C1402 C 0.54819 0.70805 0.64383
 C1403 C 0.57443 0.73385 0.67128
 C1404 C 0.60740 0.70906 0.65836
 O1405 O 0.60321 0.67058 0.62454
 H1406 H 0.51858 0.71447 0.64538
 H1407 H 0.56994 0.76534 0.69876
 C1408 C 0.92550 0.82804 0.60904
 C1409 C 0.94464 0.79165 0.63842
 C1410 C 0.91820 0.76090 0.66130
 C1411 C 0.88492 0.78148 0.64447
 O1412 O 0.88929 0.82200 0.61260
 H1413 H 0.97418 0.79018 0.64457
 H1414 H 0.92256 0.73023 0.68961
 C1415 C 0.85614 0.54691 0.59740
 C1416 C 0.82445 0.51640 0.59005
 C1417 C 0.79889 0.53766 0.62179
 C1418 C 0.81701 0.57889 0.64662
 O1419 O 0.85177 0.58474 0.63185
 H1420 H 0.82030 0.48342 0.56397
 H1421 H 0.77015 0.52593 0.62543
 C1422 C 0.63762 0.96184 0.58891
 C1423 C 0.67068 0.98365 0.57240
 C1424 C 0.69734 0.95647 0.59804
 C1425 C 0.67840 0.92110 0.62881
 O1426 O 0.64217 0.92401 0.62320
 H1427 H 0.67484 1.01380 0.54356
 H1428 H 0.72700 0.96035 0.59359
 C1429 C 0.85877 0.55499 0.91392
 C1430 C 0.82561 0.53254 0.92920
 C1431 C 0.79920 0.55999 0.90330
 C1432 C 0.81839 0.59629 0.87365
 O1433 O 0.85455 0.59354 0.88011
 H1434 H 0.82120 0.50133 0.95703
 H1435 H 0.76950 0.55507 0.90636
 C1436 C 0.63797 0.96634 0.90006
 C1437 C 0.66909 0.99894 0.90578
 C1438 C 0.69457 0.97915 0.87307
 C1439 C 0.67720 0.93659 0.84916
 O1440 O 0.64290 0.92857 0.86549
 H1441 H 0.67301 1.03250 0.93134
 H1442 H 0.72283 0.99288 0.86817
 C1443 C 0.56984 0.68256 0.88905
 C1444 C 0.55036 0.71819 0.85929
 C1445 C 0.57653 0.74782 0.83479
 C1446 C 0.60990 0.72724 0.85115
 O1447 O 0.60595 0.68789 0.88419
 H1448 H 0.52074 0.71974 0.85396
 H1449 H 0.57188 0.77788 0.80603
 C1450 C 0.92832 0.84037 0.88327
 C1451 C 0.94670 0.80213 0.85489
 C1452 C 0.91978 0.77587 0.82908
 C1453 C 0.88708 0.80086 0.84306
 O1454 O 0.89213 0.83994 0.87606
 H1455 H 0.97626 0.79573 0.85206
 H1456 H 0.92365 0.74413 0.80165
   
