data_POSCAR
  _audit_creation_date              2014-09-24
  _audit_creation_method            'ToBaCCo'
  _symmetry_space_group_name_H-M    'P1'
  _symmetry_Int_Tables_number       1
  _symmetry_cell_setting            triclinic
  loop_
  _symmetry_equiv_pos_as_xyz
 x,y,z
_cell_length_a 61.2573
_cell_length_b 60.9185
_cell_length_c 63.0115
_cell_angle_alpha 90.350000
_cell_angle_beta 88.981800
_cell_angle_gamma 90.563100
loop_
  _atom_site_label
  _atom_site_type_symbol
  _atom_site_fract_x
  _atom_site_fract_y
  _atom_site_fract_z
C1 C 0.37415 -0.03331 0.24814
 C2 C 0.38327 -0.01279 0.24263
 C3 C 0.39200 -0.00954 0.22216
 C4 C 0.39169 -0.02647 0.20706
 C5 C 0.38220 -0.04668 0.21253
 C6 C 0.37322 -0.05041 0.23292
 C7 C 0.38292 0.00595 0.25764
 C8 C 0.39294 0.00457 0.27741
 C9 C 0.39474 0.02316 0.29073
 C10 C 0.38567 0.04316 0.28387
 C11 C 0.37542 0.04458 0.26412
 C12 C 0.37396 0.02587 0.25128
 H13 H 0.36710 -0.03530 0.26387
 H14 H 0.39852 0.00648 0.21802
 H15 H 0.40001 -0.01090 0.28204
 H16 H 0.36614 0.02691 0.23601
 H17 H 0.38157 -0.05956 0.20058
 H18 H 0.38579 0.05758 0.29383
 C19 C 0.12731 -0.02099 0.75104
 C20 C 0.11131 -0.00534 0.75578
 C21 C 0.09623 -0.00903 0.77243
 C22 C 0.09710 -0.02841 0.78446
 C23 C 0.11266 -0.04435 0.77890
 C24 C 0.12783 -0.04074 0.76227
 C25 C 0.10984 0.01446 0.74261
 C26 C 0.09613 0.01430 0.72500
 C27 C 0.09569 0.03241 0.71118
 C28 C 0.10910 0.05070 0.71570
 C29 C 0.12284 0.05111 0.73332
 C30 C 0.12315 0.03280 0.74676
 H31 H 0.13896 -0.01805 0.73819
 H32 H 0.08385 0.00314 0.77563
 H33 H 0.08651 -0.00033 0.72207
 H34 H 0.13419 0.03234 0.75997
 H35 H 0.11345 -0.05933 0.78805
 H36 H 0.10922 0.06472 0.70515
 C37 C 0.62589 0.46323 0.24013
 C38 C 0.61485 0.48213 0.24705
 C39 C 0.60521 0.48275 0.26739
 C40 C 0.60628 0.46447 0.28084
 C41 C 0.61805 0.44597 0.27399
 C42 C 0.62816 0.44531 0.25375
 C43 C 0.61433 0.50168 0.23338
 C44 C 0.60354 0.50077 0.21394
 C45 C 0.60382 0.51903 0.20040
 C46 C 0.61559 0.53792 0.20635
 C47 C 0.62649 0.53910 0.22576
 C48 C 0.62555 0.52090 0.23937
 H49 H 0.63364 0.46295 0.22453
 H50 H 0.59721 0.49763 0.27265
 H51 H 0.59541 0.48567 0.20933
 H52 H 0.63438 0.52108 0.25409
 H53 H 0.61918 0.43197 0.28442
 H54 H 0.61642 0.55181 0.19567
 C55 C 0.87949 0.47211 0.74667
 C56 C 0.89124 0.49118 0.74088
 C57 C 0.90393 0.49140 0.72217
 C58 C 0.90493 0.47287 0.70897
 C59 C 0.89319 0.45387 0.71489
 C60 C 0.88023 0.45340 0.73347
 C61 C 0.88992 0.51135 0.75383
 C62 C 0.90088 0.51273 0.77316
 C63 C 0.90114 0.53255 0.78486
 C64 C 0.88952 0.55052 0.77709
 C65 C 0.87802 0.54915 0.75799
 C66 C 0.87880 0.52964 0.74616
 H67 H 0.86923 0.47226 0.76083
 H68 H 0.91282 0.50621 0.71776
 H69 H 0.90926 0.49834 0.77858
 H70 H 0.87044 0.52851 0.73117
 H71 H 0.89407 0.43921 0.70514
 H72 H 0.88978 0.56591 0.78581
 C73 C 0.24919 0.36004 1.02741
 C74 C 0.25383 0.37186 1.00884
 C75 C 0.27480 0.38067 1.00536
 C76 C 0.29110 0.37816 1.02059
 C77 C 0.28646 0.36555 1.03875
 C78 C 0.26552 0.35617 1.04233
 C79 C 0.23671 0.37499 0.99295
 C80 C 0.21868 0.38829 0.99772
 C81 C 0.20288 0.39232 0.98236
 C82 C 0.20487 0.38196 0.96239
 C83 C 0.22253 0.36815 0.95759
 C84 C 0.23864 0.36504 0.97287
 H85 H 0.23288 0.35331 1.02987
 H86 H 0.27816 0.38947 0.99079
 H87 H 0.21731 0.39601 1.01322
 H88 H 0.25279 0.35509 0.96922
 H89 H 0.29915 0.36395 1.05032
 H90 H 0.19246 0.38409 0.95059
 C91 C 0.74493 0.13330 1.03178
 C92 C 0.74260 0.12406 1.01145
 C93 C 0.72309 0.11327 1.00624
 C94 C 0.70590 0.11139 1.02108
 C95 C 0.70855 0.12027 1.04155
 C96 C 0.72777 0.13173 1.04702
 C97 C 0.76019 0.12614 0.99518
 C98 C 0.78058 0.11632 0.99803
 C99 C 0.79670 0.11713 0.98178
 C100 C 0.79250 0.12886 0.96319
 C101 C 0.77223 0.13896 0.96028
 C102 C 0.75607 0.13713 0.97620
 H103 H 0.76019 0.14140 1.03544
 H104 H 0.72130 0.10633 0.99047
 H105 H 0.78357 0.10788 1.01274
 H106 H 0.74023 0.14447 0.97393
 H107 H 0.69560 0.11833 1.05333
 H108 H 0.80477 0.12925 0.95061
 C109 C 0.24222 0.63706 0.53492
 C110 C 0.24124 0.62716 0.51481
 C111 C 0.22255 0.61523 0.50910
 C112 C 0.20500 0.61254 0.52347
 C113 C 0.20606 0.62274 0.54353
 C114 C 0.22445 0.63525 0.54924
 C115 C 0.25955 0.62948 0.49947
 C116 C 0.28006 0.62064 0.50376
 C117 C 0.29695 0.62134 0.48839
 C118 C 0.29348 0.63233 0.46917
 C119 C 0.27308 0.64154 0.46490
 C120 C 0.25610 0.63961 0.47995
 H121 H 0.25678 0.64614 0.53927
 H122 H 0.22188 0.60764 0.49351
 H123 H 0.28252 0.61233 0.51868
 H124 H 0.24016 0.64622 0.47658
 H125 H 0.19242 0.62164 0.55462
 H126 H 0.30646 0.63343 0.45740
 C127 C 0.74453 0.86120 0.52482
 C128 C 0.74814 0.87125 0.50513
 C129 C 0.76865 0.88068 0.50041
 C130 C 0.78553 0.88071 0.51537
 C131 C 0.78159 0.87011 0.53503
 C132 C 0.76125 0.86007 0.53969
 C133 C 0.73015 0.87261 0.48979
 C134 C 0.71140 0.88475 0.49498
 C135 C 0.69447 0.88699 0.48039
 C136 C 0.69624 0.87603 0.46068
 C137 C 0.71463 0.86335 0.45543
 C138 C 0.73174 0.86200 0.46997
 H139 H 0.72866 0.85398 0.52846
 H140 H 0.77113 0.88868 0.48521
 H141 H 0.71026 0.89295 0.51028
 H142 H 0.74632 0.85285 0.46594
 H143 H 0.79379 0.87011 0.54712
 H144 H 0.68315 0.87676 0.44943
 C145 C -0.01879 0.23952 0.34444
 C146 C -0.00067 0.23821 0.35751
 C147 C 0.00256 0.21923 0.36938
 C148 C -0.01254 0.20175 0.36886
 C149 C -0.03058 0.20317 0.35528
 C150 C -0.03392 0.22217 0.34306
 C151 C 0.01447 0.25710 0.35921
 C152 C 0.00623 0.27831 0.36208
 C153 C 0.02031 0.29643 0.36369
 C154 C 0.04298 0.29314 0.36249
 C155 C 0.05148 0.27207 0.35927
 C156 C 0.03709 0.25402 0.35798
 H157 H -0.02102 0.25426 0.33518
 H158 H 0.01646 0.21850 0.37977
 H159 H -0.01126 0.28068 0.36346
 H160 H 0.04326 0.23754 0.35611
 H161 H -0.04161 0.18942 0.35403
 H162 H 0.05423 0.30679 0.36430
 C163 C -0.01840 0.75907 0.16264
 C164 C 0.00191 0.76386 0.15324
 C165 C 0.00636 0.78490 0.14553
 C166 C -0.00964 0.80112 0.14655
 C167 C -0.02994 0.79639 0.15638
 C168 C -0.03458 0.77521 0.16442
 C169 C 0.01823 0.74655 0.15048
 C170 C 0.01463 0.72943 0.13600
 C171 C 0.03065 0.71331 0.13240
 C172 C 0.05011 0.71464 0.14390
 C173 C 0.05383 0.73190 0.15835
 C174 C 0.03773 0.74775 0.16158
 H175 H -0.02156 0.74259 0.16844
 H176 H 0.02202 0.78836 0.13792
 H177 H -0.00041 0.72948 0.12731
 H178 H 0.04042 0.76120 0.17261
 H179 H -0.04164 0.80943 0.15802
 H180 H 0.06220 0.70197 0.14170
 C181 C 0.47807 0.26214 0.65116
 C182 C 0.49875 0.26784 0.64308
 C183 C 0.50280 0.28911 0.63574
 C184 C 0.48608 0.30460 0.63570
 C185 C 0.46542 0.29895 0.64427
 C186 C 0.46136 0.27771 0.65232
 C187 C 0.51611 0.25142 0.64175
 C188 C 0.51462 0.23404 0.62720
 C189 C 0.53146 0.21858 0.62536
 C190 C 0.54982 0.22093 0.63825
 C191 C 0.55157 0.23857 0.65271
 C192 C 0.53452 0.25365 0.65440
 H193 H 0.47514 0.24560 0.65688
 H194 H 0.51880 0.29330 0.62922
 H195 H 0.50058 0.23324 0.61706
 H196 H 0.53561 0.26732 0.66545
 H197 H 0.45267 0.31104 0.64446
 H198 H 0.56247 0.20871 0.63710
 C199 C 0.47299 0.74322 0.85105
 C200 C 0.49029 0.74088 0.86495
 C201 C 0.49147 0.72225 0.87774
 C202 C 0.47520 0.70574 0.87685
 C203 C 0.45794 0.70833 0.86264
 C204 C 0.45665 0.72713 0.84988
 C205 C 0.50664 0.75853 0.86697
 C206 C 0.50015 0.77939 0.87390
 C207 C 0.51569 0.79601 0.87713
 C208 C 0.53774 0.79187 0.87225
 C209 C 0.54433 0.77119 0.86492
 C210 C 0.52872 0.75436 0.86270
 H211 H 0.47210 0.75784 0.84137
 H212 H 0.50476 0.72147 0.88871
 H213 H 0.48307 0.78240 0.87754
 H214 H 0.53358 0.73805 0.85774
 H215 H 0.44563 0.69553 0.86145
 H216 H 0.54987 0.80482 0.87362
 C217 C -0.28436 0.62883 0.99798
 C218 C -0.26601 0.63998 1.00577
 C219 C -0.26615 0.64781 1.02669
 C220 C -0.28466 0.64493 1.03988
 C221 C -0.30262 0.63300 1.03217
 C222 C -0.30251 0.62437 1.01128
 C223 C -0.24600 0.64198 0.99254
 C224 C -0.24646 0.65246 0.97279
 C225 C -0.22748 0.65375 0.95980
 C226 C -0.20838 0.64348 0.96674
 C227 C -0.20793 0.63264 0.98636
 C228 C -0.22661 0.63254 0.99942
 H229 H -0.28383 0.62241 0.98188
 H230 H -0.25160 0.65579 1.03261
 H231 H -0.26177 0.65924 0.96786
 H232 H -0.22641 0.62413 1.01453
 H233 H -0.31670 0.63099 1.04258
 H234 H -0.19369 0.64407 0.95690
 C235 C -0.27853 0.36949 0.50151
 C236 C -0.25893 0.35946 0.49503
 C237 C -0.25718 0.34977 0.47487
 C238 C -0.27495 0.34985 0.46115
 C239 C -0.29431 0.36025 0.46761
 C240 C -0.29646 0.37030 0.48784
 C241 C -0.24007 0.35917 0.50924
 C242 C -0.24135 0.34734 0.52824
 C243 C -0.22339 0.34641 0.54169
 C244 C -0.20435 0.35844 0.53632
 C245 C -0.20281 0.37044 0.51735
 C246 C -0.22072 0.37047 0.50370
 H247 H -0.27956 0.37708 0.51710
 H248 H -0.24186 0.34248 0.46993
 H249 H -0.25627 0.33849 0.53232
 H250 H -0.22010 0.37993 0.48920
 H251 H -0.30728 0.36058 0.45629
 H252 H -0.19075 0.35896 0.54704
 C253 C 0.22274 -0.13263 0.00675
 C254 C 0.24079 -0.14481 -0.00043
 C255 C 0.24054 -0.15487 -0.02052
 C256 C 0.22220 -0.15305 -0.03360
 C257 C 0.20451 -0.14033 -0.02631
 C258 C 0.20473 -0.12981 -0.00638
 C259 C 0.26023 -0.14691 0.01287
 C260 C 0.25980 -0.16128 0.03018
 C261 C 0.27839 -0.16411 0.04266
 C262 C 0.29726 -0.15141 0.03778
 C263 C 0.29784 -0.13678 0.02060
 C264 C 0.27927 -0.13483 0.00800
 H265 H 0.22306 -0.12476 0.02222
 H266 H 0.25484 -0.16386 -0.02560
 H267 H 0.24497 -0.17056 0.03363
 H268 H 0.27918 -0.12344 -0.00511
 H269 H 0.19026 -0.13881 -0.03614
 H270 H 0.31154 -0.15208 0.04753
 C271 C 0.21264 1.13285 0.50595
 C272 C 0.23276 1.14342 0.50934
 C273 C 0.23584 1.15601 0.52771
 C274 C 0.21891 1.15846 0.54272
 C275 C 0.19898 1.14738 0.53949
 C276 C 0.19563 1.13455 0.52119
 C277 C 0.25075 1.14165 0.49365
 C278 C 0.24976 1.15320 0.47455
 C279 C 0.26734 1.15302 0.45990
 C280 C 0.28559 1.13991 0.46442
 C281 C 0.28674 1.12824 0.48352
 C282 C 0.26932 1.12941 0.49824
 H283 H 0.21072 1.12282 0.49187
 H284 H 0.25141 1.16418 0.53015
 H285 H 0.23542 1.16292 0.47149
 H286 H 0.26980 1.12038 0.51298
 H287 H 0.18612 1.14815 0.55147
 H288 H 0.29903 1.13828 0.45323
 C289 C 0.10895 0.50197 0.21582
 C290 C 0.12236 0.50643 0.23316
 C291 C 0.13396 0.52644 0.23412
 C292 C 0.13241 0.54185 0.21760
 C293 C 0.11830 0.53737 0.20078
 C294 C 0.10639 0.51757 0.19983
 C295 C 0.12370 0.49019 0.25044
 C296 C 0.13190 0.46915 0.24627
 C297 C 0.13233 0.45318 0.26227
 C298 C 0.12330 0.45830 0.28244
 C299 C 0.11465 0.47925 0.28668
 C300 C 0.11553 0.49527 0.27077
 H301 H 0.09999 0.48655 0.21510
 H302 H 0.14405 0.52978 0.24770
 H303 H 0.13823 0.46533 0.23051
 H304 H 0.10892 0.51143 0.27389
 H305 H 0.11721 0.54910 0.18801
 H306 H 0.12289 0.44618 0.29487
 C307 C -0.10506 0.98330 0.22163
 C308 C -0.11554 0.98206 0.24155
 C309 C -0.12872 0.96384 0.24658
 C310 C -0.13235 0.94701 0.23167
 C311 C -0.12177 0.94856 0.21162
 C312 C -0.10780 0.96636 0.20654
 C313 C -0.11392 1.00037 0.25690
 C314 C -0.12310 1.02070 0.25222
 C315 C -0.12423 1.03755 0.26760
 C316 C -0.11471 1.03392 0.28755
 C317 C -0.10475 1.01378 0.29210
 C318 C -0.10492 0.99696 0.27684
 H319 H -0.09534 0.99775 0.21803
 H320 H -0.13681 0.96326 0.26203
 H321 H -0.13043 1.02290 0.23684
 H322 H -0.09800 0.98112 0.28045
 H323 H -0.12389 0.93593 0.19975
 H324 H -0.11545 1.04622 0.29988
 C325 C 0.38774 0.50068 -0.28424
 C326 C 0.37671 0.49592 -0.26510
 C327 C 0.36612 0.47559 -0.26256
 C328 C 0.36613 0.46006 -0.27916
 C329 C 0.37801 0.46467 -0.29791
 C330 C 0.38918 0.48491 -0.30062
 C331 C 0.37721 0.51173 -0.24724
 C332 C 0.36610 0.53172 -0.24834
 C333 C 0.36616 0.54665 -0.23102
 C334 C 0.37838 0.54131 -0.21305
 C335 C 0.38976 0.52141 -0.21196
 C336 C 0.38869 0.50656 -0.22896
 H337 H 0.39605 0.51640 -0.28591
 H338 H 0.35814 0.47203 -0.24750
 H339 H 0.35732 0.53496 -0.26266
 H340 H 0.39713 0.49104 -0.22814
 H341 H 0.37774 0.45256 -0.31052
 H342 H 0.37845 0.55239 -0.19954
 C343 C 0.60596 0.00980 -0.28006
 C344 C 0.61778 0.01334 -0.26149
 C345 C 0.62921 0.03318 -0.25869
 C346 C 0.62917 0.04937 -0.27455
 C347 C 0.61645 0.04596 -0.29264
 C348 C 0.60461 0.02620 -0.29558
 C349 C 0.61786 -0.00380 -0.24497
 C350 C 0.62583 -0.02477 -0.24981
 C351 C 0.62558 -0.04141 -0.23448
 C352 C 0.61608 -0.03709 -0.21433
 C353 C 0.60766 -0.01618 -0.20940
 C354 C 0.60918 0.00050 -0.22466
 H355 H 0.59717 -0.00561 -0.28203
 H356 H 0.63808 0.03577 -0.24417
 H357 H 0.63264 -0.02797 -0.26551
 H358 H 0.60284 0.01667 -0.22102
 H359 H 0.61670 0.05852 -0.30468
 H360 H 0.61525 -0.04983 -0.20250
 C361 C -0.00337 0.22280 0.90522
 C362 C -0.00880 0.24361 0.89783
 C363 C -0.03035 0.24803 0.89240
 C364 C -0.04646 0.23164 0.89369
 C365 C -0.04104 0.21092 0.90165
 C366 C -0.01950 0.20649 0.90775
 C367 C 0.00790 0.26097 0.89575
 C368 C 0.02598 0.25827 0.88206
 C369 C 0.04087 0.27571 0.87878
 C370 C 0.03744 0.29570 0.88942
 C371 C 0.01935 0.29844 0.90312
 C372 C 0.00483 0.28094 0.90640
 H373 H 0.01333 0.21954 0.90957
 H374 H -0.03439 0.26411 0.88639
 H375 H 0.02769 0.24299 0.87337
 H376 H -0.00927 0.28302 0.91685
 H377 H -0.05353 0.19834 0.90287
 H378 H 0.04903 0.30904 0.88709
 C379 C 0.51523 0.22506 0.11137
 C380 C 0.52207 0.24569 0.11884
 C381 C 0.54426 0.24968 0.12238
 C382 C 0.55961 0.23308 0.11911
 C383 C 0.55268 0.21260 0.11122
 C384 C 0.53057 0.20852 0.10719
 C385 C 0.50610 0.26317 0.12304
 C386 C 0.48752 0.25915 0.13586
 C387 C 0.47218 0.27572 0.13949
 C388 C 0.47556 0.29637 0.13019
 C389 C 0.49399 0.30046 0.11733
 C390 C 0.50944 0.28400 0.11412
 H391 H 0.49802 0.22200 0.10891
 H392 H 0.54946 0.26552 0.12851
 H393 H 0.48507 0.24316 0.14304
 H394 H 0.52368 0.28716 0.10409
 H395 H 0.56443 0.19981 0.10793
 H396 H 0.46419 0.30954 0.13336
 C397 C 0.00589 0.71956 0.59996
 C398 C 0.00967 0.73764 0.61323
 C399 C 0.02835 0.73846 0.62566
 C400 C 0.04345 0.72124 0.62488
 C401 C 0.03949 0.70316 0.61152
 C402 C 0.02062 0.70213 0.59911
 C403 C -0.00637 0.75538 0.61472
 C404 C -0.02758 0.75088 0.62229
 C405 C -0.04299 0.76772 0.62447
 C406 C -0.03708 0.78894 0.61746
 C407 C -0.01593 0.79344 0.60961
 C408 C -0.00043 0.77677 0.60889
 H409 H -0.00871 0.71897 0.59048
 H410 H 0.03045 0.75220 0.63640
 H411 H -0.03175 0.73430 0.62719
 H412 H 0.01599 0.78024 0.60305
 H413 H 0.05135 0.69013 0.61070
 H414 H -0.04854 0.80225 0.61800
 C415 C 0.49552 0.73445 0.40630
 C416 C 0.48890 0.75386 0.39656
 C417 C 0.46670 0.75736 0.39316
 C418 C 0.45112 0.74147 0.39887
 C419 C 0.45775 0.72230 0.40909
 C420 C 0.48005 0.71853 0.41263
 C421 C 0.50507 0.77022 0.38893
 C422 C 0.52206 0.76392 0.37509
 C423 C 0.53635 0.77978 0.36640
 C424 C 0.53358 0.80193 0.37191
 C425 C 0.51687 0.80846 0.38597
 C426 C 0.50249 0.79241 0.39426
 H427 H 0.51274 0.73170 0.40880
 H428 H 0.46165 0.77205 0.38502
 H429 H 0.52328 0.74685 0.37042
 H430 H 0.48898 0.79676 0.40461
 H431 H 0.44549 0.71056 0.41434
 H432 H 0.54459 0.81420 0.36520
 Zr433 Zr 0.01231 -0.02922 1.02658
 O434 O 0.03420 -0.01543 1.04874
 O435 O 0.00705 -0.06079 1.03885
 O436 O -0.00232 -0.02681 1.05717
 O437 O 0.05247 -0.04043 0.98897
 O438 O -0.03515 -0.01087 1.05109
 O439 O 0.04372 -0.04346 1.02419
 O440 O -0.01795 -0.07597 1.01654
 O441 O -0.02093 -0.03510 1.02145
 O442 O 0.01036 -0.04748 0.99846
 O443 O -0.00209 0.00197 1.02511
 O444 O 0.02822 -0.00991 1.00314
 Zr445 Zr -0.02277 -0.00279 0.96675
 Zr446 Zr -0.03497 -0.00418 1.01843
 Zr447 Zr 0.02447 -0.02780 0.97484
 Zr448 Zr -0.02268 -0.05226 0.99282
 O449 O 0.05267 -0.01071 0.96382
 O450 O -0.05378 -0.06181 1.00512
 O451 O -0.00837 -0.03411 0.96784
 O452 O -0.03842 -0.02204 0.99017
 O453 O -0.02094 0.01563 0.99482
 O454 O 0.01040 0.00305 0.97197
 C455 C -0.00605 -0.07629 1.03315
 C456 C 0.05693 -0.04572 1.00815
 C457 C -0.02109 -0.01954 1.06335
 O458 O -0.06472 -0.02028 1.02651
 O459 O -0.06097 0.01286 1.00498
 O460 O -0.05308 0.01344 0.96947
 C461 C -0.06524 0.01814 0.98576
 O462 O 0.03587 0.02703 1.02391
 Zr463 Zr 0.01220 0.02031 1.00042
 O464 O -0.01922 0.02929 0.95551
 O465 O -0.03955 0.02546 1.03555
 O466 O 0.00042 0.04682 1.01920
 O467 O 0.04139 0.03206 0.98567
 O468 O 0.00311 0.04565 0.97966
 C469 C -0.00911 0.04599 0.96323
 O470 O -0.04554 -0.01635 0.94532
 O471 O 0.03071 -0.05868 0.96054
 O472 O -0.00890 -0.00651 0.93598
 O473 O 0.02262 -0.02511 0.94163
 O474 O -0.01017 -0.08054 0.97724
 O475 O -0.04256 -0.06033 0.96654
 C476 C 0.00873 -0.01598 0.92946
 H477 H 0.01786 -0.06176 0.99934
 H478 H -0.05398 -0.02451 0.98679
 H479 H 0.01760 0.01150 0.96041
 H480 H -0.00048 0.01003 1.03869
 H481 H -0.05492 -0.07800 1.00387
 H482 H -0.07290 -0.01025 1.03613
 H483 H -0.05410 0.02440 1.04264
 H484 H 0.00878 0.06014 1.01495
 H485 H -0.01933 -0.09322 0.98180
 H486 H 0.04515 -0.05746 0.95327
 H487 H 0.06092 -0.02099 0.95452
 H488 H 0.04169 0.04823 0.98743
 H489 H -0.04881 -0.07526 0.96843
 H490 H -0.04883 -0.00475 0.93489
 H491 H 0.03742 -0.02703 1.05920
 H492 H 0.03998 0.04278 1.02348
 Zr493 Zr 0.51473 0.47736 0.52132
 O494 O 0.53559 0.48996 0.54499
 O495 O 0.50744 0.44578 0.53265
 O496 O 0.49798 0.47916 0.55087
 O497 O 0.55637 0.46493 0.48595
 O498 O 0.46678 0.49765 0.54358
 O499 O 0.54542 0.46146 0.52055
 O500 O 0.48315 0.43218 0.50875
 O501 O 0.48169 0.47320 0.51423
 O502 O 0.51366 0.45970 0.49282
 O503 O 0.50195 0.50927 0.51960
 O504 O 0.53287 0.49640 0.49918
 Zr505 Zr 0.48476 0.50629 0.45996
 Zr506 Zr 0.46933 0.50484 0.51099
 Zr507 Zr 0.53008 0.47913 0.47044
 Zr508 Zr 0.48088 0.45657 0.48527
 O509 O 0.55961 0.49516 0.46145
 O510 O 0.44877 0.44830 0.49577
 O511 O 0.49757 0.47434 0.46143
 O512 O 0.46681 0.48756 0.48225
 O513 O 0.48561 0.52426 0.48839
 O514 O 0.51768 0.51063 0.46718
 C515 C 0.49405 0.43099 0.52596
 C516 C 0.55936 0.45880 0.50517
 C517 C 0.47940 0.48745 0.55626
 O518 O 0.43842 0.49015 0.51709
 O519 O 0.44521 0.52344 0.49623
 O520 O 0.45525 0.52394 0.46118
 C521 C 0.44243 0.52910 0.47682
 O522 O 0.54106 0.53271 0.52070
 Zr523 Zr 0.51842 0.52741 0.49598
 O524 O 0.49095 0.53812 0.44903
 O525 O 0.46519 0.53440 0.52834
 O526 O 0.50676 0.55399 0.51473
 O527 O 0.54875 0.53826 0.48288
 O528 O 0.51135 0.55358 0.47526
 C529 C 0.50073 0.55446 0.45780
 O530 O 0.46257 0.49433 0.43714
 O531 O 0.53596 0.44825 0.45598
 O532 O 0.50005 0.50179 0.42987
 O533 O 0.53054 0.48225 0.43726
 O534 O 0.49285 0.42795 0.46987
 O535 O 0.46225 0.45004 0.45776
 C536 C 0.51770 0.49173 0.42431
 H537 H 0.52040 0.44505 0.49383
 H538 H 0.45141 0.48590 0.47796
 H539 H 0.52594 0.51885 0.45611
 H540 H 0.50310 0.51695 0.53343
 H541 H 0.44693 0.43221 0.49412
 H542 H 0.43016 0.50048 0.52633
 H543 H 0.45018 0.53403 0.53447
 H544 H 0.51581 0.56706 0.51111
 H545 H 0.48275 0.41570 0.47359
 H546 H 0.55087 0.44893 0.44964
 H547 H 0.56802 0.48465 0.45253
 H548 H 0.54953 0.55440 0.48487
 H549 H 0.45508 0.43546 0.45908
 H550 H 0.46062 0.50618 0.42663
 H551 H 0.53761 0.47808 0.55545
 H552 H 0.54583 0.54829 0.52075
 Zr553 Zr 0.47667 1.03239 0.53287
 O554 O 0.45731 1.01948 0.55810
 O555 O 0.48186 1.06470 0.54307
 O556 O 0.49445 1.03200 0.56127
 O557 O 0.43371 1.04285 0.49978
 O558 O 0.52573 1.01379 0.55231
 O559 O 0.44514 1.04652 0.53388
 O560 O 0.50574 1.07864 0.51828
 O561 O 0.50947 1.03729 0.52400
 O562 O 0.47659 1.04960 0.50429
 O563 O 0.49033 1.00087 0.53055
 O564 O 0.45844 1.01271 0.51184
 Zr565 Zr 0.50584 1.00303 0.46996
 Zr566 Zr 0.52262 1.00588 0.51994
 Zr567 Zr 0.46022 1.02948 0.48286
 Zr568 Zr 0.50914 1.05351 0.49504
 O569 O 0.43102 1.01260 0.47514
 O570 O 0.54097 1.06271 0.50461
 O571 O 0.49244 1.03480 0.47216
 O572 O 0.52384 1.02275 0.49107
 O573 O 0.50610 0.98561 0.49850
 O574 O 0.47320 0.99825 0.47912
 C575 C 0.49423 1.08002 0.53557
 C576 C 0.43078 1.04855 0.51930
 C577 C 0.51329 1.02410 0.56562
 O578 O 0.55332 1.02140 0.52409
 O579 O 0.54700 0.98759 0.50386
 O580 O 0.53576 0.98614 0.46954
 C581 C 0.54929 0.98163 0.48428
 O582 O 0.45239 0.97665 0.53470
 Zr583 Zr 0.47352 0.98208 0.50810
 O584 O 0.49990 0.97069 0.45971
 O585 O 0.52793 0.97676 0.53716
 O586 O 0.48678 0.95577 0.52540
 O587 O 0.44257 0.97089 0.49775
 O588 O 0.47904 0.95607 0.48658
 C589 C 0.48939 0.95478 0.46870
 O590 O 0.52719 1.01493 0.44577
 O591 O 0.45319 1.06009 0.46894
 O592 O 0.48982 1.00666 0.44070
 O593 O 0.45943 1.02619 0.44971
 O594 O 0.49627 1.08123 0.47955
 O595 O 0.52767 1.06032 0.46697
 C596 C 0.47211 1.01670 0.43607
 H597 H 0.46930 1.06399 0.50554
 H598 H 0.53907 1.02472 0.48587
 H599 H 0.46475 0.98975 0.46857
 H600 H 0.48977 0.99340 0.54446
 H601 H 0.54230 1.07886 0.50317
 H602 H 0.56200 1.01155 0.53305
 H603 H 0.54305 0.97768 0.54248
 H604 H 0.47771 0.94255 0.52256
 H605 H 0.50580 1.09397 0.48292
 H606 H 0.43820 1.05892 0.46336
 H607 H 0.42225 1.02277 0.46662
 H608 H 0.44183 0.95483 0.50008
 H609 H 0.53463 1.07501 0.46824
 H610 H 0.52915 1.00290 0.43524
 H611 H 0.45499 1.03158 0.56849
 H612 H 0.44827 0.96091 0.53536
 Zr613 Zr -0.01632 0.53653 1.02330
 O614 O -0.03740 0.52021 1.04516
 O615 O -0.01455 0.56807 1.03653
 O616 O -0.00179 0.53442 1.05340
 O617 O -0.05614 0.54700 0.98677
 O618 O 0.03151 0.51929 1.04622
 O619 O -0.04858 0.54871 1.02207
 O620 O 0.01032 0.58571 1.01513
 O621 O 0.01671 0.54450 1.01822
 O622 O -0.01481 0.55603 0.99612
 O623 O -0.00008 0.50636 1.02001
 O624 O -0.03064 0.51744 0.99908
 Zr625 Zr 0.02143 0.51512 0.96169
 Zr626 Zr 0.03259 0.51454 1.01317
 Zr627 Zr -0.02725 0.53668 0.97169
 Zr628 Zr 0.01804 0.56309 0.99058
 O629 O -0.05435 0.51857 0.96032
 O630 O 0.04786 0.57369 1.00401
 O631 O 0.00528 0.54543 0.96468
 O632 O 0.03555 0.53400 0.98597
 O633 O 0.02009 0.49518 0.98862
 O634 O -0.01138 0.50694 0.96708
 C635 C -0.00275 0.58480 1.03137
 C636 C -0.06142 0.55102 1.00624
 C637 C 0.01694 0.52717 1.05902
 O638 O 0.06128 0.53182 1.02170
 O639 O 0.05962 0.49917 0.99833
 O640 O 0.05245 0.50059 0.96296
 C641 C 0.06441 0.49527 0.97868
 O642 O -0.03631 0.47925 1.01824
 Zr643 Zr -0.01282 0.48842 0.99461
 O644 O 0.02022 0.48377 0.94809
 O645 O 0.03851 0.48449 1.02863
 O646 O 0.00057 0.46186 1.01146
 O647 O -0.04133 0.47584 0.98006
 O648 O -0.00276 0.46463 0.97218
 C649 C 0.01026 0.46487 0.95444
 O650 O 0.04369 0.53152 0.94101
 O651 O -0.03484 0.56767 0.95892
 O652 O 0.00797 0.51906 0.93130
 O653 O -0.02488 0.53505 0.93842
 O654 O 0.00471 0.59117 0.97610
 O655 O 0.03868 0.57365 0.96509
 C656 C -0.01032 0.52722 0.92558
 H657 H -0.02325 0.56974 0.99764
 H658 H 0.05104 0.53749 0.98256
 H659 H -0.01786 0.49854 0.95523
 H660 H -0.00152 0.49763 1.03317
 H661 H 0.04804 0.58996 1.00391
 H662 H 0.06978 0.52179 1.03064
 H663 H 0.05289 0.48599 1.03548
 H664 H -0.00703 0.44828 1.00680
 H665 H 0.01291 0.60417 0.98131
 H666 H -0.04911 0.56597 0.95189
 H667 H -0.06303 0.52874 0.95170
 H668 H -0.04099 0.45962 0.98118
 H669 H 0.04434 0.58859 0.96818
 H670 H 0.04803 0.52085 0.92979
 H671 H -0.04165 0.53112 1.05620
 H672 H -0.03913 0.46324 1.01734
 Zr673 Zr -0.01460 0.47439 0.46292
 O674 O -0.03393 0.49065 0.44049
 O675 O -0.00995 0.44370 0.44848
 O676 O 0.00283 0.47775 0.43388
 O677 O -0.05763 0.46097 0.49663
 O678 O 0.03553 0.49292 0.44328
 O679 O -0.04652 0.46046 0.46190
 O680 O 0.01385 0.42692 0.47048
 O681 O 0.01796 0.46760 0.46983
 O682 O -0.01526 0.45393 0.48941
 O683 O 0.00071 0.50507 0.46794
 O684 O -0.03159 0.49216 0.48673
 Zr685 Zr 0.01655 0.49514 0.52707
 Zr686 Zr 0.03282 0.49787 0.47636
 Zr687 Zr -0.03051 0.47199 0.51355
 Zr688 Zr 0.01710 0.44812 0.49683
 O689 O -0.05885 0.48878 0.52402
 O690 O 0.04882 0.43906 0.48620
 O691 O 0.00139 0.46435 0.52226
 O692 O 0.03348 0.47770 0.50317
 O693 O 0.01758 0.51586 0.50067
 O694 O -0.01581 0.50218 0.52009
 C695 C 0.00277 0.42793 0.45337
 C696 C -0.06085 0.45709 0.47685
 C697 C 0.02231 0.48478 0.42955
 O698 O 0.06281 0.48222 0.46941
 O699 O 0.05791 0.51375 0.49334
 O700 O 0.04723 0.51087 0.52811
 C701 C 0.06064 0.51706 0.51335
 O702 O -0.03639 0.53076 0.46875
 Zr703 Zr -0.01478 0.52172 0.49315
 O704 O 0.01294 0.52610 0.54109
 O705 O 0.03933 0.52847 0.46176
 O706 O -0.00073 0.54932 0.47754
 O707 O -0.04450 0.53305 0.50686
 O708 O -0.00633 0.54511 0.51669
 C709 C 0.00429 0.54369 0.53411
 O710 O 0.03730 0.47937 0.54864
 O711 O -0.03895 0.44025 0.52467
 O712 O 0.00059 0.48895 0.55644
 O713 O -0.03102 0.47182 0.54685
 O714 O 0.00271 0.41866 0.50848
 O715 O 0.03436 0.43759 0.52384
 C716 C -0.01775 0.47932 0.56079
 H717 H -0.02308 0.43990 0.48680
 H718 H 0.04863 0.47470 0.50745
 H719 H -0.02359 0.50977 0.53188
 H720 H 0.00041 0.51408 0.45493
 H721 H 0.04936 0.42281 0.48606
 H722 H 0.07195 0.49288 0.46130
 H723 H 0.05440 0.52777 0.45584
 H724 H -0.00888 0.56245 0.48241
 H725 H 0.01197 0.40639 0.50341
 H726 H -0.05375 0.44127 0.53120
 H727 H -0.06810 0.47801 0.53185
 H728 H -0.04406 0.54931 0.50644
 H729 H 0.04038 0.42280 0.52110
 H730 H 0.04016 0.48988 0.56037
 H731 H -0.03679 0.47999 0.42888
 H732 H -0.03990 0.54654 0.47018
 Zr733 Zr 0.47831 -0.01676 -0.03228
 O734 O 0.45895 -0.00878 -0.05859
 O735 O 0.48647 -0.04946 -0.03880
 O736 O 0.49690 -0.01828 -0.06081
 O737 O 0.43458 -0.02643 0.00196
 O738 O 0.52730 0.00240 -0.05398
 O739 O 0.44792 -0.03385 -0.03131
 O740 O 0.50894 -0.05845 -0.01175
 O741 O 0.51084 -0.01833 -0.02273
 O742 O 0.47766 -0.03002 -0.00177
 O743 O 0.49053 0.01566 -0.03380
 O744 O 0.45832 0.00440 -0.01394
 Zr745 Zr 0.50339 0.02225 0.02646
 Zr746 Zr 0.52255 0.01408 -0.02270
 Zr747 Zr 0.45936 -0.00837 0.01688
 Zr748 Zr 0.50982 -0.03052 0.00811
 O749 O 0.42906 0.00744 0.02180
 O750 O 0.54252 -0.03889 0.00027
 O751 O 0.49123 -0.01020 0.02833
 O752 O 0.52315 0.00123 0.00803
 O753 O 0.50434 0.03596 -0.00392
 O754 O 0.47100 0.02386 0.01682
 C755 C 0.49913 -0.06270 -0.02919
 C756 C 0.43313 -0.03539 -0.01651
 C757 C 0.51564 -0.00996 -0.06609
 O758 O 0.55385 -0.00018 -0.02534
 O759 O 0.54590 0.03502 -0.00853
 O760 O 0.53271 0.04055 0.02515
 C761 C 0.54708 0.04339 0.01026
 O762 O 0.45188 0.03691 -0.04094
 Zr763 Zr 0.47205 0.03624 -0.01385
 O764 O 0.49575 0.05506 0.03277
 O765 O 0.52754 0.04128 -0.04298
 O766 O 0.48499 0.06080 -0.03434
 O767 O 0.44029 0.04679 -0.00488
 O768 O 0.47575 0.06531 0.00436
 C769 C 0.48522 0.06928 0.02208
 O770 O 0.52403 0.01489 0.05204
 O771 O 0.45299 -0.03701 0.03490
 O772 O 0.48650 0.02135 0.05589
 O773 O 0.45688 -0.00047 0.04935
 O774 O 0.49741 -0.05691 0.02667
 O775 O 0.52684 -0.03203 0.03716
 C776 C 0.46887 0.01122 0.06170
 H777 H 0.47124 -0.04498 -0.00124
 H778 H 0.53819 0.00081 0.01351
 H779 H 0.46180 0.03313 0.02624
 H780 H 0.49026 0.02124 -0.04851
 H781 H 0.54446 -0.05451 0.00405
 H782 H 0.56259 0.00909 -0.03525
 H783 H 0.54289 0.04061 -0.04814
 H784 H 0.47534 0.07372 -0.03310
 H785 H 0.50788 -0.06914 0.02524
 H786 H 0.43775 -0.03600 0.04032
 H787 H 0.42034 -0.00190 0.03167
 H788 H 0.43907 0.06238 -0.00910
 H789 H 0.53461 -0.04617 0.03793
 H790 H 0.52510 0.02826 0.06106
 H791 H 0.45776 -0.02222 -0.06748
 H792 H 0.44704 0.05213 -0.04340
 Zr793 Zr 0.51411 0.51779 -0.03579
 O794 O 0.53374 0.50478 -0.06073
 O795 O 0.51168 0.55073 -0.04447
 O796 O 0.49764 0.51951 -0.06490
 O797 O 0.55630 0.52435 -0.00080
 O798 O 0.46461 0.50319 -0.05786
 O799 O 0.54629 0.53085 -0.03487
 O800 O 0.48806 0.56494 -0.01968
 O801 O 0.48150 0.52445 -0.02774
 O802 O 0.51441 0.53359 -0.00627
 O803 O 0.49790 0.48716 -0.03561
 O804 O 0.52987 0.49596 -0.01532
 Zr805 Zr 0.48028 0.48777 0.02454
 Zr806 Zr 0.46577 0.49384 -0.02583
 Zr807 Zr 0.52838 0.51151 0.01446
 Zr808 Zr 0.48199 0.53921 0.00214
 O809 O 0.55597 0.49248 0.02174
 O810 O 0.45130 0.55081 -0.00776
 O811 O 0.49636 0.51856 0.02451
 O812 O 0.46470 0.50940 0.00389
 O813 O 0.47965 0.47165 -0.00491
 O814 O 0.51271 0.48112 0.01614
 C815 C 0.50022 0.56638 -0.03653
 C816 C 0.56016 0.53142 -0.01970
 C817 C 0.47842 0.51301 -0.07029
 O818 O 0.43664 0.51150 -0.03021
 O819 O 0.43954 0.47647 -0.01154
 O820 O 0.44920 0.47252 0.02303
 C821 C 0.43601 0.46962 0.00753
 O822 O 0.53412 0.46059 -0.03951
 Zr823 Zr 0.51212 0.46625 -0.01364
 O824 O 0.48355 0.45498 0.03352
 O825 O 0.45868 0.46595 -0.04477
 O826 O 0.49763 0.44196 -0.03326
 O827 O 0.54126 0.45221 -0.00244
 O828 O 0.50276 0.43961 0.00592
 C829 C 0.49231 0.43859 0.02379
 O830 O 0.45892 0.49997 0.04852
 O831 O 0.53722 0.54075 0.03061
 O832 O 0.49540 0.48918 0.05451
 O833 O 0.52798 0.50621 0.04733
 O834 O 0.49638 0.56550 0.01931
 O835 O 0.46323 0.54582 0.03011
 C836 C 0.51401 0.49721 0.06011
 H837 H 0.52276 0.54758 -0.00642
 H838 H 0.44948 0.51210 0.00869
 H839 H 0.52003 0.47161 0.02646
 H840 H 0.49841 0.48029 -0.04990
 H841 H 0.45120 0.56691 -0.00545
 H842 H 0.42750 0.50259 -0.03990
 H843 H 0.44390 0.46809 -0.05050
 H844 H 0.50530 0.42798 -0.03078
 H845 H 0.48784 0.57885 0.01642
 H846 H 0.55189 0.53838 0.03652
 H847 H 0.56529 0.50162 0.03105
 H848 H 0.54054 0.43625 -0.00555
 H849 H 0.45734 0.56087 0.02943
 H850 H 0.45563 0.48768 0.05837
 H851 H 0.53733 0.51707 -0.07048
 H852 H 0.53704 0.44467 -0.04077
 Zr853 Zr 0.00708 1.02562 0.47505
 O854 O 0.02853 1.01614 0.44998
 O855 O -0.00067 1.05766 0.46645
 O856 O -0.00904 1.02498 0.44577
 O857 O 0.04783 1.03815 0.51046
 O858 O -0.03967 1.00425 0.45222
 O859 O 0.03735 1.04268 0.47623
 O860 O -0.02653 1.06777 0.49101
 O861 O -0.02622 1.02727 0.48293
 O862 O 0.00495 1.04108 0.50467
 O863 O -0.00456 0.99300 0.47463
 O864 O 0.02581 1.00625 0.49537
 Zr865 Zr -0.02231 0.99017 0.53461
 Zr866 Zr -0.03745 0.99475 0.48423
 Zr867 Zr 0.02189 1.02108 0.52532
 Zr868 Zr -0.02804 1.04162 0.51297
 O869 O 0.05194 1.00634 0.53273
 O870 O -0.06037 1.04853 0.50375
 O871 O -0.01094 1.02301 0.53516
 O872 O -0.04079 1.00959 0.51418
 O873 O -0.02046 0.97463 0.50490
 O874 O 0.01084 0.98863 0.52641
 C875 C -0.01490 1.07107 0.47408
 C876 C 0.05094 1.04532 0.49147
 C877 C -0.02714 1.01599 0.44008
 O878 O -0.06872 1.00817 0.47961
 O879 O -0.06144 0.97406 0.49822
 O880 O -0.05109 0.97089 0.53268
 C881 C -0.06399 0.96663 0.51722
 O882 O 0.03561 0.97284 0.47082
 Zr883 Zr 0.01258 0.97430 0.49641
 O884 O -0.01469 0.95784 0.54281
 O885 O -0.04028 0.96619 0.46517
 O886 O 0.00250 0.94849 0.47594
 O887 O 0.04321 0.96433 0.50800
 O888 O 0.00667 0.94616 0.51500
 C889 C -0.00390 0.94306 0.53255
 O890 O -0.04519 0.99878 0.55876
 O891 O 0.02610 1.05115 0.54182
 O892 O -0.00762 0.99325 0.56467
 O893 O 0.02190 1.01547 0.55817
 O894 O -0.01745 1.06979 0.53000
 O895 O -0.04719 1.04510 0.54123
 C896 C 0.00938 1.00415 0.57064
 H897 H 0.01116 1.05615 0.50455
 H898 H -0.05627 1.01001 0.51895
 H899 H 0.01934 0.98010 0.53667
 H900 H -0.00294 0.98647 0.46027
 H901 H -0.06287 1.06437 0.50637
 H902 H -0.07642 0.99818 0.46971
 H903 H -0.05513 0.96628 0.45919
 H904 H 0.01234 0.93593 0.47820
 H905 H -0.02792 1.08168 0.52719
 H906 H 0.04090 1.05095 0.54790
 H907 H 0.05970 1.01667 0.54226
 H908 H 0.04489 0.94857 0.50442
 H909 H -0.05497 1.05927 0.54098
 H910 H -0.04678 0.98597 0.56833
 H911 H 0.03034 1.02897 0.44045
 H912 H 0.04124 0.95771 0.46941
 Zr913 Zr 0.73683 0.25669 0.22219
 O914 O 0.75081 0.27695 0.19828
 O915 O 0.70539 0.25091 0.21072
 O916 O 0.73908 0.23975 0.19284
 O917 O 0.72619 0.29979 0.25657
 O918 O 0.75396 0.20680 0.20134
 O919 O 0.72262 0.28837 0.22225
 O920 O 0.68986 0.22797 0.23533
 O921 O 0.73045 0.22387 0.23009
 O922 O 0.71875 0.25711 0.25064
 O923 O 0.76759 0.24181 0.22445
 O924 O 0.75641 0.27409 0.24398
 Zr925 Zr 0.76246 0.22576 0.28442
 Zr926 Zr 0.76094 0.20944 0.23386
 Zr927 Zr 0.73862 0.27279 0.27273
 Zr928 Zr 0.71343 0.22452 0.25901
 O929 O 0.75621 0.30162 0.28088
 O930 O 0.70339 0.19264 0.24934
 O931 O 0.73163 0.24060 0.28253
 O932 O 0.74319 0.20845 0.26257
 O933 O 0.78078 0.22504 0.25608
 O934 O 0.76902 0.25842 0.27641
 C935 C 0.68975 0.23859 0.21775
 C936 C 0.72052 0.30278 0.23725
 C937 C 0.74576 0.22029 0.18807
 O938 O 0.74458 0.17917 0.22876
 O939 O 0.77806 0.18451 0.24940
 O940 O 0.77858 0.19537 0.28413
 C941 C 0.78341 0.18198 0.26891
 O942 O 0.79306 0.27985 0.22250
 Zr943 Zr 0.78617 0.25764 0.24768
 O944 O 0.79416 0.23007 0.29543
 O945 O 0.79015 0.20314 0.21654
 O946 O 0.81211 0.24427 0.22915
 O947 O 0.79893 0.28737 0.26028
 O948 O 0.81131 0.24867 0.26847
 C949 C 0.81119 0.23828 0.28625
 O950 O 0.74861 0.20450 0.30757
 O951 O 0.70816 0.28073 0.28703
 O952 O 0.75868 0.24173 0.31409
 O953 O 0.74150 0.27355 0.30593
 O954 O 0.68546 0.23853 0.27386
 O955 O 0.70525 0.20674 0.28701
 C956 C 0.74993 0.26021 0.31919
 H957 H 0.70463 0.26472 0.24937
 H958 H 0.74055 0.19317 0.26731
 H959 H 0.77757 0.26632 0.28729
 H960 H 0.77559 0.24229 0.21066
 H961 H 0.68728 0.19185 0.25089
 H962 H 0.75443 0.17008 0.21978
 H963 H 0.78888 0.18798 0.21085
 H964 H 0.82555 0.25262 0.23263
 H965 H 0.67277 0.22906 0.27034
 H966 H 0.70971 0.29569 0.29311
 H967 H 0.74623 0.31080 0.28964
 H968 H 0.81500 0.28699 0.25825
 H969 H 0.69041 0.20034 0.28575
 H970 H 0.76000 0.20183 0.31823
 H971 H 0.73933 0.27951 0.18769
 H972 H 0.80878 0.28379 0.22240
 Zr973 Zr 0.77253 0.74014 0.72063
 O974 O 0.76434 0.71814 0.69582
 O975 O 0.80435 0.74953 0.71185
 O976 O 0.77182 0.75652 0.69116
 O977 O 0.78576 0.70052 0.75686
 O978 O 0.74985 0.78603 0.69743
 O979 O 0.79036 0.71035 0.72223
 O980 O 0.81316 0.77584 0.73626
 O981 O 0.77275 0.77374 0.72807
 O982 O 0.78727 0.74336 0.75018
 O983 O 0.73966 0.75004 0.72040
 O984 O 0.75359 0.72047 0.74153
 Zr985 Zr 0.73533 0.76798 0.78012
 Zr986 Zr 0.73997 0.78323 0.72952
 Zr987 Zr 0.76767 0.72547 0.77132
 Zr988 Zr 0.78649 0.77654 0.75796
 O989 O 0.75420 0.69439 0.77929
 O990 O 0.79245 0.80915 0.74763
 O991 O 0.76833 0.75852 0.78066
 O992 O 0.75421 0.78755 0.75924
 O993 O 0.72023 0.76514 0.75065
 O994 O 0.73508 0.73462 0.77244
 C995 C 0.81719 0.76428 0.71950
 C996 C 0.79336 0.69729 0.73799
 C997 C 0.76228 0.77423 0.68534
 O998 O 0.75215 0.81540 0.72426
 O999 O 0.71842 0.80632 0.74354
 O1000 O 0.71548 0.79585 0.77820
 C1001 C 0.71098 0.80858 0.76271
 O1002 O 0.72055 0.70922 0.71685
 Zr1003 Zr 0.72131 0.73189 0.74261
 O1004 O 0.70342 0.75852 0.78869
 O1005 O 0.71177 0.78436 0.71067
 O1006 O 0.69519 0.74131 0.72310
 O1007 O 0.71313 0.70007 0.75388
 O1008 O 0.69329 0.73487 0.76235
 C1009 C 0.68957 0.74575 0.77957
 O1010 O 0.74275 0.79144 0.80394
 O1011 O 0.79741 0.72315 0.78773
 O1012 O 0.73820 0.75350 0.81033
 O1013 O 0.76146 0.72510 0.80420
 O1014 O 0.81433 0.76765 0.77539
 O1015 O 0.78879 0.79654 0.78560
 C1016 C 0.74943 0.73702 0.81650
 H1017 H 0.80244 0.73792 0.75013
 H1018 H 0.75405 0.80314 0.76376
 H1019 H 0.72687 0.72552 0.78289
 H1020 H 0.73342 0.74804 0.70612
 H1021 H 0.80806 0.81257 0.75009
 H1022 H 0.74199 0.82255 0.71444
 H1023 H 0.71129 0.79932 0.70462
 H1024 H 0.68301 0.73078 0.72563
 H1025 H 0.82590 0.77873 0.77236
 H1026 H 0.79770 0.70832 0.79408
 H1027 H 0.76460 0.68727 0.78889
 H1028 H 0.69758 0.69726 0.75060
 H1029 H 0.80255 0.80520 0.78497
 H1030 H 0.72988 0.79233 0.81368
 H1031 H 0.77735 0.71705 0.68628
 H1032 H 0.70555 0.70325 0.71543
 Zr1033 Zr 0.23135 0.23684 0.78372
 O1034 O 0.24763 0.21687 0.80567
 O1035 O 0.19993 0.23860 0.79728
 O1036 O 0.23345 0.25281 0.81358
 O1037 O 0.22049 0.19497 0.74805
 O1038 O 0.24772 0.28653 0.80551
 O1039 O 0.21892 0.20425 0.78318
 O1040 O 0.18215 0.26166 0.77516
 O1041 O 0.22331 0.26963 0.77816
 O1042 O 0.21194 0.23685 0.75676
 O1043 O 0.26136 0.25357 0.77968
 O1044 O 0.25031 0.22174 0.75949
 Zr1045 Zr 0.25272 0.27259 0.72116
 Zr1046 Zr 0.25308 0.28594 0.77250
 Zr1047 Zr 0.23107 0.22358 0.73235
 Zr1048 Zr 0.20491 0.26947 0.75069
 O1049 O 0.24940 0.19662 0.72085
 O1050 O 0.19437 0.29959 0.76422
 O1051 O 0.22256 0.25589 0.72498
 O1052 O 0.23385 0.28740 0.74542
 O1053 O 0.27239 0.27277 0.74797
 O1054 O 0.26067 0.23988 0.72683
 C1055 C 0.18306 0.24934 0.79167
 C1056 C 0.21617 0.19064 0.76766
 C1057 C 0.23996 0.27230 0.81871
 O1058 O 0.23610 0.31498 0.78061
 O1059 O 0.26810 0.31285 0.75709
 O1060 O 0.26735 0.30411 0.72186
 C1061 C 0.27220 0.31699 0.73740
 O1062 O 0.28839 0.21735 0.77782
 Zr1063 Zr 0.27920 0.24003 0.75417
 O1064 O 0.28418 0.27093 0.70768
 O1065 O 0.28296 0.29290 0.78759
 O1066 O 0.30569 0.25423 0.77078
 O1067 O 0.29175 0.21129 0.73944
 O1068 O 0.30284 0.25054 0.73146
 C1069 C 0.30171 0.26228 0.71458
 O1070 O 0.23710 0.29420 0.70020
 O1071 O 0.20023 0.21414 0.72045
 O1072 O 0.24761 0.25805 0.69107
 O1073 O 0.23093 0.22542 0.69911
 O1074 O 0.17722 0.25507 0.73618
 O1075 O 0.19444 0.28926 0.72522
 C1076 C 0.23810 0.23989 0.68587
 H1077 H 0.19828 0.22819 0.75851
 H1078 H 0.23037 0.30275 0.74180
 H1079 H 0.26878 0.23307 0.71479
 H1080 H 0.27001 0.25289 0.79278
 H1081 H 0.17819 0.29941 0.76436
 H1082 H 0.24605 0.32404 0.78937
 H1083 H 0.28152 0.30763 0.79422
 H1084 H 0.31917 0.24675 0.76585
 H1085 H 0.16418 0.26313 0.74139
 H1086 H 0.20210 0.19966 0.71341
 H1087 H 0.23933 0.18739 0.71239
 H1088 H 0.30789 0.21222 0.74005
 H1089 H 0.17968 0.29497 0.72856
 H1090 H 0.24787 0.29808 0.68885
 H1091 H 0.23679 0.21283 0.81689
 H1092 H 0.30420 0.21431 0.77634
 Zr1093 Zr 0.28528 0.75350 0.28061
 O1094 O 0.26935 0.77419 0.30301
 O1095 O 0.31646 0.75074 0.29336
 O1096 O 0.28345 0.73874 0.31071
 O1097 O 0.29505 0.79485 0.24447
 O1098 O 0.26913 0.70475 0.30398
 O1099 O 0.29753 0.78597 0.27946
 O1100 O 0.33361 0.72660 0.27097
 O1101 O 0.29342 0.72072 0.27481
 O1102 O 0.30440 0.75315 0.25282
 O1103 O 0.25533 0.73654 0.27843
 O1104 O 0.26580 0.76801 0.25736
 Zr1105 Zr 0.26279 0.71632 0.21958
 Zr1106 Zr 0.26379 0.70414 0.27108
 Zr1107 Zr 0.28463 0.76577 0.22933
 Zr1108 Zr 0.31131 0.72042 0.24639
 O1109 O 0.26626 0.79263 0.21857
 O1110 O 0.32243 0.68982 0.25763
 O1111 O 0.29298 0.73332 0.22157
 O1112 O 0.28238 0.70225 0.24290
 O1113 O 0.24375 0.71655 0.24750
 O1114 O 0.25500 0.74916 0.22559
 C1115 C 0.33263 0.73852 0.28790
 C1116 C 0.29949 0.79951 0.26391
 C1117 C 0.27692 0.71953 0.31651
 O1118 O 0.28182 0.67610 0.27939
 O1119 O 0.25043 0.67608 0.25674
 O1120 O 0.24800 0.68469 0.22163
 C1121 C 0.24512 0.67166 0.23756
 O1122 O 0.22797 0.77225 0.27801
 Zr1123 Zr 0.23696 0.74943 0.25381
 O1124 O 0.23119 0.71783 0.20761
 O1125 O 0.23394 0.69669 0.28696
 O1126 O 0.21081 0.73505 0.27152
 O1127 O 0.22403 0.77807 0.24000
 O1128 O 0.21314 0.73904 0.23204
 C1129 C 0.21395 0.72711 0.21510
 O1130 O 0.27798 0.69431 0.19794
 O1131 O 0.31528 0.77471 0.21576
 O1132 O 0.26688 0.73059 0.18913
 O1133 O 0.28343 0.76354 0.19611
 O1134 O 0.33906 0.73551 0.23185
 O1135 O 0.32136 0.70153 0.21955
 C1136 C 0.27578 0.74894 0.18331
 H1137 H 0.31807 0.76181 0.25418
 H1138 H 0.28598 0.68689 0.23915
 H1139 H 0.24660 0.75583 0.21404
 H1140 H 0.24686 0.73746 0.29193
 H1141 H 0.33860 0.69006 0.25666
 H1142 H 0.27221 0.66702 0.28870
 H1143 H 0.23590 0.68238 0.29404
 H1144 H 0.19720 0.74235 0.26725
 H1145 H 0.35206 0.72740 0.23652
 H1146 H 0.31336 0.78911 0.20885
 H1147 H 0.27625 0.80174 0.20968
 H1148 H 0.20791 0.77717 0.24154
 H1149 H 0.33657 0.69664 0.22140
 H1150 H 0.26691 0.69020 0.18729
 H1151 H 0.28023 0.77843 0.31381
 H1152 H 0.21206 0.77486 0.27756
 Zr1153 Zr 0.22900 0.76672 0.72304
 O1154 O 0.24504 0.78759 0.70087
 O1155 O 0.19767 0.76405 0.71055
 O1156 O 0.23111 0.75134 0.69283
 O1157 O 0.21792 0.80805 0.75951
 O1158 O 0.24523 0.71777 0.70009
 O1159 O 0.21598 0.79869 0.72443
 O1160 O 0.18028 0.73982 0.73274
 O1161 O 0.22103 0.73375 0.72862
 O1162 O 0.20979 0.76604 0.75080
 O1163 O 0.25906 0.75064 0.72556
 O1164 O 0.24813 0.78204 0.74656
 Zr1165 Zr 0.25085 0.73075 0.78421
 Zr1166 Zr 0.25083 0.71808 0.73280
 Zr1167 Zr 0.22912 0.77958 0.77452
 Zr1168 Zr 0.20285 0.73322 0.75686
 O1169 O 0.24730 0.80725 0.78481
 O1170 O 0.19228 0.70262 0.74430
 O1171 O 0.22068 0.74698 0.78199
 O1172 O 0.23183 0.71579 0.76064
 O1173 O 0.27033 0.73134 0.75660
 O1174 O 0.25875 0.76370 0.77845
 C1175 C 0.18112 0.75227 0.71627
 C1176 C 0.21324 0.81216 0.74009
 C1177 C 0.23754 0.73200 0.68730
 O1178 O 0.23379 0.68878 0.72513
 O1179 O 0.26617 0.69150 0.74714
 O1180 O 0.26586 0.69956 0.78252
 C1181 C 0.27069 0.68712 0.76650
 O1182 O 0.28606 0.78744 0.72667
 Zr1183 Zr 0.27709 0.76427 0.75042
 O1184 O 0.28224 0.73303 0.79649
 O1185 O 0.28052 0.71180 0.71626
 O1186 O 0.30342 0.75078 0.73254
 O1187 O 0.28988 0.79303 0.76492
 O1188 O 0.30085 0.75385 0.77205
 C1189 C 0.29972 0.74202 0.78895
 O1190 O 0.23530 0.70864 0.80554
 O1191 O 0.19846 0.78751 0.78838
 O1192 O 0.24649 0.74505 0.81460
 O1193 O 0.23091 0.77811 0.80780
 O1194 O 0.17487 0.74705 0.77182
 O1195 O 0.19272 0.71364 0.78310
 C1196 C 0.23835 0.76360 0.82050
 H1197 H 0.19602 0.77427 0.74961
 H1198 H 0.22846 0.70032 0.76426
 H1199 H 0.26709 0.77061 0.79007
 H1200 H 0.26761 0.75166 0.71210
 H1201 H 0.17610 0.70241 0.74494
 H1202 H 0.24367 0.67998 0.71590
 H1203 H 0.27898 0.69714 0.70951
 H1204 H 0.31695 0.75842 0.73702
 H1205 H 0.16200 0.73844 0.76712
 H1206 H 0.20023 0.80203 0.79535
 H1207 H 0.23731 0.81621 0.79379
 H1208 H 0.30600 0.79236 0.76362
 H1209 H 0.17792 0.70761 0.78056
 H1210 H 0.24617 0.70481 0.81637
 H1211 H 0.23417 0.79145 0.69006
 H1212 H 0.30190 0.79070 0.72745
 Zr1213 Zr 0.27658 0.23376 0.21913
 O1214 O 0.26647 0.21014 0.19647
 O1215 O 0.30688 0.24369 0.20661
 O1216 O 0.27250 0.24850 0.18925
 O1217 O 0.29621 0.19708 0.25565
 O1218 O 0.25024 0.27761 0.19621
 O1219 O 0.29585 0.20503 0.22031
 O1220 O 0.31778 0.27093 0.22924
 O1221 O 0.27636 0.26767 0.22490
 O1222 O 0.29424 0.23913 0.24680
 O1223 O 0.24347 0.24246 0.22161
 O1224 O 0.26078 0.21453 0.24261
 Zr1225 Zr 0.24460 0.26351 0.28049
 Zr1226 Zr 0.24350 0.27604 0.22909
 Zr1227 Zr 0.27773 0.22169 0.27052
 Zr1228 Zr 0.29304 0.27259 0.25306
 O1229 O 0.26638 0.19050 0.28071
 O1230 O 0.29672 0.30448 0.24011
 O1231 O 0.27794 0.25522 0.27818
 O1232 O 0.26056 0.28250 0.25700
 O1233 O 0.22670 0.25849 0.25284
 O1234 O 0.24498 0.22977 0.27442
 C1235 C 0.32028 0.25872 0.21261
 C1236 C 0.30174 0.19334 0.23620
 C1237 C 0.26200 0.26568 0.18362
 O1238 O 0.25365 0.30835 0.22125
 O1239 O 0.22260 0.29907 0.24394
 O1240 O 0.22357 0.29068 0.27916
 C1241 C 0.21705 0.30231 0.26353
 O1242 O 0.22586 0.20079 0.22195
 Zr1243 Zr 0.22828 0.22491 0.24633
 O1244 O 0.21398 0.25362 0.29254
 O1245 O 0.21347 0.27501 0.21304
 O1246 O 0.19985 0.23218 0.22910
 O1247 O 0.22242 0.19356 0.25987
 O1248 O 0.20230 0.22811 0.26851
 C1249 C 0.19979 0.23988 0.28537
 O1250 O 0.25372 0.28835 0.30236
 O1251 O 0.30896 0.22153 0.28438
 O1252 O 0.25083 0.25053 0.31084
 O1253 O 0.27477 0.22290 0.30372
 O1254 O 0.32270 0.26583 0.26848
 O1255 O 0.29738 0.29456 0.27900
 C1256 C 0.26341 0.23488 0.31656
 H1257 H 0.30960 0.23431 0.24555
 H1258 H 0.26026 0.29830 0.26075
 H1259 H 0.23819 0.22097 0.28597
 H1260 H 0.23588 0.23947 0.20813
 H1261 H 0.31242 0.30849 0.24068
 H1262 H 0.24228 0.31450 0.21206
 H1263 H 0.21179 0.28954 0.20630
 H1264 H 0.18841 0.22137 0.23334
 H1265 H 0.33360 0.27697 0.26373
 H1266 H 0.31052 0.20710 0.29136
 H1267 H 0.27789 0.18435 0.28971
 H1268 H 0.20670 0.19006 0.25820
 H1269 H 0.31056 0.30376 0.27636
 H1270 H 0.24182 0.28941 0.31319
 H1271 H 0.27843 0.20888 0.18573
 H1272 H 0.21101 0.19422 0.22225
 Zr1273 Zr 0.72699 0.72633 0.28442
 O1274 O 0.74242 0.70773 0.30801
 O1275 O 0.69482 0.72764 0.29612
 O1276 O 0.72695 0.74358 0.31378
 O1277 O 0.71990 0.68271 0.24975
 O1278 O 0.74022 0.77757 0.30513
 O1279 O 0.71544 0.69335 0.28434
 O1280 O 0.67767 0.74866 0.27175
 O1281 O 0.71821 0.75851 0.27701
 O1282 O 0.70952 0.72442 0.25623
 O1283 O 0.75655 0.74410 0.28155
 O1284 O 0.74803 0.71099 0.26200
 Zr1285 Zr 0.75089 0.76016 0.22185
 Zr1286 Zr 0.74767 0.77580 0.27249
 Zr1287 Zr 0.73068 0.71089 0.23355
 Zr1288 Zr 0.70165 0.75641 0.24845
 O1289 O 0.75076 0.68414 0.22478
 O1290 O 0.68909 0.78656 0.26011
 O1291 O 0.72129 0.74240 0.22435
 O1292 O 0.73013 0.77534 0.24428
 O1293 O 0.76887 0.76227 0.24970
 O1294 O 0.75992 0.72821 0.22931
 C1295 C 0.67797 0.73732 0.28893
 C1296 C 0.71422 0.67904 0.26917
 C1297 C 0.73243 0.76352 0.31851
 O1298 O 0.72922 0.80449 0.27816
 O1299 O 0.76328 0.80236 0.25683
 O1300 O 0.76443 0.79199 0.22197
 C1301 C 0.76840 0.80556 0.23716
 O1302 O 0.78451 0.70858 0.28273
 Zr1303 Zr 0.77647 0.73021 0.25777
 O1304 O 0.78286 0.75958 0.20973
 O1305 O 0.77612 0.78458 0.28926
 O1306 O 0.80112 0.74589 0.27579
 O1307 O 0.79128 0.70172 0.24473
 O1308 O 0.80142 0.74118 0.23669
 C1309 C 0.80176 0.75262 0.21814
 O1310 O 0.73540 0.78020 0.19939
 O1311 O 0.70120 0.69988 0.21984
 O1312 O 0.74835 0.74434 0.19212
 O1313 O 0.73348 0.71090 0.20022
 O1314 O 0.67539 0.74046 0.23296
 O1315 O 0.69232 0.77464 0.22149
 C1316 C 0.74075 0.72531 0.18694
 H1317 H 0.69606 0.71536 0.25747
 H1318 H 0.72638 0.79037 0.23980
 H1319 H 0.76919 0.72140 0.21809
 H1320 H 0.76435 0.74429 0.29518
 H1321 H 0.67297 0.78572 0.25917
 H1322 H 0.73828 0.81434 0.28704
 H1323 H 0.77375 0.79954 0.29507
 H1324 H 0.81513 0.73862 0.27225
 H1325 H 0.66186 0.74842 0.23689
 H1326 H 0.70407 0.68519 0.21359
 H1327 H 0.74168 0.67404 0.21617
 H1328 H 0.80724 0.70331 0.24664
 H1329 H 0.67727 0.78011 0.22370
 H1330 H 0.74653 0.78419 0.18842
 H1331 H 0.73103 0.70381 0.31875
 H1332 H 0.80046 0.70607 0.28250
 Zr1333 Zr 0.78259 0.26054 0.78127
 O1334 O 0.76842 0.28136 0.80465
 O1335 O 0.81363 0.25482 0.79361
 O1336 O 0.77985 0.24443 0.81073
 O1337 O 0.79527 0.30253 0.74654
 O1338 O 0.76298 0.21191 0.80281
 O1339 O 0.79721 0.29217 0.78118
 O1340 O 0.82876 0.23059 0.76995
 O1341 O 0.78789 0.22739 0.77422
 O1342 O 0.80151 0.25972 0.75337
 O1343 O 0.75131 0.24625 0.77855
 O1344 O 0.76427 0.27748 0.75861
 Zr1345 Zr 0.75734 0.22782 0.71904
 Zr1346 Zr 0.75695 0.21349 0.77004
 Zr1347 Zr 0.78285 0.27491 0.73043
 Zr1348 Zr 0.80570 0.22674 0.74576
 O1349 O 0.76666 0.30358 0.72065
 O1350 O 0.81427 0.19506 0.75638
 O1351 O 0.78868 0.24222 0.72148
 O1352 O 0.77542 0.21111 0.74182
 O1353 O 0.73823 0.22852 0.74691
 O1354 O 0.75202 0.26092 0.72618
 C1355 C 0.82891 0.24186 0.78727
 C1356 C 0.80001 0.30617 0.76609
 C1357 C 0.77209 0.22543 0.81581
 O1358 O 0.77198 0.18317 0.77642
 O1359 O 0.73970 0.18813 0.75475
 O1360 O 0.74019 0.19748 0.71974
 C1361 C 0.73477 0.18468 0.73523
 O1362 O 0.72687 0.28425 0.77925
 Zr1363 Zr 0.73398 0.26154 0.75440
 O1364 O 0.72611 0.23230 0.70715
 O1365 O 0.72701 0.20842 0.78664
 O1366 O 0.70687 0.24879 0.77189
 O1367 O 0.72336 0.29155 0.74139
 O1368 O 0.70928 0.25346 0.73247
 C1369 C 0.70942 0.24216 0.71508
 O1370 O 0.77091 0.20555 0.69664
 O1371 O 0.81414 0.28194 0.71723
 O1372 O 0.76255 0.24287 0.68914
 O1373 O 0.78153 0.27419 0.69715
 O1374 O 0.83449 0.23979 0.73127
 O1375 O 0.81394 0.20779 0.71840
 C1376 C 0.77275 0.26072 0.68392
 H1377 H 0.81580 0.26723 0.75492
 H1378 H 0.77763 0.19562 0.73754
 H1379 H 0.74419 0.26866 0.71488
 H1380 H 0.74302 0.24735 0.79214
 H1381 H 0.83038 0.19392 0.75525
 H1382 H 0.76158 0.17465 0.78544
 H1383 H 0.72754 0.19351 0.79280
 H1384 H 0.69388 0.25730 0.76788
 H1385 H 0.84676 0.23031 0.73536
 H1386 H 0.81335 0.29669 0.71077
 H1387 H 0.77736 0.31225 0.71211
 H1388 H 0.70723 0.29178 0.74280
 H1389 H 0.82854 0.20127 0.72015
 H1390 H 0.75967 0.20277 0.68578
 H1391 H 0.77968 0.28424 0.81547
 H1392 H 0.71127 0.28831 0.77882
 C1393 C 0.40560 1.02093 0.31021
 C1394 C 0.40994 1.03816 0.32445
 C1395 C 0.42055 1.03532 0.34523
 C1396 C 0.41715 1.05149 0.36085
 C1397 C 0.42646 1.04965 0.38078
 C1398 C 0.43974 1.03179 0.38556
 C1399 C 0.44359 1.01570 0.36986
 C1400 C 0.43410 1.01746 0.34984
 C1401 C 0.44814 1.03027 0.40739
 C1402 C 0.46560 1.01727 0.41361
 H1403 H 0.40474 1.05460 0.32103
 H1404 H 0.40695 1.06549 0.35773
 H1405 H 0.42320 1.06228 0.39257
 H1406 H 0.45352 1.00156 0.37305
 H1407 H 0.43760 1.00493 0.33808
 H1408 H 0.44028 1.04058 0.41928
 H1409 H 0.41089 1.00466 0.31444
 H1410 H 0.47483 1.00783 0.40203
 C1411 C -0.08771 0.53536 0.80406
 C1412 C -0.07398 0.51999 0.81334
 C1413 C -0.06379 0.52406 0.83419
 C1414 C -0.04407 0.51378 0.83898
 C1415 C -0.03433 0.51713 0.85871
 C1416 C -0.04429 0.53076 0.87410
 C1417 C -0.06411 0.54082 0.86932
 C1418 C -0.07380 0.53747 0.84969
 C1419 C -0.03569 0.53396 0.89576
 C1420 C -0.01550 0.52662 0.90280
 H1421 H -0.06954 0.50513 0.80496
 H1422 H -0.03619 0.50313 0.82741
 H1423 H -0.01933 0.50866 0.86185
 H1424 H -0.07236 0.55110 0.88097
 H1425 H -0.08942 0.54500 0.84700
 H1426 H -0.04642 0.54206 0.90713
 H1427 H -0.08943 0.55105 0.81207
 H1428 H -0.00384 0.51926 0.89190
 C1429 C 0.08239 -0.03270 0.80300
 C1430 C 0.07151 -0.01629 0.81455
 C1431 C 0.05993 -0.02027 0.83512
 C1432 C 0.04492 -0.00468 0.84275
 C1433 C 0.03498 -0.00696 0.86282
 C1434 C 0.03998 -0.02489 0.87576
 C1435 C 0.05483 -0.04055 0.86805
 C1436 C 0.06470 -0.03833 0.84801
 C1437 C 0.03172 -0.02695 0.89794
 C1438 C 0.01380 -0.01565 0.90647
 H1439 H 0.07200 0.00042 0.80888
 H1440 H 0.04118 0.00955 0.83330
 H1441 H 0.02407 0.00578 0.86836
 H1442 H 0.05922 -0.05436 0.87780
 H1443 H 0.07667 -0.05036 0.84318
 H1444 H 0.04058 -0.03778 0.90823
 H1445 H 0.08126 -0.04947 0.80846
 H1446 H 0.00358 -0.00600 0.89635
 C1447 C 0.59633 0.46452 0.30248
 C1448 C 0.57920 0.47826 0.30882
 C1449 C 0.56996 0.47872 0.33076
 C1450 C 0.54886 0.48696 0.33436
 C1451 C 0.53979 0.48791 0.35492
 C1452 C 0.55181 0.48079 0.37237
 C1453 C 0.57295 0.47272 0.36873
 C1454 C 0.58199 0.47179 0.34825
 C1455 C 0.54329 0.48128 0.39457
 C1456 C 0.52395 0.49134 0.40155
 H1457 H 0.57151 0.48840 0.29712
 H1458 H 0.53929 0.49255 0.32118
 H1459 H 0.52340 0.49407 0.35690
 H1460 H 0.58268 0.46726 0.38185
 H1461 H 0.59855 0.46603 0.34633
 H1462 H 0.55336 0.47363 0.40635
 H1463 H 0.60213 0.45242 0.31350
 H1464 H 0.51352 0.49956 0.39053
 C1465 C 0.59336 0.51856 0.17936
 C1466 C 0.57639 0.50420 0.17380
 C1467 C 0.56717 0.50367 0.15218
 C1468 C 0.54554 0.49651 0.14925
 C1469 C 0.53650 0.49609 0.12894
 C1470 C 0.54912 0.50262 0.11114
 C1471 C 0.57086 0.50930 0.11413
 C1472 C 0.57981 0.50974 0.13432
 C1473 C 0.54070 0.50309 0.08920
 C1474 C 0.52008 0.49581 0.08268
 H1475 H 0.56888 0.49382 0.18580
 H1476 H 0.53552 0.49153 0.16275
 H1477 H 0.51971 0.49083 0.12739
 H1478 H 0.58107 0.51419 0.10073
 H1479 H 0.59677 0.51456 0.13577
 H1480 H 0.55184 0.50959 0.07720
 H1481 H 0.59874 0.53083 0.16801
 H1482 H 0.50845 0.48878 0.09387
 C1483 C 0.08337 1.03277 0.69247
 C1484 C 0.06960 1.01588 0.68519
 C1485 C 0.05989 1.01615 0.66374
 C1486 C 0.04084 1.00385 0.65977
 C1487 C 0.03177 1.00335 0.63947
 C1488 C 0.04179 1.01503 0.62266
 C1489 C 0.06092 1.02713 0.62667
 C1490 C 0.06993 1.02761 0.64684
 C1491 C 0.03347 1.01508 0.60066
 C1492 C 0.01525 1.00341 0.59330
 H1493 H 0.06540 1.00213 0.69523
 H1494 H 0.03292 0.99465 0.67244
 H1495 H 0.01707 0.99375 0.63714
 H1496 H 0.06916 1.03610 0.61403
 H1497 H 0.08509 1.03655 0.64890
 H1498 H 0.04271 1.02490 0.58930
 H1499 H 0.08492 1.04730 0.68272
 H1500 H 0.00534 0.99345 0.60391
 C1501 C -0.08187 0.47399 0.68907
 C1502 C -0.08608 0.46060 0.67150
 C1503 C -0.07421 0.46226 0.65091
 C1504 C -0.08392 0.45289 0.63299
 C1505 C -0.07366 0.45423 0.61313
 C1506 C -0.05336 0.46487 0.61065
 C1507 C -0.04331 0.47390 0.62867
 C1508 C -0.05362 0.47254 0.64864
 C1509 C -0.04385 0.46634 0.58893
 C1510 C -0.02436 0.47714 0.58328
 H1511 H -0.09989 0.44941 0.67216
 H1512 H -0.09967 0.44472 0.63430
 H1513 H -0.08177 0.44705 0.59957
 H1514 H -0.02759 0.48203 0.62759
 H1515 H -0.04528 0.47937 0.66217
 H1516 H -0.05332 0.45886 0.57639
 H1517 H -0.06973 0.48694 0.68775
 H1518 H -0.01407 0.48457 0.59513
 C1519 C 0.39974 -0.02324 0.18502
 C1520 C 0.41467 -0.00687 0.17902
 C1521 C 0.42159 -0.00362 0.15667
 C1522 C 0.44235 0.00524 0.15208
 C1523 C 0.44954 0.00781 0.13104
 C1524 C 0.43586 0.00184 0.11419
 C1525 C 0.41487 -0.00640 0.11887
 C1526 C 0.40774 -0.00902 0.13984
 C1527 C 0.44294 0.00282 0.09163
 C1528 C 0.46206 0.01304 0.08415
 H1529 H 0.42260 0.00297 0.19104
 H1530 H 0.45322 0.00969 0.16481
 H1531 H 0.46592 0.01398 0.12822
 H1532 H 0.40394 -0.01099 0.10622
 H1533 H 0.39134 -0.01514 0.14279
 H1534 H 0.43250 -0.00532 0.08025
 H1535 H 0.39421 -0.03486 0.17315
 H1536 H 0.47244 0.02226 0.09472
 C1537 C 0.31315 0.38839 0.01817
 C1538 C 0.31745 0.40692 0.00568
 C1539 C 0.33911 0.41800 0.00387
 C1540 C 0.34317 0.43184 -0.01350
 C1541 C 0.36305 0.44309 -0.01572
 C1542 C 0.37931 0.44109 -0.00045
 C1543 C 0.37533 0.42722 0.01702
 C1544 C 0.35541 0.41584 0.01918
 C1545 C 0.40017 0.45332 -0.00376
 C1546 C 0.41550 0.45744 0.01203
 H1547 H 0.30439 0.41384 -0.00337
 H1548 H 0.33091 0.43390 -0.02550
 H1549 H 0.36568 0.45355 -0.02939
 H1550 H 0.38754 0.42487 0.02895
 H1551 H 0.35282 0.40573 0.03306
 H1552 H 0.40330 0.46002 -0.01943
 H1553 H 0.32616 0.38149 0.02730
 H1554 H 0.41249 0.45187 0.02809
 C1555 C -0.19475 0.89201 0.51025
 C1556 C -0.17653 0.89393 0.52344
 C1557 C -0.15678 0.90760 0.51845
 C1558 C -0.13784 0.90444 0.53031
 C1559 C -0.11912 0.91740 0.52682
 C1560 C -0.11892 0.93402 0.51141
 C1561 C -0.13774 0.93706 0.49941
 C1562 C -0.15652 0.92418 0.50297
 C1563 C -0.09941 0.94812 0.50711
 C1564 C -0.08298 0.95215 0.52185
 H1565 H -0.17612 0.88491 0.53810
 H1566 H -0.13749 0.89183 0.54234
 H1567 H -0.10480 0.91410 0.53603
 H1568 H -0.13806 0.94973 0.48744
 H1569 H -0.17079 0.92771 0.49382
 H1570 H -0.09850 0.95655 0.49202
 H1571 H -0.19376 0.89988 0.49493
 H1572 H -0.08431 0.94515 0.53756
 C1573 C -0.18208 0.10570 0.98327
 C1574 C -0.17899 0.08705 0.99564
 C1575 C -0.15836 0.07441 0.99573
 C1576 C -0.15435 0.06083 1.01309
 C1577 C -0.13533 0.04839 1.01379
 C1578 C -0.11997 0.04892 0.99699
 C1579 C -0.12401 0.06236 0.97943
 C1580 C -0.14304 0.07493 0.97878
 C1581 C -0.09979 0.03582 0.99893
 C1582 C -0.08539 0.03063 0.98216
 H1583 H -0.19221 0.08125 1.00582
 H1584 H -0.16590 0.05996 1.02628
 H1585 H -0.13265 0.03825 1.02754
 H1586 H -0.11249 0.06350 0.96629
 H1587 H -0.14576 0.08470 0.96483
 H1588 H -0.09631 0.02956 1.01456
 H1589 H -0.16882 0.11157 0.97319
 H1590 H -0.08883 0.03562 0.96614
 C1591 C 0.31775 0.61004 0.49266
 C1592 C 0.33127 0.60161 0.47647
 C1593 C 0.35141 0.58893 0.48006
 C1594 C 0.36624 0.58610 0.46303
 C1595 C 0.38509 0.57364 0.46534
 C1596 C 0.38941 0.56347 0.48479
 C1597 C 0.37464 0.56641 0.50185
 C1598 C 0.35582 0.57890 0.49954
 C1599 C 0.40903 0.54991 0.48819
 C1600 C 0.42324 0.54253 0.47209
 H1601 H 0.32685 0.60404 0.46012
 H1602 H 0.36326 0.59363 0.44783
 H1603 H 0.39615 0.57225 0.45187
 H1604 H 0.37753 0.55878 0.51701
 H1605 H 0.34465 0.58015 0.51295
 H1606 H 0.41220 0.54511 0.50437
 H1607 H 0.32175 0.60739 0.50908
 H1608 H 0.42044 0.54645 0.45567
 C1609 C 0.18578 0.59947 0.51667
 C1610 C 0.17076 0.58977 0.53080
 C1611 C 0.15164 0.57659 0.52397
 C1612 C 0.13394 0.57402 0.53819
 C1613 C 0.11561 0.56161 0.53256
 C1614 C 0.11474 0.55115 0.51261
 C1615 C 0.13244 0.55374 0.49837
 C1616 C 0.15077 0.56619 0.50399
 C1617 C 0.09554 0.53799 0.50593
 C1618 C 0.08030 0.52900 0.52022
 H1619 H 0.17271 0.59209 0.54769
 H1620 H 0.13417 0.58188 0.55366
 H1621 H 0.10209 0.56066 0.54379
 H1622 H 0.13218 0.54588 0.48290
 H1623 H 0.16428 0.56722 0.49277
 H1624 H 0.09359 0.53491 0.48910
 H1625 H 0.18378 0.59714 0.49979
 H1626 H 0.08258 0.53078 0.53712
 C1627 C 0.68565 0.09971 0.01473
 C1628 C 0.66509 0.10405 0.02378
 C1629 C 0.64447 0.09284 0.01754
 C1630 C 0.62576 0.09580 0.03039
 C1631 C 0.60596 0.08555 0.02538
 C1632 C 0.60441 0.07193 0.00733
 C1633 C 0.62296 0.06941 -0.00583
 C1634 C 0.64276 0.07971 -0.00085
 C1635 C 0.58394 0.06015 0.00160
 C1636 C 0.56630 0.05691 0.01565
 H1637 H 0.66386 0.11637 0.03618
 H1638 H 0.62645 0.10607 0.04446
 H1639 H 0.59201 0.08861 0.03566
 H1640 H 0.62219 0.05929 -0.02000
 H1641 H 0.65644 0.07738 -0.01163
 H1642 H 0.58325 0.05264 -0.01401
 H1643 H 0.68716 0.08795 0.00191
 H1644 H 0.56686 0.06336 0.03164
 C1645 C 0.67516 0.90050 0.48649
 C1646 C 0.66045 0.90898 0.47190
 C1647 C 0.64100 0.92237 0.47772
 C1648 C 0.62451 0.92469 0.46271
 C1649 C 0.60600 0.93731 0.46721
 C1650 C 0.60362 0.94825 0.48685
 C1651 C 0.62013 0.94594 0.50187
 C1652 C 0.63863 0.93324 0.49739
 C1653 C 0.58419 0.96179 0.49250
 C1654 C 0.56862 0.96862 0.47798
 H1655 H 0.66297 0.90559 0.45519
 H1656 H 0.62585 0.91652 0.44743
 H1657 H 0.59361 0.93810 0.45526
 H1658 H 0.61880 0.95415 0.51713
 H1659 H 0.65110 0.93241 0.50927
 H1660 H 0.58227 0.96693 0.50892
 H1661 H 0.67279 0.90408 0.50319
 H1662 H 0.57041 0.96448 0.46135
 C1663 C 0.18438 0.40705 0.98781
 C1664 C 0.17268 0.41843 0.97252
 C1665 C 0.15373 0.43282 0.97725
 C1666 C 0.14023 0.43864 0.96046
 C1667 C 0.12211 0.45206 0.96392
 C1668 C 0.11716 0.46029 0.98436
 C1669 C 0.13076 0.45460 1.00114
 C1670 C 0.14888 0.44109 0.99768
 C1671 C 0.09773 0.47412 0.98901
 C1672 C 0.08479 0.48355 0.97348
 H1673 H 0.17738 0.41657 0.95599
 H1674 H 0.14354 0.43253 0.94455
 H1675 H 0.11197 0.45549 0.95052
 H1676 H 0.12739 0.46066 1.01705
 H1677 H 0.15904 0.43750 1.01103
 H1678 H 0.09327 0.47680 1.00554
 H1679 H 0.18033 0.40921 1.00444
 H1680 H 0.08908 0.48184 0.95686
 C1681 C 0.01076 0.31816 0.36823
 C1682 C 0.02201 0.33791 0.36517
 C1683 C 0.01482 0.35814 0.37594
 C1684 C 0.03065 0.37165 0.38525
 C1685 C 0.02437 0.38882 0.39864
 C1686 C 0.00215 0.39294 0.40258
 C1687 C -0.01369 0.38069 0.39183
 C1688 C -0.00741 0.36320 0.37870
 C1689 C -0.00445 0.40928 0.41860
 C1690 C 0.00585 0.41001 0.43811
 H1691 H 0.03800 0.33802 0.35762
 H1692 H 0.04786 0.36816 0.38312
 H1693 H 0.03686 0.39854 0.40636
 H1694 H -0.03089 0.38395 0.39443
 H1695 H -0.01992 0.35335 0.37117
 H1696 H -0.01781 0.42022 0.41533
 H1697 H -0.00534 0.31841 0.37561
 H1698 H 0.01782 0.39765 0.44173
 C1699 C 0.50849 -0.18266 -0.11414
 C1700 C 0.52232 -0.16914 -0.10239
 C1701 C 0.51530 -0.14867 -0.09179
 C1702 C 0.52818 -0.14024 -0.07544
 C1703 C 0.52221 -0.12111 -0.06472
 C1704 C 0.50309 -0.11002 -0.07011
 C1705 C 0.49053 -0.11805 -0.08690
 C1706 C 0.49653 -0.13723 -0.09768
 C1707 C 0.49643 -0.08962 -0.05916
 C1708 C 0.50319 -0.08426 -0.03876
 H1709 H 0.53868 -0.17464 -0.09924
 H1710 H 0.54294 -0.14852 -0.07088
 H1711 H 0.53289 -0.11493 -0.05254
 H1712 H 0.47599 -0.10949 -0.09164
 H1713 H 0.48659 -0.14277 -0.11070
 H1714 H 0.48590 -0.07849 -0.06746
 H1715 H 0.49139 -0.17865 -0.11531
 H1716 H 0.51260 -0.09575 -0.02974
 C1717 C -0.00482 -0.17751 1.13647
 C1718 C -0.02089 -0.16531 1.12665
 C1719 C -0.01567 -0.14684 1.11227
 C1720 C -0.03019 -0.14220 1.09599
 C1721 C -0.02532 -0.12576 1.08128
 C1722 C -0.00578 -0.11355 1.08262
 C1723 C 0.00829 -0.11752 1.09946
 C1724 C 0.00346 -0.13406 1.11415
 C1725 C -0.00020 -0.09599 1.06732
 C1726 C -0.00839 -0.09562 1.04681
 H1727 H -0.03761 -0.17126 1.12714
 H1728 H -0.04520 -0.15157 1.09443
 H1729 H -0.03706 -0.12253 1.06910
 H1730 H 0.02317 -0.10795 1.10113
 H1731 H 0.01466 -0.13667 1.12696
 H1732 H 0.01056 -0.08286 1.07248
 H1733 H 0.01217 -0.17303 1.13400
 H1734 H -0.01816 -0.10922 1.04104
 C1735 C 0.49069 0.32622 0.62603
 C1736 C 0.47486 0.33812 0.61553
 C1737 C 0.48033 0.35730 0.60213
 C1738 C 0.46679 0.36213 0.58512
 C1739 C 0.47207 0.37929 0.57131
 C1740 C 0.49106 0.39202 0.57431
 C1741 C 0.50408 0.38783 0.59189
 C1742 C 0.49883 0.37061 0.60568
 C1743 C 0.49726 0.41022 0.55993
 C1744 C 0.49026 0.41140 0.53901
 H1745 H 0.45838 0.33161 0.61483
 H1746 H 0.45224 0.35236 0.58228
 H1747 H 0.46107 0.38261 0.55851
 H1748 H 0.51849 0.39776 0.59483
 H1749 H 0.50921 0.36789 0.61910
 H1750 H 0.50778 0.42309 0.56604
 H1751 H 0.50763 0.33133 0.62464
 H1752 H 0.48062 0.39820 0.53229
 C1753 C 0.53088 1.20024 0.60977
 C1754 C 0.51193 1.19309 0.59972
 C1755 C 0.51146 1.17448 0.58451
 C1756 C 0.49157 1.16346 0.58133
 C1757 C 0.49047 1.14536 0.56770
 C1758 C 0.50931 1.13792 0.55690
 C1759 C 0.52897 1.14958 0.55923
 C1760 C 0.53010 1.16768 0.57295
 C1761 C 0.50882 1.11799 0.54339
 C1762 C 0.49468 1.10051 0.54793
 H1763 H 0.49640 1.20017 0.60423
 H1764 H 0.47688 1.16867 0.58966
 H1765 H 0.47483 1.13731 0.56561
 H1766 H 0.54359 1.14439 0.55075
 H1767 H 0.54553 1.17631 0.57431
 H1768 H 0.52088 1.11633 0.53071
 H1769 H 0.54590 1.19140 0.60692
 H1770 H 0.48397 1.10138 0.56175
 C1771 C 0.02847 0.69633 1.11733
 C1772 C 0.00986 0.69210 1.10535
 C1773 C 0.00956 0.67486 1.08879
 C1774 C -0.00999 0.66357 1.08475
 C1775 C -0.01052 0.64670 1.06965
 C1776 C 0.00853 0.64099 1.05818
 C1777 C 0.02779 0.65303 1.06147
 C1778 C 0.02836 0.66977 1.07668
 C1779 C 0.00890 0.62254 1.04288
 C1780 C -0.00461 0.60415 1.04525
 H1781 H -0.00533 0.70033 1.10883
 H1782 H -0.02478 0.66755 1.09358
 H1783 H -0.02586 0.63827 1.06695
 H1784 H 0.04256 0.64918 1.05254
 H1785 H 0.04349 0.67878 1.07883
 H1786 H 0.02148 0.62254 1.03057
 H1787 H 0.04227 0.68554 1.11488
 H1788 H -0.01612 0.60325 1.05845
 C1789 C 0.47504 0.68712 -0.11002
 C1790 C 0.49155 0.68179 -0.09592
 C1791 C 0.49008 0.66246 -0.08195
 C1792 C 0.50939 0.65216 -0.07608
 C1793 C 0.50863 0.63351 -0.06336
 C1794 C 0.48847 0.62493 -0.05612
 C1795 C 0.46921 0.63583 -0.06110
 C1796 C 0.46995 0.65441 -0.07401
 C1797 C 0.48724 0.60452 -0.04369
 C1798 C 0.50164 0.58739 -0.04767
 H1799 H 0.50679 0.69083 -0.09588
 H1800 H 0.52510 0.65836 -0.08164
 H1801 H 0.52382 0.62586 -0.05917
 H1802 H 0.45354 0.62968 -0.05538
 H1803 H 0.45481 0.66249 -0.07759
 H1804 H 0.47370 0.60218 -0.03260
 H1805 H 0.46126 0.67592 -0.11110
 H1806 H 0.51378 0.58892 -0.06030
 C1807 C -0.00899 1.18368 0.38209
 C1808 C -0.02445 1.16728 0.38677
 C1809 C -0.01969 1.14925 0.40148
 C1810 C -0.03655 1.14061 0.41435
 C1811 C -0.03240 1.12372 0.42859
 C1812 C -0.01129 1.11503 0.42999
 C1813 C 0.00541 1.12330 0.41670
 C1814 C 0.00131 1.14031 0.40264
 C1815 C -0.00644 1.09646 0.44401
 C1816 C -0.01855 1.09145 0.46235
 H1817 H -0.04107 1.16863 0.38151
 H1818 H -0.05293 1.14705 0.41348
 H1819 H -0.04584 1.11720 0.43806
 H1820 H 0.02169 1.11655 0.41720
 H1821 H 0.01449 1.14615 0.39242
 H1822 H 0.00741 1.08633 0.43967
 H1823 H 0.00633 1.18317 0.39041
 H1824 H -0.03140 1.10225 0.46788
 C1825 C 0.77316 0.66432 0.93996
 C1826 C 0.75626 0.67681 0.93161
 C1827 C 0.75749 0.68635 0.91002
 C1828 C 0.74509 0.70495 0.90544
 C1829 C 0.74563 0.71407 0.88509
 C1830 C 0.75850 0.70457 0.86881
 C1831 C 0.77069 0.68584 0.87341
 C1832 C 0.77015 0.67676 0.89368
 C1833 C 0.75959 0.71303 0.84678
 C1834 C 0.74811 0.73104 0.83915
 H1835 H 0.74209 0.68085 0.94124
 H1836 H 0.73502 0.71250 0.91770
 H1837 H 0.73588 0.72842 0.88233
 H1838 H 0.78057 0.67800 0.86116
 H1839 H 0.77930 0.66196 0.89630
 H1840 H 0.76994 0.70410 0.83567
 H1841 H 0.78816 0.66317 0.93067
 H1842 H 0.73767 0.74063 0.84954
 C1843 C 0.26588 0.16591 0.44144
 C1844 C 0.28312 0.16967 0.42691
 C1845 C 0.28156 0.18274 0.40714
 C1846 C 0.29995 0.18354 0.39355
 C1847 C 0.29935 0.19465 0.37429
 C1848 C 0.28040 0.20545 0.36813
 C1849 C 0.26205 0.20520 0.38185
 C1850 C 0.26261 0.19397 0.40118
 C1851 C 0.28005 0.21497 0.34659
 C1852 C 0.26444 0.22961 0.33933
 H1853 H 0.29897 0.16293 0.42990
 H1854 H 0.31480 0.17516 0.39763
 H1855 H 0.31369 0.19448 0.36398
 H1856 H 0.24702 0.21300 0.37747
 H1857 H 0.24803 0.19404 0.41104
 H1858 H 0.29274 0.20963 0.33557
 H1859 H 0.25050 0.17388 0.43880
 H1860 H 0.25261 0.23683 0.35016
 C1861 C 0.72639 0.34028 0.43951
 C1862 C 0.74056 0.32340 0.43357
 C1863 C 0.74124 0.31420 0.41175
 C1864 C 0.74772 0.29239 0.40845
 C1865 C 0.74813 0.28321 0.38801
 C1866 C 0.74229 0.29587 0.37040
 C1867 C 0.73621 0.31780 0.37375
 C1868 C 0.73578 0.32691 0.39412
 C1869 C 0.74206 0.28722 0.34835
 C1870 C 0.74998 0.26676 0.34177
 H1871 H 0.75034 0.31566 0.44549
 H1872 H 0.75215 0.28231 0.42178
 H1873 H 0.75278 0.26623 0.38626
 H1874 H 0.73183 0.32802 0.36051
 H1875 H 0.73144 0.34400 0.39591
 H1876 H 0.73566 0.29800 0.33639
 H1877 H 0.71467 0.34591 0.42814
 H1878 H 0.75699 0.25560 0.35297
 C1879 C 0.22082 0.83702 0.94618
 C1880 C 0.23619 0.82269 0.93711
 C1881 C 0.23426 0.81385 0.91522
 C1882 C 0.24455 0.79405 0.90979
 C1883 C 0.24343 0.78553 0.88913
 C1884 C 0.23205 0.79680 0.87340
 C1885 C 0.22200 0.81672 0.87883
 C1886 C 0.22312 0.82521 0.89942
 C1887 C 0.23099 0.78920 0.85101
 C1888 C 0.23819 0.76884 0.84340
 H1889 H 0.24957 0.81674 0.94634
 H1890 H 0.25351 0.78513 0.92158
 H1891 H 0.25183 0.77039 0.88563
 H1892 H 0.21341 0.82596 0.86699
 H1893 H 0.21568 0.84093 0.90268
 H1894 H 0.22430 0.80059 0.83974
 H1895 H 0.20639 0.84037 0.93710
 H1896 H 0.24438 0.75668 0.85409
 C1897 C 0.27713 0.82108 0.05987
 C1898 C 0.29499 0.81478 0.07200
 C1899 C 0.29339 0.80176 0.09185
 C1900 C 0.31116 0.80264 0.10558
 C1901 C 0.31030 0.79193 0.12507
 C1902 C 0.29178 0.77970 0.13127
 C1903 C 0.27418 0.77801 0.11729
 C1904 C 0.27497 0.78896 0.09772
 C1905 C 0.29093 0.77088 0.15313
 C1906 C 0.27701 0.75411 0.16043
 H1907 H 0.31122 0.82028 0.06754
 H1908 H 0.32562 0.81221 0.10149
 H1909 H 0.32406 0.79355 0.13555
 H1910 H 0.25955 0.76891 0.12168
 H1911 H 0.26111 0.78738 0.08744
 H1912 H 0.30213 0.77828 0.16429
 H1913 H 0.26124 0.81425 0.06391
 H1914 H 0.26703 0.74485 0.14949
 C1915 C 0.77461 0.33338 0.56148
 C1916 C 0.79258 0.32511 0.57211
 C1917 C 0.79092 0.31322 0.59254
 C1918 C 0.80904 0.31352 0.60582
 C1919 C 0.80807 0.30329 0.62558
 C1920 C 0.78911 0.29208 0.63236
 C1921 C 0.77109 0.29115 0.61885
 C1922 C 0.77198 0.30163 0.59910
 C1923 C 0.78830 0.28322 0.65418
 C1924 C 0.77409 0.26658 0.66123
 H1925 H 0.80884 0.32824 0.56578
 H1926 H 0.82387 0.32218 0.60112
 H1927 H 0.82214 0.30433 0.63573
 H1928 H 0.75610 0.28293 0.62371
 H1929 H 0.75786 0.30056 0.58907
 H1930 H 0.79973 0.29023 0.66535
 H1931 H 0.75832 0.33004 0.56763
 H1932 H 0.76387 0.25782 0.65013
 C1933 C 0.22299 0.17184 0.56198
 C1934 C 0.20633 0.18166 0.57399
 C1935 C 0.21007 0.19304 0.59443
 C1936 C 0.19296 0.19353 0.60948
 C1937 C 0.19611 0.20279 0.62950
 C1938 C 0.21629 0.21222 0.63477
 C1939 C 0.23326 0.21257 0.61945
 C1940 C 0.23017 0.20305 0.59943
 C1941 C 0.21944 0.21974 0.65684
 C1942 C 0.23520 0.23506 0.66316
 H1943 H 0.18959 0.17981 0.56902
 H1944 H 0.17729 0.18609 0.60597
 H1945 H 0.18280 0.20230 0.64105
 H1946 H 0.24910 0.21948 0.62310
 H1947 H 0.24356 0.20353 0.58801
 H1948 H 0.20844 0.21293 0.66881
 H1949 H 0.23976 0.17391 0.56676
 H1950 H 0.24494 0.24394 0.65151
 C1951 C 0.71469 0.65312 0.06209
 C1952 C 0.72804 0.67023 0.06939
 C1953 C 0.72845 0.67774 0.09181
 C1954 C 0.73773 0.69833 0.09647
 C1955 C 0.73901 0.70583 0.11744
 C1956 C 0.73109 0.69276 0.13429
 C1957 C 0.72194 0.67211 0.12959
 C1958 C 0.72068 0.66461 0.10865
 C1959 C 0.73210 0.69965 0.15691
 C1960 C 0.74050 0.71972 0.16416
 H1961 H 0.73815 0.67919 0.05809
 H1962 H 0.74405 0.70868 0.08381
 H1963 H 0.74632 0.72178 0.12013
 H1964 H 0.71586 0.66158 0.14222
 H1965 H 0.71404 0.64836 0.10589
 H1966 H 0.72575 0.68814 0.16858
 H1967 H 0.70260 0.64593 0.07274
 H1968 H 0.74690 0.73182 0.15320
 C1969 C 0.14503 0.56278 0.21706
 C1970 C 0.16446 0.56637 0.22788
 C1971 C 0.17766 0.58686 0.22591
 C1972 C 0.19153 0.59272 0.24249
 C1973 C 0.20443 0.61172 0.24131
 C1974 C 0.20418 0.62518 0.22318
 C1975 C 0.19028 0.61932 0.20656
 C1976 C 0.17723 0.60032 0.20781
 C1977 C 0.21740 0.64579 0.22166
 C1978 C 0.23540 0.64979 0.23441
 H1979 H 0.17030 0.55390 0.23845
 H1980 H 0.19213 0.58271 0.25662
 H1981 H 0.21412 0.61591 0.25492
 H1982 H 0.18965 0.62939 0.19248
 H1983 H 0.16721 0.59608 0.19442
 H1984 H 0.21230 0.65847 0.21088
 H1985 H 0.13915 0.57556 0.20683
 H1986 H 0.24104 0.63709 0.24482
 C1987 C 0.64212 0.07004 0.72710
 C1988 C 0.66103 0.07206 0.73911
 C1989 C 0.67470 0.09230 0.74009
 C1990 C 0.68855 0.09516 0.75739
 C1991 C 0.70186 0.11381 0.75902
 C1992 C 0.70197 0.12995 0.74321
 C1993 C 0.68828 0.12706 0.72569
 C1994 C 0.67482 0.10839 0.72412
 C1995 C 0.71588 0.14977 0.74625
 C1996 C 0.72174 0.16480 0.73036
 H1997 H 0.66614 0.05828 0.74849
 H1998 H 0.68891 0.08299 0.76985
 H1999 H 0.71216 0.11562 0.77273
 H2000 H 0.68763 0.13925 0.71332
 H2001 H 0.66481 0.10658 0.71025
 H2002 H 0.72216 0.15246 0.76204
 H2003 H 0.63699 0.08379 0.71769
 H2004 H 0.71679 0.16210 0.71415
 C2005 C 0.86427 0.05677 0.26257
 C2006 C 0.86003 0.07431 0.27655
 C2007 C 0.84556 0.09294 0.27147
 C2008 C 0.84647 0.11194 0.28417
 C2009 C 0.83267 0.12962 0.28047
 C2010 C 0.81749 0.12859 0.26401
 C2011 C 0.81664 0.10970 0.25122
 C2012 C 0.83031 0.09195 0.25500
 C2013 C 0.80291 0.14712 0.25927
 C2014 C 0.79647 0.16272 0.27440
 H2015 H 0.86740 0.07486 0.29196
 H2016 H 0.85799 0.11317 0.29698
 H2017 H 0.83425 0.14415 0.29030
 H2018 H 0.80509 0.10852 0.23842
 H2019 H 0.82844 0.07747 0.24521
 H2020 H 0.79661 0.14818 0.24335
 H2021 H 0.85782 0.05772 0.24675
 H2022 H 0.80135 0.16106 0.29072
 C2023 C 0.35426 0.56643 0.76943
 C2024 C 0.34062 0.57365 0.75331
 C2025 C 0.32779 0.59423 0.75447
 C2026 C 0.32010 0.60289 0.73548
 C2027 C 0.30761 0.62190 0.73556
 C2028 C 0.30229 0.63280 0.75463
 C2029 C 0.30979 0.62410 0.77379
 C2030 C 0.32237 0.60496 0.77372
 C2031 C 0.28904 0.65302 0.75334
 C2032 C 0.28261 0.66655 0.77037
 H2033 H 0.33943 0.56444 0.73870
 H2034 H 0.32384 0.59494 0.72044
 H2035 H 0.30206 0.62813 0.72053
 H2036 H 0.30594 0.63182 0.78887
 H2037 H 0.32738 0.59850 0.78879
 H2038 H 0.28437 0.65781 0.73753
 H2039 H 0.35578 0.57675 0.78336
 H2040 H 0.28679 0.66261 0.78648
 C2041 C 0.35443 0.43865 0.72265
 C2042 C 0.33673 0.43501 0.73658
 C2043 C 0.32490 0.41372 0.73860
 C2044 C 0.31271 0.40969 0.75725
 C2045 C 0.30123 0.38995 0.75995
 C2046 C 0.30134 0.37385 0.74393
 C2047 C 0.31341 0.37788 0.72511
 C2048 C 0.32502 0.39764 0.72245
 C2049 C 0.28932 0.35297 0.74792
 C2050 C 0.28347 0.33785 0.73216
 H2051 H 0.33133 0.44821 0.74689
 H2052 H 0.31223 0.42180 0.76992
 H2053 H 0.29216 0.38728 0.77464
 H2054 H 0.31426 0.36578 0.71251
 H2055 H 0.33377 0.40027 0.70762
 H2056 H 0.28443 0.34957 0.76419
 H2057 H 0.35976 0.42554 0.71220
 H2058 H 0.28708 0.34120 0.71564
 C2059 C 0.85339 0.92958 0.23744
 C2060 C 0.84731 0.91212 0.22410
 C2061 C 0.83199 0.89417 0.23041
 C2062 C 0.83146 0.87512 0.21778
 C2063 C 0.81719 0.85782 0.22269
 C2064 C 0.80286 0.85924 0.24031
 C2065 C 0.80343 0.87817 0.25308
 C2066 C 0.81767 0.89558 0.24811
 C2067 C 0.78792 0.84090 0.24615
 C2068 C 0.78029 0.82576 0.23124
 H2069 H 0.85418 0.91082 0.20829
 H2070 H 0.84231 0.87351 0.20410
 H2071 H 0.81780 0.84321 0.21286
 H2072 H 0.79260 0.87960 0.26680
 H2073 H 0.81704 0.91010 0.25802
 H2074 H 0.78283 0.83929 0.26262
 H2075 H 0.84670 0.92982 0.25344
 H2076 H 0.78402 0.82815 0.21456
 C2077 C 0.63525 0.93704 0.75968
 C2078 C 0.64242 0.92177 0.77446
 C2079 C 0.65407 0.90124 0.76859
 C2080 C 0.66618 0.89070 0.78417
 C2081 C 0.67787 0.87165 0.77937
 C2082 C 0.67752 0.86249 0.75882
 C2083 C 0.66530 0.87290 0.74325
 C2084 C 0.65353 0.89195 0.74807
 C2085 C 0.69034 0.84271 0.75301
 C2086 C 0.69661 0.82719 0.76788
 H2087 H 0.64108 0.92571 0.79119
 H2088 H 0.66695 0.89746 0.80009
 H2089 H 0.68757 0.86455 0.79170
 H2090 H 0.66474 0.86619 0.72730
 H2091 H 0.64396 0.89910 0.73569
 H2092 H 0.69468 0.84013 0.73644
 H2093 H 0.63848 0.93408 0.74299
 H2094 H 0.69097 0.82871 0.78419
 C2095 C 0.14212 0.43148 0.25702
 C2096 C 0.14841 0.41603 0.27208
 C2097 C 0.15978 0.39521 0.26661
 C2098 C 0.15981 0.37824 0.28162
 C2099 C 0.17111 0.35874 0.27755
 C2100 C 0.18293 0.35586 0.25839
 C2101 C 0.18266 0.37271 0.24328
 C2102 C 0.17138 0.39219 0.24734
 C2103 C 0.19576 0.33579 0.25350
 C2104 C 0.20250 0.32084 0.26878
 H2105 H 0.14511 0.41910 0.28872
 H2106 H 0.15101 0.38007 0.29658
 H2107 H 0.17034 0.34602 0.28943
 H2108 H 0.19162 0.37098 0.22839
 H2109 H 0.17236 0.40497 0.23554
 H2110 H 0.20131 0.33343 0.23722
 H2111 H 0.14505 0.42793 0.24039
 H2112 H 0.19811 0.32328 0.28531
 C2113 C 0.05937 0.27434 0.86350
 C2114 C 0.06816 0.25472 0.85589
 C2115 C 0.08680 0.25459 0.84072
 C2116 C 0.10190 0.23749 0.84138
 C2117 C 0.12036 0.23772 0.82803
 C2118 C 0.12391 0.25508 0.81369
 C2119 C 0.10819 0.27153 0.81227
 C2120 C 0.08981 0.27134 0.82566
 C2121 C 0.14365 0.25655 0.79996
 C2122 C 0.16340 0.24695 0.80515
 H2123 H 0.06261 0.23923 0.86244
 H2124 H 0.09965 0.22419 0.85256
 H2125 H 0.13168 0.22427 0.82897
 H2126 H 0.11033 0.28480 0.80103
 H2127 H 0.07800 0.28431 0.82416
 H2128 H 0.14296 0.26671 0.78593
 H2129 H 0.06707 0.28966 0.85873
 H2130 H 0.16476 0.23765 0.81963
 C2131 C 0.55369 0.77418 0.35080
 C2132 C 0.56224 0.75318 0.34818
 C2133 C 0.58044 0.74896 0.33313
 C2134 C 0.59586 0.73301 0.33799
 C2135 C 0.61436 0.73020 0.32502
 C2136 C 0.61762 0.74332 0.30690
 C2137 C 0.60141 0.75817 0.30130
 C2138 C 0.58297 0.76099 0.31427
 C2139 C 0.63781 0.74252 0.29380
 C2140 C 0.65765 0.73516 0.30141
 H2141 H 0.55721 0.74012 0.35880
 H2142 H 0.59395 0.72321 0.35220
 H2143 H 0.62604 0.71789 0.32937
 H2144 H 0.60331 0.76810 0.28717
 H2145 H 0.57086 0.77277 0.30961
 H2146 H 0.63745 0.74978 0.27815
 H2147 H 0.56094 0.78757 0.34182
 H2148 H 0.65869 0.72830 0.31714
 C2149 C 0.58246 0.23749 0.12497
 C2150 C 0.59616 0.22102 0.13203
 C2151 C 0.61631 0.22599 0.14363
 C2152 C 0.62279 0.21133 0.15931
 C2153 C 0.64038 0.21645 0.17220
 C2154 C 0.65189 0.23635 0.16956
 C2155 C 0.64633 0.25037 0.15300
 C2156 C 0.62860 0.24530 0.14015
 C2157 C 0.66992 0.24253 0.18364
 C2158 C 0.67043 0.23562 0.20467
 H2159 H 0.59031 0.20420 0.13226
 H2160 H 0.61379 0.19617 0.16203
 H2161 H 0.64490 0.20479 0.18420
 H2162 H 0.65538 0.26550 0.15035
 H2163 H 0.62450 0.25656 0.12765
 H2164 H 0.68294 0.25291 0.17736
 H2165 H 0.58741 0.25448 0.12686
 H2166 H 0.65680 0.22641 0.21140
 C2167 C 0.06281 0.72104 0.63858
 C2168 C 0.07147 0.73991 0.64805
 C2169 C 0.08983 0.73951 0.66293
 C2170 C 0.10204 0.75880 0.66605
 C2171 C 0.11946 0.75917 0.68002
 C2172 C 0.12499 0.74016 0.69120
 C2173 C 0.11230 0.72108 0.68868
 C2174 C 0.09489 0.72070 0.67466
 C2175 C 0.14372 0.73980 0.70564
 C2176 C 0.16192 0.75343 0.70277
 H2177 H 0.06534 0.75582 0.64371
 H2178 H 0.09815 0.77364 0.65757
 H2179 H 0.12834 0.77444 0.68218
 H2180 H 0.11602 0.70636 0.69742
 H2181 H 0.08531 0.70576 0.67333
 H2182 H 0.14385 0.72741 0.71790
 H2183 H 0.07083 0.70549 0.64077
 H2184 H 0.16274 0.76464 0.68952
 C2185 C 0.93661 0.76275 0.63397
 C2186 C 0.92102 0.77839 0.63992
 C2187 C 0.90098 0.77278 0.65212
 C2188 C 0.89175 0.78886 0.66543
 C2189 C 0.87314 0.78416 0.67768
 C2190 C 0.86334 0.76322 0.67679
 C2191 C 0.87210 0.74737 0.66292
 C2192 C 0.89080 0.75205 0.65070
 C2193 C 0.84355 0.75775 0.68943
 C2194 C 0.83794 0.76860 0.70828
 H2195 H 0.92427 0.79567 0.63780
 H2196 H 0.89910 0.80507 0.66650
 H2197 H 0.86635 0.79709 0.68751
 H2198 H 0.86452 0.73129 0.66163
 H2199 H 0.89701 0.73953 0.64001
 H2200 H 0.83324 0.74445 0.68383
 H2201 H 0.93342 0.74583 0.63830
 H2202 H 0.84878 0.78088 0.71489
 C2203 C 0.45307 0.27153 0.15349
 C2204 C 0.43325 0.28200 0.15043
 C2205 C 0.41432 0.27949 0.16495
 C2206 C 0.39334 0.28190 0.15686
 C2207 C 0.37503 0.27992 0.17017
 C2208 C 0.37745 0.27580 0.19191
 C2209 C 0.39845 0.27420 0.20020
 C2210 C 0.41680 0.27583 0.18679
 C2211 C 0.35823 0.27308 0.20603
 C2212 C 0.33970 0.26198 0.19912
 H2213 H 0.43112 0.29163 0.13623
 H2214 H 0.39111 0.28514 0.14015
 H2215 H 0.35900 0.28182 0.16349
 H2216 H 0.40061 0.27130 0.21697
 H2217 H 0.43285 0.27461 0.19357
 H2218 H 0.35925 0.27837 0.22243
 H2219 H 0.45439 0.25940 0.16588
 H2220 H 0.33975 0.25453 0.18345
 C2221 C 0.42837 0.74476 0.39243
 C2222 C 0.41580 0.72750 0.38443
 C2223 C 0.39742 0.73137 0.37014
 C2224 C 0.39369 0.71631 0.35366
 C2225 C 0.37815 0.72057 0.33834
 C2226 C 0.36592 0.73998 0.33933
 C2227 C 0.36874 0.75441 0.35651
 C2228 C 0.38443 0.75023 0.37177
 C2229 C 0.34958 0.74506 0.32319
 C2230 C 0.35104 0.73715 0.30238
 H2231 H 0.42205 0.71096 0.38521
 H2232 H 0.40329 0.70151 0.35226
 H2233 H 0.37570 0.70858 0.32586
 H2234 H 0.35908 0.76917 0.35789
 H2235 H 0.38642 0.76181 0.38469
 H2236 H 0.33589 0.75520 0.32795
 H2237 H 0.42330 0.76147 0.38974
 H2238 H 0.36523 0.72803 0.29712
 C2239 C 0.93154 0.23669 0.88594
 C2240 C 0.91807 0.22087 0.87667
 C2241 C 0.89898 0.22675 0.86396
 C2242 C 0.89299 0.21283 0.84722
 C2243 C 0.87630 0.21866 0.83365
 C2244 C 0.86518 0.23857 0.83662
 C2245 C 0.87030 0.25191 0.85408
 C2246 C 0.88712 0.24613 0.86762
 C2247 C 0.84786 0.24534 0.82210
 C2248 C 0.84782 0.23885 0.80084
 H2249 H 0.92342 0.20400 0.87593
 H2250 H 0.90161 0.19763 0.84431
 H2251 H 0.87210 0.20746 0.82094
 H2252 H 0.86156 0.26704 0.85699
 H2253 H 0.89078 0.25685 0.88087
 H2254 H 0.83487 0.25562 0.82830
 H2255 H 0.92733 0.25384 0.88463
 H2256 H 0.86140 0.22963 0.79429
 C2257 C 0.59187 1.02195 0.68643
 C2258 C 0.58596 1.03771 0.67155
 C2259 C 0.57347 1.03200 0.65235
 C2260 C 0.55964 1.04765 0.64360
 C2261 C 0.54826 1.04298 0.62502
 C2262 C 0.55077 1.02261 0.61469
 C2263 C 0.56480 1.00707 0.62333
 C2264 C 0.57595 1.01164 0.64202
 C2265 C 0.54042 1.01765 0.59414
 C2266 C 0.52138 1.02763 0.58727
 H2267 H 0.58912 1.05494 0.67449
 H2268 H 0.55771 1.06357 0.65111
 H2269 H 0.53811 1.05560 0.61847
 H2270 H 0.56729 0.99141 0.61546
 H2271 H 0.58700 0.99946 0.64797
 H2272 H 0.54814 1.00543 0.58402
 H2273 H 0.58536 1.00547 0.68440
 H2274 H 0.51233 1.03845 0.59781
 C2275 C 0.09203 0.51245 1.18179
 C2276 C 0.08137 0.52874 1.17050
 C2277 C 0.06929 0.52443 1.15074
 C2278 C 0.05427 0.54000 1.14383
 C2279 C 0.04401 0.53745 1.12428
 C2280 C 0.04876 0.51928 1.11119
 C2281 C 0.06355 0.50358 1.11825
 C2282 C 0.07369 0.50606 1.13779
 C2283 C 0.04033 0.51705 1.08941
 C2284 C 0.02229 0.52819 1.08172
 H2285 H 0.08179 0.54546 1.17643
 H2286 H 0.05080 0.55443 1.15339
 H2287 H 0.03313 0.55018 1.11919
 H2288 H 0.06769 0.48958 1.10834
 H2289 H 0.08561 0.49402 1.14223
 H2290 H 0.04908 0.50609 1.07872
 H2291 H 0.08926 0.49535 1.17783
 H2292 H 0.01198 0.53775 1.09230
 C2293 C -0.09776 -0.03330 1.18626
 C2294 C -0.08098 -0.01893 1.17980
 C2295 C -0.07241 -0.01903 1.15768
 C2296 C -0.05018 -0.01472 1.15354
 C2297 C -0.04194 -0.01465 1.13264
 C2298 C -0.05595 -0.01852 1.11555
 C2299 C -0.07822 -0.02239 1.11974
 C2300 C -0.08636 -0.02277 1.14055
 C2301 C -0.04843 -0.01737 1.09314
 C2302 C -0.02702 -0.02119 1.08609
 H2303 H -0.07284 -0.00850 1.19119
 H2304 H -0.03919 -0.01151 1.16650
 H2305 H -0.02479 -0.01102 1.12993
 H2306 H -0.08940 -0.02508 1.10683
 H2307 H -0.10369 -0.02551 1.14318
 H2308 H -0.06076 -0.01421 1.08145
 H2309 H -0.10282 -0.04569 1.17489
 H2310 H -0.01470 -0.02613 1.09714
 C2311 C 0.40158 0.48999 0.68094
 C2312 C 0.40805 0.47459 0.66548
 C2313 C 0.42061 0.48058 0.64601
 C2314 C 0.43419 0.46486 0.63632
 C2315 C 0.44542 0.46953 0.61733
 C2316 C 0.44307 0.49001 0.60748
 C2317 C 0.42941 0.50568 0.61712
 C2318 C 0.41837 0.50111 0.63625
 C2319 C 0.45314 0.49486 0.58645
 C2320 C 0.47182 0.48447 0.57841
 H2321 H 0.40534 0.45727 0.66818
 H2322 H 0.43595 0.44882 0.64338
 H2323 H 0.45527 0.45680 0.61006
 H2324 H 0.42704 0.52145 0.60967
 H2325 H 0.40757 0.51338 0.64294
 H2326 H 0.44541 0.50717 0.57685
 H2327 H 0.40756 0.50669 0.67916
 H2328 H 0.48092 0.47357 0.58839
 C2329 C 0.40195 0.51519 -0.19287
 C2330 C 0.41165 0.53052 -0.17932
 C2331 C 0.42281 0.52425 -0.15962
 C2332 C 0.43875 0.53835 -0.15118
 C2333 C 0.44888 0.53333 -0.13209
 C2334 C 0.44304 0.51414 -0.12096
 C2335 C 0.42701 0.50014 -0.12937
 C2336 C 0.41703 0.50506 -0.14850
 C2337 C 0.45201 0.50890 -0.09994
 C2338 C 0.47159 0.51745 -0.09216
 H2339 H 0.41185 0.54769 -0.18367
 H2340 H 0.44326 0.55339 -0.15931
 H2341 H 0.46070 0.54485 -0.12583
 H2342 H 0.42198 0.48543 -0.12095
 H2343 H 0.40433 0.49414 -0.15412
 H2344 H 0.44269 0.49750 -0.09014
 H2345 H 0.40431 0.49786 -0.19008
 H2346 H 0.48211 0.52753 -0.10213
 C2347 C -0.09522 1.00931 0.31306
 C2348 C -0.08686 1.02575 0.32628
 C2349 C -0.07786 1.02127 0.34748
 C2350 C -0.06321 1.03643 0.35640
 C2351 C -0.05473 1.03298 0.37656
 C2352 C -0.06087 1.01425 0.38828
 C2353 C -0.07583 0.99931 0.37951
 C2354 C -0.08423 1.00272 0.35933
 C2355 C -0.05293 1.01024 0.40998
 C2356 C -0.03393 1.01970 0.41809
 H2357 H -0.08581 1.04243 0.32052
 H2358 H -0.05833 1.05104 0.34774
 H2359 H -0.04383 1.04528 0.38301
 H2360 H -0.08111 0.98495 0.38835
 H2361 H -0.09606 0.99104 0.35335
 H2362 H -0.06223 0.99887 0.41982
 H2363 H -0.09363 0.99231 0.31762
 H2364 H -0.02358 1.03001 0.40817
 C2365 C 0.10463 0.48494 0.30756
 C2366 C 0.09304 0.46969 0.31998
 C2367 C 0.08200 0.47542 0.34039
 C2368 C 0.06431 0.46247 0.34759
 C2369 C 0.05378 0.46709 0.36698
 C2370 C 0.06089 0.48473 0.37971
 C2371 C 0.07877 0.49748 0.37264
 C2372 C 0.08919 0.49297 0.35318
 C2373 C 0.05114 0.48936 0.40097
 C2374 C 0.03016 0.48260 0.40737
 H2375 H 0.09068 0.45320 0.31385
 H2376 H 0.05866 0.44866 0.33819
 H2377 H 0.04054 0.45642 0.37216
 H2378 H 0.08483 0.51090 0.38231
 H2379 H 0.10317 0.50290 0.34850
 H2380 H 0.06104 0.49849 0.41212
 H2381 H 0.10466 0.50206 0.31226
 H2382 H 0.01940 0.47480 0.39610
 C2383 C 0.59747 -0.01104 -0.18844
 C2384 C 0.58658 -0.02668 -0.17586
 C2385 C 0.57569 -0.02127 -0.15526
 C2386 C 0.55876 -0.03492 -0.14758
 C2387 C 0.54824 -0.03040 -0.12814
 C2388 C 0.55459 -0.01212 -0.11586
 C2389 C 0.57181 0.00126 -0.12338
 C2390 C 0.58224 -0.00320 -0.14283
 C2391 C 0.54450 -0.00691 -0.09484
 C2392 C 0.52437 -0.01523 -0.08751
 H2393 H 0.58466 -0.04324 -0.18193
 H2394 H 0.55360 -0.04914 -0.15669
 H2395 H 0.53551 -0.04153 -0.12269
 H2396 H 0.57730 0.01523 -0.11412
 H2397 H 0.59570 0.00730 -0.14781
 H2398 H 0.55328 0.00448 -0.08475
 H2399 H 0.59701 0.00604 -0.18365
 H2400 H 0.51465 -0.02576 -0.09756
 C2401 C 0.68055 0.61088 0.00345
 C2402 C 0.66478 0.60056 0.01636
 C2403 C 0.64885 0.58431 0.00826
 C2404 C 0.63911 0.58622 -0.01170
 C2405 C 0.62295 0.57114 -0.01800
 C2406 C 0.61654 0.55383 -0.00447
 C2407 C 0.62690 0.55168 0.01509
 C2408 C 0.64264 0.56687 0.02147
 C2409 C 0.59839 0.53837 -0.00903
 C2410 C 0.58168 0.54195 -0.02343
 H2411 H 0.66563 0.60201 0.03342
 H2412 H 0.64344 0.59971 -0.02211
 H2413 H 0.61544 0.57324 -0.03324
 H2414 H 0.62231 0.53855 0.02585
 H2415 H 0.64993 0.56502 0.03690
 H2416 H 0.59622 0.52486 0.00197
 H2417 H 0.68091 0.60656 -0.01327
 H2418 H 0.58332 0.55424 -0.03568
 C2419 C 0.17474 1.12215 0.51954
 C2420 C 0.16688 1.11235 0.50100
 C2421 C 0.14661 1.09877 0.50112
 C2422 C 0.13381 1.09731 0.48287
 C2423 C 0.11439 1.08485 0.48295
 C2424 C 0.10760 1.07340 0.50131
 C2425 C 0.12081 1.07444 0.51928
 C2426 C 0.14006 1.08685 0.51920
 C2427 C 0.08703 1.06036 0.50295
 C2428 C 0.07141 1.05773 0.48712
 H2429 H 0.17505 1.11541 0.48593
 H2430 H 0.13866 1.10610 0.46864
 H2431 H 0.10484 1.08441 0.46870
 H2432 H 0.11620 1.06561 0.53357
 H2433 H 0.14988 1.08684 0.53330
 H2434 H 0.08380 1.05252 0.51809
 H2435 H 0.16470 1.12112 0.53383
 H2436 H 0.07388 1.06491 0.47161
 C2437 C 0.18621 -0.11583 1.00068
 C2438 C 0.17520 -0.10287 0.98617
 C2439 C 0.15563 -0.08947 0.99102
 C2440 C 0.15008 -0.07329 0.97641
 C2441 C 0.13069 -0.06169 0.97875
 C2442 C 0.11614 -0.06599 0.99570
 C2443 C 0.12187 -0.08179 1.01081
 C2444 C 0.14150 -0.09343 1.00849
 C2445 C 0.09476 -0.05467 0.99568
 C2446 C 0.07861 -0.05547 1.01169
 H2447 H 0.18163 -0.10213 0.97005
 H2448 H 0.16059 -0.06992 0.96278
 H2449 H 0.12677 -0.04966 0.96684
 H2450 H 0.11101 -0.08578 1.02397
 H2451 H 0.14509 -0.10606 1.01988
 H2452 H 0.09130 -0.04533 0.98157
 H2453 H 0.18213 -0.11481 1.01743
 H2454 H 0.08165 -0.06330 1.02669
 C2455 C 0.68467 0.38195 0.49443
 C2456 C 0.66567 0.38351 0.48246
 C2457 C 0.64823 0.39968 0.48660
 C2458 C 0.63788 0.40847 0.46897
 C2459 C 0.62122 0.42364 0.47159
 C2460 C 0.61396 0.42998 0.49192
 C2461 C 0.62405 0.42108 0.50977
 C2462 C 0.64128 0.40613 0.50712
 C2463 C 0.59607 0.44608 0.49320
 C2464 C 0.57995 0.44709 0.50921
 H2465 H 0.66393 0.37415 0.46801
 H2466 H 0.64291 0.40376 0.45302
 H2467 H 0.61372 0.43023 0.45757
 H2468 H 0.61890 0.42585 0.52564
 H2469 H 0.64881 0.39936 0.52101
 H2470 H 0.59392 0.45591 0.47912
 H2471 H 0.68524 0.39108 0.50923
 H2472 H 0.58147 0.43775 0.52365
 C2473 C -0.18295 0.38401 0.51328
 C2474 C -0.17603 0.39151 0.49328
 C2475 C -0.15693 0.40651 0.49075
 C2476 C -0.14346 0.40541 0.47247
 C2477 C -0.12482 0.41894 0.47047
 C2478 C -0.11963 0.43408 0.48663
 C2479 C -0.13372 0.43573 0.50438
 C2480 C -0.15209 0.42217 0.50645
 C2481 C -0.09931 0.44758 0.48675
 C2482 C -0.08232 0.44734 0.47152
 H2483 H -0.18400 0.38551 0.47916
 H2484 H -0.14704 0.39366 0.46002
 H2485 H -0.11445 0.41718 0.45651
 H2486 H -0.13029 0.44734 0.51702
 H2487 H -0.16251 0.42404 0.52038
 H2488 H -0.09688 0.45749 0.50088
 H2489 H -0.17290 0.38786 0.52681
 H2490 H -0.08420 0.43909 0.45641
 C2491 C 0.31754 -0.12264 0.01756
 C2492 C 0.32339 -0.11186 -0.00130
 C2493 C 0.34225 -0.09635 -0.00248
 C2494 C 0.35407 -0.09356 -0.02163
 C2495 C 0.37203 -0.07905 -0.02281
 C2496 C 0.37826 -0.06682 -0.00483
 C2497 C 0.36600 -0.06925 0.01407
 C2498 C 0.34827 -0.08377 0.01527
 C2499 C 0.39720 -0.05139 -0.00456
 C2500 C 0.41340 -0.04903 -0.02044
 H2501 H 0.31460 -0.11545 -0.01568
 H2502 H 0.34955 -0.10285 -0.03563
 H2503 H 0.38083 -0.07747 -0.03775
 H2504 H 0.37020 -0.05990 0.02813
 H2505 H 0.33912 -0.08483 0.03008
 H2506 H 0.39908 -0.04193 0.00992
 H2507 H 0.32833 -0.12102 0.03092
 H2508 H 0.41238 -0.05803 -0.03523
 C2509 C 0.30590 1.11413 0.48695
 C2510 C 0.31381 1.10867 0.50691
 C2511 C 0.33312 1.09445 0.50909
 C2512 C 0.34782 1.09807 0.52565
 C2513 C 0.36694 1.08566 0.52693
 C2514 C 0.37143 1.06915 0.51178
 C2515 C 0.35611 1.06492 0.49591
 C2516 C 0.33721 1.07735 0.49457
 C2517 C 0.39220 1.05684 0.51069
 C2518 C 0.40951 1.05854 0.52488
 H2519 H 0.30683 1.11624 0.52102
 H2520 H 0.34486 1.11101 0.53718
 H2521 H 0.37828 1.08945 0.53940
 H2522 H 0.35899 1.05218 0.48413
 H2523 H 0.32586 1.07361 0.48205
 H2524 H 0.39442 1.04628 0.49692
 H2525 H 0.31497 1.10879 0.47296
 H2526 H 0.40781 1.06752 0.53966
 C2527 C -0.18835 0.62074 0.99321
 C2528 C -0.17558 0.60889 0.97873
 C2529 C -0.15702 0.59500 0.98471
 C2530 C -0.15117 0.57771 0.97109
 C2531 C -0.13297 0.56499 0.97515
 C2532 C -0.11990 0.56939 0.99279
 C2533 C -0.12595 0.58646 1.00680
 C2534 C -0.14443 0.59914 1.00281
 C2535 C -0.09933 0.55698 0.99444
 C2536 C -0.08362 0.55955 1.01015
 H2537 H -0.18043 0.60839 0.96228
 H2538 H -0.16059 0.57419 0.95706
 H2539 H -0.12871 0.55202 0.96404
 H2540 H -0.11621 0.59054 1.02043
 H2541 H -0.14831 0.61262 1.01344
 H2542 H -0.09548 0.54607 0.98126
 H2543 H -0.18553 0.61920 1.01005
 H2544 H -0.08704 0.56862 1.02461
 C2545 C 0.01576 0.68326 0.58504
 C2546 C 0.02323 0.66212 0.58889
 C2547 C 0.01771 0.64276 0.57566
 C2548 C 0.03068 0.62404 0.57727
 C2549 C 0.02577 0.60508 0.56573
 C2550 C 0.00751 0.60434 0.55251
 C2551 C -0.00526 0.62315 0.55057
 C2552 C -0.00036 0.64216 0.56215
 C2553 C 0.00178 0.58435 0.54033
 C2554 C 0.00734 0.56346 0.54715
 H2555 H 0.03361 0.65937 0.60231
 H2556 H 0.04476 0.62411 0.58744
 H2557 H 0.03651 0.59118 0.56703
 H2558 H -0.01932 0.62299 0.54038
 H2559 H -0.01111 0.65602 0.56077
 H2560 H -0.00727 0.58614 0.52584
 H2561 H 0.00521 0.68617 0.57181
 H2562 H 0.01510 0.56145 0.56230
 C2563 C 0.52405 0.18660 0.09935
 C2564 C 0.50572 0.18285 0.08694
 C2565 C 0.50062 0.16084 0.07834
 C2566 C 0.49088 0.15885 0.05845
 C2567 C 0.48741 0.13815 0.04932
 C2568 C 0.49341 0.11904 0.06016
 C2569 C 0.50220 0.12113 0.08050
 C2570 C 0.50574 0.14177 0.08953
 C2571 C 0.49177 0.09672 0.05086
 C2572 C 0.48389 0.09173 0.03071
 H2573 H 0.49618 0.19659 0.08170
 H2574 H 0.48659 0.17338 0.04967
 H2575 H 0.48046 0.13741 0.03370
 H2576 H 0.50672 0.10672 0.08934
 H2577 H 0.51257 0.14273 0.10524
 H2578 H 0.49790 0.08339 0.06032
 H2579 H 0.53511 0.17318 0.10207
 H2580 H 0.47686 0.10420 0.02091
 C2581 C -0.01308 0.18507 0.91645
 C2582 C -0.02780 0.17044 0.92606
 C2583 C -0.02111 0.14915 0.93472
 C2584 C -0.03638 0.13189 0.93533
 C2585 C -0.03070 0.11146 0.94329
 C2586 C -0.00961 0.10798 0.95098
 C2587 C 0.00545 0.12544 0.95106
 C2588 C -0.00018 0.14586 0.94289
 C2589 C -0.00336 0.08661 0.95977
 C2590 C -0.01248 0.06697 0.95258
 H2591 H -0.04500 0.17422 0.92687
 H2592 H -0.05273 0.13418 0.92948
 H2593 H -0.04299 0.09858 0.94378
 H2594 H 0.02163 0.12323 0.95733
 H2595 H 0.01174 0.15907 0.94341
 H2596 H 0.00882 0.08636 0.97203
 H2597 H 0.00407 0.18098 0.91565
 H2598 H -0.02329 0.06702 0.93916
 C2599 C 0.48774 0.69818 0.42268
 C2600 C 0.47591 0.67848 0.42203
 C2601 C 0.48349 0.65759 0.43109
 C2602 C 0.47317 0.63808 0.42467
 C2603 C 0.47944 0.61793 0.43281
 C2604 C 0.49637 0.61677 0.44756
 C2605 C 0.50640 0.63631 0.45438
 C2606 C 0.50009 0.65656 0.44623
 C2607 C 0.50289 0.59564 0.45691
 C2608 C 0.49894 0.57555 0.44691
 H2609 H 0.46090 0.67784 0.41325
 H2610 H 0.46007 0.63843 0.41334
 H2611 H 0.47055 0.60342 0.42783
 H2612 H 0.51914 0.63590 0.46608
 H2613 H 0.50798 0.67125 0.45215
 H2614 H 0.51043 0.59589 0.47234
 H2615 H 0.50392 0.69845 0.42928
 H2616 H 0.49255 0.57513 0.43102
 C2617 C 0.51502 0.83212 0.39125
 C2618 C 0.50126 0.84041 0.40719
 C2619 C 0.50051 0.86383 0.41327
 C2620 C 0.48195 0.87139 0.42426
 C2621 C 0.48114 0.89285 0.43193
 C2622 C 0.49911 0.90712 0.42906
 C2623 C 0.51735 0.89991 0.41733
 C2624 C 0.51817 0.87837 0.40961
 C2625 C 0.49945 0.92919 0.43879
 C2626 C 0.48867 0.93340 0.45802
 H2627 H 0.49037 0.82958 0.41589
 H2628 H 0.46809 0.86055 0.42713
 H2629 H 0.46649 0.89815 0.44024
 H2630 H 0.53132 0.91069 0.41487
 H2631 H 0.53296 0.87306 0.40160
 H2632 H 0.50972 0.94180 0.43163
 H2633 H 0.52522 0.84342 0.38225
 H2634 H 0.47982 0.92032 0.46606
 C2635 C 0.01501 0.31941 0.91403
 C2636 C 0.02025 0.33961 0.90489
 C2637 C 0.01512 0.36079 0.91517
 C2638 C 0.02709 0.37947 0.90898
 C2639 C 0.02306 0.39974 0.91861
 C2640 C 0.00685 0.40166 0.93457
 C2641 C -0.00552 0.38313 0.94037
 C2642 C -0.00154 0.36288 0.93070
 C2643 C 0.00281 0.42258 0.94570
 C2644 C 0.01408 0.44160 0.94032
 H2645 H 0.02875 0.34004 0.88968
 H2646 H 0.03982 0.37832 0.89687
 H2647 H 0.03284 0.41378 0.91370
 H2648 H -0.01827 0.38430 0.95245
 H2649 H -0.01175 0.34908 0.93531
 H2650 H -0.00896 0.42295 0.95877
 H2651 H 0.00644 0.31871 0.92916
 H2652 H 0.01217 0.45298 0.94728
 C2653 C 0.49706 0.32184 0.10702
 C2654 C 0.47965 0.33217 0.09750
 C2655 C 0.48222 0.35337 0.08680
 C2656 C 0.47105 0.35700 0.06796
 C2657 C 0.47320 0.37706 0.05755
 C2658 C 0.48608 0.39393 0.06623
 C2659 C 0.49672 0.39053 0.08542
 C2660 C 0.49506 0.37025 0.09552
 C2661 C 0.48807 0.41533 0.05581
 C2662 C 0.49047 0.41710 0.03389
 H2663 H 0.46405 0.32369 0.09651
 H2664 H 0.46088 0.34420 0.06118
 H2665 H 0.46447 0.37955 0.04298
 H2666 H 0.50652 0.40349 0.09242
 H2667 H 0.50342 0.36791 0.11032
 H2668 H 0.48917 0.42993 0.06567
 H2669 H 0.51341 0.32864 0.10536
 H2670 H 0.49220 0.40248 0.02416
 C2671 C -0.01002 0.81560 0.60215
 C2672 C -0.02447 0.82759 0.59009
 C2673 C -0.01966 0.85001 0.58283
 C2674 C -0.02737 0.85658 0.56310
 C2675 C -0.02377 0.87797 0.55606
 C2676 C -0.01284 0.89328 0.56892
 C2677 C -0.00555 0.88689 0.58889
 C2678 C -0.00868 0.86528 0.59572
 C2679 C -0.00972 0.91606 0.56187
 C2680 C -0.00399 0.92072 0.54092
 H2681 H -0.03938 0.81977 0.58476
 H2682 H -0.03614 0.84511 0.55309
 H2683 H -0.02999 0.88270 0.54079
 H2684 H 0.00267 0.89858 0.59910
 H2685 H -0.00306 0.86068 0.61126
 H2686 H -0.01155 0.92926 0.57335
 H2687 H 0.00626 0.82193 0.60496
 H2688 H 0.00033 0.90744 0.53017
 C2689 C 0.26014 0.34347 0.06038
 C2690 C 0.27531 0.33540 0.07473
 C2691 C 0.26895 0.32302 0.09410
 C2692 C 0.28402 0.30863 0.10292
 C2693 C 0.27913 0.29759 0.12184
 C2694 C 0.25901 0.30086 0.13246
 C2695 C 0.24395 0.31530 0.12366
 C2696 C 0.24879 0.32622 0.10465
 C2697 C 0.25399 0.29103 0.15349
 C2698 C 0.26439 0.27249 0.16128
 H2699 H 0.29260 0.33689 0.07129
 H2700 H 0.29979 0.30612 0.09527
 H2701 H 0.29146 0.28717 0.12840
 H2702 H 0.22850 0.31840 0.13170
 H2703 H 0.23702 0.33768 0.09871
 H2704 H 0.24183 0.29908 0.16343
 H2705 H 0.24318 0.33881 0.06283
 H2706 H 0.27534 0.26320 0.15108
 C2707 C 0.75654 0.84922 0.56034
 C2708 C 0.77259 0.83970 0.57277
 C2709 C 0.76784 0.82916 0.59358
 C2710 C 0.78262 0.81387 0.60150
 C2711 C 0.77898 0.80405 0.62132
 C2712 C 0.76046 0.80946 0.63375
 C2713 C 0.74585 0.82494 0.62591
 C2714 C 0.74944 0.83467 0.60609
 C2715 C 0.75630 0.80037 0.65529
 C2716 C 0.76620 0.78159 0.66327
 H2717 H 0.78917 0.83892 0.56659
 H2718 H 0.79711 0.80956 0.59234
 H2719 H 0.79099 0.79270 0.62697
 H2720 H 0.73163 0.82969 0.63526
 H2721 H 0.73803 0.84689 0.60094
 H2722 H 0.74454 0.80887 0.66533
 H2723 H 0.73958 0.84753 0.56521
 H2724 H 0.77711 0.77200 0.65331
 C2725 C 0.22478 0.64567 0.57047
 C2726 C 0.23590 0.66530 0.57472
 C2727 C 0.23627 0.67523 0.59622
 C2728 C 0.23889 0.69805 0.59856
 C2729 C 0.23952 0.70770 0.61881
 C2730 C 0.23782 0.69454 0.63703
 C2731 C 0.23557 0.67172 0.63460
 C2732 C 0.23476 0.66215 0.61448
 C2733 C 0.23946 0.70348 0.65882
 C2734 C 0.23587 0.72534 0.66482
 H2735 H 0.24358 0.67425 0.56176
 H2736 H 0.24041 0.70842 0.58470
 H2737 H 0.24183 0.72528 0.62008
 H2738 H 0.23455 0.66118 0.64838
 H2739 H 0.23348 0.64446 0.61332
 H2740 H 0.24291 0.69171 0.67112
 H2741 H 0.21464 0.63835 0.58283
 H2742 H 0.23099 0.73734 0.65329
 C2743 C 0.72898 0.14095 0.06757
 C2744 C 0.74474 0.15622 0.07421
 C2745 C 0.74472 0.16522 0.09613
 C2746 C 0.75142 0.18703 0.09968
 C2747 C 0.75161 0.19582 0.12029
 C2748 C 0.74547 0.18276 0.13777
 C2749 C 0.73925 0.16083 0.13423
 C2750 C 0.73871 0.15217 0.11364
 C2751 C 0.74655 0.19099 0.15992
 C2752 C 0.74405 0.21303 0.16575
 H2753 H 0.75617 0.16334 0.06287
 H2754 H 0.75641 0.19731 0.08646
 H2755 H 0.75709 0.21260 0.12251
 H2756 H 0.73478 0.15033 0.14746
 H2757 H 0.73405 0.13512 0.11150
 H2758 H 0.74849 0.17893 0.17230
 H2759 H 0.71598 0.13690 0.07883
 H2760 H 0.74009 0.22508 0.15390
 C2761 C 0.76700 0.15037 0.94034
 C2762 C 0.78284 0.16021 0.92721
 C2763 C 0.77772 0.17068 0.90675
 C2764 C 0.79206 0.18667 0.89842
 C2765 C 0.78818 0.19629 0.87876
 C2766 C 0.76988 0.18992 0.86693
 C2767 C 0.75569 0.17375 0.87515
 C2768 C 0.75948 0.16425 0.89487
 C2769 C 0.76590 0.19863 0.84545
 C2770 C 0.77435 0.21860 0.83805
 H2771 H 0.79955 0.16117 0.93249
 H2772 H 0.80641 0.19164 0.90711
 H2773 H 0.79990 0.20816 0.87267
 H2774 H 0.74170 0.16828 0.86619
 H2775 H 0.74846 0.15146 0.90041
 H2776 H 0.75572 0.18885 0.83505
 H2777 H 0.74994 0.15195 0.93647
 H2778 H 0.78319 0.22941 0.84861
 C2779 C 0.26861 0.65203 0.44438
 C2780 C 0.28479 0.66215 0.43190
 C2781 C 0.28057 0.67094 0.41058
 C2782 C 0.29432 0.68745 0.40232
 C2783 C 0.29127 0.69549 0.38186
 C2784 C 0.27442 0.68698 0.36924
 C2785 C 0.26086 0.67029 0.37743
 C2786 C 0.26383 0.66235 0.39789
 C2787 C 0.27131 0.69406 0.34712
 C2788 C 0.27888 0.71408 0.33908
 H2789 H 0.30098 0.66443 0.43822
 H2790 H 0.30755 0.69406 0.41167
 H2791 H 0.30251 0.70786 0.37586
 H2792 H 0.24802 0.66321 0.36788
 H2793 H 0.25340 0.64907 0.40343
 H2794 H 0.26236 0.68306 0.33678
 H2795 H 0.25180 0.65251 0.43937
 H2796 H 0.28647 0.72606 0.34941
 C2797 C 0.71572 0.85255 0.43427
 C2798 C 0.72691 0.83303 0.43008
 C2799 C 0.72770 0.82268 0.40866
 C2800 C 0.73044 0.79987 0.40664
 C2801 C 0.73156 0.78982 0.38654
 C2802 C 0.73023 0.80253 0.36804
 C2803 C 0.72780 0.82535 0.37013
 C2804 C 0.72650 0.83531 0.39014
 C2805 C 0.73248 0.79315 0.34631
 C2806 C 0.72961 0.77098 0.34080
 H2807 H 0.73427 0.82442 0.44308
 H2808 H 0.73170 0.78979 0.42066
 H2809 H 0.73396 0.77228 0.38559
 H2810 H 0.72705 0.83559 0.35617
 H2811 H 0.72510 0.85299 0.39098
 H2812 H 0.73604 0.80472 0.33368
 H2813 H 0.70601 0.85953 0.42186
 H2814 H 0.72470 0.75910 0.35269
 C2815 C 0.22404 0.35800 0.93619
 C2816 C 0.23454 0.33813 0.93193
 C2817 C 0.23609 0.32851 0.91028
 C2818 C 0.23810 0.30569 0.90770
 C2819 C 0.23979 0.29627 0.88738
 C2820 C 0.23976 0.30963 0.86925
 C2821 C 0.23818 0.33246 0.87191
 C2822 C 0.23633 0.34182 0.89213
 C2823 C 0.24219 0.30083 0.84736
 C2824 C 0.23818 0.27903 0.84125
 H2825 H 0.24078 0.32871 0.94498
 H2826 H 0.23829 0.29511 0.92145
 H2827 H 0.24155 0.27868 0.88601
 H2828 H 0.23843 0.34318 0.85824
 H2829 H 0.23557 0.35951 0.89347
 H2830 H 0.24645 0.31260 0.83510
 H2831 H 0.21531 0.36587 0.92358
 H2832 H 0.23268 0.26703 0.85279
 C2833 C 0.86638 0.43370 0.73718
 C2834 C 0.85827 0.42671 0.75689
 C2835 C 0.84440 0.40667 0.75836
 C2836 C 0.84695 0.39172 0.77499
 C2837 C 0.83543 0.37166 0.77512
 C2838 C 0.82088 0.36647 0.75870
 C2839 C 0.81757 0.38204 0.74278
 C2840 C 0.82911 0.40188 0.74261
 C2841 C 0.80980 0.34481 0.75647
 C2842 C 0.80968 0.32783 0.77134
 H2843 H 0.86353 0.43479 0.77130
 H2844 H 0.85854 0.39516 0.78740
 H2845 H 0.83851 0.36014 0.78766
 H2846 H 0.80633 0.37865 0.73006
 H2847 H 0.82626 0.41336 0.72993
 H2848 H 0.80143 0.34191 0.74168
 H2849 H 0.86312 0.42345 0.72345
 H2850 H 0.81660 0.33025 0.78685
 C2851 C 0.36278 0.92925 0.23650
 C2852 C 0.35287 0.92218 0.25547
 C2853 C 0.34027 0.90131 0.25595
 C2854 C 0.34132 0.88730 0.27349
 C2855 C 0.33082 0.86672 0.27315
 C2856 C 0.31881 0.86004 0.25531
 C2857 C 0.31698 0.87462 0.23830
 C2858 C 0.32749 0.89500 0.23862
 C2859 C 0.30882 0.83790 0.25297
 C2860 C 0.30786 0.82176 0.26864
 H2861 H 0.35510 0.93107 0.27019
 H2862 H 0.35090 0.89195 0.28711
 H2863 H 0.33271 0.85605 0.28661
 H2864 H 0.30767 0.87007 0.22447
 H2865 H 0.32573 0.90576 0.22516
 H2866 H 0.30213 0.83391 0.23759
 H2867 H 0.36211 0.91792 0.22317
 H2868 H 0.31338 0.82520 0.28452
 C2869 C 0.14475 0.94287 0.75696
 C2870 C 0.14018 0.92039 0.75695
 C2871 C 0.15705 0.90353 0.75319
 C2872 C 0.15108 0.88342 0.74390
 C2873 C 0.16619 0.86643 0.74187
 C2874 C 0.18746 0.86912 0.74955
 C2875 C 0.19348 0.88929 0.75871
 C2876 C 0.17851 0.90646 0.76030
 C2877 C 0.20262 0.85041 0.75047
 C2878 C 0.20270 0.83324 0.73569
 H2879 H 0.12341 0.91492 0.75916
 H2880 H 0.13455 0.88072 0.73854
 H2881 H 0.16086 0.85088 0.73525
 H2882 H 0.20968 0.89161 0.76503
 H2883 H 0.18345 0.92162 0.76796
 H2884 H 0.21354 0.84974 0.76379
 H2885 H 0.16076 0.94867 0.75185
 H2886 H 0.19370 0.83478 0.72114
 C2887 C 0.64168 0.42640 0.24687
 C2888 C 0.65486 0.41546 0.26116
 C2889 C 0.66995 0.39742 0.25540
 C2890 C 0.68754 0.39365 0.26875
 C2891 C 0.70136 0.37592 0.26517
 C2892 C 0.69784 0.36122 0.24830
 C2893 C 0.68049 0.36518 0.23450
 C2894 C 0.66668 0.38322 0.23799
 C2895 C 0.71167 0.34134 0.24724
 C2896 C 0.71010 0.32400 0.23260
 H2897 H 0.65529 0.42146 0.27738
 H2898 H 0.69045 0.40430 0.28226
 H2899 H 0.71453 0.37334 0.27611
 H2900 H 0.67712 0.35418 0.22142
 H2901 H 0.65305 0.38549 0.22757
 H2902 H 0.72305 0.33948 0.26008
 H2903 H 0.64300 0.42259 0.23009
 H2904 H 0.70037 0.32540 0.21853
 C2905 C 0.64011 0.55881 0.23022
 C2906 C 0.64770 0.56490 0.25027
 C2907 C 0.66296 0.58372 0.25306
 C2908 C 0.66221 0.59644 0.27174
 C2909 C 0.67600 0.61483 0.27408
 C2910 C 0.69106 0.62054 0.25784
 C2911 C 0.69236 0.60716 0.23963
 C2912 C 0.67854 0.58902 0.23725
 C2913 C 0.70485 0.64072 0.25816
 C2914 C 0.70458 0.65718 0.27382
 H2915 H 0.64162 0.55647 0.26427
 H2916 H 0.65054 0.59248 0.28429
 H2917 H 0.67451 0.62460 0.28840
 H2918 H 0.70389 0.61098 0.22692
 H2919 H 0.68014 0.57914 0.22298
 H2920 H 0.71482 0.64363 0.24405
 H2921 H 0.64415 0.56934 0.21690
 H2922 H 0.69597 0.65479 0.28877
 C2923 C 0.13777 0.07021 0.73595
 C2924 C 0.14774 0.07625 0.75495
 C2925 C 0.16312 0.09518 0.75600
 C2926 C 0.16432 0.10801 0.77456
 C2927 C 0.17792 0.12669 0.77527
 C2928 C 0.19084 0.13261 0.75744
 C2929 C 0.19027 0.11913 0.73930
 C2930 C 0.17665 0.10067 0.73856
 C2931 C 0.20414 0.15311 0.75621
 C2932 C 0.20647 0.16882 0.77238
 H2933 H 0.14319 0.06795 0.76953
 H2934 H 0.15423 0.10395 0.78830
 H2935 H 0.17785 0.13654 0.78958
 H2936 H 0.20015 0.12312 0.72539
 H2937 H 0.17676 0.09072 0.72427
 H2938 H 0.21173 0.15662 0.74092
 H2939 H 0.14042 0.08059 0.72223
 H2940 H 0.20017 0.16578 0.78823
 C2941 C 0.36556 0.06521 0.25666
 C2942 C 0.37397 0.08592 0.26181
 C2943 C 0.36354 0.10695 0.25621
 C2944 C 0.36951 0.12582 0.26764
 C2945 C 0.35908 0.14571 0.26429
 C2946 C 0.34262 0.14737 0.24921
 C2947 C 0.33725 0.12880 0.23695
 C2948 C 0.34764 0.10874 0.24040
 C2949 C 0.33005 0.16796 0.24865
 C2950 C 0.31625 0.17447 0.23243
 H2951 H 0.38846 0.08686 0.27140
 H2952 H 0.38181 0.12502 0.27975
 H2953 H 0.36352 0.15977 0.27397
 H2954 H 0.32450 0.12946 0.22531
 H2955 H 0.34296 0.09477 0.23081
 H2956 H 0.33134 0.17857 0.26247
 H2957 H 0.35160 0.06376 0.24648
 H2958 H 0.31615 0.16601 0.21729
 C2959 C 0.86534 0.56811 0.75037
 C2960 C 0.85471 0.58199 0.76482
 C2961 C 0.84305 0.60249 0.75980
 C2962 C 0.83217 0.61299 0.77667
 C2963 C 0.82215 0.63308 0.77382
 C2964 C 0.82255 0.64337 0.75397
 C2965 C 0.83298 0.63280 0.73671
 C2966 C 0.84327 0.61246 0.73962
 C2967 C 0.81241 0.66529 0.75299
 C2968 C 0.80642 0.67706 0.73494
 H2969 H 0.85486 0.57743 0.78142
 H2970 H 0.83170 0.60581 0.79237
 H2971 H 0.81419 0.64074 0.78742
 H2972 H 0.83370 0.64038 0.72123
 H2973 H 0.85169 0.60496 0.72626
 H2974 H 0.80841 0.67241 0.76836
 H2975 H 0.86362 0.57040 0.73347
 H2976 H 0.81052 0.67128 0.71911
 C2977 C 0.94536 0.76937 0.17413
 C2978 C 0.92670 0.78243 0.17466
 C2979 C 0.90609 0.77493 0.18488
 C2980 C 0.88623 0.78185 0.17663
 C2981 C 0.86645 0.77484 0.18576
 C2982 C 0.86621 0.76100 0.20357
 C2983 C 0.88609 0.75444 0.21207
 C2984 C 0.90588 0.76132 0.20283
 C2985 C 0.84556 0.75376 0.21388
 C2986 C 0.82549 0.75871 0.20540
 H2987 H 0.92622 0.79758 0.16589
 H2988 H 0.88601 0.79249 0.16292
 H2989 H 0.85141 0.78042 0.17893
 H2990 H 0.88632 0.74404 0.22595
 H2991 H 0.92094 0.75627 0.20999
 H2992 H 0.84611 0.74495 0.22877
 H2993 H 0.94394 0.75310 0.18092
 H2994 H 0.81413 0.75545 0.21205
 C2995 C 0.43999 0.27089 0.66166
 C2996 C 0.42395 0.28550 0.66870
 C2997 C 0.40306 0.27821 0.67860
 C2998 C 0.38493 0.29200 0.67752
 C2999 C 0.36499 0.28589 0.68693
 C3000 C 0.36284 0.26583 0.69776
 C3001 C 0.38110 0.25228 0.69929
 C3002 C 0.40103 0.25833 0.68976
 C3003 C 0.34218 0.25920 0.70851
 C3004 C 0.32185 0.26670 0.70227
 H3005 H 0.42634 0.30296 0.66669
 H3006 H 0.38620 0.30758 0.66936
 H3007 H 0.35152 0.29718 0.68611
 H3008 H 0.37996 0.23697 0.70792
 H3009 H 0.41485 0.24766 0.69164
 H3010 H 0.34303 0.24789 0.72168
 H3011 H 0.43705 0.25345 0.66344
 H3012 H 0.32060 0.27672 0.68823
 C3013 C 0.43839 0.73073 0.83537
 C3014 C 0.41749 0.72222 0.83915
 C3015 C 0.39846 0.72766 0.82620
 C3016 C 0.38015 0.71373 0.82719
 C3017 C 0.36132 0.71879 0.81622
 C3018 C 0.36032 0.73816 0.80425
 C3019 C 0.37878 0.75186 0.80280
 C3020 C 0.39766 0.74680 0.81381
 C3021 C 0.34031 0.74431 0.79316
 C3022 C 0.31969 0.73797 0.80065
 H3023 H 0.41462 0.71137 0.85246
 H3024 H 0.38040 0.69886 0.83653
 H3025 H 0.34766 0.70742 0.81705
 H3026 H 0.37838 0.76680 0.79359
 H3027 H 0.41119 0.75829 0.81303
 H3028 H 0.34180 0.75454 0.77919
 H3029 H 0.44136 0.74156 0.82208
 H3030 H 0.31804 0.72905 0.81540
 C3031 C 0.94808 0.22505 0.32985
 C3032 C 0.93099 0.20999 0.32702
 C3033 C 0.91124 0.21572 0.31522
 C3034 C 0.89134 0.20579 0.32113
 C3035 C 0.87202 0.21207 0.31163
 C3036 C 0.87224 0.22848 0.29601
 C3037 C 0.89227 0.23747 0.28918
 C3038 C 0.91165 0.23116 0.29868
 C3039 C 0.85192 0.23603 0.28627
 C3040 C 0.83185 0.23480 0.29693
 H3041 H 0.93064 0.19450 0.33524
 H3042 H 0.89068 0.19350 0.33349
 H3043 H 0.85700 0.20393 0.31653
 H3044 H 0.89289 0.24967 0.27674
 H3045 H 0.92682 0.23842 0.29300
 H3046 H 0.85280 0.24266 0.27035
 H3047 H 0.94687 0.24074 0.32200
 H3048 H 0.83098 0.22923 0.31320
 C3049 C 0.07540 0.26963 0.35728
 C3050 C 0.08512 0.25252 0.34583
 C3051 C 0.10868 0.25156 0.34040
 C3052 C 0.11683 0.23202 0.33157
 C3053 C 0.13832 0.23093 0.32401
 C3054 C 0.15205 0.24950 0.32497
 C3055 C 0.14433 0.26869 0.33475
 C3056 C 0.12279 0.26983 0.34225
 C3057 C 0.17404 0.24972 0.31511
 C3058 C 0.17906 0.23727 0.29707
 H3059 H 0.07492 0.23964 0.33935
 H3060 H 0.10638 0.21766 0.33011
 H3061 H 0.14402 0.21562 0.31723
 H3062 H 0.15470 0.28316 0.33575
 H3063 H 0.11727 0.28534 0.34862
 H3064 H 0.18578 0.26173 0.32075
 H3065 H 0.08538 0.28266 0.36377
 H3066 H 0.16700 0.22620 0.29047
 C3067 C 0.56762 0.76792 0.85981
 C3068 C 0.57484 0.75386 0.84368
 C3069 C 0.59768 0.75361 0.83573
 C3070 C 0.60486 0.73554 0.82370
 C3071 C 0.62593 0.73530 0.81486
 C3072 C 0.64012 0.75331 0.81778
 C3073 C 0.63311 0.77117 0.83012
 C3074 C 0.61205 0.77147 0.83884
 C3075 C 0.66221 0.75421 0.80818
 C3076 C 0.66788 0.74313 0.78950
 H3077 H 0.56322 0.74318 0.83586
 H3078 H 0.59411 0.72160 0.82107
 H3079 H 0.63104 0.72099 0.80591
 H3080 H 0.64376 0.78523 0.83253
 H3081 H 0.60705 0.78607 0.84735
 H3082 H 0.67397 0.76533 0.81525
 H3083 H 0.57917 0.77836 0.86795
 H3084 H 0.65603 0.73288 0.78150
 C3085 C 0.57072 0.24178 0.66643
 C3086 C 0.59118 0.23286 0.66190
 C3087 C 0.61048 0.23663 0.67523
 C3088 C 0.62750 0.22146 0.67397
 C3089 C 0.64642 0.22469 0.68560
 C3090 C 0.64889 0.24346 0.69849
 C3091 C 0.63171 0.25844 0.70013
 C3092 C 0.61271 0.25518 0.68849
 C3093 C 0.66914 0.24765 0.71034
 C3094 C 0.68925 0.23986 0.70309
 H3095 H 0.59339 0.22245 0.64809
 H3096 H 0.62612 0.20698 0.66399
 H3097 H 0.65896 0.21234 0.68456
 H3098 H 0.63323 0.27296 0.71002
 H3099 H 0.60019 0.26754 0.68951
 H3100 H 0.66830 0.25761 0.72463
 H3101 H 0.56861 0.25213 0.68031
 H3102 H 0.69036 0.23125 0.68803
 C3103 C 0.07415 0.73383 0.17052
 C3104 C 0.09391 0.72470 0.16377
 C3105 C 0.11423 0.72707 0.17583
 C3106 C 0.13051 0.71125 0.17304
 C3107 C 0.15005 0.71299 0.18401
 C3108 C 0.15378 0.73086 0.19776
 C3109 C 0.13748 0.74666 0.20057
 C3110 C 0.11795 0.74491 0.18961
 C3111 C 0.17422 0.73346 0.20959
 C3112 C 0.19383 0.72385 0.20319
 H3113 H 0.09469 0.71512 0.14928
 H3114 H 0.12799 0.69735 0.16252
 H3115 H 0.16193 0.70012 0.18189
 H3116 H 0.14001 0.76059 0.21104
 H3117 H 0.10609 0.75782 0.19169
 H3118 H 0.17403 0.74424 0.22334
 H3119 H 0.07347 0.74333 0.18507
 H3120 H 0.19477 0.71410 0.18880
   
