data_POSCAR
  _audit_creation_date              2014-09-24
  _audit_creation_method            'ToBaCCo'
  _symmetry_space_group_name_H-M    'P1'
  _symmetry_Int_Tables_number       1
  _symmetry_cell_setting            triclinic
  loop_
  _symmetry_equiv_pos_as_xyz
 x,y,z
_cell_length_a 62.2619
_cell_length_b 61.0829
_cell_length_c 62.1418
_cell_angle_alpha 90.533000
_cell_angle_beta 90.200700
_cell_angle_gamma 89.918200
loop_
  _atom_site_label
  _atom_site_type_symbol
  _atom_site_fract_x
  _atom_site_fract_y
  _atom_site_fract_z
C1 C 0.72272 0.65709 0.97953
 H2 H 0.73732 0.65502 0.97033
 C3 C 0.70537 0.66856 0.97076
 H4 H 0.70677 0.67520 0.95473
 C5 C 0.70262 0.64931 1.01083
 H6 H 0.70125 0.64129 1.02614
 C7 C 0.68503 0.66081 1.00280
 H8 H 0.67058 0.66189 1.01240
 N9 N 0.72092 0.64741 0.99907
 C10 C 0.78308 0.63257 1.02742
 H11 H 0.78037 0.61547 1.03086
 C12 C 0.80160 0.64285 1.03497
 H13 H 0.81326 0.63348 1.04403
 C14 C 0.77098 0.66554 1.01156
 H15 H 0.75880 0.67434 1.00271
 C16 C 0.78947 0.67647 1.01867
 H17 H 0.79143 0.69371 1.01527
 Zn18 Zn 0.74311 0.62836 1.00834
 N19 N 0.76820 0.64396 1.01602
 C20 C 0.76959 0.60445 0.97949
 N21 N 0.74899 0.60861 0.98549
 C22 C 0.73209 0.60027 0.97417
 C23 C 0.73560 0.58776 0.95557
 C24 C 0.77382 0.59168 0.96126
 C25 C 0.73209 0.62531 1.05137
 C26 C 0.72548 0.61565 1.07042
 C27 C 0.72438 0.58074 1.05191
 C28 C 0.73082 0.59125 1.03308
 N29 N 0.73421 0.61319 1.03312
 H30 H 0.78280 0.61147 0.98847
 H31 H 0.71586 0.60399 0.97920
 H32 H 0.72202 0.58171 0.94635
 H33 H 0.79030 0.58896 0.95638
 H34 H 0.73557 0.64266 1.05107
 H35 H 0.72495 0.62613 1.08450
 H36 H 0.72091 0.56346 1.05062
 H37 H 0.73285 0.58189 1.01838
 C38 C 0.80492 0.66511 1.03076
 C39 C 0.68601 0.67010 0.98225
 C40 C 0.72113 0.59289 1.07121
 C41 C 0.75670 0.58353 0.94886
 C42 C 0.74334 0.33637 0.52231
 H43 H 0.75907 0.33660 0.52977
 C44 C 0.72727 0.32283 0.53044
 H45 H 0.73086 0.31239 0.54397
 C46 C 0.71925 0.35054 0.49631
 H47 H 0.71581 0.36203 0.48368
 C48 C 0.70278 0.33724 0.50387
 H49 H 0.68693 0.33865 0.49677
 N50 N 0.73902 0.35006 0.50570
 C51 C 0.80152 0.37207 0.48244
 H52 H 0.79919 0.38957 0.48404
 C53 C 0.82069 0.36393 0.47404
 H54 H 0.83319 0.37538 0.46980
 C55 C 0.78786 0.33616 0.48627
 H56 H 0.77483 0.32546 0.49068
 C57 C 0.80668 0.32729 0.47753
 H58 H 0.80780 0.30974 0.47524
 Zn59 Zn 0.75989 0.37127 0.49835
 N60 N 0.78568 0.35821 0.48857
 C61 C 0.78464 0.39183 0.53164
 N62 N 0.76463 0.38855 0.52336
 C63 C 0.74688 0.39654 0.53348
 C64 C 0.74885 0.40826 0.55278
 C65 C 0.78737 0.40390 0.55064
 C66 C 0.74514 0.37826 0.45678
 C67 C 0.73658 0.38975 0.43948
 C68 C 0.73864 0.42301 0.46079
 C69 C 0.74680 0.41077 0.47790
 N70 N 0.74951 0.38875 0.47567
 H71 H 0.79852 0.38488 0.52377
 H72 H 0.73114 0.39344 0.52669
 H73 H 0.73460 0.41432 0.56082
 H74 H 0.80336 0.40629 0.55715
 H75 H 0.74784 0.36080 0.45537
 H76 H 0.73267 0.38110 0.42469
 H77 H 0.73615 0.44046 0.46278
 H78 H 0.75080 0.41882 0.49294
 C79 C 0.82344 0.34124 0.47118
 C80 C 0.70654 0.32349 0.52145
 C81 C 0.73308 0.41234 0.44148
 C82 C 0.76931 0.41207 0.56149
 C83 C 0.22614 -0.16029 0.02470
 H84 H 0.23996 -0.16025 0.03530
 C85 C 0.20773 -0.17189 0.03041
 H86 H 0.20759 -0.18047 0.04556
 C87 C 0.20919 -0.14779 -0.00706
 H88 H 0.20957 -0.13810 -0.02149
 C89 C 0.19062 -0.15948 -0.00219
 H90 H 0.17720 -0.15892 -0.01328
 N91 N 0.22642 -0.14813 0.00646
 C92 C 0.29267 -0.13788 -0.01354
 H93 H 0.29196 -0.12072 -0.01754
 C94 C 0.31095 -0.14999 -0.01881
 H95 H 0.32418 -0.14187 -0.02667
 C96 C 0.27552 -0.16958 -0.00033
 H97 H 0.26157 -0.17733 0.00643
 C98 C 0.29354 -0.18233 -0.00528
 H99 H 0.29331 -0.19967 -0.00185
 Zn100 Zn 0.25062 -0.13017 0.00028
 N101 N 0.27542 -0.14773 -0.00444
 C102 C 0.27288 -0.09648 0.02283
 N103 N 0.25569 -0.11021 0.02360
 C104 C 0.24271 -0.11053 0.04120
 C105 C 0.24770 -0.09799 0.05943
 C106 C 0.27824 -0.08335 0.04060
 C107 C 0.24569 -0.12672 -0.04400
 C108 C 0.24047 -0.11711 -0.06359
 C109 C 0.23501 -0.08279 -0.04483
 C110 C 0.24033 -0.09319 -0.02556
 N111 N 0.24516 -0.11485 -0.02548
 H112 H 0.28273 -0.09597 0.00860
 H113 H 0.22862 -0.12075 0.04138
 H114 H 0.23757 -0.09895 0.07352
 H115 H 0.29237 -0.07307 0.03998
 H116 H 0.24997 -0.14389 -0.04350
 H117 H 0.24203 -0.12737 -0.07774
 H118 H 0.23006 -0.06588 -0.04357
 H119 H 0.23990 -0.08409 -0.01055
 C120 C 0.31153 -0.17256 -0.01479
 C121 C 0.18947 -0.17133 0.01704
 C122 C 0.23440 -0.09475 -0.06455
 C123 C 0.26588 -0.08450 0.05938
 C124 C 0.23344 0.17359 0.47729
 H125 H 0.24926 0.17507 0.47031
 C126 C 0.21613 0.18503 0.46844
 H127 H 0.21888 0.19567 0.45489
 C128 C 0.21058 0.15732 0.50298
 H129 H 0.20828 0.14593 0.51595
 C130 C 0.19285 0.16835 0.49459
 H131 H 0.17714 0.16523 0.50131
 N132 N 0.23037 0.15995 0.49417
 C133 C 0.29285 0.14607 0.52271
 H134 H 0.29115 0.12847 0.52342
 C135 C 0.31137 0.15597 0.53070
 H136 H 0.32396 0.14573 0.53724
 C137 C 0.27856 0.18047 0.51263
 H138 H 0.26562 0.18991 0.50572
 C139 C 0.29690 0.19114 0.52058
 H140 H 0.29787 0.20881 0.51979
 Zn141 Zn 0.25330 0.14188 0.50336
 N142 N 0.27705 0.15828 0.51361
 C143 C 0.28263 0.12488 0.47274
 N144 N 0.26184 0.12445 0.47939
 C145 C 0.24668 0.11299 0.46819
 C146 C 0.25224 0.10141 0.44946
 C147 C 0.28893 0.11328 0.45440
 C148 C 0.23993 0.13548 0.54524
 C149 C 0.23396 0.12420 0.56366
 C150 C 0.23719 0.09026 0.54364
 C151 C 0.24313 0.10225 0.52552
 N152 N 0.24427 0.12446 0.52665
 H153 H 0.29438 0.13457 0.48133
 H154 H 0.23018 0.11321 0.47359
 H155 H 0.24001 0.09250 0.44059
 H156 H 0.30550 0.11406 0.44924
 H157 H 0.24114 0.15315 0.54569
 H158 H 0.23025 0.13338 0.57816
 H159 H 0.23657 0.07257 0.54257
 H160 H 0.24702 0.09380 0.51067
 C161 C 0.31363 0.17882 0.52976
 C162 C 0.19539 0.18218 0.47686
 C163 C 0.23259 0.10127 0.56308
 C164 C 0.27364 0.10147 0.44244
 C165 C 0.17148 0.47041 0.22054
 H166 H 0.16879 0.46165 0.23534
 C167 C 0.18351 0.46073 0.20406
 H168 H 0.18979 0.44438 0.20632
 C169 C 0.16516 0.50173 0.19924
 H170 H 0.15764 0.51749 0.19716
 C171 C 0.17735 0.49284 0.18250
 H172 H 0.17942 0.50224 0.16799
 N173 N 0.16240 0.49044 0.21778
 C174 C 0.14858 0.52066 0.27974
 H175 H 0.13161 0.52369 0.27741
 C176 C 0.15862 0.52750 0.29869
 H177 H 0.14929 0.53608 0.31079
 C178 C 0.18133 0.50617 0.26641
 H179 H 0.19005 0.49785 0.25373
 C180 C 0.19208 0.51280 0.28518
 H181 H 0.20906 0.50934 0.28691
 Zn182 Zn 0.14406 0.50123 0.23967
 N183 N 0.15991 0.50997 0.26422
 C184 C 0.12506 0.47103 0.26779
 N185 N 0.12495 0.47838 0.24721
 C186 C 0.11249 0.46868 0.23183
 C187 C 0.09924 0.45100 0.23703
 C188 C 0.11211 0.45353 0.27367
 C189 C 0.14077 0.54467 0.22690
 C190 C 0.13084 0.56397 0.22031
 C191 C 0.09665 0.54533 0.22117
 C192 C 0.10727 0.52632 0.22767
 N193 N 0.12899 0.52628 0.23014
 H194 H 0.13553 0.47838 0.27968
 H195 H 0.11300 0.47455 0.21546
 H196 H 0.08935 0.44352 0.22463
 H197 H 0.11287 0.44771 0.29006
 H198 H 0.15796 0.54431 0.22948
 H199 H 0.14051 0.57846 0.21788
 H200 H 0.07940 0.54501 0.21894
 H201 H 0.09814 0.51169 0.23079
 C202 C 0.18062 0.52343 0.30170
 C203 C 0.18639 0.47186 0.18457
 C204 C 0.10850 0.56445 0.21729
 C205 C 0.09894 0.44324 0.25824
 C206 C -0.16023 0.02860 0.23108
 H207 H -0.16058 0.03759 0.24616
 C208 C -0.17147 0.03656 0.21323
 H209 H -0.17995 0.05190 0.21517
 C210 C -0.14682 -0.00105 0.21045
 H211 H -0.13683 -0.01542 0.20911
 C212 C -0.15785 0.00616 0.19231
 H213 H -0.15677 -0.00386 0.17793
 N214 N -0.14811 0.01016 0.22938
 C215 C -0.13623 -0.01711 0.29280
 H216 H -0.11915 -0.01977 0.29100
 C217 C -0.14676 -0.02496 0.31087
 H218 H -0.13770 -0.03363 0.32304
 C219 C -0.16885 -0.00286 0.27889
 H220 H -0.17741 0.00542 0.26618
 C221 C -0.18000 -0.01013 0.29700
 H222 H -0.19715 -0.00742 0.29819
 Zn223 Zn -0.13079 0.00149 0.25307
 N224 N -0.14734 -0.00645 0.27719
 C225 C -0.11294 0.03391 0.28059
 N226 N -0.11269 0.02528 0.26035
 C227 C -0.10034 0.03410 0.24465
 C228 C -0.08751 0.05236 0.24907
 C229 C -0.10031 0.05208 0.28573
 C230 C -0.12522 -0.04200 0.24018
 C231 C -0.11421 -0.06098 0.23423
 C232 C -0.08078 -0.04216 0.24124
 C233 C -0.09248 -0.02333 0.24656
 N234 N -0.11429 -0.02350 0.24560
 H235 H -0.12318 0.02694 0.29273
 H236 H -0.10062 0.02702 0.22863
 H237 H -0.07771 0.05913 0.23640
 H238 H -0.10103 0.05895 0.30183
 H239 H -0.14260 -0.04180 0.24000
 H240 H -0.12341 -0.07504 0.22893
 H241 H -0.06345 -0.04168 0.24245
 H242 H -0.08411 -0.00867 0.25162
 C243 C -0.16890 -0.02159 0.31307
 C244 C -0.17014 0.02561 0.19311
 C245 C -0.09162 -0.06131 0.23462
 C246 C -0.08742 0.06160 0.26985
 C247 C 0.32135 0.50009 0.72382
 H248 H 0.31216 0.49690 0.73812
 C249 C 0.31097 0.50845 0.70562
 H250 H 0.29393 0.51196 0.70626
 C251 C 0.35459 0.49962 0.70540
 H252 H 0.37151 0.49568 0.70520
 C253 C 0.34493 0.50794 0.68698
 H254 H 0.35461 0.51051 0.67278
 N255 N 0.34293 0.49644 0.72356
 C256 C 0.34505 0.45473 0.77661
 H257 H 0.35786 0.44521 0.76955
 C258 C 0.33337 0.44587 0.79347
 H259 H 0.33749 0.42965 0.79904
 C260 C 0.32543 0.48788 0.77913
 H261 H 0.32285 0.50451 0.77386
 C262 C 0.31326 0.47960 0.79612
 H263 H 0.30101 0.48978 0.80343
 Zn264 Zn 0.35895 0.48678 0.74772
 N265 N 0.34094 0.47537 0.76967
 C266 C 0.37338 0.51622 0.78016
 N267 N 0.37525 0.51065 0.75900
 C268 C 0.38808 0.52235 0.74566
 C269 C 0.39902 0.54082 0.75328
 C270 C 0.38401 0.53457 0.78845
 C271 C 0.36779 0.44731 0.72712
 C272 C 0.37993 0.42950 0.72002
 C273 C 0.41173 0.44713 0.73433
 C274 C 0.39889 0.46457 0.74140
 N275 N 0.37733 0.46421 0.73784
 H276 H 0.36345 0.50661 0.79068
 H277 H 0.38977 0.51750 0.72902
 H278 H 0.40910 0.54990 0.74237
 H279 H 0.38175 0.53903 0.80519
 H280 H 0.35062 0.44757 0.72442
 H281 H 0.37204 0.41613 0.71161
 H282 H 0.42883 0.44741 0.73752
 H283 H 0.40610 0.47819 0.74998
 C284 C 0.31723 0.45830 0.80352
 C285 C 0.32294 0.51291 0.68707
 C286 C 0.40216 0.42921 0.72372
 C287 C 0.39686 0.54730 0.77489
 C288 C 0.65176 0.96288 0.73273
 H289 H 0.64920 0.95172 0.74588
 C290 C 0.66161 0.95548 0.71384
 H291 H 0.66690 0.93862 0.71267
 C292 C 0.64744 0.99831 0.71805
 H293 H 0.64153 1.01489 0.71964
 C294 C 0.65734 0.99164 0.69897
 H295 H 0.65885 1.00319 0.68595
 N296 N 0.64457 0.98386 0.73431
 C297 C 0.63565 1.00932 0.79944
 H298 H 0.61835 1.01112 0.79945
 C299 C 0.64750 1.01589 0.81740
 H300 H 0.63879 1.02324 0.83065
 C301 C 0.66731 0.99895 0.78106
 H302 H 0.67490 0.99221 0.76683
 C303 C 0.67992 1.00556 0.79866
 H304 H 0.69709 1.00314 0.79763
 Zn305 Zn 0.62782 0.99246 0.75824
 N306 N 0.64559 1.00085 0.78182
 C307 C 0.60973 0.96181 0.78704
 N308 N 0.61020 0.96835 0.76617
 C309 C 0.59940 0.95697 0.75060
 C310 C 0.58733 0.93846 0.75585
 C311 C 0.59769 0.94367 0.79301
 C312 C 0.61690 1.03725 0.75696
 C313 C 0.60650 1.05587 0.74933
 C314 C 0.58379 1.03258 0.72744
 C315 C 0.59459 1.01436 0.73557
 N316 N 0.61092 1.01696 0.74997
 H317 H 0.61895 0.97033 0.79917
 H318 H 0.60061 0.96188 0.73398
 H319 H 0.57888 0.92955 0.74329
 H320 H 0.59774 0.93866 0.80968
 H321 H 0.63042 1.03916 0.76774
 H322 H 0.61207 1.07186 0.75453
 H323 H 0.57101 1.03020 0.71579
 H324 H 0.59031 0.99820 0.72987
 C325 C 0.67011 1.01411 0.81744
 C326 C 0.66419 0.96986 0.69653
 C327 C 0.58992 1.05371 0.73412
 C328 C 0.58630 0.93173 0.77734
 C329 C 0.01705 0.23316 -0.17881
 H330 H 0.02316 0.24960 -0.18056
 C331 C 0.02531 0.21629 -0.19167
 H332 H 0.03706 0.22026 -0.20380
 C333 C -0.00498 0.20810 -0.16025
 H334 H -0.01630 0.20485 -0.14754
 C335 C 0.00322 0.19067 -0.17239
 H336 H -0.00193 0.17425 -0.16862
 N337 N 0.00229 0.22881 -0.16334
 C338 C -0.02279 0.29327 -0.14418
 H339 H -0.02398 0.29078 -0.12708
 C340 C -0.02994 0.31294 -0.15286
 H341 H -0.03634 0.32543 -0.14219
 C342 C -0.01486 0.27931 -0.17891
 H343 H -0.00963 0.26601 -0.18914
 C344 C -0.02186 0.29880 -0.18830
 H345 H -0.02129 0.30040 -0.20563
 Zn346 Zn -0.00588 0.25094 -0.14319
 N347 N -0.01500 0.27705 -0.15712
 C348 C 0.01605 0.27133 -0.10796
 N349 N 0.01810 0.25704 -0.12478
 C350 C 0.03726 0.24714 -0.12893
 C351 C 0.05544 0.25221 -0.11668
 C352 C 0.03381 0.27677 -0.09519
 C353 C -0.04850 0.23913 -0.13759
 C354 C -0.06695 0.23250 -0.12681
 C355 C -0.04588 0.22943 -0.09430
 C356 C -0.02783 0.23610 -0.10582
 N357 N -0.02949 0.24089 -0.12702
 H358 H 0.00064 0.27846 -0.10426
 H359 H 0.03870 0.23546 -0.14196
 H360 H 0.07064 0.24472 -0.12090
 H361 H 0.03176 0.28818 -0.08192
 H362 H -0.04938 0.24329 -0.15446
 H363 H -0.08169 0.23263 -0.13599
 H364 H -0.04323 0.22491 -0.07775
 H365 H -0.01243 0.23719 -0.09780
 C366 C -0.02939 0.31601 -0.17519
 C367 C 0.01892 0.19453 -0.18814
 C368 C -0.06621 0.22745 -0.10457
 C369 C 0.05395 0.26746 -0.09971
 C370 C 0.47731 0.23631 0.16065
 H371 H 0.46796 0.25103 0.15825
 C372 C 0.46913 0.21945 0.17323
 H373 H 0.45337 0.22138 0.18028
 C374 C 0.50845 0.21544 0.15283
 H375 H 0.52351 0.21365 0.14444
 C376 C 0.50102 0.19829 0.16550
 H377 H 0.51083 0.18374 0.16708
 N378 N 0.49649 0.23392 0.15051
 C379 C 0.52000 0.29865 0.13314
 H380 H 0.52143 0.29643 0.11591
 C381 C 0.52605 0.31846 0.14271
 H382 H 0.53234 0.33140 0.13276
 C383 C 0.51054 0.28414 0.16705
 H384 H 0.50456 0.27068 0.17645
 C385 C 0.51656 0.30365 0.17733
 H386 H 0.51496 0.30512 0.19463
 Zn387 Zn 0.50446 0.25591 0.13078
 N388 N 0.51221 0.28209 0.14531
 C389 C 0.47115 0.28123 0.11236
 N390 N 0.48016 0.26095 0.11300
 C391 C 0.47070 0.24356 0.10296
 C392 C 0.45123 0.24617 0.09196
 C393 C 0.45180 0.28458 0.10152
 C394 C 0.54754 0.24506 0.12534
 C395 C 0.56604 0.23804 0.11471
 C396 C 0.54537 0.23505 0.08184
 C397 C 0.52722 0.24218 0.09313
 N398 N 0.52857 0.24668 0.11457
 H399 H 0.47856 0.29478 0.12079
 H400 H 0.47794 0.22750 0.10411
 H401 H 0.44361 0.23201 0.08465
 H402 H 0.44493 0.30087 0.10128
 H403 H 0.54819 0.24896 0.14235
 H404 H 0.58081 0.23627 0.12376
 H405 H 0.54401 0.23148 0.06479
 H406 H 0.51209 0.24399 0.08477
 C407 C 0.52436 0.32115 0.16509
 C408 C 0.48087 0.19992 0.17554
 C409 C 0.56509 0.23275 0.09268
 C410 C 0.44135 0.26686 0.09146
 C411 C 0.96731 0.72971 0.66175
 H412 H 0.96013 0.74580 0.66060
 C413 C 0.95710 0.71337 0.67353
 H414 H 0.94214 0.71703 0.68164
 C415 C 0.99516 0.70512 0.65194
 H416 H 1.00962 0.70169 0.64300
 C417 C 0.98566 0.68843 0.66374
 H418 H 0.99300 0.67234 0.66378
 N419 N 0.98592 0.72529 0.65115
 C420 C 1.02081 0.78520 0.63848
 H421 H 1.02333 0.78257 0.62144
 C422 C 1.03044 0.80295 0.64885
 H423 H 1.04029 0.81406 0.63967
 C424 C 1.00490 0.77378 0.67113
 H425 H 0.99514 0.76218 0.67972
 C426 C 1.01400 0.79163 0.68213
 H427 H 1.01123 0.79370 0.69922
 Zn428 Zn 0.99759 0.74721 0.63333
 N429 N 1.00842 0.77101 0.64967
 C430 C 0.96941 0.77860 0.61609
 N431 N 0.97546 0.75724 0.61489
 C432 C 0.96500 0.74282 0.60174
 C433 C 0.94786 0.74984 0.58891
 C434 C 0.95233 0.78626 0.60370
 C435 C 1.03896 0.73071 0.62905
 C436 C 1.05739 0.72312 0.61871
 C437 C 1.03896 0.72666 0.58464
 C438 C 1.02083 0.73422 0.59566
 N439 N 1.02111 0.73590 0.61750
 H440 H 0.97748 0.78970 0.62705
 H441 H 0.96989 0.72582 0.60136
 H442 H 0.93987 0.73818 0.57840
 H443 H 0.94749 0.80321 0.60544
 H444 H 1.03883 0.73253 0.64638
 H445 H 1.07129 0.71875 0.62828
 H446 H 1.03856 0.72562 0.56724
 H447 H 1.00670 0.73898 0.58672
 C448 C 1.02714 0.80629 0.67094
 C449 C 0.96625 0.69238 0.67449
 C450 C 1.05758 0.72103 0.59620
 C451 C 0.94127 0.77186 0.58983
 C452 C 0.51914 0.74372 0.35505
 H453 H 0.52640 0.75962 0.35282
 C454 C 0.52785 0.72529 0.34481
 H455 H 0.54159 0.72723 0.33438
 C456 C 0.49271 0.72187 0.37175
 H457 H 0.47953 0.72039 0.38287
 C458 C 0.50091 0.70305 0.36190
 H459 H 0.49377 0.68736 0.36551
 N460 N 0.50180 0.74174 0.36812
 C461 C 0.47630 0.80814 0.37416
 H462 H 0.47519 0.80904 0.39152
 C463 C 0.46966 0.82583 0.36178
 H464 H 0.46296 0.83981 0.37018
 C465 C 0.48501 0.78771 0.34287
 H466 H 0.49084 0.77274 0.33558
 C467 C 0.47836 0.80498 0.32978
 H468 H 0.48009 0.80295 0.31257
 Zn469 Zn 0.49199 0.76681 0.38343
 N470 N 0.48405 0.78969 0.36464
 C471 C 0.52433 0.79559 0.39881
 N472 N 0.51482 0.77581 0.40166
 C473 C 0.52281 0.76117 0.41600
 C474 C 0.54133 0.76606 0.42790
 C475 C 0.54282 0.80114 0.41034
 C476 C 0.45020 0.75231 0.38739
 C477 C 0.43170 0.74492 0.39752
 C478 C 0.44768 0.75440 0.43188
 C479 C 0.46615 0.76123 0.42107
 N480 N 0.46720 0.75958 0.39924
 H481 H 0.51810 0.80682 0.38701
 H482 H 0.51519 0.74537 0.41765
 H483 H 0.54789 0.75391 0.43868
 H484 H 0.55029 0.81687 0.40762
 H485 H 0.45140 0.75150 0.37004
 H486 H 0.41859 0.73834 0.38796
 H487 H 0.44711 0.75515 0.44929
 H488 H 0.47970 0.76749 0.43012
 C489 C 0.47058 0.82465 0.33908
 C490 C 0.51879 0.70456 0.34830
 C491 C 0.43047 0.74569 0.42000
 C492 C 0.55182 0.78612 0.42480
 C493 C 0.36603 0.01034 0.24821
 C494 C 0.13666 1.00007 0.74812
 C495 C 0.62325 0.51105 0.26229
 C496 C 0.85231 0.50461 0.75449
 C497 C 0.24940 0.35016 -0.00303
 C498 C 0.75317 0.12964 0.99985
 C499 C 0.24810 0.62716 0.49909
 C500 C 0.75032 0.87266 0.50274
 C501 C 0.00882 0.25505 0.35877
 C502 C 1.00015 0.75104 0.12505
 C503 C 0.51353 0.24712 0.62503
 C504 C 0.49277 0.73985 0.87220
 C505 C 0.44724 -0.12209 0.30163
 C506 C 0.44778 -0.14337 0.29295
 C507 C 0.45590 -0.16081 0.30497
 C508 C 0.46352 -0.15753 0.32623
 C509 C 0.46342 -0.13588 0.33450
 C510 C 0.45543 -0.11852 0.32241
 C511 C 0.43717 -0.10379 0.28965
 C512 C 0.44626 -0.08274 0.29026
 C513 C 0.43557 -0.06503 0.28095
 C514 C 0.41552 -0.06798 0.27089
 C515 C 0.40687 -0.08919 0.26948
 C516 C 0.41759 -0.10691 0.27874
 C517 C 0.40300 -0.04877 0.26339
 C518 C 0.38092 -0.04737 0.26758
 C519 C 0.36938 -0.02860 0.26225
 C520 C 0.37963 -0.01029 0.25316
 C521 C 0.40147 -0.01253 0.24744
 C522 C 0.41306 -0.03134 0.25286
 H523 H 0.44166 -0.14660 0.27690
 H524 H 0.45501 -0.17696 0.29778
 H525 H 0.46994 -0.13198 0.35022
 H526 H 0.45520 -0.10231 0.32960
 H527 H 0.46146 -0.07989 0.29831
 H528 H 0.44259 -0.04888 0.28241
 H529 H 0.39158 -0.09202 0.26159
 H530 H 0.41010 -0.12289 0.27811
 H531 H 0.37263 -0.06054 0.27559
 H532 H 0.35239 -0.02804 0.26589
 H533 H 0.40974 0.00010 0.23868
 H534 H 0.42993 -0.03230 0.24874
 C535 C 0.94507 0.37611 0.79936
 C536 C 0.94162 0.35613 0.78849
 C537 C 0.95031 0.33668 0.79643
 C538 C 0.96269 0.33680 0.81540
 C539 C 0.96671 0.35691 0.82585
 C540 C 0.95797 0.37632 0.81795
 C541 C 0.93436 0.39643 0.79199
 C542 C 0.92458 0.41061 0.80696
 C543 C 0.91327 0.42903 0.80007
 C544 C 0.91154 0.43377 0.77804
 C545 C 0.92182 0.41989 0.76309
 C546 C 0.93305 0.40138 0.76999
 C547 C 0.89804 0.45241 0.77076
 C548 C 0.88491 0.45027 0.75246
 C549 C 0.87073 0.46696 0.74669
 C550 C 0.86862 0.48607 0.75953
 C551 C 0.88323 0.48881 0.77679
 C552 C 0.89747 0.47214 0.78251
 H553 H 0.93153 0.35543 0.77427
 H554 H 0.94668 0.32145 0.78815
 H555 H 0.97655 0.35762 0.84025
 H556 H 0.96120 0.39152 0.82646
 H557 H 0.92503 0.40704 0.82399
 H558 H 0.90523 0.43912 0.81199
 H559 H 0.92112 0.42328 0.74604
 H560 H 0.94069 0.39090 0.75813
 H561 H 0.88516 0.43541 0.74283
 H562 H 0.86154 0.46455 0.73211
 H563 H 0.88304 0.50371 0.78637
 H564 H 0.90793 0.47465 0.79627
 C565 C 0.05202 1.13892 0.78386
 C566 C 0.06252 1.15913 0.78662
 C567 C 0.05167 1.17724 0.79513
 C568 C 0.02981 1.17587 0.80065
 C569 C 0.01899 1.15601 0.79670
 C570 C 0.02998 1.13773 0.78861
 C571 C 0.06431 1.11898 0.77729
 C572 C 0.05470 1.10221 0.76493
 C573 C 0.06603 1.08300 0.75997
 C574 C 0.08734 1.08018 0.76704
 C575 C 0.09711 1.09723 0.77884
 C576 C 0.08571 1.11620 0.78409
 C577 C 0.09930 1.05949 0.76254
 C578 C 0.11409 1.05137 0.77762
 C579 C 0.12594 1.03245 0.77331
 C580 C 0.12274 1.02028 0.75412
 C581 C 0.10805 1.02873 0.73893
 C582 C 0.09645 1.04792 0.74310
 H583 H 0.07933 1.16092 0.78263
 H584 H 0.06075 1.19204 0.79811
 H585 H 0.00206 1.15438 0.80025
 H586 H 0.02131 1.12248 0.78685
 H587 H 0.03838 1.10385 0.75910
 H588 H 0.05790 1.07019 0.75098
 H589 H 0.11363 1.09595 0.78415
 H590 H 0.09363 1.12848 0.79395
 H591 H 0.11668 1.05970 0.79285
 H592 H 0.13793 1.02788 0.78504
 H593 H 0.10573 1.02048 0.72360
 H594 H 0.08563 1.05395 0.73083
 C595 C 0.54698 0.64523 0.32284
 C596 C 0.52455 0.64773 0.32360
 C597 C 0.51540 0.66712 0.33144
 C598 C 0.52846 0.68446 0.33872
 C599 C 0.55088 0.68210 0.33759
 C600 C 0.56002 0.66274 0.32972
 C601 C 0.55681 0.62440 0.31518
 C602 C 0.57516 0.61598 0.32543
 C603 C 0.58495 0.59686 0.31784
 C604 C 0.57659 0.58563 0.29986
 C605 C 0.55790 0.59366 0.28992
 C606 C 0.54813 0.61288 0.29748
 C607 C 0.58797 0.56626 0.29091
 C608 C 0.57668 0.54754 0.28411
 C609 C 0.58757 0.52957 0.27519
 C610 C 0.61005 0.53018 0.27213
 C611 C 0.62122 0.54874 0.27997
 C612 C 0.61038 0.56653 0.28898
 H613 H 0.51405 0.63452 0.31855
 H614 H 0.49807 0.66852 0.33187
 H615 H 0.56141 0.69501 0.34329
 H616 H 0.57735 0.66148 0.32902
 H617 H 0.58195 0.62416 0.33941
 H618 H 0.59912 0.59084 0.32605
 H619 H 0.55125 0.58547 0.27589
 H620 H 0.53413 0.61904 0.28910
 H621 H 0.55942 0.54667 0.28602
 H622 H 0.57823 0.51525 0.27107
 H623 H 0.63854 0.54963 0.27864
 H624 H 0.61955 0.58072 0.29406
 C625 C 0.54535 0.38148 0.19491
 C626 C 0.53293 0.38178 0.17598
 C627 C 0.52595 0.36223 0.16640
 C628 C 0.53114 0.34195 0.17560
 C629 C 0.54331 0.34164 0.19465
 C630 C 0.55039 0.36116 0.20415
 C631 C 0.55358 0.40214 0.20476
 C632 C 0.55497 0.40444 0.22725
 C633 C 0.56449 0.42293 0.23653
 C634 C 0.57268 0.43966 0.22357
 C635 C 0.57043 0.43793 0.20114
 C636 C 0.56104 0.41930 0.19181
 C637 C 0.58500 0.45789 0.23348
 C638 C 0.58171 0.47969 0.22734
 C639 C 0.59376 0.49658 0.23685
 C640 C 0.60920 0.49220 0.25299
 C641 C 0.61313 0.46998 0.25795
 C642 C 0.60094 0.45325 0.24871
 H643 H 0.52849 0.39714 0.16862
 H644 H 0.51635 0.36296 0.15186
 H645 H 0.54784 0.32626 0.20192
 H646 H 0.56030 0.36027 0.21847
 H647 H 0.54892 0.39180 0.23771
 H648 H 0.56577 0.42404 0.25390
 H649 H 0.57680 0.45051 0.19080
 H650 H 0.56043 0.41797 0.17443
 H651 H 0.56977 0.48366 0.21528
 H652 H 0.59103 0.51322 0.23161
 H653 H 0.62604 0.46508 0.26851
 H654 H 0.60446 0.43647 0.25303
 C655 C 0.05748 0.86274 0.69942
 C656 C 0.03570 0.85833 0.70354
 C657 C 0.02592 0.83952 0.69497
 C658 C 0.03771 0.82494 0.68199
 C659 C 0.05960 0.82893 0.67853
 C660 C 0.06941 0.84751 0.68726
 C661 C 0.06771 0.88342 0.70702
 C662 C 0.08269 0.89412 0.69390
 C663 C 0.09300 0.91308 0.70107
 C664 C 0.08844 0.92200 0.72143
 C665 C 0.07303 0.91178 0.73438
 C666 C 0.06281 0.89261 0.72727
 C667 C 0.10026 0.94160 0.72911
 C668 C 0.08946 0.95941 0.73855
 C669 C 0.10074 0.97829 0.74470
 C670 C 0.12312 0.97990 0.74129
 C671 C 0.13387 0.96126 0.73308
 C672 C 0.12260 0.94260 0.72674
 H673 H 0.02602 0.86978 0.71272
 H674 H 0.00898 0.83680 0.69776
 H675 H 0.06910 0.81771 0.66887
 H676 H 0.08634 0.85003 0.68429
 H677 H 0.08640 0.88789 0.67797
 H678 H 0.10453 0.92087 0.69062
 H679 H 0.06934 0.91831 0.75020
 H680 H 0.05147 0.88471 0.73783
 H681 H 0.07224 0.95885 0.74089
 H682 H 0.09180 0.99136 0.75236
 H683 H 0.15116 0.96138 0.73118
 H684 H 0.13140 0.92884 0.72007
 C685 C 0.93443 0.63771 0.70352
 C686 C 0.95629 0.64163 0.70764
 C687 C 0.96656 0.65966 0.69858
 C688 C 0.95508 0.67427 0.68550
 C689 C 0.93306 0.67073 0.68197
 C690 C 0.92287 0.65256 0.69079
 C691 C 0.92386 0.61779 0.71180
 C692 C 0.91097 0.60493 0.69808
 C693 C 0.90101 0.58607 0.70570
 C694 C 0.90356 0.57981 0.72724
 C695 C 0.91646 0.59264 0.74099
 C696 C 0.92666 0.61139 0.73329
 C697 C 0.89217 0.56028 0.73534
 C698 C 0.88069 0.56132 0.75469
 C699 C 0.86828 0.54358 0.76131
 C700 C 0.86662 0.52441 0.74846
 C701 C 0.87991 0.52289 0.73012
 C702 C 0.89209 0.54071 0.72339
 H703 H 0.96557 0.63036 0.71731
 H704 H 0.98353 0.66210 0.70164
 H705 H 0.92389 0.68162 0.67180
 H706 H 0.90595 0.65000 0.68754
 H707 H 0.90874 0.60937 0.68139
 H708 H 0.89098 0.57658 0.69483
 H709 H 0.91875 0.58809 0.75764
 H710 H 0.93647 0.62108 0.74419
 H711 H 0.88085 0.57609 0.76445
 H712 H 0.86013 0.54516 0.77655
 H713 H 0.88013 0.50804 0.72045
 H714 H 0.90137 0.53925 0.70873
 C715 C 0.45127 0.14494 0.20691
 C716 C 0.46529 0.14164 0.18955
 C717 C 0.47520 0.15941 0.17969
 C718 C 0.47154 0.18093 0.18714
 C719 C 0.45803 0.18411 0.20502
 C720 C 0.44789 0.16632 0.21470
 C721 C 0.43928 0.12622 0.21593
 C722 C 0.44973 0.10633 0.22027
 C723 C 0.43803 0.08814 0.22707
 C724 C 0.41562 0.08944 0.22931
 C725 C 0.40525 0.10947 0.22547
 C726 C 0.41698 0.12772 0.21899
 C727 C 0.40296 0.06965 0.23441
 C728 C 0.38479 0.06431 0.22209
 C729 C 0.37316 0.04531 0.22622
 C730 C 0.37958 0.03074 0.24259
 C731 C 0.39707 0.03709 0.25579
 C732 C 0.40894 0.05596 0.25140
 H733 H 0.46792 0.12535 0.18303
 H734 H 0.48510 0.15629 0.16571
 H735 H 0.45514 0.20036 0.21147
 H736 H 0.43731 0.16926 0.22822
 H737 H 0.46693 0.10480 0.21814
 H738 H 0.44636 0.07284 0.22983
 H739 H 0.38800 0.11090 0.22724
 H740 H 0.40851 0.14280 0.21559
 H741 H 0.37966 0.07477 0.20906
 H742 H 0.35890 0.04236 0.21666
 H743 H 0.40170 0.02728 0.26946
 H744 H 0.42258 0.06006 0.26151
 C745 C 0.28870 0.43033 -0.14015
 C746 C 0.29233 0.41744 -0.15857
 C747 C 0.30052 0.42678 -0.17721
 C748 C 0.30557 0.44920 -0.17775
 C749 C 0.30091 0.46232 -0.15962
 C750 C 0.29244 0.45297 -0.14099
 C751 C 0.28256 0.41977 -0.11976
 C752 C 0.26533 0.42764 -0.10739
 C753 C 0.25948 0.41703 -0.08840
 C754 C 0.27099 0.39856 -0.08131
 C755 C 0.28861 0.39120 -0.09351
 C756 C 0.29420 0.40157 -0.11256
 C757 C 0.26470 0.38670 -0.06149
 C758 C 0.26674 0.36383 -0.06062
 C759 C 0.26192 0.35260 -0.04186
 C760 C 0.25507 0.36377 -0.02313
 C761 C 0.25157 0.38657 -0.02458
 C762 C 0.25673 0.39791 -0.04334
 H763 H 0.28921 0.40000 -0.15839
 H764 H 0.30338 0.41631 -0.19106
 H765 H 0.30476 0.47960 -0.15944
 H766 H 0.28982 0.46320 -0.12692
 H767 H 0.25612 0.44166 -0.11268
 H768 H 0.24570 0.42302 -0.07955
 H769 H 0.29823 0.37746 -0.08828
 H770 H 0.30783 0.39548 -0.12162
 H771 H 0.27194 0.35449 -0.07455
 H772 H 0.26368 0.33496 -0.04189
 H773 H 0.24462 0.39581 -0.01142
 H774 H 0.25463 0.41550 -0.04353
 C775 C 0.80036 0.95170 0.36869
 C776 C 0.81283 0.93837 0.35508
 C777 C 0.82256 0.94709 0.33690
 C778 C 0.81976 0.96923 0.33177
 C779 C 0.80688 0.98251 0.34505
 C780 C 0.79743 0.97386 0.36354
 C781 C 0.79101 0.94234 0.38843
 C782 C 0.79421 0.95251 0.40854
 C783 C 0.78736 0.94232 0.42740
 C784 C 0.77699 0.92187 0.42644
 C785 C 0.77296 0.91230 0.40615
 C786 C 0.78003 0.92233 0.38739
 C787 C 0.77103 0.91005 0.44638
 C788 C 0.77312 0.88720 0.44723
 C789 C 0.76674 0.87578 0.46539
 C790 C 0.75784 0.88668 0.48343
 C791 C 0.75715 0.90981 0.48304
 C792 C 0.76337 0.92127 0.46465
 H793 H 0.81547 0.92128 0.35882
 H794 H 0.83237 0.93654 0.32683
 H795 H 0.80462 0.99967 0.34141
 H796 H 0.78781 0.98440 0.37379
 H797 H 0.80279 0.96789 0.40972
 H798 H 0.79088 0.95008 0.44274
 H799 H 0.76449 0.89688 0.40474
 H800 H 0.77713 0.91433 0.37203
 H801 H 0.77974 0.87805 0.43380
 H802 H 0.76824 0.85810 0.46521
 H803 H 0.75188 0.91935 0.49673
 H804 H 0.76184 0.93892 0.46466
 C805 C 0.80217 0.05296 1.13636
 C806 C 0.81907 0.03784 1.13501
 C807 C 0.82787 0.02866 1.15352
 C808 C 0.82003 0.03420 1.17421
 C809 C 0.80257 0.04903 1.17533
 C810 C 0.79379 0.05821 1.15669
 C811 C 0.79410 0.06385 1.11663
 C812 C 0.77203 0.06756 1.11336
 C813 C 0.76474 0.07799 1.09472
 C814 C 0.77940 0.08505 1.07909
 C815 C 0.80141 0.08120 1.08236
 C816 C 0.80867 0.07079 1.10089
 C817 C 0.77208 0.09674 1.05953
 C818 C 0.78370 0.11479 1.05212
 C819 C 0.77775 0.12531 1.03322
 C820 C 0.76031 0.11771 1.02059
 C821 C 0.74774 0.10061 1.02906
 C822 C 0.75373 0.09003 1.04806
 H823 H 0.82575 0.03327 1.11954
 H824 H 0.84164 0.01812 1.15127
 H825 H 0.79519 0.05338 1.19050
 H826 H 0.78073 0.06984 1.15826
 H827 H 0.76042 0.06226 1.12514
 H828 H 0.74769 0.08088 1.09271
 H829 H 0.81309 0.08619 1.07050
 H830 H 0.82578 0.06845 1.10303
 H831 H 0.79734 0.12101 1.06114
 H832 H 0.78682 0.13965 1.02880
 H833 H 0.73339 0.09519 1.02070
 H834 H 0.74421 0.07638 1.05357
 C835 C 0.29565 0.54207 0.63039
 C836 C 0.31544 0.54924 0.63874
 C837 C 0.32400 0.53996 0.65727
 C838 C 0.31298 0.52329 0.66800
 C839 C 0.29284 0.51651 0.66012
 C840 C 0.28424 0.52583 0.64144
 C841 C 0.28730 0.55160 0.61013
 C842 C 0.26554 0.55738 0.60789
 C843 C 0.25838 0.56825 0.58944
 C844 C 0.27289 0.57353 0.57302
 C845 C 0.29437 0.56683 0.57487
 C846 C 0.30148 0.55594 0.59317
 C847 C 0.26623 0.58716 0.55458
 C848 C 0.27908 0.60483 0.54847
 C849 C 0.27343 0.61770 0.53096
 C850 C 0.25506 0.61284 0.51838
 C851 C 0.24158 0.59574 0.52544
 C852 C 0.24718 0.58296 0.54318
 H853 H 0.32433 0.56215 0.63095
 H854 H 0.33930 0.54589 0.66327
 H855 H 0.28405 0.50363 0.66805
 H856 H 0.26897 0.51995 0.63534
 H857 H 0.25427 0.55431 0.62074
 H858 H 0.24174 0.57333 0.58841
 H859 H 0.30578 0.57032 0.56224
 H860 H 0.31821 0.55117 0.59417
 H861 H 0.29340 0.60899 0.55757
 H862 H 0.28348 0.63169 0.52775
 H863 H 0.22676 0.59214 0.51695
 H864 H 0.23679 0.56961 0.54780
 C865 C 0.20995 0.54683 0.36039
 C866 C 0.18992 0.53627 0.36072
 C867 C 0.18075 0.52816 0.34175
 C868 C 0.19133 0.53047 0.32197
 C869 C 0.21168 0.54038 0.32168
 C870 C 0.22088 0.54852 0.34070
 C871 C 0.21865 0.55712 0.38033
 C872 C 0.22813 0.57796 0.37969
 C873 C 0.23439 0.58862 0.39868
 C874 C 0.23127 0.57870 0.41875
 C875 C 0.22251 0.55753 0.41933
 C876 C 0.21628 0.54685 0.40034
 C877 C 0.23617 0.59077 0.43902
 C878 C 0.24538 0.58004 0.45668
 C879 C 0.24925 0.59129 0.47599
 C880 C 0.24347 0.61357 0.47841
 C881 C 0.23517 0.62439 0.46020
 C882 C 0.23130 0.61314 0.44096
 H883 H 0.18096 0.53490 0.37555
 H884 H 0.16519 0.52030 0.34253
 H885 H 0.22017 0.54247 0.30667
 H886 H 0.23645 0.55635 0.33998
 H887 H 0.23001 0.58640 0.36457
 H888 H 0.24142 0.60478 0.39767
 H889 H 0.21978 0.54949 0.43454
 H890 H 0.20929 0.53067 0.40133
 H891 H 0.24995 0.56296 0.45543
 H892 H 0.25723 0.58246 0.48870
 H893 H 0.23136 0.64168 0.46105
 H894 H 0.22414 0.62192 0.42768
 C895 C 0.70546 0.03837 0.87150
 C896 C 0.68458 0.03024 0.87399
 C897 C 0.67323 0.02180 0.85639
 C898 C 0.68237 0.02117 0.83559
 C899 C 0.70380 0.02845 0.83346
 C900 C 0.71507 0.03707 0.85113
 C901 C 0.71640 0.04949 0.88983
 C902 C 0.72701 0.06950 0.88674
 C903 C 0.73494 0.08144 0.90431
 C904 C 0.73251 0.07362 0.92537
 C905 C 0.72286 0.05311 0.92839
 C906 C 0.71483 0.04119 0.91080
 C907 C 0.73857 0.08752 0.94414
 C908 C 0.74891 0.07859 0.96216
 C909 C 0.75379 0.09172 0.98011
 C910 C 0.74773 0.11402 0.98082
 C911 C 0.73823 0.12294 0.96218
 C912 C 0.73352 0.10989 0.94428
 H913 H 0.67669 0.03101 0.88948
 H914 H 0.65734 0.01544 0.85942
 H915 H 0.71166 0.02883 0.81799
 H916 H 0.73124 0.04310 0.84877
 H917 H 0.72833 0.07640 0.87081
 H918 H 0.74258 0.09707 0.90148
 H919 H 0.72069 0.04671 0.94443
 H920 H 0.70696 0.02570 0.91365
 H921 H 0.75354 0.06149 0.96222
 H922 H 0.76266 0.08432 0.99313
 H923 H 0.73415 0.14016 0.96163
 H924 H 0.72552 0.11728 0.93065
 C925 C 0.68878 0.94757 0.63540
 C926 C 0.69545 0.96773 0.64422
 C927 C 0.68759 0.97492 0.66412
 C928 C 0.67305 0.96202 0.67570
 C929 C 0.66647 0.94183 0.66692
 C930 C 0.67419 0.93472 0.64696
 C931 C 0.69744 0.93963 0.61452
 C932 C 0.68395 0.92948 0.59923
 C933 C 0.69243 0.92071 0.58019
 C934 C 0.71458 0.92174 0.57619
 C935 C 0.72796 0.93247 0.59117
 C936 C 0.71948 0.94138 0.61010
 C937 C 0.72402 0.91023 0.55735
 C938 C 0.74212 0.89695 0.56018
 C939 C 0.75076 0.88515 0.54297
 C940 C 0.74200 0.88674 0.52198
 C941 C 0.72343 0.89986 0.51945
 C942 C 0.71463 0.91148 0.53684
 H943 H 0.70659 0.97802 0.63562
 H944 H 0.69301 0.99051 0.67054
 H945 H 0.65507 0.93167 0.67534
 H946 H 0.66898 0.91899 0.64068
 H947 H 0.66686 0.92813 0.60212
 H948 H 0.68178 0.91239 0.56899
 H949 H 0.74508 0.93363 0.58839
 H950 H 0.73028 0.94899 0.62162
 H951 H 0.74922 0.89505 0.57599
 H952 H 0.76391 0.87432 0.54673
 H953 H 0.71565 0.90097 0.50389
 H954 H 0.70047 0.92146 0.53426
 C955 C 0.21713 0.43913 0.13107
 C956 C 0.20035 0.45404 0.12759
 C957 C 0.19063 0.46483 0.14489
 C958 C 0.19766 0.46121 0.16612
 C959 C 0.21490 0.44670 0.16950
 C960 C 0.22443 0.43565 0.15217
 C961 C 0.22591 0.42630 0.11278
 C962 C 0.22764 0.40343 0.11415
 C963 C 0.23335 0.39097 0.09609
 C964 C 0.23771 0.40118 0.07642
 C965 C 0.23701 0.42412 0.07532
 C966 C 0.23100 0.43656 0.09331
 C967 C 0.24126 0.38790 0.05672
 C968 C 0.22713 0.37082 0.05153
 C969 C 0.22952 0.35893 0.03244
 C970 C 0.24591 0.36405 0.01762
 C971 C 0.26097 0.38023 0.02382
 C972 C 0.25833 0.39241 0.04280
 H973 H 0.19418 0.45673 0.11151
 H974 H 0.17710 0.47545 0.14162
 H975 H 0.22101 0.44378 0.18555
 H976 H 0.23745 0.42431 0.15522
 H977 H 0.22365 0.39512 0.12893
 H978 H 0.23391 0.37330 0.09733
 H979 H 0.24020 0.43233 0.06030
 H980 H 0.22988 0.45419 0.09192
 H981 H 0.21399 0.36682 0.06217
 H982 H 0.21854 0.34551 0.02953
 H983 H 0.27470 0.38364 0.01375
 H984 H 0.26977 0.40517 0.04676
 C985 C -0.11891 0.31567 0.44137
 C986 C -0.12956 0.30370 0.45735
 C987 C -0.14811 0.31200 0.46716
 C988 C -0.15664 0.33237 0.46107
 C989 C -0.14600 0.34427 0.44503
 C990 C -0.12731 0.33616 0.43551
 C991 C -0.09930 0.30686 0.43062
 C992 C -0.09538 0.31129 0.40879
 C993 C -0.07686 0.30351 0.39871
 C994 C -0.06196 0.29076 0.41005
 C995 C -0.06589 0.28595 0.43172
 C996 C -0.08428 0.29407 0.44196
 C997 C -0.04265 0.28225 0.39894
 C998 C -0.03738 0.25997 0.39973
 C999 C -0.02052 0.25166 0.38730
 C1000 C -0.00872 0.26532 0.37340
 C1001 C -0.01280 0.28807 0.37458
 C1002 C -0.02987 0.29630 0.38673
 H1003 H -0.12376 0.28775 0.46212
 H1004 H -0.15566 0.30247 0.47963
 H1005 H -0.15221 0.35981 0.43956
 H1006 H -0.11941 0.34609 0.42358
 H1007 H -0.10678 0.32054 0.39932
 H1008 H -0.07434 0.30710 0.38186
 H1009 H -0.05455 0.27621 0.44080
 H1010 H -0.08654 0.29059 0.45885
 H1011 H -0.04681 0.24885 0.40932
 H1012 H -0.01718 0.23427 0.38782
 H1013 H -0.00300 0.29975 0.36616
 H1014 H -0.03314 0.31372 0.38658
 C1015 C 0.36564 0.79061 0.96124
 C1016 C 0.34483 0.78172 0.96040
 C1017 C 0.32737 0.79334 0.96881
 C1018 C 0.33032 0.81410 0.97832
 C1019 C 0.35125 0.82255 0.98000
 C1020 C 0.36870 0.81097 0.97153
 C1021 C 0.38378 0.77959 0.95002
 C1022 C 0.40464 0.77996 0.95876
 C1023 C 0.42200 0.77157 0.94705
 C1024 C 0.41886 0.76267 0.92634
 C1025 C 0.39788 0.76146 0.91802
 C1026 C 0.38056 0.76985 0.92968
 C1027 C 0.43745 0.75604 0.91287
 C1028 C 0.43787 0.76142 0.89099
 C1029 C 0.45556 0.75607 0.87833
 C1030 C 0.47381 0.74578 0.88723
 C1031 C 0.47276 0.73928 0.90896
 C1032 C 0.45499 0.74470 0.92169
 H1033 H 0.34197 0.76594 0.95285
 H1034 H 0.31146 0.78641 0.96710
 H1035 H 0.35411 0.83835 0.98752
 H1036 H 0.38446 0.81839 0.97228
 H1037 H 0.40761 0.78710 0.97450
 H1038 H 0.43799 0.77282 0.95386
 H1039 H 0.39489 0.75438 0.90225
 H1040 H 0.36476 0.76947 0.92236
 H1041 H 0.42462 0.77015 0.88366
 H1042 H 0.45518 0.76036 0.86147
 H1043 H 0.48544 0.72972 0.91620
 H1044 H 0.45480 0.73972 0.93837
 C1045 C 1.13005 0.80062 0.03951
 C1046 C 1.12997 0.81928 0.02644
 C1047 C 1.14915 0.82806 0.01885
 C1048 C 1.16898 0.81819 0.02376
 C1049 C 1.16900 0.79894 0.03601
 C1050 C 1.14979 0.79033 0.04389
 C1051 C 1.10983 0.79283 0.04959
 C1052 C 1.10615 0.77041 0.05304
 C1053 C 1.08777 0.76345 0.06393
 C1054 C 1.07262 0.77874 0.07151
 C1055 C 1.07596 0.80105 0.06738
 C1056 C 1.09436 0.80801 0.05673
 C1057 C 1.05395 0.77178 0.08463
 C1058 C 1.04746 0.78457 0.10231
 C1059 C 1.03011 0.77833 0.11493
 C1060 C 1.01825 0.75918 0.11009
 C1061 C 1.02556 0.74584 0.09293
 C1062 C 1.04291 0.75222 0.08016
 H1063 H 1.11506 0.82740 0.02235
 H1064 H 1.14840 0.84304 0.00972
 H1065 H 1.18390 0.79065 0.03980
 H1066 H 1.15053 0.77604 0.05403
 H1067 H 1.11756 0.75824 0.04750
 H1068 H 1.08578 0.74615 0.06697
 H1069 H 1.06444 0.81325 0.07266
 H1070 H 1.09673 0.82542 0.05469
 H1071 H 1.05621 0.79922 0.10685
 H1072 H 1.02660 0.78835 0.12890
 H1073 H 1.01776 0.73039 0.08938
 H1074 H 1.04763 0.74183 0.06678
 C1075 C 0.65126 0.29397 0.55070
 C1076 C 0.65385 0.29316 0.52825
 C1077 C 0.67221 0.30196 0.51874
 C1078 C 0.68839 0.31163 0.53148
 C1079 C 0.68618 0.31155 0.55398
 C1080 C 0.66783 0.30283 0.56347
 C1081 C 0.63091 0.28673 0.56076
 C1082 C 0.62151 0.29946 0.57714
 C1083 C 0.60237 0.29293 0.58672
 C1084 C 0.59216 0.27343 0.58025
 C1085 C 0.60141 0.26079 0.56366
 C1086 C 0.62058 0.26740 0.55397
 C1087 C 0.57218 0.26630 0.59115
 C1088 C 0.55516 0.25673 0.57954
 C1089 C 0.53623 0.25055 0.58998
 C1090 C 0.53361 0.25431 0.61228
 C1091 C 0.55126 0.26296 0.62386
 C1092 C 0.57009 0.26903 0.61348
 H1093 H 0.64132 0.28649 0.51801
 H1094 H 0.67356 0.30161 0.50137
 H1095 H 0.69823 0.31907 0.56424
 H1096 H 0.66640 0.30340 0.58083
 H1097 H 0.62882 0.31470 0.58236
 H1098 H 0.59543 0.30329 0.59911
 H1099 H 0.59407 0.24556 0.55847
 H1100 H 0.62754 0.25721 0.54146
 H1101 H 0.55639 0.25414 0.56233
 H1102 H 0.52398 0.24251 0.58046
 H1103 H 0.55035 0.26514 0.64115
 H1104 H 0.58316 0.27566 0.62304
 C1105 C 0.37368 0.20578 0.55200
 C1106 C 0.36356 0.18894 0.56331
 C1107 C 0.34368 0.18093 0.55659
 C1108 C 0.33354 0.18932 0.53818
 C1109 C 0.34326 0.20685 0.52734
 C1110 C 0.36315 0.21509 0.53428
 C1111 C 0.39554 0.21274 0.55845
 C1112 C 0.40040 0.23485 0.56243
 C1113 C 0.42047 0.24078 0.57093
 C1114 C 0.43602 0.22468 0.57538
 C1115 C 0.43148 0.20274 0.57008
 C1116 C 0.41144 0.19684 0.56186
 C1117 C 0.45619 0.23019 0.58709
 C1118 C 0.46358 0.21630 0.60336
 C1119 C 0.48206 0.22128 0.61505
 C1120 C 0.49429 0.24017 0.61060
 C1121 C 0.48626 0.25453 0.59476
 C1122 C 0.46765 0.24949 0.58298
 H1123 H 0.37119 0.18183 0.57730
 H1124 H 0.33638 0.16788 0.56569
 H1125 H 0.33593 0.21361 0.51305
 H1126 H 0.37068 0.22811 0.52534
 H1127 H 0.38834 0.24737 0.55991
 H1128 H 0.42343 0.25780 0.57495
 H1129 H 0.44329 0.19002 0.57279
 H1130 H 0.40819 0.17972 0.55851
 H1131 H 0.45459 0.20183 0.60765
 H1132 H 0.48608 0.21053 0.62818
 H1133 H 0.49439 0.26983 0.59164
 H1134 H 0.46220 0.26071 0.57073
 C1135 C 0.86252 0.69499 0.05570
 C1136 C 0.84956 0.68185 0.06881
 C1137 C 0.83072 0.67255 0.06076
 C1138 C 0.82423 0.67628 0.03945
 C1139 C 0.83667 0.69005 0.02651
 C1140 C 0.85570 0.69928 0.03454
 C1141 C 0.88324 0.70363 0.06412
 C1142 C 0.89019 0.72493 0.05928
 C1143 C 0.90931 0.73313 0.06812
 C1144 C 0.92173 0.72022 0.08204
 C1145 C 0.91506 0.69878 0.08639
 C1146 C 0.89612 0.69056 0.07748
 C1147 C 0.94129 0.72904 0.09262
 C1148 C 0.94468 0.72556 0.11462
 C1149 C 0.96339 0.73292 0.12465
 C1150 C 0.97974 0.74333 0.11287
 C1151 C 0.97559 0.74801 0.09100
 C1152 C 0.95667 0.74076 0.08099
 H1153 H 0.85402 0.67871 0.08535
 H1154 H 0.82118 0.66237 0.07122
 H1155 H 0.83205 0.69309 0.00999
 H1156 H 0.86538 0.70922 0.02400
 H1157 H 0.88056 0.73545 0.04915
 H1158 H 0.91406 0.74976 0.06461
 H1159 H 0.92457 0.68833 0.09672
 H1160 H 0.89156 0.67389 0.08107
 H1161 H 0.93274 0.71720 0.12415
 H1162 H 0.96538 0.73008 0.14172
 H1163 H 0.98667 0.75748 0.08155
 H1164 H 0.95421 0.74406 0.06406
 C1165 C 0.62922 0.69583 0.95152
 C1166 C 0.62797 0.67784 0.96537
 C1167 C 0.64633 0.66982 0.97552
 C1168 C 0.66643 0.67968 0.97227
 C1169 C 0.66764 0.69802 0.95882
 C1170 C 0.64921 0.70604 0.94856
 C1171 C 0.60980 0.70322 0.93966
 C1172 C 0.60541 0.72559 0.93681
 C1173 C 0.58693 0.73226 0.92573
 C1174 C 0.57255 0.71667 0.91721
 C1175 C 0.57701 0.69434 0.92008
 C1176 C 0.59541 0.68770 0.93109
 C1177 C 0.55292 0.72339 0.90531
 C1178 C 0.54635 0.71160 0.88697
 C1179 C 0.52726 0.71682 0.87642
 C1180 C 0.51368 0.73362 0.88423
 C1181 C 0.52131 0.74656 0.90158
 C1182 C 0.54044 0.74127 0.91224
 H1183 H 0.61277 0.66981 0.96826
 H1184 H 0.64480 0.65546 0.98548
 H1185 H 0.68284 0.70611 0.95613
 H1186 H 0.65070 0.71985 0.93788
 H1187 H 0.61612 0.73793 0.94336
 H1188 H 0.58402 0.74959 0.92362
 H1189 H 0.56614 0.68192 0.91398
 H1190 H 0.59847 0.67034 0.93271
 H1191 H 0.55613 0.69839 0.88060
 H1192 H 0.52333 0.70764 0.86197
 H1193 H 0.51223 0.76061 0.90717
 H1194 H 0.54524 0.75093 0.92613
 C1195 C 0.13837 0.20736 0.44611
 C1196 C 0.15621 0.20076 0.43383
 C1197 C 0.17489 0.19321 0.44382
 C1198 C 0.17628 0.19219 0.46637
 C1199 C 0.15872 0.19951 0.47868
 C1200 C 0.13997 0.20698 0.46867
 C1201 C 0.11800 0.21391 0.43535
 C1202 C 0.10545 0.23125 0.44347
 C1203 C 0.08639 0.23738 0.43312
 C1204 C 0.07946 0.22630 0.41440
 C1205 C 0.09193 0.20882 0.40646
 C1206 C 0.11089 0.20267 0.41682
 C1207 C 0.05987 0.23335 0.40256
 C1208 C 0.04645 0.21784 0.39252
 C1209 C 0.02959 0.22444 0.37919
 C1210 C 0.02602 0.24684 0.37494
 C1211 C 0.03798 0.26225 0.38711
 C1212 C 0.05495 0.25565 0.40032
 H1213 H 0.15566 0.20122 0.41642
 H1214 H 0.18799 0.18749 0.43382
 H1215 H 0.15935 0.19922 0.49609
 H1216 H 0.12650 0.21184 0.47861
 H1217 H 0.11053 0.24033 0.45764
 H1218 H 0.07707 0.25077 0.43979
 H1219 H 0.08727 0.20013 0.39191
 H1220 H 0.11995 0.18899 0.41034
 H1221 H 0.04910 0.20049 0.39484
 H1222 H 0.01954 0.21182 0.37223
 H1223 H 0.03489 0.27960 0.38541
 H1224 H 0.06473 0.26809 0.40805
 C1225 C 0.56546 0.11217 0.70455
 C1226 C 0.56847 0.11139 0.72695
 C1227 C 0.57587 0.09223 0.73666
 C1228 C 0.58028 0.07344 0.72419
 C1229 C 0.57664 0.07406 0.70188
 C1230 C 0.56934 0.09322 0.69218
 C1231 C 0.55887 0.13281 0.69397
 C1232 C 0.56869 0.13920 0.67471
 C1233 C 0.56227 0.15832 0.66436
 C1234 C 0.54583 0.17148 0.67299
 C1235 C 0.53630 0.16534 0.69250
 C1236 C 0.54278 0.14621 0.70291
 C1237 C 0.53816 0.19105 0.66121
 C1238 C 0.53290 0.21052 0.67219
 C1239 C 0.52520 0.22870 0.66098
 C1240 C 0.52194 0.22767 0.63848
 C1241 C 0.52832 0.20836 0.62757
 C1242 C 0.53598 0.19028 0.63875
 H1243 H 0.56570 0.12577 0.73688
 H1244 H 0.57835 0.09217 0.75392
 H1245 H 0.58011 0.05995 0.69181
 H1246 H 0.56687 0.09325 0.67492
 H1247 H 0.58146 0.12947 0.66769
 H1248 H 0.57024 0.16283 0.64960
 H1249 H 0.52343 0.17502 0.69942
 H1250 H 0.53483 0.14160 0.71766
 H1251 H 0.53508 0.21181 0.68945
 H1252 H 0.52217 0.24354 0.67007
 H1253 H 0.52686 0.20715 0.61023
 H1254 H 0.53986 0.17553 0.62977
 C1255 C 1.07688 0.62318 0.19579
 C1256 C 1.09661 0.61663 0.18686
 C1257 C 1.10690 0.59767 0.19394
 C1258 C 1.09768 0.58477 0.21007
 C1259 C 1.07804 0.59138 0.21913
 C1260 C 1.06778 0.61040 0.21210
 C1261 C 1.06551 0.64281 0.18755
 C1262 C 1.04314 0.64248 0.18456
 C1263 C 1.03253 0.66041 0.17565
 C1264 C 1.04403 0.67909 0.16946
 C1265 C 1.06634 0.67969 0.17295
 C1266 C 1.07696 0.66173 0.18190
 C1267 C 1.03284 0.69739 0.15852
 C1268 C 1.03818 0.71931 0.16294
 C1269 C 1.02756 0.73632 0.15234
 C1270 C 1.01080 0.73200 0.13753
 C1271 C 1.00651 0.70982 0.13238
 C1272 C 1.01709 0.69289 0.14294
 H1273 H 1.10386 0.62587 0.17401
 H1274 H 1.12187 0.59282 0.18644
 H1275 H 1.07073 0.58196 0.23182
 H1276 H 1.05276 0.61517 0.21953
 H1277 H 1.03386 0.62810 0.18854
 H1278 H 1.01529 0.65957 0.17343
 H1279 H 1.07567 0.69377 0.16821
 H1280 H 1.09418 0.66260 0.18427
 H1281 H 1.05050 0.72332 0.17466
 H1282 H 1.03239 0.75301 0.15581
 H1283 H 0.99539 0.70524 0.11974
 H1284 H 1.01332 0.67616 0.13843
 C1285 C 0.94155 0.88124 0.21051
 C1286 C 0.92187 0.87930 0.22136
 C1287 C 0.91160 0.89774 0.22995
 C1288 C 0.92042 0.91877 0.22747
 C1289 C 0.94042 0.92063 0.21719
 C1290 C 0.95095 0.90212 0.20909
 C1291 C 0.95156 0.86187 0.19967
 C1292 C 0.96301 0.86440 0.18038
 C1293 C 0.97137 0.84628 0.16945
 C1294 C 0.96805 0.82496 0.17710
 C1295 C 0.95697 0.82237 0.19660
 C1296 C 0.94900 0.84060 0.20783
 C1297 C 0.97567 0.80565 0.16438
 C1298 C 0.97577 0.80636 0.14180
 C1299 C 0.98362 0.78883 0.12971
 C1300 C 0.99168 0.76982 0.13964
 C1301 C 0.99013 0.76853 0.16226
 C1302 C 0.98268 0.78637 0.17445
 H1303 H 0.91393 0.86362 0.22268
 H1304 H 0.89655 0.89546 0.23827
 H1305 H 0.94775 0.93646 0.21474
 H1306 H 0.96635 0.90431 0.20139
 H1307 H 0.96510 0.88036 0.17328
 H1308 H 0.98030 0.84906 0.15482
 H1309 H 0.95394 0.80625 0.20298
 H1310 H 0.94068 0.83794 0.22283
 H1311 H 0.96962 0.82046 0.13333
 H1312 H 0.98362 0.79017 0.11234
 H1313 H 0.99448 0.75384 0.17076
 H1314 H 0.98262 0.78506 0.19180
 C1315 C 0.43857 0.37366 0.70111
 C1316 C 0.41941 0.37074 0.71264
 C1317 C 0.40778 0.38878 0.72019
 C1318 C 0.41514 0.41015 0.71659
 C1319 C 0.43457 0.41314 0.70563
 C1320 C 0.44612 0.39508 0.69787
 C1321 C 0.45022 0.35447 0.69192
 C1322 C 0.47279 0.35410 0.69117
 C1323 C 0.48362 0.33645 0.68166
 C1324 C 0.47213 0.31871 0.67288
 C1325 C 0.44962 0.31883 0.67400
 C1326 C 0.43878 0.33655 0.68331
 C1327 C 0.48351 0.30056 0.66175
 C1328 C 0.47754 0.27872 0.66504
 C1329 C 0.48766 0.26178 0.65370
 C1330 C 0.50430 0.26609 0.63893
 C1331 C 0.50967 0.28825 0.63535
 C1332 C 0.49971 0.30513 0.64687
 H1333 H 0.41337 0.35449 0.71586
 H1334 H 0.39302 0.38603 0.72892
 H1335 H 0.44048 0.42946 0.70249
 H1336 H 0.46063 0.39796 0.68879
 H1337 H 0.48212 0.36743 0.69797
 H1338 H 0.50101 0.33664 0.68120
 H1339 H 0.44036 0.30552 0.66705
 H1340 H 0.42140 0.33645 0.68323
 H1341 H 0.46494 0.27475 0.67631
 H1342 H 0.48232 0.24515 0.65629
 H1343 H 0.52103 0.29292 0.62313
 H1344 H 0.50410 0.32190 0.64349
 C1345 C 0.42602 0.60629 0.79992
 C1346 C 0.42557 0.58713 0.81227
 C1347 C 0.41646 0.56793 0.80401
 C1348 C 0.40754 0.56742 0.78321
 C1349 C 0.40838 0.58646 0.77068
 C1350 C 0.41756 0.60569 0.77893
 C1351 C 0.43491 0.62686 0.80918
 C1352 C 0.44816 0.64058 0.79696
 C1353 C 0.45718 0.65946 0.80619
 C1354 C 0.45310 0.66496 0.82781
 C1355 C 0.43930 0.65157 0.83976
 C1356 C 0.43036 0.63275 0.83058
 C1357 C 0.46375 0.68402 0.83828
 C1358 C 0.47164 0.68221 0.85934
 C1359 C 0.48114 0.70004 0.86966
 C1360 C 0.48375 0.72024 0.85913
 C1361 C 0.47530 0.72215 0.83810
 C1362 C 0.46573 0.70416 0.82771
 H1363 H 0.43235 0.58697 0.82833
 H1364 H 0.41646 0.55344 0.81391
 H1365 H 0.40141 0.58669 0.75470
 H1366 H 0.41750 0.62025 0.76913
 H1367 H 0.45203 0.63638 0.78045
 H1368 H 0.46785 0.66938 0.79663
 H1369 H 0.43544 0.65565 0.85630
 H1370 H 0.41980 0.62280 0.84025
 H1371 H 0.47046 0.66691 0.86792
 H1372 H 0.48649 0.69808 0.88613
 H1373 H 0.47544 0.73762 0.82980
 H1374 H 0.45927 0.70618 0.81165
 C1375 C -0.05195 0.12011 0.28581
 C1376 C -0.05243 0.10238 0.30006
 C1377 C -0.06357 0.08326 0.29468
 C1378 C -0.07447 0.08139 0.27492
 C1379 C -0.07354 0.09889 0.26042
 C1380 C -0.06245 0.11808 0.26583
 C1381 C -0.04145 0.14097 0.29234
 C1382 C -0.05150 0.16114 0.28827
 C1383 C -0.04271 0.18064 0.29625
 C1384 C -0.02365 0.18042 0.30845
 C1385 C -0.01314 0.16034 0.31175
 C1386 C -0.02195 0.14084 0.30381
 C1387 C -0.01561 0.20068 0.31911
 C1388 C 0.00647 0.20514 0.32034
 C1389 C 0.01400 0.22300 0.33239
 C1390 C -0.00023 0.23639 0.34431
 C1391 C -0.02248 0.23298 0.34123
 C1392 C -0.03001 0.21520 0.32913
 H1393 H -0.04472 0.10352 0.31567
 H1394 H -0.06379 0.06996 0.30608
 H1395 H -0.08192 0.09800 0.24514
 H1396 H -0.06221 0.13139 0.25445
 H1397 H -0.06661 0.16178 0.27961
 H1398 H -0.05104 0.19588 0.29322
 H1399 H 0.00146 0.15959 0.32123
 H1400 H -0.01370 0.12558 0.30697
 H1401 H 0.01794 0.19465 0.31218
 H1402 H 0.03115 0.22587 0.33315
 H1403 H -0.03432 0.24384 0.34821
 H1404 H -0.04716 0.21246 0.32820
 C1405 C 0.06543 0.38561 0.27883
 C1406 C 0.07424 0.38639 0.25807
 C1407 C 0.08439 0.40543 0.25092
 C1408 C 0.08577 0.42403 0.26439
 C1409 C 0.07577 0.42356 0.28462
 C1410 C 0.06579 0.40456 0.29178
 C1411 C 0.05740 0.36478 0.28777
 C1412 C 0.06407 0.35838 0.30838
 C1413 C 0.05676 0.33889 0.31719
 C1414 C 0.04248 0.32535 0.30569
 C1415 C 0.03575 0.33167 0.28504
 C1416 C 0.04334 0.35115 0.27605
 C1417 C 0.03433 0.30518 0.31590
 C1418 C 0.01232 0.30029 0.31593
 C1419 C 0.00445 0.28342 0.32879
 C1420 C 0.01828 0.27163 0.34258
 C1421 C 0.04061 0.27474 0.34000
 C1422 C 0.04845 0.29158 0.32725
 H1423 H 0.07423 0.37195 0.24782
 H1424 H 0.09205 0.40523 0.23531
 H1425 H 0.07609 0.43778 0.29516
 H1426 H 0.05875 0.40450 0.30769
 H1427 H 0.07510 0.36843 0.31765
 H1428 H 0.06199 0.33458 0.33325
 H1429 H 0.02477 0.32149 0.27584
 H1430 H 0.03796 0.35577 0.26012
 H1431 H 0.00108 0.31020 0.30692
 H1432 H -0.01269 0.28047 0.32905
 H1433 H 0.05226 0.26455 0.34808
 H1434 H 0.06562 0.29431 0.32661
 C1435 C 0.55428 0.87356 0.79873
 C1436 C 0.56625 0.87317 0.77958
 C1437 C 0.57601 0.89227 0.77207
 C1438 C 0.57403 0.91205 0.78364
 C1439 C 0.56131 0.91260 0.80223
 C1440 C 0.55148 0.89362 0.80964
 C1441 C 0.54555 0.85310 0.80805
 C1442 C 0.54651 0.84992 0.83039
 C1443 C 0.53775 0.83123 0.83955
 C1444 C 0.52788 0.81515 0.82662
 C1445 C 0.52749 0.81788 0.80420
 C1446 C 0.53623 0.83673 0.79497
 C1447 C 0.51760 0.79602 0.83686
 C1448 C 0.52101 0.77465 0.82910
 C1449 C 0.51248 0.75669 0.84001
 C1450 C 0.49960 0.75965 0.85849
 C1451 C 0.49660 0.78129 0.86619
 C1452 C 0.50515 0.79910 0.85538
 H1453 H 0.56879 0.85795 0.77088
 H1454 H 0.58585 0.89139 0.75775
 H1455 H 0.55920 0.92772 0.81123
 H1456 H 0.54189 0.89461 0.82412
 H1457 H 0.55414 0.86188 0.84086
 H1458 H 0.53875 0.82931 0.85684
 H1459 H 0.51992 0.80574 0.79389
 H1460 H 0.53521 0.83874 0.77771
 H1461 H 0.53100 0.77180 0.81512
 H1462 H 0.51637 0.74038 0.83428
 H1463 H 0.48825 0.78464 0.88109
 H1464 H 0.50234 0.81540 0.86181
 C1465 C 0.69948 0.56376 0.12866
 C1466 C 0.70902 0.55094 0.11247
 C1467 C 0.71606 0.56044 0.09331
 C1468 C 0.71405 0.58328 0.08976
 C1469 C 0.70419 0.59584 0.10630
 C1470 C 0.69700 0.58625 0.12520
 C1471 C 0.69161 0.55391 0.14898
 C1472 C 0.69298 0.56576 0.16846
 C1473 C 0.68346 0.55782 0.18710
 C1474 C 0.67271 0.53767 0.18682
 C1475 C 0.67234 0.52515 0.16778
 C1476 C 0.68161 0.53325 0.14896
 C1477 C 0.66045 0.53080 0.20590
 C1478 C 0.66317 0.50999 0.21482
 C1479 C 0.65147 0.50398 0.23302
 C1480 C 0.63679 0.51865 0.24284
 C1481 C 0.63341 0.53906 0.23280
 C1482 C 0.64540 0.54517 0.21496
 H1483 H 0.71147 0.53356 0.11474
 H1484 H 0.72411 0.54971 0.08201
 H1485 H 0.70064 0.61305 0.10450
 H1486 H 0.68894 0.59653 0.13695
 H1487 H 0.70108 0.58142 0.16923
 H1488 H 0.68414 0.56762 0.20171
 H1489 H 0.66399 0.50961 0.16721
 H1490 H 0.68012 0.52376 0.13424
 H1491 H 0.67448 0.49850 0.20782
 H1492 H 0.65388 0.48780 0.23957
 H1493 H 0.62122 0.55040 0.23822
 H1494 H 0.64252 0.56104 0.20784
 C1495 C 0.21233 1.06754 0.62022
 C1496 C 0.20529 1.06052 0.59977
 C1497 C 0.21216 1.07116 0.58119
 C1498 C 0.22623 1.08909 0.58266
 C1499 C 0.23365 1.09578 0.60309
 C1500 C 0.22676 1.08516 0.62164
 C1501 C 0.20407 1.05699 0.64000
 C1502 C 0.19826 1.06973 0.65804
 C1503 C 0.18919 1.05997 0.67613
 C1504 C 0.18573 1.03725 0.67659
 C1505 C 0.19216 1.02445 0.65882
 C1506 C 0.20120 1.03420 0.64073
 C1507 C 0.17424 1.02708 0.69489
 C1508 C 0.15844 1.01123 0.69087
 C1509 C 0.14675 1.00223 0.70769
 C1510 C 0.15086 1.00825 0.72936
 C1511 C 0.16633 1.02475 0.73316
 C1512 C 0.17802 1.03383 0.71623
 H1513 H 0.19393 1.04719 0.59815
 H1514 H 0.20595 1.06578 0.56574
 H1515 H 0.24482 1.10926 0.60473
 H1516 H 0.23276 1.09071 0.63713
 H1517 H 0.20001 1.08736 0.65787
 H1518 H 0.18414 1.07032 0.68943
 H1519 H 0.19003 1.00686 0.65884
 H1520 H 0.20588 1.02390 0.62726
 H1521 H 0.15450 1.00634 0.67453
 H1522 H 0.13391 0.99116 0.70332
 H1523 H 0.16924 1.03074 0.74936
 H1524 H 0.18994 1.04622 0.71985
 C1525 C 0.21168 0.93382 0.87791
 C1526 C 0.21931 0.94703 0.89482
 C1527 C 0.22712 0.93767 0.91378
 C1528 C 0.22774 0.91461 0.91650
 C1529 C 0.22057 0.90161 0.89883
 C1530 C 0.21267 0.91106 0.88003
 C1531 C 0.20181 0.94364 0.85847
 C1532 C 0.18258 0.93504 0.85008
 C1533 C 0.17285 0.94440 0.83212
 C1534 C 0.18214 0.96255 0.82204
 C1535 C 0.20154 0.97101 0.83019
 C1536 C 0.21123 0.96172 0.84833
 C1537 C 0.17122 0.97281 0.80342
 C1538 C 0.18269 0.97862 0.78493
 C1539 C 0.17206 0.98754 0.76713
 C1540 C 0.14970 0.99160 0.76765
 C1541 C 0.13839 0.98525 0.78625
 C1542 C 0.14896 0.97623 0.80386
 H1543 H 0.21881 0.96470 0.89357
 H1544 H 0.23326 0.94889 0.92582
 H1545 H 0.21952 0.88400 0.89955
 H1546 H 0.20699 0.90044 0.86717
 H1547 H 0.17484 0.92127 0.85767
 H1548 H 0.15802 0.93740 0.82606
 H1549 H 0.20898 0.98506 0.82279
 H1550 H 0.22612 0.96858 0.85438
 H1551 H 0.19980 0.97559 0.78398
 H1552 H 0.18145 0.99055 0.75289
 H1553 H 0.12114 0.98735 0.78710
 H1554 H 0.13968 0.97193 0.81790
 C1555 C 0.70388 0.44603 0.38843
 C1556 C 0.72327 0.45372 0.39746
 C1557 C 0.73261 0.44309 0.41505
 C1558 C 0.72292 0.42440 0.42365
 C1559 C 0.70351 0.41687 0.41488
 C1560 C 0.69397 0.42768 0.39764
 C1561 C 0.69398 0.45683 0.36942
 C1562 C 0.68268 0.44429 0.35401
 C1563 C 0.67219 0.45435 0.33688
 C1564 C 0.67319 0.47708 0.33444
 C1565 C 0.68508 0.48969 0.34918
 C1566 C 0.69526 0.47967 0.36665
 C1567 C 0.66093 0.48745 0.31697
 C1568 C 0.67138 0.49848 0.30036
 C1569 C 0.65966 0.50637 0.28279
 C1570 C 0.63720 0.50318 0.28142
 C1571 C 0.62682 0.49373 0.29926
 C1572 C 0.63857 0.48548 0.31649
 H1573 H 0.73150 0.46763 0.39069
 H1574 H 0.74767 0.44909 0.42157
 H1575 H 0.69562 0.40266 0.42151
 H1576 H 0.67873 0.42166 0.39163
 H1577 H 0.68185 0.42665 0.35516
 H1578 H 0.66323 0.44438 0.32548
 H1579 H 0.68589 0.50730 0.34754
 H1580 H 0.70360 0.48989 0.37828
 H1581 H 0.68866 0.50052 0.30076
 H1582 H 0.66835 0.51502 0.27049
 H1583 H 0.60952 0.49197 0.29938
 H1584 H 0.63020 0.47739 0.32943
 C1585 C 0.77903 0.44453 0.62224
 C1586 C 0.76477 0.42682 0.62053
 C1587 C 0.76102 0.41672 0.60059
 C1588 C 0.77188 0.42387 0.58218
 C1589 C 0.78595 0.44173 0.58385
 C1590 C 0.78932 0.45214 0.60368
 C1591 C 0.78441 0.45418 0.64346
 C1592 C 0.78358 0.47690 0.64677
 C1593 C 0.79082 0.48613 0.66614
 C1594 C 0.79955 0.47284 0.68240
 C1595 C 0.79961 0.44998 0.67923
 C1596 C 0.79195 0.44076 0.66004
 C1597 C 0.81029 0.48271 0.70165
 C1598 C 0.81062 0.47180 0.72146
 C1599 C 0.82342 0.47946 0.73844
 C1600 C 0.83663 0.49805 0.73605
 C1601 C 0.83410 0.51034 0.71706
 C1602 C 0.82162 0.50249 0.69997
 H1603 H 0.75671 0.42071 0.63468
 H1604 H 0.75020 0.40287 0.59964
 H1605 H 0.79444 0.44750 0.56982
 H1606 H 0.80055 0.46564 0.60470
 H1607 H 0.77760 0.48751 0.63422
 H1608 H 0.78995 0.50372 0.66816
 H1609 H 0.80653 0.43919 0.69111
 H1610 H 0.79291 0.42319 0.65772
 H1611 H 0.80135 0.45703 0.72375
 H1612 H 0.82384 0.47024 0.75323
 H1613 H 0.84193 0.52592 0.71492
 H1614 H 0.82159 0.51165 0.68515
 C1615 C 0.28755 -0.05099 0.11677
 C1616 C 0.28174 -0.07325 0.11725
 C1617 C 0.27418 -0.08388 0.09873
 C1618 C 0.27256 -0.07266 0.07919
 C1619 C 0.27811 -0.05042 0.07861
 C1620 C 0.28531 -0.03964 0.09724
 C1621 C 0.29683 -0.04005 0.13627
 C1622 C 0.31295 -0.02411 0.13425
 C1623 C 0.32271 -0.01489 0.15246
 C1624 C 0.31696 -0.02164 0.17324
 C1625 C 0.30044 -0.03714 0.17532
 C1626 C 0.29041 -0.04611 0.15708
 C1627 C 0.32885 -0.01321 0.19248
 C1628 C 0.31858 -0.00999 0.21240
 C1629 C 0.33010 -0.00250 0.23042
 C1630 C 0.35210 0.00281 0.22884
 C1631 C 0.36234 -0.00123 0.20897
 C1632 C 0.35096 -0.00899 0.19115
 H1633 H 0.28366 -0.08272 0.13176
 H1634 H 0.27025 -0.10113 0.09950
 H1635 H 0.27680 -0.04139 0.06375
 H1636 H 0.28915 -0.02240 0.09629
 H1637 H 0.31857 -0.01914 0.11858
 H1638 H 0.33500 -0.00263 0.15018
 H1639 H 0.29564 -0.04289 0.19100
 H1640 H 0.27775 -0.05798 0.15936
 H1641 H 0.30160 -0.01328 0.21413
 H1642 H 0.32169 -0.00132 0.24556
 H1643 H 0.37942 0.00160 0.20729
 H1644 H 0.35969 -0.01210 0.17640
 C1645 C 0.29554 0.07152 0.38349
 C1646 C 0.27636 0.08375 0.38384
 C1647 C 0.26872 0.09279 0.40316
 C1648 C 0.28020 0.08993 0.42243
 C1649 C 0.29890 0.07710 0.42222
 C1650 C 0.30640 0.06788 0.40303
 C1651 C 0.30473 0.06319 0.36288
 C1652 C 0.32711 0.06318 0.35982
 C1653 C 0.33604 0.05474 0.34093
 C1654 C 0.32286 0.04630 0.32449
 C1655 C 0.30047 0.04690 0.32711
 C1656 C 0.29148 0.05519 0.34618
 C1657 C 0.33271 0.03629 0.30506
 C1658 C 0.32575 0.04183 0.28432
 C1659 C 0.33613 0.03317 0.26616
 C1660 C 0.35310 0.01792 0.26820
 C1661 C 0.36017 0.01296 0.28926
 C1662 C 0.34998 0.02177 0.30730
 H1663 H 0.26768 0.08702 0.36909
 H1664 H 0.25433 0.10277 0.40289
 H1665 H 0.30786 0.07438 0.43693
 H1666 H 0.32086 0.05803 0.40350
 H1667 H 0.33779 0.06981 0.37201
 H1668 H 0.35334 0.05487 0.33914
 H1669 H 0.28997 0.04039 0.31468
 H1670 H 0.27420 0.05483 0.34803
 H1671 H 0.31280 0.05347 0.28217
 H1672 H 0.33108 0.03865 0.25041
 H1673 H 0.37412 0.00281 0.29206
 H1674 H 0.35585 0.01741 0.32313
 C1675 C 0.77254 0.55324 0.88837
 C1676 C 0.75684 0.56974 0.88942
 C1677 C 0.75098 0.57890 0.90925
 C1678 C 0.76101 0.57198 0.92830
 C1679 C 0.77632 0.55511 0.92730
 C1680 C 0.78189 0.54567 0.90751
 C1681 C 0.78033 0.54503 0.86733
 C1682 C 0.78256 0.52249 0.86338
 C1683 C 0.79162 0.51491 0.84415
 C1684 C 0.79907 0.52974 0.82864
 C1685 C 0.79629 0.55231 0.83249
 C1686 C 0.78688 0.55985 0.85155
 C1687 C 0.81093 0.52190 0.80924
 C1688 C 0.80962 0.53324 0.78970
 C1689 C 0.82256 0.52723 0.77229
 C1690 C 0.83748 0.50988 0.77388
 C1691 C 0.83716 0.49732 0.79286
 C1692 C 0.82449 0.50355 0.81038
 H1693 H 0.74940 0.57578 0.87486
 H1694 H 0.73927 0.59203 0.90962
 H1695 H 0.78421 0.54950 0.94180
 H1696 H 0.79416 0.53309 0.90707
 H1697 H 0.77742 0.51077 0.87527
 H1698 H 0.79300 0.49742 0.84157
 H1699 H 0.80216 0.56427 0.82120
 H1700 H 0.78557 0.57732 0.85436
 H1701 H 0.79875 0.54694 0.78789
 H1702 H 0.82143 0.53661 0.75763
 H1703 H 0.84668 0.48266 0.79457
 H1704 H 0.82583 0.49420 0.82503
 C1705 C 0.11434 0.69627 0.56473
 C1706 C 0.09380 0.68996 0.55755
 C1707 C 0.07538 0.69822 0.56755
 C1708 C 0.07709 0.71296 0.58496
 C1709 C 0.09763 0.71956 0.59189
 C1710 C 0.11604 0.71131 0.58189
 C1711 C 0.13392 0.68679 0.55470
 C1712 C 0.15209 0.69983 0.55092
 C1713 C 0.17055 0.69074 0.54169
 C1714 C 0.17121 0.66843 0.53601
 C1715 C 0.15307 0.65539 0.53988
 C1716 C 0.13465 0.66446 0.54910
 C1717 C 0.19068 0.65870 0.52603
 C1718 C 0.18873 0.64342 0.50917
 C1719 C 0.20687 0.63361 0.50018
 C1720 C 0.22777 0.63923 0.50731
 C1721 C 0.22947 0.65417 0.52473
 C1722 C 0.21126 0.66401 0.53371
 H1723 H 0.09197 0.67861 0.54419
 H1724 H 0.05981 0.69270 0.56194
 H1725 H 0.09947 0.73112 0.60508
 H1726 H 0.13163 0.71636 0.58791
 H1727 H 0.15192 0.71714 0.55483
 H1728 H 0.18420 0.70123 0.53868
 H1729 H 0.15324 0.63806 0.53607
 H1730 H 0.12109 0.65389 0.55221
 H1731 H 0.17306 0.63887 0.50300
 H1732 H 0.20417 0.62110 0.48809
 H1733 H 0.24505 0.65808 0.53153
 H1734 H 0.21326 0.67530 0.54711
 C1735 C 0.62145 0.20613 1.06182
 C1736 C 0.60093 0.19786 1.05690
 C1737 C 0.58263 0.20681 1.06655
 C1738 C 0.58441 0.22423 1.08137
 C1739 C 0.60489 0.23284 1.08591
 C1740 C 0.62320 0.22391 1.07622
 C1741 C 0.64095 0.19574 1.05247
 C1742 C 0.65833 0.20848 1.04546
 C1743 C 0.67661 0.19851 1.03665
 C1744 C 0.67786 0.17560 1.03466
 C1745 C 0.66058 0.16290 1.04193
 C1746 C 0.64236 0.17284 1.05070
 C1747 C 0.69696 0.16483 1.02490
 C1748 C 0.69436 0.14669 1.01115
 C1749 C 0.71215 0.13576 1.00269
 C1750 C 0.73328 0.14302 1.00710
 C1751 C 0.73572 0.16101 1.02134
 C1752 C 0.71785 0.17196 1.02984
 H1753 H 0.59902 0.18437 1.04564
 H1754 H 0.56713 0.19967 1.06284
 H1755 H 0.60678 0.24644 1.09706
 H1756 H 0.63879 0.23056 1.08045
 H1757 H 0.65765 0.22617 1.04645
 H1758 H 0.68958 0.20873 1.03102
 H1759 H 0.66123 0.14520 1.04109
 H1760 H 0.62947 0.16254 1.05640
 H1761 H 0.67848 0.14072 1.00708
 H1762 H 0.70909 0.12117 0.99322
 H1763 H 0.75160 0.16641 1.02616
 H1764 H 0.72040 0.18556 1.04084
 C1765 C 0.87863 0.20663 0.92916
 C1766 C 0.89651 0.21490 0.94029
 C1767 C 0.91471 0.22190 0.92920
 C1768 C 0.91578 0.22092 0.90639
 C1769 C 0.89733 0.21278 0.89546
 C1770 C 0.87921 0.20579 0.90665
 C1771 C 0.85978 0.19799 0.94098
 C1772 C 0.86277 0.18537 0.95954
 C1773 C 0.84524 0.17588 0.96983
 C1774 C 0.82430 0.17875 0.96181
 C1775 C 0.82119 0.19196 0.94367
 C1776 C 0.83876 0.20146 0.93334
 C1777 C 0.80605 0.16693 0.97166
 C1778 C 0.78598 0.17704 0.97465
 C1779 C 0.76889 0.16554 0.98383
 C1780 C 0.77159 0.14371 0.99065
 C1781 C 0.79156 0.13352 0.98659
 C1782 C 0.80854 0.14498 0.97756
 H1783 H 0.89636 0.21622 0.95768
 H1784 H 0.92739 0.22895 0.93891
 H1785 H 0.89691 0.21034 0.87824
 H1786 H 0.86587 0.19897 0.89760
 H1787 H 0.87874 0.18222 0.96573
 H1788 H 0.84811 0.16600 0.98394
 H1789 H 0.80526 0.19436 0.93705
 H1790 H 0.83592 0.21133 0.91923
 H1791 H 0.78349 0.19387 0.96990
 H1792 H 0.75355 0.17374 0.98506
 H1793 H 0.79402 0.11647 0.99056
 H1794 H 0.82356 0.13648 0.97478
 C1795 C 0.37573 0.71668 0.44993
 C1796 C 0.37947 0.73926 0.45229
 C1797 C 0.39764 0.74878 0.44300
 C1798 C 0.41188 0.73589 0.43084
 C1799 C 0.40806 0.71339 0.42842
 C1800 C 0.39025 0.70383 0.43806
 C1801 C 0.35665 0.70629 0.45944
 C1802 C 0.35911 0.68777 0.47236
 C1803 C 0.34116 0.67639 0.47956
 C1804 C 0.32032 0.68299 0.47362
 C1805 C 0.31787 0.70207 0.46130
 C1806 C 0.33591 0.71370 0.45439
 C1807 C 0.30148 0.66935 0.47950
 C1808 C 0.28154 0.67882 0.48467
 C1809 C 0.26411 0.66571 0.49055
 C1810 C 0.26638 0.64276 0.49218
 C1811 C 0.28614 0.63345 0.48576
 C1812 C 0.30334 0.64646 0.47964
 H1813 H 0.36845 0.74941 0.46142
 H1814 H 0.40036 0.76619 0.44491
 H1815 H 0.41891 0.70325 0.41906
 H1816 H 0.38755 0.68643 0.43592
 H1817 H 0.37499 0.68194 0.47662
 H1818 H 0.34366 0.66218 0.48955
 H1819 H 0.30211 0.70754 0.45627
 H1820 H 0.33370 0.72789 0.44429
 H1821 H 0.27941 0.69641 0.48439
 H1822 H 0.24898 0.67377 0.49364
 H1823 H 0.28835 0.61586 0.48588
 H1824 H 0.31813 0.63848 0.47486
 C1825 C 0.61310 0.79955 0.45462
 C1826 C 0.59657 0.78986 0.46657
 C1827 C 0.57661 0.78542 0.45698
 C1828 C 0.57277 0.79082 0.43534
 C1829 C 0.58933 0.80054 0.42350
 C1830 C 0.60920 0.80486 0.43301
 C1831 C 0.63428 0.80479 0.46448
 C1832 C 0.65317 0.80173 0.45252
 C1833 C 0.67275 0.80975 0.46015
 C1834 C 0.67393 0.82086 0.47998
 C1835 C 0.65541 0.82252 0.49274
 C1836 C 0.63570 0.81457 0.48503
 C1837 C 0.69371 0.83300 0.48581
 C1838 C 0.70291 0.83183 0.50639
 C1839 C 0.72131 0.84408 0.51146
 C1840 C 0.73103 0.85785 0.49609
 C1841 C 0.72087 0.85939 0.47574
 C1842 C 0.70287 0.84690 0.47063
 H1843 H 0.59914 0.78555 0.48325
 H1844 H 0.56411 0.77799 0.46652
 H1845 H 0.58702 0.80459 0.40672
 H1846 H 0.62146 0.81269 0.42346
 H1847 H 0.65268 0.79378 0.43687
 H1848 H 0.68689 0.80802 0.45016
 H1849 H 0.65592 0.83115 0.50803
 H1850 H 0.62140 0.81721 0.49458
 H1851 H 0.69589 0.82145 0.51851
 H1852 H 0.72796 0.84298 0.52754
 H1853 H 0.72609 0.87069 0.46360
 H1854 H 0.69558 0.84872 0.45489
 C1855 C 0.11175 0.28805 -0.06684
 C1856 C 0.09508 0.30301 -0.07093
 C1857 C 0.07622 0.29622 -0.08118
 C1858 C 0.07345 0.27425 -0.08747
 C1859 C 0.08985 0.25913 -0.08280
 C1860 C 0.10880 0.26596 -0.07262
 C1861 C 0.13232 0.29572 -0.05719
 C1862 C 0.14345 0.28306 -0.04196
 C1863 C 0.16258 0.29073 -0.03270
 C1864 C 0.17086 0.31124 -0.03840
 C1865 C 0.15997 0.32365 -0.05392
 C1866 C 0.14099 0.31597 -0.06324
 C1867 C 0.19049 0.32013 -0.02799
 C1868 C 0.19106 0.34210 -0.02137
 C1869 C 0.20977 0.35112 -0.01280
 C1870 C 0.22852 0.33840 -0.01011
 C1871 C 0.22788 0.31629 -0.01696
 C1872 C 0.20899 0.30721 -0.02548
 H1873 H 0.09666 0.32007 -0.06633
 H1874 H 0.06405 0.30836 -0.08470
 H1875 H 0.08811 0.24202 -0.08715
 H1876 H 0.12136 0.25404 -0.06980
 H1877 H 0.13712 0.26746 -0.03685
 H1878 H 0.17062 0.28090 -0.02069
 H1879 H 0.16624 0.33932 -0.05896
 H1880 H 0.13318 0.32587 -0.07533
 H1881 H 0.17702 0.35245 -0.02305
 H1882 H 0.20974 0.36835 -0.00852
 H1883 H 0.24208 0.30611 -0.01660
 H1884 H 0.20908 0.29031 -0.03093
 C1885 C 0.37962 0.27733 0.06144
 C1886 C 0.39467 0.26303 0.05196
 C1887 C 0.41461 0.25936 0.06178
 C1888 C 0.41994 0.26995 0.08126
 C1889 C 0.40468 0.28382 0.09094
 C1890 C 0.38482 0.28751 0.08114
 C1891 C 0.35907 0.28271 0.05039
 C1892 C 0.34017 0.28623 0.06228
 C1893 C 0.32158 0.29407 0.05227
 C1894 C 0.32143 0.29849 0.03012
 C1895 C 0.33995 0.29376 0.01802
 C1896 C 0.35856 0.28601 0.02804
 C1897 C 0.30286 0.30988 0.02009
 C1898 C 0.30649 0.32692 0.00559
 C1899 C 0.28945 0.33922 -0.00247
 C1900 C 0.26798 0.33458 0.00321
 C1901 C 0.26450 0.31758 0.01804
 C1902 C 0.28164 0.30524 0.02614
 H1903 H 0.39108 0.25478 0.03688
 H1904 H 0.42604 0.24863 0.05388
 H1905 H 0.40810 0.29191 0.10615
 H1906 H 0.37377 0.29885 0.08876
 H1907 H 0.33991 0.28348 0.07946
 H1908 H 0.30767 0.29766 0.06210
 H1909 H 0.34024 0.29666 0.00086
 H1910 H 0.37283 0.28359 0.01840
 H1911 H 0.32268 0.33154 0.00125
 H1912 H 0.29344 0.35305 -0.01242
 H1913 H 0.24846 0.31415 0.02376
 H1914 H 0.27830 0.29232 0.03745
 C1915 C 0.88557 0.79681 0.55676
 C1916 C 0.90418 0.80959 0.55890
 C1917 C 0.92250 0.80116 0.56883
 C1918 C 0.92256 0.77982 0.57713
 C1919 C 0.90417 0.76672 0.57422
 C1920 C 0.88587 0.77512 0.56402
 C1921 C 0.86561 0.80668 0.54819
 C1922 C 0.85341 0.79608 0.53217
 C1923 C 0.83483 0.80597 0.52393
 C1924 C 0.82799 0.82651 0.53181
 C1925 C 0.84001 0.83671 0.54828
 C1926 C 0.85865 0.82700 0.55623
 C1927 C 0.80854 0.83754 0.52300
 C1928 C 0.80808 0.86041 0.52116
 C1929 C 0.78951 0.87112 0.51449
 C1930 C 0.77058 0.85943 0.50933
 C1931 C 0.77162 0.83632 0.50973
 C1932 C 0.79023 0.82558 0.51679
 H1933 H 0.90444 0.82626 0.55310
 H1934 H 0.93654 0.81151 0.57026
 H1935 H 0.90357 0.75030 0.58059
 H1936 H 0.87165 0.76500 0.56265
 H1937 H 0.85852 0.78040 0.52570
 H1938 H 0.82610 0.79774 0.51114
 H1939 H 0.83492 0.85218 0.55522
 H1940 H 0.86754 0.83528 0.56891
 H1941 H 0.82210 0.87017 0.52500
 H1942 H 0.78970 0.88883 0.51380
 H1943 H 0.75824 0.82626 0.50475
 H1944 H 0.79008 0.80790 0.51777
   
