data_POSCAR
  _audit_creation_date              2014-09-24
  _audit_creation_method            'ToBaCCo'
  _symmetry_space_group_name_H-M    'P1'
  _symmetry_Int_Tables_number       1
  _symmetry_cell_setting            triclinic
  loop_
  _symmetry_equiv_pos_as_xyz
 x,y,z
_cell_length_a 49.5954
_cell_length_b 49.0318
_cell_length_c 48.2691
_cell_angle_alpha 89.196100
_cell_angle_beta 88.481700
_cell_angle_gamma 89.814100
loop_
  _atom_site_label
  _atom_site_type_symbol
  _atom_site_fract_x
  _atom_site_fract_y
  _atom_site_fract_z
C1 C 0.12621 -0.00525 0.21575
 C2 C 0.14684 0.01777 0.21541
 C3 C 0.16017 0.02038 0.23934
 C4 C 0.15179 -0.00046 0.26194
 C5 C 0.14190 -0.03083 0.22433
 C6 C 0.15542 -0.02814 0.24821
 C7 C 0.10757 0.00019 0.24121
 C8 C 0.12089 0.00246 0.26557
 H9 H 0.14966 0.03174 0.19797
 H10 H 0.16333 0.00111 0.28122
 H11 H 0.14061 -0.05018 0.21391
 H12 H 0.08582 0.00041 0.24022
 C13 C 0.38916 -0.01392 0.73322
 C14 C 0.36854 -0.03686 0.73551
 C15 C 0.35070 -0.03465 0.75713
 C16 C 0.35524 -0.00947 0.77516
 C17 C 0.37239 0.01224 0.73276
 C18 C 0.35485 0.01501 0.75469
 C19 C 0.40194 -0.01405 0.76000
 C20 C 0.38342 -0.01135 0.78331
 H21 H 0.36897 -0.05430 0.72193
 H22 H 0.34018 -0.00739 0.79236
 H23 H 0.37497 0.02768 0.71664
 H24 H 0.42287 -0.01914 0.76273
 C25 C 0.88867 0.49031 0.22981
 C26 C 0.86430 0.47147 0.23038
 C27 C 0.84633 0.47568 0.25150
 C28 C 0.85424 0.49904 0.27068
 C29 C 0.87700 0.51908 0.23010
 C30 C 0.85930 0.52398 0.25138
 C31 C 0.90076 0.48672 0.25870
 C32 C 0.88274 0.49145 0.28004
 H33 H 0.86318 0.45381 0.21716
 H34 H 0.83957 0.50281 0.28800
 H35 H 0.88335 0.53476 0.21528
 H36 H 0.92182 0.48292 0.26242
 C37 C 0.61813 0.49997 0.71913
 C38 C 0.63164 0.52707 0.72498
 C39 C 0.64566 0.52748 0.74869
 C40 C 0.64487 0.50026 0.76500
 C41 C 0.64088 0.47862 0.72021
 C42 C 0.65481 0.47870 0.74420
 C43 C 0.60084 0.49348 0.74519
 C44 C 0.61455 0.49383 0.76923
 H45 H 0.63086 0.54440 0.71082
 H46 H 0.65640 0.50037 0.78441
 H47 H 0.64299 0.46216 0.70558
 H48 H 0.57952 0.48896 0.74464
 C49 C 0.23197 0.11569 1.00777
 C50 C 0.23031 0.13385 1.03305
 C51 C 0.25131 0.15127 1.03543
 C52 C 0.27236 0.14952 1.01142
 C53 C 0.23535 0.13529 0.98308
 C54 C 0.25642 0.15278 0.98462
 C55 C 0.25971 0.10159 1.00941
 C56 C 0.28088 0.11926 1.01121
 H57 H 0.21450 0.13172 1.04887
 H58 H 0.28936 0.16408 1.01285
 H59 H 0.22391 0.13325 0.96439
 H60 H 0.26277 0.07986 1.00780
 C61 C 0.72689 0.39816 0.99541
 C62 C 0.72768 0.37428 0.97810
 C63 C 0.75070 0.35696 0.98174
 C64 C 0.76855 0.36689 1.00366
 C65 C 0.72836 0.38778 1.02348
 C66 C 0.75116 0.37070 1.02885
 C67 C 0.75263 0.41146 0.98948
 C68 C 0.77600 0.39498 0.99511
 H69 H 0.71518 0.37288 0.96007
 H70 H 0.78580 0.35309 1.00734
 H71 H 0.71221 0.39120 1.03864
 H72 H 0.75421 0.43012 0.97736
 C73 C 0.21975 0.90098 0.48360
 C74 C 0.22323 0.87635 0.46497
 C75 C 0.24445 0.86002 0.47099
 C76 C 0.26078 0.86985 0.49576
 C77 C 0.21859 0.88921 0.51309
 C78 C 0.23993 0.87322 0.51985
 C79 C 0.24714 0.91558 0.48150
 C80 C 0.26858 0.89950 0.48834
 H81 H 0.21106 0.87333 0.44693
 H82 H 0.27816 0.85655 0.50084
 H83 H 0.20232 0.89396 0.52768
 H84 H 0.24965 0.93700 0.47683
 C85 C 0.73051 0.61619 0.49173
 C86 C 0.73279 0.63127 0.51880
 C87 C 0.75533 0.64668 0.52072
 C88 C 0.77403 0.64583 0.49460
 C89 C 0.73322 0.63820 0.46907
 C90 C 0.75589 0.65362 0.47028
 C91 C 0.75682 0.59987 0.48865
 C92 C 0.77966 0.61515 0.49009
 H93 H 0.71747 0.62993 0.53520
 H94 H 0.79240 0.65861 0.49578
 H95 H 0.72059 0.63875 0.45109
 H96 H 0.75735 0.57825 0.48454
 C97 C 0.01233 0.21933 0.12793
 C98 C 0.03434 0.22006 0.14934
 C99 C 0.03405 0.24257 0.16535
 C100 C 0.01112 0.26278 0.15871
 C101 C -0.01401 0.22327 0.14442
 C102 C -0.01496 0.24589 0.16028
 C103 C 0.01588 0.24638 0.11144
 C104 C 0.01484 0.26926 0.12748
 H105 H 0.05058 0.20521 0.14975
 H106 H 0.01030 0.28080 0.17234
 H107 H -0.03133 0.21015 0.14206
 H108 H 0.01859 0.24766 0.08924
 C109 C -0.01899 0.73109 0.38654
 C110 C -0.03935 0.73010 0.36587
 C111 C -0.03901 0.75221 0.34629
 C112 C -0.01746 0.77195 0.35131
 C113 C 0.00767 0.73380 0.37038
 C114 C 0.00900 0.75514 0.35220
 C115 C -0.02276 0.75911 0.40023
 C116 C -0.02170 0.78062 0.38179
 H117 H -0.05594 0.71581 0.36792
 H118 H -0.01614 0.78924 0.33627
 H119 H 0.02462 0.72033 0.37404
 H120 H -0.02434 0.76216 0.42232
 C121 C 0.49091 0.22907 0.89024
 C122 C 0.46936 0.23058 0.86835
 C123 C 0.47154 0.25227 0.85073
 C124 C 0.49577 0.27087 0.85630
 C125 C 0.51769 0.23012 0.87395
 C126 C 0.52065 0.25192 0.85646
 C127 C 0.48925 0.25694 0.90463
 C128 C 0.49208 0.27885 0.88693
 H129 H 0.45214 0.21700 0.86860
 H130 H 0.49791 0.28836 0.84158
 H131 H 0.53355 0.21523 0.87710
 H132 H 0.48671 0.25949 0.92670
 C133 C 0.50183 0.72286 0.62824
 C134 C 0.52303 0.72460 0.65041
 C135 C 0.52205 0.74765 0.66559
 C136 C 0.49895 0.76719 0.65770
 C137 C 0.47488 0.72681 0.64362
 C138 C 0.47295 0.74989 0.65877
 C139 C 0.50543 0.74952 0.61105
 C140 C 0.50384 0.77278 0.62644
 H141 H 0.53988 0.71048 0.65130
 H142 H 0.49751 0.78571 0.67061
 H143 H 0.45791 0.71330 0.64098
 H144 H 0.50847 0.75034 0.58885
 C145 C 0.89548 0.99753 0.77174
 C146 C 0.88155 1.02330 0.77407
 C147 C 0.86273 1.02918 0.75283
 C148 C 0.86010 1.00649 0.73350
 C149 C 0.87327 0.97613 0.77118
 C150 C 0.85481 0.98033 0.75127
 C151 C 0.90757 0.99739 0.74203
 C152 C 0.88914 1.00229 0.72196
 H153 H 0.88521 1.03697 0.79100
 H154 H 0.84515 1.00985 0.71711
 H155 H 0.87413 0.95729 0.78317
 H156 H 0.92837 0.99259 0.73692
 C157 C 0.38646 0.49841 0.27530
 C158 C 0.37034 0.52492 0.27313
 C159 C 0.35277 0.52581 0.25196
 C160 C 0.35231 0.49947 0.23499
 C161 C 0.36542 0.47595 0.27718
 C162 C 0.34777 0.47605 0.25623
 C163 C 0.39966 0.49547 0.24622
 C164 C 0.38182 0.49637 0.22509
 H165 H 0.37480 0.54266 0.28533
 H166 H 0.33751 0.50003 0.21813
 H167 H 0.36656 0.45929 0.29212
 H168 H 0.42114 0.49484 0.24217
 C169 C 0.62013 0.99141 0.27856
 C170 C 0.63905 0.96822 0.26959
 C171 C 0.65065 0.97200 0.24394
 C172 C 0.64220 0.99882 0.22940
 C173 C 0.63603 1.01583 0.27571
 C174 C 0.64829 1.02042 0.24898
 C175 C 0.59970 0.99306 0.25523
 C176 C 0.61103 0.99668 0.22936
 H177 H 0.64043 0.94884 0.28047
 H178 H 0.65198 1.00124 0.20859
 H179 H 0.63611 1.03087 0.29195
 H180 H 0.57826 0.99028 0.25896
 C181 C 0.11297 0.49917 0.77334
 C182 C 0.12862 0.47220 0.77252
 C183 C 0.14334 0.46834 0.74865
 C184 C 0.14120 0.49200 0.72757
 C185 C 0.13403 0.52108 0.76740
 C186 C 0.14876 0.51745 0.74372
 C187 C 0.09598 0.49836 0.74730
 C188 C 0.11062 0.49455 0.72345
 H189 H 0.12721 0.45701 0.78900
 H190 H 0.15321 0.48910 0.70809
 H191 H 0.13614 0.53891 0.78020
 H192 H 0.07420 0.49857 0.74756
 C193 C 0.78099 0.90798 -0.00464
 C194 C 0.77735 0.88761 0.01955
 C195 C 0.75435 0.87260 0.01881
 C196 C 0.73679 0.87931 -0.00616
 C197 C 0.77861 0.89111 -0.03063
 C198 C 0.75577 0.87613 -0.03170
 C199 C 0.75501 0.92517 -0.00319
 C200 C 0.73180 0.91029 -0.00371
 H201 H 0.79003 0.88759 0.03750
 H202 H 0.71833 0.86663 -0.00667
 H203 H 0.79365 0.89165 -0.04734
 H204 H 0.75487 0.94690 0.00007
 C205 C 0.27947 0.40611 0.50930
 C206 C 0.27541 0.39026 0.53667
 C207 C 0.25281 0.37450 0.53800
 C208 C 0.23609 0.37591 0.51162
 C209 C 0.27854 0.38462 0.48689
 C210 C 0.25609 0.36888 0.48780
 C211 C 0.25300 0.42224 0.50657
 C212 C 0.23025 0.40662 0.50806
 H213 H 0.28833 0.39280 0.55419
 H214 H 0.21784 0.36284 0.51275
 H215 H 0.29376 0.38326 0.47042
 H216 H 0.25196 0.44422 0.50585
 C217 C 0.27545 0.61112 -0.00476
 C218 C 0.26866 0.62863 -0.03009
 C219 C 0.24387 0.64042 -0.02883
 C220 C 0.22757 0.63356 -0.00212
 C221 C 0.27086 0.62967 0.01997
 C222 C 0.24600 0.64123 0.02171
 C223 C 0.25203 0.59041 -0.00275
 C224 C 0.22682 0.60205 -0.00158
 H225 H 0.28160 0.62987 -0.04852
 H226 H 0.20764 0.64385 -0.00131
 H227 H 0.28557 0.63183 0.03600
 H228 H 0.25505 0.56864 -0.00375
 C229 C 0.76766 0.10280 0.50884
 C230 C 0.76398 0.11660 0.48237
 C231 C 0.73999 0.13295 0.48075
 C232 C 0.72349 0.13173 0.50668
 C233 C 0.76587 0.12392 0.52930
 C234 C 0.74174 0.13989 0.52882
 C235 C 0.74309 0.08682 0.51299
 C236 C 0.71838 0.10220 0.51074
 H237 H 0.77883 0.11537 0.46557
 H238 H 0.70506 0.14446 0.50575
 H239 H 0.78017 0.12521 0.54588
 H240 H 0.74303 0.06505 0.51576
 C241 C 0.99774 0.77343 0.89899
 C242 C 1.01988 0.77023 0.87638
 C243 C 1.01790 0.74711 0.86131
 C244 C 0.99415 0.72866 0.87049
 C245 C 0.97130 0.77056 0.88394
 C246 C 0.96917 0.74744 0.86902
 C247 C 1.00021 0.74714 0.91645
 C248 C 0.99867 0.72359 0.90177
 H249 H 1.03680 0.78402 0.87378
 H250 H 0.99273 0.70995 0.85795
 H251 H 0.95550 0.78587 0.88488
 H252 H 1.00448 0.74717 0.93826
 C253 C 0.50702 0.27774 0.39988
 C254 C 0.53038 0.27472 0.37875
 C255 C 0.52936 0.25177 0.36327
 C256 C 0.50484 0.23353 0.37028
 C257 C 0.48154 0.27532 0.38306
 C258 C 0.48020 0.25258 0.36753
 C259 C 0.50763 0.25108 0.41704
 C260 C 0.50697 0.22790 0.40175
 H261 H 0.54734 0.28861 0.37758
 H262 H 0.50408 0.21503 0.35735
 H263 H 0.46513 0.28994 0.38450
 H264 H 0.50781 0.25014 0.43934
 C265 C 1.00448 0.27612 0.60844
 C266 C 0.97822 0.27423 0.62574
 C267 C 0.97612 0.25172 0.64250
 C268 C 1.00108 0.23286 0.64063
 C269 C 1.02689 0.27380 0.62942
 C270 C 1.02557 0.25124 0.64601
 C271 C 1.00558 0.24889 0.59287
 C272 C 1.00356 0.22619 0.60954
 H273 H 0.96206 0.28900 0.62382
 H274 H 0.99954 0.21481 0.65468
 H275 H 1.04409 0.28740 0.62903
 H276 H 1.00707 0.24741 0.57064
 C277 C 0.49270 0.77408 0.11134
 C278 C 0.46610 0.77152 0.12795
 C279 C 0.46467 0.74941 0.14535
 C280 C 0.49038 0.73176 0.14486
 C281 C 0.51457 0.77336 0.13301
 C282 C 0.51347 0.75153 0.15047
 C283 C 0.49560 0.74648 0.09663
 C284 C 0.49426 0.72436 0.11412
 H285 H 0.44939 0.78549 0.12520
 H286 H 0.48939 0.71391 0.15926
 H287 H 0.53125 0.78762 0.13276
 H288 H 0.49805 0.74412 0.07453
 O289 O 0.00237 1.06575 1.04749
 O290 O -0.03902 1.03987 1.05565
 O291 O 0.06194 1.00248 1.05279
 O292 O 0.07424 0.96513 1.02977
 O293 O 0.06405 1.06320 0.98534
 O294 O 0.03975 1.06700 0.94295
 O295 O -0.00354 0.92836 0.98031
 O296 O 0.01533 0.92800 1.02443
 O297 O -0.06633 0.98654 0.98356
 O298 O -0.06935 1.03509 0.99677
 O299 O -0.00839 0.98837 0.91788
 O300 O 0.03843 1.00604 0.91335
 O301 O 0.01432 0.94746 0.94077
 O302 O 0.05615 0.97367 0.93108
 O303 O -0.04657 1.00499 0.93861
 O304 O -0.05455 1.04967 0.96035
 O305 O -0.04590 0.94882 1.00111
 O306 O -0.02412 0.94801 1.04575
 O307 O 0.01951 1.08442 1.00743
 O308 O 0.00465 1.08417 0.96088
 O309 O 0.08406 1.02680 1.00610
 O310 O 0.08667 0.97934 0.98979
 O311 O 0.02430 1.02230 1.07147
 O312 O -0.02044 1.00712 1.07534
 Zr313 Zr -0.00248 1.02406 1.03885
 O314 O -0.02711 0.99758 1.01703
 Zr315 Zr 0.05321 0.99754 1.01058
 O316 O 0.03079 0.97009 0.98720
 Zr317 Zr 0.02386 1.05107 0.98088
 O318 O 0.00008 1.02607 0.95630
 Zr319 Zr -0.00613 0.96147 1.00758
 O320 O 0.01760 0.98649 1.03266
 Zr321 Zr -0.03540 1.01539 0.97849
 O322 O -0.01324 1.04338 1.00162
 Zr323 Zr 0.02007 0.98884 0.94961
 O324 O 0.04539 1.01521 0.97156
 O325 O 0.03386 1.03417 1.01904
 O326 O -0.01629 0.97855 0.96953
 C327 C 0.01089 1.08614 1.03267
 C328 C 0.04817 1.01249 1.07328
 C329 C 0.08458 1.05103 0.99557
 C330 C 0.00502 0.92702 0.95495
 C331 C -0.06666 0.96173 0.99241
 C332 C -0.03352 0.99486 0.91790
 H333 H -0.04363 0.99376 1.02834
 H334 H -0.00379 1.03562 0.93868
 H335 H 0.04490 1.04630 1.03039
 H336 H 0.04139 0.95322 0.98425
 H337 H 0.02323 0.93441 1.04180
 H338 H 0.06445 0.94819 1.02568
 H339 H -0.04363 1.05550 0.94389
 H340 H -0.01395 1.08496 0.96879
 H341 H -0.03031 0.92897 1.04349
 H342 H -0.01385 0.98809 1.07666
 H343 H 0.02798 1.02246 0.90815
 H344 H 0.05311 1.05353 0.93597
 H345 H -0.04563 1.05356 1.04214
 H346 H -0.07364 1.02569 1.01460
 H347 H 0.08933 0.98934 0.97197
 H348 H 0.06318 0.95917 0.94340
 O349 O 0.56698 0.50368 0.54484
 O350 O 0.57279 0.46426 0.51782
 O351 O 0.56020 0.56636 0.48175
 O352 O 0.52961 0.57284 0.44304
 O353 O 0.50571 0.56648 0.55109
 O354 O 0.46666 0.54022 0.56407
 O355 O 0.48078 0.49412 0.42041
 O356 O 0.52133 0.51456 0.41109
 O357 O 0.49331 0.43216 0.47942
 O358 O 0.51394 0.43055 0.52574
 O359 O 0.43000 0.48906 0.49187
 O360 O 0.42761 0.53632 0.50759
 O361 O 0.44527 0.51124 0.44542
 O362 O 0.43955 0.55403 0.47188
 O363 O 0.45222 0.45151 0.50729
 O364 O 0.48180 0.44471 0.54657
 O365 O 0.50474 0.45269 0.43830
 O366 O 0.54728 0.47663 0.42955
 O367 O 0.53164 0.52097 0.56992
 O368 O 0.48668 0.50613 0.57882
 O369 O 0.51827 0.58648 0.51003
 O370 O 0.49811 0.58824 0.46606
 O371 O 0.58245 0.52893 0.49752
 O372 O 0.58406 0.48286 0.48068
 Zr373 Zr 0.55213 0.49978 0.50480
 O374 O 0.52698 0.47325 0.48365
 Zr375 Zr 0.51958 0.55435 0.48182
 O376 O 0.49314 0.53012 0.45955
 Zr377 Zr 0.50042 0.52501 0.54145
 O378 O 0.47297 0.49953 0.52175
 Zr379 Zr 0.51203 0.49336 0.44866
 O380 O 0.53993 0.51913 0.46791
 Zr381 Zr 0.49272 0.46390 0.50836
 O382 O 0.51947 0.48797 0.53100
 Zr383 Zr 0.46019 0.51848 0.48506
 O384 O 0.48510 0.54548 0.50661
 O385 O 0.53413 0.53600 0.51755
 O386 O 0.47805 0.48204 0.47249
 C387 C 0.55583 0.51154 0.56768
 C388 C 0.58181 0.55363 0.48837
 C389 C 0.51212 0.58745 0.53600
 C390 C 0.45613 0.50201 0.42294
 C391 C 0.49855 0.43164 0.45321
 C392 C 0.43061 0.46423 0.50063
 H393 H 0.53747 0.45684 0.47841
 H394 H 0.45769 0.49544 0.53468
 H395 H 0.54649 0.54774 0.52784
 H396 H 0.48756 0.54039 0.44287
 H397 H 0.53921 0.52303 0.41321
 H398 H 0.54497 0.56251 0.43493
 H399 H 0.46757 0.45590 0.55564
 H400 H 0.49440 0.48749 0.57893
 H401 H 0.54244 0.46981 0.41108
 H402 H 0.58371 0.49201 0.46228
 H403 H 0.42619 0.52695 0.52585
 H404 H 0.45712 0.55277 0.55140
 H405 H 0.56110 0.45532 0.53217
 H406 H 0.52924 0.42617 0.51300
 H407 H 0.48070 0.58887 0.47655
 H408 H 0.44856 0.56077 0.45460
 O409 O 0.44316 -0.06417 0.49163
 O410 O 0.47122 -0.06732 0.45053
 O411 O 0.50331 -0.06567 0.55510
 O412 O 0.53967 -0.04063 0.56497
 O413 O 0.43842 -0.00707 0.55808
 O414 O 0.42993 0.03489 0.53463
 O415 O 0.57084 0.01887 0.48835
 O416 O 0.57602 -0.02533 0.50550
 O417 O 0.51489 0.01408 0.42406
 O418 O 0.46983 -0.00558 0.42009
 O419 O 0.50553 0.07272 0.48449
 O420 O 0.48616 0.07123 0.53375
 O421 O 0.54783 0.05414 0.50803
 O422 O 0.52074 0.05830 0.55008
 O423 O 0.48948 0.05363 0.44568
 O424 O 0.44929 0.02529 0.43775
 O425 O 0.55321 -0.00174 0.44358
 O426 O 0.55889 -0.04629 0.46515
 O427 O 0.42083 -0.02854 0.51134
 O428 O 0.41600 0.01830 0.49826
 O429 O 0.47628 -0.02335 0.57816
 O430 O 0.52097 -0.00357 0.58078
 O431 O 0.48745 -0.08389 0.51572
 O432 O 0.50536 -0.08270 0.46930
 Zr433 Zr 0.48351 -0.05060 0.48830
 O434 O 0.50714 -0.02396 0.46334
 Zr435 Zr 0.50558 -0.02338 0.54588
 O436 O 0.53010 0.00456 0.52320
 Zr437 Zr 0.45039 0.00123 0.51690
 O438 O 0.47238 0.03015 0.49308
 Zr439 Zr 0.54134 -0.01169 0.48463
 O440 O 0.51940 -0.04113 0.50864
 Zr441 Zr 0.48558 0.01217 0.45596
 O442 O 0.46071 -0.01572 0.47829
 Zr443 Zr 0.50800 0.03992 0.51326
 O444 O 0.48430 0.01328 0.53888
 O445 O 0.47074 -0.03476 0.52611
 O446 O 0.52067 0.02422 0.47525
 C447 C 0.42148 -0.05240 0.50065
 C448 C 0.49572 -0.08606 0.54066
 C449 C 0.45139 -0.01602 0.57901
 C450 C 0.56959 0.04311 0.49835
 C451 C 0.53990 0.00745 0.42295
 C452 C 0.49768 0.07414 0.45929
 H453 H 0.51239 -0.03335 0.44601
 H454 H 0.46098 0.04638 0.48980
 H455 H 0.45953 -0.04781 0.53717
 H456 H 0.54615 0.00881 0.53404
 H457 H 0.57155 -0.04348 0.51359
 H458 H 0.55579 -0.03178 0.55644
 H459 H 0.44163 0.04023 0.44908
 H460 H 0.41565 0.01107 0.47923
 H461 H 0.57737 -0.04140 0.45850
 H462 H 0.52345 -0.08281 0.47749
 H463 H 0.47087 0.07655 0.52207
 H464 H 0.44252 0.04321 0.54763
 H465 H 0.45774 -0.05456 0.44286
 H466 H 0.48113 -0.02159 0.41534
 H467 H 0.51007 0.01318 0.58353
 H468 H 0.53490 0.04651 0.55798
 O469 O -0.04933 0.43121 0.99222
 O470 O -0.02011 0.42794 0.95160
 O471 O 0.00781 0.43119 1.05761
 O472 O 0.04329 0.45644 1.06949
 O473 O -0.05658 0.49122 1.05592
 O474 O -0.06371 0.53215 1.03042
 O475 O 0.07960 0.51224 0.99304
 O476 O 0.08221 0.46839 1.01222
 O477 O 0.02776 0.50808 0.92636
 O478 O -0.01707 0.48815 0.91923
 O479 O 0.01351 0.56825 0.98408
 O480 O -0.00633 0.56771 1.03277
 O481 O 0.05620 0.54889 1.00929
 O482 O 0.02757 0.55533 1.05010
 O483 O -0.00064 0.54804 0.94503
 O484 O -0.03887 0.51898 0.93469
 O485 O 0.06450 0.49263 0.94890
 O486 O 0.06741 0.44762 0.97041
 O487 O -0.07207 0.46797 1.00912
 O488 O -0.07567 0.51460 0.99396
 O489 O -0.02034 0.47435 1.07839
 O490 O 0.02399 0.49382 1.08320
 O491 O -0.00614 0.41217 1.01781
 O492 O 0.01312 0.41207 0.97219
 Zr493 Zr -0.00893 0.44485 0.98967
 O494 O 0.01656 0.47042 0.96547
 Zr495 Zr 0.01054 0.47333 1.04782
 O496 O 0.03660 0.50039 1.02592
 Zr497 Zr -0.04256 0.49778 1.01509
 O498 O -0.01892 0.52572 0.99177
 Zr499 Zr 0.04952 0.48269 0.98864
 O500 O 0.02587 0.45425 1.01192
 Zr501 Zr -0.00395 0.50665 0.95588
 O502 O -0.03055 0.47978 0.97748
 Zr503 Zr 0.01573 0.53580 1.01355
 O504 O -0.00970 0.51012 1.03854
 O505 O -0.02328 0.46181 1.02643
 O506 O 0.03012 0.51876 0.97688
 C507 C -0.07120 0.44354 0.99980
 C508 C 0.00109 0.41051 1.04311
 C509 C -0.04495 0.48250 1.07778
 C510 C 0.07825 0.53700 1.00143
 C511 C 0.05286 0.50179 0.92729
 C512 C 0.00604 0.56910 0.95869
 H513 H 0.02277 0.46062 0.94870
 H514 H -0.03012 0.54187 0.98752
 H515 H -0.03506 0.44917 1.03736
 H516 H 0.05212 0.50471 1.03752
 H517 H 0.07691 0.45026 1.01983
 H518 H 0.05995 0.46485 1.06164
 H519 H -0.04812 0.53310 0.94592
 H520 H -0.07561 0.50614 0.97545
 H521 H 0.08641 0.45201 0.96521
 H522 H 0.03096 0.41204 0.98091
 H523 H -0.02181 0.57215 1.02099
 H524 H -0.05190 0.54073 1.04402
 H525 H -0.03316 0.44080 0.94332
 H526 H -0.00557 0.47199 0.91568
 H527 H 0.01363 0.51107 1.08440
 H528 H 0.04069 0.54327 1.05934
 O529 O 0.01312 0.42820 0.51837
 O530 O -0.00418 0.42562 0.47269
 O531 O 0.07842 0.48484 0.50611
 O532 O 0.08389 0.52745 0.48986
 O533 O 0.02366 0.49334 0.57500
 O534 O -0.02176 0.51134 0.57991
 O535 O 0.00571 0.56025 0.43827
 O536 O 0.04693 0.53672 0.43230
 O537 O -0.05521 0.50223 0.44380
 O538 O -0.06351 0.46140 0.47228
 O539 O -0.05089 0.56393 0.50508
 O540 O -0.02286 0.57086 0.54512
 O541 O -0.01012 0.58121 0.47719
 O542 O 0.00972 0.58483 0.52404
 O543 O -0.07251 0.52746 0.48761
 O544 O -0.07639 0.47962 0.50722
 O545 O -0.01817 0.52010 0.42177
 O546 O 0.02473 0.49620 0.41698
 O547 O -0.00238 0.44967 0.55709
 O548 O -0.04132 0.47658 0.56614
 O549 O 0.06053 0.50978 0.55139
 O550 O 0.06579 0.55111 0.52341
 O551 O 0.05716 0.44704 0.49104
 O552 O 0.02975 0.44066 0.45107
 Zr553 Zr 0.01654 0.45958 0.48812
 O554 O -0.00831 0.48363 0.46272
 Zr555 Zr 0.04803 0.51431 0.51059
 O556 O 0.02476 0.54061 0.48617
 Zr557 Zr -0.00620 0.49067 0.54479
 O558 O -0.03205 0.51596 0.52185
 Zr559 Zr 0.01175 0.51983 0.45140
 O560 O 0.03800 0.49440 0.47398
 Zr561 Zr -0.04281 0.49651 0.48516
 O562 O -0.01946 0.46969 0.50986
 Zr563 Zr -0.01080 0.55083 0.50824
 O564 O 0.01405 0.52704 0.53407
 O565 O 0.02879 0.47865 0.52376
 O566 O -0.02342 0.53219 0.47232
 C567 C 0.00516 0.42822 0.54398
 C568 C 0.07836 0.45987 0.49838
 C569 C 0.04829 0.50160 0.57368
 C570 C -0.00325 0.58121 0.45135
 C571 C -0.04272 0.51199 0.42215
 C572 C -0.07202 0.55215 0.49632
 H573 H -0.01290 0.47313 0.44615
 H574 H -0.04800 0.52065 0.53356
 H575 H 0.04036 0.46674 0.53520
 H576 H 0.03542 0.55689 0.48062
 H577 H 0.06158 0.52323 0.43493
 H578 H 0.07859 0.53993 0.47468
 H579 H -0.08038 0.49127 0.52339
 H580 H -0.05088 0.46490 0.55306
 H581 H 0.02411 0.50791 0.40008
 H582 H 0.04257 0.45343 0.44171
 H583 H -0.03742 0.55996 0.55419
 H584 H -0.01188 0.52882 0.58073
 H585 H -0.02204 0.42525 0.48233
 H586 H -0.05240 0.45284 0.45745
 H587 H 0.05400 0.55847 0.53841
 H588 H 0.02524 0.58899 0.51139
 O589 O 0.51328 0.92650 0.02461
 O590 O 0.49820 0.92294 -0.02217
 O591 O 0.57746 0.98584 0.01289
 O592 O 0.58113 1.02910 -0.00205
 O593 O 0.51926 0.99313 0.08121
 O594 O 0.47288 1.00945 0.08322
 O595 O 0.50453 1.05717 -0.05760
 O596 O 0.54689 1.03562 -0.06081
 O597 O 0.44641 0.99574 -0.05442
 O598 O 0.44021 0.95355 -0.02437
 O599 O 0.44348 1.05806 0.00552
 O600 O 0.46985 1.06663 0.04805
 O601 O 0.48585 1.07788 -0.01980
 O602 O 0.50108 1.08366 0.02731
 O603 O 0.42547 1.01967 -0.01203
 O604 O 0.42205 0.97372 0.00691
 O605 O 0.48343 1.01534 -0.07475
 O606 O 0.52751 0.99416 -0.07722
 O607 O 0.49554 0.94779 0.06246
 O608 O 0.45588 0.97320 0.07004
 O609 O 0.55633 1.01029 0.05858
 O610 O 0.56096 1.05132 0.03100
 O611 O 0.55782 0.94713 -0.00215
 O612 O 0.53283 0.93764 -0.04126
 Zr613 Zr 0.51708 0.95758 -0.00580
 O614 O 0.49287 0.98006 -0.03302
 Zr615 Zr 0.54532 1.01388 0.01722
 O616 O 0.52166 1.03887 -0.00835
 Zr617 Zr 0.49095 0.98849 0.04950
 O618 O 0.46474 1.01165 0.02466
 Zr619 Zr 0.51158 1.01720 -0.04360
 O620 O 0.53763 0.99311 -0.01951
 Zr621 Zr 0.45692 0.99111 -0.01232
 O622 O 0.48004 0.96626 0.01440
 Zr623 Zr 0.48437 1.04759 0.01147
 O624 O 0.50967 1.02561 0.03869
 O625 O 0.52727 0.97751 0.03018
 O626 O 0.47475 1.02778 -0.02481
 C627 C 0.50389 0.92644 0.04970
 C628 C 0.57849 0.96099 0.00460
 C629 C 0.54353 1.00248 0.08068
 C630 C 0.49433 1.07797 -0.04520
 C631 C 0.45953 1.00568 -0.07561
 C632 C 0.42372 1.04449 -0.00411
 H633 H 0.48974 0.96910 -0.04968
 H634 H 0.44798 1.01555 0.03542
 H635 H 0.53895 0.96622 0.04212
 H636 H 0.53173 1.05565 -0.01346
 H637 H 0.56196 1.02283 -0.05728
 H638 H 0.57579 1.04164 -0.01717
 H639 H 0.41870 0.98318 0.02464
 H640 H 0.44692 0.96139 0.05663
 H641 H 0.52734 1.00581 -0.09419
 H642 H 0.54338 0.95146 -0.05200
 H643 H 0.45421 1.05602 0.05533
 H644 H 0.48207 1.02730 0.08413
 H645 H 0.48044 0.92118 -0.01247
 H646 H 0.45040 0.94733 -0.04102
 H647 H 0.54771 1.05865 0.04470
 H648 H 0.51873 1.08666 0.01776
 O649 O 0.56029 0.44944 0.00610
 O650 O 0.53735 0.44362 0.04920
 O651 O 0.49938 0.44133 -0.05282
 O652 O 0.46204 0.46280 -0.06562
 O653 O 0.55710 0.50950 -0.05884
 O654 O 0.56190 0.55015 -0.03592
 O655 O 0.42361 0.51293 0.01493
 O656 O 0.42482 0.46910 -0.00029
 O657 O 0.48193 0.52010 0.07594
 O658 O 0.52702 0.50897 0.08093
 O659 O 0.48002 0.57784 0.01254
 O660 O 0.49377 0.58086 -0.03421
 O661 O 0.43922 0.55128 -0.00698
 O662 O 0.46678 0.55734 -0.05296
 O663 O 0.50066 0.56274 0.05128
 O664 O 0.54606 0.53857 0.05781
 O665 O 0.44560 0.49850 0.05898
 O666 O 0.44745 0.45203 0.03965
 O667 O 0.57837 0.48761 -0.01414
 O668 O 0.57620 0.53571 0.00189
 O669 O 0.52243 0.48691 -0.07796
 O670 O 0.47339 0.50147 -0.07896
 O671 O 0.51793 0.42501 -0.01335
 O672 O 0.50249 0.42549 0.03504
 Zr673 Zr 0.51965 0.45888 0.01273
 O674 O 0.49408 0.48237 0.03825
 Zr675 Zr 0.49310 0.48306 -0.04510
 O676 O 0.46473 0.50594 -0.02172
 Zr677 Zr 0.54503 0.51448 -0.01762
 O678 O 0.51891 0.54046 0.00485
 Zr679 Zr 0.45783 0.48862 0.01797
 O680 O 0.48264 0.46322 -0.00707
 Zr681 Zr 0.51001 0.52162 0.04314
 O682 O 0.53788 0.49645 0.02153
 Zr683 Zr 0.48121 0.54431 -0.01406
 O684 O 0.50919 0.52213 -0.03919
 O685 O 0.52930 0.47625 -0.02581
 O686 O 0.47271 0.52759 0.02498
 C687 C 0.58007 0.46296 -0.00469
 C688 C 0.50894 0.42187 -0.03782
 C689 C 0.54577 0.49853 -0.07941
 C690 C 0.42013 0.53671 0.00430
 C691 C 0.45801 0.51048 0.07848
 C692 C 0.48895 0.58140 0.03696
 H693 H 0.49105 0.47280 0.05624
 H694 H 0.52776 0.55833 0.00689
 H695 H 0.54136 0.46467 -0.03736
 H696 H 0.44777 0.50722 -0.03200
 H697 H 0.43187 0.45190 -0.00823
 H698 H 0.44660 0.46181 -0.05229
 H699 H 0.54956 0.55578 0.04739
 H700 H 0.58057 0.52521 0.01887
 H701 H 0.42894 0.45418 0.04763
 H702 H 0.48557 0.42081 0.02580
 H703 H 0.51270 0.58399 -0.02919
 H704 H 0.54769 0.55832 -0.04745
 H705 H 0.54910 0.45826 0.05595
 H706 H 0.52445 0.48902 0.08258
 H707 H 0.48389 0.51790 -0.08443
 H708 H 0.45021 0.54692 -0.05653
 O709 O -0.07935 0.02523 0.50831
 O710 O -0.08306 -0.02142 0.49710
 O711 O -0.01600 0.02354 0.56741
 O712 O 0.02757 0.01257 0.56853
 O713 O -0.01655 0.08427 0.50135
 O714 O -0.00384 0.08289 0.45317
 O715 O 0.05083 -0.05108 0.49244
 O716 O 0.03268 -0.05141 0.53751
 O717 O -0.01221 -0.05510 0.43801
 O718 O -0.05411 -0.02999 0.43186
 O719 O 0.04690 0.00600 0.42619
 O720 O 0.05688 0.04871 0.44738
 O721 O 0.06941 -0.01481 0.46916
 O722 O 0.07336 0.03465 0.48219
 O723 O 0.00860 -0.01348 0.41113
 O724 O -0.03917 0.00322 0.41237
 O725 O 0.00901 -0.07149 0.47591
 O726 O -0.00959 -0.06996 0.52318
 O727 O -0.06142 0.06140 0.48442
 O728 O -0.03927 0.06477 0.43963
 O729 O 0.00371 0.06743 0.53964
 O730 O 0.04696 0.04168 0.54195
 O731 O -0.05510 0.00496 0.55317
 O732 O -0.06350 -0.03802 0.53103
 Zr733 Zr -0.04747 -0.00289 0.51081
 O734 O -0.02621 -0.03063 0.48549
 Zr735 Zr 0.00899 0.02560 0.53171
 O736 O 0.03267 -0.00156 0.50799
 Zr737 Zr -0.02119 0.05004 0.47611
 O738 O 0.00166 0.02454 0.44971
 Zr739 Zr 0.01169 -0.03800 0.50217
 O740 O -0.01054 -0.01241 0.52930
 Zr741 Zr -0.01784 -0.01322 0.44618
 O742 O -0.04231 0.01343 0.47038
 Zr743 Zr 0.03857 0.01486 0.46793
 O744 O 0.01717 0.04354 0.49258
 O745 O -0.02855 0.03438 0.51580
 O746 O 0.01964 -0.02243 0.46235
 C747 C -0.08109 0.04902 0.49699
 C748 C -0.04016 0.01486 0.57193
 C749 C -0.00635 0.08712 0.52536
 C750 C 0.07047 -0.03911 0.47947
 C751 C -0.00134 -0.07453 0.45207
 C752 C 0.03287 -0.00475 0.40724
 H753 H -0.03667 -0.04771 0.48443
 H754 H 0.00427 0.03386 0.43156
 H755 H -0.03932 0.04675 0.52782
 H756 H 0.04989 -0.00508 0.51727
 H757 H 0.02114 -0.04682 0.55387
 H758 H 0.03682 -0.00483 0.56434
 H759 H -0.02903 0.01922 0.40505
 H760 H -0.05273 0.05099 0.43452
 H761 H 0.00202 -0.08648 0.52304
 H762 H -0.04969 -0.04458 0.54398
 H763 H 0.04360 0.05644 0.43450
 H764 H 0.01467 0.08516 0.45998
 H765 H -0.08532 -0.01516 0.47770
 H766 H -0.06100 -0.04295 0.44622
 H767 H 0.05148 0.05597 0.52791
 H768 H 0.07965 0.02446 0.49864
 O769 O 0.67715 0.22805 0.26752
 O770 O 0.67721 0.24521 0.22050
 O771 O 0.74050 0.16787 0.26387
 O772 O 0.78420 0.16578 0.25284
 O773 O 0.73621 0.22602 0.32990
 O774 O 0.75069 0.27318 0.33179
 O775 O 0.81345 0.24519 0.19636
 O776 O 0.79416 0.20143 0.19244
 O777 O 0.75241 0.30184 0.19230
 O778 O 0.70662 0.30592 0.21702
 O779 O 0.80494 0.30539 0.25960
 O780 O 0.81236 0.27906 0.30074
 O781 O 0.82936 0.26450 0.23524
 O782 O 0.83015 0.24658 0.28388
 O783 O 0.76801 0.32406 0.23990
 O784 O 0.72096 0.32410 0.25016
 O785 O 0.77353 0.26480 0.17411
 O786 O 0.75410 0.21995 0.17180
 O787 O 0.69407 0.24668 0.30627
 O788 O 0.71573 0.28958 0.31341
 O789 O 0.75764 0.18995 0.31012
 O790 O 0.80217 0.18770 0.28605
 O791 O 0.70314 0.18498 0.24325
 O792 O 0.69627 0.21181 0.20220
 Zr793 Zr 0.71101 0.22734 0.23950
 O794 O 0.73480 0.25358 0.21377
 Zr795 Zr 0.76570 0.20144 0.26867
 O796 O 0.79146 0.22629 0.24413
 Zr797 Zr 0.73464 0.25458 0.29658
 O798 O 0.75897 0.28196 0.27322
 Zr799 Zr 0.77309 0.23634 0.20678
 O800 O 0.74846 0.20858 0.22980
 Zr801 Zr 0.74244 0.29022 0.23415
 O802 O 0.71607 0.26516 0.25904
 Zr803 Zr 0.79645 0.26370 0.26384
 O804 O 0.77317 0.23746 0.29019
 O805 O 0.72780 0.21774 0.27738
 O806 O 0.78039 0.27369 0.22549
 C807 C 0.67477 0.23633 0.29274
 C808 C 0.71711 0.16527 0.25352
 C809 C 0.74616 0.20175 0.33095
 C810 C 0.83228 0.25621 0.21016
 C811 C 0.76430 0.28915 0.17205
 C812 C 0.79127 0.32594 0.25096
 H813 H 0.72568 0.25670 0.19603
 H814 H 0.76077 0.29864 0.28427
 H815 H 0.71622 0.20513 0.28857
 H816 H 0.80882 0.21679 0.24074
 H817 H 0.78180 0.18575 0.19527
 H818 H 0.79658 0.17155 0.23750
 H819 H 0.72582 0.32578 0.26980
 H820 H 0.70265 0.29607 0.29963
 H821 H 0.76723 0.22023 0.15593
 H822 H 0.71103 0.20077 0.19387
 H823 H 0.79856 0.29122 0.30914
 H824 H 0.76821 0.26415 0.33518
 H825 H 0.67479 0.26344 0.22877
 H826 H 0.70300 0.29559 0.20007
 H827 H 0.80628 0.20025 0.30125
 H828 H 0.83644 0.23066 0.27312
 O829 O 0.75488 0.69552 0.69364
 O830 O 0.79509 0.68732 0.71638
 O831 O 0.69604 0.69800 0.75967
 O832 O 0.69109 0.72439 0.80127
 O833 O 0.69445 0.75904 0.69643
 O834 O 0.71997 0.79809 0.68534
 O835 O 0.77253 0.77127 0.82531
 O836 O 0.75207 0.73034 0.83181
 O837 O 0.82970 0.76661 0.76219
 O838 O 0.83168 0.74992 0.71597
 O839 O 0.77258 0.83001 0.75905
 O840 O 0.72715 0.83434 0.74882
 O841 O 0.75249 0.80884 0.80655
 O842 O 0.70859 0.81626 0.78126
 O843 O 0.80849 0.80922 0.73816
 O844 O 0.81294 0.77985 0.69553
 O845 O 0.81235 0.74748 0.80192
 O846 O 0.78732 0.70495 0.80786
 O847 O 0.73918 0.73382 0.67231
 O848 O 0.75370 0.78039 0.66827
 O849 O 0.67560 0.74415 0.73724
 O850 O 0.67672 0.75913 0.78430
 O851 O 0.73274 0.67591 0.74177
 O852 O 0.77992 0.67368 0.75429
 Zr853 Zr 0.76131 0.70730 0.73448
 O854 O 0.78893 0.73095 0.75612
 Zr855 Zr 0.70866 0.73863 0.76339
 O856 O 0.73410 0.76259 0.78731
 Zr857 Zr 0.73581 0.76268 0.70446
 O858 O 0.76138 0.78875 0.72598
 Zr859 Zr 0.77101 0.74261 0.79383
 O860 O 0.74392 0.71673 0.77341
 Zr861 Zr 0.79719 0.76791 0.73503
 O862 O 0.77257 0.74243 0.71124
 Zr863 Zr 0.74447 0.79828 0.76515
 O864 O 0.71705 0.77538 0.74187
 O865 O 0.72519 0.72679 0.72535
 O866 O 0.78111 0.77927 0.77349
 C867 C 0.74731 0.70885 0.67212
 C868 C 0.70839 0.67631 0.75165
 C869 C 0.67392 0.75268 0.71203
 C870 C 0.76350 0.79577 0.82667
 C871 C 0.83197 0.75738 0.78707
 C872 C 0.79623 0.83048 0.74754
 H873 H 0.80544 0.72005 0.75914
 H874 H 0.76468 0.80525 0.71440
 H875 H 0.71292 0.71539 0.71456
 H876 H 0.72472 0.76647 0.80516
 H877 H 0.74240 0.71319 0.82824
 H878 H 0.70259 0.70931 0.80800
 H879 H 0.80346 0.79671 0.68979
 H880 H 0.77135 0.77126 0.66532
 H881 H 0.79535 0.70787 0.82619
 H882 H 0.77110 0.67163 0.77283
 H883 H 0.73190 0.83507 0.72880
 H884 H 0.70879 0.80738 0.69968
 H885 H 0.80409 0.70088 0.70390
 H886 H 0.83364 0.73137 0.72397
 H887 H 0.67477 0.77713 0.77501
 H888 H 0.70401 0.80716 0.79919
 O889 O 0.25470 0.18979 0.81152
 O890 O 0.20986 0.18155 0.79472
 O891 O 0.30320 0.18529 0.73779
 O892 O 0.30491 0.20589 0.69581
 O893 O 0.31417 0.25213 0.79330
 O894 O 0.28888 0.29255 0.80312
 O895 O 0.22241 0.25569 0.67444
 O896 O 0.24025 0.21196 0.67169
 O897 O 0.17093 0.25560 0.74610
 O898 O 0.17675 0.24004 0.79491
 O899 O 0.22674 0.31739 0.73420
 O900 O 0.27535 0.32199 0.74116
 O901 O 0.24188 0.29458 0.68937
 O902 O 0.28790 0.30377 0.70629
 O903 O 0.19359 0.29821 0.76122
 O904 O 0.19427 0.27480 0.80703
 O905 O 0.18383 0.23650 0.70519
 O906 O 0.20596 0.19188 0.70119
 O907 O 0.27458 0.22882 0.82562
 O908 O 0.25862 0.27458 0.82783
 O909 O 0.32704 0.23097 0.75342
 O910 O 0.31974 0.24601 0.70552
 O911 O 0.26985 0.16608 0.76463
 O912 O 0.22275 0.16249 0.75813
 Zr913 Zr 0.24234 0.19823 0.77089
 O914 O 0.21231 0.22010 0.74984
 Zr915 Zr 0.29108 0.22605 0.73194
 O916 O 0.26314 0.24902 0.70921
 Zr917 Zr 0.27183 0.25524 0.79101
 O918 O 0.24306 0.27958 0.77088
 Zr919 Zr 0.22560 0.22928 0.70913
 O920 O 0.25463 0.20443 0.72910
 Zr921 Zr 0.20662 0.25813 0.76849
 O922 O 0.23441 0.23497 0.79164
 Zr923 Zr 0.25540 0.28602 0.72937
 O924 O 0.28583 0.26440 0.75045
 O925 O 0.27938 0.21777 0.77278
 O926 O 0.21813 0.26685 0.72750
 C927 C 0.26651 0.20416 0.82970
 C928 C 0.29250 0.16499 0.75115
 C929 C 0.33218 0.24210 0.77663
 C930 C 0.23014 0.28058 0.67091
 C931 C 0.16597 0.24685 0.72180
 C932 C 0.20388 0.31827 0.74730
 H933 H 0.19552 0.20928 0.74987
 H934 H 0.24072 0.29692 0.78086
 H935 H 0.29300 0.20696 0.78283
 H936 H 0.27040 0.25185 0.69012
 H937 H 0.24982 0.19494 0.67686
 H938 H 0.29257 0.21107 0.68086
 H939 H 0.20578 0.29079 0.81040
 H940 H 0.24096 0.26642 0.83312
 H941 H 0.19591 0.19413 0.68380
 H942 H 0.22682 0.16081 0.73804
 H943 H 0.26842 0.32694 0.75983
 H944 H 0.29847 0.30018 0.78653
 H945 H 0.20464 0.19539 0.80863
 H946 H 0.17067 0.22310 0.78614
 H947 H 0.32371 0.26374 0.71406
 H948 H 0.29168 0.29221 0.69001
 O949 O 0.17952 0.73654 0.30810
 O950 O 0.19915 0.69124 0.30801
 O951 O 0.24940 0.78627 0.31899
 O952 O 0.28933 0.79620 0.29270
 O953 O 0.18936 0.80569 0.25787
 O954 O 0.18252 0.79005 0.21151
 O955 O 0.31306 0.72335 0.23112
 O956 O 0.31629 0.73371 0.27709
 O957 O 0.24735 0.66809 0.22603
 O958 O 0.20166 0.66778 0.24003
 O959 O 0.25311 0.73749 0.17250
 O960 O 0.24207 0.78618 0.17782
 O961 O 0.29615 0.74973 0.19652
 O962 O 0.27619 0.79614 0.19646
 O963 O 0.23025 0.69913 0.18553
 O964 O 0.18539 0.69380 0.21235
 O965 O 0.28697 0.68078 0.24455
 O966 O 0.29052 0.69418 0.29290
 O967 O 0.16318 0.76171 0.27232
 O968 O 0.16131 0.75452 0.22373
 O969 O 0.22802 0.81815 0.27864
 O970 O 0.27444 0.81770 0.26057
 O971 O 0.22547 0.74876 0.33281
 O972 O 0.23510 0.70095 0.32672
 Zr973 Zr 0.21979 0.72729 0.29582
 O974 O 0.24187 0.70316 0.26736
 Zr975 Zr 0.25283 0.78319 0.27558
 O976 O 0.27646 0.76124 0.24673
 Zr977 Zr 0.19631 0.76576 0.24483
 O978 O 0.21748 0.74358 0.21429
 Zr979 Zr 0.28008 0.72035 0.25942
 O980 O 0.25924 0.74307 0.29044
 Zr981 Zr 0.22335 0.70347 0.22867
 O982 O 0.19932 0.72488 0.25820
 Zr983 Zr 0.25651 0.75959 0.20905
 O984 O 0.23404 0.78417 0.23698
 O985 O 0.21452 0.76742 0.28314
 O986 O 0.26194 0.71900 0.22098
 C987 C 0.16054 0.74990 0.29610
 C988 C 0.23800 0.77105 0.33775
 C989 C 0.20396 0.82289 0.27046
 C990 C 0.31519 0.73579 0.20751
 C991 C 0.27167 0.66326 0.23321
 C992 C 0.24229 0.71446 0.16726
 H993 H 0.24348 0.68448 0.27517
 H994 H 0.20738 0.74422 0.19692
 H995 H 0.20418 0.77800 0.29716
 H996 H 0.29440 0.76992 0.24476
 H997 H 0.31193 0.73814 0.29664
 H998 H 0.29670 0.78041 0.30298
 H999 H 0.18216 0.70635 0.19655
 H1000 H 0.15729 0.73542 0.22929
 H1001 H 0.30832 0.68585 0.28835
 H1002 H 0.25411 0.70630 0.32915
 H1003 H 0.22423 0.77944 0.17236
 H1004 H 0.19721 0.80298 0.20652
 H1005 H 0.18535 0.68814 0.29395
 H1006 H 0.20669 0.66280 0.25914
 H1007 H 0.26552 0.82396 0.24349
 H1008 H 0.29150 0.79888 0.20883
 O1009 O 0.16146 0.72763 0.75681
 O1010 O 0.16259 0.74791 0.70935
 O1011 O 0.22572 0.66805 0.74856
 O1012 O 0.27000 0.66696 0.74330
 O1013 O 0.22059 0.72611 0.81942
 O1014 O 0.23336 0.77401 0.82172
 O1015 O 0.29927 0.74691 0.68846
 O1016 O 0.28020 0.70285 0.68386
 O1017 O 0.23572 0.80233 0.68260
 O1018 O 0.18922 0.80482 0.70806
 O1019 O 0.28754 0.80760 0.75087
 O1020 O 0.29247 0.77825 0.79449
 O1021 O 0.31393 0.76626 0.72786
 O1022 O 0.31572 0.75119 0.77367
 O1023 O 0.25138 0.82429 0.72803
 O1024 O 0.20584 0.82566 0.73955
 O1025 O 0.25933 0.76641 0.66529
 O1026 O 0.24131 0.72124 0.66158
 O1027 O 0.17774 0.74551 0.79623
 O1028 O 0.19791 0.78883 0.80387
 O1029 O 0.23976 0.68909 0.79904
 O1030 O 0.28515 0.68801 0.77753
 O1031 O 0.18814 0.68662 0.72994
 O1032 O 0.17954 0.71337 0.69189
 Zr1033 Zr 0.19541 0.72857 0.72878
 O1034 O 0.21975 0.75433 0.70337
 Zr1035 Zr 0.24963 0.70194 0.75836
 O1036 O 0.27593 0.72768 0.73534
 Zr1037 Zr 0.21804 0.75477 0.78651
 O1038 O 0.24207 0.78292 0.76367
 Zr1039 Zr 0.25857 0.73769 0.69751
 O1040 O 0.23314 0.71002 0.71940
 Zr1041 Zr 0.22604 0.79069 0.72430
 O1042 O 0.19965 0.76585 0.74906
 Zr1043 Zr 0.28001 0.76533 0.75518
 O1044 O 0.25672 0.73792 0.78040
 O1045 O 0.21159 0.71801 0.76671
 O1046 O 0.26456 0.77503 0.71653
 C1047 C 0.15882 0.73495 0.78233
 C1048 C 0.20260 0.66613 0.73721
 C1049 C 0.22936 0.70140 0.82009
 C1050 C 0.31770 0.75793 0.70288
 C1051 C 0.24881 0.79014 0.66286
 C1052 C 0.27408 0.82715 0.73968
 H1053 H 0.21095 0.75734 0.68543
 H1054 H 0.24338 0.79976 0.77458
 H1055 H 0.20003 0.70478 0.77713
 H1056 H 0.29355 0.71849 0.73252
 H1057 H 0.26784 0.68712 0.68634
 H1058 H 0.28277 0.67312 0.72846
 H1059 H 0.20795 0.82553 0.75986
 H1060 H 0.18515 0.79551 0.78986
 H1061 H 0.25502 0.72194 0.64623
 H1062 H 0.19517 0.70660 0.68079
 H1063 H 0.28143 0.79432 0.79968
 H1064 H 0.25074 0.76500 0.82576
 H1065 H 0.15748 0.76383 0.72075
 H1066 H 0.18680 0.79595 0.69002
 H1067 H 0.28847 0.70038 0.79312
 H1068 H 0.31744 0.73158 0.76947
 O1069 O 0.26102 0.19484 0.20829
 O1070 O 0.30463 0.19260 0.22632
 O1071 O 0.21126 0.18108 0.28161
 O1072 O 0.20060 0.20130 0.32073
 O1073 O 0.19178 0.24764 0.22300
 O1074 O 0.21031 0.29044 0.21317
 O1075 O 0.27814 0.26084 0.34570
 O1076 O 0.26565 0.21574 0.34873
 O1077 O 0.33000 0.27100 0.27723
 O1078 O 0.33016 0.26031 0.22994
 O1079 O 0.26317 0.32318 0.28801
 O1080 O 0.21703 0.32162 0.28046
 O1081 O 0.25015 0.29524 0.33249
 O1082 O 0.20344 0.29691 0.31102
 O1083 O 0.29933 0.31200 0.26055
 O1084 O 0.30470 0.28797 0.21456
 O1085 O 0.31931 0.24626 0.31615
 O1086 O 0.30250 0.20009 0.31966
 O1087 O 0.23670 0.23104 0.19259
 O1088 O 0.24507 0.27985 0.19211
 O1089 O 0.18038 0.22309 0.26184
 O1090 O 0.18350 0.23845 0.31103
 O1091 O 0.24721 0.16825 0.25465
 O1092 O 0.29506 0.17280 0.26367
 Zr1093 Zr 0.26968 0.20438 0.24921
 O1094 O 0.29478 0.23036 0.27113
 Zr1095 Zr 0.21541 0.22323 0.28559
 O1096 O 0.23853 0.24871 0.31020
 Zr1097 Zr 0.23284 0.25664 0.22748
 O1098 O 0.25548 0.28470 0.24986
 Zr1099 Zr 0.27874 0.23523 0.31133
 O1100 O 0.25457 0.20715 0.29026
 Zr1101 Zr 0.29496 0.26984 0.25360
 O1102 O 0.27293 0.24269 0.22901
 Zr1103 Zr 0.24070 0.28724 0.29104
 O1104 O 0.21549 0.26240 0.26735
 O1105 O 0.23012 0.21787 0.24531
 O1106 O 0.28071 0.27460 0.29429
 C1107 C 0.24856 0.20787 0.18926
 C1108 C 0.22538 0.16313 0.26866
 C1109 C 0.17468 0.23471 0.23869
 C1110 C 0.26495 0.28297 0.35030
 C1111 C 0.33597 0.25982 0.30052
 C1112 C 0.28494 0.32917 0.27445
 H1113 H 0.31305 0.22222 0.27141
 H1114 H 0.25496 0.30257 0.24016
 H1115 H 0.21891 0.20525 0.23468
 H1116 H 0.23024 0.24930 0.32905
 H1117 H 0.25865 0.19765 0.34363
 H1118 H 0.21455 0.20264 0.33488
 H1119 H 0.29188 0.30315 0.21150
 H1120 H 0.26318 0.27313 0.18635
 H1121 H 0.31147 0.20264 0.33756
 H1122 H 0.28833 0.16768 0.28251
 H1123 H 0.22015 0.32531 0.26044
 H1124 H 0.19987 0.29727 0.22941
 H1125 H 0.30919 0.20804 0.21362
 H1126 H 0.33489 0.24114 0.23427
 H1127 H 0.17534 0.25397 0.30089
 H1128 H 0.20218 0.28627 0.32857
 O1129 O 0.66628 0.75648 0.22276
 O1130 O 0.66773 0.74984 0.27223
 O1131 O 0.72854 0.82053 0.21373
 O1132 O 0.77273 0.82334 0.22247
 O1133 O 0.72649 0.75359 0.15596
 O1134 O 0.74125 0.70658 0.15961
 O1135 O 0.80382 0.75454 0.28515
 O1136 O 0.78203 0.79666 0.28622
 O1137 O 0.74305 0.69563 0.29975
 O1138 O 0.69550 0.69098 0.28047
 O1139 O 0.79437 0.68332 0.23587
 O1140 O 0.80000 0.70412 0.18726
 O1141 O 0.81854 0.72751 0.24976
 O1142 O 0.82083 0.73625 0.20075
 O1143 O 0.75619 0.66876 0.25840
 O1144 O 0.70905 0.66796 0.24855
 O1145 O 0.76460 0.73407 0.31266
 O1146 O 0.74327 0.77939 0.31129
 O1147 O 0.68315 0.73389 0.18530
 O1148 O 0.70671 0.69255 0.18014
 O1149 O 0.74603 0.79281 0.16984
 O1150 O 0.79032 0.79792 0.19021
 O1151 O 0.69047 0.80411 0.23522
 O1152 O 0.68541 0.78673 0.28090
 Zr1153 Zr 0.70033 0.76400 0.24690
 O1154 O 0.72416 0.74182 0.27491
 Zr1155 Zr 0.75432 0.78624 0.21171
 O1156 O 0.78039 0.76423 0.23760
 Zr1157 Zr 0.72438 0.72942 0.19266
 O1158 O 0.74837 0.70494 0.21844
 Zr1159 Zr 0.76252 0.75959 0.27726
 O1160 O 0.73742 0.78408 0.25210
 Zr1161 Zr 0.73130 0.70301 0.25876
 O1162 O 0.70534 0.72418 0.23200
 Zr1163 Zr 0.78569 0.72407 0.22340
 O1164 O 0.76259 0.74744 0.19515
 O1165 O 0.71673 0.76848 0.20703
 O1166 O 0.76932 0.72003 0.26325
 C1167 C 0.66350 0.74397 0.19973
 C1168 C 0.70418 0.82326 0.22315
 C1169 C 0.73557 0.77786 0.15138
 C1170 C 0.82211 0.74064 0.27221
 C1171 C 0.75605 0.70969 0.31726
 C1172 C 0.78017 0.66494 0.24883
 H1173 H 0.71513 0.74099 0.29341
 H1174 H 0.75032 0.68669 0.21017
 H1175 H 0.70465 0.77891 0.19474
 H1176 H 0.79771 0.77406 0.23831
 H1177 H 0.76925 0.81154 0.28166
 H1178 H 0.78569 0.81909 0.23714
 H1179 H 0.71606 0.66161 0.23037
 H1180 H 0.69526 0.68602 0.19596
 H1181 H 0.75629 0.78027 0.32650
 H1182 H 0.70066 0.79786 0.28714
 H1183 H 0.78899 0.68755 0.18503
 H1184 H 0.75910 0.71467 0.15500
 H1185 H 0.66484 0.73055 0.26733
 H1186 H 0.69427 0.70107 0.29806
 H1187 H 0.79487 0.78313 0.17712
 H1188 H 0.82386 0.75573 0.20466
 O1189 O 0.69254 0.24265 0.81063
 O1190 O 0.71427 0.19893 0.81206
 O1191 O 0.75951 0.29695 0.81883
 O1192 O 0.80065 0.30493 0.79094
 O1193 O 0.69907 0.31195 0.75752
 O1194 O 0.69147 0.29388 0.71264
 O1195 O 0.82469 0.23180 0.73105
 O1196 O 0.82900 0.24413 0.77560
 O1197 O 0.76087 0.17473 0.72867
 O1198 O 0.71525 0.17334 0.74560
 O1199 O 0.76240 0.24158 0.67342
 O1200 O 0.75010 0.29092 0.67794
 O1201 O 0.80637 0.25649 0.69603
 O1202 O 0.78527 0.30153 0.69377
 O1203 O 0.73951 0.20386 0.68847
 O1204 O 0.69725 0.19723 0.71751
 O1205 O 0.79983 0.18876 0.74756
 O1206 O 0.80443 0.20548 0.79498
 O1207 O 0.67461 0.26706 0.77521
 O1208 O 0.67164 0.25837 0.72692
 O1209 O 0.73818 0.32676 0.77576
 O1210 O 0.78411 0.32670 0.75964
 O1211 O 0.73766 0.25857 0.83388
 O1212 O 0.75032 0.21113 0.82927
 Zr1213 Zr 0.73292 0.23543 0.79789
 O1214 O 0.75498 0.21094 0.76978
 Zr1215 Zr 0.76352 0.29182 0.77523
 O1216 O 0.78698 0.26944 0.74628
 Zr1217 Zr 0.70691 0.27145 0.74645
 O1218 O 0.72797 0.24866 0.71620
 Zr1219 Zr 0.79238 0.22911 0.76023
 O1220 O 0.77165 0.25236 0.79105
 Zr1221 Zr 0.73540 0.20919 0.73173
 O1222 O 0.71155 0.23110 0.76105
 Zr1223 Zr 0.76648 0.26545 0.70907
 O1224 O 0.74409 0.29045 0.73691
 O1225 O 0.72586 0.27507 0.78416
 O1226 O 0.77343 0.22551 0.72233
 C1227 C 0.67280 0.25503 0.79899
 C1228 C 0.74872 0.28178 0.83811
 C1229 C 0.71378 0.33048 0.76795
 C1230 C 0.82611 0.24355 0.70705
 C1231 C 0.78518 0.17053 0.73639
 C1232 C 0.75091 0.21857 0.66930
 H1233 H 0.75744 0.19264 0.77823
 H1234 H 0.71731 0.24844 0.69920
 H1235 H 0.71526 0.28595 0.79774
 H1236 H 0.80460 0.27857 0.74342
 H1237 H 0.82498 0.25057 0.79459
 H1238 H 0.80639 0.29092 0.80452
 H1239 H 0.69208 0.21017 0.70266
 H1240 H 0.66813 0.23948 0.73354
 H1241 H 0.82212 0.19699 0.79030
 H1242 H 0.76876 0.21821 0.83176
 H1243 H 0.73297 0.28267 0.67223
 H1244 H 0.70585 0.30665 0.70631
 H1245 H 0.70097 0.19410 0.79802
 H1246 H 0.72265 0.16806 0.76373
 H1247 H 0.77659 0.33085 0.74126
 H1248 H 0.79992 0.30604 0.70642
 C1249 C 0.12534 0.97812 1.16615
 C1250 C 0.11295 0.99305 1.18781
 C1251 C 0.09075 1.00982 1.18170
 C1252 C 0.08052 1.01082 1.15491
 C1253 C 0.09275 0.99513 1.13365
 C1254 C 0.11511 0.97883 1.13952
 C1255 C 0.08261 0.99622 1.10681
 C1256 C 0.06017 1.01265 1.10097
 C1257 C 0.04833 1.02839 1.12225
 C1258 C 0.05845 1.02754 1.14893
 H1259 H 0.08187 1.02273 1.19753
 H1260 H 0.12505 0.96703 1.12338
 H1261 H 0.09188 0.98392 1.09066
 H1262 H 0.04890 1.03984 1.16491
 H1263 H 0.14350 0.96638 1.16944
 H1264 H 0.03108 1.04136 1.11834
 C1265 C 0.57688 0.51503 0.69316
 C1266 C 0.60232 0.50210 0.69264
 C1267 C 0.61406 0.49507 0.66681
 C1268 C 0.60017 0.49980 0.64224
 C1269 C 0.57427 0.51189 0.64335
 C1270 C 0.56285 0.51946 0.66889
 C1271 C 0.56024 0.51639 0.61890
 C1272 C 0.57167 0.50892 0.59315
 C1273 C 0.59771 0.49739 0.59221
 C1274 C 0.61182 0.49289 0.61652
 H1275 H 0.63424 0.48661 0.66561
 H1276 H 0.54322 0.52922 0.67007
 H1277 H 0.54024 0.52536 0.62005
 H1278 H 0.63174 0.48376 0.61522
 H1279 H 0.56793 0.52230 0.71238
 H1280 H 0.60707 0.49139 0.57270
 C1281 C 0.43509 -0.01578 0.70645
 C1282 C 0.40665 -0.01612 0.70696
 C1283 C 0.39327 -0.01746 0.68166
 C1284 C 0.40763 -0.01832 0.65648
 C1285 C 0.43608 -0.01805 0.65618
 C1286 C 0.44963 -0.01694 0.68126
 C1287 C 0.45042 -0.01819 0.63077
 C1288 C 0.43653 -0.01803 0.60575
 C1289 C 0.40821 -0.01862 0.60639
 C1290 C 0.39387 -0.01892 0.63156
 H1291 H 0.37140 -0.01733 0.68164
 H1292 H 0.47147 -0.01651 0.68138
 H1293 H 0.47227 -0.01753 0.63049
 H1294 H 0.37202 -0.01919 0.63153
 H1295 H 0.44644 -0.01417 0.72510
 H1296 H 0.39708 -0.01872 0.58738
 C1297 C -0.06611 0.47917 1.20468
 C1298 C -0.09375 0.48579 1.20411
 C1299 C -0.10605 0.48879 1.17832
 C1300 C -0.09127 0.48578 1.15363
 C1301 C -0.06349 0.47962 1.15434
 C1302 C -0.05113 0.47613 1.17995
 C1303 C -0.04851 0.47763 1.12943
 C1304 C -0.06101 0.48207 1.10391
 C1305 C -0.08884 0.48753 1.10358
 C1306 C -0.10385 0.48932 1.12823
 H1307 H -0.12733 0.49386 1.17758
 H1308 H -0.02983 0.47133 1.18086
 H1309 H -0.02706 0.47343 1.13000
 H1310 H -0.12521 0.49392 1.12744
 H1311 H -0.05575 0.47652 1.22389
 H1312 H -0.09903 0.49084 1.08424
 C1313 C -0.12230 0.48000 0.33069
 C1314 C -0.10874 0.49393 0.30892
 C1315 C -0.08671 0.51054 0.31466
 C1316 C -0.07756 0.51253 0.34171
 C1317 C -0.09043 0.49758 0.36354
 C1318 C -0.11307 0.48163 0.35784
 C1319 C -0.07994 0.49833 0.39038
 C1320 C -0.05665 0.51371 0.39537
 C1321 C -0.04502 0.52947 0.37358
 C1322 C -0.05532 0.52886 0.34708
 H1323 H -0.07660 0.52182 0.29794
 H1324 H -0.12339 0.47016 0.37426
 H1325 H -0.08917 0.48617 0.40696
 H1326 H -0.04548 0.54070 0.33063
 H1327 H -0.13954 0.46733 0.32654
 H1328 H -0.02737 0.54187 0.37681
 C1329 C 0.37530 0.98378 -0.16606
 C1330 C 0.39216 0.99063 -0.18915
 C1331 C 0.41832 1.00012 -0.18423
 C1332 C 0.42761 1.00241 -0.15731
 C1333 C 0.41094 0.99471 -0.13438
 C1334 C 0.38471 0.98554 -0.13901
 C1335 C 0.42096 0.99617 -0.10739
 C1336 C 0.44736 1.00556 -0.10333
 C1337 C 0.46321 1.01400 -0.12654
 C1338 C 0.45351 1.01234 -0.15316
 H1339 H 0.43144 1.00685 -0.20125
 H1340 H 0.37153 0.97956 -0.12174
 H1341 H 0.40841 0.98979 -0.08976
 H1342 H 0.46643 1.01858 -0.17055
 H1343 H 0.35520 0.97590 -0.16862
 H1344 H 0.48355 1.02147 -0.12432
 C1345 C 0.57975 0.47005 -0.20053
 C1346 C 0.60085 0.48910 -0.20351
 C1347 C 0.60743 0.50508 -0.18084
 C1348 C 0.59242 0.50292 -0.15586
 C1349 C 0.57074 0.48426 -0.15322
 C1350 C 0.56487 0.46762 -0.17562
 C1351 C 0.55522 0.48280 -0.12838
 C1352 C 0.56130 0.49969 -0.10611
 C1353 C 0.58309 0.51799 -0.10910
 C1354 C 0.59843 0.51960 -0.13364
 H1355 H 0.62345 0.52001 -0.18301
 H1356 H 0.54853 0.45302 -0.17402
 H1357 H 0.53863 0.46851 -0.12636
 H1358 H 0.61491 0.53404 -0.13529
 H1359 H 0.57458 0.45716 -0.21762
 H1360 H 0.58828 0.53140 -0.09243
 C1361 C 0.12009 0.01634 0.31543
 C1362 C 0.10707 0.00401 0.29333
 C1363 C 0.08153 -0.00796 0.29847
 C1364 C 0.06940 -0.00756 0.32517
 C1365 C 0.08289 0.00497 0.34699
 C1366 C 0.10814 0.01691 0.34188
 C1367 C 0.07100 0.00540 0.37364
 C1368 C 0.04554 -0.00645 0.37906
 C1369 C 0.03227 -0.01900 0.35722
 C1370 C 0.04411 -0.01959 0.33055
 H1371 H 0.07134 -0.01820 0.28202
 H1372 H 0.11877 0.02661 0.35840
 H1373 H 0.08158 0.01525 0.39011
 H1374 H 0.03344 -0.02937 0.31411
 H1375 H 0.13963 0.02567 0.31252
 H1376 H 0.01266 -0.02827 0.36071
 C1377 C 0.20683 1.06976 1.01121
 C1378 C 0.20687 1.09810 1.00590
 C1379 C 0.18228 1.11109 0.99999
 C1380 C 0.15839 1.09622 0.99846
 C1381 C 0.15863 1.06782 1.00356
 C1382 C 0.18293 1.05479 1.00996
 C1383 C 0.13451 1.05303 1.00245
 C1384 C 0.11020 1.06633 0.99608
 C1385 C 0.11039 1.09460 0.99074
 C1386 C 0.13424 1.10941 0.99202
 H1387 H 0.18178 1.13299 0.99659
 H1388 H 0.18344 1.03303 1.01420
 H1389 H 0.13471 1.03123 1.00654
 H1390 H 0.13377 1.13122 0.98804
 H1391 H 0.22489 1.05896 1.01688
 H1392 H 0.09198 1.10541 0.98593
 C1393 C 0.70372 0.57283 0.50187
 C1394 C 0.70469 0.59972 0.49122
 C1395 C 0.68055 0.61220 0.48291
 C1396 C 0.65632 0.59770 0.48364
 C1397 C 0.65588 0.57046 0.49348
 C1398 C 0.67963 0.55823 0.50263
 C1399 C 0.63157 0.55607 0.49460
 C1400 C 0.60755 0.56861 0.48614
 C1401 C 0.60826 0.59572 0.47625
 C1402 C 0.63245 0.61014 0.47501
 H1403 H 0.68041 0.63339 0.47629
 H1404 H 0.67951 0.53752 0.51078
 H1405 H 0.63137 0.53523 0.50240
 H1406 H 0.63247 0.63105 0.46744
 H1407 H 0.72143 0.56310 0.51014
 H1408 H 0.59008 0.60590 0.46961
 C1409 C 0.70356 0.44381 -0.00558
 C1410 C 0.70299 0.41503 -0.00782
 C1411 C 0.67758 0.40235 -0.00942
 C1412 C 0.65381 0.41765 -0.00967
 C1413 C 0.65481 0.44638 -0.00810
 C1414 C 0.67982 0.45924 -0.00623
 C1415 C 0.63072 0.46155 -0.00735
 C1416 C 0.60579 0.44807 -0.00744
 C1417 C 0.60519 0.41949 -0.00946
 C1418 C 0.62895 0.40444 -0.01069
 H1419 H 0.67619 0.38028 -0.00957
 H1420 H 0.68099 0.48121 -0.00442
 H1421 H 0.63132 0.48357 -0.00570
 H1422 H 0.62786 0.38243 -0.01198
 H1423 H 0.72213 0.45467 -0.00239
 H1424 H 0.58621 0.40866 -0.01002
 C1425 C 0.19400 -0.05486 0.47097
 C1426 C 0.19426 -0.08300 0.47740
 C1427 C 0.16954 -0.09694 0.47974
 C1428 C 0.14509 -0.08306 0.47739
 C1429 C 0.14503 -0.05470 0.47194
 C1430 C 0.16958 -0.04091 0.46819
 C1431 C 0.12047 -0.04051 0.47135
 C1432 C 0.09607 -0.05431 0.47681
 C1433 C 0.09638 -0.08270 0.48131
 C1434 C 0.12069 -0.09698 0.48144
 H1435 H 0.16941 -0.11862 0.48454
 H1436 H 0.16989 -0.01917 0.46382
 H1437 H 0.12047 -0.01862 0.46787
 H1438 H 0.12043 -0.11878 0.48548
 H1439 H 0.21228 -0.04316 0.46857
 H1440 H 0.07782 -0.09387 0.48519
 C1441 C 0.29750 -0.06322 0.50568
 C1442 C 0.29556 -0.08892 0.49331
 C1443 C 0.31932 -0.10333 0.48640
 C1444 C 0.34472 -0.09165 0.49086
 C1445 C 0.34621 -0.06558 0.50283
 C1446 C 0.32253 -0.05169 0.51040
 C1447 C 0.37131 -0.05349 0.50669
 C1448 C 0.39532 -0.06675 0.49840
 C1449 C 0.39376 -0.09288 0.48687
 C1450 C 0.36868 -0.10527 0.48323
 H1451 H 0.31807 -0.12323 0.47705
 H1452 H 0.32335 -0.03178 0.51981
 H1453 H 0.37200 -0.03335 0.51564
 H1454 H 0.36801 -0.12529 0.47406
 H1455 H 0.27957 -0.05205 0.51203
 H1456 H 0.41189 -0.10362 0.48030
 C1457 C -0.19487 0.43522 0.99598
 C1458 C -0.19766 0.40651 0.99513
 C1459 C -0.17378 0.39053 0.99536
 C1460 C -0.14817 0.40307 0.99594
 C1461 C -0.14639 0.43176 0.99683
 C1462 C -0.16977 0.44754 0.99680
 C1463 C -0.12127 0.44448 0.99795
 C1464 C -0.09735 0.42913 0.99796
 C1465 C -0.09900 0.40053 0.99651
 C1466 C -0.12422 0.38760 0.99565
 H1467 H -0.17468 0.36855 0.99450
 H1468 H -0.16870 0.46959 0.99774
 H1469 H -0.12041 0.46656 0.99869
 H1470 H -0.12498 0.36555 0.99485
 H1471 H -0.21207 0.44876 0.99726
 H1472 H -0.08086 0.38818 0.99648
 C1473 C -0.18938 0.58158 0.46689
 C1474 C -0.19317 0.60296 0.48580
 C1475 C -0.17134 0.61137 0.50149
 C1476 C -0.14643 0.59762 0.49937
 C1477 C -0.14331 0.57537 0.48119
 C1478 C -0.16475 0.56788 0.46467
 C1479 C -0.11895 0.56071 0.48008
 C1480 C -0.09744 0.56810 0.49674
 C1481 C -0.10048 0.59075 0.51417
 C1482 C -0.12476 0.60529 0.51557
 H1483 H -0.17402 0.62781 0.51610
 H1484 H -0.16262 0.55116 0.45033
 H1485 H -0.11678 0.54351 0.46630
 H1486 H -0.12669 0.62232 0.52955
 H1487 H -0.20561 0.57521 0.45392
 H1488 H -0.08422 0.59692 0.52723
 C1489 C 0.32880 1.12270 0.02635
 C1490 C 0.30940 1.11006 0.01023
 C1491 C 0.31730 1.08839 -0.00692
 C1492 C 0.34394 1.07879 -0.00730
 C1493 C 0.36327 1.09109 0.00950
 C1494 C 0.35552 1.11326 0.02605
 C1495 C 0.38975 1.08060 0.00984
 C1496 C 0.39688 1.05771 -0.00613
 C1497 C 0.37751 1.04625 -0.02326
 C1498 C 0.35138 1.05672 -0.02391
 H1499 H 0.30269 1.07893 -0.02003
 H1500 H 0.37001 1.12304 0.03904
 H1501 H 0.40444 1.08962 0.02316
 H1502 H 0.33685 1.04719 -0.03705
 H1503 H 0.32316 1.13945 0.03972
 H1504 H 0.38245 1.02885 -0.03603
 C1505 C 0.00888 1.16823 1.12858
 C1506 C 0.01233 1.19235 1.11265
 C1507 C 0.01499 1.19031 1.08360
 C1508 C 0.01396 1.16473 1.07090
 C1509 C 0.01016 1.14088 1.08730
 C1510 C 0.00777 1.14285 1.11610
 C1511 C 0.00887 1.11539 1.07469
 C1512 C 0.01158 1.11322 1.04576
 C1513 C 0.01554 1.13704 1.02958
 C1514 C 0.01662 1.16256 1.04202
 H1515 H 0.01772 1.20821 1.07061
 H1516 H 0.00494 1.12477 1.12901
 H1517 H 0.00608 1.09721 1.08748
 H1518 H 0.01958 1.18058 1.02906
 H1519 H 0.00679 1.16913 1.15095
 H1520 H 0.01770 1.13597 1.00724
 C1521 C 0.49804 0.67166 0.62971
 C1522 C 0.50327 0.69544 0.61372
 C1523 C 0.51018 0.69264 0.58540
 C1524 C 0.51125 0.66672 0.57334
 C1525 C 0.50545 0.64320 0.58966
 C1526 C 0.49899 0.64591 0.61785
 C1527 C 0.50611 0.61736 0.57754
 C1528 C 0.51249 0.61459 0.54917
 C1529 C 0.51858 0.63815 0.53320
 C1530 C 0.51797 0.66392 0.54515
 H1531 H 0.51494 0.71022 0.57252
 H1532 H 0.49464 0.62812 0.63076
 H1533 H 0.50142 0.59946 0.59019
 H1534 H 0.52257 0.68167 0.53229
 H1535 H 0.49310 0.67309 0.65164
 H1536 H 0.52361 0.63676 0.51129
 C1537 C -0.02262 0.70496 0.43334
 C1538 C -0.01894 0.70526 0.40433
 C1539 C -0.01405 0.68042 0.39074
 C1540 C -0.01182 0.65600 0.40559
 C1541 C -0.01506 0.65594 0.43470
 C1542 C -0.02075 0.68045 0.44837
 C1543 C -0.01232 0.63142 0.44958
 C1544 C -0.00614 0.60703 0.43567
 C1545 C -0.00308 0.60743 0.40665
 C1546 C -0.00597 0.63171 0.39173
 H1547 H -0.01135 0.68030 0.36836
 H1548 H -0.02344 0.68071 0.47072
 H1549 H -0.01475 0.63143 0.47196
 H1550 H -0.00347 0.63153 0.36936
 H1551 H -0.02676 0.72336 0.44470
 H1552 H 0.00144 0.58894 0.39540
 C1553 C 0.48416 1.20275 -0.06337
 C1554 C 0.48855 1.20305 -0.09234
 C1555 C 0.49146 1.17798 -0.10604
 C1556 C 0.49118 1.15329 -0.09125
 C1557 C 0.48730 1.15330 -0.06219
 C1558 C 0.48349 1.17809 -0.04850
 C1559 C 0.48775 1.12857 -0.04730
 C1560 C 0.49248 1.10384 -0.06108
 C1561 C 0.49602 1.10410 -0.09008
 C1562 C 0.49525 1.12861 -0.10504
 H1563 H 0.49461 1.17784 -0.12836
 H1564 H 0.48035 1.17843 -0.02620
 H1565 H 0.48506 1.12871 -0.02494
 H1566 H 0.49820 1.12829 -0.12736
 H1567 H 0.48136 1.22125 -0.05183
 H1568 H 0.49947 1.08534 -0.10123
 C1569 C 0.48429 0.32917 -0.11963
 C1570 C 0.49388 0.30739 -0.10338
 C1571 C 0.50580 0.31308 -0.07797
 C1572 C 0.50747 0.33994 -0.06861
 C1573 C 0.49717 0.36161 -0.08481
 C1574 C 0.48578 0.35601 -0.11038
 C1575 C 0.49823 0.38844 -0.07504
 C1576 C 0.50940 0.39389 -0.04917
 C1577 C 0.52009 0.37212 -0.03358
 C1578 C 0.51915 0.34545 -0.04320
 H1579 H 0.51411 0.29667 -0.06555
 H1580 H 0.47789 0.37237 -0.12317
 H1581 H 0.48995 0.40493 -0.08738
 H1582 H 0.52728 0.32908 -0.03060
 H1583 H 0.47525 0.32555 -0.13937
 H1584 H 0.52893 0.37560 -0.01366
 C1585 C -0.03356 -0.16982 0.37630
 C1586 C -0.02023 -0.19066 0.39078
 C1587 C -0.00479 -0.18389 0.41368
 C1588 C -0.00308 -0.15679 0.42231
 C1589 C -0.01699 -0.13599 0.40795
 C1590 C -0.03208 -0.14273 0.38486
 C1591 C -0.01583 -0.10894 0.41716
 C1592 C -0.00103 -0.10249 0.44068
 C1593 C 0.01321 -0.12340 0.45431
 C1594 C 0.01221 -0.15023 0.44521
 H1595 H 0.00615 -0.19970 0.42463
 H1596 H -0.04286 -0.12709 0.37352
 H1597 H -0.02691 -0.09311 0.40640
 H1598 H 0.02315 -0.16590 0.45633
 H1599 H -0.04556 -0.17448 0.35867
 H1600 H 0.02495 -0.11913 0.47233
 C1601 C 0.51653 -0.17766 0.62860
 C1602 C 0.50514 -0.19925 0.61406
 C1603 C 0.49441 -0.19381 0.58786
 C1604 C 0.49498 -0.16733 0.57639
 C1605 C 0.50635 -0.14573 0.59119
 C1606 C 0.51715 -0.15117 0.61729
 C1607 C 0.50665 -0.11913 0.57965
 C1608 C 0.49578 -0.11394 0.55338
 C1609 C 0.48461 -0.13582 0.53898
 C1610 C 0.48418 -0.16213 0.55035
 H1611 H 0.48508 -0.21006 0.57656
 H1612 H 0.52607 -0.13496 0.62897
 H1613 H 0.51536 -0.10260 0.59106
 H1614 H 0.47535 -0.17845 0.53872
 H1615 H 0.52528 -0.18127 0.64863
 H1616 H 0.47598 -0.13265 0.51881
 C1617 C 0.02350 0.31979 1.13107
 C1618 C 0.01444 0.29755 1.11572
 C1619 C 0.00391 0.30270 1.08936
 C1620 C 0.00292 0.32930 1.07835
 C1621 C 0.01246 0.35139 1.09378
 C1622 C 0.02266 0.34638 1.12017
 C1623 C 0.01161 0.37803 1.08253
 C1624 C 0.00137 0.38278 1.05595
 C1625 C -0.00831 0.36049 1.04105
 C1626 C -0.00757 0.33411 1.05212
 H1627 H -0.00410 0.28614 1.07749
 H1628 H 0.02997 0.36302 1.13243
 H1629 H 0.01913 0.39491 1.09432
 H1630 H -0.01509 0.31742 1.04005
 H1631 H 0.03142 0.31684 1.15150
 H1632 H -0.01647 0.36334 1.02061
 C1633 C 0.74456 0.37536 0.07917
 C1634 C 0.75570 0.36089 0.05633
 C1635 C 0.76971 0.33640 0.06209
 C1636 C 0.77010 0.32560 0.08952
 C1637 C 0.75735 0.33986 0.11159
 C1638 C 0.74534 0.36504 0.10618
 C1639 C 0.75621 0.32851 0.13863
 C1640 C 0.76741 0.30270 0.14412
 C1641 C 0.78080 0.28904 0.12211
 C1642 C 0.78215 0.30033 0.09525
 H1643 H 0.77862 0.32473 0.04529
 H1644 H 0.73604 0.37666 0.12284
 H1645 H 0.74592 0.33946 0.15517
 H1646 H 0.79216 0.28897 0.07883
 H1647 H 0.73529 0.39518 0.07648
 H1648 H 0.78992 0.26921 0.12546
 C1649 C 0.23415 0.87857 0.57124
 C1650 C 0.24322 0.86282 0.54861
 C1651 C 0.25400 0.83682 0.55369
 C1652 C 0.25427 0.82608 0.58087
 C1653 C 0.24392 0.84161 0.60329
 C1654 C 0.23443 0.86807 0.59825
 C1655 C 0.24270 0.83025 0.63023
 C1656 C 0.25170 0.80345 0.63508
 C1657 C 0.26279 0.78859 0.61266
 C1658 C 0.26401 0.79974 0.58591
 H1659 H 0.26107 0.82451 0.53647
 H1660 H 0.22679 0.88048 0.61514
 H1661 H 0.23431 0.84207 0.64722
 H1662 H 0.27214 0.78755 0.56909
 H1663 H 0.22652 0.89905 0.56806
 H1664 H 0.27006 0.76794 0.61558
 C1665 C 0.76545 0.69003 0.54557
 C1666 C 0.76010 0.66195 0.54635
 C1667 C 0.75502 0.64892 0.57205
 C1668 C 0.75343 0.66385 0.59652
 C1669 C 0.75753 0.69236 0.59563
 C1670 C 0.76418 0.70517 0.57008
 C1671 C 0.75468 0.70739 0.62025
 C1672 C 0.74826 0.69401 0.64562
 C1673 C 0.74460 0.66561 0.64604
 C1674 C 0.74702 0.65070 0.62175
 H1675 H 0.75111 0.62716 0.57280
 H1676 H 0.76761 0.72697 0.56895
 H1677 H 0.75798 0.72923 0.61979
 H1678 H 0.74381 0.62885 0.62270
 H1679 H 0.76917 0.70046 0.52592
 H1680 H 0.73975 0.65486 0.66528
 C1681 C 0.25935 0.19453 0.06139
 C1682 C 0.25475 0.16633 0.06142
 C1683 C 0.25072 0.15236 0.08677
 C1684 C 0.24993 0.16638 0.11177
 C1685 C 0.25350 0.19497 0.11177
 C1686 C 0.25864 0.20882 0.08644
 C1687 C 0.25197 0.20897 0.13709
 C1688 C 0.24760 0.19442 0.16218
 C1689 C 0.24432 0.16601 0.16170
 C1690 C 0.24527 0.15214 0.13675
 H1691 H 0.24759 0.13047 0.08693
 H1692 H 0.26165 0.23070 0.08597
 H1693 H 0.25495 0.23086 0.13741
 H1694 H 0.24251 0.13021 0.13701
 H1695 H 0.26242 0.20560 0.04199
 H1696 H 0.24101 0.15447 0.18079
 C1697 C 0.26739 0.19568 0.95784
 C1698 C 0.26632 0.16714 0.95930
 C1699 C 0.27042 0.15200 0.93508
 C1700 C 0.27275 0.16508 0.90922
 C1701 C 0.27221 0.19387 0.90749
 C1702 C 0.27053 0.20902 0.93204
 C1703 C 0.27181 0.20681 0.88128
 C1704 C 0.27098 0.19117 0.85704
 C1705 C 0.27260 0.16262 0.85917
 C1706 C 0.27376 0.14970 0.88500
 H1707 H 0.26978 0.12990 0.93625
 H1708 H 0.27021 0.23111 0.93117
 H1709 H 0.27051 0.22886 0.87985
 H1710 H 0.27429 0.12761 0.88606
 H1711 H 0.26420 0.20759 0.97638
 H1712 H 0.27240 0.15018 0.84080
 C1713 C 0.76434 0.69768 0.44480
 C1714 C 0.76492 0.66910 0.44536
 C1715 C 0.76837 0.65491 0.42049
 C1716 C 0.76835 0.66884 0.39502
 C1717 C 0.76629 0.69761 0.39429
 C1718 C 0.76537 0.71192 0.41937
 C1719 C 0.76360 0.71127 0.36863
 C1720 C 0.76190 0.69628 0.34405
 C1721 C 0.76490 0.66779 0.34514
 C1722 C 0.76839 0.65422 0.37033
 H1723 H 0.76862 0.63277 0.42097
 H1724 H 0.76384 0.73396 0.41928
 H1725 H 0.76133 0.73327 0.36796
 H1726 H 0.77003 0.63217 0.37059
 H1727 H 0.76139 0.70884 0.46386
 H1728 H 0.76419 0.65589 0.32643
 C1729 C 0.27591 0.84088 0.43520
 C1730 C 0.25227 0.83818 0.45157
 C1731 C 0.23284 0.81889 0.44435
 C1732 C 0.23576 0.80427 0.41965
 C1733 C 0.25861 0.80875 0.40208
 C1734 C 0.27911 0.82622 0.41062
 C1735 C 0.25979 0.79693 0.37568
 C1736 C 0.23850 0.78053 0.36674
 C1737 C 0.21677 0.77482 0.38514
 C1738 C 0.21534 0.78668 0.41132
 H1739 H 0.21441 0.81699 0.45683
 H1740 H 0.29687 0.82974 0.39752
 H1741 H 0.27682 0.80118 0.36177
 H1742 H 0.19777 0.78290 0.42462
 H1743 H 0.29083 0.85601 0.44015
 H1744 H 0.20020 0.76222 0.37878
 C1745 C 0.78343 0.33656 0.94833
 C1746 C 0.75728 0.33832 0.96031
 C1747 C 0.73618 0.32478 0.94706
 C1748 C 0.74021 0.31260 0.92115
 C1749 C 0.76589 0.31343 0.90784
 C1750 C 0.78760 0.32459 0.92213
 C1751 C 0.76902 0.30357 0.88044
 C1752 C 0.74684 0.29216 0.86692
 C1753 C 0.72188 0.29033 0.88123
 C1754 C 0.71852 0.30064 0.90788
 H1755 H 0.71606 0.32481 0.95644
 H1756 H 0.80761 0.32501 0.91260
 H1757 H 0.78849 0.30466 0.86976
 H1758 H 0.69875 0.29967 0.91795
 H1759 H 0.80019 0.34660 0.95776
 H1760 H 0.70462 0.28153 0.87137
 C1761 C 0.80259 0.45235 0.24511
 C1762 C 0.82727 0.45360 0.25857
 C1763 C 0.83778 0.42992 0.27083
 C1764 C 0.82532 0.40468 0.26723
 C1765 C 0.80105 0.40318 0.25258
 C1766 C 0.78926 0.42737 0.24260
 C1767 C 0.78978 0.37750 0.24714
 C1768 C 0.80288 0.35336 0.25568
 C1769 C 0.82688 0.35543 0.27050
 C1770 C 0.83784 0.38075 0.27636
 H1771 H 0.85730 0.43075 0.28044
 H1772 H 0.77070 0.42672 0.23128
 H1773 H 0.77120 0.37634 0.23591
 H1774 H 0.85650 0.38156 0.28751
 H1775 H 0.79467 0.47032 0.23482
 H1776 H 0.83733 0.33739 0.27778
 C1777 C 0.33426 0.92633 0.78626
 C1778 C 0.33137 0.94326 0.76288
 C1779 C 0.31503 0.93498 0.74132
 C1780 C 0.30369 0.90893 0.74174
 C1781 C 0.30813 0.89108 0.76445
 C1782 C 0.32257 0.90036 0.78711
 C1783 C 0.29882 0.86409 0.76358
 C1784 C 0.28486 0.85503 0.74048
 C1785 C 0.27984 0.87327 0.71852
 C1786 C 0.28929 0.89996 0.71907
 H1787 H 0.31309 0.94803 0.72313
 H1788 H 0.32601 0.88706 0.80478
 H1789 H 0.30228 0.85022 0.78083
 H1790 H 0.28571 0.91345 0.70156
 H1791 H 0.34727 0.93230 0.80278
 H1792 H 0.26890 0.86672 0.70066
 C1793 C 0.19705 0.94759 0.26225
 C1794 C 0.16888 0.94855 0.26110
 C1795 C 0.15356 0.92551 0.26821
 C1796 C 0.16630 0.90070 0.27370
 C1797 C 0.19482 0.89909 0.27284
 C1798 C 0.21003 0.92292 0.26827
 C1799 C 0.20743 0.87348 0.27435
 C1800 C 0.19173 0.84970 0.27561
 C1801 C 0.16353 0.85175 0.27847
 C1802 C 0.15091 0.87708 0.27777
 H1803 H 0.13174 0.92651 0.26734
 H1804 H 0.23187 0.92214 0.26772
 H1805 H 0.22920 0.87196 0.27216
 H1806 H 0.12907 0.87807 0.27877
 H1807 H 0.20897 0.96544 0.25677
 H1808 H 0.15114 0.83360 0.28003
 C1809 C 0.69904 0.45414 0.74560
 C1810 C 0.67137 0.45503 0.75225
 C1811 C 0.65868 0.43202 0.76411
 C1812 C 0.67318 0.40771 0.76803
 C1813 C 0.70098 0.40656 0.76067
 C1814 C 0.71384 0.43012 0.75003
 C1815 C 0.71496 0.38155 0.76269
 C1816 C 0.70113 0.35765 0.77096
 C1817 C 0.67374 0.35932 0.77897
 C1818 C 0.65997 0.38415 0.77785
 H1819 H 0.63721 0.43270 0.76897
 H1820 H 0.73508 0.42969 0.74420
 H1821 H 0.73600 0.38032 0.75613
 H1822 H 0.63871 0.38469 0.78360
 H1823 H 0.70898 0.47178 0.73629
 H1824 H 0.66277 0.34115 0.78544
 C1825 C 0.68857 0.55106 0.76035
 C1826 C 0.66070 0.55218 0.75619
 C1827 C 0.64781 0.57767 0.75464
 C1828 C 0.66271 0.60186 0.75542
 C1829 C 0.69102 0.60071 0.75799
 C1830 C 0.70367 0.57519 0.76119
 C1831 C 0.70609 0.62505 0.75668
 C1832 C 0.69303 0.65043 0.75333
 C1833 C 0.66478 0.65116 0.75175
 C1834 C 0.64979 0.62714 0.75262
 H1835 H 0.62624 0.57860 0.75151
 H1836 H 0.72531 0.57385 0.76341
 H1837 H 0.72784 0.62427 0.75829
 H1838 H 0.62809 0.62833 0.75072
 H1839 H 0.69885 0.53155 0.76131
 H1840 H 0.65423 0.67038 0.74920
 C1841 C 0.19811 0.05021 0.22266
 C1842 C 0.17896 0.04303 0.24343
 C1843 C 0.17563 0.05944 0.26673
 C1844 C 0.19005 0.08377 0.26862
 C1845 C 0.20868 0.09143 0.24723
 C1846 C 0.21308 0.07414 0.22466
 C1847 C 0.22145 0.11686 0.24806
 C1848 C 0.21512 0.13498 0.26957
 C1849 C 0.19727 0.12673 0.29117
 C1850 C 0.18500 0.10125 0.29082
 H1851 H 0.16040 0.05440 0.28236
 H1852 H 0.22728 0.07964 0.20809
 H1853 H 0.23509 0.12312 0.23125
 H1854 H 0.17085 0.09562 0.30740
 H1855 H 0.20093 0.03764 0.20453
 H1856 H 0.19236 0.14025 0.30815
 C1857 C 0.31309 0.04090 0.76943
 C1858 C 0.33981 0.04079 0.75913
 C1859 C 0.35211 0.06566 0.75144
 C1860 C 0.33756 0.09007 0.75221
 C1861 C 0.31040 0.09006 0.76173
 C1862 C 0.29847 0.06541 0.77078
 C1863 C 0.29567 0.11462 0.76161
 C1864 C 0.30775 0.13899 0.75168
 C1865 C 0.33490 0.13856 0.74254
 C1866 C 0.34968 0.11438 0.74294
 H1867 H 0.37301 0.06600 0.74430
 H1868 H 0.27768 0.06499 0.77827
 H1869 H 0.27478 0.11464 0.76880
 H1870 H 0.37054 0.11464 0.73564
 H1871 H 0.30324 0.02198 0.77551
 H1872 H 0.34486 0.15699 0.73514
 C1873 C 0.86689 0.57406 0.25346
 C1874 C 0.84906 0.55185 0.25617
 C1875 C 0.82140 0.55673 0.25995
 C1876 C 0.81141 0.58358 0.25887
 C1877 C 0.82939 0.60574 0.25458
 C1878 C 0.85716 0.60077 0.25272
 C1879 C 0.81929 0.63238 0.25148
 C1880 C 0.79140 0.63720 0.25278
 C1881 C 0.77378 0.61510 0.25794
 C1882 C 0.78367 0.58858 0.26089
 H1883 H 0.80761 0.53966 0.26198
 H1884 H 0.87129 0.61744 0.24979
 H1885 H 0.83308 0.64926 0.24788
 H1886 H 0.76957 0.57195 0.26424
 H1887 H 0.88840 0.57066 0.25095
 H1888 H 0.75215 0.61819 0.25913
 C1889 C 0.95719 0.26134 0.20130
 C1890 C 0.95928 0.25503 0.17309
 C1891 C 0.93590 0.25446 0.15734
 C1892 C 0.91044 0.25777 0.16996
 C1893 C 0.90818 0.26253 0.19872
 C1894 C 0.93174 0.26512 0.21407
 C1895 C 0.88247 0.26338 0.21171
 C1896 C 0.85916 0.25892 0.19630
 C1897 C 0.86182 0.25541 0.16749
 C1898 C 0.88720 0.25498 0.15444
 H1899 H 0.93750 0.25007 0.13539
 H1900 H 0.93044 0.26896 0.23612
 H1901 H 0.88073 0.26619 0.23392
 H1902 H 0.88867 0.25152 0.13232
 H1903 H 0.97507 0.26194 0.21367
 H1904 H 0.84426 0.25237 0.15504
 C1905 C 0.44306 0.76603 0.69824
 C1906 C 0.44640 0.75876 0.67036
 C1907 C 0.42352 0.75671 0.65392
 C1908 C 0.39752 0.75961 0.66554
 C1909 C 0.39410 0.76544 0.69399
 C1910 C 0.41706 0.76939 0.70999
 C1911 C 0.36788 0.76610 0.70601
 C1912 C 0.34517 0.76050 0.68996
 C1913 C 0.34905 0.75579 0.66146
 C1914 C 0.37491 0.75548 0.64937
 H1915 H 0.42597 0.75153 0.63222
 H1916 H 0.41489 0.77405 0.73181
 H1917 H 0.36529 0.76982 0.72800
 H1918 H 0.37725 0.75116 0.62748
 H1919 H 0.46045 0.76773 0.71121
 H1920 H 0.33207 0.75179 0.64847
 C1921 C 0.43237 0.28153 0.83874
 C1922 C 0.44888 0.25901 0.83267
 C1923 C 0.44008 0.23946 0.81398
 C1924 C 0.41428 0.24137 0.80286
 C1925 C 0.39708 0.26325 0.81040
 C1926 C 0.40667 0.28372 0.82761
 C1927 C 0.37029 0.26364 0.80155
 C1928 C 0.36066 0.24263 0.78492
 C1929 C 0.37837 0.22171 0.77651
 C1930 C 0.40488 0.22099 0.78553
 H1931 H 0.45265 0.22180 0.80963
 H1932 H 0.39381 0.30068 0.83355
 H1933 H 0.35687 0.28007 0.80782
 H1934 H 0.41784 0.20414 0.77946
 H1935 H 0.43844 0.29629 0.85379
 H1936 H 0.37142 0.20536 0.76364
 C1937 C 0.93030 0.78103 0.31872
 C1938 C 0.93968 0.75526 0.32750
 C1939 C 0.92531 0.73198 0.31941
 C1940 C 0.90059 0.73433 0.30636
 C1941 C 0.88988 0.76040 0.30047
 C1942 C 0.90537 0.78360 0.30579
 C1943 C 0.86387 0.76263 0.28962
 C1944 C 0.84911 0.73898 0.28393
 C1945 C 0.86060 0.71323 0.28859
 C1946 C 0.88604 0.71089 0.29997
 H1947 H 0.93305 0.71172 0.32379
 H1948 H 0.89785 0.80378 0.30069
 H1949 H 0.85522 0.78254 0.28538
 H1950 H 0.89416 0.69075 0.30412
 H1951 H 0.94098 0.79942 0.32347
 H1952 H 0.84956 0.69488 0.28396
 C1953 C 0.03680 0.76795 0.30967
 C1954 C 0.03507 0.76202 0.33815
 C1955 C 0.05897 0.75855 0.35292
 C1956 C 0.08407 0.75789 0.33913
 C1957 C 0.08571 0.76250 0.31023
 C1958 C 0.06204 0.76842 0.29580
 C1959 C 0.11084 0.76024 0.29627
 C1960 C 0.13413 0.75271 0.31081
 C1961 C 0.13210 0.74848 0.33961
 C1962 C 0.10735 0.75131 0.35369
 H1963 H 0.05788 0.75466 0.37510
 H1964 H 0.06294 0.77217 0.27362
 H1965 H 0.11212 0.76361 0.27403
 H1966 H 0.10631 0.74771 0.37589
 H1967 H 0.01865 0.77071 0.29795
 H1968 H 0.14971 0.74312 0.35134
 C1969 C 0.54855 0.26776 0.81503
 C1970 C 0.54698 0.25790 0.84244
 C1971 C 0.57096 0.25209 0.85633
 C1972 C 0.59606 0.25425 0.84260
 C1973 C 0.59753 0.26316 0.81467
 C1974 C 0.57368 0.27041 0.80122
 C1975 C 0.62273 0.26403 0.80061
 C1976 C 0.64636 0.25567 0.81408
 C1977 C 0.64450 0.24741 0.84206
 C1978 C 0.61964 0.24683 0.85621
 H1979 H 0.57009 0.24526 0.87779
 H1980 H 0.57441 0.27743 0.77983
 H1981 H 0.62381 0.27051 0.77905
 H1982 H 0.61878 0.24006 0.87769
 H1983 H 0.53035 0.27245 0.80399
 H1984 H 0.66230 0.24118 0.85306
 C1985 C 0.54844 0.74984 0.70881
 C1986 C 0.54641 0.75551 0.68040
 C1987 C 0.56977 0.76217 0.66469
 C1988 C 0.59521 0.76130 0.67673
 C1989 C 0.59733 0.75452 0.70514
 C1990 C 0.57371 0.74967 0.72120
 C1991 C 0.62302 0.75180 0.71669
 C1992 C 0.64664 0.75556 0.70011
 C1993 C 0.64403 0.76281 0.67198
 C1994 C 0.61863 0.76568 0.66045
 H1995 H 0.56827 0.76594 0.64258
 H1996 H 0.57489 0.74446 0.74302
 H1997 H 0.62457 0.74644 0.73845
 H1998 H 0.61733 0.77086 0.63863
 H1999 H 0.53069 0.74403 0.72103
 H2000 H 0.66169 0.76609 0.65869
 C2001 C 0.07250 0.27215 0.17784
 C2002 C 0.05736 0.24838 0.18270
 C2003 C 0.06750 0.22779 0.20014
 C2004 C 0.09325 0.23012 0.21118
 C2005 C 0.10898 0.25349 0.20490
 C2006 C 0.09810 0.27475 0.18892
 C2007 C 0.13558 0.25482 0.21395
 C2008 C 0.14656 0.23325 0.22954
 C2009 C 0.13040 0.21061 0.23664
 C2010 C 0.10401 0.20896 0.22737
 H2011 H 0.05591 0.20930 0.20379
 H2012 H 0.10985 0.29285 0.18398
 H2013 H 0.14777 0.27260 0.20882
 H2014 H 0.09218 0.19096 0.23247
 H2015 H 0.06544 0.28784 0.16386
 H2016 H 0.13842 0.19388 0.24882
 C2017 C -0.05726 0.99646 0.79277
 C2018 C -0.08544 0.99315 0.79563
 C2019 C -0.09679 0.98856 0.82230
 C2020 C -0.08071 0.98778 0.84560
 C2021 C -0.05254 0.99141 0.84257
 C2022 C -0.04097 0.99529 0.81600
 C2023 C -0.03670 0.99235 0.86624
 C2024 C -0.04900 0.99048 0.89276
 C2025 C -0.07694 0.98605 0.89537
 C2026 C -0.09263 0.98454 0.87201
 H2027 H -0.11849 0.98676 0.82504
 H2028 H -0.01943 0.99836 0.81327
 H2029 H -0.01517 0.99587 0.86409
 H2030 H -0.11421 0.98161 0.87464
 H2031 H -0.04761 1.00100 0.77296
 H2032 H -0.08677 0.98416 0.91563
 C2033 C 0.43204 0.49060 0.29862
 C2034 C 0.40446 0.49759 0.30032
 C2035 C 0.39261 0.50282 0.32656
 C2036 C 0.40796 0.50189 0.35044
 C2037 C 0.43565 0.49536 0.34833
 C2038 C 0.44746 0.48964 0.32239
 C2039 C 0.45113 0.49480 0.37216
 C2040 C 0.43933 0.50097 0.39815
 C2041 C 0.41163 0.50712 0.40004
 C2042 C 0.39607 0.50751 0.37639
 H2043 H 0.37128 0.50764 0.32831
 H2044 H 0.46865 0.48432 0.32047
 H2045 H 0.47246 0.49004 0.37031
 H2046 H 0.37480 0.51246 0.37835
 H2047 H 0.44200 0.48543 0.27928
 H2048 H 0.40198 0.51185 0.41979
 C2049 C 0.61792 -0.02757 0.32838
 C2050 C 0.60729 -0.01067 0.30744
 C2051 C 0.58630 0.00754 0.31450
 C2052 C 0.57568 0.00849 0.34155
 C2053 C 0.58623 -0.00887 0.36221
 C2054 C 0.60730 -0.02683 0.35542
 C2055 C 0.57538 -0.00810 0.38926
 C2056 C 0.55373 0.00942 0.39570
 C2057 C 0.54369 0.02693 0.37509
 C2058 C 0.55470 0.02659 0.34825
 H2059 H 0.57861 0.02147 0.29893
 H2060 H 0.61582 -0.04006 0.37111
 H2061 H 0.58307 -0.02187 0.40496
 H2062 H 0.54650 0.04014 0.33264
 H2063 H 0.63497 -0.04082 0.32440
 H2064 H 0.52702 0.04063 0.37965
 C2065 C 0.07183 0.51531 0.80173
 C2066 C 0.09804 0.50414 0.80052
 C2067 C 0.11139 0.49894 0.82537
 C2068 C 0.09796 0.50213 0.85088
 C2069 C 0.07104 0.51156 0.85169
 C2070 C 0.05838 0.51876 0.82711
 C2071 C 0.05692 0.51293 0.87699
 C2072 C 0.06915 0.50435 0.90152
 C2073 C 0.09638 0.49622 0.90070
 C2074 C 0.11073 0.49522 0.87553
 H2075 H 0.13210 0.49175 0.82481
 H2076 H 0.03796 0.52670 0.82748
 H2077 H 0.03603 0.51955 0.87733
 H2078 H 0.13147 0.48819 0.87526
 H2079 H 0.06150 0.52170 0.78334
 H2080 H 0.10638 0.48977 0.91938
 C2081 C 0.07376 0.47530 0.69564
 C2082 C 0.09755 0.49072 0.69678
 C2083 C 0.10786 0.50364 0.67274
 C2084 C 0.09375 0.50235 0.64802
 C2085 C 0.06931 0.48757 0.64731
 C2086 C 0.05975 0.47372 0.67110
 C2087 C 0.05458 0.48724 0.62298
 C2088 C 0.06396 0.50146 0.59924
 C2089 C 0.08857 0.51565 0.59999
 C2090 C 0.10331 0.51611 0.62418
 H2091 H 0.12617 0.51561 0.67359
 H2092 H 0.04123 0.46207 0.67086
 H2093 H 0.03581 0.47599 0.62259
 H2094 H 0.12200 0.52749 0.62431
 H2095 H 0.06582 0.46465 0.71389
 H2096 H 0.09631 0.52676 0.58195
 C2097 C 0.57192 0.97849 0.20313
 C2098 C 0.59504 0.99509 0.20384
 C2099 C 0.60298 1.00977 0.17987
 C2100 C 0.58807 1.00813 0.15566
 C2101 C 0.56475 0.99162 0.15525
 C2102 C 0.55688 0.97686 0.17914
 C2103 C 0.54987 0.98999 0.13092
 C2104 C 0.55829 1.00442 0.10687
 C2105 C 0.58154 1.02080 0.10767
 C2106 C 0.59620 1.02270 0.13179
 H2107 H 0.62056 1.02273 0.18004
 H2108 H 0.53923 0.96390 0.17922
 H2109 H 0.53209 0.97720 0.13059
 H2110 H 0.61399 1.03548 0.13172
 H2111 H 0.56561 0.96629 0.22098
 H2112 H 0.58845 1.03234 0.08956
 C2113 C 0.37560 0.48666 0.17461
 C2114 C 0.39060 0.49853 0.19558
 C2115 C 0.41417 0.51294 0.18824
 C2116 C 0.42363 0.51400 0.16074
 C2117 C 0.40937 0.50060 0.13995
 C2118 C 0.38506 0.48741 0.14704
 C2119 C 0.41997 0.50024 0.11266
 C2120 C 0.44470 0.51308 0.10612
 C2121 C 0.45790 0.52742 0.12689
 C2122 C 0.44749 0.52784 0.15389
 H2123 H 0.42527 0.52338 0.20394
 H2124 H 0.37354 0.47743 0.13135
 H2125 H 0.40945 0.48933 0.09685
 H2126 H 0.45847 0.53848 0.16955
 H2127 H 0.35683 0.47635 0.17943
 H2128 H 0.47677 0.53787 0.12252
 C2129 C -0.11923 -0.00693 0.67189
 C2130 C -0.10297 0.00416 0.69223
 C2131 C -0.07849 0.01664 0.68422
 C2132 C -0.06981 0.01724 0.65640
 C2133 C -0.08584 0.00538 0.63605
 C2134 C -0.11071 -0.00638 0.64398
 C2135 C -0.07647 0.00513 0.60828
 C2136 C -0.05119 0.01646 0.60074
 C2137 C -0.03585 0.02873 0.62126
 C2138 C -0.04507 0.02914 0.64876
 H2139 H -0.06607 0.02579 0.69971
 H2140 H -0.12334 -0.01552 0.62868
 H2141 H -0.08860 -0.00435 0.59275
 H2142 H -0.03263 0.03844 0.66414
 H2143 H -0.13814 -0.01672 0.67765
 H2144 H -0.01644 0.03781 0.61618
 C2145 C -0.19040 0.95071 0.98641
 C2146 C -0.19236 0.92318 0.99500
 C2147 C -0.16846 0.90857 1.00011
 C2148 C -0.14329 0.92134 0.99778
 C2149 C -0.14177 0.94911 0.98985
 C2150 C -0.16540 0.96359 0.98417
 C2151 C -0.11666 0.96195 0.98753
 C2152 C -0.09288 0.94748 0.99329
 C2153 C -0.09458 0.91975 1.00094
 C2154 C -0.11958 0.90677 1.00309
 H2155 H -0.16943 0.88705 1.00550
 H2156 H -0.16452 0.98480 0.97760
 H2157 H -0.11575 0.98335 0.98162
 H2158 H -0.12038 0.88540 1.00911
 H2159 H -0.20791 0.96235 0.98056
 H2160 H -0.07660 0.90809 1.00545
 C2161 C 0.30707 0.44875 0.49575
 C2162 C 0.30574 0.42212 0.50713
 C2163 C 0.33000 0.40900 0.51419
 C2164 C 0.35484 0.42235 0.51074
 C2165 C 0.35566 0.44923 0.49991
 C2166 C 0.33171 0.46221 0.49248
 C2167 C 0.38044 0.46262 0.49639
 C2168 C 0.40461 0.44955 0.50358
 C2169 C 0.40358 0.42268 0.51418
 C2170 C 0.37892 0.40921 0.51772
 H2171 H 0.32953 0.38816 0.52200
 H2172 H 0.33205 0.48268 0.48372
 H2173 H 0.38081 0.48329 0.48811
 H2174 H 0.37868 0.38855 0.52599
 H2175 H 0.28942 0.45925 0.48849
 H2176 H 0.42183 0.41208 0.51993
 C2177 C 0.32550 0.61750 -0.01500
 C2178 C 0.30431 0.60021 -0.00575
 C2179 C 0.31091 0.57424 0.00487
 C2180 C 0.33785 0.56532 0.00499
 C2181 C 0.35873 0.58253 -0.00535
 C2182 C 0.35230 0.60865 -0.01518
 C2183 C 0.38567 0.57342 -0.00542
 C2184 C 0.39201 0.54728 0.00490
 C2185 C 0.37095 0.53057 0.01550
 C2186 C 0.34424 0.53946 0.01552
 H2187 H 0.29538 0.56108 0.01368
 H2188 H 0.36800 0.62237 -0.02275
 H2189 H 0.40159 0.58662 -0.01352
 H2190 H 0.32855 0.52602 0.02368
 H2191 H 0.32136 0.63813 -0.02199
 H2192 H 0.37501 0.51032 0.02366
 C2193 C -0.20358 0.06167 0.52071
 C2194 C -0.20655 0.08855 0.51005
 C2195 C -0.18282 0.10270 0.50158
 C2196 C -0.15765 0.08983 0.50115
 C2197 C -0.15546 0.06256 0.51043
 C2198 C -0.17841 0.04884 0.52061
 C2199 C -0.13035 0.04944 0.50940
 C2200 C -0.10736 0.06320 0.49888
 C2201 C -0.10975 0.09051 0.48998
 C2202 C -0.13467 0.10374 0.49121
 H2203 H -0.18405 0.12385 0.49480
 H2204 H -0.17692 0.02811 0.52851
 H2205 H -0.12886 0.02840 0.51643
 H2206 H -0.13601 0.12475 0.48408
 H2207 H -0.22019 0.05020 0.52972
 H2208 H -0.09236 0.10169 0.48198
 C2209 C 0.69286 0.06166 0.49729
 C2210 C 0.69324 0.08899 0.50650
 C2211 C 0.66811 0.10235 0.51043
 C2212 C 0.64364 0.08838 0.50637
 C2213 C 0.64416 0.06096 0.49776
 C2214 C 0.66883 0.04797 0.49307
 C2215 C 0.62002 0.04667 0.49426
 C2216 C 0.59496 0.05916 0.49971
 C2217 C 0.59453 0.08664 0.50796
 C2218 C 0.61859 0.10111 0.51115
 H2219 H 0.66726 0.12311 0.51769
 H2220 H 0.66962 0.02709 0.48600
 H2221 H 0.62085 0.02553 0.48800
 H2222 H 0.61758 0.12213 0.51773
 H2223 H 0.71106 0.05059 0.49195
 H2224 H 0.57557 0.09695 0.51227
 C2225 C 0.20078 0.56041 0.98453
 C2226 C 0.20123 0.58607 0.99730
 C2227 C 0.17679 0.59679 1.00810
 C2228 C 0.15251 0.58227 1.00620
 C2229 C 0.15249 0.55650 0.99354
 C2230 C 0.17674 0.54576 0.98279
 C2231 C 0.12823 0.54190 0.99180
 C2232 C 0.10382 0.55276 1.00252
 C2233 C 0.10414 0.57860 1.01485
 C2234 C 0.12821 0.59315 1.01673
 H2235 H 0.17647 0.61634 1.01818
 H2236 H 0.17710 0.52611 0.97280
 H2237 H 0.12843 0.52208 0.98213
 H2238 H 0.12781 0.61293 1.02647
 H2239 H 0.21887 0.55171 0.97525
 H2240 H 0.08577 0.58754 1.02335
 C2241 C 0.19887 0.44395 0.52321
 C2242 C 0.20282 0.41882 0.50994
 C2243 C 0.18055 0.40579 0.49849
 C2244 C 0.15504 0.41843 0.49896
 C2245 C 0.15174 0.44410 0.51153
 C2246 C 0.17364 0.45648 0.52393
 C2247 C 0.12666 0.45718 0.51139
 C2248 C 0.10450 0.44515 0.49875
 C2249 C 0.10775 0.41936 0.48669
 C2250 C 0.13283 0.40612 0.48677
 H2251 H 0.18306 0.38625 0.48868
 H2252 H 0.17132 0.47598 0.53403
 H2253 H 0.12451 0.47690 0.52112
 H2254 H 0.13492 0.38640 0.47708
 H2255 H 0.21528 0.45402 0.53325
 H2256 H 0.09102 0.40956 0.47690
 C2257 C 0.70154 0.94589 0.01781
 C2258 C 0.70470 0.92260 0.00124
 C2259 C 0.68175 0.91098 -0.01023
 C2260 C 0.65618 0.92272 -0.00575
 C2261 C 0.65344 0.94654 0.01027
 C2262 C 0.67622 0.95782 0.02212
 C2263 C 0.62800 0.95878 0.01403
 C2264 C 0.60514 0.94740 0.00212
 C2265 C 0.60806 0.92333 -0.01326
 C2266 C 0.63332 0.91118 -0.01724
 H2267 H 0.68373 0.89312 -0.02306
 H2268 H 0.67448 0.97586 0.03477
 H2269 H 0.62607 0.97722 0.02608
 H2270 H 0.63501 0.89288 -0.02950
 H2271 H 0.71856 0.95484 0.02783
 H2272 H 0.59085 0.91413 -0.02279
 C2273 C -0.00914 0.80191 0.94286
 C2274 C -0.00133 0.80027 0.91461
 C2275 C 0.00475 0.82466 0.90001
 C2276 C 0.00458 0.84979 0.91353
 C2277 C -0.00239 0.85097 0.94204
 C2278 C -0.00935 0.82691 0.95646
 C2279 C -0.00251 0.87620 0.95555
 C2280 C 0.00441 0.90030 0.94088
 C2281 C 0.01113 0.89875 0.91241
 C2282 C 0.01116 0.87380 0.89889
 H2283 H 0.00940 0.82415 0.87796
 H2284 H -0.01527 0.82745 0.97822
 H2285 H -0.00781 0.87698 0.97746
 H2286 H 0.01646 0.87328 0.87697
 H2287 H -0.01571 0.78409 0.95455
 H2288 H 0.01642 0.91689 0.90044
 C2289 C 0.50988 0.30648 0.44417
 C2290 C 0.50762 0.30474 0.41517
 C2291 C 0.50462 0.32908 0.39967
 C2292 C 0.50260 0.35434 0.41275
 C2293 C 0.50406 0.35559 0.44187
 C2294 C 0.50802 0.33162 0.45732
 C2295 C 0.50182 0.38081 0.45504
 C2296 C 0.49854 0.40495 0.43942
 C2297 C 0.49710 0.40348 0.41043
 C2298 C 0.49899 0.37837 0.39722
 H2299 H 0.50322 0.32820 0.37731
 H2300 H 0.50956 0.33228 0.47966
 H2301 H 0.50334 0.38169 0.47738
 H2302 H 0.49779 0.37777 0.37485
 H2303 H 0.51295 0.28878 0.45717
 H2304 H 0.49462 0.42179 0.39792
 C2305 C 0.01415 0.30310 0.56288
 C2306 C 0.00664 0.30250 0.59130
 C2307 C 0.00178 0.32749 0.60463
 C2308 C 0.00307 0.35228 0.58984
 C2309 C 0.00986 0.35244 0.56125
 C2310 C 0.01558 0.32777 0.54806
 C2311 C 0.01081 0.37725 0.54635
 C2312 C 0.00488 0.40198 0.55967
 C2313 C -0.00164 0.40150 0.58825
 C2314 C -0.00248 0.37692 0.60317
 H2315 H -0.00327 0.32757 0.62662
 H2316 H 0.02121 0.32753 0.52621
 H2317 H 0.01591 0.37721 0.52437
 H2318 H -0.00766 0.37718 0.62512
 H2319 H 0.01938 0.28487 0.55175
 H2320 H -0.00617 0.42016 0.59919
 C2321 C 0.49963 0.80083 0.06518
 C2322 C 0.49443 0.80029 0.09404
 C2323 C 0.49214 0.82528 0.10798
 C2324 C 0.49550 0.85013 0.09375
 C2325 C 0.50096 0.85035 0.06491
 C2326 C 0.50280 0.82561 0.05080
 C2327 C 0.50438 0.87530 0.05067
 C2328 C 0.50217 0.90008 0.06492
 C2329 C 0.49687 0.89952 0.09370
 C2330 C 0.49363 0.87478 0.10798
 H2331 H 0.48822 0.82526 0.13020
 H2332 H 0.50691 0.82541 0.02864
 H2333 H 0.50824 0.87539 0.02845
 H2334 H 0.48952 0.87494 0.13014
 H2335 H 0.50167 0.78244 0.05335
 H2336 H 0.49510 0.91826 0.10523
 C2337 C 0.50818 0.67538 0.11907
 C2338 C 0.49487 0.69593 0.10413
 C2339 C 0.48201 0.68922 0.07954
 C2340 C 0.48288 0.66248 0.06966
 C2341 C 0.49670 0.64199 0.08454
 C2342 C 0.50914 0.64863 0.10934
 C2343 C 0.49811 0.61536 0.07419
 C2344 C 0.48603 0.60898 0.04899
 C2345 C 0.47193 0.62953 0.03472
 C2346 C 0.47034 0.65597 0.04496
 H2347 H 0.47116 0.70477 0.06814
 H2348 H 0.51982 0.63321 0.12106
 H2349 H 0.50905 0.59980 0.08549
 H2350 H 0.45955 0.67143 0.03337
 H2351 H 0.51833 0.68010 0.13799
 H2352 H 0.46230 0.62530 0.01537
 C2353 C 0.01185 0.17558 0.61373
 C2354 C 0.00244 0.19806 0.59832
 C2355 C -0.00793 0.19352 0.57188
 C2356 C -0.00784 0.16733 0.56058
 C2357 C 0.00233 0.14507 0.57598
 C2358 C 0.01188 0.14937 0.60265
 C2359 C 0.00279 0.11893 0.56444
 C2360 C -0.00681 0.11472 0.53762
 C2361 C -0.01708 0.13709 0.52264
 C2362 C -0.01762 0.16311 0.53401
 H2363 H -0.01630 0.21026 0.55999
 H2364 H 0.01959 0.13250 0.61486
 H2365 H 0.01064 0.10193 0.57638
 H2366 H -0.02554 0.17998 0.52194
 H2367 H 0.01969 0.17814 0.63419
 H2368 H -0.02470 0.13455 0.50202
 C2369 C 0.52383 0.19654 0.43917
 C2370 C 0.50922 0.20028 0.41473
 C2371 C 0.49649 0.17763 0.40334
 C2372 C 0.49728 0.15202 0.41678
 C2373 C 0.51124 0.14884 0.44179
 C2374 C 0.52474 0.17116 0.45258
 C2375 C 0.51140 0.12344 0.45565
 C2376 C 0.49786 0.10102 0.44475
 C2377 C 0.48437 0.10438 0.41960
 C2378 C 0.48403 0.12960 0.40581
 H2379 H 0.48540 0.17994 0.38446
 H2380 H 0.53589 0.16906 0.47150
 H2381 H 0.52210 0.12116 0.47484
 H2382 H 0.47325 0.13160 0.38665
 H2383 H 0.53472 0.21326 0.44802
 H2384 H 0.47374 0.08752 0.41064
 C2385 C 0.02093 0.69361 0.93747
 C2386 C 0.00388 0.69623 0.91462
 C2387 C -0.00812 0.67258 0.90441
 C2388 C -0.00379 0.64701 0.91723
 C2389 C 0.01259 0.64492 0.94073
 C2390 C 0.02505 0.66835 0.95047
 C2391 C 0.01612 0.61951 0.95418
 C2392 C 0.00374 0.59596 0.94417
 C2393 C -0.01198 0.59828 0.92033
 C2394 C -0.01581 0.62349 0.90713
 H2395 H -0.02130 0.67407 0.88692
 H2396 H 0.03801 0.66717 0.96817
 H2397 H 0.02840 0.61809 0.97239
 H2398 H -0.02835 0.62459 0.88910
 H2399 H 0.03140 0.71107 0.94535
 H2400 H -0.02192 0.58062 0.91213
 C2401 C 0.22533 0.68197 0.94756
 C2402 C 0.23304 0.65446 0.94665
 C2403 C 0.23422 0.64111 0.92116
 C2404 C 0.23005 0.65553 0.89646
 C2405 C 0.22390 0.68369 0.89714
 C2406 C 0.22070 0.69654 0.92290
 C2407 C 0.22238 0.69861 0.87208
 C2408 C 0.22747 0.68569 0.84654
 C2409 C 0.23227 0.65739 0.84638
 C2410 C 0.23344 0.64246 0.87105
 H2411 H 0.24000 0.61976 0.92051
 H2412 H 0.21581 0.71806 0.92390
 H2413 H 0.21850 0.72037 0.87254
 H2414 H 0.23794 0.62084 0.87026
 H2415 H 0.22440 0.69251 0.96714
 H2416 H 0.23578 0.64674 0.82710
 C2417 C 0.71971 0.17229 0.45573
 C2418 C 0.73396 0.14736 0.45596
 C2419 C 0.74426 0.13755 0.43046
 C2420 C 0.74310 0.15312 0.40610
 C2421 C 0.73064 0.17901 0.40627
 C2422 C 0.71829 0.18809 0.43113
 C2423 C 0.73120 0.19519 0.38170
 C2424 C 0.74417 0.18546 0.35727
 C2425 C 0.75564 0.15915 0.35772
 C2426 C 0.75506 0.14323 0.38172
 H2427 H 0.75343 0.11751 0.42931
 H2428 H 0.70825 0.20773 0.43176
 H2429 H 0.72192 0.21523 0.38171
 H2430 H 0.76452 0.12327 0.38132
 H2431 H 0.71127 0.18058 0.47474
 H2432 H 0.76550 0.15072 0.33946
 C2433 C 0.22684 0.35080 0.45106
 C2434 C 0.25104 0.34953 0.46539
 C2435 C 0.27215 0.33286 0.45542
 C2436 C 0.26986 0.31909 0.43037
 C2437 C 0.24598 0.32177 0.41522
 C2438 C 0.22429 0.33700 0.42613
 C2439 C 0.24450 0.30984 0.38908
 C2440 C 0.26646 0.29496 0.37805
 C2441 C 0.28968 0.29149 0.39376
 C2442 C 0.29144 0.30360 0.41966
 H2443 H 0.29087 0.33172 0.46652
 H2444 H 0.20578 0.33912 0.41487
 H2445 H 0.22632 0.31219 0.37728
 H2446 H 0.30983 0.30125 0.43110
 H2447 H 0.21056 0.36384 0.45813
 H2448 H 0.30675 0.27996 0.38570
 C2449 C 0.72664 0.86239 0.92930
 C2450 C 0.75059 0.85939 0.94384
 C2451 C 0.77157 0.84329 0.93273
 C2452 C 0.76939 0.83151 0.90668
 C2453 C 0.74574 0.83561 0.89141
 C2454 C 0.72422 0.85060 0.90319
 C2455 C 0.74418 0.82475 0.86468
 C2456 C 0.76573 0.80932 0.85353
 C2457 C 0.78886 0.80501 0.86917
 C2458 C 0.79079 0.81620 0.89541
 H2459 H 0.79006 0.84080 0.94402
 H2460 H 0.70585 0.85380 0.89191
 H2461 H 0.72608 0.82767 0.85288
 H2462 H 0.80900 0.81285 0.90691
 H2463 H 0.71041 0.87501 0.93742
 H2464 H 0.80554 0.79300 0.86097
 C2465 C 0.73790 0.87319 0.06755
 C2466 C 0.74424 0.85803 0.04383
 C2467 C 0.74372 0.82940 0.04523
 C2468 C 0.73859 0.81600 0.07084
 C2469 C 0.73357 0.83161 0.09486
 C2470 C 0.73247 0.86011 0.09286
 C2471 C 0.73107 0.81864 0.12079
 C2472 C 0.73378 0.79020 0.12338
 C2473 C 0.73718 0.77458 0.09936
 C2474 C 0.73962 0.78741 0.07324
 H2475 H 0.74871 0.81774 0.02687
 H2476 H 0.72846 0.87231 0.11106
 H2477 H 0.72802 0.83084 0.13920
 H2478 H 0.74327 0.77505 0.05508
 H2479 H 0.73814 0.89529 0.06662
 H2480 H 0.73926 0.75262 0.10092
 C2481 C 0.24324 0.37642 0.58868
 C2482 C 0.24349 0.36128 0.56420
 C2483 C 0.23650 0.33351 0.56536
 C2484 C 0.23130 0.32053 0.59119
 C2485 C 0.23228 0.33587 0.61573
 C2486 C 0.23748 0.36389 0.61419
 C2487 C 0.22958 0.32278 0.64158
 C2488 C 0.22681 0.29428 0.64361
 C2489 C 0.22435 0.27928 0.61919
 C2490 C 0.22645 0.29234 0.59317
 H2491 H 0.23663 0.32181 0.54647
 H2492 H 0.23810 0.37594 0.63282
 H2493 H 0.23114 0.33472 0.66022
 H2494 H 0.22547 0.28022 0.57462
 H2495 H 0.24807 0.39795 0.58807
 H2496 H 0.22217 0.25731 0.62017
 C2497 C 0.71090 0.16126 0.56321
 C2498 C 0.73652 0.15874 0.55025
 C2499 C 0.75839 0.17251 0.56186
 C2500 C 0.75566 0.18581 0.58724
 C2501 C 0.73056 0.18570 0.60169
 C2502 C 0.70805 0.17424 0.58900
 C2503 C 0.72879 0.19650 0.62868
 C2504 C 0.75169 0.20811 0.64067
 C2505 C 0.77600 0.20946 0.62521
 C2506 C 0.77806 0.19818 0.59888
 H2507 H 0.77805 0.17214 0.55146
 H2508 H 0.68846 0.17443 0.59947
 H2509 H 0.70981 0.19585 0.64033
 H2510 H 0.79737 0.19864 0.58784
 H2511 H 0.69359 0.15112 0.55489
 H2512 H 0.79375 0.21843 0.63396
 C2513 C 0.21509 0.64829 0.06276
 C2514 C 0.23760 0.65657 0.04659
 C2515 C 0.25482 0.67657 0.05668
 C2516 C 0.25065 0.68701 0.08330
 C2517 C 0.22877 0.67756 0.10016
 C2518 C 0.21067 0.65872 0.08938
 C2519 C 0.22589 0.68655 0.12765
 C2520 C 0.24445 0.70514 0.13824
 C2521 C 0.26554 0.71501 0.12084
 C2522 C 0.26868 0.70596 0.09371
 H2523 H 0.27226 0.68297 0.04423
 H2524 H 0.19371 0.65130 0.10190
 H2525 H 0.20937 0.67905 0.14077
 H2526 H 0.28550 0.71344 0.08102
 H2527 H 0.20191 0.63252 0.05555
 H2528 H 0.28008 0.72934 0.12843
 C2529 C 0.19294 0.54044 0.74509
 C2530 C 0.16716 0.53896 0.73398
 C2531 C 0.15586 0.56202 0.72141
 C2532 C 0.16882 0.58724 0.72270
 C2533 C 0.19407 0.58913 0.73550
 C2534 C 0.20656 0.56535 0.74545
 C2535 C 0.20551 0.61488 0.73965
 C2536 C 0.19169 0.63872 0.73168
 C2537 C 0.16709 0.63634 0.71800
 C2538 C 0.15585 0.61087 0.71343
 H2539 H 0.13561 0.56089 0.71352
 H2540 H 0.22592 0.56635 0.75527
 H2541 H 0.22459 0.61634 0.74996
 H2542 H 0.13653 0.60974 0.70354
 H2543 H 0.20152 0.52282 0.75545
 H2544 H 0.15615 0.65423 0.71112
 C2545 C 0.66415 0.05706 0.21669
 C2546 C 0.66298 0.04465 0.24321
 C2547 C 0.67522 0.05821 0.26514
 C2548 C 0.68579 0.08438 0.26164
 C2549 C 0.68493 0.09766 0.23555
 C2550 C 0.67469 0.08350 0.21299
 C2551 C 0.69443 0.12469 0.23271
 C2552 C 0.70534 0.13782 0.25561
 C2553 C 0.70662 0.12396 0.28115
 C2554 C 0.69679 0.09757 0.28422
 H2555 H 0.67663 0.04843 0.28533
 H2556 H 0.67430 0.09308 0.19264
 H2557 H 0.69391 0.13519 0.21282
 H2558 H 0.69769 0.08752 0.30431
 H2559 H 0.65542 0.04736 0.19912
 H2560 H 0.71512 0.13374 0.29892
 C2561 C 0.86683 0.07842 0.75938
 C2562 C 0.85245 0.05606 0.74895
 C2563 C 0.82824 0.06167 0.73500
 C2564 C 0.81800 0.08865 0.73342
 C2565 C 0.83263 0.11026 0.74485
 C2566 C 0.85716 0.10496 0.75726
 C2567 C 0.82233 0.13690 0.74444
 C2568 C 0.79697 0.14266 0.73341
 C2569 C 0.78260 0.12119 0.72155
 C2570 C 0.79309 0.09450 0.72139
 H2571 H 0.81656 0.04515 0.72679
 H2572 H 0.86885 0.12137 0.76571
 H2573 H 0.83380 0.15302 0.75372
 H2574 H 0.78142 0.07836 0.71246
 H2575 H 0.88632 0.07588 0.76862
 H2576 H 0.76300 0.12490 0.71285
 C2577 C 0.35911 0.57470 0.23950
 C2578 C 0.34176 0.55216 0.24227
 C2579 C 0.31410 0.55561 0.23779
 C2580 C 0.30359 0.58191 0.23294
 C2581 C 0.32115 0.60463 0.23193
 C2582 C 0.34892 0.60068 0.23431
 C2583 C 0.31061 0.63108 0.23004
 C2584 C 0.28264 0.63541 0.22959
 C2585 C 0.26536 0.61274 0.22886
 C2586 C 0.27576 0.58619 0.23050
 H2587 H 0.30072 0.53821 0.23971
 H2588 H 0.36267 0.61782 0.23322
 H2589 H 0.32418 0.64838 0.23026
 H2590 H 0.26196 0.56909 0.23102
 H2591 H 0.38061 0.57227 0.24219
 H2592 H 0.24370 0.61554 0.22847
 C2593 C 0.33610 0.43580 0.22823
 C2594 C 0.33143 0.45153 0.25192
 C2595 C 0.31621 0.44055 0.27430
 C2596 C 0.30743 0.41345 0.27389
 C2597 C 0.31344 0.39725 0.25050
 C2598 C 0.32700 0.40889 0.22741
 C2599 C 0.30651 0.36953 0.25096
 C2600 C 0.29334 0.35795 0.27437
 C2601 C 0.28679 0.37441 0.29719
 C2602 C 0.29391 0.40191 0.29702
 H2603 H 0.31291 0.45255 0.29280
 H2604 H 0.33176 0.39680 0.20930
 H2605 H 0.31116 0.35705 0.23308
 H2606 H 0.28913 0.41406 0.31509
 H2607 H 0.34865 0.44345 0.21129
 H2608 H 0.27642 0.36590 0.31534
 C2609 C 0.81021 0.95670 0.75110
 C2610 C 0.83771 0.95713 0.74363
 C2611 C 0.85050 0.93280 0.73544
 C2612 C 0.83670 0.90788 0.73697
 C2613 C 0.80932 0.90729 0.74578
 C2614 C 0.79601 0.93196 0.75189
 C2615 C 0.79611 0.88201 0.74924
 C2616 C 0.81002 0.85731 0.74414
 C2617 C 0.83713 0.85844 0.73486
 C2618 C 0.85030 0.88342 0.73128
 H2619 H 0.87189 0.93303 0.73008
 H2620 H 0.77499 0.93196 0.75862
 H2621 H 0.77514 0.88161 0.75611
 H2622 H 0.87131 0.88356 0.72455
 H2623 H 0.80021 0.97515 0.75801
 H2624 H 0.84835 0.83992 0.73057
 C2625 C 0.69259 0.94886 0.22664
 C2626 C 0.66445 0.94907 0.23019
 C2627 C 0.64986 0.92506 0.22631
 C2628 C 0.66332 0.90036 0.22171
 C2629 C 0.69183 0.89975 0.21984
 C2630 C 0.70623 0.92434 0.22120
 C2631 C 0.70533 0.87448 0.21850
 C2632 C 0.69057 0.84998 0.22000
 C2633 C 0.66223 0.85108 0.22046
 C2634 C 0.64874 0.87602 0.22106
 H2635 H 0.62810 0.92527 0.22929
 H2636 H 0.72806 0.92434 0.21972
 H2637 H 0.72719 0.87386 0.21811
 H2638 H 0.62689 0.87620 0.22231
 H2639 H 0.70406 0.96725 0.22989
 H2640 H 0.65041 0.83253 0.22108
 C2641 C 0.18311 0.44203 0.73021
 C2642 C 0.15737 0.44241 0.74296
 C2643 C 0.14521 0.41778 0.75146
 C2644 C 0.15912 0.39314 0.74882
 C2645 C 0.18548 0.39286 0.73698
 C2646 C 0.19712 0.41737 0.72723
 C2647 C 0.19989 0.36820 0.73576
 C2648 C 0.18832 0.34399 0.74661
 C2649 C 0.16177 0.34457 0.75760
 C2650 C 0.14729 0.36889 0.75860
 H2651 H 0.12501 0.41785 0.76062
 H2652 H 0.21725 0.41754 0.71795
 H2653 H 0.22028 0.36805 0.72711
 H2654 H 0.12702 0.36882 0.76757
 H2655 H 0.19272 0.46087 0.72345
 H2656 H 0.15221 0.32623 0.76578
 C2657 C 0.03679 0.74540 0.81280
 C2658 C 0.03934 0.73944 0.84112
 C2659 C 0.06409 0.73006 0.85087
 C2660 C 0.08665 0.72812 0.83284
 C2661 C 0.08445 0.73524 0.80445
 C2662 C 0.05916 0.74315 0.79451
 C2663 C 0.10782 0.73573 0.78702
 C2664 C 0.13323 0.72994 0.79807
 C2665 C 0.13473 0.72173 0.82603
 C2666 C 0.11172 0.72064 0.84317
 H2667 H 0.06609 0.72577 0.87284
 H2668 H 0.05694 0.74868 0.77289
 H2669 H 0.10648 0.74221 0.76553
 H2670 H 0.11373 0.71497 0.86480
 H2671 H 0.01783 0.75297 0.80509
 H2672 H 0.15404 0.71684 0.83490
 C2673 C 0.55084 0.24317 0.31651
 C2674 C 0.55255 0.24351 0.34547
 C2675 C 0.57747 0.23879 0.35766
 C2676 C 0.60087 0.23523 0.34119
 C2677 C 0.59951 0.23623 0.31194
 C2678 C 0.57419 0.23956 0.29981
 C2679 C 0.62356 0.23506 0.29559
 C2680 C 0.64874 0.23341 0.30841
 C2681 C 0.64938 0.23104 0.33749
 C2682 C 0.62577 0.23189 0.35367
 H2683 H 0.57875 0.23899 0.38006
 H2684 H 0.57258 0.24026 0.27748
 H2685 H 0.62278 0.23683 0.27322
 H2686 H 0.62710 0.23078 0.37603
 H2687 H 0.53169 0.24687 0.30685
 H2688 H 0.66839 0.22919 0.34793
 C2689 C 0.53945 0.75870 0.19300
 C2690 C 0.53663 0.74535 0.16775
 C2691 C 0.55880 0.73193 0.15557
 C2692 C 0.58420 0.73347 0.16744
 C2693 C 0.58728 0.74778 0.19241
 C2694 C 0.56456 0.75956 0.20551
 C2695 C 0.61314 0.75102 0.20314
 C2696 C 0.63599 0.74048 0.18897
 C2697 C 0.63241 0.72584 0.16444
 C2698 C 0.60681 0.72229 0.15387
 H2699 H 0.55670 0.72231 0.13564
 H2700 H 0.56648 0.77063 0.22462
 H2701 H 0.61548 0.76219 0.22214
 H2702 H 0.60478 0.71130 0.13472
 H2703 H 0.52257 0.76972 0.20218
 H2704 H 0.64948 0.71717 0.15318
 C2705 C 0.06425 0.21998 0.65501
 C2706 C 0.04920 0.24318 0.66235
 C2707 C 0.05955 0.26127 0.68170
 C2708 C 0.08510 0.25677 0.69287
 C2709 C 0.10066 0.23399 0.68440
 C2710 C 0.08976 0.21538 0.66595
 C2711 C 0.12709 0.23067 0.69393
 C2712 C 0.13791 0.24954 0.71229
 C2713 C 0.12181 0.27151 0.72135
 C2714 C 0.09576 0.27521 0.71158
 H2715 H 0.04815 0.27943 0.68712
 H2716 H 0.10134 0.19779 0.65922
 H2717 H 0.13922 0.21350 0.68705
 H2718 H 0.08410 0.29273 0.71837
 H2719 H 0.05709 0.20635 0.63943
 H2720 H 0.12969 0.28632 0.73546
 C2721 C 0.95045 0.23469 0.68510
 C2722 C 0.95051 0.24499 0.65780
 C2723 C 0.92570 0.25019 0.64526
 C2724 C 0.90125 0.24664 0.66008
 C2725 C 0.90126 0.23735 0.68792
 C2726 C 0.92602 0.23097 0.70008
 C2727 C 0.87661 0.23533 0.70315
 C2728 C 0.85209 0.24282 0.69084
 C2729 C 0.85258 0.25114 0.66280
 C2730 C 0.87681 0.25296 0.64761
 H2731 H 0.92542 0.25746 0.62395
 H2732 H 0.92652 0.22366 0.72135
 H2733 H 0.87665 0.22882 0.72470
 H2734 H 0.87648 0.25991 0.62621
 H2735 H 0.96930 0.23045 0.69515
 H2736 H 0.83414 0.25671 0.65257
 C2737 C 0.43952 0.73285 0.18817
 C2738 C 0.43940 0.74184 0.16044
 C2739 C 0.41472 0.74460 0.14711
 C2740 C 0.39033 0.73997 0.16158
 C2741 C 0.39038 0.73209 0.18987
 C2742 C 0.41515 0.72806 0.20284
 C2743 C 0.36569 0.72929 0.20475
 C2744 C 0.34116 0.73482 0.19167
 C2745 C 0.34159 0.74155 0.16323
 C2746 C 0.36588 0.74399 0.14833
 H2747 H 0.41448 0.75086 0.12548
 H2748 H 0.41567 0.72187 0.22445
 H2749 H 0.36566 0.72407 0.22665
 H2750 H 0.36555 0.74979 0.12660
 H2751 H 0.45839 0.73047 0.19874
 H2752 H 0.32305 0.74555 0.15251
 C2753 C 0.44114 0.22281 0.35675
 C2754 C 0.45567 0.24695 0.35189
 C2755 C 0.44428 0.26793 0.33577
 C2756 C 0.41803 0.26555 0.32604
 C2757 C 0.40294 0.24176 0.33231
 C2758 C 0.41494 0.22020 0.34703
 C2759 C 0.37599 0.24020 0.32425
 C2760 C 0.36411 0.26191 0.30953
 C2761 C 0.37960 0.28505 0.30259
 C2762 C 0.40627 0.28697 0.31098
 H2763 H 0.45546 0.28665 0.33198
 H2764 H 0.40373 0.20174 0.35187
 H2765 H 0.36434 0.22203 0.32920
 H2766 H 0.41762 0.30529 0.30591
 H2767 H 0.44933 0.20669 0.36953
 H2768 H 0.37090 0.30188 0.29107
 C2769 C 0.92927 0.71916 0.85685
 C2770 C 0.94505 0.74257 0.85240
 C2771 C 0.93588 0.76329 0.83452
 C2772 C 0.91071 0.76127 0.82211
 C2773 C 0.89422 0.73830 0.82778
 C2774 C 0.90394 0.71708 0.84475
 C2775 C 0.86826 0.73719 0.81663
 C2776 C 0.85902 0.75841 0.79928
 C2777 C 0.87604 0.78064 0.79312
 C2778 C 0.90152 0.78221 0.80464
 H2779 H 0.94809 0.78137 0.83094
 H2780 H 0.89172 0.69919 0.84915
 H2781 H 0.85541 0.71976 0.82115
 H2782 H 0.91398 0.79988 0.79999
 H2783 H 0.93594 0.70312 0.87075
 H2784 H 0.86937 0.79714 0.77977
   
