data_POSCAR
  _audit_creation_date              2014-09-24
  _audit_creation_method            'ToBaCCo'
  _symmetry_space_group_name_H-M    'P1'
  _symmetry_Int_Tables_number       1
  _symmetry_cell_setting            triclinic
  loop_
  _symmetry_equiv_pos_as_xyz
 x,y,z
_cell_length_a 76.1101
_cell_length_b 76.2640
_cell_length_c 76.0875
_cell_angle_alpha 90.047000
_cell_angle_beta 89.885500
_cell_angle_gamma 90.009000
loop_
  _atom_site_label
  _atom_site_type_symbol
  _atom_site_fract_x
  _atom_site_fract_y
  _atom_site_fract_z
C1 C 0.13281 -0.02459 0.25093
 C2 C 0.12589 -0.00812 0.25544
 C3 C 0.11782 -0.00577 0.27185
 C4 C 0.11613 -0.01985 0.28354
 C5 C 0.12299 -0.03628 0.27885
 C6 C 0.13160 -0.03894 0.26260
 C7 C 0.12635 0.00650 0.24270
 C8 C 0.11889 0.00440 0.22595
 C9 C 0.11788 0.01860 0.21408
 C10 C 0.12519 0.03480 0.21934
 C11 C 0.13307 0.03691 0.23587
 C12 C 0.13345 0.02274 0.24755
 H13 H 0.13861 -0.02618 0.23802
 H14 H 0.11225 0.00688 0.27522
 H15 H 0.11286 -0.00806 0.22283
 H16 H 0.13923 0.02433 0.26046
 H17 H 0.12239 -0.04668 0.28849
 H18 H 0.12572 0.04570 0.21026
 C19 C 0.36797 -0.02175 0.74811
 C20 C 0.37573 -0.00541 0.74464
 C21 C 0.38349 -0.00230 0.72818
 C22 C 0.38357 -0.01541 0.71522
 C23 C 0.37571 -0.03167 0.71884
 C24 C 0.36784 -0.03494 0.73522
 C25 C 0.37562 0.00848 0.75818
 C26 C 0.38314 0.00542 0.77472
 C27 C 0.38303 0.01848 0.78791
 C28 C 0.37496 0.03469 0.78397
 C29 C 0.36745 0.03790 0.76744
 C30 C 0.36787 0.02474 0.75460
 H31 H 0.36197 -0.02414 0.76081
 H32 H 0.38943 0.01033 0.72549
 H33 H 0.38862 -0.00742 0.77729
 H34 H 0.36213 0.02711 0.74179
 H35 H 0.37567 -0.04180 0.70885
 H36 H 0.37491 0.04522 0.79351
 C37 C 0.86783 0.47795 0.24888
 C38 C 0.87543 0.49440 0.24566
 C39 C 0.88315 0.49783 0.22926
 C40 C 0.88340 0.48487 0.21612
 C41 C 0.87569 0.46848 0.21952
 C42 C 0.86782 0.46493 0.23583
 C43 C 0.87504 0.50805 0.25944
 C44 C 0.88232 0.50465 0.27603
 C45 C 0.88122 0.51710 0.28974
 C46 C 0.87228 0.53296 0.28633
 C47 C 0.86505 0.53653 0.26976
 C48 C 0.86671 0.52411 0.25627
 H49 H 0.86185 0.47533 0.26155
 H50 H 0.88895 0.51056 0.22674
 H51 H 0.88829 0.49197 0.27824
 H52 H 0.86089 0.52661 0.24353
 H53 H 0.87576 0.45847 0.20940
 H54 H 0.87166 0.54315 0.29622
 C55 C 0.63475 0.47401 0.75163
 C56 C 0.62656 0.49007 0.75547
 C57 C 0.61850 0.49255 0.77191
 C58 C 0.61834 0.47904 0.78440
 C59 C 0.62693 0.46323 0.78056
 C60 C 0.63534 0.46068 0.76433
 C61 C 0.62651 0.50441 0.74247
 C62 C 0.61867 0.50203 0.72596
 C63 C 0.61751 0.51606 0.71407
 C64 C 0.62481 0.53234 0.71865
 C65 C 0.63306 0.53479 0.73495
 C66 C 0.63371 0.52078 0.74687
 H67 H 0.64125 0.47218 0.73907
 H68 H 0.61193 0.50485 0.77475
 H69 H 0.61284 0.48947 0.72270
 H70 H 0.63975 0.52260 0.75963
 H71 H 0.62719 0.45287 0.79031
 H72 H 0.62440 0.54306 0.70932
 C73 C 0.24832 0.13121 1.02375
 C74 C 0.24470 0.12386 1.00729
 C75 C 0.22809 0.11659 1.00401
 C76 C 0.21485 0.11660 1.01705
 C77 C 0.21881 0.12427 1.03348
 C78 C 0.23541 0.13154 1.03690
 C79 C 0.25818 0.12413 0.99330
 C80 C 0.27463 0.11624 0.99605
 C81 C 0.28747 0.11597 0.98261
 C82 C 0.28362 0.12473 0.96674
 C83 C 0.26743 0.13305 0.96406
 C84 C 0.25458 0.13234 0.97723
 H85 H 0.26117 0.13681 1.02626
 H86 H 0.22550 0.11146 0.99100
 H87 H 0.27683 0.10946 1.00834
 H88 H 0.24203 0.13875 0.97525
 H89 H 0.20920 0.12426 1.04398
 H90 H 0.29343 0.12571 0.95647
 C91 C 0.75252 0.36697 1.02263
 C92 C 0.75665 0.37387 1.00602
 C93 C 0.77274 0.38241 1.00342
 C94 C 0.78449 0.38462 1.01739
 C95 C 0.78018 0.37778 1.03397
 C96 C 0.76428 0.36867 1.03688
 C97 C 0.74380 0.37290 0.99151
 C98 C 0.72695 0.38013 0.99364
 C99 C 0.71497 0.38073 0.97950
 C100 C 0.72022 0.37323 0.96334
 C101 C 0.73686 0.36560 0.96120
 C102 C 0.74866 0.36562 0.97531
 H103 H 0.73984 0.36080 1.02440
 H104 H 0.77581 0.38795 0.99066
 H105 H 0.72384 0.38632 1.00607
 H106 H 0.76165 0.36004 0.97368
 H107 H 0.78989 0.37880 1.04429
 H108 H 0.71107 0.37240 0.95250
 C109 C 0.25133 0.86693 0.52167
 C110 C 0.25594 0.87368 0.50515
 C111 C 0.27252 0.88140 0.50271
 C112 C 0.28445 0.88308 0.51682
 C113 C 0.27946 0.87610 0.53328
 C114 C 0.26312 0.86795 0.53576
 C115 C 0.24310 0.87347 0.49060
 C116 C 0.22650 0.88120 0.49287
 C117 C 0.21462 0.88215 0.47881
 C118 C 0.21934 0.87484 0.46254
 C119 C 0.23573 0.86674 0.46015
 C120 C 0.24763 0.86622 0.47423
 H121 H 0.23856 0.86093 0.52353
 H122 H 0.27545 0.88713 0.49003
 H123 H 0.22313 0.88709 0.50540
 H124 H 0.26043 0.86024 0.47245
 H125 H 0.28864 0.87606 0.54412
 H126 H 0.21002 0.87509 0.45179
 C127 C 0.74663 0.63095 0.52286
 C128 C 0.74327 0.62368 0.50625
 C129 C 0.72673 0.61635 0.50273
 C130 C 0.71360 0.61619 0.51573
 C131 C 0.71714 0.62357 0.53227
 C132 C 0.73359 0.63102 0.53593
 C133 C 0.75706 0.62398 0.49256
 C134 C 0.77359 0.61656 0.49592
 C135 C 0.78732 0.61760 0.48344
 C136 C 0.78398 0.62661 0.46759
 C137 C 0.76746 0.63398 0.46405
 C138 C 0.75396 0.63239 0.47650
 H139 H 0.75939 0.63665 0.52556
 H140 H 0.72410 0.61079 0.48989
 H141 H 0.77575 0.61053 0.50860
 H142 H 0.74127 0.63832 0.47402
 H143 H 0.70703 0.62354 0.54232
 H144 H 0.79387 0.62720 0.45737
 C145 C -0.02216 0.25534 0.13229
 C146 C -0.00600 0.25886 0.12415
 C147 C -0.00316 0.27515 0.11602
 C148 C -0.01659 0.28792 0.11543
 C149 C -0.03254 0.28420 0.12416
 C150 C -0.03531 0.26816 0.13273
 C151 C 0.00795 0.24542 0.12411
 C152 C 0.00496 0.22903 0.11622
 C153 C 0.01828 0.21615 0.11570
 C154 C 0.03431 0.21990 0.12423
 C155 C 0.03722 0.23603 0.13258
 C156 C 0.02416 0.24894 0.13207
 H157 H -0.02421 0.24290 0.13884
 H158 H 0.00921 0.27724 0.10929
 H159 H -0.00747 0.22691 0.10965
 H160 H 0.02631 0.26145 0.13849
 H161 H -0.04281 0.29399 0.12492
 H162 H 0.04450 0.21004 0.12505
 C163 C -0.02395 0.74575 0.36654
 C164 C -0.00773 0.74228 0.37457
 C165 C -0.00479 0.72595 0.38255
 C166 C -0.01813 0.71323 0.38288
 C167 C -0.03412 0.71672 0.37445
 C168 C -0.03708 0.73284 0.36609
 C169 C 0.00620 0.75572 0.37454
 C170 C 0.00330 0.77201 0.38266
 C171 C 0.01661 0.78476 0.38290
 C172 C 0.03254 0.78134 0.37425
 C173 C 0.03546 0.76528 0.36576
 C174 C 0.02237 0.75232 0.36630
 H175 H -0.02609 0.75825 0.36011
 H176 H 0.00764 0.72340 0.38900
 H177 H -0.00908 0.77452 0.38926
 H178 H 0.02448 0.73987 0.35976
 H179 H -0.04434 0.70682 0.37437
 H180 H 0.04273 0.79128 0.37410
 C181 C 0.47812 0.24565 0.86709
 C182 C 0.49419 0.24143 0.87500
 C183 C 0.49651 0.22486 0.88272
 C184 C 0.48273 0.21245 0.88304
 C185 C 0.46687 0.21690 0.87457
 C186 C 0.46457 0.23324 0.86644
 C187 C 0.50871 0.25430 0.87520
 C188 C 0.50632 0.27087 0.88290
 C189 C 0.52042 0.28287 0.88425
 C190 C 0.53678 0.27793 0.87699
 C191 C 0.53917 0.26160 0.86883
 C192 C 0.52512 0.24976 0.86816
 H193 H 0.47644 0.25830 0.86082
 H194 H 0.50881 0.22223 0.88933
 H195 H 0.49369 0.27378 0.88878
 H196 H 0.52691 0.23701 0.86213
 H197 H 0.45631 0.20744 0.87361
 H198 H 0.54759 0.28715 0.87667
 C199 C 0.47460 0.75529 0.63401
 C200 C 0.49106 0.75763 0.62597
 C201 C 0.49480 0.77339 0.61719
 C202 C 0.48200 0.78659 0.61602
 C203 C 0.46575 0.78422 0.62442
 C204 C 0.46199 0.76872 0.63360
 C205 C 0.50427 0.74350 0.62671
 C206 C 0.50047 0.72699 0.61950
 C207 C 0.51274 0.71329 0.62053
 C208 C 0.52873 0.71618 0.62923
 C209 C 0.53271 0.73262 0.63652
 C210 C 0.52051 0.74635 0.63495
 H211 H 0.47184 0.74324 0.64103
 H212 H 0.50740 0.77508 0.61075
 H213 H 0.48795 0.72484 0.61308
 H214 H 0.52335 0.75905 0.64069
 H215 H 0.45593 0.79450 0.62377
 H216 H 0.53834 0.70572 0.62991
 C217 C 0.86945 1.02015 0.75335
 C218 C 0.87725 1.00395 0.75694
 C219 C 0.88455 1.00081 0.77354
 C220 C 0.88428 1.01380 0.78680
 C221 C 0.87611 1.02999 0.78286
 C222 C 0.86870 1.03322 0.76627
 C223 C 0.87756 0.99014 0.74335
 C224 C 0.88546 0.99336 0.72701
 C225 C 0.88566 0.98044 0.71369
 C226 C 0.87740 0.96421 0.71730
 C227 C 0.86941 0.96088 0.73363
 C228 C 0.86968 0.97390 0.74663
 H229 H 0.86389 1.02253 0.74047
 H230 H 0.88997 0.98794 0.77608
 H231 H 0.89093 1.00625 0.72469
 H232 H 0.86366 0.97147 0.75932
 H233 H 0.87587 1.04046 0.79245
 H234 H 0.87748 0.95380 0.70765
 C235 C 0.36813 0.52308 0.25236
 C236 C 0.37567 0.50677 0.25623
 C237 C 0.38301 0.50386 0.27285
 C238 C 0.38308 0.51720 0.28558
 C239 C 0.37532 0.53344 0.28159
 C240 C 0.36774 0.53647 0.26504
 C241 C 0.37600 0.49277 0.24284
 C242 C 0.38378 0.49583 0.22642
 C243 C 0.38440 0.48253 0.21367
 C244 C 0.37680 0.46615 0.21744
 C245 C 0.36882 0.46295 0.23381
 C246 C 0.36864 0.47632 0.24651
 H247 H 0.36255 0.52531 0.23946
 H248 H 0.38877 0.49121 0.27580
 H249 H 0.38941 0.50858 0.22362
 H250 H 0.36273 0.47399 0.25926
 H251 H 0.37521 0.54376 0.29138
 H252 H 0.37710 0.45588 0.20761
 C253 C 0.63248 1.02448 0.24825
 C254 C 0.62512 1.00802 0.24464
 C255 C 0.61750 1.00487 0.22817
 C256 C 0.61704 1.01806 0.21533
 C257 C 0.62464 1.03444 0.21905
 C258 C 0.63245 1.03775 0.23545
 C259 C 0.62522 0.99410 0.25810
 C260 C 0.61779 0.99715 0.27470
 C261 C 0.61656 0.98358 0.28727
 C262 C 0.62370 0.96703 0.28291
 C263 C 0.63182 0.96405 0.26657
 C264 C 0.63223 0.97760 0.25413
 H265 H 0.63827 1.02691 0.26102
 H266 H 0.61184 0.99212 0.22542
 H267 H 0.61192 1.00984 0.27720
 H268 H 0.63803 0.97533 0.24131
 H269 H 0.62448 1.04464 0.20915
 H270 H 0.62392 0.95663 0.29259
 C271 C 0.13257 0.52475 0.74897
 C272 C 0.12545 0.50817 0.74538
 C273 C 0.11812 0.50479 0.72883
 C274 C 0.11771 0.51788 0.71587
 C275 C 0.12506 0.53437 0.71958
 C276 C 0.13258 0.53791 0.73607
 C277 C 0.12548 0.49437 0.75897
 C278 C 0.11792 0.49754 0.77548
 C279 C 0.11698 0.48415 0.78807
 C280 C 0.12420 0.46764 0.78423
 C281 C 0.13234 0.46444 0.76794
 C282 C 0.13267 0.47784 0.75528
 H283 H 0.13813 0.52735 0.76181
 H284 H 0.11263 0.49196 0.72609
 H285 H 0.11215 0.51024 0.77828
 H286 H 0.13852 0.47544 0.74250
 H287 H 0.12492 0.54450 0.70961
 H288 H 0.12386 0.45745 0.79414
 C289 C 0.74857 0.86761 -0.02406
 C290 C 0.74502 0.87514 -0.00763
 C291 C 0.72863 0.88290 -0.00447
 C292 C 0.71579 0.88336 -0.01769
 C293 C 0.71945 0.87561 -0.03407
 C294 C 0.73578 0.86762 -0.03734
 C295 C 0.75851 0.87494 0.00626
 C296 C 0.77493 0.88270 0.00328
 C297 C 0.78806 0.88272 0.01637
 C298 C 0.78423 0.87429 0.03250
 C299 C 0.76781 0.86641 0.03557
 C300 C 0.75497 0.86693 0.02241
 H301 H 0.76130 0.86171 -0.02646
 H302 H 0.72593 0.88863 0.00829
 H303 H 0.77742 0.88829 -0.00956
 H304 H 0.74219 0.86107 0.02468
 H305 H 0.70956 0.87579 -0.04428
 H306 H 0.79374 0.87421 0.04303
 C307 C 0.24754 0.36887 0.47652
 C308 C 0.24306 0.37587 0.49298
 C309 C 0.22641 0.38335 0.49547
 C310 C 0.21446 0.38435 0.48151
 C311 C 0.21908 0.37730 0.46510
 C312 C 0.23552 0.36928 0.46255
 C313 C 0.25595 0.37588 0.50745
 C314 C 0.27260 0.38335 0.50496
 C315 C 0.28454 0.38440 0.51893
 C316 C 0.27989 0.37740 0.53535
 C317 C 0.26345 0.36939 0.53790
 C318 C 0.25144 0.36892 0.52391
 H319 H 0.26042 0.36308 0.47464
 H320 H 0.22302 0.38900 0.50811
 H321 H 0.27601 0.38896 0.49231
 H322 H 0.23857 0.36313 0.52579
 H323 H 0.20963 0.37765 0.45446
 H324 H 0.28931 0.37781 0.54601
 C325 C 0.25469 0.63044 -0.02603
 C326 C 0.25778 0.62228 -0.00983
 C327 C 0.27420 0.61467 -0.00649
 C328 C 0.28760 0.61516 -0.01921
 C329 C 0.28450 0.62387 -0.03518
 C330 C 0.26810 0.63153 -0.03866
 C331 C 0.24404 0.62225 0.00389
 C332 C 0.22738 0.61522 0.00041
 C333 C 0.21400 0.61537 0.01331
 C334 C 0.21787 0.62309 0.02977
 C335 C 0.23450 0.63023 0.03335
 C336 C 0.24755 0.62962 0.02036
 H337 H 0.24208 0.63655 -0.02852
 H338 H 0.27653 0.60840 0.00607
 H339 H 0.22491 0.61014 -0.01264
 H340 H 0.26046 0.63500 0.02299
 H341 H 0.29469 0.62434 -0.04514
 H342 H 0.20817 0.62323 0.04017
 C343 C 0.75295 0.13015 0.47460
 C344 C 0.75643 0.12231 0.49083
 C345 C 0.77289 0.11468 0.49391
 C346 C 0.78611 0.11466 0.48085
 C347 C 0.78231 0.12290 0.46464
 C348 C 0.76586 0.13065 0.46145
 C349 C 0.74285 0.12222 0.50470
 C350 C 0.72631 0.11487 0.50141
 C351 C 0.71332 0.11462 0.51454
 C352 C 0.71700 0.12217 0.53099
 C353 C 0.73348 0.12977 0.53442
 C354 C 0.74640 0.12956 0.52122
 H355 H 0.74016 0.13595 0.47225
 H356 H 0.77534 0.10921 0.50679
 H357 H 0.72359 0.10931 0.48859
 H358 H 0.75923 0.13518 0.52372
 H359 H 0.79188 0.12297 0.45412
 H360 H 0.70700 0.12217 0.54114
 C361 C 1.02030 0.75540 0.86878
 C362 C 1.00402 0.75841 0.87683
 C363 C 1.00037 0.77488 0.88422
 C364 C 1.01278 0.78864 0.88353
 C365 C 1.02884 0.78543 0.87472
 C366 C 1.03264 0.76895 0.86742
 C367 C 0.99048 0.74454 0.87691
 C368 C 0.99408 0.72805 0.88423
 C369 C 0.98102 0.71489 0.88490
 C370 C 0.96460 0.71845 0.87707
 C371 C 0.96111 0.73472 0.86923
 C372 C 0.97394 0.74785 0.86959
 H373 H 1.02307 0.74273 0.86292
 H374 H 0.98752 0.77693 0.88998
 H375 H 1.00675 0.72604 0.89035
 H376 H 0.97130 0.76044 0.86355
 H377 H 1.03900 0.79533 0.87424
 H378 H 0.95455 0.70841 0.87644
 C379 C 0.52424 0.25407 0.36835
 C380 C 0.50785 0.25744 0.37610
 C381 C 0.50448 0.27396 0.38347
 C382 C 0.51731 0.28719 0.38313
 C383 C 0.53345 0.28384 0.37478
 C384 C 0.53698 0.26734 0.36736
 C385 C 0.49400 0.24390 0.37613
 C386 C 0.49706 0.22745 0.38375
 C387 C 0.48352 0.21499 0.38469
 C388 C 0.46705 0.21887 0.37738
 C389 C 0.46401 0.23508 0.36915
 C390 C 0.47751 0.24762 0.36884
 H391 H 0.52679 0.24138 0.36246
 H392 H 0.49181 0.27650 0.38947
 H393 H 0.50974 0.22461 0.38955
 H394 H 0.47522 0.26033 0.36290
 H395 H 0.54349 0.29391 0.37441
 H396 H 0.45676 0.20905 0.37771
 C397 C 1.02438 0.24644 0.63091
 C398 C 1.00837 0.24291 0.62266
 C399 C 1.00562 0.22661 0.61461
 C400 C 1.01882 0.21358 0.61458
 C401 C 1.03482 0.21743 0.62319
 C402 C 1.03766 0.23373 0.63136
 C403 C 0.99431 0.25623 0.62267
 C404 C 0.99739 0.27289 0.61555
 C405 C 0.98414 0.28587 0.61550
 C406 C 0.96776 0.28163 0.62321
 C407 C 0.96459 0.26497 0.63047
 C408 C 0.97791 0.25231 0.62999
 H409 H 1.02646 0.25909 0.63706
 H410 H 0.99287 0.22410 0.60886
 H411 H 1.01040 0.27568 0.61051
 H412 H 0.97558 0.23938 0.63541
 H413 H 1.04545 0.20802 0.62324
 H414 H 0.95711 0.29101 0.62324
 C415 C 0.52292 0.74546 0.13016
 C416 C 0.50674 0.74175 0.12221
 C417 C 0.50398 0.72534 0.11440
 C418 C 0.51734 0.71264 0.11430
 C419 C 0.53345 0.71647 0.12246
 C420 C 0.53632 0.73282 0.13050
 C421 C 0.49273 0.75510 0.12203
 C422 C 0.49586 0.77161 0.11459
 C423 C 0.48259 0.78439 0.11427
 C424 C 0.46617 0.78054 0.12184
 C425 C 0.46292 0.76409 0.12952
 C426 C 0.47625 0.75136 0.12937
 H427 H 0.52502 0.75820 0.13611
 H428 H 0.49141 0.72251 0.10835
 H429 H 0.50866 0.77446 0.10903
 H430 H 0.47387 0.73856 0.13507
 H431 H 0.54379 0.70671 0.12254
 H432 H 0.45591 0.79038 0.12179
 O433 O -0.00300 1.03815 1.03722
 O434 O -0.02860 1.02205 1.04161
 O435 O 0.03755 0.99867 1.03614
 O436 O 0.04391 0.97468 1.02060
 O437 O 0.03591 1.03903 0.99622
 O438 O 0.01859 1.04285 0.97027
 O439 O -0.00808 0.95210 0.98908
 O440 O 0.00511 0.95042 1.01635
 O441 O -0.04889 0.98848 0.99294
 O442 O -0.05138 1.01877 1.00382
 O443 O -0.01285 0.99270 0.95155
 O444 O 0.01716 1.00369 0.94865
 O445 O 0.00225 0.96551 0.96445
 O446 O 0.02950 0.98291 0.95880
 O447 O -0.03703 1.00360 0.96521
 O448 O -0.04180 1.03084 0.98252
 O449 O -0.03492 0.96441 1.00354
 O450 O -0.01897 0.96374 1.03192
 O451 O 0.00757 1.05120 1.01245
 O452 O -0.00387 1.05274 0.98297
 O453 O 0.04980 1.01487 1.00684
 O454 O 0.05086 0.98469 0.99524
 O455 O 0.01361 1.01057 1.04952
 O456 O -0.01581 0.99667 1.05097
 Zr457 Zr -0.00564 1.01167 1.02977
 O458 O -0.02246 0.99546 1.01499
 Zr459 Zr 0.02987 0.99594 1.00967
 O460 O 0.01451 0.97887 0.99431
 Zr461 Zr 0.00957 1.03100 0.99371
 O462 O -0.00651 1.01553 0.97740
 Zr463 Zr -0.00892 0.97268 1.00747
 O464 O 0.00748 0.98799 1.02389
 Zr465 Zr -0.02909 1.00777 0.99130
 O466 O -0.01392 1.02495 1.00698
 Zr467 Zr 0.00636 0.99189 0.97141
 O468 O 0.02343 1.00844 0.98587
 O469 O 0.01733 1.01899 1.01688
 O470 O -0.01675 0.98450 0.98404
 C471 C 0.00235 1.05162 1.02854
 C472 C 0.02948 1.00480 1.04969
 C473 C 0.04973 1.03080 1.00133
 C474 C -0.00327 0.95195 0.97285
 C475 C -0.04869 0.97241 0.99804
 C476 C -0.02895 0.99777 0.95158
 H477 H -0.03295 0.99255 1.02210
 H478 H -0.00944 1.02226 0.96671
 H479 H 0.02490 1.02664 1.02416
 H480 H 0.02131 0.96814 0.99166
 H481 H 0.01124 0.95400 1.02724
 H482 H 0.03749 0.96389 1.01734
 H483 H -0.03516 1.03537 0.97230
 H484 H -0.01538 1.05335 0.98903
 H485 H -0.02372 0.95175 1.03018
 H486 H -0.01388 1.00321 1.06208
 H487 H 0.01096 1.01492 0.94675
 H488 H 0.02696 1.03450 0.96485
 H489 H -0.03436 1.02953 1.03270
 H490 H -0.05336 1.01230 1.01491
 H491 H 0.05201 0.99152 0.98424
 H492 H 0.03396 0.97272 0.96548
 O493 O 0.48597 0.49366 0.45094
 O494 O 0.51403 0.50532 0.44893
 O495 O 0.49145 0.45128 0.48773
 O496 O 0.49987 0.44765 0.51551
 O497 O 0.44871 0.48888 0.49386
 O498 O 0.44715 0.51807 0.50435
 O499 O 0.53640 0.49732 0.53567
 O500 O 0.53924 0.47130 0.52061
 O501 O 0.53427 0.53767 0.49882
 O502 O 0.51723 0.54322 0.47210
 O503 O 0.49641 0.53564 0.53841
 O504 O 0.46974 0.51834 0.54348
 O505 O 0.51220 0.50833 0.54938
 O506 O 0.48158 0.49649 0.55201
 O507 O 0.50667 0.54961 0.51413
 O508 O 0.49518 0.55191 0.48354
 O509 O 0.54778 0.51314 0.50901
 O510 O 0.54846 0.48452 0.49345
 O511 O 0.46183 0.50463 0.46482
 O512 O 0.45733 0.53059 0.48234
 O513 O 0.46226 0.46406 0.50333
 O514 O 0.47978 0.46045 0.53049
 O515 O 0.50144 0.46526 0.46332
 O516 O 0.52892 0.48238 0.46094
 Zr517 Zr 0.50461 0.49152 0.47118
 O518 O 0.52133 0.50740 0.48641
 Zr519 Zr 0.48873 0.47138 0.50652
 O520 O 0.50516 0.48612 0.52316
 Zr521 Zr 0.46921 0.50722 0.49138
 O522 O 0.48445 0.52356 0.50766
 Zr523 Zr 0.52783 0.49411 0.50963
 O524 O 0.51249 0.47735 0.49362
 Zr525 Zr 0.50800 0.52999 0.49476
 O526 O 0.49187 0.51517 0.47771
 Zr527 Zr 0.49250 0.50962 0.53005
 O528 O 0.47520 0.49399 0.51486
 O529 O 0.48139 0.48412 0.48361
 O530 O 0.51567 0.51729 0.51769
 C531 C 0.47006 0.49937 0.45098
 C532 C 0.49662 0.45140 0.47162
 C533 C 0.44854 0.47276 0.49879
 C534 C 0.52832 0.50324 0.54931
 C535 C 0.54787 0.52931 0.50429
 C536 C 0.50186 0.54939 0.53032
 H537 H 0.53198 0.51025 0.47952
 H538 H 0.47752 0.53408 0.51076
 H539 H 0.47382 0.47673 0.47605
 H540 H 0.50829 0.47905 0.53359
 H541 H 0.53659 0.46154 0.51244
 H542 H 0.51060 0.45078 0.52210
 H543 H 0.48463 0.55445 0.49071
 H544 H 0.46558 0.53586 0.47377
 H545 H 0.55956 0.48523 0.50022
 H546 H 0.52678 0.47663 0.44943
 H547 H 0.46461 0.52806 0.53660
 H548 H 0.44693 0.51286 0.51626
 H549 H 0.50892 0.51725 0.44950
 H550 H 0.52674 0.53607 0.46687
 H551 H 0.47020 0.46810 0.53483
 H552 H 0.48892 0.48608 0.55447
 O553 O 0.46207 -0.03650 0.49526
 O554 O 0.47741 -0.03949 0.46892
 O555 O 0.50264 -0.03659 0.53454
 O556 O 0.52652 -0.02104 0.54105
 O557 O 0.46169 0.00292 0.53563
 O558 O 0.45695 0.02931 0.51945
 O559 O 0.54758 0.01268 0.48995
 O560 O 0.54980 -0.01516 0.50153
 O561 O 0.50976 0.00947 0.44954
 O562 O 0.47947 -0.00045 0.44769
 O563 O 0.50606 0.05000 0.48789
 O564 O 0.49629 0.05144 0.51816
 O565 O 0.53418 0.03674 0.50149
 O566 O 0.51731 0.04080 0.52953
 O567 O 0.49575 0.03720 0.46299
 O568 O 0.46779 0.02034 0.45866
 O569 O 0.53480 -0.00013 0.46263
 O570 O 0.53603 -0.02943 0.47699
 O571 O 0.44893 -0.01234 0.50700
 O572 O 0.44683 0.01752 0.49670
 O573 O 0.48625 -0.00813 0.54845
 O574 O 0.51648 0.00378 0.54915
 O575 O 0.49050 -0.04911 0.51031
 O576 O 0.50337 -0.04901 0.48040
 Zr577 Zr 0.48840 -0.02855 0.49202
 O578 O 0.50400 -0.01288 0.47539
 Zr579 Zr 0.50479 -0.00986 0.52793
 O580 O 0.52138 0.00625 0.51276
 Zr581 Zr 0.46901 0.00650 0.50921
 O582 O 0.48397 0.02367 0.49351
 Zr583 Zr 0.52710 -0.00571 0.48858
 O584 O 0.51237 -0.02295 0.50472
 Zr585 Zr 0.49129 0.01092 0.47013
 O586 O 0.47465 -0.00564 0.48504
 Zr587 Zr 0.50790 0.02930 0.50602
 O588 O 0.49184 0.01398 0.52284
 O589 O 0.48148 -0.01679 0.51571
 O590 O 0.51484 0.01787 0.48214
 C591 C 0.44859 -0.02822 0.50125
 C592 C 0.49667 -0.04988 0.52601
 C593 C 0.47027 -0.00269 0.54903
 C594 C 0.54773 0.02864 0.49542
 C595 C 0.52606 0.00509 0.44919
 C596 C 0.50117 0.05054 0.47175
 H597 H 0.50667 -0.01950 0.46453
 H598 H 0.47707 0.03440 0.49125
 H599 H 0.47413 -0.02449 0.52318
 H600 H 0.53226 0.00868 0.51940
 H601 H 0.54642 -0.02635 0.50721
 H602 H 0.53709 -0.01784 0.53420
 H603 H 0.46383 0.03063 0.46552
 H604 H 0.44613 0.01204 0.48492
 H605 H 0.54787 -0.02728 0.47196
 H606 H 0.49704 -0.06027 0.48203
 H607 H 0.48465 0.05326 0.51270
 H608 H 0.46542 0.03451 0.52783
 H609 H 0.46936 -0.03058 0.46397
 H610 H 0.48533 -0.01182 0.44549
 H611 H 0.50944 0.01452 0.55108
 H612 H 0.52784 0.03420 0.53327
 O613 O -0.03755 0.46570 0.99662
 O614 O -0.02215 0.46262 0.97031
 O615 O 0.00303 0.46534 1.03595
 O616 O 0.02686 0.48083 1.04265
 O617 O -0.03784 0.50501 1.03701
 O618 O -0.04234 0.53151 1.02088
 O619 O 0.04819 0.51445 0.99132
 O620 O 0.05030 0.48664 1.00314
 O621 O 0.01053 0.51151 0.95106
 O622 O -0.01984 0.50163 0.94912
 O623 O 0.00674 0.55199 0.98947
 O624 O -0.00285 0.55343 1.01969
 O625 O 0.03490 0.53854 1.00293
 O626 O 0.01807 0.54261 1.03107
 O627 O -0.00331 0.53918 0.96446
 O628 O -0.03142 0.52255 0.96006
 O629 O 0.03540 0.50151 0.96413
 O630 O 0.03648 0.47229 0.97862
 O631 O -0.05062 0.48996 1.00820
 O632 O -0.05250 0.51986 0.99812
 O633 O -0.01335 0.49385 1.04988
 O634 O 0.01697 0.50569 1.05062
 O635 O -0.00936 0.45294 1.01177
 O636 O 0.00372 0.45293 0.98193
 Zr637 Zr -0.01118 0.47349 0.99345
 O638 O 0.00454 0.48907 0.97686
 Zr639 Zr 0.00525 0.49208 1.02940
 O640 O 0.02195 0.50810 1.01427
 Zr641 Zr -0.03041 0.50865 1.01061
 O642 O -0.01533 0.52573 0.99496
 Zr643 Zr 0.02765 0.49611 0.99010
 O644 O 0.01280 0.47895 1.00621
 Zr645 Zr -0.00802 0.51295 0.97158
 O646 O -0.02479 0.49649 0.98645
 Zr647 Zr 0.00860 0.53122 1.00753
 O648 O -0.00757 0.51599 1.02430
 O649 O -0.01809 0.48529 1.01713
 O650 O 0.01554 0.51976 0.98366
 C651 C -0.05104 0.47408 1.00248
 C652 C -0.00314 0.45212 1.02744
 C653 C -0.02932 0.49934 1.05042
 C654 C 0.04840 0.53041 0.99677
 C655 C 0.02677 0.50693 0.95070
 C656 C 0.00202 0.55252 0.97329
 H657 H 0.00720 0.48244 0.96600
 H658 H -0.02217 0.53650 0.99269
 H659 H -0.02551 0.47763 1.02457
 H660 H 0.03285 0.51047 1.02091
 H661 H 0.04689 0.47546 1.00881
 H662 H 0.03746 0.48387 1.03577
 H663 H -0.03527 0.53292 0.96686
 H664 H -0.05315 0.51451 0.98627
 H665 H 0.04836 0.47436 0.97363
 H666 H -0.00270 0.44172 0.98353
 H667 H -0.01457 0.55518 1.01438
 H668 H -0.03391 0.53657 1.02939
 H669 H -0.03012 0.47159 0.96533
 H670 H -0.01395 0.49029 0.94686
 H671 H 0.00993 0.51643 1.05258
 H672 H 0.02865 0.53603 1.03472
 O673 O 0.00881 0.45119 0.51461
 O674 O -0.00310 0.44875 0.48673
 O675 O 0.05052 0.48906 0.50741
 O676 O 0.05345 0.51693 0.49967
 O677 O 0.01369 0.49384 0.55134
 O678 O -0.01559 0.50449 0.55352
 O679 O 0.00268 0.53523 0.46348
 O680 O 0.02891 0.52064 0.46019
 O681 O -0.03711 0.49777 0.46687
 O682 O -0.04170 0.47098 0.48421
 O683 O -0.03505 0.53754 0.50402
 O684 O -0.01780 0.54333 0.53024
 O685 O -0.00817 0.54888 0.48780
 O686 O 0.00427 0.55177 0.51841
 O687 O -0.04881 0.51288 0.49452
 O688 O -0.05025 0.48239 0.50637
 O689 O -0.01298 0.50823 0.45271
 O690 O 0.01595 0.49323 0.45152
 O691 O -0.00222 0.46497 0.53877
 O692 O -0.02822 0.48223 0.54387
 O693 O 0.03782 0.50440 0.53727
 O694 O 0.04049 0.53152 0.51926
 O695 O 0.03683 0.46397 0.49885
 O696 O 0.01947 0.46120 0.47143
 Zr697 Zr 0.01035 0.47132 0.49579
 O698 O -0.00622 0.48599 0.47925
 Zr699 Zr 0.02999 0.50720 0.51090
 O700 O 0.01461 0.52328 0.49457
 Zr701 Zr -0.00518 0.49141 0.53132
 O702 O -0.02217 0.50717 0.51627
 Zr703 Zr 0.00648 0.50938 0.47222
 O704 O 0.02389 0.49395 0.48739
 Zr705 Zr -0.02878 0.49396 0.49297
 O706 O -0.01326 0.47741 0.50895
 Zr707 Zr -0.00882 0.52973 0.50769
 O708 O 0.00744 0.51509 0.52486
 O709 O 0.01790 0.48409 0.51873
 O710 O -0.01666 0.51703 0.48481
 C711 C 0.00319 0.45122 0.53057
 C712 C 0.05062 0.47282 0.50284
 C713 C 0.02966 0.49933 0.55118
 C714 C -0.00332 0.54878 0.47159
 C715 C -0.02911 0.50330 0.45304
 C716 C -0.04877 0.52914 0.49895
 H717 H -0.00914 0.47896 0.46873
 H718 H -0.03265 0.51011 0.52336
 H719 H 0.02559 0.47674 0.52618
 H720 H 0.02145 0.53379 0.49121
 H721 H 0.03887 0.51266 0.46265
 H722 H 0.05018 0.52230 0.48832
 H723 H -0.05285 0.48967 0.51682
 H724 H -0.03361 0.47358 0.53581
 H725 H 0.01490 0.49987 0.44037
 H726 H 0.02554 0.44988 0.47357
 H727 H -0.02676 0.53593 0.53603
 H728 H -0.01032 0.51636 0.55357
 H729 H -0.01504 0.44916 0.49189
 H730 H -0.03473 0.46598 0.47443
 H731 H 0.03317 0.53558 0.52923
 H732 H 0.01422 0.55471 0.51057
 O733 O 0.50920 0.95008 0.01283
 O734 O 0.49756 0.94803 -0.01520
 O735 O 0.55105 0.98766 0.00736
 O736 O 0.55412 1.01542 -0.00128
 O737 O 0.51375 0.99234 0.05021
 O738 O 0.48435 1.00294 0.05209
 O739 O 0.50395 1.03484 -0.03718
 O740 O 0.53021 1.02022 -0.04032
 O741 O 0.46410 0.99725 -0.03496
 O742 O 0.45931 0.97020 -0.01778
 O743 O 0.46541 1.03645 0.00347
 O744 O 0.48292 1.04195 0.02960
 O745 O 0.49237 1.04809 -0.01296
 O746 O 0.50467 1.05082 0.01765
 O747 O 0.45219 1.01228 -0.00788
 O748 O 0.45016 0.98183 0.00414
 O749 O 0.48837 1.00807 -0.04860
 O750 O 0.51728 0.99301 -0.04962
 O751 O 0.49796 0.96359 0.03705
 O752 O 0.47194 0.98073 0.04205
 O753 O 0.53799 1.00317 0.03656
 O754 O 0.54122 1.03014 0.01893
 O755 O 0.53744 0.96311 -0.00268
 O756 O 0.52029 0.96054 -0.03012
 Zr757 Zr 0.51099 0.97044 -0.00572
 O758 O 0.49473 0.98538 -0.02231
 Zr759 Zr 0.53058 1.00604 0.01011
 O760 O 0.51538 1.02242 -0.00612
 Zr761 Zr 0.49511 0.99012 0.02990
 O762 O 0.47831 1.00607 0.01482
 Zr763 Zr 0.50757 1.00885 -0.02880
 O764 O 0.52472 0.99313 -0.01364
 Zr765 Zr 0.47203 0.99320 -0.00877
 O766 O 0.48727 0.97644 0.00724
 Zr767 Zr 0.49177 1.02874 0.00677
 O768 O 0.50786 1.01384 0.02388
 O769 O 0.51830 0.98288 0.01748
 O770 O 0.48428 1.01636 -0.01641
 C771 C 0.50342 0.94992 0.02874
 C772 C 0.55119 0.97160 0.00214
 C773 C 0.52968 0.99796 0.05032
 C774 C 0.49761 1.04822 -0.02906
 C775 C 0.47225 1.00308 -0.04856
 C776 C 0.45198 1.02828 -0.00264
 H777 H 0.49194 0.97851 -0.03298
 H778 H 0.46773 1.00891 0.02181
 H779 H 0.52586 0.97543 0.02497
 H780 H 0.52224 1.03298 -0.00925
 H781 H 0.54011 1.01218 -0.03781
 H782 H 0.55078 1.02208 -0.01189
 H783 H 0.44737 0.98913 0.01452
 H784 H 0.46646 0.97249 0.03362
 H785 H 0.51640 0.99983 -0.06067
 H786 H 0.52628 0.94917 -0.02805
 H787 H 0.47383 1.03454 0.03518
 H788 H 0.48985 1.01470 0.05255
 H789 H 0.48561 0.94835 -0.01006
 H790 H 0.46623 0.96546 -0.02771
 H791 H 0.53345 1.03444 0.02845
 H792 H 0.51475 1.05376 0.00997
 O793 O 0.48911 0.50599 0.04869
 O794 O 0.51722 0.49426 0.05066
 O795 O 0.49450 0.54728 0.01058
 O796 O 0.50314 0.54998 -0.01734
 O797 O 0.45165 0.51006 0.00644
 O798 O 0.44982 0.48054 -0.00387
 O799 O 0.53869 0.49996 -0.03667
 O800 O 0.54199 0.52622 -0.02189
 O801 O 0.53698 0.46050 0.00203
 O802 O 0.51965 0.45589 0.02891
 O803 O 0.49844 0.46126 -0.03749
 O804 O 0.47192 0.47867 -0.04279
 O805 O 0.51447 0.48818 -0.04962
 O806 O 0.48392 0.50004 -0.05231
 O807 O 0.50994 0.44836 -0.01321
 O808 O 0.49780 0.44666 0.01741
 O809 O 0.55006 0.48416 -0.01056
 O810 O 0.55168 0.51295 0.00501
 O811 O 0.46489 0.49466 0.03533
 O812 O 0.45985 0.46851 0.01857
 O813 O 0.46529 0.53414 -0.00462
 O814 O 0.48271 0.53710 -0.03176
 O815 O 0.50462 0.53395 0.03527
 O816 O 0.53206 0.51685 0.03783
 Zr817 Zr 0.50765 0.50747 0.02816
 O818 O 0.52422 0.49110 0.01321
 Zr819 Zr 0.49169 0.52665 -0.00763
 O820 O 0.50780 0.51127 -0.02404
 Zr821 Zr 0.47198 0.49145 0.00878
 O822 O 0.48704 0.47446 -0.00707
 Zr823 Zr 0.53052 0.50360 -0.01054
 O824 O 0.51547 0.52090 0.00521
 Zr825 Zr 0.51069 0.46835 0.00576
 O826 O 0.49468 0.48376 0.02246
 Zr827 Zr 0.49491 0.48763 -0.03001
 O828 O 0.47790 0.50393 -0.01515
 O829 O 0.48441 0.51466 0.01573
 O830 O 0.51814 0.48029 -0.01768
 C831 C 0.47318 0.50028 0.04894
 C832 C 0.49976 0.54758 0.02664
 C833 C 0.45155 0.52593 0.00073
 C834 C 0.53052 0.49350 -0.04997
 C835 C 0.55028 0.46831 -0.00487
 C836 C 0.50469 0.44797 -0.02923
 H837 H 0.53494 0.48838 0.02001
 H838 H 0.48008 0.46385 -0.00976
 H839 H 0.47695 0.52230 0.02316
 H840 H 0.51084 0.51801 -0.03472
 H841 H 0.53961 0.53605 -0.01371
 H842 H 0.51368 0.54650 -0.02411
 H843 H 0.48752 0.44369 0.01006
 H844 H 0.46836 0.46304 0.02671
 H845 H 0.56261 0.51188 -0.00203
 H846 H 0.53003 0.52290 0.04921
 H847 H 0.46671 0.46933 -0.03544
 H848 H 0.44931 0.48591 -0.01570
 H849 H 0.51181 0.48245 0.05068
 H850 H 0.52935 0.46303 0.03377
 H851 H 0.47326 0.52925 -0.03600
 H852 H 0.49124 0.51039 -0.05513
 O853 O -0.01143 0.00772 0.54877
 O854 O 0.01667 -0.00403 0.55049
 O855 O -0.00633 0.04923 0.51086
 O856 O 0.00224 0.05210 0.48294
 O857 O -0.04914 0.01202 0.50678
 O858 O -0.05101 -0.01743 0.49626
 O859 O 0.03770 0.00204 0.46307
 O860 O 0.04099 0.02834 0.47786
 O861 O 0.03619 -0.03751 0.50142
 O862 O 0.01913 -0.04223 0.52849
 O863 O -0.00264 -0.03654 0.46229
 O864 O -0.02917 -0.01903 0.45725
 O865 O 0.01337 -0.00958 0.45021
 O866 O -0.01715 0.00230 0.44771
 O867 O 0.00886 -0.04959 0.48648
 O868 O -0.00283 -0.05140 0.51719
 O869 O 0.04925 -0.01367 0.48919
 O870 O 0.05083 0.01507 0.50472
 O871 O -0.03568 -0.00362 0.53547
 O872 O -0.04089 -0.02958 0.51855
 O873 O -0.03560 0.03612 0.49562
 O874 O -0.01828 0.03932 0.46851
 O875 O 0.00408 0.03577 0.53536
 O876 O 0.03146 0.01862 0.53772
 Zr877 Zr 0.00699 0.00933 0.52812
 O878 O 0.02348 -0.00695 0.51297
 Zr879 Zr -0.00918 0.02871 0.49254
 O880 O 0.00683 0.01342 0.47593
 Zr881 Zr -0.02878 -0.00659 0.50885
 O882 O -0.01381 -0.02349 0.49283
 Zr883 Zr 0.02964 0.00568 0.48925
 O884 O 0.01467 0.02288 0.50520
 Zr885 Zr 0.00993 -0.02966 0.50548
 O886 O -0.00600 -0.01436 0.52236
 Zr887 Zr -0.00607 -0.01019 0.46992
 O888 O -0.02300 0.00602 0.48497
 O889 O -0.01633 0.01659 0.51588
 O890 O 0.01723 -0.01761 0.48206
 C891 C -0.02732 0.00190 0.54908
 C892 C -0.00086 0.04945 0.52686
 C893 C -0.04930 0.02788 0.50103
 C894 C 0.02944 -0.00434 0.44979
 C895 C 0.04950 -0.02960 0.49466
 C896 C 0.00351 -0.04991 0.47050
 H897 H 0.03424 -0.00969 0.51970
 H898 H -0.02079 -0.03408 0.49014
 H899 H -0.02376 0.02418 0.52339
 H900 H 0.00982 0.02021 0.46527
 H901 H 0.03866 0.03815 0.48607
 H902 H 0.01267 0.04866 0.47599
 H903 H -0.01326 -0.05425 0.51000
 H904 H -0.03235 -0.03511 0.52662
 H905 H 0.06174 0.01408 0.49763
 H906 H 0.02950 0.02459 0.54916
 H907 H -0.03432 -0.02845 0.46456
 H908 H -0.05161 -0.01196 0.48448
 H909 H 0.01132 -0.01586 0.55042
 H910 H 0.02889 -0.03514 0.53326
 H911 H -0.02767 0.03143 0.46421
 H912 H -0.00986 0.01268 0.44492
 O913 O 0.78631 0.24883 0.21283
 O914 O 0.77078 0.22321 0.20820
 O915 O 0.74671 0.28892 0.21498
 O916 O 0.72260 0.29478 0.23067
 O917 O 0.78723 0.28671 0.25447
 O918 O 0.79127 0.26920 0.28010
 O919 O 0.70020 0.24280 0.26086
 O920 O 0.69863 0.25560 0.23370
 O921 O 0.73709 0.20183 0.25688
 O922 O 0.76729 0.19956 0.24590
 O923 O 0.74112 0.23711 0.29868
 O924 O 0.75149 0.26682 0.30222
 O925 O 0.71354 0.25195 0.28600
 O926 O 0.73096 0.27956 0.29178
 O927 O 0.75217 0.21328 0.28461
 O928 O 0.77961 0.20918 0.26704
 O929 O 0.71276 0.21575 0.24675
 O930 O 0.71216 0.23180 0.21823
 O931 O 0.79949 0.25859 0.23784
 O932 O 0.80102 0.24684 0.26731
 O933 O 0.76293 0.30062 0.24420
 O934 O 0.73269 0.30130 0.25608
 O935 O 0.75773 0.26504 0.20083
 O936 O 0.74497 0.23528 0.19928
 Zr937 Zr 0.75987 0.24568 0.22043
 O938 O 0.74386 0.22850 0.23503
 Zr939 Zr 0.74403 0.28069 0.24124
 O940 O 0.72699 0.26496 0.25629
 Zr941 Zr 0.77926 0.26037 0.25668
 O942 O 0.76384 0.24404 0.27284
 Zr943 Zr 0.72097 0.24176 0.24275
 O944 O 0.73615 0.25857 0.22664
 Zr945 Zr 0.75625 0.22167 0.25863
 O946 O 0.77328 0.23714 0.24306
 Zr947 Zr 0.74002 0.25655 0.27908
 O948 O 0.75659 0.27390 0.26489
 O949 O 0.76715 0.26843 0.23364
 O950 O 0.73281 0.23365 0.26607
 C951 C 0.79987 0.25379 0.22162
 C952 C 0.75208 0.28092 0.20108
 C953 C 0.77893 0.30055 0.24957
 C954 C 0.69997 0.24702 0.27722
 C955 C 0.72091 0.20200 0.25207
 C956 C 0.74631 0.22108 0.29839
 H957 H 0.74100 0.21809 0.22783
 H958 H 0.77062 0.24100 0.28347
 H959 H 0.77470 0.27613 0.22637
 H960 H 0.71621 0.27167 0.25902
 H961 H 0.70233 0.26197 0.22297
 H962 H 0.71187 0.28808 0.23360
 H963 H 0.78388 0.21543 0.27759
 H964 H 0.80181 0.23553 0.26096
 H965 H 0.70026 0.22678 0.21998
 H966 H 0.75135 0.23749 0.18811
 H967 H 0.76320 0.26136 0.30351
 H968 H 0.78283 0.27732 0.28575
 H969 H 0.77807 0.21725 0.21714
 H970 H 0.76102 0.19789 0.23465
 H971 H 0.73964 0.30237 0.26701
 H972 H 0.72036 0.28367 0.28551
 O973 O 0.75135 0.71059 0.71505
 O974 O 0.77774 0.70728 0.73010
 O975 O 0.71227 0.71325 0.75547
 O976 O 0.70685 0.72954 0.77934
 O977 O 0.71245 0.75148 0.71370
 O978 O 0.72947 0.77708 0.70805
 O979 O 0.75884 0.76215 0.79896
 O980 O 0.74634 0.73478 0.80204
 O981 O 0.79892 0.75681 0.76101
 O982 O 0.80043 0.74541 0.73110
 O983 O 0.76244 0.79806 0.75679
 O984 O 0.73217 0.80042 0.74657
 O985 O 0.74803 0.78617 0.78498
 O986 O 0.72031 0.79088 0.76800
 O987 O 0.78641 0.78414 0.74576
 O988 O 0.79011 0.76598 0.71857
 O989 O 0.78565 0.74819 0.78635
 O990 O 0.77034 0.71935 0.78857
 O991 O 0.74121 0.73496 0.70106
 O992 O 0.75167 0.76455 0.69811
 O993 O 0.69956 0.74123 0.73861
 O994 O 0.69922 0.75440 0.76829
 O995 O 0.73621 0.69937 0.74421
 O996 O 0.76620 0.69890 0.75648
 Zr997 Zr 0.75512 0.71927 0.74105
 O998 O 0.77236 0.73481 0.75604
 Zr999 Zr 0.72001 0.73970 0.75707
 O1000 O 0.73579 0.75579 0.77306
 Zr1001 Zr 0.73908 0.75435 0.72069
 O1002 O 0.75550 0.77138 0.73501
 Zr1003 Zr 0.75952 0.74315 0.77900
 O1004 O 0.74272 0.72603 0.76492
 Zr1005 Zr 0.77840 0.75798 0.74253
 O1006 O 0.76280 0.74151 0.72654
 Zr1007 Zr 0.74334 0.77819 0.75888
 O1008 O 0.72589 0.76298 0.74343
 O1009 O 0.73187 0.73165 0.73387
 O1010 O 0.76678 0.76608 0.76597
 C1011 C 0.74625 0.71884 0.70121
 C1012 C 0.72041 0.69943 0.75020
 C1013 C 0.69899 0.74628 0.72252
 C1014 C 0.75387 0.77826 0.79871
 C1015 C 0.79918 0.75296 0.77745
 C1016 C 0.77845 0.79790 0.75138
 H1017 H 0.78301 0.72794 0.75887
 H1018 H 0.75817 0.78181 0.72778
 H1019 H 0.72417 0.72397 0.72675
 H1020 H 0.72927 0.75879 0.78390
 H1021 H 0.74021 0.72373 0.79899
 H1022 H 0.71353 0.73340 0.78977
 H1023 H 0.78370 0.77642 0.71430
 H1024 H 0.76335 0.75887 0.69746
 H1025 H 0.77553 0.72171 0.80028
 H1026 H 0.76422 0.68752 0.75047
 H1027 H 0.73799 0.80187 0.73503
 H1028 H 0.72161 0.78297 0.71659
 H1029 H 0.78298 0.71585 0.72184
 H1030 H 0.80233 0.73428 0.73748
 H1031 H 0.69769 0.76497 0.76091
 H1032 H 0.71615 0.78455 0.77856
 O1033 O 0.28752 0.21607 0.74682
 O1034 O 0.29060 0.23183 0.72068
 O1035 O 0.28646 0.25568 0.78684
 O1036 O 0.27042 0.27932 0.79346
 O1037 O 0.24707 0.21444 0.78653
 O1038 O 0.22113 0.20965 0.76968
 O1039 O 0.23725 0.30080 0.74249
 O1040 O 0.26486 0.30313 0.75473
 O1041 O 0.24090 0.26424 0.70149
 O1042 O 0.25240 0.23421 0.69888
 O1043 O 0.20046 0.25931 0.73847
 O1044 O 0.19863 0.24829 0.76872
 O1045 O 0.21311 0.28692 0.75334
 O1046 O 0.20843 0.26950 0.78061
 O1047 O 0.21392 0.24874 0.71401
 O1048 O 0.23159 0.22171 0.70905
 O1049 O 0.25094 0.28873 0.71518
 O1050 O 0.27988 0.29013 0.73017
 O1051 O 0.26312 0.20226 0.75729
 O1052 O 0.23334 0.20003 0.74712
 O1053 O 0.25821 0.23871 0.79979
 O1054 O 0.24556 0.26846 0.80120
 O1055 O 0.29948 0.24417 0.76253
 O1056 O 0.29984 0.25757 0.73299
 Zr1057 Zr 0.27924 0.24224 0.74389
 O1058 O 0.26371 0.25799 0.72738
 Zr1059 Zr 0.25974 0.25765 0.77982
 O1060 O 0.24357 0.27424 0.76480
 Zr1061 Zr 0.24403 0.22210 0.76009
 O1062 O 0.22698 0.23711 0.74434
 Zr1063 Zr 0.25599 0.28064 0.74103
 O1064 O 0.27318 0.26583 0.75706
 Zr1065 Zr 0.24018 0.24507 0.72141
 O1066 O 0.25659 0.22835 0.73627
 Zr1067 Zr 0.22075 0.26067 0.75726
 O1068 O 0.23606 0.24458 0.77402
 O1069 O 0.26713 0.23468 0.76721
 O1070 O 0.23267 0.26822 0.73382
 C1071 C 0.27918 0.20230 0.75193
 C1072 C 0.29996 0.24998 0.77837
 C1073 C 0.25272 0.22278 0.80009
 C1074 C 0.22116 0.30065 0.74770
 C1075 C 0.24537 0.28050 0.70155
 C1076 C 0.20032 0.25428 0.72233
 H1077 H 0.27047 0.26103 0.71669
 H1078 H 0.21638 0.23012 0.74168
 H1079 H 0.27479 0.22725 0.77461
 H1080 H 0.24085 0.28492 0.77165
 H1081 H 0.27597 0.29977 0.76058
 H1082 H 0.26661 0.28998 0.78715
 H1083 H 0.22145 0.21716 0.71578
 H1084 H 0.23886 0.19962 0.73534
 H1085 H 0.27768 0.30202 0.72539
 H1086 H 0.31112 0.25123 0.73456
 H1087 H 0.19661 0.23717 0.76233
 H1088 H 0.21552 0.21802 0.77791
 H1089 H 0.28178 0.22388 0.71541
 H1090 H 0.26335 0.24084 0.69668
 H1091 H 0.23480 0.26130 0.80264
 H1092 H 0.21521 0.27961 0.78510
 O1093 O 0.21334 0.74573 0.28409
 O1094 O 0.22929 0.72021 0.28828
 O1095 O 0.25240 0.78626 0.28154
 O1096 O 0.27616 0.79248 0.26555
 O1097 O 0.21134 0.78367 0.24249
 O1098 O 0.20701 0.76604 0.21698
 O1099 O 0.29860 0.74039 0.23430
 O1100 O 0.30068 0.75369 0.26141
 O1101 O 0.26238 0.69940 0.23912
 O1102 O 0.23242 0.69672 0.25039
 O1103 O 0.25737 0.73485 0.19750
 O1104 O 0.24623 0.76455 0.19438
 O1105 O 0.28477 0.75028 0.20976
 O1106 O 0.26690 0.77736 0.20427
 O1107 O 0.24681 0.71080 0.21154
 O1108 O 0.21964 0.70630 0.22952
 O1109 O 0.28666 0.71358 0.24901
 O1110 O 0.28769 0.72979 0.27735
 O1111 O 0.19967 0.75546 0.25936
 O1112 O 0.19772 0.74365 0.22997
 O1113 O 0.23561 0.79789 0.25244
 O1114 O 0.26569 0.79897 0.24031
 O1115 O 0.24184 0.76220 0.29569
 O1116 O 0.25507 0.73264 0.29688
 Zr1117 Zr 0.23969 0.74289 0.27602
 O1118 O 0.25568 0.72598 0.26105
 Zr1119 Zr 0.25477 0.77817 0.25518
 O1120 O 0.27174 0.76273 0.23973
 Zr1121 Zr 0.21953 0.75743 0.24019
 O1122 O 0.23486 0.74135 0.22368
 Zr1123 Zr 0.27829 0.73953 0.25299
 O1124 O 0.26317 0.75607 0.26948
 Zr1125 Zr 0.24298 0.71903 0.23763
 O1126 O 0.22602 0.73423 0.25358
 Zr1127 Zr 0.25838 0.75425 0.21714
 O1128 O 0.24188 0.77132 0.23172
 O1129 O 0.23192 0.76560 0.26306
 O1130 O 0.26611 0.73137 0.22984
 C1131 C 0.19960 0.75064 0.27556
 C1132 C 0.24731 0.77815 0.29547
 C1133 C 0.21956 0.79761 0.24721
 C1134 C 0.29851 0.74502 0.21805
 C1135 C 0.27860 0.69973 0.24382
 C1136 C 0.25242 0.71874 0.19775
 H1137 H 0.25878 0.71559 0.26817
 H1138 H 0.22795 0.73826 0.21314
 H1139 H 0.22440 0.77321 0.27046
 H1140 H 0.28240 0.76956 0.23683
 H1141 H 0.29721 0.75996 0.27228
 H1142 H 0.28694 0.78599 0.26236
 H1143 H 0.21515 0.71250 0.21904
 H1144 H 0.19723 0.73230 0.23625
 H1145 H 0.29965 0.72501 0.27542
 H1146 H 0.24883 0.73470 0.30816
 H1147 H 0.23484 0.75848 0.19291
 H1148 H 0.21528 0.77420 0.21114
 H1149 H 0.22178 0.71429 0.27949
 H1150 H 0.23873 0.69523 0.26164
 H1151 H 0.25860 0.80000 0.22947
 H1152 H 0.27735 0.78182 0.21057
 O1153 O 0.23462 0.70351 0.75854
 O1154 O 0.26282 0.70145 0.74700
 O1155 O 0.24059 0.74104 0.80065
 O1156 O 0.24788 0.76907 0.80390
 O1157 O 0.19733 0.74625 0.76275
 O1158 O 0.19585 0.75634 0.73340
 O1159 O 0.28500 0.78808 0.75390
 O1160 O 0.28779 0.77323 0.78023
 O1161 O 0.28308 0.75056 0.71393
 O1162 O 0.26606 0.72405 0.70857
 O1163 O 0.24527 0.79024 0.71541
 O1164 O 0.21855 0.79555 0.73245
 O1165 O 0.26073 0.80181 0.74324
 O1166 O 0.22993 0.80422 0.75446
 O1167 O 0.25542 0.76577 0.70173
 O1168 O 0.24389 0.73512 0.69991
 O1169 O 0.29625 0.76196 0.73815
 O1170 O 0.29724 0.74623 0.76683
 O1171 O 0.21048 0.71715 0.74742
 O1172 O 0.20614 0.73428 0.72108
 O1173 O 0.21078 0.75589 0.78759
 O1174 O 0.22824 0.78338 0.79074
 O1175 O 0.24961 0.71616 0.78683
 O1176 O 0.27746 0.71389 0.77005
 Zr1177 Zr 0.25322 0.72379 0.76050
 O1178 O 0.27001 0.73877 0.74439
 Zr1179 Zr 0.23726 0.75931 0.78019
 O1180 O 0.25376 0.77573 0.76526
 Zr1181 Zr 0.21789 0.74363 0.74444
 O1182 O 0.23319 0.75970 0.72791
 Zr1183 Zr 0.27643 0.76217 0.75739
 O1184 O 0.26105 0.74641 0.77440
 Zr1185 Zr 0.25675 0.74675 0.72164
 O1186 O 0.24057 0.72990 0.73669
 Zr1187 Zr 0.24118 0.78228 0.74161
 O1188 O 0.22381 0.76728 0.75741
 O1189 O 0.22998 0.73625 0.76772
 O1190 O 0.26434 0.76987 0.73406
 C1191 C 0.21870 0.70344 0.75288
 C1192 C 0.24525 0.72483 0.80065
 C1193 C 0.19709 0.75123 0.77888
 C1194 C 0.27687 0.80173 0.74826
 C1195 C 0.29649 0.75678 0.72209
 C1196 C 0.25063 0.78192 0.70172
 H1197 H 0.28069 0.73191 0.74163
 H1198 H 0.22630 0.76261 0.71732
 H1199 H 0.22241 0.72879 0.77522
 H1200 H 0.25685 0.78620 0.77227
 H1201 H 0.28528 0.76502 0.78999
 H1202 H 0.25925 0.77454 0.80087
 H1203 H 0.23344 0.74231 0.69716
 H1204 H 0.21433 0.72554 0.71602
 H1205 H 0.30827 0.75310 0.76600
 H1206 H 0.27530 0.70246 0.77590
 H1207 H 0.21335 0.78839 0.72295
 H1208 H 0.19563 0.76831 0.73844
 H1209 H 0.25766 0.70173 0.73507
 H1210 H 0.27530 0.71874 0.71597
 H1211 H 0.21838 0.78732 0.78325
 H1212 H 0.23699 0.80668 0.76507
 O1213 O 0.25388 0.21166 0.21565
 O1214 O 0.27984 0.20812 0.23129
 O1215 O 0.21383 0.21456 0.25509
 O1216 O 0.20774 0.23087 0.27870
 O1217 O 0.21543 0.25303 0.21337
 O1218 O 0.23295 0.27839 0.20822
 O1219 O 0.25979 0.26291 0.29984
 O1220 O 0.24668 0.23578 0.30259
 O1221 O 0.30054 0.25777 0.26326
 O1222 O 0.30294 0.24603 0.23339
 O1223 O 0.26454 0.29893 0.25791
 O1224 O 0.23461 0.30156 0.24700
 O1225 O 0.24949 0.28705 0.28568
 O1226 O 0.22211 0.29196 0.26806
 O1227 O 0.28869 0.28495 0.24740
 O1228 O 0.29312 0.26666 0.22045
 O1229 O 0.28661 0.24824 0.28789
 O1230 O 0.27068 0.21986 0.28964
 O1231 O 0.24429 0.23613 0.20146
 O1232 O 0.25526 0.26560 0.19888
 O1233 O 0.20181 0.24275 0.23789
 O1234 O 0.20079 0.25582 0.26760
 O1235 O 0.23792 0.20049 0.24442
 O1236 O 0.26764 0.19975 0.25736
 Zr1237 Zr 0.25706 0.22024 0.24175
 O1238 O 0.27402 0.23559 0.25727
 Zr1239 Zr 0.22171 0.24094 0.25689
 O1240 O 0.23717 0.25681 0.27337
 Zr1241 Zr 0.24191 0.25552 0.22107
 O1242 O 0.25805 0.27237 0.23593
 Zr1243 Zr 0.26059 0.24390 0.27989
 O1244 O 0.24405 0.22701 0.26529
 Zr1245 Zr 0.28064 0.25879 0.24406
 O1246 O 0.26536 0.24249 0.22756
 Zr1247 Zr 0.24529 0.27918 0.25948
 O1248 O 0.22817 0.26419 0.24347
 O1249 O 0.23412 0.23284 0.23398
 O1250 O 0.26841 0.26684 0.26718
 C1251 C 0.24916 0.21997 0.20171
 C1252 C 0.22199 0.20067 0.25005
 C1253 C 0.20170 0.24793 0.22182
 C1254 C 0.25503 0.27908 0.29950
 C1255 C 0.30038 0.25338 0.27958
 C1256 C 0.28065 0.29873 0.25284
 H1257 H 0.28452 0.22862 0.26037
 H1258 H 0.26099 0.28280 0.22880
 H1259 H 0.22653 0.22526 0.22665
 H1260 H 0.23040 0.25983 0.28406
 H1261 H 0.24045 0.22484 0.29940
 H1262 H 0.21418 0.23455 0.28934
 H1263 H 0.28680 0.27703 0.21589
 H1264 H 0.26685 0.25972 0.19850
 H1265 H 0.27554 0.22204 0.30153
 H1266 H 0.26569 0.18840 0.25128
 H1267 H 0.24068 0.30298 0.23559
 H1268 H 0.22490 0.28434 0.21654
 H1269 H 0.28548 0.21677 0.22340
 H1270 H 0.30464 0.23496 0.23993
 H1271 H 0.19955 0.26642 0.26020
 H1272 H 0.21777 0.28577 0.27862
 O1273 O 0.74489 0.71414 0.28607
 O1274 O 0.71878 0.71050 0.27042
 O1275 O 0.78472 0.71414 0.24585
 O1276 O 0.79094 0.72948 0.22159
 O1277 O 0.78475 0.75452 0.28611
 O1278 O 0.76772 0.78052 0.29045
 O1279 O 0.73995 0.76209 0.19982
 O1280 O 0.75223 0.73448 0.19810
 O1281 O 0.69915 0.75914 0.23697
 O1282 O 0.69698 0.74839 0.26748
 O1283 O 0.73603 0.79977 0.24070
 O1284 O 0.76649 0.80181 0.25144
 O1285 O 0.75070 0.78653 0.21316
 O1286 O 0.77797 0.79182 0.23007
 O1287 O 0.71170 0.78658 0.25182
 O1288 O 0.70693 0.76967 0.27919
 O1289 O 0.71274 0.74864 0.21254
 O1290 O 0.72781 0.71980 0.21165
 O1291 O 0.75609 0.73865 0.29898
 O1292 O 0.74536 0.76827 0.30075
 O1293 O 0.79775 0.74268 0.26196
 O1294 O 0.79890 0.75458 0.23191
 O1295 O 0.76061 0.70141 0.25806
 O1296 O 0.73098 0.70064 0.24483
 Zr1297 Zr 0.74189 0.72162 0.25958
 O1298 O 0.72522 0.73669 0.24353
 Zr1299 Zr 0.77761 0.74073 0.24324
 O1300 O 0.76241 0.75647 0.22642
 Zr1301 Zr 0.75821 0.75727 0.27868
 O1302 O 0.74220 0.77386 0.26344
 Zr1303 Zr 0.73866 0.74388 0.22052
 O1304 O 0.75481 0.72709 0.23564
 Zr1305 Zr 0.71925 0.76047 0.25598
 O1306 O 0.73435 0.74457 0.27300
 Zr1307 Zr 0.75488 0.77954 0.23957
 O1308 O 0.77189 0.76468 0.25582
 O1309 O 0.76525 0.73393 0.26656
 O1310 O 0.73143 0.76743 0.23248
 C1311 C 0.75056 0.72270 0.29951
 C1312 C 0.77640 0.70082 0.25207
 C1313 C 0.79821 0.74857 0.27777
 C1314 C 0.74507 0.77817 0.19960
 C1315 C 0.69912 0.75426 0.22078
 C1316 C 0.71995 0.80003 0.24592
 H1317 H 0.71455 0.72984 0.24075
 H1318 H 0.73956 0.78459 0.27022
 H1319 H 0.77275 0.72648 0.27411
 H1320 H 0.76916 0.75896 0.21559
 H1321 H 0.75815 0.72349 0.20169
 H1322 H 0.78474 0.73334 0.21087
 H1323 H 0.71394 0.77961 0.28372
 H1324 H 0.73366 0.76263 0.30143
 H1325 H 0.72296 0.72170 0.19971
 H1326 H 0.73267 0.68956 0.25144
 H1327 H 0.76002 0.80425 0.26246
 H1328 H 0.77597 0.78585 0.28191
 H1329 H 0.71353 0.71948 0.27823
 H1330 H 0.69460 0.73743 0.26094
 H1331 H 0.80029 0.76555 0.23873
 H1332 H 0.78260 0.78462 0.22028
 O1333 O 0.75603 0.28407 0.78359
 O1334 O 0.78162 0.28744 0.76715
 O1335 O 0.71503 0.28237 0.74503
 O1336 O 0.70793 0.26622 0.72168
 O1337 O 0.71697 0.24355 0.78658
 O1338 O 0.73398 0.21771 0.79091
 O1339 O 0.75919 0.23366 0.69880
 O1340 O 0.74651 0.26094 0.69661
 O1341 O 0.80076 0.23783 0.73446
 O1342 O 0.80396 0.24919 0.76437
 O1343 O 0.76427 0.19708 0.74035
 O1344 O 0.73456 0.19480 0.75182
 O1345 O 0.74877 0.20953 0.71293
 O1346 O 0.72172 0.20487 0.73128
 O1347 O 0.78882 0.21068 0.75033
 O1348 O 0.79414 0.22855 0.77728
 O1349 O 0.78656 0.24786 0.71025
 O1350 O 0.77095 0.27644 0.70916
 O1351 O 0.74628 0.25969 0.79784
 O1352 O 0.75680 0.22997 0.79981
 O1353 O 0.70277 0.25371 0.76241
 O1354 O 0.70104 0.24135 0.73243
 O1355 O 0.73945 0.29569 0.75582
 O1356 O 0.76868 0.29626 0.74160
 Zr1357 Zr 0.75838 0.27571 0.75736
 O1358 O 0.77475 0.26029 0.74127
 Zr1359 Zr 0.72235 0.25578 0.74294
 O1360 O 0.73723 0.23983 0.72591
 Zr1361 Zr 0.74314 0.24053 0.77809
 O1362 O 0.75864 0.22357 0.76265
 Zr1363 Zr 0.76073 0.25242 0.71892
 O1364 O 0.74475 0.26941 0.73409
 Zr1365 Zr 0.78126 0.23688 0.75411
 O1366 O 0.76664 0.25326 0.77115
 Zr1367 Zr 0.74531 0.21717 0.73935
 O1368 O 0.72878 0.23229 0.75596
 O1369 O 0.73539 0.26342 0.76560
 O1370 O 0.76846 0.22923 0.73119
 C1371 C 0.75143 0.27577 0.79758
 C1372 C 0.72348 0.29596 0.75041
 C1373 C 0.70303 0.24853 0.77848
 C1374 C 0.75411 0.21758 0.69905
 C1375 C 0.80040 0.24246 0.71823
 C1376 C 0.78048 0.19704 0.74505
 H1377 H 0.78529 0.26716 0.73799
 H1378 H 0.76156 0.21303 0.76961
 H1379 H 0.72807 0.27102 0.77321
 H1380 H 0.73020 0.23704 0.71536
 H1381 H 0.74053 0.27196 0.70003
 H1382 H 0.71433 0.26298 0.71084
 H1383 H 0.78770 0.21829 0.78195
 H1384 H 0.76846 0.23572 0.80000
 H1385 H 0.77554 0.27431 0.69714
 H1386 H 0.76705 0.30756 0.74788
 H1387 H 0.74065 0.19334 0.76319
 H1388 H 0.72559 0.21203 0.78276
 H1389 H 0.78729 0.27869 0.77489
 H1390 H 0.80575 0.26027 0.75786
 H1391 H 0.69979 0.23064 0.73968
 H1392 H 0.71730 0.21118 0.72083
 C1393 C 0.09256 1.01351 1.16438
 C1394 C 0.10059 0.99895 1.17227
 C1395 C 0.10881 1.00052 1.18864
 C1396 C 0.10953 1.01682 1.19747
 C1397 C 0.10151 1.03138 1.18928
 C1398 C 0.09310 1.02970 1.17309
 C1399 C 0.08346 1.01191 1.14726
 N1400 N 0.07199 1.02448 1.14200
 N1401 N 0.06369 1.02316 1.12668
 C1402 C 0.06656 1.00926 1.11589
 N1403 N 0.07808 0.99669 1.12110
 N1404 N 0.08633 0.99796 1.13650
 C1405 C 0.05716 1.00790 1.09892
 C1406 C 0.06310 0.99657 1.08558
 C1407 C 0.05422 0.99561 1.06950
 C1408 C 0.03909 1.00575 1.06656
 C1409 C 0.03312 1.01697 1.07997
 C1410 C 0.04211 1.01811 1.09589
 H1411 H 0.10043 0.98627 1.16585
 H1412 H 0.11516 0.98899 1.19394
 H1413 H 0.10093 1.04407 1.19562
 H1414 H 0.08697 1.04119 1.16741
 H1415 H 0.07470 0.98859 1.08749
 H1416 H 0.05911 0.98682 1.05943
 H1417 H 0.02157 1.02504 1.07811
 H1418 H 0.03714 1.02692 1.10590
 C1419 C 0.59095 0.51091 0.66439
 C1420 C 0.60277 0.49789 0.67001
 C1421 C 0.61126 0.49939 0.68626
 C1422 C 0.60825 0.51403 0.69707
 C1423 C 0.59641 0.52698 0.69148
 C1424 C 0.58782 0.52541 0.67537
 C1425 C 0.58191 0.50954 0.64721
 N1426 N 0.56843 0.52050 0.64326
 N1427 N 0.56028 0.51945 0.62784
 C1428 C 0.56529 0.50744 0.61564
 N1429 N 0.57880 0.49647 0.61955
 N1430 N 0.58693 0.49748 0.63503
 C1431 C 0.55605 0.50635 0.59854
 C1432 C 0.56285 0.49628 0.58461
 C1433 C 0.55399 0.49537 0.56852
 C1434 C 0.53805 0.50437 0.56611
 C1435 C 0.53131 0.51445 0.58005
 C1436 C 0.54022 0.51548 0.59601
 H1437 H 0.60543 0.48653 0.66189
 H1438 H 0.62040 0.48927 0.69024
 H1439 H 0.59369 0.53829 0.69965
 H1440 H 0.57881 0.53568 0.67149
 H1441 H 0.57506 0.48914 0.58610
 H1442 H 0.55952 0.48748 0.55804
 H1443 H 0.51913 0.52165 0.57862
 H1444 H 0.53459 0.52336 0.60644
 C1445 C 0.40868 -0.00805 0.66501
 C1446 C 0.41719 -0.00296 0.68060
 C1447 C 0.40888 -0.00497 0.69688
 C1448 C 0.39198 -0.01230 0.69792
 C1449 C 0.38338 -0.01717 0.68235
 C1450 C 0.39159 -0.01498 0.66606
 C1451 C 0.41770 -0.00655 0.64780
 N1452 N 0.40863 -0.00838 0.63255
 N1453 N 0.41681 -0.00745 0.61708
 C1454 C 0.43443 -0.00475 0.61621
 N1455 N 0.44350 -0.00289 0.63146
 N1456 N 0.43531 -0.00373 0.64692
 C1457 C 0.44359 -0.00409 0.59901
 C1458 C 0.46200 -0.00522 0.59812
 C1459 C 0.47064 -0.00487 0.58190
 C1460 C 0.46108 -0.00317 0.56620
 C1461 C 0.44267 -0.00192 0.56710
 C1462 C 0.43402 -0.00247 0.58331
 H1463 H 0.43032 0.00249 0.68024
 H1464 H 0.41583 -0.00122 0.70870
 H1465 H 0.37028 -0.02270 0.68280
 H1466 H 0.38466 -0.01903 0.65433
 H1467 H 0.46977 -0.00654 0.60995
 H1468 H 0.48484 -0.00580 0.58167
 H1469 H 0.43491 -0.00067 0.55525
 H1470 H 0.41983 -0.00153 0.58354
 C1471 C -0.09139 0.49303 1.16609
 C1472 C -0.08298 0.49802 1.18176
 C1473 C -0.09134 0.49577 1.19799
 C1474 C -0.10817 0.48828 1.19889
 C1475 C -0.11668 0.48351 1.18324
 C1476 C -0.10842 0.48595 1.16700
 C1477 C -0.08230 0.49476 1.14893
 N1478 N -0.09129 0.49304 1.13363
 N1479 N -0.08305 0.49414 1.11821
 C1480 C -0.06543 0.49691 1.11744
 N1481 N -0.05644 0.49867 1.13275
 N1482 N -0.06470 0.49765 1.14816
 C1483 C -0.05620 0.49773 1.10029
 C1484 C -0.03778 0.49659 1.09947
 C1485 C -0.02908 0.49703 1.08328
 C1486 C -0.03857 0.49883 1.06756
 C1487 C -0.05698 0.50011 1.06839
 C1488 C -0.06570 0.49946 1.08456
 H1489 H -0.06989 0.50358 1.18152
 H1490 H -0.08446 0.49944 1.20989
 H1491 H -0.12973 0.47786 1.18357
 H1492 H -0.11527 0.48197 1.15520
 H1493 H -0.03007 0.49518 1.11132
 H1494 H -0.01488 0.49609 1.08311
 H1495 H -0.06469 0.50143 1.05651
 H1496 H -0.07989 0.50040 1.08474
 C1497 C -0.09420 0.50914 0.33939
 C1498 C -0.10949 0.51932 0.33807
 C1499 C -0.11766 0.52179 0.32184
 C1500 C -0.11094 0.51395 0.30639
 C1501 C -0.09589 0.50322 0.30799
 C1502 C -0.08758 0.50101 0.32421
 C1503 C -0.08493 0.50745 0.35640
 N1504 N -0.06790 0.50217 0.35693
 N1505 N -0.05932 0.50127 0.37214
 C1506 C -0.06744 0.50552 0.38748
 N1507 N -0.08452 0.51065 0.38698
 N1508 N -0.09306 0.51166 0.37174
 C1509 C -0.05773 0.50488 0.40431
 C1510 C -0.06675 0.50463 0.42045
 C1511 C -0.05749 0.50402 0.43631
 C1512 C -0.03903 0.50392 0.43634
 C1513 C -0.03003 0.50432 0.42020
 C1514 C -0.03927 0.50466 0.40437
 H1515 H -0.11501 0.52565 0.34956
 H1516 H -0.12958 0.52951 0.32165
 H1517 H -0.08980 0.49723 0.29662
 H1518 H -0.07582 0.49305 0.32480
 H1519 H -0.08097 0.50476 0.42084
 H1520 H -0.06479 0.50379 0.44855
 H1521 H -0.01581 0.50417 0.41977
 H1522 H -0.03193 0.50494 0.39217
 C1523 C 0.40779 1.01088 -0.16247
 C1524 C 0.39310 1.02185 -0.16398
 C1525 C 0.38490 1.02427 -0.18021
 C1526 C 0.39097 1.01555 -0.19546
 C1527 C 0.40546 1.00411 -0.19365
 C1528 C 0.41383 1.00196 -0.17745
 C1529 C 0.41704 1.00908 -0.14546
 N1530 N 0.43386 1.00317 -0.14487
 N1531 N 0.44238 1.00206 -0.12964
 C1532 C 0.43440 1.00671 -0.11434
 N1533 N 0.41753 1.01249 -0.11491
 N1534 N 0.40905 1.01372 -0.13016
 C1535 C 0.44401 1.00574 -0.09747
 C1536 C 0.43489 1.00555 -0.08138
 C1537 C 0.44403 1.00456 -0.06548
 C1538 C 0.46249 1.00406 -0.06533
 C1539 C 0.47160 1.00443 -0.08141
 C1540 C 0.46246 1.00511 -0.09730
 H1541 H 0.38805 1.02883 -0.15265
 H1542 H 0.37341 1.03262 -0.18053
 H1543 H 0.41107 0.99742 -0.20488
 H1544 H 0.42514 0.99338 -0.17671
 H1545 H 0.42067 1.00598 -0.08108
 H1546 H 0.43665 1.00438 -0.05329
 H1547 H 0.48582 1.00398 -0.08174
 H1548 H 0.46987 1.00534 -0.10946
 C1549 C 0.59192 0.48452 -0.16582
 C1550 C 0.58953 0.46946 -0.17619
 C1551 C 0.59806 0.46778 -0.19235
 C1552 C 0.60906 0.48118 -0.19860
 C1553 C 0.61128 0.49638 -0.18841
 C1554 C 0.60287 0.49800 -0.17211
 C1555 C 0.58302 0.48603 -0.14854
 N1556 N 0.58772 0.49861 -0.13680
 N1557 N 0.57977 0.49974 -0.12121
 C1558 C 0.56674 0.48838 -0.11676
 N1559 N 0.56204 0.47585 -0.12853
 N1560 N 0.57003 0.47467 -0.14405
 C1561 C 0.55771 0.48963 -0.09954
 C1562 C 0.54207 0.48029 -0.09656
 C1563 C 0.53332 0.48155 -0.08047
 C1564 C 0.54008 0.49205 -0.06688
 C1565 C 0.55585 0.50122 -0.06974
 C1566 C 0.56452 0.50010 -0.08595
 H1567 H 0.58119 0.45883 -0.17176
 H1568 H 0.59599 0.45600 -0.20004
 H1569 H 0.61977 0.50686 -0.19292
 H1570 H 0.60493 0.50980 -0.16447
 H1571 H 0.53643 0.47211 -0.10673
 H1572 H 0.52126 0.47422 -0.07868
 H1573 H 0.56139 0.50944 -0.05954
 H1574 H 0.57659 0.50740 -0.08779
 C1575 C 0.09022 -0.01406 0.33360
 C1576 C 0.08645 -0.02838 0.32258
 C1577 C 0.09481 -0.03016 0.30634
 C1578 C 0.10705 -0.01759 0.30065
 C1579 C 0.11067 -0.00313 0.31149
 C1580 C 0.10241 -0.00142 0.32786
 C1581 C 0.08145 -0.01245 0.35094
 N1582 N 0.08697 -0.00052 0.36301
 N1583 N 0.07910 0.00073 0.37864
 C1584 C 0.06535 -0.00987 0.38281
 N1585 N 0.05985 -0.02176 0.37072
 N1586 N 0.06774 -0.02305 0.35516
 C1587 C 0.05640 -0.00849 0.40008
 C1588 C 0.04042 -0.01726 0.40297
 C1589 C 0.03176 -0.01590 0.41909
 C1590 C 0.03891 -0.00584 0.43281
 C1591 C 0.05500 0.00279 0.43003
 C1592 C 0.06361 0.00155 0.41380
 H1593 H 0.07713 -0.03835 0.32656
 H1594 H 0.09164 -0.04133 0.29815
 H1595 H 0.12014 0.00668 0.30744
 H1596 H 0.10557 0.00979 0.33600
 H1597 H 0.03447 -0.02510 0.39271
 H1598 H 0.01944 -0.02282 0.42079
 H1599 H 0.06086 0.01065 0.44033
 H1600 H 0.07594 0.00841 0.41202
 C1601 C 0.16478 1.09311 1.00832
 C1602 C 0.17972 1.08700 0.99939
 C1603 C 0.19608 1.09492 1.00194
 C1604 C 0.19808 1.10904 1.01382
 C1605 C 0.18290 1.11519 1.02258
 C1606 C 0.16651 1.10743 1.01976
 C1607 C 0.14758 1.08431 1.00610
 N1608 N 0.13244 1.09243 1.01095
 N1609 N 0.11702 1.08429 1.00945
 C1610 C 0.11612 1.06765 1.00314
 N1611 N 0.13126 1.05956 0.99824
 N1612 N 0.14666 1.06774 0.99964
 C1613 C 0.09909 1.05833 1.00211
 C1614 C 0.09862 1.03994 1.00109
 C1615 C 0.08258 1.03104 1.00081
 C1616 C 0.06665 1.04034 1.00125
 C1617 C 0.06709 1.05875 1.00194
 C1618 C 0.08316 1.06765 1.00252
 H1619 H 0.17881 1.07596 0.99047
 H1620 H 0.20724 1.08926 0.99520
 H1621 H 0.18338 1.12642 1.03126
 H1622 H 0.15522 1.11253 1.02678
 H1623 H 0.11066 1.03238 1.00083
 H1624 H 0.08266 1.01685 1.00019
 H1625 H 0.05502 1.06626 1.00238
 H1626 H 0.08309 1.08183 1.00325
 C1627 C 0.66324 0.59173 0.50805
 C1628 C 0.66440 0.60871 0.51514
 C1629 C 0.68074 0.61678 0.51733
 C1630 C 0.69624 0.60812 0.51229
 C1631 C 0.69508 0.59138 0.50470
 C1632 C 0.67875 0.58322 0.50269
 C1633 C 0.64603 0.58272 0.50683
 N1634 N 0.64519 0.56516 0.50398
 N1635 N 0.62976 0.55693 0.50351
 C1636 C 0.61452 0.56591 0.50581
 N1637 N 0.61534 0.58350 0.50852
 N1638 N 0.63078 0.59172 0.50908
 C1639 C 0.59740 0.55665 0.50556
 C1640 C 0.58156 0.56602 0.50421
 C1641 C 0.56545 0.55719 0.50383
 C1642 C 0.56484 0.53880 0.50501
 C1643 C 0.58068 0.52947 0.50657
 C1644 C 0.59677 0.53827 0.50674
 H1645 H 0.65272 0.61564 0.51939
 H1646 H 0.68128 0.62977 0.52307
 H1647 H 0.70685 0.58439 0.50081
 H1648 H 0.67831 0.57017 0.49710
 H1649 H 0.58159 0.58019 0.50327
 H1650 H 0.55348 0.56477 0.50267
 H1651 H 0.58070 0.51529 0.50743
 H1652 H 0.60871 0.53065 0.50789
 C1653 C 0.66495 0.40546 -0.01537
 C1654 C 0.67308 0.39781 -0.00072
 C1655 C 0.68954 0.38978 -0.00231
 C1656 C 0.69825 0.38887 -0.01871
 C1657 C 0.68982 0.39650 -0.03337
 C1658 C 0.67353 0.40473 -0.03168
 C1659 C 0.64773 0.41437 -0.01375
 N1660 N 0.64211 0.42542 -0.02654
 N1661 N 0.62672 0.43359 -0.02515
 C1662 C 0.61622 0.43099 -0.01095
 N1663 N 0.62177 0.41987 0.00184
 N1664 N 0.63724 0.41177 0.00049
 C1665 C 0.59921 0.44031 -0.00942
 C1666 C 0.58626 0.43467 0.00252
 C1667 C 0.57025 0.44360 0.00387
 C1668 C 0.56698 0.45850 -0.00649
 C1669 C 0.57994 0.46411 -0.01840
 C1670 C 0.59581 0.45506 -0.01993
 H1671 H 0.66677 0.39813 0.01205
 H1672 H 0.69502 0.38372 0.00931
 H1673 H 0.69605 0.39693 -0.04615
 H1674 H 0.66767 0.41056 -0.04324
 H1675 H 0.58846 0.42330 0.01074
 H1676 H 0.56052 0.43898 0.01319
 H1677 H 0.57779 0.47547 -0.02666
 H1678 H 0.60551 0.45977 -0.02923
 C1679 C 0.16457 -0.09196 0.48425
 C1680 C 0.17050 -0.10358 0.49732
 C1681 C 0.18683 -0.11187 0.49568
 C1682 C 0.19745 -0.10887 0.48087
 C1683 C 0.19154 -0.09727 0.46784
 C1684 C 0.17534 -0.08886 0.46954
 C1685 C 0.14733 -0.08304 0.48586
 N1686 N 0.14304 -0.06975 0.47481
 N1687 N 0.12760 -0.06166 0.47616
 C1688 C 0.11573 -0.06655 0.48857
 N1689 N 0.11998 -0.07988 0.49961
 N1690 N 0.13548 -0.08794 0.49830
 C1691 C 0.09863 -0.05734 0.49006
 C1692 C 0.08505 -0.06403 0.50067
 C1693 C 0.06899 -0.05517 0.50204
 C1694 C 0.06626 -0.03934 0.49298
 C1695 C 0.07985 -0.03272 0.48235
 C1696 C 0.09578 -0.04164 0.48085
 H1697 H 0.16256 -0.10621 0.50884
 H1698 H 0.19104 -0.12085 0.50586
 H1699 H 0.19956 -0.09455 0.45638
 H1700 H 0.17121 -0.08000 0.45923
 H1701 H 0.08679 -0.07613 0.50788
 H1702 H 0.05880 -0.06061 0.51036
 H1703 H 0.07816 -0.02062 0.47509
 H1704 H 0.10595 -0.03609 0.47256
 C1705 C 0.33371 -0.09092 0.51076
 C1706 C 0.32504 -0.09111 0.52703
 C1707 C 0.30898 -0.09972 0.52901
 C1708 C 0.30088 -0.10829 0.51469
 C1709 C 0.30963 -0.10786 0.49829
 C1710 C 0.32588 -0.09944 0.49642
 C1711 C 0.35075 -0.08170 0.50889
 N1712 N 0.36154 -0.08486 0.49499
 N1713 N 0.37692 -0.07660 0.49353
 C1714 C 0.38207 -0.06477 0.50586
 N1715 N 0.37124 -0.06160 0.51970
 N1716 N 0.35594 -0.06992 0.52121
 C1717 C 0.39908 -0.05544 0.50437
 C1718 C 0.40216 -0.04028 0.51441
 C1719 C 0.41816 -0.03143 0.51323
 C1720 C 0.43158 -0.03762 0.50214
 C1721 C 0.42858 -0.05283 0.49213
 C1722 C 0.41242 -0.06158 0.49313
 H1723 H 0.33066 -0.08459 0.53835
 H1724 H 0.30267 -0.09889 0.54174
 H1725 H 0.30439 -0.11460 0.48694
 H1726 H 0.33226 -0.09954 0.48368
 H1727 H 0.39215 -0.03517 0.52315
 H1728 H 0.42008 -0.01982 0.52121
 H1729 H 0.43866 -0.05789 0.48343
 H1730 H 0.41047 -0.07326 0.48528
 C1731 C -0.16647 0.41207 1.01085
 C1732 C -0.17753 0.41568 1.02523
 C1733 C -0.19345 0.40681 1.02725
 C1734 C -0.19877 0.39423 1.01488
 C1735 C -0.18789 0.39076 1.00035
 C1736 C -0.17184 0.39952 0.99841
 C1737 C -0.14942 0.42130 1.00905
 N1738 N -0.13712 0.41583 0.99728
 N1739 N -0.12170 0.42404 0.99596
 C1740 C -0.11798 0.43809 1.00630
 N1741 N -0.13031 0.44357 1.01799
 N1742 N -0.14567 0.43534 1.01936
 C1743 C -0.10085 0.44727 1.00501
 C1744 C -0.09836 0.46337 1.01363
 C1745 C -0.08225 0.47206 1.01268
 C1746 C -0.06815 0.46482 1.00317
 C1747 C -0.07060 0.44869 0.99454
 C1748 C -0.08682 0.44005 0.99538
 H1749 H -0.17383 0.42525 1.03506
 H1750 H -0.20168 0.40987 1.03847
 H1751 H -0.19165 0.38104 0.99068
 H1752 H -0.16365 0.39647 0.98716
 H1753 H -0.10888 0.46935 1.02114
 H1754 H -0.08083 0.48441 1.01956
 H1755 H -0.06002 0.44277 0.98708
 H1756 H -0.08829 0.42764 0.98862
 C1757 C -0.16309 0.59294 0.49153
 C1758 C -0.17830 0.58634 0.49960
 C1759 C -0.19451 0.59466 0.49732
 C1760 C -0.19607 0.60969 0.48659
 C1761 C -0.18059 0.61636 0.47877
 C1762 C -0.16437 0.60818 0.48131
 C1763 C -0.14604 0.58376 0.49339
 N1764 N -0.13073 0.59192 0.48917
 N1765 N -0.11545 0.58350 0.49040
 C1766 C -0.11484 0.56653 0.49579
 N1767 N -0.13015 0.55839 0.50004
 N1768 N -0.14542 0.56684 0.49891
 C1769 C -0.09791 0.55702 0.49674
 C1770 C -0.09760 0.53861 0.49751
 C1771 C -0.08165 0.52958 0.49810
 C1772 C -0.06563 0.53876 0.49820
 C1773 C -0.06592 0.55718 0.49757
 C1774 C -0.08189 0.56620 0.49672
 H1775 H -0.17774 0.57461 0.50759
 H1776 H -0.20590 0.58860 0.50329
 H1777 H -0.18073 0.62826 0.47105
 H1778 H -0.15286 0.61369 0.47501
 H1779 H -0.10970 0.53114 0.49746
 H1780 H -0.08187 0.51539 0.49864
 H1781 H -0.05380 0.56461 0.49753
 H1782 H -0.08168 0.58039 0.49617
 C1783 C 0.33654 1.08974 -0.01143
 C1784 C 0.32787 1.09674 0.00329
 C1785 C 0.31160 1.10513 0.00146
 C1786 C 0.30375 1.10711 -0.01524
 C1787 C 0.31264 1.09995 -0.02990
 C1788 C 0.32867 1.09134 -0.02799
 C1789 C 0.35367 1.08072 -0.00972
 N1790 N 0.35943 1.06989 -0.02268
 N1791 N 0.37488 1.06184 -0.02140
 C1792 C 0.38531 1.06436 -0.00717
 N1793 N 0.37958 1.07522 0.00581
 N1794 N 0.36404 1.08321 0.00458
 C1795 C 0.40246 1.05531 -0.00591
 C1796 C 0.41554 1.06124 0.00569
 C1797 C 0.43177 1.05265 0.00661
 C1798 C 0.43509 1.03779 -0.00382
 C1799 C 0.42198 1.03186 -0.01536
 C1800 C 0.40591 1.04059 -0.01648
 H1801 H 0.33362 1.09569 0.01625
 H1802 H 0.30567 1.11070 0.01313
 H1803 H 0.30698 1.10029 -0.04292
 H1804 H 0.33495 1.08599 -0.03960
 H1805 H 0.41329 1.07260 0.01393
 H1806 H 0.44162 1.05748 0.01566
 H1807 H 0.42417 1.02052 -0.02365
 H1808 H 0.39611 1.03566 -0.02552
 C1809 C 0.01147 1.16726 1.08941
 C1810 C 0.02811 1.17500 1.09075
 C1811 C 0.03031 1.19097 1.09940
 C1812 C 0.01585 1.19992 1.10685
 C1813 C -0.00095 1.19218 1.10516
 C1814 C -0.00305 1.17597 1.09674
 C1815 C 0.00947 1.15021 1.08032
 N1816 N -0.00474 1.13980 1.08322
 N1817 N -0.00619 1.12431 1.07519
 C1818 C 0.00644 1.11869 1.06386
 N1819 N 0.02056 1.12916 1.06092
 N1820 N 0.02207 1.14455 1.06901
 C1821 C 0.00501 1.10155 1.05483
 C1822 C 0.01512 1.09822 1.03973
 C1823 C 0.01409 1.08208 1.03118
 C1824 C 0.00310 1.06875 1.03766
 C1825 C -0.00697 1.07199 1.05283
 C1826 C -0.00613 1.08831 1.06126
 H1827 H 0.03957 1.16867 1.08515
 H1828 H 0.04338 1.19653 1.09953
 H1829 H -0.01246 1.19816 1.11096
 H1830 H -0.01607 1.17031 1.09590
 H1831 H 0.02379 1.10816 1.03441
 H1832 H 0.02210 1.07996 1.01960
 H1833 H -0.01558 1.06198 1.05809
 H1834 H -0.01402 1.09047 1.07292
 C1835 C 0.50507 0.66345 0.59503
 C1836 C 0.50072 0.67916 0.58640
 C1837 C 0.50270 0.69531 0.59488
 C1838 C 0.50922 0.69610 0.61211
 C1839 C 0.51321 0.68041 0.62089
 C1840 C 0.51107 0.66425 0.61248
 C1841 C 0.50394 0.64643 0.58568
 N1842 N 0.50562 0.63103 0.59451
 N1843 N 0.50514 0.61577 0.58598
 C1844 C 0.50306 0.61526 0.56826
 N1845 N 0.50133 0.63065 0.55946
 N1846 N 0.50174 0.64590 0.56798
 C1847 C 0.50288 0.59834 0.55866
 C1848 C 0.50429 0.59803 0.54024
 C1849 C 0.50417 0.58214 0.53111
 C1850 C 0.50244 0.56616 0.54015
 C1851 C 0.50103 0.56644 0.55858
 C1852 C 0.50134 0.58236 0.56774
 H1853 H 0.49599 0.67903 0.57299
 H1854 H 0.49967 0.70722 0.58776
 H1855 H 0.51810 0.68065 0.63425
 H1856 H 0.51451 0.65241 0.61952
 H1857 H 0.50558 0.61008 0.53284
 H1858 H 0.50522 0.58241 0.51692
 H1859 H 0.49976 0.55436 0.56594
 H1860 H 0.50022 0.58214 0.58193
 C1861 C -0.01211 0.66388 0.40962
 C1862 C 0.00127 0.67012 0.39848
 C1863 C -0.00047 0.68632 0.39000
 C1864 C -0.01572 0.69644 0.39233
 C1865 C -0.02900 0.69026 0.40355
 C1866 C -0.02719 0.67423 0.41215
 C1867 C -0.01056 0.64670 0.41856
 N1868 N -0.02191 0.64230 0.43162
 N1869 N -0.02077 0.62684 0.43962
 C1870 C -0.00827 0.61505 0.43487
 N1871 N 0.00309 0.61940 0.42178
 N1872 N 0.00199 0.63492 0.41380
 C1873 C -0.00708 0.59791 0.44396
 C1874 C 0.00340 0.58428 0.43724
 C1875 C 0.00446 0.56818 0.44602
 C1876 C -0.00478 0.56549 0.46181
 C1877 C -0.01531 0.57912 0.46845
 C1878 C -0.01651 0.59508 0.45961
 H1879 H 0.01308 0.66250 0.39631
 H1880 H 0.00992 0.69078 0.38134
 H1881 H -0.04079 0.69791 0.40573
 H1882 H -0.03775 0.66985 0.42064
 H1883 H 0.01076 0.58602 0.42517
 H1884 H 0.01271 0.55794 0.44059
 H1885 H -0.02270 0.57745 0.48051
 H1886 H -0.02471 0.60528 0.46517
 C1887 C 0.48806 1.16305 -0.09131
 C1888 C 0.50283 1.17147 -0.09847
 C1889 C 0.50119 1.18779 -0.10672
 C1890 C 0.48463 1.19601 -0.10838
 C1891 C 0.46989 1.18733 -0.10116
 C1892 C 0.47162 1.17121 -0.09269
 C1893 C 0.48966 1.14590 -0.08233
 N1894 N 0.47671 1.14019 -0.07145
 N1895 N 0.47801 1.12480 -0.06333
 C1896 C 0.49226 1.11439 -0.06582
 N1897 N 0.50522 1.12005 -0.07675
 N1898 N 0.50397 1.13552 -0.08480
 C1899 C 0.49363 1.09734 -0.05662
 C1900 C 0.50540 1.08435 -0.06245
 C1901 C 0.50654 1.06826 -0.05368
 C1902 C 0.49616 1.06497 -0.03875
 C1903 C 0.48442 1.07797 -0.03294
 C1904 C 0.48309 1.09391 -0.04184
 H1905 H 0.51570 1.16549 -0.09762
 H1906 H 0.51290 1.19350 -0.11240
 H1907 H 0.45696 1.19322 -0.10130
 H1908 H 0.45997 1.16511 -0.08723
 H1909 H 0.51363 1.08658 -0.07385
 H1910 H 0.51574 1.05850 -0.05843
 H1911 H 0.47616 1.07580 -0.02154
 H1912 H 0.47392 1.10364 -0.03699
 C1913 C 0.51464 0.33243 -0.09039
 C1914 C 0.50019 0.32440 -0.09852
 C1915 C 0.50196 0.30803 -0.10668
 C1916 C 0.51836 0.29936 -0.10725
 C1917 C 0.53279 0.30763 -0.09902
 C1918 C 0.53091 0.32381 -0.09067
 C1919 C 0.51290 0.34965 -0.08153
 N1920 N 0.52538 0.35517 -0.07006
 N1921 N 0.52397 0.37062 -0.06206
 C1922 C 0.51008 0.38131 -0.06525
 N1923 N 0.49759 0.37584 -0.07677
 N1924 N 0.49895 0.36030 -0.08471
 C1925 C 0.50861 0.39845 -0.05620
 C1926 C 0.49721 0.41154 -0.06243
 C1927 C 0.49604 0.42774 -0.05383
 C1928 C 0.50605 0.43104 -0.03867
 C1929 C 0.51740 0.41792 -0.03245
 C1930 C 0.51875 0.40188 -0.04117
 H1931 H 0.48746 0.33074 -0.09854
 H1932 H 0.49052 0.30264 -0.11315
 H1933 H 0.54552 0.30138 -0.09829
 H1934 H 0.54231 0.32958 -0.08443
 H1935 H 0.48929 0.40932 -0.07403
 H1936 H 0.48715 0.43759 -0.05891
 H1937 H 0.52538 0.42009 -0.02088
 H1938 H 0.52764 0.39207 -0.03600
 C1939 C 0.01072 -0.16592 0.40979
 C1940 C -0.00271 -0.17214 0.39873
 C1941 C -0.00102 -0.18834 0.39022
 C1942 C 0.01422 -0.19848 0.39244
 C1943 C 0.02754 -0.19233 0.40359
 C1944 C 0.02578 -0.17629 0.41223
 C1945 C 0.00925 -0.14869 0.41869
 N1946 N 0.02059 -0.14432 0.43173
 N1947 N 0.01957 -0.12879 0.43964
 C1948 C 0.00722 -0.11690 0.43482
 N1949 N -0.00414 -0.12124 0.42176
 N1950 N -0.00317 -0.13684 0.41388
 C1951 C 0.00624 -0.09964 0.44373
 C1952 C -0.00402 -0.08594 0.43685
 C1953 C -0.00478 -0.06969 0.44538
 C1954 C 0.00454 -0.06688 0.46107
 C1955 C 0.01480 -0.08059 0.46790
 C1956 C 0.01570 -0.09672 0.45930
 H1957 H -0.01450 -0.16449 0.39664
 H1958 H -0.01143 -0.19279 0.38161
 H1959 H 0.03933 -0.20000 0.40567
 H1960 H 0.03637 -0.17193 0.42065
 H1961 H -0.01140 -0.08775 0.42483
 H1962 H -0.01283 -0.05939 0.43981
 H1963 H 0.02224 -0.07885 0.47989
 H1964 H 0.02372 -0.10697 0.46498
 C1965 C 0.49002 -0.16573 0.58690
 C1966 C 0.47490 -0.17598 0.58431
 C1967 C 0.47248 -0.19153 0.59365
 C1968 C 0.48519 -0.19730 0.60566
 C1969 C 0.50054 -0.18735 0.60798
 C1970 C 0.50288 -0.17161 0.59877
 C1971 C 0.49201 -0.14885 0.57746
 N1972 N 0.50407 -0.13676 0.58262
 N1973 N 0.50532 -0.12135 0.57443
 C1974 C 0.49460 -0.11744 0.56072
 N1975 N 0.48266 -0.12959 0.55550
 N1976 N 0.48137 -0.14493 0.56372
 C1977 C 0.49560 -0.10022 0.55174
 C1978 C 0.48659 -0.09752 0.53587
 C1979 C 0.48709 -0.08125 0.52751
 C1980 C 0.49649 -0.06719 0.53487
 C1981 C 0.50556 -0.06987 0.55073
 C1982 C 0.50519 -0.08624 0.55903
 H1983 H 0.46473 -0.17186 0.57528
 H1984 H 0.46062 -0.19907 0.59150
 H1985 H 0.51050 -0.19153 0.61722
 H1986 H 0.51471 -0.16405 0.60099
 H1987 H 0.47912 -0.10800 0.52985
 H1988 H 0.47991 -0.07966 0.51533
 H1989 H 0.51298 -0.05933 0.55672
 H1990 H 0.51223 -0.08787 0.57128
 C1991 C -0.01033 0.33635 1.08820
 C1992 C 0.00430 0.32788 1.09551
 C1993 C 0.00238 0.31182 1.10424
 C1994 C -0.01434 0.30400 1.10627
 C1995 C -0.02891 0.31269 1.09880
 C1996 C -0.02690 0.32850 1.08985
 C1997 C -0.00853 0.35329 1.07888
 N1998 N -0.02132 0.35878 1.06777
 N1999 N -0.02003 0.37413 1.05956
 C2000 C -0.00594 0.38472 1.06221
 N2001 N 0.00689 0.37924 1.07333
 N2002 N 0.00565 0.36381 1.08146
 C2003 C -0.00480 0.40189 1.05321
 C2004 C 0.00651 0.41511 1.05935
 C2005 C 0.00703 0.43149 1.05107
 C2006 C -0.00354 0.43486 1.03632
 C2007 C -0.01466 0.42154 1.03008
 C2008 C -0.01537 0.40530 1.03848
 H2009 H 0.01727 0.33363 1.09444
 H2010 H 0.01399 0.30604 1.11003
 H2011 H -0.04194 0.30703 1.09917
 H2012 H -0.03845 0.33464 1.08427
 H2013 H 0.01476 0.41289 1.07071
 H2014 H 0.01578 0.44147 1.05614
 H2015 H -0.02304 0.42372 1.01879
 H2016 H -0.02417 0.39538 1.03338
 C2017 C 0.75501 0.34493 0.08672
 C2018 C 0.74756 0.33784 0.07142
 C2019 C 0.75009 0.34593 0.05512
 C2020 C 0.76050 0.36120 0.05357
 C2021 C 0.76751 0.36846 0.06915
 C2022 C 0.76471 0.36051 0.08544
 C2023 C 0.75327 0.33580 0.10381
 N2024 N 0.75695 0.34424 0.11910
 N2025 N 0.75615 0.33581 0.13441
 C2026 C 0.75175 0.31856 0.13506
 N2027 N 0.74799 0.31015 0.11977
 N2028 N 0.74870 0.31861 0.10448
 C2029 C 0.75154 0.30899 0.15199
 C2030 C 0.75212 0.29058 0.15225
 C2031 C 0.75242 0.28151 0.16819
 C2032 C 0.75189 0.29063 0.18424
 C2033 C 0.75111 0.30904 0.18400
 C2034 C 0.75107 0.31813 0.16804
 H2035 H 0.73995 0.32585 0.07199
 H2036 H 0.74468 0.33948 0.04367
 H2037 H 0.77488 0.38059 0.06898
 H2038 H 0.77049 0.36642 0.09701
 H2039 H 0.75258 0.28315 0.14013
 H2040 H 0.75292 0.26732 0.16792
 H2041 H 0.75073 0.31645 0.19615
 H2042 H 0.75058 0.33232 0.16827
 C2043 C 0.25361 0.84392 0.58605
 C2044 C 0.24960 0.83492 0.57041
 C2045 C 0.25207 0.84296 0.55408
 C2046 C 0.25876 0.86008 0.55304
 C2047 C 0.26229 0.86926 0.56865
 C2048 C 0.25966 0.86130 0.58499
 C2049 C 0.25222 0.83499 0.60330
 N2050 N 0.25372 0.84416 0.61855
 N2051 N 0.25320 0.83600 0.63403
 C2052 C 0.25126 0.81832 0.63491
 N2053 N 0.24967 0.80917 0.61966
 N2054 N 0.25012 0.81733 0.60420
 C2055 C 0.25117 0.80912 0.65207
 C2056 C 0.25281 0.79079 0.65276
 C2057 C 0.25286 0.78204 0.66888
 C2058 C 0.25109 0.79139 0.68472
 C2059 C 0.24943 0.80974 0.68405
 C2060 C 0.24957 0.81852 0.66791
 H2061 H 0.24483 0.82155 0.57076
 H2062 H 0.24936 0.83556 0.54223
 H2063 H 0.26730 0.88254 0.56821
 H2064 H 0.26283 0.86863 0.59675
 H2065 H 0.25416 0.78314 0.64084
 H2066 H 0.25408 0.76789 0.66889
 H2067 H 0.24808 0.81733 0.69601
 H2068 H 0.24827 0.83266 0.66784
 C2069 C 0.74151 0.65569 0.58622
 C2070 C 0.74691 0.66405 0.57065
 C2071 C 0.74472 0.65586 0.55436
 C2072 C 0.73692 0.63921 0.55328
 C2073 C 0.73176 0.63072 0.56883
 C2074 C 0.73412 0.63883 0.58514
 C2075 C 0.74308 0.66474 0.60339
 N2076 N 0.74068 0.65590 0.61871
 N2077 N 0.74160 0.66419 0.63411
 C2078 C 0.74484 0.68169 0.63482
 N2079 N 0.74729 0.69051 0.61951
 N2080 N 0.74646 0.68221 0.60413
 C2081 C 0.74537 0.69108 0.65187
 C2082 C 0.74466 0.70948 0.65235
 C2083 C 0.74485 0.71843 0.66836
 C2084 C 0.74596 0.70920 0.68431
 C2085 C 0.74683 0.69079 0.68386
 C2086 C 0.74642 0.68182 0.66781
 H2087 H 0.75271 0.67701 0.57101
 H2088 H 0.74869 0.66274 0.54256
 H2089 H 0.72587 0.61780 0.56836
 H2090 H 0.72982 0.63202 0.59687
 H2091 H 0.74378 0.71703 0.64033
 H2092 H 0.74426 0.73261 0.66822
 H2093 H 0.74764 0.68330 0.69592
 H2094 H 0.74703 0.66764 0.66789
 C2095 C 0.24413 0.15639 0.08697
 C2096 C 0.24925 0.16471 0.07128
 C2097 C 0.24682 0.15645 0.05506
 C2098 C 0.23905 0.13977 0.05417
 C2099 C 0.23421 0.13131 0.06983
 C2100 C 0.23680 0.13949 0.08607
 C2101 C 0.24590 0.16551 0.10408
 N2102 N 0.24360 0.15675 0.11946
 N2103 N 0.24464 0.16511 0.13481
 C2104 C 0.24794 0.18261 0.13542
 N2105 N 0.25031 0.19135 0.12005
 N2106 N 0.24934 0.18298 0.10471
 C2107 C 0.24855 0.19207 0.15243
 C2108 C 0.24803 0.21049 0.15284
 C2109 C 0.24819 0.21948 0.16883
 C2110 C 0.24906 0.21030 0.18481
 C2111 C 0.24978 0.19188 0.18443
 C2112 C 0.24942 0.18286 0.16841
 H2113 H 0.25500 0.17770 0.07150
 H2114 H 0.25056 0.16330 0.04316
 H2115 H 0.22836 0.11837 0.06951
 H2116 H 0.23273 0.13270 0.09789
 H2117 H 0.24730 0.21800 0.14079
 H2118 H 0.24771 0.23368 0.16864
 H2119 H 0.25042 0.18442 0.19651
 H2120 H 0.24988 0.16867 0.16855
 C2121 C 0.25992 0.16126 0.91573
 C2122 C 0.24711 0.14930 0.92159
 C2123 C 0.24929 0.14037 0.93752
 C2124 C 0.26442 0.14307 0.94769
 C2125 C 0.27708 0.15515 0.94195
 C2126 C 0.27483 0.16421 0.92620
 C2127 C 0.25807 0.17051 0.89872
 N2128 N 0.26866 0.18429 0.89482
 N2129 N 0.26744 0.19243 0.87941
 C2130 C 0.25562 0.18710 0.86718
 N2131 N 0.24498 0.17332 0.87106
 N2132 N 0.24615 0.16520 0.88654
 C2133 C 0.25459 0.19615 0.84998
 C2134 C 0.24506 0.18892 0.83592
 C2135 C 0.24450 0.19746 0.81964
 C2136 C 0.25331 0.21348 0.81717
 C2137 C 0.26274 0.22071 0.83129
 C2138 C 0.26343 0.21212 0.84745
 H2139 H 0.23545 0.14681 0.91386
 H2140 H 0.23937 0.13107 0.94170
 H2141 H 0.28877 0.15759 0.94968
 H2142 H 0.28495 0.17332 0.92212
 H2143 H 0.23815 0.17660 0.83743
 H2144 H 0.23707 0.19157 0.80903
 H2145 H 0.26974 0.23299 0.82986
 H2146 H 0.27087 0.21810 0.85799
 C2147 C 0.75993 0.66142 0.41519
 C2148 C 0.74737 0.64921 0.42105
 C2149 C 0.74961 0.64048 0.43708
 C2150 C 0.76457 0.64362 0.44739
 C2151 C 0.77705 0.65587 0.44158
 C2152 C 0.77473 0.66473 0.42572
 C2153 C 0.75785 0.67060 0.39815
 N2154 N 0.76813 0.68459 0.39416
 N2155 N 0.76657 0.69274 0.37879
 C2156 C 0.75470 0.68723 0.36669
 N2157 N 0.74438 0.67323 0.37065
 N2158 N 0.74590 0.66510 0.38609
 C2159 C 0.75325 0.69630 0.34952
 C2160 C 0.74374 0.68887 0.33555
 C2161 C 0.74284 0.69738 0.31927
 C2162 C 0.75127 0.71359 0.31670
 C2163 C 0.76062 0.72106 0.33075
 C2164 C 0.76165 0.71250 0.34691
 H2165 H 0.73580 0.64642 0.41328
 H2166 H 0.73984 0.63102 0.44125
 H2167 H 0.78861 0.65866 0.44938
 H2168 H 0.78467 0.67403 0.42162
 H2169 H 0.73716 0.67638 0.33711
 H2170 H 0.73550 0.69128 0.30873
 H2171 H 0.76734 0.73349 0.32924
 H2172 H 0.76905 0.71864 0.35739
 C2173 C 0.24548 0.84184 0.41029
 C2174 C 0.23917 0.85915 0.41105
 C2175 C 0.23642 0.86738 0.42724
 C2176 C 0.24009 0.85856 0.44301
 C2177 C 0.24701 0.84151 0.44228
 C2178 C 0.24959 0.83320 0.42609
 C2179 C 0.24702 0.83263 0.39319
 N2180 N 0.24923 0.81496 0.39257
 N2181 N 0.24976 0.80655 0.37723
 C2182 C 0.24817 0.81543 0.36185
 N2183 N 0.24613 0.83312 0.36246
 N2184 N 0.24552 0.84153 0.37780
 C2185 C 0.24821 0.80596 0.34483
 C2186 C 0.24974 0.81511 0.32886
 C2187 C 0.24955 0.80612 0.31282
 C2188 C 0.24762 0.78778 0.31240
 C2189 C 0.24605 0.77866 0.32837
 C2190 C 0.24643 0.78762 0.34438
 H2191 H 0.23590 0.86621 0.39916
 H2192 H 0.23124 0.88061 0.42745
 H2193 H 0.24984 0.83439 0.45425
 H2194 H 0.25456 0.81990 0.42597
 H2195 H 0.25115 0.82924 0.32874
 H2196 H 0.25075 0.81355 0.30076
 H2197 H 0.24463 0.76453 0.32854
 H2198 H 0.24515 0.78016 0.35642
 C2199 C 0.74777 0.34026 0.91182
 C2200 C 0.75188 0.33191 0.92777
 C2201 C 0.74891 0.34038 0.94382
 C2202 C 0.74159 0.35727 0.94424
 C2203 C 0.73790 0.36579 0.92831
 C2204 C 0.74104 0.35742 0.91228
 C2205 C 0.74974 0.33089 0.89486
 N2206 N 0.74816 0.33958 0.87937
 N2207 N 0.74913 0.33102 0.86413
 C2208 C 0.75164 0.31339 0.86373
 N2209 N 0.75332 0.30472 0.87922
 N2210 N 0.75242 0.31328 0.89446
 C2211 C 0.75202 0.30377 0.84680
 C2212 C 0.75089 0.28538 0.84648
 C2213 C 0.75068 0.27632 0.83051
 C2214 C 0.75178 0.28542 0.81449
 C2215 C 0.75313 0.30380 0.81480
 C2216 C 0.75316 0.31288 0.83078
 H2217 H 0.75716 0.31873 0.92789
 H2218 H 0.75176 0.33349 0.95592
 H2219 H 0.73240 0.37889 0.92829
 H2220 H 0.73775 0.36425 0.90025
 H2221 H 0.74994 0.27796 0.85857
 H2222 H 0.74971 0.26215 0.83075
 H2223 H 0.75394 0.31122 0.80269
 H2224 H 0.75408 0.32705 0.83055
 C2225 C 0.84240 0.41509 0.24387
 C2226 C 0.85936 0.41592 0.23656
 C2227 C 0.86768 0.43209 0.23409
 C2228 C 0.85930 0.44774 0.23906
 C2229 C 0.84251 0.44691 0.24670
 C2230 C 0.83411 0.43077 0.24900
 C2231 C 0.83322 0.39804 0.24572
 N2232 N 0.81571 0.39746 0.24914
 N2233 N 0.80732 0.38217 0.25029
 C2234 C 0.81610 0.36681 0.24815
 N2235 N 0.83364 0.36738 0.24487
 N2236 N 0.84201 0.38268 0.24363
 C2237 C 0.80664 0.34983 0.24900
 C2238 C 0.81592 0.33393 0.25013
 C2239 C 0.80694 0.31793 0.25058
 C2240 C 0.78849 0.31747 0.24970
 C2241 C 0.77923 0.33338 0.24863
 C2242 C 0.78819 0.34936 0.24839
 H2243 H 0.86612 0.40411 0.23246
 H2244 H 0.88070 0.43236 0.22832
 H2245 H 0.83570 0.45879 0.25051
 H2246 H 0.82107 0.43060 0.25472
 H2247 H 0.83013 0.33383 0.25067
 H2248 H 0.81446 0.30590 0.25134
 H2249 H 0.76502 0.33350 0.24801
 H2250 H 0.78064 0.36136 0.24746
 C2251 C 0.34183 0.91552 0.74298
 C2252 C 0.35895 0.91617 0.73605
 C2253 C 0.36750 0.93223 0.73380
 C2254 C 0.35919 0.94797 0.73859
 C2255 C 0.34227 0.94732 0.74596
 C2256 C 0.33364 0.93127 0.74804
 C2257 C 0.33238 0.89858 0.74442
 N2258 N 0.31477 0.89818 0.74730
 N2259 N 0.30617 0.88299 0.74806
 C2260 C 0.31481 0.86753 0.74602
 N2261 N 0.33245 0.86792 0.74326
 N2262 N 0.34104 0.88312 0.74242
 C2263 C 0.30516 0.85066 0.74660
 C2264 C 0.31425 0.83467 0.74803
 C2265 C 0.30509 0.81878 0.74861
 C2266 C 0.28665 0.81851 0.74759
 C2267 C 0.27759 0.83449 0.74602
 C2268 C 0.28673 0.85037 0.74563
 H2269 H 0.36565 0.90429 0.73203
 H2270 H 0.38061 0.93237 0.72823
 H2271 H 0.33553 0.95928 0.74964
 H2272 H 0.32048 0.93123 0.75349
 H2273 H 0.32845 0.83442 0.74882
 H2274 H 0.31247 0.80669 0.74975
 H2275 H 0.26338 0.83476 0.74526
 H2276 H 0.27932 0.86244 0.74444
 C2277 C 0.15534 0.91157 0.25199
 C2278 C 0.16214 0.92695 0.24447
 C2279 C 0.15403 0.94315 0.24745
 C2280 C 0.13907 0.94449 0.25839
 C2281 C 0.13209 0.92884 0.26548
 C2282 C 0.14004 0.91267 0.26223
 C2283 C 0.16448 0.89457 0.24977
 N2284 N 0.15622 0.87926 0.25365
 N2285 N 0.16468 0.86402 0.25245
 C2286 C 0.18181 0.86346 0.24745
 N2287 N 0.19005 0.87876 0.24348
 N2288 N 0.18156 0.89399 0.24458
 C2289 C 0.19143 0.84659 0.24687
 C2290 C 0.20989 0.84634 0.24669
 C2291 C 0.21901 0.83044 0.24684
 C2292 C 0.20987 0.81443 0.24691
 C2293 C 0.19140 0.81466 0.24682
 C2294 C 0.18228 0.83058 0.24693
 H2295 H 0.17390 0.92652 0.23646
 H2296 H 0.16025 0.95466 0.24195
 H2297 H 0.12018 0.92887 0.27326
 H2298 H 0.13436 0.90103 0.26809
 H2299 H 0.21734 0.85844 0.24672
 H2300 H 0.23324 0.83069 0.24681
 H2301 H 0.18398 0.80254 0.24695
 H2302 H 0.16806 0.83033 0.24703
 C2303 C 0.66317 0.41218 0.75667
 C2304 C 0.66606 0.42253 0.77168
 C2305 C 0.65715 0.43834 0.77395
 C2306 C 0.64528 0.44429 0.76120
 C2307 C 0.64267 0.43426 0.74594
 C2308 C 0.65143 0.41824 0.74375
 C2309 C 0.67223 0.39508 0.75484
 N2310 N 0.66680 0.38290 0.74297
 N2311 N 0.67473 0.36734 0.74189
 C2312 C 0.68844 0.36335 0.75259
 N2313 N 0.69389 0.37558 0.76435
 N2314 N 0.68594 0.39107 0.76548
 C2315 C 0.69729 0.34606 0.75170
 C2316 C 0.71325 0.34346 0.76057
 C2317 C 0.72166 0.32723 0.76007
 C2318 C 0.71430 0.31309 0.75079
 C2319 C 0.69829 0.31562 0.74194
 C2320 C 0.68991 0.33198 0.74231
 H2321 H 0.67499 0.41828 0.78188
 H2322 H 0.65952 0.44594 0.78574
 H2323 H 0.63352 0.43860 0.73596
 H2324 H 0.64900 0.41061 0.73201
 H2325 H 0.71934 0.35400 0.76791
 H2326 H 0.73393 0.32576 0.76711
 H2327 H 0.69230 0.30500 0.73463
 H2328 H 0.67760 0.33355 0.73539
 C2329 C 0.65763 0.58456 0.74543
 C2330 C 0.64043 0.58380 0.73876
 C2331 C 0.63234 0.56764 0.73564
 C2332 C 0.64120 0.55191 0.73929
 C2333 C 0.65817 0.55264 0.74645
 C2334 C 0.66634 0.56879 0.74941
 C2335 C 0.66667 0.60164 0.74759
 N2336 N 0.68428 0.60232 0.75031
 N2337 N 0.69257 0.61766 0.75148
 C2338 C 0.68359 0.63298 0.75003
 N2339 N 0.66594 0.63231 0.74747
 N2340 N 0.65766 0.61697 0.74623
 C2341 C 0.69296 0.65001 0.75067
 C2342 C 0.68364 0.66585 0.75228
 C2343 C 0.69254 0.68191 0.75240
 C2344 C 0.71093 0.68247 0.75070
 C2345 C 0.72023 0.66661 0.74918
 C2346 C 0.71136 0.65058 0.74926
 H2347 H 0.63334 0.59568 0.73557
 H2348 H 0.61917 0.56743 0.73028
 H2349 H 0.66534 0.54070 0.74926
 H2350 H 0.67956 0.56891 0.75462
 H2351 H 0.66946 0.66587 0.75342
 H2352 H 0.68499 0.69390 0.75353
 H2353 H 0.73440 0.66657 0.74793
 H2354 H 0.71895 0.63864 0.74795
 C2355 C 0.15805 0.08636 0.24673
 C2356 C 0.14078 0.08579 0.24023
 C2357 C 0.13252 0.06973 0.23710
 C2358 C 0.14128 0.05390 0.24057
 C2359 C 0.15828 0.05443 0.24767
 C2360 C 0.16662 0.07050 0.25063
 C2361 C 0.16731 0.10335 0.24868
 N2362 N 0.18497 0.10386 0.25110
 N2363 N 0.19344 0.11912 0.25197
 C2364 C 0.18461 0.13452 0.25052
 N2365 N 0.16691 0.13402 0.24828
 N2366 N 0.15845 0.11876 0.24733
 C2367 C 0.19414 0.15147 0.25084
 C2368 C 0.18497 0.16740 0.25237
 C2369 C 0.19399 0.18338 0.25229
 C2370 C 0.21238 0.18378 0.25049
 C2371 C 0.22153 0.16784 0.24899
 C2372 C 0.21254 0.15188 0.24926
 H2373 H 0.13378 0.09774 0.23711
 H2374 H 0.11933 0.06966 0.23178
 H2375 H 0.16535 0.04241 0.25035
 H2376 H 0.17989 0.07048 0.25573
 H2377 H 0.17080 0.16754 0.25364
 H2378 H 0.18654 0.19542 0.25342
 H2379 H 0.23570 0.16766 0.24766
 H2380 H 0.22001 0.13986 0.24800
 C2381 C 0.34233 0.08765 0.75829
 C2382 C 0.33397 0.07191 0.75351
 C2383 C 0.34229 0.05578 0.75612
 C2384 C 0.35906 0.05504 0.76373
 C2385 C 0.36754 0.07076 0.76827
 C2386 C 0.35931 0.08690 0.76550
 C2387 C 0.33321 0.10470 0.75625
 N2388 N 0.34207 0.12006 0.75812
 N2389 N 0.33374 0.13537 0.75682
 C2390 C 0.31619 0.13597 0.75367
 N2391 N 0.30736 0.12061 0.75173
 N2392 N 0.31569 0.10531 0.75296
 C2393 C 0.30678 0.15297 0.75279
 C2394 C 0.28834 0.15348 0.75349
 C2395 C 0.27942 0.16948 0.75319
 C2396 C 0.28872 0.18537 0.75199
 C2397 C 0.30717 0.18487 0.75105
 C2398 C 0.31610 0.16884 0.75155
 H2399 H 0.32092 0.07203 0.74786
 H2400 H 0.33543 0.04384 0.75260
 H2401 H 0.38056 0.07054 0.77399
 H2402 H 0.36613 0.09876 0.76932
 H2403 H 0.28075 0.14151 0.75450
 H2404 H 0.26521 0.16940 0.75385
 H2405 H 0.31472 0.19687 0.75018
 H2406 H 0.33032 0.16891 0.75095
 C2407 C 0.83781 0.58541 0.26201
 C2408 C 0.85008 0.57948 0.24949
 C2409 C 0.85875 0.56345 0.25181
 C2410 C 0.85549 0.55320 0.26679
 C2411 C 0.84317 0.55907 0.27922
 C2412 C 0.83438 0.57494 0.27683
 C2413 C 0.82867 0.60243 0.25985
 N2414 N 0.81469 0.60652 0.27018
 N2415 N 0.80655 0.62186 0.26854
 C2416 C 0.81205 0.63385 0.25655
 N2417 N 0.82604 0.62979 0.24618
 N2418 N 0.83416 0.61437 0.24778
 C2419 C 0.80296 0.65097 0.25500
 C2420 C 0.81029 0.66481 0.24523
 C2421 C 0.80174 0.68104 0.24424
 C2422 C 0.78559 0.68369 0.25286
 C2423 C 0.77823 0.66977 0.26247
 C2424 C 0.78682 0.65366 0.26358
 H2425 H 0.85297 0.58720 0.23791
 H2426 H 0.86826 0.55924 0.24208
 H2427 H 0.84028 0.55132 0.29079
 H2428 H 0.82502 0.57908 0.28673
 H2429 H 0.82274 0.66317 0.23850
 H2430 H 0.80775 0.69148 0.23670
 H2431 H 0.76584 0.67133 0.26934
 H2432 H 0.78075 0.64329 0.27118
 C2433 C 0.91611 0.26094 0.16081
 C2434 C 0.92209 0.24801 0.14902
 C2435 C 0.93809 0.25010 0.14014
 C2436 C 0.94822 0.26528 0.14269
 C2437 C 0.94234 0.27807 0.15459
 C2438 C 0.92652 0.27590 0.16361
 C2439 C 0.89903 0.25913 0.17000
 N2440 N 0.89503 0.26975 0.18377
 N2441 N 0.87956 0.26854 0.19185
 C2442 C 0.86735 0.25673 0.18647
 N2443 N 0.87134 0.24607 0.17270
 N2444 N 0.88687 0.24722 0.16465
 C2445 C 0.85007 0.25571 0.19541
 C2446 C 0.83602 0.24635 0.18794
 C2447 C 0.81965 0.24579 0.19635
 C2448 C 0.81707 0.25441 0.21250
 C2449 C 0.83117 0.26366 0.21998
 C2450 C 0.84743 0.26436 0.21151
 H2451 H 0.91440 0.23629 0.14665
 H2452 H 0.94237 0.24008 0.13099
 H2453 H 0.95003 0.28980 0.15691
 H2454 H 0.92234 0.28611 0.17257
 H2455 H 0.83761 0.23960 0.17552
 H2456 H 0.80906 0.23850 0.19027
 H2457 H 0.82963 0.27051 0.23236
 H2458 H 0.85796 0.27166 0.21766
 C2459 C 0.41228 0.76404 0.66033
 C2460 C 0.42259 0.77923 0.66212
 C2461 C 0.43871 0.78065 0.65348
 C2462 C 0.44501 0.76686 0.64299
 C2463 C 0.43490 0.75154 0.64137
 C2464 C 0.41862 0.75019 0.64987
 C2465 C 0.39502 0.76282 0.66931
 N2466 N 0.38328 0.75010 0.66502
 N2467 N 0.36770 0.74922 0.67302
 C2468 C 0.36326 0.76098 0.68570
 N2469 N 0.37502 0.77365 0.69001
 N2470 N 0.39054 0.77458 0.68196
 C2471 C 0.34603 0.76002 0.69477
 C2472 C 0.34305 0.76974 0.71019
 C2473 C 0.32697 0.76871 0.71898
 C2474 C 0.31338 0.75806 0.71247
 C2475 C 0.31623 0.74852 0.69691
 C2476 C 0.33243 0.74940 0.68821
 H2477 H 0.41812 0.79015 0.67006
 H2478 H 0.44635 0.79252 0.65510
 H2479 H 0.43944 0.74076 0.63328
 H2480 H 0.41103 0.73828 0.64828
 H2481 H 0.35323 0.77804 0.71562
 H2482 H 0.32517 0.77632 0.73087
 H2483 H 0.30603 0.74016 0.69158
 H2484 H 0.33427 0.74180 0.67632
 C2485 C 0.41623 0.24206 0.83861
 C2486 C 0.42652 0.22712 0.83527
 C2487 C 0.44227 0.22446 0.84419
 C2488 C 0.44823 0.23676 0.85654
 C2489 C 0.43827 0.25195 0.85962
 C2490 C 0.42231 0.25452 0.85083
 C2491 C 0.39919 0.24428 0.82950
 N2492 N 0.38703 0.25604 0.83525
 N2493 N 0.37150 0.25745 0.82727
 C2494 C 0.36753 0.24721 0.81319
 N2495 N 0.37975 0.23558 0.80742
 N2496 N 0.39520 0.23412 0.81541
 C2497 C 0.35025 0.24840 0.80432
 C2498 C 0.34763 0.23988 0.78816
 C2499 C 0.33137 0.24054 0.77980
 C2500 C 0.31720 0.24964 0.78740
 C2501 C 0.31977 0.25821 0.80357
 C2502 C 0.33616 0.25767 0.81191
 H2503 H 0.42227 0.21725 0.82596
 H2504 H 0.44983 0.21273 0.84147
 H2505 H 0.44263 0.26159 0.86912
 H2506 H 0.41473 0.26621 0.85361
 H2507 H 0.35817 0.23266 0.78190
 H2508 H 0.32989 0.23372 0.76739
 H2509 H 0.30913 0.26536 0.80976
 H2510 H 0.33774 0.26432 0.82438
 C2511 C 0.91403 0.74032 0.33880
 C2512 C 0.92035 0.75335 0.35027
 C2513 C 0.93642 0.75114 0.35894
 C2514 C 0.94629 0.73576 0.35648
 C2515 C 0.94003 0.72284 0.34494
 C2516 C 0.92414 0.72513 0.33614
 C2517 C 0.89696 0.74232 0.32968
 N2518 N 0.89273 0.73152 0.31615
 N2519 N 0.87731 0.73294 0.30807
 C2520 C 0.86540 0.74515 0.31321
 N2521 N 0.86960 0.75600 0.32676
 N2522 N 0.88509 0.75463 0.33481
 C2523 C 0.84820 0.74642 0.30420
 C2524 C 0.83431 0.75627 0.31138
 C2525 C 0.81801 0.75698 0.30289
 C2526 C 0.81535 0.74800 0.28696
 C2527 C 0.82932 0.73828 0.27977
 C2528 C 0.84549 0.73745 0.28830
 H2529 H 0.91291 0.76523 0.35253
 H2530 H 0.94098 0.76125 0.36783
 H2531 H 0.94749 0.71096 0.34267
 H2532 H 0.91969 0.71483 0.32741
 H2533 H 0.83596 0.76328 0.32365
 H2534 H 0.80752 0.76460 0.30876
 H2535 H 0.82775 0.73114 0.26756
 H2536 H 0.85590 0.72978 0.28236
 C2537 C 0.08414 0.75816 0.33780
 C2538 C 0.07387 0.77326 0.33526
 C2539 C 0.05805 0.77542 0.34427
 C2540 C 0.05200 0.76246 0.35589
 C2541 C 0.06201 0.74717 0.35821
 C2542 C 0.07803 0.74509 0.34934
 C2543 C 0.10116 0.75632 0.32850
 N2544 N 0.11324 0.74424 0.33361
 N2545 N 0.12870 0.74302 0.32541
 C2546 C 0.13266 0.75379 0.31173
 N2547 N 0.12053 0.76577 0.30660
 N2548 N 0.10515 0.76704 0.31483
 C2549 C 0.14982 0.75267 0.30255
 C2550 C 0.15226 0.76134 0.28645
 C2551 C 0.16838 0.76058 0.27774
 C2552 C 0.18255 0.75124 0.28497
 C2553 C 0.18017 0.74259 0.30112
 C2554 C 0.16393 0.74321 0.30977
 H2555 H 0.07816 0.78358 0.32649
 H2556 H 0.05046 0.78724 0.34212
 H2557 H 0.05763 0.73703 0.36716
 H2558 H 0.08560 0.73328 0.35150
 H2559 H 0.14168 0.76871 0.28048
 H2560 H 0.16976 0.76747 0.26538
 H2561 H 0.19082 0.73525 0.30700
 H2562 H 0.16248 0.73644 0.32219
 C2563 C 0.58882 0.25191 0.84339
 C2564 C 0.57295 0.24782 0.83487
 C2565 C 0.55684 0.25042 0.84335
 C2566 C 0.55626 0.25731 0.86046
 C2567 C 0.57210 0.26099 0.86915
 C2568 C 0.58821 0.25823 0.86075
 C2569 C 0.60583 0.25027 0.83400
 N2570 N 0.62129 0.25181 0.84275
 N2571 N 0.63656 0.25103 0.83418
 C2572 C 0.63699 0.24877 0.81647
 N2573 N 0.62153 0.24714 0.80774
 N2574 N 0.60628 0.24785 0.81632
 C2575 C 0.65393 0.24848 0.80681
 C2576 C 0.65423 0.24987 0.78840
 C2577 C 0.67016 0.24997 0.77925
 C2578 C 0.68619 0.24851 0.78828
 C2579 C 0.68591 0.24697 0.80669
 C2580 C 0.66995 0.24705 0.81586
 H2581 H 0.57294 0.24285 0.82154
 H2582 H 0.54481 0.24760 0.83631
 H2583 H 0.57201 0.26617 0.88241
 H2584 H 0.60017 0.26149 0.86771
 H2585 H 0.64214 0.25105 0.78101
 H2586 H 0.66989 0.25109 0.76507
 H2587 H 0.69802 0.24586 0.81405
 H2588 H 0.67019 0.24593 0.83005
 C2589 C 0.58211 0.73908 0.66324
 C2590 C 0.57127 0.72457 0.66675
 C2591 C 0.55521 0.72261 0.65815
 C2592 C 0.54952 0.73519 0.64597
 C2593 C 0.56013 0.74989 0.64267
 C2594 C 0.57635 0.75177 0.65114
 C2595 C 0.59937 0.74074 0.67209
 N2596 N 0.61159 0.75244 0.66640
 N2597 N 0.62722 0.75357 0.67421
 C2598 C 0.63124 0.74308 0.68807
 N2599 N 0.61898 0.73146 0.69378
 N2600 N 0.60341 0.73029 0.68593
 C2601 C 0.64860 0.74414 0.69681
 C2602 C 0.65137 0.73557 0.71291
 C2603 C 0.66768 0.73636 0.72122
 C2604 C 0.68172 0.74563 0.71358
 C2605 C 0.67901 0.75416 0.69743
 C2606 C 0.66259 0.75351 0.68918
 H2607 H 0.57528 0.71455 0.67598
 H2608 H 0.54718 0.71125 0.66107
 H2609 H 0.55606 0.75973 0.63326
 H2610 H 0.58435 0.76314 0.64820
 H2611 H 0.64090 0.72827 0.71919
 H2612 H 0.66931 0.72956 0.73360
 H2613 H 0.68954 0.76145 0.69122
 H2614 H 0.66091 0.76021 0.67676
 C2615 C 0.08579 0.24281 0.16059
 C2616 C 0.07506 0.22812 0.16360
 C2617 C 0.05924 0.22611 0.15462
 C2618 C 0.05367 0.23882 0.14253
 C2619 C 0.06410 0.25376 0.13977
 C2620 C 0.08011 0.25568 0.14863
 C2621 C 0.10287 0.24437 0.16977
 N2622 N 0.11530 0.25599 0.16436
 N2623 N 0.13082 0.25688 0.17241
 C2624 C 0.13452 0.24623 0.18624
 N2625 N 0.12204 0.23472 0.19167
 N2626 N 0.10659 0.23378 0.18360
 C2627 C 0.15176 0.24694 0.19524
 C2628 C 0.15412 0.23814 0.21128
 C2629 C 0.17030 0.23853 0.21983
 C2630 C 0.18462 0.24762 0.21252
 C2631 C 0.18233 0.25637 0.19642
 C2632 C 0.16603 0.25612 0.18791
 H2633 H 0.07899 0.21796 0.17271
 H2634 H 0.05131 0.21458 0.15711
 H2635 H 0.06005 0.26371 0.13047
 H2636 H 0.08805 0.26719 0.14609
 H2637 H 0.14343 0.23097 0.21732
 H2638 H 0.17159 0.23157 0.23216
 H2639 H 0.19309 0.26354 0.19047
 H2640 H 0.16466 0.26297 0.17554
 C2641 C -0.09171 1.00526 0.83670
 C2642 C -0.10594 1.01683 0.83501
 C2643 C -0.11388 1.01958 0.81871
 C2644 C -0.10792 1.01073 0.80349
 C2645 C -0.09376 0.99888 0.80542
 C2646 C -0.08576 0.99627 0.82173
 C2647 C -0.08293 1.00287 0.85392
 N2648 N -0.06773 0.99362 0.85522
 N2649 N -0.05961 0.99191 0.87063
 C2650 C -0.06638 0.99935 0.88540
 N2651 N -0.08164 1.00849 0.88410
 N2652 N -0.08973 1.01022 0.86870
 C2653 C -0.05710 0.99801 0.90246
 C2654 C -0.06491 1.00458 0.91787
 C2655 C -0.05590 1.00415 0.93383
 C2656 C -0.03882 0.99721 0.93479
 C2657 C -0.03113 0.99030 0.91946
 C2658 C -0.04019 0.99066 0.90348
 H2659 H -0.11097 1.02388 0.84631
 H2660 H -0.12511 1.02824 0.81835
 H2661 H -0.08813 0.99213 0.79425
 H2662 H -0.07477 0.98731 0.82255
 H2663 H -0.07795 1.01024 0.91761
 H2664 H -0.06227 1.00955 0.94536
 H2665 H -0.01802 0.98479 0.91973
 H2666 H -0.03379 0.98546 0.89187
 C2667 C 0.40798 0.50924 0.33578
 C2668 C 0.39165 0.51779 0.33469
 C2669 C 0.38351 0.52029 0.31843
 C2670 C 0.39150 0.51426 0.30290
 C2671 C 0.40774 0.50559 0.30399
 C2672 C 0.41590 0.50311 0.32023
 C2673 C 0.41684 0.50696 0.35297
 N2674 N 0.43296 0.49939 0.35396
 N2675 N 0.44107 0.49764 0.36935
 C2676 C 0.43340 0.50337 0.38443
 N2677 N 0.41724 0.51087 0.38345
 N2678 N 0.40914 0.51263 0.36805
 C2679 C 0.44259 0.50181 0.40153
 C2680 C 0.43449 0.50758 0.41711
 C2681 C 0.44333 0.50660 0.43315
 C2682 C 0.46050 0.49985 0.43402
 C2683 C 0.46852 0.49388 0.41846
 C2684 C 0.45966 0.49484 0.40241
 H2685 H 0.38515 0.52264 0.34639
 H2686 H 0.37089 0.52683 0.31802
 H2687 H 0.41432 0.50099 0.29222
 H2688 H 0.42848 0.49650 0.32056
 H2689 H 0.42134 0.51299 0.41694
 H2690 H 0.43672 0.51131 0.44486
 H2691 H 0.48171 0.48857 0.41863
 H2692 H 0.46630 0.49025 0.39068
 C2693 C 0.59020 -0.00773 0.33589
 C2694 C 0.59006 -0.02435 0.32800
 C2695 C 0.59908 -0.02732 0.31227
 C2696 C 0.60809 -0.01357 0.30366
 C2697 C 0.60808 0.00313 0.31174
 C2698 C 0.59947 0.00591 0.32775
 C2699 C 0.58051 -0.00467 0.35244
 N2700 N 0.58629 0.00726 0.36437
 N2701 N 0.57761 0.00981 0.37940
 C2702 C 0.56268 0.00070 0.38295
 N2703 N 0.55684 -0.01111 0.37094
 N2704 N 0.56562 -0.01381 0.35603
 C2705 C 0.55318 0.00318 0.39970
 C2706 C 0.53494 0.00049 0.40054
 C2707 C 0.52603 0.00186 0.41655
 C2708 C 0.53525 0.00550 0.43210
 C2709 C 0.55346 0.00845 0.43123
 C2710 C 0.56231 0.00753 0.41513
 H2711 H 0.58301 -0.03511 0.33404
 H2712 H 0.59816 -0.04025 0.30649
 H2713 H 0.61525 0.01401 0.30608
 H2714 H 0.59982 0.01885 0.33362
 H2715 H 0.52759 -0.00278 0.38882
 H2716 H 0.51200 -0.00057 0.41688
 H2717 H 0.56086 0.01132 0.44304
 H2718 H 0.57638 0.00960 0.41483
 C2719 C 0.09015 0.49365 0.83692
 C2720 C 0.08572 0.47914 0.82643
 C2721 C 0.09469 0.47589 0.81072
 C2722 C 0.10801 0.48728 0.80504
 C2723 C 0.11242 0.50184 0.81544
 C2724 C 0.10369 0.50489 0.83135
 C2725 C 0.08062 0.49701 0.85353
 N2726 N 0.08826 0.50620 0.86678
 N2727 N 0.07974 0.50890 0.88186
 C2728 C 0.06317 0.50269 0.88422
 N2729 N 0.05549 0.49364 0.87091
 N2730 N 0.06406 0.49081 0.85590
 C2731 C 0.05384 0.50516 0.90111
 C2732 C 0.03541 0.50434 0.90180
 C2733 C 0.02659 0.50561 0.91788
 C2734 C 0.03604 0.50738 0.93362
 C2735 C 0.05445 0.50855 0.93290
 C2736 C 0.06326 0.50764 0.91678
 H2737 H 0.07541 0.47020 0.83043
 H2738 H 0.09101 0.46465 0.80283
 H2739 H 0.12269 0.51076 0.81130
 H2740 H 0.10734 0.51620 0.83915
 H2741 H 0.02780 0.50255 0.88992
 H2742 H 0.01239 0.50459 0.91803
 H2743 H 0.06206 0.51000 0.94483
 H2744 H 0.07747 0.50829 0.91664
 C2745 C 0.09278 0.50893 0.66584
 C2746 C 0.08504 0.50280 0.68147
 C2747 C 0.09324 0.50551 0.69766
 C2748 C 0.10935 0.51446 0.69861
 C2749 C 0.11720 0.52042 0.68299
 C2750 C 0.10903 0.51767 0.66679
 C2751 C 0.08381 0.50656 0.64872
 N2752 N 0.09139 0.51219 0.63358
 N2753 N 0.08315 0.51045 0.61825
 C2754 C 0.06696 0.50300 0.61740
 N2755 N 0.05941 0.49729 0.63254
 N2756 N 0.06765 0.49902 0.64787
 C2757 C 0.05760 0.50152 0.60039
 C2758 C 0.04044 0.49473 0.59965
 C2759 C 0.03143 0.49386 0.58368
 C2760 C 0.03937 0.49974 0.56806
 C2761 C 0.05662 0.50631 0.56877
 C2762 C 0.06561 0.50719 0.58474
 H2763 H 0.07254 0.49603 0.68124
 H2764 H 0.08678 0.50094 0.70949
 H2765 H 0.12972 0.52716 0.68330
 H2766 H 0.11540 0.52252 0.65503
 H2767 H 0.03386 0.49022 0.61144
 H2768 H 0.01817 0.48869 0.58363
 H2769 H 0.06317 0.51094 0.55701
 H2770 H 0.07883 0.51246 0.58480
 C2771 C 0.59179 1.00916 0.16542
 C2772 C 0.58405 1.00318 0.18110
 C2773 C 0.59232 1.00594 0.19726
 C2774 C 0.60848 1.01480 0.19812
 C2775 C 0.61629 1.02069 0.18245
 C2776 C 0.60806 1.01787 0.16629
 C2777 C 0.58286 1.00656 0.14830
 N2778 N 0.59059 1.01185 0.13310
 N2779 N 0.58246 1.00983 0.11775
 C2780 C 0.56623 1.00245 0.11693
 N2781 N 0.55852 0.99711 0.13212
 N2782 N 0.56667 0.99911 0.14748
 C2783 C 0.55704 1.00065 0.09985
 C2784 C 0.53982 0.99400 0.09903
 C2785 C 0.53099 0.99291 0.08295
 C2786 C 0.53918 0.99842 0.06732
 C2787 C 0.55650 1.00481 0.06814
 C2788 C 0.56530 1.00592 0.08418
 H2789 H 0.57153 0.99643 0.18094
 H2790 H 0.58589 1.00143 0.20913
 H2791 H 0.62885 1.02735 0.18269
 H2792 H 0.61443 1.02263 0.15449
 H2793 H 0.53306 0.98981 0.11083
 H2794 H 0.51768 0.98790 0.08282
 H2795 H 0.56326 1.00915 0.05638
 H2796 H 0.57856 1.01105 0.08429
 C2797 C 0.41016 0.49101 0.16390
 C2798 C 0.41776 0.49710 0.17958
 C2799 C 0.40933 0.49448 0.19570
 C2800 C 0.39313 0.48567 0.19651
 C2801 C 0.38546 0.47969 0.18084
 C2802 C 0.39386 0.48235 0.16472
 C2803 C 0.41927 0.49340 0.14682
 N2804 N 0.41161 0.48807 0.13162
 N2805 N 0.41990 0.48987 0.11631
 C2806 C 0.43621 0.49706 0.11550
 N2807 N 0.44385 0.50246 0.13069
 N2808 N 0.43555 0.50068 0.14602
 C2809 C 0.44555 0.49858 0.09845
 C2810 C 0.46285 0.50502 0.09759
 C2811 C 0.47179 0.50579 0.08152
 C2812 C 0.46362 0.50016 0.06595
 C2813 C 0.44622 0.49400 0.06680
 C2814 C 0.43732 0.49321 0.08283
 H2815 H 0.43030 0.50381 0.17945
 H2816 H 0.41564 0.49907 0.20759
 H2817 H 0.37288 0.47305 0.18104
 H2818 H 0.38759 0.47751 0.15291
 H2819 H 0.46958 0.50928 0.10937
 H2820 H 0.48517 0.51064 0.08135
 H2821 H 0.43947 0.48959 0.05509
 H2822 H 0.42399 0.48824 0.08295
 C2823 C -0.08922 -0.01037 0.66436
 C2824 C -0.08360 -0.00157 0.67954
 C2825 C -0.09193 -0.00443 0.69568
 C2826 C -0.10608 -0.01635 0.69721
 C2827 C -0.11165 -0.02507 0.68180
 C2828 C -0.10340 -0.02207 0.66568
 C2829 C -0.08028 -0.00756 0.64725
 N2830 N -0.08696 -0.01458 0.63229
 N2831 N -0.07885 -0.01235 0.61694
 C2832 C -0.06368 -0.00303 0.61587
 N2833 N -0.05700 0.00405 0.63083
 N2834 N -0.06515 0.00185 0.64619
 C2835 C -0.05453 -0.00099 0.59877
 C2836 C -0.03772 0.00661 0.59776
 C2837 C -0.02891 0.00779 0.58162
 C2838 C -0.03676 0.00145 0.56615
 C2839 C -0.05371 -0.00583 0.56717
 C2840 C -0.06245 -0.00706 0.58325
 H2841 H -0.07266 0.00749 0.67901
 H2842 H -0.08660 0.00223 0.70704
 H2843 H -0.12285 -0.03379 0.68185
 H2844 H -0.10817 -0.02900 0.65421
 H2845 H -0.03124 0.01143 0.60946
 H2846 H -0.01589 0.01351 0.58132
 H2847 H -0.06021 -0.01083 0.55555
 H2848 H -0.07541 -0.01291 0.58350
 C2849 C -0.16269 0.90819 1.00798
 C2850 C -0.16403 0.89391 1.01954
 C2851 C -0.18013 0.88554 1.02230
 C2852 C -0.19546 0.89107 1.01345
 C2853 C -0.19389 0.90533 1.00168
 C2854 C -0.17780 0.91377 0.99907
 C2855 C -0.14567 0.91732 1.00542
 N2856 N -0.14473 0.93252 0.99616
 N2857 N -0.12948 0.94089 0.99419
 C2858 C -0.11451 0.93437 1.00134
 N2859 N -0.11544 0.91913 1.01052
 N2860 N -0.13068 0.91079 1.01253
 C2861 C -0.09758 0.94386 0.99961
 C2862 C -0.08195 0.93620 1.00568
 C2863 C -0.06608 0.94534 1.00482
 C2864 C -0.06543 0.96244 0.99793
 C2865 C -0.08101 0.97000 0.99153
 C2866 C -0.09690 0.96080 0.99233
 H2867 H -0.15261 0.88918 1.02655
 H2868 H -0.18022 0.87429 1.03093
 H2869 H -0.20519 0.91068 0.99497
 H2870 H -0.17726 0.92479 0.99012
 H2871 H -0.08195 0.92314 1.01127
 H2872 H -0.05436 0.93905 1.00983
 H2873 H -0.08098 0.98312 0.98609
 H2874 H -0.10869 0.96709 0.98751
 C2875 C 0.33401 0.41057 0.51148
 C2876 C 0.32296 0.41512 0.52558
 C2877 C 0.30703 0.40639 0.52816
 C2878 C 0.30168 0.39318 0.51648
 C2879 C 0.31264 0.38866 0.50233
 C2880 C 0.32876 0.39716 0.49995
 C2881 C 0.35086 0.41986 0.50880
 N2882 N 0.36424 0.41218 0.49981
 N2883 N 0.37948 0.42051 0.49761
 C2884 C 0.38188 0.43691 0.50417
 N2885 N 0.36846 0.44461 0.51306
 N2886 N 0.35328 0.43623 0.51539
 C2887 C 0.39886 0.44609 0.50200
 C2888 C 0.39970 0.46446 0.50310
 C2889 C 0.41580 0.47315 0.50159
 C2890 C 0.43143 0.46361 0.49929
 C2891 C 0.43058 0.44524 0.49806
 C2892 C 0.41443 0.43658 0.49922
 H2893 H 0.32670 0.42535 0.53473
 H2894 H 0.29871 0.41015 0.53910
 H2895 H 0.30878 0.37846 0.49320
 H2896 H 0.33698 0.39342 0.48893
 H2897 H 0.38790 0.47214 0.50514
 H2898 H 0.41607 0.48731 0.50266
 H2899 H 0.44242 0.43757 0.49621
 H2900 H 0.41418 0.42241 0.49836
 C2901 C 0.33712 0.58925 -0.01020
 C2902 C 0.32123 0.58129 -0.00515
 C2903 C 0.30521 0.58976 -0.00795
 C2904 C 0.30468 0.60639 -0.01589
 C2905 C 0.32054 0.61442 -0.02083
 C2906 C 0.33658 0.60596 -0.01800
 C2907 C 0.35411 0.58009 -0.00761
 N2908 N 0.36947 0.58789 -0.01223
 N2909 N 0.38471 0.57956 -0.01024
 C2910 C 0.38526 0.56306 -0.00355
 N2911 N 0.36990 0.55527 0.00114
 N2912 N 0.35465 0.56362 -0.00084
 C2913 C 0.40223 0.55367 -0.00179
 C2914 C 0.40285 0.53631 0.00442
 C2915 C 0.41885 0.52733 0.00546
 C2916 C 0.43460 0.53552 0.00032
 C2917 C 0.43397 0.55297 -0.00562
 C2918 C 0.41802 0.56191 -0.00667
 H2919 H 0.32114 0.56842 0.00086
 H2920 H 0.29318 0.58315 -0.00420
 H2921 H 0.32056 0.62731 -0.02678
 H2922 H 0.34855 0.61252 -0.02202
 H2923 H 0.39095 0.52956 0.00831
 H2924 H 0.41884 0.51392 0.01012
 H2925 H 0.44582 0.55974 -0.00965
 H2926 H 0.41807 0.57528 -0.01146
 C2927 C -0.16440 0.08983 0.48948
 C2928 C -0.17948 0.08416 0.49845
 C2929 C -0.19566 0.09239 0.49578
 C2930 C -0.19735 0.10653 0.48388
 C2931 C -0.18203 0.11217 0.47499
 C2932 C -0.16586 0.10400 0.47781
 C2933 C -0.14728 0.08094 0.49210
 N2934 N -0.13239 0.08753 0.48480
 N2935 N -0.11704 0.07943 0.48688
 C2936 C -0.11590 0.06437 0.49632
 N2937 N -0.13078 0.05778 0.50367
 N2938 N -0.14614 0.06591 0.50162
 C2939 C -0.09882 0.05521 0.49822
 C2940 C -0.09783 0.03853 0.50604
 C2941 C -0.08176 0.02969 0.50716
 C2942 C -0.06630 0.03738 0.50056
 C2943 C -0.06728 0.05419 0.49304
 C2944 C -0.08332 0.06296 0.49185
 H2945 H -0.17886 0.07322 0.50749
 H2946 H -0.20693 0.08699 0.50254
 H2947 H -0.18220 0.12336 0.46628
 H2948 H -0.15447 0.10882 0.47076
 H2949 H -0.10952 0.03217 0.51108
 H2950 H -0.08148 0.01678 0.51307
 H2951 H -0.05566 0.06054 0.48782
 H2952 H -0.08356 0.07581 0.48582
 C2953 C 0.66311 0.09024 0.50507
 C2954 C 0.67871 0.08229 0.49919
 C2955 C 0.69497 0.09026 0.50216
 C2956 C 0.69601 0.10635 0.51112
 C2957 C 0.68042 0.11437 0.51690
 C2958 C 0.66416 0.10642 0.51389
 C2959 C 0.64588 0.08158 0.50232
 N2960 N 0.63077 0.08940 0.50770
 N2961 N 0.61533 0.08145 0.50563
 C2962 C 0.61432 0.06532 0.49810
 N2963 N 0.62942 0.05753 0.49263
 N2964 N 0.64487 0.06549 0.49468
 C2965 C 0.59717 0.05623 0.49644
 C2966 C 0.59618 0.03912 0.48961
 C2967 C 0.58010 0.03026 0.48894
 C2968 C 0.56464 0.03832 0.49508
 C2969 C 0.56559 0.05559 0.50150
 C2970 C 0.58165 0.06442 0.50218
 H2971 H 0.67841 0.06982 0.49237
 H2972 H 0.70678 0.08368 0.49772
 H2973 H 0.68080 0.12687 0.52364
 H2974 H 0.65241 0.11294 0.51858
 H2975 H 0.60787 0.03243 0.48501
 H2976 H 0.57985 0.01700 0.48384
 H2977 H 0.55396 0.06225 0.50629
 H2978 H 0.58189 0.07761 0.50745
 C2979 C 0.16384 0.59217 1.00406
 C2980 C 0.16566 0.60619 1.01586
 C2981 C 0.18204 0.61389 1.01880
 C2982 C 0.19722 0.60789 1.00992
 C2983 C 0.19516 0.59402 0.99775
 C2984 C 0.17876 0.58625 0.99496
 C2985 C 0.14654 0.58357 1.00159
 N2986 N 0.14505 0.56854 0.99212
 N2987 N 0.12957 0.56054 0.99045
 C2988 C 0.11492 0.56728 0.99814
 N2989 N 0.11641 0.58238 1.00749
 N2990 N 0.13188 0.59034 1.00919
 C2991 C 0.09777 0.55813 0.99689
 C2992 C 0.08256 0.56584 1.00397
 C2993 C 0.06653 0.55696 1.00362
 C2994 C 0.06529 0.54010 0.99624
 C2995 C 0.08043 0.53251 0.98882
 C2996 C 0.09649 0.54144 0.98912
 H2997 H 0.15441 0.61122 1.02299
 H2998 H 0.18249 0.62497 1.02766
 H2999 H 0.20629 0.58841 0.99092
 H3000 H 0.17784 0.57542 0.98579
 H3001 H 0.08303 0.57870 1.00998
 H3002 H 0.05515 0.56325 1.00942
 H3003 H 0.07993 0.51958 0.98295
 H3004 H 0.10794 0.53513 0.98351
 C3005 C 0.16502 0.41055 0.48909
 C3006 C 0.17034 0.39723 0.50066
 C3007 C 0.18643 0.38871 0.49823
 C3008 C 0.19731 0.39313 0.48398
 C3009 C 0.19189 0.40624 0.47226
 C3010 C 0.17597 0.41499 0.47488
 C3011 C 0.14819 0.41986 0.49184
 N3012 N 0.14568 0.43615 0.48508
 N3013 N 0.13053 0.44455 0.48751
 C3014 C 0.11722 0.43697 0.49667
 N3015 N 0.11971 0.42066 0.50340
 N3016 N 0.13492 0.41231 0.50110
 C3017 C 0.10028 0.44618 0.49898
 C3018 C 0.08478 0.43670 0.50222
 C3019 C 0.06864 0.44536 0.50358
 C3020 C 0.06774 0.46370 0.50207
 C3021 C 0.08331 0.47322 0.49928
 C3022 C 0.09939 0.46453 0.49758
 H3023 H 0.16219 0.39357 0.51176
 H3024 H 0.19035 0.37859 0.50740
 H3025 H 0.20014 0.40993 0.46125
 H3026 H 0.17217 0.42514 0.46570
 H3027 H 0.08506 0.42254 0.50331
 H3028 H 0.05686 0.43770 0.50581
 H3029 H 0.08300 0.48736 0.49800
 H3030 H 0.11113 0.47218 0.49519
 C3031 C 0.66611 0.90910 -0.00892
 C3032 C 0.68185 0.91676 -0.00305
 C3033 C 0.69794 0.90834 -0.00577
 C3034 C 0.69866 0.89209 -0.01447
 C3035 C 0.68295 0.88437 -0.02024
 C3036 C 0.66685 0.89275 -0.01747
 C3037 C 0.64906 0.91817 -0.00637
 N3038 N 0.63380 0.91042 -0.01137
 N3039 N 0.61850 0.91866 -0.00939
 C3040 C 0.61778 0.93501 -0.00233
 N3041 N 0.63303 0.94275 0.00273
 N3042 N 0.64835 0.93450 0.00077
 C3043 C 0.60074 0.94428 -0.00056
 C3044 C 0.59998 0.96164 0.00564
 C3045 C 0.58390 0.97049 0.00672
 C3046 C 0.56822 0.96216 0.00164
 C3047 C 0.56899 0.94471 -0.00430
 C3048 C 0.58503 0.93590 -0.00540
 H3049 H 0.68178 0.92934 0.00357
 H3050 H 0.70986 0.91470 -0.00134
 H3051 H 0.68309 0.87176 -0.02679
 H3052 H 0.65500 0.88644 -0.02214
 H3053 H 0.61182 0.96849 0.00950
 H3054 H 0.58380 0.98391 0.01139
 H3055 H 0.55720 0.93784 -0.00829
 H3056 H 0.58509 0.92252 -0.01018
 C3057 C 0.00357 0.83789 0.90857
 C3058 C -0.00476 0.82264 0.91465
 C3059 C -0.00203 0.80654 0.90626
 C3060 C 0.00933 0.80513 0.89159
 C3061 C 0.01742 0.82064 0.88544
 C3062 C 0.01453 0.83672 0.89375
 C3063 C 0.00120 0.85488 0.91777
 N3064 N 0.00777 0.86988 0.91077
 N3065 N 0.00615 0.88509 0.91920
 C3066 C -0.00207 0.88598 0.93504
 N3067 N -0.00872 0.87099 0.94203
 N3068 N -0.00714 0.85576 0.93356
 C3069 C -0.00325 0.90290 0.94459
 C3070 C -0.00964 0.90370 0.96194
 C3071 C -0.00989 0.91963 0.97111
 C3072 C -0.00381 0.93511 0.96310
 C3073 C 0.00220 0.93431 0.94562
 C3074 C 0.00250 0.91844 0.93652
 H3075 H -0.01327 0.82306 0.92606
 H3076 H -0.00821 0.79513 0.91199
 H3077 H 0.02562 0.82067 0.87382
 H3078 H 0.02104 0.84824 0.88859
 H3079 H -0.01420 0.89198 0.96855
 H3080 H -0.01467 0.91977 0.98452
 H3081 H 0.00693 0.94595 0.93897
 H3082 H 0.00742 0.91836 0.92316
 C3083 C 0.50812 0.33694 0.40852
 C3084 C 0.50275 0.32120 0.41651
 C3085 C 0.50561 0.30512 0.40819
 C3086 C 0.51394 0.30436 0.39171
 C3087 C 0.51921 0.32008 0.38365
 C3088 C 0.51631 0.33619 0.39195
 C3089 C 0.50544 0.35399 0.41755
 N3090 N 0.51029 0.36925 0.40974
 N3091 N 0.50821 0.38452 0.41799
 C3092 C 0.50120 0.38520 0.43441
 N3093 N 0.49629 0.36995 0.44220
 N3094 N 0.49836 0.35467 0.43394
 C3095 C 0.49935 0.40219 0.44375
 C3096 C 0.49302 0.40283 0.46112
 C3097 C 0.49190 0.41880 0.47011
 C3098 C 0.49708 0.43451 0.46194
 C3099 C 0.50313 0.43388 0.44447
 C3100 C 0.50426 0.41793 0.43550
 H3101 H 0.49643 0.32127 0.42927
 H3102 H 0.50160 0.29321 0.41483
 H3103 H 0.52547 0.31993 0.37086
 H3104 H 0.52058 0.34804 0.38539
 H3105 H 0.48909 0.39097 0.46788
 H3106 H 0.48714 0.41879 0.48353
 H3107 H 0.50720 0.44570 0.43772
 H3108 H 0.50914 0.41795 0.42213
 C3109 C -0.00729 0.33592 0.59193
 C3110 C -0.01933 0.33398 0.60578
 C3111 C -0.02212 0.31762 0.61356
 C3112 C -0.01283 0.30262 0.60783
 C3113 C -0.00054 0.30480 0.59404
 C3114 C 0.00211 0.32116 0.58620
 C3115 C -0.00476 0.35319 0.58334
 N3116 N 0.00521 0.35471 0.56859
 N3117 N 0.00714 0.37015 0.56065
 C3118 C -0.00078 0.38475 0.56715
 N3119 N -0.01066 0.38324 0.58196
 N3120 N -0.01262 0.36779 0.58987
 C3121 C 0.00093 0.40186 0.55808
 C3122 C -0.00607 0.41716 0.56566
 C3123 C -0.00506 0.43319 0.55686
 C3124 C 0.00290 0.43433 0.54021
 C3125 C 0.01015 0.41908 0.53273
 C3126 C 0.00922 0.40305 0.54158
 H3127 H -0.02671 0.34512 0.61064
 H3128 H -0.03116 0.31707 0.62453
 H3129 H 0.00656 0.29379 0.58856
 H3130 H 0.01145 0.32215 0.57549
 H3131 H -0.01247 0.41675 0.57837
 H3132 H -0.01079 0.44465 0.56304
 H3133 H 0.01644 0.41949 0.51996
 H3134 H 0.01477 0.39153 0.53536
 C3135 C 0.49165 0.83450 0.08970
 C3136 C 0.48278 0.83342 0.10590
 C3137 C 0.47989 0.81718 0.11390
 C3138 C 0.48584 0.80166 0.10592
 C3139 C 0.49482 0.80274 0.08980
 C3140 C 0.49768 0.81896 0.08177
 C3141 C 0.49438 0.85170 0.08102
 N3142 N 0.50209 0.85272 0.06493
 N3143 N 0.50422 0.86814 0.05699
 C3144 C 0.49875 0.88320 0.06481
 N3145 N 0.49112 0.88218 0.08093
 N3146 N 0.48898 0.86677 0.08886
 C3147 C 0.50067 0.90034 0.05580
 C3148 C 0.49519 0.91588 0.06411
 C3149 C 0.49634 0.93196 0.05542
 C3150 C 0.50299 0.93292 0.03819
 C3151 C 0.50874 0.91742 0.02998
 C3152 C 0.50761 0.90132 0.03869
 H3153 H 0.47799 0.84512 0.11240
 H3154 H 0.47312 0.81678 0.12642
 H3155 H 0.49939 0.79098 0.08324
 H3156 H 0.50453 0.81929 0.06929
 H3157 H 0.48983 0.91563 0.07730
 H3158 H 0.49181 0.94361 0.06219
 H3159 H 0.51397 0.91767 0.01673
 H3160 H 0.51198 0.88962 0.03190
 C3161 C 0.50966 0.66285 0.08854
 C3162 C 0.50381 0.67847 0.08067
 C3163 C 0.50620 0.69459 0.08909
 C3164 C 0.51453 0.69547 0.10553
 C3165 C 0.52030 0.67988 0.11344
 C3166 C 0.51787 0.66375 0.10506
 C3167 C 0.50741 0.64576 0.07951
 N3168 N 0.51248 0.63062 0.08739
 N3169 N 0.51072 0.61528 0.07922
 C3170 C 0.50382 0.61439 0.06279
 N3171 N 0.49869 0.62953 0.05491
 N3172 N 0.50044 0.64488 0.06310
 C3173 C 0.50223 0.59730 0.05361
 C3174 C 0.49604 0.59636 0.03623
 C3175 C 0.49506 0.58023 0.02749
 C3176 C 0.50023 0.56468 0.03595
 C3177 C 0.50619 0.56564 0.05341
 C3178 C 0.50719 0.58172 0.06211
 H3179 H 0.49746 0.67828 0.06796
 H3180 H 0.50179 0.70642 0.08258
 H3181 H 0.52657 0.68013 0.12621
 H3182 H 0.52251 0.65200 0.11153
 H3183 H 0.49209 0.60810 0.02928
 H3184 H 0.49038 0.57999 0.01406
 H3185 H 0.51026 0.55395 0.06038
 H3186 H 0.51197 0.58192 0.07550
 C3187 C 0.01094 0.16442 0.58893
 C3188 C 0.00199 0.17946 0.58327
 C3189 C 0.00445 0.19554 0.59174
 C3190 C 0.01609 0.19716 0.60612
 C3191 C 0.02500 0.18190 0.61170
 C3192 C 0.02241 0.16582 0.60328
 C3193 C 0.00846 0.14737 0.57987
 N3194 N 0.01562 0.13249 0.58653
 N3195 N 0.01359 0.11719 0.57835
 C3196 C 0.00434 0.11608 0.56314
 N3197 N -0.00285 0.13096 0.55648
 N3198 N -0.00085 0.14628 0.56469
 C3199 C 0.00242 0.09904 0.55396
 C3200 C -0.00515 0.09805 0.53713
 C3201 C -0.00639 0.08197 0.52834
 C3202 C -0.00016 0.06650 0.53623
 C3203 C 0.00714 0.06749 0.55317
 C3204 C 0.00844 0.08354 0.56189
 H3205 H -0.00688 0.17887 0.57218
 H3206 H -0.00230 0.20679 0.58637
 H3207 H 0.03354 0.18201 0.62304
 H3208 H 0.02944 0.15446 0.60809
 H3209 H -0.00993 0.10974 0.53064
 H3210 H -0.01212 0.08168 0.51533
 H3211 H 0.01207 0.05588 0.55969
 H3212 H 0.01427 0.08377 0.57486
 C3213 C 0.49166 0.16586 0.41108
 C3214 C 0.50320 0.17127 0.39769
 C3215 C 0.50070 0.18735 0.38921
 C3216 C 0.48638 0.19808 0.39371
 C3217 C 0.47477 0.19261 0.40695
 C3218 C 0.47748 0.17674 0.41568
 C3219 C 0.49428 0.14895 0.42019
 N3220 N 0.48781 0.14646 0.43664
 N3221 N 0.48987 0.13116 0.44480
 C3222 C 0.49836 0.11768 0.43679
 N3223 N 0.50483 0.12016 0.42032
 N3224 N 0.50291 0.13552 0.41222
 C3225 C 0.50008 0.10055 0.44571
 C3226 C 0.50204 0.08503 0.43593
 C3227 C 0.50255 0.06876 0.44438
 C3228 C 0.50147 0.06773 0.46279
 C3229 C 0.50005 0.08329 0.47258
 C3230 C 0.49918 0.09951 0.46412
 H3231 H 0.51428 0.16318 0.39393
 H3232 H 0.50978 0.19133 0.37899
 H3233 H 0.46370 0.20074 0.41068
 H3234 H 0.46832 0.17287 0.42588
 H3235 H 0.50271 0.08543 0.42172
 H3236 H 0.50374 0.05697 0.43651
 H3237 H 0.49912 0.08289 0.48679
 H3238 H 0.49777 0.11126 0.47201
 C3239 C -0.00972 0.66658 0.91123
 C3240 C 0.00408 0.67524 0.90263
 C3241 C 0.00115 0.69121 0.89409
 C3242 C -0.01584 0.69866 0.89345
 C3243 C -0.02967 0.68958 0.90187
 C3244 C -0.02658 0.67393 0.91083
 C3245 C -0.00665 0.65001 0.92074
 N3246 N -0.01613 0.64615 0.93536
 N3247 N -0.01364 0.63111 0.94387
 C3248 C -0.00172 0.61924 0.93797
 N3249 N 0.00775 0.62307 0.92331
 N3250 N 0.00542 0.63823 0.91492
 C3251 C 0.00046 0.60232 0.94711
 C3252 C 0.00467 0.58705 0.93767
 C3253 C 0.00534 0.57082 0.94619
 C3254 C 0.00228 0.56968 0.96437
 C3255 C -0.00129 0.58505 0.97390
 C3256 C -0.00242 0.60119 0.96531
 H3257 H 0.01722 0.66978 0.90274
 H3258 H 0.01215 0.69730 0.88744
 H3259 H -0.04284 0.69491 0.90235
 H3260 H -0.03746 0.66749 0.91738
 H3261 H 0.00687 0.58759 0.92361
 H3262 H 0.00819 0.55915 0.93858
 H3263 H -0.00378 0.58450 0.98791
 H3264 H -0.00561 0.61279 0.97289
 C3265 C 0.25914 0.65987 0.91336
 C3266 C 0.27384 0.66360 0.92386
 C3267 C 0.27688 0.65418 0.93930
 C3268 C 0.26510 0.64108 0.94471
 C3269 C 0.25033 0.63741 0.93432
 C3270 C 0.24747 0.64659 0.91868
 C3271 C 0.25605 0.66975 0.89694
 N3272 N 0.24637 0.66271 0.88372
 N3273 N 0.24390 0.67150 0.86880
 C3274 C 0.25085 0.68776 0.86657
 N3275 N 0.26040 0.69485 0.87986
 N3276 N 0.26300 0.68600 0.89471
 C3277 C 0.24851 0.69735 0.84986
 C3278 C 0.25014 0.71570 0.84930
 C3279 C 0.24857 0.72469 0.83337
 C3280 C 0.24571 0.71548 0.81764
 C3281 C 0.24392 0.69715 0.81823
 C3282 C 0.24513 0.68819 0.83420
 H3283 H 0.28310 0.67369 0.92005
 H3284 H 0.28830 0.65730 0.94719
 H3285 H 0.24110 0.62732 0.93824
 H3286 H 0.23600 0.64347 0.91087
 H3287 H 0.25265 0.72310 0.86118
 H3288 H 0.25006 0.73882 0.83330
 H3289 H 0.24162 0.68972 0.80631
 H3290 H 0.24387 0.67405 0.83421
 C3291 C 0.75585 0.15634 0.41201
 C3292 C 0.76421 0.13990 0.41249
 C3293 C 0.76736 0.13152 0.42850
 C3294 C 0.76219 0.13935 0.44440
 C3295 C 0.75364 0.15567 0.44394
 C3296 C 0.75053 0.16409 0.42793
 C3297 C 0.75302 0.16549 0.39505
 N3298 N 0.74592 0.18183 0.39458
 N3299 N 0.74385 0.19022 0.37937
 C3300 C 0.74878 0.18263 0.36397
 N3301 N 0.75577 0.16625 0.36444
 N3302 N 0.75785 0.15787 0.37964
 C3303 C 0.74714 0.19220 0.34708
 C3304 C 0.75231 0.18421 0.33124
 C3305 C 0.75168 0.19347 0.31543
 C3306 C 0.74588 0.21098 0.31504
 C3307 C 0.74029 0.21884 0.33081
 C3308 C 0.74091 0.20955 0.34665
 H3309 H 0.76845 0.13352 0.40049
 H3310 H 0.77376 0.11883 0.42844
 H3311 H 0.74965 0.16209 0.45600
 H3312 H 0.74407 0.17673 0.42807
 H3313 H 0.75709 0.17084 0.33105
 H3314 H 0.75602 0.18695 0.30354
 H3315 H 0.73569 0.23227 0.33100
 H3316 H 0.73677 0.21610 0.35859
 C3317 C 0.24691 0.34429 0.41300
 C3318 C 0.23886 0.36089 0.41350
 C3319 C 0.23538 0.36912 0.42956
 C3320 C 0.23993 0.36097 0.44546
 C3321 C 0.24828 0.34455 0.44496
 C3322 C 0.25172 0.33629 0.42892
 C3323 C 0.24975 0.33516 0.39602
 N3324 N 0.25644 0.31864 0.39555
 N3325 N 0.25834 0.31018 0.38034
 C3326 C 0.25366 0.31787 0.36495
 N3327 N 0.24712 0.33443 0.36542
 N3328 N 0.24520 0.34289 0.38062
 C3329 C 0.25501 0.30819 0.34809
 C3330 C 0.25000 0.31623 0.33226
 C3331 C 0.25033 0.30687 0.31649
 C3332 C 0.25565 0.28922 0.31613
 C3333 C 0.26106 0.28128 0.33189
 C3334 C 0.26075 0.29067 0.34769
 H3335 H 0.23503 0.36747 0.40150
 H3336 H 0.22914 0.38187 0.42953
 H3337 H 0.25176 0.33786 0.45701
 H3338 H 0.25793 0.32352 0.42903
 H3339 H 0.24558 0.32972 0.33205
 H3340 H 0.24614 0.31345 0.30461
 H3341 H 0.26531 0.26773 0.33210
 H3342 H 0.26475 0.28407 0.35963
 C3343 C 0.74559 0.84246 0.91282
 C3344 C 0.75098 0.83455 0.92860
 C3345 C 0.74794 0.84280 0.94473
 C3346 C 0.73941 0.85912 0.94547
 C3347 C 0.73416 0.86712 0.92971
 C3348 C 0.73724 0.85890 0.91357
 C3349 C 0.74830 0.83346 0.89574
 N3350 N 0.74327 0.84116 0.88047
 N3351 N 0.74522 0.83288 0.86518
 C3352 C 0.75227 0.81653 0.86448
 N3353 N 0.75740 0.80887 0.87974
 N3354 N 0.75546 0.81716 0.89504
 C3355 C 0.75372 0.80705 0.84751
 C3356 C 0.76004 0.78973 0.84688
 C3357 C 0.76044 0.78048 0.83100
 C3358 C 0.75455 0.78835 0.81537
 C3359 C 0.74867 0.80583 0.81595
 C3360 C 0.74826 0.81505 0.83181
 H3361 H 0.75742 0.82190 0.92854
 H3362 H 0.75196 0.83622 0.95668
 H3363 H 0.72777 0.87980 0.92985
 H3364 H 0.73295 0.86540 0.90168
 H3365 H 0.76441 0.78317 0.85870
 H3366 H 0.76512 0.76707 0.83104
 H3367 H 0.74410 0.81235 0.80418
 H3368 H 0.74339 0.82839 0.83177
 C3369 C 0.75721 0.84072 0.08494
 C3370 C 0.75226 0.83286 0.06897
 C3371 C 0.75560 0.84125 0.05298
 C3372 C 0.76403 0.85764 0.05258
 C3373 C 0.76889 0.86555 0.06852
 C3374 C 0.76549 0.85721 0.08451
 C3375 C 0.75400 0.83171 0.10192
 N3376 N 0.75803 0.83971 0.11735
 N3377 N 0.75557 0.83153 0.13261
 C3378 C 0.74896 0.81499 0.13313
 N3379 N 0.74484 0.80701 0.11771
 N3380 N 0.74729 0.81520 0.10243
 C3381 C 0.74688 0.80574 0.15016
 C3382 C 0.74128 0.78817 0.15081
 C3383 C 0.74029 0.77927 0.16688
 C3384 C 0.74489 0.78775 0.18263
 C3385 C 0.75003 0.80546 0.18197
 C3386 C 0.75102 0.81432 0.16597
 H3387 H 0.74586 0.82018 0.06880
 H3388 H 0.75184 0.83478 0.04088
 H3389 H 0.77519 0.87828 0.06863
 H3390 H 0.76946 0.86367 0.09654
 H3391 H 0.73793 0.78117 0.13889
 H3392 H 0.73624 0.76566 0.16690
 H3393 H 0.75358 0.81247 0.19383
 H3394 H 0.75528 0.82786 0.16600
 C3395 C 0.25206 0.34469 0.58754
 C3396 C 0.24735 0.33654 0.57166
 C3397 C 0.25077 0.34470 0.55558
 C3398 C 0.25901 0.36118 0.55501
 C3399 C 0.26345 0.36948 0.57088
 C3400 C 0.25998 0.36135 0.58696
 C3401 C 0.24927 0.33566 0.60457
 N3402 N 0.25352 0.34366 0.61994
 N3403 N 0.25171 0.33531 0.63519
 C3404 C 0.24558 0.31859 0.63576
 N3405 N 0.24120 0.31063 0.62041
 N3406 N 0.24299 0.31899 0.60514
 C3407 C 0.24442 0.30906 0.65270
 C3408 C 0.23929 0.29135 0.65325
 C3409 C 0.23925 0.28213 0.66913
 C3410 C 0.24434 0.29042 0.68483
 C3411 C 0.24902 0.30826 0.68433
 C3412 C 0.24906 0.31745 0.66847
 H3413 H 0.24123 0.32372 0.57160
 H3414 H 0.24737 0.33791 0.54355
 H3415 H 0.26961 0.38228 0.57084
 H3416 H 0.26373 0.36805 0.59893
 H3417 H 0.23559 0.28449 0.64135
 H3418 H 0.23552 0.26843 0.66905
 H3419 H 0.25292 0.31512 0.69616
 H3420 H 0.25300 0.33109 0.66858
 C3421 C 0.74334 0.15456 0.58440
 C3422 C 0.74905 0.16239 0.56868
 C3423 C 0.74599 0.15427 0.55250
 C3424 C 0.73711 0.13814 0.55166
 C3425 C 0.73151 0.13022 0.56737
 C3426 C 0.73461 0.13832 0.58356
 C3427 C 0.74615 0.16343 0.60153
 N3428 N 0.74094 0.15575 0.61678
 N3429 N 0.74307 0.16390 0.63212
 C3430 C 0.75050 0.18008 0.63289
 N3431 N 0.75579 0.18772 0.61765
 N3432 N 0.75368 0.17957 0.60231
 C3433 C 0.75228 0.18939 0.64992
 C3434 C 0.75893 0.20659 0.65060
 C3435 C 0.75981 0.21564 0.66656
 C3436 C 0.75409 0.20770 0.68224
 C3437 C 0.74782 0.19037 0.68160
 C3438 C 0.74691 0.18134 0.66565
 H3439 H 0.75579 0.17490 0.56882
 H3440 H 0.75027 0.16079 0.54061
 H3441 H 0.72483 0.11768 0.56715
 H3442 H 0.73006 0.13188 0.59540
 H3443 H 0.76323 0.21318 0.63875
 H3444 H 0.76478 0.22895 0.66656
 H3445 H 0.74334 0.18380 0.69341
 H3446 H 0.74179 0.16809 0.66565
 C3447 C 0.24422 0.65498 0.08336
 C3448 C 0.23551 0.63873 0.08248
 C3449 C 0.23250 0.63062 0.06628
 C3450 C 0.23816 0.63854 0.05060
 C3451 C 0.24710 0.65464 0.05148
 C3452 C 0.25007 0.66278 0.06766
 C3453 C 0.24681 0.66391 0.10048
 N3454 N 0.25418 0.68012 0.10128
 N3455 N 0.25600 0.68837 0.11661
 C3456 C 0.25056 0.68075 0.13181
 N3457 N 0.24330 0.66449 0.13102
 N3458 N 0.24147 0.65626 0.11569
 C3459 C 0.25195 0.69018 0.14881
 C3460 C 0.24641 0.68216 0.16450
 C3461 C 0.24688 0.69131 0.18040
 C3462 C 0.25288 0.70874 0.18102
 C3463 C 0.25878 0.71665 0.16539
 C3464 C 0.25833 0.70748 0.14948
 H3465 H 0.23087 0.63231 0.09430
 H3466 H 0.22579 0.61810 0.06603
 H3467 H 0.25146 0.66113 0.03959
 H3468 H 0.25681 0.67528 0.06783
 H3469 H 0.24149 0.66884 0.16450
 H3470 H 0.24229 0.68477 0.19217
 H3471 H 0.26354 0.73004 0.16538
 H3472 H 0.26274 0.71406 0.13767
 C3473 C 0.15667 0.58823 0.74523
 C3474 C 0.14029 0.58703 0.73678
 C3475 C 0.13238 0.57074 0.73402
 C3476 C 0.14062 0.55526 0.73967
 C3477 C 0.15682 0.55646 0.74841
 C3478 C 0.16476 0.57275 0.75115
 C3479 C 0.16542 0.60545 0.74746
 N3480 N 0.18162 0.60660 0.75484
 N3481 N 0.18970 0.62202 0.75634
 C3482 C 0.18194 0.63696 0.75053
 N3483 N 0.16570 0.63582 0.74324
 N3484 N 0.15762 0.62040 0.74173
 C3485 C 0.19115 0.65405 0.75169
 C3486 C 0.18305 0.66946 0.74560
 C3487 C 0.19192 0.68548 0.74615
 C3488 C 0.20912 0.68651 0.75278
 C3489 C 0.21714 0.67114 0.75908
 C3490 C 0.20825 0.65511 0.75855
 H3491 H 0.13364 0.59867 0.73212
 H3492 H 0.11977 0.57024 0.72747
 H3493 H 0.16356 0.54474 0.75276
 H3494 H 0.17737 0.57317 0.75771
 H3495 H 0.16988 0.66915 0.74027
 H3496 H 0.18532 0.69704 0.74121
 H3497 H 0.23035 0.67144 0.76433
 H3498 H 0.21488 0.64352 0.76337
 C3499 C 0.65729 0.08767 0.24489
 C3500 C 0.64079 0.08678 0.23663
 C3501 C 0.63265 0.07061 0.23375
 C3502 C 0.64078 0.05497 0.23909
 C3503 C 0.65712 0.05586 0.24760
 C3504 C 0.66530 0.07202 0.25045
 C3505 C 0.66626 0.10477 0.24727
 N3506 N 0.68265 0.10561 0.25425
 N3507 N 0.69092 0.12092 0.25586
 C3508 C 0.68315 0.13606 0.25059
 N3509 N 0.66671 0.13522 0.24372
 N3510 N 0.65844 0.11991 0.24210
 C3511 C 0.69257 0.15304 0.25177
 C3512 C 0.68441 0.16864 0.24632
 C3513 C 0.69351 0.18453 0.24668
 C3514 C 0.71103 0.18524 0.25247
 C3515 C 0.71910 0.16969 0.25824
 C3516 C 0.70998 0.15378 0.25790
 H3517 H 0.63421 0.09856 0.23223
 H3518 H 0.61995 0.07034 0.22737
 H3519 H 0.66379 0.04401 0.25170
 H3520 H 0.67799 0.07221 0.25684
 H3521 H 0.67100 0.16858 0.24158
 H3522 H 0.68685 0.19624 0.24219
 H3523 H 0.73255 0.16975 0.26285
 H3524 H 0.71667 0.14203 0.26223
 C3525 C 0.84339 0.08267 0.75580
 C3526 C 0.83557 0.06683 0.75049
 C3527 C 0.84386 0.05081 0.75375
 C3528 C 0.86012 0.05026 0.76246
 C3529 C 0.86801 0.06608 0.76764
 C3530 C 0.85977 0.08210 0.76432
 C3531 C 0.83442 0.09966 0.75278
 N3532 N 0.84236 0.11500 0.75714
 N3533 N 0.83417 0.13025 0.75488
 C3534 C 0.81766 0.13085 0.74817
 N3535 N 0.80973 0.11552 0.74371
 N3536 N 0.81794 0.10025 0.74595
 C3537 C 0.80835 0.14783 0.74633
 C3538 C 0.79075 0.14847 0.74075
 C3539 C 0.78176 0.16446 0.73998
 C3540 C 0.79018 0.18017 0.74475
 C3541 C 0.80791 0.17954 0.74988
 C3542 C 0.81686 0.16359 0.75067
 H3543 H 0.82297 0.06677 0.74390
 H3544 H 0.83741 0.03880 0.74974
 H3545 H 0.88064 0.06607 0.77417
 H3546 H 0.86620 0.09404 0.76856
 H3547 H 0.78379 0.13658 0.73727
 H3548 H 0.76813 0.16445 0.73592
 H3549 H 0.81487 0.19137 0.75357
 H3550 H 0.83043 0.16363 0.75492
 C3551 C 0.34262 0.58597 0.25429
 C3552 C 0.35895 0.58539 0.26291
 C3553 C 0.36715 0.56935 0.26628
 C3554 C 0.35927 0.55354 0.26106
 C3555 C 0.34308 0.55411 0.25224
 C3556 C 0.33483 0.57013 0.24892
 C3557 C 0.33362 0.60295 0.25129
 N3558 N 0.31727 0.60350 0.24416
 N3559 N 0.30898 0.61872 0.24198
 C3560 C 0.31668 0.63405 0.24680
 N3561 N 0.33307 0.63350 0.25381
 N3562 N 0.34135 0.61829 0.25602
 C3563 C 0.30721 0.65095 0.24503
 C3564 C 0.31538 0.66676 0.24986
 C3565 C 0.30620 0.68260 0.24911
 C3566 C 0.28860 0.68304 0.24354
 C3567 C 0.28055 0.66728 0.23831
 C3568 C 0.28975 0.65143 0.23904
 H3569 H 0.36535 0.59732 0.26720
 H3570 H 0.37974 0.56933 0.27290
 H3571 H 0.33660 0.54212 0.24822
 H3572 H 0.32227 0.57008 0.24226
 H3573 H 0.32883 0.66692 0.25446
 H3574 H 0.31287 0.69447 0.25318
 H3575 H 0.26703 0.66713 0.23389
 H3576 H 0.28306 0.63951 0.23517
 C3577 C 0.34401 0.41308 0.24365
 C3578 C 0.36052 0.41391 0.23536
 C3579 C 0.36864 0.43007 0.23231
 C3580 C 0.36047 0.44575 0.23752
 C3581 C 0.34409 0.44493 0.24602
 C3582 C 0.33594 0.42878 0.24904
 C3583 C 0.33509 0.39599 0.24630
 N3584 N 0.31873 0.39520 0.25344
 N3585 N 0.31052 0.37989 0.25534
 C3586 C 0.31831 0.36470 0.25019
 N3587 N 0.33471 0.36548 0.24315
 N3588 N 0.34292 0.38079 0.24124
 C3589 C 0.30894 0.34771 0.25170
 C3590 C 0.31709 0.33205 0.24635
 C3591 C 0.30801 0.31614 0.24700
 C3592 C 0.29054 0.31549 0.25300
 C3593 C 0.28249 0.33110 0.25870
 C3594 C 0.29159 0.34702 0.25806
 H3595 H 0.36715 0.40209 0.23108
 H3596 H 0.38137 0.43028 0.22594
 H3597 H 0.33738 0.45681 0.25001
 H3598 H 0.32322 0.42865 0.25544
 H3599 H 0.33045 0.33207 0.24144
 H3600 H 0.31465 0.30438 0.24256
 H3601 H 0.26908 0.33109 0.26346
 H3602 H 0.28492 0.35881 0.26234
 C3603 C 0.84331 0.91151 0.74264
 C3604 C 0.85995 0.91205 0.73457
 C3605 C 0.86848 0.92803 0.73179
 C3606 C 0.86060 0.94385 0.73703
 C3607 C 0.84409 0.94332 0.74531
 C3608 C 0.83553 0.92734 0.74806
 C3609 C 0.83402 0.89458 0.74506
 N3610 N 0.81756 0.89405 0.75200
 N3611 N 0.80906 0.87887 0.75374
 C3612 C 0.81666 0.86357 0.74863
 N3613 N 0.83315 0.86411 0.74178
 N3614 N 0.84164 0.87927 0.74003
 C3615 C 0.80705 0.84671 0.75004
 C3616 C 0.81506 0.83097 0.74470
 C3617 C 0.80585 0.81515 0.74537
 C3618 C 0.78837 0.81464 0.75138
 C3619 C 0.78044 0.83033 0.75701
 C3620 C 0.78967 0.84618 0.75635
 H3621 H 0.86637 0.90012 0.73028
 H3622 H 0.88130 0.92802 0.72560
 H3623 H 0.83762 0.95532 0.74934
 H3624 H 0.82273 0.92743 0.75431
 H3625 H 0.82843 0.83086 0.73983
 H3626 H 0.81242 0.80334 0.74098
 H3627 H 0.76702 0.83042 0.76176
 H3628 H 0.78310 0.85804 0.76060
 C3629 C 0.65693 0.91445 0.25600
 C3630 C 0.66502 0.93028 0.25108
 C3631 C 0.65677 0.94633 0.25434
 C3632 C 0.64027 0.94694 0.26264
 C3633 C 0.63210 0.93113 0.26743
 C3634 C 0.64031 0.91507 0.26412
 C3635 C 0.66592 0.89744 0.25305
 N3636 N 0.65789 0.88211 0.25731
 N3637 N 0.66612 0.86686 0.25513
 C3638 C 0.68274 0.86624 0.24860
 N3639 N 0.69074 0.88156 0.24424
 N3640 N 0.68250 0.89683 0.24640
 C3641 C 0.69208 0.84925 0.24686
 C3642 C 0.70969 0.84857 0.24125
 C3643 C 0.71869 0.83257 0.24057
 C3644 C 0.71027 0.81691 0.24550
 C3645 C 0.69253 0.81758 0.25067
 C3646 C 0.68356 0.83353 0.25135
 H3647 H 0.67781 0.93032 0.24483
 H3648 H 0.66349 0.95831 0.25069
 H3649 H 0.61929 0.93119 0.27366
 H3650 H 0.63367 0.90314 0.26806
 H3651 H 0.71664 0.86042 0.23765
 H3652 H 0.73233 0.83253 0.23648
 H3653 H 0.68556 0.80579 0.25447
 H3654 H 0.66999 0.83351 0.25564
 C3655 C 0.15745 0.41472 0.75795
 C3656 C 0.14095 0.41543 0.76628
 C3657 C 0.13273 0.43153 0.76942
 C3658 C 0.14079 0.44728 0.76425
 C3659 C 0.15719 0.44656 0.75575
 C3660 C 0.16543 0.43048 0.75265
 C3661 C 0.16645 0.39769 0.75513
 N3662 N 0.18280 0.39703 0.74795
 N3663 N 0.19107 0.38178 0.74586
 C3664 C 0.18334 0.36651 0.75084
 N3665 N 0.16695 0.36716 0.75792
 N3666 N 0.15869 0.38241 0.76002
 C3667 C 0.19277 0.34957 0.74912
 C3668 C 0.18465 0.33385 0.75431
 C3669 C 0.19376 0.31798 0.75352
 C3670 C 0.21125 0.31740 0.74754
 C3671 C 0.21926 0.33306 0.74197
 C3672 C 0.21012 0.34896 0.74275
 H3673 H 0.13439 0.40355 0.77051
 H3674 H 0.12000 0.43166 0.77580
 H3675 H 0.16384 0.45849 0.75181
 H3676 H 0.17814 0.43045 0.74623
 H3677 H 0.17128 0.33379 0.75921
 H3678 H 0.18713 0.30618 0.75786
 H3679 H 0.23268 0.33311 0.73723
 H3680 H 0.21677 0.36081 0.73859
 C3681 C 0.08166 0.76109 0.84038
 C3682 C 0.07053 0.77505 0.83580
 C3683 C 0.05466 0.77762 0.84469
 C3684 C 0.04945 0.76609 0.85808
 C3685 C 0.06040 0.75197 0.86252
 C3686 C 0.07648 0.74960 0.85387
 C3687 C 0.09862 0.75869 0.83117
 N3688 N 0.11217 0.75015 0.83901
 N3689 N 0.12757 0.74841 0.83083
 C3690 C 0.12999 0.75499 0.81441
 N3691 N 0.11639 0.76339 0.80653
 N3692 N 0.10106 0.76527 0.81477
 C3693 C 0.14713 0.75335 0.80535
 C3694 C 0.14811 0.75443 0.78695
 C3695 C 0.16431 0.75337 0.77836
 C3696 C 0.17992 0.75155 0.78801
 C3697 C 0.17896 0.75041 0.80643
 C3698 C 0.16269 0.75113 0.81500
 H3699 H 0.07421 0.78416 0.82552
 H3700 H 0.04635 0.78854 0.84100
 H3701 H 0.05664 0.74296 0.87286
 H3702 H 0.08477 0.73869 0.85762
 H3703 H 0.13633 0.75607 0.77916
 H3704 H 0.16466 0.75436 0.76416
 H3705 H 0.19077 0.74892 0.81420
 H3706 H 0.16234 0.75032 0.82921
 C3707 C 0.58566 0.25818 0.34016
 C3708 C 0.57508 0.27264 0.33588
 C3709 C 0.55938 0.27570 0.34490
 C3710 C 0.55378 0.26416 0.35813
 C3711 C 0.56423 0.24959 0.36232
 C3712 C 0.58015 0.24673 0.35355
 C3713 C 0.60237 0.25516 0.33068
 N3714 N 0.61570 0.24609 0.33828
 N3715 N 0.63090 0.24381 0.32984
 C3716 C 0.63329 0.25034 0.31340
 N3717 N 0.61989 0.25926 0.30576
 N3718 N 0.60477 0.26168 0.31425
 C3719 C 0.65026 0.24830 0.30414
 C3720 C 0.65105 0.24950 0.28573
 C3721 C 0.66716 0.24850 0.27697
 C3722 C 0.68287 0.24664 0.28646
 C3723 C 0.68207 0.24517 0.30485
 C3724 C 0.66590 0.24582 0.31360
 H3725 H 0.57903 0.28174 0.32568
 H3726 H 0.55145 0.28696 0.34139
 H3727 H 0.56015 0.24056 0.37253
 H3728 H 0.58802 0.23544 0.35707
 H3729 H 0.63920 0.25131 0.27809
 H3730 H 0.66736 0.24973 0.26279
 H3731 H 0.69397 0.24363 0.31249
 H3732 H 0.66569 0.24490 0.32780
 C3733 C 0.58540 0.74347 0.15659
 C3734 C 0.58514 0.73520 0.14006
 C3735 C 0.56924 0.73180 0.13157
 C3736 C 0.55323 0.73666 0.13938
 C3737 C 0.55346 0.74508 0.15581
 C3738 C 0.56936 0.74841 0.16435
 C3739 C 0.60227 0.74660 0.16579
 N3740 N 0.60258 0.75314 0.18241
 N3741 N 0.61774 0.75548 0.19082
 C3742 C 0.63325 0.75141 0.18294
 N3743 N 0.63293 0.74500 0.16628
 N3744 N 0.61778 0.74264 0.15790
 C3745 C 0.65014 0.75330 0.19244
 C3746 C 0.66606 0.74928 0.18397
 C3747 C 0.68193 0.75000 0.19308
 C3748 C 0.68233 0.75477 0.21094
 C3749 C 0.66648 0.75928 0.21932
 C3750 C 0.65055 0.75856 0.21017
 H3751 H 0.59723 0.73123 0.13368
 H3752 H 0.56947 0.72549 0.11882
 H3753 H 0.54130 0.74880 0.16222
 H3754 H 0.56906 0.75478 0.17706
 H3755 H 0.66628 0.74529 0.17031
 H3756 H 0.69387 0.74654 0.18614
 H3757 H 0.66631 0.76305 0.23304
 H3758 H 0.63854 0.76181 0.21709
 C3759 C 0.08657 0.24392 0.65795
 C3760 C 0.08642 0.23607 0.64121
 C3761 C 0.07057 0.23285 0.63256
 C3762 C 0.05451 0.23745 0.64040
 C3763 C 0.05463 0.24549 0.65702
 C3764 C 0.07048 0.24865 0.66573
 C3765 C 0.10340 0.24684 0.66730
 N3766 N 0.10365 0.25302 0.68406
 N3767 N 0.11879 0.25518 0.69256
 C3768 C 0.13433 0.25129 0.68464
 N3769 N 0.13406 0.24522 0.66786
 N3770 N 0.11894 0.24304 0.65938
 C3771 C 0.15121 0.25306 0.69419
 C3772 C 0.16713 0.24916 0.68566
 C3773 C 0.18301 0.24990 0.69473
 C3774 C 0.18344 0.25456 0.71262
 C3775 C 0.16758 0.25887 0.72109
 C3776 C 0.15163 0.25813 0.71197
 H3777 H 0.09855 0.23229 0.63479
 H3778 H 0.07089 0.22685 0.61965
 H3779 H 0.04242 0.24904 0.66344
 H3780 H 0.07010 0.25471 0.67859
 H3781 H 0.16735 0.24530 0.67196
 H3782 H 0.19496 0.24660 0.68772
 H3783 H 0.16744 0.26255 0.73484
 H3784 H 0.13962 0.26126 0.71894
 C3785 C 0.91471 0.25356 0.65484
 C3786 C 0.93051 0.24834 0.66282
 C3787 C 0.94666 0.25192 0.65483
 C3788 C 0.94739 0.26083 0.63870
 C3789 C 0.93162 0.26591 0.63061
 C3790 C 0.91546 0.26229 0.63857
 C3791 C 0.89760 0.25028 0.66360
 N3792 N 0.88229 0.25500 0.65578
 N3793 N 0.86697 0.25258 0.66389
 C3794 C 0.86628 0.24533 0.68018
 N3795 N 0.88158 0.24049 0.68795
 N3796 N 0.89691 0.24290 0.67983
 C3797 C 0.84927 0.24341 0.68953
 C3798 C 0.84869 0.23719 0.70692
 C3799 C 0.83279 0.23648 0.71611
 C3800 C 0.81707 0.24194 0.70812
 C3801 C 0.81759 0.24766 0.69055
 C3802 C 0.83349 0.24839 0.68139
 H3803 H 0.93044 0.24161 0.67535
 H3804 H 0.95861 0.24800 0.66145
 H3805 H 0.93178 0.27259 0.61805
 H3806 H 0.90356 0.26647 0.63202
 H3807 H 0.86059 0.23318 0.71359
 H3808 H 0.83288 0.23194 0.72959
 H3809 H 0.80574 0.25191 0.68394
 H3810 H 0.83342 0.25316 0.66799
 C3811 C 0.41308 0.75400 0.15454
 C3812 C 0.41384 0.76243 0.13811
 C3813 C 0.42998 0.76558 0.12993
 C3814 C 0.44573 0.76032 0.13794
 C3815 C 0.44498 0.75169 0.15423
 C3816 C 0.42885 0.74859 0.16246
 C3817 C 0.39599 0.75125 0.16352
 N3818 N 0.39528 0.74433 0.17996
 N3819 N 0.37995 0.74236 0.18822
 C3820 C 0.36469 0.74721 0.18039
 N3821 N 0.36540 0.75402 0.16391
 N3822 N 0.38072 0.75600 0.15566
 C3823 C 0.34767 0.74568 0.18980
 C3824 C 0.33195 0.75055 0.18147
 C3825 C 0.31600 0.75000 0.19055
 C3826 C 0.31535 0.74459 0.20820
 C3827 C 0.33102 0.73933 0.21643
 C3828 C 0.34699 0.73987 0.20732
 H3829 H 0.40196 0.76674 0.13161
 H3830 H 0.43015 0.77206 0.11727
 H3831 H 0.45692 0.74766 0.16081
 H3832 H 0.42877 0.74208 0.17510
 H3833 H 0.33194 0.75502 0.16797
 H3834 H 0.30420 0.75408 0.18375
 H3835 H 0.33100 0.73504 0.22999
 H3836 H 0.35884 0.73598 0.21413
 C3837 C 0.41440 0.24494 0.34374
 C3838 C 0.41497 0.23692 0.36037
 C3839 C 0.43104 0.23385 0.36869
 C3840 C 0.44689 0.23878 0.36061
 C3841 C 0.44632 0.24700 0.34409
 C3842 C 0.43027 0.25002 0.33574
 C3843 C 0.39740 0.24762 0.33462
 N3844 N 0.39688 0.25412 0.31800
 N3845 N 0.38164 0.25603 0.30963
 C3846 C 0.36626 0.25155 0.31753
 N3847 N 0.36678 0.24516 0.33418
 N3848 N 0.38201 0.24323 0.34254
 C3849 C 0.34933 0.25301 0.30802
 C3850 C 0.33349 0.24857 0.31642
 C3851 C 0.31761 0.24904 0.30728
 C3852 C 0.31715 0.25395 0.28947
 C3853 C 0.33294 0.25879 0.28115
 C3854 C 0.34884 0.25834 0.29033
 H3855 H 0.40301 0.23287 0.36694
 H3856 H 0.43106 0.22768 0.38151
 H3857 H 0.45833 0.25076 0.33745
 H3858 H 0.43034 0.25621 0.32294
 H3859 H 0.33334 0.24450 0.33005
 H3860 H 0.30572 0.24530 0.31416
 H3861 H 0.33307 0.26268 0.26747
 H3862 H 0.36079 0.26189 0.28345
 C3863 C 0.91275 0.74338 0.84147
 C3864 C 0.91807 0.75505 0.85476
 C3865 C 0.93385 0.75231 0.86377
 C3866 C 0.94434 0.73767 0.85991
 C3867 C 0.93893 0.72591 0.84680
 C3868 C 0.92338 0.72883 0.83755
 C3869 C 0.89621 0.74627 0.83173
 N3870 N 0.89403 0.73938 0.81541
 N3871 N 0.87905 0.74164 0.80671
 C3872 C 0.86557 0.75077 0.81400
 N3873 N 0.86774 0.75769 0.83032
 N3874 N 0.88280 0.75556 0.83897
 C3875 C 0.84869 0.75257 0.80456
 C3876 C 0.83297 0.75539 0.81386
 C3877 C 0.81688 0.75576 0.80503
 C3878 C 0.81623 0.75368 0.78669
 C3879 C 0.83201 0.75149 0.77733
 C3880 C 0.84805 0.75077 0.78620
 H3881 H 0.91016 0.76640 0.85801
 H3882 H 0.93780 0.76153 0.87386
 H3883 H 0.94692 0.71461 0.84353
 H3884 H 0.91958 0.71957 0.82745
 H3885 H 0.83306 0.75678 0.82803
 H3886 H 0.80493 0.75757 0.81257
 H3887 H 0.83191 0.74979 0.76319
 H3888 H 0.85997 0.74868 0.77867
   
