data_POSCAR
  _audit_creation_date              2014-09-24
  _audit_creation_method            'ToBaCCo'
  _symmetry_space_group_name_H-M    'P1'
  _symmetry_Int_Tables_number       1
  _symmetry_cell_setting            triclinic
  loop_
  _symmetry_equiv_pos_as_xyz
 x,y,z
_cell_length_a 69.4366
_cell_length_b 69.4536
_cell_length_c 69.4814
_cell_angle_alpha 89.969700
_cell_angle_beta 89.993100
_cell_angle_gamma 89.995700
loop_
  _atom_site_label
  _atom_site_type_symbol
  _atom_site_fract_x
  _atom_site_fract_y
  _atom_site_fract_z
C1 C 0.19288 0.21969 0.21407
 C2 C 0.20364 0.22508 0.19787
 C3 C 0.21965 0.21442 0.19252
 C4 C 0.22507 0.19824 0.20331
 C5 C 0.21443 0.19291 0.21933
 C6 C 0.19824 0.20370 0.22474
 C7 C 0.17668 0.22732 0.22259
 N8 N 0.17222 0.21632 0.23806
 C9 C 0.18522 0.20186 0.23958
 C10 C 0.22295 0.17672 0.22697
 N11 N 0.23840 0.17223 0.21594
 C12 C 0.23990 0.18520 0.20146
 C13 C 0.22725 0.22292 0.17629
 N14 N 0.21622 0.23837 0.17181
 C15 C 0.20177 0.23989 0.18482
 H16 H 0.16872 0.23988 0.21792
 H17 H 0.18516 0.19086 0.25063
 H18 H 0.21830 0.16878 0.23955
 H19 H 0.25092 0.18511 0.19044
 H20 H 0.23981 0.21825 0.16833
 H21 H 0.19075 0.25092 0.18474
 C22 C 0.69285 0.71958 0.71431
 C23 C 0.70362 0.72499 0.69811
 C24 C 0.71962 0.71434 0.69276
 C25 C 0.72504 0.69815 0.70354
 C26 C 0.71440 0.69281 0.71955
 C27 C 0.69821 0.70359 0.72497
 C28 C 0.67664 0.72720 0.72283
 N29 N 0.67218 0.71618 0.73829
 C30 C 0.68518 0.70173 0.73980
 C31 C 0.72292 0.67660 0.72717
 N32 N 0.73836 0.67212 0.71614
 C33 C 0.73987 0.68511 0.70168
 C34 C 0.72722 0.72284 0.67654
 N35 N 0.71619 0.73829 0.67206
 C36 C 0.70174 0.73981 0.68507
 H37 H 0.66867 0.73976 0.71816
 H38 H 0.68512 0.69071 0.75083
 H39 H 0.71826 0.66865 0.73974
 H40 H 0.75089 0.68502 0.69066
 H41 H 0.73978 0.71818 0.66857
 H42 H 0.69072 0.75084 0.68499
 C43 C 0.30654 0.78066 0.71451
 C44 C 0.29577 0.77528 0.69831
 C45 C 0.27980 0.78597 0.69294
 C46 C 0.27441 0.80217 0.70370
 C47 C 0.28506 0.80750 0.71971
 C48 C 0.30122 0.79667 0.72514
 C49 C 0.32272 0.77300 0.72304
 N50 N 0.32720 0.78400 0.73849
 C51 C 0.31425 0.79849 0.73997
 C52 C 0.27658 0.82372 0.72733
 N53 N 0.26115 0.82823 0.71628
 C54 C 0.25961 0.81525 0.70182
 C55 C 0.27217 0.77747 0.67674
 N56 N 0.28316 0.76199 0.67229
 C57 C 0.29761 0.76045 0.68530
 H58 H 0.33065 0.76040 0.71839
 H59 H 0.31434 0.80950 0.75100
 H60 H 0.28127 0.83165 0.73990
 H61 H 0.24858 0.81534 0.69079
 H62 H 0.25962 0.78216 0.66877
 H63 H 0.30859 0.74938 0.68524
 C64 C 0.80757 0.28032 0.21442
 C65 C 0.79685 0.27490 0.19820
 C66 C 0.78085 0.28553 0.19280
 C67 C 0.77537 0.30171 0.20355
 C68 C 0.78596 0.30707 0.21958
 C69 C 0.80215 0.29631 0.22505
 C70 C 0.82376 0.27271 0.22298
 N71 N 0.82815 0.28374 0.23844
 C72 C 0.81513 0.29819 0.23992
 C73 C 0.77739 0.32325 0.22717
 N74 N 0.76196 0.32771 0.21611
 C75 C 0.76053 0.31472 0.20165
 C76 C 0.77329 0.27701 0.17658
 N77 N 0.78435 0.26157 0.17215
 C78 C 0.79877 0.26008 0.18518
 H79 H 0.83175 0.26015 0.21833
 H80 H 0.81514 0.30921 0.25095
 H81 H 0.78200 0.33121 0.23975
 H82 H 0.74952 0.31478 0.19060
 H83 H 0.76073 0.28165 0.16859
 H84 H 0.80980 0.24906 0.18515
 C85 C 0.80780 0.71994 0.28492
 C86 C 0.79704 0.72539 0.30110
 C87 C 0.78104 0.71476 0.30650
 C88 C 0.77561 0.69854 0.29578
 C89 C 0.78624 0.69315 0.27979
 C90 C 0.80243 0.70390 0.27432
 C91 C 0.82400 0.72754 0.27636
 N92 N 0.82844 0.71647 0.26094
 C93 C 0.81545 0.70200 0.25948
 C94 C 0.77770 0.67693 0.27223
 N95 N 0.76226 0.67250 0.28327
 C96 C 0.76077 0.68552 0.29769
 C97 C 0.77343 0.72331 0.32267
 N98 N 0.78445 0.73877 0.32709
 C99 C 0.79891 0.74025 0.31409
 H100 H 0.83196 0.74013 0.28099
 H101 H 0.81549 0.69095 0.24849
 H102 H 0.78234 0.66894 0.25968
 H103 H 0.74974 0.68549 0.30871
 H104 H 0.76086 0.71867 0.33065
 H105 H 0.80992 0.75129 0.31412
 C106 C 0.30736 0.21943 -0.21467
 C107 C 0.29651 0.22492 -0.19856
 C108 C 0.28049 0.21428 -0.19321
 C109 C 0.27514 0.19802 -0.20390
 C110 C 0.28587 0.19259 -0.21983
 C111 C 0.30207 0.20336 -0.22524
 C112 C 0.32359 0.22703 -0.22316
 N113 N 0.32813 0.21593 -0.23852
 C114 C 0.31517 0.20143 -0.24001
 C115 C 0.27740 0.17633 -0.22739
 N116 N 0.26190 0.17192 -0.21640
 C117 C 0.26031 0.18498 -0.20202
 C118 C 0.27279 0.22287 -0.17709
 N119 N 0.28377 0.23836 -0.17268
 C120 C 0.29829 0.23982 -0.18561
 H121 H 0.33150 0.23965 -0.21853
 H122 H 0.31528 0.19035 -0.25097
 H123 H 0.28213 0.16832 -0.23990
 H124 H 0.24923 0.18498 -0.19105
 H125 H 0.26019 0.21824 -0.16916
 H126 H 0.30929 0.25087 -0.18556
 C127 C 0.69284 0.28033 -0.21464
 C128 C 0.70367 0.27488 -0.19850
 C129 C 0.71968 0.28552 -0.19318
 C130 C 0.72506 0.30174 -0.20393
 C131 C 0.71436 0.30713 -0.21989
 C132 C 0.69815 0.29636 -0.22527
 C133 C 0.67661 0.27271 -0.22311
 N134 N 0.67210 0.28377 -0.23853
 C135 C 0.68507 0.29825 -0.24006
 C136 C 0.72286 0.32335 -0.22751
 N137 N 0.73834 0.32778 -0.21652
 C138 C 0.73991 0.31476 -0.20209
 C139 C 0.72736 0.27696 -0.17702
 N140 N 0.71636 0.26149 -0.17255
 C141 C 0.70186 0.26001 -0.18549
 H142 H 0.66869 0.26011 -0.21844
 H143 H 0.68498 0.30929 -0.25108
 H144 H 0.71814 0.33133 -0.24005
 H145 H 0.75097 0.31479 -0.19110
 H146 H 0.73996 0.28160 -0.16910
 H147 H 0.69085 0.24897 -0.18541
 C148 C 0.19277 0.78062 0.28528
 C149 C 0.20350 0.77518 0.30149
 C150 C 0.21949 0.78580 0.30690
 C151 C 0.22496 0.80200 0.29615
 C152 C 0.21436 0.80739 0.28013
 C153 C 0.19817 0.79663 0.27466
 C154 C 0.17659 0.77302 0.27671
 N155 N 0.17217 0.78406 0.26126
 C156 C 0.18518 0.79852 0.25980
 C157 C 0.22292 0.82359 0.27254
 N158 N 0.23834 0.82802 0.28361
 C159 C 0.23980 0.81502 0.29807
 C160 C 0.22706 0.77726 0.32311
 N161 N 0.21601 0.76181 0.32753
 C162 C 0.20158 0.76033 0.31450
 H163 H 0.16861 0.76045 0.28133
 H164 H 0.18515 0.80954 0.24877
 H165 H 0.21829 0.83156 0.25995
 H166 H 0.25081 0.81504 0.30912
 H167 H 0.23961 0.78189 0.33110
 H168 H 0.19056 0.74931 0.31453
 C169 C 0.46961 0.44266 0.46471
 C170 C 0.47505 0.45344 0.44852
 C171 C 0.46440 0.46944 0.44315
 C172 C 0.44818 0.47485 0.45389
 C173 C 0.44281 0.46420 0.46989
 C174 C 0.45359 0.44801 0.47533
 C175 C 0.47723 0.42647 0.47325
 N176 N 0.46619 0.42200 0.48868
 C177 C 0.45171 0.43498 0.49016
 C178 C 0.42659 0.47272 0.47748
 N179 N 0.42214 0.48817 0.46645
 C180 C 0.43515 0.48968 0.45201
 C181 C 0.47294 0.47706 0.42696
 N182 N 0.48841 0.46605 0.42253
 C183 C 0.48991 0.45159 0.43552
 H184 H 0.48982 0.41852 0.46862
 H185 H 0.44068 0.43492 0.50118
 H186 H 0.41862 0.46806 0.49004
 H187 H 0.43510 0.50072 0.44100
 H188 H 0.46829 0.48963 0.41900
 H189 H 0.50095 0.44058 0.43547
 C190 C -0.03041 -0.05749 0.96461
 C191 C -0.02491 -0.04666 0.94848
 C192 C -0.03551 -0.03062 0.94315
 C193 C -0.05174 -0.02521 0.95388
 C194 C -0.05718 -0.03592 0.96982
 C195 C -0.04645 -0.05215 0.97522
 C196 C -0.02284 -0.07374 0.97310
 N197 N -0.03394 -0.07824 0.98849
 C198 C -0.04839 -0.06523 0.99000
 C199 C -0.07340 -0.02739 0.97742
 N200 N -0.07778 -0.01188 0.96643
 C201 C -0.06473 -0.01034 0.95202
 C202 C -0.02691 -0.02295 0.92702
 N203 N -0.01146 -0.03398 0.92257
 C204 C -0.01003 -0.04849 0.93551
 H205 H -0.01025 -0.08169 0.96845
 H206 H -0.05946 -0.06531 1.00099
 H207 H -0.08141 -0.03209 0.98995
 H208 H -0.06472 0.00074 0.94104
 H209 H -0.03151 -0.01033 0.91909
 H210 H 0.00099 -0.05953 0.93544
 C211 C 1.03040 0.55736 0.96474
 C212 C 1.02494 0.54654 0.94861
 C213 C 1.03560 0.53055 0.94326
 C214 C 1.05185 0.52518 0.95398
 C215 C 1.05725 0.53587 0.96993
 C216 C 1.04646 0.55206 0.97534
 C217 C 1.02277 0.57356 0.97325
 N218 N 1.03384 0.57807 0.98864
 C219 C 1.04835 0.56512 0.99014
 C220 C 1.07350 0.52738 0.97752
 N221 N 1.07793 0.51191 0.96651
 C222 C 1.06489 0.51035 0.95210
 C223 C 1.02703 0.52287 0.92712
 N224 N 1.01153 0.53385 0.92269
 C225 C 1.01005 0.54834 0.93564
 H226 H 1.01015 0.58147 0.96861
 H227 H 1.05941 0.56521 1.00113
 H228 H 1.08148 0.53209 0.99005
 H229 H 1.06490 0.49929 0.94111
 H230 H 1.03168 0.51029 0.91919
 H231 H 0.99899 0.55933 0.93558
 C232 C 0.53070 0.05692 0.46483
 C233 C 0.52523 0.04616 0.44865
 C234 C 0.53588 0.03019 0.44324
 C235 C 0.55213 0.02477 0.45393
 C236 C 0.55754 0.03541 0.46992
 C237 C 0.54676 0.05157 0.47540
 C238 C 0.52308 0.07309 0.47341
 N239 N 0.53416 0.07754 0.48881
 C240 C 0.54865 0.06457 0.49023
 C241 C 0.57379 0.02689 0.47746
 N242 N 0.57822 0.01146 0.46640
 C243 C 0.56517 0.00996 0.45199
 C244 C 0.52730 0.02258 0.42707
 N245 N 0.51180 0.03358 0.42269
 C246 C 0.51033 0.04802 0.43570
 H247 H 0.51047 0.08103 0.46882
 H248 H 0.55971 0.06464 0.50122
 H249 H 0.58178 0.03155 0.49001
 H250 H 0.56519 -0.00106 0.44096
 H251 H 0.53194 0.01003 0.41908
 H252 H 0.49927 0.05901 0.43569
 C253 C -0.03027 0.05748 0.53596
 C254 C -0.02484 0.04671 0.55216
 C255 C -0.03547 0.03070 0.55753
 C256 C -0.05165 0.02526 0.54676
 C257 C -0.05702 0.03589 0.53076
 C258 C -0.04627 0.05209 0.52533
 C259 C -0.02267 0.07368 0.52743
 N260 N -0.03370 0.07812 0.51198
 C261 C -0.04814 0.06511 0.51049
 C262 C -0.07321 0.02735 0.52314
 N263 N -0.07766 0.01189 0.53417
 C264 C -0.06467 0.01041 0.54863
 C265 C -0.02693 0.02310 0.57373
 N266 N -0.01149 0.03414 0.57818
 C267 C -0.01001 0.04860 0.56518
 H268 H -0.01011 0.08166 0.53207
 H269 H -0.05916 0.06516 0.49946
 H270 H -0.08117 0.03199 0.51057
 H271 H -0.06472 -0.00063 0.55965
 H272 H -0.03157 0.01052 0.58169
 H273 H 0.00102 0.05962 0.56524
 C274 C 0.46953 0.55757 0.03545
 C275 C 0.47493 0.54679 0.05164
 C276 C 0.46427 0.53078 0.05699
 C277 C 0.44809 0.52536 0.04620
 C278 C 0.44275 0.53601 0.03019
 C279 C 0.45353 0.55221 0.02478
 C280 C 0.47716 0.57377 0.02693
 N281 N 0.46614 0.57822 0.01147
 C282 C 0.45168 0.56523 0.00994
 C283 C 0.42656 0.52748 0.02256
 N284 N 0.42209 0.51203 0.03357
 C285 C 0.43506 0.51053 0.04805
 C286 C 0.47278 0.52316 0.07319
 N287 N 0.48823 0.53418 0.07767
 C288 C 0.48974 0.54865 0.06468
 H289 H 0.48973 0.58172 0.03161
 H290 H 0.44067 0.56528 -0.00110
 H291 H 0.41862 0.53214 0.00998
 H292 H 0.43499 0.49949 0.05906
 H293 H 0.46812 0.51058 0.08114
 H294 H 0.50078 0.55966 0.06476
 C295 C 0.53057 -0.05724 0.03588
 C296 C 0.52518 -0.04650 0.05210
 C297 C 0.53585 -0.03052 0.05746
 C298 C 0.55204 -0.02509 0.04667
 C299 C 0.55736 -0.03570 0.03065
 C300 C 0.54656 -0.05187 0.02522
 C301 C 0.52293 -0.07342 0.02735
 N302 N 0.53392 -0.07786 0.01188
 C303 C 0.54839 -0.06487 0.01037
 C304 C 0.57356 -0.02718 0.02302
 N305 N 0.57806 -0.01176 0.03405
 C306 C 0.56509 -0.01027 0.04853
 C307 C 0.52736 -0.02293 0.07368
 N308 N 0.51190 -0.03395 0.07815
 C309 C 0.51037 -0.04838 0.06514
 H310 H 0.51036 -0.08138 0.03202
 H311 H 0.55939 -0.06493 -0.00068
 H312 H 0.58150 -0.03182 0.01043
 H313 H 0.56518 0.00074 0.05956
 H314 H 0.53203 -0.01038 0.08165
 H315 H 0.49933 -0.05938 0.06521
 C316 C 1.03055 0.44321 0.53566
 C317 C 1.02517 0.45390 0.55191
 C318 C 1.03583 0.46988 0.55731
 C319 C 1.05199 0.47537 0.54651
 C320 C 1.05730 0.46480 0.53044
 C321 C 1.04652 0.44863 0.52499
 C322 C 1.02292 0.42705 0.52709
 N323 N 1.03389 0.42267 0.51159
 C324 C 1.04834 0.43568 0.51010
 C325 C 1.07348 0.47337 0.52281
 N326 N 1.07796 0.48877 0.53389
 C327 C 1.06501 0.49020 0.54840
 C328 C 1.02734 0.47741 0.57356
 N329 N 1.01191 0.46635 0.57802
 C330 C 1.01038 0.45196 0.56497
 H331 H 1.01036 0.41906 0.53176
 H332 H 1.05932 0.43567 0.49904
 H333 H 1.08139 0.46877 0.51018
 H334 H 1.06509 0.50118 0.55947
 H335 H 1.03201 0.48995 0.58156
 H336 H 0.99935 0.44094 0.56502
 C337 C 0.40438 0.00861 0.22464
 H338 H 0.40513 0.02164 0.23313
 C339 C 0.41697 0.00595 0.20920
 H340 H 0.42743 0.01698 0.20570
 C341 C 0.39002 -0.02185 0.21895
 H342 H 0.37972 -0.03278 0.22296
 C343 C 0.40235 -0.02509 0.20340
 H344 H 0.40137 -0.03842 0.19536
 N345 N 0.39109 -0.00510 0.22907
 C346 C 0.34539 0.02552 0.25941
 H347 H 0.34457 0.01706 0.27246
 C348 C 0.33288 0.04102 0.25667
 H349 H 0.32240 0.04459 0.26766
 C350 C 0.35986 0.03108 0.22898
 H351 H 0.37016 0.02700 0.21808
 C352 C 0.34761 0.04669 0.22566
 H353 H 0.34865 0.05469 0.21231
 Zn354 Zn 0.37483 -0.00047 0.25045
 N355 N 0.35869 0.02100 0.24575
 C356 C 0.38984 0.02093 0.28202
 N357 N 0.39094 0.00415 0.27195
 C358 C 0.40417 -0.00958 0.27649
 C359 C 0.41670 -0.00689 0.29199
 C360 C 0.40210 0.02419 0.29762
 C361 C 0.34541 -0.02638 0.24126
 C362 C 0.33283 -0.04185 0.24390
 C363 C 0.34732 -0.04760 0.27500
 C364 C 0.35964 -0.03202 0.27179
 N365 N 0.35862 -0.02191 0.25503
 H366 H 0.37958 0.03187 0.27792
 H367 H 0.40495 -0.02264 0.26804
 H368 H 0.42713 -0.01793 0.29556
 H369 H 0.40112 0.03756 0.30560
 H370 H 0.34470 -0.01790 0.22822
 H371 H 0.32243 -0.04538 0.23283
 H372 H 0.34825 -0.05562 0.28834
 H373 H 0.36988 -0.02798 0.28276
 C374 C 0.33404 0.05172 0.23966
 C375 C 0.41590 -0.01103 0.19846
 C376 C 0.33385 -0.05258 0.26090
 C377 C 0.41561 0.01014 0.30266
 C378 C 0.09608 -0.00873 0.72456
 H379 H 0.09532 -0.02177 0.73304
 C380 C 0.08350 -0.00603 0.70911
 H381 H 0.07303 -0.01705 0.70561
 C382 C 0.11047 0.02173 0.71888
 H383 H 0.12078 0.03265 0.72290
 C384 C 0.09815 0.02500 0.70333
 H385 H 0.09914 0.03834 0.69530
 N386 N 0.10938 0.00497 0.72899
 C387 C 0.15503 -0.02573 0.75936
 H388 H 0.15585 -0.01728 0.77241
 C389 C 0.16753 -0.04125 0.75663
 H390 H 0.17799 -0.04483 0.76763
 C391 C 0.14058 -0.03126 0.72892
 H392 H 0.13028 -0.02716 0.71803
 C393 C 0.15281 -0.04688 0.72562
 H394 H 0.15177 -0.05487 0.71228
 Zn395 Zn 0.12562 0.00029 0.75039
 N396 N 0.14174 -0.02119 0.74569
 C397 C 0.11057 -0.02113 0.78194
 N398 N 0.10949 -0.00434 0.77188
 C399 C 0.09626 0.00939 0.77641
 C400 C 0.08372 0.00669 0.79190
 C401 C 0.09829 -0.02441 0.79753
 C402 C 0.15506 0.02620 0.74122
 C403 C 0.16764 0.04167 0.74386
 C404 C 0.15313 0.04739 0.77495
 C405 C 0.14081 0.03181 0.77174
 N406 N 0.14184 0.02172 0.75497
 H407 H 0.12082 -0.03208 0.77785
 H408 H 0.09550 0.02246 0.76796
 H409 H 0.07330 0.01773 0.79547
 H410 H 0.09926 -0.03778 0.80551
 H411 H 0.15578 0.01773 0.72817
 H412 H 0.17805 0.04520 0.73279
 H413 H 0.15219 0.05539 0.78830
 H414 H 0.13056 0.02776 0.78270
 C415 C 0.16636 -0.05194 0.73963
 C416 C 0.08459 0.01097 0.69838
 C417 C 0.16662 0.05238 0.76086
 C418 C 0.08479 -0.01034 0.80257
 C419 C 0.59562 0.49112 0.22415
 H420 H 0.59486 0.47806 0.23262
 C421 C 0.58305 0.49381 0.20869
 H422 H 0.57260 0.48279 0.20516
 C423 C 0.60999 0.52159 0.21851
 H424 H 0.62028 0.53252 0.22255
 C425 C 0.59768 0.52487 0.20295
 H426 H 0.59866 0.53821 0.19493
 N427 N 0.60890 0.50482 0.22861
 C428 C 0.65456 0.47420 0.25903
 H429 H 0.65536 0.48267 0.27207
 C430 C 0.66710 0.45872 0.25632
 H431 H 0.67757 0.45517 0.26733
 C432 C 0.64014 0.46861 0.22859
 H433 H 0.62984 0.47268 0.21769
 C434 C 0.65242 0.45302 0.22531
 H435 H 0.65140 0.44501 0.21197
 Zn436 Zn 0.62512 0.50017 0.25002
 N437 N 0.64127 0.47870 0.24535
 C438 C 0.61009 0.47875 0.28159
 N439 N 0.60899 0.49553 0.27151
 C440 C 0.59576 0.50926 0.27604
 C441 C 0.58324 0.50657 0.29154
 C442 C 0.59783 0.47548 0.29719
 C443 C 0.65456 0.52606 0.24085
 C444 C 0.66714 0.54153 0.24348
 C445 C 0.65261 0.54728 0.27456
 C446 C 0.64029 0.53171 0.27135
 N447 N 0.64133 0.52160 0.25460
 H448 H 0.62035 0.46781 0.27749
 H449 H 0.59498 0.52232 0.26758
 H450 H 0.57281 0.51760 0.29512
 H451 H 0.59882 0.46212 0.30518
 H452 H 0.65529 0.51759 0.22781
 H453 H 0.67756 0.54505 0.23242
 H454 H 0.65167 0.55530 0.28790
 H455 H 0.63004 0.52767 0.28231
 C456 C 0.66597 0.44801 0.23933
 C457 C 0.58414 0.51082 0.19797
 C458 C 0.66611 0.55226 0.26047
 C459 C 0.58433 0.48954 0.30223
 C460 C 0.90434 0.50849 0.72460
 H461 H 0.90507 0.52151 0.73311
 C462 C 0.91695 0.50586 0.70916
 H463 H 0.92740 0.51691 0.70569
 C464 C 0.89001 0.47802 0.71885
 H465 H 0.87972 0.46708 0.72284
 C466 C 0.90236 0.47482 0.70330
 H467 H 0.90140 0.46150 0.69525
 N468 N 0.89106 0.49476 0.72900
 C469 C 0.84530 0.52530 0.75932
 H470 H 0.84446 0.51681 0.77235
 C471 C 0.83278 0.54080 0.75659
 H472 H 0.82229 0.54434 0.76758
 C473 C 0.85980 0.53093 0.72892
 H474 H 0.87013 0.52687 0.71804
 C475 C 0.84755 0.54654 0.72562
 H476 H 0.84861 0.55457 0.71229
 Zn477 Zn 0.87478 0.49935 0.75037
 N478 N 0.85862 0.52081 0.74567
 C479 C 0.88972 0.52076 0.78196
 N480 N 0.89085 0.50398 0.77189
 C481 C 0.90409 0.49026 0.77645
 C482 C 0.91660 0.49297 0.79196
 C483 C 0.90196 0.52404 0.79757
 C484 C 0.84539 0.47343 0.74112
 C485 C 0.83281 0.45795 0.74373
 C486 C 0.84727 0.45218 0.77484
 C487 C 0.85958 0.46777 0.77166
 N488 N 0.85858 0.47789 0.75490
 H489 H 0.87946 0.53169 0.77784
 H490 H 0.90489 0.47720 0.76801
 H491 H 0.92704 0.48195 0.79555
 H492 H 0.90095 0.53740 0.80554
 H493 H 0.84469 0.48192 0.72808
 H494 H 0.82242 0.45443 0.73265
 H495 H 0.84818 0.44415 0.78819
 H496 H 0.86981 0.47181 0.78264
 C497 C 0.83397 0.55154 0.73961
 C498 C 0.91590 0.48889 0.69840
 C499 C 0.83381 0.44721 0.76073
 C500 C 0.91548 0.51000 0.80263
 C501 C 0.22362 0.40484 0.00865
 H502 H 0.23213 0.40554 0.02167
 C503 C 0.20815 0.41742 0.00605
 H504 H 0.20465 0.42783 0.01712
 C505 C 0.21790 0.39061 -0.02185
 H506 H 0.22192 0.38037 -0.03283
 C507 C 0.20232 0.40294 -0.02503
 H508 H 0.19427 0.40202 -0.03835
 N509 N 0.22805 0.39162 -0.00512
 C510 C 0.25864 0.34588 0.02521
 H511 H 0.27166 0.34513 0.01669
 C512 C 0.25601 0.33329 0.04067
 H513 H 0.26705 0.32283 0.04414
 C514 C 0.22818 0.36023 0.03097
 H515 H 0.21724 0.37053 0.02698
 C516 C 0.22497 0.34790 0.04653
 H517 H 0.21165 0.34888 0.05460
 Zn518 Zn 0.24951 0.37541 -0.00059
 N519 N 0.24492 0.35916 0.02081
 C520 C 0.28111 0.39039 0.02079
 N521 N 0.27099 0.39155 0.00405
 C522 C 0.27547 0.40485 -0.00963
 C523 C 0.29097 0.41738 -0.00693
 C524 C 0.29671 0.40265 0.02407
 C525 C 0.24036 0.34608 -0.02661
 C526 C 0.24304 0.33355 -0.04209
 C527 C 0.27412 0.34814 -0.04779
 C528 C 0.27087 0.36041 -0.03220
 N529 N 0.25409 0.35931 -0.02210
 H530 H 0.27705 0.38008 0.03170
 H531 H 0.26699 0.40567 -0.02266
 H532 H 0.29451 0.42786 -0.01793
 H533 H 0.30474 0.40161 0.03740
 H534 H 0.22731 0.34531 -0.01814
 H535 H 0.23200 0.32312 -0.04564
 H536 H 0.28748 0.34912 -0.05579
 H537 H 0.28182 0.37066 -0.02812
 C538 C 0.23904 0.33436 0.05145
 C539 C 0.19738 0.41642 -0.01092
 C540 C 0.26006 0.33463 -0.05280
 C541 C 0.30171 0.41622 0.01006
 C542 C 0.72482 0.09526 -0.00915
 H543 H 0.73328 0.09444 -0.02220
 C544 C 0.70931 0.08274 -0.00643
 H545 H 0.70574 0.07228 -0.01743
 C546 C 0.71924 0.10969 0.02128
 H547 H 0.72332 0.11998 0.03218
 C548 C 0.70363 0.09744 0.02458
 H549 H 0.69562 0.09847 0.03793
 N550 N 0.72933 0.10854 0.00452
 C551 C 0.75989 0.15404 -0.02622
 H552 H 0.77296 0.15481 -0.01779
 C553 C 0.75718 0.16657 -0.04172
 H554 H 0.76822 0.17699 -0.04530
 C555 C 0.72937 0.13972 -0.03172
 H556 H 0.71843 0.12947 -0.02761
 C557 C 0.72608 0.15199 -0.04732
 H558 H 0.71271 0.15101 -0.05528
 Zn559 Zn 0.75081 0.12468 -0.00018
 N560 N 0.74616 0.14081 -0.02167
 C561 C 0.78235 0.10950 -0.02155
 N562 N 0.77225 0.10847 -0.00478
 C563 C 0.77672 0.09524 0.00897
 C564 C 0.79218 0.08265 0.00632
 C565 C 0.79791 0.09718 -0.02478
 C566 C 0.74176 0.15418 0.02566
 C567 C 0.74444 0.16675 0.04112
 C568 C 0.77549 0.15211 0.04688
 C569 C 0.77223 0.13981 0.03132
 N570 N 0.75546 0.14090 0.02122
 H571 H 0.77830 0.11976 -0.03250
 H572 H 0.76825 0.09451 0.02202
 H573 H 0.79571 0.07223 0.01737
 H574 H 0.80592 0.09812 -0.03812
 H575 H 0.72871 0.15495 0.01719
 H576 H 0.73341 0.17720 0.04463
 H577 H 0.78883 0.15112 0.05490
 H578 H 0.78316 0.12951 0.02729
 C579 C 0.74014 0.16549 -0.05238
 C580 C 0.69860 0.08389 0.01057
 C581 C 0.76144 0.16565 0.05185
 C582 C 0.80289 0.08368 -0.01069
 C583 C 0.22364 0.59553 0.49101
 H584 H 0.23212 0.59475 0.47797
 C585 C 0.20815 0.58298 0.49370
 H586 H 0.20462 0.57252 0.48269
 C587 C 0.21799 0.60992 0.52146
 H588 H 0.22204 0.62021 0.53237
 C589 C 0.20240 0.59763 0.52472
 H590 H 0.19438 0.59863 0.53806
 N591 N 0.22811 0.60881 0.50470
 C592 C 0.25867 0.65439 0.47410
 H593 H 0.27171 0.65517 0.48258
 C594 C 0.25600 0.66693 0.45860
 H595 H 0.26703 0.67737 0.45506
 C596 C 0.22819 0.64002 0.46847
 H597 H 0.21726 0.62975 0.47253
 C598 C 0.22495 0.65230 0.45287
 H599 H 0.21161 0.65130 0.44485
 Zn600 Zn 0.24957 0.62498 0.50006
 N601 N 0.24495 0.64113 0.47858
 C602 C 0.28115 0.60989 0.47872
 N603 N 0.27104 0.60882 0.49548
 C604 C 0.27553 0.59558 0.50922
 C605 C 0.29102 0.58303 0.50657
 C606 C 0.29675 0.59760 0.47550
 C607 C 0.24043 0.65445 0.52592
 C608 C 0.24307 0.66702 0.54137
 C609 C 0.27414 0.65244 0.54717
 C610 C 0.27091 0.64012 0.53161
 N611 N 0.25416 0.64119 0.52148
 H612 H 0.27710 0.62015 0.46777
 H613 H 0.26705 0.59483 0.52226
 H614 H 0.29456 0.57261 0.51762
 H615 H 0.30477 0.59857 0.46216
 H616 H 0.22739 0.65520 0.51743
 H617 H 0.23202 0.67747 0.54487
 H618 H 0.28747 0.65147 0.55520
 H619 H 0.28186 0.62985 0.52759
 C620 C 0.23900 0.66583 0.44787
 C621 C 0.19742 0.58409 0.51070
 C622 C 0.26006 0.66596 0.55211
 C623 C 0.30175 0.58410 0.48958
 C624 C 0.72394 0.90457 0.50876
 H625 H 0.73239 0.90528 0.52182
 C626 C 0.70845 0.91712 0.50610
 H627 H 0.70489 0.92752 0.51716
 C628 C 0.71838 0.89035 0.47822
 H629 H 0.72246 0.88012 0.46726
 C630 C 0.70279 0.90264 0.47499
 H631 H 0.69480 0.90171 0.46163
 N632 N 0.72845 0.89137 0.49501
 C633 C 0.75897 0.84566 0.52547
 H634 H 0.77203 0.84492 0.51701
 C635 C 0.75629 0.83308 0.54092
 H636 H 0.76733 0.82264 0.54445
 C637 C 0.72846 0.85998 0.53108
 H638 H 0.71752 0.87026 0.52704
 C639 C 0.72520 0.84765 0.54664
 H640 H 0.71185 0.84862 0.55465
 Zn641 Zn 0.74991 0.87519 0.49962
 N642 N 0.74524 0.85892 0.52100
 C643 C 0.78141 0.89019 0.52114
 N644 N 0.77135 0.89135 0.50436
 C645 C 0.77587 0.90467 0.49071
 C646 C 0.79135 0.91721 0.49347
 C647 C 0.79699 0.90247 0.52448
 C648 C 0.74092 0.84587 0.47354
 C649 C 0.74366 0.83338 0.45802
 C650 C 0.77475 0.84803 0.45247
 C651 C 0.77142 0.86025 0.46809
 N652 N 0.75462 0.85911 0.47812
 H653 H 0.77732 0.87987 0.53203
 H654 H 0.76743 0.90549 0.47765
 H655 H 0.79492 0.92769 0.48249
 H656 H 0.80497 0.90142 0.53784
 H657 H 0.72784 0.84506 0.48196
 H658 H 0.73265 0.82295 0.45441
 H659 H 0.78813 0.84905 0.44452
 H660 H 0.78234 0.87051 0.47222
 C661 C 0.73927 0.83413 0.55163
 C662 C 0.69776 0.91611 0.48908
 C663 C 0.76072 0.83452 0.44738
 C664 C 0.80202 0.91604 0.51049
 C665 C 0.00886 0.22455 0.40425
 H666 H 0.02190 0.23304 0.40498
 C667 C 0.00623 0.20909 0.41684
 H668 H 0.01728 0.20559 0.42728
 C669 C -0.02163 0.21884 0.38996
 H670 H -0.03258 0.22286 0.37969
 C671 C -0.02485 0.20328 0.40229
 H672 H -0.03818 0.19524 0.40134
 N673 N -0.00488 0.22898 0.39100
 C674 C 0.02564 0.25943 0.34530
 H675 H 0.01715 0.27248 0.34451
 C676 C 0.04112 0.25674 0.33276
 H677 H 0.04465 0.26775 0.32229
 C678 C 0.03128 0.22898 0.35972
 H679 H 0.02723 0.21807 0.37002
 C680 C 0.04686 0.22571 0.34744
 H681 H 0.05489 0.21237 0.34846
 Zn682 Zn -0.00029 0.25040 0.37477
 N683 N 0.02116 0.24574 0.35859
 C684 C 0.02112 0.28198 0.38974
 N685 N 0.00435 0.27189 0.39087
 C686 C -0.00936 0.27640 0.40412
 C687 C -0.00666 0.29189 0.41664
 C688 C 0.02439 0.29758 0.40200
 C689 C -0.02625 0.24122 0.34540
 C690 C -0.04174 0.24385 0.33285
 C691 C -0.04748 0.27495 0.34737
 C692 C -0.03188 0.27173 0.35966
 N693 N -0.02177 0.25497 0.35861
 H694 H 0.03205 0.27791 0.37947
 H695 H -0.02241 0.26793 0.40492
 H696 H -0.01769 0.29544 0.42709
 H697 H 0.03775 0.30558 0.40099
 H698 H -0.01776 0.22817 0.34467
 H699 H -0.04527 0.23279 0.32245
 H700 H -0.05550 0.28829 0.34832
 H701 H -0.02783 0.28269 0.36989
 C702 C 0.05185 0.23974 0.33388
 C703 C -0.01076 0.19834 0.41580
 C704 C -0.05247 0.26086 0.33389
 C705 C 0.01035 0.30259 0.41553
 C706 C -0.00923 0.72386 0.09503
 H707 H -0.02230 0.73230 0.09425
 C708 C -0.00652 0.70836 0.08252
 H709 H -0.01756 0.70477 0.07210
 C710 C 0.02130 0.71836 0.10934
 H711 H 0.03224 0.72247 0.11958
 C712 C 0.02458 0.70276 0.09709
 H713 H 0.03796 0.69478 0.09808
 N714 N 0.00450 0.72841 0.10825
 C715 C -0.02607 0.75899 0.15381
 H716 H -0.01760 0.77205 0.15454
 C717 C -0.04153 0.75632 0.16640
 H718 H -0.04506 0.76737 0.17682
 C719 C -0.03169 0.72848 0.13954
 H720 H -0.02765 0.71754 0.12929
 C721 C -0.04726 0.72523 0.15187
 H722 H -0.05526 0.71188 0.15093
 Zn723 Zn -0.00016 0.74989 0.12438
 N724 N -0.02160 0.74526 0.14058
 C725 C -0.02162 0.78140 0.10927
 N726 N -0.00484 0.77132 0.10818
 C727 C 0.00887 0.77583 0.09491
 C728 C 0.00616 0.79131 0.08237
 C729 C -0.02491 0.79699 0.09699
 C730 C 0.02581 0.74088 0.15379
 C731 C 0.04130 0.74360 0.16633
 C732 C 0.04697 0.77464 0.15167
 C733 C 0.03139 0.77135 0.13939
 N734 N 0.02131 0.75457 0.14052
 H735 H -0.03255 0.77733 0.11956
 H736 H 0.02193 0.76737 0.09414
 H737 H 0.01719 0.79487 0.07192
 H738 H -0.03827 0.80499 0.09799
 H739 H 0.01736 0.72782 0.15459
 H740 H 0.04485 0.73258 0.17679
 H741 H 0.05497 0.78800 0.15066
 H742 H 0.02731 0.78227 0.12910
 C743 C -0.05224 0.73931 0.16537
 C744 C 0.01053 0.69769 0.08361
 C745 C 0.05199 0.76061 0.16521
 C746 C -0.01086 0.80201 0.08347
 C747 C 0.49113 0.22380 0.59640
 H748 H 0.47806 0.23225 0.59563
 C749 C 0.49383 0.20833 0.58385
 H750 H 0.48280 0.20478 0.57341
 C751 C 0.52162 0.21822 0.61075
 H752 H 0.53255 0.22229 0.62102
 C753 C 0.52490 0.20264 0.59846
 H754 H 0.53827 0.19465 0.59945
 N755 N 0.50484 0.22830 0.60965
 C756 C 0.47416 0.25880 0.65520
 H757 H 0.48260 0.27187 0.65596
 C758 C 0.45865 0.25610 0.66771
 H759 H 0.45507 0.26714 0.67813
 C760 C 0.46864 0.22830 0.64088
 H761 H 0.47273 0.21736 0.63063
 C762 C 0.45303 0.22502 0.65314
 H763 H 0.44504 0.21166 0.65216
 Zn764 Zn 0.50016 0.24975 0.62580
 N765 N 0.47870 0.24509 0.64197
 C766 C 0.47871 0.28126 0.61068
 N767 N 0.49549 0.27119 0.60960
 C768 C 0.50921 0.27567 0.59634
 C769 C 0.50651 0.29113 0.58377
 C770 C 0.47543 0.29683 0.59836
 C771 C 0.52615 0.24074 0.65522
 C772 C 0.54165 0.24346 0.66774
 C773 C 0.54727 0.27453 0.65310
 C774 C 0.53167 0.27123 0.64084
 N775 N 0.52162 0.25444 0.64196
 H776 H 0.46777 0.27720 0.62095
 H777 H 0.52227 0.26722 0.59559
 H778 H 0.51754 0.29467 0.57332
 H779 H 0.46206 0.30482 0.59933
 H780 H 0.51772 0.22767 0.65601
 H781 H 0.54524 0.23243 0.67818
 H782 H 0.55525 0.28789 0.65209
 H783 H 0.52757 0.28215 0.63057
 C784 C 0.44797 0.23908 0.66663
 C785 C 0.51086 0.19763 0.58494
 C786 C 0.55233 0.26049 0.66662
 C787 C 0.48948 0.30183 0.58483
 C788 C 0.50886 0.72384 0.90457
 H789 H 0.52191 0.73232 0.90531
 C790 C 0.50620 0.70836 0.91713
 H791 H 0.51726 0.70483 0.92755
 C792 C 0.47834 0.71823 0.89029
 H793 H 0.46738 0.72229 0.88004
 C794 C 0.47511 0.70264 0.90259
 H795 H 0.46176 0.69463 0.90164
 N796 N 0.49511 0.72833 0.89135
 C797 C 0.52560 0.75889 0.84569
 H798 H 0.51711 0.77194 0.84494
 C799 C 0.54107 0.75623 0.83313
 H800 H 0.54459 0.76728 0.82269
 C801 C 0.53126 0.72841 0.86003
 H802 H 0.52723 0.71747 0.87031
 C803 C 0.54684 0.72517 0.84773
 H804 H 0.55487 0.71183 0.84871
 Zn805 Zn 0.49971 0.74979 0.87516
 N806 N 0.52114 0.74517 0.85895
 C807 C 0.52115 0.78133 0.89019
 N808 N 0.50438 0.77124 0.89132
 C809 C 0.49068 0.77572 0.90460
 C810 C 0.49339 0.79120 0.91713
 C811 C 0.52443 0.79691 0.90246
 C812 C 0.47370 0.74072 0.84580
 C813 C 0.45820 0.74342 0.83328
 C814 C 0.45253 0.77448 0.84788
 C815 C 0.46814 0.77121 0.86014
 N816 N 0.47822 0.75443 0.85904
 H817 H 0.53207 0.77727 0.87990
 H818 H 0.47763 0.76726 0.90539
 H819 H 0.48238 0.79474 0.92759
 H820 H 0.53779 0.80492 0.90145
 H821 H 0.48217 0.72766 0.84502
 H822 H 0.45464 0.73239 0.82285
 H823 H 0.44453 0.78784 0.84887
 H824 H 0.47222 0.78214 0.87040
 C825 C 0.55181 0.73924 0.83421
 C826 C 0.48919 0.69765 0.91609
 C827 C 0.44750 0.76044 0.83437
 C828 C 0.51040 0.80191 0.91601
 C829 C 0.11644 0.22087 0.30324
 C830 C 0.11569 0.20907 0.28433
 C831 C 0.12689 0.22519 0.27413
 C832 C 0.12789 0.23694 0.29283
 C833 C 0.09758 0.23089 0.29743
 C834 C 0.10878 0.24702 0.28723
 C835 C 0.09658 0.21914 0.27873
 C836 C 0.10803 0.23522 0.26832
 C837 C 0.14320 0.22201 0.26115
 C838 C 0.15663 0.21937 0.25048
 C839 C 0.08127 0.23406 0.31041
 C840 C 0.06786 0.23665 0.32111
 H841 H 0.11971 0.21501 0.31774
 H842 H 0.11871 0.19343 0.28300
 H843 H 0.14094 0.24423 0.29848
 H844 H 0.10576 0.26265 0.28856
 H845 H 0.08353 0.21186 0.27308
 H846 H 0.10476 0.24108 0.25382
 C847 C 0.59876 0.73838 0.77706
 C848 C 0.61975 0.74482 0.78101
 C849 C 0.62684 0.72495 0.77437
 C850 C 0.60610 0.71845 0.77022
 C851 C 0.59754 0.73054 0.79771
 C852 C 0.60463 0.71067 0.79107
 C853 C 0.61828 0.73704 0.80186
 C854 C 0.62562 0.71711 0.79502
 C855 C 0.64315 0.72181 0.76138
 C856 C 0.65658 0.71922 0.75070
 C857 C 0.58123 0.73365 0.81071
 C858 C 0.56782 0.73620 0.82141
 H859 H 0.58753 0.74715 0.76982
 H860 H 0.62615 0.75883 0.77672
 H861 H 0.60127 0.71078 0.75707
 H862 H 0.59823 0.69666 0.79536
 H863 H 0.62310 0.74471 0.81501
 H864 H 0.63685 0.70834 0.80226
 C865 C 0.39913 0.75918 0.77845
 C866 C 0.37772 0.75551 0.78355
 C867 C 0.37250 0.77505 0.77459
 C868 C 0.39366 0.77877 0.76929
 C869 C 0.40178 0.76932 0.79792
 C870 C 0.39655 0.78886 0.78896
 C871 C 0.38062 0.76560 0.80323
 C872 C 0.37514 0.78519 0.79406
 C873 C 0.35620 0.77826 0.76160
 C874 C 0.34279 0.78091 0.75091
 C875 C 0.41808 0.76614 0.81091
 C876 C 0.43149 0.76353 0.82160
 H877 H 0.40918 0.74845 0.77217
 H878 H 0.36980 0.74184 0.78119
 H879 H 0.39884 0.78423 0.75518
 H880 H 0.40447 0.80254 0.79133
 H881 H 0.37544 0.76014 0.81733
 H882 H 0.36510 0.79592 0.80034
 C883 C -0.11491 0.28345 0.30135
 C884 C -0.11335 0.29096 0.28041
 C885 C -0.12743 0.27516 0.27398
 C886 C -0.12924 0.26769 0.29472
 C887 C -0.09817 0.26955 0.29736
 C888 C -0.11224 0.25375 0.29092
 C889 C -0.09635 0.27702 0.27662
 C890 C -0.11068 0.26126 0.26998
 C891 C -0.14372 0.27829 0.26095
 C892 C -0.15711 0.28088 0.25024
 C893 C -0.08187 0.26644 0.31038
 C894 C -0.06847 0.26389 0.32110
 H895 H -0.11647 0.29253 0.31440
 H896 H -0.11399 0.30629 0.27595
 H897 H -0.14295 0.26389 0.30201
 H898 H -0.11161 0.23842 0.29539
 H899 H -0.08264 0.28082 0.26932
 H900 H -0.10912 0.25218 0.25693
 C901 C -0.11654 0.72009 0.19644
 C902 C -0.11562 0.70883 0.21567
 C903 C -0.12712 0.72502 0.22540
 C904 C -0.12830 0.73624 0.20637
 C905 C -0.09788 0.73060 0.20199
 C906 C -0.10938 0.74679 0.21171
 C907 C -0.09671 0.71938 0.22102
 C908 C -0.10846 0.73553 0.23095
 C909 C -0.14341 0.72191 0.23844
 C910 C -0.15681 0.71932 0.24916
 C911 C -0.08160 0.73370 0.18894
 C912 C -0.06822 0.73625 0.17820
 H913 H -0.11969 0.71378 0.18211
 H914 H -0.11837 0.69318 0.21745
 H915 H -0.14147 0.74314 0.20050
 H916 H -0.10663 0.76244 0.20994
 H917 H -0.08354 0.71249 0.22689
 H918 H -0.10532 0.74185 0.24528
 C919 C 0.38091 0.23219 0.69703
 C920 C 0.37644 0.21308 0.70765
 C921 C 0.37276 0.22455 0.72619
 C922 C 0.37697 0.24360 0.71577
 C923 C 0.40213 0.23024 0.70297
 C924 C 0.39845 0.24170 0.72151
 C925 C 0.39792 0.21118 0.71339
 C926 C 0.39398 0.22260 0.73214
 C927 C 0.35640 0.22138 0.73913
 C928 C 0.34294 0.21878 0.74977
 C929 C 0.41848 0.23340 0.69003
 C930 C 0.43193 0.23599 0.67937
 H931 H 0.37571 0.23617 0.68245
 H932 H 0.36722 0.20128 0.70210
 H933 H 0.36817 0.25690 0.71690
 H934 H 0.40768 0.25351 0.72707
 H935 H 0.40672 0.19788 0.71227
 H936 H 0.39918 0.21862 0.74671
 C937 C 0.60137 0.25851 0.72195
 C938 C 0.62282 0.25578 0.71646
 C939 C 0.62751 0.27509 0.72618
 C940 C 0.60631 0.27787 0.73187
 C941 C 0.59815 0.26938 0.70296
 C942 C 0.60284 0.28868 0.71267
 C943 C 0.61935 0.26660 0.69726
 C944 C 0.62429 0.28595 0.70718
 C945 C 0.64386 0.27826 0.73911
 C946 C 0.65731 0.28088 0.74975
 C947 C 0.58180 0.26620 0.69002
 C948 C 0.56836 0.26359 0.67936
 H949 H 0.59176 0.24720 0.72788
 H950 H 0.63122 0.24229 0.71816
 H951 H 0.60113 0.28254 0.74625
 H952 H 0.59443 0.30217 0.71097
 H953 H 0.62452 0.26193 0.68289
 H954 H 0.63389 0.29727 0.70125
 C955 C 0.09588 0.77209 0.22359
 C956 C 0.11302 0.75809 0.22639
 C957 C 0.12693 0.77524 0.22506
 C958 C 0.11004 0.78930 0.22246
 C959 C 0.09768 0.76952 0.20170
 C960 C 0.11159 0.78667 0.20037
 C961 C 0.11457 0.75546 0.20430
 C962 C 0.12873 0.77267 0.20317
 C963 C 0.14322 0.77842 0.23807
 C964 C 0.15661 0.78103 0.24879
 C965 C 0.08139 0.76633 0.18869
 C966 C 0.06799 0.76372 0.17799
 H967 H 0.08219 0.77182 0.23184
 H968 H 0.11379 0.74637 0.23723
 H969 H 0.10836 0.80324 0.23007
 H970 H 0.11082 0.79839 0.18953
 H971 H 0.11625 0.74152 0.19669
 H972 H 0.14242 0.77294 0.19492
 C973 C 0.30090 0.11323 0.21542
 C974 C 0.27942 0.11164 0.20963
 C975 C 0.27443 0.12686 0.22488
 C976 C 0.29572 0.12869 0.23063
 C977 C 0.29768 0.09752 0.23067
 C978 C 0.29270 0.11274 0.24592
 C979 C 0.27639 0.09568 0.22492
 C980 C 0.27121 0.11115 0.24012
 C981 C 0.26148 0.14319 0.22166
 C982 C 0.25081 0.15662 0.21901
 C983 C 0.31063 0.08119 0.23389
 C984 C 0.32129 0.06775 0.23652
 H985 H 0.31326 0.11389 0.20530
 H986 H 0.27381 0.11137 0.19467
 H987 H 0.30352 0.14245 0.23294
 H988 H 0.29830 0.11300 0.26088
 H989 H 0.26859 0.08193 0.22261
 H990 H 0.25886 0.11048 0.25024
 C991 C 0.80291 0.61847 0.73469
 C992 C 0.79398 0.62415 0.71506
 C993 C 0.77438 0.62672 0.72499
 C994 C 0.78310 0.62129 0.74458
 C995 C 0.79762 0.59736 0.73071
 C996 C 0.77802 0.59993 0.74064
 C997 C 0.78890 0.60279 0.71113
 C998 C 0.76909 0.60561 0.72101
 C999 C 0.76143 0.64306 0.72181
 C1000 C 0.75077 0.65650 0.71919
 C1001 C 0.81057 0.58102 0.73389
 C1002 C 0.82123 0.56758 0.73650
 H1003 H 0.81696 0.62357 0.74035
 H1004 H 0.80040 0.63430 0.70450
 H1005 H 0.78058 0.62908 0.75829
 H1006 H 0.77160 0.58979 0.75120
 H1007 H 0.79142 0.59501 0.69741
 H1008 H 0.75504 0.60051 0.71535
 C1009 C 0.77944 0.39718 0.75689
 C1010 C 0.78541 0.37569 0.75635
 C1011 C 0.77381 0.37227 0.77488
 C1012 C 0.76765 0.39350 0.77546
 C1013 C 0.79721 0.40153 0.76932
 C1014 C 0.78562 0.39810 0.78784
 C1015 C 0.80338 0.38029 0.76874
 C1016 C 0.79158 0.37662 0.78731
 C1017 C 0.76080 0.35596 0.77800
 C1018 C 0.75010 0.34255 0.78060
 C1019 C 0.81025 0.41782 0.76624
 C1020 C 0.82098 0.43122 0.76372
 H1021 H 0.77460 0.40581 0.74434
 H1022 H 0.78518 0.36629 0.74344
 H1023 H 0.75281 0.39875 0.77826
 H1024 H 0.78585 0.40750 0.80076
 H1025 H 0.81822 0.37504 0.76594
 H1026 H 0.79643 0.36798 0.79986
 C1027 C 0.27937 -0.09770 0.28253
 C1028 C 0.26775 -0.10805 0.26657
 C1029 C 0.27387 -0.12753 0.27510
 C1030 C 0.28529 -0.11742 0.29111
 C1031 C 0.29727 -0.09827 0.26954
 C1032 C 0.30339 -0.11774 0.27807
 C1033 C 0.28585 -0.10837 0.25353
 C1034 C 0.29177 -0.12810 0.26210
 C1035 C 0.26084 -0.14382 0.27820
 C1036 C 0.25013 -0.15723 0.28077
 C1037 C 0.31030 -0.08197 0.26645
 C1038 C 0.32103 -0.06857 0.26392
 H1039 H 0.27442 -0.08502 0.29090
 H1040 H 0.25295 -0.10425 0.26187
 H1041 H 0.28492 -0.12133 0.30660
 H1042 H 0.31819 -0.12154 0.28277
 H1043 H 0.28622 -0.10446 0.23804
 H1044 H 0.29672 -0.14078 0.25374
 C1045 C 0.20292 -0.11012 0.71236
 C1046 C 0.22521 -0.10907 0.71227
 C1047 C 0.22586 -0.12717 0.72497
 C1048 C 0.20378 -0.12848 0.72501
 C1049 C 0.20266 -0.09779 0.73071
 C1050 C 0.20331 -0.11589 0.74341
 C1051 C 0.22475 -0.09648 0.73067
 C1052 C 0.22560 -0.11484 0.74332
 C1053 C 0.23879 -0.14353 0.72178
 C1054 C 0.24943 -0.15698 0.71916
 C1055 C 0.18973 -0.08144 0.73390
 C1056 C 0.17909 -0.06799 0.73652
 H1057 H 0.19345 -0.10800 0.69967
 H1058 H 0.23435 -0.10644 0.69943
 H1059 H 0.19530 -0.14182 0.72265
 H1060 H 0.19417 -0.11852 0.75625
 H1061 H 0.23323 -0.08314 0.73303
 H1062 H 0.23507 -0.11696 0.75602
 C1063 C 0.71283 0.39805 0.21143
 C1064 C 0.73164 0.39424 0.22279
 C1065 C 0.72580 0.37300 0.22485
 C1066 C 0.70718 0.37656 0.21344
 C1067 C 0.70246 0.40229 0.23050
 C1068 C 0.69661 0.38105 0.23256
 C1069 C 0.72107 0.39873 0.24190
 C1070 C 0.71543 0.37724 0.24392
 C1071 C 0.73880 0.35670 0.22170
 C1072 C 0.74951 0.34329 0.21911
 C1073 C 0.68946 0.41859 0.23364
 C1074 C 0.67876 0.43200 0.23623
 H1075 H 0.71161 0.40679 0.19810
 H1076 H 0.74619 0.39948 0.21873
 H1077 H 0.70162 0.36726 0.20170
 H1078 H 0.68207 0.37581 0.23661
 H1079 H 0.72664 0.40803 0.25364
 H1080 H 0.71665 0.36850 0.25725
 C1081 C 0.70230 0.61668 0.25734
 C1082 C 0.70404 0.62829 0.27629
 C1083 C 0.72608 0.62720 0.27463
 C1084 C 0.72453 0.61583 0.25573
 C1085 C 0.70269 0.59794 0.26909
 C1086 C 0.72473 0.59684 0.26743
 C1087 C 0.70424 0.60930 0.28799
 C1088 C 0.72648 0.60846 0.28638
 C1089 C 0.73910 0.64350 0.27772
 C1090 C 0.74981 0.65691 0.28028
 C1091 C 0.68966 0.58164 0.26602
 C1092 C 0.67893 0.56825 0.26349
 H1093 H 0.69221 0.61987 0.24537
 H1094 H 0.69569 0.64141 0.27997
 H1095 H 0.73303 0.61870 0.24250
 H1096 H 0.73308 0.58372 0.26376
 H1097 H 0.69575 0.60643 0.30123
 H1098 H 0.73656 0.60526 0.29836
 C1099 C 0.20274 0.11683 0.75776
 C1100 C 0.20445 0.12845 0.77672
 C1101 C 0.22649 0.12738 0.77507
 C1102 C 0.22498 0.11602 0.75616
 C1103 C 0.20315 0.09809 0.76950
 C1104 C 0.22519 0.09702 0.76786
 C1105 C 0.20467 0.10945 0.78841
 C1106 C 0.22691 0.10864 0.78681
 C1107 C 0.23948 0.14371 0.77818
 C1108 C 0.25016 0.15714 0.78076
 C1109 C 0.19014 0.08178 0.76641
 C1110 C 0.17942 0.06837 0.76388
 H1111 H 0.19265 0.12002 0.74578
 H1112 H 0.19607 0.14155 0.78040
 H1113 H 0.23347 0.11891 0.74294
 H1114 H 0.23357 0.08392 0.76418
 H1115 H 0.19617 0.10656 0.80164
 H1116 H 0.23700 0.10545 0.79879
 C1117 C 0.22808 0.30439 0.11813
 C1118 C 0.21085 0.29039 0.12032
 C1119 C 0.22492 0.27445 0.12645
 C1120 C 0.24210 0.28824 0.12451
 C1121 C 0.23044 0.29780 0.09715
 C1122 C 0.24451 0.28186 0.10328
 C1123 C 0.21326 0.28401 0.09910
 C1124 C 0.22728 0.26786 0.10547
 C1125 C 0.22182 0.26145 0.14277
 C1126 C 0.21924 0.25077 0.15620
 C1127 C 0.23351 0.31082 0.08085
 C1128 C 0.23603 0.32154 0.06744
 H1129 H 0.22845 0.31956 0.12315
 H1130 H 0.19698 0.29375 0.12751
 H1131 H 0.25393 0.28984 0.13514
 H1132 H 0.25838 0.27850 0.09609
 H1133 H 0.20143 0.28241 0.08847
 H1134 H 0.22691 0.25269 0.10045
 C1135 C 0.72332 0.77681 0.59560
 C1136 C 0.73902 0.77040 0.61009
 C1137 C 0.72493 0.77434 0.62668
 C1138 C 0.70918 0.78055 0.61244
 C1139 C 0.73054 0.79764 0.59736
 C1140 C 0.71645 0.80158 0.61395
 C1141 C 0.74629 0.79144 0.61160
 C1142 C 0.73216 0.79517 0.62845
 C1143 C 0.72180 0.76136 0.64301
 C1144 C 0.71921 0.75069 0.65644
 C1145 C 0.73365 0.81063 0.58104
 C1146 C 0.73621 0.82134 0.56763
 H1147 H 0.71971 0.76941 0.58191
 H1148 H 0.74826 0.75744 0.60868
 H1149 H 0.69389 0.77592 0.61297
 H1150 H 0.70721 0.81454 0.61536
 H1151 H 0.76158 0.79606 0.61107
 H1152 H 0.73576 0.80258 0.64213
 C1153 C 0.76036 0.80053 0.38174
 C1154 C 0.78015 0.79653 0.37223
 C1155 C 0.77554 0.77489 0.37235
 C1156 C 0.75581 0.77869 0.38160
 C1157 C 0.76974 0.79817 0.40163
 C1158 C 0.76513 0.77654 0.40174
 C1159 C 0.78947 0.79438 0.39238
 C1160 C 0.78492 0.77254 0.39224
 C1161 C 0.77876 0.76192 0.35605
 C1162 C 0.78140 0.75122 0.34265
 C1163 C 0.76651 0.81113 0.41794
 C1164 C 0.76386 0.82179 0.43136
 H1165 H 0.75023 0.81218 0.37760
 H1166 H 0.78636 0.80461 0.35992
 H1167 H 0.74200 0.77209 0.37698
 H1168 H 0.75892 0.76846 0.41406
 H1169 H 0.80328 0.80097 0.39699
 H1170 H 0.79505 0.76089 0.39637
 C1171 C 0.25284 0.28825 -0.10993
 C1172 C 0.26345 0.29363 -0.12881
 C1173 C 0.27474 0.27465 -0.12757
 C1174 C 0.26419 0.26906 -0.10895
 C1175 C 0.26896 0.29806 -0.09840
 C1176 C 0.28025 0.27908 -0.09716
 C1177 C 0.27951 0.30365 -0.11702
 C1178 C 0.29086 0.28446 -0.11603
 C1179 C 0.27798 0.26160 -0.14381
 C1180 C 0.28065 0.25086 -0.15716
 C1181 C 0.26576 0.31110 -0.08215
 C1182 C 0.26315 0.32183 -0.06877
 H1183 H 0.23718 0.28995 -0.10724
 H1184 H 0.25657 0.29946 -0.14200
 H1185 H 0.25792 0.25470 -0.10581
 H1186 H 0.28713 0.27325 -0.08397
 H1187 H 0.28578 0.31801 -0.12016
 H1188 H 0.30652 0.28276 -0.11872
 C1189 C 0.72199 0.22204 -0.09645
 C1190 C 0.73795 0.23014 -0.10977
 C1191 C 0.72538 0.22532 -0.12731
 C1192 C 0.70937 0.21742 -0.11425
 C1193 C 0.73118 0.20198 -0.09807
 C1194 C 0.71861 0.19716 -0.11561
 C1195 C 0.74719 0.20988 -0.11113
 C1196 C 0.73457 0.20527 -0.12893
 C1197 C 0.72214 0.23833 -0.14360
 C1198 C 0.71947 0.24904 -0.15699
 C1199 C 0.73439 0.18897 -0.08178
 C1200 C 0.73702 0.17827 -0.06838
 H1201 H 0.71686 0.22879 -0.08291
 H1202 H 0.74587 0.24385 -0.10755
 H1203 H 0.69379 0.22067 -0.11571
 H1204 H 0.71069 0.18346 -0.11783
 H1205 H 0.76277 0.20663 -0.10967
 H1206 H 0.73970 0.19851 -0.14247
 C1207 C 0.23052 0.69605 0.38093
 C1208 C 0.21206 0.70809 0.37744
 C1209 C 0.22470 0.72566 0.37285
 C1210 C 0.24311 0.71383 0.37609
 C1211 C 0.23028 0.70231 0.40214
 C1212 C 0.24292 0.71988 0.39755
 C1213 C 0.21187 0.71415 0.39889
 C1214 C 0.22446 0.73192 0.39405
 C1215 C 0.22158 0.73866 0.35654
 C1216 C 0.21900 0.74936 0.34312
 C1217 C 0.23338 0.68931 0.41845
 C1218 C 0.23594 0.67861 0.43186
 H1219 H 0.23305 0.68116 0.37572
 H1220 H 0.19934 0.70339 0.36899
 H1221 H 0.25592 0.71384 0.36653
 H1222 H 0.25564 0.72459 0.40600
 H1223 H 0.19906 0.71414 0.40845
 H1224 H 0.22193 0.74681 0.39926
 C1225 C 0.27471 0.72374 0.59586
 C1226 C 0.25934 0.72915 0.61110
 C1227 C 0.27436 0.72588 0.62701
 C1228 C 0.28978 0.72068 0.61203
 C1229 C 0.26875 0.70252 0.59776
 C1230 C 0.28376 0.69926 0.61367
 C1231 C 0.25333 0.70772 0.61274
 C1232 C 0.26839 0.70466 0.62891
 C1233 C 0.27750 0.73888 0.64330
 C1234 C 0.28011 0.74957 0.65671
 C1235 C 0.26564 0.68950 0.58148
 C1236 C 0.26310 0.67877 0.56809
 H1237 H 0.27728 0.73143 0.58209
 H1238 H 0.24934 0.74158 0.61022
 H1239 H 0.30480 0.72615 0.61192
 H1240 H 0.29377 0.68682 0.61455
 H1241 H 0.23831 0.70225 0.61285
 H1242 H 0.26583 0.69697 0.64268
 C1243 C 0.76786 0.19634 0.11876
 C1244 C 0.78703 0.20678 0.12340
 C1245 C 0.77571 0.22547 0.12683
 C1246 C 0.75659 0.21523 0.12244
 C1247 C 0.77014 0.20214 0.09754
 C1248 C 0.75882 0.22084 0.10097
 C1249 C 0.78926 0.21238 0.10193
 C1250 C 0.77799 0.23128 0.10561
 C1251 C 0.77880 0.23846 0.14314
 C1252 C 0.78136 0.24915 0.15655
 C1253 C 0.76705 0.18914 0.08124
 C1254 C 0.76449 0.17844 0.06784
 H1255 H 0.76367 0.18183 0.12399
 H1256 H 0.79866 0.20114 0.13280
 H1257 H 0.74319 0.21655 0.13106
 H1258 H 0.74719 0.22647 0.09156
 H1259 H 0.80266 0.21106 0.09331
 H1260 H 0.78218 0.24579 0.10038
 C1261 C 0.46541 0.36321 0.55134
 C1262 C 0.48067 0.37864 0.54615
 C1263 C 0.47500 0.37672 0.52486
 C1264 C 0.45970 0.36154 0.52985
 C1265 C 0.48066 0.34748 0.54825
 C1266 C 0.47499 0.34556 0.52697
 C1267 C 0.49596 0.36266 0.54327
 C1268 C 0.49024 0.36099 0.52178
 C1269 C 0.47184 0.39301 0.51184
 C1270 C 0.46923 0.40641 0.50113
 C1271 C 0.48380 0.33120 0.56129
 C1272 C 0.48639 0.31781 0.57202
 H1273 H 0.45523 0.36394 0.56364
 H1274 H 0.48296 0.39243 0.55389
 H1275 H 0.44475 0.36127 0.52419
 H1276 H 0.47269 0.33177 0.51922
 H1277 H 0.51091 0.36293 0.54893
 H1278 H 0.50042 0.36026 0.50948
 C1279 C -0.03934 0.85343 0.03857
 C1280 C -0.03509 0.87476 0.04353
 C1281 C -0.02536 0.87716 0.02381
 C1282 C -0.02966 0.85608 0.01865
 C1283 C -0.01970 0.84780 0.04707
 C1284 C -0.00997 0.85020 0.02735
 C1285 C -0.01540 0.86888 0.05223
 C1286 C -0.00573 0.87153 0.03231
 C1287 C -0.02852 0.89351 0.01086
 C1288 C -0.03110 0.90696 0.00021
 C1289 C -0.01654 0.83146 0.06003
 C1290 C -0.01395 0.81803 0.07070
 H1291 H -0.05312 0.84580 0.04129
 H1292 H -0.04545 0.88504 0.05004
 H1293 H -0.03556 0.85100 0.00470
 H1294 H 0.00039 0.83992 0.02084
 H1295 H -0.00951 0.87396 0.06618
 H1296 H 0.00806 0.87916 0.02959
 C1297 C 0.00352 0.64198 0.03551
 C1298 C 0.01694 0.64215 0.01769
 C1299 C 0.02514 0.62259 0.02399
 C1300 C 0.01177 0.62217 0.04161
 C1301 C 0.01942 0.65192 0.04724
 C1302 C 0.02762 0.63236 0.05354
 C1303 C 0.03279 0.65235 0.02962
 C1304 C 0.04104 0.63254 0.03572
 C1305 C 0.02833 0.60626 0.01104
 C1306 C 0.03095 0.59283 0.00038
 C1307 C 0.01624 0.66825 0.06019
 C1308 C 0.01363 0.68167 0.07086
 H1309 H -0.01194 0.64604 0.03556
 H1310 H 0.01259 0.64600 0.00281
 H1311 H 0.00317 0.60957 0.04639
 H1312 H 0.03197 0.62851 0.06843
 H1313 H 0.04140 0.66494 0.02484
 H1314 H 0.05650 0.62847 0.03567
 C1315 C 0.51161 0.15066 0.52787
 C1316 C 0.53153 0.14357 0.52077
 C1317 C 0.52536 0.12276 0.52502
 C1318 C 0.50548 0.12959 0.53192
 C1319 C 0.51969 0.15198 0.54841
 C1320 C 0.51352 0.13117 0.55266
 C1321 C 0.53957 0.14514 0.54151
 C1322 C 0.53344 0.12408 0.54556
 C1323 C 0.52851 0.10648 0.51200
 C1324 C 0.53112 0.09310 0.50128
 C1325 C 0.51654 0.16825 0.56144
 C1326 C 0.51395 0.18165 0.57215
 H1327 H 0.50259 0.16177 0.52075
 H1328 H 0.53898 0.14849 0.50751
 H1329 H 0.49150 0.12302 0.52784
 H1330 H 0.50607 0.12625 0.56592
 H1331 H 0.55355 0.15172 0.54560
 H1332 H 0.54246 0.11297 0.55269
 C1333 C -0.01902 0.15405 0.47447
 C1334 C -0.03753 0.14163 0.47532
 C1335 C -0.02498 0.12342 0.47580
 C1336 C -0.00651 0.13559 0.47515
 C1337 C -0.01941 0.15267 0.45240
 C1338 C -0.00685 0.13446 0.45288
 C1339 C -0.03787 0.14050 0.45305
 C1340 C -0.02536 0.12204 0.45374
 C1341 C -0.02809 0.10712 0.48883
 C1342 C -0.03068 0.09371 0.49953
 C1343 C -0.01632 0.16896 0.43936
 C1344 C -0.01379 0.18235 0.42863
 H1345 H -0.01638 0.16740 0.48284
 H1346 H -0.05019 0.14439 0.48469
 H1347 H 0.00635 0.13339 0.48439
 H1348 H 0.00580 0.13170 0.44351
 H1349 H -0.05073 0.14270 0.44382
 H1350 H -0.02801 0.10869 0.44536
 C1351 C 0.48081 0.65332 0.97470
 C1352 C 0.46228 0.64092 0.97552
 C1353 C 0.47481 0.62269 0.97600
 C1354 C 0.49329 0.63484 0.97539
 C1355 C 0.48045 0.65196 0.95263
 C1356 C 0.49298 0.63373 0.95312
 C1357 C 0.46197 0.63981 0.95325
 C1358 C 0.47445 0.62133 0.95394
 C1359 C 0.47165 0.60639 0.98901
 C1360 C 0.46903 0.59298 0.99971
 C1361 C 0.48358 0.66825 0.93961
 C1362 C 0.48614 0.68165 0.92889
 H1363 H 0.48346 0.66665 0.98309
 H1364 H 0.44962 0.64370 0.98487
 H1365 H 0.50613 0.63261 0.98464
 H1366 H 0.50564 0.63095 0.94376
 H1367 H 0.44913 0.64204 0.94400
 H1368 H 0.47180 0.60800 0.94554
 C1369 C 0.51673 0.86883 0.94677
 C1370 C 0.50576 0.87236 0.96586
 C1371 C 0.52501 0.87687 0.97577
 C1372 C 0.53603 0.87360 0.95688
 C1373 C 0.51929 0.84761 0.95246
 C1374 C 0.53854 0.85213 0.96237
 C1375 C 0.50827 0.85088 0.97135
 C1376 C 0.52758 0.85565 0.98146
 C1377 C 0.52821 0.89317 0.98876
 C1378 C 0.53085 0.90657 0.99945
 C1379 C 0.51611 0.83131 0.93947
 C1380 C 0.51350 0.81791 0.92878
 H1381 H 0.51223 0.87407 0.93236
 H1382 H 0.49231 0.88086 0.96745
 H1383 H 0.54748 0.88313 0.95107
 H1384 H 0.55199 0.84362 0.96078
 H1385 H 0.49682 0.84135 0.97716
 H1386 H 0.53207 0.85041 0.99587
 C1387 C 0.03628 0.34991 0.46603
 C1388 C 0.03915 0.37109 0.45965
 C1389 C 0.02498 0.37748 0.47538
 C1390 C 0.02216 0.35655 0.48197
 C1391 C 0.01925 0.34826 0.45201
 C1392 C 0.00508 0.35465 0.46775
 C1393 C 0.02207 0.36919 0.44543
 C1394 C 0.00795 0.37584 0.46137
 C1395 C 0.02818 0.39375 0.48840
 C1396 C 0.03082 0.40712 0.49912
 C1397 C 0.01606 0.33198 0.43900
 C1398 C 0.01345 0.31859 0.42830
 H1399 H 0.04789 0.33907 0.46780
 H1400 H 0.05319 0.37803 0.45646
 H1401 H 0.02223 0.35153 0.49714
 H1402 H -0.00896 0.34771 0.47094
 H1403 H 0.02199 0.37421 0.43025
 H1404 H -0.00366 0.38668 0.45959
 C1405 C 0.35566 0.54235 0.46099
 C1406 C 0.37628 0.54547 0.46891
 C1407 C 0.37679 0.52427 0.47522
 C1408 C 0.35642 0.52095 0.46725
 C1409 C 0.34749 0.54761 0.48085
 C1410 C 0.34800 0.52641 0.48716
 C1411 C 0.36786 0.55093 0.48883
 C1412 C 0.36862 0.52953 0.49509
 C1413 C 0.39311 0.51128 0.47207
 C1414 C 0.40653 0.50060 0.46948
 C1415 C 0.33118 0.56061 0.48398
 C1416 C 0.31776 0.57131 0.48654
 H1417 H 0.35015 0.54777 0.44700
 H1418 H 0.38809 0.55316 0.46137
 H1419 H 0.35190 0.50848 0.45834
 H1420 H 0.33619 0.51872 0.49471
 H1421 H 0.37238 0.56340 0.49773
 H1422 H 0.37413 0.52411 0.50908
 C1423 C 0.85971 0.03689 -0.00323
 C1424 C 0.85891 0.01793 -0.01495
 C1425 C 0.87779 0.02365 -0.02498
 C1426 C 0.87883 0.04240 -0.01330
 C1427 C 0.84855 0.04706 -0.01939
 C1428 C 0.86742 0.05278 -0.02942
 C1429 C 0.84750 0.02831 -0.03106
 C1430 C 0.86663 0.03383 -0.04114
 C1431 C 0.89407 0.01062 -0.02811
 C1432 C 0.90748 -0.00010 -0.03070
 C1433 C 0.83226 0.06011 -0.01628
 C1434 C 0.81887 0.07085 -0.01373
 H1435 H 0.85668 0.03829 0.01240
 H1436 H 0.85560 0.00346 -0.00903
 H1437 H 0.89190 0.04805 -0.00604
 H1438 H 0.87073 0.06726 -0.03533
 H1439 H 0.83443 0.02266 -0.03833
 H1440 H 0.86965 0.03243 -0.05676
 C1441 C 0.65292 0.03042 0.03350
 C1442 C 0.63283 0.03667 0.04091
 C1443 C 0.62344 0.02427 0.02519
 C1444 C 0.64328 0.01782 0.01783
 C1445 C 0.65279 0.04753 0.01947
 C1446 C 0.64340 0.03513 0.00375
 C1447 C 0.63295 0.05398 0.02684
 C1448 C 0.62331 0.04138 0.01116
 C1449 C 0.60710 0.01132 0.02838
 C1450 C 0.59367 0.00065 0.03100
 C1451 C 0.66913 0.06048 0.01630
 C1452 C 0.68256 0.07115 0.01369
 H1453 H 0.66528 0.02606 0.04265
 H1454 H 0.62830 0.03716 0.05622
 H1455 H 0.64735 0.00281 0.01416
 H1456 H 0.64793 0.03465 -0.01156
 H1457 H 0.62888 0.06900 0.03051
 H1458 H 0.61095 0.04575 0.00202
 C1459 C 0.13217 0.54928 0.50928
 C1460 C 0.13243 0.52726 0.50573
 C1461 C 0.12242 0.52425 0.52522
 C1462 C 0.12191 0.54607 0.52882
 C1463 C 0.15170 0.54759 0.51953
 C1464 C 0.14169 0.54458 0.53903
 C1465 C 0.15221 0.52577 0.51593
 C1466 C 0.14195 0.52256 0.53548
 C1467 C 0.10611 0.51125 0.52839
 C1468 C 0.09270 0.50055 0.53101
 C1469 C 0.16801 0.56060 0.51637
 C1470 C 0.18142 0.57130 0.51378
 H1471 H 0.12833 0.56042 0.49847
 H1472 H 0.12843 0.52000 0.49208
 H1473 H 0.10927 0.55427 0.53416
 H1474 H 0.14569 0.55184 0.55268
 H1475 H 0.16485 0.51758 0.51060
 H1476 H 0.14579 0.51143 0.54628
 C1477 C 0.14616 0.46177 -0.03902
 C1478 C 0.12480 0.45682 -0.03489
 C1479 C 0.12243 0.47645 -0.02497
 C1480 C 0.14354 0.48160 -0.02914
 C1481 C 0.15170 0.45304 -0.01946
 C1482 C 0.14933 0.47266 -0.00954
 C1483 C 0.13059 0.44789 -0.01529
 C1484 C 0.12797 0.46771 -0.00542
 C1485 C 0.10613 0.48947 -0.02806
 C1486 C 0.09270 0.50016 -0.03063
 C1487 C 0.16799 0.43999 -0.01641
 C1488 C 0.18139 0.42925 -0.01391
 H1489 H 0.15383 0.45918 -0.05280
 H1490 H 0.11453 0.45045 -0.04534
 H1491 H 0.14869 0.49561 -0.03487
 H1492 H 0.15960 0.47903 0.00091
 H1493 H 0.12545 0.43388 -0.00956
 H1494 H 0.12031 0.47030 0.00836
 C1495 C 0.64650 0.96135 0.46085
 C1496 C 0.62514 0.95637 0.46497
 C1497 C 0.62274 0.97600 0.47487
 C1498 C 0.64385 0.98118 0.47070
 C1499 C 0.65203 0.95264 0.48041
 C1500 C 0.64964 0.97226 0.49031
 C1501 C 0.63093 0.94746 0.48458
 C1502 C 0.62828 0.96729 0.49443
 C1503 C 0.60642 0.98901 0.47177
 C1504 C 0.59300 0.99971 0.46921
 C1505 C 0.66834 0.93962 0.48349
 C1506 C 0.68175 0.92891 0.48604
 H1507 H 0.65417 0.95875 0.44707
 H1508 H 0.61488 0.94998 0.45451
 H1509 H 0.64898 0.99519 0.46496
 H1510 H 0.65989 0.97865 0.50077
 H1511 H 0.62580 0.93345 0.49032
 H1512 H 0.62060 0.96988 0.50820
 C1513 C 0.85850 0.95452 0.53872
 C1514 C 0.87787 0.95380 0.52768
 C1515 C 0.87704 0.97578 0.52528
 C1516 C 0.85792 0.97670 0.53637
 C1517 C 0.84775 0.95247 0.51950
 C1518 C 0.84692 0.97445 0.51711
 C1519 C 0.86687 0.95155 0.50841
 C1520 C 0.86629 0.97373 0.50606
 C1521 C 0.89335 0.98876 0.52849
 C1522 C 0.90676 0.99945 0.53112
 C1523 C 0.83144 0.93950 0.51628
 C1524 C 0.81803 0.92881 0.51364
 H1525 H 0.85511 0.94648 0.55211
 H1526 H 0.89078 0.94545 0.53206
 H1527 H 0.85442 0.98719 0.54791
 H1528 H 0.83400 0.98280 0.51272
 H1529 H 0.87037 0.94106 0.49687
 H1530 H 0.86967 0.98177 0.49267
 C1531 C 0.36180 0.45083 0.03568
 C1532 C 0.37857 0.45415 0.02136
 C1533 C 0.37677 0.47594 0.02467
 C1534 C 0.36024 0.47282 0.03905
 C1535 C 0.34746 0.45265 0.01894
 C1536 C 0.34565 0.47444 0.02226
 C1537 C 0.36399 0.45576 0.00456
 C1538 C 0.36243 0.47776 0.00793
 C1539 C 0.39308 0.48892 0.02787
 C1540 C 0.40650 0.49960 0.03051
 C1541 C 0.33115 0.43967 0.01576
 C1542 C 0.31772 0.42899 0.01315
 H1543 H 0.36136 0.43961 0.04706
 H1544 H 0.39229 0.44595 0.02102
 H1545 H 0.35888 0.47998 0.05327
 H1546 H 0.33193 0.48264 0.02259
 H1547 H 0.36534 0.44861 -0.00965
 H1548 H 0.36287 0.48898 -0.00345
 C1549 C 0.55075 0.48931 0.36811
 C1550 C 0.52912 0.49477 0.36857
 C1551 C 0.52455 0.47494 0.37724
 C1552 C 0.54598 0.46943 0.37704
 C1553 C 0.54788 0.48067 0.34797
 C1554 C 0.54331 0.46083 0.35664
 C1555 C 0.52645 0.48618 0.34817
 C1556 C 0.52168 0.46630 0.35710
 C1557 C 0.51156 0.47174 0.39354
 C1558 C 0.50086 0.46911 0.40695
 C1559 C 0.56087 0.48385 0.33166
 C1560 C 0.57156 0.48645 0.31825
 H1561 H 0.56284 0.49881 0.37246
 H1562 H 0.52314 0.50869 0.37365
 H1563 H 0.55387 0.46250 0.38910
 H1564 H 0.54930 0.44692 0.35156
 H1565 H 0.51857 0.49310 0.33611
 H1566 H 0.50959 0.45680 0.35275
 C1567 C 0.02994 -0.03168 0.84734
 C1568 C 0.03570 -0.04105 0.86675
 C1569 C 0.02482 -0.02501 0.87741
 C1570 C 0.01886 -0.01570 0.85825
 C1571 C 0.04823 -0.01926 0.84821
 C1572 C 0.03735 -0.00322 0.85887
 C1573 C 0.05418 -0.02858 0.86736
 C1574 C 0.04310 -0.01259 0.87827
 C1575 C 0.01177 -0.02823 0.89367
 C1576 C 0.00103 -0.03089 0.90703
 C1577 C 0.06126 -0.01606 0.83194
 C1578 C 0.07199 -0.01345 0.81856
 H1579 H 0.02468 -0.03950 0.83444
 H1580 H 0.03487 -0.05664 0.87018
 H1581 H 0.00419 -0.01044 0.85469
 H1582 H 0.03817 0.01237 0.85544
 H1583 H 0.06885 -0.03384 0.87093
 H1584 H 0.04836 -0.00477 0.89117
 C1585 C 0.05024 0.01014 0.63293
 C1586 C 0.02837 0.00572 0.63293
 C1587 C 0.02466 0.02537 0.62347
 C1588 C 0.04633 0.02984 0.62322
 C1589 C 0.04803 0.01975 0.65272
 C1590 C 0.04432 0.03940 0.64326
 C1591 C 0.02636 0.01528 0.65297
 C1592 C 0.02245 0.03498 0.64326
 C1593 C 0.01165 0.02852 0.60717
 C1594 C 0.00095 0.03111 0.59377
 C1595 C 0.06105 0.01662 0.66901
 C1596 C 0.07178 0.01404 0.68240
 H1597 H 0.06181 -0.00011 0.62887
 H1598 H 0.02166 -0.00809 0.62850
 H1599 H 0.05439 0.03586 0.61080
 H1600 H 0.05102 0.05321 0.64769
 H1601 H 0.01830 0.00926 0.66539
 H1602 H 0.01088 0.04523 0.64732
 C1603 C 0.54986 0.51006 0.13248
 C1604 C 0.52799 0.50567 0.13244
 C1605 C 0.52431 0.52533 0.12300
 C1606 C 0.54598 0.52978 0.12278
 C1607 C 0.54764 0.51965 0.15228
 C1608 C 0.54396 0.53931 0.14283
 C1609 C 0.52596 0.51521 0.15249
 C1610 C 0.52209 0.53492 0.14280
 C1611 C 0.51132 0.52851 0.10669
 C1612 C 0.50064 0.53113 0.09327
 C1613 C 0.56064 0.51649 0.16858
 C1614 C 0.57134 0.51390 0.18198
 H1615 H 0.56143 0.49980 0.12842
 H1616 H 0.52127 0.49187 0.12799
 H1617 H 0.55407 0.53580 0.11038
 H1618 H 0.55068 0.55311 0.14729
 H1619 H 0.51788 0.50918 0.16489
 H1620 H 0.51052 0.54518 0.14686
 C1621 C 0.44867 -0.01248 0.13221
 C1622 C 0.46979 -0.00537 0.13109
 C1623 C 0.47581 -0.02525 0.12350
 C1624 C 0.45490 -0.03241 0.12437
 C1625 C 0.45246 -0.01969 0.15278
 C1626 C 0.45848 -0.03957 0.14518
 C1627 C 0.47337 -0.01253 0.15191
 C1628 C 0.47960 -0.03246 0.14406
 C1629 C 0.48881 -0.02836 0.10719
 C1630 C 0.49949 -0.03094 0.09376
 C1631 C 0.43944 -0.01661 0.16907
 C1632 C 0.42871 -0.01407 0.18247
 H1633 H 0.43580 -0.00423 0.12753
 H1634 H 0.47458 0.00866 0.12512
 H1635 H 0.44744 -0.04061 0.11286
 H1636 H 0.45369 -0.05360 0.15116
 H1637 H 0.48082 -0.00433 0.16341
 H1638 H 0.49247 -0.04071 0.14875
 C1639 C 0.94867 0.48761 0.63216
 C1640 C 0.96978 0.49475 0.63104
 C1641 C 0.97584 0.47490 0.62341
 C1642 C 0.95493 0.46771 0.62427
 C1643 C 0.95248 0.48036 0.65271
 C1644 C 0.95853 0.46051 0.64507
 C1645 C 0.97338 0.48755 0.65185
 C1646 C 0.97964 0.46765 0.64396
 C1647 C 0.98883 0.47184 0.60709
 C1648 C 0.99951 0.46931 0.59365
 C1649 C 0.93945 0.48340 0.66901
 C1650 C 0.92873 0.48590 0.68241
 H1651 H 0.93579 0.49585 0.62749
 H1652 H 0.97455 0.50880 0.62509
 H1653 H 0.94749 0.45951 0.61275
 H1654 H 0.95376 0.44646 0.65102
 H1655 H 0.98082 0.49575 0.66337
 H1656 H 0.99252 0.45941 0.64863
 C1657 C 0.97296 0.52566 0.84640
 C1658 C 0.96952 0.54032 0.86284
 C1659 C 0.97531 0.52481 0.87752
 C1660 C 0.97896 0.51020 0.86133
 C1661 C 0.95195 0.51898 0.84830
 C1662 C 0.95774 0.50348 0.86298
 C1663 C 0.94831 0.53359 0.86449
 C1664 C 0.95430 0.51814 0.87942
 C1665 C 0.98833 0.52806 0.89378
 C1666 C 0.99906 0.53074 0.90715
 C1667 C 0.93895 0.51576 0.83202
 C1668 C 0.92825 0.51312 0.81863
 H1669 H 0.98049 0.52871 0.83263
 H1670 H 0.97451 0.55550 0.86296
 H1671 H 0.99170 0.50062 0.86021
 H1672 H 0.95275 0.48829 0.86285
 H1673 H 0.93557 0.54318 0.86561
 H1674 H 0.94678 0.51509 0.89319
 C1675 C 0.47316 0.02564 0.34640
 C1676 C 0.46977 0.04027 0.36288
 C1677 C 0.47554 0.02472 0.37752
 C1678 C 0.47914 0.01014 0.36129
 C1679 C 0.45214 0.01901 0.34831
 C1680 C 0.45791 0.00346 0.36295
 C1681 C 0.44854 0.03359 0.36454
 C1682 C 0.45452 0.01809 0.37943
 C1683 C 0.48858 0.02791 0.39378
 C1684 C 0.49931 0.03053 0.40715
 C1685 C 0.43911 0.01583 0.33204
 C1686 C 0.42840 0.01323 0.31865
 H1687 H 0.48068 0.02871 0.33264
 H1688 H 0.47478 0.05545 0.36304
 H1689 H 0.49186 0.00054 0.36014
 H1690 H 0.45289 -0.01172 0.36279
 H1691 H 0.43582 0.04320 0.36569
 H1692 H 0.44700 0.01502 0.39319
   
