data_POSCAR
  _audit_creation_date              2014-09-24
  _audit_creation_method            'ToBaCCo'
  _symmetry_space_group_name_H-M    'P1'
  _symmetry_Int_Tables_number       1
  _symmetry_cell_setting            triclinic
  loop_
  _symmetry_equiv_pos_as_xyz
 x,y,z
_cell_length_a 46.7183
_cell_length_b 46.6747
_cell_length_c 46.6302
_cell_angle_alpha 90.024100
_cell_angle_beta 90.069800
_cell_angle_gamma 90.073200
loop_
  _atom_site_label
  _atom_site_type_symbol
  _atom_site_fract_x
  _atom_site_fract_y
  _atom_site_fract_z
C1 C 0.35614 1.35977 0.32214
 C2 C 0.36892 1.33553 0.33449
 C3 C 0.35710 1.32274 0.35894
 C4 C 0.33237 1.33439 0.37126
 C5 C 0.31925 1.35862 0.35922
 C6 C 0.33134 1.37128 0.33469
 H7 H 0.38790 1.32650 0.32475
 H8 H 0.32335 1.32417 0.39001
 H9 H 0.32109 1.38985 0.32533
 C10 C 0.35687 0.85888 0.82055
 C11 C 0.33208 0.87073 0.83254
 C12 C 0.31927 0.85822 0.85673
 C13 C 0.33178 0.83369 0.86896
 C14 C 0.35662 0.82165 0.85707
 C15 C 0.36908 0.83444 0.83292
 H16 H 0.32270 0.88947 0.82278
 H17 H 0.32200 0.82371 0.88752
 H18 H 0.38811 0.82534 0.82339
 C19 C 0.85820 1.35798 0.82179
 C20 C 0.87094 1.33373 0.83396
 C21 C 0.85916 1.32081 0.85829
 C22 C 0.83444 1.33242 0.87076
 C23 C 0.82129 1.35677 0.85886
 C24 C 0.83343 1.36948 0.83434
 H25 H 0.88989 1.32471 0.82435
 H26 H 0.82548 1.32208 0.88947
 H27 H 0.82344 1.38815 0.82478
 C28 C 0.85867 0.86237 0.32362
 C29 C 0.83413 0.87380 0.33646
 C30 C 0.82232 0.86087 0.36085
 C31 C 0.83541 0.83649 0.37256
 C32 C 0.86004 0.82493 0.35984
 C33 C 0.87164 0.83807 0.33547
 H34 H 0.82380 0.89242 0.32729
 H35 H 0.82632 0.82614 0.39121
 H36 H 0.89044 0.82921 0.32527
 C37 C 0.64102 0.63920 0.32172
 C38 C 0.66541 0.62693 0.33423
 C39 C 0.67795 0.63920 0.35859
 C40 C 0.66585 0.66378 0.37078
 C41 C 0.64146 0.67634 0.35858
 C42 C 0.62906 0.66390 0.33411
 H43 H 0.67499 0.60812 0.32486
 H44 H 0.67585 0.67326 0.38945
 H45 H 0.61037 0.67374 0.32446
 C46 C 0.64240 0.14214 0.82352
 C47 C 0.66711 0.12993 0.83562
 C48 C 0.67955 0.14178 0.86044
 C49 C 0.66686 0.16584 0.87315
 C50 C 0.64232 0.17818 0.86126
 C51 C 0.63007 0.16623 0.83657
 H52 H 0.67684 0.11145 0.82547
 H53 H 0.67619 0.17528 0.89209
 H54 H 0.61121 0.17609 0.82743
 C55 C 1.14079 0.63769 0.82453
 C56 C 1.12796 0.66207 0.83656
 C57 C 1.13932 0.67460 0.86145
 C58 C 1.16346 0.66243 0.87445
 C59 C 1.17639 0.63812 0.86263
 C60 C 1.16491 0.62572 0.83778
 H61 H 1.10949 0.67161 0.82624
 H62 H 1.17248 0.67211 0.89345
 H63 H 1.17521 0.60711 0.82861
 C64 C 1.14243 0.14219 0.32204
 C65 C 1.16700 0.13015 0.33468
 C66 C 1.17926 0.14240 0.35940
 C67 C 1.16657 0.16681 0.37151
 C68 C 1.14215 0.17902 0.35915
 C69 C 1.13012 0.16664 0.33456
 H70 H 1.17678 0.11139 0.32509
 H71 H 1.17580 0.17656 0.39036
 H72 H 1.11136 0.17647 0.32519
 C73 C 0.64100 1.36164 0.67736
 C74 C 0.62935 1.33700 0.66473
 C75 C 0.64200 1.32489 0.64032
 C76 C 0.66636 1.33782 0.62840
 C77 C 0.67823 1.36254 0.64087
 C78 C 0.66532 1.37438 0.66529
 H79 H 0.61070 1.32694 0.67420
 H80 H 0.67643 1.32850 0.60970
 H81 H 0.67437 1.39324 0.67518
 C82 C 0.63754 0.86082 1.17715
 C83 C 0.62573 0.83612 1.16480
 C84 C 0.63835 0.82367 1.14056
 C85 C 0.66284 0.83628 1.12856
 C86 C 0.67485 0.86101 1.14080
 C87 C 0.66199 0.87325 1.16502
 H88 H 0.60704 0.82639 1.17430
 H89 H 0.67285 0.82657 1.11000
 H90 H 0.67113 0.89217 1.17486
 C91 C 1.14236 1.35817 1.17860
 C92 C 1.12969 1.33338 1.16709
 C93 C 1.14153 1.31992 1.14298
 C94 C 1.16611 1.33148 1.13018
 C95 C 1.17904 1.35621 1.14145
 C96 C 1.16698 1.36949 1.16559
 H97 H 1.11081 1.32448 1.17718
 H98 H 1.17518 1.32082 1.11170
 H99 H 1.17714 1.38845 1.17429
 C100 C 1.14131 0.86084 0.67529
 C101 C 1.12962 0.83628 0.66248
 C102 C 1.14242 0.82418 0.63813
 C103 C 1.16692 0.83702 0.62645
 C104 C 1.17874 0.86156 0.63913
 C105 C 1.16581 0.87346 0.66343
 H106 H 1.11086 0.82626 0.67178
 H107 H 1.17721 0.82777 0.60786
 H108 H 1.17507 0.89221 0.67334
 C109 C 0.35929 0.64159 0.67887
 C110 C 0.33497 0.62868 0.66683
 C111 C 0.32222 0.64011 0.64207
 C112 C 0.33424 0.66455 0.62928
 C113 C 0.35856 0.67762 0.64113
 C114 C 0.37106 0.66600 0.66587
 H115 H 0.32594 0.60998 0.67714
 H116 H 0.32434 0.67351 0.61030
 H117 H 0.38972 0.67626 0.67508
 C118 C 0.36005 0.13764 1.17724
 C119 C 0.33594 0.12475 1.16484
 C120 C 0.32345 0.13638 1.14016
 C121 C 0.33537 0.16094 1.12764
 C122 C 0.35951 0.17405 1.13985
 C123 C 0.37186 0.16220 1.16457
 H124 H 0.32658 0.10601 1.17465
 H125 H 0.32542 0.16999 1.10875
 H126 H 0.39032 0.17242 1.17429
 C127 C 0.85911 0.64022 1.17712
 C128 C 0.83476 0.62842 1.16399
 C129 C 0.82295 0.64115 1.13948
 C130 C 0.83573 0.66570 1.12788
 C131 C 0.86007 0.67769 1.14077
 C132 C 0.87176 0.66482 1.16528
 H133 H 0.82451 0.60963 1.17289
 H134 H 0.82660 0.67586 1.10913
 H135 H 0.89039 0.67412 1.17552
 C136 C 0.85860 0.14162 0.67811
 C137 C 0.83418 0.13013 0.66477
 C138 C 0.82241 0.14323 0.64035
 C139 C 0.83546 0.16789 0.62915
 C140 C 0.85985 0.17956 0.64224
 C141 C 0.87140 0.16631 0.66661
 H142 H 0.82394 0.11121 0.67344
 H143 H 0.82662 0.17843 0.61047
 H144 H 0.89011 0.17535 0.67694
 C145 C 1.35813 0.35892 0.67897
 C146 C 1.33390 0.37085 0.66604
 C147 C 1.32178 0.35820 0.64163
 C148 C 1.33431 0.33342 0.63003
 C149 C 1.35874 0.32121 0.64282
 C150 C 1.37055 0.33427 0.66727
 H151 H 1.32431 0.38975 0.67523
 H152 H 1.32481 0.32347 0.61128
 H153 H 1.38916 0.32523 0.67769
 C154 C 1.35941 0.85807 1.17653
 C155 C 1.37104 0.83355 1.16365
 C156 C 1.35814 0.82144 1.13925
 C157 C 1.33358 0.83432 1.12767
 C158 C 1.32181 0.85882 1.14038
 C159 C 1.33486 0.87068 1.16473
 H160 H 1.38986 0.82356 1.17276
 H161 H 1.32317 0.82525 1.10902
 H162 H 1.32580 0.88945 1.17486
 C163 C 0.86017 0.35611 1.17581
 C164 C 0.83575 0.36839 1.16346
 C165 C 0.82312 0.35618 1.13911
 C166 C 0.83521 0.33158 1.12686
 C167 C 0.85971 0.31901 1.13898
 C168 C 0.87214 0.33149 1.16344
 H169 H 0.82629 0.38727 1.17311
 H170 H 0.82527 0.32210 1.10822
 H171 H 0.89088 0.32172 1.17298
 C172 C 0.86080 0.86058 0.67428
 C173 C 0.87245 0.83618 0.66135
 C174 C 0.85964 0.82424 0.63696
 C175 C 0.83512 0.83706 0.62527
 C176 C 0.82332 0.86157 0.63804
 C177 C 0.83635 0.87332 0.66246
 H178 H 0.89117 0.82601 0.67046
 H179 H 0.82485 0.82782 0.60661
 H180 H 0.82729 0.89202 0.67272
 C181 C 0.64057 0.63963 0.67961
 C182 C 0.62822 0.66415 0.66739
 C183 C 0.64031 0.67675 0.64291
 C184 C 0.66478 0.66450 0.63058
 C185 C 0.67731 0.64005 0.64267
 C186 C 0.66505 0.62764 0.66711
 H187 H 0.60947 0.67348 0.67727
 H188 H 0.67435 0.67429 0.61182
 H189 H 0.67474 0.60892 0.67660
 C190 C 0.64200 1.14225 1.17876
 C191 C 0.66616 1.12932 1.16660
 C192 C 0.67884 1.14087 1.14200
 C193 C 0.66715 1.16544 1.12934
 C194 C 0.64295 1.17869 1.14124
 C195 C 0.63040 1.16684 1.16595
 H196 H 0.67534 1.11053 1.17645
 H197 H 0.67732 1.17423 1.11045
 H198 H 0.61183 1.17697 1.17549
 C199 C 0.14108 0.64045 1.17654
 C200 C 0.12876 0.66493 1.16404
 C201 C 0.14078 0.67736 1.13936
 C202 C 0.16523 0.66491 1.12712
 C203 C 0.17768 0.64056 1.13939
 C204 C 0.16551 0.62834 1.16393
 H205 H 0.11002 0.67457 1.17378
 H206 H 0.17487 0.67431 1.10832
 H207 H 0.17556 0.60967 1.17325
 C208 C 0.14102 1.14459 0.67737
 C209 C 0.12926 1.16922 0.66475
 C210 C 0.14177 1.18135 0.64017
 C211 C 0.16618 1.16846 0.62825
 C212 C 0.17810 1.14387 0.64073
 C213 C 0.16537 1.13200 0.66518
 H214 H 0.11056 1.17918 0.67411
 H215 H 0.17612 1.17766 0.60951
 H216 H 0.17465 1.11311 0.67498
 C217 C 1.35928 0.64013 0.32189
 C218 C 1.33474 0.62879 0.33488
 C219 C 1.32296 0.64193 0.35916
 C220 C 1.33605 0.66648 0.37061
 C221 C 1.36066 0.67808 0.35774
 C222 C 1.37221 0.66466 0.33343
 H223 H 1.32444 0.61002 0.32595
 H224 H 1.32693 0.67688 0.38923
 H225 H 1.39102 0.67334 0.32305
 C226 C 1.35981 1.14119 0.82486
 C227 C 1.33524 1.12851 0.83666
 C228 C 1.32235 1.14019 0.86117
 C229 C 1.33433 1.16454 0.87403
 C230 C 1.35886 1.17745 0.86249
 C231 C 1.37157 1.16557 0.83795
 H232 H 1.32588 1.10982 0.82650
 H233 H 1.32432 1.17362 0.89278
 H234 H 1.39038 1.17567 0.82891
 C235 C 0.85984 0.63815 0.82347
 C236 C 0.83547 0.62629 0.83639
 C237 C 0.82363 0.63897 0.86092
 C238 C 0.83647 0.66348 0.87263
 C239 C 0.86080 0.67549 0.85983
 C240 C 0.87251 0.66264 0.83537
 H241 H 0.82532 0.60755 0.82721
 H242 H 0.82734 0.67368 0.89134
 H243 H 0.89112 0.67189 0.82513
 C244 C 0.86041 1.14163 0.32292
 C245 C 0.83568 1.12999 0.33547
 C246 C 0.82353 1.14275 0.35989
 C247 C 0.83645 1.16715 0.37175
 C248 C 0.86104 1.17894 0.35931
 C249 C 0.87301 1.16606 0.33504
 H250 H 0.82566 1.11128 0.32601
 H251 H 0.82724 1.17743 0.39038
 H252 H 0.89185 1.17530 0.32538
 C253 C 0.64007 0.36201 0.32406
 C254 C 0.62707 0.33768 0.33609
 C255 C 0.63863 0.32468 0.36065
 C256 C 0.66327 0.33642 0.37333
 C257 C 0.67640 0.36069 0.36153
 C258 C 0.66467 0.37348 0.33702
 H259 H 0.60825 0.32875 0.32588
 H260 H 0.67241 0.32629 0.39211
 H261 H 0.67517 0.39205 0.32794
 C262 C 0.63983 0.85804 0.82213
 C263 C 0.62734 0.83367 0.83439
 C264 C 0.63933 0.82108 0.85886
 C265 C 0.66392 0.83315 0.87125
 C266 C 0.67661 0.85759 0.85919
 C267 C 0.66437 0.87001 0.83469
 H268 H 0.60856 0.82426 0.82468
 H269 H 0.67325 0.82316 0.88999
 H270 H 0.67423 0.88873 0.82511
 C271 C 0.13956 0.35905 0.82045
 C272 C 0.12745 0.33457 0.83303
 C273 C 0.13982 0.32222 0.85745
 C274 C 0.16437 0.33463 0.86952
 C275 C 0.17675 0.35907 0.85720
 C276 C 0.16421 0.37125 0.83272
 H277 H 0.10866 0.32486 0.82368
 H278 H 0.17411 0.32498 0.88828
 H279 H 0.17373 0.38999 0.82291
 C280 C 0.14060 0.85921 0.32182
 C281 C 0.12912 0.83498 0.33543
 C282 C 0.14223 0.82356 0.35991
 C283 C 0.16682 0.83663 0.37107
 C284 C 0.17852 0.86088 0.35778
 C285 C 0.16530 0.87217 0.33323
 H286 H 0.11026 0.82451 0.32691
 H287 H 0.17723 0.82779 0.38983
 H288 H 0.17439 0.89073 0.32268
 O289 O 0.97059 0.89589 0.85589
 O290 O 0.96990 0.86248 0.82243
 C291 C 0.96065 0.88598 0.83253
 C292 C 0.93765 0.90171 0.81746
 C293 C 0.92737 0.89224 0.79077
 H294 H 0.93683 0.87371 0.78050
 O295 O 1.02902 1.10305 0.85623
 O296 O 1.02931 1.13666 0.82302
 C297 C 1.03897 1.11325 0.83304
 C298 C 1.06252 1.09805 0.81809
 C299 C 1.07347 1.10848 0.79205
 H300 H 1.06412 1.12730 0.78218
 O301 O 0.85739 0.97254 0.89471
 O302 O 0.82395 0.97287 0.86130
 C303 C 0.83403 0.96289 0.88456
 C304 C 0.81889 0.93934 0.89958
 C305 C 0.79259 0.92894 0.88922
 H306 H 0.78287 0.93882 0.87064
 O307 O 1.14158 1.02523 0.89543
 O308 O 1.17516 1.02492 0.86223
 C309 C 1.16499 1.03482 0.88548
 C310 C 1.18002 1.05834 0.90061
 C311 C 1.20644 1.06848 0.89046
 H312 H 1.21635 1.05830 0.87216
 O313 O 0.89495 0.85805 0.97135
 O314 O 0.86161 0.82456 0.97137
 C315 C 0.88492 0.83464 0.96168
 C316 C 0.90006 0.81941 0.93840
 C317 C 0.89019 0.79268 0.92873
 H318 H 0.87201 0.78274 0.93908
 O319 O 1.10362 1.14128 0.97159
 O320 O 1.13732 1.17441 0.97179
 C321 C 1.11390 1.16459 0.96202
 C322 C 1.09895 1.17994 0.93867
 C323 C 1.10929 1.20636 0.92867
 H324 H 1.12769 1.21611 0.93887
 O325 O 0.89684 1.02857 0.85569
 O326 O 0.86347 1.02899 0.82219
 C327 C 0.88681 1.03860 0.83241
 C328 C 0.90209 1.06219 0.81761
 C329 C 0.89197 1.07308 0.79138
 H330 H 0.87334 1.06364 0.78122
 O331 O 1.10187 0.97016 0.85550
 O332 O 1.13526 0.96976 0.82213
 C333 C 1.11183 0.96028 0.83219
 C334 C 1.09641 0.93690 0.81722
 C335 C 1.10617 0.92644 0.79075
 H336 H 1.12457 0.93616 0.78048
 O337 O 1.02581 0.85616 0.89528
 O338 O 1.02523 0.82259 0.86198
 C339 C 1.03517 0.83267 0.88527
 C340 C 1.05834 0.81735 0.90053
 C341 C 1.06826 0.79084 0.89040
 H342 H 1.05826 0.78111 0.87186
 O343 O 0.97329 1.14214 0.89569
 O344 O 0.97325 1.17594 0.86265
 C345 C 0.96349 1.16555 0.88588
 C346 C 0.94003 1.18030 0.90135
 C347 C 0.92915 1.20660 0.89147
 H348 H 0.93846 1.21684 0.87282
 O349 O 0.85819 1.10316 0.97162
 O350 O 0.82523 1.13694 0.97172
 C351 C 0.83508 1.11361 0.96175
 C352 C 0.82011 1.09873 0.93793
 C353 C 0.79378 1.10882 0.92729
 H354 H 0.78360 1.12724 0.93706
 O355 O 1.14023 0.89364 0.97092
 O356 O 1.17335 0.86002 0.97083
 C357 C 1.16334 0.88334 0.96098
 C358 C 1.17831 0.89822 0.93724
 C359 C 1.20453 0.88778 0.92691
 H360 H 1.21427 0.86934 0.93698
 O361 O 0.97312 1.10331 0.85607
 O362 O 0.97326 1.13690 0.82284
 C363 C 0.96334 1.11361 0.83285
 C364 C 0.93959 1.09880 0.81784
 C365 C 0.92916 1.10933 0.79165
 H366 H 0.93928 1.12775 0.78190
 O367 O 1.02624 0.89524 0.85597
 O368 O 1.02567 0.86184 0.82250
 C369 C 1.03575 0.88504 0.83261
 C370 C 1.05924 0.89999 0.81750
 C371 C 1.06933 0.88983 0.79104
 H372 H 1.05924 0.87143 0.78115
 O373 O 1.14112 0.96923 0.89482
 O374 O 1.17469 0.96885 0.86162
 C375 C 1.16430 0.95908 0.88483
 C376 C 1.17882 0.93519 0.90000
 C377 C 1.20507 0.92436 0.89003
 H378 H 1.21539 0.93400 0.87160
 O379 O 0.85831 1.02840 0.89556
 O380 O 0.82483 1.02874 0.86218
 C381 C 0.83507 1.03832 0.88555
 C382 C 0.82023 1.06175 0.90078
 C383 C 0.79396 1.07206 0.89057
 H384 H 0.78410 1.06204 0.87211
 O385 O 0.89843 1.14140 0.97217
 O386 O 0.86556 1.17526 0.97249
 C387 C 0.88865 1.16489 0.96258
 C388 C 0.90366 1.17990 0.93904
 C389 C 0.89324 1.20618 0.92889
 H390 H 0.87496 1.21592 0.93919
 O391 O 1.10069 0.85472 0.97135
 O392 O 1.13367 0.82095 0.97123
 C393 C 1.11047 0.83132 0.96150
 C394 C 1.09512 0.81660 0.93788
 C395 C 1.10471 0.79007 0.92742
 H396 H 1.12291 0.77959 0.93730
 O397 O 1.10298 1.02616 0.85564
 O398 O 1.13641 1.02585 0.82231
 C399 C 1.11334 1.03606 0.83248
 C400 C 1.09885 1.06027 0.81778
 C401 C 1.10948 1.07110 0.79175
 H402 H 1.12781 1.06106 0.78181
 O403 O 0.89695 0.97269 0.85589
 O404 O 0.86361 0.97310 0.82236
 C405 C 0.88679 0.96313 0.83251
 C406 C 0.90163 0.93959 0.81745
 C407 C 0.89166 0.92984 0.79079
 H408 H 0.87366 0.94038 0.78073
 O409 O 1.02904 1.14227 0.89556
 O410 O 1.02918 1.17609 0.86254
 C411 C 1.03885 1.16571 0.88578
 C412 C 1.06229 1.18049 0.90127
 C413 C 1.07293 1.20693 0.89157
 H414 H 1.06336 1.21727 0.87310
 O415 O 0.97012 0.85694 0.89542
 O416 O 0.96945 0.82332 0.86217
 C417 C 0.96003 0.83367 0.88552
 C418 C 0.93669 0.81894 0.90106
 C419 C 0.92649 0.79221 0.89169
 H420 H 0.93624 0.78173 0.87341
 O421 O 1.14208 1.10127 0.97080
 O422 O 1.17588 1.13430 0.97083
 C423 C 1.16544 1.11114 0.96094
 C424 C 1.18019 1.09581 0.93733
 C425 C 1.20663 1.10561 0.92682
 H426 H 1.21689 1.12409 0.93647
 O427 O 0.85613 0.89761 0.97083
 O428 O 0.82269 0.86423 0.97062
 C429 C 0.83295 0.88746 0.96078
 C430 C 0.81833 0.90246 0.93688
 C431 C 0.79204 0.89241 0.92617
 H432 H 0.78173 0.87406 0.93597
 Cu433 Cu 0.99823 0.87942 0.87898
 Cu434 Cu 0.99749 0.83916 0.83891
 Cu435 Cu 1.00113 1.11933 0.87919
 Cu436 Cu 1.00127 1.15975 0.83940
 Cu437 Cu 0.88073 1.00052 0.87880
 Cu438 Cu 0.84059 1.00097 0.83865
 Cu439 Cu 1.11853 0.99768 0.87865
 Cu440 Cu 1.15875 0.99729 0.83874
 C441 C 0.92483 0.92560 0.83048
 H442 H 0.93233 0.93277 0.85127
 C443 C 0.90439 0.90620 0.77743
 C444 C 1.07521 1.07376 0.83062
 H445 H 1.06717 1.06582 0.85090
 C446 C 1.09691 1.09518 0.77884
 C447 C 0.83143 0.92611 0.92358
 H448 H 0.85190 0.93374 0.93143
 C449 C 0.77912 0.90551 0.90239
 C450 C 1.16720 1.07197 0.92422
 H451 H 1.14661 1.06451 0.93187
 C452 C 1.21976 1.09208 0.90341
 C453 C 0.92351 0.83224 0.92463
 H454 H 0.93095 0.85307 0.93172
 C455 C 0.90328 0.77906 0.90541
 C456 C 1.07526 1.16734 0.92504
 H457 H 1.06749 1.14674 0.93238
 C458 C 1.09642 1.21988 0.90514
 C459 C 0.92610 1.07505 0.83050
 H460 H 0.93377 1.06710 0.85093
 C461 C 0.90537 1.09664 0.77838
 C462 C 1.07273 0.92372 0.83026
 H463 H 1.06533 0.93137 0.85089
 C464 C 1.09276 0.90294 0.77765
 C465 C 1.07171 0.82992 0.92445
 H466 H 1.06444 0.85059 0.93208
 C467 C 1.09141 0.77719 0.90370
 C468 C 0.92724 1.16725 0.92534
 H469 H 0.93509 1.14675 0.93284
 C470 C 0.90574 1.21953 0.90513
 C471 C 0.83299 1.07500 0.92463
 H472 H 0.85348 1.06733 0.93232
 C473 C 0.78068 1.09554 0.90362
 C474 C 1.16575 0.92209 0.92380
 H475 H 1.14533 0.92999 0.93140
 C476 C 1.21796 0.90070 0.90336
 O477 O 1.02784 0.89573 1.14302
 O478 O 1.02742 0.86240 1.17652
 C479 C 1.03756 0.88554 1.16635
 C480 C 1.06141 0.90048 1.18117
 C481 C 1.07208 0.89053 1.20759
 H482 H 1.06231 0.87219 1.21794
 O483 O 0.97350 1.10076 1.14450
 O484 O 0.97345 1.13420 1.17791
 C485 C 0.96347 1.11099 1.16765
 C486 C 0.93934 1.09616 1.18212
 C487 C 0.92855 1.10621 1.20841
 H488 H 0.93850 1.12437 1.21894
 O489 O 0.85663 1.02725 1.10301
 O490 O 0.82316 1.02754 1.13633
 C491 C 0.83345 1.03723 1.11304
 C492 C 0.81888 1.06087 1.09778
 C493 C 0.79266 1.07173 1.10768
 H494 H 0.78232 1.06219 1.12615
 O495 O 1.14228 0.97009 1.10282
 O496 O 1.17636 0.96957 1.13559
 C497 C 1.16561 0.95994 1.11246
 C498 C 1.17996 0.93620 1.09705
 C499 C 1.20640 0.92564 1.10671
 H500 H 1.21694 0.93544 1.12497
 O501 O 1.10138 0.85467 1.02738
 O502 O 1.13439 0.82094 1.02734
 C503 C 1.11133 0.83135 1.03728
 C504 C 1.09632 0.81678 1.06118
 C505 C 1.10627 0.79051 1.07202
 H506 H 1.12455 0.78009 1.06227
 O507 O 0.89817 1.14093 1.02827
 O508 O 0.86538 1.17486 1.02853
 C509 C 0.88844 1.16424 1.03836
 C510 C 0.90368 1.17872 1.06228
 C511 C 0.89384 1.20509 1.07291
 H512 H 0.87557 1.21548 1.06308
 O513 O 0.89553 0.97130 1.14204
 O514 O 0.86232 0.97134 1.17562
 C515 C 0.88560 0.96162 1.16544
 C516 C 0.90103 0.93842 1.18054
 C517 C 0.89137 0.92834 1.20720
 H518 H 0.87292 0.93804 1.21735
 O519 O 1.10499 1.02656 1.14320
 O520 O 1.13895 1.02606 1.17608
 C521 C 1.11562 1.03615 1.16641
 C522 C 1.10099 1.05975 1.18182
 C523 C 1.11186 1.07038 1.20787
 H524 H 1.13065 1.06064 1.21729
 O525 O 0.97132 0.85777 1.10327
 O526 O 0.97065 0.82423 1.13656
 C527 C 0.96107 0.83462 1.11324
 C528 C 0.93729 0.82010 1.09792
 C529 C 0.92676 0.79364 1.10766
 H530 H 0.93653 0.78322 1.12598
 O531 O 1.02962 1.13963 1.10510
 O532 O 1.02979 1.17330 1.13829
 C533 C 1.03952 1.16299 1.11501
 C534 C 1.06307 1.17783 1.09963
 C535 C 1.07385 1.20412 1.10969
 H536 H 1.06442 1.21423 1.12834
 O537 O 0.85537 0.89739 1.02687
 O538 O 0.82192 0.86401 1.02665
 C539 C 0.83204 0.88726 1.03654
 C540 C 0.81705 0.90218 1.06014
 C541 C 0.79066 0.89198 1.07028
 H542 H 0.78068 0.87378 1.05996
 O543 O 1.14277 1.10090 1.02669
 O544 O 1.17655 1.13396 1.02669
 C545 C 1.16628 1.11068 1.03631
 C546 C 1.18141 1.09533 1.05952
 C547 C 1.20801 1.10524 1.06941
 H548 H 1.21794 1.12352 1.05921
 O549 O 1.02962 1.10103 1.14500
 O550 O 1.02974 1.13451 1.17837
 C551 C 1.03962 1.11128 1.16821
 C552 C 1.06364 1.09645 1.18282
 C553 C 1.07484 1.10677 1.20887
 H554 H 1.06521 1.12518 1.21920
 O555 O 0.97196 0.89674 1.14271
 O556 O 0.97146 0.86337 1.17618
 C557 C 0.96199 0.88675 1.16598
 C558 C 0.93855 0.90198 1.18085
 C559 C 0.92857 0.89223 1.20749
 H560 H 0.93887 0.87415 1.21767
 O561 O 1.14301 1.02596 1.10275
 O562 O 1.17712 1.02550 1.13549
 C563 C 1.16666 1.03538 1.11235
 C564 C 1.18165 1.05859 1.09681
 C565 C 1.20826 1.06885 1.10643
 H566 H 1.21856 1.05917 1.12487
 O567 O 0.85578 0.97145 1.10324
 O568 O 0.82236 0.97157 1.13660
 C569 C 0.83238 0.96181 1.11325
 C570 C 0.81721 0.93854 1.09784
 C571 C 0.79077 0.92804 1.10771
 H572 H 0.78070 0.93756 1.12633
 O573 O 1.10367 1.14012 1.02767
 O574 O 1.13735 1.17327 1.02783
 C575 C 1.11410 1.16315 1.03779
 C576 C 1.09947 1.17788 1.06187
 C577 C 1.10990 1.20412 1.07234
 H578 H 1.12813 1.21406 1.06210
 O579 O 0.89522 0.85888 1.02730
 O580 O 0.86187 0.82540 1.02726
 C581 C 0.88513 0.83561 1.03714
 C582 C 0.90022 0.82062 1.06076
 C583 C 0.89008 0.79416 1.07087
 H584 H 0.87169 0.78432 1.06076
 O585 O 1.10348 0.97073 1.14236
 O586 O 1.13741 0.97014 1.17528
 C587 C 1.11380 0.96073 1.16546
 C588 C 1.09861 0.93740 1.18061
 C589 C 1.10886 0.92721 1.20697
 H590 H 1.12736 0.93727 1.21665
 O591 O 0.89588 1.02702 1.14223
 O592 O 0.86259 1.02718 1.17572
 C593 C 0.88597 1.03677 1.16563
 C594 C 0.90142 1.05992 1.18093
 C595 C 0.89109 1.07025 1.20722
 H596 H 0.87230 1.06059 1.21669
 O597 O 0.97376 1.13973 1.10500
 O598 O 0.97381 1.17336 1.13823
 C599 C 0.96402 1.16311 1.11492
 C600 C 0.94057 1.17814 1.09965
 C601 C 0.93033 1.20452 1.10988
 H602 H 0.94024 1.21430 1.12843
 O603 O 1.02714 0.85658 1.10361
 O604 O 1.02654 0.82310 1.13696
 C605 C 1.03648 0.83309 1.11367
 C606 C 1.05967 0.81770 1.09855
 C607 C 1.06990 0.79143 1.10904
 H608 H 1.06006 0.78189 1.12773
 O609 O 1.14049 0.89405 1.02693
 O610 O 1.17365 0.86047 1.02686
 C611 C 1.16377 0.88388 1.03664
 C612 C 1.17907 0.89904 1.06003
 C613 C 1.20551 0.88883 1.07008
 H614 H 1.21518 0.87034 1.06003
 O615 O 0.85822 1.10239 1.02757
 O616 O 0.82532 1.13623 1.02766
 C617 C 0.83504 1.11273 1.03729
 C618 C 0.81970 1.09775 1.06061
 C619 C 0.79348 1.10827 1.07079
 H620 H 0.78393 1.12682 1.06074
 Cu621 Cu 0.99968 0.88007 1.11984
 Cu622 Cu 0.99894 0.83991 1.15991
 Cu623 Cu 1.00165 1.11688 1.12167
 Cu624 Cu 1.00168 1.15718 1.16155
 Cu625 Cu 0.87873 0.88137 0.99908
 Cu626 Cu 0.83866 0.84120 0.99897
 Cu627 Cu 1.11737 0.87760 0.99917
 Cu628 Cu 1.15709 0.83723 0.99905
 Cu629 Cu 0.88153 1.11856 0.99988
 Cu630 Cu 0.84212 1.15927 1.00013
 Cu631 Cu 1.11962 1.11760 0.99914
 Cu632 Cu 1.16013 1.15733 0.99929
 Cu633 Cu 0.87925 0.99920 1.11924
 Cu634 Cu 0.83925 0.99942 1.15944
 Cu635 Cu 1.12004 0.99845 1.11950
 Cu636 Cu 1.16088 0.99775 1.15891
 C637 C 1.07470 0.92411 1.16804
 H638 H 1.06697 0.93166 1.14748
 C639 C 1.09579 0.90383 1.22052
 C640 C 0.92573 1.07281 1.16869
 H641 H 0.93354 1.06520 1.14820
 C642 C 0.90445 1.09334 1.22099
 C643 C 0.83206 1.07385 1.07403
 H644 H 0.85252 1.06593 1.06654
 C645 C 0.77995 1.09541 1.09430
 C646 C 1.16658 0.92291 1.07350
 H647 H 1.14598 0.93064 1.06618
 C648 C 1.21919 0.90201 1.09339
 C649 C 1.07282 0.83004 1.07446
 H650 H 1.06529 0.85050 1.06654
 C651 C 1.09318 0.77781 1.09593
 C652 C 0.92725 1.16552 1.07566
 H653 H 0.93473 1.14497 1.06791
 C654 C 0.90700 1.21800 1.09666
 C655 C 0.92483 0.92528 1.16767
 H656 H 0.93215 0.93262 1.14689
 C657 C 0.90502 0.90527 1.22067
 C658 C 1.07673 1.07276 1.16968
 H659 H 1.06851 1.06493 1.14941
 C660 C 1.09891 1.09385 1.22147
 C661 C 0.92401 0.83332 1.07427
 H662 H 0.93171 0.85392 1.06687
 C663 C 0.90321 0.78065 1.09427
 C664 C 1.07589 1.16503 1.07553
 H665 H 1.06800 1.14458 1.06785
 C666 C 1.09723 1.21729 1.09620
 C667 C 0.82999 0.92563 1.07385
 H668 H 0.85057 0.93328 1.06637
 C669 C 0.77747 0.90476 1.09404
 C670 C 1.16853 1.07180 1.07313
 H671 H 1.14778 1.06436 1.06586
 C672 C 1.22143 1.09218 1.09286
 O673 O 1.10586 0.52872 0.64140
 O674 O 1.13927 0.52861 0.67485
 C675 C 1.11597 0.53845 0.66477
 C676 C 1.10065 0.56182 0.67988
 C677 C 1.11027 0.57201 0.70661
 H678 H 1.12870 0.56232 0.71686
 O679 O 0.89570 0.47367 0.64220
 O680 O 0.86246 0.47400 0.67574
 C681 C 0.88563 0.46406 0.66558
 C682 C 0.90063 0.44060 0.68073
 C683 C 0.89004 0.43017 0.70686
 H684 H 0.87139 0.44000 0.71640
 O685 O 1.02945 0.64270 0.60284
 O686 O 1.02971 0.67607 0.63634
 C687 C 1.03936 0.66596 0.61297
 C688 C 1.06284 0.68099 0.59785
 C689 C 1.07297 0.70748 0.60791
 H690 H 1.06286 0.71737 0.62625
 O691 O 0.97150 0.35984 0.60415
 O692 O 0.97145 0.32637 0.63751
 C693 C 0.96164 0.33655 0.61421
 C694 C 0.93800 0.32170 0.59902
 C695 C 0.92740 0.29535 0.60902
 H696 H 0.93709 0.28515 0.62751
 O697 O 1.14415 0.60405 0.52677
 O698 O 1.17761 0.63742 0.52656
 C699 C 1.16755 0.61411 0.53639
 C700 C 1.18269 0.59896 0.55982
 C701 C 1.20892 0.60931 0.57033
 H702 H 1.21865 0.62791 0.56051
 O703 O 0.85693 0.39916 0.52768
 O704 O 0.82357 0.36568 0.52743
 C705 C 0.83359 0.38901 0.53725
 C706 C 0.81842 0.40403 0.56064
 C707 C 0.79210 0.39371 0.57078
 H708 H 0.78234 0.37528 0.56064
 O709 O 0.97346 0.60362 0.64217
 O710 O 0.97378 0.63688 0.67577
 C711 C 0.96378 0.61371 0.66553
 C712 C 0.94010 0.59878 0.68046
 C713 C 0.93015 0.60874 0.70708
 H714 H 0.94054 0.62683 0.71720
 O715 O 1.02767 0.39904 0.64314
 O716 O 1.02776 0.36581 0.67673
 C717 C 1.03768 0.38897 0.66637
 C718 C 1.06172 0.40388 0.68087
 C719 C 1.07240 0.39389 0.70721
 H720 H 1.06240 0.37575 0.71771
 O721 O 1.14431 0.47245 0.60198
 O722 O 1.17799 0.47208 0.63514
 C723 C 1.16752 0.46233 0.61192
 C724 C 1.18186 0.43842 0.59664
 C725 C 1.20798 0.42721 0.60658
 H726 H 1.21844 0.43663 0.62508
 O727 O 0.85675 0.52976 0.60318
 O728 O 0.82337 0.53012 0.63658
 C729 C 0.83357 0.53975 0.61326
 C730 C 0.81887 0.56334 0.59806
 C731 C 0.79252 0.57390 0.60790
 H732 H 0.78219 0.56415 0.62627
 O733 O 0.89805 0.64348 0.52800
 O734 O 0.86492 0.67711 0.52806
 C735 C 0.88816 0.66683 0.53779
 C736 C 0.90348 0.68171 0.56123
 C737 C 0.89374 0.70823 0.57148
 H738 H 0.87541 0.71848 0.56161
 O739 O 1.10208 0.35836 0.52704
 O740 O 1.13502 0.32458 0.52685
 C741 C 1.11204 0.33507 0.53698
 C742 C 1.09717 0.32062 0.56113
 C743 C 1.10735 0.29446 0.57208
 H744 H 1.12565 0.28411 0.56230
 O745 O 0.89640 0.52941 0.64198
 O746 O 0.86322 0.52986 0.67559
 C747 C 0.88662 0.53930 0.66535
 C748 C 0.90232 0.56246 0.68034
 C749 C 0.89276 0.57271 0.70696
 H750 H 0.87426 0.56310 0.71717
 O751 O 1.10507 0.47296 0.64117
 O752 O 1.13855 0.47271 0.67454
 C753 C 1.11508 0.46319 0.66453
 C754 C 1.09962 0.44009 0.67983
 C755 C 1.10990 0.42979 0.70617
 H756 H 1.12870 0.43942 0.71573
 O757 O 1.02735 0.35983 0.60386
 O758 O 1.02741 0.32642 0.63728
 C759 C 1.03714 0.33652 0.61391
 C760 C 1.06057 0.32141 0.59870
 C761 C 1.07109 0.29526 0.60922
 H762 H 1.06137 0.28570 0.62795
 O763 O 0.97363 0.64311 0.60315
 O764 O 0.97390 0.67648 0.63665
 C765 C 0.96401 0.66644 0.61332
 C766 C 0.94057 0.68156 0.59823
 C767 C 0.93047 0.70809 0.60823
 H768 H 0.94054 0.71806 0.62660
 O769 O 0.85795 0.60511 0.52798
 O770 O 0.82474 0.63866 0.52786
 C771 C 0.83467 0.61533 0.53765
 C772 C 0.81944 0.60033 0.56103
 C773 C 0.79308 0.61060 0.57117
 H774 H 0.78334 0.62907 0.56114
 O775 O 1.14194 0.39699 0.52635
 O776 O 1.17500 0.36331 0.52596
 C777 C 1.16524 0.38668 0.53588
 C778 C 1.18068 0.40152 0.55935
 C779 C 1.20680 0.39071 0.56959
 H780 H 1.21619 0.37208 0.55953
 O781 O 0.97162 0.39890 0.64359
 O782 O 0.97158 0.36562 0.67712
 C783 C 0.96172 0.38882 0.66687
 C784 C 0.93785 0.40381 0.68152
 C785 C 0.92686 0.39364 0.70768
 H786 H 0.93647 0.37521 0.71801
 O787 O 1.02944 0.60331 0.64191
 O788 O 1.02970 0.63657 0.67552
 C789 C 1.03940 0.61332 0.66521
 C790 C 1.06303 0.59824 0.68005
 C791 C 1.07295 0.60804 0.70673
 H792 H 1.06251 0.62604 0.71688
 O793 O 0.85633 0.47397 0.60314
 O794 O 0.82291 0.47415 0.63649
 C795 C 0.83299 0.46431 0.61319
 C796 C 0.81804 0.44083 0.59791
 C797 C 0.79170 0.43017 0.60780
 H798 H 0.78147 0.43977 0.62630
 O799 O 1.14479 0.52845 0.60189
 O800 O 1.17841 0.52828 0.63512
 C801 C 1.16817 0.53816 0.61189
 C802 C 1.18302 0.56179 0.59677
 C803 C 1.20926 0.57248 0.60696
 H804 H 1.21942 0.56277 0.62546
 O805 O 0.89626 0.36009 0.52819
 O806 O 0.86297 0.32654 0.52801
 C807 C 0.88616 0.33678 0.53799
 C808 C 0.90112 0.32187 0.56172
 C809 C 0.89088 0.29553 0.57206
 H810 H 0.87251 0.28565 0.56196
 O811 O 1.10488 0.64316 0.52735
 O812 O 1.13817 0.67671 0.52720
 C813 C 1.11499 0.66647 0.53716
 C814 C 1.09992 0.68129 0.56085
 C815 C 1.10975 0.70781 0.57129
 H816 H 1.12808 0.71813 0.56149
 Cu817 Cu 1.12172 0.50068 0.61824
 Cu818 Cu 1.16196 0.50039 0.65822
 Cu819 Cu 0.87959 0.50167 0.61923
 Cu820 Cu 0.83963 0.50208 0.65949
 Cu821 Cu 1.00144 0.61983 0.61916
 Cu822 Cu 1.00182 0.65982 0.65947
 Cu823 Cu 0.99950 0.38277 0.62040
 Cu824 Cu 0.99958 0.34273 0.66054
 C825 C 1.07683 0.57496 0.66693
 H826 H 1.06950 0.56757 0.64616
 C827 C 1.09650 0.59509 0.72007
 C828 C 0.92470 0.42750 0.66838
 H829 H 0.93269 0.43522 0.64799
 C830 C 0.90296 0.40671 0.72037
 C831 C 1.07627 0.66821 0.57414
 H832 H 1.06881 0.64758 0.56653
 C833 C 1.09637 0.72094 0.59478
 C834 C 0.92485 0.33465 0.57517
 H835 H 0.93260 0.35516 0.56757
 C836 C 0.90388 0.28222 0.59567
 C837 C 1.17008 0.57501 0.57300
 H838 H 1.14962 0.56720 0.56530
 C839 C 1.22223 0.59622 0.59389
 C840 C 0.83105 0.42778 0.57412
 H841 H 0.85159 0.43554 0.56663
 C842 C 0.77871 0.40661 0.59433
 C843 C 0.92620 0.57545 0.66740
 H844 H 0.93345 0.56794 0.64666
 C845 C 0.90651 0.59581 0.72034
 C846 C 1.07534 0.42719 0.66749
 H847 H 1.06757 0.43476 0.64695
 C848 C 1.09645 0.40672 0.71987
 C849 C 1.16855 0.42555 0.57282
 H850 H 1.14819 0.43370 0.56528
 C851 C 1.22047 0.40337 0.59317
 C852 C 0.83200 0.57652 0.57441
 H853 H 0.85254 0.56878 0.56696
 C854 C 0.77959 0.59750 0.59458
 C855 C 0.92710 0.66870 0.57455
 H856 H 0.93447 0.64804 0.56700
 C857 C 0.90708 0.72144 0.59493
 C858 C 1.07360 0.33378 0.57449
 H859 H 1.06587 0.35415 0.56652
 C860 C 1.09444 0.28175 0.59609
 O861 O 1.10219 0.47336 0.35436
 O862 O 1.13553 0.47322 0.32092
 C863 C 1.11225 0.46346 0.33106
 C864 C 1.09714 0.43971 0.31627
 C865 C 1.10749 0.42852 0.29028
 H866 H 1.12613 0.43794 0.28016
 O867 O 0.89692 0.52947 0.35576
 O868 O 0.86326 0.52994 0.32256
 C869 C 0.88668 0.53952 0.33262
 C870 C 0.90183 0.56316 0.31784
 C871 C 0.89196 0.57368 0.29140
 H872 H 0.87362 0.56388 0.28104
 O873 O 0.97220 0.64464 0.39585
 O874 O 0.97212 0.67840 0.36278
 C875 C 0.96243 0.66807 0.38603
 C876 C 0.93908 0.68292 0.40148
 C877 C 0.92852 0.70942 0.39179
 H878 H 0.93804 0.71975 0.37330
 O879 O 1.02682 0.35909 0.39447
 O880 O 1.02630 0.32530 0.36139
 C881 C 1.03627 0.33557 0.38458
 C882 C 1.05956 0.32040 0.39982
 C883 C 1.06984 0.29408 0.38950
 H884 H 1.06004 0.28440 0.37083
 O885 O 1.14092 0.39710 0.47031
 O886 O 1.17403 0.36348 0.46990
 C887 C 1.16396 0.38685 0.46016
 C888 C 1.17870 0.40191 0.43632
 C889 C 1.20495 0.39179 0.42565
 H890 H 1.21510 0.37331 0.43536
 O891 O 0.85888 0.60431 0.47211
 O892 O 0.82562 0.63781 0.47205
 C893 C 0.83567 0.61446 0.46230
 C894 C 0.82060 0.59939 0.43881
 C895 C 0.79406 0.60940 0.42896
 H896 H 0.78417 0.62763 0.43927
 O897 O 1.02778 0.60544 0.35630
 O898 O 1.02778 0.63908 0.32309
 C899 C 1.03751 0.61568 0.33301
 C900 C 1.06085 0.60058 0.31777
 C901 C 1.07110 0.61092 0.29143
 H902 H 1.06123 0.62951 0.28177
 O903 O 0.97097 0.39814 0.35506
 O904 O 0.97049 0.36446 0.32188
 C905 C 0.96095 0.38788 0.33188
 C906 C 0.93743 0.40298 0.31692
 C907 C 0.92673 0.39271 0.29070
 H908 H 0.93634 0.37412 0.28067
 O909 O 1.14157 0.52891 0.39426
 O910 O 1.17502 0.52883 0.36094
 C911 C 1.16495 0.53861 0.38429
 C912 C 1.18015 0.56199 0.39956
 C913 C 1.20659 0.57215 0.38943
 H914 H 1.21631 0.56216 0.37093
 O915 O 0.85800 0.47362 0.39522
 O916 O 0.82413 0.47396 0.36223
 C917 C 0.83450 0.46404 0.38540
 C918 C 0.81951 0.44064 0.40073
 C919 C 0.79299 0.43047 0.39083
 H920 H 0.78306 0.44043 0.37241
 O921 O 1.10430 0.64349 0.47145
 O922 O 1.13765 0.67698 0.47118
 C923 C 1.11425 0.66685 0.46164
 C924 C 1.09881 0.68190 0.43836
 C925 C 1.10872 0.70837 0.42799
 H926 H 1.12727 0.71849 0.43763
 O927 O 0.89674 0.36009 0.47220
 O928 O 0.86344 0.32654 0.47209
 C929 C 0.88672 0.33674 0.46242
 C930 C 0.90179 0.32171 0.43898
 C931 C 0.89182 0.29507 0.42920
 H932 H 0.87373 0.28507 0.43964
 O933 O 0.89630 0.47358 0.35519
 O934 O 0.86262 0.47389 0.32202
 C935 C 0.88589 0.46389 0.33194
 C936 C 0.90065 0.44019 0.31689
 C937 C 0.89021 0.42956 0.29067
 H938 H 0.87174 0.43945 0.28079
 O939 O 1.10234 0.52938 0.35493
 O940 O 1.13562 0.52936 0.32144
 C941 C 1.11247 0.53931 0.33169
 C942 C 1.09753 0.56322 0.31703
 C943 C 1.10748 0.57393 0.29068
 H944 H 1.12574 0.56410 0.28028
 O945 O 0.97114 0.35977 0.39517
 O946 O 0.97058 0.32592 0.36215
 C947 C 0.96120 0.33635 0.38550
 C948 C 0.93805 0.32152 0.40126
 C949 C 0.92774 0.29486 0.39181
 H950 H 0.93726 0.28451 0.37334
 O951 O 1.02800 0.64384 0.39637
 O952 O 1.02797 0.67761 0.36330
 C953 C 1.03780 0.66721 0.38649
 C954 C 1.06139 0.68203 0.40167
 C955 C 1.07160 0.70847 0.39167
 H956 H 1.06143 0.71848 0.37341
 O957 O 0.85730 0.39897 0.47175
 O958 O 0.82390 0.36553 0.47154
 C959 C 0.83409 0.38881 0.46177
 C960 C 0.81927 0.40386 0.43807
 C961 C 0.79273 0.39400 0.42781
 H962 H 0.78242 0.37576 0.43780
 O963 O 1.14316 0.60402 0.47079
 O964 O 1.17670 0.63731 0.47046
 C965 C 1.16633 0.61406 0.46070
 C966 C 1.18084 0.59891 0.43686
 C967 C 1.20726 0.60873 0.42634
 H968 H 1.21769 0.62700 0.43620
 O969 O 1.02681 0.39828 0.35517
 O970 O 1.02640 0.36459 0.32199
 C971 C 1.03641 0.38792 0.33192
 C972 C 1.06000 0.40273 0.31679
 C973 C 1.07064 0.39191 0.29082
 H974 H 1.06075 0.37322 0.28130
 O975 O 0.97199 0.60515 0.35679
 O976 O 0.97196 0.63877 0.32357
 C977 C 0.96221 0.61538 0.33354
 C978 C 0.93878 0.60029 0.31838
 C979 C 0.92861 0.61048 0.29195
 H980 H 0.93864 0.62894 0.28218
 O981 O 0.85821 0.52940 0.39541
 O982 O 0.82434 0.52986 0.36242
 C983 C 0.83483 0.53937 0.38572
 C984 C 0.82016 0.56272 0.40135
 C985 C 0.79358 0.57307 0.39185
 H986 H 0.78316 0.56340 0.37346
 O987 O 1.14073 0.47293 0.39430
 O988 O 1.17422 0.47280 0.36101
 C989 C 1.16392 0.46295 0.38425
 C990 C 1.17864 0.43914 0.39930
 C991 C 1.20487 0.42865 0.38904
 H992 H 1.21477 0.43866 0.37064
 O993 O 1.10169 0.35782 0.47088
 O994 O 1.13465 0.32406 0.47064
 C995 C 1.11146 0.33444 0.46096
 C996 C 1.09622 0.31975 0.43727
 C997 C 1.10617 0.29343 0.42661
 H998 H 1.12448 0.28309 0.43643
 O999 O 0.89758 0.64401 0.47212
 O1000 O 0.86440 0.67759 0.47224
 C1001 C 0.88759 0.66739 0.46243
 C1002 C 0.90259 0.68249 0.43897
 C1003 C 0.89241 0.70896 0.42902
 H1004 H 0.87418 0.71876 0.43936
 Cu1005 Cu 1.11834 0.50117 0.37774
 Cu1006 Cu 1.15845 0.50106 0.33775
 Cu1007 Cu 0.88077 0.50148 0.37866
 Cu1008 Cu 0.84019 0.50196 0.33897
 Cu1009 Cu 1.12080 0.62034 0.49913
 Cu1010 Cu 1.16091 0.66044 0.49882
 Cu1011 Cu 1.11834 0.38090 0.49867
 Cu1012 Cu 1.15796 0.34047 0.49830
 Cu1013 Cu 0.88146 0.62085 0.50009
 Cu1014 Cu 0.84158 0.66117 0.50004
 Cu1015 Cu 0.88015 0.38295 0.49999
 Cu1016 Cu 0.84014 0.34268 0.49975
 Cu1017 Cu 0.99997 0.62140 0.37966
 Cu1018 Cu 0.99996 0.66186 0.33985
 Cu1019 Cu 0.99897 0.38223 0.37826
 Cu1020 Cu 0.99838 0.34169 0.33849
 C1021 C 1.07320 0.42682 0.32917
 H1022 H 1.06536 0.43498 0.34944
 C1023 C 1.09437 0.40462 0.27754
 C1024 C 0.92545 0.57645 0.33100
 H1025 H 0.93293 0.56876 0.35160
 C1026 C 0.90524 0.59730 0.27843
 C1027 C 0.92610 0.66978 0.42527
 H1028 H 0.93376 0.64915 0.43262
 C1029 C 0.90518 0.72245 0.40546
 C1030 C 1.07270 0.33292 0.42389
 H1031 H 1.06518 0.35344 0.43167
 C1032 C 1.09314 0.28059 0.40274
 C1033 C 1.16586 0.42578 0.42311
 H1034 H 1.14543 0.43349 0.43089
 C1035 C 1.21807 0.40503 0.40205
 C1036 C 0.83338 0.57586 0.42506
 H1037 H 0.85409 0.56831 0.43228
 C1038 C 0.78055 0.59638 0.40552
 C1039 C 1.07402 0.57656 0.33023
 H1040 H 1.06646 0.56875 0.35075
 C1041 C 1.09437 0.59774 0.27783
 C1042 C 0.92444 0.42692 0.32966
 H1043 H 0.93233 0.43469 0.35008
 C1044 C 0.90317 0.40584 0.27755
 C1045 C 1.16759 0.57535 0.42347
 H1046 H 1.14701 0.56791 0.43115
 C1047 C 1.22017 0.59548 0.40268
 C1048 C 0.83235 0.42737 0.42453
 H1049 H 0.85301 0.43484 0.43203
 C1050 C 0.77956 0.40719 0.40424
 C1051 C 1.07493 0.66903 0.42522
 H1052 H 1.06743 0.64840 0.43276
 C1053 C 1.09525 0.72165 0.40466
 C1054 C 0.92511 0.33466 0.42507
 H1055 H 0.93261 0.35543 0.43223
 C1056 C 0.90462 0.28166 0.40565
 O1057 O 0.47149 0.89674 0.35619
 O1058 O 0.47165 0.86406 0.32202
 C1059 C 0.46178 0.88709 0.33262
 C1060 C 0.43831 0.90246 0.31785
 C1061 C 0.42756 0.89254 0.29149
 H1062 H 0.43702 0.87398 0.28126
 O1063 O 0.52769 1.10744 0.36022
 O1064 O 0.52728 1.14101 0.32695
 C1065 C 0.53724 1.11772 0.33689
 C1066 C 0.56060 1.10275 0.32157
 C1067 C 0.57074 1.11317 0.29521
 H1068 H 0.56086 1.13180 0.28561
 O1069 O 0.35859 0.97244 0.39674
 O1070 O 0.32516 0.97255 0.36331
 C1071 C 0.33540 0.96254 0.38652
 C1072 C 0.32073 0.93864 0.40143
 C1073 C 0.29436 0.92814 0.39138
 H1074 H 0.28405 0.93807 0.37309
 O1075 O 0.64188 1.03075 0.39727
 O1076 O 0.67494 1.03086 0.36355
 C1077 C 0.66511 1.04054 0.38702
 C1078 C 0.68041 1.06399 0.40205
 C1079 C 0.70676 1.07404 0.39167
 H1080 H 0.71638 1.06382 0.37324
 O1081 O 0.39860 0.85651 0.47137
 O1082 O 0.36504 0.82324 0.47158
 C1083 C 0.38826 0.83329 0.46161
 C1084 C 0.40291 0.81838 0.43779
 C1085 C 0.39253 0.79211 0.42745
 H1086 H 0.37436 0.78216 0.43779
 O1087 O 0.60415 1.14529 0.47379
 O1088 O 0.63737 1.17889 0.47395
 C1089 C 0.61401 1.16880 0.46427
 C1090 C 0.59852 1.18408 0.44118
 C1091 C 0.60861 1.21049 0.43091
 H1092 H 0.62728 1.22018 0.44065
 O1093 O 0.39767 1.02904 0.35845
 O1094 O 0.36448 1.02939 0.32478
 C1095 C 0.38767 1.03917 0.33525
 C1096 C 0.40279 1.06308 0.32081
 C1097 C 0.39336 1.07327 0.29410
 H1098 H 0.37544 1.06308 0.28338
 O1099 O 0.60185 0.97528 0.35779
 O1100 O 0.63486 0.97561 0.32403
 C1101 C 0.61169 0.96570 0.33429
 C1102 C 0.59661 0.94220 0.31914
 C1103 C 0.60672 0.93233 0.29257
 H1104 H 0.62492 0.94267 0.28266
 O1105 O 0.52771 0.85731 0.39465
 O1106 O 0.52783 0.82444 0.36066
 C1107 C 0.53758 0.83423 0.38414
 C1108 C 0.56113 0.81910 0.39905
 C1109 C 0.57135 0.79278 0.38871
 H1110 H 0.56128 0.78303 0.37022
 O1111 O 0.47152 1.14577 0.39976
 O1112 O 0.47101 1.17944 0.36659
 C1113 C 0.46133 1.16894 0.38977
 C1114 C 0.43736 1.18321 0.40481
 C1115 C 0.42636 1.20935 0.39476
 H1116 H 0.43609 1.21986 0.37649
 O1117 O 0.35614 1.10327 0.47318
 O1118 O 0.32238 1.13623 0.47347
 C1119 C 0.33281 1.11323 0.46333
 C1120 C 0.31826 1.09827 0.43927
 C1121 C 0.29211 1.10837 0.42822
 H1122 H 0.28177 1.12677 0.43788
 O1123 O 0.64130 0.89669 0.47020
 O1124 O 0.67525 0.86391 0.46970
 C1125 C 0.66473 0.88717 0.46025
 C1126 C 0.67951 0.90297 0.43702
 C1127 C 0.70601 0.89341 0.42659
 H1128 H 0.71624 0.87485 0.43607
 O1129 O 0.47199 1.10647 0.36057
 O1130 O 0.47155 1.13999 0.32724
 C1131 C 0.46215 1.11645 0.33723
 C1132 C 0.43913 1.10088 0.32187
 C1133 C 0.42935 1.11069 0.29515
 H1134 H 0.43926 1.12922 0.28539
 O1135 O 0.52720 0.89795 0.35692
 O1136 O 0.52754 0.86531 0.32271
 C1137 C 0.53704 0.88854 0.33339
 C1138 C 0.56025 0.90443 0.31873
 C1139 C 0.57070 0.89496 0.29217
 H1140 H 0.56123 0.87645 0.28179
 O1141 O 0.64152 0.97471 0.39664
 O1142 O 0.67462 0.97491 0.36296
 C1143 C 0.66462 0.96486 0.38622
 C1144 C 0.67951 0.94095 0.40087
 C1145 C 0.70599 0.93096 0.39072
 H1146 H 0.71603 0.94143 0.37265
 O1147 O 0.35768 1.02838 0.39689
 O1148 O 0.32437 1.02851 0.36334
 C1149 C 0.33436 1.03813 0.38678
 C1150 C 0.31913 1.06145 0.40193
 C1151 C 0.29299 1.07183 0.39130
 H1152 H 0.28348 1.06196 0.37258
 O1153 O 0.39501 1.14297 0.47398
 O1154 O 0.36136 1.17606 0.47431
 C1155 C 0.38477 1.16633 0.46450
 C1156 C 0.39985 1.18187 0.44131
 C1157 C 0.38919 1.20802 0.43095
 H1158 H 0.37037 1.21735 0.44065
 O1159 O 0.60290 0.85655 0.47001
 O1160 O 0.63668 0.82360 0.46953
 C1161 C 0.61323 0.83350 0.45990
 C1162 C 0.59817 0.81865 0.43615
 C1163 C 0.60811 0.79231 0.42546
 H1164 H 0.62648 0.78202 0.43521
 O1165 O 0.60236 1.03132 0.35825
 O1166 O 0.63534 1.03159 0.32446
 C1167 C 0.61227 1.04141 0.33498
 C1168 C 0.59722 1.06536 0.32055
 C1169 C 0.60703 1.07611 0.29419
 H1170 H 0.62520 1.06628 0.28366
 O1171 O 0.39706 0.97303 0.35684
 O1172 O 0.36375 0.97340 0.32330
 C1173 C 0.38695 0.96347 0.33338
 C1174 C 0.40180 0.93993 0.31819
 C1175 C 0.39136 0.92967 0.29183
 H1176 H 0.37299 0.93980 0.28204
 O1177 O 0.52750 1.14645 0.39972
 O1178 O 0.52706 1.18014 0.36659
 C1179 C 0.53711 1.16988 0.38973
 C1180 C 0.56084 1.18471 0.40474
 C1181 C 0.57129 1.21113 0.39476
 H1182 H 0.56130 1.22148 0.37652
 O1183 O 0.47197 0.85708 0.39500
 O1184 O 0.47190 0.82418 0.36105
 C1185 C 0.46226 0.83387 0.38461
 C1186 C 0.43901 0.81862 0.39989
 C1187 C 0.42831 0.79231 0.38981
 H1188 H 0.43765 0.78232 0.37105
 O1189 O 0.64342 1.10619 0.47279
 O1190 O 0.67687 1.13956 0.47286
 C1191 C 0.66662 1.11636 0.46285
 C1192 C 0.68122 1.10127 0.43896
 C1193 C 0.70760 1.11106 0.42816
 H1194 H 0.71804 1.12944 0.43779
 O1195 O 0.35963 0.89590 0.47142
 O1196 O 0.32597 0.86274 0.47152
 C1197 C 0.33622 0.88597 0.46168
 C1198 C 0.32118 0.90122 0.43819
 C1199 C 0.29479 0.89111 0.42782
 H1200 H 0.28499 0.87258 0.43769
 Cu1201 Cu 0.49954 0.88051 0.37912
 Cu1202 Cu 0.49977 0.84121 0.33816
 Cu1203 Cu 0.49974 1.12323 0.38346
 Cu1204 Cu 0.49916 1.16356 0.34354
 Cu1205 Cu 0.38109 1.00070 0.38057
 Cu1206 Cu 0.34111 1.00101 0.34032
 Cu1207 Cu 0.61859 1.00301 0.38086
 Cu1208 Cu 0.65824 1.00325 0.34037
 C1209 C 0.42545 0.92635 0.33087
 H1210 H 0.43332 0.93387 0.35140
 C1211 C 0.40409 0.90598 0.27846
 C1212 C 0.57380 1.07868 0.33392
 H1213 H 0.56635 1.07080 0.35445
 C1214 C 0.59392 1.09997 0.28149
 C1215 C 0.33383 0.92517 0.42501
 H1216 H 0.35436 0.93285 0.43264
 C1217 C 0.28134 0.90443 0.40445
 C1218 C 0.66797 1.07754 0.42586
 H1219 H 0.64745 1.07010 0.43369
 C1220 C 0.72043 1.09751 0.40454
 C1221 C 0.42633 0.83128 0.42408
 H1222 H 0.43413 0.85177 0.43174
 C1223 C 0.40507 0.77902 0.40350
 C1224 C 0.57444 1.17153 0.42817
 H1225 H 0.56683 1.15094 0.43570
 C1226 C 0.59515 1.22405 0.40771
 C1227 C 0.42591 1.07688 0.33442
 H1228 H 0.43307 1.06945 0.35522
 C1229 C 0.40652 1.09701 0.28125
 C1230 C 0.57317 0.92828 0.33194
 H1231 H 0.56557 0.93546 0.35267
 C1232 C 0.59393 0.90872 0.27911
 C1233 C 0.57448 0.83169 0.42295
 H1234 H 0.56694 0.85219 0.43076
 C1235 C 0.59478 0.77931 0.40178
 C1236 C 0.42412 1.16980 0.42830
 H1237 H 0.43217 1.14941 0.43588
 C1238 C 0.40231 1.22177 0.40768
 C1239 C 0.33144 1.07461 0.42609
 H1240 H 0.35180 1.06695 0.43411
 C1241 C 0.27944 1.09526 0.40424
 C1242 C 0.66656 0.92695 0.42420
 H1243 H 0.64593 0.93422 0.43187
 C1244 C 0.71927 0.90722 0.40348
 O1245 O 0.53004 0.89633 0.64159
 O1246 O 0.53040 0.86317 0.67527
 C1247 C 0.53996 0.88650 0.66497
 C1248 C 0.56331 0.90202 0.67986
 C1249 C 0.57381 0.89228 0.70635
 H1250 H 0.56426 0.87374 0.71657
 O1251 O 0.47252 1.10405 0.64481
 O1252 O 0.47251 1.13720 0.67850
 C1253 C 0.46277 1.11390 0.66825
 C1254 C 0.43926 1.09849 0.68311
 C1255 C 0.42843 1.10837 0.70946
 H1256 H 0.43790 1.12692 0.71975
 O1257 O 0.35821 1.02781 0.60504
 O1258 O 0.32490 1.02682 0.63849
 C1259 C 0.33477 1.03704 0.61527
 C1260 C 0.31930 1.06038 0.60035
 C1261 C 0.29308 1.07067 0.61094
 H1262 H 0.28359 1.06086 0.62967
 O1263 O 0.64304 0.97312 0.60172
 O1264 O 0.67674 0.97254 0.63487
 C1265 C 0.66627 0.96296 0.61157
 C1266 C 0.68080 0.93927 0.59616
 C1267 C 0.70735 0.92882 0.60576
 H1268 H 0.71786 0.93863 0.62403
 O1269 O 0.60337 0.85619 0.52609
 O1270 O 0.63717 0.82327 0.52571
 C1271 C 0.61391 0.83307 0.53581
 C1272 C 0.59938 0.81807 0.55972
 C1273 C 0.60985 0.79187 0.57023
 H1274 H 0.62812 0.78195 0.56005
 O1275 O 0.39536 1.14182 0.52989
 O1276 O 0.36174 1.17493 0.53026
 C1277 C 0.38513 1.16492 0.53997
 C1278 C 0.40018 1.17994 0.56367
 C1279 C 0.38975 1.20617 0.57402
 H1280 H 0.37121 1.21576 0.56401
 O1281 O 0.39863 0.97198 0.64320
 O1282 O 0.36538 0.97095 0.67672
 C1283 C 0.38872 0.96164 0.66636
 C1284 C 0.40405 0.93797 0.68091
 C1285 C 0.39394 0.92709 0.70708
 H1286 H 0.37545 0.93664 0.71731
 O1287 O 0.60458 1.02923 0.64168
 O1288 O 0.63818 1.02876 0.67493
 C1289 C 0.61490 1.03882 0.66501
 C1290 C 0.60005 1.06238 0.68037
 C1291 C 0.61069 1.07259 0.70665
 H1292 H 0.62930 1.06258 0.71612
 O1293 O 0.47409 0.85678 0.60274
 O1294 O 0.47433 0.82345 0.63624
 C1295 C 0.46436 0.83352 0.61297
 C1296 C 0.44066 0.81853 0.59806
 C1297 C 0.43010 0.79241 0.60859
 H1298 H 0.44008 0.78270 0.62712
 O1299 O 0.52785 1.14368 0.60492
 O1300 O 0.52788 1.17704 0.63841
 C1301 C 0.53768 1.16697 0.61506
 C1302 C 0.56136 1.18197 0.60005
 C1303 C 0.57157 1.20842 0.61024
 H1304 H 0.56137 1.21837 0.62851
 O1305 O 0.36027 0.89635 0.52736
 O1306 O 0.32657 0.86323 0.52743
 C1307 C 0.33691 0.88648 0.53714
 C1308 C 0.32196 0.90172 0.56055
 C1309 C 0.29532 0.89183 0.57028
 H1310 H 0.28534 0.87366 0.55990
 O1311 O 0.64414 1.10559 0.52870
 O1312 O 0.67752 1.13904 0.52901
 C1313 C 0.66750 1.11558 0.53849
 C1314 C 0.68258 1.10007 0.56169
 C1315 C 0.70889 1.11006 0.57240
 H1316 H 0.71895 1.12878 0.56303
 O1317 O 0.52852 1.10433 0.64401
 O1318 O 0.52874 1.13746 0.67773
 C1319 C 0.53867 1.11434 0.66725
 C1320 C 0.56281 1.09931 0.68159
 C1321 C 0.57389 1.10918 0.70789
 H1322 H 0.56425 1.12745 0.71846
 O1323 O 0.47423 0.89599 0.64197
 O1324 O 0.47453 0.86278 0.67561
 C1325 C 0.46461 0.88597 0.66539
 C1326 C 0.44109 0.90099 0.68044
 C1327 C 0.43062 0.89046 0.70663
 H1328 H 0.44045 0.87186 0.71633
 O1329 O 0.64412 1.02913 0.60269
 O1330 O 0.67778 1.02851 0.63587
 C1331 C 0.66757 1.03863 0.61277
 C1332 C 0.68260 1.06232 0.59797
 C1333 C 0.70890 1.07260 0.60837
 H1334 H 0.71878 1.06234 0.62666
 O1335 O 0.35955 0.97202 0.60378
 O1336 O 0.32614 0.97099 0.63714
 C1337 C 0.33638 0.96176 0.61365
 C1338 C 0.32164 0.93839 0.59799
 C1339 C 0.29499 0.92812 0.60741
 H1340 H 0.28458 0.93782 0.62575
 O1341 O 0.60434 1.14418 0.52965
 O1342 O 0.63748 1.17786 0.52999
 C1343 C 0.61426 1.16745 0.53973
 C1344 C 0.59892 1.18213 0.56341
 C1345 C 0.60872 1.20858 0.57398
 H1346 H 0.62718 1.21885 0.56437
 O1347 O 0.39860 0.85630 0.52741
 O1348 O 0.36501 0.82306 0.52765
 C1349 C 0.38837 0.83311 0.53739
 C1350 C 0.40344 0.81827 0.56112
 C1351 C 0.39317 0.79211 0.57202
 H1352 H 0.37458 0.78199 0.56246
 O1353 O 0.60455 0.97323 0.64166
 O1354 O 0.63815 0.97282 0.67492
 C1355 C 0.61476 0.96323 0.66485
 C1356 C 0.59978 0.93963 0.67980
 C1357 C 0.60996 0.92954 0.70628
 H1358 H 0.62819 0.93980 0.71627
 O1359 O 0.39798 1.02797 0.64387
 O1360 O 0.36477 1.02697 0.67741
 C1361 C 0.38784 1.03731 0.66733
 C1362 C 0.40262 1.06097 0.68256
 C1363 C 0.39216 1.07115 0.70888
 H1364 H 0.37378 1.06092 0.71855
 O1365 O 0.47173 1.14319 0.60540
 O1366 O 0.47161 1.17657 0.63886
 C1367 C 0.46163 1.16631 0.61562
 C1368 C 0.43750 1.18078 0.60066
 C1369 C 0.42659 1.20704 0.61069
 H1370 H 0.43631 1.21747 0.62905
 O1371 O 0.52992 0.85652 0.60277
 O1372 O 0.53025 0.82321 0.63629
 C1373 C 0.53979 0.83325 0.61286
 C1374 C 0.56312 0.81823 0.59750
 C1375 C 0.57385 0.79202 0.60765
 H1376 H 0.56443 0.78202 0.62638
 O1377 O 0.64144 0.89652 0.52608
 O1378 O 0.67540 0.86374 0.52563
 C1379 C 0.66498 0.88683 0.53563
 C1380 C 0.68008 0.90213 0.55907
 C1381 C 0.70662 0.89213 0.56900
 H1382 H 0.71639 0.87376 0.55884
 O1383 O 0.35609 1.10264 0.52929
 O1384 O 0.32233 1.13561 0.52967
 C1385 C 0.33278 1.11241 0.53929
 C1386 C 0.31828 1.09713 0.56301
 C1387 C 0.29209 1.10706 0.57388
 H1388 H 0.28168 1.12539 0.56416
 Cu1389 Cu 0.50209 0.87972 0.61890
 Cu1390 Cu 0.50243 0.83981 0.65923
 Cu1391 Cu 0.50011 1.12052 0.62147
 Cu1392 Cu 0.50020 1.16041 0.66170
 Cu1393 Cu 0.38269 0.87955 0.49938
 Cu1394 Cu 0.34227 0.83973 0.49958
 Cu1395 Cu 0.61880 0.87970 0.49810
 Cu1396 Cu 0.65952 0.84033 0.49759
 Cu1397 Cu 0.37896 1.11932 0.50151
 Cu1398 Cu 0.33856 1.15901 0.50198
 Cu1399 Cu 0.62073 1.12194 0.50121
 Cu1400 Cu 0.66065 1.16222 0.50149
 Cu1401 Cu 0.38194 1.00008 0.62064
 Cu1402 Cu 0.34199 0.99881 0.66084
 Cu1403 Cu 0.62072 1.00125 0.61860
 Cu1404 Cu 0.66108 1.00061 0.65847
 C1405 C 0.57628 0.92592 0.66689
 H1406 H 0.56863 0.93333 0.64625
 C1407 C 0.59711 0.90589 0.71956
 C1408 C 0.42634 1.07460 0.67002
 H1409 H 0.43423 1.06710 0.64952
 C1410 C 0.40489 1.09482 0.72238
 C1411 C 0.33155 1.07358 0.57622
 H1412 H 0.35197 1.06607 0.56823
 C1413 C 0.27947 1.09400 0.59780
 C1414 C 0.66744 0.92589 0.57261
 H1415 H 0.64677 0.93347 0.56532
 C1416 C 0.72028 0.90529 0.59231
 C1417 C 0.57584 0.83089 0.57335
 H1418 H 0.56795 0.85130 0.56565
 C1419 C 0.59718 0.77879 0.59417
 C1420 C 0.42422 1.16755 0.57695
 H1421 H 0.43213 1.14713 0.56930
 C1422 C 0.40276 1.21979 0.59745
 C1423 C 0.42783 0.92494 0.66788
 H1424 H 0.43547 0.93290 0.64745
 C1425 C 0.40705 0.90336 0.71993
 C1426 C 0.57596 1.07572 0.66816
 H1427 H 0.56789 1.06820 0.64772
 C1428 C 0.59779 1.09593 0.72048
 C1429 C 0.42737 0.83113 0.57415
 H1430 H 0.43516 0.85150 0.56619
 C1431 C 0.40638 0.77916 0.59574
 C1432 C 0.57504 1.16913 0.57644
 H1433 H 0.56758 1.14854 0.56873
 C1434 C 0.59520 1.22176 0.59735
 C1435 C 0.33485 0.92521 0.57434
 H1436 H 0.35562 0.93266 0.56720
 C1437 C 0.28183 0.90486 0.59367
 C1438 C 0.66978 1.07600 0.57444
 H1439 H 0.64928 1.06844 0.56662
 C1440 C 0.72207 1.09646 0.59574
 O1441 O 0.47156 0.39568 0.85967
 O1442 O 0.47151 0.36206 0.82640
 C1443 C 0.46182 0.38543 0.83640
 C1444 C 0.43849 0.40045 0.82120
 C1445 C 0.42845 0.39023 0.79474
 H1446 H 0.43854 0.37183 0.78498
 O1447 O 0.52584 0.60302 0.85972
 O1448 O 0.52596 0.63621 0.82607
 C1449 C 0.53568 0.61294 0.83636
 C1450 C 0.55919 0.59779 0.82138
 C1451 C 0.56940 0.60812 0.79503
 H1452 H 0.55937 0.62658 0.78527
 O1453 O 0.35673 0.46966 0.89799
 O1454 O 0.32328 0.46956 0.86458
 C1455 C 0.33348 0.45972 0.88785
 C1456 C 0.31859 0.43603 0.90293
 C1457 C 0.29233 0.42540 0.89269
 H1458 H 0.28228 0.43507 0.87411
 O1459 O 0.64241 0.52620 0.89685
 O1460 O 0.67518 0.52649 0.86284
 C1461 C 0.66555 0.53599 0.88646
 C1462 C 0.68094 0.55920 0.90164
 C1463 C 0.70740 0.56918 0.89148
 H1464 H 0.71706 0.55910 0.87300
 O1465 O 0.39591 0.35566 0.97415
 O1466 O 0.36278 0.32195 0.97406
 C1467 C 0.38601 0.33228 0.96433
 C1468 C 0.40137 0.31751 0.94084
 C1469 C 0.39161 0.29106 0.93023
 H1470 H 0.37316 0.28073 0.93981
 O1471 O 0.60389 0.64017 0.97225
 O1472 O 0.63737 0.67353 0.97197
 C1473 C 0.61391 0.66348 0.96244
 C1474 C 0.59842 0.67877 0.93934
 C1475 C 0.60866 0.70512 0.92913
 H1476 H 0.62747 0.71461 0.93878
 O1477 O 0.39553 0.52640 0.85921
 O1478 O 0.36218 0.52626 0.82569
 C1479 C 0.38533 0.53630 0.83596
 C1480 C 0.40011 0.56024 0.82117
 C1481 C 0.38983 0.57064 0.79483
 H1482 H 0.37157 0.56045 0.78483
 O1483 O 0.60233 0.47095 0.85765
 O1484 O 0.63491 0.47123 0.82347
 C1485 C 0.61188 0.46136 0.83404
 C1486 C 0.59650 0.43785 0.81932
 C1487 C 0.60606 0.42743 0.79276
 H1488 H 0.62423 0.43732 0.78224
 O1489 O 0.52755 0.35712 0.89913
 O1490 O 0.52745 0.32346 0.86591
 C1491 C 0.53730 0.33380 0.88912
 C1492 C 0.56087 0.31894 0.90412
 C1493 C 0.57091 0.29257 0.89388
 H1494 H 0.56061 0.28264 0.87562
 O1495 O 0.47005 0.64326 0.89818
 O1496 O 0.47018 0.67655 0.86465
 C1497 C 0.46024 0.66649 0.88790
 C1498 C 0.43638 0.68125 0.90276
 C1499 C 0.42533 0.70730 0.89241
 H1500 H 0.43495 0.71753 0.87391
 O1501 O 0.35668 0.60216 0.97359
 O1502 O 0.32261 0.63483 0.97372
 C1503 C 0.33309 0.61167 0.96399
 C1504 C 0.31820 0.59595 0.94075
 C1505 C 0.29159 0.60541 0.93042
 H1506 H 0.28125 0.62383 0.94003
 O1507 O 0.64421 0.39579 0.97254
 O1508 O 0.67760 0.36247 0.97249
 C1509 C 0.66731 0.38557 0.96242
 C1510 C 0.68168 0.40032 0.93813
 C1511 C 0.70774 0.39013 0.92698
 H1512 H 0.71816 0.37184 0.93673
 O1513 O 0.46997 0.60328 0.85960
 O1514 O 0.47003 0.63641 0.82590
 C1515 C 0.46020 0.61318 0.83619
 C1516 C 0.43667 0.59785 0.82128
 C1517 C 0.42606 0.60787 0.79492
 H1518 H 0.43562 0.62646 0.78481
 O1519 O 0.52722 0.39551 0.85904
 O1520 O 0.52707 0.36189 0.82578
 C1521 C 0.53676 0.38532 0.83566
 C1522 C 0.55983 0.40053 0.82021
 C1523 C 0.56970 0.39038 0.79365
 H1524 H 0.55974 0.37181 0.78396
 O1525 O 0.64214 0.47035 0.89636
 O1526 O 0.67486 0.47058 0.86232
 C1527 C 0.66521 0.46059 0.88577
 C1528 C 0.68052 0.43697 0.90056
 C1529 C 0.70657 0.42646 0.88980
 H1530 H 0.71595 0.43627 0.87101
 O1531 O 0.35689 0.52553 0.89890
 O1532 O 0.32339 0.52545 0.86552
 C1533 C 0.33353 0.53516 0.88889
 C1534 C 0.31846 0.55846 0.90413
 C1535 C 0.29189 0.56824 0.89415
 H1536 H 0.28196 0.55790 0.87591
 O1537 O 0.39501 0.64226 0.97300
 O1538 O 0.36113 0.67512 0.97321
 C1539 C 0.38447 0.66537 0.96325
 C1540 C 0.39919 0.68056 0.93961
 C1541 C 0.38848 0.70657 0.92899
 H1542 H 0.36981 0.71608 0.93882
 O1543 O 0.60435 0.35726 0.97350
 O1544 O 0.63751 0.32368 0.97336
 C1545 C 0.61414 0.33385 0.96378
 C1546 C 0.59854 0.31887 0.94053
 C1547 C 0.60831 0.29247 0.92991
 H1548 H 0.62693 0.28231 0.93932
 O1549 O 0.60211 0.52692 0.85863
 O1550 O 0.63472 0.52726 0.82449
 C1551 C 0.61170 0.53702 0.83524
 C1552 C 0.59634 0.56082 0.82080
 C1553 C 0.60617 0.57160 0.79444
 H1554 H 0.62455 0.56200 0.78406
 O1555 O 0.39613 0.47047 0.85893
 O1556 O 0.36281 0.47026 0.82539
 C1557 C 0.38614 0.46068 0.83556
 C1558 C 0.40146 0.43732 0.82066
 C1559 C 0.39167 0.42679 0.79418
 H1560 H 0.37329 0.43645 0.78383
 O1561 O 0.52610 0.64249 0.89866
 O1562 O 0.52636 0.67584 0.86519
 C1563 C 0.53622 0.66558 0.88844
 C1564 C 0.56036 0.68000 0.90327
 C1565 C 0.57103 0.70635 0.89333
 H1566 H 0.56098 0.71694 0.87527
 O1567 O 0.47171 0.35651 0.89897
 O1568 O 0.47175 0.32285 0.86574
 C1569 C 0.46201 0.33309 0.88900
 C1570 C 0.43864 0.31798 0.90411
 C1571 C 0.42860 0.29154 0.89388
 H1572 H 0.43877 0.28174 0.87552
 O1573 O 0.64367 0.60151 0.97224
 O1574 O 0.67730 0.63471 0.97201
 C1575 C 0.66699 0.61144 0.96234
 C1576 C 0.68169 0.59615 0.93878
 C1577 C 0.70818 0.60584 0.92829
 H1578 H 0.71863 0.62414 0.93809
 O1579 O 0.35648 0.39448 0.97396
 O1580 O 0.32313 0.36101 0.97400
 C1581 C 0.33326 0.38427 0.96408
 C1582 C 0.31843 0.39918 0.94025
 C1583 C 0.29219 0.38888 0.92965
 H1584 H 0.28223 0.37049 0.93962
 Cu1585 Cu 0.49952 0.37959 0.88257
 Cu1586 Cu 0.49944 0.33913 0.84265
 Cu1587 Cu 0.49792 0.61976 0.88245
 Cu1588 Cu 0.49816 0.65959 0.84209
 Cu1589 Cu 0.37969 0.49798 0.88208
 Cu1590 Cu 0.33956 0.49789 0.84193
 Cu1591 Cu 0.61897 0.49856 0.88077
 Cu1592 Cu 0.65817 0.49894 0.83983
 C1593 C 0.42509 0.42418 0.83384
 H1594 H 0.43250 0.43186 0.85448
 C1595 C 0.40507 0.40326 0.78122
 C1596 C 0.57265 0.57395 0.83401
 H1597 H 0.56518 0.56612 0.85454
 C1598 C 0.59286 0.59523 0.78156
 C1599 C 0.33131 0.42292 0.92689
 H1600 H 0.35174 0.43072 0.93467
 C1601 C 0.27909 0.40187 0.90589
 C1602 C 0.66842 0.57261 0.92548
 H1603 H 0.64778 0.56528 0.93313
 C1604 C 0.72106 0.59247 0.90468
 C1605 C 0.42509 0.33067 0.92778
 H1606 H 0.43249 0.35129 0.93549
 C1607 C 0.40511 0.27808 0.90676
 C1608 C 0.57408 0.66651 0.92649
 H1609 H 0.56632 0.64598 0.93402
 C1610 C 0.59514 0.71894 0.90617
 C1611 C 0.42370 0.57385 0.83409
 H1612 H 0.43147 0.56623 0.85460
 C1613 C 0.40268 0.59441 0.78166
 C1614 C 0.57316 0.42444 0.83272
 H1615 H 0.56593 0.43207 0.85342
 C1616 C 0.59280 0.40371 0.77992
 C1617 C 0.57459 0.33180 0.92765
 H1618 H 0.56718 0.35239 0.93535
 C1619 C 0.59461 0.27935 0.90657
 C1620 C 0.42330 0.66826 0.92655
 H1621 H 0.43138 0.64799 0.93441
 C1622 C 0.40140 0.72002 0.90542
 C1623 C 0.33133 0.57225 0.92763
 H1624 H 0.35208 0.56509 0.93513
 C1625 C 0.27846 0.59169 0.90711
 C1626 C 0.66844 0.42391 0.92487
 H1627 H 0.64818 0.43166 0.93304
 C1628 C 0.72027 0.40310 0.90286
 O1629 O 0.52784 0.39560 1.14378
 O1630 O 0.52813 0.36221 1.17723
 C1631 C 0.53764 0.38564 1.16715
 C1632 C 0.56085 0.40105 1.18233
 C1633 C 0.57090 0.39116 1.20892
 H1634 H 0.56089 0.37274 1.21880
 O1635 O 0.47253 0.60348 1.14130
 O1636 O 0.47261 0.63688 1.17477
 C1637 C 0.46287 0.61350 1.16468
 C1638 C 0.43965 0.59818 1.17995
 C1639 C 0.42950 0.60850 1.20632
 H1640 H 0.43931 0.62721 1.21587
 O1641 O 0.35811 0.52599 1.10479
 O1642 O 0.32502 0.52636 1.13848
 C1643 C 0.33496 0.53590 1.11500
 C1644 C 0.31987 0.55931 1.09986
 C1645 C 0.29341 0.56932 1.10998
 H1646 H 0.28356 0.55921 1.12836
 O1647 O 0.64241 0.47126 1.10529
 O1648 O 0.67566 0.47150 1.13889
 C1649 C 0.66572 0.46165 1.11549
 C1650 C 0.68099 0.43837 1.10025
 C1651 C 0.70735 0.42812 1.11048
 H1652 H 0.71702 0.43783 1.12921
 O1653 O 0.60525 0.35721 1.02934
 O1654 O 0.63845 0.32367 1.02941
 C1655 C 0.61525 0.33391 1.03926
 C1656 C 0.60005 0.31904 1.06294
 C1657 C 0.61017 0.29278 1.07372
 H1658 H 0.62878 0.28272 1.06424
 O1659 O 0.39568 0.64247 1.02881
 O1660 O 0.36185 0.67538 1.02921
 C1661 C 0.38544 0.66566 1.03866
 C1662 C 0.40090 0.68092 1.06184
 C1663 C 0.39090 0.70725 1.07244
 H1664 H 0.37214 0.71718 1.06307
 O1665 O 0.39731 0.47035 1.14439
 O1666 O 0.36434 0.47077 1.17819
 C1667 C 0.38738 0.46074 1.16785
 C1668 C 0.40230 0.43701 1.18268
 C1669 C 0.39202 0.42634 1.20888
 H1670 H 0.37363 0.43617 1.21904
 O1671 O 0.60301 0.52740 1.14388
 O1672 O 0.63607 0.52780 1.17767
 C1673 C 0.61293 0.53752 1.16716
 C1674 C 0.59777 0.56138 1.18158
 C1675 C 0.60747 0.57212 1.20803
 H1676 H 0.62565 0.56234 1.21864
 O1677 O 0.47239 0.35573 1.10441
 O1678 O 0.47279 0.32221 1.13772
 C1679 C 0.46281 0.33233 1.11449
 C1680 C 0.43923 0.31722 1.09952
 C1681 C 0.42925 0.29069 1.10962
 H1682 H 0.43962 0.28073 1.12780
 O1683 O 0.52839 0.64293 1.10228
 O1684 O 0.52861 0.67647 1.13561
 C1685 C 0.53837 0.66618 1.11236
 C1686 C 0.56216 0.68081 1.09728
 C1687 C 0.57262 0.70736 1.10696
 H1688 H 0.56265 0.71792 1.12506
 O1689 O 0.35675 0.39470 1.02999
 O1690 O 0.32340 0.36123 1.03022
 C1691 C 0.33358 0.38456 1.03996
 C1692 C 0.31893 0.39971 1.06369
 C1693 C 0.29270 0.38968 1.07444
 H1694 H 0.28242 0.37122 1.06477
 O1695 O 0.64331 0.60135 1.02825
 O1696 O 0.67691 0.63458 1.02809
 C1697 C 0.66661 0.61142 1.03805
 C1698 C 0.68132 0.59648 1.06186
 C1699 C 0.70774 0.60644 1.07226
 H1700 H 0.71811 0.62464 1.06223
 O1701 O 0.52825 0.60380 1.14167
 O1702 O 0.52829 0.63725 1.17509
 C1703 C 0.53794 0.61389 1.16506
 C1704 C 0.56112 0.59871 1.18042
 C1705 C 0.57111 0.60906 1.20687
 H1706 H 0.56117 0.62766 1.21643
 O1707 O 0.47208 0.39481 1.14390
 O1708 O 0.47238 0.36137 1.17730
 C1709 C 0.46243 0.38461 1.16724
 C1710 C 0.43891 0.39962 1.18234
 C1711 C 0.42828 0.38924 1.20855
 H1712 H 0.43795 0.37058 1.21829
 O1713 O 0.64231 0.52699 1.10483
 O1714 O 0.67557 0.52735 1.13844
 C1715 C 0.66558 0.53684 1.11493
 C1716 C 0.68075 0.56005 1.09952
 C1717 C 0.70717 0.57032 1.10957
 H1718 H 0.71692 0.56057 1.12820
 O1719 O 0.35794 0.47012 1.10525
 O1720 O 0.32485 0.47048 1.13894
 C1721 C 0.33471 0.46047 1.11561
 C1722 C 0.31952 0.43684 1.10073
 C1723 C 0.29327 0.42649 1.11115
 H1724 H 0.28360 0.43649 1.12967
 O1725 O 0.60468 0.64105 1.02800
 O1726 O 0.63816 0.67442 1.02776
 C1727 C 0.61482 0.66446 1.03755
 C1728 C 0.59963 0.67985 1.06073
 C1729 C 0.60974 0.70640 1.07069
 H1730 H 0.62829 0.71607 1.06075
 O1731 O 0.39586 0.35545 1.02994
 O1732 O 0.36274 0.32175 1.03005
 C1733 C 0.38603 0.33202 1.03973
 C1734 C 0.40156 0.31708 1.06306
 C1735 C 0.39192 0.29052 1.07348
 H1736 H 0.37342 0.28024 1.06388
 O1737 O 0.60301 0.47144 1.14437
 O1738 O 0.63608 0.47171 1.17815
 C1739 C 0.61291 0.46181 1.16784
 C1740 C 0.59769 0.43829 1.18274
 C1741 C 0.60744 0.42805 1.20934
 H1742 H 0.62570 0.43798 1.21971
 O1743 O 0.39785 0.52637 1.14347
 O1744 O 0.36491 0.52684 1.17730
 C1745 C 0.38803 0.53656 1.16672
 C1746 C 0.40318 0.56053 1.18106
 C1747 C 0.39336 0.57125 1.20742
 H1748 H 0.37520 0.56137 1.21798
 O1749 O 0.47239 0.64323 1.10256
 O1750 O 0.47263 0.67672 1.13592
 C1751 C 0.46265 0.66652 1.11273
 C1752 C 0.43885 0.68134 1.09796
 C1753 C 0.42857 0.70765 1.10824
 H1754 H 0.43891 0.71772 1.12640
 O1755 O 0.52842 0.35661 1.10426
 O1756 O 0.52877 0.32313 1.13761
 C1757 C 0.53855 0.33348 1.11438
 C1758 C 0.56246 0.31887 1.09949
 C1759 C 0.57293 0.29266 1.10985
 H1760 H 0.56276 0.28269 1.12812
 O1761 O 0.64398 0.39691 1.02871
 O1762 O 0.67740 0.36359 1.02888
 C1763 C 0.66720 0.38687 1.03865
 C1764 C 0.68183 0.40196 1.06248
 C1765 C 0.70816 0.39206 1.07304
 H1766 H 0.71858 0.37390 1.06304
 O1767 O 0.35736 0.60235 1.02944
 O1768 O 0.32332 0.63505 1.02970
 C1769 C 0.33397 0.61196 1.03940
 C1770 C 0.31941 0.59649 1.06295
 C1771 C 0.29295 0.60613 1.07338
 H1772 H 0.28257 0.62446 1.06364
 Cu1773 Cu 0.50011 0.37901 1.12072
 Cu1774 Cu 0.50057 0.33882 1.16077
 Cu1775 Cu 0.50039 0.62008 1.11853
 Cu1776 Cu 0.50054 0.66022 1.15868
 Cu1777 Cu 0.37954 0.37845 1.00203
 Cu1778 Cu 0.33963 0.33814 1.00210
 Cu1779 Cu 0.62120 0.38017 1.00101
 Cu1780 Cu 0.66113 0.34004 1.00105
 Cu1781 Cu 0.37959 0.61905 1.00119
 Cu1782 Cu 0.33879 0.65838 1.00150
 Cu1783 Cu 0.62059 0.61762 1.00020
 Cu1784 Cu 0.66084 0.65763 0.99990
 Cu1785 Cu 0.38114 0.49814 1.12113
 Cu1786 Cu 0.34149 0.49867 1.16165
 Cu1787 Cu 0.61932 0.49922 1.12127
 Cu1788 Cu 0.65916 0.49961 1.16171
 C1789 C 0.57418 0.42482 1.16956
 H1790 H 0.56681 0.43227 1.14883
 C1791 C 0.59416 0.40452 1.22246
 C1792 C 0.42653 0.57400 1.16760
 H1793 H 0.43396 0.56618 1.14705
 C1794 C 0.40638 0.59519 1.22006
 C1795 C 0.33259 0.57286 1.07615
 H1796 H 0.35322 0.56555 1.06852
 C1797 C 0.27996 0.59271 1.09686
 C1798 C 0.66856 0.42533 1.07607
 H1799 H 0.64802 0.43282 1.06833
 C1800 C 0.72095 0.40500 1.09698
 C1801 C 0.57601 0.33178 1.07587
 H1802 H 0.56829 0.35221 1.06804
 C1803 C 0.59674 0.27957 1.09716
 C1804 C 0.42507 0.66831 1.07457
 H1805 H 0.43265 0.64779 1.06684
 C1806 C 0.40462 0.72065 1.09563
 C1807 C 0.42594 0.42368 1.16975
 H1808 H 0.43372 0.43153 1.14934
 C1809 C 0.40484 0.40250 1.22186
 C1810 C 0.57437 0.57469 1.16808
 H1811 H 0.56701 0.56688 1.14747
 C1812 C 0.59425 0.59594 1.22068
 C1813 C 0.42542 0.33010 1.07607
 H1814 H 0.43274 0.35077 1.06847
 C1815 C 0.40563 0.27729 1.09674
 C1816 C 0.57566 0.66739 1.07396
 H1817 H 0.56801 0.64672 1.06663
 C1818 C 0.59637 0.72019 1.09376
 C1819 C 0.33201 0.42348 1.07682
 H1820 H 0.35245 0.43108 1.06893
 C1821 C 0.27983 0.40294 1.09812
 C1822 C 0.66814 0.57307 1.07547
 H1823 H 0.64754 0.56553 1.06786
 C1824 C 0.72069 0.59349 1.09607
 C1825 C 1.12143 1.13727 1.25135
 C1826 C 1.10434 1.14044 1.27957
 C1827 C 1.13075 1.12994 1.29644
 C1828 C 1.14791 1.12693 1.26846
 C1829 C 1.12045 1.09870 1.29399
 C1830 C 1.09396 1.10905 1.27682
 C1831 C 1.11110 1.10606 1.24884
 C1832 C 1.13750 1.09554 1.26568
 H1833 H 1.12183 1.15309 1.23358
 H1834 H 1.09011 1.15879 1.28454
 H1835 H 1.17022 1.13444 1.26510
 H1836 H 1.12004 1.08287 1.31174
 H1837 H 1.07165 1.10153 1.28012
 H1838 H 1.15146 1.07708 1.26036
 C1839 C 1.13852 0.61744 0.75204
 C1840 C 1.12689 0.64322 0.76934
 C1841 C 1.12929 0.62545 0.79700
 C1842 C 1.14108 0.59974 0.77997
 C1843 C 1.09850 0.61444 0.79314
 C1844 C 1.09595 0.63215 0.76521
 C1845 C 1.10772 0.60643 0.74814
 C1846 C 1.11012 0.58862 0.77578
 H1847 H 1.15494 0.61867 0.73489
 H1848 H 1.13395 0.66580 0.76686
 H1849 H 1.15965 0.58606 0.78565
 H1850 H 1.08211 0.61323 0.81031
 H1851 H 1.07742 0.64594 0.75973
 H1852 H 1.10306 0.56603 0.77823
 C1853 C 0.59289 1.10988 0.77624
 C1854 C 0.61936 1.09888 0.79303
 C1855 C 0.62992 1.12993 0.79630
 C1856 C 0.60356 1.14109 0.77981
 C1857 C 0.64695 1.12755 0.76818
 C1858 C 0.63630 1.09634 0.76462
 C1859 C 0.60993 1.10751 0.74813
 C1860 C 0.62052 1.13856 0.75145
 H1861 H 0.57054 1.10246 0.77940
 H1862 H 0.61891 1.08261 0.81038
 H1863 H 0.58966 1.15946 0.78555
 H1864 H 0.66931 1.13497 0.76501
 H1865 H 0.65018 1.07796 0.75888
 H1866 H 0.62098 1.15486 0.73412
 C1867 C 0.59512 0.63433 1.26492
 C1868 C 0.59787 0.61721 1.29324
 C1869 C 0.62902 0.62750 1.29612
 C1870 C 0.62643 0.64474 1.26813
 C1871 C 0.63977 0.60109 1.27940
 C1872 C 0.60845 0.59071 1.27621
 C1873 C 0.60589 0.60794 1.24824
 C1874 C 0.63702 0.61827 1.25118
 H1875 H 0.57677 0.64834 1.25938
 H1876 H 0.58183 0.61680 1.31078
 H1877 H 0.63399 0.66707 1.26493
 H1878 H 0.65799 0.58676 1.28453
 H1879 H 0.60088 0.56838 1.27933
 H1880 H 0.65305 0.61868 1.23364
 C1881 C 0.89027 0.91177 1.27599
 C1882 C 0.85921 0.90064 1.27933
 C1883 C 0.87062 0.87493 1.29657
 C1884 C 0.90150 0.88594 1.29358
 C1885 C 0.87371 0.85717 1.26897
 C1886 C 0.86246 0.88295 1.25145
 C1887 C 0.89336 0.89395 1.24842
 C1888 C 0.90473 0.86824 1.26571
 H1889 H 0.89729 0.93435 1.27864
 H1890 H 0.84048 0.91423 1.28464
 H1891 H 0.91743 0.88714 1.31122
 H1892 H 0.86670 0.83460 1.26626
 H1893 H 0.84650 0.88173 1.23384
 H1894 H 0.92342 0.85451 1.26065
 C1895 C 0.88009 0.36358 0.75005
 C1896 C 0.89697 0.36039 0.77840
 C1897 C 0.87051 0.37109 0.79502
 C1898 C 0.85358 0.37413 0.76689
 C1899 C 0.88104 0.40223 0.79264
 C1900 C 0.90758 0.39168 0.77575
 C1901 C 0.89065 0.39469 0.74763
 C1902 C 0.86420 0.40543 0.76420
 H1903 H 0.87973 0.34772 0.73230
 H1904 H 0.91100 0.34194 0.78356
 H1905 H 0.83124 0.36676 0.76341
 H1906 H 0.88137 0.41805 0.81042
 H1907 H 0.92992 0.39905 0.77922
 H1908 H 0.85034 0.42395 0.75881
 C1909 C 0.36354 0.88056 0.74886
 C1910 C 0.37389 0.85427 0.76618
 C1911 C 0.37009 0.87149 0.79405
 C1912 C 0.35959 0.89770 0.77697
 C1913 C 0.40120 0.88217 0.79228
 C1914 C 0.40515 0.86504 0.76412
 C1915 C 0.39464 0.89126 0.74705
 C1916 C 0.39087 0.90850 0.77490
 H1917 H 0.34813 0.87991 0.73073
 H1918 H 0.36670 0.83184 0.76276
 H1919 H 0.34091 0.91152 0.78179
 H1920 H 0.41657 0.88279 0.81044
 H1921 H 0.42388 0.85130 0.75923
 H1922 H 0.39806 0.93092 0.77829
 C1923 C 0.38894 0.40838 1.27692
 C1924 C 0.35760 0.39778 1.27943
 C1925 C 0.36815 0.37167 1.29667
 C1926 C 0.39931 0.38218 1.29450
 C1927 C 0.37159 0.35414 1.26893
 C1928 C 0.36123 0.38033 1.25143
 C1929 C 0.39239 0.39081 1.24921
 C1930 C 0.40290 0.36473 1.26648
 H1931 H 0.39629 0.43079 1.28001
 H1932 H 0.33905 0.41179 1.28424
 H1933 H 0.41490 0.38296 1.31246
 H1934 H 0.36426 0.33173 1.26574
 H1935 H 0.34566 0.37956 1.23344
 H1936 H 0.42150 0.35081 1.26159
 C1937 C 0.86236 1.11968 0.74849
 C1938 C 0.87333 1.14609 0.73168
 C1939 C 0.87011 1.12914 0.70355
 C1940 C 0.85894 1.10282 0.72010
 C1941 C 0.90106 1.11824 0.70606
 C1942 C 0.90444 1.13510 0.73446
 C1943 C 0.89332 1.10879 0.75105
 C1944 C 0.89008 1.09182 0.72295
 H1945 H 0.84651 1.12027 0.76621
 H1946 H 0.86627 1.16852 0.73517
 H1947 H 0.84028 1.08908 0.71476
 H1948 H 0.91693 1.11765 0.68836
 H1949 H 0.92310 1.14881 0.73983
 H1950 H 0.89716 1.06938 0.71956
 C1951 C 0.86241 0.61942 0.24777
 C1952 C 0.87326 0.64570 0.23069
 C1953 C 0.87056 0.62829 0.20280
 C1954 C 0.85953 0.60208 0.21961
 C1955 C 0.90162 0.61782 0.20580
 C1956 C 0.90447 0.63515 0.23398
 C1957 C 0.89348 0.60896 0.25082
 C1958 C 0.89078 0.59152 0.22295
 H1959 H 0.84638 0.62006 0.26531
 H1960 H 0.86588 0.66809 0.23375
 H1961 H 0.84112 0.58801 0.21428
 H1962 H 0.91767 0.61717 0.18827
 H1963 H 0.92291 0.64914 0.23939
 H1964 H 0.89818 0.56912 0.22000
 C1965 C 0.36398 1.11802 0.24963
 C1966 C 0.37456 1.14416 0.23219
 C1967 C 0.37253 1.12618 0.20461
 C1968 C 0.36182 1.10011 0.22182
 C1969 C 0.40374 1.11638 0.20820
 C1970 C 0.40592 1.13426 0.23610
 C1971 C 0.39517 1.10818 0.25328
 C1972 C 0.39318 1.09020 0.22571
 H1973 H 0.34770 1.11869 0.26693
 H1974 H 0.36673 1.16647 0.23466
 H1975 H 0.34374 1.08561 0.21648
 H1976 H 0.41999 1.11574 0.19087
 H1977 H 0.42406 1.14863 0.24158
 H1978 H 0.40101 1.06789 0.22326
 C1979 C 0.40862 0.60955 0.72634
 C1980 C 0.38263 0.59850 0.70885
 C1981 C 0.37178 0.62947 0.70601
 C1982 C 0.39767 0.64070 0.72318
 C1983 C 0.35423 0.62629 0.73373
 C1984 C 0.36515 0.59517 0.73683
 C1985 C 0.39103 0.60636 0.75404
 C1986 C 0.38020 0.63735 0.75117
 H1987 H 0.43112 0.60247 0.72350
 H1988 H 0.38361 0.58260 0.69117
 H1989 H 0.41132 0.65942 0.71789
 H1990 H 0.33174 0.63336 0.73661
 H1991 H 0.35138 0.57648 0.74194
 H1992 H 0.37919 0.65327 0.76884
 C1993 C 1.10763 0.90909 0.72248
 C1994 C 1.13891 0.89865 0.71959
 C1995 C 1.12825 0.87263 0.70222
 C1996 C 1.09712 0.88296 0.70482
 C1997 C 1.12517 0.85488 0.72983
 C1998 C 1.13570 0.88097 0.74742
 C1999 C 1.10459 0.89134 0.75008
 C2000 C 1.09389 0.86531 0.73276
 H2001 H 1.10022 0.93150 0.71967
 H2002 H 1.15736 0.91282 0.71474
 H2003 H 1.08136 0.88374 0.68701
 H2004 H 1.13258 0.83247 0.73267
 H2005 H 1.15150 0.88015 0.76521
 H2006 H 1.07537 0.85130 0.73781
 C2007 C 1.13771 0.38114 0.24860
 C2008 C 1.12695 0.35447 0.23202
 C2009 C 1.13050 0.37097 0.20370
 C2010 C 1.14145 0.39757 0.22002
 C2011 C 1.09951 0.38189 0.20559
 C2012 C 1.09581 0.36548 0.23419
 C2013 C 1.10671 0.39206 0.25054
 C2014 C 1.11027 0.40859 0.22224
 H2015 H 1.15334 0.38085 0.26655
 H2016 H 1.13397 0.33209 0.23595
 H2017 H 1.16015 0.41126 0.21478
 H2018 H 1.08386 0.38219 0.18766
 H2019 H 1.07707 0.35185 0.23948
 H2020 H 1.10322 0.43097 0.21842
 C2021 C 0.58818 0.89353 0.22388
 C2022 C 0.61421 0.90446 0.20643
 C2023 C 0.62508 0.87347 0.20394
 C2024 C 0.59916 0.86238 0.22107
 C2025 C 0.64257 0.87692 0.23169
 C2026 C 0.63162 0.90806 0.23448
 C2027 C 0.60570 0.89696 0.25161
 C2028 C 0.61659 0.86598 0.24907
 H2029 H 0.56568 0.90057 0.22089
 H2030 H 0.61328 0.92016 0.18859
 H2031 H 0.58545 0.84363 0.21600
 H2032 H 0.66506 0.86989 0.23473
 H2033 H 0.64529 0.92683 0.23959
 H2034 H 0.61756 0.85024 0.26688
 C2035 C 0.63570 0.38203 0.74946
 C2036 C 0.62530 0.35577 0.73205
 C2037 C 0.62803 0.37344 0.70435
 C2038 C 0.63855 0.39963 0.72154
 C2039 C 0.59681 0.38348 0.70712
 C2040 C 0.59394 0.36592 0.73515
 C2041 C 0.60451 0.39211 0.75230
 C2042 C 0.60719 0.40978 0.72461
 H2043 H 0.65163 0.38143 0.76714
 H2044 H 0.63294 0.33345 0.73493
 H2045 H 0.65683 0.41396 0.71652
 H2046 H 0.58093 0.38404 0.68941
 H2047 H 0.57558 0.35177 0.74040
 H2048 H 0.59955 0.43211 0.72175
 C2049 C 1.25173 1.11487 1.13559
 C2050 C 1.27978 1.09761 1.13895
 C2051 C 1.29668 1.12365 1.12771
 C2052 C 1.26889 1.14098 1.12451
 C2053 C 1.29396 1.11271 1.09673
 C2054 C 1.27673 1.08655 1.10778
 C2055 C 1.24897 1.10392 1.10460
 C2056 C 1.26589 1.12996 1.09338
 H2057 H 1.23409 1.11575 1.15149
 H2058 H 1.28506 1.08394 1.15767
 H2059 H 1.26584 1.16348 1.13157
 H2060 H 1.31163 1.11187 1.08086
 H2061 H 1.27972 1.06405 1.10071
 H2062 H 1.26070 1.14367 1.07465
 C2063 C 1.26647 0.63433 0.59544
 C2064 C 1.26901 0.64513 0.62672
 C2065 C 1.29686 0.62790 0.63016
 C2066 C 1.29460 0.61719 0.59904
 C2067 C 1.27994 0.60168 0.64098
 C2068 C 1.25183 0.61883 0.63734
 C2069 C 1.24952 0.60812 0.60621
 C2070 C 1.27734 0.59087 0.60967
 H2071 H 1.26142 0.64812 0.57675
 H2072 H 1.26569 0.66755 0.63391
 H2073 H 1.31244 0.61651 0.58335
 H2074 H 1.28495 0.58781 0.65964
 H2075 H 1.23397 0.61950 0.65301
 H2076 H 1.28056 0.56844 0.60245
 C2077 C 0.76634 1.09717 0.63381
 C2078 C 0.79448 1.10085 0.61670
 C2079 C 0.79696 1.13174 0.62794
 C2080 C 0.76910 1.12821 0.64513
 C2081 C 0.78011 1.14309 0.60188
 C2082 C 0.77728 1.11201 0.59054
 C2083 C 0.74945 1.10847 0.60777
 C2084 C 0.75197 1.13937 0.61900
 H2085 H 0.76121 1.07831 0.64735
 H2086 H 0.81222 1.08507 0.61576
 H2087 H 0.76583 1.13505 0.66770
 H2088 H 0.78523 1.16193 0.58831
 H2089 H 0.78044 1.10515 0.56797
 H2090 H 0.73422 1.15513 0.61993
 C2091 C 0.76522 0.59468 1.13377
 C2092 C 0.79324 0.59773 1.11637
 C2093 C 0.79605 0.62885 1.12683
 C2094 C 0.76830 0.62595 1.14430
 C2095 C 0.77911 0.63971 1.10066
 C2096 C 0.77596 0.60840 1.09008
 C2097 C 0.74823 0.60551 1.10760
 C2098 C 0.75109 0.63665 1.11805
 H2099 H 0.76002 0.57619 1.14778
 H2100 H 0.81088 0.58183 1.11570
 H2101 H 0.76532 0.63337 1.16672
 H2102 H 0.78454 0.65822 1.08677
 H2103 H 0.77889 0.60098 1.06765
 H2104 H 0.73346 0.65257 1.11874
 C2105 C 1.24850 0.87837 0.86046
 C2106 C 1.27652 0.89583 0.85757
 C2107 C 1.29349 0.86968 0.86851
 C2108 C 1.26571 0.85215 0.87124
 C2109 C 1.29056 0.88014 0.89966
 C2110 C 1.27329 0.90637 0.88887
 C2111 C 1.24552 0.88886 0.89159
 C2112 C 1.26246 0.86272 0.90254
 H2113 H 1.23096 0.87764 0.84439
 H2114 H 1.28152 0.91003 0.83917
 H2115 H 1.26270 0.82974 0.86383
 H2116 H 1.30809 0.88086 0.91574
 H2117 H 1.27623 0.92878 0.89629
 H2118 H 1.25711 0.84875 0.92102
 C2119 C 1.27338 0.39027 0.40786
 C2120 C 1.27660 0.35902 0.39715
 C2121 C 1.29352 0.37009 0.37102
 C2122 C 1.29063 0.40116 0.38165
 C2123 C 1.26573 0.37291 0.35352
 C2124 C 1.24854 0.36203 0.37973
 C2125 C 1.24560 0.39310 0.39035
 C2126 C 1.26255 0.40413 0.36423
 H2127 H 1.27633 0.39758 0.43033
 H2128 H 1.28177 0.34054 0.41117
 H2129 H 1.30817 0.41720 0.38244
 H2130 H 1.26268 0.36561 0.33106
 H2131 H 1.23098 0.34600 0.37894
 H2132 H 1.25728 0.42264 0.35029
 C2133 C 0.75011 0.86462 0.38119
 C2134 C 0.76761 0.87579 0.35537
 C2135 C 0.79516 0.87281 0.37322
 C2136 C 0.77793 0.86147 0.39896
 C2137 C 0.79208 0.90377 0.38407
 C2138 C 0.76426 0.90690 0.36630
 C2139 C 0.74699 0.89559 0.39204
 C2140 C 0.77451 0.89261 0.40994
 H2141 H 0.73257 0.84859 0.37999
 H2142 H 0.76494 0.86867 0.33280
 H2143 H 0.78326 0.84279 0.41266
 H2144 H 0.80964 0.91977 0.38525
 H2145 H 0.75909 0.92555 0.35250
 H2146 H 0.77713 0.89973 0.43251
 C2147 C 0.77579 0.38855 0.90788
 C2148 C 0.77902 0.35728 0.89725
 C2149 C 0.79559 0.36830 0.87085
 C2150 C 0.79266 0.39940 0.88140
 C2151 C 0.76754 0.37094 0.85371
 C2152 C 0.75072 0.36010 0.88019
 C2153 C 0.74775 0.39120 0.89074
 C2154 C 0.76433 0.40219 0.86436
 H2155 H 0.77903 0.39596 0.93028
 H2156 H 0.78443 0.33889 0.91130
 H2157 H 0.81013 0.41555 0.88191
 H2158 H 0.76422 0.36355 0.83132
 H2159 H 0.73324 0.34397 0.87969
 H2160 H 0.75878 0.42064 0.85044
 C2161 C 0.74685 0.88216 1.13676
 C2162 C 0.71881 0.89949 1.13981
 C2163 C 0.70189 0.87344 1.12852
 C2164 C 0.72968 0.85604 1.12563
 C2165 C 0.70487 0.88425 1.09752
 C2166 C 0.72210 0.91041 1.10864
 C2167 C 0.74987 0.89299 1.10575
 C2168 C 0.73293 0.86693 1.09448
 H2169 H 0.76437 0.88131 1.15284
 H2170 H 0.71345 0.91325 1.15844
 H2171 H 0.73263 0.83356 1.13279
 H2172 H 0.68732 0.88506 1.08147
 H2173 H 0.71917 0.93289 1.10148
 H2174 H 0.73824 0.85312 1.07586
 C2175 C 0.74858 0.38390 0.63719
 C2176 C 0.72038 0.40097 0.64031
 C2177 C 0.70370 0.37466 0.62920
 C2178 C 0.73164 0.35753 0.62627
 C2179 C 0.70637 0.38536 0.59813
 C2180 C 0.72338 0.41176 0.60906
 C2181 C 0.75131 0.39461 0.60613
 C2182 C 0.73461 0.36832 0.59504
 H2183 H 0.76620 0.38332 0.65317
 H2184 H 0.71522 0.41494 0.65884
 H2185 H 0.73493 0.33512 0.63351
 H2186 H 0.68876 0.38594 0.58214
 H2187 H 0.72021 0.43417 0.60180
 H2188 H 0.73998 0.35450 0.57645
 C2189 C 0.25072 0.88251 0.63596
 C2190 C 0.22275 0.89999 0.63873
 C2191 C 0.20584 0.87403 0.62724
 C2192 C 0.23355 0.85649 0.62463
 C2193 C 0.20916 0.88484 0.59628
 C2194 C 0.22639 0.91090 0.60760
 C2195 C 0.25408 0.89332 0.60500
 C2196 C 0.23715 0.86737 0.59352
 H2197 H 0.26809 0.88157 0.65220
 H2198 H 0.21724 0.91376 0.65731
 H2199 H 0.23631 0.83399 0.63181
 H2200 H 0.19176 0.88575 0.58007
 H2201 H 0.22369 0.93341 0.60041
 H2202 H 0.24255 0.85354 0.57495
 C2203 C 0.22465 0.38764 1.09236
 C2204 C 0.22164 0.35648 1.10338
 C2205 C 0.20464 0.36767 1.12937
 C2206 C 0.20731 0.39866 1.11845
 C2207 C 0.23239 0.37097 1.14687
 C2208 C 0.24966 0.35996 1.12080
 C2209 C 0.25237 0.39095 1.10990
 C2210 C 0.23534 0.40210 1.13587
 H2211 H 0.22167 0.39471 1.06983
 H2212 H 0.21651 0.33777 1.08960
 H2213 H 0.18963 0.41451 1.11747
 H2214 H 0.23547 0.36393 1.16941
 H2215 H 0.26735 0.34414 1.12177
 H2216 H 0.24048 0.42084 1.14959
 C2217 C 0.72529 1.10977 0.90896
 C2218 C 0.72202 1.14102 0.89839
 C2219 C 0.70525 1.12999 0.87204
 C2220 C 0.70822 1.09891 0.88254
 C2221 C 0.73313 1.12741 0.85475
 C2222 C 0.75014 1.13826 0.88115
 C2223 C 0.75316 1.10722 0.89168
 C2224 C 0.73642 1.09617 0.86535
 H2225 H 0.72226 1.10238 0.93137
 H2226 H 0.71700 1.15935 0.91266
 H2227 H 0.69075 1.08277 0.88308
 H2228 H 0.73625 1.13479 0.83234
 H2229 H 0.76761 1.15439 0.88061
 H2230 H 0.74185 1.07774 0.85135
 C2231 C 0.73592 0.63396 0.40511
 C2232 C 0.73261 0.64464 0.37388
 C2233 C 0.70492 0.62701 0.37104
 C2234 C 0.70793 0.61642 0.40211
 C2235 C 0.72194 0.60102 0.35993
 C2236 C 0.74986 0.61859 0.36292
 C2237 C 0.75292 0.60797 0.39398
 C2238 C 0.72526 0.59032 0.39117
 H2239 H 0.74124 0.64786 0.42367
 H2240 H 0.73544 0.66710 0.36659
 H2241 H 0.69038 0.61558 0.41811
 H2242 H 0.71670 0.58706 0.34140
 H2243 H 0.76739 0.61947 0.34689
 H2244 H 0.72247 0.56786 0.39846
 C2245 C 0.23564 1.09625 0.36537
 C2246 C 0.20723 1.09938 0.38215
 C2247 C 0.20472 1.13046 0.37150
 C2248 C 0.23282 1.12749 0.35461
 C2249 C 0.22124 1.14140 0.39803
 C2250 C 0.22405 1.11015 0.40876
 C2251 C 0.25215 1.10719 0.39188
 C2252 C 0.24958 1.13826 0.38120
 H2253 H 0.24108 1.07770 0.35154
 H2254 H 0.18959 1.08343 0.38252
 H2255 H 0.23634 1.13476 0.33222
 H2256 H 0.21611 1.15986 0.41210
 H2257 H 0.22061 1.10286 0.43115
 H2258 H 0.26723 1.15420 0.38083
 C2259 C 0.23421 0.59199 0.86911
 C2260 C 0.20604 0.59498 0.88626
 C2261 C 0.20317 0.62596 0.87547
 C2262 C 0.23106 0.62311 0.85824
 C2263 C 0.21985 0.63723 0.90167
 C2264 C 0.22307 0.60608 0.91259
 C2265 C 0.25093 0.60324 0.89531
 C2266 C 0.24800 0.63422 0.88451
 H2267 H 0.23960 0.57341 0.85530
 H2268 H 0.18847 0.57896 0.88693
 H2269 H 0.23416 0.63031 0.83577
 H2270 H 0.21436 0.65583 0.91542
 H2271 H 0.22002 0.59887 0.93506
 H2272 H 0.26554 0.65028 0.88381
 C2273 C 1.09176 1.27271 1.11106
 C2274 C 1.10270 1.27600 1.14226
 C2275 C 1.12878 1.29282 1.13103
 C2276 C 1.11795 1.28985 1.10000
 C2277 C 1.14605 1.26493 1.12811
 C2278 C 1.11989 1.24784 1.13918
 C2279 C 1.10908 1.24485 1.10814
 C2280 C 1.13516 1.26170 1.09694
 H2281 H 1.06931 1.27573 1.10387
 H2282 H 1.08906 1.28156 1.16091
 H2283 H 1.11717 1.30740 1.08396
 H2284 H 1.16850 1.26187 1.13530
 H2285 H 1.12069 1.23030 1.15523
 H2286 H 1.14894 1.25636 1.07834
 C2287 C 1.13889 0.75202 0.61725
 C2288 C 1.14184 0.78001 0.59974
 C2289 C 1.13044 0.79700 0.62566
 C2290 C 1.12764 0.76927 0.64324
 C2291 C 1.09953 0.79374 0.61474
 C2292 C 1.11076 0.77643 0.58872
 C2293 C 1.10797 0.74872 0.60634
 C2294 C 1.09659 0.76574 0.63226
 H2295 H 1.15501 0.73460 0.61828
 H2296 H 1.16044 0.78552 0.58603
 H2297 H 1.13476 0.76650 0.66579
 H2298 H 1.08343 0.81119 0.61375
 H2299 H 1.10364 0.77917 0.56617
 H2300 H 1.07801 0.76042 0.64606
 C2301 C 0.60989 1.27712 0.59121
 C2302 C 0.59887 1.29460 0.61720
 C2303 C 0.62984 1.29769 0.62800
 C2304 C 0.64103 1.28053 0.60212
 C2305 C 0.62689 1.27004 0.64570
 C2306 C 0.59577 1.26667 0.63482
 C2307 C 0.60695 1.24948 0.60894
 C2308 C 0.63793 1.25261 0.61974
 H2309 H 0.60272 1.27985 0.56867
 H2310 H 0.58289 1.31215 0.61618
 H2311 H 0.65964 1.28586 0.58835
 H2312 H 0.63406 1.26728 0.66824
 H2313 H 0.57718 1.26145 0.64865
 H2314 H 0.65393 1.23508 0.62079
 C2315 C 0.59019 0.77567 1.10757
 C2316 C 0.60046 0.77933 1.13892
 C2317 C 0.62655 0.79640 1.12806
 C2318 C 0.61638 0.79304 1.09686
 C2319 C 0.64423 0.76872 1.12575
 C2320 C 0.61807 0.75141 1.13647
 C2321 C 0.60787 0.74800 1.10528
 C2322 C 0.63397 0.76505 1.09440
 H2323 H 0.56784 0.77834 1.09992
 H2324 H 0.58623 0.78466 1.15718
 H2325 H 0.61573 0.81044 1.08066
 H2326 H 0.66658 0.76603 1.13340
 H2327 H 0.61876 0.73403 1.15271
 H2328 H 0.64810 0.75960 1.07609
 C2329 C 0.91002 1.27500 0.89012
 C2330 C 0.89859 1.27781 0.85907
 C2331 C 0.87232 1.29414 0.87058
 C2332 C 0.88364 1.29163 0.90145
 C2333 C 0.85565 1.26591 0.87385
 C2334 C 0.88198 1.24934 0.86250
 C2335 C 0.89331 1.24679 0.89337
 C2336 C 0.86704 1.26313 0.90487
 H2337 H 0.93251 1.27854 0.89697
 H2338 H 0.91201 1.28333 0.84025
 H2339 H 0.88425 1.30930 0.91738
 H2340 H 0.83316 1.26233 0.86700
 H2341 H 0.88134 1.23169 0.84655
 H2342 H 0.85359 1.25766 0.92369
 C2343 C 0.86711 0.76657 0.40556
 C2344 C 0.88410 0.79490 0.40261
 C2345 C 0.87298 0.79799 0.37173
 C2346 C 0.85593 0.76993 0.37452
 C2347 C 0.89908 0.78150 0.36011
 C2348 C 0.91032 0.77808 0.39117
 C2349 C 0.89322 0.75005 0.39396
 C2350 C 0.88209 0.75318 0.36306
 H2351 H 0.85350 0.76102 0.42422
 H2352 H 0.88488 0.81233 0.41879
 H2353 H 0.83343 0.76674 0.36751
 H2354 H 0.91259 0.78724 0.34141
 H2355 H 0.93282 0.78123 0.39818
 H2356 H 0.88129 0.73577 0.34686
 C2357 C 0.36360 1.26543 0.40607
 C2358 C 0.38038 1.29387 0.40288
 C2359 C 0.37000 1.29615 0.37165
 C2360 C 0.35314 1.26800 0.37469
 C2361 C 0.39653 1.27969 0.36106
 C2362 C 0.40702 1.27709 0.39246
 C2363 C 0.39012 1.24895 0.39549
 C2364 C 0.37975 1.25128 0.36425
 H2365 H 0.34969 1.26002 0.42456
 H2366 H 0.38061 1.31167 0.41866
 H2367 H 0.33086 1.26442 0.36719
 H2368 H 0.41041 1.28518 0.34257
 H2369 H 0.42930 1.28064 0.39997
 H2370 H 0.37949 1.23349 0.34845
 C2371 C 0.36274 0.76383 0.90402
 C2372 C 0.37959 0.79225 0.90100
 C2373 C 0.36915 0.79481 0.86980
 C2374 C 0.35221 0.76667 0.87267
 C2375 C 0.39562 0.77828 0.85907
 C2376 C 0.40616 0.77543 0.89042
 C2377 C 0.38921 0.74731 0.89328
 C2378 C 0.37875 0.74990 0.86209
 H2379 H 0.34881 0.75836 0.92248
 H2380 H 0.37989 0.80992 0.91693
 H2381 H 0.32990 0.76321 0.86521
 H2382 H 0.40956 0.78373 0.84062
 H2383 H 0.42847 0.77887 0.89789
 H2384 H 0.37842 0.73224 0.84613
 C2385 C 1.09247 0.73257 0.86575
 C2386 C 1.12384 0.72934 0.85565
 C2387 C 1.12637 0.70159 0.87324
 C2388 C 1.09515 0.70450 0.88324
 C2389 C 1.13692 0.71864 0.89954
 C2390 C 1.13426 0.74661 0.88201
 C2391 C 1.10307 0.74957 0.89206
 C2392 C 1.10556 0.72183 0.90964
 H2393 H 1.07419 0.73793 0.85153
 H2394 H 1.13154 0.73225 0.83333
 H2395 H 1.07917 0.68689 0.88370
 H2396 H 1.15514 0.71351 0.91393
 H2397 H 1.15029 0.76419 0.88152
 H2398 H 1.09786 0.71895 0.93197
 C2399 C 1.10840 0.22542 0.40823
 C2400 C 1.09802 0.20812 0.38180
 C2401 C 1.12919 0.20580 0.37147
 C2402 C 1.13973 0.22280 0.39779
 C2403 C 1.12601 0.23364 0.35412
 C2404 C 1.09470 0.23626 0.36454
 C2405 C 1.10526 0.25325 0.39087
 C2406 C 1.13641 0.25088 0.38051
 H2407 H 1.10097 0.22224 0.43061
 H2408 H 1.08233 0.19025 0.38230
 H2409 H 1.15819 0.21778 0.41188
 H2410 H 1.13344 0.23685 0.33174
 H2411 H 1.07619 0.24138 0.35054
 H2412 H 1.15213 0.26873 0.37998
 C2413 C 0.59526 0.73464 0.36398
 C2414 C 0.62640 0.73127 0.35325
 C2415 C 0.62916 0.70350 0.37078
 C2416 C 0.59817 0.70658 0.38143
 C2417 C 0.64034 0.72050 0.39685
 C2418 C 0.63743 0.74852 0.37939
 C2419 C 0.60645 0.75164 0.39005
 C2420 C 0.60919 0.72388 0.40760
 H2421 H 0.57674 0.73998 0.35007
 H2422 H 0.63364 0.73415 0.33076
 H2423 H 0.58210 0.68907 0.38224
 H2424 H 0.65885 0.71515 0.41077
 H2425 H 0.65353 0.76602 0.37855
 H2426 H 0.60195 0.72103 0.43009
 C2427 C 0.59515 0.23530 0.86825
 C2428 C 0.62618 0.23271 0.85704
 C2429 C 0.62968 0.20476 0.87411
 C2430 C 0.59881 0.20705 0.88523
 C2431 C 0.64092 0.22154 0.90029
 C2432 C 0.63727 0.24973 0.88329
 C2433 C 0.60641 0.25207 0.89442
 C2434 C 0.60988 0.22414 0.91152
 H2435 H 0.57634 0.24046 0.85466
 H2436 H 0.63306 0.23604 0.83451
 H2437 H 0.58310 0.18920 0.88597
 H2438 H 0.65971 0.21642 0.91392
 H2439 H 0.65301 0.26755 0.88252
 H2440 H 0.60299 0.22085 0.93406
 C2441 C 0.86570 0.73589 1.09472
 C2442 C 0.88319 0.70790 1.09769
 C2443 C 0.87252 0.70480 1.12872
 C2444 C 0.85496 0.73251 1.12589
 C2445 C 0.89847 0.72184 1.13997
 C2446 C 0.90926 0.72526 1.10877
 C2447 C 0.89165 0.75295 1.10595
 C2448 C 0.88099 0.74982 1.13699
 H2449 H 0.85184 0.74116 1.07613
 H2450 H 0.88407 0.69037 1.08162
 H2451 H 0.83251 0.73533 1.13313
 H2452 H 0.91226 0.71640 1.15857
 H2453 H 0.93171 0.72249 1.10153
 H2454 H 0.88009 0.76733 1.15307
 C2455 C 0.86617 0.23769 0.59627
 C2456 C 0.88346 0.20961 0.59938
 C2457 C 0.87262 0.20664 0.63037
 C2458 C 0.85527 0.23447 0.62740
 C2459 C 0.89864 0.22352 0.64170
 C2460 C 0.90959 0.22682 0.61053
 C2461 C 0.89219 0.25463 0.60755
 C2462 C 0.88137 0.25164 0.63857
 H2463 H 0.85238 0.24296 0.57762
 H2464 H 0.88430 0.19204 0.58335
 H2465 H 0.83281 0.23746 0.63453
 H2466 H 0.91227 0.21800 0.66039
 H2467 H 0.93206 0.22388 0.60340
 H2468 H 0.88051 0.26919 0.65461
 C2469 C 0.40526 0.73526 0.63424
 C2470 C 0.37412 0.73249 0.64512
 C2471 C 0.37092 0.70440 0.62816
 C2472 C 0.40191 0.70691 0.61735
 C2473 C 0.35988 0.72096 0.60179
 C2474 C 0.36324 0.74932 0.61868
 C2475 C 0.39424 0.75186 0.60787
 C2476 C 0.39104 0.72379 0.59087
 H2477 H 0.42388 0.74060 0.64803
 H2478 H 0.36698 0.73593 0.66756
 H2479 H 0.41773 0.68920 0.61683
 H2480 H 0.34122 0.71546 0.58811
 H2481 H 0.34740 0.76702 0.61921
 H2482 H 0.39818 0.72039 0.56843
 C2483 C 0.40537 0.23256 1.13434
 C2484 C 0.37426 0.22900 1.14510
 C2485 C 0.37158 0.20124 1.12751
 C2486 C 0.40254 0.20452 1.11683
 C2487 C 0.36029 0.21818 1.10150
 C2488 C 0.36312 0.24620 1.11902
 C2489 C 0.39409 0.24952 1.10833
 C2490 C 0.39141 0.22178 1.09071
 H2491 H 0.42388 0.23799 1.14825
 H2492 H 0.36703 0.23181 1.16760
 H2493 H 0.41866 0.18709 1.11596
 H2494 H 0.34175 0.21267 1.08766
 H2495 H 0.34697 0.26361 1.11992
 H2496 H 0.39864 0.21901 1.06821
 C2497 C 1.13482 1.09686 0.73435
 C2498 C 1.11752 1.10079 0.70629
 C2499 C 1.12844 1.13184 0.70420
 C2500 C 1.14583 1.12805 0.73199
 C2501 C 1.10249 1.14266 0.72141
 C2502 C 1.09144 1.11145 0.72380
 C2503 C 1.10886 1.10766 0.75158
 C2504 C 1.11979 1.13872 0.74946
 H2505 H 1.14848 1.07805 0.73922
 H2506 H 1.11660 1.08528 0.68826
 H2507 H 1.16832 1.13506 0.73522
 H2508 H 1.08889 1.16149 0.71644
 H2509 H 1.06896 1.10443 0.72060
 H2510 H 1.12073 1.15425 0.76747
 C2511 C 1.09532 0.63574 0.23331
 C2512 C 1.12659 0.64626 0.23012
 C2513 C 1.12928 0.62882 0.20225
 C2514 C 1.09816 0.61840 0.20513
 C2515 C 1.14013 0.60259 0.21919
 C2516 C 1.13727 0.61997 0.24730
 C2517 C 1.10617 0.60954 0.25024
 C2518 C 1.10885 0.59210 0.22238
 H2519 H 1.07690 0.64973 0.23867
 H2520 H 1.13403 0.66865 0.23319
 H2521 H 1.08213 0.61776 0.18755
 H2522 H 1.15846 0.58840 0.21409
 H2523 H 1.15329 0.62061 0.26489
 H2524 H 1.10138 0.56971 0.21938
 C2525 C 0.59510 1.13796 0.23685
 C2526 C 0.62648 1.14814 0.23364
 C2527 C 0.62907 1.13054 0.20587
 C2528 C 0.59784 1.12047 0.20875
 C2529 C 0.63959 1.10431 0.22296
 C2530 C 0.63688 1.12184 0.25096
 C2531 C 0.60568 1.11173 0.25389
 C2532 C 0.60822 1.09414 0.22612
 H2533 H 0.57680 1.15211 0.24220
 H2534 H 0.63417 1.17047 0.23656
 H2535 H 0.58187 1.11994 0.19111
 H2536 H 0.65781 1.08998 0.21785
 H2537 H 0.65288 1.12240 0.26857
 H2538 H 0.60054 1.07181 0.22321
 C2539 C 0.63572 0.61805 0.75152
 C2540 C 0.63901 0.60090 0.72333
 C2541 C 0.62800 0.62708 0.70648
 C2542 C 0.62486 0.64430 0.73442
 C2543 C 0.59699 0.61627 0.70904
 C2544 C 0.60785 0.58999 0.72619
 C2545 C 0.60472 0.60723 0.75412
 C2546 C 0.59370 0.63341 0.73727
 H2547 H 0.65159 0.61877 0.76925
 H2548 H 0.65762 0.58713 0.71807
 H2549 H 0.63203 0.66675 0.73764
 H2550 H 0.58116 0.61558 0.69129
 H2551 H 0.60067 0.56753 0.72300
 H2552 H 0.57508 0.64716 0.74253
 C2553 C 0.91038 0.89191 0.72195
 C2554 C 0.89916 0.86088 0.71839
 C2555 C 0.87338 0.87250 0.70138
 C2556 C 0.88449 0.90335 0.70459
 C2557 C 0.85584 0.87542 0.72910
 C2558 C 0.88168 0.86396 0.74638
 C2559 C 0.89279 0.89482 0.74964
 C2560 C 0.86702 0.90642 0.73260
 H2561 H 0.93294 0.89888 0.71925
 H2562 H 0.91271 0.84216 0.71293
 H2563 H 0.88560 0.91943 0.68710
 H2564 H 0.83328 0.86845 0.73185
 H2565 H 0.88054 0.84785 0.76385
 H2566 H 0.85339 0.92512 0.73792
 C2567 C 0.86547 0.40392 0.23280
 C2568 C 0.88296 0.40025 0.20486
 C2569 C 0.87246 0.36907 0.20265
 C2570 C 0.85488 0.37260 0.23030
 C2571 C 0.89847 0.35856 0.22001
 C2572 C 0.90908 0.38990 0.22254
 C2573 C 0.89147 0.39342 0.25017
 C2574 C 0.88097 0.36223 0.24792
 H2575 H 0.85157 0.42256 0.23765
 H2576 H 0.88376 0.41578 0.18685
 H2577 H 0.83247 0.36527 0.23333
 H2578 H 0.91235 0.33992 0.21511
 H2579 H 0.93149 0.39722 0.21953
 H2580 H 0.88014 0.34668 0.26591
 C2581 C 0.36600 0.90498 0.23410
 C2582 C 0.38311 0.90153 0.20591
 C2583 C 0.37223 0.87051 0.20338
 C2584 C 0.35505 0.87382 0.23130
 C2585 C 0.39834 0.85946 0.22027
 C2586 C 0.40934 0.89065 0.22311
 C2587 C 0.39211 0.89396 0.25102
 C2588 C 0.38124 0.86293 0.24845
 H2589 H 0.35232 0.92368 0.23931
 H2590 H 0.38385 0.91731 0.18812
 H2591 H 0.33260 0.86670 0.23452
 H2592 H 0.41196 0.84075 0.21494
 H2593 H 0.43179 0.89777 0.21994
 H2594 H 0.38047 0.84712 0.26622
 C2595 C 0.39047 0.40867 0.72577
 C2596 C 0.40138 0.38235 0.70872
 C2597 C 0.37038 0.37163 0.70587
 C2598 C 0.35929 0.39784 0.72259
 C2599 C 0.37325 0.35442 0.73383
 C2600 C 0.40441 0.36520 0.73696
 C2601 C 0.39333 0.39141 0.75370
 C2602 C 0.36232 0.38069 0.75081
 H2603 H 0.39774 0.43110 0.72269
 H2604 H 0.41734 0.38298 0.69111
 H2605 H 0.34075 0.41163 0.71711
 H2606 H 0.36598 0.33198 0.73695
 H2607 H 0.42294 0.35137 0.74236
 H2608 H 0.34634 0.38003 0.76839
 C2609 C 1.09086 0.88980 1.27629
 C2610 C 1.10176 0.85867 1.27987
 C2611 C 1.12814 0.87018 1.29615
 C2612 C 1.11732 0.90111 1.29293
 C2613 C 1.14502 0.87262 1.26797
 C2614 C 1.11857 0.86131 1.25140
 C2615 C 1.10778 0.89226 1.24813
 C2616 C 1.13414 0.90371 1.26448
 H2617 H 1.06846 0.89702 1.27951
 H2618 H 1.08795 0.84019 1.28562
 H2619 H 1.11683 0.91744 1.31025
 H2620 H 1.16741 0.86542 1.26464
 H2621 H 1.11906 0.84501 1.23407
 H2622 H 1.14796 0.92219 1.25879
 C2623 C 1.09111 0.39198 0.77527
 C2624 C 1.10127 0.36055 0.77818
 C2625 C 1.12775 0.37107 0.79494
 C2626 C 1.11768 0.40233 0.79236
 C2627 C 1.14494 0.37381 0.76697
 C2628 C 1.11840 0.36346 0.74995
 C2629 C 1.10831 0.39470 0.74730
 C2630 C 1.13477 0.40522 0.76407
 H2631 H 1.06886 0.39964 0.77847
 H2632 H 1.08693 0.34230 0.78328
 H2633 H 1.11739 0.41824 0.81005
 H2634 H 1.16719 0.36617 0.76367
 H2635 H 1.11868 0.34756 0.73225
 H2636 H 1.14890 0.42357 0.75872
 C2637 C 0.61945 0.86310 0.74994
 C2638 C 0.64546 0.87394 0.76745
 C2639 C 0.62783 0.87080 0.79511
 C2640 C 0.60189 0.85982 0.77784
 C2641 C 0.61721 0.90185 0.79238
 C2642 C 0.63474 0.90514 0.76441
 C2643 C 0.60880 0.89414 0.74716
 C2644 C 0.59116 0.89103 0.77481
 H2645 H 0.62037 0.84723 0.73223
 H2646 H 0.66791 0.86673 0.76461
 H2647 H 0.58795 0.84123 0.78282
 H2648 H 0.61633 0.91769 0.81012
 H2649 H 0.64859 0.92377 0.75930
 H2650 H 0.56871 0.89824 0.77762
 C2651 C 0.63688 0.38241 1.25329
 C2652 C 0.63992 0.39993 1.28132
 C2653 C 0.62872 0.37393 1.29833
 C2654 C 0.62586 0.35634 1.27057
 C2655 C 0.59773 0.38460 1.29529
 C2656 C 0.60874 0.41070 1.27792
 C2657 C 0.60588 0.39307 1.25019
 C2658 C 0.59473 0.36708 1.26724
 H2659 H 0.65289 0.38152 1.23574
 H2660 H 0.65844 0.41389 1.28657
 H2661 H 0.63308 0.33387 1.26766
 H2662 H 0.58170 0.38550 1.31282
 H2663 H 0.60151 0.43317 1.28072
 H2664 H 0.57617 0.35318 1.26198
 C2665 C 0.86591 1.09458 1.26497
 C2666 C 0.88286 1.09744 1.29339
 C2667 C 0.87265 1.12863 1.29607
 C2668 C 0.85561 1.12593 1.26796
 C2669 C 0.89916 1.13927 1.27947
 C2670 C 0.90946 1.10792 1.27651
 C2671 C 0.89242 1.10525 1.24841
 C2672 C 0.88217 1.13643 1.25114
 H2673 H 0.85185 1.07620 1.25948
 H2674 H 0.88308 1.08148 1.31103
 H2675 H 0.83334 1.13349 1.26459
 H2676 H 0.91336 1.15757 1.28481
 H2677 H 0.93173 1.10036 1.27985
 H2678 H 0.88192 1.15242 1.23352
 C2679 C 0.89190 0.58926 0.77565
 C2680 C 0.90292 0.61518 0.79330
 C2681 C 0.87194 0.62585 0.79633
 C2682 C 0.86075 0.60006 0.77901
 C2683 C 0.87490 0.64369 0.76876
 C2684 C 0.90603 0.63294 0.76545
 C2685 C 0.89486 0.60715 0.74811
 C2686 C 0.86387 0.61783 0.75118
 H2687 H 0.89910 0.56676 0.77825
 H2688 H 0.91887 0.61411 0.81093
 H2689 H 0.84213 0.58626 0.78428
 H2690 H 0.86771 0.66620 0.76611
 H2691 H 0.92462 0.64683 0.76033
 H2692 H 0.84789 0.61893 0.73357
 C2693 C 0.38178 1.13742 0.75291
 C2694 C 0.35556 1.12612 0.76975
 C2695 C 0.37262 1.12910 0.79784
 C2696 C 0.39876 1.14056 0.78125
 C2697 C 0.38364 1.09820 0.79490
 C2698 C 0.36666 1.09507 0.76655
 C2699 C 0.39281 1.10652 0.74994
 C2700 C 0.40990 1.10949 0.77801
 H2701 H 0.38102 1.15351 0.73540
 H2702 H 0.33309 1.13311 0.76650
 H2703 H 0.41234 1.15926 0.78687
 H2704 H 0.38438 1.08214 0.81243
 H2705 H 0.35302 1.07639 0.76104
 H2706 H 0.43237 1.10250 0.78123
 C2707 C 0.36345 0.61772 1.25020
 C2708 C 0.36035 0.60075 1.27853
 C2709 C 0.37140 0.62709 1.29512
 C2710 C 0.37434 0.64414 1.26707
 C2711 C 0.40243 0.61644 1.29246
 C2712 C 0.39156 0.58999 1.27553
 C2713 C 0.39449 0.60710 1.24750
 C2714 C 0.40551 0.63343 1.26414
 H2715 H 0.34751 0.61824 1.23253
 H2716 H 0.34179 0.58703 1.28416
 H2717 H 0.36707 0.66653 1.26375
 H2718 H 0.41835 0.61595 1.31014
 H2719 H 0.39884 0.56760 1.27879
 H2720 H 0.42405 0.64728 1.25876
 C2721 C 1.13436 1.26444 0.90446
 C2722 C 1.14507 1.26749 0.87322
 C2723 C 1.12763 1.29525 0.87016
 C2724 C 1.11702 1.29252 0.90125
 C2725 C 1.10156 1.27820 0.85916
 C2726 C 1.11893 1.25020 0.86236
 C2727 C 1.10828 1.24742 0.89343
 C2728 C 1.09084 1.27517 0.89040
 H2729 H 1.14818 1.25919 0.92308
 H2730 H 1.16749 1.26451 0.86597
 H2731 H 1.11628 1.31021 0.91715
 H2732 H 1.08762 1.28330 0.84058
 H2733 H 1.11970 1.23254 0.84642
 H2734 H 1.06841 1.27812 0.89765
 C2735 C 1.09588 0.76602 0.36693
 C2736 C 1.09939 0.79415 0.38415
 C2737 C 1.13025 0.79679 0.37303
 C2738 C 1.12688 0.76891 0.35575
 C2739 C 1.14163 0.77996 0.39905
 C2740 C 1.11058 0.77697 0.41029
 C2741 C 1.10720 0.74913 0.39295
 C2742 C 1.13809 0.75181 0.38185
 H2743 H 1.07711 0.76089 0.35326
 H2744 H 1.08359 0.81186 0.38506
 H2745 H 1.13378 0.76577 0.33320
 H2746 H 1.16046 0.78543 0.41251
 H2747 H 1.10367 0.78005 0.43285
 H2748 H 1.15391 0.73411 0.38091
 C2749 C 0.63321 1.26828 0.40644
 C2750 C 0.64363 1.27124 0.37510
 C2751 C 0.62645 1.29920 0.37230
 C2752 C 0.61611 1.29652 0.40348
 C2753 C 0.60008 1.28249 0.36147
 C2754 C 0.61718 1.25426 0.36447
 C2755 C 0.60686 1.25153 0.39567
 C2756 C 0.58964 1.27946 0.39285
 H2757 H 0.64723 1.26297 0.42489
 H2758 H 0.66594 1.26797 0.36763
 H2759 H 0.61567 1.31416 0.41946
 H2760 H 0.58601 1.28779 0.34305
 H2761 H 0.61762 1.23661 0.34852
 H2762 H 0.56733 1.28262 0.40035
 C2763 C 0.58989 0.77443 0.89176
 C2764 C 0.61642 0.79133 0.90247
 C2765 C 0.62675 0.79420 0.87131
 C2766 C 0.60032 0.77761 0.86042
 C2767 C 0.64382 0.76618 0.87391
 C2768 C 0.63342 0.76303 0.90523
 C2769 C 0.60700 0.74643 0.89435
 C2770 C 0.61733 0.74934 0.86318
 H2771 H 0.56759 0.77761 0.89928
 H2772 H 0.61609 0.80888 0.91853
 H2773 H 0.58630 0.78316 0.84204
 H2774 H 0.66613 0.76296 0.86640
 H2775 H 0.64744 0.75755 0.92364
 H2776 H 0.61769 0.73181 0.84710
 C2777 C 0.90581 1.26265 1.13452
 C2778 C 0.90273 1.29069 1.11703
 C2779 C 0.87159 1.29336 1.12738
 C2780 C 0.87452 1.26564 1.14497
 C2781 C 0.86085 1.27624 1.10119
 C2782 C 0.89216 1.27325 1.09076
 C2783 C 0.89508 1.24554 1.10836
 C2784 C 0.86396 1.24827 1.11871
 H2785 H 0.92429 1.25748 1.14856
 H2786 H 0.91861 1.30838 1.11634
 H2787 H 0.86709 1.26262 1.16737
 H2788 H 0.84247 1.28116 1.08695
 H2789 H 0.89961 1.27618 1.06836
 H2790 H 0.84809 1.23056 1.11940
 C2791 C 0.86408 0.75203 0.61660
 C2792 C 0.87483 0.76967 0.64256
 C2793 C 0.87184 0.79718 0.62465
 C2794 C 0.86094 0.77981 0.59877
 C2795 C 0.90292 0.79431 0.61421
 C2796 C 0.90605 0.76653 0.63205
 C2797 C 0.89518 0.74912 0.60617
 C2798 C 0.89219 0.77660 0.58821
 H2799 H 0.84820 0.73434 0.61760
 H2800 H 0.86747 0.76700 0.66503
 H2801 H 0.84238 0.78501 0.58485
 H2802 H 0.91878 0.81202 0.61323
 H2803 H 0.92458 0.76152 0.64607
 H2804 H 0.89956 0.77923 0.56574
 C2805 C 0.40784 1.27544 0.61172
 C2806 C 0.38153 1.29229 0.60048
 C2807 C 0.37072 1.29544 0.63146
 C2808 C 0.39695 1.27891 0.64288
 C2809 C 0.35360 1.26739 0.62882
 C2810 C 0.36450 1.26394 0.59769
 C2811 C 0.39072 1.24739 0.60908
 C2812 C 0.37990 1.25060 0.64006
 H2813 H 0.43027 1.27858 0.60454
 H2814 H 0.38218 1.30965 0.58422
 H2815 H 0.41088 1.28436 0.66138
 H2816 H 0.33117 1.26416 0.63599
 H2817 H 0.35071 1.25834 0.57912
 H2818 H 0.37925 1.23322 0.65629
 C2819 C 0.36188 0.75076 1.11865
 C2820 C 0.37309 0.76811 1.14465
 C2821 C 0.36965 0.79585 1.12719
 C2822 C 0.35826 0.77877 1.10127
 C2823 C 0.40051 0.79327 1.11603
 C2824 C 0.40410 0.76524 1.13339
 C2825 C 0.39274 0.74812 1.10748
 C2826 C 0.38929 0.77585 1.09001
 H2827 H 0.34608 0.73301 1.11972
 H2828 H 0.36626 0.76503 1.16723
 H2829 H 0.33947 0.78373 1.08759
 H2830 H 0.41633 0.81101 1.11495
 H2831 H 0.42291 0.76018 1.14700
 H2832 H 0.39615 0.77882 1.06742
 C2833 C 0.90975 0.72361 0.89145
 C2834 C 0.88387 0.70614 0.90272
 C2835 C 0.87310 0.70270 0.87174
 C2836 C 0.89886 0.71984 0.86030
 C2837 C 0.85532 0.73029 0.87438
 C2838 C 0.86617 0.73400 0.90551
 C2839 C 0.89193 0.75117 0.89408
 C2840 C 0.88115 0.74769 0.86310
 H2841 H 0.93226 0.72110 0.89867
 H2842 H 0.88496 0.68874 0.91891
 H2843 H 0.91262 0.71438 0.84172
 H2844 H 0.83282 0.73284 0.86717
 H2845 H 0.85235 0.73934 0.92408
 H2846 H 0.88004 0.76506 0.84688
 C2847 C 0.88210 0.25089 0.36317
 C2848 C 0.89950 0.22289 0.36013
 C2849 C 0.87356 0.20594 0.37147
 C2850 C 0.85609 0.23369 0.37435
 C2851 C 0.88441 0.20899 0.40246
 C2852 C 0.91047 0.22627 0.39129
 C2853 C 0.89297 0.25399 0.39416
 C2854 C 0.86702 0.23703 0.40549
 H2855 H 0.88117 0.26841 0.34710
 H2856 H 0.91322 0.21751 0.34150
 H2857 H 0.83360 0.23655 0.36719
 H2858 H 0.88531 0.19145 0.41850
 H2859 H 0.93296 0.22346 0.39846
 H2860 H 0.85327 0.24236 0.42411
 C2861 C 0.38200 0.74862 0.36074
 C2862 C 0.39905 0.72038 0.35752
 C2863 C 0.37296 0.70370 0.36899
 C2864 C 0.35583 0.73166 0.37202
 C2865 C 0.38405 0.70657 0.39992
 C2866 C 0.41024 0.72360 0.38864
 C2867 C 0.39308 0.75153 0.39168
 C2868 C 0.36700 0.73480 0.40310
 H2869 H 0.38117 0.76617 0.34471
 H2870 H 0.41269 0.71503 0.33881
 H2871 H 0.33334 0.73487 0.36502
 H2872 H 0.38488 0.68904 0.41598
 H2873 H 0.43274 0.72050 0.39565
 H2874 H 0.35337 0.74017 0.42180
 C2875 C 0.36246 0.24785 0.88379
 C2876 C 0.37351 0.23088 0.85753
 C2877 C 0.37042 0.20294 0.87472
 C2878 C 0.35918 0.21965 0.90092
 C2879 C 0.40136 0.20564 0.88568
 C2880 C 0.40461 0.23389 0.86858
 C2881 C 0.39339 0.25062 0.89476
 C2882 C 0.39030 0.22270 0.91197
 H2883 H 0.34655 0.26548 0.88304
 H2884 H 0.36644 0.23412 0.83503
 H2885 H 0.34058 0.21447 0.91475
 H2886 H 0.41728 0.18803 0.88643
 H2887 H 0.42326 0.23923 0.85489
 H2888 H 0.39740 0.21956 0.93448
 C2889 C 1.10795 0.72247 1.09075
 C2890 C 1.13928 0.71964 1.10118
 C2891 C 1.12866 0.70285 1.12760
 C2892 C 1.09749 0.70537 1.11726
 C2893 C 1.12580 0.73080 1.14485
 C2894 C 1.13625 0.74783 1.11835
 C2895 C 1.10510 0.75042 1.10798
 C2896 C 1.09446 0.73365 1.13439
 H2897 H 1.10043 0.71924 1.06839
 H2898 H 1.15759 0.71465 1.08690
 H2899 H 1.08160 0.68767 1.11683
 H2900 H 1.13329 0.73412 1.16720
 H2901 H 1.15214 0.76554 1.11879
 H2902 H 1.07604 0.73901 1.14839
 C2903 C 1.10947 0.22639 0.59106
 C2904 C 1.14076 0.22354 0.60168
 C2905 C 1.12997 0.20687 0.62811
 C2906 C 1.09886 0.20940 0.61757
 C2907 C 1.12703 0.23490 0.64522
 C2908 C 1.13764 0.25183 0.61872
 C2909 C 1.10653 0.25441 0.60818
 C2910 C 1.09576 0.23772 0.63459
 H2911 H 1.10208 0.22306 0.56867
 H2912 H 1.15918 0.21838 0.58761
 H2913 H 1.08295 0.19172 0.61711
 H2914 H 1.13441 0.23832 0.66760
 H2915 H 1.15353 0.26953 0.61917
 H2916 H 1.07728 0.24306 0.64851
 C2917 C 0.61966 0.74888 0.63747
 C2918 C 0.60214 0.72095 0.64104
 C2919 C 0.62805 0.70369 0.63019
 C2920 C 0.64564 0.73137 0.62676
 C2921 C 0.61732 0.70613 0.59908
 C2922 C 0.59130 0.72370 0.60977
 C2923 C 0.60892 0.75136 0.60635
 C2924 C 0.63483 0.73409 0.59551
 H2925 H 0.62063 0.76672 0.65319
 H2926 H 0.58838 0.71592 0.65975
 H2927 H 0.66811 0.73437 0.63394
 H2928 H 0.61638 0.68827 0.58338
 H2929 H 0.56883 0.72072 0.60259
 H2930 H 0.64861 0.73908 0.57680
 C2931 C 0.61158 0.22415 1.09193
 C2932 C 0.64273 0.22103 1.10292
 C2933 C 0.63149 0.20432 1.12913
 C2934 C 0.60054 0.20710 1.11824
 C2935 C 0.62856 0.23229 1.14633
 C2936 C 0.63959 0.24927 1.12005
 C2937 C 0.60863 0.25210 1.10915
 C2938 C 0.59744 0.23536 1.13536
 H2939 H 0.60443 0.22099 1.06944
 H2940 H 0.66129 0.21577 1.08908
 H2941 H 0.58452 0.18953 1.11751
 H2942 H 0.63569 0.23554 1.16882
 H2943 H 0.65560 0.26686 1.12077
 H2944 H 0.57886 0.24070 1.14914
 C2945 C 1.25020 1.13489 0.88113
 C2946 C 1.27801 1.13810 0.89884
 C2947 C 1.29530 1.12722 0.87288
 C2948 C 1.26771 1.12414 0.85511
 C2949 C 1.29249 1.09613 0.88345
 C2950 C 1.27493 1.10687 0.90950
 C2951 C 1.24735 1.10383 0.89174
 C2952 C 1.26458 1.09290 0.86578
 H2953 H 1.23256 1.15077 0.88018
 H2954 H 1.28287 1.15662 0.91295
 H2955 H 1.26491 1.13141 0.83262
 H2956 H 1.31017 1.08029 0.88436
 H2957 H 1.27771 1.09960 0.93200
 H2958 H 1.25945 1.07430 0.85185
 C2959 C 1.27556 0.61015 0.40871
 C2960 C 1.29280 0.59904 0.38261
 C2961 C 1.29589 0.63003 0.37181
 C2962 C 1.27897 0.64131 0.39780
 C2963 C 1.26813 0.62713 0.35427
 C2964 C 1.26479 0.59600 0.36513
 C2965 C 1.24782 0.60725 0.39111
 C2966 C 1.25094 0.63825 0.38033
 H2967 H 1.27841 0.60297 0.43122
 H2968 H 1.31031 0.58301 0.38353
 H2969 H 1.28451 0.65994 0.41151
 H2970 H 1.26523 0.63430 0.33176
 H2971 H 1.25949 0.57740 0.35129
 H2972 H 1.23345 0.65430 0.37939
 C2973 C 0.77609 1.11157 0.40979
 C2974 C 0.79296 1.10002 0.38361
 C2975 C 0.79634 1.13085 0.37248
 C2976 C 0.77976 1.14256 0.39855
 C2977 C 0.76836 1.12816 0.35525
 C2978 C 0.76471 1.09718 0.36646
 C2979 C 0.74813 1.10889 0.39253
 C2980 C 0.75154 1.13972 0.38139
 H2981 H 0.77910 1.10460 0.43235
 H2982 H 0.81025 1.08375 0.38448
 H2983 H 0.78547 1.16120 0.41218
 H2984 H 0.76533 1.13513 0.33269
 H2985 H 0.75909 1.07854 0.35281
 H2986 H 0.73427 1.15601 0.38050
 C2987 C 0.77649 0.60688 0.91046
 C2988 C 0.79360 0.59583 0.88423
 C2989 C 0.79666 0.62683 0.87352
 C2990 C 0.77989 0.63806 0.89963
 C2991 C 0.76882 0.62404 0.85610
 C2992 C 0.76548 0.59289 0.86689
 C2993 C 0.74868 0.60410 0.89299
 C2994 C 0.75179 0.63511 0.88228
 H2995 H 0.77943 0.59964 0.93294
 H2996 H 0.81109 0.57977 0.88500
 H2997 H 0.78545 0.65662 0.91342
 H2998 H 0.76584 0.63127 0.83362
 H2999 H 0.76007 0.57433 0.85302
 H3000 H 0.73432 0.65119 0.88148
 C3001 C 1.24985 0.87994 1.13630
 C3002 C 1.26700 0.85376 1.12545
 C3003 C 1.29478 0.87128 1.12822
 C3004 C 1.27790 0.89738 1.13922
 C3005 C 1.29177 0.88175 1.09709
 C3006 C 1.26371 0.86430 1.09418
 C3007 C 1.24680 0.89040 1.10516
 C3008 C 1.27456 0.90796 1.10792
 H3009 H 1.23234 0.87919 1.15234
 H3010 H 1.26407 0.83135 1.13286
 H3011 H 1.28341 0.91127 1.15773
 H3012 H 1.30930 0.88247 1.08106
 H3013 H 1.25834 0.85034 1.07568
 H3014 H 1.27745 0.93038 1.10050
 C3015 C 1.25018 0.38015 0.63609
 C3016 C 1.26694 0.35365 0.62535
 C3017 C 1.29505 0.37056 0.62850
 C3018 C 1.27850 0.39700 0.63938
 C3019 C 1.29261 0.38124 0.59740
 C3020 C 1.26419 0.36443 0.59408
 C3021 C 1.24770 0.39087 0.60502
 C3022 C 1.27580 0.40778 0.60813
 H3023 H 1.23250 0.37972 0.65197
 H3024 H 1.26346 0.33126 0.63259
 H3025 H 1.28368 0.41097 0.65792
 H3026 H 1.31032 0.38164 0.58156
 H3027 H 1.25870 0.35069 0.57545
 H3028 H 1.27927 0.43017 0.60089
 C3029 C 0.77585 0.91110 0.60639
 C3030 C 0.77950 0.90021 0.63755
 C3031 C 0.79621 0.87415 0.62612
 C3032 C 0.79289 0.88493 0.59514
 C3033 C 0.76835 0.85675 0.62351
 C3034 C 0.75138 0.88287 0.63479
 C3035 C 0.74802 0.89365 0.60380
 C3036 C 0.76476 0.86759 0.59239
 H3037 H 0.77873 0.93358 0.59918
 H3038 H 0.78519 0.91396 0.65611
 H3039 H 0.81024 0.88574 0.57891
 H3040 H 0.76543 0.83427 0.63072
 H3041 H 0.73405 0.88204 0.65103
 H3042 H 0.75925 0.85375 0.57384
 C3043 C 0.75108 0.36171 1.11865
 C3044 C 0.77891 0.35862 1.10099
 C3045 C 0.79620 0.36907 1.12713
 C3046 C 0.76862 0.37204 1.14487
 C3047 C 0.79361 0.40033 1.11701
 C3048 C 0.77602 0.39003 1.09076
 C3049 C 0.74845 0.39296 1.10851
 C3050 C 0.76573 0.40344 1.13466
 H3051 H 0.73332 0.34591 1.11933
 H3052 H 0.78389 0.34023 1.08676
 H3053 H 0.76576 0.36444 1.16724
 H3054 H 0.81140 0.41610 1.11636
 H3055 H 0.77886 0.39763 1.06839
 H3056 H 0.76069 0.42187 1.14880
 C3057 C 0.75031 1.11851 1.13724
 C3058 C 0.73348 1.14485 1.12628
 C3059 C 0.70544 1.12787 1.12956
 C3060 C 0.72202 1.10160 1.14068
 C3061 C 0.70782 1.11695 1.09854
 C3062 C 0.73613 1.13385 1.09511
 C3063 C 0.75272 1.10758 1.10622
 C3064 C 0.72471 1.09056 1.10949
 H3065 H 0.76806 1.11913 1.15308
 H3066 H 0.73691 1.16730 1.13337
 H3067 H 0.71662 1.08798 1.15941
 H3068 H 0.69005 1.11635 1.08273
 H3069 H 0.74144 1.14750 1.07638
 H3070 H 0.72132 1.06811 1.10239
 C3071 C 0.72443 0.59148 0.60937
 C3072 C 0.72142 0.60202 0.64069
 C3073 C 0.70426 0.62806 0.62990
 C3074 C 0.70697 0.61763 0.59873
 C3075 C 0.73192 0.64572 0.62693
 C3076 C 0.74932 0.61961 0.63758
 C3077 C 0.75208 0.60915 0.60642
 C3078 C 0.73494 0.63519 0.59561
 H3079 H 0.72155 0.56906 0.60196
 H3080 H 0.71636 0.58797 0.65919
 H3081 H 0.68927 0.61685 0.58285
 H3082 H 0.73482 0.66814 0.63433
 H3083 H 0.76700 0.62042 0.65349
 H3084 H 0.74010 0.64915 0.57707
 C3085 C 0.22448 1.10945 0.59217
 C3086 C 0.20701 1.09930 0.61852
 C3087 C 0.20484 1.13057 0.62873
 C3088 C 0.22202 1.14087 0.60249
 C3089 C 0.23255 1.12729 0.64627
 C3090 C 0.23505 1.09586 0.63595
 C3091 C 0.25219 1.10620 0.60971
 C3092 C 0.24996 1.13745 0.61995
 H3093 H 0.22133 1.10192 0.56981
 H3094 H 0.18906 1.08371 0.61796
 H3095 H 0.21718 1.15931 0.58829
 H3096 H 0.23571 1.13482 0.66864
 H3097 H 0.24008 1.07735 0.64998
 H3098 H 0.26789 1.15308 0.62055
 C3099 C 0.22481 0.60743 1.09068
 C3100 C 0.20733 0.59680 1.11683
 C3101 C 0.20460 0.62795 1.12724
 C3102 C 0.22177 0.63873 1.10120
 C3103 C 0.23224 0.62500 1.14495
 C3104 C 0.23526 0.59371 1.13446
 C3105 C 0.25242 0.60450 1.10842
 C3106 C 0.24965 0.63564 1.11884
 H3107 H 0.22198 0.60000 1.06823
 H3108 H 0.18962 0.58095 1.11603
 H3109 H 0.21668 0.65722 1.08714
 H3110 H 0.23511 0.63243 1.16739
 H3111 H 0.24041 0.57520 1.14846
 H3112 H 0.26733 0.65153 1.11967
 C3113 C 0.72384 0.89057 0.90823
 C3114 C 0.70649 0.90123 0.88198
 C3115 C 0.70365 0.87010 0.87151
 C3116 C 0.72069 0.85927 0.89765
 C3117 C 0.73139 0.87303 0.85399
 C3118 C 0.73451 0.90431 0.86454
 C3119 C 0.75156 0.89350 0.89068
 C3120 C 0.74869 0.86236 0.88020
 H3121 H 0.72092 0.89797 0.93066
 H3122 H 0.68886 0.91714 0.88269
 H3123 H 0.71539 0.84077 0.91160
 H3124 H 0.73433 0.86564 0.83155
 H3125 H 0.73973 0.92282 0.85056
 H3126 H 0.76630 0.84643 0.87947
 C3127 C 0.72418 0.39281 0.41063
 C3128 C 0.70682 0.40371 0.38448
 C3129 C 0.70356 0.37264 0.37399
 C3130 C 0.72058 0.36155 0.40003
 C3131 C 0.73123 0.37523 0.35633
 C3132 C 0.73475 0.40645 0.36687
 C3133 C 0.75181 0.39541 0.39291
 C3134 C 0.74852 0.36431 0.38244
 H3135 H 0.72149 0.40023 0.43308
 H3136 H 0.68938 0.41982 0.38529
 H3137 H 0.71505 0.34308 0.41395
 H3138 H 0.73396 0.36781 0.33388
 H3139 H 0.74003 0.42488 0.35282
 H3140 H 0.76594 0.34819 0.38160
 C3141 C 0.22599 0.91049 0.38959
 C3142 C 0.22259 0.89961 0.35838
 C3143 C 0.20562 0.87362 0.36961
 C3144 C 0.20869 0.88439 0.40064
 C3145 C 0.23335 0.85612 0.37252
 C3146 C 0.25060 0.88218 0.36145
 C3147 C 0.25369 0.89292 0.39251
 C3148 C 0.23666 0.86694 0.40369
 H3149 H 0.22316 0.93297 0.39682
 H3150 H 0.21704 0.91328 0.33973
 H3151 H 0.19117 0.88528 0.41667
 H3152 H 0.23622 0.83364 0.36530
 H3153 H 0.26811 0.88127 0.34541
 H3154 H 0.24188 0.85308 0.42229
 C3155 C 0.23429 0.36427 0.90445
 C3156 C 0.20640 0.38183 0.90105
 C3157 C 0.20378 0.37126 0.86990
 C3158 C 0.23139 0.35362 0.87315
 C3159 C 0.22106 0.39724 0.85912
 C3160 C 0.22399 0.40792 0.89043
 C3161 C 0.25159 0.39025 0.89367
 C3162 C 0.24893 0.37968 0.86252
 H3163 H 0.23928 0.35034 0.92306
 H3164 H 0.18864 0.38269 0.91681
 H3165 H 0.23428 0.33116 0.86586
 H3166 H 0.21601 0.41114 0.84049
 H3167 H 0.22112 0.43037 0.89772
 H3168 H 0.26667 0.37879 0.84673
   
