data_POSCAR
  _audit_creation_date              2014-09-24
  _audit_creation_method            'ToBaCCo'
  _symmetry_space_group_name_H-M    'P1'
  _symmetry_Int_Tables_number       1
  _symmetry_cell_setting            triclinic
  loop_
  _symmetry_equiv_pos_as_xyz
 x,y,z
_cell_length_a 60.9620
_cell_length_b 60.9629
_cell_length_c 60.9463
_cell_angle_alpha 90.014500
_cell_angle_beta 90.004000
_cell_angle_gamma 90.004700
loop_
  _atom_site_label
  _atom_site_type_symbol
  _atom_site_fract_x
  _atom_site_fract_y
  _atom_site_fract_z
C1 C 0.33673 1.36548 0.33688
 C2 C 0.34616 1.37511 0.31823
 C3 C 0.36530 1.36633 0.30853
 C4 C 0.37501 1.34770 0.31836
 C5 C 0.36549 1.33767 0.33678
 C6 C 0.34622 1.34653 0.34599
 C7 C 0.31773 1.37444 0.34632
 C8 C 0.30752 1.36440 0.36456
 C9 C 0.31712 1.34518 0.37326
 C10 C 0.33633 1.33632 0.36421
 C11 C 0.34575 1.31732 0.37310
 C12 C 0.36485 1.30821 0.36392
 C13 C 0.37469 1.31859 0.34581
 H14 H 0.33883 1.38995 0.31177
 H15 H 0.38931 1.34009 0.31106
 H16 H 0.31038 1.38865 0.33862
 H17 H 0.31024 1.33741 0.38768
 H18 H 0.33823 1.30962 0.38726
 H19 H 0.38924 1.31151 0.33844
 C20 C 0.33669 0.86551 0.83741
 C21 C 0.34611 0.87503 0.81866
 C22 C 0.36462 0.86552 0.80868
 C23 C 0.37396 0.84659 0.81797
 C24 C 0.36471 0.83689 0.83663
 C25 C 0.34589 0.84626 0.84630
 C26 C 0.31790 0.87468 0.84705
 C27 C 0.30767 0.86464 0.86530
 C28 C 0.31719 0.84535 0.87396
 C29 C 0.33618 0.83625 0.86472
 C30 C 0.34551 0.81715 0.87356
 C31 C 0.36434 0.80779 0.86409
 C32 C 0.37384 0.81779 0.84561
 H33 H 0.33869 0.88950 0.81147
 H34 H 0.38846 0.83938 0.81061
 H35 H 0.31068 0.88903 0.83946
 H36 H 0.31038 0.83768 0.88847
 H37 H 0.33789 0.80932 0.88759
 H38 H 0.38845 0.81076 0.83830
 C39 C 0.83659 1.36455 0.83667
 C40 C 0.84575 1.37382 0.81772
 C41 C 0.86507 1.36516 0.80824
 C42 C 0.87506 1.34689 0.81847
 C43 C 0.86583 1.33723 0.83722
 C44 C 0.84656 1.34612 0.84639
 C45 C 0.81745 1.37338 0.84595
 C46 C 0.80802 1.36389 0.86474
 C47 C 0.81800 1.34541 0.87426
 C48 C 0.83713 1.33643 0.86517
 C49 C 0.84682 1.31776 0.87444
 C50 C 0.86577 1.30848 0.86513
 C51 C 0.87532 1.31847 0.84665
 H52 H 0.83812 1.38834 0.81091
 H53 H 0.88942 1.33929 0.81128
 H54 H 0.80964 1.38740 0.83830
 H55 H 0.81093 1.33809 0.88884
 H56 H 0.83956 1.31040 0.88891
 H57 H 0.88980 1.31129 0.83924
 C58 C 0.83820 0.86645 0.33850
 C59 C 0.84753 0.87577 0.31963
 C60 C 0.86566 0.86587 0.30908
 C61 C 0.87458 0.84660 0.31840
 C62 C 0.86566 0.83735 0.33746
 C63 C 0.84731 0.84719 0.34747
 C64 C 0.81949 0.87577 0.34819
 C65 C 0.80977 0.86607 0.36674
 C66 C 0.81930 0.84716 0.37587
 C67 C 0.83792 0.83763 0.36634
 C68 C 0.84710 0.81850 0.37520
 C69 C 0.86548 0.80864 0.36537
 C70 C 0.87469 0.81821 0.34652
 H71 H 0.83976 0.89011 0.31258
 H72 H 0.88903 0.83905 0.31134
 H73 H 0.81212 0.89022 0.34092
 H74 H 0.81213 0.83978 0.39038
 H75 H 0.83998 0.81130 0.38982
 H76 H 0.88864 0.81048 0.33864
 C77 C 0.66356 0.63570 0.33668
 C78 C 0.65441 0.62638 0.31775
 C79 C 0.63495 0.63483 0.30839
 C80 C 0.62479 0.65293 0.31875
 C81 C 0.63400 0.66261 0.33751
 C82 C 0.65340 0.65394 0.34657
 C83 C 0.68285 0.62709 0.34581
 C84 C 0.69228 0.63659 0.36460
 C85 C 0.68210 0.65488 0.37432
 C86 C 0.66277 0.66364 0.36541
 C87 C 0.65287 0.68218 0.37478
 C88 C 0.63376 0.69121 0.36556
 C89 C 0.62430 0.68117 0.34706
 H90 H 0.66220 0.61199 0.31083
 H91 H 0.61032 0.66040 0.31166
 H92 H 0.69047 0.61286 0.33835
 H93 H 0.68946 0.66253 0.38859
 H94 H 0.66038 0.68995 0.38892
 H95 H 0.60939 0.68786 0.34006
 C96 C 0.66281 0.13429 0.83780
 C97 C 0.65325 0.12485 0.81908
 C98 C 0.63471 0.13444 0.80923
 C99 C 0.62545 0.15335 0.81864
 C100 C 0.63482 0.16297 0.83731
 C101 C 0.65370 0.15354 0.84680
 C102 C 0.68166 0.12506 0.84729
 C103 C 0.69204 0.13506 0.86548
 C104 C 0.68260 0.15433 0.87426
 C105 C 0.66358 0.16350 0.86516
 C106 C 0.65437 0.18259 0.87411
 C107 C 0.63548 0.19202 0.86483
 C108 C 0.62579 0.18207 0.84642
 H109 H 0.66061 0.11039 0.81179
 H110 H 0.61094 0.16062 0.81138
 H111 H 0.68880 0.11071 0.83962
 H112 H 0.68953 0.16196 0.88874
 H113 H 0.66183 0.19006 0.88843
 H114 H 0.61147 0.18946 0.83890
 C115 C 1.16266 0.63442 0.83781
 C116 C 1.15343 0.62560 0.81865
 C117 C 1.13458 0.63500 0.80926
 C118 C 1.12493 0.65339 0.81930
 C119 C 1.13392 0.66233 0.83851
 C120 C 1.15280 0.65274 0.84787
 C121 C 1.18171 0.62529 0.84689
 C122 C 1.19118 0.63397 0.86621
 C123 C 1.18080 0.65209 0.87631
 C124 C 1.16196 0.66163 0.86715
 C125 C 1.15240 0.68025 0.87674
 C126 C 1.13382 0.69014 0.86730
 C127 C 1.12454 0.68092 0.84830
 H128 H 1.16117 0.61167 0.81077
 H129 H 1.11032 0.66065 0.81223
 H130 H 1.18863 0.61086 0.83917
 H131 H 1.18796 0.65971 0.89068
 H132 H 1.15946 0.68711 0.89155
 H133 H 1.11036 0.68857 0.84078
 C134 C 1.16198 0.13363 0.33863
 C135 C 1.15268 0.12405 0.31988
 C136 C 1.13352 0.13276 0.31016
 C137 C 1.12363 0.15124 0.32011
 C138 C 1.13302 0.16122 0.33861
 C139 C 1.15232 0.15245 0.34785
 C140 C 1.18102 0.12478 0.34807
 C141 C 1.19113 0.13482 0.36637
 C142 C 1.18137 0.15393 0.37517
 C143 C 1.16207 0.16264 0.36617
 C144 C 1.15246 0.18152 0.37516
 C145 C 1.13330 0.19047 0.36598
 C146 C 1.12363 0.18015 0.34775
 H147 H 1.16016 0.10932 0.31334
 H148 H 1.10932 0.15881 0.31280
 H149 H 1.18850 0.11067 0.34030
 H150 H 1.18820 0.16168 0.38962
 H151 H 1.16018 0.18956 0.38903
 H152 H 1.10874 0.18685 0.34070
 C153 C 0.66333 1.36530 0.66279
 C154 C 0.65358 1.37466 0.68146
 C155 C 0.63503 1.36495 0.69116
 C156 C 0.62598 1.34596 0.68167
 C157 C 0.63558 1.33640 0.66310
 C158 C 0.65443 1.34600 0.65371
 C159 C 0.68216 1.37469 0.65344
 C160 C 0.69271 1.36483 0.63528
 C161 C 0.68348 1.34548 0.62641
 C162 C 0.66447 1.33615 0.63537
 C163 C 0.65545 1.31697 0.62636
 C164 C 0.63662 1.30737 0.63557
 C165 C 0.62677 1.31723 0.65394
 H166 H 0.66078 1.38916 0.68880
 H167 H 0.61146 1.33858 0.68881
 H168 H 0.68914 1.38907 0.66119
 H169 H 0.69053 1.33794 0.61195
 H170 H 0.66335 1.30925 0.61241
 H171 H 0.61215 1.31003 0.66105
 C172 C 0.66113 0.86683 1.16194
 C173 C 0.65140 0.87589 1.18073
 C174 C 0.63325 0.86569 1.19094
 C175 C 0.62477 0.84632 1.18140
 C176 C 0.63411 0.83734 1.16238
 C177 C 0.65244 0.84753 1.15268
 C178 C 0.67975 0.87656 1.15255
 C179 C 0.68983 0.86725 1.13399
 C180 C 0.68079 0.84822 1.12459
 C181 C 0.66220 0.83829 1.13382
 C182 C 0.65342 0.81908 1.12469
 C183 C 0.63501 0.80892 1.13416
 C184 C 0.62545 0.81817 1.15301
 H185 H 0.65889 0.89029 1.18798
 H186 H 0.61035 0.83850 1.18820
 H187 H 0.68646 0.89140 1.15969
 H188 H 0.68858 0.84081 1.11043
 H189 H 0.66080 0.81213 1.11008
 H190 H 0.61150 0.81020 1.16063
 C191 C 1.16359 1.36477 1.16288
 C192 C 1.15436 1.37363 1.18202
 C193 C 1.13553 1.36424 1.19146
 C194 C 1.12589 1.34584 1.18145
 C195 C 1.13493 1.33682 1.16230
 C196 C 1.15378 1.34640 1.15288
 C197 C 1.18256 1.37397 1.15373
 C198 C 1.19204 1.36527 1.13443
 C199 C 1.18173 1.34706 1.12440
 C200 C 1.16292 1.33747 1.13361
 C201 C 1.15344 1.31872 1.12415
 C202 C 1.13495 1.30878 1.13374
 C203 C 1.12564 1.31814 1.15266
 H204 H 1.16178 1.38794 1.18953
 H205 H 1.11161 1.33824 1.18884
 H206 H 1.18942 1.38846 1.16138
 H207 H 1.18890 1.33945 1.11003
 H208 H 1.16083 1.31149 1.10968
 H209 H 1.11116 1.31082 1.15993
 C210 C 1.16220 0.86606 0.66216
 C211 C 1.15281 0.87471 0.68132
 C212 C 1.13398 0.86512 0.69057
 C213 C 1.12455 0.84669 0.68040
 C214 C 1.13372 0.83790 0.66122
 C215 C 1.15255 0.84770 0.65198
 C216 C 1.18119 0.87543 0.65318
 C217 C 1.19077 0.86695 0.63382
 C218 C 1.18061 0.84876 0.62362
 C219 C 1.16185 0.83899 0.63269
 C220 C 1.15251 0.82031 0.62299
 C221 C 1.13399 0.81020 0.63232
 C222 C 1.12455 0.81926 0.65131
 H223 H 1.16040 0.88868 0.68929
 H224 H 1.10995 0.83928 0.68736
 H225 H 1.18797 0.88988 0.66099
 H226 H 1.18788 0.84128 0.60924
 H227 H 1.15970 0.81358 0.60818
 H228 H 1.11041 0.81144 0.65873
 C229 C 0.33744 0.63426 0.66256
 C230 C 0.34674 0.62508 0.68151
 C231 C 0.36539 0.63457 0.69124
 C232 C 0.37486 0.65328 0.68162
 C233 C 0.36571 0.66267 0.66273
 C234 C 0.34692 0.65315 0.65314
 C235 C 0.31855 0.62510 0.65314
 C236 C 0.30894 0.63460 0.63443
 C237 C 0.31861 0.65333 0.62504
 C238 C 0.33748 0.66268 0.63428
 C239 C 0.34685 0.68163 0.62518
 C240 C 0.36549 0.69129 0.63474
 C241 C 0.37490 0.68159 0.65344
 H242 H 0.33916 0.61084 0.68900
 H243 H 0.38939 0.66054 0.68886
 H244 H 0.31102 0.61086 0.66066
 H245 H 0.31144 0.66060 0.61048
 H246 H 0.33931 0.68918 0.61095
 H247 H 0.38942 0.68879 0.66076
 C248 C 0.33829 0.13292 1.16172
 C249 C 0.34780 0.12374 1.18057
 C250 C 0.36600 0.13377 1.19092
 C251 C 0.37476 0.15302 1.18142
 C252 C 0.36564 0.16214 1.16239
 C253 C 0.34726 0.15217 1.15257
 C254 C 0.31955 0.12347 1.15221
 C255 C 0.30966 0.13303 1.13367
 C256 C 0.31905 0.15193 1.12437
 C257 C 0.33769 0.16159 1.13372
 C258 C 0.34671 0.18072 1.12470
 C259 C 0.36511 0.19072 1.13436
 C260 C 0.37451 0.18128 1.15318
 H261 H 0.34014 0.10942 1.18776
 H262 H 0.38925 0.16067 1.18831
 H263 H 0.31228 0.10903 1.15961
 H264 H 0.31177 0.15919 1.10986
 H265 H 0.33945 0.18781 1.11009
 H266 H 0.38847 0.18912 1.16093
 C267 C 0.83757 0.63434 1.16218
 C268 C 0.84709 0.62527 1.18107
 C269 C 0.86583 0.63482 1.19056
 C270 C 0.87518 0.65350 1.18075
 C271 C 0.86586 0.66276 1.16188
 C272 C 0.84695 0.65319 1.15257
 C273 C 0.81857 0.62513 1.15301
 C274 C 0.80875 0.63454 1.13437
 C275 C 0.81833 0.65321 1.12478
 C276 C 0.83728 0.66263 1.13379
 C277 C 0.84654 0.68151 1.12447
 C278 C 0.86529 0.69125 1.13376
 C279 C 0.87493 0.68166 1.15239
 H280 H 0.83960 0.61106 1.18871
 H281 H 0.88978 0.66080 1.18782
 H282 H 0.81112 0.61092 1.16069
 H283 H 0.81102 0.66041 1.11026
 H284 H 0.83915 0.68866 1.10997
 H285 H 0.88919 0.68923 1.15985
 C286 C 0.83783 0.13415 0.66192
 C287 C 0.84763 0.12463 0.68048
 C288 C 0.86566 0.13472 0.69105
 C289 C 0.87413 0.15429 0.68194
 C290 C 0.86471 0.16377 0.66323
 C291 C 0.84632 0.15385 0.65337
 C292 C 0.81925 0.12457 0.65222
 C293 C 0.80859 0.13460 0.63421
 C294 C 0.81762 0.15418 0.62569
 C295 C 0.83632 0.16373 0.63503
 C296 C 0.84511 0.18313 0.62632
 C297 C 0.86368 0.19294 0.63583
 C298 C 0.87335 0.18317 0.65435
 H299 H 0.84025 0.10999 0.68732
 H300 H 0.88857 0.16195 0.68889
 H301 H 0.81248 0.10992 0.65964
 H302 H 0.81060 0.16180 0.61126
 H303 H 0.83762 0.19050 0.61197
 H304 H 0.88740 0.19088 0.66205
 C305 C 1.36593 0.33725 0.66243
 C306 C 1.37532 0.34673 0.68118
 C307 C 1.36634 0.36583 0.69079
 C308 C 1.34781 0.37548 0.68073
 C309 C 1.33802 0.36592 0.66221
 C310 C 1.34704 0.34666 0.65311
 C311 C 1.37504 0.31826 0.65311
 C312 C 1.36519 0.30796 0.63482
 C313 C 1.34603 0.31749 0.62589
 C314 C 1.33704 0.33670 0.63481
 C315 C 1.31808 0.34602 0.62573
 C316 C 1.30880 0.36509 0.63480
 C317 C 1.31898 0.37502 0.65298
 H318 H 1.39011 0.33946 0.68781
 H319 H 1.34007 0.38975 0.68795
 H320 H 1.38920 0.31097 0.66097
 H321 H 1.33843 0.31055 0.61142
 H322 H 1.31053 0.33844 0.61151
 H323 H 1.31177 0.38954 0.66028
 C324 C 1.36671 0.83804 1.16135
 C325 C 1.37622 0.84767 1.17997
 C326 C 1.36663 0.86616 1.18990
 C327 C 1.34757 0.87531 1.18068
 C328 C 1.33786 0.86587 1.16208
 C329 C 1.34734 0.84703 1.15250
 C330 C 1.37602 0.81928 1.15179
 C331 C 1.36598 0.80881 1.13368
 C332 C 1.34657 0.81811 1.12504
 C333 C 1.33732 0.83706 1.13423
 C334 C 1.31808 0.84610 1.12545
 C335 C 1.30853 0.86489 1.13484
 C336 C 1.31857 0.87469 1.15316
 H337 H 1.39109 0.84072 1.18683
 H338 H 1.33995 0.88942 1.18836
 H339 H 1.39045 0.81224 1.15938
 H340 H 1.33888 0.81113 1.11062
 H341 H 1.31056 0.83857 1.11120
 H342 H 1.31111 0.88895 1.16074
 C343 C 0.86597 0.33736 1.16215
 C344 C 0.87533 0.34707 1.18083
 C345 C 0.86567 0.36565 1.19054
 C346 C 0.84673 0.37477 1.18105
 C347 C 0.83718 0.36524 1.16243
 C348 C 0.84670 0.34634 1.15306
 C349 C 0.87529 0.31850 1.15280
 C350 C 0.86540 0.30798 1.13463
 C351 C 0.84610 0.31728 1.12575
 C352 C 0.83682 0.33631 1.13474
 C353 C 0.81769 0.34538 1.12571
 C354 C 0.80815 0.36428 1.13489
 C355 C 0.81804 0.37412 1.15325
 H356 H 0.88980 0.33981 1.18818
 H357 H 0.83939 0.38930 1.18820
 H358 H 0.88964 0.31146 1.16056
 H359 H 0.83855 0.31026 1.11129
 H360 H 0.81027 0.33780 1.11143
 H361 H 0.81057 0.38844 1.16070
 C362 C 0.86614 0.83789 0.66199
 C363 C 0.87517 0.84735 0.68093
 C364 C 0.86557 0.86604 0.69046
 C365 C 0.84691 0.87541 0.68065
 C366 C 0.83769 0.86614 0.66172
 C367 C 0.84730 0.84728 0.65236
 C368 C 0.87538 0.81893 0.65277
 C369 C 0.86599 0.80915 0.63409
 C370 C 0.84734 0.81874 0.62450
 C371 C 0.83789 0.83765 0.63354
 C372 C 0.81901 0.84690 0.62422
 C373 C 0.80924 0.86560 0.63355
 C374 C 0.81879 0.87522 0.65222
 H375 H 0.88936 0.83984 0.68857
 H376 H 0.83957 0.88997 0.68775
 H377 H 0.88959 0.81146 0.66044
 H378 H 0.84015 0.81145 0.60994
 H379 H 0.81189 0.83953 0.60968
 H380 H 0.81119 0.88945 0.65969
 C381 C 0.63472 0.66285 0.66279
 C382 C 0.62560 0.65342 0.68171
 C383 C 0.63515 0.63474 0.69130
 C384 C 0.65385 0.62536 0.68159
 C385 C 0.66317 0.63462 0.66272
 C386 C 0.65361 0.65344 0.65326
 C387 C 0.62552 0.68178 0.65349
 C388 C 0.63497 0.69150 0.63481
 C389 C 0.65368 0.68189 0.62531
 C390 C 0.66307 0.66298 0.63443
 C391 C 0.68201 0.65368 0.62521
 C392 C 0.69172 0.63502 0.63466
 C393 C 0.68208 0.62551 0.65333
 H394 H 0.61135 0.66092 0.68927
 H395 H 0.66115 0.61081 0.68873
 H396 H 0.61128 0.68925 0.66109
 H397 H 0.66090 0.68913 0.61077
 H398 H 0.68951 0.66129 0.61099
 H399 H 0.68933 0.61097 0.66057
 C400 C 0.63447 1.16291 1.16280
 C401 C 0.62561 1.15358 1.18190
 C402 C 0.63512 1.13480 1.19132
 C403 C 0.65364 1.12534 1.18136
 C404 C 0.66265 1.13448 1.16228
 C405 C 0.65295 1.15325 1.15285
 C406 C 0.62521 1.18187 1.15368
 C407 C 0.63392 1.19142 1.13442
 C408 C 0.65221 1.18124 1.12443
 C409 C 0.66188 1.16248 1.13363
 C410 C 0.68071 1.15314 1.12420
 C411 C 0.69074 1.13470 1.13378
 C412 C 0.68140 1.12531 1.15265
 H413 H 0.61157 1.16120 1.18971
 H414 H 0.66098 1.11077 1.18843
 H415 H 0.61067 1.18865 1.16131
 H416 H 0.65983 1.18849 1.11011
 H417 H 0.68794 1.16061 1.10977
 H418 H 0.68880 1.11086 1.15992
 C419 C 0.13429 0.66294 1.16245
 C420 C 0.12481 0.65303 1.18098
 C421 C 0.13494 0.63495 1.19142
 C422 C 0.15451 0.62657 1.18222
 C423 C 0.16395 0.63611 1.16357
 C424 C 0.15397 0.65451 1.15379
 C425 C 0.12466 0.68156 1.15287
 C426 C 0.13465 0.69232 1.13490
 C427 C 0.15420 0.68333 1.12625
 C428 C 0.16378 0.66457 1.13545
 C429 C 0.18316 0.65583 1.12664
 C430 C 0.19304 0.63726 1.13608
 C431 C 0.18333 0.62755 1.15460
 H432 H 0.11017 0.66034 1.18789
 H433 H 0.16220 0.61210 1.18907
 H434 H 0.11003 0.68828 1.16037
 H435 H 0.16178 0.69043 1.11184
 H436 H 0.19079 0.66369 1.11262
 H437 H 0.19078 0.61315 1.16192
 C438 C 0.13462 1.16296 0.66267
 C439 C 0.12544 1.15367 0.68161
 C440 C 0.13414 1.13429 0.69091
 C441 C 0.15231 1.12434 0.68047
 C442 C 0.16187 1.13370 0.66174
 C443 C 0.15296 1.15303 0.65274
 C444 C 0.12577 1.18216 0.65360
 C445 C 0.13514 1.19174 0.63483
 C446 C 0.15354 1.18180 0.62508
 C447 C 0.16254 1.16256 0.63393
 C448 C 0.18122 1.15295 0.62455
 C449 C 0.19051 1.13394 0.63374
 C450 C 0.18056 1.12428 0.65218
 H451 H 0.11099 1.16129 0.68858
 H452 H 0.15995 1.10993 0.68752
 H453 H 0.11146 1.18960 0.66109
 H454 H 0.16111 1.18929 0.61083
 H455 H 0.18891 1.16061 0.61047
 H456 H 0.18745 1.10945 0.65915
 C457 C 1.36508 0.66366 0.33675
 C458 C 1.37471 0.65424 0.31809
 C459 C 1.36596 0.63507 0.30841
 C460 C 1.34737 0.62532 0.31828
 C461 C 1.33736 0.63481 0.33671
 C462 C 1.34617 0.65412 0.34590
 C463 C 1.37400 0.68268 0.34618
 C464 C 1.36396 0.69287 0.36444
 C465 C 1.34478 0.68323 0.37317
 C466 C 1.33596 0.66398 0.36414
 C467 C 1.31701 0.65451 0.37307
 C468 C 1.30795 0.63536 0.36392
 C469 C 1.31832 0.62555 0.34579
 H470 H 1.38952 0.66161 0.31161
 H471 H 1.33979 0.61100 0.31099
 H472 H 1.38819 0.69007 0.33846
 H473 H 1.33702 0.69009 0.38760
 H474 H 1.30932 0.66200 0.38725
 H475 H 1.31128 0.61097 0.33843
 C476 C 1.36637 1.16212 0.83854
 C477 C 1.37609 1.15261 0.81997
 C478 C 1.36668 1.13411 0.80989
 C479 C 1.34759 1.12483 0.81892
 C480 C 1.33767 1.13415 0.83748
 C481 C 1.34698 1.15300 0.84720
 C482 C 1.37551 1.18089 0.84824
 C483 C 1.36530 1.19123 0.86632
 C484 C 1.34586 1.18181 0.87477
 C485 C 1.33677 1.16284 0.86544
 C486 C 1.31752 1.15365 0.87405
 C487 C 1.30816 1.13483 0.86453
 C488 C 1.31837 1.12517 0.84623
 H489 H 1.39098 1.15966 0.81328
 H490 H 1.34011 1.11070 0.81113
 H491 H 1.38996 1.18802 0.84078
 H492 H 1.33802 1.18872 0.88914
 H493 H 1.30986 1.16107 0.88828
 H494 H 1.31106 1.11089 0.83855
 C495 C 0.86620 0.66257 0.83852
 C496 C 0.87564 0.65349 0.81960
 C497 C 0.86649 0.63476 0.80970
 C498 C 0.84781 0.62501 0.81909
 C499 C 0.83818 0.63392 0.83800
 C500 C 0.84738 0.65278 0.84776
 C501 C 0.87510 0.68147 0.84816
 C502 C 0.86537 0.69085 0.86687
 C503 C 0.84668 0.68092 0.87605
 C504 C 0.83762 0.66199 0.86662
 C505 C 0.81875 0.65231 0.87556
 C506 C 0.80939 0.63360 0.86583
 C507 C 0.81929 0.62445 0.84710
 H508 H 0.89017 0.66097 0.81260
 H509 H 0.84047 0.61077 0.81138
 H510 H 0.88932 0.68921 0.84079
 H511 H 0.83922 0.68791 0.89061
 H512 H 0.81104 0.65966 0.88980
 H513 H 0.81232 0.60988 0.83965
 C514 C 0.86607 1.16262 0.33807
 C515 C 0.87546 1.15357 0.31912
 C516 C 0.86698 1.13419 0.30959
 C517 C 0.84878 1.12404 0.31976
 C518 C 0.83900 1.13317 0.33849
 C519 C 0.84769 1.15249 0.34774
 C520 C 0.87470 1.18181 0.34741
 C521 C 0.86508 1.19115 0.36618
 C522 C 0.84663 1.18102 0.37563
 C523 C 0.83786 1.16180 0.36652
 C524 C 0.81922 1.15192 0.37571
 C525 C 0.81019 1.13288 0.36632
 C526 C 0.82033 1.12350 0.34784
 H527 H 0.88992 1.16135 0.31234
 H528 H 0.84130 1.10964 0.31253
 H529 H 0.88868 1.18975 0.33980
 H530 H 0.83920 1.18804 0.39019
 H531 H 0.81138 1.15938 0.38982
 H532 H 0.81362 1.10865 0.34070
 C533 C 0.63409 0.33735 0.33754
 C534 C 0.62476 0.34666 0.31866
 C535 C 0.63466 0.36477 0.30808
 C536 C 0.65396 0.37367 0.31737
 C537 C 0.66324 0.36474 0.33642
 C538 C 0.65337 0.34645 0.34650
 C539 C 0.62474 0.31870 0.34730
 C540 C 0.63442 0.30902 0.36589
 C541 C 0.65336 0.31855 0.37499
 C542 C 0.66291 0.33714 0.36542
 C543 C 0.68204 0.34637 0.37428
 C544 C 0.69191 0.36471 0.36439
 C545 C 0.68236 0.37381 0.34547
 H546 H 0.61039 0.33891 0.31164
 H547 H 0.66152 0.38811 0.31030
 H548 H 0.61026 0.31133 0.34005
 H549 H 0.66072 0.31142 0.38953
 H550 H 0.68951 0.33900 0.38864
 H551 H 0.68976 0.38807 0.33785
 C552 C 0.63408 0.83745 0.83775
 C553 C 0.62493 0.84684 0.81886
 C554 C 0.63439 0.86555 0.80924
 C555 C 0.65303 0.87505 0.81897
 C556 C 0.66234 0.86588 0.83792
 C557 C 0.65286 0.84697 0.84733
 C558 C 0.62492 0.81851 0.84702
 C559 C 0.63435 0.80879 0.86569
 C560 C 0.65298 0.81846 0.87527
 C561 C 0.66232 0.83743 0.86618
 C562 C 0.68119 0.84679 0.87542
 C563 C 0.69085 0.86553 0.86603
 C564 C 0.68123 0.87504 0.84734
 H565 H 0.61041 0.83956 0.81161
 H566 H 0.66059 0.88930 0.81149
 H567 H 0.61041 0.81129 0.83969
 H568 H 0.66053 0.81090 0.88948
 H569 H 0.68837 0.83951 0.88997
 H570 H 0.68875 0.88929 0.83982
 C571 C 0.13326 0.33723 0.83840
 C572 C 0.12361 0.34673 0.81979
 C573 C 0.13297 0.36533 0.80985
 C574 C 0.15195 0.37468 0.81904
 C575 C 0.16180 0.36535 0.83763
 C576 C 0.15252 0.34645 0.84725
 C577 C 0.12416 0.31839 0.84799
 C578 C 0.13429 0.30808 0.86613
 C579 C 0.15362 0.31759 0.87475
 C580 C 0.16263 0.33665 0.86557
 C581 C 0.18175 0.34597 0.87437
 C582 C 0.19105 0.36486 0.86495
 C583 C 0.18096 0.37444 0.84655
 H584 H 0.10881 0.33962 0.81297
 H585 H 0.15941 0.38888 0.81135
 H586 H 0.10980 0.31119 0.84041
 H587 H 0.16137 0.31070 0.88917
 H588 H 0.18967 0.33827 0.88831
 H589 H 0.18795 0.38908 0.83928
 C590 C 0.13405 0.83746 0.33816
 C591 C 0.12448 0.84692 0.31950
 C592 C 0.13331 0.86607 0.30985
 C593 C 0.15187 0.87579 0.31979
 C594 C 0.16183 0.86626 0.33823
 C595 C 0.15297 0.84695 0.34736
 C596 C 0.12512 0.81841 0.34751
 C597 C 0.13516 0.80813 0.36571
 C598 C 0.15432 0.81775 0.37451
 C599 C 0.16314 0.83702 0.36558
 C600 C 0.18211 0.84644 0.37456
 C601 C 0.19121 0.86557 0.36546
 C602 C 0.18088 0.87546 0.34736
 H603 H 0.10967 0.83958 0.31297
 H604 H 0.15951 0.89009 0.31254
 H605 H 0.11093 0.81105 0.33974
 H606 H 0.16207 0.81082 0.38892
 H607 H 0.18978 0.83888 0.38871
 H608 H 0.18796 0.89004 0.34004
 O609 O 0.97798 0.92068 0.89070
 O610 O 0.97772 0.89502 0.86519
 C611 C 0.97037 0.91294 0.87290
 C612 C 0.95240 0.92464 0.86144
 C613 C 0.94444 0.91702 0.84119
 H614 H 0.95182 0.90273 0.83362
 O615 O 1.02165 1.07829 0.88994
 O616 O 1.02180 1.10385 0.86434
 C617 C 1.02917 1.08595 0.87208
 C618 C 1.04715 1.07430 0.86062
 C619 C 1.05494 1.08189 0.84033
 H620 H 1.04674 1.09550 0.83240
 O621 O 0.89045 0.97915 0.92064
 O622 O 0.86470 0.97913 0.89523
 C623 C 0.87254 0.97168 0.91305
 C624 C 0.86109 0.95374 0.92480
 C625 C 0.84088 0.94570 0.91714
 H626 H 0.83333 0.95302 0.90281
 O627 O 1.10918 1.02051 0.92036
 O628 O 1.13490 1.02033 0.89492
 C629 C 1.12708 1.02793 0.91271
 C630 C 1.13852 1.04599 0.92429
 C631 C 1.15862 1.05411 0.91645
 H632 H 1.16612 1.04673 0.90212
 O633 O 0.92021 0.89155 0.97911
 O634 O 0.89461 0.86600 0.97921
 C635 C 0.91245 0.87369 0.97167
 C636 C 0.92397 0.86211 0.95367
 C637 C 0.91625 0.84180 0.94601
 H638 H 0.90239 0.83407 0.95400
 O639 O 1.07924 1.10835 0.97842
 O640 O 1.10485 1.13390 0.97838
 C641 C 1.08699 1.12617 0.97091
 C642 C 1.07548 1.13763 0.95282
 C643 C 1.08306 1.15799 0.94519
 H644 H 1.09658 1.16594 0.95354
 O645 O 0.92051 1.02167 0.89025
 O646 O 0.89488 1.02174 0.86471
 C647 C 0.91277 1.02918 0.87241
 C648 C 0.92446 1.04710 0.86088
 C649 C 0.91671 1.05518 0.84072
 H650 H 0.90216 1.04804 0.83345
 O651 O 1.07895 0.97788 0.89029
 O652 O 1.10452 0.97759 0.86470
 C653 C 1.08662 0.97025 0.87248
 C654 C 1.07487 0.95225 0.86110
 C655 C 1.08245 0.94418 0.84088
 H656 H 1.09674 0.95151 0.83327
 O657 O 1.02068 0.89054 0.92077
 O658 O 1.02051 0.86475 0.89539
 C659 C 1.02809 0.87261 0.91316
 C660 C 1.04610 0.86117 0.92483
 C661 C 1.05404 0.84089 0.91724
 H662 H 1.04664 0.83329 0.90298
 O663 O 0.97913 1.10864 0.92008
 O664 O 0.97924 1.13430 0.89459
 C665 C 0.97173 1.12655 0.91242
 C666 C 0.95381 1.13812 0.92409
 C667 C 0.94587 1.15833 0.91634
 H668 H 0.95324 1.16579 0.90200
 O669 O 0.89126 1.07943 0.97867
 O670 O 0.86586 1.10518 0.97862
 C671 C 0.87344 1.08724 0.97120
 C672 C 0.86183 1.07569 0.95323
 C673 C 0.84149 1.08334 0.94558
 H674 H 0.83365 1.09697 0.95385
 O675 O 1.10862 0.92055 0.97883
 O676 O 1.13407 0.89484 0.97890
 C677 C 1.12644 0.91272 0.97137
 C678 C 1.13800 0.92416 0.95330
 C679 C 1.15834 0.91647 0.94568
 H680 H 1.16621 0.90291 0.95403
 O681 O 0.97889 1.07864 0.88995
 O682 O 0.97901 1.10419 0.86434
 C683 C 0.97143 1.08639 0.87210
 C684 C 0.95330 1.07494 0.86067
 C685 C 0.94557 1.08254 0.84035
 H686 H 0.95385 1.09609 0.83239
 O687 O 1.02079 0.92050 0.89067
 O688 O 1.02059 0.89483 0.86516
 C689 C 1.02822 0.91266 0.87284
 C690 C 1.04631 0.92408 0.86131
 C691 C 1.05409 0.91629 0.84108
 H692 H 1.04610 0.90243 0.83333
 O693 O 1.10895 0.97771 0.92033
 O694 O 1.13467 0.97742 0.89489
 C695 C 1.12676 0.97003 0.91270
 C696 C 1.13805 0.95199 0.92445
 C697 C 1.15820 0.94380 0.91681
 H698 H 1.16556 0.95090 0.90229
 O699 O 0.89081 1.02195 0.92057
 O700 O 0.86506 1.02201 0.89516
 C701 C 0.87299 1.02955 0.91292
 C702 C 0.86170 1.04765 0.92456
 C703 C 0.84156 1.05581 0.91688
 H704 H 0.83419 1.04863 0.90241
 O705 O 0.92161 1.10920 0.97840
 O706 O 0.89630 1.13504 0.97832
 C707 C 0.91403 1.12706 0.97080
 C708 C 0.92560 1.13831 0.95262
 C709 C 0.91792 1.15850 0.94463
 H710 H 0.90406 1.16638 0.95248
 O711 O 1.07837 0.89066 0.97879
 O712 O 1.10373 0.86487 0.97884
 C713 C 1.08597 0.87275 0.97131
 C714 C 1.07436 0.86130 0.95328
 C715 C 1.08201 0.84101 0.94551
 H716 H 1.09584 0.83320 0.95348
 O717 O 1.07944 1.02068 0.89007
 O718 O 1.10503 1.02049 0.86450
 C719 C 1.08725 1.02814 0.87224
 C720 C 1.07575 1.04622 0.86077
 C721 C 1.08361 1.05434 0.84066
 H722 H 1.09812 1.04712 0.83339
 O723 O 0.92053 0.97888 0.89064
 O724 O 0.89491 0.97886 0.86509
 C725 C 0.91274 0.97132 0.87285
 C726 C 0.92422 0.95318 0.86145
 C727 C 0.91653 0.94535 0.84120
 H728 H 0.90270 0.95330 0.83337
 O729 O 1.02195 1.10835 0.91996
 O730 O 1.02212 1.13402 0.89448
 C731 C 1.02958 1.12616 0.91229
 C732 C 1.04762 1.13753 0.92398
 C733 C 1.05572 1.15771 0.91633
 H734 H 1.04856 1.16505 0.90182
 O735 O 0.97788 0.89089 0.92098
 O736 O 0.97764 0.86509 0.89561
 C737 C 0.97025 0.87303 0.91342
 C738 C 0.95222 0.86175 0.92519
 C739 C 0.94423 0.84145 0.91775
 H740 H 0.95162 0.83374 0.90354
 O741 O 1.10926 1.07827 0.97838
 O742 O 1.13496 1.10373 0.97829
 C743 C 1.12710 1.08593 0.97080
 C744 C 1.13847 1.07437 0.95267
 C745 C 1.15855 1.08223 0.94458
 H746 H 1.16630 1.09622 0.95234
 O747 O 0.89039 0.92181 0.97901
 O748 O 0.86470 0.89634 0.97907
 C749 C 0.87254 0.91411 0.97151
 C750 C 0.86113 0.92560 0.95338
 C751 C 0.84093 0.91783 0.94550
 H752 H 0.83313 0.90397 0.95344
 Cu753 Cu 0.99935 0.90822 0.90832
 Cu754 Cu 0.99909 0.87734 0.87778
 Cu755 Cu 1.00038 1.09093 0.90755
 Cu756 Cu 1.00056 1.12167 0.87687
 Cu757 Cu 0.90814 1.00041 0.90807
 Cu758 Cu 0.87730 1.00042 0.87749
 Cu759 Cu 1.09156 0.99922 0.90780
 Cu760 Cu 1.12236 0.99893 0.87719
 C761 C 0.94230 0.94285 0.87133
 H762 H 0.94812 0.94861 0.88710
 C763 C 0.92649 0.92725 0.83097
 C764 C 1.05746 1.05626 0.87054
 H765 H 1.05162 1.05044 0.88628
 C766 C 1.07330 1.07219 0.83027
 C767 C 0.87097 0.94370 0.94305
 H768 H 0.88671 0.94957 0.94883
 C769 C 0.83072 0.92771 0.92736
 C770 C 1.12869 1.05612 0.94254
 H771 H 1.11303 1.05018 0.94848
 C772 C 1.16871 1.07226 0.92645
 C773 C 0.94210 0.87184 0.94329
 H774 H 0.94794 0.88765 0.94892
 C775 C 0.92623 0.83137 0.92803
 C776 C 1.05756 1.12768 0.94230
 H777 H 1.05173 1.11190 0.94800
 C778 C 1.07343 1.16813 0.92684
 C779 C 0.94282 1.05702 0.87064
 H780 H 0.94859 1.05119 0.88640
 C781 C 0.92716 1.07291 0.83028
 C782 C 1.05668 0.94221 0.87107
 H783 H 1.05096 0.94811 0.88683
 C784 C 1.07217 0.92619 0.83076
 C785 C 1.05626 0.87113 0.94297
 H786 H 1.05048 0.88693 0.94870
 C787 C 1.07204 0.83073 0.92745
 C788 C 0.94368 1.12836 0.94237
 H789 H 0.94948 1.11262 0.94824
 C790 C 0.92788 1.16859 0.92646
 C791 C 0.87163 1.05764 0.94280
 H792 H 0.88740 1.05176 0.94851
 C793 C 0.83125 1.07364 0.92730
 C794 C 1.12815 0.94212 0.94277
 H795 H 1.11239 0.94802 0.94845
 C796 C 1.16854 0.92606 0.92734
 O797 O 1.02096 0.92131 1.11019
 O798 O 1.02078 0.89577 1.13582
 C799 C 1.02835 0.91358 1.12808
 C800 C 1.04644 0.92506 1.13955
 C801 C 1.05401 0.91756 1.15997
 H802 H 1.04556 0.90415 1.16798
 O803 O 0.97932 1.07898 1.10981
 O804 O 0.97947 1.10460 1.13536
 C805 C 0.97193 1.08674 1.12768
 C806 C 0.95390 1.07525 1.13923
 C807 C 0.94637 1.08280 1.15965
 H808 H 0.95478 1.09627 1.16760
 O809 O 0.89090 1.02229 1.07960
 O810 O 0.86521 1.02258 1.10506
 C811 C 0.87310 1.02996 1.08723
 C812 C 0.86182 1.04802 1.07555
 C813 C 0.84161 1.05603 1.08312
 H814 H 0.83372 1.04828 1.09703
 O815 O 1.10912 0.97807 1.07968
 O816 O 1.13491 0.97801 1.10505
 C817 C 1.12699 0.97052 1.08728
 C818 C 1.13828 0.95244 1.07562
 C819 C 1.15848 0.94437 1.08324
 H820 H 1.16613 0.95177 1.09748
 O821 O 1.07823 0.89076 1.02164
 O822 O 1.10358 0.86496 1.02167
 C823 C 1.08580 0.87287 1.02917
 C824 C 1.07423 0.86156 1.04731
 C825 C 1.08183 0.84128 1.05515
 H826 H 1.09538 0.83329 1.04693
 O827 O 0.92177 1.10940 1.02128
 O828 O 0.89646 1.13524 1.02120
 C829 C 0.91422 1.12733 1.02874
 C830 C 0.92578 1.13868 1.04688
 C831 C 0.91815 1.15896 1.05471
 H832 H 0.90462 1.16695 1.04643
 O833 O 0.92037 0.97923 1.10978
 O834 O 0.89478 0.97942 1.13536
 C835 C 0.91254 0.97175 1.12759
 C836 C 0.92400 0.95363 1.13904
 C837 C 0.91611 0.94551 1.15913
 H838 H 0.90160 0.95274 1.16638
 O839 O 1.07931 1.02093 1.10981
 O840 O 1.10494 1.02091 1.13534
 C841 C 1.08708 1.02841 1.12764
 C842 C 1.07556 1.04647 1.13912
 C843 C 1.08301 1.05401 1.15957
 H844 H 1.09645 1.04558 1.16758
 O845 O 0.97812 0.89148 1.07999
 O846 O 0.97795 0.86579 1.10545
 C847 C 0.97052 0.87364 1.08763
 C848 C 0.95248 0.86229 1.07593
 C849 C 0.94451 0.84201 1.08347
 H850 H 0.95194 0.83435 1.09768
 O851 O 1.02189 1.10888 1.07933
 O852 O 1.02206 1.13464 1.10474
 C853 C 1.02944 1.12676 1.08690
 C854 C 1.04743 1.13812 1.07516
 C855 C 1.05538 1.15837 1.08272
 H856 H 1.04761 1.16624 1.09663
 O857 O 0.89015 0.92175 1.02185
 O858 O 0.86444 0.89630 1.02192
 C859 C 0.87227 0.91413 1.02937
 C860 C 0.86082 0.92584 1.04734
 C861 C 0.84050 0.91834 1.05522
 H862 H 0.83287 0.90411 1.04778
 O863 O 1.10926 1.07825 1.02127
 O864 O 1.13498 1.10369 1.02118
 C865 C 1.12714 1.08591 1.02874
 C866 C 1.13858 1.07436 1.04681
 C867 C 1.15890 1.08197 1.05455
 H868 H 1.16675 1.09577 1.04658
 O869 O 1.02211 1.07921 1.10971
 O870 O 1.02231 1.10485 1.13524
 C871 C 1.02975 1.08699 1.12749
 C872 C 1.04774 1.07532 1.13894
 C873 C 1.05572 1.08292 1.15920
 H874 H 1.04853 1.09741 1.16653
 O875 O 0.97820 0.92157 1.11000
 O876 O 0.97798 0.89600 1.13559
 C877 C 0.97062 0.91389 1.12782
 C878 C 0.95258 0.92552 1.13922
 C879 C 0.94474 0.91793 1.15950
 H880 H 0.95292 0.90431 1.16744
 O881 O 1.10924 1.02084 1.07963
 O882 O 1.13501 1.02087 1.10501
 C883 C 1.12715 1.02831 1.08719
 C884 C 1.13861 1.04621 1.07540
 C885 C 1.15894 1.05407 1.08289
 H886 H 1.16655 1.04668 1.09715
 O887 O 0.89048 0.97953 1.07963
 O888 O 0.86477 0.97976 1.10508
 C889 C 0.87254 0.97220 1.08727
 C890 C 0.86098 0.95426 1.07564
 C891 C 0.84064 0.94658 1.08323
 H892 H 0.83284 0.95457 1.09706
 O893 O 1.07946 1.10857 1.02125
 O894 O 1.10510 1.13410 1.02118
 C895 C 1.08724 1.12642 1.02871
 C896 C 1.07570 1.13799 1.04670
 C897 C 1.08343 1.15825 1.05453
 H898 H 1.09768 1.16576 1.04701
 O899 O 0.92034 0.89182 1.02195
 O900 O 0.89472 0.86628 1.02203
 C901 C 0.91259 0.87402 1.02950
 C902 C 0.92415 0.86253 1.04753
 C903 C 0.91646 0.84225 1.05528
 H904 H 0.90258 0.83449 1.04734
 O905 O 1.07937 0.97817 1.10994
 O906 O 1.10502 0.97807 1.13546
 C907 C 1.08713 0.97064 1.12776
 C908 C 1.07541 0.95275 1.13930
 C909 C 1.08305 0.94473 1.15952
 H910 H 1.09762 0.95184 1.16678
 O911 O 0.92078 1.02205 1.10980
 O912 O 0.89521 1.02232 1.13539
 C913 C 0.91312 1.02965 1.12763
 C914 C 0.92495 1.04752 1.13911
 C915 C 0.91739 1.05557 1.15935
 H916 H 0.90286 1.04846 1.16670
 O917 O 0.97908 1.10902 1.07976
 O918 O 0.97918 1.13476 1.10519
 C919 C 0.97159 1.12690 1.08743
 C920 C 0.95358 1.13836 1.07579
 C921 C 0.94542 1.15845 1.08363
 H922 H 0.95251 1.16565 1.09825
 O923 O 1.02095 0.89132 1.08008
 O924 O 1.02083 0.86568 1.10559
 C925 C 1.02840 0.87345 1.08778
 C926 C 1.04637 0.86192 1.07614
 C927 C 1.05446 0.84181 1.08400
 H928 H 1.04733 0.83460 1.09858
 O929 O 1.10863 0.92047 1.02167
 O930 O 1.13405 0.89473 1.02172
 C931 C 1.12641 0.91262 1.02920
 C932 C 1.13796 0.92410 1.04725
 C933 C 1.15814 0.91625 1.05511
 H934 H 1.16583 0.90229 1.04726
 O935 O 0.89131 1.07976 1.02148
 O936 O 0.86591 1.10552 1.02142
 C937 C 0.87354 1.08766 1.02897
 C938 C 0.86199 1.07623 1.04704
 C939 C 0.84175 1.08403 1.05487
 H940 H 0.83425 1.09825 1.04731
 Cu941 Cu 0.99958 0.90897 1.09250
 Cu942 Cu 0.99936 0.87823 1.12317
 Cu943 Cu 1.00058 1.09145 1.09211
 Cu944 Cu 1.00077 1.12230 1.12268
 Cu945 Cu 0.90784 0.90929 1.00049
 Cu946 Cu 0.87704 0.87867 1.00057
 Cu947 Cu 1.09092 0.90819 1.00022
 Cu948 Cu 1.12140 0.87726 1.00028
 Cu949 Cu 0.90903 1.09187 0.99996
 Cu950 Cu 0.87861 1.12286 0.99988
 Cu951 Cu 1.09174 1.09081 0.99985
 Cu952 Cu 1.12256 1.12140 0.99975
 Cu953 Cu 0.90821 1.00075 1.09216
 Cu954 Cu 0.87742 1.00105 1.12279
 Cu955 Cu 1.09169 0.99951 1.09222
 Cu956 Cu 1.12256 0.99948 1.12277
 C957 C 1.05704 0.94286 1.12952
 H958 H 1.05137 0.94861 1.11370
 C959 C 1.07244 0.92714 1.17006
 C960 C 0.94328 1.05740 1.12926
 H961 H 0.94890 1.05162 1.11342
 C962 C 0.92801 1.07320 1.16981
 C963 C 0.87177 1.05810 1.05737
 H964 H 0.88753 1.05221 1.05164
 C965 C 0.83148 1.07406 1.07294
 C966 C 1.12827 0.94232 1.05748
 H967 H 1.11254 0.94825 1.05172
 C968 C 1.16850 0.92626 1.07312
 C969 C 1.05630 0.87159 1.05773
 H970 H 1.05048 0.88733 1.05188
 C971 C 1.07221 0.83133 1.07362
 C972 C 0.94369 1.12867 1.05735
 H973 H 0.94955 1.11294 1.05150
 C974 C 0.92770 1.16892 1.07321
 C975 C 0.94230 0.94357 1.12929
 H976 H 0.94817 0.94940 1.11356
 C977 C 0.92638 0.92766 1.16954
 C978 C 1.05772 1.05703 1.12910
 H979 H 1.05198 1.05138 1.11326
 C980 C 1.07334 1.07234 1.16973
 C981 C 0.94230 0.87230 1.05782
 H982 H 0.94813 0.88810 1.05213
 C983 C 0.92648 0.83190 1.07327
 C984 C 1.05756 1.12818 1.05700
 H985 H 1.05172 1.11239 1.05128
 C986 C 1.07342 1.16852 1.07257
 C987 C 0.87082 0.94393 1.05754
 H988 H 0.88665 0.94958 1.05179
 C989 C 0.83030 0.92858 1.07319
 C990 C 1.12868 1.05634 1.05722
 H991 H 1.11285 1.05059 1.05155
 C992 C 1.16918 1.07197 1.07261
 O993 O 0.97829 0.42086 0.39047
 O994 O 0.97810 0.39520 0.36496
 C995 C 0.97076 0.41314 0.37264
 C996 C 0.95287 0.42488 0.36110
 C997 C 0.94495 0.41726 0.34084
 H998 H 0.95230 0.40294 0.33330
 O999 O 1.02213 0.57916 0.39022
 O1000 O 1.02230 0.60475 0.36466
 C1001 C 1.02970 0.58687 0.37240
 C1002 C 1.04763 0.57515 0.36092
 C1003 C 1.05571 0.58285 0.34075
 H1004 H 1.04858 0.59739 0.33347
 O1005 O 0.89092 0.47933 0.42024
 O1006 O 0.86531 0.47941 0.39467
 C1007 C 0.87304 0.47190 0.41252
 C1008 C 0.86150 0.45393 0.42411
 C1009 C 0.84139 0.44592 0.41623
 H1010 H 0.83374 0.45362 0.40215
 O1011 O 1.10922 0.52075 0.42023
 O1012 O 1.13487 0.52063 0.39471
 C1013 C 1.12710 0.52819 0.41253
 C1014 C 1.13858 0.54623 0.42410
 C1015 C 1.15868 0.55432 0.41622
 H1016 H 1.16614 0.54697 0.40186
 O1017 O 0.92026 0.39174 0.47852
 O1018 O 0.89455 0.36629 0.47859
 C1019 C 0.91244 0.37392 0.47108
 C1020 C 0.92394 0.36229 0.45309
 C1021 C 0.91614 0.34204 0.44537
 H1022 H 0.90223 0.33436 0.45333
 O1023 O 1.07969 0.60870 0.47847
 O1024 O 1.10540 0.63416 0.47846
 C1025 C 1.08748 0.62653 0.47101
 C1026 C 1.07596 0.63811 0.45302
 C1027 C 1.08363 0.65845 0.44539
 H1028 H 1.09723 0.66630 0.45368
 O1029 O 0.92117 0.52193 0.39014
 O1030 O 0.89568 0.52206 0.36447
 C1031 C 0.91354 0.52946 0.37228
 C1032 C 0.92526 0.54741 0.36084
 C1033 C 0.91764 0.55541 0.34060
 H1034 H 0.90334 0.54806 0.33303
 O1035 O 1.07901 0.47799 0.39029
 O1036 O 1.10457 0.47778 0.36469
 C1037 C 1.08671 0.47037 0.37250
 C1038 C 1.07512 0.45229 0.36114
 C1039 C 1.08296 0.44414 0.34108
 H1040 H 1.09696 0.45185 0.33331
 O1041 O 1.02086 0.39079 0.42081
 O1042 O 1.02071 0.36500 0.39543
 C1043 C 1.02827 0.37287 0.41321
 C1044 C 1.04630 0.36142 0.42482
 C1045 C 1.05407 0.34113 0.41718
 H1046 H 1.04608 0.33329 0.40338
 O1047 O 0.97944 0.60925 0.42037
 O1048 O 0.97951 0.63496 0.39492
 C1049 C 0.97197 0.62713 0.41272
 C1050 C 0.95391 0.63855 0.42433
 C1051 C 0.94585 0.65869 0.41656
 H1052 H 0.95321 0.66620 0.40224
 O1053 O 0.89123 0.57957 0.47836
 O1054 O 0.86574 0.60524 0.47837
 C1055 C 0.87344 0.58740 0.47083
 C1056 C 0.86199 0.57596 0.45269
 C1057 C 0.84190 0.58389 0.44462
 H1058 H 0.83442 0.59817 0.45210
 O1059 O 1.10904 0.42070 0.47868
 O1060 O 1.13454 0.39505 0.47868
 C1061 C 1.12686 0.41292 0.47119
 C1062 C 1.13834 0.42439 0.45309
 C1063 C 1.15861 0.41667 0.44533
 H1064 H 1.16650 0.40308 0.45361
 O1065 O 0.97935 0.57931 0.39023
 O1066 O 0.97944 0.60490 0.36466
 C1067 C 0.97188 0.58708 0.37240
 C1068 C 0.95379 0.57560 0.36093
 C1069 C 0.94596 0.58334 0.34070
 H1070 H 0.95390 0.59720 0.33291
 O1071 O 1.02106 0.42044 0.39041
 O1072 O 1.02094 0.39477 0.36491
 C1073 C 1.02855 0.41258 0.37261
 C1074 C 1.04668 0.42401 0.36116
 C1075 C 1.05478 0.41608 0.34108
 H1076 H 1.04736 0.40176 0.33360
 O1077 O 1.10908 0.47792 0.42026
 O1078 O 1.13474 0.47774 0.39477
 C1079 C 1.12689 0.47030 0.41259
 C1080 C 1.13825 0.45225 0.42427
 C1081 C 1.15832 0.44402 0.41648
 H1082 H 1.16559 0.45110 0.40190
 O1083 O 0.89118 0.52212 0.42024
 O1084 O 0.86557 0.52226 0.39468
 C1085 C 0.87338 0.52972 0.41252
 C1086 C 0.86202 0.54780 0.42412
 C1087 C 0.84194 0.55596 0.41630
 H1088 H 0.83420 0.54830 0.40225
 O1089 O 0.92162 0.60926 0.47836
 O1090 O 0.89622 0.63501 0.47835
 C1091 C 0.91400 0.62713 0.47084
 C1092 C 0.92559 0.63851 0.45276
 C1093 C 0.91783 0.65867 0.44479
 H1094 H 0.90392 0.66646 0.45264
 O1095 O 1.07889 0.39071 0.47857
 O1096 O 1.10429 0.36495 0.47857
 C1097 C 1.08651 0.37282 0.47106
 C1098 C 1.07482 0.36139 0.45304
 C1099 C 1.08242 0.34113 0.44508
 H1100 H 1.09671 0.33357 0.45246
 O1101 O 1.07923 0.52079 0.39009
 O1102 O 1.10476 0.52062 0.36446
 C1103 C 1.08696 0.52820 0.37221
 C1104 C 1.07547 0.54630 0.36074
 C1105 C 1.08307 0.55400 0.34040
 H1106 H 1.09663 0.54571 0.33245
 O1107 O 0.92101 0.47912 0.39027
 O1108 O 0.89551 0.47921 0.36460
 C1109 C 0.91328 0.47162 0.37242
 C1110 C 0.92476 0.45348 0.36103
 C1111 C 0.91707 0.44562 0.34078
 H1112 H 0.90325 0.45356 0.33293
 O1113 O 1.02227 0.60909 0.42033
 O1114 O 1.02242 0.63480 0.39489
 C1115 C 1.02989 0.62691 0.41267
 C1116 C 1.04797 0.63821 0.42434
 C1117 C 1.05614 0.65834 0.41665
 H1118 H 1.04898 0.66571 0.40216
 O1119 O 0.97803 0.39093 0.42061
 O1120 O 0.97783 0.36514 0.39524
 C1121 C 0.97038 0.37309 0.41301
 C1122 C 0.95226 0.36186 0.42469
 C1123 C 0.94418 0.34163 0.41717
 H1124 H 0.95157 0.33392 0.40296
 O1125 O 1.10953 0.57843 0.47831
 O1126 O 1.13530 0.60381 0.47827
 C1127 C 1.12738 0.58606 0.47073
 C1128 C 1.13867 0.57453 0.45255
 C1129 C 1.15873 0.58239 0.44440
 H1130 H 1.16651 0.59637 0.45214
 O1131 O 0.89034 0.42190 0.47840
 O1132 O 0.86455 0.39653 0.47843
 C1133 C 0.87247 0.41426 0.47086
 C1134 C 0.86117 0.42579 0.45268
 C1135 C 0.84105 0.41801 0.44455
 H1136 H 0.83344 0.40379 0.45201
 Cu1137 Cu 0.99957 0.40833 0.40812
 Cu1138 Cu 0.99937 0.37743 0.37759
 Cu1139 Cu 1.00079 0.59164 0.40784
 Cu1140 Cu 1.00092 0.62244 0.37722
 Cu1141 Cu 0.90863 0.50062 0.40778
 Cu1142 Cu 0.87795 0.50075 0.37703
 Cu1143 Cu 1.09158 0.49939 0.40778
 Cu1144 Cu 1.12231 0.49919 0.37709
 C1145 C 0.94280 0.44313 0.37094
 H1146 H 0.94860 0.44889 0.38672
 C1147 C 0.92702 0.42750 0.33059
 C1148 C 1.05756 0.55680 0.37070
 H1149 H 1.05173 0.55106 0.38648
 C1150 C 1.07343 0.57238 0.33030
 C1151 C 0.87115 0.44388 0.44247
 H1152 H 0.88683 0.44975 0.44843
 C1153 C 0.83107 0.42794 0.42630
 C1154 C 1.12883 0.55632 0.44241
 H1155 H 1.11318 0.55039 0.44838
 C1156 C 1.16882 0.57245 0.42621
 C1157 C 0.94214 0.37196 0.44279
 H1158 H 0.94805 0.38773 0.44846
 C1159 C 0.92611 0.33160 0.42739
 C1160 C 1.05793 0.62829 0.44259
 H1161 H 1.05204 0.61253 0.44830
 C1162 C 1.07396 0.66866 0.42709
 C1163 C 0.94347 0.55749 0.37075
 H1164 H 0.94922 0.55164 0.38651
 C1165 C 0.92786 0.57340 0.33044
 C1166 C 1.05685 0.44225 0.37094
 H1167 H 1.05092 0.44824 0.38658
 C1168 C 1.07296 0.42600 0.33096
 C1169 C 1.05664 0.37131 0.44290
 H1170 H 1.05092 0.38710 0.44869
 C1171 C 1.07217 0.33090 0.42713
 C1172 C 0.94378 0.62869 0.44256
 H1173 H 0.94966 0.61298 0.44842
 C1174 C 0.92777 0.66884 0.42665
 C1175 C 0.87179 0.55779 0.44245
 H1176 H 0.88744 0.55180 0.44837
 C1177 C 0.83179 0.57403 0.42640
 C1178 C 1.12846 0.44239 0.44265
 H1179 H 1.11274 0.44831 0.44844
 C1180 C 1.16870 0.42623 0.42691
 O1181 O 1.02104 0.42096 0.60938
 O1182 O 1.02092 0.39535 0.63492
 C1183 C 1.02849 0.41318 0.62722
 C1184 C 1.04655 0.42467 0.63875
 C1185 C 1.05427 0.41696 0.65903
 H1186 H 1.04625 0.40313 0.66680
 O1187 O 0.97925 0.57969 0.60936
 O1188 O 0.97938 0.60535 0.63487
 C1189 C 0.97180 0.58752 0.62718
 C1190 C 0.95373 0.57606 0.63870
 C1191 C 0.94597 0.58382 0.65896
 H1192 H 0.95393 0.59769 0.66671
 O1193 O 0.89142 0.52205 0.57949
 O1194 O 0.86576 0.52225 0.60499
 C1195 C 0.87358 0.52963 0.58712
 C1196 C 0.86217 0.54760 0.57541
 C1197 C 0.84197 0.55558 0.58309
 H1198 H 0.83419 0.54782 0.59705
 O1199 O 1.10919 0.47819 0.57966
 O1200 O 1.13486 0.47807 0.60515
 C1201 C 1.12702 0.47061 0.58732
 C1202 C 1.13838 0.45256 0.57566
 C1203 C 1.15860 0.44455 0.58329
 H1204 H 1.16622 0.45195 0.59754
 O1205 O 1.07879 0.39072 0.52141
 O1206 O 1.10419 0.36497 0.52144
 C1207 C 1.08640 0.37284 0.52893
 C1208 C 1.07476 0.36146 0.54698
 C1209 C 1.08249 0.34130 0.55504
 H1210 H 1.09677 0.33374 0.54764
 O1211 O 0.92153 0.60940 0.52119
 O1212 O 0.89613 0.63516 0.52119
 C1213 C 0.91392 0.62730 0.52868
 C1214 C 0.92554 0.63874 0.54671
 C1215 C 0.91785 0.65896 0.55460
 H1216 H 0.90394 0.66675 0.54675
 O1217 O 0.92129 0.47937 0.60985
 O1218 O 0.89576 0.47955 0.63548
 C1219 C 0.91357 0.47197 0.62773
 C1220 C 0.92502 0.45386 0.63917
 C1221 C 0.91737 0.44609 0.65947
 H1222 H 0.90384 0.45440 0.66743
 O1223 O 1.07947 0.52124 0.60967
 O1224 O 1.10500 0.52119 0.63530
 C1225 C 1.08723 0.52879 0.62748
 C1226 C 1.07577 0.54699 0.63881
 C1227 C 1.08352 0.55508 0.65897
 H1228 H 1.09774 0.54762 0.66657
 O1229 O 0.97808 0.39124 0.57922
 O1230 O 0.97793 0.36550 0.60463
 C1231 C 0.97045 0.37342 0.58686
 C1232 C 0.95226 0.36220 0.57528
 C1233 C 0.94403 0.34212 0.58305
 H1234 H 0.95139 0.33452 0.59733
 O1235 O 1.02216 0.60941 0.57918
 O1236 O 1.02231 0.63521 0.60455
 C1237 C 1.02975 0.62728 0.58676
 C1238 C 1.04778 0.63857 0.57503
 C1239 C 1.05570 0.65893 0.58241
 H1240 H 1.04824 0.66668 0.59656
 O1241 O 0.89044 0.42216 0.52128
 O1242 O 0.86464 0.39681 0.52131
 C1243 C 0.87257 0.41457 0.52882
 C1244 C 0.86130 0.42608 0.54703
 C1245 C 0.84112 0.41837 0.55499
 H1246 H 0.83311 0.40482 0.54675
 O1247 O 1.10959 0.57837 0.52122
 O1248 O 1.13537 0.60374 0.52117
 C1249 C 1.12748 0.58598 0.52872
 C1250 C 1.13884 0.57444 0.54684
 C1251 C 1.15904 0.58219 0.55476
 H1252 H 1.16687 0.59603 0.54684
 O1253 O 1.02204 0.57939 0.60923
 O1254 O 1.02222 0.60507 0.63472
 C1255 C 1.02961 0.58715 0.62703
 C1256 C 1.04758 0.57553 0.63854
 C1257 C 1.05551 0.58331 0.65872
 H1258 H 1.04771 0.59729 0.66643
 O1259 O 0.97825 0.42097 0.60954
 O1260 O 0.97808 0.39534 0.63506
 C1261 C 0.97068 0.41323 0.62735
 C1262 C 0.95276 0.42493 0.63888
 C1263 C 0.94462 0.41714 0.65899
 H1264 H 0.95168 0.40253 0.66619
 O1265 O 1.10939 0.52095 0.57954
 O1266 O 1.13506 0.52093 0.60503
 C1267 C 1.12729 0.52840 0.58718
 C1268 C 1.13879 0.54633 0.57546
 C1269 C 1.15899 0.55435 0.58315
 H1270 H 1.16649 0.54704 0.59751
 O1271 O 0.89117 0.47925 0.57989
 O1272 O 0.86553 0.47939 0.60541
 C1273 C 0.87330 0.47180 0.58762
 C1274 C 0.86177 0.45381 0.57600
 C1275 C 0.84176 0.44558 0.58397
 H1276 H 0.83464 0.45261 0.59865
 O1277 O 1.07981 0.60869 0.52125
 O1278 O 1.10552 0.63414 0.52121
 C1279 C 1.08763 0.62651 0.52870
 C1280 C 1.07610 0.63815 0.54664
 C1281 C 1.08373 0.65853 0.55420
 H1282 H 1.09756 0.66626 0.54616
 O1283 O 0.92019 0.39182 0.52135
 O1284 O 0.89447 0.36639 0.52142
 C1285 C 0.91235 0.37406 0.52890
 C1286 C 0.92382 0.36255 0.54698
 C1287 C 0.91586 0.34247 0.55498
 H1288 H 0.90182 0.33484 0.54721
 O1289 O 1.07917 0.47841 0.60972
 O1290 O 1.10469 0.47826 0.63536
 C1291 C 1.08682 0.47085 0.62757
 C1292 C 1.07508 0.45287 0.63897
 C1293 C 1.08261 0.44487 0.65925
 H1294 H 1.09687 0.45223 0.66688
 O1295 O 0.92125 0.52216 0.60974
 O1296 O 0.89572 0.52239 0.63537
 C1297 C 0.91357 0.52979 0.62755
 C1298 C 0.92525 0.54783 0.63891
 C1299 C 0.91770 0.55584 0.65917
 H1300 H 0.90345 0.54846 0.66681
 O1301 O 0.97936 0.60950 0.57911
 O1302 O 0.97946 0.63527 0.60451
 C1303 C 0.97191 0.62741 0.58673
 C1304 C 0.95390 0.63884 0.57508
 C1305 C 0.94592 0.65906 0.58277
 H1306 H 0.95334 0.66662 0.59704
 O1307 O 1.02092 0.39094 0.57929
 O1308 O 1.02082 0.36522 0.60473
 C1309 C 1.02837 0.37305 0.58694
 C1310 C 1.04642 0.36159 0.57536
 C1311 C 1.05439 0.34144 0.58317
 H1312 H 1.04660 0.33370 0.59714
 O1313 O 1.10898 0.42060 0.52153
 O1314 O 1.13449 0.39495 0.52155
 C1315 C 1.12677 0.41279 0.52908
 C1316 C 1.13822 0.42427 0.54720
 C1317 C 1.15842 0.41649 0.55509
 H1318 H 1.16617 0.40256 0.54722
 O1319 O 0.89134 0.57949 0.52123
 O1320 O 0.86585 0.60514 0.52125
 C1321 C 0.87356 0.58729 0.52877
 C1322 C 0.86211 0.57580 0.54687
 C1323 C 0.84192 0.58358 0.55484
 H1324 H 0.83438 0.59781 0.54734
 Cu1325 Cu 0.99958 0.40859 0.59180
 Cu1326 Cu 0.99944 0.37776 0.62238
 Cu1327 Cu 1.00069 0.59193 0.59167
 Cu1328 Cu 1.00086 0.62281 0.62223
 Cu1329 Cu 0.90788 0.40946 0.49987
 Cu1330 Cu 0.87696 0.37897 0.49995
 Cu1331 Cu 1.09138 0.40825 0.50004
 Cu1332 Cu 1.12194 0.37741 0.50005
 Cu1333 Cu 0.90896 0.59184 0.49979
 Cu1334 Cu 0.87843 0.62272 0.49980
 Cu1335 Cu 1.09209 0.59098 0.49981
 Cu1336 Cu 1.12301 0.62148 0.49978
 Cu1337 Cu 0.90885 0.50069 0.59219
 Cu1338 Cu 0.87811 0.50093 0.62288
 Cu1339 Cu 1.09174 0.49970 0.59211
 Cu1340 Cu 1.12247 0.49960 0.62279
 C1341 C 1.05692 0.44277 0.62897
 H1342 H 1.05124 0.44861 0.61318
 C1343 C 1.07232 0.42689 0.66938
 C1344 C 0.94340 0.55793 0.62893
 H1345 H 0.94911 0.55206 0.61315
 C1346 C 0.92794 0.57385 0.66929
 C1347 C 0.87198 0.55768 0.55715
 H1348 H 0.88772 0.55181 0.55134
 C1349 C 0.83177 0.57360 0.57298
 C1350 C 1.12844 0.44244 0.55747
 H1351 H 1.11270 0.44832 0.55170
 C1352 C 1.16871 0.42649 0.57313
 C1353 C 1.05659 0.37136 0.55713
 H1354 H 1.05075 0.38707 0.55123
 C1355 C 1.07245 0.33120 0.57316
 C1356 C 0.94372 0.62892 0.55692
 H1357 H 0.94954 0.61316 0.55113
 C1358 C 0.92786 0.66920 0.57267
 C1359 C 0.94292 0.44336 0.62918
 H1360 H 0.94879 0.44916 0.61344
 C1361 C 0.92692 0.42762 0.66947
 C1362 C 1.05767 0.55723 0.62884
 H1363 H 1.05183 0.55132 0.61312
 C1364 C 1.07352 0.57327 0.66902
 C1365 C 0.94216 0.37217 0.55711
 H1366 H 0.94819 0.38782 0.55123
 C1367 C 0.92581 0.33216 0.57304
 C1368 C 1.05798 0.62842 0.55702
 H1369 H 1.05220 0.61257 0.55146
 C1370 C 1.07368 0.66903 0.57210
 C1371 C 0.87135 0.44400 0.55746
 H1372 H 0.88702 0.44991 0.55152
 C1373 C 0.83128 0.42784 0.57359
 C1374 C 1.12896 0.55637 0.55717
 H1375 H 1.11322 0.55052 0.55135
 C1376 C 1.16919 0.57232 0.57294
 O1377 O 0.47777 0.92131 0.39068
 O1378 O 0.47763 0.89573 0.36509
 C1379 C 0.47025 0.91362 0.37283
 C1380 C 0.45230 0.92527 0.36133
 C1381 C 0.44454 0.91767 0.34102
 H1382 H 0.45249 0.90383 0.33321
 O1383 O 0.52179 1.07895 0.39046
 O1384 O 0.52199 1.10444 0.36479
 C1385 C 0.52939 1.08660 0.37262
 C1386 C 0.54740 1.07489 0.36123
 C1387 C 0.55548 1.08258 0.34106
 H1388 H 0.54818 1.09692 0.33352
 O1389 O 0.39045 0.97928 0.42093
 O1390 O 0.36471 0.97928 0.39550
 C1391 C 0.37256 0.97179 0.41331
 C1392 C 0.36116 0.95377 0.42500
 C1393 C 0.34096 0.94576 0.41731
 H1394 H 0.33337 0.95316 0.40304
 O1395 O 0.60936 1.02072 0.42051
 O1396 O 0.63497 1.02055 0.39496
 C1397 C 0.62723 1.02813 0.41277
 C1398 C 0.63876 1.04614 0.42432
 C1399 C 0.65909 1.05381 0.41669
 H1400 H 0.66689 1.04580 0.40288
 O1401 O 0.42031 0.89116 0.47901
 O1402 O 0.39467 0.86564 0.47906
 C1403 C 0.41251 0.87334 0.47152
 C1404 C 0.42394 0.86189 0.45338
 C1405 C 0.41618 0.84166 0.44555
 H1406 H 0.40258 0.83377 0.45380
 O1407 O 0.57964 1.10864 0.47835
 O1408 O 0.60523 1.13421 0.47829
 C1409 C 0.58735 1.12648 0.47085
 C1410 C 0.57571 1.13802 0.45290
 C1411 C 0.58334 1.15833 0.44515
 H1412 H 0.59724 1.16610 0.45306
 O1413 O 0.42048 1.02192 0.39068
 O1414 O 0.39488 1.02204 0.36512
 C1415 C 0.41277 1.02946 0.37285
 C1416 C 0.42453 1.04735 0.36133
 C1417 C 0.41686 1.05536 0.34112
 H1418 H 0.40230 1.04823 0.33386
 O1419 O 0.57918 0.97791 0.39061
 O1420 O 0.60468 0.97768 0.36495
 C1421 C 0.58683 0.97028 0.37279
 C1422 C 0.57507 0.95232 0.36138
 C1423 C 0.58269 0.94421 0.34119
 H1424 H 0.59721 0.95132 0.33384
 O1425 O 0.52037 0.89106 0.42085
 O1426 O 0.52023 0.86538 0.39536
 C1427 C 0.52777 0.87316 0.41318
 C1428 C 0.54577 0.86163 0.42477
 C1429 C 0.55350 0.84133 0.41708
 H1430 H 0.54553 0.83356 0.40323
 O1431 O 0.47893 1.10916 0.42027
 O1432 O 0.47904 1.13474 0.39469
 C1433 C 0.47146 1.12700 0.41250
 C1434 C 0.45337 1.13848 0.42400
 C1435 C 0.44530 1.15857 0.41609
 H1436 H 0.45270 1.16603 0.40176
 O1437 O 0.39096 1.07961 0.47863
 O1438 O 0.36549 1.10529 0.47870
 C1439 C 0.37309 1.08737 0.47125
 C1440 C 0.36144 1.07580 0.45332
 C1441 C 0.34107 1.08344 0.44574
 H1442 H 0.33324 1.09704 0.45407
 O1443 O 0.60881 0.92042 0.47856
 O1444 O 0.63427 0.89471 0.47854
 C1445 C 0.62662 0.91260 0.47108
 C1446 C 0.63820 0.92414 0.45311
 C1447 C 0.65855 0.91652 0.44546
 H1448 H 0.66632 0.90267 0.45344
 O1449 O 0.47899 1.07896 0.39038
 O1450 O 0.47915 1.10441 0.36467
 C1451 C 0.47157 1.08662 0.37248
 C1452 C 0.45347 1.07510 0.36104
 C1453 C 0.44582 1.08261 0.34065
 H1454 H 0.45418 1.09607 0.33264
 O1455 O 0.52057 0.92093 0.39060
 O1456 O 0.52042 0.89535 0.36502
 C1457 C 0.52801 0.91315 0.37276
 C1458 C 0.54614 0.92457 0.36129
 C1459 C 0.55375 0.91695 0.34091
 H1460 H 0.54536 0.90345 0.33297
 O1461 O 0.60924 0.97796 0.42062
 O1462 O 0.63487 0.97774 0.39509
 C1463 C 0.62707 0.97038 0.41296
 C1464 C 0.63847 0.95243 0.42470
 C1465 C 0.65882 0.94456 0.41727
 H1466 H 0.66652 0.95202 0.40309
 O1467 O 0.39040 1.02210 0.42062
 O1468 O 0.36466 1.02220 0.39520
 C1469 C 0.37257 1.02971 0.41297
 C1470 C 0.36128 1.04780 0.42464
 C1471 C 0.34112 1.05596 0.41700
 H1472 H 0.33373 1.04879 0.40252
 O1473 O 0.42118 1.10949 0.47819
 O1474 O 0.39580 1.13526 0.47820
 C1475 C 0.41352 1.12732 0.47061
 C1476 C 0.42501 1.13857 0.45238
 C1477 C 0.41717 1.15863 0.44421
 H1478 H 0.40318 1.16642 0.45193
 O1479 O 0.57842 0.89070 0.47858
 O1480 O 0.60377 0.86489 0.47851
 C1481 C 0.58598 0.87280 0.47105
 C1482 C 0.57424 0.86144 0.45303
 C1483 C 0.58178 0.84117 0.44505
 H1484 H 0.59604 0.83356 0.45242
 O1485 O 0.57927 1.02074 0.39055
 O1486 O 0.60476 1.02057 0.36488
 C1487 C 0.58699 1.02818 0.37269
 C1488 C 0.57553 1.04631 0.36127
 C1489 C 0.58334 1.05421 0.34109
 H1490 H 0.59721 1.04628 0.33330
 O1491 O 0.42011 0.97915 0.39051
 O1492 O 0.39452 0.97918 0.36494
 C1493 C 0.41235 0.97165 0.37267
 C1494 C 0.42394 0.95361 0.36121
 C1495 C 0.41634 0.94570 0.34092
 H1496 H 0.40210 0.95315 0.33333
 O1497 O 0.52175 1.10900 0.42051
 O1498 O 0.52192 1.13461 0.39497
 C1499 C 0.52932 1.12683 0.41284
 C1500 C 0.54733 1.13824 0.42454
 C1501 C 0.55523 1.15854 0.41702
 H1502 H 0.54776 1.16620 0.40282
 O1503 O 0.47752 0.89118 0.42063
 O1504 O 0.47736 0.86552 0.39513
 C1505 C 0.46988 0.87338 0.41292
 C1506 C 0.45180 0.86203 0.42455
 C1507 C 0.44353 0.84199 0.41669
 H1508 H 0.45060 0.83476 0.40209
 O1509 O 0.60973 1.07863 0.47818
 O1510 O 0.63543 1.10408 0.47808
 C1511 C 0.62757 1.08628 0.47061
 C1512 C 0.63895 1.07460 0.45258
 C1513 C 0.65926 1.08209 0.44467
 H1514 H 0.66691 1.09630 0.45211
 O1515 O 0.39054 0.92147 0.47900
 O1516 O 0.36480 0.89605 0.47903
 C1517 C 0.37266 0.91383 0.47149
 C1518 C 0.36126 0.92541 0.45340
 C1519 C 0.34109 0.91765 0.44544
 H1520 H 0.33333 0.90369 0.45323
 Cu1521 Cu 0.49907 0.90868 0.40826
 Cu1522 Cu 0.49890 0.87791 0.37759
 Cu1523 Cu 0.50035 1.09147 0.40797
 Cu1524 Cu 0.50054 1.12212 0.37721
 Cu1525 Cu 0.40792 1.00060 0.40823
 Cu1526 Cu 0.37710 1.00067 0.37764
 Cu1527 Cu 0.59170 0.99934 0.40813
 Cu1528 Cu 0.62238 0.99912 0.37738
 C1529 C 0.44205 0.94340 0.37117
 H1530 H 0.44777 0.94916 0.38698
 C1531 C 0.42652 0.92769 0.33073
 C1532 C 0.55742 1.05663 0.37110
 H1533 H 0.55151 1.05083 0.38682
 C1534 C 0.57347 1.07237 0.33089
 C1535 C 0.37107 0.94361 0.44319
 H1536 H 0.38680 0.94948 0.44901
 C1537 C 0.33086 0.92766 0.42738
 C1538 C 0.62894 1.05650 0.44241
 H1539 H 0.61312 1.05084 0.44819
 C1540 C 0.66945 1.07181 0.42671
 C1541 C 0.44195 0.87178 0.44296
 H1542 H 0.44791 0.88746 0.44881
 C1543 C 0.42573 0.83161 0.42709
 C1544 C 0.55755 1.12823 0.44262
 H1545 H 0.55178 1.11241 0.44829
 C1546 C 0.57326 1.16868 0.42719
 C1547 C 0.44290 1.05727 0.37109
 H1548 H 0.44861 1.05151 0.38690
 C1549 C 0.42741 1.07298 0.33060
 C1550 C 0.55673 0.94245 0.37123
 H1551 H 0.55105 0.94829 0.38703
 C1552 C 0.57211 0.92654 0.33076
 C1553 C 0.55610 0.87143 0.44289
 H1554 H 0.55042 0.88723 0.44872
 C1555 C 0.57154 0.83101 0.42705
 C1556 C 0.44324 1.12873 0.44227
 H1557 H 0.44916 1.11309 0.44827
 C1558 C 0.42716 1.16872 0.42605
 C1559 C 0.37124 1.05777 0.44287
 H1560 H 0.38702 1.05190 0.44854
 C1561 C 0.33081 1.07377 0.42746
 C1562 C 0.62842 0.94224 0.44276
 H1563 H 0.61257 0.94800 0.44837
 C1564 C 0.66896 0.92659 0.42753
 O1565 O 0.52128 0.92113 0.60948
 O1566 O 0.52119 0.89565 0.63516
 C1567 C 0.52877 0.91342 0.62734
 C1568 C 0.54688 0.92492 0.63875
 C1569 C 0.55475 0.91720 0.65898
 H1570 H 0.54682 0.90336 0.66680
 O1571 O 0.47909 1.07927 0.60932
 O1572 O 0.47926 1.10487 0.63489
 C1573 C 0.47169 1.08704 0.62718
 C1574 C 0.45369 1.07552 0.63874
 C1575 C 0.44604 1.08316 0.65909
 H1576 H 0.45409 1.09694 0.66690
 O1577 O 0.39110 1.02219 0.57935
 O1578 O 0.36546 1.02240 0.60488
 C1579 C 0.37330 1.02982 0.58705
 C1580 C 0.36196 1.04790 0.57544
 C1581 C 0.34169 1.05576 0.58302
 H1582 H 0.33381 1.04784 0.59684
 O1583 O 0.60933 0.97841 0.57926
 O1584 O 0.63505 0.97826 0.60470
 C1585 C 0.62716 0.97080 0.58689
 C1586 C 0.63844 0.95271 0.57521
 C1587 C 0.65871 0.94471 0.58273
 H1588 H 0.66640 0.95214 0.59692
 O1589 O 0.57858 0.89063 0.52144
 O1590 O 0.60395 0.86484 0.52139
 C1591 C 0.58621 0.87275 0.52895
 C1592 C 0.57470 0.86142 0.54710
 C1593 C 0.58247 0.84128 0.55511
 H1594 H 0.59635 0.83345 0.54724
 O1595 O 0.42159 1.10967 0.52105
 O1596 O 0.39623 1.13545 0.52108
 C1597 C 0.41404 1.12759 0.52852
 C1598 C 0.42567 1.13898 0.54658
 C1599 C 0.41803 1.15923 0.55445
 H1600 H 0.40445 1.16719 0.54622
 O1601 O 0.42073 0.97915 0.60943
 O1602 O 0.39520 0.97929 0.63506
 C1603 C 0.41298 0.97169 0.62727
 C1604 C 0.42450 0.95361 0.63873
 C1605 C 0.41671 0.94563 0.65891
 H1606 H 0.40243 0.95307 0.66642
 O1607 O 0.57960 1.02133 0.60937
 O1608 O 0.60516 1.02128 0.63498
 C1609 C 0.58734 1.02882 0.62721
 C1610 C 0.57578 1.04689 0.63864
 C1611 C 0.58345 1.05484 0.65888
 H1612 H 0.59767 1.04737 0.66648
 O1613 O 0.47833 0.89120 0.57949
 O1614 O 0.47825 0.86561 0.60506
 C1615 C 0.47077 0.87339 0.58722
 C1616 C 0.45268 0.86199 0.57567
 C1617 C 0.44477 0.84178 0.58339
 H1618 H 0.45265 0.83398 0.59728
 O1619 O 0.52193 1.10900 0.57900
 O1620 O 0.52210 1.13471 0.60446
 C1621 C 0.52956 1.12681 0.58665
 C1622 C 0.54774 1.13807 0.57510
 C1623 C 0.55590 1.15813 0.58294
 H1624 H 0.54812 1.16596 0.59688
 O1625 O 0.39043 0.92132 0.52187
 O1626 O 0.36468 0.89591 0.52194
 C1627 C 0.37257 0.91369 0.52943
 C1628 C 0.36118 0.92540 0.54744
 C1629 C 0.34095 0.91781 0.55547
 H1630 H 0.33356 0.90335 0.54825
 O1631 O 0.60980 1.07844 0.52100
 O1632 O 0.63551 1.10389 0.52092
 C1633 C 0.62771 1.08607 0.52843
 C1634 C 0.63918 1.07450 0.54648
 C1635 C 0.65952 1.08207 0.55418
 H1636 H 0.66746 1.09563 0.54591
 O1637 O 0.52188 1.07918 0.60924
 O1638 O 0.52206 1.10480 0.63480
 C1639 C 0.52946 1.08692 0.62706
 C1640 C 0.54748 1.07531 0.63852
 C1641 C 0.55537 1.08300 0.65875
 H1642 H 0.54755 1.09694 0.66652
 O1643 O 0.47845 0.92126 0.60951
 O1644 O 0.47833 0.89577 0.63518
 C1645 C 0.47088 0.91360 0.62736
 C1646 C 0.45283 0.92522 0.63874
 C1647 C 0.44481 0.91749 0.65891
 H1648 H 0.45258 0.90354 0.66670
 O1649 O 0.60961 1.02121 0.57934
 O1650 O 0.63531 1.02116 0.60480
 C1651 C 0.62750 1.02867 0.58699
 C1652 C 0.63899 1.04661 0.57528
 C1653 C 0.65917 1.05468 0.58300
 H1654 H 0.66646 1.04753 0.59754
 O1655 O 0.39068 0.97941 0.57937
 O1656 O 0.36503 0.97958 0.60488
 C1657 C 0.37275 0.97206 0.58703
 C1658 C 0.36118 0.95411 0.57543
 C1659 C 0.34077 0.94655 0.58295
 H1660 H 0.33285 0.95488 0.59650
 O1661 O 0.57991 1.10865 0.52119
 O1662 O 0.60552 1.13420 0.52116
 C1663 C 0.58770 1.12645 0.52872
 C1664 C 0.57619 1.13791 0.54682
 C1665 C 0.58415 1.15796 0.55496
 H1666 H 0.59855 1.16535 0.54763
 O1667 O 0.42041 0.89123 0.52181
 O1668 O 0.39477 0.86570 0.52190
 C1669 C 0.41265 0.87342 0.52936
 C1670 C 0.42426 0.86196 0.54737
 C1671 C 0.41656 0.84175 0.55535
 H1672 H 0.40227 0.83421 0.54794
 O1673 O 0.57946 0.97857 0.60944
 O1674 O 0.60504 0.97842 0.63503
 C1675 C 0.58715 0.97103 0.62728
 C1676 C 0.57544 0.95309 0.63876
 C1677 C 0.58309 0.94511 0.65899
 H1678 H 0.59740 0.95246 0.66653
 O1679 O 0.42097 1.02194 0.60955
 O1680 O 0.39546 1.02213 0.63520
 C1681 C 0.41334 1.02948 0.62742
 C1682 C 0.42512 1.04738 0.63888
 C1683 C 0.41766 1.05529 0.65921
 H1684 H 0.40339 1.04792 0.66683
 O1685 O 0.47906 1.10932 0.57927
 O1686 O 0.47920 1.13501 0.60475
 C1687 C 0.47160 1.12719 0.58697
 C1688 C 0.45358 1.13868 0.57537
 C1689 C 0.44539 1.15873 0.58329
 H1690 H 0.45250 1.16590 0.59791
 O1691 O 0.52112 0.89094 0.57956
 O1692 O 0.52108 0.86536 0.60513
 C1693 C 0.52857 0.87308 0.58728
 C1694 C 0.54653 0.86155 0.57565
 C1695 C 0.55458 0.84140 0.58345
 H1696 H 0.54725 0.83395 0.59783
 O1697 O 0.60870 0.92058 0.52137
 O1698 O 0.63416 0.89489 0.52136
 C1699 C 0.62650 0.91278 0.52885
 C1700 C 0.63808 0.92433 0.54685
 C1701 C 0.65835 0.91660 0.55458
 H1702 H 0.66606 0.90268 0.54666
 O1703 O 0.39122 1.07995 0.52142
 O1704 O 0.36575 1.10564 0.52150
 C1705 C 0.37346 1.08779 0.52901
 C1706 C 0.36201 1.07627 0.54710
 C1707 C 0.34175 1.08395 0.55498
 H1708 H 0.33421 1.09820 0.54751
 Cu1709 Cu 0.49981 0.90869 0.59195
 Cu1710 Cu 0.49970 0.87804 0.62272
 Cu1711 Cu 0.50046 1.09163 0.59165
 Cu1712 Cu 0.50067 1.12244 0.62227
 Cu1713 Cu 0.40799 0.90884 0.50043
 Cu1714 Cu 0.37714 0.87828 0.50048
 Cu1715 Cu 0.59108 0.90815 0.49998
 Cu1716 Cu 0.62158 0.87724 0.49994
 Cu1717 Cu 0.40879 1.09211 0.49982
 Cu1718 Cu 0.37828 1.12301 0.49988
 Cu1719 Cu 0.59221 1.09104 0.49968
 Cu1720 Cu 0.62299 1.12166 0.49961
 Cu1721 Cu 0.40844 1.00065 0.59187
 Cu1722 Cu 0.37771 1.00086 0.62257
 Cu1723 Cu 0.59194 0.99989 0.59180
 Cu1724 Cu 0.62273 0.99977 0.62244
 C1725 C 0.55720 0.94301 0.62889
 H1726 H 0.55143 0.94885 0.61313
 C1727 C 0.57287 0.92714 0.66919
 C1728 C 0.44327 1.05749 0.62890
 H1729 H 0.44889 1.05171 0.61306
 C1730 C 0.42800 1.07320 0.66943
 C1731 C 0.37188 1.05813 0.55733
 H1732 H 0.38766 1.05233 0.55157
 C1733 C 0.33149 1.07381 0.57297
 C1734 C 0.62837 0.94252 0.55714
 H1735 H 0.61259 0.94838 0.55146
 C1736 C 0.66876 0.92663 0.57254
 C1737 C 0.55658 0.87131 0.55734
 H1738 H 0.55071 0.88701 0.55145
 C1739 C 0.57259 0.83119 0.57332
 C1740 C 0.44365 1.12900 0.55695
 H1741 H 0.44952 1.11329 0.55107
 C1742 C 0.42760 1.16918 0.57295
 C1743 C 0.44269 0.94342 0.62890
 H1744 H 0.44858 0.94926 0.61318
 C1745 C 0.42673 0.92754 0.66908
 C1746 C 0.55766 1.05711 0.62871
 H1747 H 0.55186 1.05129 0.61295
 C1748 C 0.57338 1.07292 0.66902
 C1749 C 0.44245 0.87183 0.55752
 H1750 H 0.44827 0.88757 0.55169
 C1751 C 0.42668 0.83157 0.57339
 C1752 C 0.55786 1.12820 0.55689
 H1753 H 0.55185 1.11257 0.55095
 C1754 C 0.57414 1.16816 0.57305
 C1755 C 0.37110 0.94362 0.55748
 H1756 H 0.38693 0.94926 0.55170
 C1757 C 0.33055 0.92829 0.57321
 C1758 C 0.62921 1.05657 0.55694
 H1759 H 0.61342 1.05077 0.55120
 C1760 C 0.66960 1.07242 0.57257
 O1761 O 0.47826 0.42081 0.89065
 O1762 O 0.47816 0.39521 0.86508
 C1763 C 0.47079 0.41313 0.87278
 C1764 C 0.45285 0.42479 0.86126
 C1765 C 0.44523 0.41733 0.84085
 H1766 H 0.45356 0.40382 0.83288
 O1767 O 0.52180 0.57846 0.89029
 O1768 O 0.52194 0.60387 0.86454
 C1769 C 0.52936 0.58606 0.87241
 C1770 C 0.54738 0.57437 0.86104
 C1771 C 0.55544 0.58203 0.84085
 H1772 H 0.54807 0.59630 0.83325
 O1773 O 0.39043 0.47850 0.92089
 O1774 O 0.36478 0.47857 0.89538
 C1775 C 0.37255 0.47106 0.91320
 C1776 C 0.36107 0.45305 0.92478
 C1777 C 0.34091 0.44510 0.91698
 H1778 H 0.33317 0.45293 0.90303
 O1779 O 0.60936 0.52041 0.92073
 O1780 O 0.63505 0.52023 0.89526
 C1781 C 0.62727 0.52780 0.91306
 C1782 C 0.63878 0.54581 0.92463
 C1783 C 0.65904 0.55358 0.91693
 H1784 H 0.66681 0.54566 0.90304
 O1785 O 0.42041 0.39094 0.97880
 O1786 O 0.39477 0.36541 0.97887
 C1787 C 0.41264 0.37310 0.97135
 C1788 C 0.42416 0.36157 0.95331
 C1789 C 0.41656 0.34121 0.94568
 H1790 H 0.40299 0.33332 0.95398
 O1791 O 0.57970 0.60855 0.97822
 O1792 O 0.60537 0.63404 0.97813
 C1793 C 0.58751 0.62632 0.97064
 C1794 C 0.57595 0.63774 0.95256
 C1795 C 0.58363 0.65797 0.94461
 H1796 H 0.59787 0.66554 0.95208
 O1797 O 0.42062 0.52112 0.89075
 O1798 O 0.39505 0.52126 0.86515
 C1799 C 0.41294 0.52866 0.87290
 C1800 C 0.42466 0.54658 0.86140
 C1801 C 0.41694 0.55461 0.84122
 H1802 H 0.40257 0.54730 0.83373
 O1803 O 0.57921 0.47772 0.89065
 O1804 O 0.60477 0.47751 0.86505
 C1805 C 0.58689 0.47015 0.87281
 C1806 C 0.57517 0.45220 0.86136
 C1807 C 0.58276 0.44424 0.84111
 H1808 H 0.59703 0.45162 0.83352
 O1809 O 0.52071 0.39053 0.92095
 O1810 O 0.52067 0.36481 0.89550
 C1811 C 0.52817 0.37263 0.91332
 C1812 C 0.54618 0.36120 0.92497
 C1813 C 0.55432 0.34110 0.91715
 H1814 H 0.54700 0.33359 0.90280
 O1815 O 0.47915 0.60886 0.92020
 O1816 O 0.47928 0.63436 0.89454
 C1817 C 0.47174 0.62671 0.91240
 C1818 C 0.45374 0.63830 0.92390
 C1819 C 0.44585 0.65845 0.91600
 H1820 H 0.45370 0.66610 0.90200
 O1821 O 0.39121 0.57972 0.97816
 O1822 O 0.36573 0.60539 0.97806
 C1823 C 0.37340 0.58749 0.97062
 C1824 C 0.36184 0.57582 0.95268
 C1825 C 0.34166 0.58357 0.94468
 H1826 H 0.33443 0.59812 0.95186
 O1827 O 0.60882 0.42020 0.97895
 O1828 O 0.63431 0.39453 0.97904
 C1829 C 0.62662 0.41236 0.97146
 C1830 C 0.63812 0.42376 0.95334
 C1831 C 0.65827 0.41585 0.94544
 H1832 H 0.66598 0.40194 0.95336
 O1833 O 0.47896 0.57849 0.89050
 O1834 O 0.47908 0.60390 0.86475
 C1835 C 0.47147 0.58616 0.87264
 C1836 C 0.45328 0.57469 0.86130
 C1837 C 0.44534 0.58245 0.84112
 H1838 H 0.45325 0.59629 0.83328
 O1839 O 0.52103 0.42035 0.89070
 O1840 O 0.52096 0.39474 0.86514
 C1841 C 0.52854 0.41254 0.87289
 C1842 C 0.54666 0.42400 0.86145
 C1843 C 0.55449 0.41627 0.84120
 H1844 H 0.54657 0.40240 0.83340
 O1845 O 0.60919 0.47761 0.92076
 O1846 O 0.63486 0.47738 0.89528
 C1847 C 0.62700 0.46997 0.91311
 C1848 C 0.63832 0.45192 0.92479
 C1849 C 0.65845 0.44376 0.91710
 H1850 H 0.66602 0.45105 0.90277
 O1851 O 0.39065 0.52130 0.92089
 O1852 O 0.36496 0.52140 0.89541
 C1853 C 0.37281 0.52886 0.91323
 C1854 C 0.36148 0.54699 0.92481
 C1855 C 0.34112 0.55472 0.91732
 H1856 H 0.33308 0.54642 0.90382
 O1857 O 0.42139 0.60959 0.97800
 O1858 O 0.39602 0.63537 0.97788
 C1859 C 0.41378 0.62743 0.97040
 C1860 C 0.42540 0.63867 0.95227
 C1861 C 0.41772 0.65880 0.94410
 H1862 H 0.40345 0.66642 0.95146
 O1863 O 0.57841 0.39053 0.97901
 O1864 O 0.60381 0.36478 0.97907
 C1865 C 0.58604 0.37265 0.97152
 C1866 C 0.57449 0.36127 0.95341
 C1867 C 0.58236 0.34118 0.94535
 H1868 H 0.59634 0.33344 0.95314
 O1869 O 0.57942 0.52050 0.89060
 O1870 O 0.60500 0.52034 0.86501
 C1871 C 0.58719 0.52793 0.87275
 C1872 C 0.57570 0.54598 0.86124
 C1873 C 0.58351 0.55386 0.84105
 H1874 H 0.59745 0.54600 0.83332
 O1875 O 0.42032 0.47831 0.89073
 O1876 O 0.39478 0.47839 0.86511
 C1877 C 0.41257 0.47081 0.87289
 C1878 C 0.42416 0.45278 0.86142
 C1879 C 0.41645 0.44476 0.84121
 H1880 H 0.40196 0.45198 0.83392
 O1881 O 0.52194 0.60846 0.92038
 O1882 O 0.52210 0.63397 0.89474
 C1883 C 0.52954 0.62624 0.91261
 C1884 C 0.54760 0.63766 0.92418
 C1885 C 0.55549 0.65789 0.91650
 H1886 H 0.54762 0.66569 0.90261
 O1887 O 0.47787 0.39070 0.92064
 O1888 O 0.47776 0.36499 0.89519
 C1889 C 0.47024 0.37289 0.91296
 C1890 C 0.45215 0.36156 0.92460
 C1891 C 0.44405 0.34138 0.91694
 H1892 H 0.45125 0.33399 0.90247
 O1893 O 0.60965 0.57841 0.97842
 O1894 O 0.63543 0.60378 0.97835
 C1895 C 0.62755 0.58597 0.97091
 C1896 C 0.63896 0.57424 0.95293
 C1897 C 0.65923 0.58180 0.94496
 H1898 H 0.66685 0.59605 0.95236
 O1899 O 0.39020 0.42083 0.97875
 O1900 O 0.36446 0.39542 0.97884
 C1901 C 0.37231 0.41317 0.97127
 C1902 C 0.36092 0.42473 0.95317
 C1903 C 0.34077 0.41696 0.94507
 H1904 H 0.33324 0.40267 0.95246
 Cu1905 Cu 0.49947 0.40815 0.90830
 Cu1906 Cu 0.49937 0.37735 0.87767
 Cu1907 Cu 0.50046 0.59101 0.90791
 Cu1908 Cu 0.50062 0.62157 0.87705
 Cu1909 Cu 0.40807 0.49980 0.90837
 Cu1910 Cu 0.37731 0.49993 0.87770
 Cu1911 Cu 0.59173 0.49907 0.90824
 Cu1912 Cu 0.62251 0.49885 0.87759
 C1913 C 0.44241 0.44273 0.87124
 H1914 H 0.44812 0.44847 0.88707
 C1915 C 0.42689 0.42704 0.83073
 C1916 C 0.55750 0.55622 0.87099
 H1917 H 0.55159 0.55044 0.88672
 C1918 C 0.57352 0.57191 0.83075
 C1919 C 0.37082 0.44290 0.94302
 H1920 H 0.38652 0.44875 0.94893
 C1921 C 0.33067 0.42701 0.92695
 C1922 C 0.62898 0.55611 0.94277
 H1923 H 0.61319 0.55040 0.94860
 C1924 C 0.66936 0.57160 0.92693
 C1925 C 0.44215 0.37146 0.94285
 H1926 H 0.44799 0.38724 0.94855
 C1927 C 0.42626 0.33101 0.92738
 C1928 C 0.55781 0.62783 0.94235
 H1929 H 0.55201 0.61208 0.94817
 C1930 C 0.57352 0.66814 0.92656
 C1931 C 0.44296 0.55661 0.87120
 H1932 H 0.44880 0.55075 0.88693
 C1933 C 0.42714 0.57257 0.83100
 C1934 C 0.55698 0.44210 0.87128
 H1935 H 0.55124 0.44794 0.88705
 C1936 C 0.57255 0.42625 0.83093
 C1937 C 0.55626 0.37104 0.94324
 H1938 H 0.55031 0.38671 0.94915
 C1939 C 0.57245 0.33102 0.92719
 C1940 C 0.44355 0.62867 0.94218
 H1941 H 0.44934 0.61297 0.94816
 C1942 C 0.42782 0.66880 0.92595
 C1943 C 0.37155 0.55745 0.94269
 H1944 H 0.38734 0.55168 0.94845
 C1945 C 0.33112 0.57313 0.92699
 C1946 C 0.62839 0.44193 0.94304
 H1947 H 0.61270 0.44791 0.94884
 C1948 C 0.66853 0.42571 0.92730
 O1949 O 0.52083 0.42049 1.10947
 O1950 O 0.52071 0.39503 1.13516
 C1951 C 0.52835 0.41276 1.12731
 C1952 C 0.54648 0.42427 1.13871
 C1953 C 0.55465 0.41638 1.15878
 H1954 H 0.54745 0.40185 1.16602
 O1955 O 0.47923 0.57955 1.10922
 O1956 O 0.47931 0.60517 1.13478
 C1957 C 0.47181 0.58730 1.12708
 C1958 C 0.45377 0.57576 1.13859
 C1959 C 0.44616 0.58331 1.15899
 H1960 H 0.45454 0.59680 1.16694
 O1961 O 0.39107 0.52233 1.07898
 O1962 O 0.36543 0.52252 1.10449
 C1963 C 0.37327 0.52996 1.08667
 C1964 C 0.36197 0.54811 1.07511
 C1965 C 0.34198 0.55635 1.08304
 H1966 H 0.33423 0.54867 1.09706
 O1967 O 0.60884 0.47820 1.07970
 O1968 O 0.63447 0.47811 1.10524
 C1969 C 0.62666 0.47062 1.08742
 C1970 C 0.63803 0.45253 1.07583
 C1971 C 0.65818 0.44443 1.08356
 H1972 H 0.66576 0.45181 1.09785
 O1973 O 0.57863 0.39042 1.02187
 O1974 O 0.60402 0.36466 1.02193
 C1975 C 0.58625 0.37255 1.02943
 C1976 C 0.57456 0.36117 1.04745
 C1977 C 0.58225 0.34100 1.05553
 H1978 H 0.59674 0.33367 1.04834
 O1979 O 0.42160 0.60969 1.02082
 O1980 O 0.39624 0.63549 1.02073
 C1981 C 0.41403 0.62763 1.02825
 C1982 C 0.42563 0.63905 1.04632
 C1983 C 0.41807 0.65939 1.05403
 H1984 H 0.40452 0.66735 1.04575
 O1985 O 0.42093 0.47950 1.10923
 O1986 O 0.39537 0.47968 1.13483
 C1987 C 0.41319 0.47211 1.12712
 C1988 C 0.42469 0.45406 1.13867
 C1989 C 0.41713 0.44654 1.15909
 H1990 H 0.40367 0.45497 1.16703
 O1991 O 0.57895 0.52121 1.10962
 O1992 O 0.60446 0.52113 1.13528
 C1993 C 0.58668 0.52871 1.12747
 C1994 C 0.57527 0.54691 1.13883
 C1995 C 0.58291 0.55468 1.15912
 H1996 H 0.59642 0.54636 1.16711
 O1997 O 0.47778 0.39065 1.07957
 O1998 O 0.47761 0.36508 1.10516
 C1999 C 0.47018 0.37286 1.08731
 C2000 C 0.45216 0.36145 1.07567
 C2001 C 0.44416 0.34124 1.08331
 H2002 H 0.45154 0.33367 1.09760
 O2003 O 0.52191 0.60949 1.07893
 O2004 O 0.52202 0.63527 1.10432
 C2005 C 0.52948 0.62736 1.08652
 C2006 C 0.54755 0.63866 1.07482
 C2007 C 0.55563 0.65887 1.08240
 H2008 H 0.54825 0.66653 1.09664
 O2009 O 0.39060 0.42120 1.02161
 O2010 O 0.36484 0.39580 1.02175
 C2011 C 0.37276 0.41359 1.02922
 C2012 C 0.36144 0.42530 1.04728
 C2013 C 0.34130 0.41760 1.05542
 H2014 H 0.33397 0.40309 1.04825
 O2015 O 0.60937 0.57848 1.02127
 O2016 O 0.63514 0.60386 1.02124
 C2017 C 0.62722 0.58612 1.02882
 C2018 C 0.63850 0.57461 1.04701
 C2019 C 0.65866 0.58236 1.05502
 H2020 H 0.66651 0.59621 1.04715
 O2021 O 0.52200 0.57974 1.10922
 O2022 O 0.52214 0.60539 1.13473
 C2023 C 0.52958 0.58752 1.12701
 C2024 C 0.54754 0.57585 1.13851
 C2025 C 0.55567 0.58364 1.15864
 H2026 H 0.54859 0.59824 1.16587
 O2027 O 0.47798 0.42092 1.10937
 O2028 O 0.47778 0.39548 1.13508
 C2029 C 0.47039 0.41332 1.12722
 C2030 C 0.45245 0.42514 1.13863
 C2031 C 0.44436 0.41757 1.15884
 H2032 H 0.45145 0.40303 1.16617
 O2033 O 0.60894 0.52102 1.07952
 O2034 O 0.63456 0.52097 1.10507
 C2035 C 0.62682 0.52847 1.08722
 C2036 C 0.63835 0.54644 1.07558
 C2037 C 0.65851 0.55445 1.08336
 H2038 H 0.66598 0.54712 1.09772
 O2039 O 0.39084 0.47949 1.07913
 O2040 O 0.36518 0.47966 1.10462
 C2041 C 0.37294 0.47209 1.08681
 C2042 C 0.36143 0.45403 1.07527
 C2043 C 0.34109 0.44635 1.08290
 H2044 H 0.33320 0.45461 1.09650
 O2045 O 0.57964 0.60881 1.02104
 O2046 O 0.60531 0.63429 1.02097
 C2047 C 0.58743 0.62666 1.02847
 C2048 C 0.57589 0.63827 1.04644
 C2049 C 0.58370 0.65851 1.05422
 H2050 H 0.59763 0.66619 1.04630
 O2051 O 0.42022 0.39080 1.02159
 O2052 O 0.39457 0.36529 1.02168
 C2053 C 0.41243 0.37300 1.02913
 C2054 C 0.42394 0.36154 1.04719
 C2055 C 0.41621 0.34131 1.05502
 H2056 H 0.40236 0.33352 1.04708
 O2057 O 0.57860 0.47841 1.10957
 O2058 O 0.60411 0.47830 1.13522
 C2059 C 0.58624 0.47089 1.12744
 C2060 C 0.57460 0.45286 1.13886
 C2061 C 0.58224 0.44500 1.15912
 H2062 H 0.59589 0.45315 1.16704
 O2063 O 0.42093 0.52233 1.10918
 O2064 O 0.39537 0.52252 1.13478
 C2065 C 0.41322 0.52994 1.12699
 C2066 C 0.42493 0.54792 1.13844
 C2067 C 0.41725 0.55601 1.15863
 H2068 H 0.40271 0.54888 1.16591
 O2069 O 0.47907 0.60957 1.07915
 O2070 O 0.47911 0.63532 1.10457
 C2071 C 0.47155 0.62744 1.08680
 C2072 C 0.45354 0.63887 1.07512
 C2073 C 0.44545 0.65903 1.08286
 H2074 H 0.45261 0.66632 1.09740
 O2075 O 0.52052 0.39056 1.07933
 O2076 O 0.52040 0.36497 1.10490
 C2077 C 0.52790 0.37266 1.08703
 C2078 C 0.54587 0.36112 1.07544
 C2079 C 0.55350 0.34075 1.08300
 H2080 H 0.54521 0.33284 1.09657
 O2081 O 0.60863 0.42049 1.02179
 O2082 O 0.63411 0.39481 1.02189
 C2083 C 0.62641 0.41269 1.02935
 C2084 C 0.63787 0.42420 1.04742
 C2085 C 0.65800 0.41636 1.05538
 H2086 H 0.66573 0.40240 1.04755
 O2087 O 0.39124 0.57997 1.02100
 O2088 O 0.36577 0.60566 1.02096
 C2089 C 0.37347 0.58783 1.02854
 C2090 C 0.36204 0.57642 1.04670
 C2091 C 0.34205 0.58446 1.05491
 H2092 H 0.33465 0.59884 1.04756
 Cu2093 Cu 0.49929 0.40822 1.09189
 Cu2094 Cu 0.49911 0.37759 1.12267
 Cu2095 Cu 0.50054 0.59203 1.09158
 Cu2096 Cu 0.50064 0.62288 1.12215
 Cu2097 Cu 0.40792 0.40850 1.00017
 Cu2098 Cu 0.37707 0.37793 1.00029
 Cu2099 Cu 0.59107 0.40798 1.00040
 Cu2100 Cu 0.62161 0.37711 1.00049
 Cu2101 Cu 0.40889 0.59216 0.99950
 Cu2102 Cu 0.37839 0.62306 0.99940
 Cu2103 Cu 0.59202 0.59101 0.99973
 Cu2104 Cu 0.62291 0.62154 0.99967
 Cu2105 Cu 0.40850 0.50088 1.09158
 Cu2106 Cu 0.37775 0.50109 1.12224
 Cu2107 Cu 0.59128 0.49972 1.09204
 Cu2108 Cu 0.62196 0.49961 1.12278
 C2109 C 0.55652 0.44258 1.12895
 H2110 H 0.55065 0.44845 1.11324
 C2111 C 0.57253 0.42663 1.16916
 C2112 C 0.44325 0.55786 1.12863
 H2113 H 0.44894 0.55205 1.11282
 C2114 C 0.42777 0.57369 1.16910
 C2115 C 0.37175 0.55811 1.05680
 H2116 H 0.38734 0.55204 1.05080
 C2117 C 0.33194 0.57457 1.07311
 C2118 C 0.62812 0.44243 1.05762
 H2119 H 0.61243 0.44836 1.05177
 C2120 C 0.66825 0.42632 1.07347
 C2121 C 0.55631 0.37103 1.05745
 H2122 H 0.55061 0.38682 1.05164
 C2123 C 0.57181 0.33059 1.07329
 C2124 C 0.44356 0.62907 1.05678
 H2125 H 0.44937 0.61330 1.05103
 C2126 C 0.42771 0.66946 1.07243
 C2127 C 0.44256 0.44345 1.12874
 H2128 H 0.44837 0.44908 1.11291
 C2129 C 0.42671 0.42817 1.16928
 C2130 C 0.55739 0.55742 1.12881
 H2131 H 0.55153 0.55161 1.11307
 C2132 C 0.57336 0.57315 1.16912
 C2133 C 0.44206 0.37136 1.05748
 H2134 H 0.44792 0.38712 1.05171
 C2135 C 0.42617 0.33106 1.07311
 C2136 C 0.55767 0.62860 1.05671
 H2137 H 0.55176 0.61284 1.05100
 C2138 C 0.57373 0.66890 1.07222
 C2139 C 0.37131 0.44358 1.05726
 H2140 H 0.38708 0.44931 1.05139
 C2141 C 0.33093 0.42802 1.07320
 C2142 C 0.62858 0.55651 1.05727
 H2143 H 0.61287 0.55065 1.05139
 C2144 C 0.66875 0.57245 1.07323
 C2145 C 1.10774 1.10618 1.25127
 C2146 C 1.13035 1.10510 1.25527
 C2147 C 1.13873 1.11353 1.27496
 C2148 C 1.12476 1.12353 1.29063
 C2149 C 1.10199 1.12444 1.28607
 C2150 C 1.09343 1.11565 1.26658
 C2151 C 1.09888 1.09734 1.23053
 C2152 C 1.07620 1.09813 1.22663
 C2153 C 1.06788 1.08969 1.20689
 C2154 C 1.08211 1.08085 1.19091
 C2155 C 1.10487 1.08040 1.19513
 C2156 C 1.11329 1.08842 1.21496
 C2157 C 1.07081 1.11613 1.26211
 C2158 C 1.06233 1.10744 1.24253
 C2159 C 1.14425 1.09589 1.23934
 C2160 C 1.13588 1.08778 1.21949
 H2161 H 1.05955 1.12331 1.27385
 H2162 H 1.04480 1.10815 1.23973
 H2163 H 1.16178 1.09504 1.24220
 H2164 H 1.14718 1.08092 1.20761
 H2165 H 1.15632 1.11326 1.27739
 H2166 H 1.09067 1.13122 1.29797
 H2167 H 1.05033 1.08987 1.20407
 H2168 H 1.11610 1.07412 1.18287
 C2169 C 1.10807 0.60857 0.74968
 C2170 C 1.11469 0.59424 0.76645
 C2171 C 1.12326 0.60296 0.78595
 C2172 C 1.12522 0.62583 0.78873
 C2173 C 1.11843 0.63995 0.77173
 C2174 C 1.10987 0.63140 0.75216
 C2175 C 1.09917 0.59950 0.72909
 C2176 C 1.09267 0.61384 0.71228
 C2177 C 1.08430 0.60515 0.69271
 C2178 C 1.08233 0.58229 0.68987
 C2179 C 1.08894 0.56814 0.70693
 C2180 C 1.09739 0.57667 0.72657
 C2181 C 1.10319 0.64522 0.73497
 C2182 C 1.09474 0.63659 0.71536
 C2183 C 1.11260 0.57149 0.76337
 C2184 C 1.10409 0.56285 0.74377
 H2185 H 1.10452 0.66287 0.73668
 H2186 H 1.08980 0.64782 0.70250
 H2187 H 1.11762 0.56026 0.77619
 H2188 H 1.10279 0.54521 0.74205
 H2189 H 1.12823 0.59199 0.79904
 H2190 H 1.12015 0.65755 0.77360
 H2191 H 1.07961 0.61617 0.67957
 H2192 H 1.08730 0.55054 0.70498
 C2193 C 0.60819 1.10798 0.74965
 C2194 C 0.61450 1.09363 0.76653
 C2195 C 0.62311 1.10232 0.78605
 C2196 C 0.62541 1.12517 0.78870
 C2197 C 0.61900 1.13928 0.77154
 C2198 C 0.61037 1.13078 0.75201
 C2199 C 0.59919 1.09896 0.72908
 C2200 C 0.59295 1.11333 0.71220
 C2201 C 0.58446 1.10470 0.69266
 C2202 C 0.58219 1.08186 0.68990
 C2203 C 0.58857 1.06767 0.70700
 C2204 C 0.59707 1.07615 0.72665
 C2205 C 0.60397 1.14463 0.73474
 C2206 C 0.59539 1.13605 0.71517
 C2207 C 0.61207 1.07090 0.76353
 C2208 C 0.60351 1.06231 0.74393
 H2209 H 0.60559 1.16226 0.73636
 H2210 H 0.59066 1.14730 0.70225
 H2211 H 0.61686 1.05965 0.77643
 H2212 H 0.60194 1.04468 0.74228
 H2213 H 0.62781 1.09135 0.79923
 H2214 H 0.62103 1.15686 0.77328
 H2215 H 0.57994 1.11573 0.67946
 H2216 H 0.58670 1.05009 0.70509
 C2217 C 0.60865 0.60800 1.24981
 C2218 C 0.63134 0.60729 1.25344
 C2219 C 0.63992 0.61590 1.27296
 C2220 C 0.62606 0.62564 1.28888
 C2221 C 0.60320 0.62621 1.28470
 C2222 C 0.59446 0.61729 1.26535
 C2223 C 0.59957 0.59893 1.22928
 C2224 C 0.57682 0.59938 1.22576
 C2225 C 0.56828 0.59071 1.20621
 C2226 C 0.58237 0.58193 1.19008
 C2227 C 0.60519 0.58179 1.19391
 C2228 C 0.61384 0.59010 1.21353
 C2229 C 0.57176 0.61744 1.26126
 C2230 C 0.56309 0.60856 1.24184
 C2231 C 0.64510 0.59820 1.23732
 C2232 C 0.63651 0.58983 1.21766
 H2233 H 0.56060 0.62448 1.27316
 H2234 H 0.54550 0.60902 1.23934
 H2235 H 0.66268 0.59763 1.23987
 H2236 H 0.64770 0.58305 1.20563
 H2237 H 0.65755 0.61590 1.27509
 H2238 H 0.59196 0.63276 1.29679
 H2239 H 0.55069 0.59067 1.20365
 H2240 H 0.61628 0.57553 1.18151
 C2241 C 0.89164 0.89226 1.25021
 C2242 C 0.89248 0.86957 1.25383
 C2243 C 0.88411 0.86098 1.27343
 C2244 C 0.87447 0.87480 1.28944
 C2245 C 0.87367 0.89764 1.28523
 C2246 C 0.88239 0.90642 1.26581
 C2247 C 0.90057 0.90137 1.22964
 C2248 C 0.90008 0.92412 1.22615
 C2249 C 0.90873 0.93269 1.20661
 C2250 C 0.91750 0.91863 1.19044
 C2251 C 0.91758 0.89580 1.19421
 C2252 C 0.90935 0.88712 1.21383
 C2253 C 0.88215 0.92911 1.26173
 C2254 C 0.89093 0.93782 1.24228
 C2255 C 0.90149 0.85583 1.23764
 C2256 C 0.90969 0.86445 1.21794
 H2257 H 0.87514 0.94025 1.27367
 H2258 H 0.89044 0.95541 1.23980
 H2259 H 0.90214 0.83826 1.24020
 H2260 H 0.91644 0.85328 1.20587
 H2261 H 0.88425 0.84335 1.27559
 H2262 H 0.86713 0.90884 1.29737
 H2263 H 0.90879 0.95029 1.20410
 H2264 H 0.92379 0.88471 1.18178
 C2265 C 0.89148 0.39226 0.74987
 C2266 C 0.86879 0.39307 0.75350
 C2267 C 0.86018 0.38433 0.77295
 C2268 C 0.87399 0.37437 0.78877
 C2269 C 0.89684 0.37367 0.78455
 C2270 C 0.90562 0.38273 0.76530
 C2271 C 0.90060 0.40150 0.72943
 C2272 C 0.92334 0.40098 0.72591
 C2273 C 0.93192 0.40981 0.70645
 C2274 C 0.91788 0.41879 0.69039
 C2275 C 0.89505 0.41899 0.69423
 C2276 C 0.88636 0.41055 0.71377
 C2277 C 0.92832 0.38252 0.76120
 C2278 C 0.93703 0.39157 0.74189
 C2279 C 0.85507 0.40238 0.73748
 C2280 C 0.86370 0.41089 0.71791
 H2281 H 0.93945 0.37529 0.77303
 H2282 H 0.95462 0.39106 0.73938
 H2283 H 0.83749 0.40302 0.74005
 H2284 H 0.85254 0.41784 0.70595
 H2285 H 0.84255 0.38443 0.77511
 H2286 H 0.90804 0.36692 0.79658
 H2287 H 0.94951 0.40980 0.70390
 H2288 H 0.88398 0.42539 0.68188
 C2289 C 0.39123 0.89222 0.74927
 C2290 C 0.38901 0.86941 0.75150
 C2291 C 0.38029 0.86084 0.77095
 C2292 C 0.37385 0.87488 0.78817
 C2293 C 0.37615 0.89775 0.78562
 C2294 C 0.38485 0.90651 0.76618
 C2295 C 0.40039 0.90131 0.72880
 C2296 C 0.40257 0.92412 0.72650
 C2297 C 0.41125 0.93267 0.70696
 C2298 C 0.41774 0.91853 0.68984
 C2299 C 0.41540 0.89569 0.69247
 C2300 C 0.40674 0.88699 0.71190
 C2301 C 0.38734 0.92925 0.76330
 C2302 C 0.39604 0.93790 0.74380
 C2303 C 0.39550 0.85562 0.73421
 C2304 C 0.40422 0.86427 0.71474
 H2305 H 0.38249 0.94045 0.77623
 H2306 H 0.39765 0.95554 0.74224
 H2307 H 0.39384 0.83799 0.73574
 H2308 H 0.40903 0.85306 0.70180
 H2309 H 0.37824 0.84326 0.77260
 H2310 H 0.37143 0.90866 0.79884
 H2311 H 0.41317 0.95025 0.70514
 H2312 H 0.42001 0.88471 0.67926
 C2313 C 0.39160 0.39352 1.25016
 C2314 C 0.36895 0.39459 1.25399
 C2315 C 0.36041 0.38592 1.27349
 C2316 C 0.37422 0.37569 1.28914
 C2317 C 0.39703 0.37475 1.28474
 C2318 C 0.40576 0.38379 1.26545
 C2319 C 0.40064 0.40264 1.22963
 C2320 C 0.42335 0.40186 1.22591
 C2321 C 0.43185 0.41055 1.20636
 C2322 C 0.41776 0.41959 1.19036
 C2323 C 0.39497 0.42005 1.19441
 C2324 C 0.38637 0.41180 1.21407
 C2325 C 0.42842 0.38333 1.26116
 C2326 C 0.43707 0.39230 1.24178
 C2327 C 0.35520 0.40406 1.23808
 C2328 C 0.36375 0.41242 1.21842
 H2329 H 0.43956 0.37596 1.27288
 H2330 H 0.45463 0.39159 1.23912
 H2331 H 0.33766 0.40490 1.24080
 H2332 H 0.35256 0.41946 1.20654
 H2333 H 0.34280 0.38622 1.27580
 H2334 H 0.40823 0.36777 1.29663
 H2335 H 0.44942 0.41035 1.20367
 H2336 H 0.38385 0.42648 1.18213
 C2337 C 0.89232 1.10826 0.74963
 C2338 C 0.88312 1.09410 0.73401
 C2339 C 0.87424 1.10287 0.71466
 C2340 C 0.87477 1.12575 0.71055
 C2341 C 0.88438 1.13958 0.72658
 C2342 C 0.89295 1.13097 0.74610
 C2343 C 0.90137 1.09916 0.77015
 C2344 C 0.91012 1.11342 0.78597
 C2345 C 0.91843 1.10475 0.80557
 C2346 C 0.91839 1.08192 0.80933
 C2347 C 0.90968 1.06784 0.79314
 C2348 C 0.90101 1.07640 0.77360
 C2349 C 0.90194 1.14472 0.76228
 C2350 C 0.91030 1.13610 0.78192
 C2351 C 0.88305 1.07139 0.73803
 C2352 C 0.89191 1.06268 0.75745
 H2353 H 0.90245 1.16231 0.75979
 H2354 H 0.91701 1.14728 0.79400
 H2355 H 0.87608 1.06023 0.72607
 H2356 H 0.89152 1.04508 0.75989
 H2357 H 0.86774 1.09166 0.70250
 H2358 H 0.88430 1.15722 0.72455
 H2359 H 0.92462 1.11584 0.81801
 H2360 H 0.90978 1.05025 0.79565
 C2361 C 0.89288 0.60848 0.24992
 C2362 C 0.88625 0.59411 0.23317
 C2363 C 0.87748 0.60278 0.21374
 C2364 C 0.87535 0.62564 0.21101
 C2365 C 0.88212 0.63978 0.22801
 C2366 C 0.89089 0.63130 0.24749
 C2367 C 0.90200 0.59947 0.27044
 C2368 C 0.90853 0.61385 0.28720
 C2369 C 0.91707 0.60522 0.30672
 C2370 C 0.91911 0.58237 0.30956
 C2371 C 0.91248 0.56818 0.29254
 C2372 C 0.90391 0.57665 0.27293
 C2373 C 0.89762 0.64516 0.26463
 C2374 C 0.90629 0.63659 0.28416
 C2375 C 0.88849 0.57137 0.23624
 C2376 C 0.89717 0.56279 0.25578
 H2377 H 0.89615 0.66279 0.26295
 H2378 H 0.91126 0.64785 0.29699
 H2379 H 0.88346 0.56011 0.22344
 H2380 H 0.89858 0.54516 0.25749
 H2381 H 0.87252 0.59179 0.20066
 H2382 H 0.88023 0.65737 0.22620
 H2383 H 0.92179 0.61626 0.31985
 H2384 H 0.91417 0.55059 0.29451
 C2385 C 0.39259 1.10779 0.24970
 C2386 C 0.39340 1.13045 0.24593
 C2387 C 0.38482 1.13891 0.22635
 C2388 C 0.37502 1.12498 0.21053
 C2389 C 0.37428 1.10216 0.21490
 C2390 C 0.38320 1.09353 0.23429
 C2391 C 0.40169 1.09883 0.27027
 C2392 C 0.40118 1.07611 0.27394
 C2393 C 0.40988 1.06768 0.29352
 C2394 C 0.41872 1.08185 0.30956
 C2395 C 0.41892 1.10465 0.30557
 C2396 C 0.41061 1.11318 0.28591
 C2397 C 0.38298 1.07086 0.23854
 C2398 C 0.39189 1.06229 0.25798
 C2399 C 0.40257 1.14430 0.26193
 C2400 C 0.41094 1.13582 0.28162
 H2401 H 0.37586 1.05964 0.22673
 H2402 H 0.39139 1.04472 0.26060
 H2403 H 0.40321 1.16186 0.25924
 H2404 H 0.41779 1.14707 0.29356
 H2405 H 0.38491 1.15653 0.22409
 H2406 H 0.36763 1.09087 0.20290
 H2407 H 0.40987 1.05011 0.29619
 H2408 H 0.42521 1.11582 0.31788
 C2409 C 0.39204 0.60795 0.75066
 C2410 C 0.39009 0.63078 0.74831
 C2411 C 0.38140 0.63935 0.72883
 C2412 C 0.37470 0.62528 0.71174
 C2413 C 0.37678 0.60241 0.71440
 C2414 C 0.38544 0.59365 0.73384
 C2415 C 0.40112 0.59885 0.77116
 C2416 C 0.40301 0.57602 0.77357
 C2417 C 0.41159 0.56747 0.79315
 C2418 C 0.41826 0.58160 0.81020
 C2419 C 0.41621 0.60446 0.80746
 C2420 C 0.40765 0.61317 0.78798
 C2421 C 0.38766 0.57090 0.73683
 C2422 C 0.39629 0.56224 0.75636
 C2423 C 0.39679 0.64457 0.76552
 C2424 C 0.40542 0.63592 0.78503
 H2425 H 0.38265 0.55969 0.72397
 H2426 H 0.39768 0.54459 0.75800
 H2427 H 0.39534 0.66221 0.76390
 H2428 H 0.41039 0.64713 0.79790
 H2429 H 0.37956 0.65695 0.72709
 H2430 H 0.37187 0.59147 0.70126
 H2431 H 0.41329 0.54987 0.79505
 H2432 H 0.42096 0.61545 0.82062
 C2433 C 1.10685 0.89123 0.75001
 C2434 C 1.11360 0.90564 0.73337
 C2435 C 1.12236 0.89703 0.71391
 C2436 C 1.12440 0.87417 0.71106
 C2437 C 1.11746 0.85997 0.72792
 C2438 C 1.10869 0.86841 0.74745
 C2439 C 1.09777 0.90019 0.77058
 C2440 C 1.09115 0.88577 0.78727
 C2441 C 1.08270 0.89437 0.80685
 C2442 C 1.08082 0.91723 0.80981
 C2443 C 1.08751 0.93145 0.79285
 C2444 C 1.09601 0.92301 0.77320
 C2445 C 1.10186 0.85450 0.76451
 C2446 C 1.09324 0.86304 0.78409
 C2447 C 1.11148 0.92838 0.73655
 C2448 C 1.10283 0.93691 0.75612
 H2449 H 1.10321 0.83687 0.76273
 H2450 H 1.08820 0.85174 0.79685
 H2451 H 1.11661 0.93967 0.72382
 H2452 H 1.10154 0.95455 0.75793
 H2453 H 1.12742 0.90806 0.70092
 H2454 H 1.11923 0.84238 0.72600
 H2455 H 1.07793 0.88330 0.81992
 H2456 H 1.08592 0.94904 0.79490
 C2457 C 1.10868 0.39064 0.25090
 C2458 C 1.09447 0.38430 0.23391
 C2459 C 1.10331 0.37569 0.21448
 C2460 C 1.12619 0.37342 0.21200
 C2461 C 1.14017 0.37986 0.22925
 C2462 C 1.13151 0.38849 0.24872
 C2463 C 1.09949 0.39970 0.27136
 C2464 C 1.11372 0.40603 0.28833
 C2465 C 1.10493 0.41463 0.30775
 C2466 C 1.08206 0.41694 0.31028
 C2467 C 1.06802 0.41044 0.29310
 C2468 C 1.07666 0.40183 0.27358
 C2469 C 1.14522 0.39496 0.26609
 C2470 C 1.13647 0.40358 0.28556
 C2471 C 1.07171 0.38671 0.23671
 C2472 C 1.06296 0.39532 0.25621
 H2473 H 1.16285 0.39335 0.26461
 H2474 H 1.14761 0.40839 0.29856
 H2475 H 1.06057 0.38189 0.22372
 H2476 H 1.04532 0.39690 0.25770
 H2477 H 1.09244 0.37100 0.20121
 H2478 H 1.15777 0.37787 0.22763
 H2479 H 1.11584 0.41924 0.32101
 H2480 H 1.05042 0.41234 0.29485
 C2481 C 0.60643 0.89166 0.24966
 C2482 C 0.60568 0.86898 0.24590
 C2483 C 0.61424 0.86052 0.22630
 C2484 C 0.62401 0.87446 0.21048
 C2485 C 0.62459 0.89729 0.21479
 C2486 C 0.61570 0.90593 0.23419
 C2487 C 0.59744 0.90063 0.27027
 C2488 C 0.59793 0.92335 0.27393
 C2489 C 0.58937 0.93179 0.29356
 C2490 C 0.58068 0.91762 0.30968
 C2491 C 0.58048 0.89482 0.30570
 C2492 C 0.58866 0.88627 0.28598
 C2493 C 0.61587 0.92860 0.23841
 C2494 C 0.60707 0.93717 0.25790
 C2495 C 0.59663 0.85514 0.26196
 C2496 C 0.58834 0.86363 0.28170
 H2497 H 0.62290 0.93983 0.22656
 H2498 H 0.60755 0.95475 0.26050
 H2499 H 0.59603 0.83758 0.25930
 H2500 H 0.58160 0.85237 0.29369
 H2501 H 0.61421 0.84290 0.22405
 H2502 H 0.63115 0.90860 0.20276
 H2503 H 0.58936 0.94936 0.29622
 H2504 H 0.57428 0.88366 0.31807
 C2505 C 0.60777 0.39129 0.75046
 C2506 C 0.61002 0.36850 0.74811
 C2507 C 0.61889 0.36003 0.72866
 C2508 C 0.62546 0.37417 0.71159
 C2509 C 0.62308 0.39702 0.71423
 C2510 C 0.61424 0.40567 0.73366
 C2511 C 0.59856 0.40028 0.77095
 C2512 C 0.59642 0.42308 0.77339
 C2513 C 0.58779 0.43153 0.79299
 C2514 C 0.58131 0.41732 0.81004
 C2515 C 0.58355 0.39448 0.80725
 C2516 C 0.59218 0.38588 0.78776
 C2517 C 0.61175 0.42839 0.73665
 C2518 C 0.60300 0.43695 0.75618
 C2519 C 0.60346 0.35462 0.76529
 C2520 C 0.59468 0.36316 0.78478
 H2521 H 0.61665 0.43966 0.72382
 H2522 H 0.60141 0.45457 0.75784
 H2523 H 0.60513 0.33700 0.76367
 H2524 H 0.58983 0.35189 0.79765
 H2525 H 0.62100 0.34246 0.72695
 H2526 H 0.62789 0.40801 0.70111
 H2527 H 0.58594 0.44911 0.79493
 H2528 H 0.57895 0.38344 0.82041
 C2529 C 1.24998 1.10674 1.10723
 C2530 C 1.25243 1.12954 1.10935
 C2531 C 1.27199 1.13797 1.11798
 C2532 C 1.28909 1.12381 1.12443
 C2533 C 1.28633 1.10096 1.12221
 C2534 C 1.26679 1.09233 1.11361
 C2535 C 1.22938 1.09779 1.09823
 C2536 C 1.22685 1.07499 1.09620
 C2537 C 1.20716 1.06658 1.08772
 C2538 C 1.19013 1.08084 1.08129
 C2539 C 1.19301 1.10367 1.08345
 C2540 C 1.21258 1.11223 1.09191
 C2541 C 1.26368 1.06961 1.11125
 C2542 C 1.24405 1.06108 1.10270
 C2543 C 1.23525 1.14345 1.10287
 C2544 C 1.21566 1.13494 1.09429
 H2545 H 1.27651 1.05831 1.11609
 H2546 H 1.24231 1.04346 1.10120
 H2547 H 1.23695 1.16107 1.10445
 H2548 H 1.20280 1.14624 1.08950
 H2549 H 1.27379 1.15555 1.11997
 H2550 H 1.29946 1.08995 1.12695
 H2551 H 1.20514 1.04901 1.08594
 H2552 H 1.17987 1.11474 1.07888
 C2553 C 1.24958 0.60787 0.60775
 C2554 C 1.25192 0.63071 0.60965
 C2555 C 1.27140 0.63932 0.61829
 C2556 C 1.28849 0.62529 0.62502
 C2557 C 1.28586 0.60241 0.62296
 C2558 C 1.26642 0.59361 0.61433
 C2559 C 1.22906 0.59873 0.59876
 C2560 C 1.22666 0.57589 0.59693
 C2561 C 1.20706 0.56729 0.58844
 C2562 C 1.18999 0.58138 0.58179
 C2563 C 1.19272 0.60425 0.58379
 C2564 C 1.21221 0.61301 0.59225
 C2565 C 1.26345 0.57085 0.61218
 C2566 C 1.24390 0.56214 0.60363
 C2567 C 1.23468 0.64447 0.60297
 C2568 C 1.21515 0.63576 0.59442
 H2569 H 1.27632 0.55967 0.61719
 H2570 H 1.24227 0.54449 0.60228
 H2571 H 1.23628 0.66211 0.60438
 H2572 H 1.20226 0.64694 0.58947
 H2573 H 1.27313 0.65693 0.62012
 H2574 H 1.29901 0.59150 0.62788
 H2575 H 1.20517 0.54969 0.58678
 H2576 H 1.17954 0.61521 0.57906
 C2577 C 0.75007 1.10798 0.60760
 C2578 C 0.76572 1.09385 0.61680
 C2579 C 0.78504 1.10268 0.62570
 C2580 C 0.78909 1.12557 0.62517
 C2581 C 0.77301 1.13935 0.61560
 C2582 C 0.75353 1.13070 0.60701
 C2583 C 0.72960 1.09882 0.59850
 C2584 C 0.71375 1.11304 0.58975
 C2585 C 0.69420 1.10431 0.58139
 C2586 C 0.69051 1.08147 0.58138
 C2587 C 0.70673 1.06743 0.59009
 C2588 C 0.72622 1.07604 0.59882
 C2589 C 0.73732 1.14441 0.59803
 C2590 C 0.71773 1.13573 0.58962
 C2591 C 0.76177 1.07112 0.61682
 C2592 C 0.74240 1.06237 0.60792
 H2593 H 0.73975 1.16201 0.59756
 H2594 H 0.70562 1.14688 0.58292
 H2595 H 0.77375 1.06000 0.62379
 H2596 H 0.74001 1.04476 0.60827
 H2597 H 0.79723 1.09150 0.63218
 H2598 H 0.77499 1.15701 0.61570
 H2599 H 0.68173 1.11537 0.57521
 H2600 H 0.70426 1.04983 0.58995
 C2601 C 0.74916 0.60787 1.10814
 C2602 C 0.76600 0.59358 1.11468
 C2603 C 0.78550 0.60235 1.12323
 C2604 C 0.78819 0.62524 1.12522
 C2605 C 0.77107 0.63929 1.11858
 C2606 C 0.75154 0.63070 1.11002
 C2607 C 0.72862 0.59875 1.09917
 C2608 C 0.71179 0.61306 1.09267
 C2609 C 0.69229 0.60434 1.08418
 C2610 C 0.68953 0.58148 1.08215
 C2611 C 0.70658 0.56735 1.08880
 C2612 C 0.72619 0.57592 1.09732
 C2613 C 0.73431 0.64448 1.10338
 C2614 C 0.71477 0.63581 1.09485
 C2615 C 0.76299 0.57082 1.11253
 C2616 C 0.74342 0.56214 1.10400
 H2617 H 0.73595 0.66212 1.10478
 H2618 H 0.70188 0.64701 1.08991
 H2619 H 0.77586 0.55962 1.11751
 H2620 H 0.74176 0.54450 1.10264
 H2621 H 0.79865 0.59143 1.12809
 H2622 H 0.77285 0.65689 1.12036
 H2623 H 0.67913 0.61532 1.07945
 H2624 H 0.70468 0.54976 1.08712
 C2625 C 1.24919 0.89085 0.89235
 C2626 C 1.26463 0.90505 0.88292
 C2627 C 1.28392 0.89634 0.87387
 C2628 C 1.28817 0.87349 0.87450
 C2629 C 1.27235 0.85962 0.88438
 C2630 C 1.25286 0.86817 0.89308
 C2631 C 1.22871 0.89991 0.90155
 C2632 C 1.21303 0.88562 0.91048
 C2633 C 1.19343 0.89425 0.91885
 C2634 C 1.18955 0.91707 0.91869
 C2635 C 1.20566 0.93116 0.90987
 C2636 C 1.22516 0.92265 0.90111
 C2637 C 1.23683 0.85439 0.90229
 C2638 C 1.21721 0.86296 0.91075
 C2639 C 1.26051 0.92774 0.88278
 C2640 C 1.24116 0.93640 0.89180
 H2641 H 1.23942 0.83682 0.90287
 H2642 H 1.20523 0.85175 0.91761
 H2643 H 1.27234 0.93892 0.87564
 H2644 H 1.23863 0.95398 0.89135
 H2645 H 1.29594 0.90758 0.86718
 H2646 H 1.27454 0.84199 0.88443
 H2647 H 1.18107 0.88313 0.92513
 H2648 H 1.20309 0.94875 0.90991
 C2649 C 1.24909 0.39074 0.39161
 C2650 C 1.25273 0.36804 0.39240
 C2651 C 1.27220 0.35944 0.38369
 C2652 C 1.28801 0.37326 0.37373
 C2653 C 1.28378 0.39611 0.37305
 C2654 C 1.26453 0.40488 0.38209
 C2655 C 1.22866 0.39986 0.40083
 C2656 C 1.22515 0.42261 0.40034
 C2657 C 1.20571 0.43119 0.40917
 C2658 C 1.18961 0.41716 0.41810
 C2659 C 1.19343 0.39433 0.41829
 C2660 C 1.21298 0.38563 0.40986
 C2661 C 1.26045 0.42758 0.38190
 C2662 C 1.24114 0.43630 0.39095
 C2663 C 1.23670 0.35433 0.40170
 C2664 C 1.21711 0.36296 0.41019
 H2665 H 1.27228 0.43871 0.37470
 H2666 H 1.23865 0.45389 0.39046
 H2667 H 1.23926 0.33675 0.40234
 H2668 H 1.20514 0.35180 0.41712
 H2669 H 1.27439 0.34181 0.38381
 H2670 H 1.29581 0.40732 0.36632
 H2671 H 1.20319 0.44878 0.40919
 H2672 H 1.18107 0.38326 0.42466
 C2673 C 0.75006 0.89209 0.39334
 C2674 C 0.76684 0.90656 0.38705
 C2675 C 0.78642 0.89802 0.37845
 C2676 C 0.78923 0.87518 0.37614
 C2677 C 0.77217 0.86095 0.38255
 C2678 C 0.75258 0.86931 0.39117
 C2679 C 0.72940 0.90096 0.40226
 C2680 C 0.71260 0.88647 0.40845
 C2681 C 0.69295 0.89496 0.41681
 C2682 C 0.68999 0.91778 0.41898
 C2683 C 0.70704 0.93209 0.41270
 C2684 C 0.72679 0.92375 0.40433
 C2685 C 0.73540 0.85533 0.39755
 C2686 C 0.71575 0.86377 0.40605
 C2687 C 0.76367 0.92927 0.38945
 C2688 C 0.74399 0.93772 0.39794
 H2689 H 0.73715 0.83772 0.39593
 H2690 H 0.70290 0.85242 0.41075
 H2691 H 0.77650 0.94061 0.38468
 H2692 H 0.74220 0.95534 0.39947
 H2693 H 0.79952 0.90908 0.37375
 H2694 H 0.77402 0.84338 0.38050
 H2695 H 0.67981 0.88385 0.42127
 H2696 H 0.70497 0.94966 0.41450
 C2697 C 0.74877 0.39033 0.89195
 C2698 C 0.76548 0.40466 0.88516
 C2699 C 0.78485 0.39594 0.87630
 C2700 C 0.78756 0.37307 0.87423
 C2701 C 0.77060 0.35896 0.88116
 C2702 C 0.75117 0.36750 0.89001
 C2703 C 0.72833 0.39940 0.90118
 C2704 C 0.71159 0.38507 0.90787
 C2705 C 0.69214 0.39377 0.91650
 C2706 C 0.68935 0.41664 0.91849
 C2707 C 0.70636 0.43077 0.91174
 C2708 C 0.72589 0.42223 0.90306
 C2709 C 0.73406 0.35369 0.89689
 C2710 C 0.71459 0.36232 0.90566
 C2711 C 0.76247 0.42740 0.88737
 C2712 C 0.74301 0.43604 0.89617
 H2713 H 0.73571 0.33605 0.89547
 H2714 H 0.70179 0.35110 0.91074
 H2715 H 0.77525 0.43863 0.88222
 H2716 H 0.74134 0.45368 0.89755
 H2717 H 0.79790 0.40690 0.87125
 H2718 H 0.77241 0.34137 0.87935
 H2719 H 0.67903 0.38277 0.92132
 H2720 H 0.70445 0.44837 0.91340
 C2721 C 0.74927 0.89435 1.10790
 C2722 C 0.73264 0.88762 1.09344
 C2723 C 0.71313 0.87893 1.10203
 C2724 C 0.71022 0.87697 1.12489
 C2725 C 0.72707 0.88391 1.13912
 C2726 C 0.74663 0.89259 1.13071
 C2727 C 0.76991 0.90328 1.09897
 C2728 C 0.78659 0.90984 1.11344
 C2729 C 0.80624 0.91815 1.10490
 C2730 C 0.80930 0.91998 1.08205
 C2731 C 0.79236 0.91333 1.06777
 C2732 C 0.77263 0.90495 1.07616
 C2733 C 0.76368 0.89936 1.14467
 C2734 C 0.78333 0.90784 1.13618
 C2735 C 0.73591 0.88965 1.07071
 C2736 C 0.75556 0.89817 1.06221
 H2737 H 0.76184 0.89806 1.16230
 H2738 H 0.79608 0.91284 1.14750
 H2739 H 0.72320 0.88454 1.05938
 H2740 H 0.75743 0.89940 1.04457
 H2741 H 0.70017 0.87383 1.09097
 H2742 H 0.72512 0.88216 1.15671
 H2743 H 0.81929 0.92286 1.11602
 H2744 H 0.79448 0.91487 1.05018
 C2745 C 0.75120 0.39172 0.60892
 C2746 C 0.73558 0.40572 0.61835
 C2747 C 0.71630 0.39678 0.62719
 C2748 C 0.71224 0.37391 0.62636
 C2749 C 0.72826 0.36023 0.61654
 C2750 C 0.74773 0.36900 0.60803
 C2751 C 0.77162 0.40101 0.59984
 C2752 C 0.78743 0.38691 0.59083
 C2753 C 0.80690 0.39577 0.58243
 C2754 C 0.81053 0.41863 0.58261
 C2755 C 0.79436 0.43253 0.59162
 C2756 C 0.77496 0.42378 0.60040
 C2757 C 0.76393 0.35542 0.59881
 C2758 C 0.78348 0.36421 0.59044
 C2759 C 0.73952 0.42845 0.61865
 C2760 C 0.75882 0.43733 0.60975
 H2761 H 0.76149 0.33782 0.59811
 H2762 H 0.79556 0.35316 0.58353
 H2763 H 0.72755 0.43948 0.62581
 H2764 H 0.76118 0.45494 0.61030
 H2765 H 0.70413 0.40788 0.63384
 H2766 H 0.72623 0.34259 0.61637
 H2767 H 0.81934 0.38481 0.57602
 H2768 H 0.79677 0.45014 0.59163
 C2769 C 0.24945 0.89387 0.60794
 C2770 C 0.23400 0.88460 0.59364
 C2771 C 0.21461 0.87567 0.60224
 C2772 C 0.21029 0.87621 0.62508
 C2773 C 0.22609 0.88598 0.63906
 C2774 C 0.24567 0.89457 0.63062
 C2775 C 0.27005 0.90289 0.59901
 C2776 C 0.28574 0.91165 0.61340
 C2777 C 0.30546 0.91985 0.60489
 C2778 C 0.30945 0.91971 0.58208
 C2779 C 0.29335 0.91106 0.56788
 C2780 C 0.27372 0.90246 0.57628
 C2781 C 0.26172 0.90361 0.64450
 C2782 C 0.28146 0.91192 0.63604
 C2783 C 0.23823 0.88448 0.57096
 C2784 C 0.25771 0.89334 0.56242
 H2785 H 0.25905 0.90418 0.66207
 H2786 H 0.29343 0.91865 0.64733
 H2787 H 0.22639 0.87746 0.55971
 H2788 H 0.26032 0.89290 0.54484
 H2789 H 0.20260 0.86910 0.59092
 H2790 H 0.22382 0.88598 0.65668
 H2791 H 0.31782 0.92601 0.61608
 H2792 H 0.29601 0.91111 0.55030
 C2793 C 0.25049 0.39244 1.10829
 C2794 C 0.24684 0.39306 1.13099
 C2795 C 0.22738 0.38426 1.13951
 C2796 C 0.21157 0.37442 1.12560
 C2797 C 0.21583 0.37383 1.10275
 C2798 C 0.23508 0.38298 1.09406
 C2799 C 0.27091 0.40179 1.09927
 C2800 C 0.27444 0.40147 1.07652
 C2801 C 0.29388 0.41040 1.06803
 C2802 C 0.30995 0.41925 1.08217
 C2803 C 0.30609 0.41928 1.10499
 C2804 C 0.28655 0.41075 1.11359
 C2805 C 0.23920 0.38296 1.07136
 C2806 C 0.25849 0.39213 1.06273
 C2807 C 0.26283 0.40228 1.14481
 C2808 C 0.28240 0.41089 1.13626
 H2809 H 0.22740 0.37580 1.06016
 H2810 H 0.26101 0.39177 1.04514
 H2811 H 0.26025 0.40278 1.16239
 H2812 H 0.29434 0.41776 1.14750
 H2813 H 0.22520 0.38423 1.15714
 H2814 H 0.20382 0.36713 1.09149
 H2815 H 0.29643 0.41054 1.05044
 H2816 H 0.31843 0.42558 1.11613
 C2817 C 0.75064 1.10884 0.89223
 C2818 C 0.73516 1.09464 0.88287
 C2819 C 0.71584 1.10336 0.87387
 C2820 C 0.71161 1.12620 0.87452
 C2821 C 0.72749 1.14008 0.88428
 C2822 C 0.74701 1.13154 0.89292
 C2823 C 0.77112 1.09979 0.90141
 C2824 C 0.78684 1.11409 0.91028
 C2825 C 0.80643 1.10546 0.91866
 C2826 C 0.81026 1.08263 0.91859
 C2827 C 0.79413 1.06853 0.90983
 C2828 C 0.77463 1.07704 0.90104
 C2829 C 0.76308 1.14532 0.90205
 C2830 C 0.78271 1.13675 0.91049
 C2831 C 0.73925 1.07194 0.88278
 C2832 C 0.75861 1.06329 0.89180
 H2833 H 0.76051 1.16290 0.90259
 H2834 H 0.79471 1.14796 0.91729
 H2835 H 0.72739 1.06076 0.87569
 H2836 H 0.76111 1.04570 0.89139
 H2837 H 0.70379 1.09212 0.86724
 H2838 H 0.72532 1.15771 0.88431
 H2839 H 0.81882 1.11658 0.92489
 H2840 H 0.79666 1.05094 0.90994
 C2841 C 0.75181 0.61006 0.39113
 C2842 C 0.73492 0.61642 0.40544
 C2843 C 0.71550 0.62518 0.39671
 C2844 C 0.71293 0.62755 0.37385
 C2845 C 0.73012 0.62115 0.35977
 C2846 C 0.74958 0.61237 0.36832
 C2847 C 0.77223 0.60077 0.40019
 C2848 C 0.78910 0.59440 0.38585
 C2849 C 0.80848 0.58559 0.39453
 C2850 C 0.81108 0.58313 0.41738
 C2851 C 0.79398 0.58964 0.43152
 C2852 C 0.77450 0.59846 0.42300
 C2853 C 0.76684 0.60587 0.35451
 C2854 C 0.78627 0.59703 0.36313
 C2855 C 0.73778 0.61383 0.42817
 C2856 C 0.75724 0.60500 0.43680
 H2857 H 0.76532 0.60760 0.33688
 H2858 H 0.79919 0.59220 0.35191
 H2859 H 0.72487 0.61866 0.43939
 H2860 H 0.75877 0.60330 0.45443
 H2861 H 0.70228 0.62983 0.40766
 H2862 H 0.72844 0.62322 0.34219
 H2863 H 0.82167 0.58096 0.38354
 H2864 H 0.79577 0.58763 0.44910
 C2865 C 0.24985 1.10882 0.39304
 C2866 C 0.23443 1.09459 0.38363
 C2867 C 0.21506 1.10326 0.37473
 C2868 C 0.21071 1.12608 0.37548
 C2869 C 0.22648 1.13999 0.38539
 C2870 C 0.24607 1.13149 0.39392
 C2871 C 0.27043 1.09982 0.40205
 C2872 C 0.28612 1.11413 0.41093
 C2873 C 0.30581 1.10555 0.41912
 C2874 C 0.30976 1.08274 0.41887
 C2875 C 0.29365 1.06861 0.41010
 C2876 C 0.27407 1.07709 0.40148
 C2877 C 0.26211 1.14529 0.40308
 C2878 C 0.28184 1.13677 0.41134
 C2879 C 0.23864 1.07192 0.38337
 C2880 C 0.25808 1.06331 0.39223
 H2881 H 0.25945 1.16285 0.40378
 H2882 H 0.29382 1.14800 0.41817
 H2883 H 0.22681 1.06072 0.37624
 H2884 H 0.26067 1.04573 0.39169
 H2885 H 0.20306 1.09199 0.36806
 H2886 H 0.22416 1.15760 0.38557
 H2887 H 0.31817 1.11669 0.42536
 H2888 H 0.29627 1.05104 0.41008
 C2889 C 0.25009 0.60763 0.89218
 C2890 C 0.23462 0.61690 0.90645
 C2891 C 0.21516 0.62568 0.89782
 C2892 C 0.21080 0.62497 0.87499
 C2893 C 0.22667 0.61526 0.86105
 C2894 C 0.24631 0.60681 0.86951
 C2895 C 0.27072 0.59869 0.90114
 C2896 C 0.28641 0.58989 0.88677
 C2897 C 0.30611 0.58169 0.89531
 C2898 C 0.31010 0.58186 0.91812
 C2899 C 0.29403 0.59062 0.93229
 C2900 C 0.27440 0.59921 0.92387
 C2901 C 0.26237 0.59777 0.85565
 C2902 C 0.28212 0.58953 0.86413
 C2903 C 0.23887 0.61713 0.92913
 C2904 C 0.25838 0.60837 0.93769
 H2905 H 0.25969 0.59712 0.83809
 H2906 H 0.29410 0.58278 0.85287
 H2907 H 0.22702 0.62416 0.94036
 H2908 H 0.26100 0.60888 0.95527
 H2909 H 0.20313 0.63223 0.90912
 H2910 H 0.22440 0.61517 0.84343
 H2911 H 0.31846 0.57546 0.88413
 H2912 H 0.29670 0.59062 0.94987
 C2913 C 1.10853 1.24912 1.10738
 C2914 C 1.11073 1.25152 1.13018
 C2915 C 1.11936 1.27107 1.13863
 C2916 C 1.12574 1.28821 1.12449
 C2917 C 1.12345 1.28549 1.10163
 C2918 C 1.11484 1.26596 1.09299
 C2919 C 1.09949 1.22854 1.09841
 C2920 C 1.09733 1.22607 1.07561
 C2921 C 1.08876 1.20642 1.06718
 C2922 C 1.08234 1.18938 1.08143
 C2923 C 1.08466 1.19219 1.10426
 C2924 C 1.09321 1.21172 1.11284
 C2925 C 1.11239 1.26291 1.07026
 C2926 C 1.10379 1.24330 1.06172
 C2927 C 1.10431 1.23430 1.14408
 C2928 C 1.09569 1.21473 1.13555
 H2929 H 1.11718 1.27577 1.05897
 H2930 H 1.10220 1.24161 1.04409
 H2931 H 1.10595 1.23596 1.16171
 H2932 H 1.09094 1.20185 1.14684
 H2933 H 1.12139 1.27283 1.15621
 H2934 H 1.12813 1.29866 1.09063
 H2935 H 1.08687 1.20447 1.04961
 H2936 H 1.08011 1.17903 1.11533
 C2937 C 1.10813 0.75050 0.60556
 C2938 C 1.09362 0.76714 0.61213
 C2939 C 1.10214 0.78675 0.62068
 C2940 C 1.12498 0.78974 0.62266
 C2941 C 1.13927 0.77288 0.61586
 C2942 C 1.13093 0.75322 0.60734
 C2943 C 1.09928 0.72974 0.59682
 C2944 C 1.11380 0.71304 0.59044
 C2945 C 1.10532 0.69328 0.58231
 C2946 C 1.08249 0.69014 0.58050
 C2947 C 1.06816 0.70710 0.58695
 C2948 C 1.07648 0.72694 0.59515
 C2949 C 1.14494 0.73615 0.60073
 C2950 C 1.13652 0.71640 0.59243
 C2951 C 1.07091 0.76378 0.61011
 C2952 C 1.06248 0.74403 0.60175
 H2953 H 1.16256 0.73806 0.60204
 H2954 H 1.14789 0.70363 0.58757
 H2955 H 1.05954 0.77650 0.61509
 H2956 H 1.04485 0.74209 0.60052
 H2957 H 1.09104 0.79971 0.62568
 H2958 H 1.15684 0.77490 0.61763
 H2959 H 1.11648 0.68021 0.57774
 H2960 H 1.05058 0.70492 0.58541
 C2961 C 0.60995 1.24805 0.60877
 C2962 C 0.61174 1.25040 0.63162
 C2963 C 0.62048 1.26983 0.64027
 C2964 C 0.62741 1.28685 0.62625
 C2965 C 0.62554 1.28418 0.60335
 C2966 C 0.61679 1.26481 0.59452
 C2967 C 0.60074 1.22765 0.59959
 C2968 C 0.59893 1.22528 0.57674
 C2969 C 0.59017 1.20582 0.56811
 C2970 C 0.58325 1.18883 0.58218
 C2971 C 0.58524 1.19152 0.60506
 C2972 C 0.59395 1.21089 0.61385
 C2973 C 0.61470 1.26185 0.57175
 C2974 C 0.60592 1.24242 0.56301
 C2975 C 0.60480 1.23325 0.64535
 C2976 C 0.59606 1.21382 0.63662
 H2977 H 0.61990 1.27466 0.56058
 H2978 H 0.60461 1.24081 0.54535
 H2979 H 0.60612 1.23486 0.66301
 H2980 H 0.59089 1.20099 0.64779
 H2981 H 0.62214 1.27161 0.65788
 H2982 H 0.63063 1.29728 0.59246
 H2983 H 0.58852 1.20397 0.55050
 H2984 H 0.58030 1.17840 0.61601
 C2985 C 0.60883 0.74953 1.10700
 C2986 C 0.59444 0.76622 1.11371
 C2987 C 0.60308 0.78565 1.12250
 C2988 C 0.62594 0.78845 1.12458
 C2989 C 0.64012 0.77154 1.11768
 C2990 C 0.63164 0.75204 1.10891
 C2991 C 0.59982 0.72900 1.09791
 C2992 C 0.61422 0.71226 1.09134
 C2993 C 0.60558 0.69271 1.08286
 C2994 C 0.58272 0.68982 1.08090
 C2995 C 0.56853 0.70683 1.08753
 C2996 C 0.57700 0.72645 1.09607
 C2997 C 0.64552 0.73493 1.10213
 C2998 C 0.63695 0.71537 1.09350
 C2999 C 0.57170 0.76311 1.11153
 C3000 C 0.56313 0.74356 1.10285
 H3001 H 0.66315 0.73666 1.10354
 H3002 H 0.64822 0.70257 1.08850
 H3003 H 0.56042 0.77587 1.11662
 H3004 H 0.54549 0.74181 1.10149
 H3005 H 0.59207 0.79867 1.12753
 H3006 H 0.65770 0.77343 1.11949
 H3007 H 0.61663 0.67960 1.07814
 H3008 H 0.55094 0.70484 1.08588
 C3009 C 0.89251 1.24896 0.89146
 C3010 C 0.86969 1.25124 0.88938
 C3011 C 0.86111 1.27075 0.88079
 C3012 C 0.87513 1.28796 0.87434
 C3013 C 0.89801 1.28536 0.87653
 C3014 C 0.90679 1.26587 0.88509
 C3015 C 0.90162 1.22843 0.90045
 C3016 C 0.92445 1.22607 0.90248
 C3017 C 0.93301 1.20647 0.91101
 C3018 C 0.91888 1.18937 0.91752
 C3019 C 0.89603 1.19205 0.91532
 C3020 C 0.88732 1.21153 0.90680
 C3021 C 0.92954 1.26294 0.88742
 C3022 C 0.93822 1.24337 0.89596
 C3023 C 0.85591 1.23395 0.89586
 C3024 C 0.86458 1.21442 0.90443
 H3025 H 0.94074 1.27586 0.88257
 H3026 H 0.95586 1.24178 0.89745
 H3027 H 0.83828 1.23552 0.89431
 H3028 H 0.85338 1.20149 0.90925
 H3029 H 0.84351 1.27242 0.87883
 H3030 H 0.90892 1.29858 0.87181
 H3031 H 0.95060 1.20460 0.91281
 H3032 H 0.88505 1.17885 0.91995
 C3033 C 0.89220 0.74914 0.39169
 C3034 C 0.90646 0.76593 0.38497
 C3035 C 0.89766 0.78538 0.37638
 C3036 C 0.87477 0.78810 0.37455
 C3037 C 0.86073 0.77106 0.38138
 C3038 C 0.86936 0.75155 0.38995
 C3039 C 0.90134 0.72864 0.40068
 C3040 C 0.88706 0.71184 0.40732
 C3041 C 0.89582 0.69236 0.41581
 C3042 C 0.91869 0.68961 0.41774
 C3043 C 0.93279 0.70664 0.41096
 C3044 C 0.92419 0.72620 0.40241
 C3045 C 0.85559 0.73436 0.39676
 C3046 C 0.86430 0.71483 0.40529
 C3047 C 0.92923 0.76292 0.38699
 C3048 C 0.93794 0.74339 0.39557
 H3049 H 0.83794 0.73601 0.39547
 H3050 H 0.85312 0.70198 0.41034
 H3051 H 0.94041 0.77575 0.38189
 H3052 H 0.95559 0.74173 0.39684
 H3053 H 0.90857 0.79850 0.37137
 H3054 H 0.84312 0.77287 0.37974
 H3055 H 0.88485 0.67922 0.42062
 H3056 H 0.95039 0.70474 0.41257
 C3057 C 0.39163 1.24873 0.39036
 C3058 C 0.40587 1.26574 0.38417
 C3059 C 0.39707 1.28518 0.37551
 C3060 C 0.37421 1.28763 0.37302
 C3061 C 0.36022 1.27030 0.37925
 C3062 C 0.36883 1.25085 0.38797
 C3063 C 0.40077 1.22829 0.39953
 C3064 C 0.38650 1.21131 0.40576
 C3065 C 0.39525 1.19192 0.41448
 C3066 C 0.41809 1.18941 0.41698
 C3067 C 0.43217 1.20660 0.41058
 C3068 C 0.42358 1.22611 0.40188
 C3069 C 0.35509 1.23347 0.39431
 C3070 C 0.36378 1.21403 0.40307
 C3071 C 0.42861 1.26298 0.38681
 C3072 C 0.43731 1.24349 0.39550
 H3073 H 0.33747 1.23491 0.39252
 H3074 H 0.35261 1.20104 0.40778
 H3075 H 0.43978 1.27598 0.38211
 H3076 H 0.45494 1.24203 0.39724
 H3077 H 0.40796 1.29848 0.37099
 H3078 H 0.34264 1.27186 0.37708
 H3079 H 0.38432 1.17866 0.41903
 H3080 H 0.44975 1.20486 0.41262
 C3081 C 0.39195 0.74877 0.89054
 C3082 C 0.38515 0.76548 0.90487
 C3083 C 0.37612 0.78476 0.89615
 C3084 C 0.37392 0.78739 0.87328
 C3085 C 0.38086 0.77043 0.85917
 C3086 C 0.38987 0.75108 0.86772
 C3087 C 0.40136 0.72842 0.89962
 C3088 C 0.40805 0.71167 0.88529
 C3089 C 0.41683 0.69229 0.89399
 C3090 C 0.41896 0.68958 0.91686
 C3091 C 0.41223 0.70661 0.93099
 C3092 C 0.40339 0.72606 0.92245
 C3093 C 0.39676 0.73397 0.85390
 C3094 C 0.40569 0.71459 0.86254
 C3095 C 0.38752 0.76256 0.92762
 C3096 C 0.39649 0.74318 0.93626
 H3097 H 0.39522 0.73556 0.83626
 H3098 H 0.41078 0.70177 0.85132
 H3099 H 0.38235 0.77534 0.93884
 H3100 H 0.39799 0.74158 0.95390
 H3101 H 0.37105 0.79782 0.90710
 H3102 H 0.37895 0.77219 0.84158
 H3103 H 0.42163 0.67916 0.88300
 H3104 H 0.41401 0.70476 0.94859
 C3105 C 1.10728 0.74971 0.89371
 C3106 C 1.09295 0.73293 0.88709
 C3107 C 1.10168 0.71337 0.87864
 C3108 C 1.12456 0.71056 0.87682
 C3109 C 1.13866 0.72756 0.88366
 C3110 C 1.13012 0.74717 0.89208
 C3111 C 1.09821 0.77040 0.90239
 C3112 C 1.11256 0.78720 0.90887
 C3113 C 1.10388 0.80686 0.91702
 C3114 C 1.08101 0.80979 0.91879
 C3115 C 1.06685 0.79275 0.91217
 C3116 C 1.07538 0.77300 0.90395
 C3117 C 1.14394 0.76436 0.89875
 C3118 C 1.13531 0.78405 0.90699
 C3119 C 1.07019 0.73611 0.88897
 C3120 C 1.06156 0.75580 0.89727
 H3121 H 1.16159 0.76260 0.89754
 H3122 H 1.14655 0.79691 0.91193
 H3123 H 1.05896 0.72329 0.88394
 H3124 H 1.04391 0.75758 0.89841
 H3125 H 1.09072 0.70031 0.87362
 H3126 H 1.15627 0.72569 0.88200
 H3127 H 1.11491 0.82000 0.92171
 H3128 H 1.04925 0.79478 0.91365
 C3129 C 1.10645 0.24997 0.39219
 C3130 C 1.10797 0.24727 0.36936
 C3131 C 1.11657 0.22769 0.36090
 C3132 C 1.12371 0.21091 0.37509
 C3133 C 1.12201 0.21389 0.39797
 C3134 C 1.11338 0.23339 0.40661
 C3135 C 1.09756 0.27060 0.40117
 C3136 C 1.09609 0.27335 0.42400
 C3137 C 1.08770 0.29305 0.43244
 C3138 C 1.08085 0.30994 0.41821
 C3139 C 1.08249 0.30686 0.39534
 C3140 C 1.09079 0.28722 0.38674
 C3141 C 1.11158 0.23671 0.42936
 C3142 C 1.10307 0.25634 0.43791
 C3143 C 1.10099 0.26427 0.35545
 C3144 C 1.09257 0.28392 0.36399
 H3145 H 1.11684 0.22404 0.44065
 H3146 H 1.10201 0.25824 0.45555
 H3147 H 1.10210 0.26239 0.33780
 H3148 H 1.08741 0.29663 0.35270
 H3149 H 1.11810 0.22567 0.34329
 H3150 H 1.12726 0.20097 0.40900
 H3151 H 1.08630 0.29518 0.45005
 H3152 H 1.07762 0.31987 0.38425
 C3153 C 0.60639 0.75040 0.39196
 C3154 C 0.60815 0.74787 0.36913
 C3155 C 0.61696 0.72841 0.36063
 C3156 C 0.62404 0.71155 0.37478
 C3157 C 0.62213 0.71437 0.39765
 C3158 C 0.61329 0.73378 0.40634
 C3159 C 0.59728 0.77092 0.40098
 C3160 C 0.59559 0.77353 0.42381
 C3161 C 0.58704 0.79315 0.43229
 C3162 C 0.58024 0.81009 0.41809
 C3163 C 0.58206 0.80713 0.39522
 C3164 C 0.59055 0.78759 0.38658
 C3165 C 0.61126 0.73695 0.42909
 C3166 C 0.60256 0.75648 0.43767
 C3167 C 0.60120 0.76490 0.35526
 C3168 C 0.59255 0.78444 0.36384
 H3169 H 0.61650 0.72424 0.44036
 H3170 H 0.60133 0.75827 0.45532
 H3171 H 0.60249 0.76314 0.33761
 H3172 H 0.58743 0.79719 0.35257
 H3173 H 0.61867 0.72653 0.34303
 H3174 H 0.62735 0.70141 0.40865
 H3175 H 0.58551 0.79518 0.44989
 H3176 H 0.57723 0.82019 0.38416
 C3177 C 0.60847 0.25119 0.89164
 C3178 C 0.59431 0.23420 0.88522
 C3179 C 0.60321 0.21485 0.87649
 C3180 C 0.62609 0.21247 0.87416
 C3181 C 0.64002 0.22973 0.88069
 C3182 C 0.63130 0.24912 0.88945
 C3183 C 0.59921 0.27158 0.90081
 C3184 C 0.61339 0.28857 0.90720
 C3185 C 0.60452 0.30792 0.91587
 C3186 C 0.58165 0.31037 0.91817
 C3187 C 0.56766 0.29317 0.91163
 C3188 C 0.57637 0.27371 0.90295
 C3189 C 0.64495 0.26650 0.89599
 C3190 C 0.63614 0.28589 0.90473
 C3191 C 0.57154 0.23690 0.88767
 C3192 C 0.56273 0.25632 0.89638
 H3193 H 0.66259 0.26509 0.89436
 H3194 H 0.64724 0.29890 0.90958
 H3195 H 0.56044 0.22390 0.88279
 H3196 H 0.54508 0.25775 0.89796
 H3197 H 0.59238 0.20157 0.87174
 H3198 H 0.65762 0.22819 0.87866
 H3199 H 0.61538 0.32121 0.92053
 H3200 H 0.55006 0.29485 0.91351
 C3201 C 0.89153 0.75092 1.10731
 C3202 C 0.90593 0.73411 1.11369
 C3203 C 0.89728 0.71455 1.12221
 C3204 C 0.87443 0.71177 1.12436
 C3205 C 0.86026 0.72883 1.11781
 C3206 C 0.86872 0.74843 1.10929
 C3207 C 0.90052 0.77158 1.09850
 C3208 C 0.88611 0.78841 1.09222
 C3209 C 0.89471 0.80805 1.08394
 C3210 C 0.91756 0.81094 1.08190
 C3211 C 0.93178 0.79387 1.08829
 C3212 C 0.92333 0.77414 1.09660
 C3213 C 0.85483 0.76564 1.10283
 C3214 C 0.86338 0.78530 1.09444
 C3215 C 0.92866 0.73724 1.11147
 C3216 C 0.93721 0.75691 1.10307
 H3217 H 0.83720 0.76392 1.10429
 H3218 H 0.85210 0.79818 1.08966
 H3219 H 0.93994 0.72439 1.11631
 H3220 H 0.95485 0.75867 1.10167
 H3221 H 0.90830 0.70144 1.12699
 H3222 H 0.84268 0.72698 1.11971
 H3223 H 0.88365 0.82121 1.07941
 H3224 H 0.94936 0.79588 1.08659
 C3225 C 0.89023 0.25221 0.60879
 C3226 C 0.86741 0.24996 0.61096
 C3227 C 0.85882 0.23056 0.61983
 C3228 C 0.87289 0.21347 0.62652
 C3229 C 0.89575 0.21604 0.62423
 C3230 C 0.90451 0.23538 0.61537
 C3231 C 0.89935 0.27259 0.59948
 C3232 C 0.92217 0.27486 0.59734
 C3233 C 0.93076 0.29432 0.58856
 C3234 C 0.91668 0.31143 0.58196
 C3235 C 0.89381 0.30882 0.58422
 C3236 C 0.88506 0.28943 0.59296
 C3237 C 0.92725 0.23822 0.61291
 C3238 C 0.93594 0.25763 0.60405
 C3239 C 0.85364 0.26719 0.60426
 C3240 C 0.86232 0.28660 0.59542
 H3241 H 0.93844 0.22535 0.61790
 H3242 H 0.95357 0.25917 0.60247
 H3243 H 0.83601 0.26566 0.60587
 H3244 H 0.85113 0.29949 0.59047
 H3245 H 0.84124 0.22885 0.62179
 H3246 H 0.90668 0.20288 0.62909
 H3247 H 0.94835 0.29610 0.58669
 H3248 H 0.88286 0.32201 0.57951
 C3249 C 0.39200 0.75090 0.60841
 C3250 C 0.39002 0.74845 0.63123
 C3251 C 0.38142 0.72889 0.63971
 C3252 C 0.37481 0.71184 0.62556
 C3253 C 0.37693 0.71459 0.60270
 C3254 C 0.38552 0.73411 0.59403
 C3255 C 0.40096 0.77149 0.59941
 C3256 C 0.40288 0.77400 0.57659
 C3257 C 0.41136 0.79366 0.56812
 C3258 C 0.41788 0.81070 0.58233
 C3259 C 0.41580 0.80786 0.60519
 C3260 C 0.40736 0.78829 0.61381
 C3261 C 0.38776 0.73719 0.57129
 C3262 C 0.39629 0.75680 0.56272
 C3263 C 0.39659 0.76564 0.64511
 C3264 C 0.40511 0.78523 0.63655
 H3265 H 0.38284 0.72436 0.56002
 H3266 H 0.39771 0.75852 0.54508
 H3267 H 0.39512 0.76394 0.66275
 H3268 H 0.40998 0.79809 0.64782
 H3269 H 0.37954 0.72706 0.65730
 H3270 H 0.37210 0.70148 0.59170
 H3271 H 0.41308 0.79563 0.55053
 H3272 H 0.42044 0.82100 0.61623
 C3273 C 0.39127 0.25034 1.10777
 C3274 C 0.40569 0.23367 1.11445
 C3275 C 0.39707 0.21416 1.12309
 C3276 C 0.37421 0.21129 1.12504
 C3277 C 0.36001 0.22821 1.11823
 C3278 C 0.36846 0.24777 1.10959
 C3279 C 0.40023 0.27093 1.09877
 C3280 C 0.38580 0.28762 1.09219
 C3281 C 0.39439 0.30720 1.08375
 C3282 C 0.41724 0.31015 1.08183
 C3283 C 0.43148 0.29320 1.08850
 C3284 C 0.42305 0.27354 1.09699
 C3285 C 0.35454 0.26485 1.10283
 C3286 C 0.36307 0.28445 1.09428
 C3287 C 0.42842 0.23686 1.11236
 C3288 C 0.43696 0.25646 1.10377
 H3289 H 0.33691 0.26307 1.10418
 H3290 H 0.35178 0.29723 1.08928
 H3291 H 0.43972 0.22411 1.11743
 H3292 H 0.45459 0.25826 1.10247
 H3293 H 0.40809 0.20114 1.12809
 H3294 H 0.34242 0.22627 1.11996
 H3295 H 0.38332 0.32027 1.07901
 H3296 H 0.44907 0.29524 1.08688
 C3297 C 1.10788 1.10775 0.74959
 C3298 C 1.11712 1.09363 0.73396
 C3299 C 1.12587 1.10245 0.71458
 C3300 C 1.12515 1.12531 0.71044
 C3301 C 1.11546 1.13910 0.72646
 C3302 C 1.10706 1.13045 0.74603
 C3303 C 1.09898 1.09860 0.77015
 C3304 C 1.09022 1.11281 0.78600
 C3305 C 1.08204 1.10409 0.80563
 C3306 C 1.08215 1.08125 0.80936
 C3307 C 1.09089 1.06723 0.79315
 C3308 C 1.09948 1.07584 0.77360
 C3309 C 1.09806 1.14415 0.76225
 C3310 C 1.08987 1.13549 0.78194
 C3311 C 1.11735 1.07092 0.73799
 C3312 C 1.10860 1.06217 0.75743
 H3313 H 1.09741 1.16173 0.75974
 H3314 H 1.08314 1.14663 0.79405
 H3315 H 1.12435 1.05981 0.72601
 H3316 H 1.10910 1.04457 0.75987
 H3317 H 1.13241 1.09127 0.70241
 H3318 H 1.11536 1.15673 0.72435
 H3319 H 1.07585 1.11515 0.81809
 H3320 H 1.09084 1.04963 0.79564
 C3321 C 1.10862 0.60773 0.24980
 C3322 C 1.13132 0.60721 0.24625
 C3323 C 1.13989 0.61599 0.22681
 C3324 C 1.12601 0.62569 0.21087
 C3325 C 1.10314 0.62613 0.21501
 C3326 C 1.09441 0.61704 0.23428
 C3327 C 1.09956 0.59846 0.27025
 C3328 C 1.07680 0.59874 0.27372
 C3329 C 1.06828 0.58990 0.29320
 C3330 C 1.08240 0.58115 0.30933
 C3331 C 1.10522 0.58116 0.30553
 C3332 C 1.11386 0.58963 0.28598
 C3333 C 1.07170 0.61700 0.23833
 C3334 C 1.06304 0.60793 0.25766
 C3335 C 1.14511 0.59812 0.26234
 C3336 C 1.13653 0.58955 0.28190
 H3337 H 1.06052 0.62404 0.22644
 H3338 H 1.04544 0.60825 0.26013
 H3339 H 1.16270 0.59769 0.25983
 H3340 H 1.14774 0.58278 0.29392
 H3341 H 1.15753 0.61614 0.22476
 H3342 H 1.09190 0.63270 0.20293
 H3343 H 1.05069 0.58975 0.29574
 H3344 H 1.11634 0.57493 0.31792
 C3345 C 0.60873 1.10764 0.25059
 C3346 C 0.63155 1.10958 0.24818
 C3347 C 0.64008 1.11842 0.22873
 C3348 C 0.62595 1.12530 0.21178
 C3349 C 0.60309 1.12322 0.21449
 C3350 C 0.59439 1.11439 0.23388
 C3351 C 0.59968 1.09845 0.27106
 C3352 C 0.57686 1.09657 0.27352
 C3353 C 0.56834 1.08792 0.29307
 C3354 C 0.58250 1.08119 0.31007
 C3355 C 0.60536 1.08319 0.30727
 C3356 C 0.61404 1.09180 0.28780
 C3357 C 0.57164 1.11218 0.23691
 C3358 C 0.56302 1.10342 0.25640
 C3359 C 0.64539 1.10274 0.26529
 C3360 C 0.63678 1.09400 0.28478
 H3361 H 0.56040 1.11730 0.22413
 H3362 H 0.54539 1.10204 0.25809
 H3363 H 0.66303 1.10418 0.26363
 H3364 H 0.64802 1.08895 0.29759
 H3365 H 0.65767 1.12025 0.22692
 H3366 H 0.59212 1.12825 0.20143
 H3367 H 0.55074 1.08625 0.29501
 H3368 H 0.61637 1.07838 0.32038
 C3369 C 0.60872 0.60749 0.75054
 C3370 C 0.63153 0.60963 0.74821
 C3371 C 0.64004 0.61853 0.72880
 C3372 C 0.62592 0.62526 0.71176
 C3373 C 0.60307 0.62301 0.71440
 C3374 C 0.59437 0.61411 0.73377
 C3375 C 0.59968 0.59819 0.77097
 C3376 C 0.57687 0.59610 0.77336
 C3377 C 0.56837 0.58736 0.79288
 C3378 C 0.58253 0.58075 0.80992
 C3379 C 0.60538 0.58294 0.80719
 C3380 C 0.61404 0.59165 0.78775
 C3381 C 0.57164 0.61170 0.73673
 C3382 C 0.56303 0.60284 0.75619
 C3383 C 0.64537 0.60291 0.76537
 C3384 C 0.63677 0.59407 0.78481
 H3385 H 0.56039 0.61672 0.72392
 H3386 H 0.54540 0.60131 0.75782
 H3387 H 0.66300 0.60451 0.76376
 H3388 H 0.64801 0.58911 0.79765
 H3389 H 0.65762 0.62051 0.72706
 H3390 H 0.59210 0.62794 0.70130
 H3391 H 0.55078 0.58555 0.79477
 H3392 H 0.61639 0.57823 0.82033
 C3393 C 0.89170 0.89273 0.75010
 C3394 C 0.86890 0.89078 0.74756
 C3395 C 0.86047 0.88214 0.72798
 C3396 C 0.87468 0.87546 0.71100
 C3397 C 0.89753 0.87756 0.71384
 C3398 C 0.90613 0.88619 0.73338
 C3399 C 0.90064 0.90169 0.77072
 C3400 C 0.92345 0.90356 0.77334
 C3401 C 0.93186 0.91200 0.79304
 C3402 C 0.91760 0.91855 0.81003
 C3403 C 0.89476 0.91655 0.80708
 C3404 C 0.88620 0.90814 0.78747
 C3405 C 0.92886 0.88839 0.73655
 C3406 C 0.93737 0.89692 0.75620
 C3407 C 0.85497 0.89741 0.76468
 C3408 C 0.86347 0.90595 0.78431
 H3409 H 0.94017 0.88342 0.72377
 H3410 H 0.95500 0.89830 0.75799
 H3411 H 0.83734 0.89597 0.76291
 H3412 H 0.85217 0.91085 0.79712
 H3413 H 0.84289 0.88028 0.72609
 H3414 H 0.90857 0.87267 0.70078
 H3415 H 0.94944 0.91367 0.79509
 H3416 H 0.88368 0.92121 0.82018
 C3417 C 0.89204 0.39258 0.24998
 C3418 C 0.86924 0.39045 0.24759
 C3419 C 0.86076 0.38171 0.22809
 C3420 C 0.87489 0.37513 0.21101
 C3421 C 0.89775 0.37741 0.21369
 C3422 C 0.90641 0.38612 0.23317
 C3423 C 0.90104 0.40165 0.27053
 C3424 C 0.92385 0.40368 0.27301
 C3425 C 0.93231 0.41222 0.29266
 C3426 C 0.91810 0.41872 0.30970
 C3427 C 0.89526 0.41657 0.30688
 C3428 C 0.88664 0.40804 0.28734
 C3429 C 0.92914 0.38849 0.23622
 C3430 C 0.93771 0.39711 0.25580
 C3431 C 0.85536 0.39701 0.26479
 C3432 C 0.86392 0.40566 0.28433
 H3433 H 0.94041 0.38358 0.22337
 H3434 H 0.95534 0.39861 0.25749
 H3435 H 0.83774 0.39543 0.26313
 H3436 H 0.85265 0.41051 0.29720
 H3437 H 0.84318 0.37969 0.22634
 H3438 H 0.90874 0.37259 0.20057
 H3439 H 0.94989 0.41399 0.29463
 H3440 H 0.88421 0.42120 0.32003
 C3441 C 0.39284 0.89262 0.24960
 C3442 C 0.38620 0.90698 0.23285
 C3443 C 0.37780 0.89828 0.21326
 C3444 C 0.37605 0.87540 0.21037
 C3445 C 0.38289 0.86127 0.22734
 C3446 C 0.39126 0.86979 0.24699
 C3447 C 0.40149 0.90165 0.27031
 C3448 C 0.40799 0.88727 0.28708
 C3449 C 0.41611 0.89591 0.30677
 C3450 C 0.41786 0.91877 0.30977
 C3451 C 0.41123 0.93297 0.29276
 C3452 C 0.40303 0.92448 0.27298
 C3453 C 0.39794 0.85593 0.26414
 C3454 C 0.40615 0.86452 0.28386
 C3455 C 0.38804 0.92973 0.23610
 C3456 C 0.39632 0.93833 0.25582
 H3457 H 0.39678 0.83828 0.26233
 H3458 H 0.41110 0.85326 0.29669
 H3459 H 0.38299 0.94099 0.22330
 H3460 H 0.39743 0.95598 0.25765
 H3461 H 0.37275 0.90926 0.20021
 H3462 H 0.38129 0.84367 0.22541
 H3463 H 0.42080 0.88485 0.31988
 H3464 H 0.41270 0.95057 0.29483
 C3465 C 0.39267 0.39205 0.74960
 C3466 C 0.39382 0.36942 0.74572
 C3467 C 0.38543 0.36090 0.72608
 C3468 C 0.37541 0.37474 0.71033
 C3469 C 0.37435 0.39753 0.71477
 C3470 C 0.38312 0.40623 0.73421
 C3471 C 0.40154 0.40106 0.77024
 C3472 C 0.40073 0.42377 0.77400
 C3473 C 0.40928 0.43224 0.79364
 C3474 C 0.41822 0.41813 0.80967
 C3475 C 0.41864 0.39534 0.80561
 C3476 C 0.41055 0.38677 0.78588
 C3477 C 0.38259 0.42888 0.73855
 C3478 C 0.39134 0.43751 0.75805
 C3479 C 0.40309 0.35564 0.76171
 C3480 C 0.41122 0.36416 0.78150
 H3481 H 0.37535 0.44005 0.72677
 H3482 H 0.39060 0.45506 0.76073
 H3483 H 0.40399 0.33810 0.75896
 H3484 H 0.41814 0.35295 0.79343
 H3485 H 0.38579 0.34330 0.72374
 H3486 H 0.36751 0.40874 0.70281
 H3487 H 0.40910 0.44981 0.79634
 H3488 H 0.42497 0.38419 0.81792
 C3489 C 1.10662 0.89224 1.25120
 C3490 C 1.11625 0.90643 1.26654
 C3491 C 1.12509 0.89775 1.28594
 C3492 C 1.12408 0.87496 1.29039
 C3493 C 1.11395 0.86111 1.27470
 C3494 C 1.10547 0.86961 1.25510
 C3495 C 1.09770 0.90123 1.23057
 C3496 C 1.08862 0.88693 1.21498
 C3497 C 1.08052 0.89548 1.19525
 C3498 C 1.08103 0.91825 1.19114
 C3499 C 1.09003 0.93238 1.20714
 C3500 C 1.09857 0.92392 1.22678
 C3501 C 1.09611 0.85583 1.23916
 C3502 C 1.08792 0.86433 1.21939
 C3503 C 1.11680 0.92907 1.26218
 C3504 C 1.10803 0.93768 1.24268
 H3505 H 1.09520 0.83829 1.24192
 H3506 H 1.08093 0.85311 1.20749
 H3507 H 1.12410 0.94025 1.27392
 H3508 H 1.10880 0.95523 1.23998
 H3509 H 1.13199 0.90898 1.29786
 H3510 H 1.11361 0.84351 1.27704
 H3511 H 1.07412 0.88433 1.18297
 H3512 H 1.09028 0.94993 1.20439
 C3513 C 1.10622 0.39175 0.75037
 C3514 C 1.10792 0.36892 0.75292
 C3515 C 1.11647 0.36041 0.77249
 C3516 C 1.12335 0.37454 0.78945
 C3517 C 1.12146 0.39741 0.78664
 C3518 C 1.11290 0.40611 0.76711
 C3519 C 1.09743 0.40078 0.72972
 C3520 C 1.09581 0.42361 0.72711
 C3521 C 1.08753 0.43211 0.70737
 C3522 C 1.08091 0.41792 0.69035
 C3523 C 1.08269 0.39506 0.69330
 C3524 C 1.09091 0.38641 0.71295
 C3525 C 1.11094 0.42886 0.76393
 C3526 C 1.10254 0.43746 0.74428
 C3527 C 1.10120 0.35507 0.73577
 C3528 C 1.09284 0.36366 0.71611
 H3529 H 1.11601 0.44011 0.77673
 H3530 H 1.10136 0.45510 0.74248
 H3531 H 1.10245 0.33743 0.73753
 H3532 H 1.08788 0.35241 0.70327
 H3533 H 1.11818 0.34281 0.77437
 H3534 H 1.12652 0.40840 0.79968
 H3535 H 1.08604 0.44971 0.70533
 H3536 H 1.07798 0.38402 0.68017
 C3537 C 0.60779 0.89200 0.74971
 C3538 C 0.60977 0.86919 0.75212
 C3539 C 0.61844 0.86067 0.77163
 C3540 C 0.62510 0.87478 0.78870
 C3541 C 0.62300 0.89765 0.78599
 C3542 C 0.61435 0.90635 0.76651
 C3543 C 0.59874 0.90104 0.72917
 C3544 C 0.59682 0.92386 0.72670
 C3545 C 0.58827 0.93235 0.70709
 C3546 C 0.58167 0.91817 0.69005
 C3547 C 0.58373 0.89532 0.69286
 C3548 C 0.59225 0.88667 0.71238
 C3549 C 0.61210 0.92909 0.76347
 C3550 C 0.60349 0.93770 0.74390
 C3551 C 0.60312 0.85534 0.73493
 C3552 C 0.59450 0.86393 0.71539
 H3553 H 0.61708 0.94034 0.77630
 H3554 H 0.60208 0.95533 0.74221
 H3555 H 0.60459 0.83771 0.73660
 H3556 H 0.58957 0.85269 0.70254
 H3557 H 0.62031 0.84308 0.77342
 H3558 H 0.62787 0.90862 0.79911
 H3559 H 0.58656 0.94994 0.70514
 H3560 H 0.57904 0.88430 0.67971
 C3561 C 0.60814 0.39118 1.24945
 C3562 C 0.63084 0.39191 1.25299
 C3563 C 0.63949 0.38335 1.27249
 C3564 C 0.62570 0.37364 1.28848
 C3565 C 0.60284 0.37292 1.28433
 C3566 C 0.59402 0.38183 1.26502
 C3567 C 0.59898 0.40035 1.22900
 C3568 C 0.57621 0.39997 1.22560
 C3569 C 0.56759 0.40881 1.20617
 C3570 C 0.58161 0.41767 1.19001
 C3571 C 0.60446 0.41768 1.19372
 C3572 C 0.61319 0.40924 1.21323
 C3573 C 0.57130 0.38170 1.26101
 C3574 C 0.56254 0.39070 1.24169
 C3575 C 0.64454 0.40103 1.23684
 C3576 C 0.63587 0.40947 1.21726
 H3577 H 0.56018 0.37462 1.27293
 H3578 H 0.54494 0.39029 1.23927
 H3579 H 0.66213 0.40161 1.23933
 H3580 H 0.64702 0.41629 1.20521
 H3581 H 0.65713 0.38341 1.27458
 H3582 H 0.59166 0.36631 1.29646
 H3583 H 0.54999 0.40894 1.20372
 H3584 H 0.61551 0.42397 1.18130
 C3585 C 0.89381 1.10813 1.25092
 C3586 C 0.89460 1.13081 1.25468
 C3587 C 0.88605 1.13930 1.27426
 C3588 C 0.87624 1.12539 1.29009
 C3589 C 0.87563 1.10255 1.28579
 C3590 C 0.88450 1.09389 1.26639
 C3591 C 0.90277 1.09915 1.23031
 C3592 C 0.90222 1.07642 1.22665
 C3593 C 0.91075 1.06797 1.20701
 C3594 C 0.91947 1.08212 1.19090
 C3595 C 0.91972 1.10492 1.19488
 C3596 C 0.91157 1.11348 1.21460
 C3597 C 0.88428 1.07121 1.26218
 C3598 C 0.89307 1.06262 1.24269
 C3599 C 0.90368 1.14463 1.23861
 C3600 C 0.91194 1.13612 1.21887
 H3601 H 0.87723 1.06000 1.27404
 H3602 H 0.89254 1.04505 1.24008
 H3603 H 0.90432 1.16219 1.24126
 H3604 H 0.91870 1.14736 1.20688
 H3605 H 0.88610 1.15692 1.27650
 H3606 H 0.86904 1.09127 1.29782
 H3607 H 0.91072 1.05039 1.20435
 H3608 H 0.92592 1.11607 1.18251
 C3609 C 0.89353 0.60869 0.75020
 C3610 C 0.88704 0.59426 0.76693
 C3611 C 0.87834 0.60285 0.78644
 C3612 C 0.87612 0.62570 0.78923
 C3613 C 0.88280 0.63991 0.77227
 C3614 C 0.89151 0.63149 0.75271
 C3615 C 0.90251 0.59974 0.72958
 C3616 C 0.90889 0.61418 0.71281
 C3617 C 0.91728 0.60561 0.69319
 C3618 C 0.91931 0.58277 0.69026
 C3619 C 0.91285 0.56852 0.70729
 C3620 C 0.90443 0.57694 0.72699
 C3621 C 0.89810 0.64541 0.73557
 C3622 C 0.90664 0.63690 0.71595
 C3623 C 0.88931 0.57153 0.76379
 C3624 C 0.89786 0.56302 0.74415
 H3625 H 0.89660 0.66304 0.73731
 H3626 H 0.91150 0.64821 0.70312
 H3627 H 0.88437 0.56023 0.77658
 H3628 H 0.89927 0.54539 0.74238
 H3629 H 0.87347 0.59181 0.79949
 H3630 H 0.88086 0.65748 0.77413
 H3631 H 0.92188 0.61669 0.68007
 H3632 H 0.91455 0.55094 0.70525
 C3633 C 0.39376 1.10795 0.75046
 C3634 C 0.38693 1.09351 0.76705
 C3635 C 0.37823 1.10211 0.78656
 C3636 C 0.37636 1.12497 0.78950
 C3637 C 0.38339 1.13918 0.77267
 C3638 C 0.39208 1.13076 0.75312
 C3639 C 0.40271 1.09902 0.72982
 C3640 C 0.40937 1.11347 0.71318
 C3641 C 0.41769 1.10492 0.69353
 C3642 C 0.41943 1.08207 0.69045
 C3643 C 0.41270 1.06780 0.70736
 C3644 C 0.40430 1.07620 0.72708
 C3645 C 0.39895 1.14470 0.73610
 C3646 C 0.40745 1.13620 0.71646
 C3647 C 0.38887 1.07078 0.76376
 C3648 C 0.39742 1.06227 0.74412
 H3649 H 0.39772 1.16234 0.73796
 H3650 H 0.41252 1.14752 0.70373
 H3651 H 0.38369 1.05946 0.77644
 H3652 H 0.39858 1.04463 0.74222
 H3653 H 0.37305 1.09107 0.79950
 H3654 H 0.38171 1.15677 0.77464
 H3655 H 0.42248 1.11603 0.68050
 H3656 H 0.41416 1.05021 0.70522
 C3657 C 0.39308 0.60879 1.24998
 C3658 C 0.38339 0.59462 1.26529
 C3659 C 0.37438 0.60335 1.28461
 C3660 C 0.37531 0.62615 1.28900
 C3661 C 0.38550 0.63997 1.27334
 C3662 C 0.39414 0.63143 1.25382
 C3663 C 0.40216 0.59975 1.22944
 C3664 C 0.41129 0.61402 1.21386
 C3665 C 0.41954 0.60543 1.19419
 C3666 C 0.41911 0.58264 1.19015
 C3667 C 0.41007 0.56855 1.20615
 C3668 C 0.40139 0.57704 1.22571
 C3669 C 0.40357 0.64519 1.23790
 C3670 C 0.41190 0.63665 1.21821
 C3671 C 0.38293 0.57196 1.26099
 C3672 C 0.39187 0.56332 1.24159
 H3673 H 0.40440 0.66274 1.24062
 H3674 H 0.41893 0.64784 1.20633
 H3675 H 0.37559 0.56081 1.27272
 H3676 H 0.39116 0.54576 1.23893
 H3677 H 0.36744 0.59214 1.29651
 H3678 H 0.38579 0.65759 1.27565
 H3679 H 0.42596 0.61656 1.18192
 H3680 H 0.40989 0.55098 1.20346
 C3681 C 1.10831 1.24923 0.89259
 C3682 C 1.09405 1.26473 0.88335
 C3683 C 1.10269 1.28416 0.87456
 C3684 C 1.12552 1.28849 0.87521
 C3685 C 1.13946 1.27262 0.88492
 C3686 C 1.13099 1.25299 0.89338
 C3687 C 1.09934 1.22860 0.90151
 C3688 C 1.11370 1.21287 0.91026
 C3689 C 1.10514 1.19315 0.91841
 C3690 C 1.08234 1.18919 0.91823
 C3691 C 1.06818 1.20531 0.90955
 C3692 C 1.07662 1.22495 0.90101
 C3693 C 1.14483 1.23691 0.90239
 C3694 C 1.13634 1.21715 0.91060
 C3695 C 1.07138 1.26050 0.88315
 C3696 C 1.06280 1.24100 0.89190
 H3697 H 1.16239 1.23956 0.90302
 H3698 H 1.14759 1.20514 0.91732
 H3699 H 1.06015 1.27237 0.87615
 H3700 H 1.04523 1.23840 0.89141
 H3701 H 1.09139 1.29621 0.86802
 H3702 H 1.15707 1.27488 0.88499
 H3703 H 1.11631 1.18078 0.92459
 H3704 H 1.05060 1.20267 0.90956
 C3705 C 1.10909 0.74942 0.39233
 C3706 C 1.09487 0.76488 0.38296
 C3707 C 1.10355 0.78423 0.37404
 C3708 C 1.12638 0.78853 0.37473
 C3709 C 1.14029 0.77270 0.38453
 C3710 C 1.13177 0.75313 0.39310
 C3711 C 1.10006 0.72889 0.40142
 C3712 C 1.11437 0.71319 0.41027
 C3713 C 1.10576 0.69355 0.41856
 C3714 C 1.08294 0.68966 0.41842
 C3715 C 1.06883 0.70579 0.40967
 C3716 C 1.07732 0.72532 0.40096
 C3717 C 1.14557 0.73707 0.40222
 C3718 C 1.13703 0.71739 0.41057
 C3719 C 1.07218 0.76073 0.38280
 C3720 C 1.06355 0.74133 0.39173
 H3721 H 1.16314 0.73969 0.40284
 H3722 H 1.14825 0.70540 0.41737
 H3723 H 1.06099 0.77258 0.37571
 H3724 H 1.04597 0.73878 0.39128
 H3725 H 1.09229 0.79626 0.36742
 H3726 H 1.15791 0.77495 0.38463
 H3727 H 1.11689 0.68117 0.42480
 H3728 H 1.05124 0.70321 0.40973
 C3729 C 0.60813 1.24951 0.39269
 C3730 C 0.63093 1.25193 0.39054
 C3731 C 0.63938 1.27147 0.38187
 C3732 C 0.62522 1.28855 0.37538
 C3733 C 0.60237 1.28584 0.37768
 C3734 C 0.59373 1.26633 0.38633
 C3735 C 0.59916 1.22891 0.40166
 C3736 C 0.57635 1.22640 0.40371
 C3737 C 0.56792 1.20671 0.41215
 C3738 C 0.58215 1.18963 0.41852
 C3739 C 0.60499 1.19249 0.41634
 C3740 C 0.61358 1.21208 0.40792
 C3741 C 0.57101 1.26326 0.38871
 C3742 C 0.56247 1.24363 0.39725
 C3743 C 0.64482 1.23472 0.39699
 C3744 C 0.63629 1.21512 0.40554
 H3745 H 0.55972 1.27611 0.38389
 H3746 H 0.54484 1.24192 0.39877
 H3747 H 0.66245 1.23639 0.39539
 H3748 H 0.64758 1.20224 0.41030
 H3749 H 0.65695 1.27324 0.37984
 H3750 H 0.59136 1.29897 0.37292
 H3751 H 0.55034 1.20472 0.41395
 H3752 H 0.61605 1.17932 0.42085
 C3753 C 0.60800 0.74902 0.89182
 C3754 C 0.60999 0.75155 0.86902
 C3755 C 0.61854 0.77116 0.86060
 C3756 C 0.62508 0.78819 0.87481
 C3757 C 0.62296 0.78536 0.89767
 C3758 C 0.61442 0.76579 0.90626
 C3759 C 0.59909 0.72838 0.90075
 C3760 C 0.59715 0.72579 0.92357
 C3761 C 0.58873 0.70608 0.93196
 C3762 C 0.58226 0.68907 0.91769
 C3763 C 0.58436 0.69199 0.89485
 C3764 C 0.59275 0.71160 0.88630
 C3765 C 0.61217 0.76263 0.92899
 C3766 C 0.60368 0.74297 0.93750
 C3767 C 0.60348 0.73439 0.85508
 C3768 C 0.59500 0.71475 0.86357
 H3769 H 0.61704 0.77544 0.94031
 H3770 H 0.60225 0.74119 0.95513
 H3771 H 0.60496 0.73614 0.83745
 H3772 H 0.59018 0.70191 0.85226
 H3773 H 0.62042 0.77305 0.84302
 H3774 H 0.62775 0.79845 0.90871
 H3775 H 0.58698 0.70406 0.94954
 H3776 H 0.57977 0.67887 0.88376
 C3777 C 0.89200 1.24933 1.10830
 C3778 C 0.90609 1.26488 1.11773
 C3779 C 0.89724 1.28421 1.12656
 C3780 C 0.87439 1.28839 1.12572
 C3781 C 0.86064 1.27243 1.11591
 C3782 C 0.86931 1.25291 1.10740
 C3783 C 0.90118 1.22885 1.09924
 C3784 C 0.88701 1.21309 1.09025
 C3785 C 0.89576 1.19354 1.08190
 C3786 C 0.91860 1.18978 1.08211
 C3787 C 0.93258 1.20591 1.09107
 C3788 C 0.92394 1.22538 1.09981
 C3789 C 0.85564 1.23678 1.09819
 C3790 C 0.86433 1.21717 1.08985
 C3791 C 0.92879 1.26083 1.11803
 C3792 C 0.93757 1.24146 1.10915
 H3793 H 0.83806 1.23930 1.09749
 H3794 H 0.85321 1.20513 1.08295
 H3795 H 0.93988 1.27274 1.12518
 H3796 H 0.95517 1.23901 1.10970
 H3797 H 0.90841 1.29632 1.13323
 H3798 H 0.84300 1.27455 1.11573
 H3799 H 0.88472 1.18115 1.07553
 H3800 H 0.95018 1.20341 1.09110
 C3801 C 0.89258 0.74962 0.60768
 C3802 C 0.90689 0.76645 0.61421
 C3803 C 0.89815 0.78593 0.62283
 C3804 C 0.87528 0.78860 0.62491
 C3805 C 0.86120 0.77149 0.61829
 C3806 C 0.86976 0.75198 0.60967
 C3807 C 0.90166 0.72910 0.59864
 C3808 C 0.88732 0.71226 0.59218
 C3809 C 0.89601 0.69277 0.58365
 C3810 C 0.91887 0.69003 0.58153
 C3811 C 0.93301 0.70709 0.58811
 C3812 C 0.92448 0.72668 0.59668
 C3813 C 0.85595 0.73476 0.60305
 C3814 C 0.86458 0.71523 0.59445
 C3815 C 0.92964 0.76346 0.61195
 C3816 C 0.93829 0.74391 0.60334
 H3817 H 0.83831 0.73639 0.60453
 H3818 H 0.85336 0.70234 0.58954
 H3819 H 0.94086 0.77632 0.61690
 H3820 H 0.95592 0.74226 0.60190
 H3821 H 0.90909 0.79908 0.62768
 H3822 H 0.84361 0.77326 0.62014
 H3823 H 0.88501 0.67960 0.57898
 H3824 H 0.95061 0.70519 0.58636
 C3825 C 0.39179 1.24944 0.60824
 C3826 C 0.40585 1.26493 0.61780
 C3827 C 0.39699 1.28421 0.62671
 C3828 C 0.37415 1.28842 0.62582
 C3829 C 0.36041 1.27255 0.61583
 C3830 C 0.36910 1.25305 0.60727
 C3831 C 0.40100 1.22900 0.59913
 C3832 C 0.38684 1.21328 0.59004
 C3833 C 0.39562 1.19376 0.58166
 C3834 C 0.41846 1.19000 0.58191
 C3835 C 0.43242 1.20610 0.59096
 C3836 C 0.42375 1.22553 0.59976
 C3837 C 0.35546 1.23697 0.59794
 C3838 C 0.36417 1.21738 0.58956
 C3839 C 0.42856 1.26087 0.61817
 C3840 C 0.43736 1.24155 0.60921
 H3841 H 0.33789 1.23951 0.59717
 H3842 H 0.35307 1.20538 0.58258
 H3843 H 0.43962 1.27274 0.62542
 H3844 H 0.45495 1.23909 0.60982
 H3845 H 0.40814 1.29628 0.63348
 H3846 H 0.34279 1.27472 0.61557
 H3847 H 0.38460 1.18139 0.57522
 H3848 H 0.45002 1.20361 0.59102
 C3849 C 0.39236 0.75015 1.10718
 C3850 C 0.36966 0.75375 1.10643
 C3851 C 0.36106 0.77329 1.11495
 C3852 C 0.37490 0.78926 1.12465
 C3853 C 0.39776 0.78508 1.12530
 C3854 C 0.40652 0.76572 1.11646
 C3855 C 0.40145 0.72961 1.09817
 C3856 C 0.42421 0.72612 1.09862
 C3857 C 0.43277 0.70658 1.08996
 C3858 C 0.41870 0.69041 1.08120
 C3859 C 0.39587 0.69421 1.08109
 C3860 C 0.38720 0.71382 1.08936
 C3861 C 0.42922 0.76165 1.11662
 C3862 C 0.43792 0.74223 1.10778
 C3863 C 0.35591 0.73759 1.09739
 C3864 C 0.36453 0.71793 1.08908
 H3865 H 0.44037 0.77358 1.12365
 H3866 H 0.45552 0.73975 1.10824
 H3867 H 0.33833 0.74013 1.09679
 H3868 H 0.35335 0.70587 1.08232
 H3869 H 0.34343 0.77541 1.11491
 H3870 H 0.40897 0.79720 1.13185
 H3871 H 0.45036 0.70404 1.08991
 H3872 H 0.38478 0.68179 1.07487
 C3873 C 0.89142 0.75037 0.89386
 C3874 C 0.90585 0.73363 0.88738
 C3875 C 0.89727 0.71412 0.87871
 C3876 C 0.87442 0.71131 0.87649
 C3877 C 0.86021 0.72828 0.88316
 C3878 C 0.86861 0.74784 0.89184
 C3879 C 0.90035 0.77101 0.90280
 C3880 C 0.88591 0.78778 0.90914
 C3881 C 0.89447 0.80743 0.91748
 C3882 C 0.91732 0.81037 0.91950
 C3883 C 0.93157 0.79333 0.91308
 C3884 C 0.92316 0.77360 0.90471
 C3885 C 0.85468 0.76500 0.89839
 C3886 C 0.86319 0.78463 0.90690
 C3887 C 0.92858 0.73679 0.88965
 C3888 C 0.93708 0.75644 0.89817
 H3889 H 0.83706 0.76325 0.89689
 H3890 H 0.85188 0.79747 0.91172
 H3891 H 0.93989 0.72399 0.88474
 H3892 H 0.95471 0.75822 0.89959
 H3893 H 0.90832 0.70107 0.87384
 H3894 H 0.84263 0.72640 0.88121
 H3895 H 0.88339 0.82056 0.92204
 H3896 H 0.94915 0.79537 0.91478
 C3897 C 0.89116 0.25071 0.39306
 C3898 C 0.86834 0.24815 0.39117
 C3899 C 0.85991 0.22859 0.38250
 C3900 C 0.87412 0.21167 0.37570
 C3901 C 0.89697 0.21451 0.37778
 C3902 C 0.90558 0.23401 0.38646
 C3903 C 0.90012 0.27132 0.40203
 C3904 C 0.92294 0.27392 0.40385
 C3905 C 0.93137 0.29361 0.41227
 C3906 C 0.91715 0.31063 0.41880
 C3907 C 0.89430 0.30768 0.41687
 C3908 C 0.88570 0.28806 0.40851
 C3909 C 0.92831 0.23717 0.38862
 C3910 C 0.93684 0.25679 0.39718
 C3911 C 0.85444 0.26527 0.39786
 C3912 C 0.86297 0.28489 0.40637
 H3913 H 0.93961 0.22440 0.38361
 H3914 H 0.95447 0.25858 0.39852
 H3915 H 0.83681 0.26350 0.39646
 H3916 H 0.85167 0.29770 0.41130
 H3917 H 0.84232 0.22666 0.38069
 H3918 H 0.90801 0.20148 0.37283
 H3919 H 0.94896 0.29564 0.41391
 H3920 H 0.88322 0.32080 0.42152
 C3921 C 0.39025 0.75129 0.39157
 C3922 C 0.36756 0.74764 0.39236
 C3923 C 0.35896 0.72817 0.38361
 C3924 C 0.37280 0.71239 0.37362
 C3925 C 0.39564 0.71664 0.37293
 C3926 C 0.40440 0.73589 0.38202
 C3927 C 0.39936 0.77171 0.40085
 C3928 C 0.42211 0.77522 0.40037
 C3929 C 0.43068 0.79465 0.40926
 C3930 C 0.41665 0.81072 0.41823
 C3931 C 0.39382 0.80689 0.41841
 C3932 C 0.38512 0.78736 0.40992
 C3933 C 0.42710 0.73998 0.38184
 C3934 C 0.43581 0.75927 0.39094
 C3935 C 0.35383 0.76365 0.40169
 C3936 C 0.36246 0.78321 0.41023
 H3937 H 0.43824 0.72817 0.37460
 H3938 H 0.45340 0.76177 0.39046
 H3939 H 0.33626 0.76107 0.40232
 H3940 H 0.35129 0.79516 0.41719
 H3941 H 0.34134 0.72597 0.38373
 H3942 H 0.40686 0.70464 0.36618
 H3943 H 0.44828 0.79717 0.40929
 H3944 H 0.38274 0.81923 0.42481
 C3945 C 0.39133 0.24997 0.89301
 C3946 C 0.40560 0.23443 0.88384
 C3947 C 0.39694 0.21502 0.87499
 C3948 C 0.37409 0.21078 0.87549
 C3949 C 0.36016 0.22669 0.88513
 C3950 C 0.36864 0.24628 0.89366
 C3951 C 0.40031 0.27058 0.90198
 C3952 C 0.38596 0.28635 0.91065
 C3953 C 0.39453 0.30605 0.91884
 C3954 C 0.41734 0.30996 0.91876
 C3955 C 0.43150 0.29379 0.91017
 C3956 C 0.42306 0.27416 0.90159
 C3957 C 0.35480 0.26241 0.90260
 C3958 C 0.36331 0.28215 0.91087
 C3959 C 0.42828 0.23858 0.88376
 C3960 C 0.43687 0.25807 0.89256
 H3961 H 0.33723 0.25981 0.90313
 H3962 H 0.35206 0.29419 0.91753
 H3963 H 0.43951 0.22668 0.87683
 H3964 H 0.45445 0.26062 0.89216
 H3965 H 0.40824 0.20294 0.86851
 H3966 H 0.34253 0.22450 0.88509
 H3967 H 0.38337 0.31847 0.92495
 H3968 H 0.44909 0.29639 0.91027
 C3969 C 1.10793 0.75095 1.10865
 C3970 C 1.13065 0.74751 1.10799
 C3971 C 1.13934 0.72800 1.11647
 C3972 C 1.12559 0.71187 1.12599
 C3973 C 1.10270 0.71590 1.12661
 C3974 C 1.09384 0.73525 1.11782
 C3975 C 1.09873 0.77144 1.09963
 C3976 C 1.07596 0.77478 1.09999
 C3977 C 1.06730 0.79427 1.09129
 C3978 C 1.08131 0.81049 1.08254
 C3979 C 1.10416 0.80685 1.08255
 C3980 C 1.11292 0.78732 1.09089
 C3981 C 1.07111 0.73918 1.11791
 C3982 C 1.06232 0.75857 1.10908
 C3983 C 1.14433 0.76377 1.09904
 C3984 C 1.13562 0.78337 1.09071
 H3985 H 1.06001 0.72717 1.12486
 H3986 H 1.04470 0.76093 1.10947
 H3987 H 1.16193 0.76135 1.09852
 H3988 H 1.14675 0.79551 1.08402
 H3989 H 1.15700 0.72602 1.11650
 H3990 H 1.09154 0.70367 1.13306
 H3991 H 1.04970 0.79670 1.09117
 H3992 H 1.11519 0.81933 1.07635
 C3993 C 1.10821 0.25111 0.60839
 C3994 C 1.11050 0.24885 0.63120
 C3995 C 1.11935 0.22942 0.63973
 C3996 C 1.12587 0.21230 0.62562
 C3997 C 1.12349 0.21488 0.60276
 C3998 C 1.11466 0.23427 0.59406
 C3999 C 1.09891 0.27153 0.59935
 C4000 C 1.09667 0.27384 0.57654
 C4001 C 1.08790 0.29334 0.56803
 C4002 C 1.08138 0.31043 0.58218
 C4003 C 1.08374 0.30778 0.60503
 C4004 C 1.09250 0.28837 0.61370
 C4005 C 1.11211 0.23716 0.57133
 C4006 C 1.10327 0.25661 0.56271
 C4007 C 1.10392 0.26608 0.64503
 C4008 C 1.09507 0.28551 0.63643
 H4009 H 1.11700 0.22428 0.56009
 H4010 H 1.10161 0.25818 0.54508
 H4011 H 1.10562 0.26453 0.66266
 H4012 H 1.09020 0.29840 0.64766
 H4013 H 1.12142 0.22772 0.65731
 H4014 H 1.12824 0.20171 0.59180
 H4015 H 1.08596 0.29517 0.55044
 H4016 H 1.07910 0.32096 0.61603
 C4017 C 0.60819 0.75092 0.60832
 C4018 C 0.63102 0.74859 0.61021
 C4019 C 0.63965 0.72911 0.61883
 C4020 C 0.62563 0.71199 0.62552
 C4021 C 0.60275 0.71461 0.62350
 C4022 C 0.59394 0.73406 0.61490
 C4023 C 0.59903 0.77142 0.59932
 C4024 C 0.57619 0.77379 0.59747
 C4025 C 0.56758 0.79336 0.58894
 C4026 C 0.58167 0.81044 0.58226
 C4027 C 0.60454 0.80774 0.58429
 C4028 C 0.61330 0.78827 0.59279
 C4029 C 0.57117 0.73701 0.61274
 C4030 C 0.56245 0.75654 0.60418
 C4031 C 0.64477 0.76584 0.60353
 C4032 C 0.63606 0.78535 0.59497
 H4033 H 0.56000 0.72413 0.61775
 H4034 H 0.54480 0.75816 0.60282
 H4035 H 0.66242 0.76425 0.60494
 H4036 H 0.64723 0.79825 0.59001
 H4037 H 0.65726 0.72738 0.62063
 H4038 H 0.59185 0.70145 0.62840
 H4039 H 0.54998 0.79523 0.58726
 H4040 H 0.61549 0.82091 0.57953
 C4041 C 0.60691 0.24993 1.10831
 C4042 C 0.60617 0.24622 1.13100
 C4043 C 0.61486 0.22672 1.13950
 C4044 C 0.62474 0.21093 1.12560
 C4045 C 0.62540 0.21523 1.10276
 C4046 C 0.61636 0.23453 1.09408
 C4047 C 0.59771 0.27042 1.09930
 C4048 C 0.59816 0.27402 1.07656
 C4049 C 0.58936 0.29352 1.06809
 C4050 C 0.58053 0.30959 1.08223
 C4051 C 0.58040 0.30568 1.10504
 C4052 C 0.58878 0.28607 1.11363
 C4053 C 0.61651 0.23870 1.07139
 C4054 C 0.60747 0.25806 1.06277
 C4055 C 0.59696 0.26222 1.14481
 C4056 C 0.58850 0.28186 1.13628
 H4057 H 0.62366 0.22690 1.06019
 H4058 H 0.60792 0.26062 1.04519
 H4059 H 0.59637 0.25959 1.16238
 H4060 H 0.58164 0.29380 1.14752
 H4061 H 0.61480 0.22449 1.15713
 H4062 H 0.63211 0.20323 1.09150
 H4063 H 0.58931 0.29612 1.05050
 H4064 H 0.57412 0.31801 1.11619
 C4065 C 1.24868 1.10798 0.89085
 C4066 C 1.26564 1.09377 0.88448
 C4067 C 1.28505 1.10260 0.87583
 C4068 C 1.28755 1.12548 0.87355
 C4069 C 1.27029 1.13946 0.87998
 C4070 C 1.25084 1.13080 0.88866
 C4071 C 1.22825 1.09880 0.90001
 C4072 C 1.21131 1.11304 0.90639
 C4073 C 1.19193 1.10425 0.91508
 C4074 C 1.18940 1.08139 0.91742
 C4075 C 1.20656 1.06734 0.91088
 C4076 C 1.22605 1.07597 0.90219
 C4077 C 1.23350 1.14452 0.89517
 C4078 C 1.21406 1.13578 0.90389
 C4079 C 1.26285 1.07101 0.88694
 C4080 C 1.24339 1.06227 0.89564
 H4081 H 1.23496 1.16215 0.89353
 H4082 H 1.20109 1.14693 0.90873
 H4083 H 1.27582 1.05987 0.88210
 H4084 H 1.24191 1.04463 0.89724
 H4085 H 1.29832 1.09173 0.87116
 H4086 H 1.27191 1.15705 0.87799
 H4087 H 1.17868 1.11516 0.91973
 H4088 H 1.20482 1.04975 0.91280
 C4089 C 1.24863 0.60832 0.39046
 C4090 C 1.25066 0.63113 0.38808
 C4091 C 1.27006 0.63984 0.37934
 C4092 C 1.28743 0.62592 0.37307
 C4093 C 1.28508 0.60304 0.37555
 C4094 C 1.26570 0.59416 0.38423
 C4095 C 1.22824 0.59909 0.39965
 C4096 C 1.22616 0.57627 0.40197
 C4097 C 1.20669 0.56759 0.41069
 C4098 C 1.18946 0.58160 0.41712
 C4099 C 1.19187 0.60445 0.41464
 C4100 C 1.21121 0.61328 0.40590
 C4101 C 1.26303 0.57141 0.38686
 C4102 C 1.24359 0.56262 0.39556
 C4103 C 1.23323 0.64480 0.39446
 C4104 C 1.21384 0.63602 0.40323
 H4105 H 1.27607 0.56030 0.38213
 H4106 H 1.24220 0.54498 0.39729
 H4107 H 1.23459 0.66243 0.39268
 H4108 H 1.20080 0.64713 0.40797
 H4109 H 1.27154 0.65742 0.37718
 H4110 H 1.29843 0.59221 0.37100
 H4111 H 1.20502 0.55000 0.41270
 H4112 H 1.17857 0.61533 0.41922
 C4113 C 0.75062 1.10589 0.39223
 C4114 C 0.76722 1.11260 0.40673
 C4115 C 0.78677 1.12127 0.39821
 C4116 C 0.78975 1.12321 0.37536
 C4117 C 0.77294 1.11630 0.36108
 C4118 C 0.75333 1.10765 0.36942
 C4119 C 0.72995 1.09699 0.40109
 C4120 C 0.71330 1.09046 0.38657
 C4121 C 0.69361 1.08217 0.39506
 C4122 C 0.69049 1.08036 0.41790
 C4123 C 0.70740 1.08697 0.43223
 C4124 C 0.72717 1.09532 0.42390
 C4125 C 0.73632 1.10090 0.35542
 C4126 C 0.71663 1.09245 0.36385
 C4127 C 0.76388 1.11058 0.42946
 C4128 C 0.74420 1.10208 0.43790
 H4129 H 0.73821 1.10220 0.33779
 H4130 H 0.70390 1.08747 0.35248
 H4131 H 0.77656 1.11567 0.44083
 H4132 H 0.74227 1.10085 0.45553
 H4133 H 0.79970 1.12636 0.40930
 H4134 H 0.77494 1.11804 0.34349
 H4135 H 0.68058 1.07748 0.38391
 H4136 H 0.70524 1.08543 0.44981
 C4137 C 0.75005 0.60635 0.89200
 C4138 C 0.76679 0.61289 0.90641
 C4139 C 0.78624 0.62167 0.89778
 C4140 C 0.78898 0.62392 0.87493
 C4141 C 0.77200 0.61720 0.86074
 C4142 C 0.75250 0.60841 0.86918
 C4143 C 0.72949 0.59728 0.90097
 C4144 C 0.71272 0.59086 0.88655
 C4145 C 0.69315 0.58238 0.89515
 C4146 C 0.69028 0.58030 0.91800
 C4147 C 0.70731 0.58681 0.93222
 C4148 C 0.72696 0.59531 0.92378
 C4149 C 0.73535 0.60178 0.85528
 C4150 C 0.71579 0.59315 0.86382
 C4151 C 0.76370 0.61058 0.92914
 C4152 C 0.74413 0.60194 0.93768
 H4153 H 0.73705 0.60331 0.83765
 H4154 H 0.70296 0.58827 0.85253
 H4155 H 0.77650 0.61554 0.94043
 H4156 H 0.74240 0.60048 0.95531
 H4157 H 0.79930 0.62658 0.90881
 H4158 H 0.77382 0.61916 0.84316
 H4159 H 0.68002 0.57776 0.88408
 H4160 H 0.70532 0.58507 0.94981
 C4161 C 1.24893 0.89118 1.10826
 C4162 C 1.25125 0.86838 1.11055
 C4163 C 1.27076 0.85991 1.11928
 C4164 C 1.28791 0.87404 1.12567
 C4165 C 1.28527 0.89689 1.12328
 C4166 C 1.26580 0.90554 1.11457
 C4167 C 1.22843 0.90018 1.09910
 C4168 C 1.22606 0.92298 1.09687
 C4169 C 1.20647 0.93145 1.08825
 C4170 C 1.18936 0.91727 1.08188
 C4171 C 1.19207 0.89443 1.08422
 C4172 C 1.21156 0.88580 1.09283
 C4173 C 1.26286 0.92827 1.11202
 C4174 C 1.24332 0.93684 1.10333
 C4175 C 1.23400 0.85452 1.10411
 C4176 C 1.21449 0.86309 1.09539
 H4177 H 1.27575 0.93952 1.11682
 H4178 H 1.24170 0.95446 1.10167
 H4179 H 1.23559 0.83690 1.10581
 H4180 H 1.20158 0.85183 1.09063
 H4181 H 1.27250 0.84233 1.12136
 H4182 H 1.29845 0.90787 1.12793
 H4183 H 1.20460 0.94903 1.08632
 H4184 H 1.17887 0.88341 1.07968
 C4185 C 1.24921 0.39146 0.60819
 C4186 C 1.26614 0.40581 0.61438
 C4187 C 1.28563 0.39715 0.62305
 C4188 C 1.28821 0.37430 0.62556
 C4189 C 1.27100 0.36019 0.61930
 C4190 C 1.25149 0.36867 0.61058
 C4191 C 1.22869 0.40046 0.59908
 C4192 C 1.21178 0.38608 0.59291
 C4193 C 1.19227 0.39470 0.58432
 C4194 C 1.18958 0.41753 0.58192
 C4195 C 1.20672 0.43172 0.58821
 C4196 C 1.22634 0.42326 0.59678
 C4197 C 1.23419 0.35481 0.60425
 C4198 C 1.21467 0.36337 0.59555
 C4199 C 1.26321 0.42853 0.61175
 C4200 C 1.24365 0.43710 0.60312
 H4201 H 1.23575 0.33720 0.60603
 H4202 H 1.20173 0.35212 0.59088
 H4203 H 1.27615 0.43978 0.61645
 H4204 H 1.24205 0.45472 0.60141
 H4205 H 1.29885 0.40812 0.62760
 H4206 H 1.27267 0.34262 0.62149
 H4207 H 1.17905 0.38369 0.57984
 H4208 H 1.20484 0.44929 0.58624
 C4209 C 0.74964 0.89177 0.60687
 C4210 C 0.75212 0.86897 0.60893
 C4211 C 0.77169 0.86053 0.61755
 C4212 C 0.78872 0.87472 0.62412
 C4213 C 0.78596 0.89757 0.62191
 C4214 C 0.76643 0.90618 0.61329
 C4215 C 0.72903 0.90072 0.59793
 C4216 C 0.72649 0.92353 0.59595
 C4217 C 0.70679 0.93195 0.58755
 C4218 C 0.68972 0.91772 0.58116
 C4219 C 0.69260 0.89488 0.58326
 C4220 C 0.71221 0.88630 0.59163
 C4221 C 0.76332 0.92891 0.61098
 C4222 C 0.74369 0.93744 0.60246
 C4223 C 0.73493 0.85506 0.60243
 C4224 C 0.71531 0.86358 0.59393
 H4225 H 0.77616 0.94020 0.61584
 H4226 H 0.74195 0.95506 0.60100
 H4227 H 0.73664 0.83743 0.60396
 H4228 H 0.70244 0.85228 0.58914
 H4229 H 0.77353 0.84296 0.61950
 H4230 H 0.79906 0.90859 0.62672
 H4231 H 0.70479 0.94953 0.58579
 H4232 H 0.67944 0.88381 0.57872
 C4233 C 0.74867 0.39085 1.10828
 C4234 C 0.75093 0.36803 1.11045
 C4235 C 0.77044 0.35945 1.11909
 C4236 C 0.78763 0.37350 1.12553
 C4237 C 0.78506 0.39637 1.12320
 C4238 C 0.76560 0.40513 1.11460
 C4239 C 0.72814 0.39996 1.09929
 C4240 C 0.72582 0.42278 1.09721
 C4241 C 0.70621 0.43136 1.08872
 C4242 C 0.68905 0.41725 1.08231
 C4243 C 0.69170 0.39440 1.08455
 C4244 C 0.71120 0.38567 1.09303
 C4245 C 0.76271 0.42787 1.11219
 C4246 C 0.74315 0.43655 1.10365
 C4247 C 0.73361 0.35426 1.10401
 C4248 C 0.71408 0.36293 1.09544
 H4249 H 0.77566 0.43906 1.11698
 H4250 H 0.74158 0.45419 1.10210
 H4251 H 0.73515 0.33663 1.10562
 H4252 H 0.70111 0.35174 1.09068
 H4253 H 0.77211 0.34186 1.12111
 H4254 H 0.79829 0.40730 1.12788
 H4255 H 0.70438 0.44895 1.08687
 H4256 H 0.67846 0.38344 1.07999
 C4257 C 0.75066 1.10878 1.10756
 C4258 C 0.74820 1.11095 1.13035
 C4259 C 0.72856 1.11942 1.13876
 C4260 C 0.71141 1.12566 1.12458
 C4261 C 0.71418 1.12341 1.10173
 C4262 C 0.73380 1.11496 1.09313
 C4263 C 0.77132 1.09990 1.09864
 C4264 C 0.77385 1.09775 1.07583
 C4265 C 0.79355 1.08929 1.06746
 C4266 C 0.81060 1.08297 1.08174
 C4267 C 0.80775 1.08530 1.10457
 C4268 C 0.78816 1.09374 1.11310
 C4269 C 0.73691 1.11254 1.07040
 C4270 C 0.75660 1.10409 1.06191
 C4271 C 0.76544 1.10467 1.14429
 C4272 C 0.78509 1.09620 1.13581
 H4273 H 0.72403 1.11723 1.05909
 H4274 H 0.75833 1.10250 1.04428
 H4275 H 0.76373 1.10629 1.16191
 H4276 H 0.79797 1.09153 1.14713
 H4277 H 0.72674 1.12143 1.15634
 H4278 H 0.70100 1.12799 1.09070
 H4279 H 0.79555 1.08738 1.04989
 H4280 H 0.82090 1.08082 1.11566
 C4281 C 0.75129 0.60860 0.60815
 C4282 C 0.74890 0.61061 0.63098
 C4283 C 0.72936 0.61921 0.63951
 C4284 C 0.71226 0.62578 0.62541
 C4285 C 0.71496 0.62366 0.60253
 C4286 C 0.73445 0.61506 0.59382
 C4287 C 0.77184 0.59960 0.59910
 C4288 C 0.77428 0.59760 0.57628
 C4289 C 0.79389 0.58906 0.56777
 C4290 C 0.81095 0.58253 0.58194
 C4291 C 0.80819 0.58471 0.60480
 C4292 C 0.78867 0.59321 0.61346
 C4293 C 0.73747 0.61277 0.57107
 C4294 C 0.75704 0.60419 0.56245
 C4295 C 0.76613 0.60406 0.64481
 C4296 C 0.78568 0.59551 0.63620
 H4297 H 0.72461 0.61767 0.55983
 H4298 H 0.75871 0.60272 0.54481
 H4299 H 0.76448 0.60556 0.66245
 H4300 H 0.79857 0.59065 0.64744
 H4301 H 0.72758 0.62109 0.65710
 H4302 H 0.70181 0.62847 0.59157
 H4303 H 0.79580 0.58726 0.55018
 H4304 H 0.82135 0.58008 0.61582
 C4305 C 0.25033 1.10778 0.60761
 C4306 C 0.24763 1.10942 0.63042
 C4307 C 0.22796 1.11783 0.63883
 C4308 C 0.21105 1.12461 0.62460
 C4309 C 0.21404 1.12283 0.60174
 C4310 C 0.23366 1.11440 0.59315
 C4311 C 0.27106 1.09905 0.59869
 C4312 C 0.27381 1.09744 0.57587
 C4313 C 0.29359 1.08915 0.56749
 C4314 C 0.31052 1.08252 0.58179
 C4315 C 0.30744 1.08434 0.60464
 C4316 C 0.28775 1.09255 0.61317
 C4317 C 0.23700 1.11249 0.57041
 C4318 C 0.25673 1.10414 0.56192
 C4319 C 0.26471 1.10275 0.64439
 C4320 C 0.28444 1.09446 0.63590
 H4321 H 0.22426 1.11752 0.55908
 H4322 H 0.25863 1.10297 0.54428
 H4323 H 0.26282 1.10397 0.66202
 H4324 H 0.29721 1.08952 0.64723
 H4325 H 0.22595 1.11946 0.65642
 H4326 H 0.20104 1.12784 0.59069
 H4327 H 0.29573 1.08762 0.54990
 H4328 H 0.32049 1.07964 0.61577
 C4329 C 0.25230 0.61062 1.10911
 C4330 C 0.25011 0.61259 1.13196
 C4331 C 0.23072 0.62135 1.14068
 C4332 C 0.21358 0.62811 1.12672
 C4333 C 0.21609 0.62606 1.10382
 C4334 C 0.23543 0.61731 1.09492
 C4335 C 0.27265 0.60137 1.09986
 C4336 C 0.27486 0.59939 1.07701
 C4337 C 0.29426 0.59057 1.06831
 C4338 C 0.31135 0.58376 1.08231
 C4339 C 0.30883 0.58593 1.10520
 C4340 C 0.28951 0.59470 1.11406
 C4341 C 0.23822 0.61504 1.07215
 C4342 C 0.25760 0.60623 1.06334
 C4343 C 0.26737 0.60579 1.14563
 C4344 C 0.28675 0.59700 1.13683
 H4345 H 0.22532 0.62012 1.06103
 H4346 H 0.25909 0.60478 1.04569
 H4347 H 0.26589 0.60725 1.16329
 H4348 H 0.29966 0.59193 1.14795
 H4349 H 0.22906 0.62315 1.15829
 H4350 H 0.20289 0.63099 1.09297
 H4351 H 0.29598 0.58878 1.05070
 H4352 H 0.32202 0.58108 1.11609
 C4353 C 0.75026 0.89221 0.89267
 C4354 C 0.74791 0.86938 0.89075
 C4355 C 0.72841 0.86077 0.88212
 C4356 C 0.71131 0.87482 0.87543
 C4357 C 0.71395 0.89770 0.87751
 C4358 C 0.73341 0.90648 0.88612
 C4359 C 0.77079 0.90134 0.90164
 C4360 C 0.77320 0.92417 0.90349
 C4361 C 0.79281 0.93276 0.91196
 C4362 C 0.80990 0.91865 0.91856
 C4363 C 0.80716 0.89579 0.91655
 C4364 C 0.78765 0.88704 0.90811
 C4365 C 0.73639 0.92924 0.88830
 C4366 C 0.75595 0.93793 0.89684
 C4367 C 0.76515 0.85560 0.89739
 C4368 C 0.78469 0.86429 0.90593
 H4369 H 0.72351 0.94043 0.88333
 H4370 H 0.75759 0.95558 0.89820
 H4371 H 0.76354 0.83796 0.89596
 H4372 H 0.79759 0.85310 0.91084
 H4373 H 0.72667 0.84317 0.88028
 H4374 H 0.70080 0.90862 0.87262
 H4375 H 0.79471 0.95036 0.91363
 H4376 H 0.82034 0.88482 0.92125
 C4377 C 0.75110 0.39204 0.39089
 C4378 C 0.74894 0.38958 0.36809
 C4379 C 0.72956 0.38064 0.35953
 C4380 C 0.71238 0.37419 0.37360
 C4381 C 0.71485 0.37677 0.39645
 C4382 C 0.73419 0.38569 0.40519
 C4383 C 0.77148 0.40139 0.39997
 C4384 C 0.77369 0.40378 0.42278
 C4385 C 0.79316 0.41258 0.43133
 C4386 C 0.81032 0.41898 0.41723
 C4387 C 0.80778 0.41647 0.39438
 C4388 C 0.78840 0.40768 0.38567
 C4389 C 0.73696 0.38841 0.42792
 C4390 C 0.75638 0.39730 0.43657
 C4391 C 0.76624 0.39605 0.35430
 C4392 C 0.78564 0.40496 0.36294
 H4393 H 0.72403 0.38360 0.43912
 H4394 H 0.75787 0.39908 0.45419
 H4395 H 0.76478 0.39422 0.33668
 H4396 H 0.79859 0.40973 0.35174
 H4397 H 0.72795 0.37842 0.34196
 H4398 H 0.70163 0.37209 0.40739
 H4399 H 0.79491 0.41464 0.44892
 H4400 H 0.82102 0.42102 0.38342
 C4401 C 0.25068 0.89226 0.39200
 C4402 C 0.24856 0.86946 0.38950
 C4403 C 0.22910 0.86088 0.38077
 C4404 C 0.21178 0.87490 0.37462
 C4405 C 0.21421 0.89775 0.37721
 C4406 C 0.23365 0.90652 0.38589
 C4407 C 0.27114 0.90136 0.40115
 C4408 C 0.27333 0.92417 0.40357
 C4409 C 0.29287 0.93273 0.41222
 C4410 C 0.31009 0.91862 0.41847
 C4411 C 0.30756 0.89579 0.41593
 C4412 C 0.28814 0.88707 0.40726
 C4413 C 0.23642 0.92925 0.38862
 C4414 C 0.25593 0.93792 0.39730
 C4415 C 0.26595 0.85570 0.39575
 C4416 C 0.28541 0.86436 0.40450
 H4417 H 0.22341 0.94043 0.38398
 H4418 H 0.25740 0.95554 0.39909
 H4419 H 0.26451 0.83808 0.39389
 H4420 H 0.29843 0.85318 0.40913
 H4421 H 0.22755 0.84332 0.37852
 H4422 H 0.20090 0.90865 0.37274
 H4423 H 0.29463 0.95030 0.41429
 H4424 H 0.32085 0.88485 0.42037
 C4425 C 0.25035 0.39188 0.89148
 C4426 C 0.24792 0.39008 0.86864
 C4427 C 0.22845 0.38134 0.86006
 C4428 C 0.21150 0.37437 0.87415
 C4429 C 0.21422 0.37633 0.89704
 C4430 C 0.23363 0.38509 0.90579
 C4431 C 0.27084 0.40098 0.90059
 C4432 C 0.27330 0.40275 0.92343
 C4433 C 0.29286 0.41135 0.93200
 C4434 C 0.30987 0.41812 0.91788
 C4435 C 0.30707 0.41619 0.89500
 C4436 C 0.28759 0.40765 0.88627
 C4437 C 0.23666 0.38718 0.92855
 C4438 C 0.25616 0.39586 0.93723
 C4439 C 0.26505 0.39695 0.85484
 C4440 C 0.28456 0.40558 0.86351
 H4441 H 0.22388 0.38202 0.93977
 H4442 H 0.25785 0.39716 0.95488
 H4443 H 0.26338 0.39562 0.83719
 H4444 H 0.29738 0.41066 0.85230
 H4445 H 0.22661 0.37961 0.84246
 H4446 H 0.20117 0.37124 0.90799
 H4447 H 0.29478 0.41297 0.94961
 H4448 H 0.32019 0.42101 0.88400
   
