data_POSCAR
  _audit_creation_date              2014-09-24
  _audit_creation_method            'ToBaCCo'
  _symmetry_space_group_name_H-M    'P1'
  _symmetry_Int_Tables_number       1
  _symmetry_cell_setting            triclinic
  loop_
  _symmetry_equiv_pos_as_xyz
 x,y,z
_cell_length_a 59.7302
_cell_length_b 59.6394
_cell_length_c 59.6251
_cell_angle_alpha 89.962000
_cell_angle_beta 89.929100
_cell_angle_gamma 89.945400
loop_
  _atom_site_label
  _atom_site_type_symbol
  _atom_site_fract_x
  _atom_site_fract_y
  _atom_site_fract_z
C1 C 0.35488 1.35652 0.32773
 N2 N 0.33614 1.36554 0.33694
 C3 C 0.32717 1.35638 0.35575
 N4 N 0.33689 1.33816 0.36530
 C5 C 0.35562 1.32914 0.35609
 N6 N 0.36460 1.33830 0.33728
 C7 C 0.35451 0.85568 0.82759
 N8 N 0.36412 0.83737 0.83710
 C9 C 0.35506 0.82821 0.85586
 N10 N 0.33636 0.83731 0.86507
 C11 C 0.32676 0.85562 0.85557
 N12 N 0.33582 0.86478 0.83680
 C13 C 0.85406 1.35558 0.82662
 N14 N 0.83529 1.36460 0.83577
 C15 C 0.82623 1.35541 0.85453
 N16 N 0.83591 1.33717 0.86410
 C17 C 0.85468 1.32816 0.85495
 N18 N 0.86374 1.33734 0.83619
 C19 C 0.85944 0.85937 0.33041
 N20 N 0.84065 0.86841 0.33949
 C21 C 0.83145 0.85916 0.35815
 N22 N 0.84098 0.84082 0.36765
 C23 C 0.85976 0.83178 0.35857
 N24 N 0.86896 0.84101 0.33991
 C25 C 0.64493 0.64429 0.32718
 N26 N 0.66362 0.63508 0.33628
 C27 C 0.67314 0.64456 0.35462
 N28 N 0.66403 0.66327 0.36380
 C29 C 0.64535 0.67248 0.35470
 N30 N 0.63582 0.66301 0.33636
 C31 C 0.64655 0.14469 0.82596
 N32 N 0.66532 0.13561 0.83501
 C33 C 0.67478 0.14508 0.85339
 N34 N 0.66549 0.16366 0.86267
 C35 C 0.64673 0.17274 0.85361
 N36 N 0.63727 0.16327 0.83524
 C37 C 1.14026 0.64040 0.83179
 N38 N 1.13135 0.65928 0.84085
 C39 C 1.14093 0.66872 0.85917
 N40 N 1.15950 0.65937 0.86836
 C41 C 1.16840 0.64049 0.85930
 N42 N 1.15882 0.63105 0.84097
 C43 C 1.14537 0.14390 0.32728
 N44 N 1.13630 0.16266 0.33642
 C45 C 1.14589 0.17221 0.35468
 N46 N 1.16460 0.16304 0.36376
 C47 C 1.17368 0.14428 0.35463
 N48 N 1.16409 0.13473 0.33636
 C49 C 0.64464 1.35707 0.67067
 N50 N 0.66345 1.36626 0.66181
 C51 C 0.67328 1.35678 0.64360
 N52 N 0.66433 1.33806 0.63430
 C53 C 0.64553 1.32886 0.64318
 N54 N 0.63571 1.33835 0.66138
 C55 C 0.64834 0.85109 1.17628
 N56 N 0.66706 0.86023 1.16718
 C57 C 0.67676 0.85059 1.14900
 N58 N 0.66775 0.83180 1.13991
 C59 C 0.64905 0.82265 1.14902
 N60 N 0.63933 0.83229 1.16721
 C61 C 1.14389 1.35657 1.17198
 N62 N 1.16260 1.36577 1.16290
 C63 C 1.17228 1.35624 1.14464
 N64 N 1.16330 1.33746 1.13551
 C65 C 1.14461 1.32825 1.14459
 N66 N 1.13492 1.33778 1.16284
 C67 C 1.14551 0.85637 0.67128
 N68 N 1.13667 0.83755 0.66210
 C69 C 1.14645 0.82810 0.64385
 N70 N 1.16510 0.83745 0.63481
 C71 C 1.17395 0.85627 0.64400
 N72 N 1.16417 0.86571 0.66226
 C73 C 0.35532 0.64397 0.67083
 N74 N 0.36491 0.66233 0.66141
 C75 C 0.35581 0.67165 0.64276
 N76 N 0.33707 0.66267 0.63358
 C77 C 0.32749 0.64431 0.64300
 N78 N 0.33659 0.63499 0.66165
 C79 C 0.35690 0.14120 1.17048
 N80 N 0.36633 0.15958 1.16095
 C81 C 0.35697 0.16893 1.14244
 N82 N 0.33812 0.15996 1.13352
 C83 C 0.32867 0.14159 1.14304
 N84 N 0.33803 0.13222 1.16155
 C85 C 0.84730 0.65143 1.17908
 N86 N 0.85656 0.67002 1.16980
 C87 C 0.84722 0.67940 1.15131
 N88 N 0.82864 0.67019 1.14207
 C89 C 0.81938 0.65160 1.15135
 N90 N 0.82872 0.64221 1.16985
 C91 C 0.85401 0.14492 0.67348
 N92 N 0.83524 0.13595 0.66437
 C93 C 0.82619 0.14518 0.64563
 N94 N 0.83589 0.16339 0.63606
 C95 C 0.85467 0.17235 0.64517
 N96 N 0.86371 0.16313 0.66390
 C97 C 1.35568 0.35517 0.67224
 N98 N 1.36538 0.33692 0.66272
 C99 C 1.35644 0.32779 0.64392
 N100 N 1.33774 0.33685 0.63469
 C101 C 1.32804 0.35510 0.64422
 N102 N 1.33699 0.36424 0.66300
 C103 C 1.35172 0.85106 1.17620
 N104 N 1.33323 0.86031 1.16675
 C105 C 1.32404 0.85086 1.14823
 N106 N 1.33333 0.83217 1.13917
 C107 C 1.35182 0.82293 1.14863
 N108 N 1.36101 0.83238 1.16714
 C109 C 0.85055 0.35158 1.17796
 N110 N 0.83195 0.36069 1.16858
 C111 C 0.82284 0.35125 1.15001
 N112 N 0.83231 0.33272 1.14083
 C113 C 0.85090 0.32362 1.15021
 N114 N 0.86003 0.33305 1.16877
 C115 C 0.86042 0.86100 0.66727
 N116 N 0.86972 0.84244 0.65796
 C117 C 0.86060 0.83329 0.63925
 N118 N 0.84209 0.84264 0.62993
 C119 C 0.83279 0.86120 0.63924
 N120 N 0.84191 0.87035 0.65795
 C121 C 0.64380 0.64346 0.67158
 N122 N 0.66259 0.63440 0.66253
 C123 C 0.67228 0.64411 0.64437
 N124 N 0.66322 0.66291 0.63530
 C125 C 0.64443 0.67196 0.64436
 N126 N 0.63474 0.66226 0.66252
 C127 C 0.64244 1.14255 1.16998
 N128 N 0.66090 1.13315 1.16058
 C129 C 0.67038 1.14264 1.14219
 N130 N 0.66146 1.16157 1.13326
 C131 C 0.64301 1.17098 1.14266
 N132 N 0.63352 1.16149 1.16105
 C133 C 0.14155 0.64259 1.16988
 N134 N 0.13271 0.66156 1.16091
 C135 C 0.14216 0.67091 1.14243
 N136 N 0.16050 0.66135 1.13296
 C137 C 0.16934 0.64238 1.14192
 N138 N 0.15990 0.63304 1.16041
 C139 C 0.14433 1.14488 0.67158
 N140 N 0.13531 1.16364 0.66240
 C141 C 0.14506 1.17325 0.64421
 N142 N 0.16387 1.16412 0.63525
 C143 C 0.17289 1.14536 0.64445
 N144 N 0.16314 1.13576 0.66263
 C145 C 1.35526 0.64575 0.32634
 N146 N 1.36484 0.66401 0.33591
 C147 C 1.35577 0.67307 0.35472
 N148 N 1.33710 0.66392 0.36391
 C149 C 1.32753 0.64566 0.35434
 N150 N 1.33660 0.63659 0.33554
 C151 C 1.35647 1.14406 0.82751
 N152 N 1.33772 1.13497 0.83661
 C153 C 1.32857 1.14410 0.85534
 N154 N 1.33812 1.16236 0.86493
 C155 C 1.35687 1.17144 0.85584
 N156 N 1.36602 1.16232 0.83710
 C157 C 0.85425 0.64510 0.82764
 N158 N 0.86388 0.66336 0.83715
 C159 C 0.85485 0.67252 0.85592
 N160 N 0.83616 0.66346 0.86515
 C161 C 0.82653 0.64519 0.85565
 N162 N 0.83556 0.63603 0.83687
 C163 C 0.85674 1.14545 0.32744
 N164 N 0.83802 1.13629 0.33652
 C165 C 0.82879 1.14540 0.35522
 N166 N 0.83825 1.16371 0.36481
 C167 C 0.85698 1.17287 0.35574
 N168 N 0.86620 1.16376 0.33703
 C169 C 0.64586 0.35463 0.32615
 N170 N 0.66446 0.36400 0.33522
 C171 C 0.67406 0.35467 0.35362
 N172 N 0.66509 0.33593 0.36291
 C173 C 0.64650 0.32656 0.35384
 N174 N 0.63690 0.33590 0.33545
 C175 C 0.64649 0.85356 0.82641
 N176 N 0.66478 0.86312 0.83590
 C177 C 0.67403 0.85389 0.85452
 N178 N 0.66503 0.83508 0.86362
 C179 C 0.64675 0.82552 0.85412
 N180 N 0.63750 0.83475 0.83550
 C181 C 0.14206 0.35691 0.82977
 N182 N 0.13310 0.33807 0.83884
 C183 C 0.14273 0.32851 0.85709
 N184 N 0.16138 0.33772 0.86621
 C185 C 0.17034 0.35656 0.85713
 N186 N 0.16071 0.36612 0.83888
 C187 C 0.14512 0.85633 0.32718
 N188 N 0.13617 0.83754 0.33637
 C189 C 0.14583 0.82805 0.35464
 N190 N 0.16449 0.83732 0.36369
 C191 C 0.17345 0.85610 0.35450
 N192 N 0.16378 0.86559 0.33622
 O193 O 1.08136 1.02206 1.11200
 O194 O 1.10748 1.02198 1.13812
 C195 C 1.08927 1.02969 1.13023
 C196 C 1.07743 1.04809 1.14198
 C197 C 1.08504 1.05596 1.16283
 H198 H 1.09935 1.04817 1.17086
 O199 O 0.91951 0.97869 1.11204
 O200 O 0.89347 0.97875 1.13830
 C201 C 0.91170 0.97110 1.13036
 C202 C 0.92366 0.95282 1.14216
 C203 C 0.91621 0.94515 1.16317
 H204 H 0.90199 0.95304 1.17128
 O205 O 1.02243 1.11166 1.08114
 O206 O 1.02247 1.13793 1.10715
 C207 C 1.03012 1.12990 1.08895
 C208 C 1.04855 1.14150 1.07704
 C209 C 1.05670 1.16216 1.08483
 H210 H 1.04907 1.17018 1.09926
 O211 O 0.97839 0.88892 1.08139
 O212 O 0.97821 0.86275 1.10754
 C213 C 0.97058 0.87077 1.08933
 C214 C 0.95202 0.85926 1.07759
 C215 C 0.94325 0.83908 1.08601
 H216 H 0.95053 0.83133 1.10075
 O217 O 1.11206 1.08076 1.02177
 O218 O 1.13825 1.10680 1.02168
 C219 C 1.13029 1.08861 1.02940
 C220 C 1.14196 1.07676 1.04783
 C221 C 1.16272 1.08446 1.05577
 H222 H 1.17074 1.09879 1.04798
 O223 O 0.88885 0.91958 1.02187
 O224 O 0.86269 0.89350 1.02193
 C225 C 0.87068 0.91167 1.02963
 C226 C 0.85914 0.92335 1.04827
 C227 C 0.83885 0.91507 1.05684
 H228 H 0.83103 0.90049 1.04932
 O229 O 0.97872 1.08111 1.11198
 O230 O 0.97871 1.10725 1.13813
 C231 C 0.97103 1.08904 1.13020
 C232 C 0.95255 1.07729 1.14186
 C233 C 0.94449 1.08514 1.16257
 H234 H 0.95226 1.09946 1.17058
 O235 O 1.02223 0.91932 1.11205
 O236 O 1.02218 0.89323 1.13827
 C237 C 1.02986 0.91143 1.13030
 C238 C 1.04820 0.92330 1.14201
 C239 C 1.05601 0.91570 1.16290
 H240 H 1.04823 0.90139 1.17097
 O241 O 1.11166 0.97818 1.08111
 O242 O 1.13790 0.97798 1.10710
 C243 C 1.12985 0.97037 1.08891
 C244 C 1.14137 0.95185 1.07702
 C245 C 1.16185 0.94343 1.08497
 H246 H 1.16980 0.95093 1.09948
 O247 O 0.88877 1.02222 1.08112
 O248 O 0.86250 1.02224 1.10714
 C249 C 0.87047 1.02983 1.08888
 C250 C 0.85868 1.04804 1.07678
 C251 C 0.83762 1.05562 1.08408
 H252 H 0.82947 1.04775 1.09830
 O253 O 0.91948 1.11182 1.02208
 O254 O 0.89339 1.13801 1.02226
 C255 C 0.91157 1.12998 1.02991
 C256 C 0.92330 1.14150 1.04849
 C257 C 0.91510 1.16187 1.05703
 H258 H 0.90051 1.16972 1.04960
 O259 O 1.08076 0.88833 1.02189
 O260 O 1.10679 0.86207 1.02185
 C261 C 1.08863 0.87007 1.02957
 C262 C 1.07683 0.85842 1.04808
 C263 C 1.08458 0.83765 1.05610
 H264 H 1.09890 0.82961 1.04832
 O265 O 0.91937 1.02241 1.11188
 O266 O 0.89325 1.02253 1.13805
 C267 C 0.91147 1.03014 1.13010
 C268 C 0.92335 1.04852 1.14179
 C269 C 0.91555 1.05663 1.16251
 H270 H 0.90110 1.04905 1.17048
 O271 O 1.08124 0.97834 1.11205
 O272 O 1.10734 0.97819 1.13818
 C273 C 1.08910 0.97063 1.13028
 C274 C 1.07717 0.95230 1.14203
 C275 C 1.08470 0.94445 1.16292
 H276 H 1.09896 0.95224 1.17100
 O277 O 1.02208 0.88858 1.08139
 O278 O 1.02199 0.86234 1.10747
 C279 C 1.02966 0.87028 1.08922
 C280 C 1.04797 0.85850 1.07727
 C281 C 1.05595 0.83771 1.08499
 H282 H 1.04826 0.82971 1.09939
 O283 O 0.97870 1.11171 1.08123
 O284 O 0.97868 1.13796 1.10726
 C285 C 0.97097 1.12993 1.08911
 C286 C 0.95238 1.14149 1.07741
 C287 C 0.94389 1.16186 1.08566
 H288 H 0.95139 1.16968 1.10023
 O289 O 0.88873 1.08125 1.02177
 O290 O 0.86251 1.10731 1.02183
 C291 C 0.87044 1.08904 1.02940
 C292 C 0.85865 1.07699 1.04765
 C293 C 0.83759 1.08430 1.05520
 H294 H 0.82941 1.09845 1.04724
 O295 O 1.11134 0.91907 1.02181
 O296 O 1.13746 0.89291 1.02177
 C297 C 1.12953 0.91113 1.02947
 C298 C 1.14120 0.92288 1.04794
 C299 C 1.16168 0.91474 1.05618
 H300 H 1.16949 0.90019 1.04858
 O301 O 0.97856 0.91952 1.11216
 O302 O 0.97847 0.89347 1.13843
 C303 C 0.97090 0.91173 1.13045
 C304 C 0.95263 0.92375 1.14220
 C305 C 0.94489 0.91633 1.16318
 H306 H 0.95270 0.90206 1.17131
 O307 O 1.02242 1.08114 1.11206
 O308 O 1.02244 1.10728 1.13821
 C309 C 1.03007 1.08903 1.13029
 C310 C 1.04843 1.07712 1.14202
 C311 C 1.05630 1.08473 1.16287
 H312 H 1.04851 1.09904 1.17095
 O313 O 0.88894 0.97848 1.08130
 O314 O 0.86278 0.97843 1.10743
 C315 C 0.87077 0.97074 1.08923
 C316 C 0.85921 0.95220 1.07747
 C317 C 0.83890 0.94365 1.08574
 H318 H 0.83111 0.95105 1.10040
 O319 O 1.11194 1.02192 1.08119
 O320 O 1.13821 1.02181 1.10715
 C321 C 1.13022 1.02950 1.08895
 C322 C 1.14193 1.04783 1.07698
 C323 C 1.16270 1.05578 1.08463
 H324 H 1.17071 1.04806 1.09899
 O325 O 0.91956 0.88899 1.02193
 O326 O 0.89347 0.86284 1.02202
 C327 C 0.91162 0.87083 1.02972
 C328 C 0.92321 0.85930 1.04841
 C329 C 0.91472 0.83913 1.05712
 H330 H 0.90007 0.83142 1.04970
 O331 O 1.08142 1.11148 1.02182
 O332 O 1.10749 1.13764 1.02176
 C333 C 1.08930 1.12970 1.02947
 C334 C 1.07751 1.14140 1.04794
 C335 C 1.08537 1.16207 1.05600
 H336 H 1.09976 1.17002 1.04826
 Cu337 Cu 1.09393 1.00015 1.09399
 Cu338 Cu 1.12538 0.99998 1.12525
 Cu339 Cu 0.90676 1.00046 1.09397
 Cu340 Cu 0.87536 1.00050 1.12535
 Cu341 Cu 1.00059 1.09379 1.09399
 Cu342 Cu 1.00058 1.12525 1.12529
 Cu343 Cu 1.00034 0.90670 1.09413
 Cu344 Cu 1.00021 0.87530 1.12555
 C345 C 1.05897 1.05865 1.13184
 H346 H 1.05320 1.05289 1.11562
 C347 C 1.07449 1.07416 1.17324
 C348 C 0.94203 0.94216 1.13193
 H349 H 0.94768 0.94777 1.11559
 C350 C 0.92681 0.92701 1.17363
 C351 C 1.05895 1.13135 1.05844
 H352 H 1.05299 1.11526 1.05254
 C353 C 1.07500 1.17239 1.07434
 C354 C 0.94201 0.86913 1.05863
 H355 H 0.94843 0.88487 1.05225
 C356 C 0.92468 0.82910 1.07583
 C357 C 1.13182 1.05829 1.05842
 H358 H 1.11566 1.05246 1.05262
 C359 C 1.17303 1.07399 1.07405
 C360 C 0.86908 0.94207 1.05858
 H361 H 0.88491 0.94834 1.05230
 C362 C 0.82880 0.92516 1.07547
 C363 C 0.94200 1.05883 1.13173
 H364 H 0.94792 1.05288 1.11561
 C365 C 0.92611 1.07483 1.17285
 C366 C 1.05877 0.94175 1.13182
 H367 H 1.05307 0.94750 1.11556
 C368 C 1.07414 0.92626 1.17330
 C369 C 1.13129 0.94159 1.05834
 H370 H 1.11533 0.94776 1.05232
 C371 C 1.17194 0.92497 1.07459
 C372 C 0.86895 1.05870 1.05841
 H373 H 0.88534 1.05317 1.05289
 C374 C 0.82711 1.07363 1.07330
 C375 C 0.94209 1.13155 1.05867
 H376 H 0.94830 1.11566 1.05243
 C377 C 0.92535 1.17197 1.07552
 C378 C 1.05838 0.86860 1.05866
 H379 H 1.05253 0.88477 1.05280
 C380 C 1.07416 0.82734 1.07443
 O381 O 1.08100 0.97825 0.88785
 O382 O 1.10704 0.97821 0.86160
 C383 C 1.08883 0.97060 0.86956
 C384 C 1.07689 0.95231 0.85781
 C385 C 1.08439 0.94452 0.83687
 H386 H 1.09865 0.95233 0.82876
 O387 O 0.91939 1.02240 0.88804
 O388 O 0.89329 1.02251 0.86190
 C389 C 0.91147 1.03017 0.86986
 C390 C 0.92320 1.04873 0.85826
 C391 C 0.91525 1.05700 0.83769
 H392 H 0.90085 1.04936 0.82973
 O393 O 0.97844 1.11220 0.91904
 O394 O 0.97854 1.13851 0.89304
 C395 C 0.97090 1.13055 0.91128
 C396 C 0.95266 1.14236 0.92331
 C397 C 0.94486 1.16329 0.91577
 H398 H 0.95264 1.17136 0.90146
 O399 O 1.02192 0.88866 0.91864
 O400 O 1.02194 0.86239 0.89262
 C401 C 1.02955 0.87037 0.91084
 C402 C 1.04782 0.85862 0.92283
 C403 C 1.05560 0.83769 0.91534
 H404 H 1.04785 0.82961 0.90103
 O405 O 1.11136 0.91902 0.97801
 O406 O 1.13750 0.89288 0.97795
 C407 C 1.12956 0.91111 0.97029
 C408 C 1.14123 0.92293 0.95181
 C409 C 1.16192 0.91509 0.94376
 H410 H 1.16989 0.90070 0.95150
 O411 O 0.88895 1.08152 0.97801
 O412 O 0.86283 1.10767 0.97802
 C413 C 0.87079 1.08947 0.97030
 C414 C 0.85917 1.07772 0.95178
 C415 C 0.83863 1.08575 0.94353
 H416 H 0.83073 1.10025 0.95113
 O417 O 1.02188 1.08124 0.88820
 O418 O 1.02201 1.10737 0.86201
 C419 C 1.02957 1.08909 0.86994
 C420 C 1.04785 1.07709 0.85817
 C421 C 1.05560 1.08460 0.83723
 H422 H 1.04780 1.09891 0.82916
 O423 O 0.97830 0.91936 0.88791
 O424 O 0.97826 0.89328 0.86170
 C425 C 0.97067 0.91154 0.86964
 C426 C 0.95246 0.92361 0.85786
 C427 C 0.94494 0.91637 0.83676
 H428 H 0.95284 0.90219 0.82857
 O429 O 1.11172 1.02186 0.91861
 O430 O 1.13789 1.02185 0.89249
 C431 C 1.12996 1.02949 0.91073
 C432 C 1.14169 1.04782 0.92264
 C433 C 1.16243 1.05579 0.91487
 H434 H 1.17041 1.04808 0.90047
 O435 O 0.88882 0.97860 0.91873
 O436 O 0.86262 0.97859 0.89270
 C437 C 0.87060 0.97092 0.91091
 C438 C 0.85897 0.95250 0.92282
 C439 C 0.83826 0.94445 0.91512
 H440 H 0.83023 0.95213 0.90074
 O441 O 1.08132 1.11147 0.97805
 O442 O 1.10738 1.13764 0.97795
 C443 C 1.08917 1.12971 0.97034
 C444 C 1.07730 1.14146 0.95197
 C445 C 1.08505 1.16223 0.94400
 H446 H 1.09941 1.17019 0.95172
 O447 O 0.91949 0.88874 0.97813
 O448 O 0.89346 0.86255 0.97820
 C449 C 0.91165 0.87048 0.97052
 C450 C 0.92352 0.85872 0.95214
 C451 C 0.91594 0.83783 0.94437
 H452 H 0.90171 0.82975 0.95228
 O453 O 0.91945 0.97865 0.88795
 O454 O 0.89341 0.97871 0.86176
 C455 C 0.91162 0.97105 0.86968
 C456 C 0.92358 0.95275 0.85787
 C457 C 0.91631 0.94526 0.83676
 H458 H 0.90221 0.95327 0.82858
 O459 O 1.08093 1.02197 0.88807
 O460 O 1.10695 1.02199 0.86180
 C461 C 1.08875 1.02964 0.86980
 C462 C 1.07681 1.04801 0.85810
 C463 C 1.08427 1.05577 0.83713
 H464 H 1.09848 1.04791 0.82898
 O465 O 0.97827 0.88868 0.91867
 O466 O 0.97821 0.86244 0.89263
 C467 C 0.97061 0.87042 0.91087
 C468 C 0.95234 0.85871 0.92291
 C469 C 0.94449 0.83782 0.91540
 H470 H 0.95220 0.82975 0.90105
 O471 O 1.02210 1.11186 0.91894
 O472 O 1.02226 1.13814 0.89290
 C473 C 1.02986 1.13008 0.91110
 C474 C 1.04829 1.14164 0.92299
 C475 C 1.05629 1.16243 0.91532
 H476 H 1.04856 1.17055 0.90102
 O477 O 0.88891 0.91958 0.97805
 O478 O 0.86276 0.89350 0.97810
 C479 C 0.87071 0.91171 0.97039
 C480 C 0.85903 0.92353 0.95194
 C481 C 0.83833 0.91574 0.94396
 H482 H 0.83036 0.90138 0.95173
 O483 O 1.11198 1.08075 0.97798
 O484 O 1.13816 1.10680 0.97786
 C485 C 1.13017 1.08861 0.97022
 C486 C 1.14179 1.07675 0.95175
 C487 C 1.16251 1.08447 0.94369
 H488 H 1.17054 1.09880 0.95142
 O489 O 1.02194 0.91928 0.88787
 O490 O 1.02197 0.89318 0.86169
 C491 C 1.02959 0.91141 0.86961
 C492 C 1.04790 0.92333 0.85784
 C493 C 1.05566 0.91581 0.83690
 H494 H 1.04783 0.90156 0.82882
 O495 O 0.97819 1.08160 0.88822
 O496 O 0.97826 1.10778 0.86209
 C497 C 0.97053 1.08958 0.87002
 C498 C 0.95207 1.07784 0.85835
 C499 C 0.94384 1.08586 0.83778
 H500 H 0.95140 1.10038 0.82987
 O501 O 0.88888 1.02237 0.91884
 O502 O 0.86267 1.02243 0.89283
 C503 C 0.87068 1.03010 0.91101
 C504 C 0.85910 1.04863 0.92282
 C505 C 0.83857 1.05693 0.91486
 H506 H 0.83064 1.04931 0.90041
 O507 O 1.11148 0.97810 0.91869
 O508 O 1.13766 0.97802 0.89258
 C509 C 1.12968 0.97037 0.91081
 C510 C 1.14129 0.95190 0.92269
 C511 C 1.16198 0.94378 0.91491
 H512 H 1.16999 0.95143 0.90049
 O513 O 1.08065 0.88842 0.97810
 O514 O 1.10667 0.86216 0.97803
 C515 C 1.08848 0.87017 0.97040
 C516 C 1.07662 0.85851 0.95201
 C517 C 1.08413 0.83758 0.94424
 H518 H 1.09831 0.82942 0.95214
 O519 O 0.91955 1.11226 0.97830
 O520 O 0.89356 1.13854 0.97841
 C521 C 0.91176 1.13058 0.97073
 C522 C 0.92371 1.14238 0.95241
 C523 C 0.91615 1.16328 0.94459
 H524 H 0.90185 1.17134 0.95239
 Cu525 Cu 1.09368 1.00005 0.90592
 Cu526 Cu 1.12502 1.00002 0.87449
 Cu527 Cu 0.90675 1.00047 0.90600
 Cu528 Cu 0.87536 1.00055 0.87468
 Cu529 Cu 1.09409 1.09350 0.99991
 Cu530 Cu 1.12545 1.12485 0.99980
 Cu531 Cu 1.09342 0.90633 0.99995
 Cu532 Cu 1.12473 0.87488 0.99989
 Cu533 Cu 0.90679 1.09410 1.00002
 Cu534 Cu 0.87546 1.12552 1.00014
 Cu535 Cu 0.90681 0.90684 0.99995
 Cu536 Cu 0.87547 0.87548 1.00005
 Cu537 Cu 1.00013 1.09410 0.90620
 Cu538 Cu 1.00028 1.12558 0.87488
 Cu539 Cu 1.00010 0.90661 0.90588
 Cu540 Cu 1.00009 0.87518 0.87453
 C541 C 1.05848 0.94173 0.86805
 H542 H 1.05280 0.94743 0.88434
 C543 C 1.07380 0.92639 0.82646
 C544 C 0.94176 1.05913 0.86834
 H545 H 0.94778 1.05306 0.88436
 C546 C 0.92553 1.07546 0.82751
 C547 C 0.94213 1.13218 0.94180
 H548 H 0.94784 1.11590 0.94751
 C549 C 0.92671 1.17370 0.92638
 C550 C 1.05831 0.86879 0.94132
 H551 H 1.05262 0.88508 0.94700
 C552 C 1.07364 0.82722 0.92603
 C553 C 1.13116 0.94149 0.94129
 H554 H 1.11505 0.94743 0.94718
 C555 C 1.17224 0.92548 0.92542
 C556 C 0.86916 1.05902 0.94144
 H557 H 0.88515 1.05294 0.94747
 C558 C 0.82840 1.07538 0.92517
 C559 C 1.05843 1.05864 0.86837
 H560 H 1.05277 1.05296 0.88468
 C561 C 1.07368 1.07395 0.82675
 C562 C 0.94181 0.94195 0.86817
 H563 H 0.94733 0.94744 0.88457
 C564 C 0.92698 0.92719 0.82624
 C565 C 1.13162 1.05828 0.94123
 H566 H 1.11548 1.05245 0.94713
 C567 C 1.17278 1.07401 0.92536
 C568 C 0.86911 0.94205 0.94138
 H569 H 0.88524 0.94795 0.94721
 C570 C 0.82800 0.92617 0.92567
 C571 C 1.05877 1.13140 0.94148
 H572 H 1.05289 1.11523 0.94731
 C573 C 1.07457 1.17266 0.92580
 C574 C 0.94188 0.86890 0.94144
 H575 H 0.94763 0.88515 0.94713
 C576 C 0.92641 0.82743 0.92612
 O577 O 1.08102 0.52200 0.61183
 O578 O 1.10697 0.52191 0.63812
 C579 C 1.08878 0.52958 0.63014
 C580 C 1.07675 0.54782 0.64195
 C581 C 1.08387 0.55520 0.66315
 H582 H 1.09793 0.54716 0.67137
 O583 O 0.91953 0.47838 0.61179
 O584 O 0.89335 0.47847 0.63791
 C585 C 0.91153 0.47071 0.62999
 C586 C 0.92317 0.45213 0.64166
 C587 C 0.91512 0.44394 0.66224
 H588 H 0.90072 0.45169 0.67018
 O589 O 1.02257 0.61200 0.58105
 O590 O 1.02275 0.63814 0.60720
 C591 C 1.03040 0.63013 0.58898
 C592 C 1.04896 0.64163 0.57716
 C593 C 1.05725 0.66222 0.58501
 H594 H 1.04967 0.67025 0.59946
 O595 O 0.97844 0.38821 0.58116
 O596 O 0.97852 0.36196 0.60723
 C597 C 0.97089 0.36990 0.58899
 C598 C 0.95264 0.35812 0.57703
 C599 C 0.94482 0.33723 0.58463
 H600 H 0.95260 0.32916 0.59894
 O601 O 1.11214 0.58074 0.52171
 O602 O 1.13842 0.60670 0.52166
 C603 C 1.13038 0.58853 0.52937
 C604 C 1.14197 0.57669 0.54786
 C605 C 1.16266 0.58444 0.55590
 H606 H 1.17071 0.59875 0.54810
 O607 O 0.88912 0.41898 0.52198
 O608 O 0.86289 0.39299 0.52208
 C609 C 0.87088 0.41120 0.52969
 C610 C 0.85922 0.42319 0.54806
 C611 C 0.83848 0.41553 0.55612
 H612 H 0.83046 0.40114 0.54849
 O613 O 0.97850 0.58164 0.61153
 O614 O 0.97843 0.60771 0.63773
 C615 C 0.97076 0.58953 0.62973
 C616 C 0.95228 0.57770 0.64136
 C617 C 0.94402 0.58559 0.66197
 H618 H 0.95156 0.60007 0.66993
 O619 O 1.02180 0.41920 0.61188
 O620 O 1.02185 0.39316 0.63816
 C621 C 1.02940 0.41142 0.63018
 C622 C 1.04759 0.42346 0.64195
 C623 C 1.05508 0.41616 0.66305
 H624 H 1.04715 0.40199 0.67123
 O625 O 1.11163 0.47820 0.58113
 O626 O 1.13773 0.47806 0.60725
 C627 C 1.12981 0.47046 0.58901
 C628 C 1.14149 0.45206 0.57708
 C629 C 1.16216 0.44394 0.58487
 H630 H 1.17011 0.45155 0.59931
 O631 O 0.88916 0.52225 0.58089
 O632 O 0.86289 0.52235 0.60691
 C633 C 0.87094 0.53000 0.58872
 C634 C 0.85938 0.54851 0.57688
 C635 C 0.83865 0.55653 0.58462
 H636 H 0.83057 0.54874 0.59893
 O637 O 0.92002 0.61266 0.52196
 O638 O 0.89400 0.63892 0.52197
 C639 C 0.91221 0.63096 0.52957
 C640 C 0.92423 0.64276 0.54777
 C641 C 0.91709 0.66395 0.55517
 H642 H 0.90301 0.67219 0.54717
 O643 O 1.08107 0.38865 0.52178
 O644 O 1.10721 0.36251 0.52181
 C645 C 1.08901 0.37046 0.52950
 C646 C 1.07727 0.35880 0.54804
 C647 C 1.08522 0.33817 0.55619
 H648 H 1.09963 0.33023 0.54847
 O649 O 0.91973 0.52220 0.61160
 O650 O 0.89356 0.52232 0.63773
 C651 C 0.91177 0.52996 0.62978
 C652 C 0.92348 0.54851 0.64139
 C653 C 0.91548 0.55669 0.66199
 H654 H 0.90107 0.54899 0.66995
 O655 O 1.08095 0.47829 0.61185
 O656 O 1.10690 0.47817 0.63813
 C657 C 1.08869 0.47062 0.63015
 C658 C 1.07662 0.45241 0.64194
 C659 C 1.08383 0.44485 0.66305
 H660 H 1.09797 0.45275 0.67124
 O661 O 1.02211 0.38853 0.58118
 O662 O 1.02226 0.36234 0.60731
 C663 C 1.02989 0.37034 0.58907
 C664 C 1.04837 0.35875 0.57720
 C665 C 1.05658 0.33810 0.58505
 H666 H 1.04897 0.33009 0.59950
 O667 O 0.97890 0.61253 0.58100
 O668 O 0.97898 0.63876 0.60704
 C669 C 0.97137 0.63086 0.58880
 C670 C 0.95321 0.64274 0.57675
 C671 C 0.94581 0.66393 0.58391
 H672 H 0.95379 0.67214 0.59801
 O673 O 0.88950 0.58185 0.52203
 O674 O 0.86333 0.60795 0.52207
 C675 C 0.87128 0.58971 0.52970
 C676 C 0.85955 0.57775 0.54805
 C677 C 0.83880 0.58549 0.55605
 H678 H 0.83083 0.59991 0.54838
 O679 O 1.11176 0.41927 0.52172
 O680 O 1.13800 0.39323 0.52172
 C681 C 1.12998 0.41141 0.52941
 C682 C 1.14158 0.42321 0.54790
 C683 C 1.16224 0.41535 0.55596
 H684 H 1.17024 0.40098 0.54822
 O685 O 0.97814 0.41894 0.61182
 O686 O 0.97811 0.39282 0.63803
 C687 C 0.97042 0.41102 0.63004
 C688 C 0.95194 0.42286 0.64167
 C689 C 0.94361 0.41493 0.66225
 H690 H 0.95110 0.40039 0.67018
 O691 O 1.02214 0.58135 0.61180
 O692 O 1.02216 0.60733 0.63811
 C693 C 1.02969 0.58906 0.63014
 C694 C 1.04780 0.57690 0.64196
 C695 C 1.05517 0.58400 0.66316
 H696 H 1.04718 0.59810 0.67140
 O697 O 0.88913 0.47846 0.58088
 O698 O 0.86285 0.47856 0.60690
 C699 C 0.87087 0.47083 0.58872
 C700 C 0.85922 0.45239 0.57690
 C701 C 0.83848 0.44445 0.58470
 H702 H 0.83046 0.45226 0.59903
 O703 O 1.11180 0.52193 0.58119
 O704 O 1.13790 0.52188 0.60732
 C705 C 1.13002 0.52955 0.58907
 C706 C 1.14179 0.54787 0.57712
 C707 C 1.16249 0.55590 0.58489
 H708 H 1.17041 0.54827 0.59936
 O709 O 0.91963 0.38812 0.52199
 O710 O 0.89355 0.36197 0.52208
 C711 C 0.91177 0.36989 0.52969
 C712 C 0.92367 0.35814 0.54803
 C713 C 0.91609 0.33727 0.55591
 H714 H 0.90180 0.32923 0.54815
 O715 O 1.08160 0.61157 0.52179
 O716 O 1.10777 0.63763 0.52175
 C717 C 1.08957 0.62975 0.52947
 C718 C 1.07787 0.64144 0.54800
 C719 C 1.08588 0.66203 0.55613
 H720 H 1.10030 0.66992 0.54839
 Cu721 Cu 1.09375 0.50012 0.59388
 Cu722 Cu 1.12501 0.50000 0.62533
 Cu723 Cu 0.90702 0.50030 0.59369
 Cu724 Cu 0.87554 0.50043 0.62498
 Cu725 Cu 1.00051 0.59428 0.59372
 Cu726 Cu 1.00059 0.62562 0.62515
 Cu727 Cu 1.00010 0.40633 0.59389
 Cu728 Cu 1.00020 0.37494 0.62531
 C729 C 1.05856 0.55864 0.63160
 H730 H 1.05317 0.55326 0.61512
 C731 C 1.07308 0.57315 0.67372
 C732 C 0.94173 0.44161 0.63163
 H733 H 0.94782 0.44762 0.61560
 C734 C 0.92530 0.42545 0.67248
 C735 C 1.05927 0.63148 0.55851
 H736 H 1.05319 0.61545 0.55255
 C737 C 1.07560 0.67236 0.57452
 C738 C 0.94210 0.36831 0.55857
 H739 H 0.94783 0.38455 0.55281
 C740 C 0.92665 0.32687 0.57410
 C741 C 1.13178 0.55825 0.55845
 H742 H 1.11567 0.55238 0.55256
 C743 C 1.17287 0.57408 0.57430
 C744 C 0.86935 0.44177 0.55843
 H745 H 0.88549 0.44758 0.55253
 C746 C 0.82816 0.42614 0.57433
 C747 C 0.94202 0.55900 0.63132
 H748 H 0.94808 0.55300 0.61527
 C749 C 0.92572 0.57512 0.67223
 C750 C 1.05833 0.44174 0.63163
 H751 H 1.05287 0.44725 0.61521
 C752 C 1.07307 0.42685 0.67356
 C753 C 1.13145 0.44171 0.55844
 H754 H 1.11536 0.44766 0.55253
 C755 C 1.17247 0.42568 0.57433
 C756 C 0.86960 0.55910 0.55844
 H757 H 0.88574 0.55323 0.55258
 C758 C 0.82842 0.57491 0.57423
 C759 C 0.94245 0.63240 0.55853
 H760 H 0.94785 0.61593 0.55311
 C761 C 0.92787 0.67450 0.57312
 C762 C 1.05869 0.36885 0.55854
 H763 H 1.05266 0.38491 0.55257
 C764 C 1.07491 0.32788 0.57458
 O765 O 1.08089 0.47837 0.38763
 O766 O 1.10694 0.47823 0.36139
 C767 C 1.08872 0.47065 0.36939
 C768 C 1.07679 0.45229 0.35772
 C769 C 1.08424 0.44451 0.33676
 H770 H 1.09845 0.45235 0.32859
 O771 O 0.91964 0.52227 0.38879
 O772 O 0.89349 0.52239 0.36270
 C773 C 0.91167 0.53006 0.37064
 C774 C 0.92328 0.54871 0.35905
 C775 C 0.91482 0.55736 0.33884
 H776 H 0.90017 0.54992 0.33114
 O777 O 0.97910 0.61238 0.41894
 O778 O 0.97911 0.63870 0.39294
 C779 C 0.97155 0.63075 0.41121
 C780 C 0.95341 0.64261 0.42333
 C781 C 0.94595 0.66376 0.41610
 H782 H 0.95392 0.67196 0.40196
 O783 O 1.02237 0.38834 0.41883
 O784 O 1.02243 0.36219 0.39270
 C785 C 1.03010 0.37016 0.41090
 C786 C 1.04859 0.35854 0.42270
 C787 C 1.05683 0.33792 0.41480
 H788 H 1.04925 0.32996 0.40035
 O789 O 1.11162 0.41940 0.47791
 O790 O 1.13787 0.39337 0.47790
 C791 C 1.12984 0.41156 0.47021
 C792 C 1.14146 0.42340 0.45171
 C793 C 1.16219 0.41563 0.44370
 H794 H 1.17023 0.40131 0.45149
 O795 O 0.88943 0.58192 0.47830
 O796 O 0.86326 0.60803 0.47824
 C797 C 0.87120 0.58977 0.47063
 C798 C 0.85949 0.57782 0.45232
 C799 C 0.83882 0.58564 0.44423
 H800 H 0.83090 0.60016 0.45178
 O801 O 1.02234 0.58143 0.38779
 O802 O 1.02225 0.60750 0.36154
 C803 C 1.02986 0.58924 0.36944
 C804 C 1.04805 0.57720 0.35756
 C805 C 1.05569 0.58463 0.33654
 H806 H 1.04785 0.59891 0.32846
 O807 O 0.97845 0.41898 0.38846
 O808 O 0.97829 0.39290 0.36226
 C809 C 0.97066 0.41111 0.37029
 C810 C 0.95214 0.42295 0.35877
 C811 C 0.94357 0.41482 0.33841
 H812 H 0.95095 0.40019 0.33053
 O813 O 1.11158 0.52207 0.41826
 O814 O 1.13776 0.52201 0.39215
 C815 C 1.12982 0.52968 0.41039
 C816 C 1.14157 0.54802 0.42229
 C817 C 1.16222 0.55610 0.41440
 H818 H 1.17011 0.54852 0.39988
 O819 O 0.88898 0.47842 0.41946
 O820 O 0.86278 0.47852 0.39343
 C821 C 0.87077 0.47077 0.41159
 C822 C 0.85916 0.45222 0.42333
 C823 C 0.83861 0.44405 0.41534
 H824 H 0.83068 0.45177 0.40092
 O825 O 1.08160 0.61163 0.47798
 O826 O 1.10776 0.63770 0.47791
 C827 C 1.08955 0.62982 0.47025
 C828 C 1.07783 0.64152 0.45175
 C829 C 1.08580 0.66213 0.44359
 H830 H 1.10021 0.67004 0.45127
 O831 O 0.91970 0.38815 0.47826
 O832 O 0.89364 0.36198 0.47829
 C833 C 0.91186 0.36990 0.47063
 C834 C 0.92380 0.35814 0.45229
 C835 C 0.91628 0.33724 0.44450
 H836 H 0.90200 0.32917 0.45231
 O837 O 0.91966 0.47845 0.38875
 O838 O 0.89354 0.47855 0.36264
 C839 C 0.91171 0.47079 0.37055
 C840 C 0.92333 0.45219 0.35889
 C841 C 0.91502 0.44377 0.33854
 H842 H 0.90046 0.45135 0.33078
 O843 O 1.08104 0.52211 0.38746
 O844 O 1.10708 0.52203 0.36120
 C845 C 1.08888 0.52973 0.36917
 C846 C 1.07696 0.54808 0.35742
 C847 C 1.08432 0.55575 0.33638
 H848 H 1.09847 0.54782 0.32818
 O849 O 0.97869 0.38816 0.41904
 O850 O 0.97868 0.36193 0.39298
 C851 C 0.97108 0.36987 0.41124
 C852 C 0.95281 0.35812 0.42325
 C853 C 0.94503 0.33721 0.41573
 H854 H 0.95283 0.32913 0.40143
 O855 O 1.02274 0.61188 0.41873
 O856 O 1.02282 0.63809 0.39263
 C857 C 1.03049 0.63006 0.41082
 C858 C 1.04897 0.64162 0.42263
 C859 C 1.05719 0.66225 0.41476
 H860 H 1.04960 0.67026 0.40032
 O861 O 0.88905 0.41888 0.47823
 O862 O 0.86285 0.39286 0.47824
 C863 C 0.87083 0.41106 0.47057
 C864 C 0.85919 0.42298 0.45215
 C865 C 0.83863 0.41508 0.44390
 H866 H 0.83071 0.40056 0.45144
 O867 O 1.11207 0.58076 0.47790
 O868 O 1.13834 0.60672 0.47783
 C869 C 1.13028 0.58858 0.47014
 C870 C 1.14181 0.57679 0.45157
 C871 C 1.16244 0.58461 0.44338
 H872 H 1.17048 0.59894 0.45111
 O873 O 1.02211 0.41901 0.38808
 O874 O 1.02204 0.39300 0.36181
 C875 C 1.02966 0.41123 0.36974
 C876 C 1.04788 0.42322 0.35789
 C877 C 1.05560 0.41571 0.33693
 H878 H 1.04779 0.40142 0.32889
 O879 O 0.97865 0.58152 0.38845
 O880 O 0.97847 0.60770 0.36232
 C881 C 0.97080 0.58951 0.37035
 C882 C 0.95214 0.57784 0.35892
 C883 C 0.94339 0.58622 0.33872
 H884 H 0.95069 0.60093 0.33093
 O885 O 0.88910 0.52223 0.41962
 O886 O 0.86288 0.52232 0.39362
 C887 C 0.87089 0.52997 0.41180
 C888 C 0.85932 0.54850 0.42360
 C889 C 0.83865 0.55659 0.41579
 H890 H 0.83061 0.54880 0.40149
 O891 O 1.11150 0.47834 0.41833
 O892 O 1.13770 0.47820 0.39224
 C893 C 1.12972 0.47062 0.41050
 C894 C 1.14139 0.45225 0.42247
 C895 C 1.16212 0.44420 0.41474
 H896 H 1.17012 0.45185 0.40031
 O897 O 1.08125 0.38846 0.47797
 O898 O 1.10739 0.36232 0.47796
 C899 C 1.08920 0.37025 0.47028
 C900 C 1.07748 0.35857 0.45179
 C901 C 1.08545 0.33795 0.44363
 H902 H 1.09986 0.33001 0.45131
 O903 O 0.92015 0.61254 0.47825
 O904 O 0.89413 0.63880 0.47821
 C905 C 0.91236 0.63083 0.47061
 C906 C 0.92440 0.64262 0.45235
 C907 C 0.91718 0.66375 0.44485
 H908 H 0.90303 0.67194 0.45280
 Cu909 Cu 1.09364 0.50025 0.40553
 Cu910 Cu 1.12501 0.50011 0.37412
 Cu911 Cu 0.90697 0.50033 0.40676
 Cu912 Cu 0.87556 0.50046 0.37547
 Cu913 Cu 1.09423 0.59358 0.49985
 Cu914 Cu 1.12571 0.62480 0.49979
 Cu915 Cu 1.09380 0.40655 0.49984
 Cu916 Cu 1.12525 0.37524 0.49985
 Cu917 Cu 0.90738 0.59463 0.50014
 Cu918 Cu 0.87603 0.62605 0.50012
 Cu919 Cu 0.90699 0.40614 0.50011
 Cu920 Cu 0.87559 0.37483 0.50018
 Cu921 Cu 1.00072 0.59418 0.40608
 Cu922 Cu 1.00066 0.62562 0.37471
 Cu923 Cu 1.00041 0.40623 0.40622
 Cu924 Cu 1.00036 0.37487 0.37480
 C925 C 1.05845 0.44167 0.36804
 H926 H 1.05281 0.44736 0.38434
 C927 C 1.07366 0.42633 0.32641
 C928 C 0.94209 0.55894 0.36885
 H929 H 0.94849 0.55259 0.38461
 C930 C 0.92481 0.57603 0.32877
 C931 C 0.94268 0.63229 0.44163
 H932 H 0.94814 0.61586 0.44711
 C933 C 0.92795 0.67429 0.42685
 C934 C 1.05890 0.36861 0.44134
 H935 H 1.05287 0.38467 0.44731
 C936 C 1.07515 0.32769 0.42524
 C937 C 1.13130 0.44186 0.44111
 H938 H 1.11516 0.44775 0.44697
 C939 C 1.17246 0.42600 0.42533
 C940 C 0.86949 0.55910 0.44202
 H941 H 0.88559 0.55317 0.44793
 C942 C 0.82846 0.57504 0.42607
 C943 C 1.05866 0.55877 0.36775
 H944 H 1.05308 0.55315 0.38410
 C945 C 1.07369 0.57392 0.32598
 C946 C 0.94204 0.44179 0.36876
 H947 H 0.94832 0.44795 0.38464
 C948 C 0.92509 0.42518 0.32837
 C949 C 1.13161 0.55834 0.44103
 H950 H 1.11554 0.55242 0.44703
 C951 C 1.17259 0.57430 0.42492
 C952 C 0.86920 0.44170 0.44189
 H953 H 0.88521 0.44769 0.44793
 C954 C 0.82840 0.42559 0.42559
 C955 C 1.05927 0.63151 0.44128
 H956 H 1.05324 0.61546 0.44726
 C957 C 1.07551 0.67244 0.42521
 C958 C 0.94222 0.36833 0.44169
 H959 H 0.94791 0.38460 0.44738
 C960 C 0.92688 0.32683 0.42633
 O961 O 0.58136 1.02239 0.61152
 O962 O 0.60737 1.02236 0.63774
 C963 C 0.58918 1.03003 0.62978
 C964 C 0.57732 1.04845 0.64148
 C965 C 0.58506 1.05646 0.66221
 H966 H 0.59940 1.04871 0.67022
 O967 O 0.41983 0.97887 0.61150
 O968 O 0.39373 0.97892 0.63770
 C969 C 0.41191 0.97118 0.62973
 C970 C 0.42364 0.95265 0.64139
 C971 C 0.41569 0.94448 0.66201
 H972 H 0.40126 0.95217 0.66995
 O973 O 0.52261 1.11228 0.58056
 O974 O 0.52269 1.13855 0.60658
 C975 C 0.53031 1.13052 0.58836
 C976 C 0.54868 1.14215 0.57638
 C977 C 0.55677 1.16288 0.58410
 H978 H 0.54914 1.17090 0.59852
 O979 O 0.47872 0.88880 0.58081
 O980 O 0.47871 0.86255 0.60687
 C981 C 0.47107 0.87054 0.58866
 C982 C 0.45273 0.85885 0.57675
 C983 C 0.44489 0.83795 0.58428
 H984 H 0.45270 0.82980 0.59853
 O985 O 0.61216 1.08147 0.52124
 O986 O 0.63832 1.10754 0.52123
 C987 C 0.63032 1.08938 0.52897
 C988 C 0.64187 1.07766 0.54758
 C989 C 0.66237 1.08568 0.55585
 H990 H 0.67032 1.10011 0.54818
 O991 O 0.38907 0.91981 0.52180
 O992 O 0.36285 0.89379 0.52186
 C993 C 0.37083 0.91200 0.52949
 C994 C 0.35917 0.92392 0.54790
 C995 C 0.33845 0.91622 0.55597
 H996 H 0.33043 0.90185 0.54829
 O997 O 0.47882 1.08182 0.61137
 O998 O 0.47880 1.10796 0.63751
 C999 C 0.47114 1.08974 0.62960
 C1000 C 0.45275 1.07789 0.64133
 C1001 C 0.44470 1.08568 0.66207
 H1002 H 0.45237 1.10008 0.67004
 O1003 O 0.52238 0.91952 0.61142
 O1004 O 0.52242 0.89341 0.63762
 C1005 C 0.53009 0.91161 0.62963
 C1006 C 0.54859 0.92337 0.64122
 C1007 C 0.55681 0.91536 0.66179
 H1008 H 0.54918 0.90090 0.66973
 O1009 O 0.61223 0.97888 0.58067
 O1010 O 0.63845 0.97888 0.60668
 C1011 C 0.63053 0.97130 0.58843
 C1012 C 0.64239 0.95314 0.57633
 C1013 C 0.66357 0.94577 0.58345
 H1014 H 0.67177 0.95378 0.59753
 O1015 O 0.38938 1.02276 0.58075
 O1016 O 0.36318 1.02288 0.60684
 C1017 C 0.37119 1.03052 0.58862
 C1018 C 0.35959 1.04901 0.57676
 C1019 C 0.33896 1.05716 0.58463
 H1020 H 0.33098 1.04950 0.59907
 O1021 O 0.42000 1.11265 0.52136
 O1022 O 0.39401 1.13895 0.52141
 C1023 C 0.41220 1.13093 0.52903
 C1024 C 0.42412 1.14264 0.54737
 C1025 C 0.41658 1.16355 0.55519
 H1026 H 0.40233 1.17165 0.54738
 O1027 O 0.58175 0.88914 0.52167
 O1028 O 0.60786 0.86297 0.52173
 C1029 C 0.58964 0.87092 0.52938
 C1030 C 0.57777 0.85922 0.54781
 C1031 C 0.58556 0.83849 0.55588
 H1032 H 0.59998 0.83052 0.54821
 O1033 O 0.41989 1.02265 0.61154
 O1034 O 0.39381 1.02275 0.63776
 C1035 C 0.41201 1.03037 0.62978
 C1036 C 0.42384 1.04881 0.64142
 C1037 C 0.41606 1.05688 0.66215
 H1038 H 0.40172 1.04916 0.67020
 O1039 O 0.58150 0.97861 0.61136
 O1040 O 0.60758 0.97851 0.63751
 C1041 C 0.58941 0.97084 0.62954
 C1042 C 0.57763 0.95231 0.64117
 C1043 C 0.58558 0.94403 0.66175
 H1044 H 0.60005 0.95159 0.66967
 O1045 O 0.52242 0.88894 0.58069
 O1046 O 0.52247 0.86269 0.60677
 C1047 C 0.53014 0.87071 0.58856
 C1048 C 0.54864 0.85911 0.57673
 C1049 C 0.55671 0.83840 0.58454
 H1050 H 0.54898 0.83036 0.59890
 O1051 O 0.47894 1.11249 0.58062
 O1052 O 0.47895 1.13878 0.60661
 C1053 C 0.47133 1.13080 0.58841
 C1054 C 0.45305 1.14257 0.57643
 C1055 C 0.44525 1.16349 0.58397
 H1056 H 0.45302 1.17155 0.59827
 O1057 O 0.38941 1.08193 0.52147
 O1058 O 0.36329 1.10809 0.52154
 C1059 C 0.37123 1.08985 0.52921
 C1060 C 0.35960 1.07803 0.54770
 C1061 C 0.33895 1.08590 0.55584
 H1062 H 0.33097 1.10031 0.54816
 O1063 O 0.61239 0.91984 0.52150
 O1064 O 0.63866 0.89382 0.52151
 C1065 C 0.63068 0.91206 0.52911
 C1066 C 0.64244 0.92413 0.54731
 C1067 C 0.66361 0.91700 0.55470
 H1068 H 0.67185 0.90290 0.54670
 O1069 O 0.47868 0.91954 0.61148
 O1070 O 0.47864 0.89342 0.63767
 C1071 C 0.47099 0.91165 0.62972
 C1072 C 0.45255 0.92352 0.64139
 C1073 C 0.44433 0.91563 0.66203
 H1074 H 0.45192 0.90116 0.67000
 O1075 O 0.52249 1.08172 0.61144
 O1076 O 0.52254 1.10785 0.63759
 C1077 C 0.53014 1.08958 0.62968
 C1078 C 0.54845 1.07762 0.64142
 C1079 C 0.55647 1.08536 0.66217
 H1080 H 0.54883 1.09980 0.67015
 O1081 O 0.38916 0.97899 0.58086
 O1082 O 0.36295 0.97907 0.60694
 C1083 C 0.37091 0.97138 0.58873
 C1084 C 0.35921 0.95298 0.57688
 C1085 C 0.33849 0.94500 0.58469
 H1086 H 0.33051 0.95273 0.59908
 O1087 O 0.61197 1.02259 0.58076
 O1088 O 0.63810 1.02264 0.60685
 C1089 C 0.63014 1.03032 0.58864
 C1090 C 0.64176 1.04879 0.57679
 C1091 C 0.66228 1.05706 0.58477
 H1092 H 0.67016 1.04950 0.59929
 O1093 O 0.41966 0.88903 0.52179
 O1094 O 0.39359 0.86287 0.52184
 C1095 C 0.41180 0.87079 0.52946
 C1096 C 0.42371 0.85900 0.54779
 C1097 C 0.41615 0.83810 0.55558
 H1098 H 0.40186 0.83007 0.54778
 O1099 O 0.58149 1.11216 0.52107
 O1100 O 0.60755 1.13834 0.52103
 C1101 C 0.58935 1.13040 0.52872
 C1102 C 0.57754 1.14210 0.54718
 C1103 C 0.58536 1.16281 0.55518
 H1104 H 0.59971 1.17078 0.54740
 Cu1105 Cu 0.59414 1.00061 0.59348
 Cu1106 Cu 0.62549 1.00059 0.62484
 Cu1107 Cu 0.40718 1.00080 0.59355
 Cu1108 Cu 0.37579 1.00092 0.62494
 Cu1109 Cu 0.50071 1.09446 0.59340
 Cu1110 Cu 0.50075 1.12592 0.62470
 Cu1111 Cu 0.50053 0.90682 0.59349
 Cu1112 Cu 0.50055 0.87539 0.62487
 C1113 C 0.55885 1.05901 0.63133
 H1114 H 0.55300 1.05316 0.61518
 C1115 C 0.57467 1.07480 0.67250
 C1116 C 0.44222 0.94219 0.63133
 H1117 H 0.44825 0.94818 0.61526
 C1118 C 0.42600 0.92608 0.67228
 C1119 C 0.55905 1.13201 0.55776
 H1120 H 0.55313 1.11588 0.55191
 C1121 C 0.57500 1.17315 0.57352
 C1122 C 0.44215 0.86913 0.55835
 H1123 H 0.44787 0.88540 0.55264
 C1124 C 0.42672 0.82762 0.57371
 C1125 C 0.63180 1.05907 0.55804
 H1126 H 0.61584 1.05299 0.55198
 C1127 C 0.67252 1.07541 0.57434
 C1128 C 0.36930 0.94246 0.55833
 H1129 H 0.38543 0.94830 0.55242
 C1130 C 0.32816 0.92673 0.57426
 C1131 C 0.44233 1.05930 0.63126
 H1132 H 0.44823 1.05340 0.61512
 C1133 C 0.42646 1.07519 0.67243
 C1134 C 0.55899 0.94199 0.63115
 H1135 H 0.55297 0.94805 0.61512
 C1136 C 0.57519 0.92566 0.67200
 C1137 C 0.63207 0.94236 0.55810
 H1138 H 0.61562 0.94775 0.55270
 C1139 C 0.67415 0.92782 0.57264
 C1140 C 0.36968 1.05943 0.55815
 H1141 H 0.38575 1.05346 0.55219
 C1142 C 0.32870 1.07549 0.57421
 C1143 C 0.44251 1.13239 0.55798
 H1144 H 0.44820 1.11611 0.55227
 C1145 C 0.42713 1.17393 0.57337
 C1146 C 0.55915 0.86928 0.55822
 H1147 H 0.55324 0.88541 0.55232
 C1148 C 0.57506 0.82815 0.57414
 O1149 O 0.58152 0.97858 0.38760
 O1150 O 0.60759 0.97842 0.36138
 C1151 C 0.58939 0.97081 0.36940
 C1152 C 0.57756 0.95232 0.35783
 C1153 C 0.58543 0.94406 0.33720
 H1154 H 0.59986 0.95164 0.32919
 O1155 O 0.41978 1.02270 0.38792
 O1156 O 0.39375 1.02263 0.36172
 C1157 C 0.41195 1.03028 0.36962
 C1158 C 0.42387 1.04857 0.35777
 C1159 C 0.41639 1.05622 0.33679
 H1160 H 0.40217 1.04832 0.32873
 O1161 O 0.47903 1.11237 0.41823
 O1162 O 0.47901 1.13860 0.39214
 C1163 C 0.47141 1.13066 0.41041
 C1164 C 0.45316 1.14245 0.42244
 C1165 C 0.44543 1.16342 0.41497
 H1166 H 0.45323 1.17152 0.40069
 O1167 O 0.52263 0.88892 0.41890
 O1168 O 0.52264 0.86266 0.39287
 C1169 C 0.53032 0.87067 0.41105
 C1170 C 0.54877 0.85904 0.42287
 C1171 C 0.55689 0.83834 0.41507
 H1172 H 0.54920 0.83032 0.40070
 O1173 O 0.61229 0.91980 0.47776
 O1174 O 0.63852 0.89375 0.47774
 C1175 C 0.63052 0.91195 0.47007
 C1176 C 0.64219 0.92385 0.45164
 C1177 C 0.66308 0.91631 0.44385
 H1178 H 0.67120 0.90208 0.45173
 O1179 O 0.38919 1.08205 0.47769
 O1180 O 0.36307 1.10822 0.47770
 C1181 C 0.37098 1.08997 0.47004
 C1182 C 0.35928 1.07812 0.45164
 C1183 C 0.33859 1.08594 0.44357
 H1184 H 0.33062 1.10036 0.45124
 O1185 O 0.52248 1.08150 0.38733
 O1186 O 0.52249 1.10753 0.36105
 C1187 C 0.53009 1.08928 0.36901
 C1188 C 0.54831 1.07723 0.35722
 C1189 C 0.55592 1.08454 0.33614
 H1190 H 0.54804 1.09874 0.32798
 O1191 O 0.47880 0.91956 0.38833
 O1192 O 0.47870 0.89339 0.36221
 C1193 C 0.47105 0.91162 0.37017
 C1194 C 0.45251 0.92339 0.35859
 C1195 C 0.44404 0.91518 0.33822
 H1196 H 0.45151 0.90057 0.33039
 O1197 O 0.61210 1.02245 0.41808
 O1198 O 0.63826 1.02243 0.39194
 C1199 C 0.63031 1.03010 0.41017
 C1200 C 0.64201 1.04848 0.42205
 C1201 C 0.66270 1.05653 0.41423
 H1202 H 0.67065 1.04889 0.39977
 O1203 O 0.38912 0.97912 0.41892
 O1204 O 0.36292 0.97910 0.39288
 C1205 C 0.37089 0.97146 0.41110
 C1206 C 0.35922 0.95305 0.42301
 C1207 C 0.33853 0.94504 0.41523
 H1208 H 0.33056 0.95277 0.40084
 O1209 O 0.58164 1.11206 0.47727
 O1210 O 0.60772 1.13821 0.47720
 C1211 C 0.58956 1.13025 0.46951
 C1212 C 0.57785 1.14187 0.45095
 C1213 C 0.58587 1.16243 0.44271
 H1214 H 0.60029 1.17034 0.45036
 O1215 O 0.41971 0.88903 0.47806
 O1216 O 0.39363 0.86288 0.47805
 C1217 C 0.41186 0.87079 0.47041
 C1218 C 0.42382 0.85901 0.45210
 C1219 C 0.41622 0.83814 0.44427
 H1220 H 0.40187 0.83015 0.45203
 O1221 O 0.41979 0.97892 0.38824
 O1222 O 0.39370 0.97881 0.36209
 C1223 C 0.41187 0.97112 0.37009
 C1224 C 0.42357 0.95249 0.35855
 C1225 C 0.41537 0.94400 0.33819
 H1226 H 0.40081 0.95151 0.33035
 O1227 O 0.58147 1.02232 0.38738
 O1228 O 0.60747 1.02223 0.36109
 C1229 C 0.58927 1.02989 0.36905
 C1230 C 0.57728 1.04816 0.35724
 C1231 C 0.58461 1.05572 0.33615
 H1232 H 0.59878 1.04778 0.32799
 O1233 O 0.47893 0.88881 0.41899
 O1234 O 0.47891 0.86252 0.39299
 C1235 C 0.47128 0.87053 0.41121
 C1236 C 0.45293 0.85885 0.42317
 C1237 C 0.44508 0.83797 0.41562
 H1238 H 0.45291 0.82985 0.40136
 O1239 O 0.52271 1.11219 0.41800
 O1240 O 0.52279 1.13838 0.39186
 C1241 C 0.53046 1.13038 0.41006
 C1242 C 0.54897 1.14195 0.42185
 C1243 C 0.55725 1.16252 0.41388
 H1244 H 0.54969 1.17049 0.39940
 O1245 O 0.38909 0.91981 0.47803
 O1246 O 0.36288 0.89380 0.47803
 C1247 C 0.37087 0.91200 0.47037
 C1248 C 0.35921 0.92394 0.45197
 C1249 C 0.33851 0.91620 0.44392
 H1250 H 0.33052 0.90179 0.45159
 O1251 O 0.61226 1.08133 0.47742
 O1252 O 0.63845 1.10737 0.47738
 C1253 C 0.63048 1.08917 0.46972
 C1254 C 0.64212 1.07733 0.45124
 C1255 C 0.66280 1.08511 0.44315
 H1256 H 0.67083 1.09944 0.45090
 O1257 O 0.52251 0.91947 0.38804
 O1258 O 0.52247 0.89334 0.36189
 C1259 C 0.53015 0.91156 0.36979
 C1260 C 0.54856 0.92335 0.35802
 C1261 C 0.55671 0.91534 0.33741
 H1262 H 0.54909 0.90084 0.32955
 O1263 O 0.47883 1.08171 0.38749
 O1264 O 0.47878 1.10777 0.36124
 C1265 C 0.47115 1.08956 0.36925
 C1266 C 0.45281 1.07761 0.35759
 C1267 C 0.44507 1.08500 0.33660
 H1268 H 0.45289 1.09920 0.32839
 O1269 O 0.38915 1.02289 0.41872
 O1270 O 0.36300 1.02289 0.39264
 C1271 C 0.37094 1.03058 0.41084
 C1272 C 0.35927 1.04905 0.42267
 C1273 C 0.33859 1.05712 0.41488
 H1274 H 0.33061 1.04941 0.40050
 O1275 O 0.61215 0.97872 0.41828
 O1276 O 0.63836 0.97864 0.39219
 C1277 C 0.63040 0.97106 0.41046
 C1278 C 0.64214 0.95277 0.42248
 C1279 C 0.66305 0.94497 0.41497
 H1280 H 0.67113 0.95276 0.40067
 O1281 O 0.58174 0.88905 0.47790
 O1282 O 0.60784 0.86287 0.47788
 C1283 C 0.58963 0.87082 0.47023
 C1284 C 0.57780 0.85911 0.45183
 C1285 C 0.58565 0.83842 0.44374
 H1286 H 0.60007 0.83046 0.45140
 O1287 O 0.42007 1.11252 0.47761
 O1288 O 0.39409 1.13882 0.47761
 C1289 C 0.41227 1.13080 0.46994
 C1290 C 0.42422 1.14250 0.45156
 C1291 C 0.41675 1.16346 0.44382
 H1292 H 0.40253 1.17159 0.45169
 Cu1293 Cu 0.59420 1.00054 0.40545
 Cu1294 Cu 0.62555 1.00043 0.37402
 Cu1295 Cu 0.40707 1.00093 0.40606
 Cu1296 Cu 0.37572 1.00086 0.37471
 Cu1297 Cu 0.59428 1.09414 0.49926
 Cu1298 Cu 0.62563 1.12549 0.49920
 Cu1299 Cu 0.59442 0.90706 0.49972
 Cu1300 Cu 0.62584 0.87572 0.49972
 Cu1301 Cu 0.40726 1.09466 0.49952
 Cu1302 Cu 0.37599 1.12615 0.49956
 Cu1303 Cu 0.40699 0.90703 0.49991
 Cu1304 Cu 0.37560 0.87572 0.49994
 Cu1305 Cu 0.50076 1.09434 0.40538
 Cu1306 Cu 0.50076 1.12571 0.37395
 Cu1307 Cu 0.50072 0.90681 0.40617
 Cu1308 Cu 0.50068 0.87535 0.37486
 C1309 C 0.55896 0.94199 0.36798
 H1310 H 0.55300 0.94805 0.38403
 C1311 C 0.57504 0.92566 0.32706
 C1312 C 0.44223 1.05924 0.36793
 H1313 H 0.44789 1.05365 0.38426
 C1314 C 0.42697 1.07431 0.32624
 C1315 C 0.44258 1.13224 0.44090
 H1316 H 0.44822 1.11593 0.44656
 C1317 C 0.42734 1.17387 0.42565
 C1318 C 0.55921 0.86917 0.44141
 H1319 H 0.55327 0.88528 0.44733
 C1320 C 0.57523 0.82809 0.42547
 C1321 C 0.63195 0.94223 0.44098
 H1322 H 0.61569 0.94794 0.44668
 C1323 C 0.67347 0.92686 0.42564
 C1324 C 0.36936 1.05952 0.44121
 H1325 H 0.38546 1.05359 0.44711
 C1326 C 0.32829 1.07546 0.42530
 C1327 C 0.55897 1.05888 0.36752
 H1328 H 0.55341 1.05334 0.38391
 C1329 C 0.57394 1.07379 0.32565
 C1330 C 0.44229 0.94220 0.36851
 H1331 H 0.44850 0.94842 0.38439
 C1332 C 0.42556 0.92544 0.32810
 C1333 C 0.63196 1.05887 0.44070
 H1334 H 0.61586 1.05298 0.44662
 C1335 C 0.67304 1.07474 0.42476
 C1336 C 0.36932 0.94252 0.44154
 H1337 H 0.38543 0.94838 0.44742
 C1338 C 0.32824 0.92672 0.42564
 C1339 C 0.55926 1.13187 0.44053
 H1340 H 0.55320 1.11585 0.44657
 C1341 C 0.57561 1.17269 0.42428
 C1342 C 0.44232 0.86912 0.44157
 H1343 H 0.44807 0.88536 0.44729
 C1344 C 0.42684 0.82767 0.42615
 O1345 O 0.57954 0.52073 1.11194
 O1346 O 0.60557 0.52074 1.13814
 C1347 C 0.58736 0.52838 1.13019
 C1348 C 0.57546 0.54676 1.14190
 C1349 C 0.58316 0.55475 1.16267
 H1350 H 0.59747 0.54700 1.17071
 O1351 O 0.41823 0.47730 1.11136
 O1352 O 0.39212 0.47723 1.13754
 C1353 C 0.41035 0.46959 1.12959
 C1354 C 0.42219 0.45116 1.14129
 C1355 C 0.41440 0.44317 1.16205
 H1356 H 0.40005 0.45094 1.17005
 O1357 O 0.52088 0.61074 1.08100
 O1358 O 0.52088 0.63689 1.10713
 C1359 C 0.52858 0.62892 1.08892
 C1360 C 0.54712 0.64051 1.07717
 C1361 C 0.55573 0.66079 1.08547
 H1362 H 0.54835 0.66856 1.10015
 O1363 O 0.47748 0.38714 1.08094
 O1364 O 0.47741 0.36086 1.10699
 C1365 C 0.46985 0.36884 1.08874
 C1366 C 0.45165 0.35708 1.07669
 C1367 C 0.44402 0.33604 1.08405
 H1368 H 0.45185 0.32788 1.09828
 O1369 O 0.61022 0.57988 1.02176
 O1370 O 0.63637 0.60596 1.02178
 C1371 C 0.62836 0.58779 1.02951
 C1372 C 0.63985 0.57616 1.04819
 C1373 C 0.65998 0.58464 1.05690
 H1374 H 0.66769 0.59933 1.04948
 O1375 O 0.38802 0.41783 1.02171
 O1376 O 0.36187 0.39175 1.02171
 C1377 C 0.36980 0.40996 1.02938
 C1378 C 0.35807 0.42186 1.04776
 C1379 C 0.33733 0.41412 1.05578
 H1380 H 0.32936 0.39972 1.04810
 O1381 O 0.47705 0.58008 1.11155
 O1382 O 0.47695 0.60615 1.13776
 C1383 C 0.46931 0.58796 1.12976
 C1384 C 0.45082 0.57616 1.14138
 C1385 C 0.44258 0.58410 1.16197
 H1386 H 0.45020 0.59854 1.16992
 O1387 O 0.52095 0.41782 1.11183
 O1388 O 0.52089 0.39171 1.13804
 C1389 C 0.52854 0.40994 1.13011
 C1390 C 0.54686 0.42182 1.14185
 C1391 C 0.55489 0.41402 1.16258
 H1392 H 0.54725 0.39959 1.17056
 O1393 O 0.61028 0.47710 1.08111
 O1394 O 0.63644 0.47708 1.10717
 C1395 C 0.62850 0.46942 1.08896
 C1396 C 0.64017 0.45097 1.07713
 C1397 C 0.66059 0.44256 1.08526
 H1398 H 0.66839 0.45004 1.09986
 O1399 O 0.38745 0.52099 1.08064
 O1400 O 0.36118 0.52092 1.10666
 C1401 C 0.36916 0.52859 1.08844
 C1402 C 0.35741 0.54691 1.07647
 C1403 C 0.33641 0.55458 1.08388
 H1404 H 0.32827 0.54669 1.09809
 O1405 O 0.41817 0.61096 1.02177
 O1406 O 0.39204 0.63710 1.02184
 C1407 C 0.41023 0.62914 1.02951
 C1408 C 0.42197 0.64073 1.04805
 C1409 C 0.41387 0.66119 1.05647
 H1410 H 0.39933 0.66908 1.04898
 O1411 O 0.58012 0.38743 1.02159
 O1412 O 0.60620 0.36122 1.02161
 C1413 C 0.58799 0.36918 1.02927
 C1414 C 0.57615 0.35748 1.04772
 C1415 C 0.58393 0.33673 1.05574
 H1416 H 0.59829 0.32873 1.04799
 O1417 O 0.41801 0.52107 1.11143
 O1418 O 0.39187 0.52105 1.13758
 C1419 C 0.41006 0.52874 1.12965
 C1420 C 0.42182 0.54720 1.14134
 C1421 C 0.41384 0.55541 1.16195
 H1422 H 0.39938 0.54780 1.16988
 O1423 O 0.57970 0.47700 1.11192
 O1424 O 0.60575 0.47698 1.13811
 C1425 C 0.58758 0.46932 1.13016
 C1426 C 0.57576 0.45089 1.14187
 C1427 C 0.58352 0.44284 1.16260
 H1428 H 0.59786 0.45056 1.17060
 O1429 O 0.52113 0.38737 1.08092
 O1430 O 0.52113 0.36112 1.10698
 C1431 C 0.52881 0.36913 1.08877
 C1432 C 0.54722 0.35746 1.07686
 C1433 C 0.55527 0.33671 1.08459
 H1434 H 0.54759 0.32868 1.09899
 O1435 O 0.47717 0.61080 1.08089
 O1436 O 0.47710 0.63698 1.10700
 C1437 C 0.46947 0.62902 1.08878
 C1438 C 0.45099 0.64067 1.07701
 C1439 C 0.44262 0.66112 1.08516
 H1440 H 0.45016 0.66896 1.09971
 O1441 O 0.38753 0.58029 1.02164
 O1442 O 0.36126 0.60630 1.02163
 C1443 C 0.36923 0.58806 1.02925
 C1444 C 0.35744 0.57601 1.04749
 C1445 C 0.33643 0.58339 1.05514
 H1446 H 0.32831 0.59761 1.04726
 O1447 O 0.61063 0.41823 1.02167
 O1448 O 0.63681 0.39213 1.02174
 C1449 C 0.62880 0.41032 1.02943
 C1450 C 0.64032 0.42205 1.04801
 C1451 C 0.66072 0.41391 1.05643
 H1452 H 0.66862 0.39938 1.04888
 O1453 O 0.47727 0.41798 1.11149
 O1454 O 0.47713 0.39186 1.13769
 C1455 C 0.46952 0.41010 1.12970
 C1456 C 0.45110 0.42202 1.14135
 C1457 C 0.44303 0.41431 1.16211
 H1458 H 0.45068 0.39991 1.17015
 O1459 O 0.52071 0.58003 1.11173
 O1460 O 0.52065 0.60607 1.13797
 C1461 C 0.52829 0.58784 1.13003
 C1462 C 0.54657 0.57589 1.14180
 C1463 C 0.55454 0.58364 1.16255
 H1464 H 0.54689 0.59808 1.17051
 O1465 O 0.38767 0.47723 1.08064
 O1466 O 0.36144 0.47712 1.10670
 C1467 C 0.36948 0.46948 1.08850
 C1468 C 0.35792 0.45100 1.07666
 C1469 C 0.33720 0.44299 1.08441
 H1470 H 0.32913 0.45075 1.09873
 O1471 O 0.61017 0.52087 1.08118
 O1472 O 0.63630 0.52093 1.10728
 C1473 C 0.62831 0.52863 1.08909
 C1474 C 0.63983 0.54724 1.07735
 C1475 C 0.65996 0.55600 1.08578
 H1476 H 0.66767 0.54869 1.10052
 O1477 O 0.41870 0.38715 1.02166
 O1478 O 0.39269 0.36092 1.02163
 C1479 C 0.41088 0.36887 1.02928
 C1480 C 0.42280 0.35709 1.04759
 C1481 C 0.41543 0.33605 1.05519
 H1482 H 0.40130 0.32790 1.04724
 O1483 O 0.57974 0.61072 1.02168
 O1484 O 0.60583 0.63687 1.02167
 C1485 C 0.58766 0.62892 1.02939
 C1486 C 0.57599 0.64051 1.04800
 C1487 C 0.58433 0.66079 1.05657
 H1488 H 0.59893 0.66857 1.04906
 Cu1489 Cu 0.59232 0.49892 1.09392
 Cu1490 Cu 0.62366 0.49893 1.12529
 Cu1491 Cu 0.40546 0.49917 1.09341
 Cu1492 Cu 0.37402 0.49907 1.12475
 Cu1493 Cu 0.49897 0.59280 1.09366
 Cu1494 Cu 0.49889 0.62416 1.12509
 Cu1495 Cu 0.49921 0.40520 1.09369
 Cu1496 Cu 0.49913 0.37376 1.12506
 C1497 C 0.55701 0.55729 1.13172
 H1498 H 0.55119 0.55144 1.11556
 C1499 C 0.57272 0.57309 1.17294
 C1500 C 0.44070 0.44060 1.13118
 H1501 H 0.44660 0.44645 1.11502
 C1502 C 0.42478 0.42486 1.17240
 C1503 C 0.55724 0.63062 1.05828
 H1504 H 0.55094 0.61480 1.05201
 C1505 C 0.57426 0.67085 1.07521
 C1506 C 0.44107 0.36736 1.05831
 H1507 H 0.44664 0.38372 1.05274
 C1508 C 0.42603 0.32557 1.07330
 C1509 C 0.63002 0.55731 1.05841
 H1510 H 0.61430 0.55090 1.05203
 C1511 C 0.66995 0.57462 1.07560
 C1512 C 0.36812 0.44045 1.05819
 H1513 H 0.38425 0.44632 1.05233
 C1514 C 0.32696 0.42466 1.07400
 C1515 C 0.44046 0.55756 1.13131
 H1516 H 0.44651 0.55155 1.11526
 C1517 C 0.42420 0.57376 1.17220
 C1518 C 0.55727 0.44041 1.13175
 H1519 H 0.55140 0.44631 1.11561
 C1520 C 0.57311 0.42452 1.17291
 C1521 C 0.63028 0.44073 1.05835
 H1522 H 0.61436 0.44688 1.05219
 C1523 C 0.67079 0.42412 1.07496
 C1524 C 0.36768 0.55761 1.05813
 H1525 H 0.38401 0.55202 1.05252
 C1526 C 0.32596 0.57269 1.07322
 C1527 C 0.44068 0.63071 1.05831
 H1528 H 0.44681 0.61476 1.05215
 C1529 C 0.42417 0.67131 1.07493
 C1530 C 0.55764 0.36760 1.05826
 H1531 H 0.55175 0.38375 1.05240
 C1532 C 0.57352 0.32640 1.07406
 O1533 O 0.58012 0.47730 0.88788
 O1534 O 0.60615 0.47738 0.86160
 C1535 C 0.58794 0.46973 0.86956
 C1536 C 0.57597 0.45151 0.85773
 C1537 C 0.58335 0.44394 0.83668
 H1538 H 0.59755 0.45184 0.82855
 O1539 O 0.41839 0.52110 0.88793
 O1540 O 0.39225 0.52112 0.86184
 C1541 C 0.41044 0.52880 0.86973
 C1542 C 0.42220 0.54728 0.85802
 C1543 C 0.41440 0.55532 0.83730
 H1544 H 0.40007 0.54758 0.82930
 O1545 O 0.47714 0.61102 0.91872
 O1546 O 0.47722 0.63729 0.89266
 C1547 C 0.46956 0.62933 0.91090
 C1548 C 0.45127 0.64111 0.92288
 C1549 C 0.44352 0.66206 0.91538
 H1550 H 0.45134 0.67017 0.90111
 O1551 O 0.52137 0.38760 0.91842
 O1552 O 0.52153 0.36143 0.89231
 C1553 C 0.52915 0.36942 0.91051
 C1554 C 0.54763 0.35782 0.92234
 C1555 C 0.55594 0.33725 0.91440
 H1556 H 0.54841 0.32931 0.89991
 O1557 O 0.61090 0.41819 0.97787
 O1558 O 0.63711 0.39212 0.97789
 C1559 C 0.62913 0.41032 0.97019
 C1560 C 0.64077 0.42213 0.95168
 C1561 C 0.66139 0.41424 0.94349
 H1562 H 0.66938 0.39983 0.95117
 O1563 O 0.38774 0.58029 0.97793
 O1564 O 0.36150 0.60633 0.97787
 C1565 C 0.36950 0.58810 0.97026
 C1566 C 0.35781 0.57609 0.95198
 C1567 C 0.33679 0.58343 0.94436
 H1568 H 0.32861 0.59761 0.95225
 O1569 O 0.52072 0.58012 0.88801
 O1570 O 0.52079 0.60617 0.86174
 C1571 C 0.52839 0.58793 0.86973
 C1572 C 0.54671 0.57595 0.85801
 C1573 C 0.55444 0.58341 0.83703
 H1574 H 0.54658 0.59764 0.82889
 O1575 O 0.47743 0.41808 0.88789
 O1576 O 0.47742 0.39199 0.86170
 C1577 C 0.46973 0.41018 0.86969
 C1578 C 0.45126 0.42202 0.85808
 C1579 C 0.44312 0.41420 0.83741
 H1580 H 0.45077 0.39978 0.82940
 O1581 O 0.61071 0.52093 0.91867
 O1582 O 0.63688 0.52107 0.89255
 C1583 C 0.62890 0.52866 0.91080
 C1584 C 0.64051 0.54706 0.92272
 C1585 C 0.66117 0.55522 0.91491
 H1586 H 0.66919 0.54760 0.90048
 O1587 O 0.38798 0.47734 0.91885
 O1588 O 0.36171 0.47729 0.89288
 C1589 C 0.36975 0.46965 0.91107
 C1590 C 0.35812 0.45125 0.92302
 C1591 C 0.33730 0.44340 0.91545
 H1592 H 0.32921 0.45122 0.90118
 O1593 O 0.57973 0.61061 0.97787
 O1594 O 0.60582 0.63674 0.97784
 C1595 C 0.58765 0.62880 0.97016
 C1596 C 0.57596 0.64046 0.95161
 C1597 C 0.58409 0.66095 0.94330
 H1598 H 0.59858 0.66879 0.95092
 O1599 O 0.41876 0.38720 0.97792
 O1600 O 0.39274 0.36098 0.97785
 C1601 C 0.41096 0.36895 0.97024
 C1602 C 0.42295 0.35722 0.95192
 C1603 C 0.41556 0.33624 0.94421
 H1604 H 0.40135 0.32810 0.95208
 O1605 O 0.41848 0.47732 0.88800
 O1606 O 0.39234 0.47728 0.86191
 C1607 C 0.41055 0.46961 0.86982
 C1608 C 0.42233 0.45111 0.85814
 C1609 C 0.41445 0.44302 0.83748
 H1610 H 0.40005 0.45073 0.82954
 O1611 O 0.57999 0.52100 0.88807
 O1612 O 0.60603 0.52112 0.86181
 C1613 C 0.58779 0.52870 0.86980
 C1614 C 0.57579 0.54699 0.85806
 C1615 C 0.58324 0.55472 0.83708
 H1616 H 0.59750 0.54690 0.82897
 O1617 O 0.47771 0.38738 0.91861
 O1618 O 0.47779 0.36114 0.89257
 C1619 C 0.47016 0.36907 0.91083
 C1620 C 0.45194 0.35726 0.92286
 C1621 C 0.44429 0.33628 0.91542
 H1622 H 0.45216 0.32818 0.90117
 O1623 O 0.52083 0.61086 0.91862
 O1624 O 0.52098 0.63705 0.89248
 C1625 C 0.52860 0.62904 0.91070
 C1626 C 0.54710 0.64059 0.92250
 C1627 C 0.55551 0.66107 0.91446
 H1628 H 0.54803 0.66901 0.89991
 O1629 O 0.38813 0.41797 0.97796
 O1630 O 0.36197 0.39190 0.97789
 C1631 C 0.36992 0.41014 0.97028
 C1632 C 0.35821 0.42212 0.95196
 C1633 C 0.33739 0.41453 0.94412
 H1634 H 0.32936 0.40019 0.95188
 O1635 O 0.61044 0.57993 0.97795
 O1636 O 0.63663 0.60597 0.97796
 C1637 C 0.62868 0.58778 0.97029
 C1638 C 0.64039 0.57597 0.95184
 C1639 C 0.66103 0.58387 0.94376
 H1640 H 0.66894 0.59828 0.95147
 O1641 O 0.52110 0.41829 0.88772
 O1642 O 0.52117 0.39226 0.86145
 C1643 C 0.52873 0.41051 0.86941
 C1644 C 0.54697 0.42253 0.85764
 C1645 C 0.55462 0.41521 0.83659
 H1646 H 0.54676 0.40103 0.82842
 O1647 O 0.47705 0.58039 0.88796
 O1648 O 0.47705 0.60650 0.86175
 C1649 C 0.46940 0.58828 0.86972
 C1650 C 0.45103 0.57641 0.85803
 C1651 C 0.44299 0.58419 0.83730
 H1652 H 0.45063 0.59861 0.82930
 O1653 O 0.38788 0.52108 0.91880
 O1654 O 0.36160 0.52105 0.89285
 C1655 C 0.36960 0.52870 0.91104
 C1656 C 0.35786 0.54702 0.92302
 C1657 C 0.33685 0.55463 0.91565
 H1658 H 0.32873 0.54671 0.90147
 O1659 O 0.61074 0.47717 0.91861
 O1660 O 0.63690 0.47723 0.89247
 C1661 C 0.62896 0.46952 0.91070
 C1662 C 0.64066 0.45107 0.92253
 C1663 C 0.66129 0.44292 0.91462
 H1664 H 0.66921 0.45056 0.90014
 O1665 O 0.58018 0.38761 0.97778
 O1666 O 0.60629 0.36143 0.97777
 C1667 C 0.58813 0.36942 0.97006
 C1668 C 0.57645 0.35782 0.95150
 C1669 C 0.58449 0.33726 0.94328
 H1670 H 0.59892 0.32933 0.95095
 O1671 O 0.41824 0.61113 0.97799
 O1672 O 0.39215 0.63732 0.97797
 C1673 C 0.41038 0.62938 0.97033
 C1674 C 0.42230 0.64113 0.95197
 C1675 C 0.41479 0.66207 0.94419
 H1676 H 0.40055 0.67017 0.95204
 Cu1677 Cu 0.59280 0.49908 0.90594
 Cu1678 Cu 0.62413 0.49921 0.87449
 Cu1679 Cu 0.40581 0.49922 0.90599
 Cu1680 Cu 0.37435 0.49919 0.87474
 Cu1681 Cu 0.59241 0.59267 0.99980
 Cu1682 Cu 0.62379 0.62401 0.99979
 Cu1683 Cu 0.59285 0.40548 0.99973
 Cu1684 Cu 0.62423 0.37410 0.99976
 Cu1685 Cu 0.40555 0.59307 0.99983
 Cu1686 Cu 0.37412 0.62441 0.99982
 Cu1687 Cu 0.40601 0.40515 0.99981
 Cu1688 Cu 0.37469 0.37376 0.99976
 Cu1689 Cu 0.49891 0.59299 0.90594
 Cu1690 Cu 0.49901 0.62439 0.87453
 Cu1691 Cu 0.49939 0.40545 0.90577
 Cu1692 Cu 0.49948 0.37407 0.87437
 C1693 C 0.55762 0.44084 0.86797
 H1694 H 0.55202 0.44637 0.88434
 C1695 C 0.57270 0.42591 0.82616
 C1696 C 0.44066 0.55781 0.86814
 H1697 H 0.44656 0.55191 0.88427
 C1698 C 0.42478 0.57366 0.82698
 C1699 C 0.44068 0.63089 0.94133
 H1700 H 0.44635 0.61460 0.94701
 C1701 C 0.42539 0.67249 0.92602
 C1702 C 0.55788 0.36787 0.94103
 H1703 H 0.55180 0.38389 0.94705
 C1704 C 0.57427 0.32704 0.92484
 C1705 C 0.63065 0.44069 0.94121
 H1706 H 0.61460 0.44667 0.94722
 C1707 C 0.67161 0.42462 0.92507
 C1708 C 0.36810 0.55773 0.94134
 H1709 H 0.38444 0.55215 0.94692
 C1710 C 0.32636 0.57271 0.92631
 C1711 C 0.55736 0.55758 0.86828
 H1712 H 0.55172 0.55193 0.88461
 C1713 C 0.57258 0.57281 0.82661
 C1714 C 0.44088 0.44062 0.86819
 H1715 H 0.44684 0.44655 0.88428
 C1716 C 0.42482 0.42468 0.82717
 C1717 C 0.63037 0.55742 0.94134
 H1718 H 0.61429 0.55145 0.94724
 C1719 C 0.67136 0.57353 0.92541
 C1720 C 0.36834 0.44064 0.94143
 H1721 H 0.38455 0.44640 0.94717
 C1722 C 0.32699 0.42515 0.92598
 C1723 C 0.55732 0.63053 0.94123
 H1724 H 0.55117 0.61456 0.94732
 C1725 C 0.57391 0.67119 0.92483
 C1726 C 0.44130 0.36748 0.94127
 H1727 H 0.44690 0.38380 0.94691
 C1728 C 0.42622 0.32581 0.92608
 C1729 C 1.09910 1.09885 1.23239
 C1730 C 1.09349 1.12093 1.23911
 C1731 C 1.10279 1.13000 1.25907
 C1732 C 1.11764 1.11695 1.27221
 C1733 C 1.12302 1.09477 1.26564
 C1734 C 1.11372 1.08570 1.24568
 C1735 C 1.11940 1.06352 1.23942
 C1736 C 1.13384 1.05066 1.25252
 C1737 C 1.14293 1.05953 1.27204
 C1738 C 1.13764 1.08132 1.27861
 C1739 C 1.09699 1.15214 1.26540
 C1740 C 1.08243 1.16494 1.25238
 C1741 C 1.07334 1.15607 1.23287
 C1742 C 1.07875 1.13433 1.22622
 C1743 C 1.12761 1.12647 1.29227
 C1744 C 1.13595 1.13457 1.30880
 C1745 C 1.09016 1.08986 1.21161
 C1746 C 1.08292 1.08259 1.19420
 H1747 H 1.11274 1.05587 1.22439
 H1748 H 1.13799 1.03371 1.24750
 H1749 H 1.15414 1.04947 1.28216
 H1750 H 1.14512 1.08748 1.29394
 H1751 H 1.10361 1.15978 1.28045
 H1752 H 1.07817 1.18184 1.25748
 H1753 H 1.06203 1.16608 1.22282
 H1754 H 1.07123 1.12816 1.21092
 C1755 C 1.09572 0.59626 0.73422
 C1756 C 1.11121 0.58349 0.74688
 C1757 C 1.11985 0.59217 0.76731
 C1758 C 1.11295 0.61357 0.77495
 C1759 C 1.09716 0.62617 0.76249
 C1760 C 1.08852 0.61749 0.74207
 C1761 C 1.07282 0.63042 0.72986
 C1762 C 1.06584 0.65133 0.73761
 C1763 C 1.07430 0.65982 0.75758
 C1764 C 1.08978 0.64746 0.76994
 C1765 C 1.13538 0.57914 0.77963
 C1766 C 1.14216 0.55812 0.77200
 C1767 C 1.13370 0.54963 0.75202
 C1768 C 1.11841 0.56210 0.73953
 C1769 C 1.12244 0.62285 0.79534
 C1770 C 1.13048 0.63076 0.81209
 C1771 C 1.08754 0.58780 0.71294
 C1772 C 1.08088 0.58099 0.69513
 H1773 H 1.06574 0.62453 0.71424
 H1774 H 1.05381 0.66100 0.72808
 H1775 H 1.06883 0.67607 0.76354
 H1776 H 1.09585 0.65477 0.78539
 H1777 H 1.14240 0.58502 0.79527
 H1778 H 1.15403 0.54836 0.78164
 H1779 H 1.13901 0.53328 0.74617
 H1780 H 1.11229 0.55478 0.72411
 C1781 C 0.60071 1.09970 0.73089
 C1782 C 0.58677 1.10454 0.74949
 C1783 C 0.59620 1.11357 0.76941
 C1784 C 0.61951 1.11771 0.77060
 C1785 C 0.63347 1.11274 0.75204
 C1786 C 0.62404 1.10371 0.73212
 C1787 C 0.63832 1.09894 0.71376
 C1788 C 0.66126 1.10298 0.71504
 C1789 C 0.67048 1.11180 0.73452
 C1790 C 0.65683 1.11666 0.75285
 C1791 C 0.58193 1.11830 0.78778
 C1792 C 0.55899 1.11425 0.78650
 C1793 C 0.54977 1.10544 0.76701
 C1794 C 0.56342 1.10061 0.74866
 C1795 C 0.62913 1.12731 0.79078
 C1796 C 0.63727 1.13542 0.80739
 C1797 C 0.59110 1.09076 0.71041
 C1798 C 0.58341 1.08343 0.69324
 H1799 H 0.63195 1.09206 0.69825
 H1800 H 0.67193 1.09924 0.70084
 H1801 H 0.68831 1.11490 0.73543
 H1802 H 0.66479 1.12349 0.76763
 H1803 H 0.58833 1.12517 0.80329
 H1804 H 0.54832 1.11796 0.80070
 H1805 H 0.53195 1.10232 0.76610
 H1806 H 0.55548 1.09377 0.73387
 C1807 C 0.59803 0.59871 1.23134
 C1808 C 0.60494 0.58433 1.24892
 C1809 C 0.61437 0.59352 1.26877
 C1810 C 0.61683 0.61704 1.27090
 C1811 C 0.60978 0.63142 1.25337
 C1812 C 0.60035 0.62223 1.23353
 C1813 C 0.59346 0.63695 1.21621
 C1814 C 0.59585 0.66008 1.21842
 C1815 C 0.60507 0.66907 1.23781
 C1816 C 0.61199 0.65499 1.25514
 C1817 C 0.62121 0.57882 1.28610
 C1818 C 0.61879 0.55568 1.28390
 C1819 C 0.60957 0.54669 1.26449
 C1820 C 0.60270 0.56077 1.24715
 C1821 C 0.62675 0.62647 1.29102
 C1822 C 0.63503 0.63450 1.30760
 C1823 C 0.58884 0.58934 1.21086
 C1824 C 0.58138 0.58179 1.19368
 H1825 H 0.58617 0.63076 1.20081
 H1826 H 0.59050 0.67109 1.20501
 H1827 H 0.60689 0.68705 1.23945
 H1828 H 0.61906 0.66279 1.26990
 H1829 H 0.62847 0.58502 1.30151
 H1830 H 0.62410 0.54467 1.29732
 H1831 H 0.60773 0.52871 1.26286
 H1832 H 0.59562 0.55299 1.23238
 C1833 C 0.90273 0.90253 1.23312
 C1834 C 0.89640 0.87969 1.23439
 C1835 C 0.88764 0.87088 1.25475
 C1836 C 0.88528 0.88496 1.27372
 C1837 C 0.89168 0.90779 1.27247
 C1838 C 0.90043 0.91659 1.25210
 C1839 C 0.90667 0.93947 1.25124
 C1840 C 0.90433 0.95325 1.26995
 C1841 C 0.89579 0.94464 1.28987
 C1842 C 0.88951 0.92218 1.29121
 C1843 C 0.88136 0.84801 1.25559
 C1844 C 0.88367 0.83424 1.23686
 C1845 C 0.89223 0.84284 1.21696
 C1846 C 0.89856 0.86529 1.21564
 C1847 C 0.87609 0.87597 1.29441
 C1848 C 0.86833 0.86827 1.31143
 C1849 C 0.91143 0.91152 1.21223
 C1850 C 0.91852 0.91874 1.19472
 H1851 H 0.91341 0.94693 1.23612
 H1852 H 0.90917 0.97072 1.26900
 H1853 H 0.89400 0.95542 1.30436
 H1854 H 0.88294 0.91625 1.30706
 H1855 H 0.87462 0.84053 1.27068
 H1856 H 0.87878 0.81679 1.23780
 H1857 H 0.89399 0.83208 1.20245
 H1858 H 0.90514 0.87119 1.19979
 C1859 C 0.89904 0.40019 0.73073
 C1860 C 0.87557 0.39730 0.73257
 C1861 C 0.86623 0.38819 0.75253
 C1862 C 0.88041 0.38204 0.77055
 C1863 C 0.90387 0.38500 0.76872
 C1864 C 0.91320 0.39411 0.74876
 C1865 C 0.93670 0.39688 0.74731
 C1866 C 0.95057 0.39083 0.76509
 C1867 C 0.94145 0.38193 0.78461
 C1868 C 0.91838 0.37901 0.78650
 C1869 C 0.84274 0.38540 0.75395
 C1870 C 0.82887 0.39144 0.73616
 C1871 C 0.83800 0.40035 0.71665
 C1872 C 0.86107 0.40329 0.71478
 C1873 C 0.87089 0.37256 0.79088
 C1874 C 0.86298 0.36461 0.80772
 C1875 C 0.90857 0.40926 0.71023
 C1876 C 0.91633 0.41670 0.69310
 H1877 H 0.94458 0.40374 0.73247
 H1878 H 0.96850 0.39307 0.76371
 H1879 H 0.95230 0.37726 0.79837
 H1880 H 0.91208 0.37202 0.80202
 H1881 H 0.83485 0.37854 0.76879
 H1882 H 0.81094 0.38918 0.73752
 H1883 H 0.82716 0.40501 0.70288
 H1884 H 0.86737 0.41030 0.69927
 C1885 C 0.39992 0.90083 0.73063
 C1886 C 0.37639 0.89916 0.73303
 C1887 C 0.36708 0.89006 0.75301
 C1888 C 0.38136 0.88268 0.77047
 C1889 C 0.40489 0.88441 0.76809
 C1890 C 0.41420 0.89350 0.74811
 C1891 C 0.43776 0.89501 0.74609
 C1892 C 0.45174 0.88773 0.76333
 C1893 C 0.44264 0.87885 0.78287
 C1894 C 0.41950 0.87717 0.78532
 C1895 C 0.34351 0.88852 0.75500
 C1896 C 0.32954 0.89575 0.73774
 C1897 C 0.33864 0.90464 0.71821
 C1898 C 0.36178 0.90638 0.71579
 C1899 C 0.37185 0.87318 0.79080
 C1900 C 0.36395 0.86522 0.80763
 C1901 C 0.40942 0.90990 0.71011
 C1902 C 0.41712 0.91734 0.69295
 H1903 H 0.44563 0.90180 0.73121
 H1904 H 0.46973 0.88900 0.76150
 H1905 H 0.45357 0.87322 0.79621
 H1906 H 0.41322 0.87014 0.80083
 H1907 H 0.33563 0.88173 0.76988
 H1908 H 0.31155 0.89444 0.73954
 H1909 H 0.32772 0.91022 0.70485
 H1910 H 0.36806 0.91342 0.70028
 C1911 C 0.39914 0.40030 1.23120
 C1912 C 0.37570 0.39744 1.23327
 C1913 C 0.36652 0.38858 1.25341
 C1914 C 0.38085 0.38265 1.27137
 C1915 C 0.40429 0.38559 1.26933
 C1916 C 0.41346 0.39445 1.24918
 C1917 C 0.43694 0.39721 1.24752
 C1918 C 0.45096 0.39139 1.26526
 C1919 C 0.44199 0.38273 1.28496
 C1920 C 0.41894 0.37982 1.28707
 C1921 C 0.34304 0.38582 1.25507
 C1922 C 0.32902 0.39164 1.23733
 C1923 C 0.33798 0.40031 1.21763
 C1924 C 0.36104 0.40322 1.21553
 C1925 C 0.37150 0.37333 1.29184
 C1926 C 0.36370 0.36548 1.30876
 C1927 C 0.40850 0.40911 1.21051
 C1928 C 0.41608 0.41633 1.19322
 H1929 H 0.44470 0.40388 1.23253
 H1930 H 0.46888 0.39361 1.26371
 H1931 H 0.45296 0.37823 1.29869
 H1932 H 0.41276 0.37303 1.30273
 H1933 H 0.33527 0.37915 1.27006
 H1934 H 0.31110 0.38941 1.23888
 H1935 H 0.32702 0.40480 1.20390
 H1936 H 0.36721 0.41003 1.19987
 C1937 C 0.89929 1.10075 0.76933
 C1938 C 0.91330 1.10591 0.75087
 C1939 C 0.90388 1.11483 0.73088
 C1940 C 0.88050 1.11856 0.72947
 C1941 C 0.86648 1.11335 0.74792
 C1942 C 0.87590 1.10443 0.76791
 C1943 C 0.86156 1.09942 0.78616
 C1944 C 0.83856 1.10310 0.78470
 C1945 C 0.82935 1.11181 0.76515
 C1946 C 0.84306 1.11690 0.74692
 C1947 C 0.91823 1.11985 0.71265
 C1948 C 0.94122 1.11618 0.71413
 C1949 C 0.95043 1.10748 0.73368
 C1950 C 0.93671 1.10237 0.75190
 C1951 C 0.87091 1.12794 0.70915
 C1952 C 0.86295 1.13586 0.69234
 C1953 C 0.90889 1.09174 0.78980
 C1954 C 0.91664 1.08429 0.80691
 H1955 H 0.86793 1.09262 0.80173
 H1956 H 0.82785 1.09919 0.79881
 H1957 H 0.81148 1.11463 0.76409
 H1958 H 0.83511 1.12363 0.73207
 H1959 H 0.91185 1.12665 0.69708
 H1960 H 0.95195 1.12012 0.70002
 H1961 H 0.96831 1.10466 0.73475
 H1962 H 0.94465 1.09564 0.76675
 C1963 C 0.89643 0.60338 0.27261
 C1964 C 0.87341 0.60909 0.27307
 C1965 C 0.86324 0.61890 0.25389
 C1966 C 0.87616 0.62294 0.23437
 C1967 C 0.89917 0.61722 0.23391
 C1968 C 0.90933 0.60740 0.25310
 C1969 C 0.93236 0.60183 0.25227
 C1970 C 0.94500 0.60585 0.23302
 C1971 C 0.93507 0.61547 0.21426
 C1972 C 0.91243 0.62112 0.21461
 C1973 C 0.84022 0.62450 0.25475
 C1974 C 0.82761 0.62053 0.27403
 C1975 C 0.83756 0.61095 0.29280
 C1976 C 0.86018 0.60525 0.29241
 C1977 C 0.86581 0.63303 0.21479
 C1978 C 0.85730 0.64143 0.19850
 C1979 C 0.90681 0.59353 0.29228
 C1980 C 0.91520 0.58546 0.30879
 H1981 H 0.94084 0.59432 0.26644
 H1982 H 0.96259 0.60149 0.23267
 H1983 H 0.94496 0.61857 0.19936
 H1984 H 0.90547 0.62857 0.19960
 H1985 H 0.83173 0.63200 0.24058
 H1986 H 0.81002 0.62493 0.27442
 H1987 H 0.82771 0.60794 0.30774
 H1988 H 0.86715 0.59782 0.30743
 C1989 C 0.40246 1.09775 0.26652
 C1990 C 0.41226 1.11672 0.25615
 C1991 C 0.40305 1.12536 0.23593
 C1992 C 0.38408 1.11499 0.22621
 C1993 C 0.37444 1.09585 0.23645
 C1994 C 0.38365 1.08722 0.25666
 C1995 C 0.37367 1.06813 0.26663
 C1996 C 0.35514 1.05785 0.25689
 C1997 C 0.34614 1.06629 0.23712
 C1998 C 0.35561 1.08507 0.22694
 C1999 C 0.41311 1.14438 0.22591
 C2000 C 0.43173 1.15457 0.23557
 C2001 C 0.44073 1.14613 0.25534
 C2002 C 0.43117 1.12743 0.26559
 C2003 C 0.37428 1.12422 0.20592
 C2004 C 0.36610 1.13210 0.18919
 C2005 C 0.41144 1.08933 0.28753
 C2006 C 0.41866 1.08243 0.30510
 H2007 H 0.38008 1.06092 0.28200
 H2008 H 0.34772 1.04326 0.26473
 H2009 H 0.33175 1.05824 0.22962
 H2010 H 0.34803 1.09100 0.21157
 H2011 H 0.40673 1.15155 0.21051
 H2012 H 0.43922 1.16909 0.22767
 H2013 H 0.45519 1.15411 0.26279
 H2014 H 0.43878 1.12147 0.28094
 C2015 C 0.39942 0.59885 0.76834
 C2016 C 0.40985 0.59418 0.74752
 C2017 C 0.40087 0.60326 0.72739
 C2018 C 0.38151 0.61696 0.72820
 C2019 C 0.37103 0.62156 0.74902
 C2020 C 0.38001 0.61248 0.76914
 C2021 C 0.36923 0.61732 0.78974
 C2022 C 0.35013 0.63074 0.79044
 C2023 C 0.34136 0.63962 0.77077
 C2024 C 0.35161 0.63514 0.75025
 C2025 C 0.41158 0.59834 0.70678
 C2026 C 0.43062 0.58484 0.70608
 C2027 C 0.43941 0.57598 0.72576
 C2028 C 0.42922 0.58054 0.74629
 C2029 C 0.37240 0.62640 0.70769
 C2030 C 0.36469 0.63436 0.69078
 C2031 C 0.40864 0.58972 0.78894
 C2032 C 0.41612 0.58230 0.80619
 H2033 H 0.37542 0.61081 0.80550
 H2034 H 0.34210 0.63426 0.80634
 H2035 H 0.32652 0.65003 0.77140
 H2036 H 0.34415 0.64243 0.73541
 H2037 H 0.40536 0.60485 0.69103
 H2038 H 0.43860 0.58124 0.69017
 H2039 H 0.45421 0.56550 0.72512
 H2040 H 0.43667 0.57326 0.76114
 C2041 C 1.09817 0.90177 0.76714
 C2042 C 1.09375 0.87923 0.76117
 C2043 C 1.10307 0.87016 0.74119
 C2044 C 1.11677 0.88369 0.72729
 C2045 C 1.12090 0.90634 0.73307
 C2046 C 1.11157 0.91540 0.75306
 C2047 C 1.11600 0.93806 0.75853
 C2048 C 1.12923 0.95140 0.74464
 C2049 C 1.13835 0.94253 0.72510
 C2050 C 1.13430 0.92027 0.71931
 C2051 C 1.09848 0.84756 0.73561
 C2052 C 1.08504 0.83430 0.74937
 C2053 C 1.07592 0.84316 0.76891
 C2054 C 1.08017 0.86536 0.77483
 C2055 C 1.12686 0.87420 0.70726
 C2056 C 1.13534 0.86615 0.69076
 C2057 C 1.08931 0.91076 0.78797
 C2058 C 1.08214 0.91801 0.80543
 H2059 H 1.10925 0.94572 0.77354
 H2060 H 1.13243 0.96870 0.74906
 H2061 H 1.14862 0.95296 0.71436
 H2062 H 1.14175 0.91413 0.70393
 H2063 H 1.10517 0.83991 0.72058
 H2064 H 1.08168 0.81706 0.74484
 H2065 H 1.06549 0.83279 0.77954
 H2066 H 1.07267 0.87149 0.79017
 C2067 C 1.09778 0.40182 0.26694
 C2068 C 1.09133 0.38015 0.25973
 C2069 C 1.10050 0.37106 0.23969
 C2070 C 1.11607 0.38369 0.22698
 C2071 C 1.12225 0.40550 0.23400
 C2072 C 1.11308 0.41459 0.25405
 C2073 C 1.11958 0.43639 0.26078
 C2074 C 1.13468 0.44886 0.24805
 C2075 C 1.14364 0.43998 0.22845
 C2076 C 1.13757 0.41855 0.22143
 C2077 C 1.09385 0.34934 0.23286
 C2078 C 1.07858 0.33695 0.24547
 C2079 C 1.06963 0.34583 0.26507
 C2080 C 1.07587 0.36718 0.27220
 C2081 C 1.12602 0.37407 0.20693
 C2082 C 1.13439 0.36592 0.19043
 C2083 C 1.08903 0.41076 0.28784
 C2084 C 1.08193 0.41798 0.30534
 H2085 H 1.11304 0.44403 0.27589
 H2086 H 1.13946 0.46552 0.25344
 H2087 H 1.15537 0.44974 0.21862
 H2088 H 1.14497 0.41237 0.20605
 H2089 H 1.10034 0.34171 0.21772
 H2090 H 1.07368 0.32036 0.24000
 H2091 H 1.05777 0.33614 0.27481
 H2092 H 1.06842 0.37337 0.28755
 C2093 C 0.60075 0.89894 0.26925
 C2094 C 0.61363 0.91224 0.25440
 C2095 C 0.62326 0.90242 0.23492
 C2096 C 0.61995 0.87935 0.23041
 C2097 C 0.60690 0.86609 0.24516
 C2098 C 0.59726 0.87591 0.26464
 C2099 C 0.58432 0.86231 0.27916
 C2100 C 0.58100 0.83965 0.27458
 C2101 C 0.59043 0.83004 0.25555
 C2102 C 0.60324 0.84303 0.24095
 C2103 C 0.63612 0.91605 0.22035
 C2104 C 0.63936 0.93874 0.22489
 C2105 C 0.62995 0.94834 0.24393
 C2106 C 0.61722 0.93532 0.25858
 C2107 C 0.63014 0.86920 0.21076
 C2108 C 0.63867 0.86070 0.19451
 C2109 C 0.59146 0.90877 0.28950
 C2110 C 0.58388 0.91664 0.30651
 H2111 H 0.57662 0.86901 0.29416
 H2112 H 0.57106 0.82949 0.28587
 H2113 H 0.58780 0.81243 0.25207
 H2114 H 0.61021 0.83479 0.22636
 H2115 H 0.64377 0.90935 0.20532
 H2116 H 0.64924 0.94892 0.21356
 H2117 H 0.63252 0.96596 0.24738
 H2118 H 0.61022 0.94355 0.27317
 C2119 C 0.59699 0.40212 0.76649
 C2120 C 0.61309 0.41465 0.75436
 C2121 C 0.62249 0.40575 0.73434
 C2122 C 0.61572 0.38438 0.72657
 C2123 C 0.59934 0.37202 0.73849
 C2124 C 0.58994 0.38092 0.75852
 C2125 C 0.57366 0.36821 0.77020
 C2126 C 0.56684 0.34732 0.76232
 C2127 C 0.57603 0.33862 0.74274
 C2128 C 0.59210 0.35074 0.73090
 C2129 C 0.63861 0.41855 0.72255
 C2130 C 0.64526 0.43955 0.73031
 C2131 C 0.63607 0.44825 0.74988
 C2132 C 0.62017 0.43602 0.76185
 C2133 C 0.62589 0.37491 0.70657
 C2134 C 0.63443 0.36687 0.69010
 C2135 C 0.58810 0.41077 0.78744
 C2136 C 0.58094 0.41777 0.80500
 H2137 H 0.56600 0.37429 0.78549
 H2138 H 0.55436 0.33783 0.77145
 H2139 H 0.57067 0.32238 0.73668
 H2140 H 0.59873 0.34327 0.71575
 H2141 H 0.64622 0.41249 0.70722
 H2142 H 0.65760 0.44912 0.72107
 H2143 H 0.64128 0.46457 0.75584
 H2144 H 0.61348 0.44351 0.77697
 C2145 C 1.23194 1.09877 1.09884
 C2146 C 1.24923 1.08401 1.10566
 C2147 C 1.26939 1.09278 1.11475
 C2148 C 1.27214 1.11626 1.11697
 C2149 C 1.25488 1.13102 1.11006
 C2150 C 1.23472 1.12225 1.10098
 C2151 C 1.21768 1.13733 1.09423
 C2152 C 1.22048 1.16042 1.09641
 C2153 C 1.24020 1.16900 1.10528
 C2154 C 1.25725 1.15455 1.11206
 C2155 C 1.28642 1.07770 1.12147
 C2156 C 1.28361 1.05461 1.11928
 C2157 C 1.26390 1.04603 1.11040
 C2158 C 1.24684 1.06049 1.10363
 C2159 C 1.29267 1.12524 1.12641
 C2160 C 1.30964 1.13283 1.13425
 C2161 C 1.21121 1.08982 1.08986
 C2162 C 1.19388 1.08252 1.08256
 H2163 H 1.20205 1.13147 1.08721
 H2164 H 1.20728 1.17172 1.09118
 H2165 H 1.24230 1.18695 1.10693
 H2166 H 1.27228 1.16203 1.11886
 H2167 H 1.30205 1.08357 1.12848
 H2168 H 1.29682 1.04331 1.12450
 H2169 H 1.26180 1.02808 1.10873
 H2170 H 1.23182 1.05302 1.09681
 C2171 C 1.23142 0.59979 0.59901
 C2172 C 1.24882 0.58541 0.60632
 C2173 C 1.26886 0.59465 0.61522
 C2174 C 1.27138 0.61821 0.61676
 C2175 C 1.25400 0.63259 0.60937
 C2176 C 1.23396 0.62335 0.60047
 C2177 C 1.21681 0.63806 0.59323
 C2178 C 1.21937 0.66124 0.59476
 C2179 C 1.23896 0.67026 0.60346
 C2180 C 1.25614 0.65619 0.61070
 C2181 C 1.28601 0.57993 0.62246
 C2182 C 1.28342 0.55676 0.62096
 C2183 C 1.26382 0.54774 0.61226
 C2184 C 1.24667 0.56182 0.60500
 C2185 C 1.29174 0.62764 0.62612
 C2186 C 1.30859 0.63548 0.63400
 C2187 C 1.21083 0.59038 0.59017
 C2188 C 1.19360 0.58279 0.58290
 H2189 H 1.20126 0.63185 0.58632
 H2190 H 1.20607 0.67224 0.58917
 H2191 H 1.24087 0.68828 0.60461
 H2192 H 1.27106 0.66401 0.61733
 H2193 H 1.30156 0.58615 0.62935
 H2194 H 1.29670 0.54575 0.62659
 H2195 H 1.26190 0.52972 0.61114
 H2196 H 1.23174 0.55400 0.59835
 C2197 C 0.73056 1.10116 0.60018
 C2198 C 0.74765 1.08666 0.60796
 C2199 C 0.76754 1.09574 0.61735
 C2200 C 0.77022 1.11928 0.61890
 C2201 C 0.75313 1.13379 0.61109
 C2202 C 0.73325 1.12470 0.60170
 C2203 C 0.71639 1.13954 0.59404
 C2204 C 0.71909 1.16269 0.59561
 C2205 C 0.73853 1.17158 0.60479
 C2206 C 0.75541 1.15737 0.61246
 C2207 C 0.78437 1.08090 0.62504
 C2208 C 0.78163 1.05774 0.62351
 C2209 C 0.76219 1.04887 0.61434
 C2210 C 0.74533 1.06307 0.60663
 C2211 C 0.79050 1.12857 0.62856
 C2212 C 0.80731 1.13634 0.63659
 C2213 C 0.71013 1.09189 0.59083
 C2214 C 0.69306 1.08429 0.58321
 H2215 H 0.70097 1.13344 0.58675
 H2216 H 0.70603 1.17380 0.58967
 H2217 H 0.74055 1.18957 0.60598
 H2218 H 0.77023 1.16509 0.61946
 H2219 H 0.79980 1.08700 0.63230
 H2220 H 0.79468 1.04663 0.62948
 H2221 H 0.76014 1.03087 0.61319
 H2222 H 0.73051 1.05537 0.59962
 C2223 C 0.72594 0.60292 1.10313
 C2224 C 0.74391 0.58934 1.11058
 C2225 C 0.76303 0.59942 1.12052
 C2226 C 0.76405 0.62302 1.12294
 C2227 C 0.74608 0.63660 1.11547
 C2228 C 0.72697 0.62652 1.10551
 C2229 C 0.70923 0.64043 1.09813
 C2230 C 0.71032 0.66365 1.10055
 C2231 C 0.72898 0.67350 1.11034
 C2232 C 0.74671 0.66022 1.11773
 C2233 C 0.78078 0.58550 1.12786
 C2234 C 0.77967 0.56229 1.12546
 C2235 C 0.76097 0.55243 1.11575
 C2236 C 0.74324 0.56572 1.10837
 C2237 C 0.78360 0.63329 1.13307
 C2238 C 0.79990 0.64171 1.14145
 C2239 C 0.70631 0.59262 1.09321
 C2240 C 0.68985 0.58426 1.08509
 H2241 H 0.69436 0.63356 1.09041
 H2242 H 0.69662 0.67404 1.09477
 H2243 H 0.72973 0.69154 1.11220
 H2244 H 0.76088 0.66867 1.12522
 H2245 H 0.79568 0.59238 1.13551
 H2246 H 0.79340 0.55190 1.13117
 H2247 H 0.76018 0.53439 1.11393
 H2248 H 0.72905 0.55727 1.10092
 C2249 C 1.23082 0.89991 0.90042
 C2250 C 1.23340 0.87637 0.89864
 C2251 C 1.25342 0.86726 0.88951
 C2252 C 1.27075 0.88173 0.88220
 C2253 C 1.26820 0.90527 0.88406
 C2254 C 1.24817 0.91439 0.89320
 C2255 C 1.24598 0.93797 0.89486
 C2256 C 1.26309 0.95214 0.88768
 C2257 C 1.28267 0.94323 0.87875
 C2258 C 1.28529 0.92007 0.87692
 C2259 C 1.25560 0.84367 0.88786
 C2260 C 1.23848 0.82950 0.89502
 C2261 C 1.21890 0.83842 0.90394
 C2262 C 1.21630 0.86157 0.90579
 C2263 C 1.29110 0.87240 0.87264
 C2264 C 1.30791 0.86456 0.86464
 C2265 C 1.21022 0.90921 0.90944
 C2266 C 1.19299 0.91675 0.91681
 H2267 H 1.23107 0.94569 0.90170
 H2268 H 1.26114 0.97013 0.88906
 H2269 H 1.29592 0.95431 0.87319
 H2270 H 1.30083 0.91394 0.86985
 H2271 H 1.27052 0.83594 0.88104
 H2272 H 1.24042 0.81151 0.89362
 H2273 H 1.20564 0.82733 0.90947
 H2274 H 1.20076 0.86769 0.91286
 C2275 C 1.23111 0.40051 0.40047
 C2276 C 1.23374 0.37697 0.39882
 C2277 C 1.25379 0.36785 0.38973
 C2278 C 1.27108 0.38234 0.38235
 C2279 C 1.26848 0.40588 0.38412
 C2280 C 1.24843 0.41499 0.39321
 C2281 C 1.24620 0.43857 0.39477
 C2282 C 1.26329 0.45275 0.38757
 C2283 C 1.28290 0.44384 0.37868
 C2284 C 1.28555 0.42069 0.37693
 C2285 C 1.25602 0.34427 0.38820
 C2286 C 1.23893 0.33009 0.39545
 C2287 C 1.21933 0.33901 0.40433
 C2288 C 1.21667 0.36216 0.40604
 C2289 C 1.29144 0.37303 0.37281
 C2290 C 1.30828 0.36524 0.36482
 C2291 C 1.21049 0.40979 0.40943
 C2292 C 1.19323 0.41732 0.41675
 H2293 H 1.23126 0.44629 0.40157
 H2294 H 1.26131 0.47075 0.38889
 H2295 H 1.29613 0.45492 0.37310
 H2296 H 1.30111 0.41456 0.36991
 H2297 H 1.27096 0.33654 0.38142
 H2298 H 1.24092 0.31210 0.39416
 H2299 H 1.20611 0.32792 0.40993
 H2300 H 1.20113 0.36828 0.41309
 C2301 C 0.73295 0.90240 0.40172
 C2302 C 0.73609 0.87891 0.40024
 C2303 C 0.75647 0.87016 0.39156
 C2304 C 0.77359 0.88495 0.38439
 C2305 C 0.77048 0.90844 0.38597
 C2306 C 0.75010 0.91719 0.39465
 C2307 C 0.74735 0.94073 0.39601
 C2308 C 0.76426 0.95522 0.38900
 C2309 C 0.78420 0.94666 0.38052
 C2310 C 0.78737 0.92356 0.37898
 C2311 C 0.75920 0.84661 0.39021
 C2312 C 0.74228 0.83213 0.39722
 C2313 C 0.72234 0.84069 0.40569
 C2314 C 0.71920 0.86380 0.40724
 C2315 C 0.79426 0.87599 0.37520
 C2316 C 0.81132 0.86840 0.36746
 C2317 C 0.71201 0.91131 0.41032
 C2318 C 0.69451 0.91852 0.41737
 H2319 H 0.73213 0.94818 0.40249
 H2320 H 0.76188 0.97318 0.39015
 H2321 H 0.79729 0.95798 0.37510
 H2322 H 0.80317 0.91770 0.37227
 H2323 H 0.77441 0.83914 0.38375
 H2324 H 0.74465 0.81417 0.39606
 H2325 H 0.70924 0.82938 0.41110
 H2326 H 0.70340 0.86964 0.41397
 C2327 C 0.73005 0.39922 0.89950
 C2328 C 0.73260 0.37571 0.89733
 C2329 C 0.75264 0.36670 0.88811
 C2330 C 0.77002 0.38125 0.88109
 C2331 C 0.76747 0.40476 0.88327
 C2332 C 0.74743 0.41377 0.89249
 C2333 C 0.74525 0.43733 0.89445
 C2334 C 0.76239 0.45158 0.88752
 C2335 C 0.78199 0.44278 0.87852
 C2336 C 0.78460 0.41965 0.87638
 C2337 C 0.75477 0.34314 0.88609
 C2338 C 0.73760 0.32889 0.89297
 C2339 C 0.71801 0.33770 0.90197
 C2340 C 0.71545 0.36082 0.90418
 C2341 C 0.79043 0.37203 0.87153
 C2342 C 0.80730 0.36427 0.86355
 C2343 C 0.70949 0.40840 0.90874
 C2344 C 0.69230 0.41588 0.91628
 H2345 H 0.73032 0.44497 0.90135
 H2346 H 0.76045 0.46956 0.88914
 H2347 H 0.79526 0.45392 0.87316
 H2348 H 0.80015 0.41360 0.86927
 H2349 H 0.76970 0.33549 0.87920
 H2350 H 0.73952 0.31092 0.89130
 H2351 H 0.70472 0.32656 0.90729
 H2352 H 0.69990 0.36686 0.91129
 C2353 C 0.77195 0.89780 1.10239
 C2354 C 0.75199 0.91053 1.10400
 C2355 C 0.73247 0.90080 1.11357
 C2356 C 0.73303 0.87840 1.12146
 C2357 C 0.75301 0.86568 1.11987
 C2358 C 0.77253 0.87542 1.11032
 C2359 C 0.79232 0.86240 1.10897
 C2360 C 0.79282 0.84041 1.11686
 C2361 C 0.77372 0.83088 1.12616
 C2362 C 0.75399 0.84329 1.12769
 C2363 C 0.71272 0.91386 1.11502
 C2364 C 0.71228 0.93590 1.10726
 C2365 C 0.73137 0.94541 1.09791
 C2366 C 0.75104 0.93295 1.09625
 C2367 C 0.71308 0.86848 1.13123
 C2368 C 0.69651 0.86029 1.13935
 C2369 C 0.79191 0.90774 1.09269
 C2370 C 0.80863 0.91582 1.08475
 H2371 H 0.80760 0.86907 1.10185
 H2372 H 0.80812 0.83073 1.11578
 H2373 H 0.77420 0.81378 1.13225
 H2374 H 0.73958 0.83514 1.13508
 H2375 H 0.69745 0.90721 1.12216
 H2376 H 0.69703 0.94566 1.10852
 H2377 H 0.73094 0.96254 1.09192
 H2378 H 0.76546 0.94107 1.08884
 C2379 C 0.76943 0.40152 0.59979
 C2380 C 0.75197 0.39469 0.58529
 C2381 C 0.73191 0.38560 0.59436
 C2382 C 0.72943 0.38341 0.61788
 C2383 C 0.74684 0.39038 0.63240
 C2384 C 0.76689 0.39947 0.62332
 C2385 C 0.78407 0.40629 0.63816
 C2386 C 0.78151 0.40419 0.66130
 C2387 C 0.76191 0.39530 0.67017
 C2388 C 0.74471 0.38845 0.65597
 C2389 C 0.71471 0.37885 0.57952
 C2390 C 0.71725 0.38101 0.55639
 C2391 C 0.73686 0.38990 0.54752
 C2392 C 0.75408 0.39668 0.56172
 C2393 C 0.70906 0.37386 0.62714
 C2394 C 0.69220 0.36585 0.63486
 C2395 C 0.79008 0.41040 0.59054
 C2396 C 0.80736 0.41765 0.58302
 H2397 H 0.79963 0.41333 0.63207
 H2398 H 0.79481 0.40950 0.67240
 H2399 H 0.76000 0.39370 0.68816
 H2400 H 0.72978 0.38164 0.66367
 H2401 H 0.69915 0.37184 0.58562
 H2402 H 0.70392 0.37577 0.54528
 H2403 H 0.73875 0.39155 0.52953
 H2404 H 0.76902 0.40350 0.55403
 C2405 C 0.26962 0.90169 0.59980
 C2406 C 0.25195 0.89528 0.58537
 C2407 C 0.23196 0.88608 0.59449
 C2408 C 0.22978 0.88332 0.61799
 C2409 C 0.24742 0.88984 0.63243
 C2410 C 0.26740 0.89905 0.62331
 C2411 C 0.28483 0.90538 0.63807
 C2412 C 0.28259 0.90268 0.66118
 C2413 C 0.26305 0.89369 0.67010
 C2414 C 0.24561 0.88732 0.65597
 C2415 C 0.21454 0.87976 0.57973
 C2416 C 0.21679 0.88244 0.55661
 C2417 C 0.23634 0.89143 0.54770
 C2418 C 0.25377 0.89781 0.56183
 C2419 C 0.20950 0.87362 0.62730
 C2420 C 0.19274 0.86549 0.63511
 C2421 C 0.29019 0.91076 0.59050
 C2422 C 0.30741 0.91813 0.58297
 H2423 H 0.30034 0.91248 0.63195
 H2424 H 0.29609 0.90760 0.67223
 H2425 H 0.26139 0.89163 0.68806
 H2426 H 0.23074 0.88041 0.66371
 H2427 H 0.19901 0.87269 0.58586
 H2428 H 0.20330 0.87751 0.54556
 H2429 H 0.23801 0.89347 0.52973
 H2430 H 0.26864 0.90472 0.55411
 C2431 C 0.26830 0.40017 1.09976
 C2432 C 0.25074 0.39325 1.08543
 C2433 C 0.23067 0.38441 1.09473
 C2434 C 0.22830 0.38253 1.11829
 C2435 C 0.24583 0.38955 1.13262
 C2436 C 0.26589 0.39840 1.12333
 C2437 C 0.28321 0.40525 1.13799
 C2438 C 0.28079 0.40341 1.16117
 C2439 C 0.26117 0.39476 1.17025
 C2440 C 0.24384 0.38790 1.15623
 C2441 C 0.21336 0.37755 1.08006
 C2442 C 0.21581 0.37938 1.05689
 C2443 C 0.23543 0.38802 1.04780
 C2444 C 0.25275 0.39491 1.06183
 C2445 C 0.20795 0.37317 1.12778
 C2446 C 0.19113 0.36527 1.13570
 C2447 C 0.28892 0.40892 1.09030
 C2448 C 0.30618 0.41612 1.08269
 H2449 H 0.29878 0.41210 1.13173
 H2450 H 0.29420 0.40872 1.17213
 H2451 H 0.25937 0.39336 1.18827
 H2452 H 0.22889 0.38129 1.16409
 H2453 H 0.19778 0.37073 1.08633
 H2454 H 0.20240 0.37405 1.04592
 H2455 H 0.23725 0.38940 1.02979
 H2456 H 0.26769 0.40153 1.05398
 C2457 C 0.77044 1.10093 0.89882
 C2458 C 0.76787 1.10182 0.87523
 C2459 C 0.74795 1.11084 0.86578
 C2460 C 0.73073 1.11891 0.87999
 C2461 C 0.73330 1.11803 0.90358
 C2462 C 0.75322 1.10903 0.91303
 C2463 C 0.75545 1.10839 0.93665
 C2464 C 0.73847 1.11640 0.95056
 C2465 C 0.71898 1.12518 0.94133
 C2466 C 0.71633 1.12602 0.91813
 C2467 C 0.74578 1.11158 0.84215
 C2468 C 0.76281 1.10366 0.82825
 C2469 C 0.78227 1.09484 0.83748
 C2470 C 0.78487 1.09389 0.86068
 C2471 C 0.71045 1.12827 0.87035
 C2472 C 0.69364 1.13613 0.86236
 C2473 C 0.79083 1.09181 0.90844
 C2474 C 0.80787 1.08428 0.91622
 H2475 H 0.77030 1.10171 0.94462
 H2476 H 0.74045 1.11579 0.96859
 H2477 H 0.70584 1.13138 0.95221
 H2478 H 0.70087 1.13300 0.91175
 H2479 H 0.73094 1.11826 0.83418
 H2480 H 0.76088 1.10436 0.81021
 H2481 H 0.79544 1.08869 0.82661
 H2482 H 0.80032 1.08688 0.86706
 C2483 C 0.77006 0.59996 0.40016
 C2484 C 0.76740 0.60095 0.37658
 C2485 C 0.74740 0.60990 0.36727
 C2486 C 0.73018 0.61779 0.38159
 C2487 C 0.73282 0.61673 0.40517
 C2488 C 0.75283 0.60780 0.41448
 C2489 C 0.75511 0.60696 0.43810
 C2490 C 0.73811 0.61472 0.45212
 C2491 C 0.71854 0.62344 0.44301
 C2492 C 0.71583 0.62448 0.41982
 C2493 C 0.74515 0.61078 0.34365
 C2494 C 0.76216 0.60301 0.32963
 C2495 C 0.78169 0.59422 0.33875
 C2496 C 0.78438 0.59318 0.36193
 C2497 C 0.70985 0.62715 0.37205
 C2498 C 0.69304 0.63502 0.36410
 C2499 C 0.79059 0.59104 0.40964
 C2500 C 0.80777 0.58370 0.41729
 H2501 H 0.77003 0.60033 0.44597
 H2502 H 0.74013 0.61395 0.47014
 H2503 H 0.70538 0.62944 0.45397
 H2504 H 0.70030 0.63140 0.41354
 H2505 H 0.73025 0.61744 0.33576
 H2506 H 0.76016 0.60380 0.31161
 H2507 H 0.79483 0.58815 0.32779
 H2508 H 0.79989 0.58621 0.36821
 C2509 C 0.26988 1.10064 0.39951
 C2510 C 0.24884 1.09389 0.40815
 C2511 C 0.22880 1.10276 0.39883
 C2512 C 0.22991 1.11834 0.38093
 C2513 C 0.25095 1.12508 0.37228
 C2514 C 0.27099 1.11620 0.38160
 C2515 C 0.29181 1.12320 0.37266
 C2516 C 0.29282 1.13850 0.35502
 C2517 C 0.27323 1.14717 0.34591
 C2518 C 0.25249 1.14060 0.35437
 C2519 C 0.20797 1.09575 0.40773
 C2520 C 0.20697 1.08041 0.42534
 C2521 C 0.22656 1.07174 0.43446
 C2522 C 0.24730 1.07835 0.42604
 C2523 C 0.20946 1.12753 0.37146
 C2524 C 0.19258 1.13532 0.36356
 C2525 C 0.29038 1.09155 0.40896
 C2526 C 0.30757 1.08414 0.41656
 H2527 H 0.30752 1.11694 0.37918
 H2528 H 0.30889 1.14366 0.34838
 H2529 H 0.27410 1.15905 0.33220
 H2530 H 0.23773 1.14781 0.34671
 H2531 H 0.19228 1.10202 0.40119
 H2532 H 0.19089 1.07522 0.43194
 H2533 H 0.22568 1.05983 0.44814
 H2534 H 0.26208 1.07115 0.43368
 C2535 C 0.26649 0.59612 0.90242
 C2536 C 0.26223 0.59534 0.87907
 C2537 C 0.24184 0.60407 0.87044
 C2538 C 0.22582 0.61354 0.88520
 C2539 C 0.22998 0.61410 0.90857
 C2540 C 0.25038 0.60537 0.91721
 C2541 C 0.25420 0.60618 0.94062
 C2542 C 0.23830 0.61533 0.95509
 C2543 C 0.21835 0.62386 0.94665
 C2544 C 0.21415 0.62331 0.92367
 C2545 C 0.23798 0.60316 0.84703
 C2546 C 0.25382 0.59389 0.83257
 C2547 C 0.27377 0.58537 0.84101
 C2548 C 0.27802 0.58604 0.86398
 C2549 C 0.20525 0.62296 0.87628
 C2550 C 0.18833 0.63091 0.86865
 C2551 C 0.28755 0.58768 0.91114
 C2552 C 0.30517 0.58078 0.91818
 H2553 H 0.26946 0.59974 0.94798
 H2554 H 0.24148 0.61580 0.97296
 H2555 H 0.20606 0.63096 0.95797
 H2556 H 0.19839 0.63014 0.91790
 H2557 H 0.22271 0.60956 0.83966
 H2558 H 0.25059 0.59333 0.81472
 H2559 H 0.28602 0.57819 0.82971
 H2560 H 0.29377 0.57917 0.86973
 C2561 C 1.10045 1.23092 1.09946
 C2562 C 1.12392 1.23331 1.10183
 C2563 C 1.13292 1.25338 1.11094
 C2564 C 1.11840 1.27094 1.11765
 C2565 C 1.09494 1.26857 1.11522
 C2566 C 1.08594 1.24849 1.10611
 C2567 C 1.06243 1.24648 1.10389
 C2568 C 1.04822 1.26381 1.11047
 C2569 C 1.05702 1.28345 1.11936
 C2570 C 1.08009 1.28589 1.12176
 C2571 C 1.15643 1.25537 1.11317
 C2572 C 1.17063 1.23802 1.10660
 C2573 C 1.16183 1.21839 1.09771
 C2574 C 1.13876 1.21597 1.09530
 C2575 C 1.12759 1.29135 1.12716
 C2576 C 1.13530 1.30824 1.13510
 C2577 C 1.09126 1.21031 1.09039
 C2578 C 1.08375 1.19310 1.08299
 H2579 H 1.05480 1.23152 1.09706
 H2580 H 1.03028 1.26199 1.10865
 H2581 H 1.04591 1.29687 1.12444
 H2582 H 1.08614 1.30148 1.12877
 H2583 H 1.16408 1.27032 1.11999
 H2584 H 1.18857 1.23982 1.10843
 H2585 H 1.17294 1.20495 1.09264
 H2586 H 1.13271 1.20038 1.08828
 C2587 C 1.10159 0.73078 0.59936
 C2588 C 1.12512 0.73332 0.60078
 C2589 C 1.13435 0.75339 0.60969
 C2590 C 1.12000 0.77079 0.61711
 C2591 C 1.09648 0.76826 0.61564
 C2592 C 1.08724 0.74819 0.60674
 C2593 C 1.06368 0.74602 0.60549
 C2594 C 1.04963 0.76319 0.61283
 C2595 C 1.05865 0.78281 0.62152
 C2596 C 1.08179 0.78542 0.62295
 C2597 C 1.15792 0.75552 0.61099
 C2598 C 1.17196 0.73830 0.60374
 C2599 C 1.16294 0.71869 0.59504
 C2600 C 1.13980 0.71614 0.59352
 C2601 C 1.12942 0.79119 0.62645
 C2602 C 1.13721 0.80808 0.63432
 C2603 C 1.09217 0.71020 0.59046
 C2604 C 1.08450 0.69302 0.58315
 H2605 H 1.05587 0.73107 0.59886
 H2606 H 1.03165 0.76124 0.61176
 H2607 H 1.04766 0.79610 0.62719
 H2608 H 1.08800 0.80099 0.62983
 H2609 H 1.16574 0.77046 0.61763
 H2610 H 1.18995 0.74020 0.60488
 H2611 H 1.17391 0.70536 0.58943
 H2612 H 1.13358 0.70057 0.58662
 C2613 C 0.60072 1.23171 0.59833
 C2614 C 0.62408 1.23336 0.60201
 C2615 C 0.63327 1.25342 0.61096
 C2616 C 0.61904 1.27171 0.61618
 C2617 C 0.59569 1.27007 0.61245
 C2618 C 0.58650 1.25000 0.60350
 C2619 C 0.56311 1.24872 0.59998
 C2620 C 0.54918 1.26676 0.60514
 C2621 C 0.55817 1.28639 0.61387
 C2622 C 0.58114 1.28812 0.61752
 C2623 C 0.65666 1.25467 0.61453
 C2624 C 0.67057 1.23660 0.60944
 C2625 C 0.66159 1.21698 0.60070
 C2626 C 0.63862 1.21529 0.59698
 C2627 C 0.62841 1.29208 0.62560
 C2628 C 0.63622 1.30893 0.63355
 C2629 C 0.59134 1.21112 0.58940
 C2630 C 0.58375 1.19389 0.58210
 H2631 H 0.55533 1.23380 0.59323
 H2632 H 0.53132 1.26550 0.60235
 H2633 H 0.54728 1.30036 0.61785
 H2634 H 0.58734 1.30373 0.62434
 H2635 H 0.66444 1.26957 0.62130
 H2636 H 0.68843 1.23783 0.61230
 H2637 H 0.67246 1.20299 0.59678
 H2638 H 0.63243 1.19968 0.59014
 C2639 C 0.60186 0.72757 1.10218
 C2640 C 0.62353 0.72640 1.11173
 C2641 C 0.63333 0.74587 1.12131
 C2642 C 0.62138 0.76639 1.12132
 C2643 C 0.59972 0.76757 1.11176
 C2644 C 0.58993 0.74810 1.10216
 C2645 C 0.56825 0.74968 1.09273
 C2646 C 0.55657 0.76991 1.09277
 C2647 C 0.56614 0.78895 1.10215
 C2648 C 0.58746 0.78789 1.11156
 C2649 C 0.65501 0.74428 1.13075
 C2650 C 0.66666 0.72401 1.13076
 C2651 C 0.65705 0.70496 1.12144
 C2652 C 0.63576 0.70605 1.11199
 C2653 C 0.63132 0.78628 1.13118
 C2654 C 0.63946 0.80286 1.13935
 C2655 C 0.59183 0.70765 1.09248
 C2656 C 0.58368 0.69098 1.08452
 H2657 H 0.56010 0.73532 1.08523
 H2658 H 0.54000 0.77082 1.08549
 H2659 H 0.55700 0.80464 1.10214
 H2660 H 0.59419 0.80316 1.11865
 H2661 H 0.66317 0.75863 1.13822
 H2662 H 0.68322 0.72308 1.13806
 H2663 H 0.66613 0.68925 1.12156
 H2664 H 0.62901 0.69078 1.10493
 C2665 C 0.90150 1.23268 0.90175
 C2666 C 0.91468 1.24659 0.88773
 C2667 C 0.90530 1.26643 0.87840
 C2668 C 0.88280 1.27225 0.88317
 C2669 C 0.86971 1.25848 0.89741
 C2670 C 0.87909 1.23865 0.90674
 C2671 C 0.86566 1.22514 0.92090
 C2672 C 0.84359 1.23103 0.92569
 C2673 C 0.83441 1.25041 0.91656
 C2674 C 0.84723 1.26404 0.90257
 C2675 C 0.91877 1.28002 0.86437
 C2676 C 0.94089 1.27419 0.85970
 C2677 C 0.95007 1.25481 0.86884
 C2678 C 0.93719 1.24109 0.88269
 C2679 C 0.87302 1.29223 0.87322
 C2680 C 0.86473 1.30870 0.86490
 C2681 C 0.91079 1.21200 0.91066
 C2682 C 0.91821 1.19464 0.91792
 H2683 H 0.87205 1.20991 0.92843
 H2684 H 0.83356 1.22051 0.93655
 H2685 H 0.81725 1.25492 0.92033
 H2686 H 0.83935 1.27895 0.89588
 H2687 H 0.91239 1.29526 0.85688
 H2688 H 0.95097 1.28478 0.84894
 H2689 H 0.96727 1.25037 0.86517
 H2690 H 0.94507 1.22619 0.88941
 C2691 C 0.90444 0.73449 0.40358
 C2692 C 0.88373 0.74287 0.41159
 C2693 C 0.87492 0.76319 0.40275
 C2694 C 0.88686 0.77500 0.38597
 C2695 C 0.90774 0.76680 0.37821
 C2696 C 0.91655 0.74648 0.38705
 C2697 C 0.93741 0.73858 0.37898
 C2698 C 0.94924 0.75042 0.36267
 C2699 C 0.94063 0.77028 0.35404
 C2700 C 0.92012 0.77845 0.36165
 C2701 C 0.85415 0.77119 0.41097
 C2702 C 0.84243 0.75948 0.42744
 C2703 C 0.85105 0.73962 0.43608
 C2704 C 0.87145 0.73132 0.42830
 C2705 C 0.87748 0.79534 0.37639
 C2706 C 0.86950 0.81206 0.36831
 C2707 C 0.91303 0.71332 0.41202
 C2708 C 0.91996 0.69560 0.41886
 H2709 H 0.94481 0.72322 0.38520
 H2710 H 0.96519 0.74415 0.35670
 H2711 H 0.94988 0.77942 0.34137
 H2712 H 0.91412 0.79399 0.35444
 H2713 H 0.84677 0.78658 0.40479
 H2714 H 0.82658 0.76585 0.43355
 H2715 H 0.84188 0.73058 0.44888
 H2716 H 0.87747 0.71582 0.43556
 C2717 C 0.40245 1.23323 0.40176
 C2718 C 0.41516 1.24658 0.38680
 C2719 C 0.40582 1.26659 0.37782
 C2720 C 0.38382 1.27312 0.38386
 C2721 C 0.37123 1.25993 0.39908
 C2722 C 0.38058 1.23993 0.40806
 C2723 C 0.36765 1.22699 0.42319
 C2724 C 0.34611 1.23362 0.42928
 C2725 C 0.33697 1.25318 0.42049
 C2726 C 0.34931 1.26625 0.40556
 C2727 C 0.41882 1.27963 0.36284
 C2728 C 0.44044 1.27310 0.35693
 C2729 C 0.44957 1.25354 0.36571
 C2730 C 0.43716 1.24036 0.38048
 C2731 C 0.37399 1.29316 0.37414
 C2732 C 0.36568 1.30967 0.36596
 C2733 C 0.41165 1.21239 0.41034
 C2734 C 0.41899 1.19492 0.41737
 H2735 H 0.37403 1.21165 0.43050
 H2736 H 0.33646 1.22353 0.44088
 H2737 H 0.32023 1.25827 0.42528
 H2738 H 0.34148 1.28133 0.39919
 H2739 H 0.41244 1.29499 0.35559
 H2740 H 0.45015 1.28329 0.34546
 H2741 H 0.46638 1.24855 0.36107
 H2742 H 0.44499 1.22529 0.38688
 C2743 C 0.40096 0.73197 0.90189
 C2744 C 0.41303 0.74406 0.88540
 C2745 C 0.40392 0.76413 0.87630
 C2746 C 0.38279 0.77197 0.88373
 C2747 C 0.37088 0.76005 0.90047
 C2748 C 0.37999 0.73999 0.90957
 C2749 C 0.36773 0.72831 0.92621
 C2750 C 0.34707 0.73624 0.93366
 C2751 C 0.33817 0.75586 0.92478
 C2752 C 0.34986 0.76770 0.90836
 C2753 C 0.41627 0.77589 0.85979
 C2754 C 0.43702 0.76806 0.85248
 C2755 C 0.44591 0.74843 0.86136
 C2756 C 0.43413 0.73649 0.87764
 C2757 C 0.37315 0.79207 0.87393
 C2758 C 0.36497 0.80864 0.86571
 C2759 C 0.40988 0.71106 0.91063
 C2760 C 0.41707 0.69356 0.91773
 H2761 H 0.37396 0.71297 0.93365
 H2762 H 0.33792 0.72710 0.94640
 H2763 H 0.32211 0.76194 0.93062
 H2764 H 0.34225 0.78288 0.90198
 H2765 H 0.41006 0.79125 0.85238
 H2766 H 0.44624 0.77726 0.83983
 H2767 H 0.46203 0.74241 0.85562
 H2768 H 0.44174 0.72132 0.88405
 C2769 C 1.09799 0.76763 0.90223
 C2770 C 1.12143 0.76416 0.90144
 C2771 C 1.13015 0.74370 0.89288
 C2772 C 1.11537 0.72684 0.88513
 C2773 C 1.09192 0.73031 0.88596
 C2774 C 1.08321 0.75077 0.89453
 C2775 C 1.05972 0.75389 0.89513
 C2776 C 1.04524 0.73726 0.88748
 C2777 C 1.05376 0.71724 0.87912
 C2778 C 1.07682 0.71371 0.87833
 C2779 C 1.15365 0.74063 0.89222
 C2780 C 1.16812 0.75731 0.89977
 C2781 C 1.15959 0.77733 0.90813
 C2782 C 1.13653 0.78079 0.90901
 C2783 C 1.12430 0.70609 0.87607
 C2784 C 1.13182 0.68895 0.86843
 C2785 C 1.08913 0.78861 0.91077
 C2786 C 1.08195 0.80615 0.91779
 H2787 H 1.05229 0.76918 0.90149
 H2788 H 1.02732 0.73993 0.88804
 H2789 H 1.04245 0.70437 0.87321
 H2790 H 1.08265 0.69786 0.87169
 H2791 H 1.16109 0.72534 0.88588
 H2792 H 1.18604 0.75469 0.89913
 H2793 H 1.17089 0.79025 0.91396
 H2794 H 1.13070 0.79664 0.91567
 C2795 C 1.10096 0.26933 0.39986
 C2796 C 1.12447 0.26670 0.39832
 C2797 C 1.13365 0.24668 0.38919
 C2798 C 1.11925 0.22942 0.38163
 C2799 C 1.09573 0.23205 0.38318
 C2800 C 1.08656 0.25207 0.39231
 C2801 C 1.06300 0.25435 0.39362
 C2802 C 1.04890 0.23733 0.38612
 C2803 C 1.05787 0.21775 0.37721
 C2804 C 1.08100 0.21505 0.37572
 C2805 C 1.15721 0.24446 0.38779
 C2806 C 1.17130 0.26154 0.39518
 C2807 C 1.16233 0.28111 0.40409
 C2808 C 1.13920 0.28375 0.40571
 C2809 C 1.12863 0.20905 0.37213
 C2810 C 1.13647 0.19219 0.36419
 C2811 C 1.09161 0.28986 0.40900
 C2812 C 1.08400 0.30703 0.41649
 H2813 H 1.05523 0.26927 0.40041
 H2814 H 1.03092 0.23936 0.38723
 H2815 H 1.04685 0.20458 0.37142
 H2816 H 1.08718 0.19952 0.36865
 H2817 H 1.16499 0.22955 0.38099
 H2818 H 1.18928 0.25957 0.39396
 H2819 H 1.17335 0.29433 0.40979
 H2820 H 1.13303 0.29928 0.41277
 C2821 C 0.60073 0.76956 0.40019
 C2822 C 0.62423 0.76670 0.39890
 C2823 C 0.63330 0.74667 0.38970
 C2824 C 0.61881 0.72963 0.38183
 C2825 C 0.59531 0.73248 0.38315
 C2826 C 0.58624 0.75251 0.39235
 C2827 C 0.56269 0.75501 0.39344
 C2828 C 0.54851 0.73820 0.38565
 C2829 C 0.55737 0.71861 0.37666
 C2830 C 0.58049 0.71568 0.37539
 C2831 C 0.65686 0.74422 0.38855
 C2832 C 0.67104 0.76108 0.39623
 C2833 C 0.66217 0.78067 0.40522
 C2834 C 0.63905 0.78353 0.40660
 C2835 C 0.62810 0.70926 0.37225
 C2836 C 0.63591 0.69242 0.36425
 C2837 C 0.59149 0.79015 0.40932
 C2838 C 0.58396 0.80736 0.41678
 H2839 H 0.55500 0.76995 0.40029
 H2840 H 0.53053 0.74040 0.38658
 H2841 H 0.54628 0.70560 0.37063
 H2842 H 0.58659 0.70015 0.36826
 H2843 H 0.66456 0.72928 0.38170
 H2844 H 0.68901 0.75893 0.39520
 H2845 H 0.67326 0.79372 0.41115
 H2846 H 0.63296 0.79906 0.41374
 C2847 C 0.60062 0.26900 0.89935
 C2848 C 0.62417 0.26650 0.89817
 C2849 C 0.63359 0.24664 0.88895
 C2850 C 0.61939 0.22941 0.88096
 C2851 C 0.59584 0.23189 0.88219
 C2852 C 0.58643 0.25175 0.89142
 C2853 C 0.56284 0.25389 0.89242
 C2854 C 0.54895 0.23688 0.88454
 C2855 C 0.55815 0.21746 0.87553
 C2856 C 0.58131 0.21489 0.87433
 C2857 C 0.65718 0.24455 0.88791
 C2858 C 0.67107 0.26160 0.89573
 C2859 C 0.66186 0.28101 0.90475
 C2860 C 0.63870 0.28353 0.90601
 C2861 C 0.62902 0.20922 0.87133
 C2862 C 0.63707 0.19252 0.86328
 C2863 C 0.59103 0.28941 0.90851
 C2864 C 0.58325 0.30648 0.91602
 H2865 H 0.55490 0.26869 0.89929
 H2866 H 0.53094 0.23879 0.88543
 H2867 H 0.54728 0.20429 0.86943
 H2868 H 0.58767 0.19948 0.86718
 H2869 H 0.66514 0.22976 0.88104
 H2870 H 0.68908 0.25972 0.89478
 H2871 H 0.67272 0.29420 0.91080
 H2872 H 0.63233 0.29893 0.91318
 C2873 C 0.89628 0.77299 1.10328
 C2874 C 0.87265 0.77140 1.10436
 C2875 C 0.86248 0.75226 1.11425
 C2876 C 0.87601 0.73480 1.12296
 C2877 C 0.89964 0.73638 1.12185
 C2878 C 0.90981 0.75554 1.11198
 C2879 C 0.93346 0.75676 1.11109
 C2880 C 0.94669 0.73954 1.11970
 C2881 C 0.93675 0.72080 1.12935
 C2882 C 0.91351 0.71915 1.13046
 C2883 C 0.83882 0.75107 1.11521
 C2884 C 0.82559 0.76830 1.10660
 C2885 C 0.83553 0.78699 1.09687
 C2886 C 0.85878 0.78863 1.09573
 C2887 C 0.86565 0.71522 1.13303
 C2888 C 0.85716 0.69890 1.14138
 C2889 C 0.90664 0.79266 1.09340
 C2890 C 0.91504 0.80916 1.08531
 H2891 H 0.94197 0.77100 1.10374
 H2892 H 0.96476 0.74074 1.11889
 H2893 H 0.94710 0.70747 1.13602
 H2894 H 0.90656 0.70425 1.13813
 H2895 H 0.83031 0.73686 1.12259
 H2896 H 0.80753 0.76712 1.10746
 H2897 H 0.82518 0.80029 1.09014
 H2898 H 0.86572 0.80350 1.08801
 C2899 C 0.90150 0.26791 0.59871
 C2900 C 0.91430 0.25454 0.61357
 C2901 C 0.90495 0.23464 0.62278
 C2902 C 0.88285 0.22823 0.61708
 C2903 C 0.87015 0.24146 0.60201
 C2904 C 0.87950 0.26135 0.59279
 C2905 C 0.86645 0.27434 0.57781
 C2906 C 0.84479 0.26786 0.57210
 C2907 C 0.83565 0.24841 0.58111
 C2908 C 0.84810 0.23530 0.59590
 C2909 C 0.91804 0.22159 0.63766
 C2910 C 0.93976 0.22800 0.64326
 C2911 C 0.94889 0.24745 0.63425
 C2912 C 0.93639 0.26064 0.61957
 C2913 C 0.87305 0.20825 0.62695
 C2914 C 0.86474 0.19179 0.63523
 C2915 C 0.91075 0.28860 0.58983
 C2916 C 0.91816 0.30595 0.58258
 H2917 H 0.87283 0.28959 0.57035
 H2918 H 0.83504 0.27798 0.56062
 H2919 H 0.81881 0.24344 0.57662
 H2920 H 0.84026 0.22031 0.60246
 H2921 H 0.91166 0.20631 0.64509
 H2922 H 0.94954 0.21781 0.65464
 H2923 H 0.96577 0.25235 0.63865
 H2924 H 0.94423 0.27562 0.61299
 C2925 C 0.40184 0.76826 0.59764
 C2926 C 0.41482 0.75466 0.61213
 C2927 C 0.40563 0.73455 0.62104
 C2928 C 0.38351 0.72815 0.61540
 C2929 C 0.37063 0.74162 0.60070
 C2930 C 0.37982 0.76172 0.59178
 C2931 C 0.36659 0.77493 0.57716
 C2932 C 0.34491 0.76846 0.57151
 C2933 C 0.33593 0.74881 0.58022
 C2934 C 0.34856 0.73548 0.59466
 C2935 C 0.41891 0.72127 0.63555
 C2936 C 0.44064 0.72767 0.64108
 C2937 C 0.44962 0.74733 0.63237
 C2938 C 0.43693 0.76075 0.61806
 C2939 C 0.37388 0.70794 0.62498
 C2940 C 0.36571 0.69129 0.63304
 C2941 C 0.41096 0.78913 0.58904
 C2942 C 0.41830 0.80659 0.58201
 H2943 H 0.37285 0.79035 0.56993
 H2944 H 0.33503 0.77876 0.56030
 H2945 H 0.31908 0.74385 0.57577
 H2946 H 0.34084 0.72033 0.60099
 H2947 H 0.41266 0.70583 0.64273
 H2948 H 0.45057 0.71731 0.65219
 H2949 H 0.46651 0.75223 0.63672
 H2950 H 0.44465 0.77588 0.61170
 C2951 C 0.40213 0.26572 1.09697
 C2952 C 0.38188 0.25694 1.08833
 C2953 C 0.37293 0.23674 1.09728
 C2954 C 0.38428 0.22545 1.11481
 C2955 C 0.40470 0.23406 1.12322
 C2956 C 0.41365 0.25425 1.11427
 C2957 C 0.43404 0.26258 1.12299
 C2958 C 0.44528 0.25127 1.14007
 C2959 C 0.43652 0.23152 1.14882
 C2960 C 0.41647 0.22294 1.14056
 C2961 C 0.35262 0.22834 1.08844
 C2962 C 0.34148 0.23955 1.07124
 C2963 C 0.35023 0.25930 1.06249
 C2964 C 0.37019 0.26797 1.07087
 C2965 C 0.37475 0.20523 1.12446
 C2966 C 0.36671 0.18858 1.13261
 C2967 C 0.41084 0.28676 1.08838
 C2968 C 0.41788 0.30437 1.08141
 H2969 H 0.44153 0.27786 1.11671
 H2970 H 0.46086 0.25786 1.14654
 H2971 H 0.44532 0.22279 1.16208
 H2972 H 0.41035 0.20752 1.14789
 H2973 H 0.34515 0.21303 1.09468
 H2974 H 0.32597 0.23288 1.06466
 H2975 H 0.34151 0.26795 1.04913
 H2976 H 0.37635 0.28336 1.06350
 C2977 C 1.09774 1.09877 0.76742
 C2978 C 1.09336 1.12140 0.76171
 C2979 C 1.10248 1.13059 0.74169
 C2980 C 1.11594 1.11710 0.72752
 C2981 C 1.12003 1.09437 0.73307
 C2982 C 1.11090 1.08518 0.75309
 C2983 C 1.11529 1.06245 0.75833
 C2984 C 1.12830 1.04915 0.74418
 C2985 C 1.13722 1.05814 0.72460
 C2986 C 1.13320 1.08048 0.71903
 C2987 C 1.09793 1.15328 0.73637
 C2988 C 1.08474 1.16650 0.75041
 C2989 C 1.07582 1.15751 0.76998
 C2990 C 1.08003 1.13524 0.77566
 C2991 C 1.12587 1.12674 0.70749
 C2992 C 1.13424 1.13494 0.69101
 C2993 C 1.08905 1.08965 0.78825
 C2994 C 1.08197 1.08233 0.80571
 H2995 H 1.10870 1.05470 0.77337
 H2996 H 1.13147 1.03179 0.74844
 H2997 H 1.14730 1.04774 0.71366
 H2998 H 1.14048 1.08671 0.70361
 H2999 H 1.10447 1.16103 0.72131
 H3000 H 1.08142 1.18381 0.74607
 H3001 H 1.06559 1.16785 0.78084
 H3002 H 1.07269 1.12901 0.79105
 C3003 C 1.09714 0.59810 0.26608
 C3004 C 1.11206 0.58517 0.25290
 C3005 C 1.12089 0.59414 0.23264
 C3006 C 1.11474 0.61600 0.22567
 C3007 C 1.09956 0.62881 0.23869
 C3008 C 1.09074 0.61984 0.25895
 C3009 C 1.07566 0.63299 0.27172
 C3010 C 1.06947 0.65440 0.26468
 C3011 C 1.07809 0.66317 0.24488
 C3012 C 1.09297 0.65061 0.23197
 C3013 C 1.13583 0.58091 0.21979
 C3014 C 1.14188 0.55943 0.22675
 C3015 C 1.13325 0.55067 0.24656
 C3016 C 1.11851 0.56331 0.25956
 C3017 C 1.12429 0.62546 0.20534
 C3018 C 1.13235 0.63346 0.18860
 C3019 C 1.08869 0.58925 0.28715
 C3020 C 1.08179 0.58213 0.30478
 H3021 H 1.06848 0.62689 0.28724
 H3022 H 1.05791 0.66423 0.27465
 H3023 H 1.07322 0.67981 0.23948
 H3024 H 1.09920 0.65815 0.21668
 H3025 H 1.14297 0.58700 0.20425
 H3026 H 1.15332 0.54954 0.21672
 H3027 H 1.13800 0.53397 0.25189
 H3028 H 1.11223 0.55576 0.27482
 C3029 C 0.59756 1.09760 0.26569
 C3030 C 0.61516 1.08629 0.25446
 C3031 C 0.62410 1.09529 0.23427
 C3032 C 0.61539 1.11554 0.22543
 C3033 C 0.59755 1.12665 0.23646
 C3034 C 0.58860 1.11765 0.25665
 C3035 C 0.57082 1.12910 0.26743
 C3036 C 0.56213 1.14887 0.25851
 C3037 C 0.57087 1.15767 0.23877
 C3038 C 0.58838 1.14676 0.22780
 C3039 C 0.64175 1.08374 0.22339
 C3040 C 0.65031 1.06386 0.23220
 C3041 C 0.64156 1.05506 0.25195
 C3042 C 0.62419 1.06607 0.26302
 C3043 C 0.62503 1.12514 0.20522
 C3044 C 0.63317 1.13327 0.18858
 C3045 C 0.58899 1.08889 0.28676
 C3046 C 0.58204 1.08188 0.30441
 H3047 H 0.56343 1.12289 0.28280
 H3048 H 0.54853 1.15741 0.26697
 H3049 H 0.56405 1.17303 0.23190
 H3050 H 0.59460 1.15425 0.21248
 H3051 H 0.64909 1.08991 0.20798
 H3052 H 0.66380 1.05523 0.22366
 H3053 H 0.64827 1.03961 0.25872
 H3054 H 0.61791 1.05855 0.27830
 C3055 C 0.59684 0.59735 0.76723
 C3056 C 0.59088 0.61928 0.76036
 C3057 C 0.60013 0.62842 0.74038
 C3058 C 0.61530 0.61557 0.72740
 C3059 C 0.62099 0.59350 0.73408
 C3060 C 0.61173 0.58436 0.75406
 C3061 C 0.61772 0.56230 0.76045
 C3062 C 0.63241 0.54961 0.74744
 C3063 C 0.64146 0.55854 0.72790
 C3064 C 0.63588 0.58023 0.72122
 C3065 C 0.59398 0.65042 0.73390
 C3066 C 0.57910 0.66302 0.74678
 C3067 C 0.57005 0.65408 0.76631
 C3068 C 0.57582 0.63248 0.77311
 C3069 C 0.62533 0.62521 0.70742
 C3070 C 0.63374 0.63343 0.69097
 C3071 C 0.58804 0.58836 0.78808
 C3072 C 0.58089 0.58114 0.80555
 H3073 H 0.61110 0.55461 0.77550
 H3074 H 0.63679 0.53275 0.75256
 H3075 H 0.65287 0.54862 0.71786
 H3076 H 0.64334 0.58645 0.70588
 H3077 H 0.60056 0.65810 0.71882
 H3078 H 0.57457 0.67981 0.74156
 H3079 H 0.55850 0.66393 0.77626
 H3080 H 0.56831 0.62625 0.78843
 C3081 C 0.90392 0.90380 0.76597
 C3082 C 0.89234 0.91821 0.75108
 C3083 C 0.88376 0.90969 0.73055
 C3084 C 0.88680 0.88679 0.72505
 C3085 C 0.89858 0.87243 0.73983
 C3086 C 0.90716 0.88096 0.76035
 C3087 C 0.91881 0.86625 0.77489
 C3088 C 0.92191 0.84377 0.76932
 C3089 C 0.91353 0.83544 0.74925
 C3090 C 0.90198 0.84952 0.73462
 C3091 C 0.87221 0.92441 0.71596
 C3092 C 0.86922 0.94692 0.72148
 C3093 C 0.87759 0.95525 0.74155
 C3094 C 0.88903 0.94114 0.75625
 C3095 C 0.87754 0.87791 0.70437
 C3096 C 0.86977 0.87032 0.68734
 C3097 C 0.91223 0.91235 0.78718
 C3098 C 0.91902 0.91923 0.80492
 H3099 H 0.92566 0.87195 0.79068
 H3100 H 0.93086 0.83277 0.78064
 H3101 H 0.91599 0.81797 0.74499
 H3102 H 0.89580 0.84226 0.71920
 H3103 H 0.86540 0.91871 0.70015
 H3104 H 0.86036 0.95795 0.71011
 H3105 H 0.87521 0.97274 0.74576
 H3106 H 0.89524 0.94840 0.77166
 C3107 C 0.89758 0.39863 0.27142
 C3108 C 0.87399 0.39835 0.26904
 C3109 C 0.86416 0.38870 0.24961
 C3110 C 0.87799 0.37941 0.23268
 C3111 C 0.90157 0.37974 0.23505
 C3112 C 0.91140 0.38938 0.25448
 C3113 C 0.93501 0.38946 0.25651
 C3114 C 0.94853 0.38030 0.23980
 C3115 C 0.93894 0.37089 0.22079
 C3116 C 0.91574 0.37057 0.21835
 C3117 C 0.84055 0.38857 0.24762
 C3118 C 0.82702 0.39770 0.26435
 C3119 C 0.83663 0.40715 0.28334
 C3120 C 0.85983 0.40752 0.28575
 C3121 C 0.86797 0.36940 0.21291
 C3122 C 0.85973 0.36104 0.19647
 C3123 C 0.90758 0.40822 0.29141
 C3124 C 0.91571 0.41604 0.30815
 H3125 H 0.94326 0.39659 0.27099
 H3126 H 0.96656 0.38050 0.24162
 H3127 H 0.94952 0.36379 0.20786
 H3128 H 0.90906 0.36307 0.20326
 H3129 H 0.83230 0.38143 0.23315
 H3130 H 0.80899 0.39746 0.26256
 H3131 H 0.82606 0.41426 0.29627
 H3132 H 0.86651 0.41505 0.30083
 C3133 C 0.39850 0.89869 0.27105
 C3134 C 0.41187 0.89514 0.25175
 C3135 C 0.40226 0.88547 0.23223
 C3136 C 0.37934 0.87941 0.23213
 C3137 C 0.36595 0.88302 0.25142
 C3138 C 0.37557 0.89269 0.27094
 C3139 C 0.36187 0.89609 0.29004
 C3140 C 0.33933 0.89011 0.28986
 C3141 C 0.32992 0.88067 0.27077
 C3142 C 0.34300 0.87713 0.25172
 C3143 C 0.41596 0.88206 0.21314
 C3144 C 0.43851 0.88802 0.21334
 C3145 C 0.44791 0.89747 0.23244
 C3146 C 0.43482 0.90102 0.25147
 C3147 C 0.36955 0.86938 0.21225
 C3148 C 0.36142 0.86103 0.19577
 C3149 C 0.40834 0.90835 0.29107
 C3150 C 0.41633 0.91624 0.30784
 H3151 H 0.36841 0.90339 0.30529
 H3152 H 0.32911 0.89280 0.30462
 H3153 H 0.31240 0.87605 0.27071
 H3154 H 0.33492 0.86974 0.23727
 H3155 H 0.40941 0.87476 0.19789
 H3156 H 0.44875 0.88529 0.19860
 H3157 H 0.46543 0.90207 0.23251
 H3158 H 0.44289 0.90841 0.26592
 C3159 C 0.39937 0.39972 0.76854
 C3160 C 0.41390 0.39229 0.75130
 C3161 C 0.40488 0.38323 0.73120
 C3162 C 0.38139 0.38164 0.72848
 C3163 C 0.36685 0.38915 0.74570
 C3164 C 0.37587 0.39822 0.76579
 C3165 C 0.36101 0.40556 0.78280
 C3166 C 0.33790 0.40398 0.78004
 C3167 C 0.32909 0.39514 0.76038
 C3168 C 0.34331 0.38779 0.74335
 C3169 C 0.41974 0.37588 0.71421
 C3170 C 0.44285 0.37742 0.71700
 C3171 C 0.45166 0.38627 0.73665
 C3172 C 0.43744 0.39365 0.75366
 C3173 C 0.37217 0.37213 0.70807
 C3174 C 0.36446 0.36417 0.69118
 C3175 C 0.40857 0.40871 0.78919
 C3176 C 0.41609 0.41605 0.80643
 H3177 H 0.36707 0.41258 0.79838
 H3178 H 0.32678 0.40965 0.79322
 H3179 H 0.31112 0.39396 0.75831
 H3180 H 0.33565 0.38105 0.72837
 H3181 H 0.41369 0.36887 0.69862
 H3182 H 0.45397 0.37172 0.70384
 H3183 H 0.46963 0.38743 0.73874
 H3184 H 0.44509 0.40042 0.76864
 C3185 C 1.09865 0.90153 1.23245
 C3186 C 1.11326 0.91465 1.24572
 C3187 C 1.12255 0.90554 1.26569
 C3188 C 1.11718 0.88336 1.27224
 C3189 C 1.10232 0.87035 1.25913
 C3190 C 1.09303 0.87946 1.23917
 C3191 C 1.07828 0.86611 1.22628
 C3192 C 1.07285 0.84438 1.23294
 C3193 C 1.08192 0.83548 1.25247
 C3194 C 1.09650 0.84823 1.26547
 C3195 C 1.13717 0.91895 1.27866
 C3196 C 1.14244 0.94075 1.27209
 C3197 C 1.13336 0.94965 1.25256
 C3198 C 1.11894 0.93683 1.23946
 C3199 C 1.12720 0.87378 1.29225
 C3200 C 1.13560 0.86564 1.30874
 C3201 C 1.08974 0.91054 1.21168
 C3202 C 1.08252 0.91782 1.19427
 H3203 H 1.07077 0.87230 1.21097
 H3204 H 1.06153 0.83440 1.22289
 H3205 H 1.07765 0.81859 1.25757
 H3206 H 1.10311 0.84057 1.28053
 H3207 H 1.14463 0.91277 1.29399
 H3208 H 1.15363 0.95079 1.28221
 H3209 H 1.13751 0.96659 1.24753
 H3210 H 1.11228 0.94449 1.22441
 C3211 C 1.09637 0.40271 0.73342
 C3212 C 1.11181 0.41533 0.74623
 C3213 C 1.12075 0.40623 0.76635
 C3214 C 1.11419 0.38457 0.77355
 C3215 C 1.09847 0.37211 0.76092
 C3216 C 1.08952 0.38121 0.74079
 C3217 C 1.07389 0.36841 0.72840
 C3218 C 1.06729 0.34721 0.73568
 C3219 C 1.07604 0.33831 0.75536
 C3220 C 1.09145 0.35053 0.76790
 C3221 C 1.13624 0.41912 0.77883
 C3222 C 1.14269 0.44039 0.77163
 C3223 C 1.13393 0.44929 0.75195
 C3224 C 1.11867 0.43698 0.73932
 C3225 C 1.12391 0.37494 0.79367
 C3226 C 1.13213 0.36678 0.81023
 C3227 C 1.08792 0.41159 0.71240
 C3228 C 1.08108 0.41870 0.69478
 H3229 H 1.06658 0.37463 0.71301
 H3230 H 1.05531 0.33765 0.72600
 H3231 H 1.07085 0.32183 0.76095
 H3232 H 1.09777 0.34290 0.78309
 H3233 H 1.14350 0.41292 0.79425
 H3234 H 1.15454 0.45003 0.78138
 H3235 H 1.13899 0.46583 0.74644
 H3236 H 1.11229 0.44462 0.72415
 C3237 C 0.60062 0.89941 0.73011
 C3238 C 0.60782 0.91365 0.74766
 C3239 C 0.61704 0.90428 0.76753
 C3240 C 0.61903 0.88072 0.76973
 C3241 C 0.61174 0.86647 0.75221
 C3242 C 0.60251 0.87584 0.73234
 C3243 C 0.59540 0.86126 0.71503
 C3244 C 0.59737 0.83809 0.71727
 C3245 C 0.60638 0.82892 0.73671
 C3246 C 0.61350 0.84286 0.75403
 C3247 C 0.62416 0.91886 0.78483
 C3248 C 0.62224 0.94204 0.78256
 C3249 C 0.61323 0.95120 0.76312
 C3250 C 0.60607 0.93726 0.74582
 C3251 C 0.62872 0.87115 0.78991
 C3252 C 0.63682 0.86316 0.80661
 C3253 C 0.59147 0.90897 0.70968
 C3254 C 0.58399 0.91672 0.69259
 H3255 H 0.58826 0.86759 0.69960
 H3256 H 0.59186 0.82718 0.70386
 H3257 H 0.60786 0.81090 0.73838
 H3258 H 0.62038 0.83493 0.76883
 H3259 H 0.63127 0.91253 0.80028
 H3260 H 0.62778 0.95294 0.79595
 H3261 H 0.61178 0.96922 0.76143
 H3262 H 0.59917 0.94518 0.73102
 C3263 C 0.59872 0.39908 1.23133
 C3264 C 0.60139 0.37559 1.23355
 C3265 C 0.61100 0.36652 1.25338
 C3266 C 0.61788 0.38099 1.27088
 C3267 C 0.61505 0.40447 1.26873
 C3268 C 0.60544 0.41354 1.24889
 C3269 C 0.60282 0.43707 1.24710
 C3270 C 0.60948 0.45123 1.26443
 C3271 C 0.61886 0.44236 1.28383
 C3272 C 0.62167 0.41926 1.28605
 C3273 C 0.61353 0.34298 1.25519
 C3274 C 0.60676 0.32881 1.23791
 C3275 C 0.59736 0.33768 1.21853
 C3276 C 0.59467 0.36078 1.21628
 C3277 C 0.62798 0.37170 1.29100
 C3278 C 0.63639 0.36377 1.30759
 C3279 C 0.58938 0.40833 1.21084
 C3280 C 0.58183 0.41582 1.19365
 H3281 H 0.59559 0.44475 1.23234
 H3282 H 0.60734 0.46918 1.26280
 H3283 H 0.62400 0.45343 1.29725
 H3284 H 0.62904 0.41316 1.30145
 H3285 H 0.62074 0.33528 1.26995
 H3286 H 0.60882 0.31086 1.23958
 H3287 H 0.59212 0.32661 1.20515
 H3288 H 0.58725 0.36687 1.20088
 C3289 C 0.90128 1.10066 1.23147
 C3290 C 0.89413 1.08631 1.24900
 C3291 C 0.88509 1.09558 1.26903
 C3292 C 0.88326 1.11913 1.27141
 C3293 C 0.89053 1.13348 1.25393
 C3294 C 0.89957 1.12422 1.23390
 C3295 C 0.90671 1.13891 1.21666
 C3296 C 0.90497 1.16208 1.21912
 C3297 C 0.89612 1.17113 1.23869
 C3298 C 0.88895 1.15709 1.25595
 C3299 C 0.87802 1.08090 1.28630
 C3300 C 0.87984 1.05773 1.28387
 C3301 C 0.88868 1.04867 1.26429
 C3302 C 0.89576 1.06272 1.24700
 C3303 C 0.87377 1.12860 1.29175
 C3304 C 0.86581 1.13650 1.30857
 C3305 C 0.91019 1.09122 1.21086
 C3306 C 0.91750 1.08359 1.19362
 H3307 H 0.91372 1.13267 1.20113
 H3308 H 0.91055 1.17306 1.20578
 H3309 H 0.89480 1.18915 1.24052
 H3310 H 0.88221 1.16493 1.27086
 H3311 H 0.87104 1.08715 1.30185
 H3312 H 0.87436 1.04675 1.29725
 H3313 H 0.89006 1.03066 1.26248
 H3314 H 0.90253 1.05489 1.23209
 C3315 C 0.89960 0.60024 0.73057
 C3316 C 0.91386 0.60713 0.74822
 C3317 C 0.90454 0.61615 0.76823
 C3318 C 0.88103 0.61823 0.77047
 C3319 C 0.86676 0.61128 0.75285
 C3320 C 0.87607 0.60226 0.73284
 C3321 C 0.86147 0.59546 0.71543
 C3322 C 0.83834 0.59753 0.71773
 C3323 C 0.82924 0.60634 0.73730
 C3324 C 0.84320 0.61316 0.75471
 C3325 C 0.91914 0.62294 0.78563
 C3326 C 0.94227 0.62089 0.78333
 C3327 C 0.95137 0.61208 0.76376
 C3328 C 0.93741 0.60526 0.74634
 C3329 C 0.87153 0.62766 0.79082
 C3330 C 0.86365 0.63558 0.80766
 C3331 C 0.90909 0.59124 0.71004
 C3332 C 0.91681 0.58384 0.69288
 H3333 H 0.86775 0.58850 0.69989
 H3334 H 0.82742 0.59226 0.70425
 H3335 H 0.81126 0.60791 0.73900
 H3336 H 0.83533 0.61991 0.76960
 H3337 H 0.91285 0.62989 0.80117
 H3338 H 0.95318 0.62616 0.79681
 H3339 H 0.96935 0.61052 0.76205
 H3340 H 0.94528 0.59851 0.73145
 C3341 C 0.40095 1.10007 0.73115
 C3342 C 0.41533 1.10657 0.74885
 C3343 C 0.40618 1.11552 0.76897
 C3344 C 0.38269 1.11792 0.77126
 C3345 C 0.36831 1.11136 0.75358
 C3346 C 0.37747 1.10241 0.73347
 C3347 C 0.36275 1.09603 0.71601
 C3348 C 0.33966 1.09842 0.71834
 C3349 C 0.33070 1.10716 0.73801
 C3350 C 0.34478 1.11358 0.75548
 C3351 C 0.42089 1.12192 0.78641
 C3352 C 0.44399 1.11956 0.78406
 C3353 C 0.45294 1.11082 0.76439
 C3354 C 0.43886 1.10437 0.74693
 C3355 C 0.37333 1.12728 0.79171
 C3356 C 0.36544 1.13513 0.80859
 C3357 C 0.41028 1.09114 0.71050
 C3358 C 0.41780 1.08381 0.69323
 H3359 H 0.36891 1.08914 0.70038
 H3360 H 0.32865 1.09346 0.70482
 H3361 H 0.31275 1.10898 0.73974
 H3362 H 0.33702 1.12029 0.77045
 H3363 H 0.41472 1.12881 0.80203
 H3364 H 0.45499 1.12454 0.79757
 H3365 H 0.47089 1.10902 0.76264
 H3366 H 0.44661 1.09767 0.73195
 C3367 C 0.39895 0.60018 1.23036
 C3368 C 0.39700 0.58690 1.24995
 C3369 C 0.38813 0.59641 1.26993
 C3370 C 0.38124 0.61913 1.27020
 C3371 C 0.38322 0.63243 1.25061
 C3372 C 0.39210 0.62292 1.23063
 C3373 C 0.39389 0.63653 1.21124
 C3374 C 0.38709 0.65889 1.21159
 C3375 C 0.37844 0.66819 1.23113
 C3376 C 0.37648 0.65519 1.25046
 C3377 C 0.38634 0.58279 1.28931
 C3378 C 0.39313 0.56044 1.28896
 C3379 C 0.40180 0.55114 1.26942
 C3380 C 0.40375 0.56414 1.25009
 C3381 C 0.37197 0.62878 1.29055
 C3382 C 0.36418 0.63678 1.30741
 C3383 C 0.40795 0.59049 1.20991
 C3384 C 0.41539 0.58268 1.19281
 H3385 H 0.40052 0.63007 1.19564
 H3386 H 0.38854 0.66904 1.19660
 H3387 H 0.37319 0.68557 1.23131
 H3388 H 0.36964 0.66318 1.26525
 H3389 H 0.37970 0.58926 1.30491
 H3390 H 0.39166 0.55027 1.30393
 H3391 H 0.40705 0.53377 1.26923
 H3392 H 0.41060 0.55617 1.23529
 C3393 C 1.09957 1.23164 0.90108
 C3394 C 1.12304 1.23454 0.89947
 C3395 C 1.13192 1.25476 0.89050
 C3396 C 1.11726 1.27194 0.88318
 C3397 C 1.09379 1.26905 0.88483
 C3398 C 1.08491 1.24883 0.89381
 C3399 C 1.06139 1.24630 0.89523
 C3400 C 1.04705 1.26326 0.88800
 C3401 C 1.05572 1.28304 0.87924
 C3402 C 1.07881 1.28599 0.87763
 C3403 C 1.15544 1.25726 0.88902
 C3404 C 1.16979 1.24027 0.89617
 C3405 C 1.16112 1.22050 0.90494
 C3406 C 1.13803 1.21758 0.90663
 C3407 C 1.12634 1.29250 0.87382
 C3408 C 1.13399 1.30948 0.86598
 C3409 C 1.09052 1.21088 0.91000
 C3410 C 1.08315 1.19353 0.91729
 H3411 H 1.05385 1.23123 0.90194
 H3412 H 1.02910 1.26105 0.88920
 H3413 H 1.04451 1.29616 0.87364
 H3414 H 1.08476 1.30166 0.87069
 H3415 H 1.16300 1.27233 0.88232
 H3416 H 1.18774 1.24246 0.89490
 H3417 H 1.17233 1.20734 0.91046
 H3418 H 1.13209 1.20191 0.91358
 C3419 C 1.10124 0.73086 0.39993
 C3420 C 1.08684 0.74865 0.39362
 C3421 C 1.09596 0.76870 0.38450
 C3422 C 1.11941 0.77082 0.38172
 C3423 C 1.13381 0.75304 0.38806
 C3424 C 1.12469 0.73300 0.39719
 C3425 C 1.13942 0.71543 0.40335
 C3426 C 1.16248 0.71759 0.40056
 C3427 C 1.17139 0.73719 0.39164
 C3428 C 1.15730 0.75477 0.38544
 C3429 C 1.08123 0.78624 0.37829
 C3430 C 1.05816 0.78404 0.38100
 C3431 C 1.04925 0.76443 0.38991
 C3432 C 1.06335 0.74689 0.39618
 C3433 C 1.12872 0.79121 0.37219
 C3434 C 1.13650 0.80807 0.36422
 C3435 C 1.09193 0.71030 0.40903
 C3436 C 1.08434 0.69311 0.41648
 H3437 H 1.13329 0.69987 0.41038
 H3438 H 1.17350 0.70399 0.40534
 H3439 H 1.18932 0.73879 0.38950
 H3440 H 1.16503 0.76968 0.37858
 H3441 H 1.08736 0.80181 0.37129
 H3442 H 1.04714 0.79762 0.37616
 H3443 H 1.03132 0.76280 0.39197
 H3444 H 1.05562 0.73197 0.40303
 C3445 C 0.60173 1.23089 0.39890
 C3446 C 0.62527 1.23362 0.39799
 C3447 C 0.63457 1.25356 0.38884
 C3448 C 0.62027 1.27066 0.38064
 C3449 C 0.59674 1.26795 0.38161
 C3450 C 0.58744 1.24801 0.39077
 C3451 C 0.56387 1.24566 0.39151
 C3452 C 0.54988 1.26253 0.38342
 C3453 C 0.55896 1.28203 0.37447
 C3454 C 0.58211 1.28481 0.37354
 C3455 C 0.65814 1.25588 0.38806
 C3456 C 0.67213 1.23897 0.39607
 C3457 C 0.66304 1.21946 0.40502
 C3458 C 0.63989 1.21673 0.40602
 C3459 C 0.62977 1.29093 0.37106
 C3460 C 0.63764 1.30772 0.36301
 C3461 C 0.59225 1.21041 0.40801
 C3462 C 0.58454 1.19329 0.41548
 H3463 H 0.55601 1.23079 0.39832
 H3464 H 0.53189 1.26044 0.38410
 H3465 H 0.54802 1.29508 0.36821
 H3466 H 0.58838 1.30027 0.36643
 H3467 H 0.66601 1.27074 0.38126
 H3468 H 0.69012 1.24101 0.39533
 H3469 H 0.67398 1.20638 0.41122
 H3470 H 0.63362 1.20127 0.41315
 C3471 C 0.60061 0.72898 0.89915
 C3472 C 0.62417 0.73156 0.89850
 C3473 C 0.63368 0.75141 0.88937
 C3474 C 0.61958 0.76855 0.88095
 C3475 C 0.59602 0.76596 0.88159
 C3476 C 0.58651 0.74610 0.89072
 C3477 C 0.56292 0.74386 0.89114
 C3478 C 0.54912 0.76076 0.88278
 C3479 C 0.55841 0.78017 0.87386
 C3480 C 0.58158 0.78284 0.87323
 C3481 C 0.65727 0.75360 0.88886
 C3482 C 0.67108 0.73666 0.89712
 C3483 C 0.66177 0.71725 0.90605
 C3484 C 0.63860 0.71464 0.90679
 C3485 C 0.62929 0.78879 0.87153
 C3486 C 0.63729 0.80558 0.86363
 C3487 C 0.59091 0.70864 0.90834
 C3488 C 0.58302 0.69165 0.91591
 H3489 H 0.55490 0.72907 0.89791
 H3490 H 0.53111 0.75876 0.88322
 H3491 H 0.54762 0.79324 0.86739
 H3492 H 0.58802 0.79824 0.86612
 H3493 H 0.66530 0.76839 0.88208
 H3494 H 0.68909 0.73860 0.89659
 H3495 H 0.67256 0.70414 0.91245
 H3496 H 0.63216 0.69924 0.91390
 C3497 C 0.89856 1.22891 1.10290
 C3498 C 0.89259 1.22893 1.12590
 C3499 C 0.88295 1.24842 1.13566
 C3500 C 0.87932 1.26776 1.12235
 C3501 C 0.88533 1.26775 1.09937
 C3502 C 0.89496 1.24825 1.08961
 C3503 C 0.90078 1.24860 1.06659
 C3504 C 0.89720 1.26769 1.05358
 C3505 C 0.88780 1.28676 1.06312
 C3506 C 0.88190 1.28689 1.08574
 C3507 C 0.87711 1.24803 1.15867
 C3508 C 0.88066 1.22892 1.17166
 C3509 C 0.89005 1.20985 1.16211
 C3510 C 0.89600 1.20976 1.13951
 C3511 C 0.86929 1.28760 1.13227
 C3512 C 0.86092 1.30405 1.14048
 C3513 C 0.90823 1.20894 1.09293
 C3514 C 0.91613 1.19219 1.08484
 H3515 H 0.90814 1.23417 1.05841
 H3516 H 0.90174 1.26767 1.03600
 H3517 H 0.88506 1.30155 1.05294
 H3518 H 0.87464 1.30213 1.09240
 H3519 H 0.86975 1.26245 1.16686
 H3520 H 0.87607 1.22891 1.18924
 H3521 H 0.89274 1.19504 1.17226
 H3522 H 0.90327 1.19453 1.13285
 C3523 C 0.90470 0.73508 0.59571
 C3524 C 0.88424 0.74364 0.58731
 C3525 C 0.87553 0.76415 0.59579
 C3526 C 0.88733 0.77597 0.61263
 C3527 C 0.90797 0.76759 0.62077
 C3528 C 0.91668 0.74708 0.61228
 C3529 C 0.93730 0.73899 0.62074
 C3530 C 0.94901 0.75084 0.63709
 C3531 C 0.94050 0.77090 0.64537
 C3532 C 0.92022 0.77925 0.63738
 C3533 C 0.85501 0.77233 0.58718
 C3534 C 0.84343 0.76059 0.57066
 C3535 C 0.85194 0.74054 0.56238
 C3536 C 0.87210 0.73208 0.57054
 C3537 C 0.87802 0.79649 0.62188
 C3538 C 0.87014 0.81338 0.62972
 C3539 C 0.91319 0.71376 0.58758
 C3540 C 0.92001 0.69593 0.58093
 H3541 H 0.94461 0.72348 0.61479
 H3542 H 0.96476 0.74442 0.64335
 H3543 H 0.94966 0.78004 0.65807
 H3544 H 0.91430 0.79493 0.64433
 H3545 H 0.84772 0.78787 0.59308
 H3546 H 0.82777 0.76710 0.56425
 H3547 H 0.84288 0.73148 0.54955
 H3548 H 0.87805 0.71643 0.56355
 C3549 C 0.40236 1.23309 0.59793
 C3550 C 0.38134 1.24104 0.59037
 C3551 C 0.37212 1.26098 0.59962
 C3552 C 0.38398 1.27286 0.61638
 C3553 C 0.40514 1.26507 0.62372
 C3554 C 0.41436 1.24512 0.61447
 C3555 C 0.43551 1.23762 0.62212
 C3556 C 0.44723 1.24950 0.63844
 C3557 C 0.43822 1.26900 0.64749
 C3558 C 0.41742 1.27677 0.64029
 C3559 C 0.35104 1.26856 0.59185
 C3560 C 0.33941 1.25678 0.57540
 C3561 C 0.34842 1.23728 0.56636
 C3562 C 0.36913 1.22942 0.57369
 C3563 C 0.37424 1.29287 0.62628
 C3564 C 0.36595 1.30935 0.63456
 C3565 C 0.41141 1.21231 0.58902
 C3566 C 0.41870 1.19490 0.58179
 H3567 H 0.44322 1.22256 0.61557
 H3568 H 0.46339 1.24353 0.64409
 H3569 H 0.44740 1.27817 0.66015
 H3570 H 0.41111 1.29203 0.64781
 H3571 H 0.34334 1.28364 0.59836
 H3572 H 0.32331 1.26282 0.56964
 H3573 H 0.33932 1.22819 0.55358
 H3574 H 0.37546 1.21419 0.56613
 C3575 C 0.39805 0.72869 1.10211
 C3576 C 0.39621 0.73048 1.12572
 C3577 C 0.38673 0.75007 1.13545
 C3578 C 0.37918 0.76775 1.12151
 C3579 C 0.38111 0.76599 1.09790
 C3580 C 0.39057 0.74639 1.08817
 C3581 C 0.39229 0.74499 1.06453
 C3582 C 0.38488 0.76246 1.05089
 C3583 C 0.37563 0.78162 1.06040
 C3584 C 0.37372 0.78346 1.08362
 C3585 C 0.38502 0.75146 1.15909
 C3586 C 0.39247 0.73400 1.17273
 C3587 C 0.40176 0.71486 1.16322
 C3588 C 0.40365 0.71303 1.14000
 C3589 C 0.36934 0.78769 1.13141
 C3590 C 0.36111 0.80426 1.13954
 C3591 C 0.40743 0.70854 1.09218
 C3592 C 0.41512 0.69167 1.08415
 H3593 H 0.39937 0.73042 1.05635
 H3594 H 0.38632 0.76111 1.03284
 H3595 H 0.36989 0.79514 1.04972
 H3596 H 0.36641 0.79870 1.09022
 H3597 H 0.37793 0.76602 1.16728
 H3598 H 0.39104 0.73533 1.19078
 H3599 H 0.40757 0.70137 1.17388
 H3600 H 0.41101 0.69781 1.13339
 C3601 C 0.90140 0.76830 0.90193
 C3602 C 0.91450 0.75454 0.88769
 C3603 C 0.90520 0.73460 0.87857
 C3604 C 0.88286 0.72854 0.88375
 C3605 C 0.86986 0.74217 0.89822
 C3606 C 0.87916 0.76210 0.90734
 C3607 C 0.86582 0.77548 0.92172
 C3608 C 0.84392 0.76934 0.92693
 C3609 C 0.83482 0.74986 0.91801
 C3610 C 0.84756 0.73636 0.90381
 C3611 C 0.91859 0.72115 0.86431
 C3612 C 0.94055 0.72721 0.85924
 C3613 C 0.94964 0.74670 0.86817
 C3614 C 0.93684 0.76028 0.88223
 C3615 C 0.87313 0.70851 0.87397
 C3616 C 0.86486 0.69201 0.86578
 C3617 C 0.91060 0.78906 0.91066
 C3618 C 0.91796 0.80646 0.91779
 H3619 H 0.87215 0.79078 0.92910
 H3620 H 0.83395 0.77977 0.93796
 H3621 H 0.81780 0.74516 0.92211
 H3622 H 0.83975 0.72136 0.89730
 H3623 H 0.91226 0.70583 0.85697
 H3624 H 0.95056 0.71672 0.84832
 H3625 H 0.96671 0.75132 0.86418
 H3626 H 0.94465 0.77526 0.88879
 C3627 C 0.90229 0.26766 0.40182
 C3628 C 0.88122 0.25975 0.40932
 C3629 C 0.87207 0.23981 0.40007
 C3630 C 0.88405 0.22789 0.38337
 C3631 C 0.90525 0.23564 0.37609
 C3632 C 0.91440 0.25559 0.38535
 C3633 C 0.93558 0.26306 0.37775
 C3634 C 0.94740 0.25115 0.36148
 C3635 C 0.93846 0.23165 0.35243
 C3636 C 0.91763 0.22391 0.35958
 C3637 C 0.85095 0.23228 0.40777
 C3638 C 0.83920 0.24411 0.42415
 C3639 C 0.84815 0.26361 0.43319
 C3640 C 0.86891 0.27143 0.42593
 C3641 C 0.87440 0.20787 0.37348
 C3642 C 0.86627 0.19135 0.36517
 C3643 C 0.91126 0.28844 0.41073
 C3644 C 0.91850 0.30585 0.41795
 H3645 H 0.94324 0.27813 0.38430
 H3646 H 0.96359 0.25709 0.35587
 H3647 H 0.94771 0.22246 0.33980
 H3648 H 0.91138 0.20864 0.35206
 H3649 H 0.84330 0.21719 0.40126
 H3650 H 0.82307 0.23811 0.42986
 H3651 H 0.83896 0.27274 0.44591
 H3652 H 0.87518 0.28667 0.43349
 C3653 C 0.40187 0.76867 0.40160
 C3654 C 0.41528 0.75464 0.38793
 C3655 C 0.40605 0.73476 0.37860
 C3656 C 0.38347 0.72903 0.38302
 C3657 C 0.37015 0.74291 0.39694
 C3658 C 0.37938 0.76278 0.40627
 C3659 C 0.36572 0.77641 0.42010
 C3660 C 0.34358 0.77058 0.42459
 C3661 C 0.33455 0.75115 0.41546
 C3662 C 0.34760 0.73742 0.40178
 C3663 C 0.41977 0.72104 0.36493
 C3664 C 0.44198 0.72677 0.36062
 C3665 C 0.45100 0.74620 0.36975
 C3666 C 0.43788 0.76004 0.38325
 C3667 C 0.37385 0.70903 0.37304
 C3668 C 0.36569 0.69255 0.36469
 C3669 C 0.41102 0.78937 0.41051
 C3670 C 0.41838 0.80674 0.41773
 H3671 H 0.37199 0.79167 0.42762
 H3672 H 0.33337 0.78119 0.43521
 H3673 H 0.31734 0.74669 0.41900
 H3674 H 0.33982 0.72248 0.39509
 H3675 H 0.41351 0.70575 0.35746
 H3676 H 0.45224 0.71607 0.35014
 H3677 H 0.46826 0.75057 0.36636
 H3678 H 0.44565 0.77497 0.38999
 C3679 C 0.40192 0.26640 0.90184
 C3680 C 0.38029 0.25915 0.90831
 C3681 C 0.37124 0.23915 0.89908
 C3682 C 0.38388 0.22651 0.88344
 C3683 C 0.40564 0.23359 0.87721
 C3684 C 0.41469 0.25360 0.88644
 C3685 C 0.43644 0.26039 0.87990
 C3686 C 0.44891 0.24776 0.86469
 C3687 C 0.44006 0.22820 0.85567
 C3688 C 0.41868 0.22112 0.86179
 C3689 C 0.34954 0.23228 0.90575
 C3690 C 0.33715 0.24482 0.92108
 C3691 C 0.34600 0.26437 0.93010
 C3692 C 0.36731 0.27154 0.92385
 C3693 C 0.37434 0.20644 0.87353
 C3694 C 0.36621 0.18992 0.86524
 C3695 C 0.41082 0.28725 0.91065
 C3696 C 0.41797 0.30474 0.91779
 H3697 H 0.44405 0.27548 0.88647
 H3698 H 0.46553 0.25319 0.85988
 H3699 H 0.44982 0.21846 0.84386
 H3700 H 0.41253 0.20578 0.85434
 H3701 H 0.34194 0.21718 0.89921
 H3702 H 0.32058 0.23932 0.92599
 H3703 H 0.33630 0.27405 0.94201
 H3704 H 0.37347 0.28685 0.93135
 C3705 C 1.09916 0.76826 1.09904
 C3706 C 1.12263 0.76518 1.10034
 C3707 C 1.13150 0.74489 1.10919
 C3708 C 1.11685 0.72779 1.11668
 C3709 C 1.09337 0.73085 1.11532
 C3710 C 1.08450 0.75114 1.10648
 C3711 C 1.06098 0.75383 1.10535
 C3712 C 1.04663 0.73695 1.11273
 C3713 C 1.05529 0.71711 1.12136
 C3714 C 1.07838 0.71400 1.12268
 C3715 C 1.15503 0.74223 1.11035
 C3716 C 1.16938 0.75913 1.10301
 C3717 C 1.16071 0.77896 1.09438
 C3718 C 1.13762 0.78205 1.09301
 C3719 C 1.12592 0.70714 1.12592
 C3720 C 1.13351 0.69006 1.13365
 C3721 C 1.09011 0.78908 1.09020
 C3722 C 1.08274 0.80646 1.08295
 H3723 H 1.05344 0.76896 1.09876
 H3724 H 1.02868 0.73929 1.11174
 H3725 H 1.04407 0.70405 1.12707
 H3726 H 1.08432 0.69828 1.12953
 H3727 H 1.16258 0.72710 1.11693
 H3728 H 1.18733 0.75681 1.10404
 H3729 H 1.17193 0.79204 1.08870
 H3730 H 1.13169 0.79777 1.08615
 C3731 C 1.10071 0.26940 0.59970
 C3732 C 1.08631 0.25208 0.60718
 C3733 C 1.09548 0.23202 0.61622
 C3734 C 1.11899 0.22940 0.61775
 C3735 C 1.13340 0.24670 0.61023
 C3736 C 1.12422 0.26676 0.60118
 C3737 C 1.13896 0.28385 0.59384
 C3738 C 1.16209 0.28121 0.59540
 C3739 C 1.17105 0.26158 0.60423
 C3740 C 1.15696 0.24447 0.61157
 C3741 C 1.08074 0.21496 0.62361
 C3742 C 1.05761 0.21766 0.62215
 C3743 C 1.04865 0.23728 0.61333
 C3744 C 1.06275 0.25435 0.60589
 C3745 C 1.12836 0.20902 0.62722
 C3746 C 1.13618 0.19215 0.63518
 C3747 C 1.09136 0.28998 0.59067
 C3748 C 1.08374 0.30718 0.58327
 H3749 H 1.13279 0.29941 0.58684
 H3750 H 1.17311 0.29445 0.58973
 H3751 H 1.18903 0.25961 0.60540
 H3752 H 1.16473 0.22952 0.61829
 H3753 H 1.08692 0.19939 0.63060
 H3754 H 1.04659 0.20445 0.62789
 H3755 H 1.03067 0.23930 0.61223
 H3756 H 1.05498 0.26930 0.59915
 C3757 C 0.59992 0.76945 0.59965
 C3758 C 0.60737 0.75217 0.58516
 C3759 C 0.61632 0.73205 0.59429
 C3760 C 0.61776 0.72933 0.61784
 C3761 C 0.61026 0.74659 0.63232
 C3762 C 0.60131 0.76671 0.62320
 C3763 C 0.59397 0.78375 0.63801
 C3764 C 0.59545 0.78101 0.66118
 C3765 C 0.60419 0.76133 0.67009
 C3766 C 0.61152 0.74426 0.65592
 C3767 C 0.62370 0.71503 0.57948
 C3768 C 0.62230 0.71782 0.55632
 C3769 C 0.61356 0.73750 0.54740
 C3770 C 0.60615 0.75454 0.56157
 C3771 C 0.62713 0.70888 0.62716
 C3772 C 0.63499 0.69198 0.63497
 C3773 C 0.59100 0.79010 0.59036
 C3774 C 0.58367 0.80737 0.58283
 H3775 H 0.58702 0.79936 0.63188
 H3776 H 0.58978 0.79422 0.67226
 H3777 H 0.60529 0.75927 0.68810
 H3778 H 0.61818 0.72926 0.66366
 H3779 H 0.63062 0.69942 0.58562
 H3780 H 0.62803 0.70463 0.54523
 H3781 H 0.61252 0.73959 0.52939
 H3782 H 0.59947 0.76954 0.55384
 C3783 C 0.59902 0.26773 1.09906
 C3784 C 0.62175 0.26700 1.10577
 C3785 C 0.63086 0.24687 1.11471
 C3786 C 0.61720 0.22759 1.11690
 C3787 C 0.59448 0.22833 1.11018
 C3788 C 0.58536 0.24846 1.10124
 C3789 C 0.56260 0.24881 1.09468
 C3790 C 0.54922 0.22981 1.09688
 C3791 C 0.55813 0.21012 1.10561
 C3792 C 0.58049 0.20929 1.11222
 C3793 C 0.65362 0.24655 1.12133
 C3794 C 0.66698 0.26558 1.11919
 C3795 C 0.65806 0.28527 1.11047
 C3796 C 0.63572 0.28606 1.10380
 C3797 C 0.62649 0.20706 1.12615
 C3798 C 0.63424 0.19006 1.13388
 C3799 C 0.58972 0.28835 1.09004
 C3800 C 0.58220 0.30561 1.08267
 H3801 H 0.55491 0.26374 1.08779
 H3802 H 0.53184 0.23036 1.09179
 H3803 H 0.54767 0.19540 1.10728
 H3804 H 0.58666 0.19359 1.11892
 H3805 H 0.66132 0.23163 1.12821
 H3806 H 0.68434 0.26505 1.12434
 H3807 H 0.66849 0.30001 1.10887
 H3808 H 0.62956 0.30176 1.09710
 C3809 C 1.23140 1.09940 0.90038
 C3810 C 1.24891 1.08492 0.89352
 C3811 C 1.26895 1.09403 0.88442
 C3812 C 1.27136 1.11755 0.88224
 C3813 C 1.25386 1.13203 0.88918
 C3814 C 1.23383 1.12292 0.89828
 C3815 C 1.21656 1.13773 0.90507
 C3816 C 1.21900 1.16086 0.90291
 C3817 C 1.23859 1.16977 0.89402
 C3818 C 1.25588 1.15560 0.88721
 C3819 C 1.28621 1.07922 0.87764
 C3820 C 1.28375 1.05608 0.87979
 C3821 C 1.26415 1.04718 0.88869
 C3822 C 1.24688 1.06136 0.89550
 C3823 C 1.29174 1.12686 0.87274
 C3824 C 1.30859 1.13467 0.86482
 C3825 C 1.21079 1.09012 0.90937
 C3826 C 1.19355 1.08263 0.91673
 H3827 H 1.20101 1.13161 0.91211
 H3828 H 1.20562 1.17194 0.90817
 H3829 H 1.24041 1.18775 0.89237
 H3830 H 1.27079 1.16332 0.88039
 H3831 H 1.30176 1.08534 0.87062
 H3832 H 1.29712 1.04500 0.87452
 H3833 H 1.26232 1.02920 0.89032
 H3834 H 1.23196 1.05365 0.90233
 C3835 C 1.23087 0.60015 0.39961
 C3836 C 1.23335 0.62371 0.39812
 C3837 C 1.25328 0.63300 0.38898
 C3838 C 1.27062 0.61867 0.38140
 C3839 C 1.26817 0.59510 0.38295
 C3840 C 1.24823 0.58581 0.39209
 C3841 C 1.24613 0.56221 0.39344
 C3842 C 1.26325 0.54817 0.38598
 C3843 C 1.28274 0.55725 0.37704
 C3844 C 1.28527 0.58043 0.37551
 C3845 C 1.25535 0.65661 0.38762
 C3846 C 1.23822 0.67064 0.39506
 C3847 C 1.21873 0.66156 0.40400
 C3848 C 1.21623 0.63838 0.40556
 C3849 C 1.29090 0.62817 0.37188
 C3850 C 1.30767 0.63612 0.36391
 C3851 C 1.21039 0.59070 0.40870
 C3852 C 1.19325 0.58307 0.41615
 H3853 H 1.23128 0.55436 0.40027
 H3854 H 1.26137 0.53015 0.38713
 H3855 H 1.29599 0.54627 0.37127
 H3856 H 1.30074 0.58669 0.36843
 H3857 H 1.27019 0.66448 0.38081
 H3858 H 1.24007 0.68866 0.39390
 H3859 H 1.20547 0.67252 0.40977
 H3860 H 1.20077 0.63212 0.41265
 C3861 C 0.73158 1.10031 0.39976
 C3862 C 0.74916 1.08590 0.39291
 C3863 C 0.76921 1.09508 0.38393
 C3864 C 0.77157 1.11862 0.38184
 C3865 C 0.75401 1.13303 0.38873
 C3866 C 0.73395 1.12385 0.39772
 C3867 C 0.71661 1.13859 0.40446
 C3868 C 0.71901 1.16174 0.40238
 C3869 C 0.73861 1.17072 0.39360
 C3870 C 0.75597 1.15661 0.38683
 C3871 C 0.78654 1.08034 0.37717
 C3872 C 0.78412 1.05719 0.37924
 C3873 C 0.76451 1.04821 0.38803
 C3874 C 0.74717 1.06232 0.39480
 C3875 C 0.79197 1.12801 0.37248
 C3876 C 0.80883 1.13590 0.36464
 C3877 C 0.71100 1.09097 0.40873
 C3878 C 0.69378 1.08342 0.41610
 H3879 H 0.70105 1.13242 0.41140
 H3880 H 0.70558 1.17277 0.40762
 H3881 H 0.74039 1.18871 0.39201
 H3882 H 0.77089 1.16440 0.38010
 H3883 H 0.80210 1.08652 0.37024
 H3884 H 0.79754 1.04615 0.37400
 H3885 H 0.76271 1.03022 0.38960
 H3886 H 0.73223 1.05455 0.40153
 C3887 C 0.72971 0.59962 0.90051
 C3888 C 0.73198 0.62319 0.89871
 C3889 C 0.75196 0.63254 0.88975
 C3890 C 0.76956 0.61827 0.88265
 C3891 C 0.76732 0.59470 0.88456
 C3892 C 0.74733 0.58535 0.89351
 C3893 C 0.74546 0.56175 0.89521
 C3894 C 0.76285 0.54778 0.88828
 C3895 C 0.78240 0.55692 0.87954
 C3896 C 0.78470 0.58010 0.87765
 C3897 C 0.75383 0.65615 0.88808
 C3898 C 0.73644 0.67011 0.89505
 C3899 C 0.71690 0.66097 0.90380
 C3900 C 0.71460 0.63779 0.90565
 C3901 C 0.78985 0.62781 0.87320
 C3902 C 0.80663 0.63574 0.86525
 C3903 C 0.70918 0.59009 0.90943
 C3904 C 0.69202 0.58239 0.91675
 H3905 H 0.73057 0.55386 0.90190
 H3906 H 0.76114 0.52977 0.88971
 H3907 H 0.79587 0.54600 0.87419
 H3908 H 0.80023 0.58641 0.87074
 H3909 H 0.76870 0.66405 0.88138
 H3910 H 0.73815 0.68813 0.89365
 H3911 H 0.70344 0.67189 0.90919
 H3912 H 0.69908 0.63149 0.91258
 C3913 C 1.22927 0.89793 1.10073
 C3914 C 1.24710 0.91188 1.10773
 C3915 C 1.26662 0.90222 1.11735
 C3916 C 1.26818 0.87866 1.11991
 C3917 C 1.25037 0.86470 1.11283
 C3918 C 1.23086 0.87436 1.10321
 C3919 C 1.21326 0.86007 1.09628
 C3920 C 1.21489 0.83690 1.09882
 C3921 C 1.23396 0.82745 1.10824
 C3922 C 1.25156 0.84110 1.11519
 C3923 C 1.28421 0.91651 1.12426
 C3924 C 1.28256 0.93969 1.12174
 C3925 C 1.26348 0.94913 1.11234
 C3926 C 1.24589 0.93547 1.10538
 C3927 C 1.28803 0.86880 1.12991
 C3928 C 1.30449 0.86061 1.13826
 C3929 C 1.20917 0.90779 1.09126
 C3930 C 1.19231 0.91577 1.08356
 H3931 H 1.19809 0.86662 1.08884
 H3932 H 1.20127 0.82622 1.09345
 H3933 H 1.23514 0.80944 1.11018
 H3934 H 1.26606 0.83296 1.12241
 H3935 H 1.29939 0.90995 1.13167
 H3936 H 1.29618 0.95037 1.12712
 H3937 H 1.26228 0.96715 1.11042
 H3938 H 1.23139 0.94360 1.09814
 C3939 C 1.23099 0.40001 0.59924
 C3940 C 1.23356 0.37646 0.60096
 C3941 C 1.25360 0.36729 0.60997
 C3942 C 1.27095 0.38173 0.61722
 C3943 C 1.26840 0.40528 0.61544
 C3944 C 1.24836 0.41444 0.60643
 C3945 C 1.24617 0.43803 0.60487
 C3946 C 1.26329 0.45217 0.61201
 C3947 C 1.28290 0.44321 0.62082
 C3948 C 1.28551 0.42005 0.62255
 C3949 C 1.25575 0.34370 0.61156
 C3950 C 1.23859 0.32957 0.60447
 C3951 C 1.21900 0.33854 0.59567
 C3952 C 1.21642 0.36169 0.59387
 C3953 C 1.29131 0.37236 0.62669
 C3954 C 1.30813 0.36451 0.63464
 C3955 C 1.21040 0.40935 0.59029
 C3956 C 1.19319 0.41693 0.58295
 H3957 H 1.23123 0.44579 0.59813
 H3958 H 1.26134 0.47017 0.61070
 H3959 H 1.29615 0.45427 0.62634
 H3960 H 1.30107 0.41389 0.62952
 H3961 H 1.27068 0.33593 0.61829
 H3962 H 1.24052 0.31157 0.60582
 H3963 H 1.20571 0.32749 0.59019
 H3964 H 1.20087 0.36786 0.58690
 C3965 C 0.73463 0.90467 0.59527
 C3966 C 0.74097 0.88226 0.59066
 C3967 C 0.76143 0.87366 0.59927
 C3968 C 0.77546 0.88754 0.61243
 C3969 C 0.76928 0.91006 0.61675
 C3970 C 0.74881 0.91865 0.60814
 C3971 C 0.74296 0.94120 0.61273
 C3972 C 0.75695 0.95487 0.62545
 C3973 C 0.77695 0.94646 0.63388
 C3974 C 0.78313 0.92432 0.62965
 C3975 C 0.76736 0.85117 0.59451
 C3976 C 0.75347 0.83757 0.58160
 C3977 C 0.73347 0.84598 0.57317
 C3978 C 0.72720 0.86805 0.57760
 C3979 C 0.79601 0.87850 0.62181
 C3980 C 0.81290 0.87073 0.62971
 C3981 C 0.71335 0.91318 0.58710
 C3982 C 0.69555 0.91998 0.58044
 H3983 H 0.72758 0.94850 0.60651
 H3984 H 0.75224 0.97208 0.62877
 H3985 H 0.78776 0.95716 0.64376
 H3986 H 0.79886 0.91855 0.63655
 H3987 H 0.78276 0.84387 0.60066
 H3988 H 0.75827 0.82042 0.57811
 H3989 H 0.72275 0.83535 0.56315
 H3990 H 0.71149 0.87382 0.57065
 C3991 C 0.72795 0.39742 1.10184
 C3992 C 0.72983 0.37386 1.10420
 C3993 C 0.74932 0.36440 1.11407
 C3994 C 0.76682 0.37856 1.12151
 C3995 C 0.76496 0.40211 1.11911
 C3996 C 0.74546 0.41157 1.10925
 C3997 C 0.74394 0.43516 1.10709
 C3998 C 0.76120 0.44902 1.11446
 C3999 C 0.78027 0.43977 1.12409
 C4000 C 0.78222 0.41660 1.12643
 C4001 C 0.75079 0.34081 1.11631
 C4002 C 0.73349 0.32696 1.10901
 C4003 C 0.71444 0.33621 1.09934
 C4004 C 0.71254 0.35937 1.09691
 C4005 C 0.78671 0.36890 1.13165
 C4006 C 0.80321 0.36086 1.14006
 C4007 C 0.70789 0.40707 1.09207
 C4008 C 0.69108 0.41495 1.08414
 H4009 H 0.72944 0.44314 1.09970
 H4010 H 0.75976 0.46703 1.11269
 H4011 H 0.79363 0.45060 1.12979
 H4012 H 0.79738 0.41020 1.13404
 H4013 H 0.76528 0.33282 1.12372
 H4014 H 0.73489 0.30896 1.11086
 H4015 H 0.70107 0.32538 1.09366
 H4016 H 0.69740 0.36577 1.08928
 C4017 C 0.76730 1.09758 1.09693
 C4018 C 0.75940 1.11871 1.08951
 C4019 C 0.73923 1.12767 1.09847
 C4020 C 0.72705 1.11543 1.11478
 C4021 C 0.73479 1.09416 1.12197
 C4022 C 0.75497 1.08520 1.11302
 C4023 C 0.76241 1.06394 1.12052
 C4024 C 0.75025 1.05186 1.13640
 C4025 C 0.73052 1.06062 1.14516
 C4026 C 0.72280 1.08152 1.13809
 C4027 C 0.73172 1.14887 1.09086
 C4028 C 0.74379 1.16087 1.07486
 C4029 C 0.76352 1.15212 1.06610
 C4030 C 0.77132 1.13129 1.07328
 C4031 C 0.70679 1.12489 1.12440
 C4032 C 0.69009 1.13291 1.13247
 C4033 C 0.78832 1.08881 1.08836
 C4034 C 0.80592 1.08176 1.08140
 H4035 H 0.77765 1.05642 1.11418
 H4036 H 0.75617 1.03562 1.14195
 H4037 H 0.72113 1.05117 1.15749
 H4038 H 0.70735 1.08762 1.14538
 H4039 H 0.71646 1.15638 1.09717
 H4040 H 0.73780 1.17706 1.06922
 H4041 H 0.77284 1.16151 1.05367
 H4042 H 0.78674 1.12517 1.06594
 C4043 C 0.76972 0.59967 0.59967
 C4044 C 0.75241 0.60694 0.58518
 C4045 C 0.73230 0.61589 0.59430
 C4046 C 0.72964 0.61751 0.61785
 C4047 C 0.74694 0.61019 0.63234
 C4048 C 0.76704 0.60124 0.62322
 C4049 C 0.78413 0.59408 0.63803
 C4050 C 0.78144 0.59573 0.66119
 C4051 C 0.76178 0.60448 0.67011
 C4052 C 0.74467 0.61165 0.65593
 C4053 C 0.71525 0.62310 0.57949
 C4054 C 0.71799 0.62153 0.55633
 C4055 C 0.73765 0.61278 0.54741
 C4056 C 0.75472 0.60553 0.56159
 C4057 C 0.70920 0.62686 0.62717
 C4058 C 0.69230 0.63470 0.63498
 C4059 C 0.79037 0.59078 0.59039
 C4060 C 0.80763 0.58348 0.58288
 H4061 H 0.79973 0.58714 0.63191
 H4062 H 0.79469 0.59020 0.67227
 H4063 H 0.75978 0.60574 0.68811
 H4064 H 0.72969 0.61833 0.66367
 H4065 H 0.69965 0.63003 0.58562
 H4066 H 0.70478 0.62714 0.54524
 H4067 H 0.73970 0.61160 0.52941
 H4068 H 0.76971 0.59885 0.55387
 C4069 C 0.27022 1.10056 0.59987
 C4070 C 0.26782 1.10273 0.62340
 C4071 C 0.24774 1.11174 0.63253
 C4072 C 0.23020 1.11853 0.61808
 C4073 C 0.23258 1.11628 0.59455
 C4074 C 0.25265 1.10727 0.58542
 C4075 C 0.25467 1.10522 0.56185
 C4076 C 0.23734 1.11187 0.54771
 C4077 C 0.21771 1.12068 0.55663
 C4078 C 0.21526 1.12290 0.57977
 C4079 C 0.24574 1.11379 0.65611
 C4080 C 0.26308 1.10713 0.67025
 C4081 C 0.28271 1.09832 0.66133
 C4082 C 0.28514 1.09610 0.63819
 C4083 C 0.20979 1.12796 0.62739
 C4084 C 0.19290 1.13587 0.63515
 C4085 C 0.29081 1.09157 0.59056
 C4086 C 0.30801 1.08419 0.58297
 H4087 H 0.26963 1.09847 0.55412
 H4088 H 0.23916 1.11018 0.52972
 H4089 H 0.20429 1.12582 0.54556
 H4090 H 0.19968 1.12984 0.58591
 H4091 H 0.23079 1.12053 0.66385
 H4092 H 0.26127 1.10881 0.68824
 H4093 H 0.29612 1.09317 0.67239
 H4094 H 0.30072 1.08915 0.63205
 C4095 C 0.26636 0.59663 1.09747
 C4096 C 0.26176 0.59490 1.12071
 C4097 C 0.24157 0.60392 1.12956
 C4098 C 0.22607 0.61463 1.11512
 C4099 C 0.23054 0.61612 1.09184
 C4100 C 0.25074 0.60709 1.08298
 C4101 C 0.25486 0.60883 1.05966
 C4102 C 0.23945 0.61916 1.04548
 C4103 C 0.21971 0.62799 1.05414
 C4104 C 0.21522 0.62655 1.07704
 C4105 C 0.23739 0.60204 1.15287
 C4106 C 0.25271 0.59154 1.16702
 C4107 C 0.27245 0.58272 1.15836
 C4108 C 0.27702 0.58434 1.13550
 C4109 C 0.20573 0.62437 1.12432
 C4110 C 0.18902 0.63254 1.13222
 C4111 C 0.28729 0.58796 1.08857
 C4112 C 0.30483 0.58090 1.08144
 H4113 H 0.26998 0.60221 1.05215
 H4114 H 0.24285 0.62032 1.02768
 H4115 H 0.20779 0.63600 1.04305
 H4116 H 0.19963 0.63366 1.08298
 H4117 H 0.22226 0.60862 1.16040
 H4118 H 0.24923 0.59023 1.18479
 H4119 H 0.28430 0.57457 1.16942
 H4120 H 0.29260 0.57720 1.12957
 C4121 C 0.76940 0.90068 0.90088
 C4122 C 0.75712 0.91273 0.88453
 C4123 C 0.73730 0.90335 0.87531
 C4124 C 0.72988 0.88197 0.88249
 C4125 C 0.74203 0.87003 0.89902
 C4126 C 0.76185 0.87941 0.90824
 C4127 C 0.77376 0.86713 0.92469
 C4128 C 0.76629 0.84618 0.93184
 C4129 C 0.74690 0.83700 0.92283
 C4130 C 0.73485 0.84871 0.90660
 C4131 C 0.72534 0.91568 0.85894
 C4132 C 0.73275 0.93668 0.85188
 C4133 C 0.75214 0.94585 0.86089
 C4134 C 0.76426 0.93409 0.87703
 C4135 C 0.70994 0.87213 0.87267
 C4136 C 0.69349 0.86385 0.86442
 C4137 C 0.78999 0.90997 0.90983
 C4138 C 0.80723 0.91749 0.91713
 H4139 H 0.78892 0.87357 0.93222
 H4140 H 0.77559 0.83701 0.94444
 H4141 H 0.74117 0.82072 0.92844
 H4142 H 0.71986 0.84088 0.90011
 H4143 H 0.71015 0.90925 0.85144
 H4144 H 0.72339 0.94589 0.83935
 H4145 H 0.75782 0.96218 0.85535
 H4146 H 0.77923 0.94192 0.88355
 C4147 C 0.77041 0.40020 0.39928
 C4148 C 0.76938 0.39547 0.37603
 C4149 C 0.74950 0.38637 0.36665
 C4150 C 0.73077 0.38204 0.38057
 C4151 C 0.73178 0.38681 0.40381
 C4152 C 0.75167 0.39590 0.41320
 C4153 C 0.75231 0.40046 0.43648
 C4154 C 0.73384 0.39618 0.45011
 C4155 C 0.71439 0.38731 0.44094
 C4156 C 0.71328 0.38265 0.41807
 C4157 C 0.74889 0.38176 0.34337
 C4158 C 0.76739 0.38599 0.32975
 C4159 C 0.78683 0.39486 0.33893
 C4160 C 0.78791 0.39960 0.36179
 C4161 C 0.71056 0.37247 0.37102
 C4162 C 0.69385 0.36441 0.36308
 C4163 C 0.79079 0.40933 0.40887
 C4164 C 0.80784 0.41681 0.41664
 H4165 H 0.76707 0.40737 0.44439
 H4166 H 0.73462 0.39976 0.46789
 H4167 H 0.70008 0.38402 0.45160
 H4168 H 0.69778 0.37576 0.41171
 H4169 H 0.73414 0.37486 0.33544
 H4170 H 0.76665 0.38234 0.31199
 H4171 H 0.80117 0.39808 0.32830
 H4172 H 0.80340 0.40650 0.36814
 C4173 C 0.26991 0.90169 0.39980
 C4174 C 0.26767 0.89969 0.37624
 C4175 C 0.24778 0.89051 0.36696
 C4176 C 0.23023 0.88342 0.38130
 C4177 C 0.23244 0.88552 0.40485
 C4178 C 0.25234 0.89468 0.41413
 C4179 C 0.25418 0.89656 0.43772
 C4180 C 0.23686 0.88958 0.45175
 C4181 C 0.21740 0.88063 0.44268
 C4182 C 0.21512 0.87858 0.41951
 C4183 C 0.24596 0.88861 0.34337
 C4184 C 0.26329 0.89558 0.32934
 C4185 C 0.28273 0.90457 0.33841
 C4186 C 0.28499 0.90664 0.36157
 C4187 C 0.21001 0.87382 0.37183
 C4188 C 0.19328 0.86576 0.36393
 C4189 C 0.29039 0.91071 0.40925
 C4190 C 0.30755 0.91808 0.41688
 H4191 H 0.26900 0.90342 0.44556
 H4192 H 0.23855 0.89113 0.46976
 H4193 H 0.20399 0.87522 0.45365
 H4194 H 0.19966 0.87151 0.41326
 H4195 H 0.23115 0.88174 0.33551
 H4196 H 0.26162 0.89400 0.31133
 H4197 H 0.29612 0.91000 0.32744
 H4198 H 0.30043 0.91375 0.36782
 C4199 C 0.26796 0.40083 0.90115
 C4200 C 0.26495 0.39963 0.87763
 C4201 C 0.24474 0.39080 0.86871
 C4202 C 0.22768 0.38321 0.88338
 C4203 C 0.23066 0.38449 0.90690
 C4204 C 0.25088 0.39332 0.91581
 C4205 C 0.25351 0.39439 0.93938
 C4206 C 0.23665 0.38695 0.95374
 C4207 C 0.21688 0.37833 0.94502
 C4208 C 0.21383 0.37707 0.92189
 C4209 C 0.24212 0.38973 0.84514
 C4210 C 0.25900 0.39715 0.83079
 C4211 C 0.27876 0.40577 0.83950
 C4212 C 0.28179 0.40705 0.86264
 C4213 C 0.20718 0.37389 0.87424
 C4214 C 0.19029 0.36604 0.86650
 C4215 C 0.28872 0.40958 0.91021
 C4216 C 0.30609 0.41675 0.91754
 H4217 H 0.26860 0.40096 0.94695
 H4218 H 0.23894 0.38790 0.97172
 H4219 H 0.20384 0.37257 0.95625
 H4220 H 0.19816 0.37023 0.91591
 H4221 H 0.22704 0.38317 0.83755
 H4222 H 0.25671 0.39620 0.81281
 H4223 H 0.29182 0.41151 0.82828
 H4224 H 0.29746 0.41389 0.86861
   
