data_POSCAR
  _audit_creation_date              2014-09-24
  _audit_creation_method            'ToBaCCo'
  _symmetry_space_group_name_H-M    'P1'
  _symmetry_Int_Tables_number       1
  _symmetry_cell_setting            triclinic
  loop_
  _symmetry_equiv_pos_as_xyz
 x,y,z
_cell_length_a 35.1618
_cell_length_b 35.0280
_cell_length_c 33.9936
_cell_angle_alpha 88.493200
_cell_angle_beta 87.338600
_cell_angle_gamma 89.272400
loop_
  _atom_site_label
  _atom_site_type_symbol
  _atom_site_fract_x
  _atom_site_fract_y
  _atom_site_fract_z
C1 C 0.70488 0.64316 0.95180
 H2 H 0.71806 0.62000 0.93563
 C3 C 0.67450 0.66325 0.93573
 H4 H 0.66499 0.65593 0.90706
 C5 C 0.69909 0.67950 1.00969
 H6 H 0.70760 0.68449 1.03927
 C7 C 0.66862 0.70040 0.99459
 H8 H 0.65438 0.72213 1.01214
 N9 N 0.71631 0.65112 0.98843
 C10 C 0.82466 0.61999 1.04101
 H11 H 0.82351 0.58950 1.03715
 C12 C 0.85685 0.63576 1.05648
 H13 H 0.88010 0.61732 1.06525
 C14 C 0.79611 0.68129 1.03396
 H15 H 0.77264 0.69903 1.02488
 C16 C 0.82776 0.69825 1.04958
 H17 H 0.82823 0.72889 1.05301
 Zn18 Zn 0.75178 0.61687 1.01243
 N19 N 0.79471 0.64263 1.03088
 C20 C 0.79411 0.59807 0.94549
 N21 N 0.77050 0.58245 0.97417
 C22 C 0.76115 0.54485 0.97433
 C23 C 0.77592 0.52134 0.94442
 C24 C 0.80957 0.57571 0.91539
 C25 C 0.74479 0.57068 1.08361
 C26 C 0.72609 0.55925 1.11928
 C27 C 0.66843 0.58815 1.09612
 C28 C 0.68786 0.59803 1.06084
 N29 N 0.72588 0.59130 1.05599
 H30 H 0.80091 0.62808 0.94614
 H31 H 0.74222 0.53320 0.99747
 H32 H 0.76869 0.49138 0.94463
 H33 H 0.82862 0.58839 0.89288
 H34 H 0.77482 0.56466 1.07901
 H35 H 0.74260 0.54497 1.14152
 H36 H 0.63816 0.59432 1.09888
 H37 H 0.67251 0.61225 1.03783
 C38 C 0.85826 0.67520 1.06141
 C39 C 0.65580 0.69179 0.95747
 C40 C 0.68788 0.57065 1.12732
 C41 C 0.80056 0.53695 0.91477
 C42 C 0.69152 0.32633 0.54651
 H43 H 0.71743 0.31915 0.56110
 C44 C 0.65856 0.30538 0.55565
 H45 H 0.65970 0.28158 0.57657
 C46 C 0.65784 0.36740 0.50362
 H47 H 0.65726 0.39209 0.48398
 C48 C 0.62400 0.34811 0.51302
 H49 H 0.59778 0.35865 0.50095
 N50 N 0.69079 0.35645 0.52044
 C51 C 0.80607 0.37675 0.47225
 H52 H 0.80298 0.40723 0.46744
 C53 C 0.83924 0.35835 0.45868
 H54 H 0.86159 0.37484 0.44357
 C55 C 0.77994 0.31794 0.49555
 H56 H 0.75661 0.30204 0.50912
 C57 C 0.81303 0.29835 0.48281
 H58 H 0.81502 0.26766 0.48716
 Zn59 Zn 0.73501 0.38669 0.50923
 N60 N 0.77746 0.35667 0.49099
 C61 C 0.78203 0.43083 0.55564
 N62 N 0.74835 0.41204 0.55557
 C63 C 0.72631 0.40726 0.58932
 C64 C 0.73949 0.41855 0.62535
 C65 C 0.79641 0.44231 0.59107
 C66 C 0.72244 0.40649 0.43187
 C67 C 0.70697 0.42743 0.40100
 C68 C 0.69597 0.48015 0.44481
 C69 C 0.71194 0.45818 0.47499
 N70 N 0.72364 0.42168 0.46819
 H71 H 0.79893 0.43492 0.52859
 H72 H 0.69939 0.39283 0.58875
 H73 H 0.72291 0.41225 0.65234
 H74 H 0.82452 0.45462 0.59111
 H75 H 0.73129 0.37716 0.42758
 H76 H 0.70382 0.41413 0.37294
 H77 H 0.68411 0.50817 0.45097
 H78 H 0.71258 0.46925 0.50435
 C79 C 0.84345 0.31884 0.46493
 C80 C 0.62409 0.31633 0.53901
 C81 C 0.69234 0.46408 0.40781
 C82 C 0.77568 0.43470 0.62650
 C83 C 0.20392 -0.20706 0.01086
 H84 H 0.22785 -0.22392 -0.00027
 C85 C 0.17006 -0.22501 0.02381
 H86 H 0.16826 -0.25583 0.02322
 C87 C 0.17633 -0.14628 0.02363
 H88 H 0.17880 -0.11552 0.02270
 C89 C 0.14251 -0.16300 0.03773
 H90 H 0.11943 -0.14496 0.04889
 N91 N 0.20631 -0.16834 0.01106
 C92 C 0.31258 -0.16759 -0.05455
 H93 H 0.30243 -0.14832 -0.07714
 C94 C 0.34793 -0.18527 -0.06036
 H95 H 0.36429 -0.18034 -0.08779
 C96 C 0.30575 -0.19484 0.00999
 H97 H 0.28956 -0.19727 0.03777
 C98 C 0.34129 -0.21314 0.00539
 H99 H 0.35243 -0.23011 0.02942
 Zn100 Zn 0.24855 -0.14135 -0.01101
 N101 N 0.29218 -0.17262 -0.01986
 C102 C 0.28985 -0.07745 0.00879
 N103 N 0.26354 -0.10312 0.02292
 C104 C 0.25275 -0.10531 0.06186
 C105 C 0.26922 -0.08155 0.08842
 C106 C 0.30684 -0.05291 0.03435
 C107 C 0.22696 -0.14672 -0.08734
 C108 C 0.21537 -0.13499 -0.12435
 C109 C 0.21273 -0.07006 -0.10222
 C110 C 0.22543 -0.08305 -0.06581
 N111 N 0.23273 -0.12078 -0.05937
 H112 H 0.29878 -0.07716 -0.02210
 H113 H 0.23301 -0.12693 0.07274
 H114 H 0.26160 -0.08456 0.11959
 H115 H 0.32857 -0.03332 0.02310
 H116 H 0.23231 -0.17670 -0.08106
 H117 H 0.21368 -0.15664 -0.14631
 H118 H 0.20460 -0.04025 -0.10523
 H119 H 0.22836 -0.06316 -0.04239
 C120 C 0.36273 -0.20785 -0.03005
 C121 C 0.13866 -0.20278 0.03703
 C122 C 0.20836 -0.09588 -0.13303
 C123 C 0.29726 -0.05576 0.07477
 C124 C 0.18961 0.17163 0.42743
 H125 H 0.21063 0.16397 0.40473
 C126 C 0.15635 0.19042 0.41684
 H127 H 0.15183 0.19680 0.38604
 C128 C 0.16920 0.17191 0.49485
 H129 H 0.17384 0.16401 0.52512
 C130 C 0.13562 0.19126 0.48555
 H131 H 0.11480 0.19845 0.50873
 N132 N 0.19479 0.16135 0.46571
 C133 C 0.30005 0.13116 0.51999
 H134 H 0.29421 0.10135 0.52641
 C135 C 0.33059 0.14837 0.53698
 H136 H 0.34780 0.13196 0.55710
 C137 C 0.28442 0.18904 0.48637
 H138 H 0.26618 0.20459 0.46663
 C139 C 0.31519 0.20724 0.50222
 H140 H 0.32050 0.23705 0.49497
 Zn141 Zn 0.23535 0.12667 0.47579
 N142 N 0.27712 0.15185 0.49608
 C143 C 0.28698 0.11108 0.41242
 N144 N 0.25103 0.10462 0.42741
 C145 C 0.22525 0.08581 0.40661
 C146 C 0.23542 0.07240 0.36921
 C147 C 0.29814 0.09862 0.37500
 C148 C 0.21356 0.10054 0.55143
 C149 C 0.20147 0.07496 0.58135
 C150 C 0.19943 0.02556 0.53322
 C151 C 0.21195 0.05210 0.50412
 N152 N 0.21829 0.08897 0.51359
 H153 H 0.30688 0.12649 0.42915
 H154 H 0.19653 0.08196 0.41876
 H155 H 0.21492 0.05719 0.35291
 H156 H 0.32687 0.10374 0.36331
 H157 H 0.21989 0.12962 0.55852
 H158 H 0.19800 0.08446 0.61138
 H159 H 0.19434 -0.00369 0.52556
 H160 H 0.21668 0.04307 0.47419
 C161 C 0.33787 0.18705 0.52882
 C162 C 0.12832 0.19908 0.44594
 C163 C 0.19422 0.03713 0.57222
 C164 C 0.27209 0.07929 0.35306
 C165 C 0.19998 0.45345 0.23047
 H166 H 0.19874 0.43941 0.25921
 C167 C 0.21691 0.43468 0.19833
 H168 H 0.22893 0.40631 0.20249
 C169 C 0.18113 0.50506 0.18888
 H170 H 0.16545 0.53149 0.18498
 C171 C 0.19762 0.48718 0.15589
 H172 H 0.19457 0.49995 0.12683
 N173 N 0.18148 0.48738 0.22503
 C174 C 0.15136 0.53836 0.33813
 H175 H 0.12207 0.54554 0.33250
 C176 C 0.16744 0.55110 0.37205
 H177 H 0.15071 0.56875 0.39220
 C178 C 0.20934 0.50778 0.31797
 H179 H 0.22564 0.49129 0.29658
 C180 C 0.22642 0.51949 0.35195
 H181 H 0.25599 0.51237 0.35643
 Zn182 Zn 0.14740 0.50355 0.26620
 N183 N 0.17250 0.51763 0.31163
 C184 C 0.10950 0.45010 0.31730
 N185 N 0.11546 0.46177 0.27907
 C186 C 0.09969 0.44318 0.24926
 C187 C 0.07595 0.41204 0.25753
 C188 C 0.08583 0.41932 0.32686
 C189 C 0.13507 0.58017 0.24255
 C190 C 0.11424 0.61204 0.22979
 C191 C 0.05803 0.57299 0.23081
 C192 C 0.07981 0.54196 0.24387
 N193 N 0.11773 0.54590 0.24894
 H194 H 0.12282 0.46477 0.34047
 H195 H 0.10542 0.45277 0.21907
 H196 H 0.06302 0.39770 0.23377
 H197 H 0.08070 0.41056 0.35743
 H198 H 0.16517 0.58260 0.24714
 H199 H 0.12837 0.63907 0.22418
 H200 H 0.02803 0.56941 0.22617
 H201 H 0.06637 0.51471 0.24964
 C202 C 0.20556 0.54226 0.37881
 C203 C 0.21436 0.45096 0.16044
 C204 C 0.07532 0.60844 0.22369
 C205 C 0.06850 0.40036 0.29678
 C206 C -0.14694 0.06429 0.17985
 H207 H -0.13176 0.08477 0.19610
 C208 C -0.16560 0.07681 0.14661
 H209 H -0.16422 0.10680 0.13808
 C210 C -0.16520 0.00057 0.17003
 H211 H -0.16432 -0.02928 0.17896
 C212 C -0.18410 0.01188 0.13618
 H213 H -0.19903 -0.00927 0.12030
 N214 N -0.14656 0.02668 0.19078
 C215 C -0.12891 -0.00804 0.31226
 H216 H -0.10124 0.00466 0.31442
 C217 C -0.14779 -0.02289 0.34607
 H218 H -0.13461 -0.02153 0.37416
 C219 C -0.17970 -0.02532 0.27309
 H220 H -0.19201 -0.02622 0.24465
 C221 C -0.19940 -0.04108 0.30622
 H222 H -0.22666 -0.05443 0.30302
 Zn223 Zn -0.11565 0.01151 0.23324
 N224 N -0.14495 -0.00942 0.27667
 C225 C -0.11491 0.07886 0.27351
 N226 N -0.09189 0.05560 0.25126
 C227 C -0.05516 0.06496 0.24151
 C228 C -0.04055 0.09952 0.25382
 C229 C -0.10142 0.11316 0.28676
 C230 C -0.06380 -0.04981 0.24308
 C231 C -0.04524 -0.08353 0.23161
 C232 C -0.05773 -0.06703 0.16396
 C233 C -0.07599 -0.03363 0.17669
 N234 N -0.07996 -0.02636 0.21581
 H235 H -0.14407 0.07082 0.28063
 H236 H -0.03750 0.04603 0.22363
 H237 H -0.01143 0.10706 0.24563
 H238 H -0.12005 0.13106 0.30486
 H239 H -0.06732 -0.04369 0.27400
 H240 H -0.03456 -0.10313 0.25378
 H241 H -0.05655 -0.07353 0.13295
 H242 H -0.08869 -0.01455 0.15539
 C243 C -0.18350 -0.03956 0.34328
 C244 C -0.18352 0.05042 0.12329
 C245 C -0.04308 -0.09289 0.19173
 C246 C -0.06412 0.12431 0.27620
 C247 C 0.35839 0.56279 0.71869
 H248 H 0.37921 0.58068 0.73112
 C249 C 0.33713 0.57747 0.68810
 H250 H 0.34251 0.60623 0.67689
 C251 C 0.32632 0.50384 0.71739
 H252 H 0.32226 0.47506 0.72878
 C253 C 0.30369 0.51779 0.68725
 H254 H 0.28229 0.49970 0.67576
 N255 N 0.35310 0.52638 0.73252
 C256 C 0.37484 0.46996 0.84466
 H257 H 0.40538 0.46637 0.84090
 C258 C 0.35528 0.45243 0.87657
 H259 H 0.37075 0.43500 0.89738
 C260 C 0.31707 0.49499 0.82061
 H261 H 0.30239 0.51113 0.79829
 C262 C 0.29623 0.47755 0.85210
 H263 H 0.26546 0.47976 0.85376
 Zn264 Zn 0.38509 0.50640 0.77216
 N265 N 0.35555 0.49005 0.81709
 C266 C 0.41593 0.55739 0.82418
 N267 N 0.41976 0.54443 0.78679
 C268 C 0.44483 0.56083 0.75978
 C269 C 0.46566 0.59277 0.76947
 C270 C 0.43628 0.58894 0.83509
 C271 C 0.38865 0.43084 0.75094
 C272 C 0.40288 0.39813 0.73286
 C273 C 0.46307 0.42984 0.72049
 C274 C 0.44768 0.46207 0.73908
 N275 N 0.41058 0.46243 0.75254
 H276 H 0.39549 0.54473 0.84512
 H277 H 0.44676 0.55080 0.72993
 H278 H 0.48367 0.60716 0.74718
 H279 H 0.43137 0.60025 0.86428
 H280 H 0.35960 0.43139 0.76281
 H281 H 0.38452 0.37386 0.72994
 H282 H 0.49188 0.43039 0.70776
 H283 H 0.46498 0.48704 0.74133
 C284 C 0.31551 0.45526 0.87979
 C285 C 0.30884 0.55520 0.67250
 C286 C 0.44006 0.39796 0.71647
 C287 C 0.46059 0.60748 0.80727
 C288 C 0.67548 0.97523 0.69930
 H289 H 0.68079 0.96280 0.72802
 C290 C 0.69691 0.96323 0.66613
 H291 H 0.71861 0.94128 0.66929
 C292 C 0.63836 1.01641 0.65951
 H293 H 0.61458 1.03598 0.65679
 C294 C 0.65891 1.00508 0.62565
 H295 H 0.65090 1.01604 0.59707
 N296 N 0.64636 1.00078 0.69529
 C297 C 0.61860 1.02858 0.81738
 H298 H 0.58987 1.01778 0.81993
 C299 C 0.63472 1.04392 0.85004
 H300 H 0.61822 1.04499 0.87772
 C301 C 0.67435 1.04153 0.77752
 H302 H 0.68938 1.04080 0.74907
 C303 C 0.69095 1.05865 0.80897
 H304 H 0.71919 1.07056 0.80473
 Zn305 Zn 0.61271 1.00972 0.73913
 N306 N 0.63856 1.02749 0.78216
 C307 C 0.60558 0.94324 0.78505
 N308 N 0.58995 0.96243 0.75430
 C309 C 0.56116 0.94702 0.73470
 C310 C 0.54467 0.91269 0.74840
 C311 C 0.59023 0.90900 0.79947
 C312 C 0.59606 1.08373 0.72021
 C313 C 0.57609 1.11610 0.70805
 C314 C 0.51899 1.07847 0.70835
 C315 C 0.54007 1.04670 0.72142
 N316 N 0.57820 1.04970 0.72595
 H317 H 0.63001 0.95453 0.79871
 H318 H 0.55070 0.96147 0.70882
 H319 H 0.52066 0.90130 0.73389
 H320 H 0.60201 0.89482 0.82494
 H321 H 0.62633 1.08545 0.72411
 H322 H 0.59111 1.14268 0.70270
 H323 H 0.48910 1.07546 0.70287
 H324 H 0.52606 1.01974 0.72693
 C325 C 0.67068 1.06071 0.84558
 C326 C 0.68795 0.97756 0.62875
 C327 C 0.53724 1.11363 0.70130
 C328 C 0.55892 0.89399 0.78169
 C329 C 0.07156 0.14091 -0.14886
 H330 H 0.08138 0.14479 -0.11957
 C331 C 0.07957 0.10680 -0.16799
 H332 H 0.09649 0.08488 -0.15375
 C333 C 0.03690 0.16440 -0.20275
 H334 H 0.01988 0.18669 -0.21598
 C335 C 0.04391 0.13043 -0.22277
 H336 H 0.03249 0.12691 -0.25148
 N337 N 0.05007 0.16864 -0.16609
 C338 C 0.03261 0.28777 -0.15842
 H339 H 0.05850 0.29036 -0.14289
 C340 C 0.01387 0.32088 -0.17148
 H341 H 0.02563 0.34863 -0.16627
 C342 C -0.01678 0.24922 -0.18030
 H343 H -0.02970 0.22145 -0.18157
 C344 C -0.03632 0.28149 -0.19387
 H345 H -0.06392 0.27838 -0.20623
 Zn346 Zn 0.03415 0.20952 -0.13337
 N347 N 0.01664 0.25288 -0.16222
 C348 C 0.10793 0.23362 -0.12260
 N349 N 0.07497 0.22332 -0.10285
 C350 C 0.07085 0.22512 -0.06294
 C351 C 0.09970 0.24052 -0.04160
 C352 C 0.13746 0.24914 -0.10243
 C353 C -0.02811 0.21877 -0.07842
 C354 C -0.06474 0.21010 -0.06304
 C355 C -0.05892 0.14890 -0.09399
 C356 C -0.02235 0.15827 -0.10772
 N357 N -0.00838 0.19340 -0.10145
 H358 H 0.11039 0.23163 -0.15432
 H359 H 0.04462 0.21625 -0.04783
 H360 H 0.09543 0.24410 -0.01015
 H361 H 0.16268 0.25950 -0.11862
 H362 H -0.01651 0.24677 -0.07426
 H363 H -0.08072 0.23180 -0.04701
 H364 H -0.06958 0.12092 -0.10030
 H365 H -0.00625 0.13823 -0.12564
 C366 C -0.02160 0.31782 -0.18812
 C367 C 0.06456 0.10075 -0.20480
 C368 C -0.08194 0.17594 -0.07370
 C369 C 0.13286 0.25362 -0.06171
 C370 C 0.52357 0.18426 0.16097
 H371 H 0.54993 0.18318 0.14339
 C372 C 0.50752 0.15030 0.17590
 H373 H 0.52192 0.12334 0.17027
 C374 C 0.47050 0.21988 0.18627
 H375 H 0.45524 0.24683 0.18817
 C376 C 0.45349 0.18661 0.20175
 H377 H 0.42537 0.18813 0.21610
 N378 N 0.50448 0.21802 0.16554
 C379 C 0.54847 0.33256 0.14186
 H380 H 0.55650 0.32884 0.11109
 C381 C 0.55536 0.36711 0.15941
 H382 H 0.56945 0.38980 0.14231
 C383 C 0.52012 0.30751 0.20160
 H384 H 0.50620 0.28424 0.21776
 C385 C 0.52619 0.34188 0.22028
 H386 H 0.51712 0.34492 0.25093
 Zn387 Zn 0.51869 0.26094 0.13361
 N388 N 0.53068 0.30385 0.16286
 C389 C 0.45960 0.30850 0.10724
 N390 N 0.47556 0.27305 0.10441
 C391 C 0.45796 0.24461 0.08592
 C392 C 0.42245 0.25122 0.06994
 C393 C 0.42433 0.31630 0.09170
 C394 C 0.59565 0.24508 0.11843
 C395 C 0.62842 0.23398 0.09674
 C396 C 0.59120 0.23177 0.03882
 C397 C 0.55915 0.24332 0.06154
 N398 N 0.56179 0.24879 0.10078
 H399 H 0.47345 0.33049 0.12278
 H400 H 0.47085 0.21642 0.08493
 H401 H 0.40829 0.22840 0.05574
 H402 H 0.41161 0.34447 0.09465
 H403 H 0.59688 0.24977 0.14967
 H404 H 0.65490 0.22957 0.11136
 H405 H 0.58860 0.22570 0.00799
 H406 H 0.53203 0.24674 0.04809
 C407 C 0.54321 0.37238 0.19873
 C408 C 0.47168 0.15127 0.19570
 C409 C 0.62611 0.22665 0.05667
 C410 C 0.40515 0.28728 0.07352
 C411 C 0.92600 0.65129 0.64100
 H412 H 0.90629 0.66447 0.62127
 C413 C 0.91757 0.61533 0.65759
 H414 H 0.89092 0.60191 0.65164
 C415 C 0.98529 0.65117 0.67127
 H416 H 1.01245 0.66429 0.67503
 C417 C 0.97775 0.61528 0.68890
 H418 H 0.99848 0.60169 0.70742
 N419 N 0.95910 0.66897 0.64858
 C420 C 0.97534 0.79316 0.64015
 H421 H 0.95756 0.79679 0.61524
 C422 C 0.99421 0.82485 0.65338
 H423 H 0.99023 0.85246 0.63897
 C424 C 1.00614 0.75240 0.68573
 H425 H 1.01227 0.72410 0.69708
 C426 C 1.02523 0.78352 0.70024
 H427 H 1.04554 0.77883 0.72292
 Zn428 Zn 0.97061 0.71666 0.62175
 N429 N 0.98282 0.75747 0.65509
 C430 C 0.89521 0.73914 0.61454
 N431 N 0.92842 0.73355 0.59326
 C432 C 0.93215 0.74413 0.55451
 C433 C 0.90174 0.76198 0.53596
 C434 C 0.86380 0.75552 0.59685
 C435 C 1.04268 0.73410 0.58649
 C436 C 1.07785 0.72513 0.56819
 C437 C 1.05269 0.66418 0.55104
 C438 C 1.01785 0.67438 0.56953
 N439 N 1.01388 0.70839 0.58776
 H440 H 0.89344 0.73150 0.64561
 H441 H 0.95924 0.74050 0.53859
 H442 H 0.90569 0.77226 0.50574
 H443 H 0.83765 0.75987 0.61434
 H444 H 1.03915 0.76086 0.60131
 H445 H 1.10119 0.74490 0.56938
 H446 H 1.05631 0.63617 0.53854
 H447 H 0.99471 0.65427 0.57142
 C448 C 1.02102 0.81979 0.68223
 C449 C 0.94355 0.59703 0.68191
 C450 C 1.08335 0.68944 0.55112
 C451 C 0.86696 0.76774 0.55722
 C452 C 0.51155 0.73298 0.34018
 H453 H 0.52434 0.75938 0.32937
 C454 C 0.52334 0.69840 0.32396
 H455 H 0.54499 0.69825 0.30022
 C456 C 0.46934 0.70069 0.38582
 H457 H 0.44929 0.70155 0.41085
 C458 C 0.48091 0.66541 0.37099
 H459 H 0.46961 0.63939 0.38462
 N460 N 0.48491 0.73354 0.37044
 C461 C 0.44818 0.85283 0.37411
 H462 H 0.45124 0.85789 0.40505
 C463 C 0.43482 0.88196 0.34959
 H464 H 0.42783 0.90957 0.36184
 C465 C 0.45217 0.81015 0.32107
 H466 H 0.45853 0.78199 0.31020
 C467 C 0.43772 0.83817 0.29569
 H468 H 0.43398 0.83163 0.26515
 Zn469 Zn 0.47437 0.78033 0.39540
 N470 N 0.45734 0.81803 0.35942
 C471 C 0.53392 0.83066 0.41251
 N472 N 0.51995 0.79479 0.41795
 C473 C 0.54015 0.76686 0.43655
 C474 C 0.57610 0.77446 0.45013
 C475 C 0.56905 0.83978 0.42678
 C476 C 0.40066 0.76512 0.41866
 C477 C 0.37107 0.75095 0.44305
 C478 C 0.41096 0.75617 0.49876
 C479 C 0.44011 0.77017 0.47306
 N480 N 0.43483 0.77260 0.43366
 H481 H 0.51843 0.85220 0.39647
 H482 H 0.52882 0.73831 0.43964
 H483 H 0.59254 0.75167 0.46355
 H484 H 0.57973 0.86852 0.42233
 H485 H 0.39745 0.76736 0.38718
 H486 H 0.34514 0.74186 0.43022
 H487 H 0.41618 0.75109 0.52961
 H488 H 0.46762 0.77639 0.48415
 C489 C 0.42849 0.87454 0.31005
 C490 C 0.50818 0.66408 0.33965
 C491 C 0.37685 0.74452 0.48313
 C492 C 0.59062 0.81150 0.44574
 Si493 Si 0.36611 0.01235 0.21836
 Si494 Si 0.12715 0.95366 0.71936
 Si495 Si 0.59165 0.52241 0.27372
 Si496 Si 0.87376 0.45587 0.77000
 Si497 Si 0.25266 0.35061 0.01579
 Si498 Si 0.75561 0.13105 0.97725
 Si499 Si 0.24943 0.63254 0.52257
 Si500 Si 0.74379 0.87689 0.49070
 Si501 Si -0.01594 0.26322 0.36931
 Si502 Si 0.99860 0.74359 0.13716
 Si503 Si 0.47171 0.25661 0.61527
 Si504 Si 0.50953 0.75503 0.88328
 C505 C 0.37924 -0.10045 0.26557
 C506 C 0.41353 -0.09647 0.28570
 C507 C 0.43254 -0.06154 0.28308
 C508 C 0.41877 -0.03099 0.26104
 C509 C 0.38415 -0.03310 0.24266
 C510 C 0.36424 -0.06841 0.24417
 C511 C 0.35781 -0.13446 0.26882
 C512 C 0.32373 -0.13761 0.24998
 C513 C 0.30942 -0.10672 0.22874
 C514 C 0.32898 -0.07239 0.22635
 H515 H 0.36644 -0.15876 0.28656
 H516 H 0.30790 -0.16394 0.25259
 H517 H 0.28249 -0.10904 0.21484
 H518 H 0.31515 -0.04896 0.21161
 H519 H 0.45898 -0.05803 0.29772
 H520 H 0.43535 -0.00523 0.25928
 C521 C 0.92066 0.35855 0.82927
 C522 C 0.95414 0.35208 0.80552
 C523 C 0.96357 0.37743 0.77432
 C524 C 0.93944 0.40793 0.76510
 C525 C 0.90437 0.41336 0.78575
 C526 C 0.89498 0.38860 0.81887
 C527 C 0.91213 0.33541 0.86317
 C528 C 0.87830 0.34048 0.88541
 C529 C 0.85211 0.36813 0.87405
 C530 C 0.86005 0.39165 0.84108
 H531 H 0.93157 0.31330 0.87294
 H532 H 0.87209 0.32239 0.91116
 H533 H 0.82525 0.37114 0.89064
 H534 H 0.83759 0.41070 0.83239
 H535 H 0.98963 0.37327 0.75660
 H536 H 0.94850 0.42718 0.74131
 C537 C 0.06327 1.02804 0.79406
 C538 C 0.07162 1.06384 0.77534
 C539 C 0.08998 1.06466 0.73803
 C540 C 0.10294 1.03119 0.72059
 C541 C 0.09835 0.99545 0.73984
 C542 C 0.07721 0.99360 0.77660
 C543 C 0.04126 1.02579 0.82986
 C544 C 0.03435 0.99072 0.84894
 C545 C 0.04887 0.95727 0.83268
 C546 C 0.06994 0.95855 0.79694
 H547 H 0.02881 1.05101 0.84319
 H548 H 0.01754 0.98948 0.87643
 H549 H 0.04342 0.93009 0.84764
 H550 H 0.07975 0.93165 0.78539
 H551 H 0.09639 1.09172 0.72315
 H552 H 0.11924 1.03420 0.69307
 C553 C 0.50198 0.59747 0.31173
 C554 C 0.52427 0.62708 0.32620
 C555 C 0.56351 0.62158 0.32866
 C556 C 0.58121 0.58856 0.31526
 C557 C 0.56044 0.55938 0.29913
 C558 C 0.52001 0.56262 0.29950
 C559 C 0.46234 0.60209 0.30811
 C560 C 0.44054 0.57241 0.29509
 C561 C 0.45770 0.53771 0.28549
 C562 C 0.49694 0.53279 0.28771
 H563 H 0.44782 0.62864 0.31500
 H564 H 0.41012 0.57625 0.29276
 H565 H 0.44053 0.51448 0.27613
 H566 H 0.50849 0.50514 0.28100
 H567 H 0.58089 0.64359 0.34029
 H568 H 0.61197 0.58679 0.31587
 C569 C 0.53611 0.44464 0.20208
 C570 C 0.54978 0.40929 0.21747
 C571 C 0.57273 0.40900 0.24986
 C572 C 0.58341 0.44285 0.26632
 C573 C 0.57119 0.47850 0.25150
 C574 C 0.54755 0.47954 0.21858
 C575 C 0.51094 0.44602 0.17085
 C576 C 0.49847 0.48086 0.15516
 C577 C 0.51048 0.51488 0.17038
 C578 C 0.53463 0.51430 0.20175
 H579 H 0.50031 0.42027 0.15858
 H580 H 0.47927 0.48146 0.13115
 H581 H 0.50064 0.54189 0.15817
 H582 H 0.54217 0.54133 0.21313
 H583 H 0.58376 0.38226 0.26166
 H584 H 0.60268 0.44054 0.29004
 C585 C 0.08750 0.84741 0.68091
 C586 C 0.04777 0.85105 0.68963
 C587 C 0.03308 0.88569 0.70369
 C588 C 0.05708 0.91585 0.71099
 C589 C 0.09672 0.91212 0.70565
 C590 C 0.11223 0.87773 0.68972
 C591 C 0.10314 0.81456 0.66260
 C592 C 0.14221 0.81076 0.65490
 C593 C 0.16647 0.83955 0.66493
 C594 C 0.15175 0.87265 0.68198
 H595 H 0.08547 0.79172 0.65344
 H596 H 0.15371 0.78537 0.64104
 H597 H 0.19686 0.83641 0.65911
 H598 H 0.17182 0.89396 0.68887
 H599 H 0.00267 0.88937 0.70920
 H600 H 0.04432 0.94216 0.72143
 C601 C 0.92956 0.52581 0.68124
 C602 C 0.93350 0.56009 0.70183
 C603 C 0.92417 0.56049 0.74209
 C604 C 0.90887 0.52856 0.76171
 C605 C 0.90316 0.49430 0.74229
 C606 C 0.91476 0.49248 0.70158
 C607 C 0.93988 0.52409 0.64072
 C608 C 0.93559 0.49050 0.62039
 C609 C 0.92133 0.45802 0.63999
 C610 C 0.91118 0.45882 0.68010
 H611 H 0.95151 0.54860 0.62450
 H612 H 0.94357 0.48961 0.58928
 H613 H 0.91828 0.43195 0.62408
 H614 H 0.90101 0.43258 0.69391
 H615 H 0.92678 0.58658 0.75816
 H616 H 0.90006 0.53204 0.79210
 C617 C 0.43771 0.10426 0.24324
 C618 C 0.45077 0.11542 0.20467
 C619 C 0.44133 0.09352 0.17282
 C620 C 0.41781 0.06209 0.17820
 C621 C 0.40339 0.05084 0.21575
 C622 C 0.41414 0.07150 0.24903
 C623 C 0.44776 0.12498 0.27619
 C624 C 0.43456 0.11410 0.31405
 C625 C 0.41165 0.08221 0.31988
 C626 C 0.40173 0.06094 0.28791
 H627 H 0.46607 0.14956 0.27302
 H628 H 0.44240 0.13032 0.33904
 H629 H 0.40175 0.07368 0.34940
 H630 H 0.38481 0.03592 0.29434
 H631 H 0.45087 0.10191 0.14311
 H632 H 0.40988 0.04745 0.15228
 C633 C 0.29472 0.39009 -0.09655
 C634 C 0.29474 0.43000 -0.09146
 C635 C 0.27915 0.44522 -0.05665
 C636 C 0.26542 0.42128 -0.02594
 C637 C 0.26785 0.38141 -0.02871
 C638 C 0.28225 0.36542 -0.06475
 C639 C 0.30782 0.37423 -0.13262
 C640 C 0.30985 0.33486 -0.13694
 C641 C 0.29943 0.31060 -0.10544
 C642 C 0.28609 0.32555 -0.06974
 H643 H 0.31650 0.39210 -0.15782
 H644 H 0.32005 0.32314 -0.16468
 H645 H 0.30189 0.27998 -0.10858
 H646 H 0.27993 0.30527 -0.04617
 H647 H 0.27880 0.47582 -0.05272
 H648 H 0.25365 0.43430 0.00044
 C649 C 0.75998 0.95358 0.39265
 C650 C 0.79716 0.94286 0.37888
 C651 C 0.81709 0.91463 0.39958
 C652 C 0.80068 0.89631 0.43273
 C653 C 0.76332 0.90477 0.44608
 C654 C 0.74259 0.93400 0.42610
 C655 C 0.73999 0.98395 0.37444
 C656 C 0.70319 0.99385 0.38766
 C657 C 0.68567 0.97395 0.41928
 C658 C 0.70505 0.94446 0.43839
 H659 H 0.75267 1.00064 0.35017
 H660 H 0.68817 1.01707 0.37328
 H661 H 0.65694 0.98154 0.42924
 H662 H 0.68996 0.92995 0.46249
 H663 H 0.84576 0.90647 0.38981
 H664 H 0.81774 0.87525 0.44785
 C665 C 0.80537 0.04633 1.05101
 C666 C 0.79912 0.06339 1.08852
 C667 C 0.77649 0.09658 1.09083
 C668 C 0.76131 0.11352 1.05774
 C669 C 0.76727 0.09804 1.02036
 C670 C 0.78849 0.06333 1.01702
 C671 C 0.83072 0.01498 1.04547
 C672 C 0.83665 -0.00120 1.00867
 C673 C 0.81828 0.01385 0.97638
 C674 C 0.79478 0.04590 0.98040
 H675 H 0.84721 0.00316 1.06892
 H676 H 0.85586 -0.02539 1.00514
 H677 H 0.82279 0.00103 0.94789
 H678 H 0.78145 0.05654 0.95459
 H679 H 0.77081 0.11021 1.11880
 H680 H 0.74647 0.14038 1.06189
 C681 C 0.26892 0.60819 0.64248
 C682 C 0.28575 0.57132 0.64029
 C683 C 0.28416 0.55136 0.60522
 C684 C 0.26977 0.56877 0.57155
 C685 C 0.25822 0.60722 0.57135
 C686 C 0.25642 0.62697 0.60763
 C687 C 0.26438 0.62679 0.67884
 C688 C 0.24988 0.66388 0.68067
 C689 C 0.23943 0.68306 0.64652
 C690 C 0.24254 0.66497 0.61048
 H691 H 0.27152 0.61264 0.70624
 H692 H 0.24677 0.67780 0.70871
 H693 H 0.22834 0.71199 0.64800
 H694 H 0.23327 0.68125 0.58541
 H695 H 0.29611 0.52279 0.60320
 H696 H 0.27042 0.55271 0.54479
 C697 C 0.24950 0.59107 0.40528
 C698 C 0.22395 0.56040 0.41182
 C699 C 0.21159 0.55028 0.45027
 C700 C 0.22291 0.57079 0.48214
 C701 C 0.24698 0.60233 0.47702
 C702 C 0.26105 0.61255 0.43784
 C703 C 0.26219 0.60209 0.36654
 C704 C 0.28632 0.63287 0.35965
 C705 C 0.29756 0.65389 0.39091
 C706 C 0.28483 0.64425 0.42922
 H707 H 0.25347 0.58741 0.34098
 H708 H 0.29587 0.64078 0.32985
 H709 H 0.31583 0.67830 0.38543
 H710 H 0.29359 0.66299 0.45090
 H711 H 0.19157 0.52723 0.45553
 H712 H 0.21081 0.56298 0.51108
 C713 C 0.69874 0.11845 0.87203
 C714 C 0.68566 0.08032 0.87678
 C715 C 0.68860 0.06128 0.91340
 C716 C 0.70834 0.07738 0.94329
 C717 C 0.72499 0.11328 0.93784
 C718 C 0.71843 0.13513 0.90279
 C719 C 0.69102 0.14101 0.83807
 C720 C 0.70431 0.17819 0.83348
 C721 C 0.72499 0.19392 0.86269
 C722 C 0.73184 0.17284 0.89698
 H723 H 0.67396 0.13055 0.81508
 H724 H 0.69835 0.19493 0.80721
 H725 H 0.73546 0.22278 0.85899
 H726 H 0.74781 0.18660 0.91853
 H727 H 0.67776 0.03261 0.91808
 H728 H 0.71159 0.06109 0.97046
 C729 C 0.74246 0.95936 0.58039
 C730 C 0.70354 0.95865 0.59300
 C731 C 0.67810 0.93775 0.57206
 C732 C 0.69081 0.91562 0.54087
 C733 C 0.72958 0.91301 0.52945
 C734 C 0.75557 0.93695 0.54780
 C735 C 0.76849 0.98223 0.59918
 C736 C 0.80664 0.98331 0.58611
 C737 C 0.81945 0.96183 0.55416
 C738 C 0.79430 0.93893 0.53508
 H739 H 0.75947 0.99973 0.62375
 H740 H 0.82634 1.00105 0.60072
 H741 H 0.84909 0.96289 0.54410
 H742 H 0.80567 0.92277 0.51056
 H743 H 0.64805 0.93759 0.58077
 H744 H 0.66959 0.90026 0.52600
 C745 C 0.19360 0.40019 0.11530
 C746 C 0.22117 0.42672 0.12582
 C747 C 0.25600 0.42869 0.10457
 C748 C 0.26372 0.40514 0.07272
 C749 C 0.23701 0.37874 0.06093
 C750 C 0.20198 0.37480 0.08378
 C751 C 0.15791 0.39805 0.13624
 C752 C 0.13164 0.37049 0.12775
 C753 C 0.14060 0.34413 0.09894
 C754 C 0.17535 0.34592 0.07759
 H755 H 0.14999 0.41750 0.15951
 H756 H 0.10456 0.36906 0.14420
 H757 H 0.12065 0.32184 0.09333
 H758 H 0.18096 0.32325 0.05780
 H759 H 0.27742 0.44858 0.11276
 H760 H 0.29109 0.40778 0.05693
 C761 C -0.08462 0.31319 0.45987
 C762 C -0.12086 0.29950 0.45085
 C763 C -0.12318 0.27034 0.42376
 C764 C -0.09082 0.25758 0.40266
 C765 C -0.05535 0.27445 0.40696
 C766 C -0.05167 0.30156 0.43707
 C767 C -0.08069 0.33893 0.49069
 C768 C -0.04547 0.35451 0.49762
 C769 C -0.01366 0.34495 0.47399
 C770 C -0.01663 0.31892 0.44400
 H771 H -0.10476 0.34701 0.50980
 H772 H -0.04293 0.37441 0.52117
 H773 H 0.01353 0.35772 0.47894
 H774 H 0.00876 0.31330 0.42626
 H775 H -0.15058 0.25897 0.41708
 H776 H -0.09423 0.23586 0.38118
 C777 C 0.43381 0.79901 0.97038
 C778 C 0.40163 0.77654 0.96406
 C779 C 0.40620 0.74277 0.94339
 C780 C 0.44092 0.73386 0.92435
 C781 C 0.47151 0.75919 0.92433
 C782 C 0.46951 0.78968 0.95120
 C783 C 0.43069 0.83179 0.99363
 C784 C 0.46229 0.85450 0.99857
 C785 C 0.49735 0.84501 0.98054
 C786 C 0.50097 0.81302 0.95705
 H787 H 0.40391 0.83993 1.00825
 H788 H 0.45959 0.87956 1.01646
 H789 H 0.52184 0.86265 0.98461
 H790 H 0.52858 0.80676 0.94388
 H791 H 0.38189 0.72491 0.93903
 H792 H 0.44247 0.70847 0.90702
 C793 C 1.06618 0.79304 0.04330
 C794 C 1.10282 0.77924 0.05298
 C795 C 1.10565 0.75063 0.08214
 C796 C 1.07364 0.73812 0.10398
 C797 C 1.03750 0.75424 0.09818
 C798 C 1.03339 0.78145 0.06679
 C799 C 1.06148 0.81826 0.01074
 C800 C 1.02579 0.83343 0.00270
 C801 C 0.99411 0.82364 0.02665
 C802 C 0.99772 0.79793 0.05828
 H803 H 1.08526 0.82610 -0.00903
 H804 H 1.02269 0.85291 -0.02223
 H805 H 0.96646 0.83567 0.02041
 H806 H 0.97208 0.79087 0.07535
 H807 H 1.13327 0.73953 0.08997
 H808 H 1.07830 0.71782 0.12774
 C809 C 0.55869 0.28757 0.52758
 C810 C 0.58761 0.29811 0.55300
 C811 C 0.58065 0.29419 0.59367
 C812 C 0.54607 0.28114 0.60938
 C813 C 0.51605 0.27242 0.58545
 C814 C 0.52204 0.27624 0.54383
 C815 C 0.56552 0.28767 0.48633
 C816 C 0.53647 0.27956 0.46145
 C817 C 0.50019 0.27130 0.47708
 C818 C 0.49299 0.26970 0.51776
 H819 H 0.59339 0.29358 0.47295
 H820 H 0.54203 0.28010 0.42985
 H821 H 0.47748 0.26595 0.45758
 H822 H 0.46430 0.26435 0.52804
 H823 H 0.60197 0.30221 0.61384
 H824 H 0.54274 0.27842 0.64117
 C825 C 0.35930 0.23582 0.57686
 C826 C 0.36789 0.20642 0.54989
 C827 C 0.40529 0.19272 0.54535
 C828 C 0.43436 0.20845 0.56580
 C829 C 0.42759 0.23911 0.59103
 C830 C 0.38908 0.25193 0.59826
 C831 C 0.32124 0.24816 0.58449
 C832 C 0.31240 0.27586 0.61207
 C833 C 0.34091 0.29087 0.63360
 C834 C 0.37847 0.27864 0.62735
 H835 H 0.29768 0.23611 0.56998
 H836 H 0.28314 0.28498 0.61751
 H837 H 0.33377 0.31149 0.65602
 H838 H 0.39792 0.28938 0.64724
 H839 H 0.41206 0.16949 0.52570
 H840 H 0.46290 0.19690 0.56107
 C841 C 0.88865 0.69921 0.12192
 C842 C 0.89062 0.69184 0.08113
 C843 C 0.92444 0.69878 0.05902
 C844 C 0.95592 0.71378 0.07642
 C845 C 0.95454 0.72276 0.11643
 C846 C 0.92087 0.71444 0.13987
 C847 C 0.85533 0.69125 0.14536
 C848 C 0.85366 0.69804 0.18559
 C849 C 0.88502 0.71272 0.20323
 C850 C 0.91825 0.72080 0.18079
 H851 H 0.83035 0.67957 0.13288
 H852 H 0.82794 0.69178 0.20319
 H853 H 0.88360 0.71790 0.23452
 H854 H 0.94157 0.73219 0.19599
 H855 H 0.92651 0.69242 0.02797
 H856 H 0.98162 0.71821 0.05825
 C857 C 0.62318 0.74759 0.92328
 C858 C 0.62169 0.71111 0.94205
 C859 C 0.58692 0.69230 0.94661
 C860 C 0.55420 0.70803 0.93097
 C861 C 0.55508 0.74276 0.90944
 C862 C 0.58937 0.76439 0.90817
 C863 C 0.65766 0.76787 0.91966
 C864 C 0.65868 0.80472 0.90334
 C865 C 0.62540 0.82225 0.89121
 C866 C 0.59112 0.80260 0.89399
 H867 H 0.68397 0.75561 0.92983
 H868 H 0.68523 0.82012 0.90106
 H869 H 0.62603 0.85149 0.88010
 H870 H 0.56612 0.81869 0.88696
 H871 H 0.58528 0.66471 0.96173
 H872 H 0.52816 0.69180 0.93416
 C873 C 0.05659 0.19511 0.43966
 C874 C 0.09132 0.21518 0.43402
 C875 C 0.09177 0.25007 0.41323
 C876 C 0.05925 0.26440 0.39626
 C877 C 0.02490 0.24438 0.39917
 C878 C 0.02287 0.21028 0.42294
 C879 C 0.05489 0.15951 0.46019
 C880 C 0.02064 0.14012 0.46568
 C881 C -0.01242 0.15538 0.45047
 C882 C -0.01142 0.18989 0.42916
 H883 H 0.07987 0.14606 0.47197
 H884 H 0.01979 0.11299 0.48168
 H885 H -0.03893 0.14011 0.45471
 H886 H -0.03772 0.19980 0.41723
 H887 H 0.11797 0.26596 0.40916
 H888 H 0.06152 0.29151 0.38063
 C889 C 0.48488 0.16521 0.69925
 C890 C 0.51778 0.14684 0.68260
 C891 C 0.53389 0.16078 0.64679
 C892 C 0.51910 0.19289 0.62807
 C893 C 0.48761 0.21284 0.64434
 C894 C 0.46901 0.19785 0.67939
 C895 C 0.46773 0.15235 0.73546
 C896 C 0.43469 0.16984 0.75088
 C897 C 0.41827 0.20046 0.73074
 C898 C 0.43519 0.21437 0.69542
 H899 H 0.47966 0.12884 0.75224
 H900 H 0.42168 0.15951 0.77856
 H901 H 0.39245 0.21375 0.74272
 H902 H 0.42158 0.23821 0.68111
 H903 H 0.55849 0.14662 0.63308
 H904 H 0.53265 0.20170 0.60017
 C905 C 1.04360 0.67390 0.22928
 C906 C 1.05327 0.64099 0.20745
 C907 C 1.04196 0.63869 0.16880
 C908 C 1.02369 0.66927 0.15064
 C909 C 1.01594 0.70339 0.17037
 C910 C 1.02375 0.70505 0.21102
 C911 C 1.05257 0.67610 0.26919
 C912 C 1.04176 0.70789 0.29098
 C913 C 1.02127 0.73759 0.27373
 C914 C 1.01203 0.73608 0.23437
 H915 H 1.06754 0.65312 0.28399
 H916 H 1.04870 0.70917 0.32161
 H917 H 1.01212 0.76180 0.29108
 H918 H 0.99465 0.75889 0.22326
 H919 H 1.04859 0.61340 0.15198
 H920 H 1.01717 0.66673 0.11998
 C921 C 1.00710 0.85419 0.18438
 C922 C 0.96967 0.86845 0.17968
 C923 C 0.94264 0.84499 0.16399
 C924 C 0.95184 0.80796 0.15312
 C925 C 0.98840 0.79260 0.15774
 C926 C 1.01658 0.81593 0.17360
 C927 C 1.03553 0.87745 0.19883
 C928 C 1.07227 0.86323 0.20353
 C929 C 1.08136 0.82574 0.19401
 C930 C 1.05395 0.80229 0.17925
 H931 H 1.02973 0.90684 0.20632
 H932 H 1.09377 0.88135 0.21474
 H933 H 1.10985 0.81472 0.19811
 H934 H 1.06232 0.77328 0.17317
 H935 H 0.91389 0.85551 0.16012
 H936 H 0.93001 0.79174 0.14006
 C937 C 0.44608 0.36945 0.64942
 C938 C 0.45213 0.36680 0.69025
 C939 C 0.46598 0.33277 0.70685
 C940 C 0.47276 0.30090 0.68380
 C941 C 0.46481 0.30181 0.64376
 C942 C 0.45251 0.33681 0.62585
 C943 C 0.43272 0.40376 0.63174
 C944 C 0.42600 0.40596 0.59170
 C945 C 0.43207 0.37412 0.56862
 C946 C 0.44497 0.33991 0.58540
 H947 H 0.42733 0.42917 0.64862
 H948 H 0.41583 0.43243 0.57857
 H949 H 0.42649 0.37583 0.53757
 H950 H 0.44833 0.31607 0.56627
 H951 H 0.47081 0.33066 0.73808
 H952 H 0.48381 0.27523 0.69767
 C953 C 0.45100 0.67821 0.81367
 C954 C 0.47484 0.64555 0.81630
 C955 C 0.51063 0.64852 0.83196
 C956 C 0.52172 0.68255 0.84818
 C957 C 0.49682 0.71418 0.85055
 C958 C 0.46214 0.71296 0.83043
 C959 C 0.41579 0.67666 0.79533
 C960 C 0.39213 0.70873 0.79316
 C961 C 0.40303 0.74279 0.80909
 C962 C 0.43754 0.74491 0.82743
 H963 H 0.40637 0.65079 0.78224
 H964 H 0.36530 0.70718 0.77893
 H965 H 0.38467 0.76776 0.80723
 H966 H 0.44459 0.77188 0.83877
 H967 H 0.52946 0.62384 0.83320
 H968 H 0.54957 0.68329 0.86015
 C969 C -0.06976 0.19606 0.28601
 C970 C -0.04980 0.16088 0.29068
 C971 C -0.01721 0.15977 0.31267
 C972 C -0.00647 0.19150 0.33304
 C973 C -0.02866 0.22511 0.33355
 C974 C -0.05927 0.22840 0.30768
 C975 C -0.09963 0.19989 0.25975
 C976 C -0.11938 0.23437 0.25557
 C977 C -0.10954 0.26573 0.27701
 C978 C -0.07974 0.26290 0.30259
 H979 H -0.10750 0.17654 0.24169
 H980 H -0.14223 0.23687 0.23535
 H981 H -0.12483 0.29253 0.27351
 H982 H -0.07276 0.28814 0.31777
 H983 H -0.00080 0.13354 0.31560
 H984 H 0.01896 0.18878 0.34947
 C985 C 0.00659 0.37593 0.32765
 C986 C 0.04181 0.36913 0.30707
 C987 C 0.05278 0.33178 0.29807
 C988 C 0.03174 0.30098 0.31336
 C989 C -0.00046 0.30667 0.33853
 C990 C -0.01567 0.34444 0.34220
 C991 C -0.00716 0.41355 0.33342
 C992 C -0.04261 0.42012 0.35210
 C993 C -0.06538 0.38953 0.36427
 C994 C -0.05241 0.35220 0.35882
 H995 H 0.00895 0.43816 0.32285
 H996 H -0.05291 0.44907 0.35615
 H997 H -0.09355 0.39471 0.37740
 H998 H -0.07250 0.33010 0.36606
 H999 H 0.07917 0.32635 0.28130
 H1000 H 0.04279 0.27241 0.30835
 C1001 C 0.50787 0.86500 0.82708
 C1002 C 0.53975 0.86063 0.80059
 C1003 C 0.55628 0.82456 0.79541
 C1004 C 0.54350 0.79332 0.81820
 C1005 C 0.51417 0.79725 0.84729
 C1006 C 0.49377 0.83275 0.84947
 C1007 C 0.49001 0.90104 0.83207
 C1008 C 0.45773 0.90500 0.85697
 C1009 C 0.44224 0.87317 0.87659
 C1010 C 0.45970 0.83748 0.87251
 H1011 H 0.50053 0.92640 0.81654
 H1012 H 0.44414 0.93270 0.86029
 H1013 H 0.41627 0.87602 0.89473
 H1014 H 0.44473 0.81380 0.88593
 H1015 H 0.58066 0.82100 0.77510
 H1016 H 0.55872 0.76640 0.81503
 C1017 C 0.64243 0.59116 0.17954
 C1018 C 0.66975 0.56465 0.16339
 C1019 C 0.67562 0.53017 0.18451
 C1020 C 0.65204 0.51985 0.21706
 C1021 C 0.62206 0.54351 0.23078
 C1022 C 0.61649 0.57959 0.21106
 C1023 C 0.64195 0.62995 0.16647
 C1024 C 0.61323 0.65492 0.17928
 C1025 C 0.58449 0.64190 0.20528
 C1026 C 0.58592 0.60474 0.22077
 H1027 H 0.66403 0.64140 0.14646
 H1028 H 0.61284 0.68421 0.16831
 H1029 H 0.56110 0.66077 0.21387
 H1030 H 0.56190 0.59640 0.23900
 H1031 H 0.69632 0.50919 0.17405
 H1032 H 0.65669 0.49211 0.23101
 C1033 C 0.20752 0.99491 0.63150
 C1034 C 0.18191 1.00994 0.60404
 C1035 C 0.14332 1.00121 0.60846
 C1036 C 0.12924 0.98103 0.64166
 C1037 C 0.15321 0.96924 0.67165
 C1038 C 0.19335 0.97309 0.66496
 C1039 C 0.24707 1.00096 0.62607
 C1040 C 0.27239 0.98490 0.65229
 C1041 C 0.25891 0.96200 0.68376
 C1042 C 0.21998 0.95577 0.68981
 H1043 H 0.25878 1.01763 0.60122
 H1044 H 0.30266 0.98958 0.64768
 H1045 H 0.27877 0.94863 0.70342
 H1046 H 0.21166 0.93619 0.71326
 H1047 H 0.12358 1.01203 0.58718
 H1048 H 0.09874 0.97709 0.64522
 C1049 C 0.20311 0.95255 0.81304
 C1050 C 0.19537 0.91584 0.83112
 C1051 C 0.17144 0.89131 0.81146
 C1052 C 0.15315 0.90311 0.77799
 C1053 C 0.15729 0.94004 0.76218
 C1054 C 0.18248 0.96534 0.77974
 C1055 C 0.23342 0.97540 0.82462
 C1056 C 0.23979 1.01158 0.80786
 C1057 C 0.21724 1.02536 0.77810
 C1058 C 0.18929 1.00242 0.76373
 H1059 H 0.25338 0.96514 0.84582
 H1060 H 0.26273 1.02877 0.81763
 H1061 H 0.22243 1.05342 0.76497
 H1062 H 0.17456 1.01361 0.73881
 H1063 H 0.16365 0.86346 0.82354
 H1064 H 0.13392 0.88326 0.76580
 C1065 C 0.62706 0.47499 0.38221
 C1066 C 0.66675 0.48145 0.37895
 C1067 C 0.68248 0.50106 0.34589
 C1068 C 0.65962 0.51365 0.31561
 C1069 C 0.62049 0.50615 0.31695
 C1070 C 0.60365 0.48750 0.35119
 C1071 C 0.61030 0.45543 0.41547
 C1072 C 0.57135 0.44868 0.41840
 C1073 C 0.54838 0.46095 0.38833
 C1074 C 0.56422 0.47998 0.35511
 H1075 H 0.62703 0.44515 0.43953
 H1076 H 0.55896 0.43371 0.44406
 H1077 H 0.51812 0.45546 0.39058
 H1078 H 0.54510 0.48806 0.33258
 H1079 H 0.71284 0.50611 0.34324
 H1080 H 0.67296 0.52917 0.29091
 C1081 C 0.80811 0.40417 0.68430
 C1082 C 0.79450 0.43728 0.66444
 C1083 C 0.79987 0.47310 0.68030
 C1084 C 0.81995 0.47668 0.71444
 C1085 C 0.83541 0.44464 0.73403
 C1086 C 0.82719 0.40767 0.72017
 C1087 C 0.80368 0.36749 0.66874
 C1088 C 0.81564 0.33485 0.68908
 C1089 C 0.83168 0.33803 0.72535
 C1090 C 0.83709 0.37392 0.74074
 H1091 H 0.79099 0.36354 0.64079
 H1092 H 0.81177 0.30695 0.67699
 H1093 H 0.83973 0.31256 0.74184
 H1094 H 0.84714 0.37451 0.76959
 H1095 H 0.78952 0.49862 0.66539
 H1096 H 0.82529 0.50517 0.72436
 C1097 C 0.35668 -0.04337 0.11170
 C1098 C 0.31834 -0.03440 0.10354
 C1099 C 0.29825 -0.00728 0.12598
 C1100 C 0.31463 0.00937 0.15769
 C1101 C 0.35170 -0.00049 0.16786
 C1102 C 0.37385 -0.02553 0.14354
 C1103 C 0.37782 -0.07102 0.09009
 C1104 C 0.41537 -0.07976 0.09859
 C1105 C 0.43260 -0.06132 0.12866
 C1106 C 0.41219 -0.03454 0.15099
 H1107 H 0.36564 -0.08641 0.06668
 H1108 H 0.43119 -0.10097 0.08177
 H1109 H 0.46189 -0.06799 0.13492
 H1110 H 0.42698 -0.02092 0.17385
 H1111 H 0.26890 -0.00038 0.12009
 H1112 H 0.29710 0.02818 0.17580
 C1113 C 0.29500 0.08754 0.28162
 C1114 C 0.28468 0.06383 0.31466
 C1115 C 0.29089 0.02452 0.31298
 C1116 C 0.31108 0.00895 0.28115
 C1117 C 0.32518 0.03209 0.24962
 C1118 C 0.31465 0.07139 0.24830
 C1119 C 0.28667 0.12704 0.28131
 C1120 C 0.29709 0.15015 0.24866
 C1121 C 0.31569 0.13436 0.21579
 C1122 C 0.32429 0.09539 0.21542
 H1123 H 0.27173 0.14021 0.30610
 H1124 H 0.29045 0.18041 0.24873
 H1125 H 0.32339 0.15238 0.19038
 H1126 H 0.33809 0.08430 0.18899
 H1127 H 0.28281 0.00608 0.33800
 H1128 H 0.31805 -0.02101 0.28332
 C1129 C 0.85763 0.50344 0.88329
 C1130 C 0.81846 0.51315 0.88362
 C1131 C 0.79705 0.50406 0.85161
 C1132 C 0.81414 0.48682 0.81870
 C1133 C 0.85331 0.47861 0.81646
 C1134 C 0.87549 0.48660 0.84935
 C1135 C 0.87948 0.51057 0.91610
 C1136 C 0.91828 0.50201 0.91536
 C1137 C 0.93610 0.48669 0.88193
 C1138 C 0.91517 0.47926 0.84921
 H1139 H 0.86673 0.52261 0.94266
 H1140 H 0.93467 0.50765 0.94071
 H1141 H 0.96640 0.48073 0.88121
 H1142 H 0.93088 0.46873 0.82373
 H1143 H 0.76702 0.51142 0.85163
 H1144 H 0.79645 0.48044 0.79460
 C1145 C 0.14544 0.69448 0.50949
 C1146 C 0.12236 0.67632 0.53951
 C1147 C 0.13731 0.64578 0.56125
 C1148 C 0.17481 0.63403 0.55498
 C1149 C 0.19928 0.65264 0.52711
 C1150 C 0.18412 0.68227 0.50283
 C1151 C 0.13057 0.72388 0.48532
 C1152 C 0.15317 0.74100 0.45523
 C1153 C 0.19072 0.72902 0.44851
 C1154 C 0.20603 0.69992 0.47189
 H1155 H 0.10128 0.73347 0.48911
 H1156 H 0.14140 0.76347 0.43684
 H1157 H 0.20810 0.74226 0.42495
 H1158 H 0.23506 0.69159 0.46539
 H1159 H 0.11992 0.63131 0.58406
 H1160 H 0.18449 0.60994 0.57252
 C1161 C 0.69131 0.22754 1.02056
 C1162 C 0.65844 0.20795 1.03526
 C1163 C 0.65613 0.16868 1.03090
 C1164 C 0.68594 0.14840 1.01315
 C1165 C 0.71932 0.16642 0.99839
 C1166 C 0.72191 0.20682 1.00126
 C1167 C 0.69407 0.26740 1.02418
 C1168 C 0.72599 0.28677 1.00880
 C1169 C 0.75539 0.26692 0.98927
 C1170 C 0.75335 0.22747 0.98537
 H1171 H 0.67148 0.28386 1.03863
 H1172 H 0.72775 0.31740 1.01164
 H1173 H 0.77983 0.28223 0.97678
 H1174 H 0.77614 0.21397 0.96884
 H1175 H 0.63120 0.15333 1.04220
 H1176 H 0.68287 0.11775 1.01170
 C1177 C 0.85755 0.15112 0.90661
 C1178 C 0.88034 0.16926 0.93414
 C1179 C 0.86355 0.17780 0.97126
 C1180 C 0.82709 0.16522 0.98253
 C1181 C 0.80510 0.14491 0.95696
 C1182 C 0.82161 0.13561 0.91910
 C1183 C 0.86885 0.15012 0.86602
 C1184 C 0.84898 0.12877 0.84006
 C1185 C 0.81771 0.10796 0.85395
 C1186 C 0.80443 0.11099 0.89299
 H1187 H 0.89305 0.16604 0.85395
 H1188 H 0.85850 0.12758 0.80937
 H1189 H 0.80333 0.08968 0.83432
 H1190 H 0.78145 0.09275 0.90181
 H1191 H 0.87958 0.19182 0.99308
 H1192 H 0.81585 0.17156 1.01189
 C1193 C 0.35940 0.67839 0.50651
 C1194 C 0.35081 0.71802 0.50501
 C1195 C 0.31386 0.73079 0.51499
 C1196 C 0.28473 0.70489 0.52355
 C1197 C 0.29144 0.66551 0.52107
 C1198 C 0.32953 0.65180 0.51422
 C1199 C 0.39675 0.66456 0.49766
 C1200 C 0.40458 0.62557 0.49647
 C1201 C 0.37542 0.59958 0.50314
 C1202 C 0.33834 0.61240 0.51141
 H1203 H 0.42034 0.68351 0.49134
 H1204 H 0.43332 0.61551 0.48968
 H1205 H 0.38143 0.56927 0.50130
 H1206 H 0.31692 0.59089 0.51435
 H1207 H 0.30700 0.76102 0.51352
 H1208 H 0.25628 0.71599 0.52951
 C1209 C 0.64069 0.81593 0.49751
 C1210 C 0.62921 0.82080 0.45820
 C1211 C 0.65447 0.83702 0.42964
 C1212 C 0.68933 0.85095 0.43970
 C1213 C 0.70055 0.84884 0.47863
 C1214 C 0.67733 0.82876 0.50749
 C1215 C 0.61606 0.80023 0.52757
 C1216 C 0.62794 0.79517 0.56591
 C1217 C 0.66419 0.80613 0.57528
 C1218 C 0.68859 0.82297 0.54658
 H1219 H 0.58731 0.79210 0.52210
 H1220 H 0.60882 0.78284 0.58853
 H1221 H 0.67325 0.80217 0.60513
 H1222 H 0.71596 0.83182 0.55571
 H1223 H 0.64652 0.84018 0.39929
 H1224 H 0.70706 0.86447 0.41668
 C1225 C 0.15378 0.31754 -0.03941
 C1226 C 0.15962 0.27760 -0.04160
 C1227 C 0.19155 0.26051 -0.02526
 C1228 C 0.21822 0.28254 -0.00742
 C1229 C 0.21380 0.32231 -0.00558
 C1230 C 0.18081 0.34015 -0.02095
 C1231 C 0.12143 0.33546 -0.05530
 C1232 C 0.11549 0.37468 -0.05250
 C1233 C 0.14137 0.39675 -0.03375
 C1234 C 0.17358 0.37984 -0.01805
 H1235 H 0.10037 0.31938 -0.06988
 H1236 H 0.09053 0.38797 -0.06469
 H1237 H 0.13641 0.42717 -0.03122
 H1238 H 0.19212 0.39833 -0.00315
 H1239 H 0.19611 0.22993 -0.02685
 H1240 H 0.24301 0.26838 0.00410
 C1241 C 0.33297 0.28210 0.07617
 C1242 C 0.36738 0.29573 0.05786
 C1243 C 0.36606 0.32196 0.02645
 C1244 C 0.33161 0.33588 0.01372
 C1245 C 0.29676 0.32370 0.03133
 C1246 C 0.29730 0.29614 0.06281
 C1247 C 0.33326 0.25594 0.10847
 C1248 C 0.29930 0.24335 0.12689
 C1249 C 0.26458 0.25677 0.11380
 C1250 C 0.26350 0.28296 0.08227
 H1251 H 0.35962 0.24511 0.11986
 H1252 H 0.29994 0.22318 0.15155
 H1253 H 0.23829 0.24694 0.12827
 H1254 H 0.23597 0.29248 0.07333
 H1255 H 0.39219 0.33309 0.01266
 H1256 H 0.33307 0.35787 -0.00905
 C1257 C 0.82095 0.78330 0.50262
 C1258 C 0.83550 0.79045 0.53994
 C1259 C 0.82053 0.82108 0.56154
 C1260 C 0.79278 0.84510 0.54661
 C1261 C 0.77990 0.84075 0.50868
 C1262 C 0.79369 0.80917 0.48636
 C1263 C 0.83222 0.75057 0.48147
 C1264 C 0.81870 0.74439 0.44432
 C1265 C 0.79359 0.77042 0.42764
 C1266 C 0.78109 0.80239 0.44833
 H1267 H 0.85107 0.72916 0.49360
 H1268 H 0.82778 0.71927 0.42838
 H1269 H 0.78347 0.76567 0.39860
 H1270 H 0.76179 0.82163 0.43389
 H1271 H 0.83077 0.82690 0.59033
 H1272 H 0.78157 0.86733 0.56533
   
