data_POSCAR
  _audit_creation_date              2014-09-24
  _audit_creation_method            'ToBaCCo'
  _symmetry_space_group_name_H-M    'P1'
  _symmetry_Int_Tables_number       1
  _symmetry_cell_setting            triclinic
  loop_
  _symmetry_equiv_pos_as_xyz
 x,y,z
_cell_length_a 59.2921
_cell_length_b 60.6774
_cell_length_c 59.9415
_cell_angle_alpha 92.286200
_cell_angle_beta 92.944600
_cell_angle_gamma 93.594900
loop_
  _atom_site_label
  _atom_site_type_symbol
  _atom_site_fract_x
  _atom_site_fract_y
  _atom_site_fract_z
N1 N 0.17133 0.22157 0.22097
 N2 N 0.17763 0.20422 0.23148
 C3 C 0.16360 0.20021 0.24802
 C4 C 0.14757 0.21590 0.24789
 C5 C 0.15308 0.22918 0.23040
 H6 H 0.16516 0.18699 0.25943
 H7 H 0.14462 0.24343 0.22495
 Cu8 Cu 0.20368 0.18875 0.22268
 Cu9 Cu 0.18754 0.23336 0.19622
 Cu10 Cu 0.23504 0.20693 0.18112
 N11 N 0.23037 0.17420 0.21413
 N12 N 0.24265 0.18139 0.19797
 C13 C 0.25979 0.16815 0.19533
 C14 C 0.25818 0.15169 0.21069
 C15 C 0.23927 0.15615 0.22233
 H16 H 0.27235 0.17033 0.18304
 H17 H 0.23224 0.14677 0.23554
 N18 N 0.22444 0.23299 0.16611
 N19 N 0.20618 0.24282 0.17168
 C20 C 0.20302 0.25959 0.15807
 C21 C 0.22011 0.26043 0.14321
 C22 C 0.23341 0.24332 0.14885
 H23 H 0.18936 0.27051 0.15902
 H24 H 0.24828 0.23848 0.14068
 H25 H 0.20076 0.20411 0.18577
 H26 H 0.21865 0.22239 0.20637
 N27 N 0.66887 0.72195 0.72678
 N28 N 0.67707 0.70569 0.73778
 C29 C 0.66401 0.70122 0.75494
 C30 C 0.64667 0.71547 0.75477
 C31 C 0.65031 0.72840 0.73659
 H32 H 0.66680 0.68836 0.76654
 H33 H 0.64040 0.74170 0.73103
 Cu34 Cu 0.70379 0.69153 0.72877
 Cu35 Cu 0.68309 0.73358 0.70085
 Cu36 Cu 0.72986 0.70781 0.68289
 N37 N 0.72907 0.67653 0.71745
 N38 N 0.73926 0.68281 0.69961
 C39 C 0.75583 0.66922 0.69556
 C40 C 0.75601 0.65350 0.71176
 C41 C 0.73872 0.65874 0.72532
 H42 H 0.76684 0.67070 0.68181
 H43 H 0.73325 0.65006 0.73967
 N44 N 0.71771 0.73338 0.66823
 N45 N 0.69979 0.74303 0.67501
 C46 C 0.69558 0.75979 0.66169
 C47 C 0.71160 0.76081 0.64570
 C48 C 0.72539 0.74379 0.65041
 H49 H 0.68199 0.77064 0.66368
 H50 H 0.73981 0.73918 0.64140
 H51 H 0.69642 0.70409 0.69115
 H52 H 0.71543 0.72429 0.70884
 N53 N 0.31116 0.75060 0.75034
 N54 N 0.30636 0.76870 0.76139
 C55 C 0.31995 0.77134 0.78017
 C56 C 0.33405 0.75394 0.78093
 C57 C 0.32786 0.74113 0.76166
 H58 H 0.31991 0.78513 0.79214
 H59 H 0.33553 0.72645 0.75576
 Cu60 Cu 0.28358 0.78756 0.74949
 Cu61 Cu 0.29672 0.74123 0.72129
 Cu62 Cu 0.25542 0.77374 0.70035
 N63 N 0.25974 0.80527 0.73762
 N64 N 0.24879 0.79952 0.71848
 C65 C 0.23337 0.81423 0.71394
 C66 C 0.23455 0.83034 0.73115
 C67 C 0.25161 0.82399 0.74594
 H68 H 0.22230 0.81318 0.69902
 H69 H 0.25768 0.83225 0.76159
 N70 N 0.26439 0.74706 0.68432
 N71 N 0.28015 0.73460 0.69216
 C72 C 0.28295 0.71821 0.67687
 C73 C 0.26820 0.72049 0.65849
 C74 C 0.25674 0.73899 0.66393
 H75 H 0.29506 0.70576 0.67883
 H76 H 0.24424 0.74650 0.65351
 H77 H 0.28882 0.77225 0.71197
 H78 H 0.26698 0.75581 0.72683
 N79 N 0.81335 0.24988 0.25234
 N80 N 0.80893 0.26815 0.26330
 C81 C 0.82325 0.27114 0.28155
 C82 C 0.83748 0.25373 0.28210
 C83 C 0.83040 0.24055 0.26323
 H84 H 0.82359 0.28522 0.29320
 H85 H 0.83772 0.22580 0.25706
 Cu86 Cu 0.78557 0.28667 0.25188
 Cu87 Cu 0.79877 0.24060 0.22339
 Cu88 Cu 0.75888 0.27412 0.20158
 N89 N 0.76310 0.30541 0.23910
 N90 N 0.75282 0.30026 0.21948
 C91 C 0.73832 0.31569 0.21444
 C92 C 0.73944 0.33154 0.23179
 C93 C 0.75539 0.32442 0.24722
 H94 H 0.72759 0.31520 0.19929
 H95 H 0.76107 0.33252 0.26308
 N96 N 0.76723 0.24698 0.18591
 N97 N 0.78230 0.23406 0.19426
 C98 C 0.78518 0.21759 0.17913
 C99 C 0.77127 0.22026 0.16024
 C100 C 0.76010 0.23908 0.16528
 H101 H 0.79706 0.20500 0.18146
 H102 H 0.74822 0.24696 0.15447
 H103 H 0.79175 0.27205 0.21435
 H104 H 0.76900 0.25563 0.22801
 N105 N 0.80182 0.73919 0.26701
 N106 N 0.79958 0.71808 0.26100
 C107 C 0.81464 0.71368 0.24565
 C108 C 0.82719 0.73307 0.24191
 C109 C 0.81856 0.74894 0.25580
 H110 H 0.81666 0.69745 0.23819
 H111 H 0.82400 0.76629 0.25762
 Cu112 Cu 0.77794 0.69796 0.27432
 Cu113 Cu 0.78307 0.75217 0.28920
 Cu114 Cu 0.73795 0.71869 0.30551
 N115 N 0.75084 0.68043 0.28090
 N116 N 0.73464 0.68875 0.29211
 C117 C 0.71806 0.67281 0.29419
 C118 C 0.72447 0.65349 0.28398
 C119 C 0.74533 0.65896 0.27572
 H120 H 0.70302 0.67481 0.30334
 H121 H 0.75576 0.64805 0.26672
 N122 N 0.74463 0.74936 0.31737
 N123 N 0.76202 0.76202 0.31142
 C124 C 0.76343 0.78099 0.32402
 C125 C 0.74615 0.78029 0.33879
 C126 C 0.73456 0.75994 0.33393
 H127 H 0.77669 0.79392 0.32312
 H128 H 0.72056 0.75275 0.34260
 H129 H 0.77275 0.72389 0.30540
 H130 H 0.75605 0.73007 0.27925
 N131 N 0.30358 0.23695 -0.23277
 N132 N 0.30180 0.21559 -0.23753
 C133 C 0.31778 0.21043 -0.25161
 C134 C 0.33054 0.22962 -0.25600
 C135 C 0.32089 0.24615 -0.24361
 H136 H 0.31977 0.19383 -0.25806
 H137 H 0.32590 0.26360 -0.24250
 Cu138 Cu 0.27895 0.19615 -0.22507
 Cu139 Cu 0.28330 0.25093 -0.21269
 Cu140 Cu 0.23647 0.21839 -0.19880
 N141 N 0.25099 0.17915 -0.22033
 N142 N 0.23390 0.18805 -0.21107
 C143 C 0.21691 0.17239 -0.20977
 C144 C 0.22393 0.15262 -0.21843
 C145 C 0.24562 0.15756 -0.22500
 H146 H 0.20110 0.17490 -0.20210
 H147 H 0.25671 0.14624 -0.23250
 N148 N 0.24254 0.24933 -0.18773
 N149 N 0.26059 0.26165 -0.19264
 C150 C 0.26145 0.28077 -0.18031
 C151 C 0.24309 0.28049 -0.16684
 C152 C 0.23147 0.26026 -0.17217
 H153 H 0.27510 0.29342 -0.18033
 H154 H 0.21691 0.25328 -0.16419
 H155 H 0.27146 0.22348 -0.19606
 H156 H 0.25709 0.22851 -0.22385
 N157 N 0.68778 0.26432 -0.24948
 N158 N 0.69323 0.28153 -0.26113
 C159 C 0.67651 0.28394 -0.27681
 C160 C 0.65957 0.26726 -0.27487
 C161 C 0.66759 0.25512 -0.25731
 H162 H 0.67652 0.29717 -0.28836
 H163 H 0.65924 0.24095 -0.25017
 Cu164 Cu 0.72118 0.29948 -0.25335
 Cu165 Cu 0.70620 0.25581 -0.22383
 Cu166 Cu 0.75559 0.28807 -0.20947
 N167 N 0.74910 0.31739 -0.24556
 N168 N 0.76242 0.31292 -0.22835
 C169 C 0.78009 0.32807 -0.22631
 C170 C 0.77776 0.34295 -0.24314
 C171 C 0.75782 0.33556 -0.25501
 H172 H 0.79354 0.32824 -0.21343
 H173 H 0.74994 0.34308 -0.26919
 N174 N 0.74558 0.26212 -0.19267
 N175 N 0.72691 0.24980 -0.19842
 C176 C 0.72439 0.23368 -0.18383
 C177 C 0.74226 0.23586 -0.16794
 C178 C 0.75543 0.25409 -0.17417
 H179 H 0.71044 0.22130 -0.18469
 H180 H 0.77082 0.26124 -0.16564
 H181 H 0.72097 0.28710 -0.21516
 H182 H 0.73697 0.26905 -0.23373
 N183 N 0.18485 0.75922 0.24806
 N184 N 0.19012 0.77671 0.23671
 C185 C 0.17352 0.77901 0.22088
 C186 C 0.15694 0.76199 0.22239
 C187 C 0.16489 0.74976 0.23985
 H188 H 0.17325 0.79242 0.20957
 H189 H 0.15659 0.73534 0.24659
 Cu190 Cu 0.21758 0.79519 0.24496
 Cu191 Cu 0.20325 0.75074 0.27379
 Cu192 Cu 0.25175 0.78410 0.28896
 N193 N 0.24500 0.81371 0.25323
 N194 N 0.25817 0.80937 0.27059
 C195 C 0.27549 0.82486 0.27304
 C196 C 0.27316 0.83991 0.25630
 C197 C 0.25349 0.83212 0.24404
 H198 H 0.28866 0.82508 0.28619
 H199 H 0.24565 0.83938 0.22969
 N200 N 0.24230 0.75772 0.30530
 N201 N 0.22398 0.74495 0.29933
 C202 C 0.22189 0.72862 0.31378
 C203 C 0.23971 0.73114 0.32975
 C204 C 0.25233 0.74981 0.32374
 H205 H 0.20818 0.71599 0.31283
 H206 H 0.26753 0.75732 0.33231
 H207 H 0.21706 0.78218 0.28289
 H208 H 0.23374 0.76482 0.26431
 N209 N 0.48158 0.42570 0.49132
 N210 N 0.46553 0.43357 0.50302
 C211 C 0.46245 0.42099 0.52075
 C212 C 0.47730 0.40425 0.52009
 C213 C 0.48914 0.40776 0.50109
 H214 H 0.45021 0.42375 0.53316
 H215 H 0.50261 0.39828 0.49510
 Cu216 Cu 0.45006 0.45953 0.49431
 Cu217 Cu 0.49215 0.43989 0.46495
 Cu218 Cu 0.46958 0.48932 0.45208
 N219 N 0.43808 0.48764 0.48689
 N220 N 0.44626 0.49951 0.47095
 C221 C 0.43471 0.51781 0.46920
 C222 C 0.41828 0.51741 0.48482
 C223 C 0.42095 0.49799 0.49577
 H224 H 0.43742 0.53001 0.45679
 H225 H 0.41103 0.49175 0.50906
 N226 N 0.49310 0.47618 0.43475
 N227 N 0.50086 0.45680 0.43907
 C228 C 0.51532 0.45143 0.42345
 C229 C 0.51690 0.46830 0.40866
 C230 C 0.50266 0.48378 0.41638
 H231 H 0.52419 0.43641 0.42290
 H232 H 0.49899 0.49906 0.40869
 H233 H 0.48465 0.47108 0.47653
 H234 H 0.46327 0.45598 0.45647
 N235 N -0.01805 -0.07451 0.99115
 N236 N -0.03366 -0.06654 1.00338
 C237 C -0.03672 -0.07947 1.02086
 C238 C -0.02230 -0.09652 1.01950
 C239 C -0.01074 -0.09285 1.00035
 H240 H -0.04871 -0.07681 1.03352
 H241 H 0.00232 -0.10255 0.99382
 Cu242 Cu -0.04855 -0.04010 0.99520
 Cu243 Cu -0.00781 -0.06001 0.96472
 Cu244 Cu -0.03187 -0.01113 0.95159
 N245 N -0.06261 -0.01318 0.98715
 N246 N -0.05558 -0.00163 0.97047
 C247 C -0.06839 0.01576 0.96814
 C248 C -0.08446 0.01505 0.98413
 C249 C -0.08023 -0.00357 0.99591
 H250 H -0.06676 0.02750 0.95513
 H251 H -0.08950 -0.00980 1.00965
 N252 N -0.00787 -0.02370 0.93438
 N253 N 0.00045 -0.04282 0.93881
 C254 C 0.01494 -0.04791 0.92312
 C255 C 0.01594 -0.03115 0.90818
 C256 C 0.00136 -0.01600 0.91588
 H257 H 0.02413 -0.06274 0.92254
 H258 H -0.00285 -0.00094 0.90804
 H259 H -0.01513 -0.02860 0.97551
 H260 H -0.03714 -0.04443 0.95683
 N261 N 1.03128 0.59376 0.97098
 N262 N 1.04531 0.58718 0.98667
 C263 C 1.04464 0.60066 1.00504
 C264 C 1.02917 0.61636 1.00057
 C265 C 1.02112 0.61147 0.97876
 H266 H 1.05416 0.59883 1.02066
 H267 H 1.00874 0.62010 0.96920
 Cu268 Cu 1.06219 0.56105 0.98135
 Cu269 Cu 1.02729 0.57912 0.94148
 Cu270 Cu 1.04447 0.52569 0.93870
 N271 N 1.07988 0.53634 0.97271
 N272 N 1.07279 0.52261 0.95592
 C273 C 1.08744 0.50674 0.95379
 C274 C 1.10476 0.51065 0.97011
 C275 C 1.09936 0.52959 0.98189
 H276 H 1.08528 0.49305 0.94159
 H277 H 1.10880 0.53775 0.99612
 N278 N 1.02281 0.53682 0.91658
 N279 N 1.01729 0.55754 0.91712
 C280 C 1.00331 0.56064 0.89935
 C281 C 0.99981 0.54090 0.88691
 C282 C 1.01239 0.52608 0.89840
 H283 H 0.99582 0.57604 0.89599
 H284 H 1.01428 0.50895 0.89361
 H285 H 1.02866 0.55011 0.95698
 H286 H 1.05392 0.55806 0.94103
 N287 N 0.52826 0.09628 0.47355
 N288 N 0.54623 0.09269 0.48632
 C289 C 0.54766 0.10734 0.50400
 C290 C 0.52947 0.12064 0.50217
 C291 C 0.51768 0.11312 0.48257
 H292 H 0.56047 0.10782 0.51755
 H293 H 0.50231 0.11928 0.47545
 Cu294 Cu 0.56488 0.06826 0.47870
 Cu295 Cu 0.51869 0.07825 0.44687
 Cu296 Cu 0.55214 0.03599 0.43200
 N297 N 0.58377 0.04443 0.46993
 N298 N 0.57879 0.03231 0.45145
 C299 C 0.59384 0.01677 0.44955
 C300 C 0.60912 0.01905 0.46784
 C301 C 0.60219 0.03683 0.48048
 H302 H 0.59307 0.00409 0.43630
 H303 H 0.60976 0.04347 0.49632
 N304 N 0.52440 0.04232 0.41453
 N305 N 0.51161 0.05835 0.42043
 C306 C 0.49334 0.05791 0.40614
 C307 C 0.49459 0.04077 0.39044
 C308 C 0.51461 0.03130 0.39619
 H309 H 0.48000 0.06919 0.40714
 H310 H 0.52115 0.01702 0.38804
 H311 H 0.53326 0.04960 0.45629
 H312 H 0.55075 0.06915 0.43987
 N313 N -0.03396 0.09707 0.54450
 N314 N -0.05242 0.09159 0.53191
 C315 C -0.05350 0.10507 0.51467
 C316 C -0.03460 0.11977 0.51643
 C317 C -0.02258 0.11422 0.53564
 H318 H -0.06654 0.10361 0.50131
 H319 H -0.00656 0.12177 0.54245
 Cu320 Cu -0.07261 0.06638 0.53810
 Cu321 Cu -0.02598 0.08071 0.57088
 Cu322 Cu -0.04774 0.02639 0.56544
 N323 N -0.08718 0.03695 0.53922
 N324 N -0.07719 0.02130 0.54966
 C325 C -0.09030 0.00240 0.54707
 C326 C -0.10969 0.00635 0.53429
 C327 C -0.10709 0.02857 0.52965
 H328 H -0.08599 -0.01297 0.55418
 H329 H -0.11853 0.03790 0.51973
 N330 N -0.02258 0.03657 0.58688
 N331 N -0.01468 0.05737 0.58954
 C332 C 0.00166 0.05904 0.60611
 C333 C 0.00416 0.03821 0.61430
 C334 C -0.01157 0.02445 0.60167
 H335 H 0.01115 0.07426 0.61159
 H336 H -0.01520 0.00696 0.60346
 H337 H -0.03550 0.05462 0.55017
 H338 H -0.05422 0.05818 0.57400
 N339 N 0.46483 0.59684 0.04861
 N340 N 0.44519 0.59283 0.03756
 C341 C 0.44331 0.60716 0.02111
 C342 C 0.46294 0.62085 0.02172
 C343 C 0.47618 0.61383 0.03948
 H344 H 0.42931 0.60668 0.00876
 H345 H 0.49315 0.62006 0.04488
 Cu346 Cu 0.42510 0.56756 0.04356
 Cu347 Cu 0.47517 0.57840 0.07253
 Cu348 Cu 0.44467 0.52836 0.07605
 N349 N 0.41065 0.53796 0.04259
 N350 N 0.41872 0.52255 0.05493
 C351 C 0.40613 0.50353 0.05052
 C352 C 0.38921 0.50718 0.03454
 C353 C 0.39256 0.52931 0.02995
 H354 H 0.40889 0.48826 0.05863
 H355 H 0.38286 0.53837 0.01808
 N356 N 0.47131 0.53748 0.09602
 N357 N 0.48275 0.55675 0.09500
 C358 C 0.50001 0.55801 0.11064
 C359 C 0.49947 0.53852 0.12195
 C360 C 0.48099 0.52596 0.11223
 H361 H 0.51244 0.57181 0.11315
 H362 H 0.47500 0.50960 0.11665
 H363 H 0.45964 0.55102 0.05545
 H364 H 0.44459 0.56255 0.07962
 N365 N 0.53454 -0.08046 0.02078
 N366 N 0.55367 -0.07581 0.01135
 C367 C 0.55600 -0.09089 -0.00528
 C368 C 0.53735 -0.10584 -0.00636
 C369 C 0.52396 -0.09864 0.01037
 H370 H 0.57027 -0.09110 -0.01578
 H371 H 0.50819 -0.10654 0.01517
 Cu372 Cu 0.57410 -0.05082 0.02162
 Cu373 Cu 0.52602 -0.06358 0.04693
 Cu374 Cu 0.56220 -0.01884 0.06624
 N375 N 0.59304 -0.02467 0.03147
 N376 N 0.58871 -0.01229 0.04902
 C377 C 0.60426 0.00498 0.05134
 C378 C 0.61895 0.00337 0.03415
 C379 C 0.61130 -0.01570 0.02197
 H380 H 0.60433 0.01816 0.06404
 H381 H 0.61836 -0.02242 0.00710
 N382 N 0.53439 -0.02816 0.08112
 N383 N 0.52035 -0.04472 0.07324
 C384 C 0.50258 -0.04647 0.08627
 C385 C 0.50551 -0.03031 0.10326
 C386 C 0.52592 -0.01903 0.09954
 H387 H 0.48858 -0.05875 0.08374
 H388 H 0.53371 -0.00490 0.10922
 H389 H 0.54304 -0.03399 0.03954
 H390 H 0.55846 -0.05240 0.05843
 N391 N 1.04340 0.41328 0.52853
 N392 N 1.06360 0.41644 0.52073
 C393 C 1.06619 0.40108 0.50446
 C394 C 1.04651 0.38749 0.50183
 C395 C 1.03235 0.39578 0.51735
 H396 H 1.08120 0.40006 0.49507
 H397 H 1.01551 0.38924 0.52065
 Cu398 Cu 1.08461 0.44050 0.53196
 Cu399 Cu 1.03375 0.43145 0.55341
 Cu400 Cu 1.07093 0.47539 0.57297
 N401 N 1.10022 0.46946 0.53695
 N402 N 1.09511 0.48304 0.55327
 C403 C 1.10911 0.50142 0.55356
 C404 C 1.12361 0.49932 0.53628
 C405 C 1.11741 0.47880 0.52608
 H406 H 1.10860 0.51533 0.56534
 H407 H 1.12511 0.47102 0.51209
 N408 N 1.04156 0.46843 0.58593
 N409 N 1.02746 0.45169 0.57858
 C410 C 1.00915 0.45120 0.59100
 C411 C 1.01173 0.46860 0.60674
 C412 C 1.03243 0.47922 0.60297
 H413 H 0.99480 0.43930 0.58857
 H414 H 1.04034 0.49366 0.61207
 H415 H 1.05322 0.45968 0.54607
 H416 H 1.06524 0.44129 0.56720
 C417 C 0.35975 0.02375 0.22851
 C418 C 0.34681 0.00118 0.22931
 C419 C 0.35997 -0.01572 0.23442
 C420 C 0.38529 -0.00851 0.23824
 C421 C 0.37299 0.02691 0.25114
 C422 C 0.38619 0.01014 0.25642
 C423 C 0.37793 0.01985 0.21162
 C424 C 0.39125 0.00313 0.21683
 H425 H 0.32860 -0.00105 0.22647
 H426 H 0.39615 -0.02226 0.24214
 H427 H 0.37247 0.04174 0.26174
 H428 H 0.37995 0.02859 0.19645
 C429 C 0.14049 -0.03726 0.74938
 C430 C 0.15463 -0.01588 0.75616
 C431 C 0.14241 0.00163 0.76190
 C432 C 0.11657 -0.00395 0.75959
 C433 C 0.12515 -0.04120 0.76874
 C434 C 0.11250 -0.02401 0.77415
 C435 C 0.12466 -0.03051 0.73010
 C436 C 0.11191 -0.01332 0.73538
 H437 H 0.17283 -0.01460 0.75512
 H438 H 0.10606 0.00988 0.76392
 H439 H 0.12480 -0.05638 0.77766
 H440 H 0.12468 -0.03736 0.71320
 C441 C 0.64228 0.46297 0.24992
 C442 C 0.65649 0.48434 0.25656
 C443 C 0.64444 0.50181 0.26275
 C444 C 0.61864 0.49619 0.26116
 C445 C 0.62743 0.45884 0.26969
 C446 C 0.61498 0.47602 0.27566
 C447 C 0.62557 0.46958 0.23123
 C448 C 0.61326 0.48693 0.23706
 H449 H 0.67466 0.48552 0.25529
 H450 H 0.60818 0.50997 0.26579
 H451 H 0.62704 0.44344 0.27824
 H452 H 0.62325 0.46150 0.21485
 C453 C 0.86100 0.52787 0.72632
 C454 C 0.84892 0.50508 0.72832
 C455 C 0.86287 0.48873 0.73301
 C456 C 0.88809 0.49661 0.73525
 C457 C 0.87551 0.53196 0.74813
 C458 C 0.88988 0.51592 0.75278
 C459 C 0.87839 0.52419 0.70854
 C460 C 0.89251 0.50790 0.71324
 H461 H 0.83070 0.50220 0.72620
 H462 H 0.89966 0.48336 0.73895
 H463 H 0.87535 0.54711 0.75831
 H464 H 0.87995 0.53344 0.69364
 C465 C 0.23575 0.36774 0.01798
 C466 C 0.23205 0.35535 -0.00473
 C467 C 0.23404 0.36834 -0.02255
 C468 C 0.23951 0.39292 -0.01613
 C469 C 0.25889 0.38042 0.01723
 C470 C 0.26095 0.39360 -0.00051
 C471 C 0.21900 0.38611 0.01728
 C472 C 0.22081 0.39913 -0.00064
 H473 H 0.22876 0.33757 -0.00649
 H474 H 0.24116 0.40351 -0.03072
 H475 H 0.27153 0.38096 0.03098
 H476 H 0.20712 0.38904 0.03001
 C477 C 0.76023 0.13965 -0.03329
 C478 C 0.76229 0.15379 -0.01141
 C479 C 0.76588 0.14222 0.00731
 C480 C 0.76722 0.11732 0.00251
 C481 C 0.78179 0.12697 -0.03316
 C482 C 0.78561 0.11534 -0.01452
 C483 C 0.74134 0.12172 -0.02952
 C484 C 0.74492 0.11022 -0.01073
 H485 H 0.76067 0.17149 -0.01089
 H486 H 0.77013 0.10785 0.01772
 H487 H 0.79242 0.12634 -0.04730
 H488 H 0.72597 0.11869 -0.03989
 C489 C 0.26045 0.63766 0.46604
 C490 C 0.26071 0.65204 0.48769
 C491 C 0.26485 0.64107 0.50669
 C492 C 0.26846 0.61646 0.50241
 C493 C 0.28313 0.62689 0.46704
 C494 C 0.28747 0.61587 0.48594
 C495 C 0.24284 0.61849 0.46965
 C496 C 0.24696 0.60752 0.48871
 H497 H 0.25732 0.66938 0.48787
 H498 H 0.27191 0.60749 0.51787
 H499 H 0.29428 0.62711 0.45327
 H500 H 0.22736 0.61494 0.45956
 C501 C 0.73001 0.86981 0.52225
 C502 C 0.72791 0.85736 0.49950
 C503 C 0.73158 0.87022 0.48182
 C504 C 0.73698 0.89478 0.48849
 C505 C 0.75351 0.88208 0.52322
 C506 C 0.75720 0.89521 0.50566
 C507 C 0.71373 0.88848 0.52012
 C508 C 0.71724 0.90143 0.50242
 H509 H 0.72478 0.83957 0.49774
 H510 H 0.73994 0.90534 0.47408
 H511 H 0.76519 0.88226 0.53774
 H512 H 0.70123 0.89199 0.53205
 C513 C 0.02599 0.23299 0.36006
 C514 C 0.00218 0.23452 0.34946
 C515 C -0.01367 0.23943 0.36415
 C516 C -0.00431 0.24239 0.38854
 C517 C 0.03116 0.25492 0.37337
 C518 C 0.01570 0.25979 0.38854
 C519 C 0.02290 0.21584 0.37817
 C520 C 0.00705 0.22079 0.39299
 H521 H -0.00184 0.23148 0.33172
 H522 H -0.01722 0.24628 0.40063
 H523 H 0.04666 0.26503 0.37174
 H524 H 0.03178 0.20092 0.37930
 C525 C -0.03964 0.74656 0.14154
 C526 C -0.01705 0.74629 0.15515
 C527 C 0.00159 0.75011 0.14319
 C528 C -0.00399 0.75382 0.11837
 C529 C -0.03859 0.76876 0.13029
 C530 C -0.02006 0.77273 0.11826
 C531 C -0.03762 0.72938 0.12221
 C532 C -0.01889 0.73312 0.11022
 H533 H -0.01603 0.74325 0.17285
 H534 H 0.01115 0.75689 0.10850
 H535 H -0.05209 0.77997 0.13104
 H536 H -0.04855 0.71455 0.11919
 C537 C 0.46351 0.24978 0.64568
 C538 C 0.48596 0.25036 0.65953
 C539 C 0.50464 0.25446 0.64767
 C540 C 0.49921 0.25778 0.62275
 C541 C 0.46392 0.27187 0.63411
 C542 C 0.48255 0.27624 0.62228
 C543 C 0.46606 0.23276 0.62638
 C544 C 0.48485 0.23674 0.61459
 H545 H 0.48688 0.24770 0.67731
 H546 H 0.51438 0.26116 0.61303
 H547 H 0.44984 0.28241 0.63393
 H548 H 0.45422 0.21872 0.62234
 C549 C 0.52120 0.73045 0.86264
 C550 C 0.49725 0.73092 0.85189
 C551 C 0.48146 0.73674 0.86632
 C552 C 0.49092 0.74127 0.89056
 C553 C 0.52604 0.75320 0.87435
 C554 C 0.51063 0.75884 0.88931
 C555 C 0.51831 0.71446 0.88172
 C556 C 0.50262 0.72017 0.89636
 H557 H 0.49305 0.72663 0.83439
 H558 H 0.47801 0.74570 0.90243
 H559 H 0.54112 0.76352 0.87157
 H560 H 0.52673 0.69921 0.88290
 C561 C 0.09415 0.22362 0.29345
 C562 C 0.10789 0.20544 0.29484
 C563 C 0.12506 0.20289 0.27985
 C564 C 0.12901 0.21832 0.26338
 C565 C 0.11523 0.23625 0.26200
 C566 C 0.09806 0.23889 0.27675
 C567 C 0.07622 0.22592 0.30999
 C568 C 0.06178 0.24345 0.31004
 C569 C 0.04572 0.24514 0.32607
 C570 C 0.04338 0.22948 0.34259
 C571 C 0.05761 0.21175 0.34248
 C572 C 0.07389 0.20990 0.32638
 C573 C 0.10454 0.18998 0.31130
 C574 C 0.08795 0.19219 0.32674
 H575 H 0.11503 0.17602 0.31236
 H576 H 0.08617 0.17985 0.33923
 H577 H 0.13537 0.18886 0.28120
 H578 H 0.11768 0.24850 0.24960
 H579 H 0.03506 0.25901 0.32572
 H580 H 0.05651 0.19939 0.35487
 H581 H 0.08819 0.25308 0.27482
 H582 H 0.06262 0.25614 0.29798
 C583 C 0.59383 0.71887 0.80147
 C584 C 0.59197 0.72946 0.78089
 C585 C 0.60920 0.72828 0.76574
 C586 C 0.62842 0.71663 0.77071
 C587 C 0.63013 0.70607 0.79107
 C588 C 0.61312 0.70712 0.80623
 C589 C 0.57522 0.72077 0.81730
 C590 C 0.57581 0.71150 0.83847
 C591 C 0.55829 0.71412 0.85282
 C592 C 0.53936 0.72567 0.84637
 C593 C 0.53898 0.73542 0.82546
 C594 C 0.55653 0.73293 0.81092
 C595 C 0.57296 0.74119 0.77555
 C596 C 0.55562 0.74287 0.79023
 H597 H 0.57149 0.74926 0.75978
 H598 H 0.54132 0.75223 0.78535
 H599 H 0.60746 0.73634 0.75001
 H600 H 0.64479 0.69710 0.79555
 H601 H 0.56013 0.70759 0.86928
 H602 H 0.52521 0.74547 0.82065
 H603 H 0.61550 0.69863 0.82155
 H604 H 0.58984 0.70252 0.84453
 C605 C 0.39222 0.74574 0.82556
 C606 C 0.38357 0.72837 0.81044
 C607 C 0.36403 0.73083 0.79681
 C608 C 0.35309 0.75069 0.79734
 C609 C 0.36129 0.76768 0.81280
 C610 C 0.38054 0.76525 0.82677
 C611 C 0.41407 0.74295 0.83865
 C612 C 0.42433 0.75919 0.85411
 C613 C 0.44581 0.75663 0.86412
 C614 C 0.45748 0.73793 0.85885
 C615 C 0.44685 0.72107 0.84467
 C616 C 0.42534 0.72340 0.83460
 C617 C 0.39492 0.70891 0.80829
 C618 C 0.41545 0.70656 0.81997
 H619 H 0.38820 0.69555 0.79683
 H620 H 0.42396 0.69147 0.81714
 H621 H 0.35777 0.71735 0.78533
 H622 H 0.35328 0.78319 0.81373
 H623 H 0.45377 0.76976 0.87513
 H624 H 0.45569 0.70636 0.84095
 H625 H 0.38634 0.77907 0.83792
 H626 H 0.41633 0.77419 0.85827
 C627 C -0.10392 0.24644 0.32463
 C628 C -0.11160 0.22974 0.30837
 C629 C -0.13143 0.23190 0.29510
 C630 C -0.14390 0.25081 0.29716
 C631 C -0.13670 0.26695 0.31399
 C632 C -0.11703 0.26483 0.32750
 C633 C -0.08169 0.24413 0.33727
 C634 C -0.07205 0.25997 0.35351
 C635 C -0.05030 0.25792 0.36321
 C636 C -0.03776 0.24015 0.35682
 C637 C -0.04771 0.22367 0.34178
 C638 C -0.06940 0.22553 0.33196
 C639 C -0.09910 0.21121 0.30484
 C640 C -0.07841 0.20920 0.31631
 H641 H -0.10510 0.19832 0.29253
 H642 H -0.06908 0.19484 0.31249
 H643 H -0.13667 0.21881 0.28281
 H644 H -0.14581 0.28165 0.31651
 H645 H -0.04288 0.27074 0.37491
 H646 H -0.03820 0.20964 0.33719
 H647 H -0.11213 0.27800 0.33974
 H648 H -0.08076 0.27430 0.35851
 C649 C -0.11631 0.74083 0.19965
 C650 C -0.13267 0.72292 0.19564
 C651 C -0.15109 0.72054 0.20940
 C652 C -0.15369 0.73593 0.22706
 C653 C -0.13772 0.75392 0.23066
 C654 C -0.11927 0.75635 0.21722
 C655 C -0.09660 0.74247 0.18494
 C656 C -0.07902 0.75916 0.18810
 C657 C -0.06104 0.75999 0.17403
 C658 C -0.05982 0.74429 0.15631
 C659 C -0.07735 0.72753 0.15304
 C660 C -0.09552 0.72645 0.16726
 C661 C -0.13060 0.70754 0.17792
 C662 C -0.11253 0.70936 0.16396
 H663 H -0.14319 0.69389 0.17475
 H664 H -0.11177 0.69705 0.15045
 H665 H -0.16349 0.70675 0.20618
 H666 H -0.13920 0.76600 0.24419
 H667 H -0.04785 0.77312 0.17699
 H668 H -0.07720 0.71522 0.13957
 H669 H -0.10756 0.77049 0.22094
 H670 H -0.07871 0.77170 0.20138
 C671 C 0.38653 0.23553 0.70235
 C672 C 0.37925 0.25435 0.71393
 C673 C 0.36075 0.25233 0.72763
 C674 C 0.34909 0.23170 0.73014
 C675 C 0.35645 0.21311 0.71844
 C676 C 0.37477 0.21497 0.70478
 C677 C 0.40635 0.23840 0.68789
 C678 C 0.41530 0.22065 0.67615
 C679 C 0.43358 0.22423 0.66267
 C680 C 0.44330 0.24565 0.66009
 C681 C 0.43516 0.26324 0.67272
 C682 C 0.41673 0.25985 0.68625
 C683 C 0.39043 0.27512 0.71174
 C684 C 0.40873 0.27781 0.69819
 H685 H 0.38490 0.28957 0.72059
 H686 H 0.41673 0.29425 0.69701
 H687 H 0.35562 0.26702 0.73631
 H688 H 0.34813 0.19687 0.71960
 H689 H 0.44025 0.20997 0.65461
 H690 H 0.44325 0.27970 0.67212
 H691 H 0.37935 0.20008 0.69622
 H692 H 0.40861 0.20382 0.67729
 C693 C 0.59492 0.25793 0.69055
 C694 C 0.61041 0.27525 0.68496
 C695 C 0.63194 0.27810 0.69612
 C696 C 0.63846 0.26387 0.71300
 C697 C 0.62312 0.24625 0.71779
 C698 C 0.60179 0.24332 0.70682
 C699 C 0.57174 0.25607 0.67912
 C700 C 0.55481 0.24009 0.68445
 C701 C 0.53323 0.23954 0.67402
 C702 C 0.52790 0.25478 0.65792
 C703 C 0.54471 0.27046 0.65205
 C704 C 0.56648 0.27139 0.66271
 C705 C 0.60424 0.28976 0.66841
 C706 C 0.58281 0.28779 0.65744
 H707 H 0.61612 0.30296 0.66395
 H708 H 0.57885 0.29952 0.64487
 H709 H 0.64337 0.29165 0.69170
 H710 H 0.62724 0.23453 0.73023
 H711 H 0.52064 0.22703 0.67854
 H712 H 0.54064 0.28242 0.63975
 H713 H 0.59097 0.22953 0.71150
 H714 H 0.55770 0.22801 0.69680
 C715 C 0.09157 0.75255 0.18662
 C716 C 0.10746 0.76939 0.18067
 C717 C 0.12888 0.77216 0.19203
 C718 C 0.13480 0.75841 0.20946
 C719 C 0.11910 0.74142 0.21487
 C720 C 0.09787 0.73850 0.20367
 C721 C 0.06855 0.75072 0.17482
 C722 C 0.05138 0.73498 0.18010
 C723 C 0.02989 0.73464 0.16950
 C724 C 0.02488 0.74987 0.15328
 C725 C 0.04202 0.76515 0.14729
 C726 C 0.06372 0.76581 0.15806
 C727 C 0.10177 0.78354 0.16363
 C728 C 0.08040 0.78176 0.15255
 H729 H 0.11396 0.79636 0.15893
 H730 H 0.07678 0.79327 0.13967
 H731 H 0.14076 0.78524 0.18739
 H732 H 0.12292 0.73037 0.22804
 H733 H 0.01709 0.72236 0.17406
 H734 H 0.03825 0.77705 0.13483
 H735 H 0.08663 0.72524 0.20884
 H736 H 0.05402 0.72292 0.19253
 C737 C 0.30021 0.09671 0.21933
 C738 C 0.30310 0.11063 0.20118
 C739 C 0.28946 0.12856 0.19847
 C740 C 0.27293 0.13302 0.21372
 C741 C 0.27043 0.11935 0.23189
 C742 C 0.28381 0.10148 0.23469
 C743 C 0.31490 0.07761 0.22152
 C744 C 0.31290 0.06255 0.23866
 C745 C 0.32723 0.04531 0.24027
 C746 C 0.34402 0.04236 0.22489
 C747 C 0.34590 0.05719 0.20750
 C748 C 0.33146 0.07463 0.20569
 C749 C 0.31962 0.10664 0.18590
 C750 C 0.33358 0.08911 0.18818
 H751 H 0.32190 0.11731 0.17201
 H752 H 0.34621 0.08684 0.17598
 H753 H 0.29172 0.13889 0.18434
 H754 H 0.25816 0.12240 0.24419
 H755 H 0.32537 0.03422 0.25388
 H756 H 0.35859 0.05563 0.19538
 H757 H 0.28103 0.09174 0.24905
 H758 H 0.30046 0.06373 0.25107
 C759 C 0.79910 0.59909 0.71878
 C760 C 0.79998 0.61208 0.69972
 C761 C 0.78594 0.62977 0.69747
 C762 C 0.77101 0.63493 0.71409
 C763 C 0.77045 0.62213 0.73308
 C764 C 0.78422 0.60450 0.73542
 C765 C 0.81427 0.58032 0.72055
 C766 C 0.81423 0.56617 0.73858
 C767 C 0.82906 0.54931 0.73978
 C768 C 0.84447 0.54590 0.72313
 C769 C 0.84420 0.55965 0.70474
 C770 C 0.82927 0.57671 0.70337
 C771 C 0.81496 0.60743 0.68309
 C772 C 0.82937 0.59022 0.68493
 H773 H 0.81569 0.61737 0.66849
 H774 H 0.84079 0.58744 0.67169
 H775 H 0.78667 0.63941 0.68269
 H776 H 0.75945 0.62570 0.74641
 H777 H 0.82873 0.53893 0.75407
 H778 H 0.85552 0.55750 0.69143
 H779 H 0.78300 0.59547 0.75048
 H780 H 0.80297 0.56781 0.75201
 C781 C 0.81980 0.40211 0.74608
 C782 C 0.80196 0.39467 0.73046
 C783 C 0.78882 0.37516 0.73383
 C784 C 0.79270 0.36290 0.75287
 C785 C 0.81056 0.37019 0.76823
 C786 C 0.82395 0.38947 0.76491
 C787 C 0.83283 0.42354 0.74223
 C788 C 0.85109 0.43244 0.75654
 C789 C 0.86157 0.45324 0.75298
 C790 C 0.85400 0.46564 0.73521
 C791 C 0.83668 0.45646 0.72023
 C792 C 0.82612 0.43562 0.72355
 C793 C 0.79690 0.40699 0.71181
 C794 C 0.80860 0.42710 0.70852
 H795 H 0.78329 0.40125 0.69981
 H796 H 0.80365 0.43625 0.69409
 H797 H 0.77532 0.36981 0.72161
 H798 H 0.81408 0.36123 0.78312
 H799 H 0.87498 0.46001 0.76467
 H800 H 0.83113 0.46579 0.70613
 H801 H 0.83716 0.39440 0.77749
 H802 H 0.85726 0.42380 0.77076
 C803 C 0.31468 -0.10170 0.24655
 C804 C 0.29585 -0.10800 0.23171
 C805 C 0.28247 -0.12742 0.23484
 C806 C 0.28723 -0.14097 0.25281
 C807 C 0.30620 -0.13473 0.26732
 C808 C 0.31969 -0.11545 0.26427
 C809 C 0.32803 -0.08036 0.24300
 C810 C 0.34696 -0.07233 0.25690
 C811 C 0.35789 -0.05168 0.25360
 C812 C 0.35020 -0.03858 0.23643
 C813 C 0.33207 -0.04685 0.22191
 C814 C 0.32092 -0.06745 0.22510
 C815 C 0.29019 -0.09473 0.21394
 C816 C 0.30242 -0.07489 0.21073
 H817 H 0.27583 -0.09961 0.20250
 H818 H 0.29709 -0.06505 0.19695
 H819 H 0.26817 -0.13166 0.22320
 H820 H 0.31073 -0.14452 0.28135
 H821 H 0.37184 -0.04561 0.26503
 H822 H 0.32634 -0.03703 0.20826
 H823 H 0.33380 -0.11153 0.27613
 H824 H 0.35332 -0.08152 0.27064
 C825 C 0.19426 -0.11419 0.73627
 C826 C 0.21154 -0.11724 0.75280
 C827 C 0.22480 -0.13561 0.75112
 C828 C 0.22134 -0.15113 0.73295
 C829 C 0.20431 -0.14766 0.71644
 C830 C 0.19104 -0.12957 0.71804
 C831 C 0.18020 -0.09462 0.73884
 C832 C 0.16188 -0.09079 0.72390
 C833 C 0.14920 -0.07243 0.72705
 C834 C 0.15459 -0.05702 0.74497
 C835 C 0.17245 -0.06117 0.76031
 C836 C 0.18524 -0.07968 0.75738
 C837 C 0.21555 -0.10189 0.77088
 C838 C 0.20278 -0.08345 0.77305
 H839 H 0.22883 -0.10411 0.78355
 H840 H 0.20660 -0.07205 0.78731
 H841 H 0.23785 -0.13757 0.76405
 H842 H 0.20089 -0.15889 0.70206
 H843 H 0.13482 -0.07088 0.71556
 H844 H 0.17624 -0.05001 0.77479
 H845 H 0.17842 -0.12796 0.70471
 H846 H 0.15675 -0.10195 0.70987
 C847 C 0.69924 0.38843 0.23615
 C848 C 0.71217 0.38215 0.25511
 C849 C 0.72545 0.36381 0.25358
 C850 C 0.72611 0.35144 0.23333
 C851 C 0.71360 0.35803 0.21450
 C852 C 0.70037 0.37619 0.21584
 C853 C 0.68477 0.40771 0.23863
 C854 C 0.67094 0.41498 0.22094
 C855 C 0.65735 0.43269 0.22419
 C856 C 0.65708 0.44375 0.24524
 C857 C 0.67129 0.43683 0.26280
 C858 C 0.68487 0.41894 0.25975
 C859 C 0.71162 0.39411 0.27553
 C860 C 0.69832 0.41215 0.27778
 H861 H 0.72156 0.38941 0.29005
 H862 H 0.69842 0.42079 0.29397
 H863 H 0.73496 0.35901 0.26831
 H864 H 0.71395 0.34919 0.19851
 H865 H 0.64728 0.43745 0.20993
 H866 H 0.67153 0.44536 0.27907
 H867 H 0.69115 0.38028 0.20075
 H868 H 0.67023 0.40717 0.20442
 C869 C 0.69097 0.58839 0.28051
 C870 C 0.67816 0.60719 0.27843
 C871 C 0.68905 0.62852 0.28047
 C872 C 0.71270 0.63129 0.28333
 C873 C 0.72535 0.61263 0.28480
 C874 C 0.71469 0.59146 0.28360
 C875 C 0.67887 0.56595 0.27811
 C876 C 0.68980 0.54644 0.28193
 C877 C 0.67830 0.52584 0.27781
 C878 C 0.65560 0.52397 0.26953
 C879 C 0.64412 0.54343 0.26734
 C880 C 0.65552 0.56432 0.27173
 C881 C 0.65477 0.60452 0.27343
 C882 C 0.64378 0.58355 0.26967
 H883 H 0.64493 0.61887 0.27167
 H884 H 0.62580 0.58238 0.26512
 H885 H 0.67924 0.64292 0.27887
 H886 H 0.74363 0.61440 0.28700
 H887 H 0.68743 0.51133 0.28111
 H888 H 0.62649 0.54258 0.26170
 H889 H 0.72538 0.57775 0.28454
 H890 H 0.70722 0.54670 0.28812
 C891 C 0.18950 0.08795 0.77881
 C892 C 0.17707 0.10685 0.77561
 C893 C 0.18824 0.12805 0.77730
 C894 C 0.21185 0.13057 0.78096
 C895 C 0.22413 0.11177 0.78350
 C896 C 0.21316 0.09075 0.78260
 C897 C 0.17710 0.06564 0.77679
 C898 C 0.18759 0.04612 0.78168
 C899 C 0.17593 0.02558 0.77777
 C900 C 0.15352 0.02379 0.76868
 C901 C 0.14237 0.04330 0.76553
 C902 C 0.15394 0.06415 0.76966
 C903 C 0.15380 0.10437 0.76992
 C904 C 0.14258 0.08347 0.76653
 H905 H 0.14425 0.11879 0.76733
 H906 H 0.12473 0.08241 0.76141
 H907 H 0.17871 0.14252 0.77486
 H908 H 0.24236 0.11331 0.78635
 H909 H 0.18472 0.01104 0.78180
 H910 H 0.12493 0.04249 0.75930
 H911 H 0.22359 0.07692 0.78437
 H912 H 0.20479 0.04633 0.78851
 C913 C 0.22913 0.30557 0.09009
 C914 C 0.20793 0.30257 0.09974
 C915 C 0.20514 0.28788 0.11703
 C916 C 0.22322 0.27599 0.12502
 C917 C 0.24424 0.27905 0.11550
 C918 C 0.24722 0.29366 0.09833
 C919 C 0.23133 0.32135 0.07158
 C920 C 0.25143 0.32497 0.06037
 C921 C 0.25265 0.33988 0.04330
 C922 C 0.23407 0.35204 0.03713
 C923 C 0.21364 0.34775 0.04758
 C924 C 0.21223 0.33277 0.06479
 C925 C 0.18961 0.31423 0.09211
 C926 C 0.19172 0.32903 0.07505
 H927 H 0.17336 0.31192 0.09949
 H928 H 0.17704 0.33769 0.06979
 H929 H 0.18874 0.28557 0.12405
 H930 H 0.25858 0.27034 0.12148
 H931 H 0.26826 0.34176 0.03476
 H932 H 0.19859 0.35566 0.04215
 H933 H 0.26384 0.29543 0.09186
 H934 H 0.26637 0.31633 0.06433
 C935 C 0.71692 0.80750 0.59343
 C936 C 0.73540 0.79485 0.59936
 C937 C 0.73354 0.77956 0.61626
 C938 C 0.71350 0.77673 0.62764
 C939 C 0.69528 0.78940 0.62178
 C940 C 0.69692 0.80456 0.60497
 C941 C 0.71955 0.82360 0.57526
 C942 C 0.70188 0.83623 0.56748
 C943 C 0.70517 0.85109 0.55060
 C944 C 0.72634 0.85420 0.54123
 C945 C 0.74375 0.84093 0.54829
 C946 C 0.74059 0.82585 0.56520
 C947 C 0.75570 0.79768 0.58853
 C948 C 0.75827 0.81291 0.57189
 H949 H 0.76988 0.78803 0.59307
 H950 H 0.77435 0.81454 0.56410
 H951 H 0.74788 0.77012 0.62074
 H952 H 0.67953 0.78755 0.63006
 H953 H 0.69078 0.85969 0.54469
 H954 H 0.75982 0.84219 0.54043
 H955 H 0.68234 0.81385 0.60139
 H956 H 0.68525 0.83471 0.57394
 C957 C 0.73785 0.82492 0.39552
 C958 C 0.72206 0.80675 0.39029
 C959 C 0.72437 0.79288 0.37134
 C960 C 0.74257 0.79638 0.35752
 C961 C 0.75786 0.81479 0.36242
 C962 C 0.75555 0.82888 0.38109
 C963 C 0.73550 0.83851 0.41670
 C964 C 0.75044 0.85680 0.42370
 C965 C 0.74854 0.86773 0.44446
 C966 C 0.73178 0.86069 0.45870
 C967 C 0.71612 0.84330 0.45138
 C968 C 0.71786 0.83219 0.43064
 C969 C 0.70439 0.80206 0.40434
 C970 C 0.70240 0.81443 0.42413
 H971 H 0.69220 0.78823 0.40027
 H972 H 0.68876 0.80976 0.43471
 H973 H 0.71217 0.77901 0.36780
 H974 H 0.77201 0.81820 0.35213
 H975 H 0.76083 0.88112 0.44978
 H976 H 0.70280 0.83806 0.46212
 H977 H 0.76807 0.84248 0.38415
 H978 H 0.76399 0.86261 0.41366
 C979 C 0.23249 0.32328 -0.10953
 C980 C 0.25167 0.32724 -0.12224
 C981 C 0.25463 0.31387 -0.14145
 C982 C 0.23872 0.29642 -0.14826
 C983 C 0.21904 0.29353 -0.13635
 C984 C 0.21592 0.30673 -0.11732
 C985 C 0.23108 0.33635 -0.08793
 C986 C 0.21385 0.33205 -0.07304
 C987 C 0.21445 0.34313 -0.05218
 C988 C 0.23198 0.35901 -0.04574
 C989 C 0.24859 0.36432 -0.06079
 C990 C 0.24854 0.35278 -0.08163
 C991 C 0.26805 0.34414 -0.11539
 C992 C 0.26640 0.35678 -0.09565
 H993 H 0.28261 0.34741 -0.12527
 H994 H 0.27974 0.36938 -0.09090
 H995 H 0.26976 0.31669 -0.15056
 H996 H 0.20605 0.28076 -0.14142
 H997 H 0.20139 0.33895 -0.04079
 H998 H 0.26232 0.37642 -0.05571
 H999 H 0.20057 0.30343 -0.10880
 H1000 H 0.20019 0.31968 -0.07679
 C1001 C 0.75236 0.19575 -0.11063
 C1002 C 0.73173 0.19372 -0.12371
 C1003 C 0.72865 0.20681 -0.14224
 C1004 C 0.74586 0.22205 -0.14828
 C1005 C 0.76636 0.22397 -0.13534
 C1006 C 0.76961 0.21103 -0.11679
 C1007 C 0.75481 0.18151 -0.09082
 C1008 C 0.77440 0.18250 -0.07643
 C1009 C 0.77574 0.16895 -0.05817
 C1010 C 0.75775 0.15383 -0.05369
 C1011 C 0.73804 0.15296 -0.06792
 C1012 C 0.73649 0.16656 -0.08628
 C1013 C 0.71422 0.17865 -0.11826
 C1014 C 0.71657 0.16534 -0.10000
 H1015 H 0.69843 0.17708 -0.12830
 H1016 H 0.70250 0.15393 -0.09654
 H1017 H 0.71260 0.20513 -0.15180
 H1018 H 0.78006 0.23541 -0.13957
 H1019 H 0.79103 0.17030 -0.04737
 H1020 H 0.72357 0.14206 -0.06490
 H1021 H 0.78575 0.21323 -0.10758
 H1022 H 0.78885 0.19366 -0.07886
 C1023 C 0.25106 0.69179 0.38745
 C1024 C 0.23186 0.68701 0.37265
 C1025 C 0.22838 0.69976 0.35388
 C1026 C 0.24381 0.71737 0.34938
 C1027 C 0.26301 0.72183 0.36394
 C1028 C 0.26662 0.70926 0.38268
 C1029 C 0.25387 0.67801 0.40754
 C1030 C 0.27201 0.68176 0.42360
 C1031 C 0.27372 0.66862 0.44211
 C1032 C 0.25753 0.65124 0.44529
 C1033 C 0.23941 0.64735 0.42920
 C1034 C 0.23743 0.66061 0.41059
 C1035 C 0.21618 0.66957 0.37664
 C1036 C 0.21896 0.65660 0.39513
 H1037 H 0.20150 0.66586 0.36527
 H1038 H 0.20632 0.64331 0.39743
 H1039 H 0.21348 0.69590 0.34293
 H1040 H 0.27539 0.73509 0.36100
 H1041 H 0.28788 0.67207 0.45416
 H1042 H 0.22662 0.63418 0.43084
 H1043 H 0.28169 0.71356 0.39317
 H1044 H 0.28501 0.69481 0.42231
 C1045 C 0.26274 0.68438 0.59463
 C1046 C 0.28035 0.68048 0.61054
 C1047 C 0.28187 0.69190 0.63153
 C1048 C 0.26594 0.70720 0.63701
 C1049 C 0.24799 0.71022 0.62148
 C1050 C 0.24637 0.69903 0.60065
 C1051 C 0.26242 0.67290 0.57199
 C1052 C 0.24654 0.67695 0.55458
 C1053 C 0.24737 0.66649 0.53355
 C1054 C 0.26394 0.65162 0.52928
 C1055 C 0.27963 0.64712 0.54654
 C1056 C 0.27920 0.65789 0.56774
 C1057 C 0.29643 0.66536 0.60533
 C1058 C 0.29573 0.65415 0.58448
 H1059 H 0.30982 0.66218 0.61755
 H1060 H 0.30860 0.64268 0.58127
 H1061 H 0.29574 0.68916 0.64334
 H1062 H 0.23504 0.72136 0.62526
 H1063 H 0.23486 0.66997 0.52058
 H1064 H 0.29261 0.63578 0.54326
 H1065 H 0.23218 0.70220 0.58954
 H1066 H 0.23350 0.68834 0.55668
 C1067 C 0.76921 0.18363 0.09665
 C1068 C 0.75443 0.20071 0.10023
 C1069 C 0.75484 0.21214 0.12108
 C1070 C 0.77001 0.20712 0.13865
 C1071 C 0.78439 0.18992 0.13515
 C1072 C 0.78402 0.17832 0.11450
 C1073 C 0.76861 0.17225 0.07390
 C1074 C 0.78258 0.15503 0.06851
 C1075 C 0.78161 0.14530 0.04692
 C1076 C 0.76683 0.15252 0.03017
 C1077 C 0.75266 0.16943 0.03542
 C1078 C 0.75341 0.17927 0.05703
 C1079 C 0.73951 0.20655 0.08290
 C1080 C 0.73905 0.19610 0.06177
 H1081 H 0.72814 0.21958 0.08566
 H1082 H 0.72732 0.20138 0.04888
 H1083 H 0.74341 0.22515 0.12337
 H1084 H 0.79626 0.18547 0.14824
 H1085 H 0.79278 0.13233 0.04324
 H1086 H 0.74079 0.17478 0.02270
 H1087 H 0.79563 0.16545 0.11283
 H1088 H 0.79442 0.14890 0.08064
 C1089 C 0.48359 0.35257 0.56704
 C1090 C 0.49151 0.34990 0.54528
 C1091 C 0.48985 0.36697 0.53019
 C1092 C 0.47995 0.38661 0.53627
 C1093 C 0.47221 0.38919 0.55787
 C1094 C 0.47404 0.37250 0.57307
 C1095 C 0.48498 0.33372 0.58241
 C1096 C 0.47764 0.33482 0.60437
 C1097 C 0.47768 0.31635 0.61745
 C1098 C 0.48516 0.29631 0.60912
 C1099 C 0.49368 0.29532 0.58773
 C1100 C 0.49355 0.31382 0.57430
 C1101 C 0.50054 0.33005 0.53854
 C1102 C 0.50141 0.31237 0.55268
 H1103 H 0.50665 0.32800 0.52190
 H1104 H 0.50812 0.29722 0.54650
 H1105 H 0.49571 0.36464 0.51348
 H1106 H 0.46475 0.40423 0.56317
 H1107 H 0.47154 0.31767 0.63413
 H1108 H 0.49946 0.27989 0.58113
 H1109 H 0.46760 0.37550 0.58933
 H1110 H 0.47148 0.34964 0.61171
 C1111 C -0.01690 0.85047 0.06504
 C1112 C -0.00932 0.84807 0.04312
 C1113 C -0.01063 0.86556 0.02848
 C1114 C -0.01987 0.88538 0.03519
 C1115 C -0.02723 0.88769 0.05696
 C1116 C -0.02573 0.87058 0.07171
 C1117 C -0.01596 0.83119 0.07990
 C1118 C -0.02302 0.83202 0.10198
 C1119 C -0.02347 0.81321 0.11457
 C1120 C -0.01681 0.79308 0.10563
 C1121 C -0.00853 0.79231 0.08413
 C1122 C -0.00816 0.81117 0.07118
 C1123 C -0.00101 0.82806 0.03577
 C1124 C -0.00057 0.80998 0.04944
 H1125 H 0.00484 0.82621 0.01900
 H1126 H 0.00558 0.79474 0.04277
 H1127 H -0.00506 0.86344 0.01164
 H1128 H -0.03415 0.90285 0.06275
 H1129 H -0.02939 0.81436 0.13136
 H1130 H -0.00335 0.77681 0.07708
 H1131 H -0.03188 0.87340 0.08812
 H1132 H -0.02858 0.84689 0.10978
 C1133 C 0.00709 0.66743 0.04493
 C1134 C 0.02953 0.66074 0.04719
 C1135 C 0.03659 0.64384 0.03291
 C1136 C 0.02180 0.63393 0.01586
 C1137 C -0.00018 0.64106 0.01326
 C1138 C -0.00752 0.65748 0.02761
 C1139 C -0.00008 0.68488 0.06104
 C1140 C -0.02250 0.69137 0.06137
 C1141 C -0.02848 0.70722 0.07714
 C1142 C -0.01226 0.71720 0.09280
 C1143 C 0.01016 0.71112 0.09248
 C1144 C 0.01626 0.69481 0.07702
 C1145 C 0.04482 0.67111 0.06350
 C1146 C 0.03842 0.68797 0.07789
 H1147 H 0.06207 0.66620 0.06510
 H1148 H 0.05092 0.69550 0.09017
 H1149 H 0.05375 0.63871 0.03478
 H1150 H -0.01195 0.63366 0.00026
 H1151 H -0.04588 0.71170 0.07712
 H1152 H 0.02268 0.71846 0.10486
 H1153 H -0.02462 0.66219 0.02474
 H1154 H -0.03577 0.68416 0.04988
 C1155 C 0.50905 0.17164 0.54784
 C1156 C 0.53191 0.16606 0.54825
 C1157 C 0.53858 0.14930 0.53349
 C1158 C 0.52277 0.13813 0.51808
 C1159 C 0.50019 0.14384 0.51774
 C1160 C 0.49339 0.16027 0.53234
 C1161 C 0.50245 0.18924 0.56410
 C1162 C 0.48002 0.19546 0.56538
 C1163 C 0.47452 0.21124 0.58141
 C1164 C 0.49120 0.22141 0.59648
 C1165 C 0.51372 0.21590 0.59495
 C1166 C 0.51942 0.19976 0.57906
 C1167 C 0.54792 0.17724 0.56337
 C1168 C 0.54183 0.19376 0.57838
 H1169 H 0.56545 0.17310 0.56367
 H1170 H 0.55485 0.20180 0.58981
 H1171 H 0.55611 0.14517 0.53384
 H1172 H 0.48747 0.13537 0.50634
 H1173 H 0.45708 0.21544 0.58208
 H1174 H 0.52667 0.22353 0.60673
 H1175 H 0.47577 0.16371 0.53118
 H1176 H 0.46636 0.18818 0.55441
 C1177 C -0.01455 0.16525 0.46657
 C1178 C -0.03774 0.15956 0.46925
 C1179 C -0.04417 0.14496 0.48574
 C1180 C -0.02783 0.13622 0.50004
 C1181 C -0.00494 0.14271 0.49805
 C1182 C 0.00166 0.15698 0.48153
 C1183 C -0.00834 0.17981 0.44791
 C1184 C 0.01423 0.18474 0.44253
 C1185 C 0.01913 0.19800 0.42469
 C1186 C 0.00172 0.20684 0.41190
 C1187 C -0.02080 0.20215 0.41710
 C1188 C -0.02597 0.18841 0.43470
 C1189 C -0.05437 0.16844 0.45547
 C1190 C -0.04861 0.18281 0.43879
 H1191 H -0.07214 0.16427 0.45766
 H1192 H -0.06211 0.18930 0.42863
 H1193 H -0.06195 0.14045 0.48747
 H1194 H 0.00802 0.13628 0.50889
 H1195 H 0.03664 0.20153 0.42099
 H1196 H -0.03433 0.20866 0.40698
 H1197 H 0.01952 0.16124 0.48073
 H1198 H 0.02833 0.17830 0.45165
 C1199 C 0.48210 0.66624 0.97140
 C1200 C 0.45897 0.66086 0.97470
 C1201 C 0.45282 0.64639 0.99141
 C1202 C 0.46940 0.63730 1.00518
 C1203 C 0.49227 0.64338 1.00243
 C1204 C 0.49857 0.65763 0.98581
 C1205 C 0.48800 0.68071 0.95257
 C1206 C 0.51047 0.68561 0.94686
 C1207 C 0.51507 0.69852 0.92871
 C1208 C 0.49748 0.70705 0.91591
 C1209 C 0.47506 0.70259 0.92157
 C1210 C 0.47018 0.68922 0.93955
 C1211 C 0.44214 0.66982 0.96123
 C1212 C 0.44763 0.68388 0.94419
 H1213 H 0.42443 0.66585 0.96386
 H1214 H 0.43398 0.69032 0.93421
 H1215 H 0.43507 0.64217 0.99363
 H1216 H 0.50547 0.63668 1.01275
 H1217 H 0.53252 0.70193 0.92471
 H1218 H 0.46138 0.70889 0.91149
 H1219 H 0.51642 0.66151 0.98446
 H1220 H 0.52473 0.67940 0.95593
 C1221 C 0.52750 0.83584 0.95003
 C1222 C 0.50855 0.84598 0.95827
 C1223 C 0.51176 0.86482 0.97283
 C1224 C 0.53365 0.87409 0.97877
 C1225 C 0.55229 0.86419 0.97022
 C1226 C 0.54933 0.84535 0.95611
 C1227 C 0.52351 0.81567 0.93479
 C1228 C 0.54131 0.80373 0.92700
 C1229 C 0.53693 0.78538 0.91244
 C1230 C 0.51469 0.77837 0.90504
 C1231 C 0.49671 0.78971 0.91327
 C1232 C 0.50097 0.80821 0.92819
 C1233 C 0.48661 0.83747 0.95158
 C1234 C 0.48290 0.81917 0.93664
 H1235 H 0.47206 0.84527 0.95775
 H1236 H 0.46561 0.81342 0.93176
 H1237 H 0.49722 0.87256 0.97911
 H1238 H 0.56937 0.87086 0.97464
 H1239 H 0.55115 0.77645 0.90727
 H1240 H 0.47944 0.78435 0.90793
 H1241 H 0.56440 0.83871 0.95003
 H1242 H 0.55877 0.80804 0.93210
 C1243 C 0.03476 0.33155 0.45522
 C1244 C 0.01623 0.34262 0.46311
 C1245 C 0.02003 0.36061 0.47871
 C1246 C 0.04216 0.36808 0.48612
 C1247 C 0.06041 0.35712 0.47812
 C1248 C 0.05683 0.33912 0.46295
 C1249 C 0.03014 0.31256 0.43854
 C1250 C 0.04742 0.30006 0.43049
 C1251 C 0.04251 0.28300 0.41447
 C1252 C 0.02026 0.27786 0.40588
 C1253 C 0.00272 0.28967 0.41434
 C1254 C 0.00751 0.30694 0.43063
 C1255 C -0.00586 0.33593 0.45507
 C1256 C -0.01011 0.31861 0.43903
 H1257 H -0.02008 0.34441 0.46104
 H1258 H -0.02747 0.31427 0.43315
 H1259 H 0.00580 0.36913 0.48460
 H1260 H 0.07763 0.36235 0.48370
 H1261 H 0.05631 0.27360 0.40903
 H1262 H -0.01456 0.28568 0.40800
 H1263 H 0.07166 0.33161 0.45737
 H1264 H 0.06487 0.30301 0.43637
 C1265 C 0.36592 0.56336 0.49029
 C1266 C 0.36296 0.54200 0.49878
 C1267 C 0.38036 0.52733 0.49765
 C1268 C 0.40065 0.53344 0.48773
 C1269 C 0.40367 0.55477 0.47974
 C1270 C 0.38664 0.56956 0.48104
 C1271 C 0.34654 0.57810 0.49074
 C1272 C 0.34769 0.59947 0.48233
 C1273 C 0.32869 0.61190 0.48153
 C1274 C 0.30806 0.60350 0.48920
 C1275 C 0.30698 0.58271 0.49866
 C1276 C 0.32598 0.56992 0.49935
 C1277 C 0.34244 0.53518 0.50778
 C1278 C 0.32434 0.54880 0.50799
 H1279 H 0.34018 0.51886 0.51438
 H1280 H 0.30869 0.54256 0.51473
 H1281 H 0.37770 0.51086 0.50376
 H1282 H 0.41924 0.56011 0.47232
 H1283 H 0.33009 0.62812 0.47461
 H1284 H 0.29108 0.57602 0.50454
 H1285 H 0.38998 0.58561 0.47439
 H1286 H 0.36294 0.60681 0.47593
 C1287 C 0.86032 0.05773 -0.01005
 C1288 C 0.88014 0.06488 -0.02063
 C1289 C 0.89817 0.05104 -0.02211
 C1290 C 0.89692 0.03001 -0.01317
 C1291 C 0.87751 0.02318 -0.00218
 C1292 C 0.85945 0.03679 -0.00064
 C1293 C 0.84105 0.07266 -0.00974
 C1294 C 0.82026 0.06685 -0.00037
 C1295 C 0.80250 0.08094 -0.00148
 C1296 C 0.80498 0.10116 -0.01188
 C1297 C 0.82582 0.10737 -0.02066
 C1298 C 0.84371 0.09329 -0.01983
 C1299 C 0.88180 0.08570 -0.02990
 C1300 C 0.86401 0.09962 -0.02945
 H1301 H 0.89703 0.09125 -0.03785
 H1302 H 0.86606 0.11547 -0.03708
 H1303 H 0.91319 0.05671 -0.03032
 H1304 H 0.87598 0.00703 0.00484
 H1305 H 0.78653 0.07561 0.00520
 H1306 H 0.82809 0.12315 -0.02838
 H1307 H 0.84491 0.03049 0.00778
 H1308 H 0.81720 0.05136 0.00750
 C1309 C 0.67424 0.04878 0.01816
 C1310 C 0.66298 0.03436 0.00145
 C1311 C 0.64515 0.01962 0.00690
 C1312 C 0.63788 0.01909 0.02880
 C1313 C 0.64874 0.03363 0.04531
 C1314 C 0.66675 0.04824 0.04013
 C1315 C 0.69330 0.06423 0.01153
 C1316 C 0.70623 0.07870 0.02692
 C1317 C 0.72334 0.09322 0.01971
 C1318 C 0.72791 0.09374 -0.00298
 C1319 C 0.71557 0.07902 -0.01834
 C1320 C 0.69848 0.06426 -0.01128
 C1321 C 0.66932 0.03489 -0.02071
 C1322 C 0.68655 0.04965 -0.02697
 H1323 H 0.66064 0.02388 -0.03351
 H1324 H 0.69061 0.04959 -0.04440
 H1325 H 0.63662 0.00884 -0.00616
 H1326 H 0.64350 0.03356 0.06234
 H1327 H 0.73257 0.10453 0.03187
 H1328 H 0.71932 0.07905 -0.03586
 H1329 H 0.67446 0.05903 0.05349
 H1330 H 0.70332 0.07919 0.04454
 C1331 C 0.17771 0.54527 0.51876
 C1332 C 0.16713 0.52986 0.50254
 C1333 C 0.14965 0.51486 0.50842
 C1334 C 0.14203 0.51524 0.53021
 C1335 C 0.15215 0.53085 0.54612
 C1336 C 0.16981 0.54562 0.54055
 C1337 C 0.19650 0.56084 0.51182
 C1338 C 0.20892 0.57603 0.52690
 C1339 C 0.22570 0.59071 0.51942
 C1340 C 0.23049 0.59069 0.49678
 C1341 C 0.21873 0.57520 0.48174
 C1342 C 0.20196 0.56023 0.48909
 C1343 C 0.17379 0.52972 0.48045
 C1344 C 0.19064 0.54474 0.47382
 H1345 H 0.16561 0.51801 0.46800
 H1346 H 0.19492 0.54417 0.45645
 H1347 H 0.14167 0.50316 0.49585
 H1348 H 0.14664 0.53149 0.56306
 H1349 H 0.23445 0.60260 0.53133
 H1350 H 0.22264 0.57482 0.46426
 H1351 H 0.17689 0.55725 0.55350
 H1352 H 0.20586 0.57695 0.54447
 C1353 C 0.15849 0.46765 -0.01602
 C1354 C 0.14834 0.46820 -0.03786
 C1355 C 0.13116 0.48257 -0.04233
 C1356 C 0.12397 0.49670 -0.02538
 C1357 C 0.13474 0.49684 -0.00400
 C1358 C 0.15174 0.48251 0.00068
 C1359 C 0.17567 0.45098 -0.01162
 C1360 C 0.18546 0.44791 0.00987
 C1361 C 0.20040 0.43134 0.01330
 C1362 C 0.20615 0.41757 -0.00457
 C1363 C 0.19706 0.42086 -0.02612
 C1364 C 0.18163 0.43718 -0.02972
 C1365 C 0.15519 0.45426 -0.05508
 C1366 C 0.17163 0.43923 -0.05114
 H1367 H 0.14760 0.45486 -0.07187
 H1368 H 0.17620 0.42869 -0.06500
 H1369 H 0.12334 0.48267 -0.05906
 H1370 H 0.12959 0.50762 0.00938
 H1371 H 0.20747 0.42926 0.03005
 H1372 H 0.20123 0.41006 -0.03996
 H1373 H 0.15919 0.48320 0.01750
 H1374 H 0.18150 0.45779 0.02432
 C1375 C 0.65975 0.97336 0.48439
 C1376 C 0.65148 0.97500 0.46199
 C1377 C 0.63551 0.99036 0.45668
 C1378 C 0.62744 1.00426 0.47337
 C1379 C 0.63629 1.00319 0.49542
 C1380 C 0.65221 0.98797 0.50090
 C1381 C 0.67574 0.95578 0.48953
 C1382 C 0.68392 0.95193 0.51142
 C1383 C 0.69771 0.93455 0.51548
 C1384 C 0.70386 0.92067 0.49785
 C1385 C 0.69649 0.92478 0.47592
 C1386 C 0.68227 0.94198 0.47167
 C1387 C 0.65891 0.96108 0.44505
 C1388 C 0.67406 0.94502 0.44976
 H1389 H 0.65271 0.96245 0.42786
 H1390 H 0.67907 0.93450 0.43608
 H1391 H 0.62921 0.99130 0.43948
 H1392 H 0.63046 1.01369 0.50866
 H1393 H 0.70357 0.93194 0.53252
 H1394 H 0.70107 0.91399 0.46225
 H1395 H 0.65814 0.98775 0.51819
 H1396 H 0.67961 0.96186 0.52570
 C1397 C 0.83365 0.95979 0.51573
 C1398 C 0.85421 0.95243 0.52481
 C1399 C 0.87269 0.96760 0.53033
 C1400 C 0.87104 0.99029 0.52734
 C1401 C 0.85071 0.99752 0.51808
 C1402 C 0.83228 0.98253 0.51232
 C1403 C 0.81404 0.94312 0.51093
 C1404 C 0.79281 0.94867 0.50188
 C1405 C 0.77463 0.93282 0.49928
 C1406 C 0.77716 0.91110 0.50561
 C1407 C 0.79847 0.90513 0.51359
 C1408 C 0.81684 0.92090 0.51629
 C1409 C 0.85613 0.93002 0.52883
 C1410 C 0.83781 0.91463 0.52480
 H1411 H 0.87192 0.92437 0.53568
 H1412 H 0.84002 0.89758 0.52869
 H1413 H 0.88828 0.96161 0.53719
 H1414 H 0.84878 1.01487 0.51561
 H1415 H 0.75831 0.93787 0.49321
 H1416 H 0.80060 0.88825 0.51817
 H1417 H 0.81704 0.98917 0.50560
 H1418 H 0.78973 0.96522 0.49714
 C1419 C 0.33547 0.45983 0.01010
 C1420 C 0.35622 0.45271 0.01905
 C1421 C 0.37384 0.46824 0.02629
 C1422 C 0.37118 0.49097 0.02506
 C1423 C 0.35093 0.49801 0.01547
 C1424 C 0.33328 0.48268 0.00808
 C1425 C 0.31646 0.44273 0.00423
 C1426 C 0.29481 0.44804 -0.00396
 C1427 C 0.27703 0.43176 -0.00680
 C1428 C 0.28044 0.40986 -0.00164
 C1429 C 0.30224 0.40414 0.00500
 C1430 C 0.32015 0.42034 0.00813
 C1431 C 0.35908 0.43018 0.02136
 C1432 C 0.34142 0.41434 0.01606
 H1433 H 0.37506 0.42473 0.02797
 H1434 H 0.34429 0.39716 0.01878
 H1435 H 0.38957 0.46254 0.03323
 H1436 H 0.34840 0.51544 0.01428
 H1437 H 0.26031 0.43657 -0.01188
 H1438 H 0.30504 0.38713 0.00866
 H1439 H 0.31795 0.48910 0.00131
 H1440 H 0.29105 0.46473 -0.00754
 C1441 C 0.55634 0.46999 0.35028
 C1442 C 0.55222 0.48988 0.36210
 C1443 C 0.53887 0.48932 0.38083
 C1444 C 0.53030 0.46908 0.38854
 C1445 C 0.53490 0.44940 0.37713
 C1446 C 0.54762 0.44980 0.35820
 C1447 C 0.57046 0.47125 0.33028
 C1448 C 0.57405 0.45262 0.31650
 C1449 C 0.58806 0.45440 0.29863
 C1450 C 0.59906 0.47474 0.29399
 C1451 C 0.59487 0.49362 0.30707
 C1452 C 0.58049 0.49205 0.32499
 C1453 C 0.56192 0.51008 0.35549
 C1454 C 0.57606 0.51110 0.33759
 H1455 H 0.55892 0.52532 0.36460
 H1456 H 0.58353 0.52708 0.33344
 H1457 H 0.53574 0.50458 0.38983
 H1458 H 0.52844 0.43359 0.38271
 H1459 H 0.59017 0.43968 0.28833
 H1460 H 0.60315 0.50947 0.30370
 H1461 H 0.55069 0.43409 0.35027
 H1462 H 0.56609 0.43653 0.31910
 C1463 C 0.05421 -0.02952 0.84902
 C1464 C 0.05024 -0.00960 0.86087
 C1465 C 0.03722 -0.01013 0.87985
 C1466 C 0.02891 -0.03037 0.88778
 C1467 C 0.03339 -0.05006 0.87633
 C1468 C 0.04573 -0.04969 0.85716
 C1469 C 0.06802 -0.02832 0.82881
 C1470 C 0.07137 -0.04699 0.81498
 C1471 C 0.08529 -0.04532 0.79703
 C1472 C 0.09640 -0.02505 0.79233
 C1473 C 0.09231 -0.00610 0.80536
 C1474 C 0.07804 -0.00756 0.82338
 C1475 C 0.05983 0.01058 0.85407
 C1476 C 0.07377 0.01153 0.83599
 H1477 H 0.05695 0.02584 0.86320
 H1478 H 0.08120 0.02749 0.83174
 H1479 H 0.03418 0.00515 0.88886
 H1480 H 0.02713 -0.06588 0.88209
 H1481 H 0.08733 -0.06007 0.78676
 H1482 H 0.10065 0.00971 0.80190
 H1483 H 0.04876 -0.06542 0.84924
 H1484 H 0.06333 -0.06303 0.81764
 C1485 C 0.04969 0.01907 0.66774
 C1486 C 0.03893 0.00305 0.65224
 C1487 C 0.02425 0.00948 0.63495
 C1488 C 0.01996 0.03178 0.63259
 C1489 C 0.03075 0.04768 0.64785
 C1490 C 0.04539 0.04147 0.66521
 C1491 C 0.06533 0.01139 0.68594
 C1492 C 0.07683 0.02583 0.70237
 C1493 C 0.09162 0.01780 0.71861
 C1494 C 0.09538 -0.00476 0.71892
 C1495 C 0.08354 -0.01931 0.70298
 C1496 C 0.06874 -0.01147 0.68657
 C1497 C 0.04290 -0.01933 0.65397
 C1498 C 0.05750 -0.02643 0.67074
 H1499 H 0.03466 -0.03158 0.64210
 H1500 H 0.06010 -0.04393 0.67125
 H1501 H 0.01638 -0.00302 0.62315
 H1502 H 0.02772 0.06500 0.64657
 H1503 H 0.10052 0.02943 0.73056
 H1504 H 0.08582 -0.03688 0.70332
 H1505 H 0.05314 0.05443 0.67644
 H1506 H 0.07482 0.04338 0.70285
 C1507 C 0.54724 0.51928 0.17331
 C1508 C 0.53333 0.50315 0.16048
 C1509 C 0.51765 0.50959 0.14405
 C1510 C 0.51570 0.53199 0.13979
 C1511 C 0.52959 0.54796 0.15241
 C1512 C 0.54510 0.54176 0.16900
 C1513 C 0.56392 0.51161 0.19057
 C1514 C 0.57822 0.52624 0.20463
 C1515 C 0.59392 0.51818 0.21996
 C1516 C 0.59585 0.49542 0.22161
 C1517 C 0.58136 0.48071 0.20808
 C1518 C 0.56544 0.48858 0.19272
 C1519 C 0.53534 0.48063 0.16384
 C1520 C 0.55114 0.47351 0.17950
 H1521 H 0.52469 0.46828 0.15400
 H1522 H 0.55221 0.45589 0.18126
 H1523 H 0.50733 0.49701 0.13422
 H1524 H 0.52839 0.56537 0.14959
 H1525 H 0.60500 0.52984 0.23008
 H1526 H 0.58243 0.46305 0.20958
 H1527 H 0.55534 0.55479 0.17809
 H1528 H 0.57767 0.54393 0.20398
 C1529 C 0.45921 -0.01754 0.15477
 C1530 C 0.45134 -0.02780 0.13395
 C1531 C 0.46660 -0.03213 0.11747
 C1532 C 0.48972 -0.02585 0.12101
 C1533 C 0.49748 -0.01524 0.14142
 C1534 C 0.48248 -0.01123 0.15817
 C1535 C 0.44225 -0.01325 0.17192
 C1536 C 0.44833 -0.00421 0.19362
 C1537 C 0.43171 0.00039 0.20856
 C1538 C 0.40880 -0.00382 0.20213
 C1539 C 0.40253 -0.01344 0.18096
 C1540 C 0.41903 -0.01842 0.16594
 C1541 C 0.42821 -0.03327 0.12946
 C1542 C 0.41238 -0.02840 0.14499
 H1543 H 0.42219 -0.04106 0.11349
 H1544 H 0.39463 -0.03254 0.14053
 H1545 H 0.46031 -0.03990 0.10158
 H1546 H 0.51525 -0.01024 0.14457
 H1547 H 0.43671 0.00790 0.22490
 H1548 H 0.38471 -0.01683 0.17617
 H1549 H 0.48939 -0.00297 0.17350
 H1550 H 0.46575 -0.00043 0.19930
 C1551 C 0.96364 0.48721 0.65445
 C1552 C 0.96457 0.46481 0.64721
 C1553 C 0.98027 0.45885 0.63164
 C1554 C 0.99555 0.47482 0.62352
 C1555 C 0.99519 0.49684 0.63140
 C1556 C 0.97942 0.50302 0.64659
 C1557 C 0.94586 0.49307 0.67018
 C1558 C 0.94222 0.51506 0.67673
 C1559 C 0.92500 0.51973 0.69082
 C1560 C 0.91115 0.50265 0.69895
 C1561 C 0.91477 0.48068 0.69289
 C1562 C 0.93169 0.47579 0.67821
 C1563 C 0.94994 0.44851 0.65564
 C1564 C 0.93408 0.45385 0.67105
 H1565 H 0.95080 0.43132 0.65029
 H1566 H 0.92319 0.44062 0.67710
 H1567 H 0.98076 0.44169 0.62603
 H1568 H 1.00683 0.50949 0.62545
 H1569 H 0.92252 0.53682 0.69547
 H1570 H 0.90384 0.46746 0.69894
 H1571 H 0.97994 0.52022 0.65195
 H1572 H 0.95216 0.52893 0.67086
 C1573 C 0.95683 0.53079 0.82674
 C1574 C 0.96153 0.51264 0.83997
 C1575 C 0.97610 0.51580 0.85929
 C1576 C 0.98566 0.53698 0.86589
 C1577 C 0.98113 0.55480 0.85258
 C1578 C 0.96702 0.55181 0.83328
 C1579 C 0.94065 0.52701 0.80674
 C1580 C 0.93504 0.54406 0.79263
 C1581 C 0.91893 0.54014 0.77502
 C1582 C 0.90792 0.51914 0.77083
 C1583 C 0.91412 0.50170 0.78405
 C1584 C 0.93029 0.50553 0.80207
 C1585 C 0.95125 0.49163 0.83410
 C1586 C 0.93590 0.48817 0.81562
 H1587 H 0.95484 0.47769 0.84416
 H1588 H 0.92813 0.47168 0.81203
 H1589 H 0.97938 0.50192 0.86954
 H1590 H 0.98854 0.57124 0.85704
 H1591 H 0.91509 0.55371 0.76456
 H1592 H 0.90588 0.48538 0.78077
 H1593 H 0.96413 0.56629 0.82398
 H1594 H 0.94272 0.56061 0.79491
 C1595 C 0.44517 0.02270 0.33649
 C1596 C 0.46764 0.01631 0.33523
 C1597 C 0.48362 0.02170 0.35310
 C1598 C 0.47764 0.03387 0.37208
 C1599 C 0.45530 0.03994 0.37330
 C1600 C 0.43927 0.03442 0.35586
 C1601 C 0.42887 0.01754 0.31677
 C1602 C 0.40621 0.02324 0.31650
 C1603 C 0.39224 0.01995 0.29712
 C1604 C 0.40036 0.01074 0.27752
 C1605 C 0.42241 0.00358 0.27797
 C1606 C 0.43677 0.00708 0.29739
 C1607 C 0.47416 0.00515 0.31591
 C1608 C 0.45910 0.00076 0.29735
 H1609 H 0.49133 0.00017 0.31492
 H1610 H 0.46514 -0.00743 0.28261
 H1611 H 0.50087 0.01704 0.35188
 H1612 H 0.45005 0.04901 0.38785
 H1613 H 0.37504 0.02497 0.29739
 H1614 H 0.42877 -0.00373 0.26295
 H1615 H 0.42250 0.03983 0.35783
 H1616 H 0.39896 0.03063 0.33089
   
