data_POSCAR
  _audit_creation_date              2014-09-24
  _audit_creation_method            'ToBaCCo'
  _symmetry_space_group_name_H-M    'P1'
  _symmetry_Int_Tables_number       1
  _symmetry_cell_setting            triclinic
  loop_
  _symmetry_equiv_pos_as_xyz
 x,y,z
_cell_length_a 48.6379
_cell_length_b 46.6230
_cell_length_c 47.7809
_cell_angle_alpha 89.508500
_cell_angle_beta 89.886800
_cell_angle_gamma 90.748600
loop_
  _atom_site_label
  _atom_site_type_symbol
  _atom_site_fract_x
  _atom_site_fract_y
  _atom_site_fract_z
C1 C 0.72109 0.65335 0.96070
 H2 H 0.73992 0.65481 0.94865
 C3 C 0.69766 0.66797 0.95166
 H4 H 0.69871 0.68066 0.93260
 C5 C 0.69629 0.63347 0.99906
 H6 H 0.69531 0.61937 1.01705
 C7 C 0.67260 0.64773 0.99090
 H8 H 0.65409 0.64498 1.00332
 N9 N 0.71993 0.63625 0.98391
 C10 C 0.80220 0.61638 1.01465
 H11 H 0.79921 0.59336 1.01570
 C12 C 0.82628 0.62862 1.02501
 H13 H 0.84188 0.61472 1.03357
 C14 C 0.78511 0.66213 1.00233
 H15 H 0.76871 0.67503 0.99393
 C16 C 0.80901 0.67541 1.01280
 H17 H 0.81076 0.69859 1.01250
 Zn18 Zn 0.74991 0.61223 0.99359
 N19 N 0.78218 0.63307 1.00362
 C20 C 0.78362 0.58766 0.95226
 N21 N 0.75750 0.58838 0.96248
 C22 C 0.73653 0.57445 0.94923
 C23 C 0.74146 0.55942 0.92446
 C24 C 0.78953 0.57243 0.92810
 C25 C 0.73860 0.60722 1.04938
 C26 C 0.73024 0.59534 1.07482
 C27 C 0.72601 0.54933 1.05241
 C28 C 0.73442 0.56237 1.02716
 N29 N 0.74002 0.59094 1.02610
 H30 H 0.79995 0.59953 0.96230
 H31 H 0.71584 0.57576 0.95744
 H32 H 0.72456 0.54892 0.91374
 H33 H 0.81038 0.57257 0.92010
 H34 H 0.74309 0.62998 1.04790
 H35 H 0.72780 0.61038 1.09162
 H36 H 0.72249 0.52645 1.05201
 H37 H 0.73620 0.54970 1.00840
 C38 C 0.82977 0.65855 1.02480
 C39 C 0.67281 0.66479 0.96659
 C40 C 0.72328 0.56576 1.07721
 C41 C 0.76830 0.55835 0.91370
 C42 C 0.72830 0.31515 0.52098
 H43 H 0.74857 0.31161 0.52931
 C44 C 0.70595 0.29955 0.53193
 H45 H 0.70935 0.28390 0.54839
 C46 C 0.69877 0.34099 0.49088
 H47 H 0.69563 0.35812 0.47597
 C48 C 0.67594 0.32570 0.50100
 H49 H 0.65567 0.33118 0.49349
 N50 N 0.72437 0.33572 0.50105
 C51 C 0.79478 0.34097 0.45259
 H52 H 0.78404 0.35380 0.43740
 C53 C 0.81845 0.32682 0.44432
 H54 H 0.82534 0.32902 0.42284
 C55 C 0.80013 0.32426 0.49915
 H56 H 0.79342 0.32413 0.52072
 C57 C 0.82410 0.30978 0.49176
 H58 H 0.83518 0.29790 0.50760
 Zn59 Zn 0.75416 0.36040 0.48998
 N60 N 0.78578 0.33920 0.47953
 C61 C 0.78797 0.39858 0.52005
 N62 N 0.76359 0.38401 0.52053
 C63 C 0.74625 0.38559 0.54281
 C64 C 0.75337 0.40207 0.56601
 C65 C 0.79594 0.41528 0.54284
 C66 C 0.73250 0.36961 0.43644
 C67 C 0.72238 0.38513 0.41376
 C68 C 0.73441 0.42901 0.43764
 C69 C 0.74404 0.41258 0.46013
 N70 N 0.74274 0.38341 0.45921
 H71 H 0.80141 0.39685 0.50208
 H72 H 0.72683 0.37405 0.54264
 H73 H 0.73921 0.40316 0.58347
 H74 H 0.81576 0.42611 0.54234
 H75 H 0.73173 0.34641 0.43621
 H76 H 0.71394 0.37376 0.39601
 H77 H 0.73502 0.45219 0.43882
 H78 H 0.75217 0.42314 0.47844
 C79 C 0.83342 0.31083 0.46393
 C80 C 0.67929 0.30514 0.52225
 C81 C 0.72301 0.41520 0.41432
 C82 C 0.77861 0.41704 0.56635
 C83 C 0.21558 -0.18100 0.02318
 H84 H 0.23519 -0.18883 0.03041
 C85 C 0.19111 -0.19465 0.03193
 H86 H 0.19213 -0.21288 0.04605
 C87 C 0.19034 -0.14622 -0.00200
 H88 H 0.18992 -0.12664 -0.01422
 C89 C 0.16560 -0.15936 0.00582
 H90 H 0.14655 -0.15013 -0.00140
 N91 N 0.21473 -0.15699 0.00679
 C92 C 0.27905 -0.17391 -0.03152
 H93 H 0.26122 -0.17561 -0.04479
 C94 C 0.30353 -0.18666 -0.03986
 H95 H 0.30405 -0.19819 -0.05943
 C96 C 0.30013 -0.15694 0.00982
 H97 H 0.29886 -0.14538 0.02923
 C98 C 0.32508 -0.16929 0.00225
 H99 H 0.34278 -0.16645 0.01568
 Zn100 Zn 0.24690 -0.13457 -0.00104
 N101 N 0.27806 -0.15822 -0.00768
 C102 C 0.27700 -0.09364 0.03084
 N103 N 0.25398 -0.11054 0.03026
 C104 C 0.23663 -0.11205 0.05260
 C105 C 0.24288 -0.09746 0.07721
 C106 C 0.28421 -0.07893 0.05517
 C107 C 0.22833 -0.12605 -0.05563
 C108 C 0.21993 -0.11115 -0.07940
 C109 C 0.23727 -0.06744 -0.05894
 C110 C 0.24484 -0.08328 -0.03517
 N111 N 0.24002 -0.11205 -0.03381
 H112 H 0.29053 -0.09277 0.01284
 H113 H 0.21821 -0.12521 0.05171
 H114 H 0.22891 -0.09934 0.09481
 H115 H 0.30344 -0.06700 0.05562
 H116 H 0.22426 -0.14883 -0.05412
 H117 H 0.21137 -0.12380 -0.09619
 H118 H 0.24039 -0.04447 -0.05824
 H119 H 0.25385 -0.07231 -0.01755
 C120 C 0.32730 -0.18342 -0.02346
 C121 C 0.16563 -0.18337 0.02376
 C122 C 0.22354 -0.08103 -0.08147
 C123 C 0.26739 -0.08130 0.07907
 C124 C 0.22642 0.17412 0.46791
 H125 H 0.24517 0.17602 0.45579
 C126 C 0.20336 0.18996 0.46009
 H127 H 0.20454 0.20382 0.44182
 C128 C 0.20134 0.15188 0.50488
 H129 H 0.20020 0.13650 0.52186
 C130 C 0.17797 0.16733 0.49790
 H131 H 0.15928 0.16383 0.50987
 N132 N 0.22475 0.15479 0.48941
 C133 C 0.30855 0.13136 0.51282
 H134 H 0.30598 0.10841 0.51403
 C135 C 0.33313 0.14374 0.52183
 H136 H 0.34945 0.12994 0.52903
 C137 C 0.28989 0.17717 0.50381
 H138 H 0.27269 0.19017 0.49764
 C139 C 0.31424 0.19053 0.51284
 H140 H 0.31550 0.21371 0.51352
 Zn141 Zn 0.25368 0.12848 0.49669
 N142 N 0.28740 0.14802 0.50424
 C143 C 0.27549 0.08091 0.46775
 N144 N 0.25808 0.10343 0.46550
 C145 C 0.24459 0.10873 0.44108
 C146 C 0.24970 0.09229 0.41736
 C147 C 0.28112 0.06385 0.44459
 C148 C 0.24654 0.12166 0.55392
 C149 C 0.23805 0.10879 0.57896
 C150 C 0.22616 0.06590 0.55339
 C151 C 0.23486 0.07968 0.52870
 N152 N 0.24446 0.10721 0.52941
 H153 H 0.28523 0.07614 0.48746
 H154 H 0.23016 0.12602 0.43965
 H155 H 0.23915 0.09727 0.39802
 H156 H 0.29585 0.04676 0.44668
 H157 H 0.25419 0.14355 0.55385
 H158 H 0.23956 0.12084 0.59818
 H159 H 0.21766 0.04436 0.55240
 H160 H 0.23308 0.06873 0.50892
 C161 C 0.33600 0.17369 0.52264
 C162 C 0.17845 0.18583 0.47459
 C163 C 0.22721 0.08074 0.57887
 C164 C 0.26862 0.06986 0.41878
 C165 C 0.17393 0.46989 0.21995
 H166 H 0.17617 0.45796 0.23932
 C167 C 0.18658 0.46027 0.19554
 H168 H 0.19849 0.44083 0.19642
 C169 C 0.15374 0.50831 0.19499
 H170 H 0.14016 0.52642 0.19451
 C171 C 0.16617 0.49961 0.17019
 H172 H 0.16263 0.51180 0.15118
 N173 N 0.15757 0.49329 0.21919
 C174 C 0.14298 0.51782 0.30573
 H175 H 0.12076 0.51706 0.30474
 C176 C 0.15597 0.52484 0.33069
 H177 H 0.14358 0.52985 0.34882
 C178 C 0.18594 0.51263 0.28290
 H179 H 0.19739 0.50782 0.26414
 C180 C 0.19988 0.52000 0.30754
 H181 H 0.22214 0.52075 0.30769
 Zn182 Zn 0.13629 0.50164 0.25128
 N183 N 0.15797 0.51153 0.28261
 C184 C 0.12390 0.45237 0.28307
 N185 N 0.11569 0.46783 0.26035
 C186 C 0.09521 0.45797 0.24344
 C187 C 0.08128 0.43226 0.24996
 C188 C 0.11097 0.42643 0.28999
 C189 C 0.12825 0.55887 0.23907
 C190 C 0.11454 0.58380 0.23142
 C191 C 0.07151 0.55757 0.23507
 C192 C 0.08612 0.53304 0.24268
 N193 N 0.11406 0.53395 0.24372
 H194 H 0.14094 0.45978 0.29564
 H195 H 0.08977 0.46996 0.22483
 H196 H 0.06478 0.42479 0.23657
 H197 H 0.11766 0.41465 0.30833
 H198 H 0.15046 0.55908 0.24040
 H199 H 0.12646 0.60297 0.22654
 H200 H 0.04931 0.55637 0.23387
 H201 H 0.07511 0.51332 0.24735
 C202 C 0.18476 0.52589 0.33190
 C203 C 0.18236 0.47489 0.17005
 C204 C 0.08580 0.58327 0.22879
 C205 C 0.08929 0.41616 0.27346
 C206 C -0.18394 0.01864 0.22333
 H207 H -0.19437 0.01701 0.24329
 C208 C -0.19760 0.03017 0.20011
 H209 H -0.21827 0.03785 0.20306
 C210 C -0.14389 0.01171 0.19617
 H211 H -0.12296 0.00426 0.19480
 C212 C -0.15651 0.02322 0.17265
 H213 H -0.14503 0.02341 0.15324
 N214 N -0.15732 0.01046 0.22106
 C215 C -0.16020 -0.03974 0.29160
 H216 H -0.15011 -0.05634 0.28003
 C217 C -0.17446 -0.04709 0.31591
 H218 H -0.17519 -0.06935 0.32259
 C219 C -0.17016 0.00941 0.29797
 H220 H -0.16793 0.03144 0.29096
 C221 C -0.18442 0.00298 0.32280
 H222 H -0.19352 0.02009 0.33472
 Zn223 Zn -0.13621 -0.00308 0.25140
 N224 N -0.15836 -0.01192 0.28300
 C225 C -0.09821 0.02348 0.28730
 N226 N -0.11025 0.02554 0.26173
 C227 C -0.10583 0.04888 0.24496
 C228 C -0.08909 0.07152 0.25387
 C229 C -0.08171 0.04590 0.29728
 C230 C -0.13512 -0.05617 0.22607
 C231 C -0.12411 -0.08114 0.21521
 C232 C -0.07929 -0.06577 0.23145
 C233 C -0.09122 -0.04092 0.24202
 N234 N -0.11868 -0.03666 0.23910
 H235 H -0.10235 0.00488 0.30041
 H236 H -0.11569 0.05041 0.22483
 H237 H -0.08586 0.08974 0.24002
 H238 H -0.07350 0.04431 0.31826
 H239 H -0.15688 -0.05215 0.22400
 H240 H -0.13762 -0.09640 0.20496
 H241 H -0.05732 -0.06866 0.23337
 H242 H -0.07854 -0.02495 0.25226
 C243 C -0.18670 -0.02565 0.33192
 C244 C -0.18357 0.03362 0.17434
 C245 C -0.09581 -0.08608 0.21754
 C246 C -0.07725 0.07060 0.28064
 C247 C 0.33435 0.53744 0.72333
 H248 H 0.33141 0.54622 0.74399
 C249 C 0.31863 0.54745 0.70082
 H250 H 0.30363 0.56399 0.70433
 C251 C 0.35856 0.50645 0.69327
 H252 H 0.37468 0.49116 0.69002
 C253 C 0.34341 0.51579 0.67034
 H254 H 0.34760 0.50682 0.64996
 N255 N 0.35377 0.51715 0.71921
 C256 C 0.37400 0.47824 0.79960
 H257 H 0.39596 0.47792 0.79600
 C258 C 0.36317 0.46650 0.82411
 H259 H 0.37693 0.45714 0.83935
 C260 C 0.32957 0.49125 0.78401
 H261 H 0.31664 0.50072 0.76816
 C262 C 0.31779 0.47982 0.80854
 H263 H 0.29571 0.48033 0.81138
 Zn264 Zn 0.37685 0.50506 0.74895
 N265 N 0.35728 0.49035 0.78018
 C266 C 0.39360 0.54680 0.78688
 N267 N 0.39842 0.53675 0.76073
 C268 C 0.41691 0.54999 0.74333
 C269 C 0.43158 0.57431 0.75229
 C270 C 0.40760 0.57087 0.79654
 C271 C 0.38388 0.45088 0.72865
 C272 C 0.39719 0.42704 0.71821
 C273 C 0.44079 0.45107 0.72633
 C274 C 0.42653 0.47486 0.73616
 N275 N 0.39855 0.47444 0.73660
 H276 H 0.37839 0.53659 0.80022
 H277 H 0.42002 0.54187 0.72244
 H278 H 0.44599 0.58494 0.73821
 H279 H 0.40341 0.57838 0.81750
 H280 H 0.36166 0.45101 0.72982
 H281 H 0.38521 0.40871 0.71126
 H282 H 0.46305 0.45159 0.72554
 H283 H 0.43776 0.49354 0.74330
 C284 C 0.33474 0.46707 0.82880
 C285 C 0.32333 0.53675 0.67383
 C286 C 0.42593 0.42712 0.71675
 C287 C 0.42662 0.58516 0.77912
 C288 C 0.67299 0.97611 0.73001
 H289 H 0.67846 0.96894 0.75084
 C290 C 0.68499 0.96348 0.70666
 H291 H 0.70023 0.94704 0.70976
 C292 C 0.64581 1.00562 0.70077
 H293 H 0.62968 1.02117 0.69852
 C294 C 0.65714 0.99347 0.67688
 H295 H 0.64968 1.00007 0.65652
 N296 N 0.65374 0.99671 0.72668
 C297 C 0.64403 1.02721 0.81187
 H298 H 0.62186 1.02515 0.81275
 C299 C 0.65855 1.03495 0.83571
 H300 H 0.64700 1.03942 0.85452
 C301 C 0.68517 1.02493 0.78546
 H302 H 0.69533 1.02086 0.76577
 C303 C 0.70054 1.03402 0.80859
 H304 H 0.72262 1.03626 0.80641
 Zn305 Zn 0.63426 1.00934 0.75837
 N306 N 0.65746 1.02140 0.78770
 C307 C 0.61887 0.96455 0.79525
 N308 N 0.61214 0.97804 0.77091
 C309 C 0.59092 0.96838 0.75487
 C310 C 0.57464 0.94512 0.76392
 C311 C 0.60313 0.94149 0.80513
 C312 C 0.62739 1.06403 0.73751
 C313 C 0.61369 1.08821 0.72790
 C314 C 0.57082 1.06630 0.74308
 C315 C 0.58538 1.04233 0.75215
 N316 N 0.61308 1.04139 0.74853
 H317 H 0.63677 0.97126 0.80691
 H318 H 0.58655 0.97887 0.73512
 H319 H 0.55752 0.93794 0.75122
 H320 H 0.60894 0.93103 0.82452
 H321 H 0.64949 1.06278 0.73529
 H322 H 0.62545 1.10526 0.71783
 H323 H 0.54874 1.06660 0.74592
 H324 H 0.57453 1.02450 0.76188
 C325 C 0.68732 1.03852 0.83450
 C326 C 0.67670 0.97176 0.67962
 C327 C 0.58494 1.08941 0.73018
 C328 C 0.58052 0.93169 0.78959
 C329 C 0.03425 0.23245 -0.16444
 H330 H 0.04509 0.25281 -0.16604
 C331 C 0.04503 0.20816 -0.17715
 H332 H 0.06395 0.21019 -0.18902
 C333 C -0.00318 0.20504 -0.14629
 H334 H -0.02155 0.20371 -0.13357
 C335 C 0.00688 0.18022 -0.15863
 H336 H -0.00395 0.16005 -0.15522
 N337 N 0.01070 0.23043 -0.14914
 C338 C -0.02158 0.31659 -0.13845
 H339 H -0.02375 0.31618 -0.11591
 C340 C -0.03048 0.34030 -0.15373
 H341 H -0.03979 0.35793 -0.14274
 C342 C -0.00787 0.29332 -0.18002
 H343 H 0.00069 0.27482 -0.19014
 C344 C -0.01665 0.31664 -0.19619
 H345 H -0.01448 0.31598 -0.21873
 Zn346 Zn -0.00026 0.26271 -0.12829
 N347 N -0.01039 0.29382 -0.15167
 C348 C 0.04034 0.30070 -0.10786
 N349 N 0.02983 0.27364 -0.10543
 C350 C 0.04179 0.25381 -0.08844
 C351 C 0.06539 0.26095 -0.07314
 C352 C 0.06378 0.30869 -0.09306
 C353 C -0.05565 0.25053 -0.12042
 C354 C -0.07976 0.24306 -0.10617
 C355 C -0.05363 0.24101 -0.06329
 C356 C -0.03015 0.24912 -0.07840
 N357 N -0.03147 0.25305 -0.10652
 H358 H 0.03105 0.31603 -0.12185
 H359 H 0.03336 0.23224 -0.08731
 H360 H 0.07510 0.24478 -0.06026
 H361 H 0.07186 0.33033 -0.09546
 H362 H -0.05608 0.25389 -0.14285
 H363 H -0.09798 0.23993 -0.11873
 H364 H -0.05148 0.23888 -0.04087
 H365 H -0.01088 0.25212 -0.06757
 C366 C -0.02814 0.34054 -0.18301
 C367 C 0.03158 0.18145 -0.17389
 C368 C -0.07925 0.23733 -0.07701
 C369 C 0.07689 0.28859 -0.07579
 C370 C 0.46681 0.21744 0.16699
 H371 H 0.45810 0.23845 0.16972
 C372 C 0.45635 0.19424 0.18249
 H373 H 0.44073 0.19829 0.19805
 C374 C 0.49702 0.18697 0.14272
 H375 H 0.51237 0.18409 0.12664
 C376 C 0.48649 0.16301 0.15709
 H377 H 0.49397 0.14207 0.15153
 N378 N 0.48685 0.21351 0.14756
 C379 C 0.51962 0.29969 0.12820
 H380 H 0.52321 0.29696 0.10611
 C381 C 0.52864 0.32488 0.14103
 H382 H 0.53888 0.34121 0.12843
 C383 C 0.50472 0.28045 0.17170
 H384 H 0.49640 0.26286 0.18392
 C385 C 0.51317 0.30544 0.18536
 H386 H 0.51029 0.30685 0.20777
 Zn387 Zn 0.49795 0.24427 0.12340
 N388 N 0.50769 0.27813 0.14348
 C389 C 0.47152 0.27313 0.07842
 N390 N 0.46849 0.25236 0.09841
 C391 C 0.44402 0.23826 0.10195
 C392 C 0.42096 0.24633 0.08660
 C393 C 0.44902 0.28174 0.06246
 C394 C 0.55311 0.23198 0.11932
 C395 C 0.57816 0.22571 0.10674
 C396 C 0.55482 0.22228 0.06224
 C397 C 0.53015 0.22885 0.07571
 N398 N 0.52983 0.23360 0.10375
 H399 H 0.49123 0.28344 0.07510
 H400 H 0.44195 0.22134 0.11735
 H401 H 0.40141 0.23587 0.09100
 H402 H 0.45178 0.29873 0.04708
 H403 H 0.55218 0.23585 0.14160
 H404 H 0.59643 0.22433 0.11956
 H405 H 0.55487 0.21877 0.03987
 H406 H 0.51134 0.23022 0.06378
 C407 C 0.52555 0.32805 0.17004
 C408 C 0.46555 0.16629 0.17714
 C409 C 0.57927 0.22088 0.07782
 C410 C 0.42308 0.26893 0.06711
 C411 C 0.96561 0.73207 0.66155
 H412 H 0.95831 0.75358 0.66493
 C413 C 0.95438 0.70914 0.67700
 H414 H 0.93919 0.71367 0.69285
 C415 C 0.99416 0.70048 0.63657
 H416 H 1.00913 0.69705 0.62024
 C417 C 0.98292 0.67689 0.65090
 H418 H 0.98948 0.65570 0.64501
 N419 N 0.98540 0.72744 0.64203
 C420 C 1.02418 0.81126 0.62531
 H421 H 1.02550 0.80963 0.60277
 C422 C 1.03514 0.83531 0.63865
 H423 H 1.04521 0.85187 0.62618
 C424 C 1.01054 0.79081 0.66878
 H425 H 1.00144 0.77323 0.68053
 C426 C 1.02115 0.81458 0.68301
 H427 H 1.01948 0.81518 0.70559
 Zn428 Zn 0.99854 0.75822 0.61920
 N429 N 1.01192 0.78975 0.64037
 C430 C 0.96068 0.79766 0.59697
 N431 N 0.96904 0.76997 0.59618
 C432 C 0.95556 0.75014 0.58036
 C433 C 0.93274 0.75800 0.56434
 C434 C 0.93830 0.80646 0.58110
 C435 C 1.05146 0.73868 0.61212
 C436 C 1.07507 0.73002 0.59815
 C437 C 1.05128 0.73642 0.55422
 C438 C 1.02807 0.74510 0.56909
 N439 N 1.02856 0.74583 0.59754
 H440 H 0.97099 0.81294 0.61028
 H441 H 0.96236 0.72814 0.58047
 H442 H 0.92213 0.74203 0.55191
 H443 H 0.93176 0.82853 0.58239
 H444 H 1.05128 0.73968 0.63474
 H445 H 1.09289 0.72388 0.61024
 H446 H 1.05065 0.73602 0.53158
 H447 H 1.00979 0.75138 0.55791
 C448 C 1.03371 0.83727 0.66792
 C449 C 0.96265 0.68088 0.67152
 C450 C 1.07521 0.72877 0.56881
 C451 C 0.92399 0.78656 0.56454
 C452 C 0.53232 0.72123 0.34891
 H453 H 0.54300 0.74172 0.34793
 C454 C 0.54270 0.69778 0.33450
 H455 H 0.56118 0.70056 0.32205
 C456 C 0.49547 0.69275 0.36674
 H457 H 0.47748 0.69064 0.37991
 C458 C 0.50513 0.66874 0.35266
 H459 H 0.49437 0.64841 0.35518
 N460 N 0.50911 0.71836 0.36464
 C461 C 0.47709 0.80427 0.37603
 H462 H 0.47476 0.80350 0.39856
 C463 C 0.46836 0.82825 0.36109
 H464 H 0.45862 0.84501 0.37286
 C465 C 0.49076 0.78157 0.33430
 H466 H 0.49938 0.76322 0.32396
 C467 C 0.48232 0.80521 0.31840
 H468 H 0.48569 0.80455 0.29607
 Zn469 Zn 0.49780 0.75026 0.38590
 N470 N 0.48810 0.78161 0.36260
 C471 C 0.54013 0.78695 0.40360
 N472 N 0.52774 0.76119 0.40904
 C473 C 0.53842 0.74257 0.42816
 C474 C 0.56281 0.74952 0.44233
 C475 C 0.56447 0.79456 0.41698
 C476 C 0.44305 0.73587 0.39072
 C477 C 0.41779 0.72982 0.40333
 C478 C 0.43955 0.73412 0.44855
 C479 C 0.46452 0.74026 0.43499
 N480 N 0.46578 0.74075 0.40655
 H481 H 0.53189 0.80120 0.38791
 H482 H 0.52852 0.72194 0.43168
 H483 H 0.57161 0.73428 0.45689
 H484 H 0.57436 0.81488 0.41181
 H485 H 0.44463 0.73672 0.36813
 H486 H 0.40011 0.72545 0.39024
 H487 H 0.43877 0.73385 0.47120
 H488 H 0.48274 0.74482 0.44716
 C489 C 0.47068 0.82928 0.33161
 C490 C 0.52920 0.67099 0.33647
 C491 C 0.41576 0.72888 0.43262
 C492 C 0.57640 0.77554 0.43615
 C493 C 0.36392 -0.00856 0.25113
 C494 C 0.13154 1.00804 0.75405
 C495 C 0.62396 0.50113 0.25034
 C496 C 0.86252 0.50274 0.73869
 C497 C 0.25355 0.37098 0.00066
 C498 C 0.75464 0.13959 1.00277
 C499 C 0.24502 0.63106 0.50200
 C500 C 0.74658 0.87427 0.50567
 C501 C 0.00717 0.24483 0.37217
 C502 C 0.99424 0.74535 0.12439
 C503 C 0.50265 0.25397 0.62170
 C504 C 0.50309 0.75479 0.88300
 C505 C 0.43624 -0.10052 0.28738
 C506 C 0.44106 -0.12633 0.27335
 C507 C 0.45313 -0.14921 0.28759
 C508 C 0.46072 -0.14681 0.31600
 C509 C 0.45701 -0.11977 0.32854
 N510 N 0.44492 -0.09802 0.31428
 C511 C 0.42053 -0.07643 0.27491
 N512 N 0.41882 -0.05153 0.28946
 C513 C 0.40238 -0.02961 0.28139
 C514 C 0.38481 -0.03247 0.25811
 C515 C 0.38841 -0.05694 0.24136
 C516 C 0.40570 -0.07898 0.24985
 H517 H 0.45486 -0.16914 0.27641
 H518 H 0.46387 -0.11546 0.34959
 H519 H 0.40182 -0.01050 0.29407
 H520 H 0.37780 -0.05958 0.22170
 H521 H 0.43520 -0.12947 0.25181
 H522 H 0.40652 -0.09790 0.23706
 C523 C 0.93578 0.41105 0.77302
 C524 C 0.93316 0.38314 0.76226
 C525 C 0.94582 0.36031 0.77598
 C526 C 0.96098 0.36503 0.80049
 C527 C 0.96383 0.39331 0.81006
 N528 N 0.95115 0.41518 0.79647
 C529 C 0.92012 0.43557 0.76146
 N530 N 0.91645 0.45904 0.77773
 C531 C 0.89984 0.48096 0.77004
 C532 C 0.88406 0.47933 0.74535
 C533 C 0.89030 0.45686 0.72685
 C534 C 0.90793 0.43496 0.73490
 H535 H 0.94267 0.33880 0.76813
 H536 H 0.97567 0.39798 0.82866
 H537 H 0.89758 0.49891 0.78405
 H538 H 0.88168 0.45584 0.70606
 H539 H 0.92048 0.37845 0.74429
 H540 H 0.91171 0.41783 0.72035
 C541 C 0.06837 1.10439 0.79602
 C542 C 0.03972 1.10759 0.79411
 C543 C 0.02767 1.13275 0.80371
 C544 C 0.04400 1.15484 0.81504
 C545 C 0.07252 1.15082 0.81636
 N546 N 0.08373 1.12618 0.80695
 C547 C 0.08288 1.07872 0.78574
 N548 N 0.11049 1.08085 0.78168
 C549 C 0.12565 1.05881 0.77206
 C550 C 0.11313 1.03238 0.76500
 C551 C 0.08481 1.02916 0.77082
 C552 C 0.06963 1.05227 0.78078
 H553 H 0.00563 1.13510 0.80190
 H554 H 0.08592 1.16700 0.82532
 H555 H 0.14758 1.06203 0.76939
 H556 H 0.07430 1.00881 0.76830
 H557 H 0.02670 1.09128 0.78488
 H558 H 0.04798 1.04905 0.78509
 C559 C 0.56351 0.59660 0.29816
 C560 C 0.53487 0.60032 0.29785
 C561 C 0.52363 0.62461 0.31021
 C562 C 0.54077 0.64532 0.32270
 C563 C 0.56925 0.64089 0.32227
 N564 N 0.57966 0.61709 0.31023
 C565 C 0.57714 0.57158 0.28539
 N566 N 0.60469 0.57336 0.28078
 C567 C 0.61917 0.55161 0.26959
 C568 C 0.60604 0.52579 0.26158
 C569 C 0.57767 0.52307 0.26745
 C570 C 0.56320 0.54589 0.27898
 H571 H 0.50157 0.62738 0.30965
 H572 H 0.58325 0.65604 0.33194
 H573 H 0.64114 0.55444 0.26679
 H574 H 0.56658 0.50319 0.26410
 H575 H 0.52120 0.58510 0.28787
 H576 H 0.54158 0.54287 0.28354
 C577 C 0.56291 0.40142 0.20871
 C578 C 0.56191 0.37500 0.22309
 C579 C 0.54925 0.35133 0.21077
 C580 C 0.53698 0.35383 0.18432
 C581 C 0.53715 0.38101 0.17127
 N582 N 0.55005 0.40373 0.18353
 C583 C 0.57838 0.42641 0.21991
 N584 N 0.57206 0.45347 0.21133
 C585 C 0.58590 0.47711 0.22072
 C586 C 0.60722 0.47449 0.24054
 C587 C 0.61507 0.44633 0.24784
 C588 C 0.60067 0.42261 0.23798
 H589 H 0.54987 0.33090 0.22166
 H590 H 0.52735 0.38416 0.15120
 H591 H 0.58022 0.49803 0.21283
 H592 H 0.63292 0.44217 0.26060
 H593 H 0.57099 0.37238 0.24358
 H594 H 0.60774 0.40150 0.24381
 C595 C 0.07305 0.90880 0.70794
 C596 C 0.07325 0.88159 0.72087
 C597 C 0.06011 0.85845 0.70806
 C598 C 0.04634 0.86222 0.68255
 C599 C 0.04567 0.89001 0.67086
 N600 N 0.05890 0.91223 0.68361
 C601 C 0.08818 0.93362 0.71994
 N602 N 0.08058 0.96084 0.71321
 C603 C 0.09374 0.98442 0.72365
 C604 C 0.11559 0.98151 0.74283
 C605 C 0.12491 0.95338 0.74795
 C606 C 0.11118 0.92969 0.73704
 H607 H 0.06133 0.83749 0.71785
 H608 H 0.03477 0.89408 0.65155
 H609 H 0.08706 1.00547 0.71711
 H610 H 0.14327 0.94938 0.76001
 H611 H 0.08342 0.87802 0.74067
 H612 H 0.11922 0.90860 0.74137
 C613 C 0.92377 0.60698 0.70968
 C614 C 0.90938 0.63274 0.70781
 C615 C 0.92206 0.65686 0.69573
 C616 C 0.94937 0.65569 0.68604
 C617 C 0.96328 0.62953 0.68932
 N618 N 0.95018 0.60610 0.70039
 C619 C 0.90999 0.58039 0.71952
 N620 N 0.91324 0.55584 0.70483
 C621 C 0.89922 0.53127 0.71135
 C622 C 0.87995 0.53044 0.73353
 C623 C 0.87851 0.55509 0.75044
 C624 C 0.89285 0.58016 0.74306
 H625 H 0.90999 0.67601 0.69316
 H626 H 0.98450 0.62748 0.68296
 H627 H 0.90222 0.51259 0.69847
 H628 H 0.86637 0.55548 0.76936
 H629 H 0.88812 0.63386 0.71447
 H630 H 0.89069 0.59917 0.75572
 C631 C 0.42670 0.09218 0.21486
 C632 C 0.41200 0.11762 0.21202
 C633 C 0.42461 0.14164 0.19982
 C634 C 0.45223 0.14078 0.19103
 C635 C 0.46632 0.11477 0.19477
 N636 N 0.45329 0.09137 0.20607
 C637 C 0.41314 0.06619 0.22627
 N638 N 0.41460 0.04105 0.21219
 C639 C 0.40006 0.01728 0.22038
 C640 C 0.38201 0.01811 0.24358
 C641 C 0.38276 0.04329 0.25982
 C642 C 0.39758 0.06741 0.25083
 H643 H 0.41231 0.16053 0.19666
 H644 H 0.48767 0.11292 0.18885
 H645 H 0.40164 -0.00203 0.20810
 H646 H 0.37198 0.04485 0.27950
 H647 H 0.39063 0.11862 0.21833
 H648 H 0.39693 0.08691 0.26297
 C649 C 0.30250 0.42743 -0.09701
 C650 C 0.32249 0.41343 -0.11287
 C651 C 0.33270 0.42634 -0.13712
 C652 C 0.32319 0.45326 -0.14570
 C653 C 0.30336 0.46678 -0.12917
 N654 N 0.29368 0.45374 -0.10542
 C655 C 0.29039 0.41340 -0.07200
 N656 N 0.28407 0.42904 -0.04897
 C657 C 0.27286 0.41683 -0.02547
 C658 C 0.26661 0.38717 -0.02461
 C659 C 0.27383 0.37092 -0.04822
 C660 C 0.28533 0.38383 -0.07176
 H661 H 0.34793 0.41517 -0.14932
 H662 H 0.29583 0.48775 -0.13495
 H663 H 0.26929 0.43034 -0.00765
 H664 H 0.26992 0.34801 -0.04859
 H665 H 0.33031 0.39274 -0.10652
 H666 H 0.28974 0.37077 -0.08981
 C667 C 0.77955 0.94385 0.40912
 C668 C 0.79504 0.96952 0.40898
 C669 C 0.80487 0.98068 0.38349
 C670 C 0.79925 0.96628 0.35840
 C671 C 0.78234 0.94175 0.35941
 N672 N 0.77344 0.93113 0.38434
 C673 C 0.77184 0.92815 0.43501
 N674 N 0.76788 0.89939 0.43300
 C675 C 0.76054 0.88271 0.45511
 C676 C 0.75548 0.89479 0.48154
 C677 C 0.76090 0.92444 0.48446
 C678 C 0.76877 0.94121 0.46120
 H679 H 0.81809 0.99955 0.38354
 H680 H 0.77713 0.93031 0.34049
 H681 H 0.75799 0.85986 0.45193
 H682 H 0.75947 0.93476 0.50455
 H683 H 0.80082 0.97999 0.42825
 H684 H 0.77208 0.96402 0.46375
 C685 C 0.78238 0.07753 1.10503
 C686 C 0.76465 0.06346 1.12398
 C687 C 0.77569 0.04899 1.14710
 C688 C 0.80444 0.04796 1.15113
 C689 C 0.82119 0.06253 1.13135
 N690 N 0.80990 0.07678 1.10952
 C691 C 0.77273 0.09411 1.08061
 N692 N 0.78916 0.11581 1.07106
 C693 C 0.78368 0.13082 1.04741
 C694 C 0.76100 0.12334 1.03044
 C695 C 0.74246 0.10251 1.04140
 C696 C 0.74845 0.08753 1.06612
 H697 H 0.76161 0.03791 1.16114
 H698 H 0.84325 0.06400 1.13369
 H699 H 0.79729 0.14855 1.04221
 H700 H 0.72372 0.09725 1.03027
 H701 H 0.74258 0.06399 1.12131
 H702 H 0.73471 0.07052 1.07319
 C703 C 0.28149 0.56972 0.60175
 C704 C 0.26664 0.56466 0.62668
 C705 C 0.28022 0.55401 0.65029
 C706 C 0.30840 0.54811 0.64912
 C707 C 0.32234 0.55312 0.62376
 N708 N 0.30878 0.56367 0.60121
 C709 C 0.26920 0.58243 0.57613
 N710 N 0.28451 0.58292 0.55225
 C711 C 0.27635 0.59661 0.52856
 C712 C 0.25201 0.61268 0.52820
 C713 C 0.23462 0.60987 0.55178
 C714 C 0.24331 0.59538 0.57581
 H715 H 0.26862 0.55004 0.66933
 H716 H 0.34415 0.54922 0.62196
 H717 H 0.28969 0.59640 0.51041
 H718 H 0.21433 0.61898 0.55213
 H719 H 0.24487 0.56858 0.62823
 H720 H 0.22998 0.59521 0.59390
 C721 C 0.21842 0.55605 0.40885
 C722 C 0.19888 0.53358 0.40925
 C723 C 0.18881 0.52286 0.38407
 C724 C 0.19839 0.53406 0.35844
 C725 C 0.21935 0.55498 0.35889
 N726 N 0.22843 0.56556 0.38372
 C727 C 0.22691 0.57131 0.43461
 N728 N 0.25019 0.58778 0.43397
 C729 C 0.25748 0.60544 0.45527
 C730 C 0.23998 0.60872 0.47863
 C731 C 0.21727 0.58973 0.48072
 C732 C 0.21039 0.57154 0.45874
 H733 H 0.17308 0.50621 0.38458
 H734 H 0.22738 0.56408 0.33958
 H735 H 0.27672 0.61709 0.45343
 H736 H 0.20387 0.59026 0.49884
 H737 H 0.19099 0.52461 0.42864
 H738 H 0.19156 0.55906 0.46032
 C739 C 0.72696 0.07054 0.90605
 C740 C 0.70558 0.05048 0.90924
 C741 C 0.69290 0.03930 0.88556
 C742 C 0.70197 0.04736 0.85852
 C743 C 0.72497 0.06598 0.85650
 N744 N 0.73608 0.07769 0.87995
 C745 C 0.73673 0.08685 0.93027
 N746 N 0.73561 0.11589 0.92923
 C747 C 0.74143 0.13231 0.95178
 C748 C 0.74867 0.11969 0.97768
 C749 C 0.75173 0.08962 0.97834
 C750 C 0.74506 0.07317 0.95496
 H751 H 0.67604 0.02419 0.88855
 H752 H 0.73271 0.07321 0.83637
 H753 H 0.73979 0.15536 0.94975
 H754 H 0.75932 0.07852 0.99661
 H755 H 0.69778 0.04473 0.92981
 H756 H 0.74651 0.05003 0.95604
 C757 C 0.70538 0.92822 0.60681
 C758 C 0.70045 0.91272 0.63168
 C759 C 0.69136 0.92697 0.65539
 C760 C 0.68707 0.95666 0.65452
 C761 C 0.69183 0.97132 0.62909
 N762 N 0.70071 0.95693 0.60619
 C763 C 0.71578 0.91401 0.58145
 N764 N 0.70845 0.92390 0.55567
 C765 C 0.71776 0.91185 0.53164
 C766 C 0.73662 0.88914 0.53258
 C767 C 0.74314 0.87794 0.55927
 C768 C 0.73329 0.89053 0.58347
 H769 H 0.68712 0.91459 0.67422
 H770 H 0.68883 0.99423 0.62745
 H771 H 0.71053 0.92009 0.51178
 H772 H 0.75580 0.85919 0.56172
 H773 H 0.70308 0.88973 0.63276
 H774 H 0.73966 0.88204 0.60355
 C775 C 0.21273 0.43850 0.09403
 C776 C 0.18747 0.45272 0.09387
 C777 C 0.17785 0.46507 0.11849
 C778 C 0.19330 0.46347 0.14329
 C779 C 0.21871 0.44957 0.14233
 N780 N 0.22748 0.43742 0.11821
 C781 C 0.22297 0.42270 0.06946
 N782 N 0.23983 0.40020 0.07412
 C783 C 0.24997 0.38400 0.05317
 C784 C 0.24399 0.39042 0.02486
 C785 C 0.22566 0.41308 0.01981
 C786 C 0.21549 0.42945 0.04184
 H787 H 0.15784 0.47495 0.11829
 H788 H 0.23154 0.44812 0.16075
 H789 H 0.26207 0.36568 0.05907
 H790 H 0.21918 0.41809 -0.00131
 H791 H 0.17469 0.45333 0.07539
 H792 H 0.20209 0.44718 0.03716
 C793 C -0.09168 0.27464 0.43432
 C794 C -0.09245 0.28617 0.46138
 C795 C -0.11717 0.29700 0.47169
 C796 C -0.14101 0.29632 0.45512
 C797 C -0.13953 0.28337 0.42878
 N798 N -0.11527 0.27342 0.41909
 C799 C -0.06583 0.26628 0.42042
 N800 N -0.06513 0.26712 0.39203
 C801 C -0.04239 0.26059 0.37714
 C802 C -0.01778 0.25279 0.39066
 C803 C -0.01855 0.25041 0.42014
 C804 C -0.04232 0.25754 0.43503
 H805 H -0.11733 0.30708 0.49202
 H806 H -0.15750 0.28180 0.41553
 H807 H -0.04336 0.26179 0.35453
 H808 H -0.00125 0.24252 0.43189
 H809 H -0.07404 0.28815 0.47391
 H810 H -0.04241 0.25553 0.45761
 C811 C 0.40594 0.79214 0.94416
 C812 C 0.40026 0.78790 0.97279
 C813 C 0.37458 0.79563 0.98349
 C814 C 0.35450 0.80734 0.96579
 C815 C 0.36112 0.81120 0.93740
 N816 N 0.38612 0.80358 0.92755
 C817 C 0.43205 0.78361 0.93058
 N818 N 0.43252 0.78277 0.90219
 C819 C 0.45484 0.77454 0.88748
 C820 C 0.47893 0.76551 0.90121
 C821 C 0.47953 0.76801 0.93061
 C822 C 0.45612 0.77669 0.94533
 H823 H 0.37028 0.79205 1.00550
 H824 H 0.34661 0.82071 0.92303
 H825 H 0.45350 0.77410 0.86488
 H826 H 0.49792 0.76354 0.94241
 H827 H 0.41505 0.77831 0.98675
 H828 H 0.45717 0.77823 0.96786
 C829 C 1.09064 0.78578 0.06150
 C830 C 1.09433 0.81510 0.05561
 C831 C 1.11855 0.82485 0.04312
 C832 C 1.13924 0.80555 0.03586
 C833 C 1.13443 0.77617 0.04124
 N834 N 1.11057 0.76712 0.05380
 C835 C 1.06609 0.77555 0.07730
 N836 N 1.05450 0.74934 0.07223
 C837 C 1.03165 0.73964 0.08625
 C838 C 1.01873 0.75684 0.10649
 C839 C 1.03195 0.78309 0.11301
 C840 C 1.05503 0.79254 0.09838
 H841 H 1.12132 0.84772 0.03986
 H842 H 1.14964 0.76049 0.03564
 H843 H 1.02362 0.71843 0.08175
 H844 H 1.02513 0.79636 0.13004
 H845 H 1.07874 0.83052 0.06090
 H846 H 1.06460 0.81271 0.10419
 C847 C 0.60578 0.27676 0.56325
 C848 C 0.62897 0.28415 0.57919
 C849 C 0.65340 0.29192 0.56575
 C850 C 0.65482 0.29245 0.53645
 C851 C 0.63154 0.28351 0.52126
 N852 N 0.60783 0.27606 0.53485
 C853 C 0.57888 0.27205 0.57695
 N854 N 0.56228 0.24969 0.56947
 C855 C 0.53770 0.24430 0.58238
 C856 C 0.52801 0.26247 0.60368
 C857 C 0.54547 0.28548 0.61153
 C858 C 0.57045 0.29041 0.59815
 H859 H 0.67075 0.29888 0.57827
 H860 H 0.63198 0.28328 0.49862
 H861 H 0.52604 0.22536 0.57657
 H862 H 0.54065 0.29927 0.62888
 H863 H 0.62797 0.28462 0.60182
 H864 H 0.58326 0.30834 0.60459
 C865 C 0.40548 0.21185 0.56342
 C866 C 0.39294 0.18701 0.57461
 C867 C 0.37047 0.17474 0.56117
 C868 C 0.36039 0.18685 0.53634
 C869 C 0.37368 0.21151 0.52549
 N870 N 0.39575 0.22320 0.53905
 C871 C 0.42901 0.22544 0.57801
 N872 N 0.45010 0.23779 0.56323
 C873 C 0.47328 0.24808 0.57594
 C874 C 0.47652 0.24531 0.60520
 C875 C 0.45371 0.23485 0.62061
 C876 C 0.43026 0.22487 0.60725
 H877 H 0.36071 0.15595 0.57049
 H878 H 0.36666 0.22133 0.50623
 H879 H 0.48901 0.25810 0.56308
 H880 H 0.45450 0.23349 0.64323
 H881 H 0.40051 0.17694 0.59353
 H882 H 0.41338 0.21646 0.61978
 C883 C 0.89990 0.69563 0.06586
 C884 C 0.88659 0.67134 0.07730
 C885 C 0.86374 0.65966 0.06397
 C886 C 0.85409 0.67163 0.03888
 C887 C 0.86817 0.69573 0.02779
 N888 N 0.89049 0.70694 0.04133
 C889 C 0.92364 0.70903 0.08046
 N890 N 0.94406 0.72264 0.06570
 C891 C 0.96672 0.73427 0.07835
 C892 C 0.96998 0.73217 0.10767
 C893 C 0.94813 0.71952 0.12301
 C894 C 0.92530 0.70798 0.10969
 H895 H 0.85345 0.64132 0.07356
 H896 H 0.86161 0.70544 0.00831
 H897 H 0.98171 0.74545 0.06547
 H898 H 0.94890 0.71848 0.14565
 H899 H 0.89380 0.66118 0.09631
 H900 H 0.90896 0.69867 0.12235
 C901 C 0.59813 0.70268 0.93707
 C902 C 0.59742 0.67511 0.94913
 C903 C 0.62172 0.66290 0.95873
 C904 C 0.64688 0.67792 0.95642
 C905 C 0.64674 0.70534 0.94408
 N906 N 0.62278 0.71678 0.93481
 C907 C 0.57325 0.71634 0.92523
 N908 N 0.57676 0.73747 0.90576
 C909 C 0.55538 0.75065 0.89301
 C910 C 0.52787 0.74316 0.89984
 C911 C 0.52398 0.72084 0.91961
 C912 C 0.54637 0.70783 0.93263
 H913 H 0.62088 0.64138 0.96740
 H914 H 0.66557 0.71779 0.94198
 H915 H 0.56029 0.76607 0.87673
 H916 H 0.50344 0.71319 0.92472
 H917 H 0.57860 0.66259 0.95049
 H918 H 0.54244 0.69129 0.94816
 C919 C 0.10479 0.21630 0.43672
 C920 C 0.10533 0.18882 0.44875
 C921 C 0.12902 0.17949 0.46201
 C922 C 0.15236 0.19742 0.46335
 C923 C 0.15068 0.22526 0.45193
 N924 N 0.12722 0.23392 0.43894
 C925 C 0.08119 0.22454 0.41928
 N926 N 0.06801 0.24977 0.42321
 C927 C 0.04500 0.25669 0.40843
 C928 C 0.03349 0.23734 0.38892
 C929 C 0.04884 0.21255 0.38308
 C930 C 0.07200 0.20586 0.39854
 H931 H 0.12944 0.15773 0.47010
 H932 H 0.16817 0.23982 0.45280
 H933 H 0.03526 0.27702 0.41229
 H934 H 0.04337 0.19808 0.36640
 H935 H 0.08778 0.17438 0.44715
 H936 H 0.08288 0.18626 0.39415
 C937 C 0.54469 0.15835 0.68798
 C938 C 0.53186 0.13119 0.68952
 C939 C 0.54458 0.10897 0.70396
 C940 C 0.56982 0.11371 0.71741
 C941 C 0.58117 0.14160 0.71675
 N942 N 0.56861 0.16282 0.70211
 C943 C 0.53332 0.18206 0.67095
 N944 N 0.54196 0.20946 0.67576
 C945 C 0.53266 0.23219 0.66063
 C946 C 0.51271 0.22829 0.63956
 C947 C 0.50531 0.19973 0.63308
 C948 C 0.51518 0.17687 0.64877
 H949 H 0.53505 0.08787 0.70373
 H950 H 0.60022 0.14648 0.72746
 H951 H 0.54064 0.25339 0.66524
 H952 H 0.49231 0.19463 0.61544
 H953 H 0.51233 0.12683 0.67956
 H954 H 0.50922 0.15538 0.64276
 C955 C 1.04651 0.65647 0.19241
 C956 C 1.06749 0.66063 0.21224
 C957 C 1.07974 0.63681 0.22482
 C958 C 1.07122 0.60886 0.21783
 C959 C 1.04972 0.60571 0.19855
 N960 N 1.03831 0.62915 0.18645
 C961 C 1.03355 0.68028 0.17651
 N962 N 1.01641 0.67308 0.15522
 C963 C 1.00365 0.69278 0.13897
 C964 C 1.00713 0.72244 0.14390
 C965 C 1.02593 0.73032 0.16500
 C966 C 1.03870 0.70952 0.18161
 H967 H 1.09607 0.64028 0.23983
 H968 H 1.04266 0.58465 0.19221
 H969 H 0.99137 0.68488 0.12181
 H970 H 1.03068 0.75272 0.16869
 H971 H 1.07499 0.68173 0.21772
 H972 H 1.05242 0.71661 0.19795
 C973 C 0.93986 0.84096 0.17855
 C974 C 0.91911 0.85621 0.16479
 C975 C 0.90754 0.87986 0.17760
 C976 C 0.91636 0.88841 0.20422
 C977 C 0.93682 0.87229 0.21756
 N978 N 0.94787 0.84921 0.20460
 C979 C 0.95346 0.81659 0.16489
 N980 N 0.96243 0.79402 0.18052
 C981 C 0.97521 0.77113 0.16891
 C982 C 0.98035 0.77043 0.13983
 C983 C 0.97042 0.79344 0.12356
 C984 C 0.95744 0.81645 0.13589
 H985 H 0.89195 0.89175 0.16646
 H986 H 0.94389 0.87795 0.23828
 H987 H 0.98072 0.75351 0.18247
 H988 H 0.97320 0.79372 0.10106
 H989 H 0.91174 0.84990 0.14436
 H990 H 0.95103 0.83417 0.12277
 C991 C 0.46263 0.35374 0.68079
 C992 C 0.47060 0.36214 0.70778
 C993 C 0.45929 0.38675 0.71941
 C994 C 0.43989 0.40248 0.70429
 C995 C 0.43279 0.39359 0.67731
 N996 N 0.44431 0.36987 0.66630
 C997 C 0.47371 0.32808 0.66730
 N998 N 0.47669 0.32827 0.63904
 C999 C 0.48593 0.30525 0.62487
 C1000 C 0.49293 0.27976 0.63912
 C1001 C 0.48848 0.27879 0.66831
 C1002 C 0.47945 0.30301 0.68245
 H1003 H 0.46515 0.39312 0.74033
 H1004 H 0.41801 0.40544 0.66504
 H1005 H 0.48792 0.30678 0.60234
 H1006 H 0.49119 0.25934 0.68036
 H1007 H 0.48553 0.35004 0.71961
 H1008 H 0.47601 0.30177 0.70482
 C1009 C 0.46512 0.65876 0.81517
 C1010 C 0.48129 0.63989 0.79952
 C1011 C 0.46870 0.61632 0.78652
 C1012 C 0.44023 0.61169 0.78921
 C1013 C 0.42481 0.63186 0.80383
 N1014 N 0.43748 0.65425 0.81650
 C1015 C 0.47672 0.68227 0.83216
 N1016 N 0.46151 0.69128 0.85416
 C1017 C 0.46938 0.71334 0.87065
 C1018 C 0.49374 0.72908 0.86484
 C1019 C 0.51074 0.71868 0.84328
 C1020 C 0.50216 0.69567 0.82664
 H1021 H 0.48128 0.60108 0.77551
 H1022 H 0.40273 0.62941 0.80589
 H1023 H 0.45642 0.71813 0.88832
 H1024 H 0.53039 0.72893 0.83888
 H1025 H 0.50340 0.64244 0.79835
 H1026 H 0.51502 0.68903 0.80945
 C1027 C -0.03587 0.14362 0.31556
 C1028 C -0.02719 0.11596 0.32277
 C1029 C -0.04002 0.09217 0.31074
 C1030 C -0.06170 0.09579 0.29172
 C1031 C -0.06908 0.12399 0.28440
 N1032 N -0.05620 0.14685 0.29636
 C1033 C -0.02443 0.16910 0.32966
 N1034 N -0.01991 0.19390 0.31501
 C1035 C -0.00971 0.21808 0.32727
 C1036 C -0.00356 0.21821 0.35613
 C1037 C -0.00988 0.19305 0.37160
 C1038 C -0.01965 0.16852 0.35848
 H1039 H -0.03302 0.07098 0.31649
 H1040 H -0.08579 0.12799 0.27006
 H1041 H -0.00710 0.23712 0.31448
 H1042 H -0.00675 0.19235 0.39403
 H1043 H -0.01072 0.11276 0.33765
 H1044 H -0.02410 0.14948 0.37092
 C1045 C 0.04880 0.34064 0.30448
 C1046 C 0.03303 0.36406 0.29562
 C1047 C 0.04612 0.38825 0.28408
 C1048 C 0.07483 0.38919 0.28158
 C1049 C 0.08969 0.36476 0.28937
 N1050 N 0.07651 0.34145 0.30057
 C1051 C 0.03626 0.31632 0.32013
 N1052 N 0.04625 0.28939 0.31705
 C1053 C 0.03661 0.26665 0.33243
 C1054 C 0.01591 0.27024 0.35283
 C1055 C 0.00642 0.29843 0.35687
 C1056 C 0.01601 0.32111 0.34030
 H1057 H 0.03397 0.40668 0.27832
 H1058 H 0.11186 0.36457 0.28732
 H1059 H 0.04547 0.24577 0.32917
 H1060 H -0.00778 0.30362 0.37341
 H1061 H 0.01091 0.36393 0.29818
 H1062 H 0.00864 0.34251 0.34426
 C1063 C 0.53785 0.85826 0.82264
 C1064 C 0.54332 0.85991 0.79373
 C1065 C 0.55625 0.88441 0.78260
 C1066 C 0.56388 0.90709 0.80017
 C1067 C 0.55714 0.90502 0.82866
 N1068 N 0.54476 0.88096 0.83902
 C1069 C 0.52711 0.83195 0.83658
 N1070 N 0.53051 0.82939 0.86472
 C1071 C 0.52271 0.80555 0.87927
 C1072 C 0.51136 0.78160 0.86546
 C1073 C 0.50591 0.78471 0.83660
 C1074 C 0.51400 0.80958 0.82212
 H1075 H 0.56140 0.88508 0.76054
 H1076 H 0.56229 0.92225 0.84284
 H1077 H 0.52600 0.80494 0.90167
 H1078 H 0.49498 0.76837 0.82504
 H1079 H 0.53889 0.84218 0.77995
 H1080 H 0.50957 0.81121 0.80001
 C1081 C 0.68754 0.53402 0.15139
 C1082 C 0.70247 0.55968 0.15178
 C1083 C 0.71560 0.56944 0.12759
 C1084 C 0.71339 0.55429 0.10201
 C1085 C 0.69941 0.52731 0.10351
 N1086 N 0.68683 0.51831 0.12761
 C1087 C 0.67083 0.52547 0.17583
 N1088 N 0.67484 0.49991 0.18900
 C1089 C 0.66045 0.49214 0.21242
 C1090 C 0.64079 0.51064 0.22418
 C1091 C 0.63540 0.53626 0.20930
 C1092 C 0.65076 0.54396 0.18578
 H1093 H 0.72779 0.58877 0.12977
 H1094 H 0.69654 0.51394 0.08544
 H1095 H 0.66449 0.47156 0.22210
 H1096 H 0.61911 0.55048 0.21530
 H1097 H 0.70379 0.57223 0.17073
 H1098 H 0.64669 0.56403 0.17507
 C1099 C 0.19175 1.04521 0.65391
 C1100 C 0.20775 1.02762 0.63673
 C1101 C 0.21948 1.03908 0.61221
 C1102 C 0.21548 1.06797 0.60493
 C1103 C 0.19940 1.08471 0.62273
 N1104 N 0.18804 1.07305 0.64621
 C1105 C 0.17748 1.03459 0.67947
 N1106 N 0.15541 1.04942 0.68859
 C1107 C 0.14102 1.04192 0.71190
 C1108 C 0.14900 1.01836 0.72865
 C1109 C 0.17116 1.00199 0.71876
 C1110 C 0.18565 1.01021 0.69459
 H1111 H 0.23173 1.02543 0.59902
 H1112 H 0.19532 1.10692 0.61769
 H1113 H 0.12296 1.05420 0.71671
 H1114 H 0.17728 0.98276 0.72983
 H1115 H 0.21070 1.00519 0.64166
 H1116 H 0.20309 0.99771 0.68813
 C1117 C 0.19035 0.96470 0.85089
 C1118 C 0.21223 0.97686 0.86582
 C1119 C 0.22335 0.96184 0.88857
 C1120 C 0.21332 0.93413 0.89619
 C1121 C 0.19141 0.92298 0.87991
 N1122 N 0.18061 0.93841 0.85856
 C1123 C 0.17647 0.97959 0.82764
 N1124 N 0.14901 0.97515 0.82465
 C1125 C 0.13481 0.98538 0.80244
 C1126 C 0.14848 0.99966 0.78020
 C1127 C 0.17664 1.00629 0.78391
 C1128 C 0.19071 0.99612 0.80751
 H1129 H 0.24059 0.97175 0.89916
 H1130 H 0.18128 0.90285 0.88494
 H1131 H 0.11293 0.98100 0.80138
 H1132 H 0.18795 1.01902 0.76867
 H1133 H 0.22031 0.99792 0.86034
 H1134 H 0.21258 1.00021 0.80943
 C1135 C 0.68588 0.46081 0.34661
 C1136 C 0.71194 0.46971 0.35606
 C1137 C 0.72409 0.45519 0.37854
 C1138 C 0.71044 0.43174 0.39121
 C1139 C 0.68434 0.42387 0.38134
 N1140 N 0.67289 0.43843 0.35973
 C1141 C 0.67161 0.47461 0.32289
 N1142 N 0.64379 0.47214 0.32191
 C1143 C 0.62891 0.48158 0.29985
 C1144 C 0.64199 0.49323 0.27587
 C1145 C 0.67071 0.49763 0.27723
 C1146 C 0.68557 0.48813 0.30054
 H1147 H 0.74425 0.46191 0.38572
 H1148 H 0.67296 0.40622 0.39088
 H1149 H 0.60679 0.47871 0.30040
 H1150 H 0.68192 0.50813 0.26041
 H1151 H 0.72269 0.48777 0.34652
 H1152 H 0.70772 0.49048 0.30053
 C1153 C 0.80559 0.46293 0.63892
 C1154 C 0.81108 0.47431 0.61208
 C1155 C 0.80181 0.45969 0.58847
 C1156 C 0.78718 0.43369 0.59133
 C1157 C 0.78171 0.42331 0.61848
 N1158 N 0.79111 0.43782 0.64116
 C1159 C 0.81709 0.47584 0.66476
 N1160 N 0.81775 0.45954 0.68850
 C1161 C 0.83039 0.46852 0.71226
 C1162 C 0.84497 0.49485 0.71276
 C1163 C 0.84186 0.51321 0.68937
 C1164 C 0.82824 0.50375 0.66543
 H1165 H 0.80627 0.46865 0.56796
 H1166 H 0.77081 0.40317 0.62173
 H1167 H 0.83057 0.45431 0.73029
 H1168 H 0.85002 0.53487 0.68918
 H1169 H 0.82313 0.49370 0.60899
 H1170 H 0.82674 0.51828 0.64778
 C1171 C 0.29749 -0.04795 0.15687
 C1172 C 0.28147 -0.07329 0.15671
 C1173 C 0.27117 -0.08368 0.13149
 C1174 C 0.27633 -0.06889 0.10625
 C1175 C 0.29144 -0.04306 0.10743
 N1176 N 0.30160 -0.03355 0.13223
 C1177 C 0.31150 -0.03705 0.18242
 N1178 N 0.32575 -0.01177 0.18063
 C1179 C 0.34140 -0.00142 0.20192
 C1180 C 0.34452 -0.01745 0.22688
 C1181 C 0.32803 -0.04237 0.22989
 C1182 C 0.31199 -0.05243 0.20783
 H1183 H 0.25994 -0.10388 0.13171
 H1184 H 0.29550 -0.03057 0.08865
 H1185 H 0.35138 0.01917 0.19890
 H1186 H 0.32864 -0.05486 0.24909
 H1187 H 0.27712 -0.08555 0.17548
 H1188 H 0.30096 -0.07244 0.21087
 C1189 C 0.29723 0.02605 0.34610
 C1190 C 0.29187 0.01035 0.37082
 C1191 C 0.28175 0.02441 0.39433
 C1192 C 0.27659 0.05395 0.39326
 C1193 C 0.28081 0.06849 0.36772
 N1194 N 0.29109 0.05446 0.34528
 C1195 C 0.31111 0.01350 0.32144
 N1196 N 0.31032 0.02797 0.29661
 C1197 C 0.32537 0.02009 0.27402
 C1198 C 0.34422 -0.00260 0.27599
 C1199 C 0.34310 -0.01949 0.30064
 C1200 C 0.32711 -0.01127 0.32340
 H1201 H 0.27818 0.01223 0.41342
 H1202 H 0.27718 0.09127 0.36592
 H1203 H 0.32403 0.03274 0.25498
 H1204 H 0.35473 -0.03893 0.30286
 H1205 H 0.29559 -0.01241 0.37232
 H1206 H 0.32835 -0.02372 0.34252
 C1207 C 0.79305 0.52451 0.83508
 C1208 C 0.76937 0.54145 0.83638
 C1209 C 0.76014 0.55118 0.86235
 C1210 C 0.77452 0.54419 0.88684
 C1211 C 0.79710 0.52594 0.88476
 N1212 N 0.80573 0.51684 0.85934
 C1213 C 0.80623 0.51650 0.80834
 N1214 N 0.82318 0.49356 0.80822
 C1215 C 0.83962 0.48739 0.78613
 C1216 C 0.84127 0.50610 0.76275
 C1217 C 0.82154 0.52800 0.76133
 C1218 C 0.80444 0.53361 0.78413
 H1219 H 0.74263 0.56527 0.86316
 H1220 H 0.80849 0.51979 0.90326
 H1221 H 0.85163 0.46815 0.78746
 H1222 H 0.82066 0.54199 0.74315
 H1223 H 0.75841 0.54761 0.81763
 H1224 H 0.79127 0.55211 0.78324
 C1225 C 0.14715 0.69601 0.52913
 C1226 C 0.12097 0.68832 0.51895
 C1227 C 0.09753 0.69975 0.53126
 C1228 C 0.09997 0.71868 0.55379
 C1229 C 0.12648 0.72645 0.56283
 N1230 N 0.14899 0.71490 0.55063
 C1231 C 0.17264 0.68217 0.51919
 N1232 N 0.19547 0.68354 0.53557
 C1233 C 0.21873 0.66897 0.52954
 C1234 C 0.21955 0.65012 0.50664
 C1235 C 0.19724 0.65117 0.48781
 C1236 C 0.17381 0.66678 0.49412
 H1237 H 0.07749 0.69282 0.52393
 H1238 H 0.12931 0.74132 0.57987
 H1239 H 0.23611 0.67076 0.54356
 H1240 H 0.19755 0.63995 0.46812
 H1241 H 0.11825 0.67271 0.50257
 H1242 H 0.15695 0.66658 0.47943
 C1243 C 0.65621 0.19720 1.04158
 C1244 C 0.65536 0.22010 1.06053
 C1245 C 0.63019 0.22819 1.07190
 C1246 C 0.60580 0.21387 1.06431
 C1247 C 0.60736 0.19194 1.04453
 N1248 N 0.63212 0.18416 1.03405
 C1249 C 0.68222 0.18557 1.03025
 N1250 N 0.68033 0.16430 1.01105
 C1251 C 0.70258 0.15057 1.00086
 C1252 C 0.72935 0.15791 1.00998
 C1253 C 0.73165 0.17981 1.03001
 C1254 C 0.70840 0.19378 1.03996
 H1255 H 0.62980 0.24564 1.08671
 H1256 H 0.58907 0.18027 1.03814
 H1257 H 0.69884 0.13302 0.98672
 H1258 H 0.75154 0.18551 1.03862
 H1259 H 0.67364 0.23167 1.06686
 H1260 H 0.71124 0.20994 1.05577
 C1261 C 0.85082 0.20278 0.96222
 C1262 C 0.87656 0.19913 0.97455
 C1263 C 0.89978 0.21168 0.96224
 C1264 C 0.89779 0.22758 0.93695
 C1265 C 0.87091 0.23175 0.92627
 N1266 N 0.84861 0.21944 0.93895
 C1267 C 0.82651 0.18712 0.97296
 N1268 N 0.80189 0.20046 0.97510
 C1269 C 0.77889 0.18659 0.98472
 C1270 C 0.77989 0.15739 0.99273
 C1271 C 0.80495 0.14313 0.98863
 C1272 C 0.82826 0.15795 0.97950
 H1273 H 0.91928 0.20664 0.97172
 H1274 H 0.86718 0.24525 0.90823
 H1275 H 0.75990 0.19831 0.98538
 H1276 H 0.80651 0.12038 0.99302
 H1277 H 0.87881 0.18605 0.99324
 H1278 H 0.84733 0.14653 0.97691
 C1279 C 0.33854 0.70193 0.46750
 C1280 C 0.33908 0.72234 0.44571
 C1281 C 0.36431 0.73196 0.43502
 C1282 C 0.38902 0.72155 0.44607
 C1283 C 0.38758 0.70251 0.46893
 N1284 N 0.36277 0.69312 0.47872
 C1285 C 0.31271 0.68809 0.47748
 N1286 N 0.31261 0.67477 0.50290
 C1287 C 0.29118 0.65823 0.51205
 C1288 C 0.26848 0.65263 0.49444
 C1289 C 0.26710 0.66870 0.46937
 C1290 C 0.28922 0.68588 0.46057
 H1291 H 0.36449 0.74727 0.41785
 H1292 H 0.40610 0.69398 0.47814
 H1293 H 0.29244 0.64923 0.53288
 H1294 H 0.24945 0.66654 0.45573
 H1295 H 0.32038 0.73064 0.43673
 H1296 H 0.28827 0.69595 0.44014
 C1297 C 0.65259 0.80567 0.46888
 C1298 C 0.64921 0.80289 0.43990
 C1299 C 0.62484 0.79153 0.42943
 C1300 C 0.60382 0.78264 0.44772
 C1301 C 0.60878 0.78350 0.47667
 N1302 N 0.63265 0.79537 0.48651
 C1303 C 0.67562 0.82332 0.47955
 N1304 N 0.69139 0.81447 0.50143
 C1305 C 0.71363 0.83012 0.51031
 C1306 C 0.72158 0.85578 0.49634
 C1307 C 0.70340 0.86620 0.47574
 C1308 C 0.68111 0.84990 0.46696
 H1309 H 0.62193 0.79070 0.40697
 H1310 H 0.59305 0.77651 0.49135
 H1311 H 0.72534 0.82235 0.52798
 H1312 H 0.70621 0.88712 0.46613
 H1313 H 0.66484 0.81071 0.42544
 H1314 H 0.66801 0.85819 0.45053
 C1315 C 0.15224 0.31531 -0.03737
 C1316 C 0.13338 0.29868 -0.02161
 C1317 C 0.10891 0.28917 -0.03419
 C1318 C 0.10329 0.29636 -0.06220
 C1319 C 0.12310 0.31214 -0.07730
 N1320 N 0.14648 0.32120 -0.06466
 C1321 C 0.17756 0.32846 -0.02574
 N1322 N 0.18932 0.35012 -0.04084
 C1323 C 0.21279 0.36361 -0.03307
 C1324 C 0.22709 0.35496 -0.00879
 C1325 C 0.21427 0.33373 0.00817
 C1326 C 0.18985 0.32007 -0.00042
 H1327 H 0.09403 0.27706 -0.02184
 H1328 H 0.11994 0.31759 -0.09911
 H1329 H 0.21979 0.38140 -0.04596
 H1330 H 0.22340 0.32749 0.02791
 H1331 H 0.13687 0.29382 0.00024
 H1332 H 0.18109 0.30313 0.01250
 C1333 C 0.34940 0.30476 0.03346
 C1334 C 0.35148 0.27479 0.03589
 C1335 C 0.37583 0.26290 0.04598
 C1336 C 0.39806 0.28068 0.05367
 C1337 C 0.39527 0.31041 0.05031
 N1338 N 0.37141 0.32143 0.04065
 C1339 C 0.32394 0.31955 0.02478
 N1340 N 0.32325 0.34843 0.02805
 C1341 C 0.30116 0.36427 0.02104
 C1342 C 0.27714 0.35125 0.01026
 C1343 C 0.27779 0.32141 0.00569
 C1344 C 0.30094 0.30552 0.01315
 H1345 H 0.37714 0.23981 0.04805
 H1346 H 0.41158 0.32506 0.05640
 H1347 H 0.30230 0.38728 0.02383
 H1348 H 0.26101 0.31027 -0.00445
 H1349 H 0.33453 0.26057 0.03087
 H1350 H 0.30080 0.28275 0.00913
 C1351 C 0.85086 0.81821 0.52721
 C1352 C 0.87570 0.83349 0.52371
 C1353 C 0.89986 0.82234 0.53455
 C1354 C 0.89947 0.79587 0.54868
 C1355 C 0.87464 0.78012 0.54970
 N1356 N 0.85110 0.79173 0.53944
 C1357 C 0.82444 0.83207 0.52092
 N1358 N 0.80314 0.81696 0.50951
 C1359 C 0.77826 0.82908 0.50425
 C1360 C 0.77344 0.85788 0.51157
 C1361 C 0.79567 0.87357 0.52292
 C1362 C 0.82082 0.86087 0.52773
 H1363 H 0.91871 0.83484 0.53274
 H1364 H 0.87359 0.75949 0.56024
 H1365 H 0.76274 0.81630 0.49392
 H1366 H 0.79342 0.89594 0.52829
 H1367 H 0.87624 0.85436 0.51360
 H1368 H 0.83714 0.87341 0.53725
   
