data_POSCAR
  _audit_creation_date              2014-09-24
  _audit_creation_method            'ToBaCCo'
  _symmetry_space_group_name_H-M    'P1'
  _symmetry_Int_Tables_number       1
  _symmetry_cell_setting            triclinic
  loop_
  _symmetry_equiv_pos_as_xyz
 x,y,z
_cell_length_a 45.5940
_cell_length_b 47.2253
_cell_length_c 48.4138
_cell_angle_alpha 89.998600
_cell_angle_beta 89.826700
_cell_angle_gamma 90.112200
loop_
  _atom_site_label
  _atom_site_type_symbol
  _atom_site_fract_x
  _atom_site_fract_y
  _atom_site_fract_z
C1 C 0.36712 0.33016 0.33448
 C2 C 0.35424 0.35399 0.32213
 C3 C 0.33103 0.36844 0.33498
 C4 C 0.32036 0.35845 0.36043
 C5 C 0.33179 0.33378 0.37254
 C6 C 0.35553 0.32008 0.35959
 H7 H 0.36166 0.36075 0.30193
 H8 H 0.30306 0.36994 0.37085
 H9 H 0.36474 0.30126 0.36883
 C10 C 0.36697 0.83083 -0.16743
 C11 C 0.35470 0.82025 -0.14267
 C12 C 0.33106 0.83384 -0.12956
 C13 C 0.31982 0.85879 -0.14112
 C14 C 0.33058 0.86964 -0.16631
 C15 C 0.35412 0.85526 -0.17910
 H16 H 0.36362 0.80154 -0.13309
 H17 H 0.30311 0.87009 -0.12974
 H18 H 0.36074 0.86157 -0.19960
 C19 C 0.86787 0.33440 -0.16718
 C20 C 0.85727 0.32403 -0.14193
 C21 C 0.83171 0.33502 -0.12981
 C22 C 0.81801 0.35845 -0.14224
 C23 C 0.82903 0.37055 -0.16695
 C24 C 0.85366 0.35754 -0.17942
 H25 H 0.86889 0.30705 -0.13173
 H26 H 0.79894 0.36729 -0.13225
 H27 H 0.86088 0.36415 -0.19970
 C28 C 0.86598 0.83033 0.32953
 C29 C 0.85510 0.85617 0.31939
 C30 C 0.83122 0.87013 0.33213
 C31 C 0.81964 0.85812 0.35658
 C32 C 0.82995 0.83222 0.36702
 C33 C 0.85289 0.81838 0.35311
 H34 H 0.86478 0.86462 0.30079
 H35 H 0.80314 0.86932 0.36831
 H36 H 0.86004 0.79780 0.36021
 C37 C 0.63393 0.67067 0.33213
 C38 C 0.64550 0.68104 0.35708
 C39 C 0.66881 0.66716 0.37040
 C40 C 0.67977 0.64198 0.35889
 C41 C 0.66918 0.63161 0.33361
 C42 C 0.64643 0.64628 0.32034
 H43 H 0.63660 0.70019 0.36598
 H44 H 0.69665 0.63038 0.36971
 H45 H 0.63905 0.63920 0.30027
 C46 C 0.63244 0.16887 -0.16477
 C47 C 0.64625 0.14605 -0.17808
 C48 C 0.67242 0.13396 -0.16777
 C49 C 0.68467 0.14605 -0.14364
 C50 C 0.67095 0.16867 -0.12980
 C51 C 0.64443 0.17925 -0.14017
 H52 H 0.63606 0.13770 -0.19641
 H53 H 0.70589 0.13923 -0.13639
 H54 H 0.63307 0.19587 -0.12910
 C55 C 0.13588 0.67169 -0.16864
 C56 C 0.14759 0.68241 -0.14395
 C57 C 0.17135 0.66905 -0.13094
 C58 C 0.18282 0.64415 -0.14257
 C59 C 0.17218 0.63315 -0.16773
 C60 C 0.14868 0.64749 -0.18052
 H61 H 0.13837 0.70138 -0.13496
 H62 H 0.19949 0.63291 -0.13119
 H63 H 0.14117 0.64098 -0.20069
 C64 C 0.13510 0.17088 0.33319
 C65 C 0.14614 0.14512 0.32294
 C66 C 0.16931 0.13106 0.33620
 C67 C 0.18067 0.14253 0.36070
 C68 C 0.17049 0.16851 0.37107
 C69 C 0.14783 0.18258 0.35703
 H70 H 0.13698 0.13620 0.30430
 H71 H 0.19753 0.13114 0.37176
 H72 H 0.14074 0.20318 0.36416
 C73 C 0.63301 0.33209 0.66766
 C74 C 0.64731 0.35520 0.67999
 C75 C 0.67150 0.36835 0.66718
 C76 C 0.68237 0.35695 0.64230
 C77 C 0.66883 0.33336 0.62986
 C78 C 0.64343 0.32201 0.64220
 H79 H 0.64015 0.36245 0.70011
 H80 H 0.70161 0.36624 0.63282
 H81 H 0.63173 0.30507 0.63197
 C82 C 0.63061 0.83512 1.16633
 C83 C 0.64175 0.82492 1.14107
 C84 C 0.66767 0.83568 1.12943
 C85 C 0.68152 0.85887 1.14213
 C86 C 0.67026 0.87099 1.16667
 C87 C 0.64515 0.85828 1.17869
 H88 H 0.62997 0.80878 1.12981
 H89 H 0.70089 0.86751 1.13245
 H90 H 0.63853 0.86482 1.19911
 C91 C 0.13094 0.33250 1.16524
 C92 C 0.14193 0.32208 1.13993
 C93 C 0.16768 0.33297 1.12788
 C94 C 0.18138 0.35642 1.14022
 C95 C 0.17028 0.36824 1.16474
 C96 C 0.14558 0.35577 1.17728
 H97 H 0.13016 0.30574 1.12894
 H98 H 0.20097 0.36526 1.13099
 H99 H 0.13912 0.36339 1.19743
 C100 C 0.13017 0.83167 0.66321
 C101 C 0.14404 0.85520 0.67565
 C102 C 0.17077 0.86607 0.66556
 C103 C 0.18369 0.85340 0.64227
 C104 C 0.16989 0.83076 0.62866
 C105 C 0.14295 0.82064 0.63893
 H106 H 0.13493 0.86459 0.69405
 H107 H 0.20502 0.86057 0.63530
 H108 H 0.13162 0.80447 0.62730
 C109 C 0.36635 0.66864 0.66592
 C110 C 0.35492 0.67885 0.64089
 C111 C 0.33137 0.66508 0.62777
 C112 C 0.32000 0.64016 0.63960
 C113 C 0.33047 0.63001 0.66498
 C114 C 0.35349 0.64456 0.67802
 H115 H 0.36410 0.69782 0.63182
 H116 H 0.30288 0.62861 0.62899
 H117 H 0.36081 0.63766 0.69816
 C118 C 0.36418 0.16955 1.16807
 C119 C 0.35220 0.18012 1.14322
 C120 C 0.32864 0.16649 1.12999
 C121 C 0.31723 0.14151 1.14151
 C122 C 0.32782 0.13097 1.16663
 C123 C 0.35107 0.14515 1.17971
 H124 H 0.36128 0.19882 1.13366
 H125 H 0.29999 0.13019 1.13086
 H126 H 0.35762 0.13791 1.19994
 C127 C 0.86767 0.66650 1.16530
 C128 C 0.85456 0.67912 1.14194
 C129 C 0.82795 0.66895 1.13100
 C130 C 0.81422 0.64559 1.14367
 C131 C 0.82725 0.63185 1.16621
 C132 C 0.85428 0.64189 1.17608
 H133 H 0.86421 0.69766 1.13261
 H134 H 0.79292 0.63869 1.13651
 H135 H 0.86515 0.62982 1.19198
 C136 C 0.86828 0.16872 0.66715
 C137 C 0.85411 0.18094 0.64423
 C138 C 0.83010 0.16766 0.63149
 C139 C 0.81913 0.14225 0.64267
 C140 C 0.83195 0.12970 0.66620
 C141 C 0.85747 0.14256 0.67698
 H142 H 0.86050 0.20168 0.63698
 H143 H 0.79992 0.13303 0.63334
 H144 H 0.87004 0.13126 0.69223
 C145 C 0.32955 0.36875 0.66763
 C146 C 0.35284 0.35449 0.68046
 C147 C 0.36578 0.33056 0.66824
 C148 C 0.35420 0.32022 0.64331
 C149 C 0.33039 0.33370 0.63041
 C150 C 0.31887 0.35843 0.64236
 H151 H 0.36032 0.36151 0.70052
 H152 H 0.36348 0.30138 0.63413
 H153 H 0.30152 0.36973 0.63191
 C154 C 0.32844 0.87067 0.16583
 C155 C 0.31738 0.85913 0.14122
 C156 C 0.32825 0.83348 0.13063
 C157 C 0.35119 0.81980 0.14465
 C158 C 0.36357 0.83158 0.16861
 C159 C 0.35190 0.85699 0.17902
 H160 H 0.30026 0.87023 0.13023
 H161 H 0.35878 0.79941 0.13740
 H162 H 0.36083 0.86597 0.19774
 C163 C 0.83003 0.36988 0.16611
 C164 C 0.85290 0.35564 0.17962
 C165 C 0.86599 0.33150 0.16796
 C166 C 0.85505 0.32097 0.14284
 C167 C 0.83168 0.33441 0.12925
 C168 C 0.81998 0.35934 0.14069
 H169 H 0.85989 0.36282 0.19978
 H170 H 0.86446 0.30198 0.13408
 H171 H 0.80293 0.37060 0.12976
 C172 C 0.82760 0.86788 0.66704
 C173 C 0.85055 0.85322 0.67997
 C174 C 0.86354 0.82941 0.66759
 C175 C 0.85225 0.81948 0.64237
 C176 C 0.82877 0.83334 0.62928
 C177 C 0.81719 0.85797 0.64149
 H178 H 0.85782 0.85990 0.70021
 H179 H 0.86158 0.80073 0.63308
 H180 H 0.80011 0.86959 0.63098
 C181 C 0.67081 0.63156 0.66482
 C182 C 0.64750 0.64578 0.67783
 C183 C 0.63456 0.66978 0.66580
 C184 C 0.64619 0.68024 0.64085
 C185 C 0.67005 0.66686 0.62778
 C186 C 0.68156 0.64206 0.63957
 H187 H 0.64001 0.63867 0.69789
 H188 H 0.63691 0.69910 0.63179
 H189 H 0.69895 0.63082 0.62901
 C190 C 0.67107 0.13181 0.16607
 C191 C 0.64563 0.14433 0.17710
 C192 C 0.63288 0.16827 0.16482
 C193 C 0.64565 0.17938 0.14067
 C194 C 0.67096 0.16721 0.12900
 C195 C 0.68337 0.14333 0.14184
 H196 H 0.63599 0.13570 0.19571
 H197 H 0.63612 0.19793 0.13120
 H198 H 0.70297 0.13396 0.13320
 C199 C 0.17213 0.62918 0.16549
 C200 C 0.14701 0.64189 0.17694
 C201 C 0.13431 0.66595 0.16489
 C202 C 0.14677 0.67696 0.14054
 C203 C 0.17173 0.66453 0.12847
 C204 C 0.18411 0.64053 0.14108
 H205 H 0.13763 0.63334 0.19570
 H206 H 0.13728 0.69562 0.13124
 H207 H 0.20347 0.63098 0.13215
 C208 C 0.16978 0.12915 0.66572
 C209 C 0.18033 0.13959 0.64037
 C210 C 0.16918 0.16468 0.62890
 C211 C 0.14580 0.17841 0.64235
 C212 C 0.13435 0.16805 0.66742
 C213 C 0.14693 0.14369 0.67912
 H214 H 0.19734 0.12812 0.62951
 H215 H 0.13679 0.19751 0.63351
 H216 H 0.13959 0.13659 0.69924
 C217 C 0.33175 0.62852 0.33388
 C218 C 0.32108 0.63854 0.35932
 C219 C 0.33233 0.66341 0.37126
 C220 C 0.35593 0.67727 0.35823
 C221 C 0.36749 0.66729 0.33311
 C222 C 0.35481 0.64321 0.32089
 H223 H 0.30388 0.62697 0.36988
 H224 H 0.36499 0.69620 0.36742
 H225 H 0.36225 0.63647 0.30070
 C226 C 0.32877 0.12954 0.83375
 C227 C 0.31820 0.13952 0.85925
 C228 C 0.32972 0.16422 0.87135
 C229 C 0.35335 0.17801 0.85829
 C230 C 0.36480 0.16805 0.83314
 C231 C 0.35193 0.14414 0.82082
 H232 H 0.30094 0.12798 0.86976
 H233 H 0.36261 0.19685 0.86752
 H234 H 0.35936 0.13741 0.80062
 C235 C 0.82831 0.63320 0.83477
 C236 C 0.85298 0.64602 0.82248
 C237 C 0.86742 0.66885 0.83516
 C238 C 0.85662 0.67903 0.86045
 C239 C 0.83081 0.66801 0.87229
 C240 C 0.81713 0.64467 0.85951
 H241 H 0.86040 0.63875 0.80245
 H242 H 0.86837 0.69578 0.87093
 H243 H 0.79756 0.63564 0.86861
 C244 C 0.83178 0.13024 0.33628
 C245 C 0.85501 0.14478 0.32342
 C246 C 0.86791 0.16866 0.33576
 C247 C 0.85636 0.17872 0.36086
 C248 C 0.83262 0.16500 0.37385
 C249 C 0.82118 0.14024 0.36177
 H250 H 0.86243 0.13810 0.30321
 H251 H 0.86558 0.19759 0.37004
 H252 H 0.80388 0.12872 0.37224
 C253 C 0.67091 0.36676 0.33417
 C254 C 0.64640 0.35405 0.32170
 C255 C 0.63390 0.32911 0.33239
 C256 C 0.64599 0.31719 0.35638
 C257 C 0.67063 0.32934 0.36928
 C258 C 0.68284 0.35420 0.35797
 H259 H 0.63725 0.36340 0.30326
 H260 H 0.63643 0.29808 0.36479
 H261 H 0.70193 0.36364 0.36749
 C262 C 0.66772 0.87168 0.83593
 C263 C 0.64445 0.85780 0.82255
 C264 C 0.63318 0.83202 0.83258
 C265 C 0.64572 0.82006 0.85636
 C266 C 0.66843 0.83388 0.87061
 C267 C 0.67888 0.85994 0.86043
 H268 H 0.63543 0.86684 0.80392
 H269 H 0.63847 0.79938 0.86321
 H270 H 0.69583 0.87115 0.87160
 C271 C 0.17059 0.37017 0.83624
 C272 C 0.18228 0.35699 0.85980
 C273 C 0.16967 0.33209 0.87060
 C274 C 0.14485 0.32059 0.85749
 C275 C 0.13299 0.33317 0.83373
 C276 C 0.14588 0.35811 0.82351
 H277 H 0.20153 0.36592 0.86948
 H278 H 0.13502 0.30143 0.86551
 H279 H 0.13694 0.36790 0.80520
 C280 C 0.16881 0.86848 0.33526
 C281 C 0.14540 0.85489 0.32184
 C282 C 0.13403 0.82904 0.33162
 C283 C 0.14667 0.81675 0.35523
 C284 C 0.16960 0.83032 0.36947
 C285 C 0.18011 0.85642 0.35951
 H286 H 0.13630 0.86427 0.30341
 H287 H 0.13930 0.79609 0.36200
 H288 H 0.19717 0.86746 0.37068
 O289 O 0.24866 1.02765 0.28667
 O290 O 0.28522 0.97305 0.24478
 O291 O 0.28507 1.02772 0.24531
 O292 O 0.24891 0.97210 0.28639
 O293 O 0.21117 0.97263 0.25794
 O294 O 0.24742 1.02818 0.21676
 O295 O 0.24750 0.97261 0.21630
 O296 O 0.21098 1.02732 0.25814
 Cu297 Cu 0.27065 1.00010 0.26878
 Cu298 Cu 0.22557 1.00016 0.23429
 C299 C 0.22367 1.03692 0.27949
 C300 C 0.27258 0.96348 0.22339
 C301 C 0.27238 1.03753 0.22407
 C302 C 0.22388 0.96285 0.27918
 O303 O 0.25077 0.52896 0.78579
 O304 O 0.28754 0.47302 0.74560
 O305 O 0.28781 0.52782 0.74488
 O306 O 0.25138 0.47333 0.78715
 O307 O 0.21367 0.47345 0.75864
 O308 O 0.25052 0.52736 0.71590
 O309 O 0.24989 0.47182 0.71706
 O310 O 0.21364 0.52822 0.75667
 Cu311 Cu 0.27305 0.50086 0.76887
 Cu312 Cu 0.22825 0.50010 0.73408
 C313 C 0.22605 0.53836 0.77792
 C314 C 0.27484 0.46273 0.72455
 C315 C 0.27536 0.53698 0.72325
 C316 C 0.22636 0.46402 0.78006
 O317 O 0.75129 -0.02715 0.21501
 O318 O 0.78809 0.02871 0.25540
 O319 O 0.78873 -0.02622 0.25534
 O320 O 0.75070 0.02833 0.21447
 O321 O 0.71500 0.02915 0.24539
 O322 O 0.75164 -0.02720 0.28471
 O323 O 0.75174 0.02806 0.28563
 O324 O 0.71410 -0.02622 0.24427
 Cu325 Cu 0.77332 0.00098 0.23198
 Cu326 Cu 0.72942 0.00083 0.26796
 C327 C 0.72638 -0.03629 0.22282
 C328 C 0.77621 0.03788 0.27744
 C329 C 0.77655 -0.03623 0.27687
 C330 C 0.72665 0.03847 0.22333
 O331 O 0.71255 0.52819 0.74366
 O332 O 0.74935 0.47364 0.78551
 O333 O 0.74853 0.52945 0.78518
 O334 O 0.71309 0.47329 0.74420
 O335 O 0.75075 0.47311 0.71544
 O336 O 0.78635 0.52907 0.75662
 O337 O 0.78686 0.47414 0.75660
 O338 O 0.75035 0.52882 0.71507
 Cu339 Cu 0.72719 0.50113 0.76762
 Cu340 Cu 0.77227 0.50135 0.73297
 C341 C 0.72531 0.53798 0.72233
 C342 C 0.77427 0.46432 0.77799
 C343 C 0.77343 0.53898 0.77780
 C344 C 0.72595 0.46345 0.72297
 O345 O 0.21568 0.52662 0.24431
 O346 O 0.25110 0.46995 0.28377
 O347 O 0.25233 0.52528 0.28445
 O348 O 0.21450 0.47147 0.24265
 O349 O 0.25235 0.46985 0.21415
 O350 O 0.28883 0.52583 0.25437
 O351 O 0.28888 0.47095 0.25516
 O352 O 0.25152 0.52532 0.21353
 Cu353 Cu 0.22968 0.49822 0.26676
 Cu354 Cu 0.27407 0.49799 0.23125
 C355 C 0.22755 0.53573 0.22229
 C356 C 0.27615 0.46093 0.27640
 C357 C 0.27684 0.53509 0.27629
 C358 C 0.22716 0.46113 0.22153
 O359 O 0.78666 0.97292 0.74525
 O360 O 0.74980 1.02873 0.78584
 O361 O 0.74943 0.97333 0.78609
 O362 O 0.78736 1.02811 0.74561
 O363 O 0.75227 1.02693 0.71433
 O364 O 0.71194 0.97517 0.75743
 O365 O 0.71478 1.03043 0.75452
 O366 O 0.74912 0.97171 0.71661
 Cu367 Cu 0.77195 1.00068 0.76871
 Cu368 Cu 0.72835 1.00103 0.73275
 C369 C 0.77393 0.96246 0.72426
 C370 C 0.72634 1.03966 0.77660
 C371 C 0.72413 0.96497 0.77881
 C372 C 0.77643 1.03691 0.72310
 O373 O 0.71167 0.47194 0.25688
 O374 O 0.74793 0.52710 0.21478
 O375 O 0.74831 0.47160 0.21554
 O376 O 0.71113 0.52695 0.25611
 O377 O 0.74779 0.52698 0.28579
 O378 O 0.78615 0.47360 0.24380
 O379 O 0.78402 0.52873 0.24505
 O380 O 0.74959 0.47144 0.28512
 Cu381 Cu 0.72607 0.49929 0.23285
 Cu382 Cu 0.77059 0.50016 0.26788
 C383 C 0.72465 0.46200 0.27794
 C384 C 0.77187 0.53783 0.22323
 C385 C 0.77361 0.46316 0.22272
 C386 C 0.72320 0.53653 0.27781
 O387 O 0.25076 -0.02860 0.78498
 O388 O 0.21208 0.02438 0.74289
 O389 O 0.21422 -0.03097 0.74453
 O390 O 0.24918 0.02667 0.78355
 O391 O 0.28684 0.02585 0.75479
 O392 O 0.24996 -0.02943 0.71369
 O393 O 0.24976 0.02609 0.71422
 O394 O 0.28700 -0.02904 0.75466
 Cu395 Cu 0.22782 -0.00210 0.76692
 Cu396 Cu 0.27202 -0.00161 0.73127
 C397 C 0.27531 -0.03818 0.77679
 C398 C 0.22460 0.03475 0.72170
 C399 C 0.22614 -0.04014 0.72256
 C400 C 0.27413 0.03594 0.77599
 O401 O 0.24749 0.28383 0.97260
 O402 O 0.28553 0.24355 1.02688
 O403 O 0.28577 0.24274 0.97319
 O404 O 0.24693 0.28433 1.02635
 O405 O 0.21135 0.25253 1.02656
 O406 O 0.24980 0.21136 0.97334
 O407 O 0.24946 0.21228 1.02730
 O408 O 0.21207 0.25185 0.97238
 Cu409 Cu 0.27004 0.26680 0.99973
 Cu410 Cu 0.22704 0.22888 0.99993
 C411 C 0.22350 0.27443 0.96298
 C412 C 0.27382 0.22121 1.03654
 C413 C 0.27424 0.22010 0.96403
 C414 C 0.22264 0.27522 1.03577
 O415 O 0.24934 0.78277 0.47119
 O416 O 0.28707 0.74288 0.52585
 O417 O 0.28759 0.74210 0.47249
 O418 O 0.24885 0.78396 0.52551
 O419 O 0.21366 0.75180 0.52662
 O420 O 0.25075 0.71169 0.47176
 O421 O 0.25128 0.71130 0.52573
 O422 O 0.21248 0.75244 0.47262
 Cu423 Cu 0.27173 0.76621 0.49873
 Cu424 Cu 0.22839 0.72871 0.49913
 C425 C 0.22458 0.77433 0.46242
 C426 C 0.27559 0.72024 0.53509
 C427 C 0.27561 0.71988 0.46291
 C428 C 0.22502 0.77453 0.53566
 O429 O 0.28836 0.75649 -0.02673
 O430 O 0.25116 0.71389 0.02649
 O431 O 0.25070 0.71519 -0.02788
 O432 O 0.28763 0.75606 0.02677
 O433 O 0.25039 0.78585 0.02749
 O434 O 0.21347 0.74499 -0.02693
 O435 O 0.21384 0.74363 0.02649
 O436 O 0.25110 0.78627 -0.02692
 Cu437 Cu 0.27309 0.73228 -0.00040
 Cu438 Cu 0.22859 0.76833 0.00009
 C439 C 0.27598 0.77850 -0.03611
 C440 C 0.22634 0.72160 0.03578
 C441 C 0.22590 0.72323 -0.03687
 C442 C 0.27510 0.77782 0.03666
 O443 O 0.21320 0.24542 0.47430
 O444 O 0.25031 0.28597 0.52882
 O445 O 0.25103 0.28645 0.47457
 O446 O 0.21301 0.24420 0.52774
 O447 O 0.24996 0.21406 0.52790
 O448 O 0.28791 0.25622 0.47476
 O449 O 0.28727 0.25584 0.52811
 O450 O 0.25005 0.21518 0.47357
 Cu451 Cu 0.22829 0.26867 0.50144
 Cu452 Cu 0.27238 0.23213 0.50110
 C453 C 0.22542 0.22351 0.46443
 C454 C 0.27504 0.27783 0.53783
 C455 C 0.27583 0.27842 0.46543
 C456 C 0.22512 0.22196 0.53700
 O457 O 0.71177 0.75535 1.02781
 O458 O 0.75103 0.71530 0.97393
 O459 O 0.75043 0.71528 1.02763
 O460 O 0.71166 0.75553 0.97362
 O461 O 0.74750 0.78700 0.97284
 O462 O 0.78445 0.74859 1.02889
 O463 O 0.78629 0.74741 0.97451
 O464 O 0.74575 0.78871 1.02657
 Cu465 Cu 0.72763 0.73218 1.00066
 Cu466 Cu 0.76960 0.77107 1.00074
 C467 C 0.72210 0.77871 1.03651
 C468 C 0.77537 0.72468 0.96493
 C469 C 0.77374 0.72550 1.03793
 C470 C 0.72323 0.77783 0.96365
 O471 O 0.78602 0.24531 0.52865
 O472 O 0.74808 0.28446 0.47337
 O473 O 0.74733 0.28594 0.52726
 O474 O 0.78711 0.24402 0.47490
 O475 O 0.75152 0.21225 0.47519
 O476 O 0.71211 0.25377 0.52761
 O477 O 0.71305 0.25209 0.47334
 O478 O 0.75027 0.21370 0.52922
 Cu479 Cu 0.77069 0.26816 0.50099
 Cu480 Cu 0.72814 0.22982 0.50136
 C481 C 0.77442 0.22302 0.53858
 C482 C 0.72432 0.27461 0.46363
 C483 C 0.72315 0.27664 0.53673
 C484 C 0.77594 0.22114 0.46592
 O485 O 0.78833 0.25470 -0.02816
 O486 O 0.75167 0.21542 0.02766
 O487 O 0.74999 0.21417 -0.02645
 O488 O 0.78973 0.25637 0.02577
 O489 O 0.75250 0.28611 0.02775
 O490 O 0.71595 0.24730 -0.02807
 O491 O 0.71444 0.24517 0.02590
 O492 O 0.75426 0.28780 -0.02609
 Cu493 Cu 0.77352 0.23199 -0.00028
 Cu494 Cu 0.73066 0.26972 -0.00007
 C495 C 0.77770 0.27797 -0.03659
 C496 C 0.72669 0.22346 0.03621
 C497 C 0.72662 0.22416 -0.03683
 C498 C 0.77748 0.27808 0.03616
 O499 O 0.71282 0.74526 0.47210
 O500 O 0.75048 0.78712 0.52545
 O501 O 0.75079 0.78625 0.47088
 O502 O 0.71331 0.74529 0.52543
 O503 O 0.75030 0.71520 0.52595
 O504 O 0.78764 0.75602 0.47143
 O505 O 0.78746 0.75702 0.52511
 O506 O 0.74968 0.71502 0.47172
 Cu507 Cu 0.72832 0.76921 0.49848
 Cu508 Cu 0.77239 0.73272 0.49858
 C509 C 0.72489 0.72305 0.46270
 C510 C 0.77517 0.77908 0.53466
 C511 C 0.77541 0.77790 0.46156
 C512 C 0.72552 0.72326 0.53506
 O513 O 0.97006 0.25162 0.21726
 O514 O 1.03019 0.21661 0.25435
 O515 O 0.97306 0.21466 0.25691
 O516 O 1.02732 0.25348 0.21514
 O517 O 1.02841 0.28743 0.24645
 O518 O 0.97142 0.25022 0.28647
 O519 O 1.02889 0.25002 0.28623
 O520 O 0.97160 0.28717 0.24684
 Cu521 Cu 1.00009 0.23061 0.23284
 Cu522 Cu 1.00014 0.27213 0.26967
 C523 C 0.96077 0.27551 0.22554
 C524 C 1.03976 0.22728 0.27664
 C525 C 0.96252 0.22607 0.27851
 C526 C 1.03746 0.27690 0.22384
 O527 O 0.52791 0.28634 0.74725
 O528 O 0.46997 0.24910 0.78608
 O529 O 0.52758 0.24912 0.78701
 O530 O 0.47119 0.28605 0.74651
 O531 O 0.47115 0.25096 0.71636
 O532 O 0.52769 0.21411 0.75678
 O533 O 0.47113 0.21405 0.75591
 O534 O 0.52885 0.25136 0.71702
 Cu535 Cu 0.49917 0.27107 0.76987
 Cu536 Cu 0.49986 0.22923 0.73333
 C537 C 0.53829 0.27516 0.72548
 C538 C 0.46055 0.22533 0.77754
 C539 C 0.53725 0.22532 0.77883
 C540 C 0.46133 0.27465 0.72467
 O541 O 0.02838 0.25425 0.78469
 O542 O -0.02803 0.21582 0.74554
 O543 O 0.02912 0.21557 0.74598
 O544 O -0.02862 0.25370 0.78389
 O545 O -0.02753 0.28775 0.75266
 O546 O 0.02992 0.24928 0.71437
 O547 O -0.02751 0.24921 0.71365
 O548 O 0.02962 0.28733 0.75245
 Cu549 Cu 0.00025 0.23144 0.76818
 Cu550 Cu 0.00105 0.27174 0.73004
 C551 C 0.03877 0.27724 0.77515
 C552 C -0.03766 0.22605 0.72307
 C553 C 0.03953 0.22599 0.72382
 C554 C -0.03796 0.27720 0.77476
 O555 O 0.52724 0.24743 0.21341
 O556 O 0.47192 0.28499 0.25497
 O557 O 0.52899 0.28399 0.25286
 O558 O 0.46973 0.24821 0.21498
 O559 O 0.47085 0.21287 0.24479
 O560 O 0.52805 0.25013 0.28432
 O561 O 0.47073 0.24943 0.28457
 O562 O 0.52777 0.21289 0.24416
 Cu563 Cu 0.49937 0.26961 0.23096
 Cu564 Cu 0.49947 0.22786 0.26756
 C565 C 0.53722 0.22391 0.22189
 C566 C 0.46158 0.27346 0.27663
 C567 C 0.53857 0.27322 0.27508
 C568 C 0.46017 0.22441 0.22337
 O569 O 0.96948 0.74996 0.71509
 O570 O 1.02897 0.71495 0.75345
 O571 O 0.97217 0.71342 0.75508
 O572 O 1.02697 0.75146 0.71302
 O573 O 1.02695 0.78667 0.74299
 O574 O 0.97189 0.74884 0.78483
 O575 O 1.02959 0.75031 0.78326
 O576 O 0.97036 0.78542 0.74480
 Cu577 Cu 0.99945 0.72898 0.73108
 Cu578 Cu 0.99974 0.77123 0.76711
 C579 C 0.95974 0.77367 0.72345
 C580 C 1.03947 0.72668 0.77487
 C581 C 0.96244 0.72481 0.77700
 C582 C 1.03635 0.77553 0.72080
 O583 O 0.52646 0.78910 0.24550
 O584 O 0.47148 0.74944 0.28585
 O585 O 0.52907 0.75122 0.28453
 O586 O 0.46930 0.78684 0.24726
 O587 O 0.47067 0.75363 0.21517
 O588 O 0.52834 0.71648 0.25402
 O589 O 0.47151 0.71569 0.25428
 O590 O 0.52790 0.75438 0.21504
 Cu591 Cu 0.49915 0.77255 0.26896
 Cu592 Cu 0.49966 0.73167 0.23144
 C593 C 0.53682 0.77834 0.22349
 C594 C 0.46177 0.72603 0.27670
 C595 C 0.53877 0.72767 0.27574
 C596 C 0.45975 0.77628 0.22489
 O597 O -0.02889 0.78314 0.25039
 O598 O 0.03000 0.74627 0.21295
 O599 O -0.02691 0.74464 0.21194
 O600 O 0.02893 0.78371 0.25161
 O601 O 0.02898 0.74994 0.28316
 O602 O -0.02835 0.71208 0.24462
 O603 O 0.02874 0.71192 0.24390
 O604 O -0.02809 0.75053 0.28305
 Cu605 Cu 0.00071 0.76793 0.22865
 Cu606 Cu 0.00032 0.72776 0.26687
 C607 C -0.03859 0.77320 0.27304
 C608 C 0.03930 0.72271 0.22194
 C609 C -0.03733 0.72174 0.22167
 C610 C 0.03889 0.77321 0.27386
 O611 O 0.47210 0.78642 0.75402
 O612 O 0.52841 0.74889 0.71352
 O613 O 0.47079 0.74944 0.71423
 O614 O 0.52928 0.78580 0.75259
 O615 O 0.52821 0.75212 0.78423
 O616 O 0.47185 0.71422 0.74419
 O617 O 0.52876 0.71465 0.74458
 O618 O 0.47087 0.75117 0.78393
 Cu619 Cu 0.50004 0.77107 0.73047
 Cu620 Cu 0.49994 0.72961 0.76736
 C621 C 0.46159 0.77506 0.77571
 C622 C 0.53853 0.72557 0.72240
 C623 C 0.46140 0.72558 0.72259
 C624 C 0.53876 0.77516 0.77492
 C625 C 0.41297 0.33117 0.30543
 C626 C 0.39209 0.31554 0.32060
 C627 C 0.39504 0.28590 0.32186
 C628 C 0.41809 0.27230 0.30816
 C629 C 0.43833 0.28796 0.29244
 C630 C 0.43560 0.31751 0.29125
 H631 H 0.41190 0.35405 0.30450
 H632 H 0.37916 0.27304 0.33283
 H633 H 0.41957 0.24944 0.30918
 H634 H 0.45110 0.33009 0.27947
 C635 C 0.40969 0.83202 0.80088
 C636 C 0.39099 0.81705 0.81920
 C637 C 0.39702 0.78798 0.82350
 C638 C 0.42023 0.77459 0.80983
 C639 C 0.43801 0.78959 0.79121
 C640 C 0.43258 0.81845 0.78699
 H641 H 0.40751 0.85457 0.79766
 H642 H 0.38318 0.77481 0.83632
 H643 H 0.42371 0.75219 0.81328
 H644 H 0.44625 0.83070 0.77307
 C645 C -0.08723 0.33542 0.80209
 C646 C -0.10725 0.32002 0.81848
 C647 C -0.10385 0.29046 0.82043
 C648 C -0.08105 0.27674 0.80658
 C649 C -0.06147 0.29209 0.78991
 C650 C -0.06478 0.32155 0.78772
 H651 H -0.08877 0.35822 0.80044
 H652 H -0.11918 0.27770 0.83218
 H653 H -0.07918 0.25395 0.80839
 H654 H -0.04978 0.33390 0.77516
 C655 C -0.10664 0.81687 0.28608
 C656 C -0.10947 0.81550 0.31504
 C657 C -0.08853 0.79991 0.33001
 C658 C -0.06560 0.78599 0.31639
 C659 C -0.06265 0.78791 0.28759
 C660 C -0.08330 0.80357 0.27259
 H661 H -0.12268 0.82785 0.27365
 H662 H -0.08961 0.79871 0.35231
 H663 H -0.04986 0.77411 0.32843
 H664 H -0.08178 0.80499 0.25030
 C665 C 0.60631 0.71512 0.31933
 C666 C 0.60919 0.68545 0.31806
 C667 C 0.58819 0.66992 0.30305
 C668 C 0.56541 0.68366 0.28927
 C669 C 0.56260 0.71319 0.29070
 C670 C 0.58308 0.72878 0.30607
 H671 H 0.62229 0.72796 0.33010
 H672 H 0.58916 0.64704 0.30209
 H673 H 0.54973 0.67112 0.27775
 H674 H 0.58156 0.75164 0.30725
 C675 C 0.58563 0.16737 0.80746
 C676 C 0.60648 0.18297 0.82256
 C677 C 0.60324 0.21260 0.82419
 C678 C 0.58018 0.22623 0.81073
 C679 C 0.56019 0.21068 0.79480
 C680 C 0.56297 0.18111 0.79346
 H681 H 0.58686 0.14452 0.80626
 H682 H 0.61910 0.22546 0.83511
 H683 H 0.57863 0.24908 0.81193
 H684 H 0.54759 0.16860 0.78157
 C685 C 1.08977 0.66996 0.80284
 C686 C 1.11069 0.68597 0.81747
 C687 C 1.10740 0.71561 0.81839
 C688 C 1.08391 0.72880 0.80506
 C689 C 1.06356 0.71274 0.78998
 C690 C 1.06672 0.68322 0.78898
 H691 H 1.09105 0.64709 0.80217
 H692 H 1.12327 0.72878 0.82891
 H693 H 1.08209 0.75164 0.80593
 H694 H 1.05114 0.67031 0.77773
 C695 C 1.10810 0.18430 0.28975
 C696 C 1.11076 0.18580 0.31868
 C697 C 1.08978 0.20151 0.33361
 C698 C 1.06690 0.21535 0.31998
 C699 C 1.06407 0.21320 0.29121
 C700 C 1.08483 0.19751 0.27625
 H701 H 1.12416 0.17319 0.27736
 H702 H 1.09072 0.20280 0.35591
 H703 H 1.05105 0.22723 0.33197
 H704 H 1.08336 0.19590 0.25397
 C705 C 0.58805 0.33311 0.69818
 C706 C 0.60800 0.31769 0.68184
 C707 C 0.60428 0.28815 0.67967
 C708 C 0.58126 0.27447 0.69336
 C709 C 0.56180 0.28986 0.71005
 C710 C 0.56540 0.31930 0.71234
 H711 H 0.58982 0.35589 0.69996
 H712 H 0.61952 0.27540 0.66787
 H713 H 0.57917 0.25170 0.69147
 H714 H 0.55051 0.33171 0.72492
 C715 C 0.59947 0.79289 0.17413
 C716 C 0.60632 0.82161 0.17953
 C717 C 0.58873 0.83600 0.19914
 C718 C 0.56605 0.82210 0.21317
 C719 C 0.55989 0.79352 0.20785
 C720 C 0.57658 0.77921 0.18794
 H721 H 0.61259 0.78009 0.16034
 H722 H 0.59173 0.85829 0.20340
 H723 H 0.55322 0.83381 0.22816
 H724 H 0.57257 0.75704 0.18360
 C725 C 1.08950 0.33388 0.19850
 C726 C 1.10667 0.31925 0.17873
 C727 C 1.09942 0.29059 0.17349
 C728 C 1.07659 0.27718 0.18766
 C729 C 1.06041 0.29173 0.20777
 C730 C 1.06693 0.32025 0.21290
 H731 H 1.09273 0.35616 0.20263
 H732 H 1.11218 0.27761 0.15956
 H733 H 1.07225 0.25503 0.18347
 H734 H 1.05445 0.33214 0.22801
 C735 C 1.08677 0.83330 0.69427
 C736 C 1.10512 0.81854 0.67557
 C737 C 1.09864 0.78959 0.67078
 C738 C 1.07582 0.77594 0.68480
 C739 C 1.05883 0.79056 0.70425
 C740 C 1.06423 0.81945 0.70852
 H741 H 1.08916 0.85576 0.69785
 H742 H 1.11216 0.77657 0.65754
 H743 H 1.07225 0.75356 0.68118
 H744 H 1.05101 0.83145 0.72299
 C745 C 0.39422 0.71301 0.67856
 C746 C 0.39123 0.68335 0.67985
 C747 C 0.41213 0.66778 0.69485
 C748 C 0.43493 0.68150 0.70869
 C749 C 0.43780 0.71105 0.70733
 C750 C 0.41744 0.72665 0.69190
 H751 H 0.37831 0.72583 0.66776
 H752 H 0.41102 0.64490 0.69582
 H753 H 0.45051 0.66897 0.72027
 H754 H 0.41901 0.74951 0.69078
 C755 C 0.39481 0.21214 0.17676
 C756 C 0.38833 0.18317 0.18129
 C757 C 0.40683 0.16809 0.19953
 C758 C 0.43012 0.18143 0.21296
 C759 C 0.43610 0.21016 0.20839
 C760 C 0.41839 0.22530 0.18999
 H761 H 0.38109 0.22542 0.16406
 H762 H 0.40424 0.14561 0.20298
 H763 H 0.44369 0.16909 0.22677
 H764 H 0.42226 0.24763 0.18634
 C765 C -0.08846 0.69792 0.16455
 C766 C -0.10740 0.67884 0.17849
 C767 C -0.10156 0.67352 0.20675
 C768 C -0.07845 0.68689 0.22037
 C769 C -0.06056 0.70641 0.20652
 C770 C -0.06562 0.71164 0.17844
 H771 H -0.09051 0.70209 0.14271
 H772 H -0.11565 0.66028 0.21927
 H773 H -0.07528 0.68266 0.24214
 H774 H -0.05178 0.72629 0.16711
 C775 C -0.10115 0.17679 0.70853
 C776 C -0.10783 0.18259 0.68056
 C777 C -0.09034 0.20305 0.66682
 C778 C -0.06757 0.21712 0.68051
 C779 C -0.06127 0.21098 0.70819
 C780 C -0.07818 0.19057 0.72195
 H781 H -0.11435 0.16257 0.72089
 H782 H -0.09333 0.20783 0.64518
 H783 H -0.05465 0.23260 0.66929
 H784 H -0.07417 0.18571 0.74348
 C785 C 0.33412 0.41206 0.30521
 C786 C 0.31718 0.39317 0.32115
 C787 C 0.28671 0.39752 0.32294
 C788 C 0.27351 0.41996 0.30893
 C789 C 0.29038 0.43824 0.29241
 C790 C 0.32082 0.43417 0.29078
 H791 H 0.35769 0.40975 0.30381
 H792 H 0.27286 0.38315 0.33455
 H793 H 0.24995 0.42250 0.31037
 H794 H 0.33437 0.44816 0.27841
 C795 C 0.33311 -0.08953 0.80166
 C796 C 0.31743 -0.10634 0.82091
 C797 C 0.28791 -0.09890 0.82634
 C798 C 0.27457 -0.07636 0.81257
 C799 C 0.29010 -0.06063 0.79279
 C800 C 0.31958 -0.06724 0.78771
 H801 H 0.35616 -0.09294 0.79757
 H802 H 0.27419 -0.11126 0.84003
 H803 H 0.25169 -0.07190 0.81676
 H804 H 0.33228 -0.05511 0.77291
 C805 C 0.83161 0.41247 0.80259
 C806 C 0.81554 0.39458 0.82057
 C807 C 0.78573 0.40141 0.82537
 C808 C 0.77256 0.42449 0.81220
 C809 C 0.78861 0.44135 0.79370
 C810 C 0.81831 0.43527 0.78928
 H811 H 0.85485 0.40962 0.79911
 H812 H 0.77172 0.38831 0.83810
 H813 H 0.74949 0.42853 0.81581
 H814 H 0.83142 0.44821 0.77548
 C815 C 0.83436 -0.08773 0.30162
 C816 C 0.81844 -0.10523 0.32009
 C817 C 0.78874 -0.09812 0.32516
 C818 C 0.77548 -0.07533 0.31172
 C819 C 0.79124 -0.05898 0.29260
 C820 C 0.82090 -0.06518 0.28798
 H821 H 0.85751 -0.09077 0.29785
 H822 H 0.77481 -0.11096 0.33822
 H823 H 0.75248 -0.07117 0.31559
 H824 H 0.83381 -0.05254 0.27374
 C825 C 0.33343 0.58616 0.69444
 C826 C 0.31659 0.60498 0.67849
 C827 C 0.28618 0.60025 0.67642
 C828 C 0.27293 0.57760 0.69025
 C829 C 0.28968 0.55950 0.70688
 C830 C 0.32007 0.56386 0.70869
 H831 H 0.35696 0.58871 0.69603
 H832 H 0.27238 0.61453 0.66480
 H833 H 0.24940 0.57485 0.68870
 H834 H 0.33354 0.55002 0.72118
 C835 C 0.33059 1.08667 0.19545
 C836 C 0.31378 1.10591 0.17997
 C837 C 0.28328 1.10157 0.17821
 C838 C 0.26993 1.07887 0.19189
 C839 C 0.28668 1.06031 0.20805
 C840 C 0.31715 1.06432 0.20955
 H841 H 0.35417 1.08893 0.19679
 H842 H 0.26952 1.11618 0.16693
 H843 H 0.24636 1.07637 0.19055
 H844 H 0.33062 1.05012 0.22164
 C845 C 0.79522 0.58793 0.16585
 C846 C 0.81238 0.60770 0.18047
 C847 C 0.81536 0.60431 0.20922
 C848 C 0.80247 0.58142 0.22280
 C849 C 0.78553 0.56168 0.20821
 C850 C 0.78167 0.56528 0.17966
 H851 H 0.79261 0.58965 0.14370
 H852 H 0.82747 0.61952 0.22144
 H853 H 0.80533 0.57945 0.24492
 H854 H 0.76868 0.55029 0.16796
 C855 C 0.82502 1.09977 0.70764
 C856 C 0.81919 1.10556 0.67948
 C857 C 0.79935 1.08724 0.66575
 C858 C 0.78563 1.06482 0.67972
 C859 C 0.79166 1.05962 0.70764
 C860 C 0.81175 1.07711 0.72128
 H861 H 0.83862 1.11346 0.72010
 H862 H 0.79461 1.08944 0.64402
 H863 H 0.77041 1.05141 0.66859
 H864 H 0.81648 1.07394 0.74298
 C865 C 0.66566 0.58734 0.30465
 C866 C 0.68267 0.60619 0.32050
 C867 C 0.71294 0.60101 0.32302
 C868 C 0.72587 0.57784 0.30986
 C869 C 0.70898 0.55961 0.29342
 C870 C 0.67873 0.56448 0.29104
 H871 H 0.64222 0.59026 0.30269
 H872 H 0.72692 0.61530 0.33451
 H873 H 0.74931 0.57476 0.31180
 H874 H 0.66517 0.55061 0.27863
 C875 C 0.70550 1.09224 0.83254
 C876 C 0.68619 1.11072 0.81846
 C877 C 0.68087 1.10504 0.79020
 C878 C 0.69358 1.08185 0.77697
 C879 C 0.71257 1.06375 0.79118
 C880 C 0.71862 1.06929 0.81903
 H881 H 0.70986 1.09452 0.85436
 H882 H 0.66784 1.11893 0.77748
 H883 H 0.68903 1.07849 0.75526
 H884 H 0.73309 1.05552 0.83056
 C885 C 0.16930 0.59179 0.80102
 C886 C 0.18513 0.60881 0.81985
 C887 C 0.21450 0.60106 0.82545
 C888 C 0.22750 0.57784 0.81240
 C889 C 0.21175 0.56171 0.79318
 C890 C 0.18246 0.56877 0.78783
 H891 H 0.14637 0.59550 0.79676
 H892 H 0.22836 0.61360 0.83880
 H893 H 0.25025 0.57307 0.81674
 H894 H 0.16958 0.55644 0.77341
 C895 C 0.16573 1.08585 0.30863
 C896 C 0.18280 1.10539 0.32357
 C897 C 0.21332 1.10109 0.32505
 C898 C 0.22644 1.07826 0.31151
 C899 C 0.20946 1.05952 0.29572
 C900 C 0.17896 1.06336 0.29462
 H901 H 0.14214 1.08803 0.30754
 H902 H 0.22731 1.11593 0.33585
 H903 H 0.25003 1.07590 0.31253
 H904 H 0.16533 1.04899 0.28282
 C905 C 0.66849 0.41330 0.69497
 C906 C 0.68560 0.39351 0.68034
 C907 C 0.71615 0.39781 0.67890
 C908 C 0.72918 0.42103 0.69204
 C909 C 0.71206 0.44015 0.70734
 C910 C 0.68159 0.43612 0.70855
 H911 H 0.64487 0.41119 0.69598
 H912 H 0.73016 0.38287 0.66827
 H913 H 0.75278 0.42351 0.69098
 H914 H 0.66784 0.45070 0.71998
 C915 C 0.66822 -0.08733 0.19761
 C916 C 0.68411 -0.10533 0.17961
 C917 C 0.71414 -0.09899 0.17528
 C918 C 0.72763 -0.07625 0.18877
 C919 C 0.71173 -0.05922 0.20721
 C920 C 0.68187 -0.06489 0.21130
 H921 H 0.64487 -0.08979 0.20078
 H922 H 0.72804 -0.11221 0.16262
 H923 H 0.75081 -0.07254 0.18540
 H924 H 0.66889 -0.05180 0.22504
 C925 C 0.21570 0.39593 0.17742
 C926 C 0.18498 0.39291 0.17810
 C927 C 0.16832 0.41334 0.19233
 C928 C 0.18201 0.43560 0.20627
 C929 C 0.21264 0.43836 0.20576
 C930 C 0.22934 0.41859 0.19088
 H931 H 0.22935 0.38042 0.16717
 H932 H 0.14461 0.41214 0.19277
 H933 H 0.16861 0.45074 0.21738
 H934 H 0.25304 0.42012 0.19038
 C935 C 0.18374 -0.10739 0.70900
 C936 C 0.18563 -0.10999 0.68008
 C937 C 0.20161 -0.08940 0.66525
 C938 C 0.21515 -0.06680 0.67899
 C939 C 0.21238 -0.06398 0.70773
 C940 C 0.19657 -0.08446 0.72258
 H941 H 0.17260 -0.12321 0.72135
 H942 H 0.20330 -0.09046 0.64297
 H943 H 0.22724 -0.05122 0.66711
 H944 H 0.19460 -0.08304 0.74484
 C945 C 0.28729 0.32328 0.40171
 C946 C 0.31786 0.32151 0.39778
 C947 C 0.33460 0.30670 0.41742
 C948 C 0.32100 0.29308 0.43968
 C949 C 0.29046 0.29452 0.44318
 C950 C 0.27381 0.31021 0.42431
 H951 H 0.27351 0.33392 0.38681
 H952 H 0.35821 0.30540 0.41553
 H953 H 0.33436 0.28132 0.45413
 H954 H 0.25018 0.31140 0.42639
 C955 C 0.28673 0.82295 -0.10026
 C956 C 0.31731 0.82145 -0.10427
 C957 C 0.33426 0.80700 -0.08454
 C958 C 0.32088 0.79346 -0.06211
 C959 C 0.29033 0.79462 -0.05852
 C960 C 0.27346 0.80996 -0.07749
 H961 H 0.27284 0.83339 -0.11520
 H962 H 0.35789 0.80596 -0.08645
 H963 H 0.33442 0.78197 -0.04760
 H964 H 0.24983 0.81094 -0.07535
 C965 C 0.80335 0.33642 -0.08471
 C966 C 0.81866 0.32093 -0.10502
 C967 C 0.82067 0.29133 -0.10199
 C968 C 0.80804 0.27768 -0.07935
 C969 C 0.79232 0.29308 -0.05950
 C970 C 0.78999 0.32257 -0.06237
 H971 H 0.80172 0.35923 -0.08595
 H972 H 0.83143 0.27846 -0.11747
 H973 H 0.80978 0.25485 -0.07784
 H974 H 0.77808 0.33492 -0.04720
 C975 C 0.78591 0.82224 0.39716
 C976 C 0.81620 0.81931 0.39207
 C977 C 0.83306 0.80351 0.41085
 C978 C 0.81988 0.79039 0.43363
 C979 C 0.78964 0.79321 0.43848
 C980 C 0.77287 0.80957 0.42023
 H981 H 0.77205 0.83372 0.38294
 H982 H 0.85649 0.80126 0.40801
 H983 H 0.83337 0.77802 0.44748
 H984 H 0.74944 0.81182 0.42329
 C985 C 0.67940 0.28987 0.60159
 C986 C 0.68185 0.31941 0.60498
 C987 C 0.69763 0.33495 0.58498
 C988 C 0.71101 0.32119 0.56261
 C989 C 0.70822 0.29176 0.55940
 C990 C 0.69202 0.27633 0.57892
 H991 H 0.66837 0.27689 0.61685
 H992 H 0.69967 0.35772 0.58650
 H993 H 0.72337 0.33354 0.54773
 H994 H 0.68998 0.25354 0.57718
 C995 C 0.69642 0.83708 1.08456
 C996 C 0.68074 0.82161 1.10465
 C997 C 0.67825 0.79206 1.10137
 C998 C 0.69086 0.77841 1.07873
 C999 C 0.70702 0.79379 1.05914
 C1000 C 0.70974 0.82324 1.06222
 H1001 H 0.69841 0.85987 1.08598
 H1002 H 0.66714 0.77920 1.11669
 H1003 H 0.68883 0.75562 1.07708
 H1004 H 0.72203 0.83557 1.04728
 C1005 C 0.19701 0.33398 1.08333
 C1006 C 0.18089 0.31870 1.10328
 C1007 C 0.17833 0.28914 1.10016
 C1008 C 0.19122 0.27532 1.07778
 C1009 C 0.20775 0.29051 1.05833
 C1010 C 0.21063 0.31995 1.06128
 H1011 H 0.19911 0.35676 1.08465
 H1012 H 0.16696 0.27640 1.11540
 H1013 H 0.18906 0.25253 1.07619
 H1014 H 0.22319 0.33211 1.04640
 C1015 C 0.18067 0.78739 0.60033
 C1016 C 0.18400 0.81673 0.60441
 C1017 C 0.20109 0.83221 0.58536
 C1018 C 0.21458 0.81861 0.56297
 C1019 C 0.21070 0.78942 0.55885
 C1020 C 0.19352 0.77401 0.57768
 H1021 H 0.16852 0.77451 0.61491
 H1022 H 0.20387 0.85486 0.58756
 H1023 H 0.22771 0.83095 0.54868
 H1024 H 0.19061 0.75137 0.57528
 C1025 C 0.33429 0.69284 0.58324
 C1026 C 0.31755 0.67754 0.60267
 C1027 C 0.28704 0.67544 0.59870
 C1028 C 0.27362 0.68852 0.57620
 C1029 C 0.29026 0.70458 0.55748
 C1030 C 0.32072 0.70651 0.56108
 H1031 H 0.35787 0.69444 0.58517
 H1032 H 0.27324 0.66446 0.61346
 H1033 H 0.25003 0.68696 0.57403
 H1034 H 0.33406 0.71858 0.54673
 C1035 C 0.28448 0.17738 1.10091
 C1036 C 0.31502 0.17905 1.10485
 C1037 C 0.33202 0.19384 1.08523
 C1038 C 0.31870 0.20741 1.06288
 C1039 C 0.28822 0.20587 1.05928
 C1040 C 0.27130 0.19036 1.07823
 H1041 H 0.27053 0.16677 1.11580
 H1042 H 0.35563 0.19505 1.08713
 H1043 H 0.33224 0.21904 1.04836
 H1044 H 0.24770 0.18909 1.07606
 C1045 C 0.81638 0.71295 1.10358
 C1046 C 0.81403 0.68340 1.10694
 C1047 C 0.79833 0.66782 1.08705
 C1048 C 0.78521 0.68144 1.06459
 C1049 C 0.78808 0.71083 1.06118
 C1050 C 0.80391 0.72642 1.08079
 H1051 H 0.82743 0.72590 1.11879
 H1052 H 0.79639 0.64503 1.08864
 H1053 H 0.77313 0.66895 1.04969
 H1054 H 0.80599 0.74919 1.07890
 C1055 C 0.83266 0.19609 0.58747
 C1056 C 0.81579 0.18118 0.60712
 C1057 C 0.78520 0.17976 0.60348
 C1058 C 0.77191 0.19279 0.58083
 C1059 C 0.78877 0.20812 0.56166
 C1060 C 0.81925 0.20969 0.56520
 H1061 H 0.85629 0.19720 0.58923
 H1062 H 0.77132 0.16915 0.61842
 H1063 H 0.74829 0.19156 0.57874
 H1064 H 0.83276 0.22123 0.55057
 C1065 C 0.71324 0.67749 0.39948
 C1066 C 0.68274 0.67969 0.39545
 C1067 C 0.66610 0.69510 0.41480
 C1068 C 0.67974 0.70883 0.43691
 C1069 C 0.71022 0.70694 0.44053
 C1070 C 0.72675 0.69071 0.42192
 H1071 H 0.72695 0.66635 0.38479
 H1072 H 0.64253 0.69676 0.41283
 H1073 H 0.66644 0.72101 0.45115
 H1074 H 0.75033 0.68913 0.42409
 C1075 C 0.68226 0.21185 -0.10138
 C1076 C 0.68502 0.18245 -0.10544
 C1077 C 0.70165 0.16674 -0.08636
 C1078 C 0.71530 0.18016 -0.06399
 C1079 C 0.71204 0.20943 -0.05994
 C1080 C 0.69527 0.22506 -0.07876
 H1081 H 0.67048 0.22490 -0.11597
 H1082 H 0.70398 0.14405 -0.08856
 H1083 H 0.72810 0.16764 -0.04970
 H1084 H 0.69282 0.24775 -0.07641
 C1085 C 0.16792 0.69603 -0.08602
 C1086 C 0.18497 0.68152 -0.10572
 C1087 C 0.21550 0.67981 -0.10165
 C1088 C 0.22863 0.69249 -0.07873
 C1089 C 0.21166 0.70772 -0.05966
 C1090 C 0.18118 0.70925 -0.06341
 H1091 H 0.14433 0.69729 -0.08805
 H1092 H 0.22949 0.66938 -0.11660
 H1093 H 0.25222 0.69127 -0.07648
 H1094 H 0.16757 0.72070 -0.04885
 C1095 C 0.16753 0.19745 0.41467
 C1096 C 0.18430 0.18146 0.39590
 C1097 C 0.21460 0.17854 0.40068
 C1098 C 0.22778 0.19147 0.42344
 C1099 C 0.21110 0.20806 0.44165
 C1100 C 0.18083 0.21082 0.43714
 H1101 H 0.14408 0.19969 0.41202
 H1102 H 0.22838 0.16691 0.38642
 H1103 H 0.25122 0.18925 0.42628
 H1104 H 0.16742 0.22333 0.45101
 C1105 C 0.33266 0.41286 0.69672
 C1106 C 0.31572 0.39374 0.68116
 C1107 C 0.28527 0.39824 0.67931
 C1108 C 0.27213 0.42107 0.69284
 C1109 C 0.28901 0.43963 0.70894
 C1110 C 0.31941 0.43538 0.71067
 H1111 H 0.35622 0.41046 0.69816
 H1112 H 0.27140 0.38370 0.66801
 H1113 H 0.24859 0.42372 0.69135
 H1114 H 0.33298 0.44955 0.72276
 C1115 C 0.33122 0.91574 0.19364
 C1116 C 0.31447 0.89602 0.17861
 C1117 C 0.28387 0.89980 0.17726
 C1118 C 0.27037 0.92229 0.19106
 C1119 C 0.28706 0.94117 0.20696
 C1120 C 0.31763 0.93787 0.20790
 H1121 H 0.35486 0.91399 0.19462
 H1122 H 0.27014 0.88482 0.16636
 H1123 H 0.24672 0.92426 0.19013
 H1124 H 0.33105 0.95238 0.21974
 C1125 C 0.83238 0.41412 0.19511
 C1126 C 0.81585 0.39495 0.17921
 C1127 C 0.78543 0.39933 0.17681
 C1128 C 0.77188 0.42200 0.19028
 C1129 C 0.78832 0.44053 0.20684
 C1130 C 0.81872 0.43649 0.20897
 H1131 H 0.85591 0.41182 0.19696
 H1132 H 0.77187 0.38477 0.16521
 H1133 H 0.74835 0.42447 0.18845
 H1134 H 0.83197 0.45062 0.22140
 C1135 C 0.83113 0.91161 0.69673
 C1136 C 0.81404 0.89297 0.68072
 C1137 C 0.78373 0.89804 0.67861
 C1138 C 0.77085 0.92095 0.69229
 C1139 C 0.78787 0.93905 0.70880
 C1140 C 0.81815 0.93420 0.71082
 H1141 H 0.85462 0.90879 0.69839
 H1142 H 0.76973 0.88392 0.66694
 H1143 H 0.74740 0.92406 0.69052
 H1144 H 0.83184 0.94799 0.72319
 C1145 C 0.66754 0.58739 0.69387
 C1146 C 0.68456 0.60646 0.67820
 C1147 C 0.71499 0.60188 0.67625
 C1148 C 0.72808 0.57911 0.68990
 C1149 C 0.71114 0.56071 0.70624
 C1150 C 0.68073 0.56496 0.70795
 H1151 H 0.64399 0.58982 0.69537
 H1152 H 0.72893 0.61634 0.66484
 H1153 H 0.75162 0.57647 0.68841
 H1154 H 0.66711 0.55092 0.72020
 C1155 C 0.68429 0.10549 0.20954
 C1156 C 0.68529 0.10749 0.18052
 C1157 C 0.70026 0.08625 0.16568
 C1158 C 0.71400 0.06388 0.17952
 C1159 C 0.71235 0.06185 0.20839
 C1160 C 0.69724 0.08274 0.22323
 H1161 H 0.67393 0.12175 0.22191
 H1162 H 0.70115 0.08667 0.14335
 H1163 H 0.72546 0.04789 0.16764
 H1164 H 0.69610 0.08187 0.24557
 C1165 C 0.20081 0.58337 0.16477
 C1166 C 0.18645 0.60488 0.17977
 C1167 C 0.18618 0.60323 0.20881
 C1168 C 0.19915 0.58047 0.22239
 C1169 C 0.21356 0.55925 0.20740
 C1170 C 0.21459 0.56097 0.17850
 H1171 H 0.20115 0.58360 0.14242
 H1172 H 0.17633 0.61973 0.22124
 H1173 H 0.19852 0.57981 0.24476
 H1174 H 0.22552 0.54470 0.16655
 C1175 C 0.16660 0.08488 0.69472
 C1176 C 0.18348 0.10388 0.67883
 C1177 C 0.21383 0.09905 0.67634
 C1178 C 0.22696 0.07609 0.68958
 C1179 C 0.21019 0.05768 0.70606
 C1180 C 0.17986 0.06219 0.70839
 H1181 H 0.14311 0.08754 0.69667
 H1182 H 0.22769 0.11348 0.66481
 H1183 H 0.25045 0.07329 0.68764
 H1184 H 0.16637 0.04819 0.72081
 C1185 C 0.28758 0.59871 0.32253
 C1186 C 0.31796 0.60356 0.32023
 C1187 C 0.33482 0.58489 0.30402
 C1188 C 0.32151 0.56251 0.28989
 C1189 C 0.29118 0.55792 0.29211
 C1190 C 0.27441 0.57599 0.30886
 H1191 H 0.27373 0.61290 0.33428
 H1192 H 0.35833 0.58756 0.30220
 H1193 H 0.33498 0.54871 0.27728
 H1194 H 0.25091 0.57309 0.31069
 C1195 C 0.33189 0.08588 0.80398
 C1196 C 0.31496 0.10462 0.82003
 C1197 C 0.28455 0.09984 0.82212
 C1198 C 0.27142 0.07714 0.80834
 C1199 C 0.28828 0.05898 0.79175
 C1200 C 0.31866 0.06350 0.78979
 H1201 H 0.35543 0.08847 0.80234
 H1202 H 0.27068 0.11408 0.83381
 H1203 H 0.24791 0.07428 0.81004
 H1204 H 0.33223 0.04963 0.77735
 C1205 C 0.78344 0.60438 0.82222
 C1206 C 0.81406 0.60831 0.82123
 C1207 C 0.83111 0.58840 0.80668
 C1208 C 0.81791 0.56583 0.79277
 C1209 C 0.78738 0.56215 0.79359
 C1210 C 0.77029 0.58139 0.80877
 H1211 H 0.76946 0.61942 0.83275
 H1212 H 0.85477 0.59020 0.80601
 H1213 H 0.83163 0.55113 0.78145
 H1214 H 0.74666 0.57918 0.80953
 C1215 C 0.83452 0.08693 0.30591
 C1216 C 0.81780 0.10549 0.32237
 C1217 C 0.78738 0.10084 0.32454
 C1218 C 0.77404 0.07846 0.31046
 C1219 C 0.79068 0.06053 0.29344
 C1220 C 0.82106 0.06490 0.29137
 H1221 H 0.85806 0.08940 0.30418
 H1222 H 0.77363 0.11496 0.33650
 H1223 H 0.75052 0.07570 0.31224
 H1224 H 0.83444 0.05118 0.27860
 C1225 C 0.66729 0.41281 0.30804
 C1226 C 0.68464 0.39240 0.32148
 C1227 C 0.71530 0.39608 0.32155
 C1228 C 0.72821 0.41921 0.30815
 C1229 C 0.71085 0.43884 0.29386
 C1230 C 0.68027 0.43554 0.29409
 H1231 H 0.64361 0.41120 0.30812
 H1232 H 0.72948 0.38064 0.33118
 H1233 H 0.75189 0.42118 0.30810
 H1234 H 0.66637 0.45059 0.28350
 C1235 C 0.71215 0.90135 0.82496
 C1236 C 0.68161 0.89726 0.82325
 C1237 C 0.66499 0.91676 0.80783
 C1238 C 0.67869 0.93898 0.79361
 C1239 C 0.70921 0.94260 0.79500
 C1240 C 0.72571 0.92389 0.81124
 H1241 H 0.72585 0.88656 0.83607
 H1242 H 0.64139 0.91477 0.80650
 H1243 H 0.66541 0.95330 0.78147
 H1244 H 0.74932 0.92603 0.81252
 C1245 C 0.21561 0.39862 0.82393
 C1246 C 0.18487 0.39567 0.82394
 C1247 C 0.16796 0.41661 0.81078
 C1248 C 0.18145 0.43904 0.79686
 C1249 C 0.21210 0.44152 0.79641
 C1250 C 0.22905 0.42148 0.81056
 H1251 H 0.22944 0.38275 0.83336
 H1252 H 0.14425 0.41555 0.81096
 H1253 H 0.16790 0.45445 0.78635
 H1254 H 0.25277 0.42283 0.81032
 C1255 C 0.21314 0.89827 0.32425
 C1256 C 0.18255 0.89426 0.32298
 C1257 C 0.16561 0.91414 0.30842
 C1258 C 0.17902 0.93664 0.29449
 C1259 C 0.20958 0.94015 0.29531
 C1260 C 0.22645 0.92112 0.31079
 H1261 H 0.22701 0.88319 0.33479
 H1262 H 0.14198 0.91222 0.30753
 H1263 H 0.16547 0.95127 0.28297
 H1264 H 0.25009 0.92327 0.31162
 C1265 C 0.41181 0.33193 0.69677
 C1266 C 0.39091 0.31612 0.68193
 C1267 C 0.39414 0.28650 0.68059
 C1268 C 0.41753 0.27310 0.69381
 C1269 C 0.43782 0.28893 0.70917
 C1270 C 0.43477 0.31845 0.71050
 H1271 H 0.41053 0.35479 0.69774
 H1272 H 0.37824 0.27350 0.66990
 H1273 H 0.41924 0.25025 0.69275
 H1274 H 0.45030 0.33114 0.72204
 C1275 C 0.40956 0.80192 0.16804
 C1276 C 0.38823 0.81709 0.18306
 C1277 C 0.39082 0.81843 0.21201
 C1278 C 0.41433 0.80553 0.22545
 C1279 C 0.43538 0.79031 0.21040
 C1280 C 0.43267 0.78838 0.18161
 H1281 H 0.40870 0.80080 0.14573
 H1282 H 0.37451 0.82913 0.22446
 H1283 H 0.41570 0.80695 0.24774
 H1284 H 0.44874 0.77686 0.16955
 C1285 C 0.89354 0.28736 0.18148
 C1286 C 0.89059 0.31702 0.18242
 C1287 C 0.91133 0.33281 0.19748
 C1288 C 0.93403 0.31931 0.21157
 C1289 C 0.93695 0.28977 0.21042
 C1290 C 0.91666 0.27393 0.19507
 H1291 H 0.87772 0.27438 0.17067
 H1292 H 0.91020 0.35569 0.19822
 H1293 H 0.94957 0.33202 0.22308
 H1294 H 0.91827 0.25107 0.19412
 C1295 C 0.90942 0.83069 0.69630
 C1296 C 0.88864 0.81491 0.68129
 C1297 C 0.89206 0.78531 0.67975
 C1298 C 0.91553 0.77193 0.69293
 C1299 C 0.93573 0.78777 0.70841
 C1300 C 0.93245 0.81725 0.70995
 H1301 H 0.90803 0.85354 0.69742
 H1302 H 0.87629 0.77233 0.66886
 H1303 H 0.91744 0.74911 0.69163
 H1304 H 0.94792 0.83000 0.72151
 C1305 C 0.60705 0.31587 0.28885
 C1306 C 0.60898 0.31500 0.31787
 C1307 C 0.58721 0.30010 0.33268
 C1308 C 0.56446 0.28620 0.31882
 C1309 C 0.56253 0.28756 0.28994
 C1310 C 0.58389 0.30267 0.27512
 H1311 H 0.62372 0.32631 0.27656
 H1312 H 0.58752 0.29935 0.35502
 H1313 H 0.54807 0.27482 0.33068
 H1314 H 0.58306 0.30370 0.25278
 C1315 C 0.60658 0.81879 0.78886
 C1316 C 0.60891 0.81720 0.81781
 C1317 C 0.58779 0.80136 0.83250
 C1318 C 0.56512 0.78740 0.81859
 C1319 C 0.56267 0.78957 0.78980
 C1320 C 0.58352 0.80546 0.77509
 H1321 H 0.62278 0.83000 0.77666
 H1322 H 0.58848 0.80001 0.85480
 H1323 H 0.54918 0.77536 0.83039
 H1324 H 0.58233 0.80708 0.75280
 C1325 C 0.10646 0.32070 0.78984
 C1326 C 0.10804 0.31958 0.81887
 C1327 C 0.08606 0.30470 0.83337
 C1328 C 0.06356 0.29082 0.81918
 C1329 C 0.06211 0.29218 0.79028
 C1330 C 0.08354 0.30749 0.77576
 H1331 H 0.12330 0.33121 0.77780
 H1332 H 0.08609 0.30383 0.85570
 H1333 H 0.04708 0.27931 0.83082
 H1334 H 0.08305 0.30853 0.75342
 C1335 C 0.10674 0.81689 0.28790
 C1336 C 0.10947 0.81467 0.31680
 C1337 C 0.08838 0.79872 0.33140
 C1338 C 0.06547 0.78519 0.31747
 C1339 C 0.06268 0.78788 0.28874
 C1340 C 0.08340 0.80398 0.27411
 H1341 H 0.12287 0.82822 0.27572
 H1342 H 0.08934 0.79691 0.35367
 H1343 H 0.04966 0.77293 0.32921
 H1344 H 0.08198 0.80598 0.25186
 C1345 C 0.60600 0.71376 0.67828
 C1346 C 0.60939 0.68415 0.67970
 C1347 C 0.58859 0.66834 0.69481
 C1348 C 0.56555 0.68178 0.70864
 C1349 C 0.56230 0.71126 0.70711
 C1350 C 0.58252 0.72710 0.69156
 H1351 H 0.62181 0.72680 0.66744
 H1352 H 0.58997 0.64549 0.69589
 H1353 H 0.55009 0.66908 0.72033
 H1354 H 0.58067 0.74993 0.69035
 C1355 C 0.58585 0.16650 0.19243
 C1356 C 0.60716 0.18240 0.17805
 C1357 C 0.60431 0.21209 0.17743
 C1358 C 0.58105 0.22545 0.19097
 C1359 C 0.56051 0.20954 0.20604
 C1360 C 0.56303 0.17996 0.20659
 H1361 H 0.58678 0.14361 0.19286
 H1362 H 0.62052 0.22519 0.16719
 H1363 H 0.57971 0.24835 0.19049
 H1364 H 0.54724 0.16722 0.21786
 C1365 C 0.08772 0.66470 0.19320
 C1366 C 0.10905 0.68035 0.17858
 C1367 C 0.10664 0.71007 0.17806
 C1368 C 0.08364 0.72369 0.19171
 C1369 C 0.06290 0.70802 0.20680
 C1370 C 0.06512 0.67842 0.20746
 H1371 H 0.08838 0.64180 0.19362
 H1372 H 0.12293 0.72297 0.16769
 H1373 H 0.08253 0.74659 0.19112
 H1374 H 0.04918 0.66587 0.21873
 C1375 C 0.08878 0.16764 0.69707
 C1376 C 0.10979 0.18297 0.68174
 C1377 C 0.10709 0.21264 0.68031
 C1378 C 0.08393 0.22650 0.69354
 C1379 C 0.06334 0.21114 0.70910
 C1380 C 0.06604 0.18161 0.71088
 H1381 H 0.08967 0.14477 0.69823
 H1382 H 0.12313 0.22534 0.66938
 H1383 H 0.08253 0.24935 0.69217
 H1384 H 0.05030 0.16928 0.72261
 C1385 C 0.39487 0.71205 0.32088
 C1386 C 0.39219 0.68239 0.31919
 C1387 C 0.41325 0.66725 0.30384
 C1388 C 0.43591 0.68141 0.29009
 C1389 C 0.43848 0.71095 0.29194
 C1390 C 0.41797 0.72612 0.30769
 H1391 H 0.37879 0.72459 0.33188
 H1392 H 0.41235 0.64438 0.30252
 H1393 H 0.45162 0.66925 0.27820
 H1394 H 0.41928 0.74898 0.30910
 C1395 C 0.39275 0.21250 0.82094
 C1396 C 0.38977 0.18286 0.81939
 C1397 C 0.41086 0.16739 0.80444
 C1398 C 0.43389 0.18121 0.79093
 C1399 C 0.43676 0.21074 0.79257
 C1400 C 0.41619 0.22625 0.80792
 H1401 H 0.37667 0.22525 0.83171
 H1402 H 0.40972 0.14452 0.80328
 H1403 H 0.44964 0.16875 0.77938
 H1404 H 0.41775 0.24910 0.80922
 C1405 C 0.91281 0.66725 0.80525
 C1406 C 0.89291 0.68291 0.82141
 C1407 C 0.89699 0.71240 0.82361
 C1408 C 0.92014 0.72584 0.80988
 C1409 C 0.93939 0.71024 0.79314
 C1410 C 0.93560 0.68081 0.79105
 H1411 H 0.91080 0.64448 0.80349
 H1412 H 0.88182 0.72533 0.83531
 H1413 H 0.92237 0.74861 0.81161
 H1414 H 0.95030 0.66825 0.77844
 C1415 C 0.91384 0.16796 0.30682
 C1416 C 0.89284 0.18344 0.32190
 C1417 C 0.89569 0.21310 0.32322
 C1418 C 0.91882 0.22686 0.30974
 C1419 C 0.93924 0.21136 0.29416
 C1420 C 0.93657 0.18179 0.29285
 H1421 H 0.91280 0.14508 0.30583
 H1422 H 0.87969 0.22585 0.33408
 H1423 H 0.92022 0.24973 0.31081
 H1424 H 0.95219 0.16934 0.28114
 C1425 C 0.28600 0.32257 0.60164
 C1426 C 0.31658 0.32112 0.60537
 C1427 C 0.33347 0.30635 0.58572
 C1428 C 0.32001 0.29251 0.56359
 C1429 C 0.28947 0.29371 0.56024
 C1430 C 0.27266 0.30929 0.57917
 H1431 H 0.27213 0.33319 0.61656
 H1432 H 0.35710 0.30529 0.58746
 H1433 H 0.33349 0.28087 0.54907
 H1434 H 0.24902 0.31032 0.57717
 C1435 C 0.28461 0.82277 0.10062
 C1436 C 0.31491 0.82041 0.10560
 C1437 C 0.33215 0.80479 0.08688
 C1438 C 0.31929 0.79122 0.06428
 C1439 C 0.28902 0.79343 0.05957
 C1440 C 0.27188 0.80967 0.07772
 H1441 H 0.27048 0.83408 0.11481
 H1442 H 0.35562 0.80298 0.08967
 H1443 H 0.33305 0.77899 0.05046
 H1444 H 0.24842 0.81147 0.07475
 C1445 C 0.78787 0.32310 0.09986
 C1446 C 0.81834 0.32150 0.10411
 C1447 C 0.83546 0.30625 0.08496
 C1448 C 0.82230 0.29226 0.06272
 C1449 C 0.79186 0.29374 0.05880
 C1450 C 0.77486 0.30965 0.07733
 H1451 H 0.77379 0.33400 0.11440
 H1452 H 0.85903 0.30499 0.08717
 H1453 H 0.83593 0.28032 0.04856
 H1454 H 0.75128 0.31093 0.07497
 C1455 C 0.78507 0.82335 0.59904
 C1456 C 0.81549 0.82139 0.60361
 C1457 C 0.83271 0.80668 0.58415
 C1458 C 0.81971 0.79333 0.56147
 C1459 C 0.78930 0.79494 0.55734
 C1460 C 0.77220 0.81055 0.57603
 H1461 H 0.77091 0.83394 0.61374
 H1462 H 0.85626 0.80526 0.58647
 H1463 H 0.83344 0.78163 0.54720
 H1464 H 0.74864 0.81189 0.57349
 C1465 C 0.33480 0.69114 0.41577
 C1466 C 0.31823 0.67592 0.39625
 C1467 C 0.28762 0.67420 0.39989
 C1468 C 0.27394 0.68772 0.42208
 C1469 C 0.29044 0.70380 0.44082
 C1470 C 0.32101 0.70520 0.43762
 H1471 H 0.35844 0.69242 0.41408
 H1472 H 0.27399 0.66324 0.38506
 H1473 H 0.25030 0.68648 0.42398
 H1474 H 0.33424 0.71721 0.45202
 C1475 C 0.33286 0.19172 0.91601
 C1476 C 0.31600 0.17659 0.89660
 C1477 C 0.28546 0.17483 0.90064
 C1478 C 0.27213 0.18819 0.92311
 C1479 C 0.28887 0.20417 0.94173
 C1480 C 0.31938 0.20567 0.93812
 H1481 H 0.35647 0.19301 0.91405
 H1482 H 0.27159 0.16398 0.88593
 H1483 H 0.24851 0.18693 0.92530
 H1484 H 0.33279 0.21763 0.95241
 C1485 C 0.80120 0.66652 0.91669
 C1486 C 0.81755 0.68199 0.89706
 C1487 C 0.82036 0.71148 0.90072
 C1488 C 0.80746 0.72503 0.92328
 C1489 C 0.79065 0.70965 0.94238
 C1490 C 0.78758 0.68028 0.93891
 H1491 H 0.79890 0.64378 0.91499
 H1492 H 0.83189 0.72442 0.88576
 H1493 H 0.80976 0.74777 0.92524
 H1494 H 0.77479 0.66795 0.95348
 C1495 C 0.78807 0.17549 0.40290
 C1496 C 0.81862 0.17751 0.39896
 C1497 C 0.83518 0.19298 0.41834
 C1498 C 0.82142 0.20696 0.44031
 C1499 C 0.79092 0.20515 0.44382
 C1500 C 0.77446 0.18886 0.42522
 H1501 H 0.77438 0.16441 0.38820
 H1502 H 0.85879 0.19453 0.41648
 H1503 H 0.83462 0.21919 0.45456
 H1504 H 0.75085 0.18736 0.42730
 C1505 C 0.68353 0.28581 0.39684
 C1506 C 0.68407 0.31550 0.39396
 C1507 C 0.69789 0.33164 0.41470
 C1508 C 0.71112 0.31843 0.43735
 C1509 C 0.71006 0.28889 0.44017
 C1510 C 0.69595 0.27274 0.41986
 H1511 H 0.67403 0.27244 0.38107
 H1512 H 0.69833 0.35452 0.41364
 H1513 H 0.72180 0.33131 0.45287
 H1514 H 0.69530 0.24986 0.42137
 C1515 C 0.71237 0.82343 0.90029
 C1516 C 0.68213 0.82044 0.89531
 C1517 C 0.66536 0.80376 0.91364
 C1518 C 0.67862 0.78995 0.93591
 C1519 C 0.70881 0.79298 0.94070
 C1520 C 0.72546 0.81010 0.92285
 H1521 H 0.72620 0.83548 0.88638
 H1522 H 0.64194 0.80138 0.91085
 H1523 H 0.66522 0.77704 0.94949
 H1524 H 0.74886 0.81257 0.92587
 C1525 C 0.18221 0.28772 0.89691
 C1526 C 0.18300 0.31748 0.89485
 C1527 C 0.19704 0.33294 0.91592
 C1528 C 0.21034 0.31900 0.93808
 C1529 C 0.20910 0.28940 0.94007
 C1530 C 0.19470 0.27392 0.91947
 H1531 H 0.17249 0.27489 0.88084
 H1532 H 0.19765 0.35584 0.91547
 H1533 H 0.22124 0.33136 0.95388
 H1534 H 0.19390 0.25101 0.92037
 C1535 C 0.16661 0.80035 0.41257
 C1536 C 0.18338 0.81677 0.39405
 C1537 C 0.21368 0.81966 0.39889
 C1538 C 0.22681 0.80652 0.42153
 C1539 C 0.21014 0.78968 0.43960
 C1540 C 0.17990 0.78675 0.43494
 H1541 H 0.14318 0.79804 0.40986
 H1542 H 0.22750 0.83152 0.38482
 H1543 H 0.25024 0.80887 0.42442
 H1544 H 0.16649 0.77400 0.44865
 C1545 C 0.71446 0.67809 0.59872
 C1546 C 0.68389 0.67960 0.60269
 C1547 C 0.66704 0.69458 0.58324
 C1548 C 0.68052 0.70853 0.56110
 C1549 C 0.71105 0.70727 0.55751
 C1550 C 0.72782 0.69151 0.57623
 H1551 H 0.72832 0.66733 0.61347
 H1552 H 0.64342 0.69569 0.58515
 H1553 H 0.66705 0.72032 0.54675
 H1554 H 0.75145 0.69040 0.57407
 C1555 C 0.71585 0.18047 0.10129
 C1556 C 0.68511 0.18032 0.10422
 C1557 C 0.66815 0.19375 0.08376
 C1558 C 0.68159 0.20768 0.06157
 C1559 C 0.71223 0.20786 0.05891
 C1560 C 0.72920 0.19377 0.07874
 H1561 H 0.72978 0.17104 0.11682
 H1562 H 0.64444 0.19356 0.08485
 H1563 H 0.66802 0.21820 0.04640
 H1564 H 0.75291 0.19387 0.07732
 C1565 C 0.21632 0.67753 0.10024
 C1566 C 0.18561 0.67751 0.10353
 C1567 C 0.16843 0.69104 0.08333
 C1568 C 0.18163 0.70510 0.06112
 C1569 C 0.21225 0.70531 0.05818
 C1570 C 0.22944 0.69097 0.07764
 H1571 H 0.23041 0.66796 0.11555
 H1572 H 0.14474 0.69093 0.08470
 H1573 H 0.16790 0.71582 0.04621
 H1574 H 0.25313 0.69110 0.07597
 C1575 C 0.16636 0.19296 0.58470
 C1576 C 0.18306 0.17745 0.60386
 C1577 C 0.21359 0.17556 0.59973
 C1578 C 0.22707 0.18920 0.57744
 C1579 C 0.21047 0.20556 0.55907
 C1580 C 0.17997 0.20712 0.56275
 H1581 H 0.14277 0.19438 0.58673
 H1582 H 0.22734 0.16436 0.61426
 H1583 H 0.25067 0.18784 0.57521
 H1584 H 0.16662 0.21937 0.54867
   
