data_POSCAR
  _audit_creation_date              2014-09-24
  _audit_creation_method            'ToBaCCo'
  _symmetry_space_group_name_H-M    'P1'
  _symmetry_Int_Tables_number       1
  _symmetry_cell_setting            triclinic
  loop_
  _symmetry_equiv_pos_as_xyz
 x,y,z
_cell_length_a 53.6824
_cell_length_b 52.4680
_cell_length_c 56.3411
_cell_angle_alpha 88.827800
_cell_angle_beta 89.288100
_cell_angle_gamma 92.123900
loop_
  _atom_site_label
  _atom_site_type_symbol
  _atom_site_fract_x
  _atom_site_fract_y
  _atom_site_fract_z
C1 C 0.41588 0.00201 0.27387
 C2 C 0.39890 0.02512 0.27177
 C3 C 0.38513 0.02561 0.25145
 C4 C 0.38916 0.00251 0.23552
 C5 C 0.39832 -0.02125 0.27154
 C6 C 0.38413 -0.02128 0.25181
 C7 C 0.43122 0.00346 0.25068
 C8 C 0.41747 0.00413 0.23053
 H9 H 0.40044 0.04143 0.28317
 H10 H 0.37781 0.00237 0.21919
 H11 H 0.39580 -0.03541 0.28571
 H12 H 0.45127 0.00669 0.25046
 C13 C 0.08344 -0.00445 0.76255
 C14 C 0.10075 -0.02732 0.76036
 C15 C 0.12030 -0.02346 0.74444
 C16 C 0.11982 0.00329 0.73202
 C17 C 0.10091 0.01800 0.76833
 C18 C 0.12017 0.02215 0.75278
 C19 C 0.07530 0.00052 0.73856
 C20 C 0.09495 0.00436 0.72147
 H21 H 0.09691 -0.04505 0.77000
 H22 H 0.13499 0.00831 0.71916
 H23 H 0.09882 0.02899 0.78428
 H24 H 0.05657 -0.00475 0.73306
 C25 C 0.58259 0.48868 0.27203
 C26 C 0.60044 0.46671 0.26865
 C27 C 0.61760 0.47070 0.25066
 C28 C 0.61544 0.49695 0.23782
 C29 C 0.59948 0.51219 0.27529
 C30 C 0.61687 0.51671 0.25790
 C31 C 0.57123 0.49239 0.24748
 C32 C 0.58811 0.49643 0.22948
 H33 H 0.59789 0.44861 0.27811
 H34 H 0.62935 0.50092 0.22336
 H35 H 0.59823 0.52398 0.29081
 H36 H 0.55211 0.48685 0.24364
 C37 C 0.92298 0.51275 0.78162
 C38 C 0.90640 0.53620 0.77994
 C39 C 0.89353 0.53787 0.75907
 C40 C 0.89792 0.51542 0.74234
 C41 C 0.90518 0.48997 0.77774
 C42 C 0.89188 0.49098 0.75744
 C43 C 0.93923 0.51518 0.75903
 C44 C 0.92638 0.51665 0.73848
 H45 H 0.90743 0.55165 0.79236
 H46 H 0.88738 0.51630 0.72557
 H47 H 0.90207 0.47521 0.79127
 H48 H 0.95934 0.51759 0.75951
 C49 C 0.26381 0.38797 0.99690
 C50 C 0.26607 0.36952 1.01807
 C51 C 0.24944 0.34954 1.01866
 C52 C 0.23164 0.34930 0.99751
 C53 C 0.26534 0.37097 0.97495
 C54 C 0.24865 0.35062 0.97507
 C55 C 0.23630 0.39570 0.99759
 C56 C 0.21933 0.37554 0.99818
 H57 H 0.27982 0.37229 1.03181
 H58 H 0.21798 0.33295 0.99807
 H59 H 0.27818 0.37488 0.96036
 H60 H 0.23090 0.41532 0.99876
 C61 C 0.76746 0.11907 0.99306
 C62 C 0.77230 0.13838 0.97279
 C63 C 0.75666 0.15808 0.97205
 C64 C 0.73729 0.15688 0.99268
 C65 C 0.76873 0.13537 1.01561
 C66 C 0.75292 0.15533 1.01555
 C67 C 0.74122 0.11123 0.99126
 C68 C 0.72426 0.13180 0.99158
 H69 H 0.78796 0.13698 0.96063
 H70 H 0.72475 0.17307 0.99158
 H71 H 0.78042 0.13115 1.03051
 H72 H 0.73504 0.09142 0.99322
 C73 C 0.27993 0.62341 0.49867
 C74 C 0.27709 0.64159 0.47735
 C75 C 0.25653 0.65581 0.47799
 C76 C 0.24023 0.65093 0.50046
 C77 C 0.27902 0.64087 0.52023
 C78 C 0.25825 0.65527 0.52137
 C79 C 0.25522 0.60784 0.50017
 C80 C 0.23439 0.62194 0.50082
 H81 H 0.29062 0.64327 0.46289
 H82 H 0.22322 0.66230 0.50086
 H83 H 0.29370 0.64243 0.53308
 H84 H 0.25426 0.58725 0.49885
 C85 C 0.77423 0.87635 0.49754
 C86 C 0.76871 0.85970 0.51970
 C87 C 0.74690 0.84610 0.51955
 C88 C 0.73151 0.85080 0.49714
 C89 C 0.77098 0.85833 0.47649
 C90 C 0.74864 0.84516 0.47591
 C91 C 0.75149 0.89359 0.49596
 C92 C 0.72906 0.88005 0.49559
 H93 H 0.78147 0.85849 0.53442
 H94 H 0.71330 0.84005 0.49738
 H95 H 0.78493 0.85736 0.46253
 H96 H 0.75288 0.91405 0.49319
 C97 C -0.00142 0.27755 0.38314
 C98 C 0.01874 0.28028 0.36369
 C99 C 0.01761 0.26137 0.34753
 C100 C -0.00356 0.24148 0.35235
 C101 C -0.02488 0.27599 0.37047
 C102 C -0.02621 0.25576 0.35382
 C103 C 0.00142 0.25062 0.39388
 C104 C 0.00094 0.23187 0.37766
 H105 H 0.03303 0.29543 0.36329
 H106 H -0.00415 0.22607 0.33917
 H107 H -0.04153 0.28521 0.37619
 H108 H 0.00513 0.24699 0.41248
 C109 C -0.00072 0.76019 0.10577
 C110 C -0.02218 0.76519 0.12321
 C111 C -0.02525 0.74706 0.14069
 C112 C -0.00747 0.72516 0.13871
 C113 C 0.02196 0.75640 0.12142
 C114 C 0.01829 0.73807 0.13851
 C115 C -0.00741 0.73359 0.09618
 C116 C -0.01083 0.71535 0.11354
 H117 H -0.03350 0.78181 0.12209
 H118 H -0.00998 0.71022 0.15284
 H119 H 0.03950 0.76711 0.11896
 H120 H -0.01048 0.72952 0.07770
 C121 C 0.53367 0.28345 0.63219
 C122 C 0.50731 0.27578 0.64102
 C123 C 0.50338 0.25033 0.64496
 C124 C 0.52620 0.23474 0.63981
 C125 C 0.55081 0.27220 0.65097
 C126 C 0.54664 0.24674 0.65501
 C127 C 0.53790 0.26729 0.61019
 C128 C 0.53366 0.24186 0.61414
 H129 H 0.49368 0.28969 0.64547
 H130 H 0.52336 0.21396 0.64316
 H131 H 0.56600 0.28252 0.65927
 H132 H 0.54285 0.27548 0.59290
 C133 C 0.49855 0.77818 0.89084
 C134 C 0.52186 0.78107 0.87492
 C135 C 0.52360 0.76265 0.85846
 C136 C 0.50143 0.74354 0.85895
 C137 C 0.47660 0.77775 0.87370
 C138 C 0.47796 0.75925 0.85720
 C139 C 0.49854 0.75223 0.90056
 C140 C 0.50096 0.73299 0.88306
 H141 H 0.53784 0.79313 0.87955
 H142 H 0.50219 0.72961 0.84446
 H143 H 0.45931 0.78703 0.87724
 H144 H 0.49886 0.74822 0.91945
 C145 C -0.24363 0.66044 0.98160
 C146 C -0.22063 0.64370 0.98222
 C147 C -0.22154 0.62544 0.99978
 C148 C -0.24542 0.62558 1.01520
 C149 C -0.26597 0.64170 0.98026
 C150 C -0.26722 0.62341 0.99765
 C151 C -0.24482 0.67117 1.00684
 C152 C -0.24564 0.65306 1.02464
 H153 H -0.20367 0.64836 0.97220
 H154 H -0.24635 0.61050 1.02926
 H155 H -0.27911 0.64240 0.96586
 H156 H -0.24165 0.69124 1.01026
 C157 C -0.25588 0.33392 0.47525
 C158 C -0.27691 0.35315 0.47783
 C159 C -0.27658 0.36574 0.49902
 C160 C -0.25475 0.35800 0.51518
 C161 C -0.23190 0.34996 0.47890
 C162 C -0.23097 0.36272 0.49961
 C163 C -0.25877 0.31756 0.49623
 C164 C -0.25826 0.33029 0.51837
 H165 H -0.29188 0.35487 0.46533
 H166 H -0.25382 0.36859 0.53187
 H167 H -0.21779 0.35255 0.46507
 H168 H -0.26052 0.29704 0.49488
 C169 C 0.23965 -0.16297 -0.02301
 C170 C 0.21785 -0.14444 -0.02329
 C171 C 0.21873 -0.12632 -0.00604
 C172 C 0.24184 -0.12918 0.01001
 C173 C 0.26319 -0.14567 -0.02431
 C174 C 0.26459 -0.12788 -0.00722
 C175 C 0.23904 -0.17391 0.00097
 C176 C 0.23983 -0.15551 0.01933
 H177 H 0.20261 -0.14681 -0.03545
 H178 H 0.24447 -0.11512 0.02412
 H179 H 0.27694 -0.14665 -0.03847
 H180 H 0.23318 -0.19354 0.00473
 C181 C 0.25637 1.15327 0.47683
 C182 C 0.27836 1.13598 0.48129
 C183 C 0.27935 1.12575 0.50367
 C184 C 0.25738 1.13332 0.51967
 C185 C 0.23314 1.13737 0.48407
 C186 C 0.23350 1.12635 0.50585
 C187 C 0.25867 1.17331 0.49634
 C188 C 0.25937 1.16294 0.51898
 H189 H 0.29358 1.13489 0.46859
 H190 H 0.25751 1.12437 0.53766
 H191 H 0.21802 1.13358 0.47188
 H192 H 0.26047 1.19359 0.49262
 C193 C 0.11938 0.51389 0.25414
 C194 C 0.09955 0.51213 0.23480
 C195 C 0.08387 0.49143 0.23683
 C196 C 0.08884 0.47405 0.25814
 C197 C 0.10401 0.51246 0.27764
 C198 C 0.08786 0.49165 0.27946
 C199 C 0.13227 0.48814 0.25358
 C200 C 0.11639 0.46731 0.25596
 H201 H 0.09753 0.52666 0.22108
 H202 H 0.07576 0.45716 0.25943
 H203 H 0.10517 0.52650 0.29137
 H204 H 0.15235 0.48673 0.25356
 C205 C -0.11517 1.02561 0.24821
 C206 C -0.09819 1.02224 0.26950
 C207 C -0.08403 1.00151 0.26889
 C208 C -0.08840 0.98526 0.24676
 C209 C -0.09781 1.02458 0.22628
 C210 C -0.08380 1.00350 0.22533
 C211 C -0.13018 1.00171 0.24780
 C212 C -0.11537 0.97923 0.24632
 H213 H -0.09732 1.03560 0.28393
 H214 H -0.07649 0.96844 0.24705
 H215 H -0.09775 1.03891 0.21216
 H216 H -0.15012 1.00097 0.24533
 C217 C 0.38028 0.52662 -0.24772
 C218 C 0.39682 0.52593 -0.22584
 C219 C 0.41468 0.50834 -0.22631
 C220 C 0.41476 0.49275 -0.24911
 C221 C 0.39900 0.53046 -0.26865
 C222 C 0.41704 0.51272 -0.26951
 C223 C 0.37010 0.49897 -0.25010
 C224 C 0.38807 0.48127 -0.25105
 H225 H 0.39497 0.53905 -0.21136
 H226 H 0.42904 0.47803 -0.24916
 H227 H 0.39845 0.54584 -0.28155
 H228 H 0.35052 0.49414 -0.25247
 C229 C 0.63638 0.02416 -0.24666
 C230 C 0.62058 0.02585 -0.26908
 C231 C 0.60178 0.00794 -0.27011
 C232 C 0.60050 -0.01079 -0.24870
 C233 C 0.61751 0.02431 -0.22586
 C234 C 0.59882 0.00593 -0.22666
 C235 C 0.64541 -0.00337 -0.24677
 C236 C 0.62672 -0.02166 -0.24742
 H237 H 0.62421 0.03932 -0.28358
 H238 H 0.58551 -0.02580 -0.25006
 H239 H 0.61938 0.03758 -0.21148
 H240 H 0.66480 -0.00801 -0.24504
 C241 C 0.03559 0.24923 0.85122
 C242 C 0.02872 0.26667 0.87154
 C243 C 0.00428 0.26490 0.87800
 C244 C -0.01114 0.24581 0.86353
 C245 C 0.02678 0.22252 0.85954
 C246 C 0.00242 0.22074 0.86621
 C247 C 0.01890 0.25616 0.83221
 C248 C -0.00705 0.25466 0.83892
 H249 H 0.04194 0.28005 0.87937
 H250 H -0.03070 0.24338 0.86971
 H251 H 0.03911 0.20669 0.86102
 H252 H 0.02533 0.26731 0.81691
 C253 C 0.52424 0.24309 0.12898
 C254 C 0.51118 0.22642 0.11057
 C255 C 0.48657 0.23067 0.10843
 C256 C 0.47699 0.25119 0.12437
 C257 C 0.51876 0.27038 0.12068
 C258 C 0.49398 0.27445 0.11863
 C259 C 0.50895 0.23880 0.15201
 C260 C 0.48433 0.24292 0.14941
 H261 H 0.52063 0.21309 0.09947
 H262 H 0.45685 0.25464 0.12209
 H263 H 0.53290 0.28476 0.11563
 H264 H 0.51704 0.23381 0.16892
 C265 C 0.02572 0.75955 0.63106
 C266 C 0.02065 0.73315 0.62102
 C267 C -0.00342 0.72847 0.61476
 C268 C -0.02052 0.75036 0.61988
 C269 C 0.01582 0.77818 0.61240
 C270 C -0.00830 0.77313 0.60650
 C271 C 0.00741 0.76147 0.65200
 C272 C -0.01675 0.75661 0.64607
 H273 H 0.03559 0.72094 0.61596
 H274 H -0.04028 0.74655 0.61499
 H275 H 0.02581 0.79549 0.60645
 H276 H 0.01268 0.76878 0.66913
 C277 C 0.51231 0.76327 0.35472
 C278 C 0.51433 0.78318 0.37392
 C279 C 0.49593 0.78104 0.39071
 C280 C 0.47716 0.75883 0.38690
 C281 C 0.51131 0.73752 0.36818
 C282 C 0.49301 0.73524 0.38511
 C283 C 0.48597 0.76527 0.34485
 C284 C 0.46771 0.76299 0.36170
 H285 H 0.52927 0.79762 0.37413
 H286 H 0.46193 0.75718 0.40041
 H287 H 0.52239 0.72165 0.36308
 H288 H 0.48173 0.76339 0.32621
 Zr289 Zr 0.01418 -0.02159 1.02233
 O290 O 0.03849 -0.00392 1.04689
 O291 O 0.01477 -0.06005 1.03351
 O292 O -0.00075 -0.02286 1.05726
 O293 O 0.05824 -0.02941 0.97749
 O294 O -0.03925 -0.00647 1.05330
 O295 O 0.05152 -0.03223 1.01756
 O296 O -0.01276 -0.07979 1.00861
 O297 O -0.02350 -0.03265 1.01877
 O298 O 0.01160 -0.04125 0.99050
 O299 O -0.00522 0.01257 1.02205
 O300 O 0.02886 0.00391 0.99571
 Zr301 Zr -0.03272 0.00660 0.95820
 Zr302 Zr -0.04258 0.00152 1.01673
 Zr303 Zr 0.02442 -0.01596 0.96403
 Zr304 Zr -0.02595 -0.05104 0.98632
 O305 O 0.05407 0.00852 0.95136
 O306 O -0.05752 -0.06713 1.00489
 O307 O -0.01294 -0.02735 0.95808
 O308 O -0.04698 -0.01838 0.98509
 O309 O -0.03034 0.02707 0.98968
 O310 O 0.00490 0.01765 0.96200
 C311 C 0.00347 -0.07989 1.02514
 C312 C 0.06526 -0.03446 0.99882
 C313 C -0.02171 -0.01572 1.06584
 O314 O -0.07412 -0.02132 1.02767
 O315 O -0.07486 0.01848 1.00373
 O316 O -0.06912 0.01995 0.96350
 C317 C -0.08209 0.02363 0.98251
 O318 O 0.03491 0.04707 1.01906
 Zr319 Zr 0.00734 0.03664 0.99393
 O320 O -0.03292 0.04440 0.94603
 O321 O -0.04933 0.03462 1.03631
 O322 O -0.00780 0.06501 1.01553
 O323 O 0.03870 0.05445 0.97630
 O324 O -0.00627 0.06515 0.97098
 C325 C -0.02161 0.06458 0.95355
 O326 O -0.05881 -0.01089 0.93518
 O327 O 0.03357 -0.04967 0.94634
 O328 O -0.01889 0.00431 0.92288
 O329 O 0.01953 -0.01217 0.92738
 O330 O -0.01235 -0.08053 0.96506
 O331 O -0.05183 -0.06149 0.95964
 C332 C 0.00174 -0.00406 0.91455
 H333 H 0.02187 -0.05650 0.98985
 H334 H -0.06470 -0.02329 0.98243
 H335 H 0.01140 0.02871 0.94871
 H336 H -0.00307 0.02156 1.03720
 H337 H -0.05726 -0.08587 1.00315
 H338 H -0.08357 -0.01116 1.03910
 H339 H -0.06522 0.03132 1.04518
 H340 H -0.00004 0.08166 1.01031
 H341 H -0.02130 -0.09667 0.97003
 H342 H 0.04935 -0.04589 0.93742
 H343 H 0.06378 -0.00144 0.93997
 H344 H 0.03764 0.07309 0.97837
 H345 H -0.05907 -0.07877 0.96333
 H346 H -0.06437 0.00256 0.92401
 H347 H 0.04445 -0.01753 1.05767
 H348 H 0.03772 0.06583 1.01865
 Zr349 Zr 0.53539 0.49925 0.53716
 O350 O 0.56315 0.52135 0.55451
 O351 O 0.53364 0.46621 0.55808
 O352 O 0.52301 0.50685 0.57206
 O353 O 0.57435 0.47602 0.49342
 O354 O 0.48486 0.52360 0.56655
 O355 O 0.57044 0.48223 0.53324
 O356 O 0.50182 0.44281 0.54180
 O357 O 0.49702 0.49035 0.53806
 O358 O 0.52882 0.47177 0.51139
 O359 O 0.51788 0.53385 0.53080
 O360 O 0.54938 0.51591 0.50511
 Zr361 Zr 0.48505 0.51379 0.47204
 Zr362 Zr 0.47960 0.52434 0.52975
 Zr363 Zr 0.54069 0.48878 0.47927
 Zr364 Zr 0.49069 0.46390 0.51164
 O365 O 0.57105 0.50681 0.46047
 O366 O 0.45823 0.45527 0.53254
 O367 O 0.50242 0.47891 0.47826
 O368 O 0.47159 0.49704 0.50407
 O369 O 0.49132 0.54153 0.49765
 O370 O 0.52335 0.52280 0.47129
 C371 C 0.51889 0.44650 0.55740
 C372 C 0.58230 0.47422 0.51485
 C373 C 0.50242 0.51575 0.57987
 O374 O 0.44745 0.50750 0.54668
 O375 O 0.44712 0.53957 0.51511
 O376 O 0.45000 0.53028 0.47585
 C377 C 0.43852 0.53941 0.49386
 O378 O 0.56061 0.56243 0.51795
 Zr379 Zr 0.52976 0.54908 0.49779
 O380 O 0.48498 0.54843 0.45306
 O381 O 0.47687 0.56206 0.54182
 O382 O 0.51945 0.58342 0.51382
 O383 O 0.55968 0.56027 0.47444
 O384 O 0.51503 0.57270 0.47122
 C385 C 0.49751 0.56941 0.45609
 O386 O 0.45676 0.49231 0.45470
 O387 O 0.54531 0.45068 0.46890
 O388 O 0.49593 0.50341 0.43759
 O389 O 0.53340 0.48512 0.44287
 O390 O 0.50226 0.42810 0.49964
 O391 O 0.46378 0.44785 0.48838
 C392 C 0.51531 0.49224 0.42980
 H393 H 0.53755 0.45576 0.51437
 H394 H 0.45350 0.49278 0.50334
 H395 H 0.52925 0.53017 0.45582
 H396 H 0.52175 0.54612 0.54348
 H397 H 0.45739 0.43657 0.53550
 H398 H 0.43974 0.52100 0.55603
 H399 H 0.46177 0.56218 0.55210
 H400 H 0.52795 0.59773 0.50481
 H401 H 0.49289 0.41470 0.50908
 H402 H 0.56037 0.45076 0.45854
 H403 H 0.57902 0.49341 0.45121
 H404 H 0.55995 0.57913 0.47294
 H405 H 0.45662 0.43174 0.49549
 H406 H 0.45073 0.50309 0.44144
 H407 H 0.56906 0.51067 0.56789
 H408 H 0.56500 0.58035 0.51332
 Zr409 Zr 0.49264 1.03515 0.53456
 O410 O 0.46847 1.02970 0.56442
 O411 O 0.50386 1.07373 0.53856
 O412 O 0.51065 1.03591 0.56776
 O413 O 0.44412 1.04254 0.49485
 O414 O 0.54472 1.01175 0.56270
 O415 O 0.45800 1.05305 0.53158
 O416 O 0.53139 1.08171 0.50799
 O417 O 0.53045 1.03637 0.52464
 O418 O 0.49423 1.04843 0.49931
 O419 O 0.50452 0.99755 0.53917
 O420 O 0.46975 1.00943 0.51541
 Zr421 Zr 0.52251 0.98576 0.47320
 Zr422 Zr 0.54191 0.99867 0.52769
 Zr423 Zr 0.47325 1.02209 0.47988
 Zr424 Zr 0.53157 1.04804 0.48891
 O425 O 0.43850 1.00298 0.47411
 O426 O 0.56898 1.05842 0.49719
 O427 O 0.51045 1.02320 0.46781
 O428 O 0.54511 1.01140 0.49227
 O429 O 0.52095 0.97202 0.50831
 O430 O 0.48483 0.98468 0.48311
 C431 C 0.51953 1.08832 0.52662
 C432 C 0.44143 1.05306 0.51514
 C433 C 0.53031 1.02517 0.57547
 O434 O 0.57739 1.01698 0.53127
 O435 O 0.56937 0.97479 0.51404
 O436 O 0.55522 0.96495 0.47723
 C437 C 0.57123 0.96339 0.49407
 O438 O 0.45842 0.97421 0.54791
 Zr439 Zr 0.48342 0.97254 0.51847
 O440 O 0.51230 0.94725 0.46943
 O441 O 0.54556 0.96729 0.55142
 O442 O 0.49491 0.94548 0.54419
 O443 O 0.44729 0.95968 0.50819
 O444 O 0.48730 0.93755 0.50156
 C445 C 0.49890 0.93160 0.48251
 O446 O 0.54780 0.99162 0.44427
 O447 O 0.46846 1.05478 0.45800
 O448 O 0.50493 0.98526 0.43988
 O449 O 0.47238 1.01162 0.44396
 O450 O 0.51990 1.07740 0.46561
 O451 O 0.55237 1.04743 0.45658
 C452 C 0.48610 0.99704 0.43164
 H453 H 0.48757 1.06569 0.49741
 H454 H 0.56259 1.01168 0.48645
 H455 H 0.47448 0.97327 0.47314
 H456 H 0.50266 0.99153 0.55587
 H457 H 0.57233 1.07614 0.49123
 H458 H 0.58655 1.00673 0.54301
 H459 H 0.56262 0.96871 0.55790
 H460 H 0.48294 0.93066 0.54392
 H461 H 0.53270 1.09149 0.46591
 H462 H 0.45142 1.05319 0.45150
 H463 H 0.42962 1.01337 0.46226
 H464 H 0.44459 0.94200 0.51449
 H465 H 0.56213 1.06371 0.45437
 H466 H 0.54849 0.97528 0.43574
 H467 H 0.46771 1.04624 0.57263
 H468 H 0.45150 0.95687 0.55185
 Zr469 Zr -0.03749 0.49155 1.05032
 O470 O -0.06686 0.47754 1.07296
 O471 O -0.02937 0.52691 1.06454
 O472 O -0.02460 0.48697 1.08535
 O473 O -0.07622 0.51213 1.00554
 O474 O 0.01003 0.46354 1.08096
 O475 O -0.06959 0.51321 1.04547
 O476 O 0.00322 0.54301 1.04187
 O477 O 0.00145 0.49430 1.04748
 O478 O -0.02904 0.51326 1.01955
 O479 O -0.02580 0.45387 1.04951
 O480 O -0.05596 0.47243 1.02276
 Zr481 Zr 0.00511 0.45812 0.98598
 Zr482 Zr 0.01294 0.45680 1.04443
 Zr483 Zr -0.04529 0.49328 0.99185
 Zr484 Zr 0.00949 0.51484 1.01617
 O485 O -0.07834 0.47722 0.97736
 O486 O 0.04366 0.52145 1.03390
 O487 O -0.00639 0.49625 0.98692
 O488 O 0.02278 0.47795 1.01361
 O489 O -0.00328 0.43631 1.01679
 O490 O -0.03383 0.45590 0.98927
 C491 C -0.01279 0.54427 1.05905
 C492 C -0.08191 0.51901 1.02668
 C493 C -0.00548 0.47575 1.09363
 O494 O 0.04780 0.47118 1.05648
 O495 O 0.04182 0.43479 1.03114
 O496 O 0.03820 0.43751 0.99086
 C497 C 0.04924 0.43007 1.00991
 O498 O -0.07221 0.43090 1.04548
 Zr499 Zr -0.04212 0.43567 1.02072
 O500 O -0.00373 0.42144 0.97318
 O501 O 0.01145 0.42118 1.06278
 O502 O -0.03518 0.40272 1.04170
 O503 O -0.07543 0.42662 1.00233
 O504 O -0.03497 0.40603 0.99786
 C505 C -0.01976 0.40394 0.98038
 O506 O 0.03489 0.47002 0.96281
 O507 O -0.04570 0.53010 0.97580
 O508 O -0.00612 0.46637 0.95082
 O509 O -0.03963 0.49144 0.95500
 O510 O 0.00248 0.54925 0.99744
 O511 O 0.03709 0.52234 0.98930
 C512 C -0.02357 0.48005 0.94230
 H513 H -0.03527 0.53077 1.01995
 H514 H 0.04108 0.47916 1.01115
 H515 H -0.04196 0.44756 0.97564
 H516 H -0.03045 0.44444 1.06441
 H517 H 0.04738 0.54009 1.03333
 H518 H 0.05411 0.45828 1.06778
 H519 H 0.02694 0.42037 1.07211
 H520 H -0.04674 0.38881 1.03652
 H521 H 0.01397 0.56268 1.00363
 H522 H -0.06131 0.53088 0.96665
 H523 H -0.08513 0.49043 0.96668
 H524 H -0.07923 0.40811 1.00471
 H525 H 0.04686 0.53808 0.99307
 H526 H 0.03732 0.45617 0.95135
 H527 H -0.07010 0.49109 1.08450
 H528 H -0.07934 0.41326 1.04479
 Zr529 Zr -0.02581 0.47480 0.47717
 O530 O -0.05210 0.48063 0.45006
 O531 O -0.02095 0.43549 0.47500
 O532 O -0.01097 0.46848 0.44253
 O533 O -0.06965 0.47612 0.52260
 O534 O 0.02707 0.48911 0.44320
 O535 O -0.06221 0.45967 0.48613
 O536 O 0.00876 0.42753 0.50247
 O537 O 0.01232 0.47096 0.48324
 O538 O -0.02213 0.46458 0.51305
 O539 O -0.00874 0.51049 0.46803
 O540 O -0.04190 0.50431 0.49644
 Zr541 Zr 0.01923 0.52680 0.53051
 Zr542 Zr 0.02893 0.50684 0.47582
 Zr543 Zr -0.03606 0.49459 0.53216
 Zr544 Zr 0.01584 0.46226 0.51932
 O545 O -0.06675 0.51728 0.54020
 O546 O 0.05036 0.44781 0.50815
 O547 O 0.00176 0.49114 0.54021
 O548 O 0.03463 0.49707 0.51140
 O549 O 0.01534 0.53733 0.49470
 O550 O -0.01905 0.53019 0.52458
 C551 C -0.00578 0.42079 0.48558
 C552 C -0.07641 0.46339 0.50436
 C553 C 0.01018 0.47570 0.43283
 O554 O 0.06145 0.48587 0.47080
 O555 O 0.06013 0.52993 0.48299
 O556 O 0.05545 0.54308 0.52092
 C557 C 0.06818 0.54159 0.50130
 O558 O -0.05033 0.53860 0.46185
 Zr559 Zr -0.02289 0.53925 0.48874
 O560 O 0.01483 0.56621 0.53201
 O561 O 0.03427 0.53431 0.44799
 O562 O -0.00902 0.56297 0.46025
 O563 O -0.05608 0.55530 0.50147
 O564 O -0.01295 0.57479 0.50288
 C565 C 0.00124 0.58140 0.52004
 O566 O 0.04642 0.52160 0.55692
 O567 O -0.04331 0.46466 0.55735
 O568 O 0.00521 0.53128 0.56563
 O569 O -0.03162 0.50812 0.56656
 O570 O 0.00161 0.43636 0.54599
 O571 O 0.03991 0.46296 0.54899
 C572 C -0.01467 0.52205 0.57641
 H573 H -0.03117 0.44829 0.51727
 H574 H 0.05254 0.49554 0.51493
 H575 H -0.02666 0.54312 0.53465
 H576 H -0.01117 0.51495 0.45108
 H577 H 0.05148 0.43037 0.51506
 H578 H 0.07050 0.49356 0.45681
 H579 H 0.05036 0.53089 0.44007
 H580 H -0.01808 0.57908 0.46063
 H581 H 0.01129 0.42068 0.54501
 H582 H -0.05932 0.46820 0.56535
 H583 H -0.07587 0.50881 0.55378
 H584 H -0.05681 0.57278 0.49456
 H585 H 0.04635 0.44574 0.55184
 H586 H 0.05019 0.53855 0.56382
 H587 H -0.05626 0.46372 0.44326
 H588 H -0.05444 0.55631 0.45743
 Zr589 Zr 0.47223 -0.01303 -0.03475
 O590 O 0.44911 -0.00884 -0.06466
 O591 O 0.47977 -0.05186 -0.03657
 O592 O 0.49138 -0.01683 -0.06778
 O593 O 0.42339 -0.01672 0.00634
 O594 O 0.52686 0.00797 -0.06404
 O595 O 0.43569 -0.03024 -0.03010
 O596 O 0.50714 -0.05814 -0.00659
 O597 O 0.50997 -0.01350 -0.02546
 O598 O 0.47307 -0.02422 0.00112
 O599 O 0.48696 0.02425 -0.04152
 O600 O 0.45146 0.01380 -0.01625
 Zr601 Zr 0.50587 0.04052 0.02349
 Zr602 Zr 0.52413 0.02403 -0.03043
 Zr603 Zr 0.45436 0.00328 0.01977
 Zr604 Zr 0.51046 -0.02318 0.01064
 O605 O 0.42118 0.02276 0.02630
 O606 O 0.54691 -0.03403 0.00130
 O607 O 0.49147 0.00314 0.03089
 O608 O 0.52647 0.01350 0.00542
 O609 O 0.50516 0.05204 -0.01226
 O610 O 0.46825 0.04044 0.01428
 C611 C 0.49430 -0.06582 -0.02432
 C612 C 0.41933 -0.02822 -0.01322
 C613 C 0.51235 -0.00695 -0.07585
 O614 O 0.55866 0.00606 -0.03336
 O615 O 0.55329 0.04868 -0.01899
 O616 O 0.53967 0.06209 0.01701
 C617 C 0.55587 0.06199 -0.00017
 O618 O 0.44355 0.04741 -0.05127
 Zr619 Zr 0.46761 0.05047 -0.02170
 O620 O 0.49598 0.07864 0.02637
 O621 O 0.52975 0.05359 -0.05627
 O622 O 0.48204 0.07666 -0.04803
 O623 O 0.43158 0.06254 -0.01233
 O624 O 0.47175 0.08614 -0.00586
 C625 C 0.48241 0.09291 0.01337
 O626 O 0.53160 0.03766 0.05154
 O627 O 0.44707 -0.02862 0.04277
 O628 O 0.48903 0.04136 0.05767
 O629 O 0.45467 0.01472 0.05535
 O630 O 0.49657 -0.05063 0.03612
 O631 O 0.53212 -0.02140 0.04194
 C632 C 0.46964 0.02946 0.06691
 H633 H 0.46498 -0.04127 0.00414
 H634 H 0.54396 0.01369 0.01081
 H635 H 0.45829 0.05189 0.02404
 H636 H 0.48584 0.02909 -0.05853
 H637 H 0.54898 -0.05159 0.00762
 H638 H 0.56851 0.01541 -0.04598
 H639 H 0.54677 0.05190 -0.06294
 H640 H 0.47106 0.09143 -0.04843
 H641 H 0.50774 -0.06524 0.03584
 H642 H 0.43011 -0.02681 0.04951
 H643 H 0.41167 0.01286 0.03880
 H644 H 0.42968 0.07978 -0.01944
 H645 H 0.54038 -0.03778 0.04447
 H646 H 0.53273 0.05452 0.05923
 H647 H 0.44704 -0.02587 -0.07189
 H648 H 0.43837 0.06463 -0.05621
 Zr649 Zr 0.52611 0.51562 -0.03023
 O650 O 0.54986 0.49623 -0.05346
 O651 O 0.52905 0.55257 -0.04461
 O652 O 0.51225 0.51493 -0.06526
 O653 O 0.56995 0.52012 0.01417
 O654 O 0.47119 0.50315 -0.06002
 O655 O 0.56422 0.52665 -0.02555
 O656 O 0.50257 0.57445 -0.02135
 O657 O 0.48980 0.52857 -0.02655
 O658 O 0.52541 0.53677 0.00081
 O659 O 0.50245 0.48273 -0.02906
 O660 O 0.53696 0.49037 -0.00300
 Zr661 Zr 0.47458 0.49189 0.03494
 Zr662 Zr 0.46645 0.49582 -0.02351
 Zr663 Zr 0.53416 0.51145 0.02815
 Zr664 Zr 0.48909 0.54842 0.00511
 O665 O 0.56036 0.48642 0.04256
 O666 O 0.45797 0.56535 -0.01081
 O667 O 0.49832 0.52492 0.03412
 O668 O 0.46406 0.51692 0.00754
 O669 O 0.47490 0.47037 0.00397
 O670 O 0.51079 0.47886 0.03090
 C671 C 0.51764 0.57273 -0.03915
 C672 C 0.57792 0.52620 -0.00686
 C673 C 0.49019 0.50982 -0.07315
 O674 O 0.43791 0.51993 -0.03465
 O675 O 0.43205 0.48092 -0.01000
 O676 O 0.43652 0.48064 0.03025
 C677 C 0.42363 0.47690 0.01129
 O678 O 0.53582 0.44242 -0.02514
 Zr679 Zr 0.51139 0.45902 -0.00052
 O680 O 0.46904 0.45459 0.04790
 O681 O 0.45605 0.46275 -0.04245
 O682 O 0.49371 0.43071 -0.02141
 O683 O 0.54075 0.44062 0.01684
 O684 O 0.49364 0.43241 0.02309
 C685 C 0.47822 0.43389 0.04064
 O686 O 0.45139 0.51202 0.05807
 O687 O 0.54715 0.54569 0.04382
 O688 O 0.48906 0.49151 0.06986
 O689 O 0.52851 0.50890 0.06502
 O690 O 0.50807 0.57850 0.02285
 O691 O 0.46623 0.56155 0.03305
 C692 C 0.51047 0.49922 0.07786
 H693 H 0.53723 0.55172 0.00020
 H694 H 0.44698 0.52283 0.01027
 H695 H 0.51594 0.46761 0.04412
 H696 H 0.50371 0.47307 -0.04391
 H697 H 0.46055 0.58410 -0.00988
 H698 H 0.42735 0.51000 -0.04572
 H699 H 0.44079 0.46671 -0.05133
 H700 H 0.49943 0.41393 -0.01570
 H701 H 0.50133 0.59472 0.01690
 H702 H 0.56224 0.54157 0.05288
 H703 H 0.57120 0.49659 0.05322
 H704 H 0.53740 0.42201 0.01539
 H705 H 0.46272 0.57974 0.03011
 H706 H 0.44388 0.49930 0.06957
 H707 H 0.55718 0.50912 -0.06491
 H708 H 0.55070 0.45406 -0.02674
 Zr709 Zr 0.03374 1.01354 0.46137
 O710 O 0.05757 0.99561 0.43715
 O711 O 0.03521 1.05095 0.44800
 O712 O 0.01891 1.01276 0.42659
 O713 O 0.07859 1.01847 0.50519
 O714 O -0.02205 1.00106 0.43293
 O715 O 0.07190 1.02554 0.46569
 O716 O 0.00904 1.07143 0.47275
 O717 O -0.00272 1.02579 0.46662
 O718 O 0.03351 1.03347 0.49313
 O719 O 0.01042 0.98031 0.46228
 O720 O 0.04597 0.98755 0.48740
 Zr721 Zr -0.01498 0.98639 0.52748
 Zr722 Zr -0.02559 0.99274 0.46941
 Zr723 Zr 0.04367 1.00735 0.51928
 Zr724 Zr -0.00284 1.04428 0.49903
 O725 O 0.07140 0.98247 0.53093
 O726 O -0.03506 1.06089 0.48494
 O727 O 0.00792 1.01996 0.52699
 O728 O -0.02727 1.01222 0.50144
 O729 O -0.01522 0.96666 0.49554
 O730 O 0.02117 0.97417 0.52163
 C731 C 0.02351 1.07063 0.45437
 C732 C 0.08590 1.02545 0.48426
 C733 C -0.00340 1.00754 0.41926
 O734 O -0.05461 1.01715 0.46027
 O735 O -0.05929 0.97648 0.48349
 O736 O -0.05189 0.97161 0.52318
 C737 C -0.06548 0.96860 0.50461
 O738 O 0.04802 0.94533 0.46382
 Zr739 Zr 0.02108 0.95563 0.48951
 O740 O -0.01958 0.94841 0.53870
 O741 O -0.03664 0.96034 0.44981
 O742 O 0.00375 0.92826 0.46728
 O743 O 0.04971 0.93576 0.50667
 O744 O 0.00288 0.92728 0.51122
 C745 C -0.01214 0.92797 0.52921
 O746 O -0.03841 1.00502 0.55149
 O747 O 0.05579 1.04100 0.53650
 O748 O 0.00059 0.98466 0.56212
 O749 O 0.03986 1.00200 0.55594
 O750 O 0.01627 1.07420 0.51686
 O751 O -0.02470 1.05608 0.52824
 C752 C 0.02264 0.99153 0.56920
 H753 H 0.04493 1.04873 0.49270
 H754 H -0.04443 1.01740 0.50509
 H755 H 0.02682 0.96233 0.53418
 H756 H 0.01126 0.97118 0.44711
 H757 H -0.03277 1.07964 0.48615
 H758 H -0.06551 1.00764 0.44918
 H759 H -0.05209 0.96461 0.44138
 H760 H 0.01006 0.91136 0.47184
 H761 H 0.00900 1.09043 0.51159
 H762 H 0.07127 1.03699 0.54499
 H763 H 0.08218 0.99207 0.54207
 H764 H 0.04624 0.91731 0.50431
 H765 H -0.02876 1.07422 0.52593
 H766 H -0.04538 0.99165 0.56264
 H767 H 0.06424 1.00906 0.42591
 H768 H 0.04949 0.92657 0.46414
 Zr769 Zr 0.73081 0.26707 0.21191
 O770 O 0.74616 0.29569 0.18843
 O771 O 0.69599 0.25929 0.19685
 O772 O 0.73557 0.25288 0.17727
 O773 O 0.71198 0.30876 0.25519
 O774 O 0.75572 0.21583 0.18313
 O775 O 0.71284 0.30218 0.21531
 O776 O 0.68229 0.22350 0.21752
 O777 O 0.72635 0.22742 0.21607
 O778 O 0.70858 0.26019 0.24229
 O779 O 0.76702 0.25324 0.21417
 O780 O 0.75016 0.28526 0.23960
 Zr781 Zr 0.75968 0.22305 0.27811
 Zr782 Zr 0.76197 0.21374 0.21988
 Zr783 Zr 0.72846 0.27640 0.27018
 Zr784 Zr 0.70545 0.22075 0.24709
 O785 O 0.74493 0.31023 0.28383
 O786 O 0.69695 0.18370 0.23436
 O787 O 0.72333 0.23690 0.27641
 O788 O 0.74050 0.20509 0.25050
 O789 O 0.78199 0.22981 0.24776
 O790 O 0.76425 0.26268 0.27396
 C791 C 0.68109 0.23981 0.20028
 C792 C 0.70747 0.31553 0.23360
 C793 C 0.74525 0.23233 0.16972
 O794 O 0.74586 0.17853 0.20897
 O795 O 0.78227 0.18380 0.23435
 O796 O 0.78085 0.18994 0.27438
 C797 C 0.78797 0.17798 0.25581
 O798 O 0.79251 0.29968 0.21827
 Zr799 Zr 0.78535 0.26929 0.24323
 O800 O 0.79505 0.22862 0.29208
 O801 O 0.79673 0.21304 0.20183
 O802 O 0.81730 0.25994 0.22319
 O803 O 0.79602 0.30294 0.26132
 O804 O 0.81328 0.25932 0.26758
 C805 C 0.81362 0.24291 0.28492
 O806 O 0.74463 0.19336 0.30054
 O807 O 0.69237 0.27812 0.28543
 O808 O 0.75361 0.23650 0.31273
 O809 O 0.73101 0.27213 0.30736
 O810 O 0.67055 0.23161 0.26088
 O811 O 0.69606 0.19622 0.27659
 C812 C 0.74220 0.25595 0.32058
 H813 H 0.69193 0.26750 0.24073
 H814 H 0.73867 0.18647 0.25361
 H815 H 0.77288 0.27083 0.28741
 H816 H 0.77671 0.25723 0.19940
 H817 H 0.67858 0.18100 0.23505
 H818 H 0.75822 0.17077 0.19837
 H819 H 0.79678 0.19687 0.19305
 H820 H 0.83154 0.27051 0.22903
 H821 H 0.65769 0.21973 0.25440
 H822 H 0.69206 0.29426 0.29423
 H823 H 0.73221 0.31784 0.29413
 H824 H 0.81441 0.30503 0.25997
 H825 H 0.67906 0.18866 0.27463
 H826 H 0.75748 0.18969 0.31250
 H827 H 0.73328 0.29932 0.17646
 H828 H 0.81014 0.30575 0.21938
 Zr829 Zr 0.77214 0.73704 0.71763
 O830 O 0.76553 0.70859 0.69208
 O831 O 0.80780 0.75125 0.70693
 O832 O 0.76730 0.75202 0.68275
 O833 O 0.79109 0.69452 0.76162
 O834 O 0.74080 0.78457 0.68774
 O835 O 0.79454 0.70482 0.72218
 O836 O 0.81574 0.78381 0.73224
 O837 O 0.77011 0.77634 0.72288
 O838 O 0.78909 0.74431 0.75018
 O839 O 0.73387 0.74455 0.71732
 O840 O 0.75240 0.71366 0.74303
 Zr841 Zr 0.72861 0.76935 0.78209
 Zr842 Zr 0.73202 0.78353 0.72423
 Zr843 Zr 0.76869 0.72277 0.77566
 Zr844 Zr 0.78564 0.78303 0.75611
 O845 O 0.75551 0.68606 0.78738
 O846 O 0.79002 0.82065 0.74177
 O847 O 0.76689 0.76170 0.78315
 O848 O 0.74825 0.79239 0.75677
 O849 O 0.71105 0.76220 0.74980
 O850 O 0.73089 0.73017 0.77669
 C851 C 0.82155 0.76980 0.71478
 C852 C 0.79930 0.69064 0.74049
 C853 C 0.75428 0.77048 0.67473
 O854 O 0.74453 0.82097 0.71416
 O855 O 0.70757 0.81009 0.73804
 O856 O 0.70356 0.79929 0.77739
 C857 C 0.69864 0.81327 0.75903
 O858 O 0.71483 0.69530 0.71728
 Zr859 Zr 0.71470 0.72331 0.74401
 O860 O 0.69388 0.75476 0.79379
 O861 O 0.69861 0.78095 0.70477
 O862 O 0.68367 0.73003 0.72213
 O863 O 0.70821 0.68644 0.75949
 O864 O 0.68307 0.72481 0.76652
 C865 C 0.67902 0.73767 0.78527
 O866 O 0.73514 0.79915 0.80630
 O867 O 0.80312 0.72453 0.79357
 O868 O 0.73435 0.75560 0.81704
 O869 O 0.76215 0.72416 0.81256
 O870 O 0.81836 0.77728 0.77594
 O871 O 0.78674 0.80789 0.78542
 C872 C 0.74820 0.73802 0.82538
 H873 H 0.80680 0.73971 0.75043
 H874 H 0.74715 0.81070 0.76039
 H875 H 0.72258 0.71948 0.78935
 H876 H 0.72633 0.74032 0.70188
 H877 H 0.80751 0.82656 0.74438
 H878 H 0.73208 0.82772 0.70304
 H879 H 0.69700 0.79759 0.69640
 H880 H 0.67061 0.71677 0.72620
 H881 H 0.83038 0.79155 0.77189
 H882 H 0.80456 0.70798 0.80215
 H883 H 0.76786 0.67968 0.79879
 H884 H 0.69063 0.68120 0.75645
 H885 H 0.80145 0.81977 0.78380
 H886 H 0.72051 0.79923 0.81724
 H887 H 0.78052 0.70842 0.68159
 H888 H 0.69811 0.68677 0.71651
 Zr889 Zr 0.25041 0.22308 0.78550
 O890 O 0.25853 0.19633 0.81271
 O891 O 0.21483 0.23282 0.79546
 O892 O 0.25100 0.24014 0.81933
 O893 O 0.23421 0.17841 0.74282
 O894 O 0.27577 0.27607 0.81373
 O895 O 0.23013 0.18788 0.78201
 O896 O 0.20560 0.26498 0.76946
 O897 O 0.25061 0.26238 0.77830
 O898 O 0.23383 0.22791 0.75234
 O899 O 0.28781 0.23580 0.78720
 O900 O 0.27148 0.20195 0.76171
 Zr901 Zr 0.29464 0.26012 0.72099
 Zr902 Zr 0.28798 0.27474 0.77801
 Zr903 Zr 0.25604 0.20905 0.72817
 Zr904 Zr 0.23554 0.26685 0.74467
 O905 O 0.27105 0.17400 0.71832
 O906 O 0.22931 0.30440 0.75605
 O907 O 0.25664 0.24807 0.71914
 O908 O 0.27260 0.28079 0.74445
 O909 O 0.31087 0.25557 0.75437
 O910 O 0.29349 0.22088 0.72837
 C911 C 0.20119 0.25074 0.78804
 C912 C 0.22622 0.17332 0.76407
 C913 C 0.26145 0.26108 0.82670
 O914 O 0.27394 0.31103 0.78512
 O915 O 0.31172 0.30412 0.76376
 O916 O 0.31752 0.29361 0.72504
 C917 C 0.32104 0.30840 0.74285
 O918 O 0.30735 0.18884 0.79033
 Zr919 Zr 0.30833 0.21640 0.76212
 O920 O 0.33094 0.24957 0.71178
 O921 O 0.32014 0.27618 0.79930
 O922 O 0.33832 0.22698 0.78447
 O923 O 0.31747 0.18018 0.74920
 O924 O 0.34024 0.22076 0.74083
 C925 C 0.34552 0.23376 0.72183
 O926 O 0.28832 0.28858 0.69476
 O927 O 0.22226 0.20690 0.70923
 O928 O 0.29077 0.24528 0.68650
 O929 O 0.26369 0.21100 0.69129
 O930 O 0.20334 0.25610 0.72530
 O931 O 0.23342 0.29059 0.71380
 C932 C 0.27763 0.22637 0.67833
 H933 H 0.21637 0.22114 0.75218
 H934 H 0.27296 0.29911 0.73985
 H935 H 0.30274 0.21107 0.71655
 H936 H 0.29462 0.23292 0.80325
 H937 H 0.21154 0.30782 0.75323
 H938 H 0.28531 0.31928 0.79665
 H939 H 0.32044 0.29297 0.80706
 H940 H 0.35172 0.21481 0.78185
 H941 H 0.19034 0.26835 0.72914
 H942 H 0.22165 0.19019 0.70134
 H943 H 0.25924 0.16604 0.70703
 H944 H 0.33472 0.17683 0.75417
 H945 H 0.21767 0.29983 0.71422
 H946 H 0.30344 0.29013 0.68444
 H947 H 0.24337 0.19406 0.82291
 H948 H 0.32438 0.18289 0.79309
 Zr949 Zr 0.26029 0.77554 0.28115
 O950 O 0.24808 0.80074 0.30739
 O951 O 0.29748 0.77090 0.29092
 O952 O 0.26029 0.75872 0.31570
 O953 O 0.26560 0.82358 0.23812
 O954 O 0.24331 0.71866 0.31077
 O955 O 0.27581 0.81337 0.27627
 O956 O 0.31091 0.74193 0.26442
 O957 O 0.26712 0.73731 0.27403
 O958 O 0.27682 0.77513 0.24735
 O959 O 0.22544 0.75563 0.28363
 O960 O 0.23443 0.79227 0.25820
 Zr961 Zr 0.22328 0.73240 0.21779
 Zr962 Zr 0.23251 0.71785 0.27496
 Zr963 Zr 0.25052 0.78978 0.22426
 Zr964 Zr 0.28236 0.73714 0.23977
 O965 O 0.22873 0.82133 0.21532
 O966 O 0.29624 0.70105 0.24933
 O967 O 0.25803 0.75237 0.21475
 O968 O 0.24876 0.71586 0.24101
 O969 O 0.20655 0.73250 0.25163
 O970 O 0.21591 0.77031 0.22523
 C971 C 0.31341 0.75527 0.28316
 C972 C 0.27494 0.82911 0.25832
 C973 C 0.25298 0.73637 0.32364
 O974 O 0.25383 0.68548 0.28188
 O975 O 0.21291 0.68558 0.26182
 O976 O 0.20899 0.69439 0.22220
 C977 C 0.20607 0.67961 0.24074
 O978 O 0.19593 0.79790 0.28608
 Zr979 Zr 0.20068 0.77057 0.25922
 O980 O 0.18504 0.73102 0.21213
 O981 O 0.20117 0.70899 0.29716
 O982 O 0.17421 0.75467 0.28413
 O983 O 0.18373 0.80307 0.24448
 O984 O 0.16941 0.75672 0.24054
 C985 C 0.16709 0.74108 0.22335
 O986 O 0.23639 0.70896 0.19053
 O987 O 0.28294 0.79969 0.20387
 O988 O 0.22054 0.75036 0.18361
 O989 O 0.24169 0.78852 0.18819
 O990 O 0.31261 0.75521 0.22061
 O991 O 0.28810 0.71651 0.20821
 C992 C 0.22900 0.77246 0.17587
 H993 H 0.29284 0.78509 0.24652
 H994 H 0.25196 0.69807 0.23669
 H995 H 0.20406 0.77788 0.21401
 H996 H 0.21792 0.75677 0.29969
 H997 H 0.31427 0.70146 0.24522
 H998 H 0.24407 0.67457 0.29346
 H999 H 0.20409 0.69227 0.30496
 H1000 H 0.15830 0.76326 0.28156
 H1001 H 0.32757 0.74528 0.22395
 H1002 H 0.28009 0.81647 0.19619
 H1003 H 0.23850 0.83207 0.20360
 H1004 H 0.16578 0.80168 0.24885
 H1005 H 0.30575 0.71176 0.20705
 H1006 H 0.22175 0.70375 0.18095
 H1007 H 0.26265 0.80507 0.31741
 H1008 H 0.17800 0.80135 0.28789
 Zr1009 Zr 0.24027 0.77622 0.71313
 O1010 O 0.25938 0.80343 0.69066
 O1011 O 0.20585 0.77307 0.69688
 O1012 O 0.24426 0.76165 0.67848
 O1013 O 0.22159 0.81804 0.75659
 O1014 O 0.26171 0.72317 0.68482
 O1015 O 0.22521 0.81286 0.71653
 O1016 O 0.18524 0.74138 0.71839
 O1017 O 0.23201 0.73696 0.71631
 O1018 O 0.21636 0.77082 0.74258
 O1019 O 0.27476 0.75897 0.71654
 O1020 O 0.25953 0.79226 0.74193
 Zr1021 Zr 0.26210 0.72845 0.77992
 Zr1022 Zr 0.26613 0.71993 0.72169
 Zr1023 Zr 0.23603 0.78462 0.77156
 Zr1024 Zr 0.20926 0.73180 0.74633
 O1025 O 0.25489 0.81689 0.78571
 O1026 O 0.19899 0.69756 0.72898
 O1027 O 0.22726 0.74554 0.77672
 O1028 O 0.24255 0.71296 0.75118
 O1029 O 0.28615 0.73369 0.75056
 O1030 O 0.27019 0.76769 0.77653
 C1031 C 0.18705 0.75782 0.70109
 C1032 C 0.21892 0.82566 0.73492
 C1033 C 0.25264 0.74036 0.67117
 O1034 O 0.24830 0.68610 0.70949
 O1035 O 0.28312 0.68791 0.73673
 O1036 O 0.27805 0.69238 0.77666
 C1037 C 0.28529 0.68005 0.75838
 O1038 O 0.30321 0.80325 0.72232
 Zr1039 Zr 0.29280 0.77300 0.74652
 O1040 O 0.29775 0.73018 0.79458
 O1041 O 0.30144 0.71664 0.70517
 O1042 O 0.32463 0.76134 0.72754
 O1043 O 0.30556 0.80531 0.76555
 O1044 O 0.31859 0.76040 0.77147
 C1045 C 0.31735 0.74359 0.78841
 O1046 O 0.24360 0.70035 0.80195
 O1047 O 0.20002 0.78932 0.78614
 O1048 O 0.25555 0.74154 0.81462
 O1049 O 0.23656 0.77928 0.80868
 O1050 O 0.17592 0.74422 0.76219
 O1051 O 0.19652 0.70517 0.77313
 C1052 C 0.24524 0.76172 0.82222
 H1053 H 0.20047 0.77962 0.74089
 H1054 H 0.23874 0.69450 0.75374
 H1055 H 0.27885 0.77477 0.79048
 H1056 H 0.28531 0.76229 0.70219
 H1057 H 0.18053 0.69639 0.72853
 H1058 H 0.26051 0.67769 0.69921
 H1059 H 0.30068 0.70057 0.69622
 H1060 H 0.33934 0.77071 0.73396
 H1061 H 0.16187 0.73429 0.75520
 H1062 H 0.20083 0.80529 0.79523
 H1063 H 0.24270 0.82534 0.79597
 H1064 H 0.32403 0.80600 0.76456
 H1065 H 0.17999 0.69779 0.76877
 H1066 H 0.25557 0.69512 0.81425
 H1067 H 0.24745 0.80863 0.67833
 H1068 H 0.32118 0.80771 0.72397
 Zr1069 Zr 0.27446 0.23225 0.21432
 O1070 O 0.26937 0.20839 0.18473
 O1071 O 0.31219 0.24357 0.20975
 O1072 O 0.27509 0.25195 0.18111
 O1073 O 0.28439 0.18259 0.25458
 O1074 O 0.25049 0.28590 0.18680
 O1075 O 0.29342 0.19750 0.21708
 O1076 O 0.32008 0.27037 0.24032
 O1077 O 0.27508 0.27069 0.22399
 O1078 O 0.28730 0.23326 0.24915
 O1079 O 0.23746 0.24372 0.21098
 O1080 O 0.24983 0.20758 0.23425
 Zr1081 Zr 0.22586 0.25963 0.27768
 Zr1082 Zr 0.23789 0.28154 0.22235
 Zr1083 Zr 0.26220 0.21054 0.26927
 Zr1084 Zr 0.28641 0.27108 0.25938
 O1085 O 0.24471 0.17399 0.27436
 O1086 O 0.29603 0.30928 0.24894
 O1087 O 0.26278 0.24806 0.28152
 O1088 O 0.25021 0.28404 0.25742
 O1089 O 0.21257 0.25892 0.24287
 O1090 O 0.22536 0.22152 0.26752
 C1091 C 0.32679 0.25804 0.22203
 C1092 C 0.29495 0.18077 0.23411
 C1093 C 0.26404 0.27197 0.17363
 O1094 O 0.25462 0.31854 0.21838
 O1095 O 0.21324 0.30785 0.23670
 O1096 O 0.20430 0.29231 0.27412
 C1097 C 0.20190 0.30868 0.25697
 O1098 O 0.21561 0.19595 0.20353
 Zr1099 Zr 0.21346 0.22100 0.23260
 O1100 O 0.18824 0.24901 0.28243
 O1101 O 0.20724 0.28530 0.19945
 O1102 O 0.18707 0.23260 0.20722
 O1103 O 0.20087 0.18389 0.24397
 O1104 O 0.17900 0.22525 0.25007
 C1105 C 0.17290 0.23671 0.26913
 O1106 O 0.23205 0.28462 0.30623
 O1107 O 0.29354 0.20592 0.29119
 O1108 O 0.22491 0.24002 0.31115
 O1109 O 0.25095 0.20734 0.30483
 O1110 O 0.31472 0.25969 0.28286
 O1111 O 0.28553 0.29263 0.29091
 C1112 C 0.23614 0.21982 0.31790
 H1113 H 0.30422 0.22667 0.25098
 H1114 H 0.25001 0.30177 0.26308
 H1115 H 0.21425 0.21035 0.27771
 H1116 H 0.23164 0.24224 0.19445
 H1117 H 0.31341 0.31294 0.25394
 H1118 H 0.24430 0.32798 0.20697
 H1119 H 0.20813 0.30304 0.19300
 H1120 H 0.17278 0.22009 0.20806
 H1121 H 0.32831 0.27301 0.28210
 H1122 H 0.29240 0.18821 0.29769
 H1123 H 0.25466 0.16471 0.28619
 H1124 H 0.18353 0.18135 0.23842
 H1125 H 0.30089 0.30359 0.29175
 H1126 H 0.21614 0.28516 0.31534
 H1127 H 0.28558 0.20805 0.17606
 H1128 H 0.19886 0.18825 0.20048
 Zr1129 Zr 0.71953 0.73520 0.28029
 O1130 O 0.72303 0.71241 0.31148
 O1131 O 0.68165 0.74361 0.28305
 O1132 O 0.71628 0.75525 0.31246
 O1133 O 0.71284 0.68439 0.24125
 O1134 O 0.74070 0.79136 0.30651
 O1135 O 0.70295 0.69778 0.27836
 O1136 O 0.67547 0.77030 0.25142
 O1137 O 0.71882 0.77343 0.26870
 O1138 O 0.70844 0.73471 0.24486
 O1139 O 0.75595 0.75046 0.28500
 O1140 O 0.74572 0.71312 0.26251
 Zr1141 Zr 0.77104 0.76733 0.21819
 Zr1142 Zr 0.75541 0.78813 0.27185
 Zr1143 Zr 0.73520 0.71460 0.22675
 Zr1144 Zr 0.70939 0.77252 0.23280
 O1145 O 0.75350 0.67968 0.22420
 O1146 O 0.69874 0.81026 0.23951
 O1147 O 0.73473 0.75198 0.21283
 O1148 O 0.74503 0.78923 0.23609
 O1149 O 0.78239 0.76806 0.25363
 O1150 O 0.77158 0.72933 0.23006
 C1151 C 0.66806 0.75815 0.27034
 C1152 C 0.70257 0.68099 0.26183
 C1153 C 0.72637 0.77646 0.31956
 O1154 O 0.73738 0.82324 0.27338
 O1155 O 0.77992 0.81716 0.25768
 O1156 O 0.79173 0.80221 0.22162
 C1157 C 0.79262 0.81897 0.23812
 O1158 O 0.77832 0.70522 0.29571
 Zr1159 Zr 0.78157 0.73013 0.26552
 O1160 O 0.80891 0.76019 0.21558
 O1161 O 0.78462 0.79512 0.29601
 O1162 O 0.80635 0.74498 0.29128
 O1163 O 0.79537 0.69405 0.25697
 O1164 O 0.81669 0.73687 0.24907
 C1165 C 0.82357 0.74865 0.22970
 O1166 O 0.76619 0.79162 0.18827
 O1167 O 0.70525 0.70752 0.20340
 O1168 O 0.77437 0.74745 0.18581
 O1169 O 0.74897 0.71194 0.19198
 O1170 O 0.68193 0.75757 0.20962
 O1171 O 0.71161 0.79285 0.19978
 C1172 C 0.76421 0.72605 0.17927
 H1173 H 0.69169 0.72654 0.24287
 H1174 H 0.74517 0.80692 0.22961
 H1175 H 0.78343 0.71914 0.22098
 H1176 H 0.76081 0.74967 0.30188
 H1177 H 0.68170 0.81210 0.23327
 H1178 H 0.74672 0.83384 0.28486
 H1179 H 0.78285 0.81271 0.30176
 H1180 H 0.82099 0.73402 0.29166
 H1181 H 0.66812 0.76959 0.20924
 H1182 H 0.70692 0.68995 0.19759
 H1183 H 0.74450 0.66945 0.21219
 H1184 H 0.81230 0.69316 0.26369
 H1185 H 0.69578 0.80146 0.19697
 H1186 H 0.78257 0.79352 0.17996
 H1187 H 0.70627 0.71049 0.31911
 H1188 H 0.79511 0.69998 0.30046
 Zr1189 Zr 0.78268 0.28513 0.78115
 O1190 O 0.76969 0.30926 0.80794
 O1191 O 0.82154 0.28983 0.78478
 O1192 O 0.78899 0.27093 0.81623
 O1193 O 0.77443 0.33073 0.73670
 O1194 O 0.77983 0.22833 0.81349
 O1195 O 0.79118 0.32423 0.77330
 O1196 O 0.83691 0.26711 0.75408
 O1197 O 0.79613 0.24893 0.77421
 O1198 O 0.79403 0.28571 0.74544
 O1199 O 0.75227 0.25937 0.78803
 O1200 O 0.75108 0.29537 0.76140
 Zr1201 Zr 0.74583 0.23210 0.72425
 Zr1202 Zr 0.76545 0.22356 0.77952
 Zr1203 Zr 0.76273 0.29405 0.72580
 Zr1204 Zr 0.80596 0.24951 0.73814
 O1205 O 0.73369 0.31942 0.71952
 O1206 O 0.82830 0.21977 0.75080
 O1207 O 0.77578 0.25824 0.71658
 O1208 O 0.77710 0.22229 0.74403
 O1209 O 0.73389 0.23127 0.75973
 O1210 O 0.73253 0.26829 0.73115
 C1211 C 0.83948 0.28191 0.77182
 C1212 C 0.78620 0.33852 0.75514
 C1213 C 0.78643 0.24810 0.82526
 O1214 O 0.79330 0.19654 0.78454
 O1215 O 0.75098 0.18757 0.77003
 O1216 O 0.73648 0.19312 0.73247
 C1217 C 0.74009 0.17935 0.75134
 O1218 O 0.71537 0.29461 0.79361
 Zr1219 Zr 0.72195 0.26773 0.76673
 O1220 O 0.70756 0.22507 0.72166
 O1221 O 0.73920 0.20995 0.80558
 O1222 O 0.70182 0.24850 0.79482
 O1223 O 0.69776 0.29556 0.75343
 O1224 O 0.69132 0.24731 0.75219
 C1225 C 0.68938 0.23179 0.73483
 O1226 O 0.75939 0.20814 0.69761
 O1227 O 0.78955 0.30969 0.70118
 O1228 O 0.73883 0.24647 0.68953
 O1229 O 0.75161 0.28838 0.69073
 O1230 O 0.82754 0.26932 0.71136
 O1231 O 0.81214 0.22583 0.70863
 C1232 C 0.74300 0.26878 0.67975
 H1233 H 0.80759 0.29846 0.74159
 H1234 H 0.78280 0.20518 0.73990
 H1235 H 0.71840 0.27268 0.72089
 H1236 H 0.74650 0.25991 0.80475
 H1237 H 0.84553 0.22346 0.74484
 H1238 H 0.78736 0.18486 0.79763
 H1239 H 0.74615 0.19465 0.81326
 H1240 H 0.68428 0.25369 0.79399
 H1241 H 0.84476 0.26318 0.71216
 H1242 H 0.78230 0.32495 0.69371
 H1243 H 0.73952 0.33112 0.70641
 H1244 H 0.68082 0.29107 0.75975
 H1245 H 0.83005 0.22203 0.70757
 H1246 H 0.74462 0.20023 0.68983
 H1247 H 0.78457 0.31694 0.81573
 H1248 H 0.69725 0.29502 0.79703
 C1249 C 0.44147 1.00665 0.33726
 C1250 C 0.45965 0.98891 0.33624
 C1251 C 0.46488 0.97563 0.31584
 C1252 C 0.45074 0.98074 0.29567
 C1253 C 0.43194 0.99920 0.29588
 C1254 C 0.42723 1.01222 0.31726
 O1255 O 0.43903 1.01649 0.35869
 C1256 C 0.45607 1.00470 0.37138
 C1257 C 0.46917 0.98764 0.35844
 C1258 C 0.48765 0.97297 0.36824
 C1259 C 0.49300 0.97612 0.39236
 C1260 C 0.47986 0.99367 0.40624
 C1261 C 0.46102 1.00810 0.39543
 H1262 H 0.47902 0.96146 0.31558
 H1263 H 0.45413 0.96987 0.27990
 H1264 H 0.41249 1.02559 0.31873
 H1265 H 0.49761 0.95957 0.35769
 H1266 H 0.50739 0.96484 0.40016
 H1267 H 0.45058 1.02166 0.40538
 C1268 C -0.05637 0.50886 0.84666
 C1269 C -0.03692 0.49268 0.84456
 C1270 C -0.02909 0.48345 0.82297
 C1271 C -0.04189 0.49102 0.80269
 C1272 C -0.06182 0.50821 0.80394
 C1273 C -0.06921 0.51709 0.82652
 O1274 O -0.06176 0.51397 0.86913
 C1275 C -0.04535 0.50073 0.88131
 C1276 C -0.02971 0.48741 0.86709
 C1277 C -0.01170 0.47159 0.87611
 C1278 C -0.00964 0.46942 0.90088
 C1279 C -0.02558 0.48285 0.91611
 C1280 C -0.04367 0.49881 0.90600
 H1281 H -0.01421 0.47014 0.82185
 H1282 H -0.03671 0.48266 0.78602
 H1283 H -0.08508 0.52900 0.82855
 H1284 H 0.00023 0.46112 0.86448
 H1285 H 0.00422 0.45708 0.90813
 H1286 H -0.05628 0.50927 0.91698
 C1287 C 0.05004 -0.01560 0.82215
 C1288 C 0.02799 -0.00370 0.81833
 C1289 C 0.02200 0.00680 0.79644
 C1290 C 0.03952 0.00530 0.77788
 C1291 C 0.06252 -0.00709 0.78119
 C1292 C 0.06759 -0.01766 0.80389
 O1293 O 0.05317 -0.02235 0.84468
 C1294 C 0.03272 -0.01448 0.85528
 C1295 C 0.01663 -0.00295 0.84004
 C1296 C -0.00517 0.00805 0.84787
 C1297 C -0.01048 0.00720 0.87243
 C1298 C 0.00609 -0.00434 0.88852
 C1299 C 0.02783 -0.01558 0.87954
 H1300 H 0.00493 0.01684 0.79401
 H1301 H 0.03548 0.01506 0.76138
 H1302 H 0.08536 -0.02583 0.80767
 H1303 H -0.01740 0.01738 0.83559
 H1304 H -0.02711 0.01598 0.87890
 H1305 H 0.04110 -0.02440 0.89114
 C1306 C 0.55735 0.47837 0.33510
 C1307 C 0.53292 0.48476 0.33259
 C1308 C 0.52293 0.49139 0.31083
 C1309 C 0.53880 0.49172 0.29086
 C1310 C 0.56422 0.48503 0.29279
 C1311 C 0.57338 0.47815 0.31544
 O1312 O 0.56377 0.47500 0.35757
 C1313 C 0.54295 0.47945 0.36948
 C1314 C 0.52348 0.48546 0.35504
 C1315 C 0.50053 0.49264 0.36387
 C1316 C 0.49763 0.49399 0.38861
 C1317 C 0.51759 0.48829 0.40393
 C1318 C 0.54044 0.48049 0.39406
 H1319 H 0.50386 0.49720 0.30942
 H1320 H 0.53122 0.49848 0.27435
 H1321 H 0.59283 0.47410 0.31786
 H1322 H 0.48562 0.49770 0.35212
 H1323 H 0.48005 0.50007 0.39574
 H1324 H 0.55626 0.47648 0.40508
 C1325 C 0.56256 0.50342 0.16790
 C1326 C 0.55203 0.47929 0.16544
 C1327 C 0.55604 0.45942 0.18143
 C1328 C 0.57047 0.46492 0.20138
 C1329 C 0.58012 0.49004 0.20524
 C1330 C 0.57672 0.50943 0.18791
 O1331 O 0.55663 0.51937 0.15041
 C1332 C 0.54187 0.50507 0.13684
 C1333 C 0.53811 0.48053 0.14549
 C1334 C 0.52266 0.46256 0.13448
 C1335 C 0.51147 0.46986 0.11310
 C1336 C 0.51630 0.49455 0.10303
 C1337 C 0.53134 0.51255 0.11536
 H1338 H 0.54778 0.44054 0.17900
 H1339 H 0.57278 0.45003 0.21470
 H1340 H 0.58345 0.52884 0.19068
 H1341 H 0.51979 0.44343 0.14179
 H1342 H 0.50045 0.45578 0.10360
 H1343 H 0.53562 0.53141 0.10788
 C1344 C 0.05984 1.00199 0.66497
 C1345 C 0.07436 0.98585 0.65247
 C1346 C 0.09732 0.97804 0.66043
 C1347 C 0.10519 0.98626 0.68275
 C1348 C 0.08963 1.00104 0.69719
 C1349 C 0.06683 1.00956 0.68765
 O1350 O 0.03957 1.00869 0.65331
 C1351 C 0.04117 0.99609 0.63312
 C1352 C 0.06187 0.98139 0.63212
 C1353 C 0.06739 0.96646 0.61288
 C1354 C 0.05170 0.96772 0.59331
 C1355 C 0.03135 0.98425 0.59294
 C1356 C 0.02550 0.99816 0.61342
 H1357 H 0.10871 0.96584 0.64990
 H1358 H 0.12246 0.97929 0.68929
 H1359 H 0.05473 1.02152 0.69771
 H1360 H 0.08370 0.95494 0.61259
 H1361 H 0.05658 0.95735 0.57758
 H1362 H 0.01062 1.01154 0.61333
 C1363 C -0.05631 0.51830 0.67308
 C1364 C -0.03574 0.53481 0.67290
 C1365 C -0.02713 0.54649 0.69328
 C1366 C -0.04001 0.54069 0.71467
 C1367 C -0.06104 0.52333 0.71543
 C1368 C -0.06949 0.51234 0.69416
 O1369 O -0.06107 0.50879 0.65192
 C1370 C -0.04315 0.51947 0.63816
 C1371 C -0.02712 0.53556 0.65004
 C1372 C -0.00668 0.54816 0.63891
 C1373 C -0.00259 0.54390 0.61457
 C1374 C -0.01889 0.52729 0.60194
 C1375 C -0.03952 0.51507 0.61413
 H1376 H -0.01097 0.55946 0.69278
 H1377 H -0.03358 0.54984 0.73063
 H1378 H -0.08534 0.49897 0.69413
 H1379 H 0.00580 0.56066 0.64866
 H1380 H 0.01325 0.55343 0.60566
 H1381 H -0.05235 0.50210 0.60530
 C1382 C 0.43165 0.01210 0.16443
 C1383 C 0.45000 0.03111 0.16469
 C1384 C 0.45835 0.04203 0.18552
 C1385 C 0.44748 0.03293 0.20697
 C1386 C 0.42864 0.01311 0.20738
 C1387 C 0.42039 0.00282 0.18566
 O1388 O 0.42695 0.00395 0.14269
 C1389 C 0.44268 0.01812 0.12902
 C1390 C 0.45715 0.03508 0.14162
 C1391 C 0.47528 0.05130 0.13091
 C1392 C 0.47888 0.04979 0.10623
 C1393 C 0.46444 0.03224 0.09272
 C1394 C 0.44585 0.01639 0.10444
 H1395 H 0.47278 0.05699 0.18529
 H1396 H 0.45359 0.04162 0.22326
 H1397 H 0.40606 -0.01224 0.18536
 H1398 H 0.48652 0.06441 0.14125
 H1399 H 0.49315 0.06207 0.09774
 H1400 H 0.43461 0.00257 0.09487
 C1401 C 0.32627 0.42638 -0.00632
 C1402 C 0.32365 0.44161 0.01304
 C1403 C 0.30130 0.44259 0.02568
 C1404 C 0.28118 0.42665 0.01860
 C1405 C 0.28354 0.40973 -0.00071
 C1406 C 0.30659 0.41018 -0.01355
 O1407 O 0.34923 0.42758 -0.01551
 C1408 C 0.36143 0.44377 -0.00156
 C1409 C 0.34676 0.45272 0.01639
 C1410 C 0.35633 0.46865 0.03387
 C1411 C 0.38187 0.47594 0.03254
 C1412 C 0.39720 0.46762 0.01373
 C1413 C 0.38669 0.45122 -0.00350
 H1414 H 0.29963 0.45455 0.04100
 H1415 H 0.26419 0.42625 0.02918
 H1416 H 0.31014 0.39720 -0.02768
 H1417 H 0.34458 0.47513 0.04811
 H1418 H 0.38957 0.48852 0.04581
 H1419 H 0.39793 0.44425 -0.01790
 C1420 C -0.16656 0.92114 0.49981
 C1421 C -0.14928 0.90294 0.50402
 C1422 C -0.15516 0.87706 0.50482
 C1423 C -0.18001 0.86940 0.50166
 C1424 C -0.19899 0.88742 0.49849
 C1425 C -0.19198 0.91390 0.49721
 O1426 O -0.15623 0.94472 0.49873
 C1427 C -0.13208 0.94108 0.50254
 C1428 C -0.12714 0.91579 0.50618
 C1429 C -0.10347 0.90721 0.51067
 C1430 C -0.08382 0.92540 0.51113
 C1431 C -0.08791 0.95158 0.50696
 C1432 C -0.11243 0.95968 0.50247
 H1433 H -0.14105 0.86315 0.50770
 H1434 H -0.18471 0.84913 0.50230
 H1435 H -0.20559 0.92830 0.49446
 H1436 H -0.10016 0.88714 0.51338
 H1437 H -0.06511 0.91898 0.51364
 H1438 H -0.11594 0.97954 0.49876
 C1439 C -0.17441 0.07829 0.99791
 C1440 C -0.17706 0.06412 0.97779
 C1441 C -0.19807 0.06496 0.96370
 C1442 C -0.21679 0.08156 0.97021
 C1443 C -0.21437 0.09732 0.99043
 C1444 C -0.19276 0.09515 1.00466
 O1445 O -0.15259 0.07530 1.00838
 C1446 C -0.14120 0.05905 0.99446
 C1447 C -0.15527 0.05182 0.97534
 C1448 C -0.14632 0.03619 0.95772
 C1449 C -0.12200 0.02743 0.96001
 C1450 C -0.10728 0.03401 0.97988
 C1451 C -0.11715 0.05007 0.99737
 H1452 H -0.19968 0.05380 0.94781
 H1453 H -0.23267 0.08322 0.95869
 H1454 H -0.18928 0.10712 1.01969
 H1455 H -0.15758 0.03111 0.94261
 H1456 H -0.11478 0.01517 0.94652
 H1457 H -0.10626 0.05574 1.01256
 C1458 C 0.34361 0.59145 0.50378
 C1459 C 0.34327 0.57787 0.48318
 C1460 C 0.32311 0.57730 0.46802
 C1461 C 0.30256 0.59161 0.47410
 C1462 C 0.30234 0.60660 0.49491
 C1463 C 0.32331 0.60613 0.51016
 O1464 O 0.36476 0.58922 0.51564
 C1465 C 0.37800 0.57401 0.50211
 C1466 C 0.36568 0.56672 0.48198
 C1467 C 0.37614 0.55138 0.46499
 C1468 C 0.40027 0.54297 0.46895
 C1469 C 0.41343 0.54969 0.48978
 C1470 C 0.40201 0.56556 0.50660
 H1471 H 0.32326 0.56637 0.45194
 H1472 H 0.28686 0.59157 0.46221
 H1473 H 0.32429 0.61696 0.52621
 H1474 H 0.36609 0.54607 0.44920
 H1475 H 0.40849 0.53085 0.45590
 H1476 H 0.41151 0.57120 0.52261
 C1477 C 0.16640 0.59792 0.50663
 C1478 C 0.16568 0.58228 0.48740
 C1479 C 0.18555 0.57991 0.47173
 C1480 C 0.20754 0.59391 0.47616
 C1481 C 0.20951 0.60988 0.49608
 C1482 C 0.18844 0.61236 0.51140
 O1483 O 0.14506 0.59658 0.51928
 C1484 C 0.13075 0.57966 0.50765
 C1485 C 0.14288 0.57053 0.48813
 C1486 C 0.13252 0.55240 0.47348
 C1487 C 0.10839 0.54332 0.47871
 C1488 C 0.09440 0.55237 0.49834
 C1489 C 0.10605 0.57078 0.51335
 H1490 H 0.18430 0.56737 0.45674
 H1491 H 0.22331 0.59197 0.46423
 H1492 H 0.18953 0.62430 0.52682
 H1493 H 0.14275 0.54532 0.45847
 H1494 H 0.10073 0.52896 0.46708
 H1495 H 0.09626 0.57801 0.52855
 C1496 C 0.66007 0.10070 -0.00876
 C1497 C 0.64667 0.11857 0.00283
 C1498 C 0.65753 0.14141 0.01038
 C1499 C 0.68320 0.14599 0.00599
 C1500 C 0.69796 0.12763 -0.00545
 C1501 C 0.68578 0.10458 -0.01289
 O1502 O 0.64614 0.08042 -0.01485
 C1503 C 0.62350 0.08552 -0.00674
 C1504 C 0.62283 0.10852 0.00445
 C1505 C 0.60110 0.11717 0.01490
 C1506 C 0.57922 0.10156 0.01367
 C1507 C 0.57924 0.07801 0.00171
 C1508 C 0.60183 0.06999 -0.00865
 H1509 H 0.64665 0.15522 0.01953
 H1510 H 0.69149 0.16340 0.01280
 H1511 H 0.69578 0.09015 -0.02211
 H1512 H 0.60102 0.13525 0.02381
 H1513 H 0.56219 0.10802 0.02166
 H1514 H 0.60259 0.05200 -0.01768
 C1515 C 0.67038 0.91854 0.49836
 C1516 C 0.65731 0.90780 0.47998
 C1517 C 0.66694 0.88908 0.46580
 C1518 C 0.69084 0.88076 0.47091
 C1519 C 0.70484 0.89130 0.48978
 C1520 C 0.69455 0.91077 0.50356
 O1521 O 0.65735 0.93557 0.51000
 C1522 C 0.63568 0.93553 0.49868
 C1523 C 0.63481 0.91890 0.48015
 C1524 C 0.61399 0.91564 0.46594
 C1525 C 0.59322 0.93025 0.47083
 C1526 C 0.59338 0.94767 0.48983
 C1527 C 0.61504 0.95016 0.50404
 H1528 H 0.65624 0.88083 0.45152
 H1529 H 0.69842 0.86589 0.46024
 H1530 H 0.70464 0.91885 0.51830
 H1531 H 0.61376 0.90235 0.45149
 H1532 H 0.57696 0.92789 0.45979
 H1533 H 0.61593 0.96330 0.51860
 C1534 C 0.15302 0.40012 0.99560
 C1535 C 0.14063 0.38199 1.00972
 C1536 C 0.15259 0.36177 1.02042
 C1537 C 0.17833 0.35997 1.01632
 C1538 C 0.19186 0.37825 1.00179
 C1539 C 0.17887 0.39877 0.99138
 O1540 O 0.13809 0.41811 0.98766
 C1541 C 0.11585 0.41117 0.99705
 C1542 C 0.11651 0.38921 1.01075
 C1543 C 0.09577 0.37910 1.02322
 C1544 C 0.07353 0.39233 1.02190
 C1545 C 0.07211 0.41505 1.00798
 C1546 C 0.09358 0.42444 0.99507
 H1547 H 0.14248 0.34793 1.03172
 H1548 H 0.18778 0.34456 1.02502
 H1549 H 0.18852 0.41313 0.98026
 H1550 H 0.09684 0.36198 1.03414
 H1551 H 0.05744 0.38516 1.03212
 H1552 H 0.09327 0.44214 0.98487
 C1553 C -0.01125 0.33393 0.42374
 C1554 C 0.00830 0.33092 0.43894
 C1555 C 0.02596 0.31264 0.43600
 C1556 C 0.02285 0.29618 0.41702
 C1557 C 0.00189 0.29768 0.40185
 C1558 C -0.01496 0.31754 0.40493
 O1559 O -0.02474 0.35384 0.42865
 C1560 C -0.01348 0.36346 0.44744
 C1561 C 0.00666 0.34995 0.45457
 C1562 C 0.02173 0.35713 0.47328
 C1563 C 0.01632 0.37974 0.48464
 C1564 C -0.00363 0.39476 0.47684
 C1565 C -0.01919 0.38601 0.45840
 H1566 H 0.04169 0.31125 0.44773
 H1567 H 0.03655 0.28184 0.41436
 H1568 H -0.03031 0.32063 0.39316
 H1569 H 0.03754 0.34617 0.47845
 H1570 H 0.02850 0.38613 0.49867
 H1571 H -0.03437 0.39707 0.45183
 C1572 C 0.48741 -0.16116 -0.07511
 C1573 C 0.50387 -0.16402 -0.05683
 C1574 C 0.51870 -0.18493 -0.05437
 C1575 C 0.51639 -0.20376 -0.07145
 C1576 C 0.49899 -0.20175 -0.09024
 C1577 C 0.48452 -0.17980 -0.09210
 O1578 O 0.47671 -0.13882 -0.07533
 C1579 C 0.48666 -0.12737 -0.05679
 C1580 C 0.50331 -0.14204 -0.04482
 C1581 C 0.51691 -0.13333 -0.02565
 C1582 C 0.51335 -0.10830 -0.01863
 C1583 C 0.49658 -0.09258 -0.03097
 C1584 C 0.48282 -0.10248 -0.05015
 H1585 H 0.53214 -0.18630 -0.04028
 H1586 H 0.52860 -0.21971 -0.07036
 H1587 H 0.47226 -0.17646 -0.10680
 H1588 H 0.53012 -0.14519 -0.01672
 H1589 H 0.52409 -0.10109 -0.00390
 H1590 H 0.47007 -0.09099 -0.06010
 C1591 C 0.01008 -0.17326 1.07991
 C1592 C 0.01561 -0.17824 1.05665
 C1593 C 0.01646 -0.20276 1.04796
 C1594 C 0.01115 -0.22308 1.06393
 C1595 C 0.00458 -0.21841 1.08795
 C1596 C 0.00499 -0.19304 1.09605
 O1597 O 0.00823 -0.14866 1.08417
 C1598 C 0.01248 -0.13783 1.06303
 C1599 C 0.01727 -0.15516 1.04563
 C1600 C 0.01985 -0.14843 1.02178
 C1601 C 0.01653 -0.12292 1.01554
 C1602 C 0.01080 -0.10498 1.03309
 C1603 C 0.00956 -0.11222 1.05725
 H1604 H 0.02076 -0.20613 1.02949
 H1605 H 0.01247 -0.24218 1.05741
 H1606 H 0.00090 -0.18872 1.11437
 H1607 H 0.02311 -0.16248 1.00840
 H1608 H 0.01747 -0.11726 0.99693
 H1609 H 0.00450 -0.09888 1.07075
 C1610 C 0.52137 0.34719 0.60371
 C1611 C 0.53690 0.36346 0.61596
 C1612 C 0.55230 0.35516 0.63394
 C1613 C 0.55160 0.32897 0.63953
 C1614 C 0.53589 0.31174 0.62679
 C1615 C 0.52048 0.32132 0.60878
 O1616 O 0.50889 0.35858 0.58671
 C1617 C 0.51679 0.38264 0.58815
 C1618 C 0.53393 0.38670 0.60578
 C1619 C 0.54564 0.41029 0.60945
 C1620 C 0.53976 0.43036 0.59399
 C1621 C 0.52257 0.42634 0.57528
 C1622 C 0.51055 0.40221 0.57276
 H1623 H 0.56441 0.36836 0.64331
 H1624 H 0.56317 0.32270 0.65384
 H1625 H 0.50812 0.30882 0.59887
 H1626 H 0.55934 0.41296 0.62322
 H1627 H 0.54916 0.44878 0.59620
 H1628 H 0.49766 0.39834 0.55851
 C1629 C 0.52077 1.18238 0.57994
 C1630 C 0.53832 1.18519 0.56204
 C1631 C 0.55449 1.20645 0.55965
 C1632 C 0.55263 1.22547 0.57665
 C1633 C 0.53478 1.22278 0.59541
 C1634 C 0.51839 1.20109 0.59673
 O1635 O 0.50798 1.16030 0.57974
 C1636 C 0.51773 1.14883 0.56129
 C1637 C 0.53628 1.16330 0.54981
 C1638 C 0.54957 1.15467 0.53052
 C1639 C 0.54358 1.13004 0.52282
 C1640 C 0.52468 1.11455 0.53456
 C1641 C 0.51148 1.12427 0.55401
 H1642 H 0.56837 1.20805 0.54555
 H1643 H 0.56551 1.24183 0.57558
 H1644 H 0.50426 1.19858 0.61053
 H1645 H 0.56423 1.16633 0.52190
 H1646 H 0.55402 1.12299 0.50791
 H1647 H 0.49711 1.11298 0.56346
 C1648 C -0.00784 0.65023 1.08767
 C1649 C -0.02210 0.63628 1.10408
 C1650 C -0.03450 0.64717 1.12286
 C1651 C -0.03155 0.67359 1.12519
 C1652 C -0.01624 0.68830 1.10896
 C1653 C -0.00457 0.67648 1.08968
 O1654 O 0.00200 0.63611 1.07097
 C1655 C -0.00622 0.61272 1.07704
 C1656 C -0.02090 0.61185 1.09726
 C1657 C -0.03161 0.58946 1.10683
 C1658 C -0.02766 0.56704 1.09465
 C1659 C -0.01336 0.56747 1.07319
 C1660 C -0.00200 0.59062 1.06458
 H1661 H -0.04589 0.63575 1.13533
 H1662 H -0.04102 0.68250 1.13974
 H1663 H 0.00743 0.68719 1.07718
 H1664 H -0.04297 0.58932 1.12285
 H1665 H -0.03633 0.54945 1.10166
 H1666 H 0.00880 0.59162 1.04821
 C1667 C 0.50645 0.67285 -0.08236
 C1668 C 0.51943 0.65861 -0.09814
 C1669 C 0.52592 0.66739 -0.12083
 C1670 C 0.51911 0.69206 -0.12735
 C1671 C 0.50610 0.70753 -0.11111
 C1672 C 0.49950 0.69728 -0.08835
 O1673 O 0.50148 0.66085 -0.06189
 C1674 C 0.51165 0.63854 -0.06479
 C1675 C 0.52297 0.63617 -0.08661
 C1676 C 0.53433 0.61407 -0.09346
 C1677 C 0.53347 0.59339 -0.07727
 C1678 C 0.52128 0.59529 -0.05486
 C1679 C 0.51064 0.61843 -0.04849
 H1680 H 0.53614 0.65580 -0.13298
 H1681 H 0.52533 0.69915 -0.14463
 H1682 H 0.48879 0.70757 -0.07558
 H1683 H 0.54306 0.61262 -0.11078
 H1684 H 0.54157 0.57573 -0.08252
 H1685 H 0.50109 0.62056 -0.03164
 C1686 C 0.00721 1.17028 0.41153
 C1687 C 0.02247 1.15750 0.39641
 C1688 C 0.03044 1.16752 0.37447
 C1689 C 0.02264 1.19191 0.36806
 C1690 C 0.00724 1.20553 0.38362
 C1691 C -0.00076 1.19438 0.40554
 O1692 O 0.00156 1.15742 0.43143
 C1693 C 0.01354 1.13604 0.42887
 C1694 C 0.02668 1.13511 0.40781
 C1695 C 0.04032 1.11425 0.40150
 C1696 C 0.03998 1.09330 0.41739
 C1697 C 0.02608 1.09366 0.43903
 C1698 C 0.01301 1.11560 0.44489
 H1699 H 0.04244 1.15711 0.36286
 H1700 H 0.02925 1.20044 0.35138
 H1701 H -0.01269 1.20424 0.41766
 H1702 H 0.05051 1.11394 0.38482
 H1703 H 0.05003 1.07663 0.41250
 H1704 H 0.00210 1.11657 0.46112
 C1705 C 0.76150 0.69089 0.91944
 C1706 C 0.74794 0.71235 0.92234
 C1707 C 0.73782 0.71879 0.94413
 C1708 C 0.74165 0.70237 0.96366
 C1709 C 0.75581 0.68010 0.96131
 C1710 C 0.76566 0.67438 0.93861
 O1711 O 0.76835 0.68741 0.89705
 C1712 C 0.75889 0.70709 0.88556
 C1713 C 0.74617 0.72292 0.90017
 C1714 C 0.73388 0.74404 0.89157
 C1715 C 0.73479 0.74906 0.86695
 C1716 C 0.74784 0.73301 0.85144
 C1717 C 0.76013 0.71177 0.86110
 H1718 H 0.72667 0.73543 0.94590
 H1719 H 0.73270 0.70658 0.98035
 H1720 H 0.77531 0.65697 0.93562
 H1721 H 0.72374 0.75609 0.90337
 H1722 H 0.72521 0.76535 0.86002
 H1723 H 0.77001 0.69888 0.84990
 C1724 C 0.24688 0.18974 0.41744
 C1725 C 0.24108 0.16902 0.40377
 C1726 C 0.24324 0.14407 0.41154
 C1727 C 0.25055 0.14006 0.43486
 C1728 C 0.25430 0.16072 0.45061
 C1729 C 0.25316 0.18619 0.44148
 O1730 O 0.24571 0.21177 0.40525
 C1731 C 0.23869 0.20452 0.38365
 C1732 C 0.23506 0.17853 0.38230
 C1733 C 0.22779 0.16625 0.36186
 C1734 C 0.22539 0.18119 0.34137
 C1735 C 0.23100 0.20781 0.34138
 C1736 C 0.23691 0.21997 0.36302
 H1737 H 0.23947 0.12817 0.40001
 H1738 H 0.25183 0.12052 0.44122
 H1739 H 0.25643 0.20250 0.45257
 H1740 H 0.22488 0.14574 0.36149
 H1741 H 0.22092 0.17173 0.32496
 H1742 H 0.24186 0.24014 0.36337
 C1743 C 0.73521 0.30501 0.41310
 C1744 C 0.75264 0.28648 0.41426
 C1745 C 0.76792 0.28314 0.43359
 C1746 C 0.76493 0.29928 0.45274
 C1747 C 0.74635 0.31804 0.45285
 C1748 C 0.73144 0.32110 0.43237
 O1749 O 0.72377 0.30574 0.39227
 C1750 C 0.73419 0.28719 0.38025
 C1751 C 0.75177 0.27472 0.39308
 C1752 C 0.76533 0.25499 0.38402
 C1753 C 0.76101 0.24807 0.36049
 C1754 C 0.74361 0.26111 0.34636
 C1755 C 0.72973 0.28077 0.35664
 H1756 H 0.78193 0.26883 0.43381
 H1757 H 0.77703 0.29700 0.46782
 H1758 H 0.71765 0.33553 0.43116
 H1759 H 0.77912 0.24555 0.39455
 H1760 H 0.77199 0.23320 0.35306
 H1761 H 0.71647 0.29130 0.34638
 C1762 C 0.23522 0.80926 0.91486
 C1763 C 0.24369 0.78513 0.91866
 C1764 C 0.25069 0.77632 0.94093
 C1765 C 0.24881 0.79297 0.96005
 C1766 C 0.23954 0.81793 0.95682
 C1767 C 0.23311 0.82608 0.93358
 O1768 O 0.23074 0.81445 0.89220
 C1769 C 0.23650 0.79314 0.88145
 C1770 C 0.24454 0.77457 0.89679
 C1771 C 0.25240 0.75112 0.88904
 C1772 C 0.25209 0.74672 0.86449
 C1773 C 0.24403 0.76569 0.84823
 C1774 C 0.23592 0.78916 0.85708
 H1775 H 0.25796 0.75750 0.94342
 H1776 H 0.25538 0.78650 0.97711
 H1777 H 0.22731 0.84530 0.92996
 H1778 H 0.25887 0.73684 0.90141
 H1779 H 0.25843 0.72869 0.85818
 H1780 H 0.22993 0.80426 0.84532
 C1781 C 0.23353 0.80702 0.07658
 C1782 C 0.22001 0.82350 0.08973
 C1783 C 0.21360 0.84737 0.08123
 C1784 C 0.22105 0.85453 0.05803
 C1785 C 0.23411 0.83762 0.04333
 C1786 C 0.24033 0.81334 0.05300
 O1787 O 0.23959 0.78624 0.08892
 C1788 C 0.22940 0.78964 0.11027
 C1789 C 0.21687 0.81201 0.11141
 C1790 C 0.20542 0.82007 0.13200
 C1791 C 0.20774 0.80500 0.15257
 C1792 C 0.22163 0.78253 0.15244
 C1793 C 0.23220 0.77432 0.13082
 H1794 H 0.20337 0.86020 0.09218
 H1795 H 0.21539 0.87282 0.05140
 H1796 H 0.25093 0.80011 0.04281
 H1797 H 0.19577 0.83781 0.13244
 H1798 H 0.19995 0.81165 0.16907
 H1799 H 0.24360 0.75774 0.13040
 C1800 C 0.74144 0.31287 0.58330
 C1801 C 0.73018 0.28894 0.58288
 C1802 C 0.72180 0.27805 0.56215
 C1803 C 0.72540 0.29218 0.54094
 C1804 C 0.73748 0.31697 0.54041
 C1805 C 0.74518 0.32746 0.56236
 O1806 O 0.74861 0.31939 0.60489
 C1807 C 0.74170 0.29912 0.61826
 C1808 C 0.73032 0.27992 0.60569
 C1809 C 0.72227 0.25672 0.61618
 C1810 C 0.72621 0.25313 0.64066
 C1811 C 0.73798 0.27265 0.65408
 C1812 C 0.74566 0.29603 0.64253
 H1813 H 0.71277 0.25925 0.56226
 H1814 H 0.71790 0.28366 0.52514
 H1815 H 0.75493 0.34579 0.56333
 H1816 H 0.71350 0.24181 0.60584
 H1817 H 0.72024 0.23515 0.64905
 H1818 H 0.75493 0.31133 0.65201
 C1819 C 0.26215 0.18424 0.58316
 C1820 C 0.27736 0.20583 0.58080
 C1821 C 0.28672 0.21475 0.55892
 C1822 C 0.28031 0.20081 0.53868
 C1823 C 0.26474 0.17831 0.54050
 C1824 C 0.25552 0.17005 0.56323
 O1825 O 0.25534 0.17898 0.60557
 C1826 C 0.26653 0.19763 0.61760
 C1827 C 0.28026 0.21453 0.60328
 C1828 C 0.29363 0.23537 0.61222
 C1829 C 0.29275 0.23900 0.63689
 C1830 C 0.27863 0.22195 0.65222
 C1831 C 0.26535 0.20090 0.64221
 H1832 H 0.29877 0.23172 0.55748
 H1833 H 0.28809 0.20728 0.52171
 H1834 H 0.24349 0.15314 0.56541
 H1835 H 0.30437 0.24841 0.60061
 H1836 H 0.30305 0.25521 0.64397
 H1837 H 0.25439 0.18742 0.65321
 C1838 C 0.75836 0.68962 0.08242
 C1839 C 0.77147 0.67290 0.09603
 C1840 C 0.77769 0.64899 0.08830
 C1841 C 0.77079 0.64223 0.06531
 C1842 C 0.75847 0.65953 0.05009
 C1843 C 0.75172 0.68348 0.05917
 O1844 O 0.75294 0.71072 0.09389
 C1845 C 0.76307 0.70724 0.11512
 C1846 C 0.77488 0.68447 0.11713
 C1847 C 0.78610 0.67635 0.13789
 C1848 C 0.78433 0.69187 0.15772
 C1849 C 0.77145 0.71494 0.15656
 C1850 C 0.76105 0.72307 0.13481
 H1851 H 0.78752 0.63593 0.09961
 H1852 H 0.77603 0.62374 0.05934
 H1853 H 0.74166 0.69696 0.04852
 H1854 H 0.79510 0.65825 0.13904
 H1855 H 0.79175 0.68522 0.17445
 H1856 H 0.75030 0.74010 0.13373
 C1857 C 0.15449 0.57956 0.25628
 C1858 C 0.16566 0.58010 0.23418
 C1859 C 0.16417 0.55958 0.21905
 C1860 C 0.15012 0.53783 0.22671
 C1861 C 0.13727 0.53686 0.24901
 C1862 C 0.14002 0.55812 0.26421
 O1863 O 0.15835 0.60120 0.26786
 C1864 C 0.17207 0.61570 0.25262
 C1865 C 0.17682 0.60374 0.23166
 C1866 C 0.18995 0.61572 0.21284
 C1867 C 0.19884 0.64097 0.21582
 C1868 C 0.19491 0.65361 0.23751
 C1869 C 0.18124 0.64069 0.25618
 H1870 H 0.17325 0.56040 0.20177
 H1871 H 0.14839 0.52192 0.21481
 H1872 H 0.13081 0.55860 0.28131
 H1873 H 0.19320 0.60599 0.19640
 H1874 H 0.20931 0.65045 0.20143
 H1875 H 0.17774 0.64987 0.27287
 C1876 C 0.67670 0.08624 0.74537
 C1877 C 0.69538 0.08171 0.76116
 C1878 C 0.69583 0.05952 0.77507
 C1879 C 0.67648 0.04107 0.77229
 C1880 C 0.65723 0.04472 0.75556
 C1881 C 0.65725 0.06820 0.74238
 O1882 O 0.67904 0.10907 0.73470
 C1883 C 0.69971 0.11919 0.74394
 C1884 C 0.71040 0.10320 0.76023
 C1885 C 0.73151 0.11034 0.77285
 C1886 C 0.74171 0.13511 0.76889
 C1887 C 0.73084 0.15228 0.75248
 C1888 C 0.70980 0.14386 0.73945
 H1889 H 0.71041 0.05664 0.78784
 H1890 H 0.67642 0.02395 0.78335
 H1891 H 0.64239 0.07300 0.73057
 H1892 H 0.73951 0.09752 0.78571
 H1893 H 0.75781 0.14108 0.77905
 H1894 H 0.70087 0.15646 0.72709
 C1895 C 0.83882 0.08082 0.25337
 C1896 C 0.85600 0.10083 0.25463
 C1897 C 0.88144 0.09788 0.25296
 C1898 C 0.88974 0.07324 0.25023
 C1899 C 0.87285 0.05164 0.24952
 C1900 C 0.84675 0.05564 0.25095
 O1901 O 0.81540 0.08849 0.25445
 C1902 C 0.81811 0.11375 0.25653
 C1903 C 0.84268 0.12206 0.25689
 C1904 C 0.85019 0.14760 0.25836
 C1905 C 0.83159 0.16555 0.25912
 C1906 C 0.80610 0.15782 0.25866
 C1907 C 0.79913 0.13151 0.25729
 H1908 H 0.89452 0.11404 0.25369
 H1909 H 0.90967 0.07084 0.24908
 H1910 H 0.83313 0.04000 0.25038
 H1911 H 0.86971 0.15357 0.25827
 H1912 H 0.83705 0.18563 0.25904
 H1913 H 0.77975 0.12525 0.25611
 C1914 C 0.34156 0.58704 0.74705
 C1915 C 0.32720 0.58419 0.76736
 C1916 C 0.32755 0.56251 0.78191
 C1917 C 0.34387 0.54335 0.77566
 C1918 C 0.35998 0.54617 0.75541
 C1919 C 0.35813 0.56832 0.74059
 O1920 O 0.33864 0.60923 0.73579
 C1921 C 0.32223 0.62070 0.74939
 C1922 C 0.31479 0.60630 0.76905
 C1923 C 0.29855 0.61517 0.78621
 C1924 C 0.28942 0.63976 0.78283
 C1925 C 0.29629 0.65479 0.76238
 C1926 C 0.31301 0.64499 0.74545
 H1927 H 0.31602 0.56060 0.79778
 H1928 H 0.34483 0.52668 0.78723
 H1929 H 0.36958 0.57177 0.72494
 H1930 H 0.29319 0.60363 0.80170
 H1931 H 0.27660 0.64686 0.79591
 H1932 H 0.31884 0.65604 0.72977
 C1933 C 0.35858 0.41437 0.75028
 C1934 C 0.37285 0.40289 0.73338
 C1935 C 0.39240 0.41584 0.72127
 C1936 C 0.39739 0.44156 0.72679
 C1937 C 0.38267 0.45395 0.74385
 C1938 C 0.36291 0.44007 0.75570
 O1939 O 0.34121 0.39866 0.76005
 C1940 C 0.34447 0.37686 0.74903
 C1941 C 0.36344 0.37839 0.73238
 C1942 C 0.36946 0.35779 0.71842
 C1943 C 0.35537 0.33474 0.72176
 C1944 C 0.33602 0.33257 0.73916
 C1945 C 0.33063 0.35406 0.75296
 H1946 H 0.40347 0.40647 0.70809
 H1947 H 0.41245 0.45196 0.71744
 H1948 H 0.35149 0.44893 0.76893
 H1949 H 0.38435 0.35944 0.70528
 H1950 H 0.35970 0.31855 0.71103
 H1951 H 0.31576 0.35322 0.76615
 C1952 C 0.84228 0.92076 0.24375
 C1953 C 0.85694 0.90532 0.23051
 C1954 C 0.88035 0.91314 0.22191
 C1955 C 0.88926 0.93774 0.22733
 C1956 C 0.87471 0.95456 0.24092
 C1957 C 0.85046 0.94586 0.24875
 O1958 O 0.82109 0.90894 0.25114
 C1959 C 0.82247 0.88568 0.24220
 C1960 C 0.84395 0.88266 0.22921
 C1961 C 0.84932 0.85997 0.21820
 C1962 C 0.83193 0.83941 0.22075
 C1963 C 0.80984 0.84161 0.23454
 C1964 C 0.80507 0.86522 0.24540
 H1965 H 0.89153 0.90061 0.21151
 H1966 H 0.90727 0.94376 0.21996
 H1967 H 0.83881 0.95772 0.25938
 H1968 H 0.86640 0.85811 0.20806
 H1969 H 0.83601 0.82154 0.21250
 H1970 H 0.78840 0.86754 0.25602
 C1971 C 0.65620 0.91406 0.74956
 C1972 C 0.64186 0.90018 0.76601
 C1973 C 0.62168 0.91040 0.77777
 C1974 C 0.61629 0.93595 0.77254
 C1975 C 0.63127 0.95082 0.75613
 C1976 C 0.65142 0.93956 0.74439
 O1977 O 0.67452 0.90095 0.74037
 C1978 C 0.67183 0.87836 0.75134
 C1979 C 0.65230 0.87686 0.76739
 C1980 C 0.64700 0.85513 0.78150
 C1981 C 0.66242 0.83417 0.77889
 C1982 C 0.68234 0.83517 0.76207
 C1983 C 0.68697 0.85765 0.74811
 H1984 H 0.61063 0.89920 0.79066
 H1985 H 0.60098 0.94439 0.78186
 H1986 H 0.66316 0.95041 0.73178
 H1987 H 0.63172 0.85443 0.79424
 H1988 H 0.65872 0.81713 0.78973
 H1989 H 0.70229 0.85919 0.73542
 C1990 C 0.15301 0.40697 0.25161
 C1991 C 0.14082 0.39183 0.26863
 C1992 C 0.12065 0.40002 0.28175
 C1993 C 0.11268 0.42481 0.27718
 C1994 C 0.12499 0.44098 0.25986
 C1995 C 0.14554 0.43185 0.24694
 O1996 O 0.17171 0.39544 0.24112
 C1997 C 0.17136 0.37259 0.25182
 C1998 C 0.15289 0.36947 0.26887
 C1999 C 0.14947 0.34720 0.28254
 C2000 C 0.16576 0.32735 0.27853
 C2001 C 0.18491 0.32992 0.26091
 C2002 C 0.18759 0.35295 0.24730
 H2003 H 0.11140 0.38780 0.29511
 H2004 H 0.09724 0.43157 0.28755
 H2005 H 0.15527 0.44367 0.23356
 H2006 H 0.13484 0.34522 0.29592
 H2007 H 0.16329 0.30988 0.28902
 H2008 H 0.20209 0.35565 0.23386
 C2009 C 0.09929 0.25700 0.82061
 C2010 C 0.11435 0.25487 0.84004
 C2011 C 0.10528 0.24988 0.86283
 C2012 C 0.07948 0.24760 0.86582
 C2013 C 0.06330 0.25070 0.84623
 C2014 C 0.07357 0.25486 0.82313
 O2015 O 0.11185 0.25975 0.80028
 C2016 C 0.13535 0.25932 0.80709
 C2017 C 0.13779 0.25647 0.83130
 C2018 C 0.16048 0.25366 0.84231
 C2019 C 0.18155 0.25304 0.82766
 C2020 C 0.17938 0.25523 0.80264
 C2021 C 0.15613 0.25917 0.79217
 H2022 H 0.11761 0.24752 0.87771
 H2023 H 0.07198 0.24358 0.88350
 H2024 H 0.06233 0.25587 0.80742
 H2025 H 0.16181 0.25112 0.86136
 H2026 H 0.19947 0.25009 0.83570
 H2027 H 0.15410 0.26029 0.77308
 C2028 C 0.57579 0.75921 0.32538
 C2029 C 0.57196 0.77122 0.30391
 C2030 C 0.54959 0.78195 0.29798
 C2031 C 0.53013 0.77969 0.31473
 C2032 C 0.53327 0.76635 0.33668
 C2033 C 0.55684 0.75683 0.34226
 O2034 O 0.59852 0.75059 0.32763
 C2035 C 0.60926 0.75725 0.30705
 C2036 C 0.59380 0.76994 0.29193
 C2037 C 0.60121 0.77871 0.26948
 C2038 C 0.62570 0.77436 0.26237
 C2039 C 0.64211 0.76146 0.27775
 C2040 C 0.63362 0.75266 0.30038
 H2041 H 0.54724 0.79179 0.28113
 H2042 H 0.51283 0.78855 0.31051
 H2043 H 0.56033 0.74761 0.35919
 H2044 H 0.58866 0.78861 0.25792
 H2045 H 0.63184 0.78119 0.24492
 H2046 H 0.64565 0.74292 0.31258
 C2047 C 0.59265 0.24969 0.14458
 C2048 C 0.59907 0.22458 0.14432
 C2049 C 0.58253 0.20486 0.13846
 C2050 C 0.55831 0.21130 0.13266
 C2051 C 0.55122 0.23717 0.13239
 C2052 C 0.56880 0.25656 0.13863
 O2053 O 0.60982 0.26497 0.15405
 C2054 C 0.62735 0.24912 0.16013
 C2055 C 0.62167 0.22417 0.15450
 C2056 C 0.63556 0.20386 0.16216
 C2057 C 0.65584 0.20948 0.17667
 C2058 C 0.66167 0.23499 0.18303
 C2059 C 0.64779 0.25519 0.17407
 H2060 H 0.58768 0.18512 0.13953
 H2061 H 0.54485 0.19595 0.12940
 H2062 H 0.56379 0.27616 0.14062
 H2063 H 0.63026 0.18435 0.15809
 H2064 H 0.66660 0.19394 0.18351
 H2065 H 0.65153 0.27467 0.17937
 C2066 C 0.08725 0.75668 0.66280
 C2067 C 0.10335 0.76711 0.64578
 C2068 C 0.09559 0.77572 0.62377
 C2069 C 0.07009 0.77356 0.61914
 C2070 C 0.05289 0.76363 0.63676
 C2071 C 0.06189 0.75454 0.65870
 O2072 O 0.09849 0.74919 0.68237
 C2073 C 0.12221 0.75513 0.67759
 C2074 C 0.12618 0.76615 0.65544
 C2075 C 0.14958 0.77416 0.64690
 C2076 C 0.16973 0.77098 0.66204
 C2077 C 0.16600 0.75980 0.68505
 C2078 C 0.14192 0.75151 0.69279
 H2079 H 0.10873 0.78336 0.61049
 H2080 H 0.06400 0.77909 0.60162
 H2081 H 0.04965 0.74557 0.67207
 H2082 H 0.15219 0.78279 0.62939
 H2083 H 0.18816 0.77731 0.65587
 H2084 H 0.13850 0.74314 0.71031
 C2085 C 0.91893 0.75599 0.67188
 C2086 C 0.91944 0.77913 0.68292
 C2087 C 0.94083 0.79472 0.68434
 C2088 C 0.96248 0.78639 0.67329
 C2089 C 0.96212 0.76293 0.66120
 C2090 C 0.94016 0.74737 0.66082
 O2091 O 0.89673 0.74408 0.67263
 C2092 C 0.88288 0.76014 0.68433
 C2093 C 0.89589 0.78192 0.69086
 C2094 C 0.88511 0.80130 0.70327
 C2095 C 0.86004 0.79769 0.70993
 C2096 C 0.84642 0.77491 0.70420
 C2097 C 0.85791 0.75615 0.69068
 H2098 H 0.94071 0.81286 0.69314
 H2099 H 0.97909 0.79874 0.67316
 H2100 H 0.93944 0.72947 0.65156
 H2101 H 0.89573 0.81832 0.70806
 H2102 H 0.85150 0.81236 0.72017
 H2103 H 0.84816 0.73848 0.68624
 C2104 C 0.42302 0.23717 0.17993
 C2105 C 0.42726 0.25254 0.19908
 C2106 C 0.45085 0.26233 0.20473
 C2107 C 0.47062 0.25700 0.18930
 C2108 C 0.46614 0.24234 0.16885
 C2109 C 0.44230 0.23145 0.16468
 O2110 O 0.39917 0.23138 0.17651
 C2111 C 0.38802 0.24351 0.19373
 C2112 C 0.40430 0.25681 0.20801
 C2113 C 0.39638 0.27216 0.22619
 C2114 C 0.37063 0.27328 0.23015
 C2115 C 0.35351 0.25921 0.21591
 C2116 C 0.36248 0.24436 0.19727
 H2117 H 0.45367 0.27471 0.21967
 H2118 H 0.48885 0.26582 0.19224
 H2119 H 0.43845 0.22061 0.14889
 H2120 H 0.40951 0.28283 0.23692
 H2121 H 0.36415 0.28475 0.24457
 H2122 H 0.35004 0.23348 0.18599
 C2123 C 0.40210 0.76515 0.34094
 C2124 C 0.39793 0.73985 0.33567
 C2125 C 0.41512 0.72123 0.33989
 C2126 C 0.43784 0.72911 0.34957
 C2127 C 0.44260 0.75503 0.35498
 C2128 C 0.42451 0.77333 0.35093
 O2129 O 0.38428 0.78000 0.33328
 C2130 C 0.36870 0.76373 0.32278
 C2131 C 0.37633 0.73897 0.32380
 C2132 C 0.36434 0.71912 0.31215
 C2133 C 0.34357 0.72501 0.29878
 C2134 C 0.33527 0.75036 0.29742
 C2135 C 0.34772 0.76998 0.30990
 H2136 H 0.41163 0.70163 0.33489
 H2137 H 0.45217 0.71531 0.35190
 H2138 H 0.42836 0.79336 0.35413
 H2139 H 0.37106 0.69993 0.31287
 H2140 H 0.33391 0.70979 0.28951
 H2141 H 0.34188 0.78950 0.30880
 C2142 C 0.93275 0.28067 0.81957
 C2143 C 0.93764 0.28489 0.79583
 C2144 C 0.96025 0.27953 0.78524
 C2145 C 0.97862 0.26947 0.79974
 C2146 C 0.97429 0.26506 0.82456
 C2147 C 0.95082 0.27130 0.83441
 O2148 O 0.90908 0.28339 0.82556
 C2149 C 0.89868 0.28921 0.80507
 C2150 C 0.91548 0.29069 0.78635
 C2151 C 0.90832 0.29319 0.76287
 C2152 C 0.88276 0.29278 0.75841
 C2153 C 0.86514 0.28966 0.77734
 C2154 C 0.87316 0.28918 0.80105
 H2155 H 0.96327 0.28192 0.76628
 H2156 H 0.99567 0.26413 0.79109
 H2157 H 0.94605 0.26905 0.85299
 H2158 H 0.92183 0.29371 0.74843
 H2159 H 0.87668 0.29313 0.74015
 H2160 H 0.86007 0.28579 0.81566
 C2161 C 0.57817 1.01195 0.66742
 C2162 C 0.55333 1.01595 0.67158
 C2163 C 0.54281 1.01505 0.69435
 C2164 C 0.55870 1.01060 0.71359
 C2165 C 0.58453 1.00755 0.70969
 C2166 C 0.59426 1.00783 0.68623
 O2167 O 0.58451 1.01332 0.64457
 C2168 C 0.56327 1.01848 0.63401
 C2169 C 0.54365 1.02060 0.64971
 C2170 C 0.51986 1.02651 0.64235
 C2171 C 0.51600 1.02961 0.61782
 C2172 C 0.53571 1.02642 0.60118
 C2173 C 0.55979 1.02115 0.60958
 H2174 H 0.52319 1.01813 0.69724
 H2175 H 0.55120 1.01083 0.73150
 H2176 H 0.61397 1.00574 0.68281
 H2177 H 0.50472 1.02831 0.65500
 H2178 H 0.49739 1.03336 0.61178
 H2179 H 0.57523 1.01852 0.59744
 C2180 C 0.04718 0.47322 1.18339
 C2181 C 0.02594 0.48669 1.18692
 C2182 C 0.02193 0.50062 1.20731
 C2183 C 0.04075 0.50101 1.22443
 C2184 C 0.06285 0.48762 1.22080
 C2185 C 0.06595 0.47320 1.20024
 O2186 O 0.04842 0.46297 1.16215
 C2187 C 0.02764 0.47019 1.15197
 C2188 C 0.01316 0.48472 1.16628
 C2189 C -0.00844 0.49585 1.15828
 C2190 C -0.01514 0.49209 1.13450
 C2191 C -0.00018 0.47750 1.11930
 C2192 C 0.02126 0.46606 1.12850
 H2193 H 0.00535 0.51150 1.20954
 H2194 H 0.03859 0.51243 1.24008
 H2195 H 0.08306 0.46349 1.19688
 H2196 H -0.01932 0.50762 1.16971
 H2197 H -0.03149 0.50118 1.12780
 H2198 H 0.03343 0.45516 1.11746
 C2199 C -0.06334 -0.00266 1.16123
 C2200 C -0.04196 -0.01606 1.16370
 C2201 C -0.03317 -0.02360 1.18583
 C2202 C -0.04697 -0.01703 1.20611
 C2203 C -0.06898 -0.00301 1.20396
 C2204 C -0.07721 0.00409 1.18104
 O2205 O -0.06867 0.00275 1.13882
 C2206 C -0.05024 -0.00736 1.12679
 C2207 C -0.03332 -0.01910 1.14107
 C2208 C -0.01240 -0.03059 1.13188
 C2209 C -0.00874 -0.02974 1.10705
 C2210 C -0.02596 -0.01761 1.09196
 C2211 C -0.04708 -0.00644 1.10221
 H2212 H -0.01630 -0.03414 1.18745
 H2213 H -0.04033 -0.02265 1.22342
 H2214 H -0.09420 0.01422 1.17853
 H2215 H 0.00076 -0.03968 1.14340
 H2216 H 0.00754 -0.03840 1.09965
 H2217 H -0.06057 0.00317 1.09144
 C2218 C 0.44976 0.52134 0.67065
 C2219 C 0.47201 0.51004 0.67496
 C2220 C 0.47756 0.49944 0.69698
 C2221 C 0.45953 0.50061 0.71520
 C2222 C 0.43635 0.51222 0.71124
 C2223 C 0.43161 0.52268 0.68842
 O2224 O 0.44754 0.52930 0.64834
 C2225 C 0.46881 0.52287 0.63832
 C2226 C 0.48453 0.51102 0.65374
 C2227 C 0.50728 0.50167 0.64640
 C2228 C 0.51379 0.50424 0.62214
 C2229 C 0.49756 0.51600 0.60584
 C2230 C 0.47497 0.52584 0.61438
 H2231 H 0.49507 0.49038 0.69999
 H2232 H 0.46386 0.49242 0.73228
 H2233 H 0.41401 0.53094 0.68419
 H2234 H 0.51928 0.49214 0.65877
 H2235 H 0.53101 0.49634 0.61599
 H2236 H 0.46187 0.53465 0.60259
 C2237 C 0.44048 0.50717 -0.16458
 C2238 C 0.46569 0.50665 -0.16918
 C2239 C 0.47536 0.50506 -0.19214
 C2240 C 0.45837 0.50450 -0.21101
 C2241 C 0.43238 0.50569 -0.20658
 C2242 C 0.42342 0.50667 -0.18294
 O2243 O 0.43488 0.50879 -0.14174
 C2244 C 0.45700 0.50940 -0.13159
 C2245 C 0.47657 0.50827 -0.14747
 C2246 C 0.50134 0.50894 -0.14026
 C2247 C 0.50598 0.51034 -0.11572
 C2248 C 0.48592 0.51088 -0.09907
 C2249 C 0.46114 0.51075 -0.10737
 H2250 H 0.49524 0.50472 -0.19545
 H2251 H 0.46552 0.50425 -0.22898
 H2252 H 0.40368 0.50754 -0.17896
 H2253 H 0.51652 0.50814 -0.15301
 H2254 H 0.52506 0.51032 -0.10972
 H2255 H 0.44531 0.51128 -0.09531
 C2256 C -0.05637 0.99993 0.32968
 C2257 C -0.03143 0.99791 0.32442
 C2258 C -0.02282 0.99420 0.30130
 C2259 C -0.04053 0.99345 0.28297
 C2260 C -0.06616 0.99655 0.28810
 C2261 C -0.07410 0.99915 0.31191
 O2262 O -0.06099 1.00381 0.35243
 C2263 C -0.03852 1.00439 0.36187
 C2264 C -0.01965 1.00102 0.34563
 C2265 C 0.00537 1.00151 0.35212
 C2266 C 0.01095 1.00491 0.37632
 C2267 C -0.00843 1.00765 0.39340
 C2268 C -0.03345 1.00780 0.38575
 H2269 H -0.00314 0.99271 0.29742
 H2270 H -0.03418 0.99191 0.26478
 H2271 H -0.09352 1.00176 0.31635
 H2272 H 0.02003 0.99901 0.33911
 H2273 H 0.03019 1.00455 0.38182
 H2274 H -0.04878 1.00994 0.39814
 C2275 C 0.06219 0.48172 0.34177
 C2276 C 0.03807 0.47337 0.33736
 C2277 C 0.02907 0.47111 0.31442
 C2278 C 0.04561 0.47743 0.29545
 C2279 C 0.07049 0.48622 0.29969
 C2280 C 0.07877 0.48848 0.32324
 O2281 O 0.06706 0.48309 0.36468
 C2282 C 0.04561 0.47563 0.37498
 C2283 C 0.02713 0.46947 0.35924
 C2284 C 0.00284 0.46256 0.36671
 C2285 C -0.00269 0.46291 0.39130
 C2286 C 0.01606 0.47001 0.40770
 C2287 C 0.04072 0.47551 0.39918
 H2288 H 0.01003 0.46470 0.31123
 H2289 H 0.03898 0.47571 0.27746
 H2290 H 0.09769 0.49489 0.32703
 H2291 H -0.01155 0.45803 0.35403
 H2292 H -0.02167 0.45890 0.39736
 H2293 H 0.05564 0.48116 0.41095
 C2294 C 0.56941 -0.00024 -0.16504
 C2295 C 0.54639 -0.01108 -0.17001
 C2296 C 0.53916 -0.01633 -0.19310
 C2297 C 0.55637 -0.01036 -0.21166
 C2298 C 0.58034 0.00072 -0.20696
 C2299 C 0.58677 0.00579 -0.18314
 O2300 O 0.57260 0.00383 -0.14211
 C2301 C 0.55114 -0.00455 -0.13234
 C2302 C 0.53440 -0.01398 -0.14851
 C2303 C 0.51055 -0.02315 -0.14180
 C2304 C 0.50358 -0.02200 -0.11760
 C2305 C 0.52039 -0.01168 -0.10072
 C2306 C 0.54470 -0.00334 -0.10839
 H2307 H 0.52089 -0.02464 -0.19673
 H2308 H 0.55080 -0.01416 -0.22965
 H2309 H 0.60491 0.01381 -0.17863
 H2310 H 0.49757 -0.03043 -0.15479
 H2311 H 0.48489 -0.02830 -0.11222
 H2312 H 0.55812 0.00476 -0.09621
 C2313 C 0.67051 0.58798 -0.01042
 C2314 C 0.67572 0.56420 -0.00159
 C2315 C 0.69888 0.55860 0.00767
 C2316 C 0.71750 0.57821 0.00755
 C2317 C 0.71269 0.60297 -0.00152
 C2318 C 0.68864 0.60777 -0.01050
 O2319 O 0.64717 0.58963 -0.01775
 C2320 C 0.63735 0.56635 -0.01345
 C2321 C 0.65405 0.55007 -0.00352
 C2322 C 0.64732 0.52522 0.00370
 C2323 C 0.62229 0.51708 0.00115
 C2324 C 0.60466 0.53355 -0.00885
 C2325 C 0.61243 0.55842 -0.01667
 H2326 H 0.70254 0.53974 0.01463
 H2327 H 0.73575 0.57386 0.01410
 H2328 H 0.68395 0.62647 -0.01712
 H2329 H 0.66064 0.51287 0.01183
 H2330 H 0.61638 0.49822 0.00766
 H2331 H 0.59916 0.57167 -0.02352
 C2332 C 0.17202 1.09144 0.50271
 C2333 C 0.17941 1.06665 0.50402
 C2334 C 0.20347 1.06042 0.51060
 C2335 C 0.22096 1.08061 0.51449
 C2336 C 0.21408 1.10632 0.51178
 C2337 C 0.18889 1.11162 0.50700
 O2338 O 0.14875 1.09356 0.49537
 C2339 C 0.14119 1.06959 0.49181
 C2340 C 0.15923 1.05233 0.49674
 C2341 C 0.15509 1.02617 0.49421
 C2342 C 0.13113 1.01748 0.48742
 C2343 C 0.11206 1.03489 0.48287
 C2344 C 0.11740 1.06136 0.48466
 H2345 H 0.20896 1.04079 0.51141
 H2346 H 0.24025 1.07627 0.51747
 H2347 H 0.18324 1.13105 0.50417
 H2348 H 0.16945 1.01287 0.49823
 H2349 H 0.12696 0.99713 0.48706
 H2350 H 0.10291 1.07499 0.48235
 C2351 C 0.15785 -0.09018 0.98928
 C2352 C 0.16001 -0.07448 1.00838
 C2353 C 0.18097 -0.07366 1.02252
 C2354 C 0.20035 -0.08992 1.01709
 C2355 C 0.19852 -0.10744 0.99808
 C2356 C 0.17677 -0.10692 0.98374
 O2357 O 0.13638 -0.08788 0.97798
 C2358 C 0.12471 -0.07046 0.99038
 C2359 C 0.13831 -0.06182 1.00930
 C2360 C 0.12920 -0.04443 1.02530
 C2361 C 0.10508 -0.03563 1.02169
 C2362 C 0.09078 -0.04381 1.00206
 C2363 C 0.10088 -0.06141 0.98608
 H2364 H 0.18241 -0.06085 1.03731
 H2365 H 0.21651 -0.08853 1.02814
 H2366 H 0.17408 -0.11925 0.96882
 H2367 H 0.14012 -0.03816 1.04025
 H2368 H 0.09759 -0.02228 1.03408
 H2369 H 0.09024 -0.06835 0.97119
 C2370 C 0.67003 0.41209 0.49960
 C2371 C 0.66601 0.41402 0.52363
 C2372 C 0.67957 0.40065 0.54027
 C2373 C 0.69812 0.38480 0.53190
 C2374 C 0.70326 0.38271 0.50718
 C2375 C 0.68871 0.39662 0.49082
 O2376 O 0.65431 0.42561 0.48682
 C2377 C 0.64015 0.43628 0.50316
 C2378 C 0.64664 0.42990 0.52597
 C2379 C 0.63395 0.43852 0.54578
 C2380 C 0.61347 0.45400 0.54197
 C2381 C 0.60587 0.46050 0.51861
 C2382 C 0.61978 0.45164 0.49894
 H2383 H 0.67571 0.40203 0.55910
 H2384 H 0.70795 0.37374 0.54491
 H2385 H 0.69183 0.39556 0.47187
 H2386 H 0.63935 0.43314 0.56357
 H2387 H 0.60311 0.46025 0.55726
 H2388 H 0.61450 0.45589 0.48085
 C2389 C -0.16743 0.39757 0.49864
 C2390 C -0.17275 0.41881 0.51130
 C2391 C -0.19614 0.42247 0.52134
 C2392 C -0.21499 0.40364 0.51790
 C2393 C -0.21023 0.38152 0.50473
 C2394 C -0.18584 0.37846 0.49521
 O2395 O -0.14401 0.39789 0.49047
 C2396 C -0.13432 0.41989 0.49816
 C2397 C -0.15121 0.43333 0.51101
 C2398 C -0.14516 0.45666 0.52101
 C2399 C -0.12063 0.46639 0.51803
 C2400 C -0.10256 0.45296 0.50508
 C2401 C -0.10969 0.42944 0.49467
 H2402 H -0.19988 0.43946 0.53116
 H2403 H -0.23345 0.40684 0.52488
 H2404 H -0.18128 0.36179 0.48528
 H2405 H -0.15877 0.46689 0.53103
 H2406 H -0.11566 0.48445 0.52602
 H2407 H -0.09635 0.41859 0.48491
 C2408 C 0.32822 -0.09385 -0.01434
 C2409 C 0.32206 -0.06931 -0.00947
 C2410 C 0.29804 -0.06286 -0.00290
 C2411 C 0.27944 -0.08242 -0.00162
 C2412 C 0.28502 -0.10788 -0.00701
 C2413 C 0.30991 -0.11362 -0.01337
 O2414 O 0.35239 -0.09596 -0.01939
 C2415 C 0.36168 -0.07216 -0.01775
 C2416 C 0.34374 -0.05520 -0.01185
 C2417 C 0.34915 -0.02948 -0.00850
 C2418 C 0.37412 -0.02093 -0.01063
 C2419 C 0.39327 -0.03793 -0.01603
 C2420 C 0.38690 -0.06395 -0.02013
 H2421 H 0.29374 -0.04339 0.00105
 H2422 H 0.26057 -0.07757 0.00293
 H2423 H 0.31487 -0.13289 -0.01735
 H2424 H 0.33474 -0.01654 -0.00376
 H2425 H 0.37873 -0.00106 -0.00723
 H2426 H 0.40116 -0.07750 -0.02365
 C2427 C 0.34061 1.09185 0.50506
 C2428 C 0.34841 1.09699 0.52767
 C2429 C 0.33384 1.10994 0.54375
 C2430 C 0.31061 1.11835 0.53605
 C2431 C 0.30234 1.11379 0.51260
 C2432 C 0.31756 1.09988 0.49710
 O2433 O 0.35738 1.07989 0.49230
 C2434 C 0.37623 1.07748 0.50713
 C2435 C 0.37178 1.08764 0.52901
 C2436 C 0.38939 1.08758 0.54697
 C2437 C 0.41238 1.07646 0.54223
 C2438 C 0.41743 1.06566 0.51980
 C2439 C 0.39889 1.06634 0.50205
 H2440 H 0.34038 1.11397 0.56143
 H2441 H 0.29966 1.12936 0.54809
 H2442 H 0.31194 1.09594 0.47912
 H2443 H 0.38559 1.09582 0.56403
 H2444 H 0.42614 1.07616 0.55611
 H2445 H 0.40191 1.05840 0.48471
 C2446 C -0.16998 0.57860 1.00705
 C2447 C -0.15758 0.58916 1.02593
 C2448 C -0.16433 0.61191 1.03599
 C2449 C -0.18495 0.62402 1.02652
 C2450 C -0.19887 0.61292 1.00794
 C2451 C -0.19107 0.59005 0.99777
 O2452 O -0.15962 0.55762 0.99934
 C2453 C -0.14041 0.55482 1.01376
 C2454 C -0.13855 0.57345 1.03053
 C2455 C -0.11990 0.57417 1.04746
 C2456 C -0.10212 0.55520 1.04683
 C2457 C -0.10297 0.53630 1.02916
 C2458 C -0.12261 0.53604 1.01252
 H2459 H -0.15388 0.62023 1.05040
 H2460 H -0.19010 0.64211 1.03364
 H2461 H -0.20113 0.58148 0.98324
 H2462 H -0.11886 0.58903 1.06050
 H2463 H -0.08708 0.55593 1.05947
 H2464 H -0.12369 0.52198 0.99872
 C2465 C -0.00063 0.66771 0.58198
 C2466 C -0.01370 0.67384 0.56194
 C2467 C -0.02613 0.69644 0.55931
 C2468 C -0.02412 0.71387 0.57776
 C2469 C -0.00985 0.70824 0.59813
 C2470 C 0.00137 0.68449 0.60054
 O2471 O 0.01007 0.64547 0.58091
 C2472 C 0.00371 0.63741 0.55968
 C2473 C -0.01074 0.65406 0.54728
 C2474 C -0.01955 0.64920 0.52469
 C2475 C -0.01404 0.62569 0.51492
 C2476 C 0.00002 0.60781 0.52789
 C2477 C 0.00963 0.61422 0.55028
 H2478 H -0.03629 0.70085 0.54336
 H2479 H -0.03244 0.73222 0.57549
 H2480 H 0.01239 0.67977 0.61588
 H2481 H -0.03079 0.66267 0.51524
 H2482 H -0.02158 0.62107 0.49773
 H2483 H 0.02016 0.60100 0.56080
 C2484 C 0.46359 0.17422 0.07771
 C2485 C 0.46111 0.18421 0.05505
 C2486 C 0.46191 0.21036 0.05012
 C2487 C 0.46713 0.22663 0.06904
 C2488 C 0.47132 0.21627 0.09196
 C2489 C 0.46793 0.19001 0.09665
 O2490 O 0.46695 0.14945 0.07837
 C2491 C 0.46703 0.14357 0.05573
 C2492 C 0.46336 0.16400 0.04061
 C2493 C 0.46591 0.16243 0.01606
 C2494 C 0.47224 0.13880 0.00687
 C2495 C 0.47664 0.11789 0.02241
 C2496 C 0.47370 0.12032 0.04708
 H2497 H 0.46090 0.21780 0.03212
 H2498 H 0.47046 0.24684 0.06545
 H2499 H 0.47244 0.18183 0.11382
 H2500 H 0.46365 0.17887 0.00448
 H2501 H 0.47425 0.13690 -0.01216
 H2502 H 0.47691 0.10463 0.05934
 C2503 C -0.00534 0.16326 0.90644
 C2504 C -0.02877 0.15424 0.90045
 C2505 C -0.04326 0.16645 0.88366
 C2506 C -0.03304 0.18876 0.87258
 C2507 C -0.00870 0.19789 0.87821
 C2508 C 0.00514 0.18509 0.89559
 O2509 O 0.00580 0.14859 0.92212
 C2510 C -0.01084 0.12972 0.92605
 C2511 C -0.03232 0.13215 0.91322
 C2512 C -0.05149 0.11359 0.91365
 C2513 C -0.04815 0.09151 0.92756
 C2514 C -0.02600 0.08862 0.94074
 C2515 C -0.00733 0.10826 0.94025
 H2516 H -0.06158 0.15892 0.87909
 H2517 H -0.04374 0.19854 0.85926
 H2518 H 0.02366 0.19185 0.90044
 H2519 H -0.06809 0.11573 0.90319
 H2520 H -0.06262 0.07656 0.92781
 H2521 H 0.00998 0.10638 0.94968
 C2522 C 0.50001 0.67059 0.41308
 C2523 C 0.47546 0.66233 0.41533
 C2524 C 0.45575 0.67781 0.41001
 C2525 C 0.46167 0.70255 0.40131
 C2526 C 0.48690 0.71088 0.39759
 C2527 C 0.50629 0.69483 0.40416
 O2528 O 0.51594 0.65329 0.41980
 C2529 C 0.50114 0.63358 0.42625
 C2530 C 0.47620 0.63796 0.42361
 C2531 C 0.45751 0.61970 0.42919
 C2532 C 0.46488 0.59620 0.43852
 C2533 C 0.49045 0.59184 0.44234
 C2534 C 0.50882 0.61063 0.43576
 H2535 H 0.43656 0.67104 0.41230
 H2536 H 0.44659 0.71471 0.39667
 H2537 H 0.52571 0.70084 0.40198
 H2538 H 0.43801 0.62356 0.42690
 H2539 H 0.45067 0.58197 0.44389
 H2540 H 0.52844 0.60778 0.43866
 C2541 C 0.49924 0.84208 0.42386
 C2542 C 0.48996 0.83428 0.44579
 C2543 C 0.48218 0.80915 0.45092
 C2544 C 0.48419 0.79146 0.43266
 C2545 C 0.49375 0.79933 0.40996
 C2546 C 0.50117 0.82507 0.40561
 O2547 O 0.50560 0.86661 0.42237
 C2548 C 0.50025 0.87460 0.44384
 C2549 C 0.49055 0.85569 0.45892
 C2550 C 0.48330 0.86032 0.48217
 C2551 C 0.48616 0.88547 0.49006
 C2552 C 0.49626 0.90514 0.47467
 C2553 C 0.50344 0.89942 0.45127
 H2554 H 0.47498 0.80338 0.46832
 H2555 H 0.47868 0.77171 0.43631
 H2556 H 0.50799 0.83190 0.38838
 H2557 H 0.47560 0.84521 0.49373
 H2558 H 0.48056 0.88959 0.50807
 H2559 H 0.51096 0.91393 0.43895
 C2560 C -0.00612 0.32363 0.91237
 C2561 C -0.02317 0.31456 0.92917
 C2562 C -0.03304 0.28963 0.92950
 C2563 C -0.02452 0.27330 0.91197
 C2564 C -0.00643 0.28227 0.89499
 C2565 C 0.00235 0.30794 0.89488
 O2566 O 0.00181 0.34745 0.91563
 C2567 C -0.01038 0.35362 0.93506
 C2568 C -0.02594 0.33421 0.94405
 C2569 C -0.03978 0.33631 0.96479
 C2570 C -0.03752 0.35941 0.97669
 C2571 C -0.02152 0.37974 0.96773
 C2572 C -0.00780 0.37669 0.94656
 H2573 H -0.04630 0.28287 0.94304
 H2574 H -0.03123 0.25358 0.91216
 H2575 H 0.01591 0.31541 0.88188
 H2576 H -0.05171 0.32071 0.97165
 H2577 H -0.04820 0.36131 0.99295
 H2578 H 0.00458 0.39170 0.93924
 C2579 C 0.48571 0.33262 0.08113
 C2580 C 0.46657 0.34383 0.09306
 C2581 C 0.45525 0.33293 0.11336
 C2582 C 0.46418 0.30960 0.12163
 C2583 C 0.48429 0.29833 0.10975
 C2584 C 0.49497 0.30983 0.08913
 O2585 O 0.49483 0.34643 0.06301
 C2586 C 0.48138 0.36695 0.06355
 C2587 C 0.46382 0.36648 0.08156
 C2588 C 0.44916 0.38714 0.08630
 C2589 C 0.45323 0.40930 0.07216
 C2590 C 0.47164 0.41013 0.05379
 C2591 C 0.48539 0.38835 0.04920
 H2592 H 0.44040 0.34217 0.12263
 H2593 H 0.45595 0.30065 0.13751
 H2594 H 0.51022 0.30139 0.07971
 H2595 H 0.43574 0.38653 0.10082
 H2596 H 0.44258 0.42590 0.07593
 H2597 H 0.49993 0.38836 0.03569
 C2598 C -0.01930 0.82234 0.56032
 C2599 C -0.03927 0.83416 0.57031
 C2600 C -0.05233 0.82416 0.59009
 C2601 C -0.04358 0.80186 0.60071
 C2602 C -0.02195 0.79070 0.59157
 C2603 C -0.01056 0.80019 0.57041
 O2604 O -0.00688 0.83667 0.54428
 C2605 C -0.01881 0.85822 0.54444
 C2606 C -0.03878 0.85777 0.56006
 C2607 C -0.05113 0.87962 0.56599
 C2608 C -0.04242 0.90277 0.55555
 C2609 C -0.02177 0.90356 0.53948
 C2610 C -0.01023 0.88081 0.53353
 H2611 H -0.06744 0.83418 0.59813
 H2612 H -0.05212 0.79478 0.61718
 H2613 H 0.00646 0.79235 0.56367
 H2614 H -0.06616 0.87904 0.57900
 H2615 H -0.05155 0.92006 0.56023
 H2616 H 0.00604 0.88085 0.52197
 C2617 C 0.25129 0.32309 0.08121
 C2618 C 0.25678 0.29814 0.07715
 C2619 C 0.25770 0.28827 0.05435
 C2620 C 0.25352 0.30497 0.03500
 C2621 C 0.24888 0.33098 0.03880
 C2622 C 0.24734 0.33998 0.06228
 O2623 O 0.25125 0.32882 0.10406
 C2624 C 0.25701 0.30707 0.11475
 C2625 C 0.26084 0.28775 0.09912
 C2626 C 0.26768 0.26359 0.10662
 C2627 C 0.27006 0.25900 0.13118
 C2628 C 0.26529 0.27835 0.14778
 C2629 C 0.25895 0.30285 0.13924
 H2630 H 0.26201 0.26856 0.05153
 H2631 H 0.25514 0.29803 0.01711
 H2632 H 0.24406 0.35984 0.06564
 H2633 H 0.27081 0.24869 0.09404
 H2634 H 0.27465 0.24006 0.13727
 H2635 H 0.25514 0.31807 0.15131
 C2636 C 0.74087 0.82011 0.58183
 C2637 C 0.74366 0.79453 0.57809
 C2638 C 0.74389 0.78439 0.55539
 C2639 C 0.74219 0.80142 0.53584
 C2640 C 0.74059 0.82798 0.53933
 C2641 C 0.73928 0.83728 0.56270
 O2642 O 0.74197 0.82619 0.60455
 C2643 C 0.74574 0.80405 0.61548
 C2644 C 0.74720 0.78405 0.60017
 C2645 C 0.75251 0.75948 0.60797
 C2646 C 0.75589 0.75530 0.63251
 C2647 C 0.75363 0.77550 0.64871
 C2648 C 0.74863 0.80025 0.63988
 H2649 H 0.74631 0.76424 0.55279
 H2650 H 0.74393 0.79422 0.51803
 H2651 H 0.73889 0.85757 0.56583
 H2652 H 0.75399 0.74406 0.59562
 H2653 H 0.75952 0.73622 0.63894
 H2654 H 0.74699 0.81614 0.65170
 C2655 C 0.25945 0.68622 0.58161
 C2656 C 0.24651 0.70791 0.57717
 C2657 C 0.23656 0.71334 0.55501
 C2658 C 0.24028 0.69584 0.53677
 C2659 C 0.25384 0.67343 0.54087
 C2660 C 0.26334 0.66866 0.56383
 O2661 O 0.26713 0.68424 0.60381
 C2662 C 0.25893 0.70513 0.61366
 C2663 C 0.24620 0.72037 0.59824
 C2664 C 0.23584 0.74305 0.60529
 C2665 C 0.23852 0.75006 0.62919
 C2666 C 0.25134 0.73438 0.64549
 C2667 C 0.26184 0.71170 0.63729
 H2668 H 0.22634 0.73045 0.55184
 H2669 H 0.23289 0.70007 0.51944
 H2670 H 0.27326 0.65158 0.56797
 H2671 H 0.22581 0.75478 0.59291
 H2672 H 0.23024 0.76739 0.63504
 H2673 H 0.27169 0.69910 0.64905
 C2674 C 0.75204 0.18145 0.07815
 C2675 C 0.74347 0.20546 0.07394
 C2676 C 0.73787 0.21432 0.05129
 C2677 C 0.74123 0.19780 0.03226
 C2678 C 0.74997 0.17279 0.03600
 C2679 C 0.75538 0.16465 0.05953
 O2680 O 0.75630 0.17666 0.10094
 C2681 C 0.75031 0.19813 0.11134
 C2682 C 0.74226 0.21637 0.09566
 C2683 C 0.73484 0.24018 0.10295
 C2684 C 0.73581 0.24538 0.12736
 C2685 C 0.74424 0.22691 0.14392
 C2686 C 0.75155 0.20292 0.13557
 H2687 H 0.73122 0.23333 0.04832
 H2688 H 0.73720 0.20485 0.01468
 H2689 H 0.76157 0.14567 0.06348
 H2690 H 0.72849 0.25424 0.09031
 H2691 H 0.73008 0.26379 0.13328
 H2692 H 0.75792 0.18823 0.14757
 C2693 C 0.77469 0.19172 0.91399
 C2694 C 0.77041 0.21675 0.91891
 C2695 C 0.76018 0.22382 0.94059
 C2696 C 0.75487 0.20444 0.95791
 C2697 C 0.75968 0.17855 0.95328
 C2698 C 0.76923 0.17234 0.93065
 O2699 O 0.78357 0.18845 0.89229
 C2700 C 0.78497 0.21190 0.88313
 C2701 C 0.77720 0.23010 0.89852
 C2702 C 0.77587 0.25572 0.89157
 C2703 C 0.78159 0.26243 0.86762
 C2704 C 0.78844 0.24357 0.85127
 C2705 C 0.79120 0.21821 0.85967
 H2706 H 0.75663 0.24356 0.94414
 H2707 H 0.74767 0.20977 0.97500
 H2708 H 0.77246 0.15282 0.92596
 H2709 H 0.76944 0.26978 0.90378
 H2710 H 0.77886 0.28181 0.86149
 H2711 H 0.79594 0.20316 0.84773
 C2712 C 0.25113 0.68267 0.41593
 C2713 C 0.25075 0.70838 0.42017
 C2714 C 0.24984 0.71791 0.44309
 C2715 C 0.25003 0.70028 0.46231
 C2716 C 0.25136 0.67380 0.45826
 C2717 C 0.25149 0.66494 0.43470
 O2718 O 0.25225 0.67738 0.39302
 C2719 C 0.25274 0.70024 0.38246
 C2720 C 0.25208 0.71992 0.39820
 C2721 C 0.25323 0.74542 0.39073
 C2722 C 0.25460 0.75077 0.36612
 C2723 C 0.25452 0.73073 0.34952
 C2724 C 0.25380 0.70510 0.35802
 H2725 H 0.24962 0.73822 0.44607
 H2726 H 0.25050 0.70730 0.48022
 H2727 H 0.25283 0.64483 0.43112
 H2728 H 0.25293 0.76066 0.40338
 H2729 H 0.25494 0.77049 0.36001
 H2730 H 0.25382 0.68931 0.34593
 C2731 C 0.74043 0.82343 0.41240
 C2732 C 0.72392 0.80296 0.41561
 C2733 C 0.71497 0.79511 0.43802
 C2734 C 0.72331 0.80895 0.45780
 C2735 C 0.74039 0.83017 0.45495
 C2736 C 0.74890 0.83742 0.43173
 O2737 O 0.74714 0.82761 0.38984
 C2738 C 0.73465 0.80936 0.37849
 C2739 C 0.72010 0.79374 0.39335
 C2740 C 0.70600 0.77304 0.38501
 C2741 C 0.70734 0.76800 0.36054
 C2742 C 0.72262 0.78357 0.34486
 C2743 C 0.73614 0.80481 0.35416
 H2744 H 0.70212 0.77883 0.44025
 H2745 H 0.71670 0.80289 0.47531
 H2746 H 0.76150 0.85374 0.42859
 H2747 H 0.69473 0.76088 0.39698
 H2748 H 0.69691 0.75161 0.35397
 H2749 H 0.74825 0.81702 0.34298
 C2750 C 0.25473 0.32000 0.91434
 C2751 C 0.24548 0.29569 0.91934
 C2752 C 0.23690 0.28813 0.94191
 C2753 C 0.23796 0.30627 0.96002
 C2754 C 0.24729 0.33166 0.95543
 C2755 C 0.25566 0.33843 0.93198
 O2756 O 0.26234 0.32330 0.89190
 C2757 C 0.25779 0.30059 0.88249
 C2758 C 0.24736 0.28300 0.89846
 C2759 C 0.24095 0.25808 0.89216
 C2760 C 0.24553 0.25102 0.86853
 C2761 C 0.25658 0.26870 0.85170
 C2762 C 0.26273 0.29391 0.85900
 H2763 H 0.22991 0.26882 0.94557
 H2764 H 0.23196 0.30016 0.97767
 H2765 H 0.26256 0.35752 0.92734
 H2766 H 0.23268 0.24453 0.90497
 H2767 H 0.24060 0.23171 0.86344
 H2768 H 0.27099 0.30805 0.84673
 C2769 C 0.85348 0.42869 0.75903
 C2770 C 0.83277 0.43548 0.74667
 C2771 C 0.83066 0.45968 0.73637
 C2772 C 0.85046 0.47770 0.73937
 C2773 C 0.87196 0.47126 0.75231
 C2774 C 0.87347 0.44606 0.76182
 O2775 O 0.85193 0.40489 0.76758
 C2776 C 0.82972 0.39637 0.76049
 C2777 C 0.81723 0.41427 0.74753
 C2778 C 0.79395 0.40898 0.73779
 C2779 C 0.78340 0.38419 0.74115
 C2780 C 0.79596 0.36535 0.75440
 C2781 C 0.81934 0.37178 0.76448
 H2782 H 0.81416 0.46468 0.72675
 H2783 H 0.84856 0.49682 0.73225
 H2784 H 0.88965 0.44002 0.77139
 H2785 H 0.78449 0.42325 0.72751
 H2786 H 0.76563 0.37953 0.73312
 H2787 H 0.82970 0.35771 0.77416
 C2788 C 0.34507 0.91710 0.25804
 C2789 C 0.32269 0.92484 0.24944
 C2790 C 0.31963 0.94919 0.23981
 C2791 C 0.34030 0.96652 0.23964
 C2792 C 0.36346 0.95930 0.24901
 C2793 C 0.36585 0.93396 0.25793
 O2794 O 0.34421 0.89301 0.26600
 C2795 C 0.32070 0.88534 0.26242
 C2796 C 0.30676 0.90417 0.25239
 C2797 C 0.28192 0.90015 0.24644
 C2798 C 0.27124 0.87557 0.25020
 C2799 C 0.28529 0.85554 0.25992
 C2800 C 0.31029 0.86068 0.26664
 H2801 H 0.30183 0.95480 0.23301
 H2802 H 0.33791 0.98579 0.23307
 H2803 H 0.38330 0.92762 0.26496
 H2804 H 0.27135 0.91519 0.23846
 H2805 H 0.25222 0.87181 0.24468
 H2806 H 0.32168 0.84562 0.27340
 C2807 C 0.15724 0.91512 0.74562
 C2808 C 0.17315 0.91961 0.72662
 C2809 C 0.17381 0.94237 0.71364
 C2810 C 0.15714 0.96109 0.72018
 C2811 C 0.13933 0.95680 0.73900
 C2812 C 0.14002 0.93330 0.75216
 O2813 O 0.16018 0.89248 0.75609
 C2814 C 0.17822 0.88247 0.74325
 C2815 C 0.18664 0.89820 0.72483
 C2816 C 0.20499 0.89117 0.70877
 C2817 C 0.21517 0.86700 0.71189
 C2818 C 0.20735 0.85066 0.73114
 C2819 C 0.18854 0.85862 0.74702
 H2820 H 0.18689 0.94574 0.69904
 H2821 H 0.15851 0.97871 0.71009
 H2822 H 0.12769 0.92896 0.76709
 H2823 H 0.21116 0.90380 0.69426
 H2824 H 0.22950 0.86122 0.69963
 H2825 H 0.18196 0.84648 0.76174
 C2826 C 0.65544 0.41080 0.24910
 C2827 C 0.65980 0.40890 0.22511
 C2828 C 0.65185 0.42701 0.20874
 C2829 C 0.63866 0.44768 0.21739
 C2830 C 0.63354 0.44994 0.24205
 C2831 C 0.64237 0.43118 0.25808
 O2832 O 0.66419 0.39145 0.26168
 C2833 C 0.67423 0.37695 0.24529
 C2834 C 0.67201 0.38669 0.22261
 C2835 C 0.68079 0.37415 0.20279
 C2836 C 0.69235 0.35074 0.20650
 C2837 C 0.69505 0.34027 0.22976
 C2838 C 0.68576 0.35381 0.24939
 H2839 H 0.65532 0.42510 0.18991
 H2840 H 0.63174 0.46139 0.20472
 H2841 H 0.63894 0.43222 0.27700
 H2842 H 0.67873 0.38206 0.18506
 H2843 H 0.69925 0.34085 0.19121
 H2844 H 0.68726 0.34649 0.26741
 C2845 C 0.65359 0.57974 0.25100
 C2846 C 0.66353 0.58116 0.27337
 C2847 C 0.66164 0.56107 0.28978
 C2848 C 0.64808 0.53901 0.28333
 C2849 C 0.63624 0.53739 0.26095
 C2850 C 0.63971 0.55782 0.24421
 O2851 O 0.65741 0.60129 0.23834
 C2852 C 0.66976 0.61656 0.25314
 C2853 C 0.67365 0.60523 0.27491
 C2854 C 0.68499 0.61813 0.29351
 C2855 C 0.69322 0.64360 0.28938
 C2856 C 0.69047 0.65552 0.26680
 C2857 C 0.67837 0.64175 0.24846
 H2858 H 0.66973 0.56259 0.30722
 H2859 H 0.64563 0.52358 0.29632
 H2860 H 0.63053 0.55738 0.22721
 H2861 H 0.68749 0.60887 0.31061
 H2862 H 0.70261 0.65372 0.30346
 H2863 H 0.67593 0.65035 0.23105
 C2864 C 0.16551 0.07942 0.74967
 C2865 C 0.17318 0.07970 0.77290
 C2866 C 0.16612 0.06073 0.78941
 C2867 C 0.14987 0.04106 0.78194
 C2868 C 0.14073 0.04071 0.75837
 C2869 C 0.14924 0.05985 0.74178
 O2870 O 0.17397 0.09978 0.73714
 C2871 C 0.18707 0.11314 0.75286
 C2872 C 0.18702 0.10175 0.77502
 C2873 C 0.19854 0.11298 0.79441
 C2874 C 0.21092 0.13684 0.79077
 C2875 C 0.21181 0.14885 0.76796
 C2876 C 0.19960 0.13672 0.74875
 H2877 H 0.17240 0.06136 0.80758
 H2878 H 0.14372 0.02646 0.79479
 H2879 H 0.14231 0.06030 0.72382
 H2880 H 0.19794 0.10375 0.81177
 H2881 H 0.22019 0.14571 0.80561
 H2882 H 0.19968 0.14546 0.73117
 C2883 C 0.34829 0.08617 0.24975
 C2884 C 0.35005 0.09256 0.22597
 C2885 C 0.36258 0.07789 0.20975
 C2886 C 0.37373 0.05580 0.21836
 C2887 C 0.37235 0.04872 0.24286
 C2888 C 0.35942 0.06431 0.25876
 O2889 O 0.33547 0.10265 0.26214
 C2890 C 0.32907 0.11979 0.24583
 C2891 C 0.33758 0.11460 0.22342
 C2892 C 0.33311 0.13028 0.20378
 C2893 C 0.31922 0.15215 0.20739
 C2894 C 0.30998 0.15788 0.23033
 C2895 C 0.31514 0.14130 0.24978
 H2896 H 0.36384 0.08332 0.19113
 H2897 H 0.38393 0.04460 0.20589
 H2898 H 0.35794 0.05950 0.27751
 H2899 H 0.34006 0.12583 0.18629
 H2900 H 0.31553 0.16446 0.19228
 H2901 H 0.30857 0.14500 0.26759
 C2902 C 0.85588 0.59809 0.75752
 C2903 C 0.85827 0.60489 0.73387
 C2904 C 0.87185 0.59097 0.71786
 C2905 C 0.88333 0.56911 0.72649
 C2906 C 0.88110 0.56136 0.75079
 C2907 C 0.86727 0.57634 0.76657
 O2908 O 0.84201 0.61395 0.76965
 C2909 C 0.83557 0.63106 0.75329
 C2910 C 0.84505 0.62640 0.73111
 C2911 C 0.84051 0.64189 0.71138
 C2912 C 0.82554 0.66302 0.71459
 C2913 C 0.81537 0.66835 0.73729
 C2914 C 0.82064 0.65197 0.75690
 H2915 H 0.87360 0.59676 0.69935
 H2916 H 0.89432 0.55850 0.71416
 H2917 H 0.86515 0.57103 0.78517
 H2918 H 0.84819 0.63781 0.69407
 H2919 H 0.82186 0.67516 0.69937
 H2920 H 0.81326 0.65528 0.77449
 C2921 C 0.91518 0.75666 0.17394
 C2922 C 0.92105 0.74727 0.19609
 C2923 C 0.94448 0.73862 0.20151
 C2924 C 0.96243 0.73937 0.18322
 C2925 C 0.95649 0.74844 0.16014
 C2926 C 0.93264 0.75761 0.15560
 O2927 O 0.89156 0.76257 0.17202
 C2928 C 0.88228 0.75667 0.19336
 C2929 C 0.89947 0.74722 0.20879
 C2930 C 0.89319 0.73836 0.23159
 C2931 C 0.86808 0.73917 0.23865
 C2932 C 0.85005 0.74872 0.22286
 C2933 C 0.85747 0.75785 0.20000
 H2934 H 0.94864 0.73116 0.21901
 H2935 H 0.98084 0.73272 0.18702
 H2936 H 0.92742 0.76410 0.13806
 H2937 H 0.90698 0.73066 0.24331
 H2938 H 0.86270 0.73212 0.25624
 H2939 H 0.84424 0.76494 0.18734
 C2940 C 0.43660 0.24199 0.66472
 C2941 C 0.43823 0.22162 0.68026
 C2942 C 0.46010 0.20898 0.68411
 C2943 C 0.48143 0.21808 0.67173
 C2944 C 0.48032 0.23930 0.65580
 C2945 C 0.45739 0.25100 0.65186
 O2946 O 0.41471 0.25285 0.66549
 C2947 C 0.40234 0.23912 0.68207
 C2948 C 0.41595 0.21976 0.69154
 C2949 C 0.40764 0.20434 0.71044
 C2950 C 0.38426 0.20909 0.72008
 C2951 C 0.36981 0.22911 0.71080
 C2952 C 0.37893 0.24415 0.69129
 H2953 H 0.46098 0.19346 0.69699
 H2954 H 0.49890 0.20936 0.67560
 H2955 H 0.45595 0.26732 0.63996
 H2956 H 0.41896 0.18958 0.71784
 H2957 H 0.37765 0.19724 0.73498
 H2958 H 0.36856 0.25975 0.68403
 C2959 C 0.41659 0.75783 0.82645
 C2960 C 0.40978 0.73235 0.82890
 C2961 C 0.42531 0.71445 0.83868
 C2962 C 0.44853 0.72336 0.84680
 C2963 C 0.45547 0.74973 0.84522
 C2964 C 0.43942 0.76710 0.83454
 O2965 O 0.39911 0.77171 0.81688
 C2966 C 0.38082 0.75466 0.81335
 C2967 C 0.38626 0.73031 0.82058
 C2968 C 0.36931 0.70971 0.81912
 C2969 C 0.34597 0.71439 0.80933
 C2970 C 0.34042 0.73924 0.80112
 C2971 C 0.35801 0.75964 0.80339
 H2972 H 0.41955 0.69451 0.84045
 H2973 H 0.46053 0.70989 0.85531
 H2974 H 0.44425 0.78732 0.83329
 H2975 H 0.37395 0.69075 0.82510
 H2976 H 0.33260 0.69861 0.80742
 H2977 H 0.35416 0.77882 0.79736
 C2978 C 0.91142 0.25723 0.32707
 C2979 C 0.90591 0.23153 0.32562
 C2980 C 0.92238 0.21299 0.33217
 C2981 C 0.94554 0.22128 0.34079
 C2982 C 0.95134 0.24775 0.34355
 C2983 C 0.93383 0.26591 0.33661
 O2984 O 0.89358 0.27164 0.31876
 C2985 C 0.87629 0.25459 0.31223
 C2986 C 0.88279 0.22980 0.31653
 C2987 C 0.86705 0.20890 0.31224
 C2988 C 0.84373 0.21375 0.30279
 C2989 C 0.83720 0.23903 0.29686
 C2990 C 0.85362 0.25980 0.30179
 H2991 H 0.91761 0.19287 0.33063
 H2992 H 0.95823 0.20690 0.34653
 H2993 H 0.93779 0.28622 0.33795
 H2994 H 0.87242 0.18961 0.31625
 H2995 H 0.83095 0.19780 0.29958
 H2996 H 0.84881 0.27927 0.29778
 C2997 C 0.08046 0.25662 0.31891
 C2998 C 0.07425 0.24517 0.29793
 C2999 C 0.04971 0.24008 0.29141
 C3000 C 0.03090 0.24657 0.30746
 C3001 C 0.03704 0.25782 0.32943
 C3002 C 0.06220 0.26324 0.33498
 O3003 O 0.10475 0.25937 0.32208
 C3004 C 0.11414 0.24941 0.30271
 C3005 C 0.09636 0.24036 0.28734
 C3006 C 0.10235 0.22877 0.26616
 C3007 C 0.12774 0.22686 0.26047
 C3008 C 0.14636 0.23653 0.27596
 C3009 C 0.13927 0.24772 0.29749
 H3010 H 0.04523 0.23108 0.27480
 H3011 H 0.01164 0.24253 0.30293
 H3012 H 0.06758 0.27118 0.35183
 H3013 H 0.08804 0.22164 0.25438
 H3014 H 0.13282 0.21833 0.24384
 H3015 H 0.15287 0.25531 0.30978
 C3016 C 0.57915 0.74536 0.82207
 C3017 C 0.59374 0.73539 0.83966
 C3018 C 0.58665 0.73426 0.86343
 C3019 C 0.56349 0.74375 0.86934
 C3020 C 0.54813 0.75403 0.85153
 C3021 C 0.55580 0.75456 0.82753
 O3022 O 0.59052 0.74690 0.80104
 C3023 C 0.61277 0.73785 0.80552
 C3024 C 0.61554 0.73041 0.82890
 C3025 C 0.63799 0.72284 0.83819
 C3026 C 0.65870 0.72375 0.82290
 C3027 C 0.65639 0.73193 0.79897
 C3028 C 0.63307 0.73840 0.78988
 H3029 H 0.59871 0.72683 0.87697
 H3030 H 0.55739 0.74306 0.88775
 H3031 H 0.54429 0.76249 0.81378
 H3032 H 0.63978 0.71771 0.85678
 H3033 H 0.67677 0.71924 0.82989
 H3034 H 0.63130 0.74569 0.77188
 C3035 C 0.58794 0.23148 0.70569
 C3036 C 0.59745 0.20893 0.69821
 C3037 C 0.58873 0.19633 0.67828
 C3038 C 0.57031 0.20801 0.66496
 C3039 C 0.56144 0.23194 0.67167
 C3040 C 0.56941 0.24309 0.69296
 O3041 O 0.60179 0.24309 0.72175
 C3042 C 0.62085 0.22803 0.72408
 C3043 C 0.61905 0.20675 0.71014
 C3044 C 0.63916 0.19156 0.70569
 C3045 C 0.66215 0.19914 0.71517
 C3046 C 0.66452 0.22139 0.72898
 C3047 C 0.64329 0.23528 0.73442
 H3048 H 0.59718 0.17921 0.67215
 H3049 H 0.56456 0.19949 0.64847
 H3050 H 0.56329 0.26164 0.69814
 H3051 H 0.63773 0.17573 0.69370
 H3052 H 0.67835 0.18863 0.71044
 H3053 H 0.64480 0.25302 0.74388
 C3054 C 0.06994 0.74401 0.18182
 C3055 C 0.07537 0.71876 0.18519
 C3056 C 0.06202 0.69890 0.17466
 C3057 C 0.04245 0.70543 0.15978
 C3058 C 0.03727 0.73137 0.15552
 C3059 C 0.05084 0.75087 0.16701
 O3060 O 0.08615 0.76005 0.19162
 C3061 C 0.10241 0.74467 0.20112
 C3062 C 0.09672 0.71919 0.19763
 C3063 C 0.11286 0.69998 0.20336
 C3064 C 0.13599 0.70744 0.21263
 C3065 C 0.14210 0.73358 0.21614
 C3066 C 0.12491 0.75240 0.21096
 H3067 H 0.06696 0.67923 0.17721
 H3068 H 0.03206 0.69046 0.15082
 H3069 H 0.04720 0.77082 0.16383
 H3070 H 0.10830 0.68017 0.19978
 H3071 H 0.14936 0.69302 0.21656
 H3072 H 0.12969 0.77249 0.21282
   
