data_POSCAR
  _audit_creation_date              2014-09-24
  _audit_creation_method            'ToBaCCo'
  _symmetry_space_group_name_H-M    'P1'
  _symmetry_Int_Tables_number       1
  _symmetry_cell_setting            triclinic
  loop_
  _symmetry_equiv_pos_as_xyz
 x,y,z
_cell_length_a 31.5575
_cell_length_b 31.5793
_cell_length_c 39.2145
_cell_angle_alpha 89.932800
_cell_angle_beta 89.967800
_cell_angle_gamma 90.035800
loop_
  _atom_site_label
  _atom_site_type_symbol
  _atom_site_fract_x
  _atom_site_fract_y
  _atom_site_fract_z
Zr1 Zr 0.24881 0.24918 0.30983
 O2 O 0.28147 0.28268 0.34853
 O3 O 0.20911 0.20968 0.33844
 O4 O 0.20727 0.28740 0.33826
 O5 O 0.32624 0.17360 0.29685
 O6 O 0.17429 0.32789 0.29791
 O7 O 0.28948 0.20959 0.33783
 O8 O 0.16890 0.17747 0.29760
 O9 O 0.19296 0.25162 0.28109
 O10 O 0.24799 0.19416 0.28021
 O11 O 0.25258 0.30570 0.28165
 O12 O 0.30570 0.25017 0.28157
 Zr13 Zr 0.25211 0.25389 0.19106
 Zr14 Zr 0.19830 0.30610 0.25090
 Zr15 Zr 0.30228 0.19649 0.25008
 Zr16 Zr 0.19388 0.19786 0.25032
 O17 O 0.36924 0.19990 0.24941
 O18 O 0.12782 0.21006 0.24940
 O19 O 0.24808 0.19672 0.21899
 O20 O 0.19581 0.25222 0.21984
 O21 O 0.25280 0.30921 0.22043
 O22 O 0.30727 0.25119 0.22052
 C23 C 0.17940 0.18469 0.32878
 C24 C 0.31730 0.18248 0.32809
 C25 C 0.18134 0.31655 0.32894
 O26 O 0.13138 0.30253 0.24930
 O27 O 0.17603 0.33162 0.20452
 O28 O 0.21368 0.29679 0.16344
 C29 C 0.18564 0.32386 0.17324
 O30 O 0.33492 0.32635 0.29712
 Zr31 Zr 0.30680 0.30490 0.25102
 O32 O 0.29233 0.29401 0.16324
 O33 O 0.20557 0.37264 0.25297
 O34 O 0.29805 0.37146 0.25237
 O35 O 0.37334 0.29563 0.24941
 O36 O 0.32916 0.32936 0.20446
 C37 C 0.31997 0.32116 0.17326
 O38 O 0.21818 0.22297 0.15171
 O39 O 0.29513 0.12986 0.25021
 O40 O 0.29135 0.21259 0.16270
 O41 O 0.32287 0.17109 0.20319
 O42 O 0.19983 0.13098 0.25182
 O43 O 0.16982 0.17094 0.20460
 C44 C 0.31598 0.18216 0.17208
 H45 H 0.24772 0.16782 0.29392
 H46 H 0.17053 0.25244 0.20490
 H47 H 0.33352 0.25037 0.20671
 H48 H 0.25363 0.33070 0.29684
 H49 H 0.11317 0.18335 0.25554
 H50 H 0.12066 0.33197 0.25075
 H51 H 0.17666 0.38487 0.25258
 H52 H 0.32563 0.38479 0.24676
 H53 H 0.17160 0.11922 0.25762
 H54 H 0.32402 0.11767 0.25136
 H55 H 0.37974 0.17036 0.24847
 H56 H 0.38664 0.32349 0.24476
 H57 H 0.14526 0.15258 0.21001
 H58 H 0.22930 0.23385 0.12970
 H59 H 0.27094 0.27207 0.37081
 H60 H 0.35396 0.35053 0.29217
 Zr61 Zr 0.75052 0.75070 0.30989
 O62 O 0.71797 0.71636 0.34825
 O63 O 0.79031 0.78988 0.33867
 O64 O 0.79256 0.71285 0.33818
 O65 O 0.66947 0.82222 0.29729
 O66 O 0.82755 0.67459 0.29756
 O67 O 0.70987 0.79011 0.33815
 O68 O 0.82714 0.82637 0.29799
 O69 O 0.80646 0.75062 0.28115
 O70 O 0.74933 0.80601 0.28057
 O71 O 0.74874 0.69443 0.28129
 O72 O 0.69376 0.74772 0.28154
 Zr73 Zr 0.74765 0.74731 0.19104
 Zr74 Zr 0.80310 0.69632 0.25065
 Zr75 Zr 0.69518 0.80189 0.25043
 Zr76 Zr 0.80358 0.80471 0.25068
 O77 O 0.62839 0.79608 0.24903
 O78 O 0.87004 0.79485 0.25027
 O79 O 0.74942 0.80417 0.21938
 O80 O 0.80376 0.75062 0.21990
 O81 O 0.74892 0.69157 0.21999
 O82 O 0.69232 0.74755 0.22042
 C83 C 0.81817 0.81705 0.32914
 C84 C 0.67999 0.81504 0.32850
 C85 C 0.81959 0.68482 0.32869
 O86 O 0.86984 0.70247 0.24914
 O87 O 0.82616 0.67196 0.20418
 O88 O 0.78705 0.70548 0.16325
 C89 C 0.81601 0.67932 0.17295
 O90 O 0.66699 0.67008 0.29620
 Zr91 Zr 0.69470 0.69342 0.25047
 O92 O 0.70768 0.70762 0.16276
 O93 O 0.79841 0.62952 0.25239
 O94 O 0.70601 0.62724 0.25168
 O95 O 0.62790 0.70043 0.24855
 O96 O 0.67402 0.66837 0.20354
 C97 C 0.68176 0.67860 0.17242
 O98 O 0.78114 0.77941 0.15198
 O99 O 0.69958 0.86874 0.25172
 O100 O 0.70778 0.78821 0.16298
 O101 O 0.67431 0.82765 0.20374
 O102 O 0.79485 0.87128 0.25193
 O103 O 0.82719 0.83267 0.20514
 C104 C 0.68209 0.81761 0.17255
 H105 H 0.74867 0.83219 0.29443
 H106 H 0.82906 0.75139 0.20497
 H107 H 0.66611 0.74777 0.20656
 H108 H 0.74847 0.66920 0.29630
 H109 H 0.88366 0.82204 0.25651
 H110 H 0.88164 0.67344 0.25043
 H111 H 0.82776 0.61840 0.25185
 H112 H 0.67906 0.61289 0.24578
 H113 H 0.82250 0.88425 0.25781
 H114 H 0.67019 0.87970 0.25284
 H115 H 0.61681 0.82523 0.24843
 H116 H 0.61565 0.67229 0.24326
 H117 H 0.85106 0.85181 0.21073
 H118 H 0.77034 0.76860 0.12987
 H119 H 0.72822 0.72687 0.37061
 H120 H 0.64842 0.64569 0.29086
 Zr121 Zr 0.75114 0.24810 -0.30957
 O122 O 0.71919 0.28199 -0.34847
 O123 O 0.79068 0.20813 -0.33782
 O124 O 0.79351 0.28567 -0.33783
 O125 O 0.67109 0.17518 -0.29700
 O126 O 0.82732 0.32517 -0.29733
 O127 O 0.71056 0.20864 -0.33781
 O128 O 0.82937 0.17472 -0.29664
 O129 O 0.80676 0.24923 -0.28049
 O130 O 0.75024 0.19313 -0.27984
 O131 O 0.74854 0.30471 -0.28146
 O132 O 0.69400 0.25070 -0.28168
 Zr133 Zr 0.74684 0.25293 -0.19086
 Zr134 Zr 0.80256 0.30382 -0.25042
 Zr135 Zr 0.69567 0.19694 -0.25012
 Zr136 Zr 0.80415 0.19551 -0.24962
 O137 O 0.62882 0.20206 -0.24946
 O138 O 0.87049 0.20603 -0.24805
 O139 O 0.74958 0.19574 -0.21871
 O140 O 0.80338 0.24992 -0.21924
 O141 O 0.74791 0.30829 -0.22027
 O142 O 0.69186 0.25168 -0.22058
 C143 C 0.81969 0.18248 -0.32792
 C144 C 0.68135 0.18287 -0.32820
 C145 C 0.82000 0.31424 -0.32840
 O146 O 0.86933 0.29843 -0.24849
 O147 O 0.82497 0.32886 -0.20394
 O148 O 0.78561 0.29533 -0.16310
 C149 C 0.81444 0.32171 -0.17275
 O150 O 0.66648 0.32721 -0.29733
 Zr151 Zr 0.69408 0.30542 -0.25110
 O152 O 0.70661 0.29308 -0.16320
 O153 O 0.79716 0.37053 -0.25261
 O154 O 0.70446 0.37173 -0.25333
 O155 O 0.62733 0.29787 -0.24905
 O156 O 0.67318 0.33142 -0.20460
 C157 C 0.68096 0.32205 -0.17333
 O158 O 0.77996 0.22152 -0.15127
 O159 O 0.70089 0.13013 -0.25055
 O160 O 0.70689 0.21211 -0.16273
 O161 O 0.67440 0.17167 -0.20336
 O162 O 0.79661 0.12880 -0.25123
 O163 O 0.82668 0.16792 -0.20361
 C164 C 0.68167 0.18227 -0.17223
 H165 H 0.75004 0.16680 -0.29352
 H166 H 0.82847 0.24957 -0.20410
 H167 H 0.66553 0.25148 -0.20684
 H168 H 0.74822 0.32972 -0.29670
 H169 H 0.88452 0.17894 -0.25397
 H170 H 0.88087 0.32758 -0.24993
 H171 H 0.82639 0.38200 -0.25204
 H172 H 0.67724 0.38581 -0.24785
 H173 H 0.82466 0.11642 -0.25668
 H174 H 0.67165 0.11875 -0.25175
 H175 H 0.61752 0.17279 -0.24865
 H176 H 0.61488 0.32607 -0.24430
 H177 H 0.85090 0.14903 -0.20873
 H178 H 0.76886 0.23258 -0.12934
 H179 H 0.72976 0.27126 -0.37067
 H180 H 0.64741 0.35135 -0.29247
 Zr181 Zr 0.24867 0.75250 -0.31007
 O182 O 0.28089 0.71859 -0.34876
 O183 O 0.20883 0.79202 -0.33851
 O184 O 0.20635 0.71478 -0.33829
 O185 O 0.32996 0.82389 -0.29742
 O186 O 0.17150 0.67624 -0.29764
 O187 O 0.28936 0.79229 -0.33831
 O188 O 0.17246 0.82824 -0.29758
 O189 O 0.19290 0.75212 -0.28106
 O190 O 0.25020 0.80748 -0.28047
 O191 O 0.25041 0.69594 -0.28167
 O192 O 0.30562 0.74914 -0.28197
 Zr193 Zr 0.25233 0.74772 -0.19118
 Zr194 Zr 0.19624 0.69753 -0.25073
 Zr195 Zr 0.30452 0.80294 -0.25054
 Zr196 Zr 0.19612 0.80591 -0.25039
 O197 O 0.37129 0.79695 -0.24945
 O198 O 0.12964 0.79613 -0.24988
 O199 O 0.25047 0.80488 -0.21927
 O200 O 0.19600 0.75152 -0.21975
 O201 O 0.25069 0.69235 -0.22044
 O202 O 0.30746 0.74826 -0.22079
 C203 C 0.18110 0.81925 -0.32888
 C204 C 0.31944 0.81716 -0.32872
 C205 C 0.17934 0.68665 -0.32877
 O206 O 0.12955 0.70387 -0.24891
 O207 O 0.17337 0.67266 -0.20416
 O208 O 0.21307 0.70560 -0.16339
 C209 C 0.18395 0.67943 -0.17288
 O210 O 0.33206 0.67188 -0.29722
 Zr211 Zr 0.30469 0.69451 -0.25118
 O212 O 0.29221 0.70730 -0.16330
 O213 O 0.20074 0.63074 -0.25276
 O214 O 0.29339 0.62834 -0.25293
 O215 O 0.37152 0.70142 -0.24931
 O216 O 0.32540 0.66860 -0.20455
 C217 C 0.31774 0.67816 -0.17331
 O218 O 0.21924 0.77941 -0.15176
 O219 O 0.30034 0.86981 -0.25143
 O220 O 0.29247 0.78833 -0.16309
 O221 O 0.32565 0.82826 -0.20380
 O222 O 0.20510 0.87247 -0.25122
 O223 O 0.17279 0.83345 -0.20465
 C224 C 0.31804 0.81791 -0.17263
 H225 H 0.25086 0.83380 -0.29420
 H226 H 0.17083 0.75216 -0.20468
 H227 H 0.33373 0.74823 -0.20700
 H228 H 0.25053 0.67086 -0.29679
 H229 H 0.11607 0.82340 -0.25598
 H230 H 0.11762 0.67489 -0.25026
 H231 H 0.17137 0.61965 -0.25211
 H232 H 0.32039 0.61392 -0.24732
 H233 H 0.17749 0.88558 -0.25700
 H234 H 0.32975 0.88073 -0.25262
 H235 H 0.38296 0.82607 -0.24873
 H236 H 0.38371 0.67317 -0.24432
 H237 H 0.14884 0.85255 -0.21007
 H238 H 0.23016 0.76829 -0.12977
 H239 H 0.27046 0.72936 -0.37100
 H240 H 0.35085 0.64758 -0.29214
 Zr241 Zr 1.25311 1.25330 0.80931
 O242 O 1.22081 1.22102 0.84893
 O243 O 1.29399 1.29275 0.83697
 O244 O 1.29460 1.21396 0.83732
 O245 O 1.17383 1.32754 0.79614
 O246 O 1.32708 1.17343 0.79678
 O247 O 1.21299 1.29409 0.83711
 O248 O 1.33385 1.32458 0.79562
 O249 O 1.30857 1.25025 0.78012
 O250 O 1.25391 1.30814 0.77941
 O251 O 1.24831 1.19678 0.78122
 O252 O 1.19600 1.25231 0.78125
 Zr253 Zr 1.24894 1.24874 0.69064
 Zr254 Zr 1.30234 1.19565 0.75020
 Zr255 Zr 1.19928 1.30595 0.74965
 Zr256 Zr 1.30779 1.30399 0.74911
 O257 O 1.13229 1.30313 0.74826
 O258 O 1.37377 1.29141 0.74765
 O259 O 1.25328 1.30580 0.71832
 O260 O 1.30544 1.24948 0.71900
 O261 O 1.24783 1.19325 0.71992
 O262 O 1.19378 1.25147 0.72010
 C263 C 1.32376 1.31751 0.82685
 C264 C 1.18379 1.31988 0.82735
 C265 C 1.32034 1.18457 0.82785
 O266 O 1.36921 1.19860 0.74723
 O267 O 1.32163 1.16867 0.70357
 O268 O 1.28661 1.20640 0.66261
 C269 C 1.31268 1.17761 0.67236
 O270 O 1.16539 1.17618 0.79651
 Zr271 Zr 1.19405 1.19773 0.75059
 O272 O 1.20902 1.20918 0.66242
 O273 O 1.29471 1.12919 0.75345
 O274 O 1.20230 1.13112 0.75239
 O275 O 1.12762 1.20763 0.74874
 O276 O 1.17258 1.17320 0.70361
 C277 C 1.18182 1.18160 0.67235
 O278 O 1.28329 1.28027 0.65173
 O279 O 1.20657 1.37256 0.75072
 O280 O 1.21002 1.28965 0.66219
 O281 O 1.17941 1.33163 0.70271
 O282 O 1.30240 1.37092 0.75053
 O283 O 1.33116 1.33034 0.70288
 C284 C 1.18598 1.32031 0.67164
 H285 H 1.25433 1.33449 0.79305
 H286 H 1.33061 1.24883 0.70393
 H287 H 1.16757 1.25240 0.70627
 H288 H 1.24712 1.17184 0.79652
 H289 H 1.38871 1.31820 0.75300
 H290 H 1.37960 1.16902 0.74814
 H291 H 1.32342 1.11664 0.75196
 H292 H 1.17479 1.11798 0.74635
 H293 H 1.33094 1.38254 0.75541
 H294 H 1.17767 1.38478 0.75129
 H295 H 1.12199 1.33273 0.74707
 H296 H 1.11422 1.18008 0.74326
 H297 H 1.35589 1.34865 0.70783
 H298 H 1.27242 1.26988 0.62952
 H299 H 1.23203 1.23197 0.87085
 H300 H 1.14564 1.15267 0.79134
 Zr301 Zr 0.74698 0.74657 0.80906
 O302 O 0.77923 0.77915 0.84846
 O303 O 0.70686 0.70656 0.83697
 O304 O 0.70531 0.78546 0.83734
 O305 O 0.82717 0.67355 0.79536
 O306 O 0.67183 0.82547 0.79695
 O307 O 0.78793 0.70628 0.83661
 O308 O 0.66721 0.67415 0.79588
 O309 O 0.69120 0.74861 0.78026
 O310 O 0.74681 0.69176 0.77919
 O311 O 0.75052 0.80318 0.78086
 O312 O 0.80379 0.74858 0.78057
 Zr313 Zr 0.75002 0.75132 0.69034
 Zr314 Zr 0.69617 0.80330 0.75025
 Zr315 Zr 0.80110 0.69490 0.74906
 Zr316 Zr 0.69264 0.69499 0.74921
 O317 O 0.86802 0.69895 0.74727
 O318 O 0.62644 0.70644 0.74796
 O319 O 0.74687 0.69415 0.71807
 O320 O 0.69379 0.74954 0.71904
 O321 O 0.75034 0.80677 0.71957
 O322 O 0.80546 0.74948 0.71944
 C323 C 0.67736 0.68143 0.82703
 C324 C 0.81745 0.68099 0.82663
 C325 C 0.67913 0.81456 0.82800
 O326 O 0.62930 0.79908 0.74837
 O327 O 0.67509 0.82917 0.70379
 O328 O 0.71244 0.79417 0.66263
 C329 C 0.68493 0.82148 0.67256
 O330 O 0.83343 0.82485 0.79555
 Zr331 Zr 0.80446 0.80324 0.74984
 O332 O 0.79010 0.79035 0.66179
 O333 O 0.70274 0.86991 0.75274
 O334 O 0.79514 0.86967 0.75206
 O335 O 0.87104 0.79471 0.74707
 O336 O 0.82439 0.82873 0.70267
 C337 C 0.81608 0.81915 0.67149
 O338 O 0.71522 0.71993 0.65171
 O339 O 0.79506 0.62816 0.75024
 O340 O 0.78882 0.71061 0.66163
 O341 O 0.82087 0.66948 0.70204
 O342 O 0.69912 0.62816 0.75085
 O343 O 0.66950 0.66812 0.70317
 C344 C 0.81353 0.68043 0.67098
 H345 H 0.74691 0.66539 0.79287
 H346 H 0.66852 0.74975 0.70410
 H347 H 0.83156 0.74892 0.70545
 H348 H 0.75146 0.82813 0.79610
 H349 H 0.61198 0.67942 0.75349
 H350 H 0.61836 0.82847 0.74919
 H351 H 0.67377 0.88194 0.75162
 H352 H 0.82235 0.88333 0.74582
 H353 H 0.67079 0.61610 0.75589
 H354 H 0.82418 0.61647 0.75059
 H355 H 0.87883 0.66954 0.74601
 H356 H 0.88374 0.82256 0.74144
 H357 H 0.64508 0.64945 0.70827
 H358 H 0.72584 0.73046 0.62943
 H359 H 0.76833 0.76803 0.87046
 H360 H 0.85282 0.84864 0.79026
 Zr361 Zr 1.25221 0.74620 0.19078
 O362 O 1.22014 0.77928 0.15153
 O363 O 1.29204 0.70615 0.16265
 O364 O 1.29413 0.78508 0.16269
 O365 O 1.17177 0.67322 0.20414
 O366 O 1.32782 0.82464 0.20322
 O367 O 1.21116 0.70625 0.16305
 O368 O 1.33150 0.67319 0.20361
 O369 O 1.30800 0.74796 0.21960
 O370 O 1.25215 0.69117 0.22044
 O371 O 1.24885 0.80260 0.21919
 O372 O 1.19539 0.74819 0.21925
 Zr373 Zr 1.24924 0.74997 0.30948
 Zr374 Zr 1.30318 0.80244 0.24983
 Zr375 Zr 1.19784 0.69423 0.25055
 Zr376 Zr 1.30638 0.69402 0.25038
 O377 O 1.13094 0.69853 0.25227
 O378 O 1.37262 0.70533 0.25142
 O379 O 1.25211 0.69305 0.28151
 O380 O 1.30546 0.74835 0.28076
 O381 O 1.24905 0.80571 0.28052
 O382 O 1.19375 0.74858 0.28041
 C383 C 1.32133 0.68068 0.17247
 C384 C 1.18160 0.68089 0.17290
 C385 C 1.32048 0.81396 0.17215
 O386 O 1.37000 0.79812 0.25230
 O387 O 1.32337 0.82878 0.29641
 O388 O 1.28764 0.79172 0.33743
 C389 C 1.31426 0.82002 0.32763
 O390 O 1.16589 0.82462 0.20465
 Zr391 Zr 1.19492 0.80259 0.25023
 O392 O 1.20967 0.78925 0.33825
 O393 O 1.29693 0.86906 0.24695
 O394 O 1.20456 0.86900 0.24810
 O395 O 1.12831 0.79423 0.25313
 O396 O 1.17528 0.82790 0.29754
 C397 C 1.18378 0.81822 0.32870
 O398 O 1.28360 0.71772 0.34795
 O399 O 1.20357 0.62749 0.24924
 O400 O 1.21011 0.70939 0.33800
 O401 O 1.17789 0.66861 0.29750
 O402 O 1.29959 0.62722 0.24873
 O403 O 1.32961 0.66687 0.29632
 C404 C 1.18524 0.67940 0.32857
 H405 H 1.25192 0.66489 0.20671
 H406 H 1.33075 0.74844 0.29569
 H407 H 1.16767 0.74806 0.29443
 H408 H 1.24801 0.82766 0.20400
 H409 H 1.38695 0.67830 0.24582
 H410 H 1.38100 0.82750 0.25149
 H411 H 1.32591 0.88105 0.24830
 H412 H 1.17745 0.88272 0.25444
 H413 H 1.32783 0.61508 0.24357
 H414 H 1.17439 0.61590 0.24883
 H415 H 1.11998 0.66915 0.25346
 H416 H 1.11575 0.82208 0.25890
 H417 H 1.35395 0.64818 0.29112
 H418 H 1.27313 0.72808 0.37030
 H419 H 1.23098 0.76833 0.12948
 H420 H 1.14656 0.84838 0.21005
 Zr421 Zr 0.74904 1.25299 0.19032
 O422 O 0.78151 1.22058 0.15096
 O423 O 0.70891 1.29288 0.16237
 O424 O 0.70741 1.21391 0.16212
 O425 O 0.82829 1.32722 0.20403
 O426 O 0.67444 1.17339 0.20253
 O427 O 0.78977 1.29373 0.16274
 O428 O 0.66863 1.32470 0.20337
 O429 O 0.69326 1.25001 0.21917
 O430 O 0.74816 1.30773 0.22025
 O431 O 0.75321 1.19638 0.21851
 O432 O 0.80584 1.25174 0.21879
 Zr433 Zr 0.75194 1.24795 0.30912
 Zr434 Zr 0.69888 1.19533 0.24923
 Zr435 Zr 0.80244 1.30530 0.25039
 Zr436 Zr 0.69392 1.30367 0.25014
 O437 O 0.86940 1.30220 0.25213
 O438 O 0.62790 1.29114 0.25095
 O439 O 0.74810 1.30511 0.28136
 O440 O 0.69574 1.24909 0.28036
 O441 O 0.75310 1.19256 0.27984
 O442 O 0.80738 1.25069 0.27997
 C443 C 0.67926 1.31788 0.17222
 C444 C 0.81886 1.31957 0.17271
 C445 C 0.68140 1.18462 0.17149
 O446 O 0.63198 1.19847 0.25173
 O447 O 0.67868 1.16834 0.29575
 O448 O 0.71373 1.20557 0.33691
 C449 C 0.68741 1.17704 0.32704
 O450 O 0.83604 1.17548 0.20367
 Zr451 Zr 0.80718 1.19705 0.24945
 O452 O 0.79162 1.20819 0.33752
 O453 O 0.70636 1.12887 0.24607
 O454 O 0.79859 1.13048 0.24774
 O455 O 0.87365 1.20673 0.25154
 O456 O 0.82847 1.17249 0.29651
 C457 C 0.81903 1.18077 0.32773
 O458 O 0.71736 1.27937 0.34788
 O459 O 0.79544 1.37193 0.24945
 O460 O 0.79065 1.28876 0.33783
 O461 O 0.82191 1.33076 0.29751
 O462 O 0.69971 1.37058 0.24896
 O463 O 0.66994 1.32994 0.29614
 C464 C 0.81490 1.31941 0.32854
 H465 H 0.74805 1.33415 0.20664
 H466 H 0.67042 1.24850 0.29527
 H467 H 0.83348 1.25153 0.29395
 H468 H 0.75440 1.17148 0.20322
 H469 H 0.61310 1.31796 0.24543
 H470 H 0.62146 1.16893 0.25069
 H471 H 0.67758 1.11637 0.24735
 H472 H 0.82600 1.11723 0.25390
 H473 H 0.67133 1.38236 0.24376
 H474 H 0.82440 1.38406 0.24903
 H475 H 0.87982 1.33176 0.25343
 H476 H 0.88692 1.17909 0.25695
 H477 H 0.64526 1.34820 0.29096
 H478 H 0.72800 1.26884 0.37014
 H479 H 0.77057 1.23162 0.12896
 H480 H 0.85552 1.15178 0.20893
 N481 N 0.45412 0.92429 0.03586
 N482 N 0.44552 0.89429 0.05827
 N483 N 0.42455 0.95415 -0.03577
 N484 N 0.39515 0.94553 -0.05874
 N485 N 0.45384 0.92458 -0.03562
 N486 N 0.44496 0.89497 -0.05829
 N487 N 0.42457 0.95359 0.03613
 N488 N 0.39519 0.94435 0.05901
 C489 C 0.40900 0.90749 0.07277
 C490 C 0.40858 0.90875 -0.07276
 N491 N 0.45400 1.07537 -0.03525
 N492 N 0.44543 1.10525 -0.05777
 N493 N 0.42439 1.04542 0.03636
 N494 N 0.39462 1.05423 0.05900
 N495 N 0.45367 1.07505 0.03627
 N496 N 0.44437 1.10490 0.05864
 N497 N 0.42452 1.04595 -0.03554
 N498 N 0.39524 1.05500 -0.05853
 Mn499 Mn 0.42411 0.99977 0.00029
 C500 C 0.40901 1.09186 -0.07234
 C501 C 0.40778 1.09119 0.07289
 N502 N 0.54546 0.92459 -0.03563
 N503 N 0.55418 0.89468 -0.05803
 N504 N 0.57500 0.95401 0.03609
 N505 N 0.60444 0.94532 0.05900
 N506 N 0.54575 0.92437 0.03587
 N507 N 0.55471 0.89461 0.05844
 N508 N 0.57498 0.95396 -0.03583
 N509 N 0.60447 0.94481 -0.05864
 Mn510 Mn 0.49979 0.92420 0.00012
 C511 C 0.59075 0.90796 -0.07245
 C512 C 0.59109 0.90841 0.07291
 N513 N 0.54548 1.07513 0.03617
 N514 N 0.55448 1.10514 0.05844
 N515 N 0.57487 1.04577 -0.03564
 N516 N 0.60424 1.05451 -0.05863
 N517 N 0.54563 1.07539 -0.03531
 N518 N 0.55452 1.10517 -0.05790
 N519 N 0.57500 1.04578 0.03623
 N520 N 0.60472 1.05502 0.05881
 Mn521 Mn 0.49970 1.07550 0.00048
 Mn522 Mn 0.57535 0.99989 0.00021
 Cl523 Cl 0.49974 0.99985 0.00029
 C524 C 0.59117 1.09189 0.07264
 C525 C 0.59084 1.09141 -0.07247
 N526 N 1.07512 0.54495 0.53740
 N527 N 1.10538 0.57177 0.54629
 N528 N 1.04531 0.45606 0.56053
 N529 N 1.05478 0.43005 0.58569
 N530 N 1.07556 0.45625 0.53751
 N531 N 1.10668 0.43071 0.54671
 N532 N 1.04457 0.54509 0.56017
 N533 N 1.05286 0.57224 0.58475
 C534 C 1.09044 0.58911 0.57552
 C535 C 1.09269 0.41400 0.57643
 N536 N 0.92412 0.45535 0.53743
 N537 N 0.89399 0.42835 0.54629
 N538 N 0.95379 0.54441 0.56008
 N539 N 0.94425 0.57060 0.58505
 N540 N 0.92358 0.54401 0.53704
 N541 N 0.89241 0.56958 0.54608
 N542 N 0.95456 0.45542 0.56027
 N543 N 0.94634 0.42823 0.58487
 Mn544 Mn 0.99955 0.50024 0.56042
 C545 C 0.90892 0.41115 0.57558
 C546 C 0.90634 0.58654 0.57569
 N547 N 1.07562 0.45576 0.46357
 N548 N 1.10625 0.42944 0.45461
 N549 N 1.04510 0.54431 0.44042
 N550 N 1.05448 0.57027 0.41522
 N551 N 1.07530 0.54439 0.46346
 N552 N 1.10632 0.57007 0.45421
 N553 N 1.04514 0.45532 0.44076
 N554 N 1.05385 0.42845 0.41610
 Mn555 Mn 1.07583 0.50034 0.50049
 C556 C 1.09160 0.41207 0.42531
 C557 C 1.09227 0.58659 0.42446
 N558 N 0.92385 0.54395 0.46309
 N559 N 0.89348 0.57055 0.45407
 N560 N 0.95438 0.45511 0.44053
 N561 N 0.94502 0.42912 0.41539
 N562 N 0.92403 0.45525 0.46348
 N563 N 0.89294 0.42968 0.45420
 N564 N 0.95441 0.54414 0.44033
 N565 N 0.94603 0.57112 0.41562
 Mn566 Mn 0.92346 0.49964 0.50027
 Mn567 Mn 0.99976 0.49972 0.44037
 Cl568 Cl 0.99965 0.49998 0.50039
 C569 C 0.90838 0.58781 0.42476
 C570 C 0.90708 0.41298 0.42454
 N571 N 1.04649 0.42631 -0.03683
 N572 N 1.05520 0.39688 -0.05970
 N573 N 1.07646 0.45591 0.03478
 N574 N 1.10614 0.44759 0.05757
 N575 N 1.04709 0.42638 0.03510
 N576 N 1.05596 0.39734 0.05836
 N577 N 1.07609 0.45562 -0.03673
 N578 N 1.10579 0.44675 -0.05934
 C579 C 1.09203 0.41036 -0.07370
 C580 C 1.09267 0.41128 0.07235
 N581 N 1.04657 0.57671 0.03455
 N582 N 1.05467 0.60573 0.05787
 N583 N 1.07621 0.54725 -0.03721
 N584 N 1.10601 0.55593 -0.05987
 N585 N 1.04673 0.57663 -0.03746
 N586 N 1.05571 0.60594 -0.06055
 N587 N 1.07626 0.54756 0.03441
 N588 N 1.10551 0.55615 0.05745
 Mn589 Mn 1.07653 0.50158 -0.00118
 C590 C 1.09130 0.59221 0.07208
 C591 C 1.09258 0.59232 -0.07454
 N592 N 0.95520 0.42608 0.03540
 N593 N 0.94680 0.39671 0.05847
 N594 N 0.92503 0.45541 -0.03623
 N595 N 0.89501 0.44671 -0.05860
 N596 N 0.95449 0.42600 -0.03658
 N597 N 0.94527 0.39663 -0.05946
 N598 N 0.92553 0.45527 0.03533
 N599 N 0.89603 0.44632 0.05816
 Mn600 Mn 1.00083 0.42579 -0.00075
 C601 C 0.91005 0.41004 0.07267
 C602 C 0.90827 0.41028 -0.07317
 N603 N 0.95479 0.57619 -0.03684
 N604 N 0.94621 0.60533 -0.06000
 N605 N 0.92544 0.54700 0.03513
 N606 N 0.89586 0.55557 0.05793
 N607 N 0.95480 0.57656 0.03504
 N608 N 0.94600 0.60585 0.05808
 N609 N 0.92511 0.54698 -0.03637
 N610 N 0.89542 0.55565 -0.05903
 Mn611 Mn 1.00072 0.57692 -0.00119
 Mn612 Mn 0.92501 0.50117 -0.00052
 Cl613 Cl 1.00077 0.50136 -0.00092
 C614 C 0.90935 0.59179 -0.07380
 C615 C 0.90937 0.59203 0.07233
 N616 N 0.57463 1.04384 0.53722
 N617 N 0.60524 1.07012 0.54639
 N618 N 0.54451 0.95513 0.56026
 N619 N 0.55407 0.92932 0.58549
 N620 N 0.57458 0.95503 0.53708
 N621 N 0.60551 0.92916 0.54615
 N622 N 0.54415 1.04390 0.56008
 N623 N 0.55306 1.07022 0.58509
 C624 C 0.59069 1.08701 0.57592
 C625 C 0.59155 0.91260 0.57593
 N626 N 0.42353 0.95398 0.53709
 N627 N 0.39303 0.92741 0.54614
 N628 N 0.45315 1.04343 0.56000
 N629 N 0.44319 1.06886 0.58536
 N630 N 0.42279 1.04280 0.53708
 N631 N 0.39112 1.06749 0.54661
 N632 N 0.45354 0.95456 0.56031
 N633 N 0.44436 0.92851 0.58553
 Mn634 Mn 0.49885 0.99929 0.56027
 C635 C 0.40709 0.91117 0.57609
 C636 C 0.40488 1.08415 0.57638
 N637 N 0.57483 0.95487 0.46321
 N638 N 0.60508 0.92797 0.45450
 N639 N 0.54492 1.04420 0.44020
 N640 N 0.55513 1.06923 0.41455
 N641 N 0.57528 1.04370 0.46312
 N642 N 0.60714 1.06806 0.45330
 N643 N 0.54484 0.95535 0.43999
 N644 N 0.55376 0.92894 0.41506
 Mn645 Mn 0.57523 0.99935 0.50018
 C646 C 0.59085 0.91148 0.42474
 C647 C 0.59354 1.08449 0.42335
 N648 N 0.42322 1.04328 0.46305
 N649 N 0.39224 1.06901 0.45373
 N650 N 0.45402 0.95502 0.43998
 N651 N 0.44449 0.92956 0.41452
 N652 N 0.42375 0.95473 0.46300
 N653 N 0.39255 0.92946 0.45344
 N654 N 0.45388 1.04397 0.44036
 N655 N 0.44491 1.07046 0.41543
 Mn656 Mn 0.42293 0.99866 0.50005
 Mn657 Mn 0.49939 0.99968 0.44003
 Cl658 Cl 0.49910 0.99928 0.50013
 C659 C 0.40683 1.08633 0.42435
 C660 C 0.40657 0.91333 0.42356
 N661 N 1.07610 1.04422 0.53736
 N662 N 1.10623 1.07122 0.54606
 N663 N 1.04595 0.95482 0.56027
 N664 N 1.05490 0.92848 0.58531
 N665 N 1.07668 0.95547 0.53765
 N666 N 1.10765 0.92979 0.54709
 N667 N 1.04602 1.04367 0.56050
 N668 N 1.05462 1.07033 0.58530
 C669 C 1.09162 1.08798 0.57557
 C670 C 1.09301 0.91260 0.57649
 N671 N 0.92462 0.95597 0.53722
 N672 N 0.89341 0.93045 0.54634
 N673 N 0.95552 1.04391 0.56039
 N674 N 0.94694 1.07055 0.58523
 N675 N 0.92559 1.04468 0.53715
 N676 N 0.89563 1.07192 0.54580
 N677 N 0.95510 0.95513 0.56001
 N678 N 0.94572 0.92879 0.58493
 Mn679 Mn 1.00064 0.99930 0.56044
 C680 C 0.90763 0.91318 0.57576
 C681 C 0.91013 1.08844 0.57545
 N682 N 1.07681 0.95547 0.46369
 N683 N 1.10797 0.92998 0.45444
 N684 N 1.04617 1.04348 0.44030
 N685 N 1.05445 1.07049 0.41562
 N686 N 1.07614 1.04424 0.46351
 N687 N 1.10585 1.07188 0.45501
 N688 N 1.04625 0.95471 0.44095
 N689 N 1.05551 0.92845 0.41600
 Mn690 Mn 1.07692 0.99990 0.50054
 C691 C 1.09362 0.91278 0.42503
 C692 C 1.09116 1.08854 0.42544
 N693 N 0.92567 1.04444 0.46331
 N694 N 0.89548 1.07127 0.45442
 N695 N 0.95542 0.95479 0.44082
 N696 N 0.94646 0.92809 0.41609
 N697 N 0.92475 0.95567 0.46347
 N698 N 0.89382 0.92975 0.45443
 N699 N 0.95566 1.04364 0.44010
 N700 N 0.94689 1.06994 0.41503
 Mn701 Mn 0.92469 1.00025 0.50029
 Mn702 Mn 1.00088 0.99907 0.44040
 Cl703 Cl 1.00080 0.99958 0.50042
 C704 C 0.90991 1.08765 0.42468
 C705 C 0.90841 0.91225 0.42518
 N706 N 0.54507 0.57538 0.03551
 N707 N 0.55359 0.60489 0.05830
 N708 N 0.57480 0.54630 -0.03547
 N709 N 0.60402 0.55515 -0.05846
 N710 N 0.54473 0.57501 -0.03585
 N711 N 0.55242 0.60404 -0.05921
 N712 N 0.57438 0.54589 0.03587
 N713 N 0.60346 0.55429 0.05902
 C714 C 0.58979 0.59091 0.07292
 C715 C 0.58920 0.59089 -0.07320
 N716 N 0.54680 0.42514 -0.03523
 N717 N 0.55556 0.39609 -0.05832
 N718 N 0.57542 0.45484 0.03591
 N719 N 0.60487 0.44627 0.05876
 N720 N 0.54584 0.42561 0.03619
 N721 N 0.55413 0.39647 0.05934
 N722 N 0.57558 0.45518 -0.03553
 N723 N 0.60459 0.44758 -0.05895
 Mn724 Mn 0.57546 0.50056 0.00018
 C725 C 0.59135 0.41089 -0.07307
 C726 C 0.59076 0.41009 0.07334
 N727 N 0.45356 0.57447 -0.03608
 N728 N 0.44454 0.60382 -0.05894
 N729 N 0.42417 0.54520 0.03502
 N730 N 0.39478 0.55375 0.05794
 N731 N 0.45385 0.57437 0.03531
 N732 N 0.44571 0.60339 0.05850
 N733 N 0.42480 0.54441 -0.03641
 N734 N 0.39560 0.55228 -0.05960
 Mn735 Mn 0.49930 0.57522 -0.00027
 C736 C 0.40865 0.58914 -0.07361
 C737 C 0.40907 0.58982 0.07254
 N738 N 0.45484 0.42491 0.03576
 N739 N 0.44685 0.39611 0.05928
 N740 N 0.42565 0.45323 -0.03586
 N741 N 0.39679 0.44421 -0.05906
 N742 N 0.45569 0.42446 -0.03571
 N743 N 0.44833 0.39526 -0.05895
 N744 N 0.42504 0.45391 0.03537
 N745 N 0.39577 0.44551 0.05840
 Mn746 Mn 0.50077 0.42462 0.00027
 Mn747 Mn 0.42449 0.49918 -0.00048
 Cl748 Cl 0.50000 0.49990 -0.00008
 C749 C 0.41021 0.40976 0.07330
 C750 C 0.41178 0.40832 -0.07342
 C751 C 0.33531 1.12476 0.09683
 C752 C 0.33070 1.11216 0.13488
 C753 C 0.33959 1.15835 0.14504
 C754 C 0.34391 1.17127 0.10735
 C755 C 0.38744 1.14919 0.14712
 C756 C 0.37880 1.10270 0.13665
 C757 C 0.38313 1.11557 0.09899
 C758 C 0.39204 1.16179 0.10916
 H759 H 0.31404 1.11445 0.07588
 H760 H 0.30518 1.09195 0.14564
 H761 H 0.32939 1.19968 0.09545
 H762 H 0.40874 1.15948 0.16806
 H763 H 0.39340 1.07432 0.14853
 H764 H 0.41750 1.18211 0.09845
 C765 C 0.87616 0.60151 0.63698
 C766 C 0.88451 0.64833 0.64610
 C767 C 0.83661 0.65672 0.64400
 C768 C 0.82805 0.61016 0.63510
 C769 C 0.84039 0.66830 0.60600
 C770 C 0.88870 0.65947 0.60784
 C771 C 0.88010 0.61289 0.59896
 C772 C 0.83220 0.62124 0.59671
 H773 H 0.89111 0.57377 0.64956
 H774 H 0.90578 0.65964 0.66672
 H775 H 0.80289 0.59015 0.64664
 H776 H 0.82538 0.69611 0.59359
 H777 H 0.91387 0.67947 0.59632
 H778 H 0.81099 0.60987 0.57609
 C779 C 0.61886 0.89674 0.13698
 C780 C 0.61054 0.85005 0.14718
 C781 C 0.65851 0.84147 0.14557
 C782 C 0.66709 0.88784 0.13570
 C783 C 0.65504 0.82884 0.10779
 C784 C 0.60679 0.83775 0.10912
 C785 C 0.61538 0.88414 0.09924
 C786 C 0.66333 0.87552 0.09756
 H787 H 0.60370 0.92485 0.14878
 H788 H 0.58900 0.83933 0.16786
 H789 H 0.69217 0.90822 0.14683
 H790 H 0.67010 0.80070 0.09594
 H791 H 0.58174 0.81726 0.09804
 H792 H 0.68483 0.88627 0.07688
 C793 C 1.10997 0.34136 0.60926
 C794 C 1.15814 0.33201 0.60695
 C795 C 1.16268 0.34403 0.64478
 C796 C 1.11491 0.35295 0.64735
 C797 C 1.17157 0.39039 0.63530
 C798 C 1.16666 0.37884 0.59709
 C799 C 1.11889 0.38772 0.59980
 C800 C 1.12359 0.39957 0.63765
 H801 H 1.08440 0.32147 0.59825
 H802 H 1.17265 0.30388 0.59465
 H803 H 1.09388 0.34212 0.66834
 H804 H 1.19712 0.41028 0.64633
 H805 H 1.18763 0.38972 0.57610
 H806 H 1.10911 0.42762 0.65009
 C807 C 0.60621 1.16201 -0.10886
 C808 C 0.65441 1.17125 -0.10749
 C809 C 0.65806 1.15847 -0.14522
 C810 C 0.61015 1.14955 -0.14688
 C811 C 0.66687 1.11221 -0.13521
 C812 C 0.66293 1.12468 -0.09712
 C813 C 0.61505 1.11573 -0.09883
 C814 C 0.61870 1.10297 -0.13653
 H815 H 0.58102 1.18237 -0.09786
 H816 H 0.66928 1.19955 -0.09572
 H817 H 0.58862 1.16004 -0.16761
 H818 H 0.69210 1.09195 -0.14627
 H819 H 0.68444 1.11417 -0.07639
 H820 H 0.60374 1.07469 -0.14825
 C821 C 1.11006 0.65914 0.39176
 C822 C 1.15842 0.66773 0.39346
 C823 C 1.16200 0.65585 0.35553
 C824 C 1.11406 0.64771 0.35356
 C825 C 1.17034 0.60933 0.36471
 C826 C 1.16638 0.62072 0.40302
 C827 C 1.11843 0.61261 0.40091
 C828 C 1.12217 0.60090 0.36296
 H829 H 1.08504 0.67932 0.40321
 H830 H 1.17363 0.69556 0.40566
 H831 H 1.09283 0.65897 0.33289
 H832 H 1.19534 0.58914 0.35324
 H833 H 1.18756 0.60939 0.42369
 H834 H 1.10699 0.57315 0.35062
 C835 C 0.38097 0.89722 -0.13693
 C836 C 0.38951 0.85061 -0.14713
 C837 C 0.34157 0.84174 -0.14560
 C838 C 0.33278 0.88804 -0.13573
 C839 C 0.34498 0.82903 -0.10781
 C840 C 0.39320 0.83820 -0.10905
 C841 C 0.38438 0.88452 -0.09917
 C842 C 0.33647 0.87563 -0.09759
 H843 H 0.39602 0.92546 -0.14870
 H844 H 0.41116 0.84005 -0.16775
 H845 H 0.30764 0.90832 -0.14692
 H846 H 0.33003 0.80076 -0.09600
 H847 H 0.41829 0.81782 -0.09793
 H848 H 0.31484 0.88619 -0.07696
 C849 C 0.83320 0.37784 0.40328
 C850 C 0.82886 0.38944 0.36501
 C851 C 0.83786 0.34311 0.35562
 C852 C 0.84182 0.33102 0.39351
 C853 C 0.88567 0.35205 0.35351
 C854 C 0.87689 0.39865 0.36311
 C855 C 0.88102 0.38674 0.40102
 C856 C 0.89004 0.34039 0.39166
 H857 H 0.81192 0.38866 0.42405
 H858 H 0.80350 0.40936 0.35372
 H859 H 0.82712 0.30286 0.40569
 H860 H 0.90701 0.34129 0.33274
 H861 H 0.89155 0.42674 0.35079
 H862 H 0.91541 0.32048 0.40293
 C863 C 1.15958 0.36524 0.09276
 C864 C 1.17783 0.38539 0.12564
 C865 C 1.16135 0.34736 0.14628
 C866 C 1.14337 0.32689 0.11375
 C867 C 1.11893 0.37015 0.15272
 C868 C 1.13513 0.40845 0.13176
 C869 C 1.11720 0.38797 0.09923
 C870 C 1.10073 0.34992 0.11987
 H871 H 1.17612 0.36336 0.06781
 H872 H 1.20972 0.39986 0.12821
 H873 H 1.14704 0.29312 0.10648
 H874 H 1.10226 0.37210 0.17761
 H875 H 1.13148 0.44223 0.13900
 H876 H 1.06881 0.33546 0.11740
 C877 C 0.65443 0.85658 0.59141
 C878 C 0.68102 0.87698 0.62034
 C879 C 0.66165 0.84542 0.64583
 C880 C 0.63552 0.82458 0.61733
 C881 C 0.62524 0.87614 0.65385
 C882 C 0.64424 0.90798 0.62811
 C883 C 0.61804 0.88721 0.59964
 C884 C 0.59885 0.85558 0.62513
 H885 H 0.66603 0.84882 0.56543
 H886 H 0.71511 0.88551 0.61882
 H887 H 0.63224 0.78994 0.61329
 H888 H 0.61333 0.88417 0.67969
 H889 H 0.64755 0.94261 0.63220
 H890 H 0.56481 0.84689 0.62679
 C891 C 1.12780 0.66393 -0.10009
 C892 C 1.17388 0.65426 -0.11110
 C893 C 1.16102 0.65689 -0.14711
 C894 C 1.11690 0.66741 -0.13848
 C895 C 1.15201 0.61126 -0.14926
 C896 C 1.16382 0.60628 -0.11120
 C897 C 1.11740 0.61610 -0.10120
 C898 C 1.10532 0.61981 -0.13927
 H899 H 1.11823 0.68694 -0.08014
 H900 H 1.20299 0.66915 -0.10062
 H901 H 1.09886 0.69346 -0.15079
 H902 H 1.16307 0.59072 -0.17045
 H903 H 1.18448 0.58113 -0.10049
 H904 H 1.07710 0.60601 -0.15197
 C905 C 0.61432 1.15709 0.39192
 C906 C 0.66312 1.16284 0.39226
 C907 C 0.66420 1.15279 0.35386
 C908 C 0.61578 1.14741 0.35329
 C909 C 0.67023 1.10541 0.36134
 C910 C 0.66876 1.11501 0.40011
 C911 C 0.62032 1.10972 0.39941
 C912 C 0.62156 1.09977 0.36100
 H913 H 0.59113 1.17813 0.40478
 H914 H 0.68053 1.18905 0.40487
 H915 H 0.59418 1.16086 0.33374
 H916 H 0.69345 1.08441 0.34846
 H917 H 0.69033 1.10151 0.41964
 H918 H 0.60422 1.07358 0.34829
 C919 C 0.90215 0.65179 0.12124
 C920 C 0.86098 0.67718 0.11459
 C921 C 0.84052 0.65615 0.14597
 C922 C 0.88146 0.63100 0.15294
 C923 C 0.82321 0.61995 0.12378
 C924 C 0.84395 0.64065 0.09205
 C925 C 0.88486 0.61557 0.09907
 C926 C 0.86441 0.59454 0.13045
 H927 H 0.93483 0.66474 0.12007
 H928 H 0.85927 0.71140 0.10822
 H929 H 0.89683 0.62706 0.17820
 H930 H 0.79050 0.60707 0.12500
 H931 H 0.82874 0.64448 0.06672
 H932 H 0.86607 0.56032 0.13681
 C933 C 0.38614 1.15667 0.60823
 C934 C 0.33761 1.16426 0.60729
 C935 C 0.33534 1.15330 0.64550
 C936 C 0.38347 1.14610 0.64667
 C937 C 0.32759 1.10640 0.63730
 C938 C 0.33026 1.11688 0.59870
 C939 C 0.37843 1.10977 0.60002
 C940 C 0.37598 1.09893 0.63824
 H941 H 0.41043 1.17707 0.59596
 H942 H 0.32150 1.19144 0.59487
 H943 H 0.40513 1.15826 0.66671
 H944 H 0.30327 1.08604 0.64957
 H945 H 0.30866 1.10465 0.57866
 H946 H 0.39201 1.07178 0.65078
 C947 C 0.83689 0.39657 -0.10891
 C948 C 0.84858 0.39294 -0.14715
 C949 C 0.83851 0.34528 -0.14577
 C950 C 0.82653 0.34860 -0.10783
 C951 C 0.88480 0.33530 -0.13635
 C952 C 0.89516 0.38321 -0.13741
 C953 C 0.88321 0.38655 -0.09949
 C954 C 0.87311 0.33891 -0.09807
 H955 H 0.81724 0.42200 -0.09747
 H956 H 0.83822 0.41506 -0.16753
 H957 H 0.79805 0.33429 -0.09582
 H958 H 0.90433 0.30981 -0.14786
 H959 H 0.92362 0.39758 -0.14940
 H960 H 0.88350 0.31680 -0.07770
 C961 C 0.33205 0.88145 0.40073
 C962 C 0.33025 0.89131 0.36202
 C963 C 0.33718 0.84413 0.35442
 C964 C 0.33859 0.83380 0.39276
 C965 C 0.38546 0.85040 0.35364
 C966 C 0.37877 0.89786 0.36147
 C967 C 0.38036 0.88764 0.39982
 C968 C 0.38728 0.84046 0.39223
 H969 H 0.31037 0.89444 0.42041
 H970 H 0.30655 0.91190 0.34926
 H971 H 0.32172 0.80714 0.40532
 H972 H 0.40718 0.83748 0.33395
 H973 H 0.39556 0.92449 0.34880
 H974 H 0.41096 0.81985 0.40497
 C975 C 1.09574 1.15176 0.38078
 C976 C 1.13513 1.17981 0.38763
 C977 C 1.15626 1.16096 0.35574
 C978 C 1.11721 1.13330 0.34863
 C979 C 1.17650 1.12559 0.37720
 C980 C 1.15496 1.14389 0.40951
 C981 C 1.11591 1.11630 0.40219
 C982 C 1.13717 1.09768 0.37028
 H983 H 1.06227 1.16231 0.38262
 H984 H 1.13451 1.21397 0.39430
 H985 H 1.10176 1.12906 0.32344
 H986 H 1.21000 1.11510 0.37530
 H987 H 1.17013 1.14790 0.43483
 H988 H 1.13788 1.06358 0.36345
 C989 C 0.63234 0.59524 -0.13166
 C990 C 0.61347 0.63165 -0.15324
 C991 C 0.65364 0.65789 -0.14645
 C992 C 0.67283 0.62178 -0.12522
 C993 C 0.63363 0.67763 -0.11452
 C994 C 0.59315 0.65110 -0.12093
 C995 C 0.61234 0.61494 -0.09973
 C996 C 0.65248 0.64113 -0.09290
 H997 H 0.63151 0.56109 -0.13831
 H998 H 0.59761 0.62806 -0.17834
 H999 H 0.70591 0.61015 -0.12735
 H1000 H 0.63450 0.71179 -0.10789
 H1001 H 0.56008 0.66279 -0.11888
 H1002 H 0.66817 0.64461 -0.06773
 C1003 C 0.86177 1.09596 0.62965
 C1004 C 0.88143 1.13024 0.65279
 C1005 C 0.84331 1.15900 0.64526
 C1006 C 0.82335 1.12497 0.62232
 C1007 C 0.86631 1.17872 0.61452
 C1008 C 0.90476 1.14959 0.62180
 C1009 C 0.88488 1.11547 0.59888
 C1010 C 0.84677 1.14416 0.59116
 H1011 H 0.86005 1.06161 0.63556
 H1012 H 0.89561 1.12461 0.67830
 H1013 H 0.78958 1.11509 0.62296
 H1014 H 0.86794 1.21311 0.60875
 H1015 H 0.93850 1.15954 0.62124
 H1016 H 0.83285 1.14958 0.56554
 C1017 C 0.40508 0.65000 0.12009
 C1018 C 0.36463 0.67654 0.11373
 C1019 C 0.34475 0.65696 0.14583
 C1020 C 0.38492 0.63069 0.15255
 C1021 C 0.32539 0.62076 0.12481
 C1022 C 0.34560 0.63998 0.09231
 C1023 C 0.38573 0.61376 0.09908
 C1024 C 0.36588 0.59420 0.13118
 H1025 H 0.43815 0.66171 0.11791
 H1026 H 0.36381 0.71068 0.10694
 H1027 H 0.40095 0.62717 0.17759
 H1028 H 0.29231 0.60913 0.12709
 H1029 H 0.32974 0.64338 0.06720
 H1030 H 0.36667 0.56008 0.13799
 C1031 C 1.12153 0.89693 0.63845
 C1032 C 1.11328 0.85008 0.64750
 C1033 C 1.15903 0.84195 0.64548
 C1034 C 1.16922 0.88629 0.63765
 C1035 C 1.15709 0.82990 0.60926
 C1036 C 1.10889 0.83919 0.60927
 C1037 C 1.11838 0.88580 0.60016
 C1038 C 1.16635 0.87641 0.59907
 H1039 H 1.10721 0.92462 0.65152
 H1040 H 1.09269 0.83824 0.66844
 H1041 H 1.19489 0.90430 0.65052
 H1042 H 1.17257 0.80126 0.59855
 H1043 H 1.08413 0.81861 0.59788
 H1044 H 1.18935 0.88679 0.57933
 C1045 C 0.60071 0.38123 0.13692
 C1046 C 0.61003 0.33318 0.13488
 C1047 C 0.65599 0.34193 0.14564
 C1048 C 0.64702 0.38969 0.14805
 C1049 C 0.66979 0.34658 0.10823
 C1050 C 0.62351 0.33815 0.09710
 C1051 C 0.61451 0.38589 0.09956
 C1052 C 0.66049 0.39465 0.11032
 H1053 H 0.57207 0.39585 0.14838
 H1054 H 0.58967 0.30754 0.14526
 H1055 H 0.65700 0.41055 0.16935
 H1056 H 0.69843 0.33204 0.09669
 H1057 H 0.61353 0.31726 0.07581
 H1058 H 0.68098 0.42021 0.09999
 C1059 C 0.89388 0.83946 0.39186
 C1060 C 0.84611 0.82801 0.39391
 C1061 C 0.84134 0.84056 0.35618
 C1062 C 0.88866 0.85158 0.35386
 C1063 C 0.83043 0.88630 0.36619
 C1064 C 0.83560 0.87424 0.40429
 C1065 C 0.88296 0.88522 0.40184
 C1066 C 0.87798 0.89758 0.36409
 H1067 H 0.92018 0.82046 0.40276
 H1068 H 0.83279 0.79899 0.40580
 H1069 H 0.91025 0.84210 0.33285
 H1070 H 0.80412 0.90529 0.35527
 H1071 H 0.81407 0.88379 0.42530
 H1072 H 0.89126 0.92651 0.35201
 C1073 C 0.36896 0.40370 -0.13203
 C1074 C 0.38789 0.36729 -0.15353
 C1075 C 0.34772 0.34101 -0.14671
 C1076 C 0.32849 0.37713 -0.12556
 C1077 C 0.36770 0.32133 -0.11472
 C1078 C 0.40818 0.34790 -0.12115
 C1079 C 0.38892 0.38406 -0.10003
 C1080 C 0.34878 0.35782 -0.09318
 H1081 H 0.36976 0.43784 -0.13878
 H1082 H 0.40380 0.37088 -0.17863
 H1083 H 0.29539 0.38873 -0.12770
 H1084 H 0.36685 0.28717 -0.10800
 H1085 H 0.44126 0.33623 -0.11907
 H1086 H 0.33301 0.35431 -0.06803
 C1087 C 1.10432 0.38290 -0.13770
 C1088 C 1.15114 0.39135 -0.14747
 C1089 C 1.15979 0.34344 -0.14587
 C1090 C 1.11329 0.33472 -0.13645
 C1091 C 1.17195 0.34671 -0.10799
 C1092 C 1.16298 0.39491 -0.10930
 C1093 C 1.11645 0.38617 -0.09986
 C1094 C 1.12513 0.33829 -0.09820
 H1095 H 1.07629 0.39805 -0.14968
 H1096 H 1.16213 0.41297 -0.16800
 H1097 H 1.09311 0.30967 -0.14786
 H1098 H 1.20001 0.33165 -0.09598
 H1099 H 1.18328 0.41992 -0.09796
 H1100 H 1.11413 0.31668 -0.07768
 C1101 C 0.63644 0.90216 0.36907
 C1102 C 0.67646 0.87527 0.37609
 C1103 C 0.65672 0.83889 0.35543
 C1104 C 0.61698 0.86556 0.34823
 C1105 C 0.63639 0.82043 0.38787
 C1106 C 0.65573 0.85733 0.40893
 C1107 C 0.61599 0.88389 0.40152
 C1108 C 0.59633 0.84745 0.38090
 H1109 H 0.63642 0.93609 0.36160
 H1110 H 0.70970 0.88648 0.37370
 H1111 H 0.60104 0.86888 0.32313
 H1112 H 0.63654 0.78648 0.39522
 H1113 H 0.67141 0.85425 0.43414
 H1114 H 0.56313 0.83617 0.38322
 C1115 C 0.84419 0.64043 -0.09320
 C1116 C 0.86164 0.67775 -0.11474
 C1117 C 0.84197 0.65772 -0.14674
 C1118 C 0.82422 0.62074 -0.12556
 C1119 C 0.88301 0.63287 -0.15379
 C1120 C 0.90296 0.65265 -0.12144
 C1121 C 0.88520 0.61564 -0.10028
 C1122 C 0.86555 0.59563 -0.13228
 H1123 H 0.82849 0.64324 -0.06797
 H1124 H 0.85973 0.71175 -0.10777
 H1125 H 0.79156 0.60790 -0.12750
 H1126 H 0.89888 0.62994 -0.17895
 H1127 H 0.93561 0.66553 -0.11956
 H1128 H 0.86742 0.56162 -0.13924
 C1129 C 0.37965 1.10316 0.36242
 C1130 C 0.33145 1.11155 0.36283
 C1131 C 0.34027 1.15844 0.35505
 C1132 C 0.38824 1.15031 0.35443
 C1133 C 0.34184 1.16871 0.39340
 C1134 C 0.33343 1.12135 0.40152
 C1135 C 0.38144 1.11329 0.40079
 C1136 C 0.39027 1.16018 0.39304
 H1137 H 0.39535 1.07587 0.34984
 H1138 H 0.30707 1.09179 0.35006
 H1139 H 0.41056 1.16236 0.33479
 H1140 H 0.32604 1.19604 0.40582
 H1141 H 0.31112 1.10923 0.42113
 H1142 H 0.41463 1.17993 0.40582
 C1143 C 1.15594 0.64092 0.09243
 C1144 C 1.13807 0.67798 0.11394
 C1145 C 1.15728 0.65774 0.14608
 C1146 C 1.17544 0.62101 0.12492
 C1147 C 1.11619 0.63268 0.15260
 C1148 C 1.09671 0.65267 0.12011
 C1149 C 1.11489 0.61593 0.09898
 C1150 C 1.13407 0.59569 0.13111
 H1151 H 1.17206 0.64404 0.06738
 H1152 H 1.14000 0.71206 0.10713
 H1153 H 1.20809 0.60825 0.12715
 H1154 H 1.09993 0.62947 0.17758
 H1155 H 1.06406 0.66546 0.11796
 H1156 H 1.13219 0.56161 0.13792
 C1157 C 0.66453 1.11218 0.60448
 C1158 C 0.66542 1.16127 0.60606
 C1159 C 0.65825 1.15891 0.64486
 C1160 C 0.65777 1.11027 0.64355
 C1161 C 0.61000 1.16051 0.63989
 C1162 C 0.61669 1.16248 0.60076
 C1163 C 0.61624 1.11385 0.59954
 C1164 C 0.60929 1.11163 0.63839
 H1165 H 0.68676 1.09212 0.58966
 H1166 H 0.68881 1.18199 0.59304
 H1167 H 0.67482 1.08903 0.66147
 H1168 H 0.58779 1.18055 0.65475
 H1169 H 0.59962 1.18369 0.58284
 H1170 H 0.58606 1.09096 0.65167
 C1171 C 0.84582 0.35976 0.09220
 C1172 C 0.86393 0.32330 0.11431
 C1173 C 0.84323 0.34324 0.14596
 C1174 C 0.82482 0.37936 0.12420
 C1175 C 0.88349 0.36940 0.15303
 C1176 C 0.90446 0.34970 0.12105
 C1177 C 0.88606 0.38585 0.09930
 C1178 C 0.86537 0.40578 0.13095
 H1179 H 0.83051 0.35602 0.06690
 H1180 H 0.86309 0.28915 0.10766
 H1181 H 0.79179 0.39130 0.12569
 H1182 H 0.89894 0.37324 0.17827
 H1183 H 0.93747 0.33769 0.11961
 H1184 H 0.86616 0.43993 0.13759
 C1185 C 0.34090 0.85810 0.59312
 C1186 C 0.35939 0.82110 0.61451
 C1187 C 0.34169 0.84011 0.64563
 C1188 C 0.32211 0.87534 0.62685
 C1189 C 0.38054 0.86424 0.65286
 C1190 C 0.40078 0.84652 0.62000
 C1191 C 0.38174 0.88383 0.59962
 C1192 C 0.36248 0.90208 0.63271
 H1193 H 0.32355 0.85482 0.56865
 H1194 H 0.35709 0.78683 0.60843
 H1195 H 0.28893 0.88597 0.63096
 H1196 H 0.39610 0.86590 0.67823
 H1197 H 0.43336 0.83357 0.61777
 H1198 H 0.36302 0.93564 0.64112
 C1199 C 0.33771 1.12677 -0.09715
 C1200 C 0.34745 1.17320 -0.10731
 C1201 C 0.34385 1.16078 -0.14511
 C1202 C 0.33381 1.11465 -0.13530
 C1203 C 0.39150 1.15070 -0.14663
 C1204 C 0.39541 1.16282 -0.10852
 C1205 C 0.38534 1.11666 -0.09871
 C1206 C 0.38172 1.10427 -0.13648
 H1207 H 0.31576 1.11660 -0.07657
 H1208 H 0.33324 1.20180 -0.09550
 H1209 H 0.30816 1.09507 -0.14655
 H1210 H 0.41345 1.16085 -0.16721
 H1211 H 0.42100 1.18252 -0.09733
 H1212 H 0.39600 1.07569 -0.14826
 C1213 C 0.83592 0.62555 0.40297
 C1214 C 0.84592 0.67234 0.39388
 C1215 C 0.84271 0.66118 0.35577
 C1216 C 0.83233 0.61487 0.36453
 C1217 C 0.89029 0.65113 0.35431
 C1218 C 0.89396 0.66185 0.39271
 C1219 C 0.88352 0.61553 0.40140
 C1220 C 0.88011 0.60457 0.36327
 H1221 H 0.81381 0.61481 0.42324
 H1222 H 0.83167 0.70064 0.40613
 H1223 H 0.80681 0.59577 0.35258
 H1224 H 0.91243 0.66183 0.33404
 H1225 H 0.91949 0.68093 0.40466
 H1226 H 0.89428 0.57636 0.35083
 C1227 C 0.66311 1.12649 0.09675
 C1228 C 0.65397 1.17312 0.10659
 C1229 C 0.65768 1.16101 0.14447
 C1230 C 0.66713 1.11469 0.13498
 C1231 C 0.60992 1.15140 0.14626
 C1232 C 0.60588 1.16320 0.10808
 C1233 C 0.61537 1.11685 0.09860
 C1234 C 0.61912 1.10479 0.13645
 H1235 H 0.68482 1.11592 0.07617
 H1236 H 0.66842 1.20148 0.09451
 H1237 H 0.69263 1.09496 0.14627
 H1238 H 0.58820 1.16194 0.16683
 H1239 H 0.58043 1.18304 0.09684
 H1240 H 0.60461 1.07647 0.14853
 C1241 C 1.16287 0.62717 0.59712
 C1242 C 1.15287 0.67399 0.60601
 C1243 C 1.15614 0.66299 0.64417
 C1244 C 1.16651 0.61665 0.63560
 C1245 C 1.10856 0.65285 0.64571
 C1246 C 1.10483 0.66341 0.60726
 C1247 C 1.11527 0.61706 0.59876
 C1248 C 1.11874 0.60627 0.63694
 H1249 H 1.18499 0.61639 0.57689
 H1250 H 1.16710 0.70226 0.59364
 H1251 H 1.19204 0.59761 0.64760
 H1252 H 1.08642 0.66357 0.66594
 H1253 H 1.07928 0.68242 0.59526
 H1254 H 1.10460 0.57809 0.64953
 C1255 C 0.61778 0.89490 -0.13658
 C1256 C 0.66575 0.88474 -0.13561
 C1257 C 0.65583 0.83844 -0.14489
 C1258 C 0.60812 0.84831 -0.14619
 C1259 C 0.65263 0.82650 -0.10694
 C1260 C 0.66224 0.87310 -0.09730
 C1261 C 0.61455 0.88300 -0.09866
 C1262 C 0.60460 0.83667 -0.10794
 H1263 H 0.60329 0.92327 -0.14856
 H1264 H 0.69120 0.90429 -0.14723
 H1265 H 0.58600 0.83781 -0.16650
 H1266 H 0.66705 0.79809 -0.09496
 H1267 H 0.68433 0.88363 -0.07700
 H1268 H 0.57920 0.81699 -0.09639
 C1269 C 1.12054 0.39628 0.36390
 C1270 C 1.16834 0.38613 0.36528
 C1271 C 1.15819 0.33992 0.35614
 C1272 C 1.11059 0.34982 0.35456
 C1273 C 1.15471 0.32819 0.39415
 C1274 C 1.16448 0.37489 0.40363
 C1275 C 1.11685 0.38476 0.40193
 C1276 C 1.10664 0.33853 0.39285
 H1277 H 1.10635 0.42461 0.35160
 H1278 H 1.19388 0.40550 0.35359
 H1279 H 1.08865 0.33936 0.33411
 H1280 H 1.16897 0.29978 0.40624
 H1281 H 1.18638 0.38541 0.42408
 H1282 H 1.08109 0.31918 0.40454
 C1283 C 0.33761 0.87259 0.09755
 C1284 C 0.34714 0.82597 0.10721
 C1285 C 0.34391 0.83785 0.14514
 C1286 C 0.33406 0.88416 0.13584
 C1287 C 0.39162 0.84769 0.14650
 C1288 C 0.39518 0.83612 0.10826
 C1289 C 0.38530 0.88246 0.09896
 C1290 C 0.38204 0.89430 0.13686
 H1291 H 0.31558 0.88318 0.07721
 H1292 H 0.33269 0.79759 0.09524
 H1293 H 0.30861 0.90367 0.14743
 H1294 H 0.41366 0.83712 0.16685
 H1295 H 0.42057 0.81647 0.09673
 H1296 H 0.39657 0.92264 0.14883
 C1297 C 0.83657 0.37305 0.59718
 C1298 C 0.84670 0.32635 0.60644
 C1299 C 0.84323 0.33771 0.64450
 C1300 C 0.83272 0.38391 0.63556
 C1301 C 0.89075 0.34799 0.64608
 C1302 C 0.89470 0.33709 0.60773
 C1303 C 0.88412 0.38331 0.59887
 C1304 C 0.88044 0.39445 0.63695
 H1305 H 0.81455 0.38358 0.57681
 H1306 H 0.83262 0.29792 0.59427
 H1307 H 0.80706 0.40295 0.64737
 H1308 H 0.91279 0.33750 0.66646
 H1309 H 0.92037 0.31808 0.59591
 H1310 H 0.89443 0.42279 0.64933
 C1311 C 1.15253 1.14640 0.59107
 C1312 C 1.13238 1.17775 0.61686
 C1313 C 1.15881 1.15767 0.64554
 C1314 C 1.17942 1.12682 0.62020
 C1315 C 1.12333 1.12576 0.65336
 C1316 C 1.09662 1.14552 0.62444
 C1317 C 1.11708 1.11456 0.59909
 C1318 C 1.14361 1.09463 0.62778
 H1319 H 1.16416 1.15456 0.56516
 H1320 H 1.12803 1.21229 0.61281
 H1321 H 1.21378 1.11942 0.61892
 H1322 H 1.11142 1.11736 0.67913
 H1323 H 1.06230 1.15307 0.62585
 H1324 H 1.14802 1.06013 0.63192
 C1325 C 0.66164 0.62378 0.09685
 C1326 C 0.65311 0.66987 0.10832
 C1327 C 0.65774 0.65564 0.14563
 C1328 C 0.66659 0.60988 0.13453
 C1329 C 0.60995 0.64651 0.14798
 C1330 C 0.60501 0.66039 0.11034
 C1331 C 0.61388 0.61460 0.09925
 C1332 C 0.61852 0.60039 0.13652
 H1333 H 0.68260 0.61413 0.07548
 H1334 H 0.66762 0.69867 0.09698
 H1335 H 0.69227 0.58947 0.14473
 H1336 H 0.58900 0.65615 0.16936
 H1337 H 0.57941 0.68091 0.10017
 H1338 H 0.60392 0.57160 0.14779
 C1339 C 1.12246 0.89780 0.36342
 C1340 C 1.17053 0.88869 0.36452
 C1341 C 1.16123 0.84224 0.35572
 C1342 C 1.11341 0.85106 0.35440
 C1343 C 1.15835 0.83068 0.39379
 C1344 C 1.16724 0.87763 0.40297
 C1345 C 1.11938 0.88639 0.40150
 C1346 C 1.11010 0.83993 0.39272
 H1347 H 1.10748 0.92571 0.35113
 H1348 H 1.19560 0.90844 0.35258
 H1349 H 1.09154 0.83998 0.33411
 H1350 H 1.17339 0.80270 0.40593
 H1351 H 1.18907 0.88878 0.42325
 H1352 H 1.08506 0.82015 0.40466
 C1353 C 0.64230 0.34823 -0.09294
 C1354 C 0.62235 0.32686 -0.12459
 C1355 C 0.65757 0.34612 -0.14680
 C1356 C 0.67788 0.36718 -0.11553
 C1357 C 0.63049 0.38569 -0.15369
 C1358 C 0.59497 0.36673 -0.13112
 C1359 C 0.61525 0.38777 -0.09985
 C1360 C 0.65051 0.40706 -0.12203
 H1361 H 0.64681 0.33313 -0.06763
 H1362 H 0.61115 0.29356 -0.12596
 H1363 H 0.71225 0.36704 -0.10948
 H1364 H 0.62588 0.40093 -0.17894
 H1365 H 0.56062 0.36684 -0.13720
 H1366 H 0.66178 0.44033 -0.12072
 C1367 C 0.84811 1.14502 0.40904
 C1368 C 0.86790 1.17716 0.38362
 C1369 C 0.84216 1.15694 0.35461
 C1370 C 0.82193 1.12529 0.37958
 C1371 C 0.87838 1.12591 0.34683
 C1372 C 0.90439 1.14580 0.37607
 C1373 C 0.88430 1.11406 0.40105
 C1374 C 0.85848 1.09398 0.37203
 H1375 H 0.83603 1.15257 0.43491
 H1376 H 0.87150 1.21172 0.38796
 H1377 H 0.78772 1.11713 0.38058
 H1378 H 0.89075 1.11811 0.32108
 H1379 H 0.93856 1.15408 0.37496
 H1380 H 0.85481 1.05946 0.36759
 C1381 C 0.35750 0.65213 -0.09303
 C1382 C 0.37695 0.67340 -0.12499
 C1383 C 0.34132 0.65417 -0.14674
 C1384 C 0.32149 0.63322 -0.11515
 C1385 C 0.36823 0.61452 -0.15378
 C1386 C 0.40416 0.63345 -0.13170
 C1387 C 0.38438 0.61252 -0.10011
 C1388 C 0.34869 0.59328 -0.12183
 H1389 H 0.35344 0.66732 -0.06773
 H1390 H 0.38819 0.70667 -0.12659
 H1391 H 0.28723 0.63342 -0.10870
 H1392 H 0.37239 0.59917 -0.17901
 H1393 H 0.43840 0.63329 -0.13820
 H1394 H 0.33737 0.56004 -0.12030
 C1395 C 0.87818 0.89836 0.63717
 C1396 C 0.83009 0.88947 0.63570
 C1397 C 0.83903 0.84300 0.64464
 C1398 C 0.88688 0.85159 0.64634
 C1399 C 0.84228 0.83139 0.60664
 C1400 C 0.83376 0.87836 0.59732
 C1401 C 0.88164 0.88690 0.59915
 C1402 C 0.89057 0.84041 0.60808
 H1403 H 0.89320 0.92622 0.64949
 H1404 H 0.80497 0.90929 0.64743
 H1405 H 0.90842 0.84040 0.66683
 H1406 H 0.82722 0.80346 0.59447
 H1407 H 0.81224 0.88961 0.57684
 H1408 H 0.91565 0.82055 0.59636
 C1409 C 0.34823 0.35763 0.09259
 C1410 C 0.36718 0.32375 0.11675
 C1411 C 0.34386 0.34465 0.14672
 C1412 C 0.32460 0.37816 0.12295
 C1413 C 0.38223 0.37330 0.15402
 C1414 C 0.40582 0.35269 0.12368
 C1415 C 0.38656 0.38623 0.09993
 C1416 C 0.36327 0.40712 0.12990
 H1417 H 0.33463 0.35151 0.06696
 H1418 H 0.36839 0.28918 0.11171
 H1419 H 0.29092 0.38825 0.12299
 H1420 H 0.39601 0.37954 0.17957
 H1421 H 0.43950 0.34254 0.12370
 H1422 H 0.36201 0.44168 0.13497
   
