data_POSCAR
  _audit_creation_date              2014-09-24
  _audit_creation_method            'ToBaCCo'
  _symmetry_space_group_name_H-M    'P1'
  _symmetry_Int_Tables_number       1
  _symmetry_cell_setting            triclinic
  loop_
  _symmetry_equiv_pos_as_xyz
 x,y,z
_cell_length_a 86.7360
_cell_length_b 86.3637
_cell_length_c 86.6085
_cell_angle_alpha 89.995300
_cell_angle_beta 90.061200
_cell_angle_gamma 90.015100
loop_
  _atom_site_label
  _atom_site_type_symbol
  _atom_site_fract_x
  _atom_site_fract_y
  _atom_site_fract_z
C1 C 0.32419 0.44706 0.92640
 C2 C 0.31772 0.45334 0.91293
 C3 C 0.30447 0.44672 0.90643
 C4 C 0.29751 0.43387 0.91340
 C5 C 0.30382 0.42745 0.92688
 C6 C 0.31723 0.43405 0.93342
 C7 C 0.33766 0.45337 0.93281
 C8 C 0.34424 0.44678 0.94606
 C9 C 0.33730 0.43392 0.95308
 C10 C 0.32383 0.42747 0.94683
 C11 C 0.31702 0.41436 0.95353
 C12 C 0.30379 0.40778 0.94696
 C13 C 0.29716 0.41434 0.93374
 H14 H 0.32308 0.46322 0.90738
 H15 H 0.28731 0.42877 0.90822
 H16 H 0.34314 0.46326 0.92737
 H17 H 0.34251 0.42880 0.96328
 H18 H 0.32213 0.40912 0.96371
 H19 H 0.28699 0.40908 0.92867
 C20 C 0.44852 0.82174 0.42817
 C21 C 0.45497 0.83502 0.43492
 C22 C 0.44843 0.84142 0.44827
 C23 C 0.43549 0.83448 0.45506
 C24 C 0.42890 0.82120 0.44845
 C25 C 0.43541 0.81480 0.43493
 C26 C 0.45471 0.81552 0.41455
 C27 C 0.44789 0.80254 0.40765
 C28 C 0.43495 0.79558 0.41438
 C29 C 0.42862 0.80165 0.42799
 C30 C 0.41539 0.79505 0.43458
 C31 C 0.40889 0.80148 0.44791
 C32 C 0.41566 0.81445 0.45488
 H33 H 0.46491 0.84052 0.42965
 H34 H 0.43039 0.83956 0.46531
 H35 H 0.46465 0.82089 0.40918
 H36 H 0.42969 0.78560 0.40888
 H37 H 0.40997 0.78509 0.42920
 H38 H 0.41046 0.81943 0.46512
 C39 C 0.94675 0.92749 0.82356
 C40 C 0.95332 0.91436 0.81667
 C41 C 0.94667 0.90789 0.80339
 C42 C 0.93350 0.91462 0.79682
 C43 C 0.92679 0.92775 0.80357
 C44 C 0.93341 0.93422 0.81702
 C45 C 0.95309 0.93381 0.83708
 C46 C 0.94621 0.94670 0.84410
 C47 C 0.93302 0.95344 0.83758
 C48 C 0.92654 0.94726 0.82407
 C49 C 0.91313 0.95369 0.81765
 C50 C 0.90654 0.94720 0.80437
 C51 C 0.91338 0.93433 0.79732
 H52 H 0.96345 0.90903 0.82176
 H53 H 0.92833 0.90949 0.78661
 H54 H 0.96324 0.92859 0.84224
 H55 H 0.92770 0.96335 0.84312
 H56 H 0.90769 0.96359 0.82309
 H57 H 0.90812 0.92933 0.78710
 C58 C 0.44750 -0.07154 0.32146
 C59 C 0.45376 -0.08500 0.31493
 C60 C 0.44679 -0.09183 0.30202
 C61 C 0.43361 -0.08518 0.29544
 C62 C 0.42719 -0.07171 0.30181
 C63 C 0.43414 -0.06485 0.31490
 C64 C 0.45412 -0.06486 0.33466
 C65 C 0.44751 -0.05168 0.34135
 C66 C 0.43434 -0.04496 0.33481
 C67 C 0.42756 -0.05148 0.32161
 C68 C 0.41412 -0.04512 0.31522
 C69 C 0.40720 -0.05199 0.30231
 C70 C 0.41375 -0.06519 0.29558
 H71 H 0.46390 -0.09031 0.32002
 H72 H 0.42824 -0.09063 0.28551
 H73 H 0.46424 -0.07005 0.33990
 H74 H 0.42923 -0.03483 0.34016
 H75 H 0.40888 -0.03497 0.32042
 H76 H 0.40823 -0.07050 0.28566
 C77 C 0.82309 0.30280 0.32251
 C78 C 0.81634 0.29618 0.33567
 C79 C 0.80315 0.30282 0.34222
 C80 C 0.79649 0.31602 0.33558
 C81 C 0.80309 0.32279 0.32243
 C82 C 0.81646 0.31618 0.31585
 C83 C 0.83654 0.29649 0.31610
 C84 C 0.84341 0.30344 0.30321
 C85 C 0.83681 0.31665 0.29653
 C86 C 0.82337 0.32311 0.30280
 C87 C 0.81689 0.33657 0.29645
 C88 C 0.80368 0.34314 0.30305
 C89 C 0.79676 0.33625 0.31593
 H90 H 0.82148 0.28604 0.34097
 H91 H 0.78635 0.32114 0.34082
 H92 H 0.84180 0.28633 0.32124
 H93 H 0.84228 0.32200 0.28662
 H94 H 0.82222 0.34206 0.28654
 H95 H 0.78660 0.34150 0.32102
 C96 C -0.19910 0.82208 0.82051
 C97 C -0.20523 0.83569 0.81415
 C98 C -0.19836 0.84247 0.80115
 C99 C -0.18540 0.83559 0.79433
 C100 C -0.17913 0.82198 0.80056
 C101 C -0.18598 0.81518 0.81372
 C102 C -0.20559 0.81546 0.83380
 C103 C -0.19909 0.80214 0.84034
 C104 C -0.18616 0.79521 0.83356
 C105 C -0.17951 0.80167 0.82028
 C106 C -0.16627 0.79512 0.81368
 C107 C -0.15944 0.80194 0.80071
 C108 C -0.16589 0.81527 0.79412
 H109 H -0.21518 0.84113 0.81944
 H110 H -0.18007 0.84096 0.78435
 H111 H -0.21552 0.82081 0.83922
 H112 H -0.18113 0.78498 0.83879
 H113 H -0.16111 0.78489 0.81878
 H114 H -0.16042 0.82054 0.78416
 C115 C 0.92922 0.32056 0.44843
 C116 C 0.93577 0.33392 0.45491
 C117 C 0.94868 0.34085 0.44804
 C118 C 0.95524 0.33435 0.43474
 C119 C 0.94882 0.32100 0.42812
 C120 C 0.93575 0.31406 0.43496
 C121 C 0.91602 0.31382 0.45493
 C122 C 0.90929 0.30077 0.44809
 C123 C 0.91579 0.29423 0.43481
 C124 C 0.92899 0.30082 0.42815
 C125 C 0.93534 0.29465 0.41458
 C126 C 0.94824 0.30160 0.40778
 C127 C 0.95501 0.31467 0.41455
 H128 H 0.93067 0.33908 0.46512
 H129 H 0.96515 0.33984 0.42941
 H130 H 0.91081 0.31887 0.46513
 H131 H 0.91041 0.28421 0.42952
 H132 H 0.93011 0.28461 0.40918
 H133 H 0.96493 0.32003 0.40912
 C134 C 0.42583 0.44647 0.82391
 C135 C 0.43246 0.45285 0.83725
 C136 C 0.44555 0.44604 0.84387
 C137 C 0.45220 0.43289 0.83713
 C138 C 0.44571 0.42637 0.82379
 C139 C 0.43246 0.43316 0.81714
 C140 C 0.41251 0.45297 0.81740
 C141 C 0.40576 0.44629 0.80429
 C142 C 0.41235 0.43314 0.79751
 C143 C 0.42568 0.42649 0.80387
 C144 C 0.43217 0.41311 0.79739
 C145 C 0.44526 0.40635 0.80406
 C146 C 0.45205 0.41299 0.81717
 H147 H 0.42735 0.46296 0.84262
 H148 H 0.46227 0.42765 0.84241
 H149 H 0.40725 0.46309 0.82262
 H150 H 0.40698 0.42799 0.78742
 H151 H 0.42694 0.40781 0.78731
 H152 H 0.46212 0.40761 0.82230
 C153 C 0.82415 0.92749 0.94669
 C154 C 0.81742 0.91434 0.95340
 C155 C 0.80421 0.90767 0.94684
 C156 C 0.79754 0.91421 0.93361
 C157 C 0.80413 0.92736 0.92675
 C158 C 0.81751 0.93403 0.93329
 C159 C 0.83760 0.93401 0.95294
 C160 C 0.84446 0.94691 0.94591
 C161 C 0.83783 0.95347 0.93267
 C162 C 0.82439 0.94709 0.92627
 C163 C 0.81788 0.95333 0.91281
 C164 C 0.80466 0.94664 0.90631
 C165 C 0.79777 0.93375 0.91328
 H166 H 0.82259 0.90915 0.96358
 H167 H 0.78738 0.90894 0.92852
 H168 H 0.84284 0.92892 0.96313
 H169 H 0.84325 0.96339 0.92723
 H170 H 0.82318 0.96325 0.90725
 H171 H 0.78760 0.92860 0.90810
 C172 C 0.32325 0.82339 0.30217
 C173 C 0.31684 0.83687 0.29579
 C174 C 0.30362 0.84350 0.30233
 C175 C 0.29663 0.83661 0.31521
 C176 C 0.30289 0.82313 0.32172
 C177 C 0.31627 0.81648 0.31520
 C178 C 0.33670 0.81688 0.29596
 C179 C 0.34322 0.80365 0.30266
 C180 C 0.33628 0.79673 0.31553
 C181 C 0.32283 0.80308 0.32189
 C182 C 0.31602 0.79649 0.33502
 C183 C 0.30282 0.80318 0.34152
 C184 C 0.29623 0.81639 0.33486
 H185 H 0.32225 0.84231 0.28589
 H186 H 0.28646 0.84186 0.32028
 H187 H 0.34223 0.82221 0.28607
 H188 H 0.34149 0.78655 0.32070
 H189 H 0.32110 0.78633 0.34034
 H190 H 0.28608 0.82155 0.34006
 C191 C 0.82128 0.42960 0.44874
 C192 C 0.81469 0.41632 0.45532
 C193 C 0.80173 0.40943 0.44853
 C194 C 0.79514 0.41585 0.43522
 C195 C 0.80158 0.42913 0.42848
 C196 C 0.81473 0.43604 0.43524
 C197 C 0.83455 0.43630 0.45516
 C198 C 0.84134 0.44928 0.44821
 C199 C 0.83479 0.45576 0.43489
 C200 C 0.82152 0.44920 0.42832
 C201 C 0.81515 0.45530 0.41473
 C202 C 0.80218 0.44838 0.40800
 C203 C 0.79537 0.43539 0.41489
 H204 H 0.81978 0.41117 0.46555
 H205 H 0.78519 0.41035 0.42998
 H206 H 0.83975 0.43126 0.46540
 H207 H 0.84018 0.46573 0.42949
 H208 H 0.82041 0.46528 0.40923
 H209 H 0.78540 0.43004 0.40952
 C210 C 0.94922 0.82108 -0.07140
 C211 C 0.95540 0.83463 -0.06495
 C212 C 0.94858 0.84133 -0.05191
 C213 C 0.93564 0.83445 -0.04510
 C214 C 0.92930 0.82090 -0.05139
 C215 C 0.93609 0.81417 -0.06461
 C216 C 0.95566 0.81454 -0.08474
 C217 C 0.94910 0.80128 -0.09136
 C218 C 0.93615 0.79434 -0.08458
 C219 C 0.92956 0.80073 -0.07124
 C220 C 0.91631 0.79417 -0.06466
 C221 C 0.90954 0.80094 -0.05162
 C222 C 0.91605 0.81419 -0.04496
 H223 H 0.96534 0.84012 -0.07021
 H224 H 0.93037 0.83981 -0.03508
 H225 H 0.96560 0.81993 -0.09012
 H226 H 0.93105 0.78415 -0.08985
 H227 H 0.91109 0.78399 -0.06981
 H228 H 0.91063 0.81942 -0.03495
 C229 C 0.32318 0.32286 0.80270
 C230 C 0.31671 0.33630 0.79631
 C231 C 0.30343 0.34283 0.80281
 C232 C 0.29643 0.33590 0.81563
 C233 C 0.30275 0.32245 0.82217
 C234 C 0.31619 0.31589 0.81569
 C235 C 0.33670 0.31644 0.79653
 C236 C 0.34328 0.30325 0.80325
 C237 C 0.33633 0.29627 0.81608
 C238 C 0.32281 0.30253 0.82239
 C239 C 0.31599 0.29589 0.83550
 C240 C 0.30272 0.30248 0.84195
 C241 C 0.29608 0.31566 0.83527
 H242 H 0.32210 0.34182 0.78645
 H243 H 0.28622 0.34111 0.82065
 H244 H 0.34223 0.32182 0.78667
 H245 H 0.34159 0.28612 0.82126
 H246 H 0.32112 0.28576 0.84083
 H247 H 0.28588 0.32075 0.84043
 C248 C 0.17711 0.55223 0.57151
 C249 C 0.16367 0.54595 0.56502
 C250 C 0.15684 0.55293 0.55212
 C251 C 0.16347 0.56615 0.54550
 C252 C 0.17692 0.57258 0.55183
 C253 C 0.18378 0.56562 0.56491
 C254 C 0.18380 0.54559 0.58469
 C255 C 0.19698 0.55222 0.59133
 C256 C 0.20367 0.56542 0.58476
 C257 C 0.19714 0.57221 0.57157
 C258 C 0.20349 0.58568 0.56514
 C259 C 0.19662 0.59261 0.55224
 C260 C 0.18343 0.58605 0.54556
 H261 H 0.15838 0.53579 0.57013
 H262 H 0.15803 0.57153 0.53557
 H263 H 0.17864 0.53545 0.58995
 H264 H 0.21380 0.57053 0.59007
 H265 H 0.21363 0.59092 0.57030
 H266 H 0.17813 0.59158 0.53563
 C267 C 0.57227 0.69915 0.07115
 C268 C 0.58584 0.70528 0.06482
 C269 C 0.59263 0.69833 0.05189
 C270 C 0.58582 0.68528 0.04510
 C271 C 0.57225 0.67900 0.05128
 C272 C 0.56543 0.68594 0.06437
 C273 C 0.56563 0.70574 0.08437
 C274 C 0.55233 0.69925 0.09086
 C275 C 0.54547 0.68622 0.08410
 C276 C 0.55195 0.67948 0.07088
 C277 C 0.54544 0.66615 0.06430
 C278 C 0.55228 0.65923 0.05139
 C279 C 0.56559 0.66567 0.04484
 H280 H 0.59127 0.71531 0.07007
 H281 H 0.59124 0.67992 0.03516
 H282 H 0.57094 0.71575 0.08978
 H283 H 0.53525 0.68120 0.08930
 H284 H 0.53522 0.66099 0.06936
 H285 H 0.57087 0.66014 0.03493
 C286 C 0.69879 0.17886 0.67849
 C287 C 0.70489 0.18533 0.66495
 C288 C 0.69798 0.19835 0.65824
 C289 C 0.68501 0.20513 0.66510
 C290 C 0.67875 0.19882 0.67865
 C291 C 0.68565 0.18562 0.68539
 C292 C 0.70535 0.16555 0.68505
 C293 C 0.69888 0.15892 0.69832
 C294 C 0.68591 0.16567 0.70524
 C295 C 0.67921 0.17898 0.69883
 C296 C 0.66596 0.18555 0.70539
 C297 C 0.65908 0.19857 0.69863
 C298 C 0.66550 0.20524 0.68536
 H299 H 0.71486 0.18010 0.65948
 H300 H 0.67967 0.21514 0.65975
 H301 H 0.71531 0.16019 0.67968
 H302 H 0.68088 0.16040 0.71544
 H303 H 0.66082 0.18040 0.71559
 H304 H 0.66001 0.21523 0.68014
 C305 C 1.06976 0.04921 0.17962
 C306 C 1.08312 0.04286 0.18619
 C307 C 1.08978 0.04966 0.19928
 C308 C 1.08303 0.06275 0.20602
 C309 C 1.06966 0.06926 0.19959
 C310 C 1.06299 0.06249 0.18632
 C311 C 1.06330 0.04280 0.16620
 C312 C 1.05025 0.04956 0.15942
 C313 C 1.04345 0.06265 0.16612
 C314 C 1.04976 0.06921 0.17953
 C315 C 1.04336 0.08262 0.18603
 C316 C 1.05007 0.08938 0.19912
 C317 C 1.06311 0.08267 0.20593
 H318 H 1.08853 0.03281 0.18098
 H319 H 1.08836 0.06802 0.21606
 H320 H 1.06859 0.03275 0.16088
 H321 H 1.03343 0.06791 0.16074
 H322 H 1.03335 0.08799 0.18075
 H323 H 1.06830 0.08808 0.21598
 C324 C 0.05162 0.17868 1.07083
 C325 C 0.04504 0.16539 1.06425
 C326 C 0.05183 0.15845 1.05130
 C327 C 0.06514 0.16488 1.04472
 C328 C 0.07186 0.17817 1.05117
 C329 C 0.06510 0.18511 1.06430
 C330 C 0.04519 0.18543 1.08408
 C331 C 0.05211 0.19843 1.09084
 C332 C 0.06541 0.20489 1.08432
 C333 C 0.07200 0.19829 1.07108
 C334 C 0.08557 0.20439 1.06472
 C335 C 0.09230 0.19744 1.05176
 C336 C 0.08543 0.18443 1.04496
 H337 H 0.03481 0.16028 1.06936
 H338 H 0.07041 0.15938 1.03477
 H339 H 0.03497 0.18044 1.08929
 H340 H 0.07076 0.21487 1.08972
 H341 H 0.09105 0.21439 1.06996
 H342 H 0.09080 0.17906 1.03500
 C343 C 0.17694 0.67845 0.69701
 C344 C 0.16348 0.68485 0.70332
 C345 C 0.15652 0.69772 0.69637
 C346 C 0.16303 0.70439 0.68315
 C347 C 0.17648 0.69815 0.67669
 C348 C 0.18348 0.68511 0.68363
 C349 C 0.18377 0.66530 0.70363
 C350 C 0.19697 0.65876 0.69699
 C351 C 0.20354 0.66540 0.68379
 C352 C 0.19686 0.67854 0.67702
 C353 C 0.20310 0.68503 0.66355
 C354 C 0.19609 0.69790 0.65665
 C355 C 0.18288 0.70449 0.66323
 H356 H 0.15828 0.67970 0.71348
 H357 H 0.15748 0.71429 0.67780
 H358 H 0.17869 0.66000 0.71378
 H359 H 0.21368 0.66016 0.67866
 H360 H 0.21326 0.67995 0.65830
 H361 H 0.17748 0.71438 0.65773
 C362 C 1.19867 0.17865 0.17836
 C363 C 1.20517 0.16531 0.18493
 C364 C 1.19866 0.15871 0.19820
 C365 C 1.18572 0.16552 0.20510
 C366 C 1.17908 0.17886 0.19868
 C367 C 1.18555 0.18546 0.18523
 C368 C 1.20481 0.18507 0.16482
 C369 C 1.19795 0.19811 0.15809
 C370 C 1.18500 0.20494 0.16493
 C371 C 1.17871 0.19868 0.17847
 C372 C 1.16546 0.20514 0.18516
 C373 C 1.15901 0.19850 0.19842
 C374 C 1.16583 0.18547 0.20521
 H375 H 1.21512 0.15991 0.17957
 H376 H 1.18065 0.16028 0.21529
 H377 H 1.21476 0.17980 0.15936
 H378 H 1.17970 0.21496 0.15955
 H379 H 1.16001 0.21514 0.17991
 H380 H 1.16065 0.18034 0.21539
 C381 C 0.67684 1.07334 0.55218
 C382 C 0.66337 1.06695 0.54586
 C383 C 0.65676 1.05370 0.55243
 C384 C 0.66363 1.04665 0.56528
 C385 C 0.67710 1.05289 0.57175
 C386 C 0.68375 1.06630 0.56519
 C387 C 0.68334 1.08684 0.54594
 C388 C 0.69657 1.09336 0.55260
 C389 C 0.70349 1.08634 0.56545
 C390 C 0.69714 1.07285 0.57183
 C391 C 0.70373 1.06597 0.58495
 C392 C 0.69706 1.05274 0.59148
 C393 C 0.68385 1.04617 0.58487
 H394 H 0.65789 1.07238 0.53598
 H395 H 0.65836 1.03646 0.57035
 H396 H 0.67797 1.09239 0.53606
 H397 H 0.71367 1.09151 0.57062
 H398 H 0.71389 1.07105 0.59024
 H399 H 0.67869 1.03599 0.59009
 C400 C 0.54970 0.56961 0.18039
 C401 C 0.54336 0.56298 0.16703
 C402 C 0.55018 0.54989 0.16037
 C403 C 0.56328 0.54322 0.16710
 C404 C 0.56978 0.54970 0.18046
 C405 C 0.56299 0.56298 0.18714
 C406 C 0.54327 0.58303 0.18686
 C407 C 0.55002 0.58987 0.19988
 C408 C 0.56312 0.58325 0.20667
 C409 C 0.56970 0.56983 0.20036
 C410 C 0.58312 0.56341 0.20674
 C411 C 0.58989 0.55032 0.20002
 C412 C 0.58320 0.54343 0.18700
 H413 H 0.53330 0.56814 0.16164
 H414 H 0.56857 0.53318 0.16176
 H415 H 0.53322 0.58834 0.18160
 H416 H 0.56834 0.58872 0.21666
 H417 H 0.58848 0.56874 0.21673
 H418 H 0.58862 0.53339 0.18180
 C419 C 0.67878 0.69976 0.17810
 C420 C 0.66550 0.70616 0.18477
 C421 C 0.65909 0.69953 0.19806
 C422 C 0.66600 0.68656 0.20489
 C423 C 0.67928 0.68001 0.19837
 C424 C 0.68571 0.68661 0.18490
 C425 C 0.68503 0.70602 0.16453
 C426 C 0.69802 0.69924 0.15771
 C427 C 0.70497 0.68626 0.16448
 C428 C 0.69887 0.67985 0.17805
 C429 C 0.70545 0.66657 0.18466
 C430 C 0.69898 0.65999 0.19795
 C431 C 0.68600 0.66673 0.20483
 H432 H 0.65999 0.71612 0.17950
 H433 H 0.66086 0.68144 0.21509
 H434 H 0.67967 0.71599 0.15913
 H435 H 0.71494 0.68103 0.15904
 H436 H 0.71541 0.66118 0.17935
 H437 H 0.68100 0.66147 0.21504
 C438 C 0.17825 0.05080 1.07121
 C439 C 0.16497 0.04437 1.06453
 C440 C 0.15820 0.05132 1.05156
 C441 C 0.16478 0.06464 1.04506
 C442 C 0.17806 0.07121 1.05160
 C443 C 0.18484 0.06429 1.06474
 C444 C 0.18484 0.04421 1.08447
 C445 C 0.19783 0.05099 1.09134
 C446 C 0.20445 0.06431 1.08488
 C447 C 0.19801 0.07104 1.07162
 C448 C 0.20426 0.08463 1.06533
 C449 C 0.19746 0.09152 1.05236
 C450 C 0.18447 0.08480 1.04547
 H451 H 0.15975 0.03414 1.06958
 H452 H 0.15941 0.07004 1.03510
 H453 H 0.17969 0.03397 1.08961
 H454 H 0.21443 0.06958 1.09032
 H455 H 0.21425 0.09000 1.07065
 H456 H 0.17922 0.09029 1.03550
 C457 C 0.57334 0.17725 0.55296
 C458 C 0.58683 0.18362 0.54669
 C459 C 0.59346 0.19685 0.55329
 C460 C 0.58659 0.20390 0.56612
 C461 C 0.57310 0.19769 0.57254
 C462 C 0.56643 0.18429 0.56595
 C463 C 0.56683 0.16376 0.54670
 C464 C 0.55359 0.15727 0.55331
 C465 C 0.54666 0.16428 0.56613
 C466 C 0.55302 0.17777 0.57254
 C467 C 0.54643 0.18463 0.58564
 C468 C 0.55313 0.19784 0.59221
 C469 C 0.56636 0.20440 0.58564
 H470 H 0.59231 0.17818 0.53683
 H471 H 0.59188 0.21408 0.57121
 H472 H 0.57217 0.15818 0.53684
 H473 H 0.53648 0.15909 0.57123
 H474 H 0.53626 0.17957 0.59090
 H475 H 0.57152 0.21456 0.59090
 C476 C 0.07196 0.55279 0.67712
 C477 C 0.08509 0.54622 0.68395
 C478 C 0.09160 0.55291 0.69716
 C479 C 0.08496 0.56613 0.70376
 C480 C 0.07184 0.57286 0.69708
 C481 C 0.06530 0.56619 0.68368
 C482 C 0.06559 0.54644 0.66364
 C483 C 0.05274 0.55335 0.65668
 C484 C 0.04606 0.56658 0.66321
 C485 C 0.05228 0.57310 0.67668
 C486 C 0.04593 0.58658 0.68309
 C487 C 0.05249 0.59321 0.69632
 C488 C 0.06534 0.58634 0.70333
 H489 H 0.09040 0.53606 0.67886
 H490 H 0.09017 0.57129 0.71392
 H491 H 0.07074 0.53626 0.65843
 H492 H 0.03617 0.57191 0.65766
 H493 H 0.03605 0.59205 0.67769
 H494 H 0.07040 0.59163 0.71351
 C495 C 0.67888 0.57166 0.05083
 C496 C 0.66562 0.56500 0.04433
 C497 C 0.65912 0.55168 0.05089
 C498 C 0.66592 0.54481 0.06386
 C499 C 0.67917 0.55132 0.07051
 C500 C 0.68569 0.56481 0.06399
 C501 C 0.68521 0.58526 0.04465
 C502 C 0.69817 0.59207 0.05151
 C503 C 0.70501 0.58526 0.06451
 C504 C 0.69883 0.57166 0.07084
 C505 C 0.70529 0.56500 0.08413
 C506 C 0.69874 0.55169 0.09063
 C507 C 0.68579 0.54481 0.08380
 H508 H 0.66018 0.57031 0.03437
 H509 H 0.66071 0.53459 0.06893
 H510 H 0.67993 0.59069 0.03466
 H511 H 0.71497 0.59070 0.06981
 H512 H 0.71523 0.57032 0.08959
 H513 H 0.68072 0.53459 0.08900
 C514 C 0.05448 0.67581 0.57455
 C515 C 0.04811 0.68255 0.58783
 C516 C 0.05492 0.69570 0.59441
 C517 C 0.06806 0.70230 0.58770
 C518 C 0.07458 0.69571 0.57442
 C519 C 0.06778 0.68240 0.56780
 C520 C 0.04795 0.66244 0.56805
 C521 C 0.05461 0.65562 0.55498
 C522 C 0.06775 0.66217 0.54823
 C523 C 0.07442 0.67553 0.55458
 C524 C 0.08778 0.68200 0.54811
 C525 C 0.09453 0.69515 0.55474
 C526 C 0.08793 0.70202 0.56780
 H527 H 0.03799 0.67748 0.59317
 H528 H 0.07330 0.71243 0.59295
 H529 H 0.03783 0.65723 0.57325
 H530 H 0.07286 0.65674 0.53817
 H531 H 0.09303 0.67672 0.53804
 H532 H 0.09330 0.71215 0.57290
 C533 C 0.55129 1.07081 0.67768
 C534 C 0.54510 1.06445 0.66412
 C535 C 0.55199 1.05147 0.65728
 C536 C 0.56502 1.04466 0.66405
 C537 C 0.57135 1.05087 0.67762
 C538 C 0.56448 1.06402 0.68447
 C539 C 0.54476 1.08408 0.68436
 C540 C 0.55131 1.09060 0.69765
 C541 C 0.56431 1.08382 0.70447
 C542 C 0.57098 1.07056 0.69794
 C543 C 0.58428 1.06397 0.70441
 C544 C 0.59113 1.05101 0.69753
 C545 C 0.58465 1.04443 0.68424
 H546 H 0.53509 1.06974 0.65876
 H547 H 0.57036 1.03468 0.65864
 H548 H 0.53478 1.08949 0.67910
 H549 H 0.56936 1.08904 0.71468
 H550 H 0.58947 1.06905 0.71462
 H551 H 0.59012 1.03447 0.67893
 C552 C 0.42760 0.32274 0.94762
 C553 C 0.43395 0.33625 0.95399
 C554 C 0.44684 0.34323 0.94714
 C555 C 0.45356 0.33666 0.93396
 C556 C 0.44735 0.32315 0.92745
 C557 C 0.43431 0.31614 0.93429
 C558 C 0.41446 0.31589 0.95415
 C559 C 0.40797 0.30264 0.94746
 C560 C 0.41465 0.29602 0.93431
 C561 C 0.42779 0.30271 0.92763
 C562 C 0.43433 0.29641 0.91422
 C563 C 0.44721 0.30343 0.90742
 C564 C 0.45374 0.31670 0.91404
 H565 H 0.42874 0.34146 0.96412
 H566 H 0.46347 0.34218 0.92865
 H567 H 0.40913 0.32100 0.96426
 H568 H 0.40946 0.28582 0.92915
 H569 H 0.42929 0.28621 0.90894
 H570 H 0.46364 0.32210 0.90862
 C571 C 0.92716 0.44737 0.32244
 C572 C 0.93401 0.45389 0.33561
 C573 C 0.94720 0.44714 0.34212
 C574 C 0.95373 0.43391 0.33540
 C575 C 0.94703 0.42725 0.32224
 C576 C 0.93367 0.43398 0.31572
 C577 C 0.91373 0.45380 0.31609
 C578 C 0.90675 0.44695 0.30319
 C579 C 0.91322 0.43372 0.29645
 C580 C 0.92666 0.42714 0.30265
 C581 C 0.93302 0.41367 0.29624
 C582 C 0.94621 0.40698 0.30277
 C583 C 0.95323 0.41377 0.31567
 H584 H 0.92893 0.46406 0.34093
 H585 H 0.96387 0.42867 0.34057
 H586 H 0.90856 0.46397 0.32129
 H587 H 0.90766 0.42845 0.28653
 H588 H 0.92760 0.40825 0.28632
 H589 H 0.96338 0.40843 0.32070
 C590 C 0.32198 0.94918 0.42791
 C591 C 0.31570 0.95530 0.41428
 C592 C 0.30272 0.94842 0.40750
 C593 C 0.29582 0.93548 0.41438
 C594 C 0.30195 0.92921 0.42801
 C595 C 0.31510 0.93607 0.43482
 C596 C 0.33524 0.95570 0.43454
 C597 C 0.34169 0.94921 0.44791
 C598 C 0.33481 0.93627 0.45484
 C599 C 0.32155 0.92962 0.44836
 C600 C 0.31486 0.91638 0.45493
 C601 C 0.30190 0.90954 0.44809
 C602 C 0.29541 0.91598 0.43474
 H603 H 0.32102 0.96525 0.40879
 H604 H 0.28584 0.93017 0.40898
 H605 H 0.34070 0.96564 0.42916
 H606 H 0.33993 0.93123 0.46512
 H607 H 0.31987 0.91122 0.46519
 H608 H 0.28545 0.91051 0.42945
 O609 O 0.20847 0.52036 0.74896
 O610 O 0.21353 0.51830 0.77536
 O611 O 0.24877 0.54159 0.73014
 O612 O 0.27422 0.53706 0.72968
 O613 O 0.22962 0.50095 0.70868
 O614 O 0.23082 0.47396 0.71445
 O615 O 0.28985 0.49967 0.77009
 O616 O 0.28550 0.52605 0.76694
 O617 O 0.25099 0.48034 0.79018
 O618 O 0.22312 0.48141 0.78497
 O619 O 0.26956 0.45991 0.75101
 O620 O 0.26865 0.46519 0.72334
 O621 O 0.28987 0.48089 0.75158
 O622 O 0.28425 0.48252 0.72288
 O623 O 0.25100 0.45976 0.76956
 O624 O 0.22255 0.46555 0.76785
 O625 O 0.26975 0.49878 0.79003
 O626 O 0.26446 0.52682 0.78506
 O627 O 0.20830 0.50137 0.73062
 O628 O 0.21410 0.47385 0.73202
 O629 O 0.24816 0.51964 0.70850
 O630 O 0.27607 0.51719 0.71473
 O631 O 0.22993 0.54155 0.74846
 O632 O 0.23356 0.53551 0.77633
 Zr633 Zr 0.23088 0.51919 0.75819
 O634 O 0.24436 0.50537 0.77300
 Zr635 Zr 0.25781 0.51899 0.73083
 O636 O 0.27263 0.50563 0.74475
 Zr637 Zr 0.23068 0.49178 0.73117
 O638 O 0.24450 0.47697 0.74467
 Zr639 Zr 0.26774 0.50928 0.76821
 O640 O 0.25433 0.52433 0.75433
 Zr641 Zr 0.24081 0.48182 0.76815
 O642 O 0.22580 0.49558 0.75464
 Zr643 Zr 0.26794 0.48206 0.74105
 O644 O 0.25411 0.49541 0.72589
 O645 O 0.23455 0.51520 0.73481
 O646 O 0.26418 0.48572 0.76447
 C647 C 0.20190 0.51237 0.73831
 C648 C 0.23787 0.54808 0.73778
 C649 C 0.23736 0.51175 0.70208
 C650 C 0.29619 0.48850 0.76266
 C651 C 0.26222 0.48772 0.79642
 C652 C 0.26209 0.45347 0.76205
 H653 H 0.24195 0.50791 0.78387
 H654 H 0.24206 0.46609 0.74212
 H655 H 0.22796 0.52179 0.72821
 H656 H 0.28348 0.50827 0.74244
 H657 H 0.28056 0.53585 0.76364
 H658 H 0.28222 0.53473 0.73747
 H659 H 0.22436 0.45835 0.75916
 H660 H 0.20885 0.47477 0.74212
 H661 H 0.27328 0.52640 0.79234
 H662 H 0.22536 0.54346 0.77539
 H663 H 0.25897 0.45916 0.72389
 H664 H 0.24115 0.47419 0.70960
 H665 H 0.20923 0.50768 0.77515
 H666 H 0.22406 0.49093 0.79125
 H667 H 0.27422 0.50766 0.70864
 H668 H 0.29154 0.49109 0.72492
 O669 O 0.20845 0.01985 0.24866
 O670 O 0.21356 0.01793 0.27503
 O671 O 0.24869 0.04131 0.22977
 O672 O 0.27412 0.03687 0.22919
 O673 O 0.22965 0.00053 0.20837
 O674 O 0.23104 -0.02644 0.21417
 O675 O 0.29000 -0.00031 0.26971
 O676 O 0.28549 0.02601 0.26653
 O677 O 0.25117 -0.01977 0.28992
 O678 O 0.22334 -0.01893 0.28467
 O679 O 0.26989 -0.04022 0.25075
 O680 O 0.26893 -0.03505 0.22311
 O681 O 0.29010 -0.01909 0.25120
 O682 O 0.28437 -0.01760 0.22251
 O683 O 0.25136 -0.04043 0.26933
 O684 O 0.22288 -0.03483 0.26761
 O685 O 0.26985 -0.00125 0.28972
 O686 O 0.26446 0.02674 0.28465
 O687 O 0.20835 0.00081 0.23039
 O688 O 0.21436 -0.02665 0.23175
 O689 O 0.24810 0.01931 0.20813
 O690 O 0.27604 0.01699 0.21434
 O691 O 0.22984 0.04120 0.24808
 O692 O 0.23350 0.03522 0.27595
 Zr693 Zr 0.23089 0.01886 0.25784
 O694 O 0.24446 0.00513 0.27266
 Zr695 Zr 0.25779 0.01874 0.23045
 O696 O 0.27269 0.00550 0.24439
 Zr697 Zr 0.23081 -0.00860 0.23087
 O698 O 0.24472 -0.02331 0.24440
 Zr699 Zr 0.26781 0.00916 0.26785
 O700 O 0.25431 0.02410 0.25394
 Zr701 Zr 0.24103 -0.01844 0.26787
 O702 O 0.22593 -0.00479 0.25434
 Zr703 Zr 0.26814 -0.01811 0.24075
 O704 O 0.25421 -0.00486 0.22556
 O705 O 0.23455 0.01485 0.23446
 O706 O 0.26438 -0.01443 0.26417
 C707 C 0.20189 0.01176 0.23808
 C708 C 0.23777 0.04777 0.23742
 C709 C 0.23734 0.01135 0.20174
 C710 C 0.29640 -0.01142 0.26225
 C711 C 0.26234 -0.01230 0.29615
 C712 C 0.26248 -0.04668 0.26182
 H713 H 0.24204 0.00769 0.28353
 H714 H 0.24234 -0.03421 0.24187
 H715 H 0.22790 0.02140 0.22786
 H716 H 0.28352 0.00820 0.24206
 H717 H 0.28051 0.03578 0.26322
 H718 H 0.28208 0.03466 0.23705
 H719 H 0.22474 -0.04206 0.25896
 H720 H 0.20913 -0.02578 0.24187
 H721 H 0.27328 0.02639 0.29192
 H722 H 0.22527 0.04314 0.27500
 H723 H 0.25925 -0.04107 0.22362
 H724 H 0.24136 -0.02615 0.20931
 H725 H 0.20933 0.00729 0.27486
 H726 H 0.22419 -0.00938 0.29091
 H727 H 0.27420 0.00747 0.20824
 H728 H 0.29161 -0.00898 0.22451
 O729 O 0.54128 0.73027 0.24883
 O730 O 0.53633 0.73241 0.27521
 O731 O 0.50082 0.70898 0.23020
 O732 O 0.47543 0.71358 0.22960
 O733 O 0.52001 0.74959 0.20854
 O734 O 0.51882 0.77658 0.21422
 O735 O 0.45996 0.75106 0.27001
 O736 O 0.46428 0.72468 0.26694
 O737 O 0.49899 0.77036 0.29003
 O738 O 0.52677 0.76935 0.28474
 O739 O 0.48020 0.79074 0.25080
 O740 O 0.48102 0.78541 0.22317
 O741 O 0.45988 0.76974 0.25141
 O742 O 0.46545 0.76807 0.22272
 O743 O 0.49881 0.79093 0.26934
 O744 O 0.52727 0.78514 0.26758
 O745 O 0.48020 0.75193 0.28997
 O746 O 0.48540 0.72390 0.28500
 O747 O 0.54140 0.74925 0.23048
 O748 O 0.53558 0.77675 0.23177
 O749 O 0.50148 0.73089 0.20842
 O750 O 0.47356 0.73341 0.21468
 O751 O 0.51974 0.70906 0.24848
 O752 O 0.51630 0.71523 0.27630
 Zr753 Zr 0.51890 0.73147 0.25809
 O754 O 0.50547 0.74534 0.27288
 Zr755 Zr 0.49187 0.73161 0.23076
 O756 O 0.47711 0.74501 0.24467
 Zr757 Zr 0.51901 0.75881 0.23100
 O758 O 0.50524 0.77366 0.24448
 Zr759 Zr 0.48207 0.74142 0.26814
 O760 O 0.49543 0.72635 0.25427
 Zr761 Zr 0.50901 0.76887 0.26796
 O762 O 0.52397 0.75507 0.25447
 Zr763 Zr 0.48178 0.76857 0.24091
 O764 O 0.49557 0.75518 0.22575
 O765 O 0.51516 0.73539 0.23470
 O766 O 0.48562 0.76498 0.26434
 C767 C 0.54783 0.73827 0.23818
 C768 C 0.51171 0.70248 0.23788
 C769 C 0.51224 0.73878 0.20197
 C770 C 0.45359 0.76217 0.26252
 C771 C 0.48780 0.76297 0.29633
 C772 C 0.48770 0.79720 0.26182
 H773 H 0.50793 0.74281 0.28375
 H774 H 0.50767 0.78453 0.24189
 H775 H 0.52173 0.72876 0.22812
 H776 H 0.46626 0.74236 0.24238
 H777 H 0.46918 0.71487 0.26364
 H778 H 0.46752 0.71586 0.23748
 H779 H 0.52540 0.79235 0.25890
 H780 H 0.54086 0.77588 0.24187
 H781 H 0.47661 0.72433 0.29230
 H782 H 0.52449 0.70726 0.27538
 H783 H 0.49072 0.79141 0.22366
 H784 H 0.50848 0.77634 0.20939
 H785 H 0.54065 0.74301 0.27494
 H786 H 0.52594 0.75979 0.29097
 H787 H 0.47544 0.74289 0.20853
 H788 H 0.45817 0.75949 0.22478
 O789 O -0.00137 0.77069 0.79123
 O790 O 0.02499 0.76874 0.78628
 O791 O -0.02009 0.79203 0.75082
 O792 O -0.02032 0.78760 0.72530
 O793 O -0.04155 0.75136 0.76971
 O794 O -0.03579 0.72438 0.76849
 O795 O 0.02008 0.75015 0.70982
 O796 O 0.01686 0.77655 0.71416
 O797 O 0.03993 0.73083 0.74884
 O798 O 0.03457 0.73184 0.77672
 O799 O 0.00088 0.71040 0.72993
 O800 O -0.02677 0.71571 0.73068
 O801 O 0.00158 0.73139 0.70965
 O802 O -0.02710 0.73303 0.71504
 O803 O 0.01935 0.71023 0.74862
 O804 O 0.01751 0.71595 0.77710
 O805 O 0.03989 0.74933 0.73011
 O806 O 0.03485 0.77734 0.73537
 O807 O -0.01969 0.75170 0.79124
 O808 O -0.01835 0.72423 0.78534
 O809 O -0.04166 0.77006 0.75115
 O810 O -0.03529 0.76772 0.72327
 O811 O -0.00187 0.79195 0.76980
 O812 O 0.02598 0.78597 0.76625
 Zr813 Zr 0.00789 0.76962 0.76882
 O814 O 0.02274 0.75582 0.75539
 Zr815 Zr -0.01930 0.76947 0.74167
 O816 O -0.00534 0.75613 0.72690
 Zr817 Zr -0.01909 0.74220 0.76879
 O818 O -0.00554 0.72742 0.75501
 Zr819 Zr 0.01806 0.75978 0.73196
 O820 O 0.00414 0.77480 0.74532
 Zr821 Zr 0.01788 0.73227 0.75887
 O822 O 0.00432 0.74600 0.77384
 Zr823 Zr -0.00905 0.73255 0.73152
 O824 O -0.02425 0.74588 0.74530
 O825 O -0.01544 0.76562 0.76499
 O826 O 0.01432 0.73621 0.73545
 C827 C -0.01200 0.76265 0.79774
 C828 C -0.01252 0.79849 0.76182
 C829 C -0.04812 0.76214 0.76190
 C830 C 0.01269 0.73898 0.70341
 C831 C 0.04623 0.73826 0.73767
 C832 C 0.01188 0.70396 0.73746
 H833 H 0.03358 0.75838 0.75788
 H834 H -0.00810 0.71653 0.75741
 H835 H -0.02207 0.77218 0.77159
 H836 H -0.00759 0.75879 0.71602
 H837 H 0.01355 0.78634 0.71908
 H838 H -0.01258 0.78523 0.71728
 H839 H 0.00885 0.70874 0.77521
 H840 H -0.00827 0.72509 0.79064
 H841 H 0.04215 0.77695 0.72658
 H842 H 0.02500 0.79392 0.77447
 H843 H -0.02623 0.70963 0.74034
 H844 H -0.04059 0.72463 0.75811
 H845 H 0.02480 0.75811 0.79054
 H846 H 0.04088 0.74133 0.77581
 H847 H -0.04134 0.75816 0.72502
 H848 H -0.02502 0.74161 0.70778
 O849 O 0.04130 0.02008 0.00116
 O850 O 0.03636 0.01801 -0.02523
 O851 O 0.00088 0.04127 0.01980
 O852 O -0.02455 0.03670 0.02014
 O853 O 0.01996 0.00066 0.04140
 O854 O 0.01887 -0.02632 0.03564
 O855 O -0.03997 -0.00076 -0.02029
 O856 O -0.03566 0.02562 -0.01716
 O857 O -0.00098 -0.02007 -0.04017
 O858 O 0.02687 -0.01889 -0.03486
 O859 O -0.01966 -0.04050 -0.00106
 O860 O -0.01892 -0.03515 0.02660
 O861 O -0.04004 -0.01954 -0.00178
 O862 O -0.03457 -0.01790 0.02693
 O863 O -0.00099 -0.04063 -0.01951
 O864 O 0.02740 -0.03473 -0.01773
 O865 O -0.01976 -0.00165 -0.04015
 O866 O -0.01453 0.02641 -0.03518
 O867 O 0.04141 0.00112 0.01953
 O868 O 0.03565 -0.02640 0.01817
 O869 O 0.00139 0.01930 0.04149
 O870 O -0.02647 0.01685 0.03510
 O871 O 0.01980 0.04125 0.00156
 O872 O 0.01630 0.03517 -0.02631
 Zr873 Zr 0.01893 0.01888 -0.00814
 O874 O 0.00554 0.00501 -0.02301
 Zr875 Zr -0.00813 0.01865 0.01909
 O876 O -0.02286 0.00525 0.00511
 Zr877 Zr 0.01904 -0.00850 0.01891
 O878 O 0.00531 -0.02335 0.00535
 Zr879 Zr -0.01787 0.00888 -0.01832
 O880 O -0.00455 0.02397 -0.00440
 Zr881 Zr 0.00910 -0.01851 -0.01811
 O882 O 0.02403 -0.00472 -0.00454
 Zr883 Zr -0.01816 -0.01832 0.00885
 O884 O -0.00441 -0.00492 0.02407
 O885 O 0.01516 0.01491 0.01523
 O886 O -0.01429 -0.01467 -0.01455
 C887 C 0.04785 0.01210 0.01184
 C888 C 0.01180 0.04778 0.01219
 C889 C 0.01214 0.01141 0.04797
 C890 C -0.04633 -0.01194 -0.01288
 C891 C -0.01220 -0.01271 -0.04648
 C892 C -0.01209 -0.04694 -0.01203
 H893 H 0.00799 0.00756 -0.03387
 H894 H 0.00776 -0.03422 0.00793
 H895 H 0.02172 0.02151 0.02187
 H896 H -0.03372 0.00787 0.00737
 H897 H -0.03075 0.03544 -0.01387
 H898 H -0.03250 0.03436 0.01230
 H899 H 0.02561 -0.04189 -0.00900
 H900 H 0.04096 -0.02548 0.00809
 H901 H -0.02332 0.02596 -0.04250
 H902 H 0.02449 0.04315 -0.02534
 H903 H -0.00924 -0.04117 0.02609
 H904 H 0.00851 -0.02612 0.04043
 H905 H 0.04064 0.00740 -0.02502
 H906 H 0.02591 -0.00941 -0.04118
 H907 H -0.02467 0.00730 0.04117
 H908 H -0.04184 -0.00932 0.02486
 O909 O -0.02049 0.45830 0.49853
 O910 O -0.01839 0.46324 0.52492
 O911 O -0.04155 0.49904 0.47995
 O912 O -0.03689 0.52454 0.47947
 O913 O -0.00125 0.47966 0.45832
 O914 O 0.02566 0.48081 0.46400
 O915 O 0.00052 0.53984 0.52001
 O916 O -0.02579 0.53563 0.51683
 O917 O 0.01959 0.50062 0.53987
 O918 O 0.01844 0.47268 0.53451
 O919 O 0.03993 0.51944 0.50070
 O920 O 0.03461 0.51873 0.47309
 O921 O 0.01914 0.53990 0.50144
 O922 O 0.01736 0.53442 0.47269
 O923 O 0.04004 0.50074 0.51922
 O924 O 0.03419 0.47218 0.51738
 O925 O 0.00128 0.51951 0.53985
 O926 O -0.02666 0.51438 0.53483
 O927 O -0.00160 0.45816 0.48020
 O928 O 0.02580 0.46394 0.48150
 O929 O -0.01977 0.49835 0.45823
 O930 O -0.01712 0.52638 0.46456
 O931 O -0.04154 0.47998 0.49816
 O932 O -0.03541 0.48341 0.52602
 Zr933 Zr -0.01924 0.48077 0.50784
 O934 O -0.00538 0.49417 0.52269
 Zr935 Zr -0.01899 0.50796 0.48059
 O936 O -0.00560 0.52273 0.49456
 Zr937 Zr 0.00799 0.48062 0.48078
 O938 O 0.02282 0.49438 0.49431
 Zr939 Zr -0.00920 0.51769 0.51800
 O940 O -0.02426 0.50436 0.50408
 Zr941 Zr 0.01804 0.49056 0.51778
 O942 O 0.00425 0.47560 0.50423
 Zr943 Zr 0.01784 0.51796 0.49080
 O944 O 0.00445 0.50419 0.47559
 O945 O -0.01531 0.48456 0.48447
 O946 O 0.01424 0.51406 0.51421
 C947 C -0.01255 0.45172 0.48788
 C948 C -0.04805 0.48807 0.48756
 C949 C -0.01199 0.48749 0.45177
 C950 C 0.01165 0.54620 0.51259
 C951 C 0.01227 0.51187 0.54619
 C952 C 0.04633 0.51189 0.51172
 H953 H -0.00790 0.49170 0.53355
 H954 H 0.03364 0.49191 0.49173
 H955 H -0.02193 0.47799 0.47787
 H956 H -0.00819 0.53364 0.49231
 H957 H -0.03558 0.53074 0.51352
 H958 H -0.03457 0.53248 0.48736
 H959 H 0.04136 0.47405 0.50870
 H960 H 0.02493 0.45863 0.49160
 H961 H -0.02620 0.52319 0.54216
 H962 H -0.04338 0.47522 0.52505
 H963 H 0.04049 0.50893 0.47350
 H964 H 0.02541 0.49119 0.45916
 H965 H -0.00783 0.45890 0.52470
 H966 H 0.00897 0.47361 0.54080
 H967 H -0.00770 0.52446 0.45841
 H968 H 0.00891 0.54180 0.47482
 O969 O 0.45853 -0.00095 0.48001
 O970 O 0.46353 0.02550 0.48217
 O971 O 0.49889 -0.01967 0.45881
 O972 O 0.52433 -0.02015 0.46337
 O973 O 0.47977 -0.04142 0.49921
 O974 O 0.48096 -0.03576 0.52614
 O975 O 0.53987 0.02025 0.50081
 O976 O 0.53551 0.01722 0.47451
 O977 O 0.50091 0.04027 0.52012
 O978 O 0.47307 0.03497 0.51902
 O979 O 0.51961 0.00093 0.54038
 O980 O 0.51879 -0.02677 0.53502
 O981 O 0.53995 0.00159 0.51944
 O982 O 0.53435 -0.02718 0.51773
 O983 O 0.50100 0.01949 0.54058
 O984 O 0.47257 0.01776 0.53477
 O985 O 0.51968 0.04023 0.50175
 O986 O 0.51442 0.03533 0.47378
 O987 O 0.45839 -0.01942 0.49887
 O988 O 0.46421 -0.01817 0.52632
 O989 O 0.49832 -0.04149 0.48061
 O990 O 0.52621 -0.03521 0.48312
 O991 O 0.48000 -0.00134 0.45890
 O992 O 0.48356 0.02658 0.46505
 Zr993 Zr 0.48092 0.00832 0.48124
 O994 O 0.49436 0.02313 0.49510
 Zr995 Zr 0.50791 -0.01908 0.48136
 O996 O 0.52269 -0.00515 0.49476
 Zr997 Zr 0.48078 -0.01891 0.50845
 O998 O 0.49457 -0.00541 0.52330
 Zr999 Zr 0.51775 0.01838 0.49121
 O1000 O 0.50438 0.00450 0.47613
 Zr1001 Zr 0.49082 0.01815 0.51855
 O1002 O 0.47584 0.00464 0.50476
 Zr1003 Zr 0.51803 -0.00896 0.51824
 O1004 O 0.50422 -0.02414 0.50485
 O1005 O 0.48464 -0.01515 0.48512
 O1006 O 0.51421 0.01453 0.51469
 C1007 C 0.45197 -0.01166 0.48794
 C1008 C 0.48798 -0.01199 0.45235
 C1009 C 0.48754 -0.04798 0.48844
 C1010 C 0.54624 0.01273 0.51189
 C1011 C 0.51211 0.04659 0.51278
 C1012 C 0.51211 0.01195 0.54684
 H1013 H 0.49192 0.03403 0.49260
 H1014 H 0.49214 -0.00802 0.53413
 H1015 H 0.47805 -0.02175 0.47851
 H1016 H 0.53354 -0.00744 0.49212
 H1017 H 0.53059 0.01394 0.46472
 H1018 H 0.53229 -0.01230 0.46571
 H1019 H 0.47439 0.00900 0.54190
 H1020 H 0.45893 -0.00804 0.52545
 H1021 H 0.52322 0.04266 0.47423
 H1022 H 0.47536 0.02566 0.45710
 H1023 H 0.50908 -0.02631 0.54097
 H1024 H 0.49130 -0.04060 0.52591
 H1025 H 0.45922 0.02523 0.49275
 H1026 H 0.47398 0.04130 0.50955
 H1027 H 0.52437 -0.04136 0.49258
 H1028 H 0.54163 -0.02510 0.50920
 O1029 O 0.50111 0.54109 0.02051
 O1030 O 0.47474 0.53620 0.01840
 O1031 O 0.51957 0.50036 0.04164
 O1032 O 0.52003 0.47486 0.03699
 O1033 O 0.54122 0.51963 0.00117
 O1034 O 0.53550 0.51854 -0.02573
 O1035 O 0.47959 0.45952 -0.00039
 O1036 O 0.48268 0.46383 0.02593
 O1037 O 0.45975 0.49881 -0.01960
 O1038 O 0.46513 0.52673 -0.01844
 O1039 O 0.49872 0.47987 -0.03992
 O1040 O 0.52638 0.48065 -0.03464
 O1041 O 0.49812 0.45943 -0.01905
 O1042 O 0.52677 0.46493 -0.01741
 O1043 O 0.48033 0.49866 -0.04005
 O1044 O 0.48225 0.52722 -0.03422
 O1045 O 0.45977 0.47987 -0.00131
 O1046 O 0.46471 0.48507 0.02669
 O1047 O 0.51941 0.54119 0.00159
 O1048 O 0.51805 0.53542 -0.02585
 O1049 O 0.54129 0.50098 0.01977
 O1050 O 0.53491 0.47298 0.01722
 O1051 O 0.50140 0.51942 0.04161
 O1052 O 0.47359 0.51604 0.03547
 Zr1053 Zr 0.49176 0.51865 0.01927
 O1054 O 0.47691 0.50524 0.00541
 Zr1055 Zr 0.51893 0.49142 0.01905
 O1056 O 0.50495 0.47667 0.00565
 Zr1057 Zr 0.51877 0.51874 -0.00800
 O1058 O 0.50523 0.50499 -0.02285
 Zr1059 Zr 0.48155 0.48172 0.00925
 O1060 O 0.49548 0.49505 0.02432
 Zr1061 Zr 0.48181 0.50885 -0.01804
 O1062 O 0.49537 0.52379 -0.00425
 Zr1063 Zr 0.50870 0.48141 -0.01783
 O1064 O 0.52391 0.49517 -0.00444
 O1065 O 0.51509 0.51482 0.01534
 O1066 O 0.48534 0.48534 -0.01422
 C1067 C 0.51176 0.54765 0.01255
 C1068 C 0.51197 0.51131 0.04814
 C1069 C 0.54776 0.51179 0.01192
 C1070 C 0.48702 0.45313 -0.01150
 C1071 C 0.45345 0.48753 -0.01232
 C1072 C 0.48773 0.48746 -0.04632
 H1073 H 0.46607 0.50772 0.00793
 H1074 H 0.50780 0.50745 -0.03369
 H1075 H 0.52171 0.52138 0.02196
 H1076 H 0.50720 0.46576 0.00827
 H1077 H 0.48598 0.46875 0.03572
 H1078 H 0.51211 0.46696 0.03470
 H1079 H 0.49089 0.52532 -0.04143
 H1080 H 0.50799 0.54076 -0.02496
 H1081 H 0.45738 0.47626 0.02622
 H1082 H 0.47456 0.52424 0.04343
 H1083 H 0.52584 0.49036 -0.04067
 H1084 H 0.54023 0.50811 -0.02556
 H1085 H 0.47498 0.54054 0.00782
 H1086 H 0.45885 0.52582 -0.00896
 H1087 H 0.54102 0.47485 0.00776
 H1088 H 0.52474 0.45765 -0.00884
 O1089 O 0.75159 0.27018 0.45916
 O1090 O 0.72521 0.26817 0.46409
 O1091 O 0.77030 0.29130 0.49966
 O1092 O 0.77076 0.28670 0.52512
 O1093 O 0.79167 0.25059 0.48050
 O1094 O 0.78583 0.22363 0.48166
 O1095 O 0.73025 0.24950 0.54058
 O1096 O 0.73342 0.27584 0.53620
 O1097 O 0.71017 0.23026 0.50144
 O1098 O 0.71548 0.23133 0.47359
 O1099 O 0.74910 0.20966 0.52029
 O1100 O 0.77676 0.21479 0.51949
 O1101 O 0.74869 0.23068 0.54068
 O1102 O 0.77732 0.23210 0.53509
 O1103 O 0.73066 0.20960 0.50157
 O1104 O 0.73250 0.21541 0.47311
 O1105 O 0.71033 0.24862 0.52030
 O1106 O 0.71539 0.27666 0.51506
 O1107 O 0.76982 0.25112 0.45905
 O1108 O 0.76831 0.22359 0.46484
 O1109 O 0.79188 0.26927 0.49906
 O1110 O 0.78559 0.26680 0.52700
 O1111 O 0.75205 0.29134 0.48070
 O1112 O 0.72422 0.28536 0.48415
 Zr1113 Zr 0.74230 0.26900 0.48155
 O1114 O 0.72742 0.25521 0.49497
 Zr1115 Zr 0.76955 0.26868 0.50865
 O1116 O 0.75556 0.25534 0.52341
 Zr1117 Zr 0.76918 0.24151 0.48146
 O1118 O 0.75561 0.22672 0.49522
 Zr1119 Zr 0.73216 0.25907 0.51841
 O1120 O 0.74611 0.27409 0.50506
 Zr1121 Zr 0.73220 0.23166 0.49141
 O1122 O 0.74578 0.24539 0.47645
 Zr1123 Zr 0.75917 0.23176 0.51872
 O1124 O 0.77441 0.24508 0.50495
 O1125 O 0.76562 0.26493 0.48533
 O1126 O 0.73581 0.23550 0.51485
 C1127 C 0.76221 0.26216 0.45262
 C1128 C 0.76269 0.29784 0.48873
 C1129 C 0.79828 0.26136 0.48828
 C1130 C 0.73767 0.23835 0.54698
 C1131 C 0.70393 0.23762 0.51268
 C1132 C 0.73807 0.20327 0.51273
 H1133 H 0.71659 0.25780 0.49251
 H1134 H 0.75812 0.21583 0.49278
 H1135 H 0.77225 0.27153 0.47877
 H1136 H 0.75787 0.25797 0.53428
 H1137 H 0.73677 0.28563 0.53128
 H1138 H 0.76289 0.28443 0.53305
 H1139 H 0.74115 0.20818 0.47496
 H1140 H 0.75826 0.22457 0.45952
 H1141 H 0.70809 0.27624 0.52385
 H1142 H 0.72520 0.29331 0.47594
 H1143 H 0.77621 0.20878 0.50979
 H1144 H 0.79061 0.22381 0.49204
 H1145 H 0.72543 0.25758 0.45973
 H1146 H 0.70925 0.24088 0.47449
 H1147 H 0.79165 0.25727 0.52515
 H1148 H 0.77537 0.24073 0.54234
 O1149 O 0.75130 0.77065 -0.04159
 O1150 O 0.72495 0.76882 -0.03656
 O1151 O 0.77030 0.79173 -0.00119
 O1152 O 0.77062 0.78721 0.02431
 O1153 O 0.79143 0.75100 -0.02030
 O1154 O 0.78552 0.72406 -0.01915
 O1155 O 0.73010 0.75008 0.03988
 O1156 O 0.73334 0.77640 0.03551
 O1157 O 0.70990 0.73088 0.00079
 O1158 O 0.71515 0.73192 -0.02705
 O1159 O 0.74888 0.71016 0.01952
 O1160 O 0.77650 0.71526 0.01874
 O1161 O 0.74847 0.73120 0.03994
 O1162 O 0.77711 0.73258 0.03433
 O1163 O 0.73039 0.71014 0.00086
 O1164 O 0.73214 0.71600 -0.02760
 O1165 O 0.71013 0.74928 0.01962
 O1166 O 0.71529 0.77729 0.01439
 O1167 O 0.76950 0.75155 -0.04173
 O1168 O 0.76798 0.72405 -0.03591
 O1169 O 0.79173 0.76963 -0.00169
 O1170 O 0.78544 0.76724 0.02623
 O1171 O 0.75202 0.79183 -0.02011
 O1172 O 0.72414 0.78601 -0.01647
 Zr1173 Zr 0.74211 0.76955 -0.01916
 O1174 O 0.72722 0.75580 -0.00572
 Zr1175 Zr 0.76940 0.76915 0.00788
 O1176 O 0.75540 0.75586 0.02266
 Zr1177 Zr 0.76892 0.74197 -0.01931
 O1178 O 0.75533 0.72723 -0.00552
 Zr1179 Zr 0.73200 0.75965 0.01771
 O1180 O 0.74598 0.77463 0.00434
 Zr1181 Zr 0.73193 0.73223 -0.00928
 O1182 O 0.74551 0.74593 -0.02426
 Zr1183 Zr 0.75894 0.73226 0.01798
 O1184 O 0.77419 0.74554 0.00417
 O1185 O 0.76543 0.76540 -0.01543
 O1186 O 0.73558 0.73606 0.01415
 C1187 C 0.76186 0.76258 -0.04817
 C1188 C 0.76274 0.79828 -0.01214
 C1189 C 0.79810 0.76171 -0.01248
 C1190 C 0.73749 0.73891 0.04626
 C1191 C 0.70368 0.73829 0.01201
 C1192 C 0.73785 0.70379 0.01197
 H1193 H 0.71639 0.75841 -0.00817
 H1194 H 0.75782 0.71634 -0.00797
 H1195 H 0.77208 0.77195 -0.02203
 H1196 H 0.75773 0.75848 0.03353
 H1197 H 0.73671 0.78618 0.03058
 H1198 H 0.76283 0.78491 0.03231
 H1199 H 0.74078 0.70874 -0.02578
 H1200 H 0.75791 0.72504 -0.04122
 H1201 H 0.70800 0.77690 0.02319
 H1202 H 0.72514 0.79397 -0.02467
 H1203 H 0.77598 0.70930 0.00901
 H1204 H 0.79034 0.72423 -0.00878
 H1205 H 0.72506 0.75821 -0.04087
 H1206 H 0.70896 0.74149 -0.02615
 H1207 H 0.79146 0.75768 0.02440
 H1208 H 0.77516 0.74118 0.04160
 O1209 O 1.00097 0.20840 0.22954
 O1210 O 0.97464 0.21340 0.23151
 O1211 O 1.01968 0.24907 0.20847
 O1212 O 1.02007 0.27459 0.21308
 O1213 O 1.04120 0.22976 0.24891
 O1214 O 1.03549 0.23086 0.27582
 O1215 O 0.97972 0.29001 0.25039
 O1216 O 0.98283 0.28572 0.22408
 O1217 O 0.95979 0.25080 0.26955
 O1218 O 0.96507 0.22284 0.26838
 O1219 O 0.99887 0.26954 0.29000
 O1220 O 1.02645 0.26881 0.28474
 O1221 O 0.99821 0.29004 0.26912
 O1222 O 1.02688 0.28450 0.26750
 O1223 O 0.98041 0.25081 0.29008
 O1224 O 0.98217 0.22229 0.28418
 O1225 O 0.95984 0.26970 0.25122
 O1226 O 0.96480 0.26451 0.22325
 O1227 O 1.01929 0.20824 0.24848
 O1228 O 1.01800 0.21403 0.27592
 O1229 O 1.04132 0.24846 0.23037
 O1230 O 1.03501 0.27645 0.23291
 O1231 O 1.00146 0.23005 0.20844
 O1232 O 0.97363 0.23358 0.21446
 Zr1233 Zr 0.99175 0.23089 0.23073
 O1234 O 0.97693 0.24431 0.24457
 Zr1235 Zr 1.01899 0.25805 0.23104
 O1236 O 1.00505 0.27282 0.24441
 Zr1237 Zr 1.01876 0.23071 0.25807
 O1238 O 1.00524 0.24448 0.27288
 Zr1239 Zr 0.98164 0.26782 0.24075
 O1240 O 0.99553 0.25447 0.22570
 Zr1241 Zr 0.98181 0.24069 0.26803
 O1242 O 0.99533 0.22572 0.25426
 Zr1243 Zr 1.00877 0.26806 0.26790
 O1244 O 1.02395 0.25427 0.25454
 O1245 O 1.01509 0.23465 0.23473
 O1246 O 0.98540 0.26419 0.26424
 C1247 C 1.01158 0.20179 0.23753
 C1248 C 1.01208 0.23810 0.20195
 C1249 C 1.04777 0.23762 0.23820
 C1250 C 0.98714 0.29638 0.26153
 C1251 C 0.95350 0.26207 0.26222
 C1252 C 0.98789 0.26195 0.29640
 H1253 H 0.96608 0.24185 0.24202
 H1254 H 1.00781 0.24200 0.28372
 H1255 H 1.02169 0.22806 0.22814
 H1256 H 1.00732 0.28373 0.24181
 H1257 H 0.98613 0.28080 0.21430
 H1258 H 1.01226 0.28257 0.21542
 H1259 H 0.99086 0.22411 0.29137
 H1260 H 1.00793 0.20872 0.27501
 H1261 H 0.95751 0.27334 0.22370
 H1262 H 0.97459 0.22539 0.20648
 H1263 H 1.02601 0.25903 0.29066
 H1264 H 1.04030 0.24126 0.27562
 H1265 H 0.97480 0.20909 0.24210
 H1266 H 0.95876 0.22382 0.25891
 H1267 H 1.04110 0.27459 0.24240
 H1268 H 1.02482 0.29185 0.25898
 O1269 O 0.70889 1.02028 0.74863
 O1270 O 0.71383 1.01823 0.77503
 O1271 O 0.74929 1.04165 0.73005
 O1272 O 0.77473 1.03713 0.72963
 O1273 O 0.73024 1.00103 0.70842
 O1274 O 0.73153 0.97402 0.71412
 O1275 O 0.79023 0.99975 0.77010
 O1276 O 0.78583 1.02612 0.76696
 O1277 O 0.75132 0.98028 0.78997
 O1278 O 0.72348 0.98133 0.78466
 O1279 O 0.77005 0.95994 0.75084
 O1280 O 0.76933 0.96528 0.72322
 O1281 O 0.79036 0.98098 0.75159
 O1282 O 0.78488 0.98265 0.72285
 O1283 O 0.75139 0.95973 0.76929
 O1284 O 0.72296 0.96553 0.76751
 O1285 O 0.77003 0.99878 0.78995
 O1286 O 0.76471 1.02681 0.78499
 O1287 O 0.70884 1.00130 0.73029
 O1288 O 0.71473 0.97381 0.73161
 O1289 O 0.74875 1.01974 0.70835
 O1290 O 0.77666 1.01729 0.71469
 O1291 O 0.73034 1.04155 0.74826
 O1292 O 0.73383 1.03546 0.77613
 Zr1293 Zr 0.73126 1.01917 0.75795
 O1294 O 0.74470 1.00535 0.77281
 Zr1295 Zr 0.75833 1.01905 0.73071
 O1296 O 0.77310 1.00570 0.74469
 Zr1297 Zr 0.73125 0.99180 0.73089
 O1298 O 0.74504 0.97699 0.74444
 Zr1299 Zr 0.76809 1.00931 0.76813
 O1300 O 0.75473 1.02435 0.75420
 Zr1301 Zr 0.74122 0.98181 0.76791
 O1302 O 0.72625 0.99555 0.75434
 Zr1303 Zr 0.76849 0.98212 0.74094
 O1304 O 0.75470 0.99547 0.72572
 O1305 O 0.73505 1.01522 0.73458
 O1306 O 0.76460 0.98574 0.76435
 C1307 C 0.70237 1.01226 0.73796
 C1308 C 0.73835 1.04812 0.73765
 C1309 C 0.73798 1.01185 0.70188
 C1310 C 0.79662 0.98860 0.76270
 C1311 C 0.76251 0.98768 0.79627
 C1312 C 0.76251 0.95346 0.76181
 H1313 H 0.74224 1.00787 0.78367
 H1314 H 0.74262 0.96612 0.74185
 H1315 H 0.72847 1.02182 0.72797
 H1316 H 0.78396 1.00837 0.74244
 H1317 H 0.78088 1.03592 0.76367
 H1318 H 0.78266 1.03484 0.73750
 H1319 H 0.72481 0.95835 0.75880
 H1320 H 0.70942 0.97469 0.74168
 H1321 H 0.77350 1.02640 0.79231
 H1322 H 0.72562 1.04340 0.77516
 H1323 H 0.75961 0.95931 0.72363
 H1324 H 0.74186 0.97432 0.70929
 H1325 H 0.70959 1.00759 0.77482
 H1326 H 0.72437 0.99084 0.79096
 H1327 H 0.77483 1.00778 0.70857
 H1328 H 0.79215 0.99122 0.72495
 O1329 O 0.70880 0.52066 0.24901
 O1330 O 0.71382 0.51870 0.27538
 O1331 O 0.74925 0.54188 0.23027
 O1332 O 0.77466 0.53730 0.22984
 O1333 O 0.73005 0.50128 0.20875
 O1334 O 0.73122 0.47430 0.21450
 O1335 O 0.79012 0.49988 0.27034
 O1336 O 0.78584 0.52626 0.26717
 O1337 O 0.75108 0.48070 0.29034
 O1338 O 0.72326 0.48175 0.28497
 O1339 O 0.76983 0.46019 0.25122
 O1340 O 0.76900 0.46542 0.22356
 O1341 O 0.79017 0.48115 0.25179
 O1342 O 0.78459 0.48275 0.22309
 O1343 O 0.75123 0.46008 0.26974
 O1344 O 0.72279 0.46586 0.26790
 O1345 O 0.76989 0.49909 0.29026
 O1346 O 0.76473 0.52712 0.28520
 O1347 O 0.70865 0.50165 0.23070
 O1348 O 0.71447 0.47417 0.23200
 O1349 O 0.74864 0.51992 0.20861
 O1350 O 0.77653 0.51742 0.21493
 O1351 O 0.73033 0.54188 0.24850
 O1352 O 0.73388 0.53585 0.27638
 Zr1353 Zr 0.73121 0.51952 0.25825
 O1354 O 0.74462 0.50568 0.27310
 Zr1355 Zr 0.75822 0.51927 0.23097
 O1356 O 0.77297 0.50589 0.24495
 Zr1357 Zr 0.73105 0.49210 0.23124
 O1358 O 0.74480 0.47727 0.24479
 Zr1359 Zr 0.76802 0.50955 0.26839
 O1360 O 0.75468 0.52461 0.25446
 Zr1361 Zr 0.74105 0.48214 0.26825
 O1362 O 0.72610 0.49592 0.25469
 Zr1363 Zr 0.76826 0.48232 0.24124
 O1364 O 0.75449 0.49569 0.22603
 O1365 O 0.73493 0.51552 0.23488
 O1366 O 0.76444 0.48599 0.26465
 C1367 C 0.70222 0.51262 0.23840
 C1368 C 0.73834 0.54841 0.23787
 C1369 C 0.73785 0.51204 0.20216
 C1370 C 0.79648 0.48874 0.26289
 C1371 C 0.76227 0.48808 0.29664
 C1372 C 0.76234 0.45377 0.26226
 H1373 H 0.74217 0.50824 0.28396
 H1374 H 0.74236 0.46639 0.24224
 H1375 H 0.72834 0.52212 0.22826
 H1376 H 0.78382 0.50851 0.24266
 H1377 H 0.78095 0.53607 0.26385
 H1378 H 0.78261 0.53499 0.23769
 H1379 H 0.72465 0.45863 0.25924
 H1380 H 0.70923 0.47503 0.24211
 H1381 H 0.77352 0.52670 0.29251
 H1382 H 0.72570 0.54383 0.27540
 H1383 H 0.75929 0.45943 0.22407
 H1384 H 0.74157 0.47451 0.20969
 H1385 H 0.70951 0.50809 0.27519
 H1386 H 0.72418 0.49127 0.29126
 H1387 H 0.77467 0.50791 0.20883
 H1388 H 0.79188 0.49132 0.22513
 O1389 O 0.50126 0.20850 0.73025
 O1390 O 0.47491 0.21345 0.73229
 O1391 O 0.51991 0.24917 0.70923
 O1392 O 0.52032 0.27469 0.71385
 O1393 O 0.54146 0.22985 0.74965
 O1394 O 0.53574 0.23094 0.77658
 O1395 O 0.47990 0.29005 0.75117
 O1396 O 0.48305 0.28580 0.72486
 O1397 O 0.46001 0.25082 0.77028
 O1398 O 0.46535 0.22287 0.76914
 O1399 O 0.49908 0.26964 0.79074
 O1400 O 0.52666 0.26890 0.78552
 O1401 O 0.49842 0.29010 0.76988
 O1402 O 0.52713 0.28456 0.76823
 O1403 O 0.48061 0.25092 0.79082
 O1404 O 0.48244 0.22237 0.78497
 O1405 O 0.46006 0.26973 0.75196
 O1406 O 0.46505 0.26456 0.72399
 O1407 O 0.51958 0.20833 0.74919
 O1408 O 0.51825 0.21408 0.77665
 O1409 O 0.54155 0.24855 0.73111
 O1410 O 0.53522 0.27656 0.73368
 O1411 O 0.50170 0.23014 0.70919
 O1412 O 0.47386 0.23363 0.71522
 Zr1413 Zr 0.49199 0.23096 0.73149
 O1414 O 0.47717 0.24437 0.74532
 Zr1415 Zr 0.51922 0.25814 0.73180
 O1416 O 0.50527 0.27290 0.74516
 Zr1417 Zr 0.51901 0.23078 0.75882
 O1418 O 0.50549 0.24455 0.77364
 Zr1419 Zr 0.48186 0.26788 0.74150
 O1420 O 0.49577 0.25455 0.72645
 Zr1421 Zr 0.48206 0.24075 0.76879
 O1422 O 0.49559 0.22578 0.75501
 Zr1423 Zr 0.50901 0.26813 0.76865
 O1424 O 0.52419 0.25435 0.75529
 O1425 O 0.51533 0.23474 0.73548
 O1426 O 0.48563 0.26425 0.76499
 C1427 C 0.51190 0.20190 0.73821
 C1428 C 0.51232 0.23820 0.70271
 C1429 C 0.54801 0.23771 0.73893
 C1430 C 0.48732 0.29641 0.76232
 C1431 C 0.45372 0.26208 0.76295
 C1432 C 0.48807 0.26209 0.79712
 H1433 H 0.46632 0.24190 0.74277
 H1434 H 0.50806 0.24208 0.78448
 H1435 H 0.52194 0.22816 0.72888
 H1436 H 0.50754 0.28381 0.74257
 H1437 H 0.48635 0.28090 0.71506
 H1438 H 0.51247 0.28264 0.71616
 H1439 H 0.49111 0.22423 0.79217
 H1440 H 0.50817 0.20878 0.77573
 H1441 H 0.45774 0.27338 0.72443
 H1442 H 0.47483 0.22543 0.70725
 H1443 H 0.52623 0.25911 0.79142
 H1444 H 0.54055 0.24134 0.77638
 H1445 H 0.47513 0.20910 0.74286
 H1446 H 0.45906 0.22381 0.75965
 H1447 H 0.54135 0.27467 0.74315
 H1448 H 0.52502 0.29195 0.75975
 O1449 O 0.25106 0.77045 0.45839
 O1450 O 0.22469 0.76836 0.46329
 O1451 O 0.26969 0.79161 0.49891
 O1452 O 0.27012 0.78701 0.52437
 O1453 O 0.29122 0.75101 0.47975
 O1454 O 0.28547 0.72403 0.48086
 O1455 O 0.22975 0.74964 0.53977
 O1456 O 0.23283 0.77601 0.53539
 O1457 O 0.20981 0.73026 0.50069
 O1458 O 0.21507 0.73146 0.47280
 O1459 O 0.24881 0.70988 0.51946
 O1460 O 0.27644 0.71514 0.51870
 O1461 O 0.24823 0.73085 0.53985
 O1462 O 0.27689 0.73245 0.53433
 O1463 O 0.23039 0.70974 0.50072
 O1464 O 0.23218 0.71562 0.47227
 O1465 O 0.20989 0.74864 0.51954
 O1466 O 0.21478 0.77672 0.51426
 O1467 O 0.26938 0.75148 0.45828
 O1468 O 0.26797 0.72394 0.46404
 O1469 O 0.29134 0.76967 0.49834
 O1470 O 0.28503 0.76716 0.52626
 O1471 O 0.25145 0.79160 0.47994
 O1472 O 0.22363 0.78551 0.48339
 Zr1473 Zr 0.24177 0.76923 0.48077
 O1474 O 0.22694 0.75536 0.49417
 Zr1475 Zr 0.26901 0.76899 0.50789
 O1476 O 0.25506 0.75559 0.52263
 Zr1477 Zr 0.26876 0.74184 0.48067
 O1478 O 0.25524 0.72699 0.49442
 Zr1479 Zr 0.23165 0.75923 0.51761
 O1480 O 0.24555 0.77431 0.50429
 Zr1481 Zr 0.23182 0.73184 0.49060
 O1482 O 0.24535 0.74563 0.47566
 Zr1483 Zr 0.25877 0.73203 0.51793
 O1484 O 0.27396 0.74542 0.50417
 O1485 O 0.26510 0.76525 0.48457
 O1486 O 0.23541 0.73568 0.51403
 C1487 C 0.26172 0.76248 0.45185
 C1488 C 0.26207 0.79813 0.48797
 C1489 C 0.29779 0.76179 0.48756
 C1490 C 0.23717 0.73848 0.54614
 C1491 C 0.20356 0.73757 0.51196
 C1492 C 0.23783 0.70344 0.51188
 H1493 H 0.21609 0.75790 0.49171
 H1494 H 0.25781 0.71611 0.49197
 H1495 H 0.27172 0.77187 0.47801
 H1496 H 0.25734 0.75822 0.53350
 H1497 H 0.23612 0.78582 0.53046
 H1498 H 0.26225 0.78470 0.53229
 H1499 H 0.24086 0.70843 0.47410
 H1500 H 0.25792 0.72488 0.45870
 H1501 H 0.20748 0.77626 0.52305
 H1502 H 0.22459 0.79349 0.47520
 H1503 H 0.27593 0.70914 0.50899
 H1504 H 0.29026 0.72421 0.49124
 H1505 H 0.22490 0.75774 0.45900
 H1506 H 0.20876 0.74094 0.47376
 H1507 H 0.29112 0.75765 0.52442
 H1508 H 0.27485 0.74103 0.54161
 O1509 O 0.29119 0.25058 0.97993
 O1510 O 0.28618 0.22409 0.98210
 O1511 O 0.25082 0.26932 0.95871
 O1512 O 0.22539 0.26979 0.96323
 O1513 O 0.27002 0.29099 0.99912
 O1514 O 0.26879 0.28533 1.02607
 O1515 O 0.20983 0.22938 1.00062
 O1516 O 0.21418 0.23242 0.97434
 O1517 O 0.24885 0.20929 1.01993
 O1518 O 0.27664 0.21458 1.01893
 O1519 O 0.23016 0.24867 1.04023
 O1520 O 0.23097 0.27633 1.03490
 O1521 O 0.20979 0.24804 1.01925
 O1522 O 0.21544 0.27681 1.01757
 O1523 O 0.24875 0.23008 1.04044
 O1524 O 0.27719 0.23180 1.03465
 O1525 O 0.23006 0.20935 1.00156
 O1526 O 0.23526 0.21430 0.97360
 O1527 O 0.29134 0.26902 0.99882
 O1528 O 0.28555 0.26772 1.02627
 O1529 O 0.25146 0.29110 0.98049
 O1530 O 0.22354 0.28485 0.98300
 O1531 O 0.26971 0.25097 0.95881
 O1532 O 0.26615 0.22305 0.96492
 Zr1533 Zr 0.26880 0.24129 0.98113
 O1534 O 0.25536 0.22647 0.99497
 Zr1535 Zr 0.24182 0.26870 0.98124
 O1536 O 0.22704 0.25477 0.99461
 Zr1537 Zr 0.26897 0.26848 1.00837
 O1538 O 0.25518 0.25498 1.02318
 Zr1539 Zr 0.23196 0.23123 0.99105
 O1540 O 0.24533 0.24512 0.97601
 Zr1541 Zr 0.25891 0.23142 1.01843
 O1542 O 0.27390 0.24494 1.00467
 Zr1543 Zr 0.23173 0.25856 1.01810
 O1544 O 0.24553 0.27374 1.00474
 O1545 O 0.26508 0.26474 0.98504
 O1546 O 0.23552 0.23505 1.01454
 C1547 C 0.29775 0.26129 0.98787
 C1548 C 0.26175 0.26165 0.95226
 C1549 C 0.26227 0.29756 0.98832
 C1550 C 0.20347 0.23692 1.01169
 C1551 C 0.23766 0.20297 1.01257
 C1552 C 0.23767 0.23763 1.04669
 H1553 H 0.25779 0.21557 0.99246
 H1554 H 0.25762 0.25758 1.03402
 H1555 H 0.27167 0.27134 0.97843
 H1556 H 0.21619 0.25707 0.99196
 H1557 H 0.21909 0.23573 0.96456
 H1558 H 0.21741 0.26197 0.96557
 H1559 H 0.27537 0.24054 1.04180
 H1560 H 0.29083 0.25760 1.02538
 H1561 H 0.22646 0.20698 0.97404
 H1562 H 0.27436 0.22397 0.95700
 H1563 H 0.24072 0.27592 1.04081
 H1564 H 0.25847 0.29022 1.02578
 H1565 H 0.29055 0.22441 0.99266
 H1566 H 0.27580 0.20834 1.00940
 H1567 H 0.22542 0.29102 0.99244
 H1568 H 0.20815 0.27475 1.00902
 C1569 C 0.28664 0.38407 0.78612
 C1570 C 0.29682 0.39132 0.77356
 C1571 C 0.29155 0.40525 0.76839
 C1572 C 0.27662 0.41057 0.77628
 C1573 C 0.28027 0.41036 0.79362
 C1574 C 0.28553 0.39644 0.79880
 C1575 C 0.27044 0.38329 0.77900
 C1576 C 0.26517 0.39724 0.77382
 C1577 C 0.29240 0.36915 0.79180
 C1578 C 0.29733 0.35706 0.79670
 C1579 C 0.27107 0.42565 0.77083
 C1580 C 0.26680 0.43825 0.76665
 H1581 H 0.30723 0.38598 0.76912
 H1582 H 0.29746 0.41184 0.75951
 H1583 H 0.27885 0.42029 0.80119
 H1584 H 0.28861 0.39444 0.81079
 H1585 H 0.26370 0.37273 0.77811
 H1586 H 0.25392 0.39863 0.76849
 C1587 C 0.28720 -0.11600 0.28595
 C1588 C 0.28621 -0.10358 0.29859
 C1589 C 0.28093 -0.08967 0.29341
 C1590 C 0.27715 -0.08952 0.27609
 C1591 C 0.26566 -0.10284 0.27377
 C1592 C 0.27095 -0.11678 0.27896
 C1593 C 0.29730 -0.10881 0.27330
 C1594 C 0.29201 -0.09489 0.26811
 C1595 C 0.29297 -0.13091 0.29164
 C1596 C 0.29789 -0.14301 0.29655
 C1597 C 0.27157 -0.07445 0.27063
 C1598 C 0.26725 -0.06188 0.26643
 H1599 H 0.28937 -0.10555 0.31057
 H1600 H 0.27957 -0.07972 0.30095
 H1601 H 0.25438 -0.10146 0.26851
 H1602 H 0.26419 -0.12733 0.27814
 H1603 H 0.30768 -0.11418 0.26879
 H1604 H 0.29787 -0.08833 0.25917
 C1605 C 0.78597 0.88346 0.78527
 C1606 C 0.77961 0.89380 0.79819
 C1607 C 0.77462 0.90788 0.79316
 C1608 C 0.77648 0.91025 0.77569
 C1609 C 0.76794 0.89657 0.76826
 C1610 C 0.77293 0.88247 0.77330
 C1611 C 0.79860 0.89316 0.77750
 C1612 C 0.79362 0.90724 0.77247
 C1613 C 0.79143 0.86837 0.79079
 C1614 C 0.79613 0.85612 0.79555
 C1615 C 0.77120 0.92548 0.77039
 C1616 C 0.76710 0.93817 0.76631
 H1617 H 0.77907 0.89036 0.81024
 H1618 H 0.76982 0.91650 0.80090
 H1619 H 0.75879 0.89784 0.75979
 H1620 H 0.76806 0.87166 0.76914
 H1621 H 0.81043 0.88930 0.77607
 H1622 H 0.80117 0.91545 0.76674
 C1623 C 0.46337 0.86679 0.28551
 C1624 C 0.47185 0.85740 0.29794
 C1625 C 0.47706 0.84342 0.29285
 C1626 C 0.47328 0.84020 0.27583
 C1627 C 0.48001 0.85402 0.26694
 C1628 C 0.47480 0.86801 0.27204
 C1629 C 0.45052 0.85606 0.27967
 C1630 C 0.45573 0.84208 0.27459
 C1631 C 0.45767 0.88176 0.29110
 C1632 C 0.45281 0.89390 0.29594
 C1633 C 0.47878 0.82508 0.27048
 C1634 C 0.48303 0.81245 0.26636
 H1635 H 0.47361 0.86138 0.30970
 H1636 H 0.48328 0.83543 0.30026
 H1637 H 0.48815 0.85291 0.25749
 H1638 H 0.47846 0.87889 0.26695
 H1639 H 0.43839 0.85916 0.27953
 H1640 H 0.44806 0.83322 0.27010
 C1641 C -0.03656 0.86793 0.78614
 C1642 C -0.03025 0.85726 0.79883
 C1643 C -0.02499 0.84343 0.79345
 C1644 C -0.02654 0.84159 0.77589
 C1645 C -0.01808 0.85562 0.76904
 C1646 C -0.02335 0.86948 0.77444
 C1647 C -0.04893 0.85832 0.77784
 C1648 C -0.04367 0.84448 0.77246
 C1649 C -0.04236 0.88272 0.79209
 C1650 C -0.04739 0.89465 0.79727
 C1651 C -0.02104 0.82655 0.77028
 C1652 C -0.01691 0.81390 0.76614
 H1653 H -0.02993 0.86032 0.81099
 H1654 H -0.02017 0.83463 0.80100
 H1655 H -0.00879 0.85474 0.76070
 H1656 H -0.01857 0.88049 0.77072
 H1657 H -0.06078 0.86206 0.77631
 H1658 H -0.05102 0.83636 0.76632
 C1659 C -0.03541 -0.11696 -0.03559
 C1660 C -0.02360 -0.11795 -0.02242
 C1661 C -0.01862 -0.10385 -0.01736
 C1662 C -0.02596 -0.09017 -0.02597
 C1663 C -0.04342 -0.09255 -0.02430
 C1664 C -0.04839 -0.10663 -0.02936
 C1665 C -0.02753 -0.10725 -0.04816
 C1666 C -0.02256 -0.09317 -0.04310
 C1667 C -0.04086 -0.13205 -0.04114
 C1668 C -0.04555 -0.14428 -0.04593
 C1669 C -0.02071 -0.07494 -0.02065
 C1670 C -0.01663 -0.06224 -0.01654
 H1671 H -0.01950 -0.12876 -0.01750
 H1672 H -0.01027 -0.10258 -0.00810
 H1673 H -0.05120 -0.08393 -0.01956
 H1674 H -0.06042 -0.11007 -0.02894
 H1675 H -0.02598 -0.11110 -0.05999
 H1676 H -0.01676 -0.08496 -0.05061
 C1677 C -0.03532 0.38149 0.46447
 C1678 C -0.02188 0.38045 0.47598
 C1679 C -0.01690 0.39453 0.48114
 C1680 C -0.02587 0.40822 0.47426
 C1681 C -0.04284 0.40490 0.47799
 C1682 C -0.04781 0.39085 0.47285
 C1683 C -0.02953 0.39218 0.45156
 C1684 C -0.02457 0.40622 0.45670
 C1685 C -0.04081 0.36647 0.45880
 C1686 C -0.04561 0.35433 0.45387
 C1687 C -0.02067 0.42346 0.47963
 C1688 C -0.01675 0.43624 0.48364
 H1689 H -0.01673 0.36964 0.47975
 H1690 H -0.00749 0.39577 0.48932
 H1691 H -0.05031 0.41288 0.48415
 H1692 H -0.05953 0.38679 0.47460
 H1693 H -0.02934 0.38899 0.43944
 H1694 H -0.02012 0.41506 0.44898
 C1695 C 0.46455 -0.11809 0.46494
 C1696 C 0.47145 -0.10784 0.45223
 C1697 C 0.47646 -0.09383 0.45742
 C1698 C 0.47409 -0.09143 0.47482
 C1699 C 0.48221 -0.10521 0.48252
 C1700 C 0.47719 -0.11925 0.47732
 C1701 C 0.45181 -0.10823 0.47231
 C1702 C 0.45682 -0.09422 0.47749
 C1703 C 0.45901 -0.13307 0.45921
 C1704 C 0.45417 -0.14516 0.45420
 C1705 C 0.47934 -0.07622 0.48022
 C1706 C 0.48330 -0.06346 0.48423
 H1707 H 0.47234 -0.11129 0.44021
 H1708 H 0.48164 -0.08528 0.44984
 H1709 H 0.49110 -0.10406 0.49127
 H1710 H 0.48177 -0.13012 0.48162
 H1711 H 0.43989 -0.11193 0.47337
 H1712 H 0.44920 -0.08592 0.48300
 C1713 C 0.46289 0.38378 -0.03621
 C1714 C 0.45014 0.39386 -0.02916
 C1715 C 0.45526 0.40779 -0.02383
 C1716 C 0.47264 0.41027 -0.02606
 C1717 C 0.47541 0.40785 -0.04340
 C1718 C 0.47029 0.39392 -0.04873
 C1719 C 0.47519 0.38240 -0.02352
 C1720 C 0.48032 0.39634 -0.01818
 C1721 C 0.45729 0.36886 -0.04205
 C1722 C 0.45248 0.35675 -0.04704
 C1723 C 0.47807 0.42534 -0.02045
 C1724 C 0.48230 0.43792 -0.01616
 H1725 H 0.43814 0.39037 -0.02842
 H1726 H 0.44765 0.41622 -0.01852
 H1727 H 0.48091 0.41632 -0.05084
 H1728 H 0.47140 0.39048 -0.06073
 H1729 H 0.47948 0.37145 -0.01911
 H1730 H 0.48901 0.39733 -0.00920
 C1731 C 0.78543 0.36810 0.46545
 C1732 C 0.77932 0.35752 0.45259
 C1733 C 0.77438 0.34348 0.45775
 C1734 C 0.77603 0.34137 0.47527
 C1735 C 0.76729 0.35508 0.48239
 C1736 C 0.77224 0.36915 0.47722
 C1737 C 0.79804 0.35862 0.47355
 C1738 C 0.79310 0.34457 0.47870
 C1739 C 0.79090 0.38312 0.45975
 C1740 C 0.79568 0.39524 0.45478
 C1741 C 0.77086 0.32612 0.48064
 C1742 C 0.76694 0.31334 0.48460
 H1743 H 0.77889 0.36078 0.44049
 H1744 H 0.76973 0.33471 0.45006
 H1745 H 0.75805 0.35384 0.49074
 H1746 H 0.76724 0.37997 0.48114
 H1747 H 0.80982 0.36260 0.47510
 H1748 H 0.80065 0.33652 0.48468
 C1749 C 0.78724 0.86770 -0.03610
 C1750 C 0.77494 0.86928 -0.02345
 C1751 C 0.76957 0.85541 -0.01814
 C1752 C 0.77704 0.84136 -0.02601
 C1753 C 0.79445 0.84357 -0.02370
 C1754 C 0.79981 0.85740 -0.02900
 C1755 C 0.77970 0.85769 -0.04865
 C1756 C 0.77434 0.84385 -0.04335
 C1757 C 0.79314 0.88249 -0.04196
 C1758 C 0.79823 0.89442 -0.04708
 C1759 C 0.77143 0.82633 -0.02049
 C1760 C 0.76721 0.81368 -0.01641
 H1761 H 0.77083 0.88029 -0.01906
 H1762 H 0.76085 0.85455 -0.00920
 H1763 H 0.80192 0.83501 -0.01836
 H1764 H 0.81187 0.86070 -0.02820
 H1765 H 0.77865 0.86117 -0.06065
 H1766 H 0.76870 0.83549 -0.05082
 C1767 C 0.78605 0.28578 0.38306
 C1768 C 0.77881 0.29850 0.39308
 C1769 C 0.77357 0.29331 0.40696
 C1770 C 0.77607 0.27589 0.40948
 C1771 C 0.79342 0.27337 0.40708
 C1772 C 0.79866 0.27856 0.39320
 C1773 C 0.77356 0.27324 0.38169
 C1774 C 0.76831 0.26803 0.39560
 C1775 C 0.79183 0.29152 0.36822
 C1776 C 0.79686 0.29653 0.35625
 C1777 C 0.77060 0.27047 0.42456
 C1778 C 0.76652 0.26643 0.43723
 H1779 H 0.77786 0.31053 0.38957
 H1780 H 0.76813 0.30089 0.41534
 H1781 H 0.80093 0.26796 0.41554
 H1782 H 0.81066 0.27760 0.38977
 H1783 H 0.76924 0.26884 0.37077
 H1784 H 0.75949 0.25918 0.39660
 C1785 C 0.78452 0.78558 -0.11834
 C1786 C 0.77866 0.79860 -0.10781
 C1787 C 0.77370 0.79354 -0.09377
 C1788 C 0.77508 0.77596 -0.09162
 C1789 C 0.79208 0.77226 -0.09487
 C1790 C 0.79704 0.77731 -0.10891
 C1791 C 0.77113 0.77397 -0.11931
 C1792 C 0.76617 0.76891 -0.10524
 C1793 C 0.79000 0.79117 -0.13335
 C1794 C 0.79481 0.79603 -0.14547
 C1795 C 0.76991 0.77068 -0.07639
 C1796 C 0.76602 0.76674 -0.06363
 H1797 H 0.77841 0.81073 -0.11110
 H1798 H 0.76921 0.80134 -0.08504
 H1799 H 0.79957 0.76618 -0.08684
 H1800 H 0.80877 0.77557 -0.11291
 H1801 H 0.76602 0.77008 -0.13008
 H1802 H 0.75680 0.76067 -0.10396
 C1803 C 0.28744 0.46331 0.86532
 C1804 C 0.28489 0.48089 0.86481
 C1805 C 0.27948 0.48608 0.85096
 C1806 C 0.27716 0.47317 0.83899
 C1807 C 0.26646 0.46141 0.84684
 C1808 C 0.27187 0.45622 0.86069
 C1809 C 0.29824 0.45983 0.85173
 C1810 C 0.29284 0.46502 0.83790
 C1811 C 0.29333 0.45763 0.88016
 C1812 C 0.29833 0.45277 0.89221
 C1813 C 0.27145 0.47866 0.82401
 C1814 C 0.26705 0.48294 0.81152
 H1815 H 0.28712 0.48858 0.87447
 H1816 H 0.27708 0.49822 0.84875
 H1817 H 0.25560 0.45751 0.84197
 H1818 H 0.26564 0.44787 0.86768
 H1819 H 0.30918 0.45383 0.85287
 H1820 H 0.29916 0.46346 0.82719
 C1821 C 0.28647 -0.03565 0.36582
 C1822 C 0.28959 -0.01842 0.36278
 C1823 C 0.28446 -0.01346 0.34874
 C1824 C 0.27671 -0.02623 0.33913
 C1825 C 0.26389 -0.03268 0.34951
 C1826 C 0.26903 -0.03764 0.36355
 C1827 C 0.29385 -0.04419 0.35216
 C1828 C 0.28872 -0.03924 0.33813
 C1829 C 0.29207 -0.04107 0.38087
 C1830 C 0.29683 -0.04574 0.39309
 C1831 C 0.27128 -0.02099 0.32396
 C1832 C 0.26705 -0.01689 0.31135
 H1833 H 0.29532 -0.01079 0.37092
 H1834 H 0.28579 -0.00158 0.34486
 H1835 H 0.25185 -0.03330 0.34614
 H1836 H 0.26138 -0.04250 0.37220
 H1837 H 0.30236 -0.05332 0.35339
 H1838 H 0.29284 -0.04413 0.32735
 C1839 C -0.03712 -0.03717 -0.11548
 C1840 C -0.02534 -0.02397 -0.11689
 C1841 C -0.01998 -0.01878 -0.10301
 C1842 C -0.02694 -0.02731 -0.08911
 C1843 C -0.02361 -0.04451 -0.09205
 C1844 C -0.02897 -0.04969 -0.10591
 C1845 C -0.04981 -0.03082 -0.10488
 C1846 C -0.04446 -0.02564 -0.09102
 C1847 C -0.04297 -0.04283 -0.13034
 C1848 C -0.04796 -0.04766 -0.14241
 C1849 C -0.02129 -0.02181 -0.07411
 C1850 C -0.01695 -0.01752 -0.06160
 H1851 H -0.02154 -0.01913 -0.12781
 H1852 H -0.01160 -0.00950 -0.10204
 H1853 H -0.01759 -0.05197 -0.08395
 H1854 H -0.02752 -0.06159 -0.10969
 H1855 H -0.06193 -0.03043 -0.10799
 H1856 H -0.05200 -0.02082 -0.08225
 C1857 C -0.03584 0.46374 0.38221
 C1858 C -0.04835 0.47137 0.39216
 C1859 C -0.04309 0.47658 0.40603
 C1860 C -0.02582 0.47366 0.40862
 C1861 C -0.01778 0.48119 0.39473
 C1862 C -0.02306 0.47597 0.38082
 C1863 C -0.02898 0.45096 0.39242
 C1864 C -0.02371 0.45617 0.40630
 C1865 C -0.04167 0.45800 0.36737
 C1866 C -0.04676 0.45301 0.35541
 C1867 C -0.02033 0.47911 0.42369
 C1868 C -0.01626 0.48318 0.43637
 H1869 H -0.06030 0.47258 0.38861
 H1870 H -0.05053 0.48225 0.41437
 H1871 H -0.00876 0.48985 0.39572
 H1872 H -0.01856 0.48016 0.36990
 H1873 H -0.02829 0.43887 0.38904
 H1874 H -0.01852 0.44854 0.41481
 C1875 C 0.46452 -0.03505 0.38242
 C1876 C 0.47200 -0.04781 0.39223
 C1877 C 0.47719 -0.04276 0.40620
 C1878 C 0.47440 -0.02544 0.40900
 C1879 C 0.45700 -0.02316 0.40665
 C1880 C 0.45181 -0.02821 0.39268
 C1881 C 0.47679 -0.02227 0.38126
 C1882 C 0.48199 -0.01721 0.39525
 C1883 C 0.45879 -0.04063 0.36749
 C1884 C 0.45379 -0.04551 0.35545
 C1885 C 0.47980 -0.02016 0.42416
 C1886 C 0.48380 -0.01621 0.43690
 H1887 H 0.47314 -0.05976 0.38852
 H1888 H 0.48276 -0.05039 0.41445
 H1889 H 0.44942 -0.01802 0.41520
 H1890 H 0.43979 -0.02739 0.38927
 H1891 H 0.48101 -0.01762 0.37041
 H1892 H 0.49067 -0.00822 0.39640
 C1893 C 0.46278 0.46290 -0.11524
 C1894 C 0.47441 0.47622 -0.11675
 C1895 C 0.47980 0.48149 -0.10292
 C1896 C 0.47303 0.47291 -0.08895
 C1897 C 0.47652 0.45574 -0.09189
 C1898 C 0.47113 0.45048 -0.10571
 C1899 C 0.45010 0.46913 -0.10457
 C1900 C 0.45548 0.47439 -0.09075
 C1901 C 0.45687 0.45713 -0.13003
 C1902 C 0.45182 0.45219 -0.14202
 C1903 C 0.47870 0.47846 -0.07399
 C1904 C 0.48303 0.48275 -0.06148
 H1905 H 0.47807 0.48108 -0.12771
 H1906 H 0.48810 0.49087 -0.10202
 H1907 H 0.48268 0.44836 -0.08383
 H1908 H 0.47268 0.43859 -0.10948
 H1909 H 0.43795 0.46938 -0.10759
 H1910 H 0.44795 0.47915 -0.08194
 C1911 C 0.46409 0.78661 0.36599
 C1912 C 0.47146 0.79942 0.35617
 C1913 C 0.47651 0.79442 0.34214
 C1914 C 0.47371 0.77710 0.33930
 C1915 C 0.45634 0.77479 0.34178
 C1916 C 0.45129 0.77979 0.35581
 C1917 C 0.47638 0.77386 0.36702
 C1918 C 0.48144 0.76885 0.35297
 C1919 C 0.45856 0.79207 0.38103
 C1920 C 0.45381 0.79674 0.39325
 C1921 C 0.47905 0.77180 0.32414
 C1922 C 0.48320 0.76765 0.31152
 H1923 H 0.47260 0.81136 0.35990
 H1924 H 0.48198 0.80209 0.33385
 H1925 H 0.44868 0.76968 0.33327
 H1926 H 0.43930 0.77895 0.35931
 H1927 H 0.48072 0.76917 0.37781
 H1928 H 0.49012 0.75988 0.35174
 C1929 C -0.03483 0.78529 0.86798
 C1930 C -0.02151 0.77361 0.86891
 C1931 C -0.01651 0.76863 0.85483
 C1932 C -0.02533 0.77583 0.84123
 C1933 C -0.02386 0.79339 0.84352
 C1934 C -0.02885 0.79836 0.85758
 C1935 C -0.04735 0.77715 0.85842
 C1936 C -0.04236 0.77219 0.84436
 C1937 C -0.04034 0.79078 0.88301
 C1938 C -0.04517 0.79558 0.89515
 C1939 C -0.02011 0.77065 0.82598
 C1940 C -0.01619 0.76677 0.81321
 H1941 H -0.01646 0.76961 0.87967
 H1942 H -0.00717 0.76036 0.85352
 H1943 H -0.01929 0.80124 0.83487
 H1944 H -0.02855 0.81046 0.86096
 H1945 H -0.05911 0.77543 0.86236
 H1946 H -0.04984 0.76621 0.83626
 C1947 C 0.38441 0.78674 0.28638
 C1948 C 0.39420 0.77918 0.29909
 C1949 C 0.40809 0.77389 0.29401
 C1950 C 0.41084 0.77666 0.27673
 C1951 C 0.40861 0.79414 0.27445
 C1952 C 0.39472 0.79944 0.27952
 C1953 C 0.38311 0.77443 0.27366
 C1954 C 0.39702 0.76912 0.26858
 C1955 C 0.36953 0.79255 0.29194
 C1956 C 0.35745 0.79751 0.29671
 C1957 C 0.42588 0.77108 0.27136
 C1958 C 0.43842 0.76681 0.26718
 H1959 H 0.39055 0.77809 0.31102
 H1960 H 0.41634 0.76825 0.30160
 H1961 H 0.41719 0.80170 0.26930
 H1962 H 0.39140 0.81154 0.27872
 H1963 H 0.37223 0.77024 0.26906
 H1964 H 0.39805 0.76039 0.25962
 C1965 C -0.11820 0.78518 0.78445
 C1966 C -0.10820 0.79793 0.77725
 C1967 C -0.09419 0.79284 0.77232
 C1968 C -0.09153 0.77548 0.77509
 C1969 C -0.10516 0.76738 0.76715
 C1970 C -0.11920 0.77249 0.77208
 C1971 C -0.10824 0.77822 0.79736
 C1972 C -0.09423 0.77312 0.79244
 C1973 C -0.13319 0.79082 0.78990
 C1974 C -0.14528 0.79575 0.79467
 C1975 C -0.07632 0.77018 0.76994
 C1976 C -0.06357 0.76625 0.76606
 H1977 H -0.11181 0.80991 0.77609
 H1978 H -0.08579 0.80045 0.76696
 H1979 H -0.10390 0.75843 0.75844
 H1980 H -0.12997 0.76791 0.76760
 H1981 H -0.11189 0.77735 0.80932
 H1982 H -0.08587 0.76789 0.80018
 C1983 C 0.86819 0.28412 0.46484
 C1984 C 0.86927 0.27066 0.47639
 C1985 C 0.85527 0.26563 0.48154
 C1986 C 0.84161 0.27457 0.47463
 C1987 C 0.84360 0.27321 0.45708
 C1988 C 0.85757 0.27823 0.45193
 C1989 C 0.85883 0.29666 0.47318
 C1990 C 0.84486 0.29164 0.47832
 C1991 C 0.88313 0.28968 0.45917
 C1992 C 0.89518 0.29457 0.45425
 C1993 C 0.82644 0.26934 0.48001
 C1994 C 0.81372 0.26546 0.48403
 H1995 H 0.88006 0.26554 0.48018
 H1996 H 0.85407 0.25621 0.48974
 H1997 H 0.83481 0.26869 0.44936
 H1998 H 0.86075 0.27800 0.43981
 H1999 H 0.86283 0.30845 0.47491
 H2000 H 0.83690 0.29913 0.48445
 C2001 C 0.86826 0.78433 -0.03529
 C2002 C 0.85792 0.79734 -0.02910
 C2003 C 0.84389 0.79233 -0.02412
 C2004 C 0.84155 0.77480 -0.02583
 C2005 C 0.85515 0.76744 -0.01714
 C2006 C 0.86920 0.77246 -0.02212
 C2007 C 0.85866 0.77640 -0.04792
 C2008 C 0.84462 0.77139 -0.04294
 C2009 C 0.88326 0.78989 -0.04079
 C2010 C 0.89536 0.79476 -0.04558
 C2011 C 0.82633 0.76959 -0.02062
 C2012 C 0.81356 0.76574 -0.01670
 H2013 H 0.86133 0.80943 -0.02864
 H2014 H 0.83528 0.80013 -0.01941
 H2015 H 0.85385 0.75905 -0.00790
 H2016 H 0.87995 0.76837 -0.01716
 H2017 H 0.86255 0.77484 -0.05973
 H2018 H 0.83649 0.76554 -0.05049
 C2019 C -0.11525 -0.03650 -0.03766
 C2020 C -0.10333 -0.03385 -0.05047
 C2021 C -0.08950 -0.02857 -0.04519
 C2022 C -0.08894 -0.02645 -0.02760
 C2023 C -0.09354 -0.04225 -0.02093
 C2024 C -0.10738 -0.04753 -0.02622
 C2025 C -0.11634 -0.02095 -0.02913
 C2026 C -0.10249 -0.01566 -0.02384
 C2027 C -0.13008 -0.04229 -0.04344
 C2028 C -0.14211 -0.04727 -0.04836
 C2029 C -0.07396 -0.02088 -0.02200
 C2030 C -0.06145 -0.01661 -0.01767
 H2031 H -0.10555 -0.03594 -0.06264
 H2032 H -0.07987 -0.02614 -0.05282
 H2033 H -0.08656 -0.04872 -0.01276
 H2034 H -0.11224 -0.05853 -0.02258
 H2035 H -0.12703 -0.01466 -0.02741
 H2036 H -0.10132 -0.00484 -0.01757
 C2037 C -0.11815 0.46550 0.46441
 C2038 C -0.11912 0.47898 0.47594
 C2039 C -0.10507 0.48397 0.48102
 C2040 C -0.09148 0.47498 0.47406
 C2041 C -0.09358 0.47631 0.45651
 C2042 C -0.10760 0.47133 0.45144
 C2043 C -0.10878 0.45294 0.47273
 C2044 C -0.09476 0.45792 0.47780
 C2045 C -0.13314 0.45997 0.45882
 C2046 C -0.14523 0.45510 0.45396
 C2047 C -0.07627 0.48016 0.47936
 C2048 C -0.06351 0.48402 0.48334
 H2049 H -0.12986 0.48414 0.47976
 H2050 H -0.10378 0.49341 0.48920
 H2051 H -0.08483 0.48079 0.44875
 H2052 H -0.11086 0.47155 0.43934
 H2053 H -0.11281 0.44117 0.47450
 H2054 H -0.08678 0.45042 0.48391
 C2055 C 0.38209 -0.03457 0.46441
 C2056 C 0.39251 -0.02819 0.45159
 C2057 C 0.40648 -0.02318 0.45677
 C2058 C 0.40867 -0.02503 0.47426
 C2059 C 0.40563 -0.04223 0.47748
 C2060 C 0.39166 -0.04725 0.47231
 C2061 C 0.38099 -0.02146 0.47635
 C2062 C 0.39498 -0.01644 0.48153
 C2063 C 0.36715 -0.04012 0.45870
 C2064 C 0.35509 -0.04498 0.45375
 C2065 C 0.42383 -0.01979 0.47966
 C2066 C 0.43655 -0.01586 0.48369
 H2067 H 0.38921 -0.02765 0.43951
 H2068 H 0.41514 -0.01834 0.44911
 H2069 H 0.41373 -0.04981 0.48333
 H2070 H 0.38780 -0.05912 0.47373
 H2071 H 0.37018 -0.01657 0.48037
 H2072 H 0.39617 -0.00725 0.48999
 C2073 C 0.38457 0.46314 -0.03740
 C2074 C 0.39377 0.45087 -0.02846
 C2075 C 0.40760 0.45609 -0.02312
 C2076 C 0.41089 0.47306 -0.02722
 C2077 C 0.39704 0.48214 -0.02092
 C2078 C 0.38319 0.47692 -0.02628
 C2079 C 0.39547 0.46869 -0.05020
 C2080 C 0.40931 0.47390 -0.04485
 C2081 C 0.36974 0.45743 -0.04323
 C2082 C 0.35769 0.45253 -0.04818
 C2083 C 0.42586 0.47857 -0.02156
 C2084 C 0.43835 0.48282 -0.01717
 H2085 H 0.38977 0.43912 -0.02651
 H2086 H 0.41545 0.44880 -0.01658
 H2087 H 0.39802 0.49180 -0.01297
 H2088 H 0.37230 0.48211 -0.02291
 H2089 H 0.39258 0.46854 -0.06240
 H2090 H 0.41827 0.47821 -0.05247
 C2091 C 0.36494 0.46356 0.78741
 C2092 C 0.35833 0.45407 0.77396
 C2093 C 0.34454 0.45946 0.76866
 C2094 C 0.33872 0.47382 0.77733
 C2095 C 0.35186 0.48567 0.77610
 C2096 C 0.36566 0.48027 0.78141
 C2097 C 0.35220 0.46364 0.79969
 C2098 C 0.33842 0.46903 0.79440
 C2099 C 0.37970 0.45764 0.79320
 C2100 C 0.39167 0.45257 0.79815
 C2101 C 0.32380 0.47949 0.77173
 C2102 C 0.31131 0.48381 0.76741
 H2103 H 0.36398 0.44401 0.76903
 H2104 H 0.33838 0.45402 0.75919
 H2105 H 0.35045 0.49727 0.77148
 H2106 H 0.37607 0.48724 0.78133
 H2107 H 0.35385 0.45980 0.81152
 H2108 H 0.32827 0.46980 0.80169
 C2109 C 0.36588 -0.03532 0.28604
 C2110 C 0.35366 -0.03429 0.29880
 C2111 C 0.33971 -0.02913 0.29373
 C2112 C 0.33934 -0.02549 0.27639
 C2113 C 0.34468 -0.04044 0.26846
 C2114 C 0.35864 -0.04561 0.27353
 C2115 C 0.36647 -0.01905 0.27891
 C2116 C 0.35250 -0.01387 0.27383
 C2117 C 0.38083 -0.04100 0.29159
 C2118 C 0.39294 -0.04589 0.29636
 C2119 C 0.32423 -0.02006 0.27103
 C2120 C 0.31163 -0.01592 0.26687
 H2121 H 0.35578 -0.03735 0.31078
 H2122 H 0.32989 -0.02777 0.30137
 H2123 H 0.33809 -0.04644 0.25963
 H2124 H 0.36400 -0.05604 0.26905
 H2125 H 0.37692 -0.01220 0.27794
 H2126 H 0.35098 -0.00260 0.26851
 C2127 C 0.13240 0.53596 0.71442
 C2128 C 0.13511 0.53921 0.73164
 C2129 C 0.14900 0.53402 0.73692
 C2130 C 0.15879 0.52609 0.72445
 C2131 C 0.16011 0.53805 0.71141
 C2132 C 0.14625 0.54323 0.70614
 C2133 C 0.13459 0.51841 0.71263
 C2134 C 0.14847 0.51322 0.71791
 C2135 C 0.11757 0.54168 0.70860
 C2136 C 0.10561 0.54666 0.70353
 C2137 C 0.17385 0.52068 0.72995
 C2138 C 0.18651 0.51664 0.73403
 H2139 H 0.12686 0.54505 0.73903
 H2140 H 0.15264 0.53542 0.74883
 H2141 H 0.17099 0.54210 0.70671
 H2142 H 0.14527 0.55171 0.69694
 H2143 H 0.12599 0.51073 0.70767
 H2144 H 0.15177 0.50110 0.71747
 C2145 C 0.13138 0.03372 0.21555
 C2146 C 0.13064 0.02117 0.22809
 C2147 C 0.14479 0.01635 0.23304
 C2148 C 0.15825 0.02456 0.22495
 C2149 C 0.15534 0.04191 0.22750
 C2150 C 0.14122 0.04672 0.22256
 C2151 C 0.14138 0.02675 0.20270
 C2152 C 0.15550 0.02194 0.20764
 C2153 C 0.11627 0.03905 0.21008
 C2154 C 0.10407 0.04373 0.20531
 C2155 C 0.17357 0.01954 0.23011
 C2156 C 0.18638 0.01578 0.23398
 H2157 H 0.11997 0.01649 0.23267
 H2158 H 0.14624 0.00754 0.24186
 H2159 H 0.16364 0.04972 0.23274
 H2160 H 0.13742 0.05865 0.22357
 H2161 H 0.13769 0.02567 0.19077
 H2162 H 0.16390 0.01674 0.19994
 C2163 C 0.61783 0.71573 0.21484
 C2164 C 0.60422 0.70934 0.20547
 C2165 C 0.59023 0.71425 0.21061
 C2166 C 0.59119 0.72509 0.22462
 C2167 C 0.60186 0.73832 0.21954
 C2168 C 0.61589 0.73340 0.21440
 C2169 C 0.61445 0.71112 0.23162
 C2170 C 0.60043 0.71604 0.23677
 C2171 C 0.63281 0.71030 0.20917
 C2172 C 0.64491 0.70555 0.20424
 C2173 C 0.57599 0.73023 0.22999
 C2174 C 0.56326 0.73411 0.23398
 H2175 H 0.60547 0.70163 0.19565
 H2176 H 0.57949 0.71075 0.20518
 H2177 H 0.59870 0.75047 0.21997
 H2178 H 0.62473 0.74134 0.21041
 H2179 H 0.62236 0.70459 0.23883
 H2180 H 0.59633 0.71373 0.24838
 C2181 C 0.11533 0.71413 0.71313
 C2182 C 0.10154 0.70804 0.70381
 C2183 C 0.08767 0.71317 0.70908
 C2184 C 0.08891 0.72389 0.72316
 C2185 C 0.09979 0.73696 0.71809
 C2186 C 0.11368 0.73183 0.71282
 C2187 C 0.11197 0.70947 0.72990
 C2188 C 0.09807 0.71460 0.73517
 C2189 C 0.13021 0.70852 0.70738
 C2190 C 0.14229 0.70371 0.70246
 C2191 C 0.07389 0.72931 0.72871
 C2192 C 0.06136 0.73354 0.73299
 H2193 H 0.10259 0.70038 0.69393
 H2194 H 0.07683 0.70989 0.70370
 H2195 H 0.09684 0.74917 0.71861
 H2196 H 0.12264 0.73964 0.70882
 H2197 H 0.11981 0.70274 0.73701
 H2198 H 0.09401 0.71227 0.74680
 C2199 C 0.63474 0.21332 0.53681
 C2200 C 0.64771 0.20132 0.53827
 C2201 C 0.66162 0.20650 0.53312
 C2202 C 0.66121 0.22318 0.52701
 C2203 C 0.65457 0.23284 0.54031
 C2204 C 0.64066 0.22765 0.54546
 C2205 C 0.63468 0.21800 0.51970
 C2206 C 0.64860 0.22319 0.51455
 C2207 C 0.61983 0.20766 0.54244
 C2208 C 0.60773 0.20283 0.54728
 C2209 C 0.67625 0.22866 0.52157
 C2210 C 0.68879 0.23291 0.51735
 H2211 H 0.64611 0.18977 0.54294
 H2212 H 0.67193 0.19938 0.53338
 H2213 H 0.66030 0.24286 0.54525
 H2214 H 0.63446 0.23324 0.55481
 H2215 H 0.62459 0.21731 0.51230
 H2216 H 0.65045 0.22694 0.50273
 C2217 C 0.63417 0.71449 0.03574
 C2218 C 0.63311 0.72658 0.02278
 C2219 C 0.64712 0.73166 0.01774
 C2220 C 0.66079 0.72415 0.02615
 C2221 C 0.65841 0.70664 0.02418
 C2222 C 0.64441 0.70157 0.02921
 C2223 C 0.64391 0.72220 0.04839
 C2224 C 0.65791 0.72727 0.04336
 C2225 C 0.61917 0.70895 0.04125
 C2226 C 0.60698 0.70421 0.04599
 C2227 C 0.67592 0.72951 0.02082
 C2228 C 0.68851 0.73367 0.01666
 H2229 H 0.62232 0.73079 0.01799
 H2230 H 0.64833 0.74021 0.00863
 H2231 H 0.66696 0.69891 0.01926
 H2232 H 0.64098 0.68950 0.02860
 H2233 H 0.64016 0.72355 0.06027
 H2234 H 0.66613 0.73296 0.05092
 C2235 C 0.11776 0.03514 0.03514
 C2236 C 0.11883 0.02349 0.02179
 C2237 C 0.10482 0.01844 0.01667
 C2238 C 0.09115 0.02554 0.02542
 C2239 C 0.09335 0.04312 0.02400
 C2240 C 0.10733 0.04816 0.02911
 C2241 C 0.10820 0.02693 0.04760
 C2242 C 0.09422 0.02189 0.04249
 C2243 C 0.13271 0.04071 0.04079
 C2244 C 0.14479 0.04557 0.04572
 C2245 C 0.07598 0.02027 0.02008
 C2246 C 0.06326 0.01631 0.01608
 H2247 H 0.12962 0.01956 0.01680
 H2248 H 0.10361 0.01018 0.00730
 H2249 H 0.08469 0.05092 0.01937
 H2250 H 0.11064 0.06028 0.02885
 H2251 H 0.11208 0.02521 0.05940
 H2252 H 0.08612 0.01585 0.04991
 C2253 C 0.11561 0.53629 0.53559
 C2254 C 0.11588 0.53062 0.51878
 C2255 C 0.10195 0.52538 0.51366
 C2256 C 0.08915 0.52633 0.52585
 C2257 C 0.08893 0.54333 0.53099
 C2258 C 0.10284 0.54857 0.53611
 C2259 C 0.10930 0.52259 0.54494
 C2260 C 0.09539 0.51735 0.53982
 C2261 C 0.13052 0.54201 0.54120
 C2262 C 0.14261 0.54689 0.54605
 C2263 C 0.07409 0.52080 0.52046
 C2264 C 0.06152 0.51654 0.51630
 H2265 H 0.12610 0.53072 0.51156
 H2266 H 0.10023 0.52098 0.50204
 H2267 H 0.07874 0.55063 0.53064
 H2268 H 0.10456 0.56035 0.54013
 H2269 H 0.11525 0.51744 0.55471
 H2270 H 0.08941 0.50772 0.54521
 C2271 C 0.61551 0.03711 0.53588
 C2272 C 0.60559 0.02971 0.54856
 C2273 C 0.59168 0.02450 0.54342
 C2274 C 0.58904 0.02719 0.52609
 C2275 C 0.60284 0.01948 0.51809
 C2276 C 0.61677 0.02471 0.52324
 C2277 C 0.60535 0.04985 0.52887
 C2278 C 0.59143 0.04464 0.52373
 C2279 C 0.63042 0.04281 0.54152
 C2280 C 0.64251 0.04768 0.54637
 C2281 C 0.57398 0.02168 0.52067
 C2282 C 0.56142 0.01742 0.51649
 H2283 H 0.60918 0.02866 0.56052
 H2284 H 0.58335 0.01898 0.55098
 H2285 H 0.60177 0.01071 0.50918
 H2286 H 0.62763 0.02041 0.51874
 H2287 H 0.60877 0.06192 0.52802
 H2288 H 0.58294 0.05224 0.51848
 C2289 C 0.61786 0.53500 0.03449
 C2290 C 0.60446 0.54565 0.03907
 C2291 C 0.59045 0.54055 0.03413
 C2292 C 0.59118 0.52529 0.02507
 C2293 C 0.59944 0.51389 0.03587
 C2294 C 0.61347 0.51899 0.04082
 C2295 C 0.61667 0.53345 0.01687
 C2296 C 0.60263 0.52834 0.01191
 C2297 C 0.63285 0.54064 0.03997
 C2298 C 0.64494 0.54553 0.04479
 C2299 C 0.57597 0.51996 0.01991
 C2300 C 0.56322 0.51599 0.01604
 H2301 H 0.60585 0.55628 0.04562
 H2302 H 0.57985 0.54681 0.03644
 H2303 H 0.59470 0.50277 0.03930
 H2304 H 0.62075 0.51226 0.04850
 H2305 H 0.62603 0.53612 0.00899
 H2306 H 0.59996 0.52662 -0.00022
 C2307 C 0.03453 0.03370 0.11853
 C2308 C 0.02355 0.01977 0.11923
 C2309 C 0.01865 0.01487 0.10508
 C2310 C 0.02523 0.02439 0.09163
 C2311 C 0.04279 0.02369 0.09371
 C2312 C 0.04768 0.02858 0.10784
 C2313 C 0.02574 0.04611 0.10939
 C2314 C 0.02086 0.04122 0.09526
 C2315 C 0.03993 0.03912 0.13364
 C2316 C 0.04465 0.04388 0.14586
 C2317 C 0.02012 0.01929 0.07631
 C2318 C 0.01627 0.01547 0.06349
 H2319 H 0.01994 0.01425 0.12989
 H2320 H 0.01084 0.00515 0.10361
 H2321 H 0.05070 0.01969 0.08485
 H2322 H 0.05977 0.02877 0.11109
 H2323 H 0.02354 0.05772 0.11365
 H2324 H 0.01446 0.04864 0.08741
 C2325 C 0.03638 0.53647 0.61542
 C2326 C 0.03529 0.54911 0.60301
 C2327 C 0.03018 0.54382 0.58910
 C2328 C 0.02665 0.52640 0.58895
 C2329 C 0.01510 0.52394 0.60215
 C2330 C 0.02022 0.52924 0.61607
 C2331 C 0.04670 0.52390 0.60836
 C2332 C 0.04159 0.51860 0.59444
 C2333 C 0.04197 0.54226 0.63033
 C2334 C 0.04677 0.54721 0.64243
 C2335 C 0.02124 0.52083 0.57390
 C2336 C 0.01702 0.51655 0.56134
 H2337 H 0.03827 0.56116 0.60497
 H2338 H 0.02879 0.55134 0.57915
 H2339 H 0.00390 0.51852 0.60068
 H2340 H 0.01340 0.52835 0.62654
 H2341 H 0.05710 0.51953 0.61381
 H2342 H 0.04761 0.50970 0.58797
 C2343 C 0.53602 0.03552 0.61650
 C2344 C 0.52308 0.02343 0.61759
 C2345 C 0.51798 0.01837 0.60357
 C2346 C 0.52632 0.02590 0.58986
 C2347 C 0.54351 0.02277 0.59270
 C2348 C 0.54861 0.02783 0.60670
 C2349 C 0.52946 0.04846 0.60627
 C2350 C 0.52437 0.04340 0.59226
 C2351 C 0.54160 0.04107 0.63151
 C2352 C 0.54639 0.04585 0.64369
 C2353 C 0.52093 0.02057 0.57471
 C2354 C 0.51674 0.01646 0.56208
 H2355 H 0.51835 0.01922 0.62840
 H2356 H 0.50887 0.00982 0.60237
 H2357 H 0.55102 0.01709 0.58444
 H2358 H 0.56048 0.02647 0.61044
 H2359 H 0.52887 0.06053 0.60971
 H2360 H 0.51941 0.05114 0.58372
 C2361 C 0.53421 0.53360 0.11874
 C2362 C 0.53866 0.54455 0.10552
 C2363 C 0.53382 0.53964 0.09139
 C2364 C 0.52499 0.52424 0.09183
 C2365 C 0.51179 0.52689 0.10333
 C2366 C 0.51664 0.53181 0.11749
 C2367 C 0.54077 0.51777 0.11407
 C2368 C 0.53592 0.51285 0.09992
 C2369 C 0.53957 0.53905 0.13386
 C2370 C 0.54426 0.54383 0.14607
 C2371 C 0.51992 0.51912 0.07650
 C2372 C 0.51609 0.51532 0.06367
 H2373 H 0.54505 0.55525 0.10712
 H2374 H 0.53606 0.54613 0.08089
 H2375 H 0.49971 0.52505 0.10060
 H2376 H 0.50872 0.53419 0.12689
 H2377 H 0.54851 0.51101 0.12126
 H2378 H 0.53951 0.50187 0.09499
 C2379 C 0.21381 0.53517 0.63231
 C2380 C 0.21910 0.51820 0.63208
 C2381 C 0.22426 0.51301 0.64603
 C2382 C 0.22361 0.52530 0.65882
 C2383 C 0.20679 0.53080 0.65906
 C2384 C 0.20164 0.53598 0.64513
 C2385 C 0.22766 0.54428 0.63857
 C2386 C 0.23281 0.53910 0.65251
 C2387 C 0.20812 0.54090 0.61742
 C2388 C 0.20318 0.54591 0.60540
 C2389 C 0.22900 0.51991 0.67395
 C2390 C 0.23304 0.51592 0.68666
 H2391 H 0.21883 0.51092 0.62186
 H2392 H 0.22842 0.50128 0.64778
 H2393 H 0.19954 0.53063 0.66927
 H2394 H 0.18998 0.54025 0.64342
 H2395 H 0.23297 0.55395 0.63258
 H2396 H 0.24254 0.54432 0.65846
 C2397 C 0.21403 0.03445 0.13177
 C2398 C 0.22064 0.04732 0.14204
 C2399 C 0.22571 0.04221 0.15602
 C2400 C 0.22368 0.02471 0.15838
 C2401 C 0.23200 0.01718 0.14466
 C2402 C 0.22692 0.02231 0.13065
 C2403 C 0.20140 0.02677 0.14154
 C2404 C 0.20647 0.02166 0.15553
 C2405 C 0.20844 0.04011 0.11681
 C2406 C 0.20358 0.04508 0.10474
 C2407 C 0.22899 0.01939 0.17357
 C2408 C 0.23301 0.01545 0.18630
 H2409 H 0.22129 0.05940 0.13862
 H2410 H 0.23070 0.04991 0.16459
 H2411 H 0.24106 0.00859 0.14584
 H2412 H 0.23163 0.01811 0.11982
 H2413 H 0.18953 0.02546 0.13779
 H2414 H 0.19894 0.01596 0.16376
 C2415 C 0.71401 0.21475 0.61669
 C2416 C 0.72640 0.20435 0.60945
 C2417 C 0.73143 0.20942 0.59544
 C2418 C 0.72358 0.22440 0.59002
 C2419 C 0.72626 0.23606 0.60314
 C2420 C 0.72123 0.23099 0.61717
 C2421 C 0.70121 0.21579 0.60448
 C2422 C 0.70624 0.22086 0.59047
 C2423 C 0.70851 0.20918 0.63171
 C2424 C 0.70381 0.20437 0.64389
 C2425 C 0.72890 0.22974 0.57486
 C2426 C 0.73305 0.23384 0.56222
 H2427 H 0.73084 0.19393 0.61487
 H2428 H 0.74018 0.20334 0.58885
 H2429 H 0.73164 0.24730 0.60154
 H2430 H 0.72229 0.23788 0.62759
 H2431 H 0.68925 0.21282 0.60664
 H2432 H 0.69858 0.22222 0.58063
 C2433 C 0.71397 0.71550 0.11607
 C2434 C 0.72336 0.70337 0.10717
 C2435 C 0.72835 0.70839 0.09313
 C2436 C 0.72348 0.72505 0.08935
 C2437 C 0.72946 0.73483 0.10291
 C2438 C 0.72446 0.72980 0.11696
 C2439 C 0.70087 0.72013 0.10508
 C2440 C 0.70586 0.72515 0.09104
 C2441 C 0.70851 0.70998 0.13112
 C2442 C 0.70383 0.70521 0.14333
 C2443 C 0.72876 0.73034 0.07416
 C2444 C 0.73289 0.73442 0.06151
 H2445 H 0.72586 0.69185 0.11151
 H2446 H 0.73513 0.70117 0.08544
 H2447 H 0.73695 0.74481 0.10158
 H2448 H 0.72766 0.73547 0.12768
 H2449 H 0.68873 0.71952 0.10807
 H2450 H 0.69800 0.72884 0.08200
 C2451 C 0.53562 0.71591 0.13201
 C2452 C 0.53210 0.73333 0.13245
 C2453 C 0.52696 0.73837 0.14646
 C2454 C 0.52586 0.72548 0.15862
 C2455 C 0.54201 0.71824 0.15918
 C2456 C 0.54714 0.71322 0.14520
 C2457 C 0.52068 0.70800 0.13730
 C2458 C 0.51555 0.71303 0.15129
 C2459 C 0.54128 0.71034 0.11705
 C2460 C 0.54619 0.70545 0.10499
 C2461 C 0.52050 0.73072 0.17380
 C2462 C 0.51649 0.73463 0.18653
 H2463 H 0.53350 0.74102 0.12263
 H2464 H 0.52396 0.75037 0.14864
 H2465 H 0.54884 0.71717 0.16964
 H2466 H 0.55835 0.70785 0.14369
 H2467 H 0.51465 0.69924 0.13063
 H2468 H 0.50512 0.70858 0.15662
 C2469 C 0.03785 0.71341 0.63499
 C2470 C 0.04114 0.73071 0.63745
 C2471 C 0.03576 0.73627 0.65116
 C2472 C 0.02763 0.72398 0.66105
 C2473 C 0.03945 0.71087 0.66284
 C2474 C 0.04481 0.70532 0.64915
 C2475 C 0.02034 0.71173 0.63690
 C2476 C 0.01496 0.71729 0.65061
 C2477 C 0.04372 0.70732 0.62032
 C2478 C 0.04873 0.70212 0.60842
 C2479 C 0.02195 0.72982 0.67589
 C2480 C 0.01755 0.73424 0.68833
 H2481 H 0.04714 0.73795 0.62916
 H2482 H 0.03716 0.74827 0.65461
 H2483 H 0.04327 0.70634 0.67390
 H2484 H 0.05323 0.69604 0.64849
 H2485 H 0.01282 0.70664 0.62825
 H2486 H 0.00284 0.71697 0.65370
 C2487 C 0.53387 0.63166 0.21578
 C2488 C 0.53169 0.63280 0.23333
 C2489 C 0.52681 0.64700 0.23816
 C2490 C 0.52459 0.65866 0.22495
 C2491 C 0.51343 0.65073 0.21368
 C2492 C 0.51830 0.63653 0.20886
 C2493 C 0.54500 0.64484 0.21168
 C2494 C 0.54013 0.65902 0.21650
 C2495 C 0.53926 0.61648 0.21044
 C2496 C 0.54401 0.60423 0.20578
 C2497 C 0.51951 0.67404 0.23000
 C2498 C 0.51572 0.68691 0.23380
 H2499 H 0.53378 0.62329 0.24126
 H2500 H 0.52472 0.64967 0.25023
 H2501 H 0.50263 0.65581 0.20985
 H2502 H 0.51169 0.62945 0.20089
 H2503 H 0.55578 0.64319 0.20553
 H2504 H 0.54674 0.66950 0.21448
 C2505 C 0.03589 0.63453 0.71296
 C2506 C 0.04068 0.63805 0.72966
 C2507 C 0.03553 0.65200 0.73491
 C2508 C 0.02608 0.66105 0.72293
 C2509 C 0.01309 0.65000 0.71806
 C2510 C 0.01825 0.63605 0.71281
 C2511 C 0.04174 0.64836 0.70350
 C2512 C 0.03660 0.66229 0.70874
 C2513 C 0.04154 0.61959 0.70723
 C2514 C 0.04641 0.60748 0.70235
 C2515 C 0.02066 0.67614 0.72847
 C2516 C 0.01648 0.68874 0.73275
 H2517 H 0.04751 0.63027 0.73675
 H2518 H 0.03794 0.65617 0.74649
 H2519 H 0.00092 0.65288 0.71868
 H2520 H 0.01050 0.62697 0.70894
 H2521 H 0.04928 0.64730 0.69355
 H2522 H 0.03972 0.67316 0.70328
 C2523 C 0.03520 0.11794 0.03518
 C2524 C 0.02445 0.11899 0.02111
 C2525 C 0.01926 0.10495 0.01609
 C2526 C 0.02534 0.09126 0.02564
 C2527 C 0.02080 0.09495 0.04236
 C2528 C 0.02598 0.10897 0.04738
 C2529 C 0.04814 0.10688 0.03024
 C2530 C 0.04296 0.09287 0.02524
 C2531 C 0.04092 0.13292 0.04071
 C2532 C 0.04592 0.14502 0.04555
 C2533 C 0.01994 0.07604 0.02040
 C2534 C 0.01596 0.06327 0.01644
 H2535 H 0.02120 0.12979 0.01559
 H2536 H 0.01156 0.10372 0.00627
 H2537 H 0.01409 0.08724 0.04963
 H2538 H 0.02371 0.11327 0.05893
 H2539 H 0.06030 0.10981 0.03064
 H2540 H 0.05069 0.08379 0.02134
 C2541 C 0.03710 0.61485 0.53787
 C2542 C 0.03300 0.61516 0.52062
 C2543 C 0.02750 0.60139 0.51520
 C2544 C 0.02664 0.58869 0.52757
 C2545 C 0.01685 0.59565 0.54059
 C2546 C 0.02234 0.60940 0.54600
 C2547 C 0.04850 0.60139 0.53965
 C2548 C 0.04301 0.58764 0.53424
 C2549 C 0.04311 0.62958 0.54377
 C2550 C 0.04825 0.64154 0.54880
 C2551 C 0.02086 0.57379 0.52186
 C2552 C 0.01644 0.56132 0.51744
 H2553 H 0.03429 0.62528 0.51331
 H2554 H 0.02408 0.59973 0.50325
 H2555 H 0.00650 0.59025 0.54515
 H2556 H 0.01671 0.61579 0.55520
 H2557 H 0.05990 0.60254 0.54471
 H2558 H 0.04971 0.57703 0.53468
 C2559 C 0.53673 0.11594 0.53693
 C2560 C 0.54924 0.10589 0.52941
 C2561 C 0.54395 0.09194 0.52430
 C2562 C 0.52668 0.08941 0.52720
 C2563 C 0.51867 0.10331 0.51960
 C2564 C 0.52396 0.11727 0.52472
 C2565 C 0.52985 0.10579 0.54974
 C2566 C 0.52457 0.09185 0.54463
 C2567 C 0.54252 0.13088 0.54253
 C2568 C 0.54746 0.14300 0.54733
 C2569 C 0.52111 0.07433 0.52178
 C2570 C 0.51682 0.06176 0.51754
 H2571 H 0.56119 0.10941 0.52821
 H2572 H 0.55139 0.08352 0.51872
 H2573 H 0.50964 0.10229 0.51096
 H2574 H 0.51947 0.12821 0.52047
 H2575 H 0.52918 0.10925 0.56177
 H2576 H 0.51937 0.08336 0.55228
 C2577 C 0.53540 0.61786 0.03513
 C2578 C 0.53654 0.61562 0.01759
 C2579 C 0.53134 0.60156 0.01266
 C2580 C 0.52550 0.59113 0.02577
 C2581 C 0.51319 0.60077 0.03412
 C2582 C 0.51840 0.61483 0.03904
 C2583 C 0.54420 0.60412 0.04211
 C2584 C 0.53900 0.59009 0.03719
 C2585 C 0.54113 0.63288 0.04057
 C2586 C 0.54609 0.64501 0.04534
 C2587 C 0.52007 0.57590 0.02062
 C2588 C 0.51602 0.56313 0.01674
 H2589 H 0.54103 0.62431 0.00973
 H2590 H 0.53136 0.59821 0.00058
 H2591 H 0.50143 0.59690 0.03597
 H2592 H 0.51109 0.62301 0.04512
 H2593 H 0.55369 0.60531 0.05020
 H2594 H 0.54405 0.57926 0.04108
 C2595 C 0.71322 0.13391 0.53658
 C2596 C 0.70097 0.14673 0.53661
 C2597 C 0.70633 0.16065 0.53153
 C2598 C 0.72341 0.16040 0.52692
 C2599 C 0.72472 0.14742 0.51488
 C2600 C 0.71936 0.13348 0.51996
 C2601 C 0.72658 0.14035 0.54628
 C2602 C 0.73193 0.15428 0.54121
 C2603 C 0.70737 0.11898 0.54214
 C2604 C 0.70238 0.10687 0.54694
 C2605 C 0.72905 0.17548 0.52155
 C2606 C 0.73337 0.18806 0.51738
 H2607 H 0.68913 0.14503 0.54029
 H2608 H 0.69907 0.17088 0.53087
 H2609 H 0.72944 0.14904 0.50338
 H2610 H 0.71948 0.12315 0.51282
 H2611 H 0.73141 0.13448 0.55626
 H2612 H 0.74135 0.16035 0.54683
 C2613 C 0.71429 0.63382 0.03542
 C2614 C 0.72348 0.64284 0.04761
 C2615 C 0.72850 0.65692 0.04261
 C2616 C 0.72385 0.66060 0.02591
 C2617 C 0.70624 0.65884 0.02555
 C2618 C 0.70122 0.64476 0.03055
 C2619 C 0.72497 0.63290 0.02133
 C2620 C 0.73000 0.64699 0.01632
 C2621 C 0.70879 0.61873 0.04091
 C2622 C 0.70406 0.60648 0.04563
 C2623 C 0.72916 0.67583 0.02063
 C2624 C 0.73328 0.68851 0.01653
 H2625 H 0.72584 0.63855 0.05916
 H2626 H 0.73516 0.66469 0.04988
 H2627 H 0.69840 0.66785 0.02171
 H2628 H 0.68908 0.64172 0.03098
 H2629 H 0.72829 0.62213 0.01578
 H2630 H 0.73763 0.64830 0.00648
 C2631 C 0.21417 0.61785 0.71405
 C2632 C 0.21943 0.61816 0.73098
 C2633 C 0.22468 0.60422 0.73620
 C2634 C 0.22414 0.59137 0.72396
 C2635 C 0.23333 0.59775 0.71022
 C2636 C 0.22808 0.61168 0.70501
 C2637 C 0.20210 0.60489 0.71322
 C2638 C 0.20733 0.59098 0.71842
 C2639 C 0.20837 0.63273 0.70829
 C2640 C 0.20332 0.64472 0.70328
 C2641 C 0.22960 0.57625 0.72940
 C2642 C 0.23365 0.56353 0.73347
 H2643 H 0.21908 0.62841 0.73822
 H2644 H 0.22883 0.60252 0.74791
 H2645 H 0.24311 0.59186 0.70506
 H2646 H 0.23337 0.61772 0.69538
 H2647 H 0.19044 0.60650 0.70893
 H2648 H 0.20016 0.58067 0.71859
 C2649 C 0.21487 0.11805 0.21436
 C2650 C 0.22109 0.10765 0.20142
 C2651 C 0.22611 0.09359 0.20647
 C2652 C 0.22443 0.09129 0.22396
 C2653 C 0.20733 0.09434 0.22734
 C2654 C 0.20230 0.10840 0.22229
 C2655 C 0.22802 0.11908 0.22620
 C2656 C 0.23305 0.10500 0.23125
 C2657 C 0.20931 0.13309 0.20879
 C2658 C 0.20445 0.14523 0.20394
 C2659 C 0.22967 0.07604 0.22923
 C2660 C 0.23360 0.06326 0.23319
 H2661 H 0.22152 0.11103 0.18936
 H2662 H 0.23085 0.08493 0.19872
 H2663 H 0.19982 0.08617 0.23319
 H2664 H 0.19050 0.11227 0.22383
 H2665 H 0.23294 0.12990 0.23025
 H2666 H 0.24229 0.10375 0.23963
 C2667 C 0.71528 1.11834 0.71452
 C2668 C 0.70287 1.10567 0.71417
 C2669 C 0.70795 1.09165 0.71923
 C2670 C 0.72496 1.09163 0.72415
 C2671 C 0.72626 1.10449 0.73632
 C2672 C 0.72117 1.11855 0.73125
 C2673 C 0.72870 1.11179 0.70500
 C2674 C 0.73379 1.09775 0.71006
 C2675 C 0.70966 1.13334 0.70893
 C2676 C 0.70474 1.14546 0.70407
 C2677 C 0.73025 1.07639 0.72944
 C2678 C 0.73419 1.06362 0.73341
 H2679 H 0.69111 1.10756 0.71030
 H2680 H 0.70054 1.08153 0.71969
 H2681 H 0.73078 1.10273 0.74787
 H2682 H 0.72133 1.12883 0.73846
 H2683 H 0.73378 1.11768 0.69516
 H2684 H 0.74322 1.09161 0.70456
 C2685 C 0.71559 0.61866 0.21457
 C2686 C 0.70310 0.60918 0.22281
 C2687 C 0.70811 0.59513 0.22791
 C2688 C 0.72513 0.59193 0.22427
 C2689 C 0.73397 0.60564 0.23129
 C2690 C 0.72895 0.61972 0.22618
 C2691 C 0.72153 0.60809 0.20164
 C2692 C 0.72653 0.59404 0.20673
 C2693 C 0.71004 0.63368 0.20895
 C2694 C 0.70516 0.64580 0.20407
 C2695 C 0.73035 0.57669 0.22960
 C2696 C 0.73423 0.56390 0.23361
 H2697 H 0.69135 0.61316 0.22451
 H2698 H 0.70065 0.58708 0.23397
 H2699 H 0.74333 0.60441 0.23953
 H2700 H 0.73402 0.63054 0.23004
 H2701 H 0.72178 0.61135 0.18953
 H2702 H 0.73108 0.58528 0.19899
 C2703 C 0.53477 0.13182 0.71457
 C2704 C 0.52204 0.13066 0.72683
 C2705 C 0.51703 0.14469 0.73204
 C2706 C 0.52526 0.15848 0.72447
 C2707 C 0.52300 0.15616 0.70704
 C2708 C 0.52800 0.14216 0.70184
 C2709 C 0.54749 0.14162 0.72209
 C2710 C 0.54250 0.15562 0.72729
 C2711 C 0.54030 0.11685 0.70883
 C2712 C 0.54515 0.10476 0.70386
 C2713 C 0.52003 0.17368 0.72990
 C2714 C 0.51611 0.18643 0.73395
 H2715 H 0.51738 0.11978 0.73103
 H2716 H 0.50808 0.14584 0.74071
 H2717 H 0.51791 0.16477 0.69945
 H2718 H 0.52718 0.13876 0.68980
 H2719 H 0.55939 0.13787 0.72325
 H2720 H 0.55011 0.16387 0.73290
 C2721 C 1.03393 0.13111 0.21516
 C2722 C 1.02678 0.14101 0.20230
 C2723 C 1.02189 0.15518 0.20718
 C2724 C 1.02464 0.15807 0.22445
 C2725 C 1.04195 0.15533 0.22688
 C2726 C 1.04684 0.14117 0.22200
 C2727 C 1.02156 0.13033 0.22780
 C2728 C 1.01666 0.14451 0.23269
 C2729 C 1.03934 0.11596 0.20977
 C2730 C 1.04408 0.10372 0.20506
 C2731 C 1.01953 0.17342 0.22956
 C2732 C 1.01569 0.18626 0.23341
 H2733 H 1.02563 0.13722 0.19040
 H2734 H 1.01657 0.16352 0.19946
 H2735 H 1.04970 0.16377 0.23200
 H2736 H 1.05877 0.13748 0.22294
 H2737 H 1.01704 0.11959 0.23249
 H2738 H 1.00795 0.14593 0.24158
 C2739 C 0.21342 0.63395 0.53581
 C2740 C 0.20055 0.64501 0.53071
 C2741 C 0.20580 0.65896 0.52560
 C2742 C 0.22343 0.66049 0.52609
 C2743 C 0.22948 0.64669 0.51670
 C2744 C 0.22421 0.63272 0.52182
 C2745 C 0.22264 0.64298 0.54798
 C2746 C 0.22790 0.65693 0.54287
 C2747 C 0.20767 0.61900 0.54141
 C2748 C 0.20273 0.60688 0.54623
 C2749 C 0.22897 0.67559 0.52070
 C2750 C 0.23321 0.68820 0.51652
 H2751 H 0.18836 0.64215 0.53108
 H2752 H 0.19812 0.66804 0.52160
 H2753 H 0.23721 0.64780 0.50691
 H2754 H 0.22743 0.62186 0.51641
 H2755 H 0.22484 0.63878 0.55959
 H2756 H 0.23460 0.66469 0.55011
 C2757 C 0.21381 0.13319 1.03629
 C2758 C 0.22618 0.14042 1.04673
 C2759 C 0.23127 0.15447 1.04170
 C2760 C 0.22349 0.15991 1.02673
 C2761 C 0.20614 0.15949 1.03016
 C2762 C 0.20105 0.14545 1.03519
 C2763 C 0.22109 0.13270 1.02014
 C2764 C 0.22618 0.14676 1.01511
 C2765 C 0.20823 0.11813 1.04179
 C2766 C 0.20344 0.10591 1.04650
 C2767 C 0.22887 0.17510 1.02141
 C2768 C 0.23303 0.18774 1.01724
 H2769 H 0.23056 0.13498 1.05715
 H2770 H 0.24001 0.16106 1.04781
 H2771 H 0.19852 0.16937 1.02877
 H2772 H 0.18907 0.14330 1.03810
 H2773 H 0.22215 0.12224 1.01328
 H2774 H 0.23161 0.14834 1.00393
 C2775 C 0.21270 0.71449 0.61541
 C2776 C 0.22297 0.70276 0.60696
 C2777 C 0.22820 0.70791 0.59305
 C2778 C 0.22265 0.72428 0.58894
 C2779 C 0.22768 0.73445 0.60259
 C2780 C 0.22244 0.72930 0.61652
 C2781 C 0.19977 0.71837 0.60393
 C2782 C 0.20501 0.72352 0.59002
 C2783 C 0.20698 0.70884 0.63031
 C2784 C 0.20211 0.70398 0.64241
 C2785 C 0.22818 0.72970 0.57389
 C2786 C 0.23246 0.73388 0.56132
 H2787 H 0.22588 0.69142 0.61151
 H2788 H 0.23559 0.70097 0.58568
 H2789 H 0.23472 0.74477 0.60142
 H2790 H 0.22499 0.73521 0.62728
 H2791 H 0.18758 0.71719 0.60649
 H2792 H 0.19729 0.72674 0.58067
 C2793 C 0.21402 0.21432 1.11648
 C2794 C 0.22700 0.20436 1.10969
 C2795 C 0.23204 0.20935 1.09565
 C2796 C 0.22360 0.22383 1.08978
 C2797 C 0.22552 0.23588 1.10268
 C2798 C 0.22047 0.23087 1.11673
 C2799 C 0.20140 0.21450 1.10404
 C2800 C 0.20644 0.21950 1.09001
 C2801 C 0.20851 0.20883 1.13152
 C2802 C 0.20380 0.20407 1.14373
 C2803 C 0.22893 0.22910 1.07459
 C2804 C 0.23307 0.23315 1.06195
 H2805 H 0.23182 0.19427 1.11541
 H2806 H 0.24117 0.20355 1.08934
 H2807 H 0.23040 0.24732 1.10093
 H2808 H 0.22103 0.23803 1.12702
 H2809 H 0.18955 0.21101 1.10607
 H2810 H 0.19890 0.22029 1.08002
 C2811 C 0.71510 0.53504 0.13196
 C2812 C 0.72815 0.52306 0.13099
 C2813 C 0.73312 0.51798 0.14505
 C2814 C 0.72454 0.52538 0.15868
 C2815 C 0.70742 0.52212 0.15561
 C2816 C 0.70246 0.52719 0.14157
 C2817 C 0.72143 0.54798 0.14233
 C2818 C 0.72639 0.54290 0.15637
 C2819 C 0.70962 0.54065 0.11695
 C2820 C 0.70481 0.54554 0.10483
 C2821 C 0.72973 0.52009 0.17392
 C2822 C 0.73365 0.51617 0.18669
 H2823 H 0.73304 0.51894 0.12021
 H2824 H 0.74227 0.50950 0.14633
 H2825 H 0.69985 0.51632 0.16375
 H2826 H 0.69064 0.52573 0.13768
 H2827 H 0.72198 0.56007 0.13894
 H2828 H 0.73118 0.55065 0.16500
 C2829 C 0.71413 1.03550 0.63229
 C2830 C 0.72032 1.01885 0.63174
 C2831 C 0.72557 1.01361 0.64565
 C2832 C 0.72410 1.02555 0.65870
 C2833 C 0.70701 1.03015 0.65883
 C2834 C 0.70177 1.03537 0.64495
 C2835 C 0.72740 1.04519 0.63894
 C2836 C 0.73264 1.03996 0.65283
 C2837 C 0.70835 1.04129 0.61745
 C2838 C 0.70333 1.04635 0.60549
 C2839 C 0.72958 1.02011 0.67378
 C2840 C 0.73366 1.01608 0.68647
 H2841 H 0.72056 1.01181 0.62137
 H2842 H 0.73031 1.00208 0.64719
 H2843 H 0.69965 1.02935 0.66893
 H2844 H 0.68993 1.03905 0.64318
 H2845 H 0.73227 1.05526 0.63324
 H2846 H 0.74200 1.04555 0.65902
 C2847 C 0.53610 0.21493 0.63304
 C2848 C 0.52428 0.22811 0.63173
 C2849 C 0.51905 0.23327 0.64566
 C2850 C 0.52615 0.22473 0.65949
 C2851 C 0.54365 0.22644 0.65745
 C2852 C 0.54887 0.22129 0.64355
 C2853 C 0.52805 0.20238 0.64265
 C2854 C 0.52283 0.20753 0.65655
 C2855 C 0.54186 0.20922 0.61818
 C2856 C 0.54687 0.20420 0.60621
 C2857 C 0.52070 0.23009 0.67459
 C2858 C 0.51662 0.23405 0.68729
 H2859 H 0.52038 0.23295 0.62084
 H2860 H 0.51066 0.24254 0.64671
 H2861 H 0.55126 0.23128 0.66616
 H2862 H 0.56096 0.22172 0.64035
 H2863 H 0.52657 0.19049 0.63885
 H2864 H 0.51687 0.20005 0.66467
 C2865 C 1.03547 0.21518 0.13199
 C2866 C 1.02383 0.22854 0.13087
 C2867 C 1.01870 0.23360 0.14488
 C2868 C 1.02573 0.22480 0.15859
 C2869 C 1.04324 0.22629 0.15652
 C2870 C 1.04836 0.22124 0.14254
 C2871 C 1.02728 0.20263 0.14147
 C2872 C 1.02216 0.20768 0.15545
 C2873 C 1.04111 0.20958 0.11704
 C2874 C 1.04600 0.20466 0.10497
 C2875 C 1.02037 0.23007 0.17377
 C2876 C 1.01635 0.23398 0.18650
 H2877 H 1.01997 0.23356 0.12005
 H2878 H 1.01045 0.24297 0.14606
 H2879 H 1.05094 0.23093 0.16526
 H2880 H 1.06044 0.22154 0.13931
 H2881 H 1.02562 0.19080 0.13755
 H2882 H 1.01612 0.20019 0.16350
 C2883 C 0.61792 0.21490 0.71554
 C2884 C 0.61900 0.22806 0.72743
 C2885 C 0.60500 0.23304 0.73260
 C2886 C 0.59132 0.22436 0.72538
 C2887 C 0.59445 0.20718 0.72867
 C2888 C 0.60842 0.20221 0.72350
 C2889 C 0.60743 0.22118 0.70271
 C2890 C 0.59346 0.22614 0.70788
 C2891 C 0.63287 0.20941 0.70983
 C2892 C 0.64494 0.20462 0.70486
 C2893 C 0.57616 0.22956 0.73076
 C2894 C 0.56344 0.23349 0.73476
 H2895 H 0.62979 0.23302 0.73142
 H2896 H 0.60380 0.24226 0.74103
 H2897 H 0.58639 0.19958 0.73456
 H2898 H 0.61234 0.19036 0.72496
 H2899 H 0.61069 0.22169 0.69062
 H2900 H 0.58475 0.23091 0.70021
 C2901 C 1.11779 0.21486 0.21514
 C2902 C 1.11881 0.22780 0.22727
 C2903 C 1.10478 0.23277 0.23237
 C2904 C 1.09114 0.22431 0.22483
 C2905 C 1.09412 0.20706 0.22785
 C2906 C 1.10812 0.20209 0.22276
 C2907 C 1.10749 0.22143 0.20230
 C2908 C 1.09349 0.22640 0.20739
 C2909 C 1.13277 0.20938 0.20951
 C2910 C 1.14485 0.20457 0.20460
 C2911 C 1.07595 0.22951 0.23013
 C2912 C 1.06321 0.23342 0.23407
 H2913 H 1.12959 0.23261 0.23148
 H2914 H 1.10354 0.24185 0.24095
 H2915 H 1.08595 0.19941 0.23351
 H2916 H 1.11195 0.19019 0.22406
 H2917 H 1.11090 0.22214 0.19026
 H2918 H 1.08491 0.23135 0.19971
 C2919 C 0.13521 0.71222 0.53736
 C2920 C 0.14555 0.71932 0.54989
 C2921 C 0.15925 0.72472 0.54443
 C2922 C 0.16129 0.72250 0.52697
 C2923 C 0.14719 0.73036 0.51963
 C2924 C 0.13347 0.72495 0.52510
 C2925 C 0.14516 0.69971 0.52969
 C2926 C 0.15887 0.70511 0.52423
 C2927 C 0.12052 0.70632 0.54333
 C2928 C 0.10859 0.70131 0.54843
 C2929 C 0.17613 0.72822 0.52121
 C2930 C 0.18853 0.73266 0.51679
 H2931 H 0.14238 0.72004 0.56200
 H2932 H 0.16783 0.73007 0.55186
 H2933 H 0.14792 0.73937 0.51092
 H2934 H 0.12244 0.72932 0.52107
 H2935 H 0.14174 0.68766 0.52863
 H2936 H 0.16719 0.69769 0.51850
 C2937 C 0.13386 0.21342 1.03545
 C2938 C 0.13407 0.23059 1.03086
 C2939 C 0.14809 0.23558 1.02576
 C2940 C 0.16050 0.22291 1.02575
 C2941 C 0.15367 0.20971 1.01603
 C2942 C 0.13967 0.20472 1.02113
 C2943 C 0.14679 0.21170 1.04744
 C2944 C 0.16078 0.21669 1.04235
 C2945 C 0.11885 0.20795 1.04103
 C2946 C 0.10666 0.20327 1.04581
 C2947 C 0.17564 0.22819 1.02037
 C2948 C 0.18826 0.23231 1.01623
 H2949 H 0.12410 0.23815 1.03156
 H2950 H 0.15012 0.24743 1.02209
 H2951 H 0.15934 0.20473 1.00602
 H2952 H 0.13333 0.19546 1.01549
 H2953 H 0.14510 0.20698 1.05894
 H2954 H 0.17107 0.21624 1.04948
 C2955 C 0.63163 0.53456 0.21611
 C2956 C 0.64165 0.52777 0.20318
 C2957 C 0.65580 0.52299 0.20805
 C2958 C 0.65856 0.52546 0.22539
 C2959 C 0.64516 0.51710 0.23341
 C2960 C 0.63098 0.52188 0.22853
 C2961 C 0.64141 0.54754 0.22323
 C2962 C 0.65556 0.54276 0.22810
 C2963 C 0.61648 0.53984 0.21071
 C2964 C 0.60424 0.54447 0.20599
 C2965 C 0.67391 0.52046 0.23048
 C2966 C 0.68673 0.51669 0.23431
 H2967 H 0.63794 0.52678 0.19124
 H2968 H 0.66422 0.51792 0.20029
 H2969 H 0.64667 0.50821 0.24215
 H2970 H 0.62034 0.51710 0.23308
 H2971 H 0.63755 0.55945 0.22436
 H2972 H 0.66383 0.55058 0.23340
 C2973 C 0.63239 1.03473 0.71434
 C2974 C 0.63616 1.04015 0.73080
 C2975 C 0.65017 1.03524 0.73600
 C2976 C 0.65902 1.02539 0.72422
 C2977 C 0.65994 1.03544 0.70964
 C2978 C 0.64595 1.04035 0.70445
 C2979 C 0.63400 1.01703 0.71480
 C2980 C 0.64802 1.01211 0.72000
 C2981 C 0.61741 1.04017 0.70862
 C2982 C 0.60532 1.04494 0.70368
 C2983 C 0.67421 1.02026 0.72965
 C2984 C 0.68694 1.01640 0.73370
 H2985 H 0.62849 1.04721 0.73776
 H2986 H 0.65450 1.03808 0.74741
 H2987 H 0.67065 1.03845 0.70388
 H2988 H 0.64468 1.04755 0.69425
 H2989 H 0.62494 1.00907 0.71137
 H2990 H 0.65096 0.99994 0.72103
 C2991 C 0.86560 0.46402 0.28689
 C2992 C 0.85628 0.47252 0.29933
 C2993 C 0.84240 0.47786 0.29423
 C2994 C 0.83919 0.47418 0.27719
 C2995 C 0.84097 0.45654 0.27587
 C2996 C 0.85485 0.45120 0.28096
 C2997 C 0.86689 0.47556 0.27346
 C2998 C 0.85300 0.48091 0.26836
 C2999 C 0.88047 0.45817 0.29246
 C3000 C 0.89254 0.45316 0.29724
 C3001 C 0.82417 0.47980 0.27179
 C3002 C 0.81163 0.48409 0.26759
 H3003 H 0.86023 0.47420 0.31111
 H3004 H 0.83446 0.48411 0.30165
 H3005 H 0.83211 0.44891 0.27133
 H3006 H 0.85787 0.43901 0.28079
 H3007 H 0.87776 0.47921 0.26842
 H3008 H 0.85195 0.48914 0.25894
 C3009 C 0.86553 0.96415 0.78759
 C3010 C 0.85678 0.95230 0.77770
 C3011 C 0.84295 0.95756 0.77239
 C3012 C 0.83923 0.97417 0.77748
 C3013 C 0.85301 0.98391 0.77208
 C3014 C 0.86686 0.97864 0.77740
 C3015 C 0.85425 0.96865 0.80047
 C3016 C 0.84043 0.97391 0.79516
 C3017 C 0.88035 0.95837 0.79338
 C3018 C 0.89238 0.95340 0.79831
 C3019 C 0.82426 0.97971 0.77185
 C3020 C 0.81175 0.98396 0.76750
 H3021 H 0.86106 0.94078 0.77509
 H3022 H 0.83539 0.95056 0.76523
 H3023 H 0.85200 0.99405 0.76473
 H3024 H 0.87770 0.98426 0.77461
 H3025 H 0.85689 0.96777 0.81270
 H3026 H 0.83123 0.97754 0.80284
 C3027 C 0.38457 0.28657 0.78699
 C3028 C 0.38333 0.27501 0.77358
 C3029 C 0.39724 0.26976 0.76847
 C3030 C 0.41102 0.27659 0.77729
 C3031 C 0.40789 0.27290 0.79434
 C3032 C 0.39398 0.27815 0.79944
 C3033 C 0.39522 0.29946 0.78105
 C3034 C 0.40912 0.29421 0.77596
 C3035 C 0.36966 0.29231 0.79256
 C3036 C 0.35756 0.29720 0.79733
 C3037 C 0.42606 0.27105 0.77189
 C3038 C 0.43860 0.26678 0.76767
 H3039 H 0.37248 0.27128 0.76854
 H3040 H 0.39832 0.26153 0.75907
 H3041 H 0.41588 0.26671 0.80176
 H3042 H 0.39007 0.27645 0.81122
 H3043 H 0.39211 0.31163 0.78086
 H3044 H 0.41793 0.30190 0.77141
 C3045 C 0.88453 0.28667 0.28664
 C3046 C 0.88317 0.27494 0.27338
 C3047 C 0.89704 0.26967 0.26818
 C3048 C 0.91090 0.27665 0.27676
 C3049 C 0.90797 0.27315 0.29388
 C3050 C 0.89411 0.27842 0.29908
 C3051 C 0.89507 0.29951 0.28042
 C3052 C 0.90893 0.29424 0.27523
 C3053 C 0.86968 0.29242 0.29232
 C3054 C 0.85762 0.29734 0.29718
 C3055 C 0.92590 0.27109 0.27126
 C3056 C 0.93840 0.26679 0.26699
 H3057 H 0.87228 0.27112 0.26851
 H3058 H 0.89804 0.26133 0.25886
 H3059 H 0.91607 0.26708 0.30128
 H3060 H 0.89034 0.27685 0.31092
 H3061 H 0.89193 0.31167 0.28013
 H3062 H 0.91766 0.30190 0.27049
 C3063 C 0.36774 0.78476 0.46445
 C3064 C 0.35740 0.77835 0.45155
 C3065 C 0.34342 0.77329 0.45661
 C3066 C 0.34113 0.77513 0.47408
 C3067 C 0.34409 0.79235 0.47733
 C3068 C 0.35808 0.79740 0.47226
 C3069 C 0.36881 0.77166 0.47639
 C3070 C 0.35480 0.76659 0.48147
 C3071 C 0.38269 0.79036 0.45886
 C3072 C 0.39475 0.79527 0.45400
 C3073 C 0.32595 0.76986 0.47937
 C3074 C 0.31322 0.76593 0.48334
 H3075 H 0.36078 0.77781 0.43949
 H3076 H 0.33482 0.76842 0.44889
 H3077 H 0.33593 0.79990 0.48311
 H3078 H 0.36189 0.80929 0.47371
 H3079 H 0.37960 0.76680 0.48050
 H3080 H 0.35358 0.75739 0.48992
 C3081 C 0.36720 0.28531 0.96433
 C3082 C 0.35686 0.29804 0.97107
 C3083 C 0.34300 0.29274 0.97623
 C3084 C 0.34083 0.27522 0.97416
 C3085 C 0.35469 0.26783 0.98236
 C3086 C 0.36857 0.27314 0.97719
 C3087 C 0.35741 0.27757 0.95174
 C3088 C 0.34355 0.27227 0.95690
 C3089 C 0.38201 0.29116 0.95863
 C3090 C 0.39397 0.29625 0.95367
 C3091 C 0.32577 0.26970 0.97956
 C3092 C 0.31312 0.26560 0.98359
 H3093 H 0.36014 0.31015 0.97174
 H3094 H 0.33441 0.30032 0.98132
 H3095 H 0.35370 0.25920 0.99142
 H3096 H 0.37948 0.26905 0.98181
 H3097 H 0.36105 0.27634 0.93981
 H3098 H 0.33532 0.26650 0.94939
 C3099 C 0.78596 0.46439 0.36634
 C3100 C 0.79886 0.47068 0.35598
 C3101 C 0.79382 0.47570 0.34194
 C3102 C 0.77635 0.47395 0.33964
 C3103 C 0.76906 0.48258 0.35330
 C3104 C 0.77411 0.47756 0.36734
 C3105 C 0.77806 0.45174 0.35672
 C3106 C 0.77302 0.45676 0.34268
 C3107 C 0.79148 0.45890 0.38139
 C3108 C 0.79624 0.45420 0.39361
 C3109 C 0.77102 0.47927 0.32447
 C3110 C 0.76688 0.48343 0.31185
 H3111 H 0.81091 0.47114 0.35936
 H3112 H 0.80155 0.48046 0.33331
 H3113 H 0.76067 0.49183 0.35204
 H3114 H 0.77005 0.48249 0.37813
 H3115 H 0.77656 0.43987 0.36059
 H3116 H 0.76720 0.44920 0.33453
 C3117 C 0.78760 0.96320 0.86520
 C3118 C 0.80038 0.96811 0.85398
 C3119 C 0.79500 0.97330 0.84014
 C3120 C 0.77734 0.97308 0.83886
 C3121 C 0.77163 0.98259 0.85269
 C3122 C 0.77703 0.97740 0.86655
 C3123 C 0.77808 0.95113 0.85633
 C3124 C 0.77269 0.95632 0.84249
 C3125 C 0.79348 0.95752 0.88004
 C3126 C 0.79849 0.95267 0.89210
 C3127 C 0.77166 0.97858 0.82388
 C3128 C 0.76728 0.98288 0.81138
 H3129 H 0.81260 0.96755 0.85667
 H3130 H 0.80260 0.97719 0.83097
 H3131 H 0.76403 0.99253 0.85169
 H3132 H 0.77405 0.98288 0.87743
 H3133 H 0.77577 0.93952 0.86056
 H3134 H 0.76577 0.94916 0.83485
 C3135 C 0.28561 0.78617 0.38233
 C3136 C 0.29818 0.77884 0.39243
 C3137 C 0.29293 0.77364 0.40631
 C3138 C 0.27560 0.77627 0.40873
 C3139 C 0.26777 0.76850 0.39483
 C3140 C 0.27304 0.77371 0.38093
 C3141 C 0.27846 0.79891 0.39239
 C3142 C 0.27320 0.79371 0.40626
 C3143 C 0.29141 0.79191 0.36750
 C3144 C 0.29647 0.79691 0.35553
 C3145 C 0.27011 0.77084 0.42380
 C3146 C 0.26602 0.76678 0.43646
 H3147 H 0.31017 0.77781 0.38899
 H3148 H 0.30041 0.76816 0.41474
 H3149 H 0.25889 0.75970 0.39582
 H3150 H 0.26868 0.76938 0.37001
 H3151 H 0.27759 0.81096 0.38892
 H3152 H 0.26783 0.80130 0.41468
 C3153 C 0.28549 0.28539 0.88271
 C3154 C 0.27277 0.27309 0.88131
 C3155 C 0.26750 0.26787 0.89520
 C3156 C 0.27549 0.27546 0.90911
 C3157 C 0.27329 0.29294 0.90675
 C3158 C 0.27854 0.29816 0.89288
 C3159 C 0.29803 0.27785 0.89271
 C3160 C 0.29277 0.27264 0.90658
 C3161 C 0.29130 0.29115 0.86789
 C3162 C 0.29637 0.29617 0.85594
 C3163 C 0.27002 0.27002 0.92417
 C3164 C 0.26597 0.26595 0.93685
 H3165 H 0.26830 0.26887 0.87038
 H3166 H 0.25852 0.25917 0.89618
 H3167 H 0.26805 0.30055 0.91523
 H3168 H 0.27780 0.31023 0.88948
 H3169 H 0.30999 0.27670 0.88920
 H3170 H 0.30023 0.26701 0.91495
 C3171 C 0.46393 0.28665 0.86630
 C3172 C 0.46895 0.29960 0.85525
 C3173 C 0.47413 0.29432 0.84137
 C3174 C 0.47379 0.27661 0.83989
 C3175 C 0.45706 0.27202 0.84339
 C3176 C 0.45188 0.27730 0.85727
 C3177 C 0.47798 0.27592 0.86760
 C3178 C 0.48317 0.27064 0.85370
 C3179 C 0.45824 0.29242 0.88117
 C3180 C 0.45334 0.29735 0.89322
 C3181 C 0.47925 0.27105 0.82486
 C3182 C 0.48345 0.26677 0.81230
 H3183 H 0.46849 0.31184 0.85808
 H3184 H 0.47810 0.30205 0.83231
 H3185 H 0.44991 0.26522 0.83564
 H3186 H 0.44029 0.27501 0.86141
 H3187 H 0.48338 0.27275 0.87846
 H3188 H 0.49301 0.26294 0.85266
 C3189 C 0.96440 0.28548 0.36617
 C3190 C 0.97173 0.29828 0.35630
 C3191 C 0.97676 0.29326 0.34227
 C3192 C 0.97397 0.27593 0.33948
 C3193 C 0.95661 0.27361 0.34200
 C3194 C 0.95158 0.27863 0.35603
 C3195 C 0.97670 0.27274 0.36719
 C3196 C 0.98174 0.26771 0.35315
 C3197 C 0.95889 0.29098 0.38121
 C3198 C 0.95415 0.29571 0.39341
 C3199 C 0.97927 0.27063 0.32430
 C3200 C 0.98337 0.26651 0.31165
 H3201 H 0.97287 0.31023 0.36001
 H3202 H 0.98221 0.30091 0.33396
 H3203 H 0.94893 0.26847 0.33351
 H3204 H 0.93960 0.27779 0.35956
 H3205 H 0.98107 0.26808 0.37799
 H3206 H 0.99042 0.25875 0.35191
 C3207 C 0.46226 0.36538 0.78698
 C3208 C 0.47284 0.36688 0.77285
 C3209 C 0.47822 0.35304 0.76754
 C3210 C 0.47248 0.33907 0.77689
 C3211 C 0.45483 0.34036 0.77665
 C3212 C 0.44946 0.35418 0.78195
 C3213 C 0.47175 0.35637 0.79894
 C3214 C 0.47712 0.34254 0.79364
 C3215 C 0.45639 0.38020 0.79280
 C3216 C 0.45140 0.39221 0.79781
 C3217 C 0.47816 0.32410 0.77130
 C3218 C 0.48253 0.31157 0.76701
 H3219 H 0.47584 0.37784 0.76750
 H3220 H 0.48583 0.35213 0.75764
 H3221 H 0.44722 0.33120 0.77267
 H3222 H 0.43724 0.35688 0.78251
 H3223 H 0.47405 0.36050 0.81056
 H3224 H 0.48403 0.33482 0.80072
 C3225 C 0.96273 0.36571 0.28590
 C3226 C 0.97255 0.35687 0.29773
 C3227 C 0.97776 0.34295 0.29249
 C3228 C 0.97264 0.33923 0.27593
 C3229 C 0.97812 0.35304 0.26621
 C3230 C 0.97291 0.36697 0.27146
 C3231 C 0.94979 0.35445 0.28142
 C3232 C 0.95499 0.34053 0.27618
 C3233 C 0.95704 0.38063 0.29165
 C3234 C 0.95220 0.39273 0.29660
 C3235 C 0.97815 0.32416 0.27042
 C3236 C 0.98242 0.31158 0.26618
 H3237 H 0.97519 0.36117 0.30921
 H3238 H 0.98486 0.33533 0.29949
 H3239 H 0.98544 0.35197 0.25611
 H3240 H 0.97576 0.37784 0.26585
 H3241 H 0.93760 0.35717 0.28228
 H3242 H 0.94726 0.33133 0.27256
 C3243 C 0.28524 0.86831 0.46490
 C3244 C 0.27233 0.86944 0.47697
 C3245 C 0.26725 0.85539 0.48208
 C3246 C 0.27559 0.84163 0.47460
 C3247 C 0.29279 0.84449 0.47769
 C3248 C 0.29786 0.85852 0.47259
 C3249 C 0.27866 0.85800 0.45205
 C3250 C 0.27359 0.84398 0.45715
 C3251 C 0.29084 0.88330 0.45925
 C3252 C 0.29573 0.89539 0.45431
 C3253 C 0.27030 0.82640 0.47991
 C3254 C 0.26632 0.81363 0.48385
 H3255 H 0.26760 0.88030 0.48113
 H3256 H 0.25817 0.85422 0.49062
 H3257 H 0.30032 0.83624 0.48340
 H3258 H 0.30973 0.86227 0.47393
 H3259 H 0.27802 0.86142 0.44000
 H3260 H 0.26861 0.83539 0.44946
 C3261 C 0.28647 0.36706 0.96433
 C3262 C 0.27873 0.35714 0.95183
 C3263 C 0.27341 0.34329 0.95713
 C3264 C 0.27635 0.34070 0.97441
 C3265 C 0.26903 0.35471 0.98247
 C3266 C 0.27436 0.36860 0.97717
 C3267 C 0.29912 0.35670 0.97118
 C3268 C 0.29380 0.34284 0.97648
 C3269 C 0.29234 0.38187 0.95848
 C3270 C 0.29742 0.39380 0.95337
 C3271 C 0.27080 0.32564 0.97993
 C3272 C 0.26665 0.31297 0.98403
 H3273 H 0.27751 0.36070 0.93987
 H3274 H 0.26764 0.33498 0.94970
 H3275 H 0.26044 0.35382 0.99154
 H3276 H 0.27033 0.37960 0.98168
 H3277 H 0.31119 0.35996 0.97183
 H3278 H 0.30132 0.33424 0.98166
 C3279 C 0.78688 0.38440 0.28640
 C3280 C 0.79944 0.39450 0.27904
 C3281 C 0.79418 0.40843 0.27387
 C3282 C 0.77686 0.41089 0.27656
 C3283 C 0.77454 0.40844 0.29395
 C3284 C 0.77981 0.39451 0.29913
 C3285 C 0.77426 0.38302 0.27403
 C3286 C 0.76899 0.39696 0.26885
 C3287 C 0.79265 0.36948 0.29208
 C3288 C 0.79758 0.35738 0.29696
 C3289 C 0.77130 0.42596 0.27110
 C3290 C 0.76703 0.43855 0.26689
 H3291 H 0.81142 0.39102 0.27798
 H3292 H 0.80165 0.41688 0.26838
 H3293 H 0.76923 0.41689 0.30154
 H3294 H 0.77900 0.39104 0.31115
 H3295 H 0.76986 0.37207 0.26972
 H3296 H 0.76007 0.39796 0.26010
   
