data_POSCAR
  _audit_creation_date              2014-09-24
  _audit_creation_method            'ToBaCCo'
  _symmetry_space_group_name_H-M    'P1'
  _symmetry_Int_Tables_number       1
  _symmetry_cell_setting            triclinic
  loop_
  _symmetry_equiv_pos_as_xyz
 x,y,z
_cell_length_a 67.0603
_cell_length_b 65.3936
_cell_length_c 67.1646
_cell_angle_alpha 89.978000
_cell_angle_beta 89.975400
_cell_angle_gamma 89.911600
loop_
  _atom_site_label
  _atom_site_type_symbol
  _atom_site_fract_x
  _atom_site_fract_y
  _atom_site_fract_z
C1 C 0.35264 0.35136 0.32792
 C2 C 0.36971 0.34260 0.31932
 C3 C 0.37857 0.32511 0.32774
 C4 C 0.37029 0.31657 0.34509
 C5 C 0.35321 0.32511 0.35382
 C6 C 0.34432 0.34257 0.34521
 C7 C 0.34350 0.36850 0.31924
 C8 C 0.32609 0.37695 0.32757
 C9 C 0.31801 0.36819 0.34491
 C10 C 0.32696 0.35106 0.35374
 C11 C 0.31861 0.34205 0.37077
 C12 C 0.32730 0.32455 0.37935
 C13 C 0.34470 0.31628 0.37084
 H14 H 0.37580 0.34911 0.30578
 H15 H 0.37715 0.30322 0.35180
 H16 H 0.34967 0.37495 0.30571
 H17 H 0.30472 0.37475 0.35155
 H18 H 0.30502 0.34834 0.37703
 H19 H 0.35161 0.30293 0.37748
 C20 C 0.35307 0.85145 -0.17225
 C21 C 0.37030 0.84276 -0.18062
 C22 C 0.37930 0.82516 -0.17224
 C23 C 0.37063 0.81680 -0.15485
 C24 C 0.35345 0.82537 -0.14635
 C25 C 0.34464 0.84276 -0.15507
 C26 C 0.34401 0.86854 -0.18111
 C27 C 0.32641 0.87726 -0.17314
 C28 C 0.31834 0.86842 -0.15568
 C29 C 0.32725 0.85132 -0.14671
 C30 C 0.31873 0.84235 -0.12974
 C31 C 0.32736 0.82492 -0.12100
 C32 C 0.34484 0.81664 -0.12932
 H33 H 0.37590 0.84924 -0.19435
 H34 H 0.37746 0.80390 -0.14738
 H35 H 0.35123 0.87532 -0.19392
 H36 H 0.30449 0.87402 -0.14945
 H37 H 0.30509 0.84865 -0.12360
 H38 H 0.35172 0.80334 -0.12254
 C39 C 0.85277 0.35128 -0.17313
 C40 C 0.87007 0.34262 -0.18138
 C41 C 0.87904 0.32504 -0.17294
 C42 C 0.87026 0.31664 -0.15562
 C43 C 0.85301 0.32519 -0.14723
 C44 C 0.84423 0.34257 -0.15600
 C45 C 0.84375 0.36837 -0.18204
 C46 C 0.82609 0.37707 -0.17418
 C47 C 0.81792 0.36820 -0.15678
 C48 C 0.82679 0.35111 -0.14775
 C49 C 0.81817 0.34213 -0.13084
 C50 C 0.82676 0.32471 -0.12204
 C51 C 0.84429 0.31644 -0.13026
 H52 H 0.87576 0.34911 -0.19507
 H53 H 0.87706 0.30375 -0.14811
 H54 H 0.85106 0.37516 -0.19479
 H55 H 0.80402 0.37379 -0.15063
 H56 H 0.80449 0.34842 -0.12478
 H57 H 0.85115 0.30315 -0.12344
 C58 C 0.85237 0.85189 0.32774
 C59 C 0.86944 0.84313 0.31914
 C60 C 0.87833 0.82564 0.32754
 C61 C 0.87005 0.81710 0.34489
 C62 C 0.85296 0.82564 0.35361
 C63 C 0.84406 0.84308 0.34497
 C64 C 0.84323 0.86902 0.31903
 C65 C 0.82566 0.87764 0.32718
 C66 C 0.81771 0.86866 0.34463
 C67 C 0.82670 0.85154 0.35346
 C68 C 0.81840 0.84258 0.37054
 C69 C 0.82710 0.82512 0.37916
 C70 C 0.84448 0.81683 0.37065
 H71 H 0.87555 0.84963 0.30560
 H72 H 0.87693 0.80377 0.35162
 H73 H 0.84944 0.87484 0.30528
 H74 H 0.80482 0.87524 0.35192
 H75 H 0.80481 0.84887 0.37680
 H76 H 0.85140 0.80349 0.37731
 C77 C 0.64785 0.64841 0.32630
 C78 C 0.63086 0.65723 0.31764
 C79 C 0.62196 0.67470 0.32607
 C80 C 0.63013 0.68314 0.34351
 C81 C 0.64713 0.67451 0.35231
 C82 C 0.65606 0.65709 0.34368
 C83 C 0.65701 0.63130 0.31761
 C84 C 0.67434 0.62276 0.32601
 C85 C 0.68232 0.63141 0.34343
 C86 C 0.67334 0.64852 0.35229
 C87 C 0.68157 0.65741 0.36941
 C88 C 0.67285 0.67487 0.37802
 C89 C 0.65553 0.68323 0.36944
 H90 H 0.62485 0.65081 0.30403
 H91 H 0.62324 0.69646 0.35023
 H92 H 0.65093 0.62493 0.30401
 H93 H 0.69555 0.62479 0.35013
 H94 H 0.69510 0.65105 0.37574
 H95 H 0.64859 0.69655 0.37609
 C96 C 0.64650 0.14849 -0.17353
 C97 C 0.62947 0.15736 -0.18211
 C98 C 0.62063 0.17484 -0.17365
 C99 C 0.62889 0.18326 -0.15625
 C100 C 0.64593 0.17461 -0.14755
 C101 C 0.65480 0.15719 -0.15624
 C102 C 0.65559 0.13137 -0.18228
 C103 C 0.67312 0.12264 -0.17415
 C104 C 0.68105 0.13151 -0.15665
 C105 C 0.67211 0.14863 -0.14777
 C106 C 0.68041 0.15748 -0.13064
 C107 C 0.67174 0.17493 -0.12196
 C108 C 0.65441 0.18331 -0.13046
 H109 H 0.62337 0.15095 -0.19568
 H110 H 0.62204 0.19658 -0.14948
 H111 H 0.64939 0.12564 -0.19606
 H112 H 0.69391 0.12485 -0.14937
 H113 H 0.69396 0.15111 -0.12438
 H114 H 0.64750 0.19664 -0.12376
 C115 C 0.14677 0.64912 -0.17271
 C116 C 0.12962 0.65795 -0.18106
 C117 C 0.12085 0.67539 -0.17247
 C118 C 0.12929 0.68379 -0.15516
 C119 C 0.14640 0.67511 -0.14662
 C120 C 0.15518 0.65769 -0.15542
 C121 C 0.15574 0.63202 -0.18159
 C122 C 0.17326 0.62316 -0.17360
 C123 C 0.18133 0.63188 -0.15609
 C124 C 0.17248 0.64900 -0.14706
 C125 C 0.18100 0.65786 -0.13005
 C126 C 0.17245 0.67532 -0.12127
 C127 C 0.15504 0.68375 -0.12959
 H128 H 0.12341 0.65158 -0.19460
 H129 H 0.12252 0.69711 -0.14832
 H130 H 0.14850 0.62535 -0.19443
 H131 H 0.19513 0.62617 -0.14984
 H132 H 0.19459 0.65145 -0.12390
 H133 H 0.14822 0.69706 -0.12280
 C134 C 0.14680 0.14875 0.32652
 C135 C 0.12965 0.15762 0.31819
 C136 C 0.12074 0.17522 0.32667
 C137 C 0.12946 0.18343 0.34410
 C138 C 0.14657 0.17466 0.35257
 C139 C 0.15527 0.15725 0.34376
 C140 C 0.15576 0.13165 0.31757
 C141 C 0.17327 0.12273 0.32552
 C142 C 0.18136 0.13139 0.34304
 C143 C 0.17256 0.14849 0.35210
 C144 C 0.18110 0.15726 0.36914
 C145 C 0.17259 0.17469 0.37798
 C146 C 0.15521 0.18319 0.36967
 H147 H 0.12403 0.15128 0.30442
 H148 H 0.12271 0.19633 0.35162
 H149 H 0.14851 0.12502 0.30471
 H150 H 0.19515 0.12562 0.34926
 H151 H 0.19467 0.15079 0.37526
 H152 H 0.14842 0.19650 0.37652
 C153 C 0.64629 0.35083 0.67268
 C154 C 0.62913 0.34198 0.68093
 C155 C 0.62045 0.32458 0.67222
 C156 C 0.62900 0.31625 0.65490
 C157 C 0.64616 0.32493 0.64648
 C158 C 0.65486 0.34229 0.65539
 C159 C 0.65522 0.36787 0.68166
 C160 C 0.67268 0.37648 0.67365
 C161 C 0.68104 0.36797 0.65632
 C162 C 0.67228 0.35093 0.64716
 C163 C 0.68090 0.34213 0.63017
 C164 C 0.67240 0.32473 0.62127
 C165 C 0.65493 0.31633 0.62947
 H166 H 0.62284 0.34831 0.69446
 H167 H 0.62229 0.30297 0.64797
 H168 H 0.64855 0.37447 0.69488
 H169 H 0.69466 0.37431 0.65022
 H170 H 0.69453 0.34852 0.62414
 H171 H 0.64815 0.30306 0.62258
 C172 C 0.64805 0.85114 1.17275
 C173 C 0.63088 0.84230 1.18101
 C174 C 0.62208 0.82467 1.17253
 C175 C 0.63097 0.81637 1.15520
 C176 C 0.64813 0.82507 1.14679
 C177 C 0.65673 0.84248 1.15561
 C178 C 0.65695 0.86825 1.18170
 C179 C 0.67445 0.87682 1.17373
 C180 C 0.68285 0.86823 1.15647
 C181 C 0.67418 0.85110 1.14743
 C182 C 0.68286 0.84229 1.13049
 C183 C 0.67446 0.82483 1.12165
 C184 C 0.65698 0.81642 1.12981
 H185 H 0.62514 0.84873 1.19471
 H186 H 0.62431 0.80344 1.14768
 H187 H 0.65053 0.87460 1.19516
 H188 H 0.69620 0.87489 1.15007
 H189 H 0.69619 0.84904 1.12417
 H190 H 0.65057 0.80278 1.12326
 C191 C 0.14754 0.35129 1.17377
 C192 C 0.13034 0.34255 1.18205
 C193 C 0.12143 0.32498 1.17358
 C194 C 0.13021 0.31666 1.15621
 C195 C 0.14741 0.32527 1.14779
 C196 C 0.15613 0.34263 1.15659
 C197 C 0.15651 0.36834 1.18269
 C198 C 0.17401 0.37688 1.17470
 C199 C 0.18237 0.36828 1.15741
 C200 C 0.17357 0.35121 1.14833
 C201 C 0.18217 0.34234 1.13135
 C202 C 0.17361 0.32495 1.12251
 C203 C 0.15613 0.31662 1.13076
 H204 H 0.12466 0.34899 1.19577
 H205 H 0.12346 0.30379 1.14869
 H206 H 0.14984 0.37504 1.19587
 H207 H 0.19601 0.37456 1.15130
 H208 H 0.19581 0.34868 1.12529
 H209 H 0.14932 0.30335 1.12391
 C210 C 0.14711 0.85034 0.67302
 C211 C 0.12990 0.84157 0.68124
 C212 C 0.12098 0.82407 0.67266
 C213 C 0.12979 0.81583 0.65526
 C214 C 0.14700 0.82449 0.64689
 C215 C 0.15571 0.84179 0.65580
 C216 C 0.15608 0.86734 0.68206
 C217 C 0.17358 0.87592 0.67414
 C218 C 0.18195 0.86743 0.65680
 C219 C 0.17316 0.85043 0.64761
 C220 C 0.18176 0.84167 0.63058
 C221 C 0.17320 0.82435 0.62162
 C222 C 0.15573 0.81594 0.62982
 H223 H 0.12423 0.84793 0.69499
 H224 H 0.12304 0.80299 0.64768
 H225 H 0.14939 0.87395 0.69527
 H226 H 0.19560 0.87376 0.65073
 H227 H 0.19540 0.84806 0.62457
 H228 H 0.14893 0.80272 0.62288
 C229 C 0.35224 0.64890 0.67367
 C230 C 0.36916 0.65753 0.68259
 C231 C 0.37824 0.67498 0.67439
 C232 C 0.37031 0.68363 0.65691
 C233 C 0.35338 0.67519 0.64784
 C234 C 0.34428 0.65777 0.65625
 C235 C 0.34296 0.63176 0.68211
 C236 C 0.32571 0.62338 0.67345
 C237 C 0.31794 0.63224 0.65601
 C238 C 0.32708 0.64937 0.64738
 C239 C 0.31909 0.65844 0.63021
 C240 C 0.32798 0.67591 0.62181
 C241 C 0.34520 0.68411 0.63068
 H242 H 0.37530 0.65062 0.69592
 H243 H 0.37703 0.69727 0.65066
 H244 H 0.34887 0.62524 0.69573
 H245 H 0.30477 0.62576 0.64912
 H246 H 0.30563 0.65221 0.62368
 H247 H 0.35226 0.69744 0.62419
 C248 C 0.35346 0.14918 1.17358
 C249 C 0.37055 0.15798 1.18205
 C250 C 0.37951 0.17558 1.17368
 C251 C 0.37092 0.18386 1.15620
 C252 C 0.35387 0.17518 1.14760
 C253 C 0.34511 0.15778 1.15630
 C254 C 0.34444 0.13207 1.18241
 C255 C 0.32699 0.12323 1.17431
 C256 C 0.31901 0.13199 1.15677
 C257 C 0.32787 0.14910 1.14783
 C258 C 0.31943 0.15798 1.13076
 C259 C 0.32801 0.17542 1.12203
 C260 C 0.34534 0.18382 1.13047
 H261 H 0.37609 0.15156 1.19584
 H262 H 0.37772 0.19676 1.14875
 H263 H 0.35160 0.12537 1.19530
 H264 H 0.30526 0.12630 1.15044
 H265 H 0.30590 0.15159 1.12453
 H266 H 0.35218 0.19713 1.12371
 C267 C 0.85312 0.64877 1.17363
 C268 C 0.87006 0.65760 1.18234
 C269 C 0.87888 0.67512 1.17401
 C270 C 0.87073 0.68360 1.15657
 C271 C 0.85383 0.67490 1.14766
 C272 C 0.84499 0.65740 1.15623
 C273 C 0.84413 0.63156 1.18225
 C274 C 0.82680 0.62270 1.17392
 C275 C 0.81899 0.63150 1.15630
 C276 C 0.82790 0.64870 1.14752
 C277 C 0.81964 0.65763 1.13039
 C278 C 0.82823 0.67517 1.12185
 C279 C 0.84542 0.68363 1.13053
 H280 H 0.87639 0.65083 1.19565
 H281 H 0.87724 0.69728 1.15020
 H282 H 0.85118 0.62484 1.19518
 H283 H 0.80535 0.62578 1.14978
 H284 H 0.80621 0.65120 1.12398
 H285 H 0.85228 0.69701 1.12393
 C286 C 0.85282 0.14935 0.67386
 C287 C 0.86987 0.15817 0.68237
 C288 C 0.87868 0.17560 0.67381
 C289 C 0.87036 0.18400 0.65641
 C290 C 0.85332 0.17536 0.64775
 C291 C 0.84449 0.15797 0.65649
 C292 C 0.84377 0.13227 0.68267
 C293 C 0.82643 0.12368 0.67440
 C294 C 0.81831 0.13227 0.65699
 C295 C 0.82719 0.14936 0.64801
 C296 C 0.81881 0.15823 0.63092
 C297 C 0.82744 0.17566 0.62220
 C298 C 0.84480 0.18402 0.63065
 H299 H 0.87599 0.15178 0.69595
 H300 H 0.87718 0.19729 0.64959
 H301 H 0.85026 0.12561 0.69595
 H302 H 0.80478 0.12595 0.65069
 H303 H 0.80527 0.15186 0.62470
 H304 H 0.85168 0.19732 0.62389
 C305 C 0.35134 0.35122 0.67270
 C306 C 0.34243 0.36838 0.68155
 C307 C 0.32499 0.37701 0.67346
 C308 C 0.31667 0.36841 0.65618
 C309 C 0.32538 0.35123 0.64719
 C310 C 0.34277 0.34257 0.65547
 C311 C 0.36844 0.34230 0.68105
 C312 C 0.37708 0.32477 0.67247
 C313 C 0.36854 0.31635 0.65520
 C314 C 0.35144 0.32510 0.64668
 C315 C 0.34266 0.31641 0.62972
 C316 C 0.32522 0.32487 0.62148
 C317 C 0.31678 0.34240 0.63024
 H318 H 0.34878 0.37472 0.69504
 H319 H 0.30337 0.37511 0.64971
 H320 H 0.37473 0.34869 0.69454
 H321 H 0.37522 0.30298 0.64837
 H322 H 0.34910 0.30273 0.62325
 H323 H 0.30347 0.34916 0.62385
 C324 C 0.35282 0.85200 0.17226
 C325 C 0.34366 0.86920 0.18077
 C326 C 0.32627 0.87758 0.17235
 C327 C 0.31824 0.86870 0.15505
 C328 C 0.32726 0.85152 0.14636
 C329 C 0.34459 0.84309 0.15500
 C330 C 0.36986 0.84335 0.18096
 C331 C 0.37880 0.82582 0.17271
 C332 C 0.37061 0.81713 0.15539
 C333 C 0.35355 0.82560 0.14653
 C334 C 0.34510 0.81664 0.12955
 C335 C 0.32774 0.82487 0.12091
 C336 C 0.31900 0.84240 0.12936
 H337 H 0.34977 0.87575 0.19427
 H338 H 0.30497 0.87519 0.14834
 H339 H 0.37620 0.85029 0.19417
 H340 H 0.37722 0.80344 0.14911
 H341 H 0.35205 0.80325 0.12302
 H342 H 0.30544 0.84865 0.12301
 C343 C 0.85264 0.35096 0.17147
 C344 C 0.84349 0.36807 0.18017
 C345 C 0.82611 0.37656 0.17183
 C346 C 0.81806 0.36786 0.15446
 C347 C 0.82704 0.35075 0.14560
 C348 C 0.84437 0.34222 0.15414
 C349 C 0.86968 0.34217 0.18007
 C350 C 0.87857 0.32470 0.17164
 C351 C 0.87033 0.31621 0.15426
 C352 C 0.85327 0.32479 0.14551
 C353 C 0.84480 0.31602 0.12845
 C354 C 0.82744 0.32435 0.11992
 C355 C 0.81873 0.34181 0.12853
 H356 H 0.84962 0.37448 0.19373
 H357 H 0.80480 0.37445 0.14780
 H358 H 0.87574 0.34863 0.19364
 H359 H 0.87720 0.30288 0.14753
 H360 H 0.85172 0.30269 0.12179
 H361 H 0.80517 0.34814 0.12226
 C362 C 0.85242 0.85112 0.67239
 C363 C 0.84357 0.86825 0.68134
 C364 C 0.82610 0.87694 0.67338
 C365 C 0.81766 0.86840 0.65611
 C366 C 0.82634 0.85126 0.64699
 C367 C 0.84377 0.84255 0.65518
 C368 C 0.86958 0.84219 0.68062
 C369 C 0.87817 0.82470 0.67194
 C370 C 0.86955 0.81636 0.65469
 C371 C 0.85239 0.82511 0.64631
 C372 C 0.84355 0.81648 0.62937
 C373 C 0.82607 0.82494 0.62122
 C374 C 0.81764 0.84243 0.63006
 H375 H 0.85030 0.87487 0.69451
 H376 H 0.80403 0.87480 0.65004
 H377 H 0.87593 0.84854 0.69410
 H378 H 0.87620 0.80301 0.64778
 H379 H 0.85028 0.80314 0.62252
 H380 H 0.80400 0.84887 0.62406
 C381 C 0.64665 0.64820 0.67261
 C382 C 0.65577 0.63109 0.68133
 C383 C 0.67311 0.62252 0.67296
 C384 C 0.68114 0.63116 0.65553
 C385 C 0.67219 0.64827 0.64664
 C386 C 0.65490 0.65687 0.65522
 C387 C 0.62966 0.65707 0.68125
 C388 C 0.62082 0.67455 0.67279
 C389 C 0.62902 0.68296 0.65535
 C390 C 0.64602 0.67430 0.64657
 C391 C 0.65447 0.68301 0.62945
 C392 C 0.67180 0.67464 0.62091
 C393 C 0.68048 0.65716 0.62953
 H394 H 0.64966 0.62474 0.69493
 H395 H 0.69437 0.62452 0.64886
 H396 H 0.62363 0.65067 0.69486
 H397 H 0.62217 0.69629 0.64861
 H398 H 0.64756 0.69634 0.62278
 H399 H 0.69402 0.65080 0.62323
 C400 C 0.64742 0.14892 0.17285
 C401 C 0.65650 0.13182 0.18165
 C402 C 0.67383 0.12319 0.17333
 C403 C 0.68189 0.13173 0.15587
 C404 C 0.67298 0.14882 0.14691
 C405 C 0.65570 0.15749 0.15543
 C406 C 0.63043 0.15784 0.18143
 C407 C 0.62160 0.17528 0.17288
 C408 C 0.62985 0.18361 0.15542
 C409 C 0.64685 0.17490 0.14670
 C410 C 0.65532 0.18350 0.12955
 C411 C 0.67264 0.17505 0.12104
 C412 C 0.68129 0.15761 0.12976
 H413 H 0.65037 0.12554 0.19527
 H414 H 0.69512 0.12504 0.14924
 H415 H 0.62436 0.15150 0.19506
 H416 H 0.62302 0.19692 0.14861
 H417 H 0.64844 0.19682 0.12280
 H418 H 0.69482 0.15119 0.12349
 C419 C 0.14752 0.64908 0.17348
 C420 C 0.15663 0.63200 0.18230
 C421 C 0.17397 0.62338 0.17399
 C422 C 0.18201 0.63191 0.15652
 C423 C 0.17308 0.64898 0.14754
 C424 C 0.15579 0.65764 0.15606
 C425 C 0.13052 0.65800 0.18205
 C426 C 0.12169 0.67544 0.17348
 C427 C 0.12993 0.68375 0.15601
 C428 C 0.14694 0.67503 0.14730
 C429 C 0.15540 0.68363 0.13014
 C430 C 0.17273 0.67518 0.12165
 C431 C 0.18139 0.65775 0.13038
 H432 H 0.15050 0.62572 0.19592
 H433 H 0.19523 0.62522 0.14988
 H434 H 0.12445 0.65168 0.19568
 H435 H 0.12309 0.69704 0.14918
 H436 H 0.14851 0.69693 0.12338
 H437 H 0.19492 0.65133 0.12413
 C438 C 0.14679 0.14787 0.67288
 C439 C 0.15582 0.13074 0.68168
 C440 C 0.17312 0.12205 0.67335
 C441 C 0.18120 0.13056 0.65589
 C442 C 0.17234 0.14768 0.64693
 C443 C 0.15509 0.15641 0.65546
 C444 C 0.12984 0.15686 0.68148
 C445 C 0.12108 0.17435 0.67295
 C446 C 0.12934 0.18264 0.65547
 C447 C 0.14630 0.17385 0.64674
 C448 C 0.15480 0.18244 0.62959
 C449 C 0.17209 0.17394 0.62108
 C450 C 0.18068 0.15646 0.62978
 H451 H 0.14968 0.12449 0.69530
 H452 H 0.19440 0.12383 0.64925
 H453 H 0.12377 0.15055 0.69511
 H454 H 0.12256 0.19598 0.64868
 H455 H 0.14796 0.19579 0.62286
 H456 H 0.19419 0.14999 0.62351
 C457 C 0.35294 0.64901 0.32652
 C458 C 0.34367 0.63183 0.31817
 C459 C 0.32642 0.62349 0.32687
 C460 C 0.31864 0.63242 0.34427
 C461 C 0.32777 0.64959 0.35281
 C462 C 0.34498 0.65796 0.34390
 C463 C 0.36987 0.65760 0.31756
 C464 C 0.37894 0.67509 0.32567
 C465 C 0.37100 0.68383 0.34310
 C466 C 0.35406 0.67542 0.35222
 C467 C 0.34586 0.68441 0.36934
 C468 C 0.32865 0.67622 0.37826
 C469 C 0.31977 0.65873 0.36994
 H470 H 0.34959 0.62525 0.30458
 H471 H 0.30548 0.62596 0.35120
 H472 H 0.37602 0.65062 0.30426
 H473 H 0.37771 0.69749 0.34928
 H474 H 0.35291 0.69778 0.37576
 H475 H 0.30632 0.65251 0.37651
 C476 C 0.35145 0.14862 0.82671
 C477 C 0.34232 0.13152 0.81807
 C478 C 0.32500 0.12303 0.82648
 C479 C 0.31704 0.13168 0.84394
 C480 C 0.32605 0.14877 0.85279
 C481 C 0.34331 0.15731 0.84412
 C482 C 0.36843 0.15734 0.81801
 C483 C 0.37735 0.17479 0.82634
 C484 C 0.36925 0.18329 0.84381
 C485 C 0.35226 0.17471 0.85270
 C486 C 0.34388 0.18348 0.86983
 C487 C 0.32658 0.17517 0.87848
 C488 C 0.31784 0.15773 0.86991
 H489 H 0.34870 0.12480 0.80476
 H490 H 0.30353 0.12542 0.85037
 H491 H 0.37472 0.15054 0.80468
 H492 H 0.37585 0.19692 0.85018
 H493 H 0.35083 0.19680 0.87645
 H494 H 0.30433 0.15141 0.87629
 C495 C 0.85215 0.64791 0.82626
 C496 C 0.84292 0.63079 0.81774
 C497 C 0.82566 0.62235 0.82634
 C498 C 0.81784 0.63110 0.84381
 C499 C 0.82694 0.64821 0.85252
 C500 C 0.84414 0.65668 0.84370
 C501 C 0.86907 0.65661 0.81740
 C502 C 0.87809 0.67406 0.82567
 C503 C 0.87011 0.68261 0.84316
 C504 C 0.85318 0.67409 0.85219
 C505 C 0.84493 0.68291 0.86936
 C506 C 0.82771 0.67463 0.87817
 C507 C 0.81888 0.65718 0.86970
 H508 H 0.84887 0.62434 0.80410
 H509 H 0.80468 0.62456 0.85066
 H510 H 0.87525 0.64978 0.80404
 H511 H 0.87678 0.69623 0.84947
 H512 H 0.85195 0.69624 0.87590
 H513 H 0.80542 0.65090 0.87619
 C514 C 0.85246 0.14865 0.32696
 C515 C 0.84319 0.13151 0.31851
 C516 C 0.82594 0.12312 0.32716
 C517 C 0.81816 0.13195 0.34461
 C518 C 0.82728 0.14907 0.35325
 C519 C 0.84449 0.15749 0.34439
 C520 C 0.86938 0.15729 0.31805
 C521 C 0.87844 0.17475 0.32625
 C522 C 0.87049 0.18338 0.34373
 C523 C 0.85356 0.17491 0.35280
 C524 C 0.84535 0.18380 0.36996
 C525 C 0.82812 0.17557 0.37882
 C526 C 0.81927 0.15811 0.37041
 H527 H 0.84912 0.12501 0.30488
 H528 H 0.80499 0.12545 0.35150
 H529 H 0.87554 0.15041 0.30471
 H530 H 0.87719 0.19701 0.34999
 H531 H 0.85238 0.19714 0.37645
 H532 H 0.80580 0.15186 0.37694
 C533 C 0.64803 0.35129 0.32701
 C534 C 0.65712 0.36831 0.31811
 C535 C 0.67454 0.37682 0.32627
 C536 C 0.68271 0.36824 0.34366
 C537 C 0.67379 0.35123 0.35273
 C538 C 0.65641 0.34268 0.34436
 C539 C 0.63093 0.34249 0.31859
 C540 C 0.62210 0.32512 0.32724
 C541 C 0.63045 0.31675 0.34464
 C542 C 0.64756 0.32535 0.35320
 C543 C 0.65613 0.31671 0.37029
 C544 C 0.67355 0.32504 0.37864
 C545 C 0.68220 0.34241 0.36982
 H546 H 0.65089 0.37463 0.30454
 H547 H 0.69601 0.37485 0.35018
 H548 H 0.62479 0.34886 0.30501
 H549 H 0.62362 0.30350 0.35152
 H550 H 0.64924 0.30345 0.37712
 H551 H 0.69580 0.34875 0.37596
 C552 C 0.64805 0.85089 0.82712
 C553 C 0.65706 0.86801 0.81835
 C554 C 0.67444 0.87656 0.82657
 C555 C 0.68264 0.86788 0.84390
 C556 C 0.67381 0.85076 0.85284
 C557 C 0.65647 0.84218 0.84441
 C558 C 0.63099 0.84207 0.81864
 C559 C 0.62223 0.82461 0.82716
 C560 C 0.63062 0.81614 0.84450
 C561 C 0.64769 0.82475 0.85313
 C562 C 0.65628 0.81603 0.87017
 C563 C 0.67365 0.82439 0.87859
 C564 C 0.68224 0.84185 0.86989
 H565 H 0.65080 0.87440 0.80482
 H566 H 0.69591 0.87451 0.85046
 H567 H 0.62482 0.84851 0.80510
 H568 H 0.62383 0.80282 0.85130
 H569 H 0.64944 0.80271 0.87690
 H570 H 0.69581 0.84821 0.87609
 C571 C 0.14779 0.35155 0.82779
 C572 C 0.15688 0.36867 0.81908
 C573 C 0.17418 0.37723 0.82746
 C574 C 0.18221 0.36860 0.84489
 C575 C 0.17330 0.35148 0.85377
 C576 C 0.15605 0.34288 0.84518
 C577 C 0.13083 0.34269 0.81915
 C578 C 0.12201 0.32522 0.82762
 C579 C 0.13023 0.31681 0.84506
 C580 C 0.14721 0.32546 0.85384
 C581 C 0.15565 0.31676 0.87096
 C582 C 0.17294 0.32514 0.87953
 C583 C 0.18158 0.34261 0.87089
 H584 H 0.15076 0.37503 0.80548
 H585 H 0.19540 0.37524 0.85158
 H586 H 0.12478 0.34910 0.80555
 H587 H 0.12340 0.30349 0.85181
 H588 H 0.14877 0.30342 0.87764
 H589 H 0.19509 0.34899 0.87720
 C590 C 0.14800 0.85169 0.32707
 C591 C 0.15706 0.86873 0.31819
 C592 C 0.17448 0.87725 0.32633
 C593 C 0.18268 0.86864 0.34370
 C594 C 0.17380 0.85160 0.35274
 C595 C 0.15642 0.84304 0.34439
 C596 C 0.13090 0.84289 0.31866
 C597 C 0.12209 0.82550 0.32728
 C598 C 0.13048 0.81709 0.34465
 C599 C 0.14760 0.82569 0.35320
 C600 C 0.15620 0.81702 0.37027
 C601 C 0.17361 0.82537 0.37862
 C602 C 0.18224 0.84276 0.36981
 H603 H 0.15080 0.87507 0.30464
 H604 H 0.19598 0.87525 0.35021
 H605 H 0.12473 0.84928 0.30510
 H606 H 0.12366 0.80382 0.35151
 H607 H 0.14933 0.80375 0.37708
 H608 H 0.19583 0.84910 0.37595
 O609 O 0.25210 1.02060 0.22414
 O610 O 0.22471 0.98055 0.25137
 O611 O 0.22464 1.02043 0.25151
 O612 O 0.25203 0.98072 0.22387
 O613 O 0.27539 0.98053 0.24710
 O614 O 0.24798 1.02030 0.27476
 O615 O 0.24808 0.98042 0.27460
 O616 O 0.27544 1.02041 0.24739
 Cu617 Cu 0.23601 1.00060 0.23538
 Cu618 Cu 0.26408 1.00040 0.26331
 C619 C 0.26836 1.02730 0.23121
 C620 C 0.23182 0.97367 0.26755
 C621 C 0.23171 1.02712 0.26776
 C622 C 0.26829 0.97386 0.23085
 O623 O 0.25130 0.52034 0.72498
 O624 O 0.22436 0.48049 0.75285
 O625 O 0.22424 0.52037 0.75273
 O626 O 0.25153 0.48046 0.72523
 O627 O 0.27512 0.48063 0.74824
 O628 O 0.24781 0.52055 0.77575
 O629 O 0.24793 0.48066 0.77586
 O630 O 0.27488 0.52052 0.74798
 Cu631 Cu 0.23548 0.50040 0.73663
 Cu632 Cu 0.26381 0.50062 0.76428
 C633 C 0.26760 0.52720 0.73181
 C634 C 0.23164 0.47379 0.76901
 C635 C 0.23145 0.52725 0.76885
 C636 C 0.26789 0.47375 0.73213
 O637 O 0.74766 -0.01980 0.22557
 O638 O 0.77479 0.02012 0.25309
 O639 O 0.77491 -0.01974 0.25310
 O640 O 0.74767 0.02008 0.22543
 O641 O 0.72412 0.02013 0.24849
 O642 O 0.75138 -0.01972 0.27618
 O643 O 0.75125 0.02016 0.27617
 O644 O 0.72412 -0.01976 0.24864
 Cu645 Cu 0.76362 0.00016 0.23696
 Cu646 Cu 0.73534 0.00021 0.26470
 C647 C 0.73135 -0.02658 0.23250
 C648 C 0.76756 0.02692 0.26925
 C649 C 0.76771 -0.02650 0.26927
 C650 C 0.73135 0.02689 0.23232
 O651 O 0.72382 0.51939 0.74777
 O652 O 0.75124 0.47951 0.77526
 O653 O 0.75114 0.51938 0.77526
 O654 O 0.72388 0.47951 0.74782
 O655 O 0.74727 0.47949 0.72459
 O656 O 0.77454 0.51940 0.75205
 O657 O 0.77463 0.47953 0.75204
 O658 O 0.74723 0.51937 0.72456
 Cu659 Cu 0.73516 0.49945 0.76387
 Cu660 Cu 0.76327 0.49945 0.73596
 C661 C 0.73094 0.52617 0.73156
 C662 C 0.76753 0.47274 0.76825
 C663 C 0.76740 0.52617 0.76825
 C664 C 0.73101 0.47271 0.73162
 O665 O 0.25193 0.48031 0.27627
 O666 O 0.22461 0.52018 0.24869
 O667 O 0.22472 0.48029 0.24869
 O668 O 0.25185 0.52019 0.27625
 O669 O 0.27535 0.52019 0.25313
 O670 O 0.24821 0.48027 0.22557
 O671 O 0.24810 0.52017 0.22557
 O672 O 0.27542 0.48031 0.25315
 Cu673 Cu 0.23591 0.50024 0.26481
 Cu674 Cu 0.26414 0.50024 0.23702
 C675 C 0.26824 0.47352 0.26933
 C676 C 0.23179 0.52696 0.23251
 C677 C 0.23192 0.47348 0.23253
 C678 C 0.26814 0.52698 0.26930
 O679 O 0.77492 0.98030 0.74748
 O680 O 0.74731 1.02005 0.77492
 O681 O 0.74758 0.98018 0.77494
 O682 O 0.77478 1.02019 0.74759
 O683 O 0.75147 1.02017 0.72431
 O684 O 0.72424 0.98009 0.75169
 O685 O 0.72398 1.02000 0.75166
 O686 O 0.75160 0.98025 0.72421
 Cu687 Cu 0.76350 1.00019 0.76358
 Cu688 Cu 0.73547 1.00012 0.73562
 C689 C 0.76788 0.97350 0.73126
 C690 C 0.73102 1.02679 0.76789
 C691 C 0.73137 0.97332 0.76790
 C692 C 0.76768 1.02699 0.73138
 O693 O 0.75203 0.51975 0.22352
 O694 O 0.72480 0.47983 0.25106
 O695 O 0.72488 0.51972 0.25120
 O696 O 0.75199 0.47985 0.22342
 O697 O 0.77552 0.47968 0.24648
 O698 O 0.74842 0.51955 0.27424
 O699 O 0.74835 0.47968 0.27410
 O700 O 0.77556 0.51956 0.24659
 Cu701 Cu 0.73605 0.49980 0.23497
 Cu702 Cu 0.76434 0.49960 0.26268
 C703 C 0.76836 0.52644 0.23046
 C704 C 0.73202 0.47297 0.26720
 C705 C 0.73211 0.52642 0.26737
 C706 C 0.76829 0.47298 0.23030
 O707 O 0.24736 -0.02073 0.72560
 O708 O 0.27415 0.01941 0.75317
 O709 O 0.27456 -0.02046 0.75319
 O710 O 0.24704 0.01915 0.72553
 O711 O 0.22351 0.01903 0.74861
 O712 O 0.25106 -0.02063 0.77630
 O713 O 0.25063 0.01926 0.77627
 O714 O 0.22384 -0.02087 0.74869
 Cu715 Cu 0.26315 -0.00064 0.73705
 Cu716 Cu 0.23488 -0.00083 0.76480
 C717 C 0.23111 -0.02762 0.73254
 C718 C 0.26688 0.02617 0.76933
 C719 C 0.26743 -0.02728 0.76937
 C720 C 0.23067 0.02584 0.73243
 O721 O 0.24741 0.27611 0.98129
 O722 O 0.27607 0.24896 1.01992
 O723 O 0.27581 0.24900 0.98106
 O724 O 0.24771 0.27611 1.02014
 O725 O 0.22526 0.25138 1.02030
 O726 O 0.25336 0.22427 0.98122
 O727 O 0.25361 0.22423 1.02008
 O728 O 0.22496 0.25137 0.98145
 Cu729 Cu 0.26402 0.26504 1.00058
 Cu730 Cu 0.23703 0.23532 1.00078
 C731 C 0.23140 0.26827 0.97478
 C732 C 0.26961 0.23208 1.02660
 C733 C 0.26927 0.23212 0.97447
 C734 C 0.23180 0.26827 1.02689
 O735 O 0.24836 0.77701 0.48060
 O736 O 0.27704 0.75015 0.51943
 O737 O 0.27716 0.75032 0.48056
 O738 O 0.24829 0.77686 0.51946
 O739 O 0.22618 0.75179 0.51932
 O740 O 0.25505 0.72527 0.48043
 O741 O 0.25493 0.72509 0.51929
 O742 O 0.22626 0.75194 0.48047
 Cu743 Cu 0.26494 0.76611 0.50002
 Cu744 Cu 0.23838 0.73600 0.49986
 C745 C 0.23252 0.76895 0.47391
 C746 C 0.27076 0.73314 0.52599
 C747 C 0.27092 0.73336 0.47386
 C748 C 0.23242 0.76875 0.52604
 O749 O 0.22465 0.74862 -0.01925
 O750 O 0.25324 0.77543 0.01958
 O751 O 0.25307 0.77561 -0.01925
 O752 O 0.22470 0.74857 0.01959
 O753 O 0.24706 0.72367 0.01948
 O754 O 0.27544 0.75072 -0.01938
 O755 O 0.27561 0.75054 0.01945
 O756 O 0.24702 0.72374 -0.01937
 Cu757 Cu 0.23666 0.76457 0.00019
 Cu758 Cu 0.26354 0.73465 0.00004
 C759 C 0.23107 0.73171 -0.02594
 C760 C 0.26921 0.76747 0.02613
 C761 C 0.26900 0.76768 -0.02594
 C762 C 0.23114 0.73161 0.02617
 O763 O 0.27519 0.25003 0.48066
 O764 O 0.24662 0.22279 0.51925
 O765 O 0.24691 0.22287 0.48039
 O766 O 0.27487 0.24997 0.51951
 O767 O 0.25228 0.27465 0.51934
 O768 O 0.22435 0.24758 0.48027
 O769 O 0.22405 0.24749 0.51910
 O770 O 0.25262 0.27472 0.48051
 Cu771 Cu 0.26317 0.23392 0.49996
 Cu772 Cu 0.23604 0.26360 0.49979
 C773 C 0.26868 0.26693 0.47401
 C774 C 0.23057 0.23060 0.52577
 C775 C 0.23096 0.23071 0.47366
 C776 C 0.26823 0.26684 0.52609
 O777 O 0.74804 0.77550 0.98055
 O778 O 0.77661 0.74855 1.01938
 O779 O 0.77654 0.74850 0.98052
 O780 O 0.74807 0.77547 1.01940
 O781 O 0.72572 0.75063 1.01948
 O782 O 0.75420 0.72366 0.98059
 O783 O 0.75427 0.72371 1.01946
 O784 O 0.72570 0.75066 0.98062
 Cu785 Cu 0.76456 0.76451 0.99995
 Cu786 Cu 0.73772 0.73466 1.00004
 C787 C 0.73210 0.76758 0.97396
 C788 C 0.77020 0.73164 1.02605
 C789 C 0.77012 0.73158 0.97392
 C790 C 0.73216 0.76755 1.02609
 O791 O 0.75421 0.22467 0.48078
 O792 O 0.72538 0.25149 0.51950
 O793 O 0.72560 0.25154 0.48066
 O794 O 0.75388 0.22450 0.51963
 O795 O 0.77618 0.24938 0.51984
 O796 O 0.74789 0.27643 0.48084
 O797 O 0.74768 0.27638 0.51969
 O798 O 0.77651 0.24955 0.48098
 Cu799 Cu 0.73752 0.23554 0.50012
 Cu800 Cu 0.76432 0.26544 0.50036
 C801 C 0.77017 0.23264 0.47427
 C802 C 0.73172 0.26841 0.52620
 C803 C 0.73202 0.26849 0.47411
 C804 C 0.76974 0.23243 0.52639
 O805 O 0.77472 0.25060 -0.02046
 O806 O 0.74652 0.22358 0.01855
 O807 O 0.74628 0.22363 -0.02029
 O808 O 0.77502 0.25049 0.01838
 O809 O 0.75264 0.27537 0.01858
 O810 O 0.72391 0.24851 -0.02010
 O811 O 0.72415 0.24846 0.01874
 O812 O 0.75235 0.27548 -0.02025
 Cu813 Cu 0.76289 0.23456 -0.00098
 Cu814 Cu 0.73600 0.26446 -0.00074
 C815 C 0.76825 0.26756 -0.02700
 C816 C 0.73063 0.23151 0.02530
 C817 C 0.73030 0.23159 -0.02680
 C818 C 0.76864 0.26741 0.02507
 O819 O 0.77470 0.75107 0.48063
 O820 O 0.74608 0.72396 0.51925
 O821 O 0.74636 0.72399 0.48040
 O822 O 0.77430 0.75118 0.51946
 O823 O 0.75175 0.77590 0.51924
 O824 O 0.72382 0.74872 0.48020
 O825 O 0.72354 0.74868 0.51905
 O826 O 0.75217 0.77580 0.48041
 Cu827 Cu 0.76264 0.73506 0.49995
 Cu828 Cu 0.73554 0.76477 0.49970
 C829 C 0.76823 0.76796 0.47393
 C830 C 0.73004 0.73180 0.52574
 C831 C 0.73042 0.73182 0.47365
 C832 C 0.76769 0.76807 0.52601
 O833 O 1.01935 0.27627 0.24689
 O834 O 0.98031 0.24900 0.27490
 O835 O 1.01923 0.24910 0.27519
 O836 O 0.98043 0.27619 0.24665
 O837 O 0.98070 0.25150 0.22416
 O838 O 1.01949 0.22442 0.25269
 O839 O 0.98060 0.22433 0.25239
 O840 O 1.01960 0.25158 0.22441
 Cu841 Cu 0.99981 0.26514 0.26318
 Cu842 Cu 1.00013 0.23547 0.23614
 C843 C 1.02613 0.26848 0.23097
 C844 C 0.97380 0.23211 0.26831
 C845 C 1.02597 0.23223 0.26871
 C846 C 0.97394 0.26836 0.23064
 O847 O 0.51835 0.27574 0.74637
 O848 O 0.47949 0.24875 0.77485
 O849 O 0.51842 0.24858 0.77466
 O850 O 0.47943 0.27578 0.74645
 O851 O 0.47938 0.25102 0.72403
 O852 O 0.51834 0.22384 0.75222
 O853 O 0.47943 0.22401 0.75241
 O854 O 0.51827 0.25098 0.72395
 Cu855 Cu 0.49893 0.26471 0.76285
 Cu856 Cu 0.49885 0.23496 0.73589
 C857 C 0.52494 0.26787 0.73041
 C858 C 0.47283 0.23188 0.76837
 C859 C 0.52503 0.23168 0.76814
 C860 C 0.47275 0.26793 0.73053
 O861 O 0.01975 0.24892 0.72522
 O862 O -0.01898 0.27635 0.75354
 O863 O 0.01993 0.27623 0.75335
 O864 O -0.01915 0.24910 0.72538
 O865 O -0.01912 0.22448 0.74796
 O866 O 0.01996 0.25161 0.77594
 O867 O -0.01895 0.25173 0.77613
 O868 O 0.01978 0.22430 0.74781
 Cu869 Cu 0.00039 0.26514 0.73709
 Cu870 Cu 0.00042 0.23555 0.76424
 C871 C 0.02636 0.23203 0.73178
 C872 C -0.02557 0.26861 0.76956
 C873 C 0.02661 0.26845 0.76931
 C874 C -0.02580 0.23227 0.73199
 O875 O 0.48083 0.27647 0.25324
 O876 O 0.51977 0.24926 0.22500
 O877 O 0.48087 0.24924 0.22504
 O878 O 0.51975 0.27644 0.25323
 O879 O 0.51979 0.25176 0.27575
 O880 O 0.48092 0.22456 0.24757
 O881 O 0.51981 0.22458 0.24753
 O882 O 0.48087 0.25179 0.27576
 Cu883 Cu 0.50030 0.26534 0.23686
 Cu884 Cu 0.50035 0.23569 0.26393
 C885 C 0.47420 0.26866 0.26921
 C886 C 0.52643 0.23238 0.23155
 C887 C 0.47427 0.23235 0.23159
 C888 C 0.52641 0.26863 0.26920
 O889 O 0.97997 0.74847 0.77434
 O890 O 1.01902 0.77554 0.74615
 O891 O 0.98012 0.77552 0.74597
 O892 O 1.01888 0.74867 0.77470
 O893 O 1.01919 0.72381 0.75238
 O894 O 0.98038 0.75068 0.72364
 O895 O 1.01928 0.75068 0.72383
 O896 O 0.98028 0.72363 0.75200
 Cu897 Cu 0.99948 0.76456 0.76254
 Cu898 Cu 0.99981 0.73469 0.73571
 C899 C 0.97347 0.73153 0.76786
 C900 C 1.02579 0.76763 0.73027
 C901 C 0.97363 0.76759 0.73001
 C902 C 1.02565 0.73176 0.76835
 O903 O 0.52017 0.77574 0.24582
 O904 O 0.48121 0.74857 0.27401
 O905 O 0.52012 0.74839 0.27392
 O906 O 0.48126 0.77589 0.24591
 O907 O 0.48114 0.75136 0.22325
 O908 O 0.52005 0.72384 0.25129
 O909 O 0.48113 0.72403 0.25136
 O910 O 0.52007 0.75120 0.22317
 Cu911 Cu 0.50071 0.76462 0.26220
 Cu912 Cu 0.50059 0.73513 0.23498
 C913 C 0.52677 0.76801 0.22979
 C914 C 0.47451 0.73177 0.26738
 C915 C 0.52672 0.73153 0.26729
 C916 C 0.47456 0.76822 0.22992
 O917 O 0.01967 0.75233 0.27578
 O918 O -0.01923 0.72516 0.24763
 O919 O 0.01967 0.72503 0.24767
 O920 O -0.01925 0.75241 0.27578
 O921 O -0.01923 0.77702 0.25318
 O922 O 0.01970 0.74962 0.22506
 O923 O -0.01922 0.74975 0.22501
 O924 O 0.01971 0.77694 0.25319
 Cu925 Cu 0.00021 0.73626 0.26400
 Cu926 Cu 0.00025 0.76582 0.23683
 C927 C 0.02634 0.76916 0.26918
 C928 C -0.02587 0.73291 0.23163
 C929 C 0.02632 0.73275 0.23168
 C930 C -0.02589 0.76927 0.26917
 O931 O 0.51931 0.74865 0.72524
 O932 O 0.48072 0.77616 0.75367
 O933 O 0.51963 0.77598 0.75334
 O934 O 0.48040 0.74886 0.72554
 O935 O 0.48052 0.72428 0.74817
 O936 O 0.51973 0.75139 0.77595
 O937 O 0.48083 0.75158 0.77629
 O938 O 0.51942 0.72407 0.74786
 Cu939 Cu 0.50001 0.76489 0.73716
 Cu940 Cu 0.50013 0.73535 0.76435
 C941 C 0.52595 0.73177 0.73180
 C942 C 0.47420 0.76846 0.76973
 C943 C 0.52637 0.76820 0.76929
 C944 C 0.47377 0.73204 0.73222
 C945 C 0.42878 0.29680 0.29893
 C946 C 0.42784 0.31811 0.30063
 C947 C 0.41160 0.32736 0.31013
 C948 C 0.39610 0.31538 0.31807
 C949 C 0.39727 0.29396 0.31638
 C950 C 0.41350 0.28476 0.30687
 C951 C 0.44515 0.28722 0.28865
 C952 C 0.45858 0.27889 0.27988
 H953 H 0.43960 0.32758 0.29453
 H954 H 0.41122 0.34387 0.31139
 H955 H 0.38544 0.28433 0.32206
 H956 H 0.41402 0.26825 0.30555
 C957 C 0.42923 0.79710 0.79967
 C958 C 0.41650 0.78554 0.81164
 C959 C 0.40025 0.79476 0.82109
 C960 C 0.39627 0.81590 0.81871
 C961 C 0.40955 0.82736 0.80670
 C962 C 0.42580 0.81803 0.79731
 C963 C 0.44544 0.78730 0.78933
 C964 C 0.45873 0.77884 0.78048
 H965 H 0.41892 0.76924 0.81340
 H966 H 0.39036 0.78488 0.82938
 H967 H 0.40794 0.84370 0.80491
 H968 H 0.43568 0.82717 0.78817
 C969 C -0.07076 0.29711 0.79929
 C970 C -0.07422 0.31804 0.79694
 C971 C -0.09056 0.32732 0.80623
 C972 C -0.10390 0.31582 0.81813
 C973 C -0.09988 0.29469 0.82052
 C974 C -0.08355 0.28551 0.81117
 C975 C -0.05448 0.28737 0.78904
 C976 C -0.04112 0.27894 0.78026
 H977 H -0.06431 0.32721 0.78787
 H978 H -0.09219 0.34366 0.80444
 H979 H -0.10981 0.28478 0.82874
 H980 H -0.08111 0.26922 0.81294
 C981 C -0.07138 0.79743 0.29877
 C982 C -0.07237 0.81874 0.30046
 C983 C -0.08863 0.82796 0.30995
 C984 C -0.10412 0.81595 0.31789
 C985 C -0.10289 0.79453 0.31622
 C986 C -0.08664 0.78536 0.30672
 C987 C -0.05498 0.78787 0.28852
 C988 C -0.04153 0.77955 0.27978
 H989 H -0.06062 0.82823 0.29436
 H990 H -0.08905 0.84446 0.31120
 H991 H -0.11471 0.78488 0.32190
 H992 H -0.08608 0.76886 0.30541
 C993 C 0.57197 0.70315 0.29702
 C994 C 0.58720 0.71515 0.30512
 C995 C 0.60335 0.70590 0.31471
 C996 C 0.60450 0.68448 0.31633
 C997 C 0.58905 0.67254 0.30825
 C998 C 0.57289 0.68183 0.29866
 C999 C 0.55568 0.71278 0.28669
 C1000 C 0.54230 0.72117 0.27791
 H1001 H 0.58668 0.73166 0.30385
 H1002 H 0.61514 0.71550 0.32051
 H1003 H 0.58942 0.65603 0.30946
 H1004 H 0.56117 0.67240 0.29245
 C1005 C 0.57045 0.20339 0.79772
 C1006 C 0.57137 0.18207 0.79930
 C1007 C 0.58760 0.17274 0.80874
 C1008 C 0.60312 0.18465 0.81672
 C1009 C 0.60198 0.20608 0.81515
 C1010 C 0.58576 0.21536 0.80571
 C1011 C 0.55410 0.21306 0.78751
 C1012 C 0.54067 0.22142 0.77878
 H1013 H 0.55960 0.17266 0.79317
 H1014 H 0.58796 0.15623 0.80991
 H1015 H 0.61382 0.21566 0.82087
 H1016 H 0.58525 0.23188 0.80447
 C1017 C 1.07071 0.70381 0.79873
 C1018 C 1.08597 0.71583 0.80675
 C1019 C 1.10213 0.70660 0.81634
 C1020 C 1.10327 0.68518 0.81802
 C1021 C 1.08775 0.67323 0.81009
 C1022 C 1.07158 0.68250 0.80050
 C1023 C 1.05449 0.71338 0.78824
 C1024 C 1.04117 0.72163 0.77925
 H1025 H 1.08549 0.73233 0.80538
 H1026 H 1.11397 0.71620 0.82203
 H1027 H 1.08810 0.65672 0.81134
 H1028 H 1.05984 0.67305 0.79435
 C1029 C 1.07093 0.20364 0.29871
 C1030 C 1.08369 0.21509 0.31074
 C1031 C 1.09990 0.20575 0.32015
 C1032 C 1.10381 0.18461 0.31768
 C1033 C 1.09049 0.17327 0.30564
 C1034 C 1.07428 0.18271 0.29629
 C1035 C 1.05476 0.21351 0.28839
 C1036 C 1.04147 0.22197 0.27953
 H1037 H 1.08133 0.23138 0.31256
 H1038 H 1.10982 0.21554 0.32849
 H1039 H 1.09202 0.15692 0.30379
 H1040 H 1.06437 0.17365 0.28711
 C1041 C 0.57017 0.29601 0.70051
 C1042 C 0.57101 0.31733 0.69890
 C1043 C 0.58724 0.32666 0.68950
 C1044 C 0.60284 0.31474 0.68159
 C1045 C 0.60174 0.29331 0.68312
 C1046 C 0.58552 0.28403 0.69253
 C1047 C 0.55387 0.28637 0.71081
 C1048 C 0.54050 0.27805 0.71965
 H1049 H 0.55920 0.32674 0.70503
 H1050 H 0.58756 0.34317 0.68835
 H1051 H 0.61365 0.28374 0.67745
 H1052 H 0.58506 0.26752 0.69379
 C1053 C 0.57202 0.79648 0.20018
 C1054 C 0.57534 0.81741 0.20256
 C1055 C 0.59163 0.82677 0.19332
 C1056 C 0.60508 0.81535 0.18142
 C1057 C 0.60120 0.79421 0.17899
 C1058 C 0.58490 0.78495 0.18830
 C1059 C 0.55574 0.78668 0.21038
 C1060 C 0.54236 0.77827 0.21913
 H1061 H 0.56535 0.82653 0.21162
 H1062 H 0.59315 0.84312 0.19512
 H1063 H 0.61120 0.78437 0.17077
 H1064 H 0.58257 0.76866 0.18651
 C1065 C 1.07138 0.29695 0.20138
 C1066 C 1.07478 0.31786 0.20378
 C1067 C 1.09106 0.32717 0.19448
 C1068 C 1.10442 0.31572 0.18252
 C1069 C 1.10046 0.29460 0.18008
 C1070 C 1.08417 0.28539 0.18944
 C1071 C 1.05510 0.28719 0.21161
 C1072 C 1.04172 0.27878 0.22036
 H1073 H 1.06485 0.32701 0.21288
 H1074 H 1.09264 0.34352 0.19630
 H1075 H 1.11040 0.28473 0.17181
 H1076 H 1.08177 0.26911 0.18764
 C1077 C 1.07094 0.79600 0.70044
 C1078 C 1.08369 0.78446 0.68843
 C1079 C 1.09996 0.79369 0.67904
 C1080 C 1.10395 0.81480 0.68154
 C1081 C 1.09061 0.82623 0.69354
 C1082 C 1.07435 0.81690 0.70286
 C1083 C 1.05471 0.78624 0.71074
 C1084 C 1.04137 0.77786 0.71957
 H1085 H 1.08128 0.76819 0.68659
 H1086 H 1.10988 0.78384 0.67071
 H1087 H 1.09220 0.84257 0.69539
 H1088 H 1.06445 0.82604 0.71201
 C1089 C 0.42823 0.70326 0.70342
 C1090 C 0.41226 0.69579 0.71467
 C1091 C 0.39609 0.68647 0.70524
 C1092 C 0.39566 0.68450 0.68438
 C1093 C 0.41184 0.69197 0.67320
 C1094 C 0.42802 0.70129 0.68267
 C1095 C 0.44461 0.71326 0.71324
 C1096 C 0.45807 0.72177 0.72175
 H1097 H 0.41223 0.69733 0.73073
 H1098 H 0.38374 0.68115 0.71424
 H1099 H 0.41204 0.69048 0.65714
 H1100 H 0.44032 0.70701 0.67383
 C1101 C 0.42923 0.20379 0.20184
 C1102 C 0.41649 0.21530 0.18979
 C1103 C 0.40030 0.20603 0.18034
 C1104 C 0.39638 0.18490 0.18278
 C1105 C 0.40965 0.17350 0.19488
 C1106 C 0.42584 0.18288 0.20427
 C1107 C 0.44543 0.21360 0.21211
 C1108 C 0.45874 0.22205 0.22090
 H1109 H 0.41887 0.23158 0.18796
 H1110 H 0.39041 0.21587 0.17198
 H1111 H 0.40809 0.15716 0.19673
 H1112 H 0.43573 0.17377 0.21347
 C1113 C -0.07127 0.70399 0.20276
 C1114 C -0.07157 0.70201 0.18201
 C1115 C -0.08771 0.69253 0.17261
 C1116 C -0.10376 0.68490 0.18389
 C1117 C -0.10326 0.68692 0.20474
 C1118 C -0.08713 0.69640 0.21409
 C1119 C -0.05491 0.71408 0.21252
 C1120 C -0.04149 0.72262 0.22106
 H1121 H -0.05936 0.70783 0.17310
 H1122 H -0.08758 0.69102 0.15656
 H1123 H -0.11552 0.68150 0.21381
 H1124 H -0.08710 0.69794 0.23015
 C1125 C -0.07119 0.20408 0.70243
 C1126 C -0.08649 0.21608 0.69439
 C1127 C -0.10269 0.20682 0.68493
 C1128 C -0.10381 0.18540 0.68339
 C1129 C -0.08829 0.17345 0.69141
 C1130 C -0.07209 0.18275 0.70087
 C1131 C -0.05486 0.21370 0.71266
 C1132 C -0.04144 0.22204 0.72140
 H1133 H -0.08600 0.23259 0.69561
 H1134 H -0.11453 0.21642 0.67918
 H1135 H -0.08863 0.15694 0.69027
 H1136 H -0.06032 0.17332 0.70704
 C1137 C 0.29691 0.42749 0.29870
 C1138 C 0.28566 0.41139 0.30656
 C1139 C 0.29514 0.39505 0.31608
 C1140 C 0.31605 0.39458 0.31785
 C1141 C 0.32723 0.41089 0.30999
 C1142 C 0.31771 0.42724 0.30047
 C1143 C 0.28707 0.44402 0.28849
 C1144 C 0.27859 0.45762 0.27982
 H1145 H 0.26956 0.41138 0.30518
 H1146 H 0.28614 0.38259 0.32171
 H1147 H 0.34332 0.41106 0.31131
 H1148 H 0.32656 0.43963 0.29445
 C1149 C 0.29721 -0.07288 0.79829
 C1150 C 0.30935 -0.08608 0.78733
 C1151 C 0.31911 -0.10233 0.79670
 C1152 C 0.31690 -0.10584 0.81739
 C1153 C 0.30465 -0.09213 0.82823
 C1154 C 0.29495 -0.07587 0.81875
 C1155 C 0.28678 -0.05652 0.78841
 C1156 C 0.27797 -0.04305 0.77986
 H1157 H 0.31105 -0.08400 0.77141
 H1158 H 0.32756 -0.11261 0.78732
 H1159 H 0.30294 -0.09335 0.84419
 H1160 H 0.28569 -0.06562 0.82743
 C1161 C 0.79711 0.42700 0.79715
 C1162 C 0.79472 0.42396 0.81759
 C1163 C 0.80434 0.40768 0.82710
 C1164 C 0.81665 0.39398 0.81632
 C1165 C 0.81900 0.39753 0.79565
 C1166 C 0.80932 0.41381 0.78624
 C1167 C 0.78677 0.44339 0.78724
 C1168 C 0.77802 0.45691 0.77870
 H1169 H 0.78540 0.43421 0.82623
 H1170 H 0.80252 0.40644 0.84305
 H1171 H 0.82750 0.38726 0.78631
 H1172 H 0.81113 0.41591 0.77034
 C1173 C 0.79668 -0.07229 0.29872
 C1174 C 0.81720 -0.07513 0.29643
 C1175 C 0.82680 -0.09146 0.30587
 C1176 C 0.81605 -0.10541 0.31790
 C1177 C 0.79529 -0.10207 0.32014
 C1178 C 0.78579 -0.08574 0.31064
 C1179 C 0.78667 -0.05587 0.28851
 C1180 C 0.77810 -0.04234 0.27981
 H1181 H 0.82581 -0.06469 0.28733
 H1182 H 0.84280 -0.09255 0.30415
 H1183 H 0.78597 -0.11253 0.32841
 H1184 H 0.76983 -0.08380 0.31235
 C1185 C 0.29621 0.57296 0.70207
 C1186 C 0.28503 0.58902 0.69396
 C1187 C 0.29461 0.60530 0.68446
 C1188 C 0.31553 0.60574 0.68296
 C1189 C 0.32663 0.58943 0.69100
 C1190 C 0.31702 0.57316 0.70049
 C1191 C 0.28631 0.55656 0.71237
 C1192 C 0.27786 0.54304 0.72116
 H1193 H 0.26892 0.58907 0.69518
 H1194 H 0.28566 0.61775 0.67868
 H1195 H 0.34274 0.58922 0.68987
 H1196 H 0.32582 0.56079 0.70669
 C1197 C 0.29798 1.07319 0.20265
 C1198 C 0.30989 1.08647 0.21372
 C1199 C 0.31960 1.10279 0.20442
 C1200 C 0.31755 1.10627 0.18371
 C1201 C 0.30553 1.09247 0.17278
 C1202 C 0.29589 1.07616 0.18217
 C1203 C 0.28761 1.05675 0.21244
 C1204 C 0.27885 1.04319 0.22088
 H1205 H 0.31147 1.08441 0.22965
 H1206 H 0.32787 1.11312 0.21387
 H1207 H 0.30397 1.09367 0.15680
 H1208 H 0.28681 1.06584 0.17342
 C1209 C 0.79775 0.57247 0.20190
 C1210 C 0.80948 0.58581 0.21309
 C1211 C 0.81916 0.60220 0.20392
 C1212 C 0.81730 0.60571 0.18319
 C1213 C 0.80543 0.59189 0.17213
 C1214 C 0.79580 0.57549 0.18141
 C1215 C 0.78744 0.55595 0.21160
 C1216 C 0.77875 0.54234 0.22005
 H1217 H 0.81093 0.58373 0.22904
 H1218 H 0.82728 0.61257 0.21346
 H1219 H 0.80399 0.59312 0.15614
 H1220 H 0.78685 0.56514 0.17256
 C1221 C 0.79701 1.07318 0.70300
 C1222 C 0.79897 1.07354 0.68225
 C1223 C 0.80864 1.08989 0.67292
 C1224 C 0.81650 1.10608 0.68425
 C1225 C 0.81454 1.10550 0.70510
 C1226 C 0.80486 1.08917 0.71439
 C1227 C 0.78674 1.05661 0.71266
 C1228 C 0.77807 1.04295 0.72105
 H1229 H 0.79297 1.06123 0.67329
 H1230 H 0.81011 1.08979 0.65686
 H1231 H 0.82017 1.11787 0.71421
 H1232 H 0.80336 1.08909 0.73045
 C1233 C 0.70354 0.57233 0.29700
 C1234 C 0.68274 0.57262 0.29870
 C1235 C 0.67321 0.58893 0.30827
 C1236 C 0.68440 0.60515 0.31628
 C1237 C 0.70531 0.60463 0.31460
 C1238 C 0.71479 0.58833 0.30502
 C1239 C 0.71337 0.55586 0.28671
 C1240 C 0.72182 0.54228 0.27796
 H1241 H 0.67388 0.56030 0.29256
 H1242 H 0.65711 0.58879 0.30953
 H1243 H 0.71431 0.61702 0.32034
 H1244 H 0.73090 0.58830 0.30371
 C1245 C 0.70196 1.07257 0.79725
 C1246 C 0.71287 1.08592 0.80924
 C1247 C 0.70341 1.10225 0.81879
 C1248 C 0.68268 1.10569 0.81652
 C1249 C 0.67190 1.09185 0.80442
 C1250 C 0.68146 1.07552 0.79493
 C1251 C 0.71193 1.05615 0.78702
 C1252 C 0.72052 1.04261 0.77834
 H1253 H 0.72882 1.08390 0.81098
 H1254 H 0.71275 1.11263 0.82712
 H1255 H 0.65591 1.09301 0.80268
 H1256 H 0.67282 1.06516 0.78578
 C1257 C 0.20208 0.57312 0.79776
 C1258 C 0.20435 0.57605 0.81823
 C1259 C 0.19479 0.59238 0.82772
 C1260 C 0.18268 0.60623 0.81691
 C1261 C 0.18049 0.60281 0.79620
 C1262 C 0.19010 0.58648 0.78681
 C1263 C 0.21235 0.55667 0.78786
 C1264 C 0.22102 0.54311 0.77931
 H1265 H 0.21350 0.56568 0.82689
 H1266 H 0.19649 0.59354 0.84369
 H1267 H 0.17216 0.61320 0.78683
 H1268 H 0.18840 0.58447 0.77088
 C1269 C 0.20214 1.07279 0.29676
 C1270 C 0.19013 1.08617 0.28583
 C1271 C 0.18048 1.10244 0.29527
 C1272 C 0.18266 1.10580 0.31598
 C1273 C 0.19476 1.09192 0.32678
 C1274 C 0.20435 1.07564 0.31724
 C1275 C 0.21248 1.05642 0.28682
 C1276 C 0.22122 1.04292 0.27825
 H1277 H 0.18847 1.08420 0.26990
 H1278 H 0.17214 1.11285 0.28593
 H1279 H 0.19642 1.09302 0.34275
 H1280 H 0.21350 1.06525 0.32589
 C1281 C 0.70175 0.42677 0.70285
 C1282 C 0.69374 0.41073 0.71407
 C1283 C 0.68416 0.39447 0.70459
 C1284 C 0.68248 0.39402 0.68371
 C1285 C 0.69050 0.41027 0.67255
 C1286 C 0.70008 0.42654 0.68208
 C1287 C 0.71196 0.44325 0.71271
 C1288 C 0.72061 0.45683 0.72121
 H1289 H 0.69504 0.41071 0.73015
 H1290 H 0.67841 0.38205 0.71356
 H1291 H 0.68925 0.41046 0.65648
 H1292 H 0.70621 0.43889 0.67326
 C1293 C 0.70301 -0.07271 0.20313
 C1294 C 0.71443 -0.08879 0.19542
 C1295 C 0.70514 -0.10513 0.18578
 C1296 C 0.68426 -0.10562 0.18372
 C1297 C 0.67290 -0.08935 0.19148
 C1298 C 0.68224 -0.07300 0.20112
 C1299 C 0.71269 -0.05614 0.21336
 C1300 C 0.72108 -0.04250 0.22204
 H1301 H 0.73051 -0.08877 0.19698
 H1302 H 0.71427 -0.11756 0.18024
 H1303 H 0.65683 -0.08920 0.18994
 H1304 H 0.67327 -0.06062 0.20703
 C1305 C 0.20294 0.42735 0.20377
 C1306 C 0.20136 0.42700 0.18299
 C1307 C 0.19187 0.41065 0.17350
 C1308 C 0.18381 0.39445 0.18470
 C1309 C 0.18541 0.39501 0.20558
 C1310 C 0.19491 0.41134 0.21503
 C1311 C 0.21304 0.44391 0.21360
 C1312 C 0.22161 0.45755 0.22211
 H1313 H 0.20751 0.43932 0.17413
 H1314 H 0.19068 0.41076 0.15742
 H1315 H 0.17963 0.38263 0.21460
 H1316 H 0.19613 0.41141 0.23112
 C1317 C 0.20239 -0.07377 0.70355
 C1318 C 0.20084 -0.07398 0.68277
 C1319 C 0.19140 -0.09029 0.67316
 C1320 C 0.18337 -0.10658 0.68425
 C1321 C 0.18495 -0.10616 0.70514
 C1322 C 0.19440 -0.08987 0.71470
 C1323 C 0.21241 -0.05722 0.71349
 C1324 C 0.22089 -0.04358 0.72207
 H1325 H 0.20696 -0.06158 0.67399
 H1326 H 0.19022 -0.09007 0.65708
 H1327 H 0.17919 -0.11861 0.71407
 H1328 H 0.19560 -0.08990 0.73079
 C1329 C 0.29875 0.29547 0.42917
 C1330 C 0.30034 0.31679 0.42851
 C1331 C 0.30982 0.32629 0.41243
 C1332 C 0.31783 0.31454 0.39679
 C1333 C 0.31630 0.29310 0.39770
 C1334 C 0.30682 0.28365 0.41378
 C1335 C 0.28839 0.28567 0.44532
 C1336 C 0.27950 0.27723 0.45857
 H1337 H 0.29415 0.32609 0.44036
 H1338 H 0.31096 0.34280 0.41225
 H1339 H 0.32204 0.28365 0.38576
 H1340 H 0.30558 0.26713 0.41409
 C1341 C 0.29879 0.79606 -0.07107
 C1342 C 0.30028 0.81739 -0.07187
 C1343 C 0.30972 0.82682 -0.08801
 C1344 C 0.31780 0.81499 -0.10355
 C1345 C 0.31635 0.79355 -0.10251
 C1346 C 0.30690 0.78417 -0.08638
 C1347 C 0.28852 0.78632 -0.05482
 C1348 C 0.27972 0.77792 -0.04148
 H1349 H 0.29405 0.82673 -0.06008
 H1350 H 0.31080 0.84333 -0.08829
 H1351 H 0.32215 0.78405 -0.11438
 H1352 H 0.30573 0.76765 -0.08596
 C1353 C 0.79800 0.29590 -0.07218
 C1354 C 0.79946 0.31723 -0.07302
 C1355 C 0.80896 0.32664 -0.08914
 C1356 C 0.81713 0.31480 -0.10463
 C1357 C 0.81569 0.29336 -0.10356
 C1358 C 0.80619 0.28400 -0.08745
 C1359 C 0.78772 0.28617 -0.05594
 C1360 C 0.77893 0.27779 -0.04258
 H1361 H 0.79318 0.32659 -0.06127
 H1362 H 0.81003 0.34316 -0.08944
 H1363 H 0.82156 0.28384 -0.11538
 H1364 H 0.80505 0.26748 -0.08700
 C1365 C 0.79846 0.79627 0.42907
 C1366 C 0.80011 0.81759 0.42835
 C1367 C 0.80964 0.82701 0.41225
 C1368 C 0.81764 0.81518 0.39666
 C1369 C 0.81608 0.79375 0.39764
 C1370 C 0.80654 0.78438 0.41373
 C1371 C 0.78803 0.78656 0.44522
 C1372 C 0.77908 0.77820 0.45848
 H1373 H 0.79392 0.82694 0.44015
 H1374 H 0.81081 0.84352 0.41201
 H1375 H 0.82182 0.78425 0.38574
 H1376 H 0.80526 0.76787 0.41410
 C1377 C 0.70143 0.29638 0.57129
 C1378 C 0.69981 0.31770 0.57224
 C1379 C 0.69020 0.32696 0.58839
 C1380 C 0.68209 0.31498 0.60380
 C1381 C 0.68368 0.29355 0.60261
 C1382 C 0.69329 0.28434 0.58647
 C1383 C 0.71188 0.28680 0.55505
 C1384 C 0.72083 0.27853 0.54172
 H1385 H 0.70606 0.32716 0.56056
 H1386 H 0.68902 0.34347 0.58878
 H1387 H 0.67786 0.28393 0.61437
 H1388 H 0.69456 0.26783 0.58594
 C1389 C 0.70315 0.79615 1.07164
 C1390 C 0.71452 0.80359 1.08751
 C1391 C 0.70519 0.81298 1.10370
 C1392 C 0.68431 0.81507 1.10426
 C1393 C 0.67298 0.80757 1.08821
 C1394 C 0.68237 0.79817 1.07200
 C1395 C 0.71292 0.78618 1.05520
 C1396 C 0.72150 0.77773 1.04173
 H1397 H 0.73061 0.80201 1.08744
 H1398 H 0.71429 0.81831 1.11596
 H1399 H 0.65691 0.80913 1.08812
 H1400 H 0.67343 0.79246 1.05978
 C1401 C 0.20224 0.29645 1.07235
 C1402 C 0.19415 0.28446 1.08759
 C1403 C 0.18470 0.29372 1.10380
 C1404 C 0.18322 0.31515 1.10501
 C1405 C 0.19129 0.32709 1.08955
 C1406 C 0.20074 0.31778 1.07333
 C1407 C 0.21245 0.28682 1.05599
 C1408 C 0.22118 0.27848 1.04255
 H1409 H 0.19532 0.26794 1.08704
 H1410 H 0.17890 0.28412 1.11559
 H1411 H 0.19020 0.34361 1.08995
 H1412 H 0.20695 0.32722 1.06160
 C1413 C 0.20213 0.79633 0.57137
 C1414 C 0.19397 0.78419 0.58646
 C1415 C 0.18438 0.79328 0.60268
 C1416 C 0.18283 0.81470 0.60404
 C1417 C 0.19094 0.82679 0.58870
 C1418 C 0.20052 0.81765 0.57248
 C1419 C 0.21257 0.78689 0.55505
 C1420 C 0.22152 0.77873 0.54165
 H1421 H 0.19522 0.76768 0.58580
 H1422 H 0.17856 0.78358 0.61438
 H1423 H 0.18978 0.84330 0.58922
 H1424 H 0.20677 0.82720 0.56087
 C1425 C 0.30047 0.70492 0.57132
 C1426 C 0.30824 0.71677 0.58682
 C1427 C 0.31741 0.70735 0.60311
 C1428 C 0.31891 0.68591 0.60413
 C1429 C 0.31124 0.67413 0.58837
 C1430 C 0.30208 0.68359 0.57208
 C1431 C 0.29031 0.71466 0.55499
 C1432 C 0.28154 0.72300 0.54159
 H1433 H 0.30697 0.73329 0.58644
 H1434 H 0.32290 0.71682 0.61513
 H1435 H 0.31238 0.65761 0.58862
 H1436 H 0.29612 0.67427 0.56015
 C1437 C 0.29955 0.20392 1.07180
 C1438 C 0.30747 0.21591 1.08711
 C1439 C 0.31691 0.20665 1.10333
 C1440 C 0.31853 0.18523 1.10447
 C1441 C 0.31065 0.17330 1.08891
 C1442 C 0.30122 0.18260 1.07269
 C1443 C 0.28925 0.21354 1.05550
 C1444 C 0.28040 0.22187 1.04214
 H1445 H 0.30616 0.23242 1.08663
 H1446 H 0.32255 0.21624 1.11520
 H1447 H 0.31186 0.15679 1.08927
 H1448 H 0.29514 0.17317 1.06091
 C1449 C 0.80006 0.70365 1.07143
 C1450 C 0.80779 0.71565 1.08684
 C1451 C 0.81715 0.70640 1.10311
 C1452 C 0.81889 0.68499 1.10420
 C1453 C 0.81124 0.67306 1.08854
 C1454 C 0.80188 0.68235 1.07226
 C1455 C 0.78979 0.71324 1.05508
 C1456 C 0.78097 0.72151 1.04166
 H1457 H 0.80636 0.73215 1.08640
 H1458 H 0.82262 0.71599 1.11506
 H1459 H 0.81256 0.65655 1.08885
 H1460 H 0.79596 0.67291 1.06041
 C1461 C 0.79925 0.20424 0.57186
 C1462 C 0.80715 0.21621 0.58720
 C1463 C 0.81648 0.20692 0.60346
 C1464 C 0.81801 0.18549 0.60462
 C1465 C 0.81014 0.17358 0.58905
 C1466 C 0.80081 0.18291 0.57278
 C1467 C 0.78910 0.21390 0.55548
 C1468 C 0.78038 0.22224 0.54204
 H1469 H 0.80592 0.23272 0.58669
 H1470 H 0.82212 0.21649 0.61534
 H1471 H 0.81128 0.15706 0.58942
 H1472 H 0.79474 0.17350 0.56098
 C1473 C 0.70097 0.70354 0.42828
 C1474 C 0.69936 0.68222 0.42747
 C1475 C 0.69003 0.67286 0.41124
 C1476 C 0.68219 0.68474 0.39561
 C1477 C 0.68373 0.70617 0.39667
 C1478 C 0.69306 0.71548 0.41289
 C1479 C 0.71114 0.71322 0.44461
 C1480 C 0.71985 0.72158 0.45802
 H1481 H 0.70542 0.67283 0.43931
 H1482 H 0.68888 0.65635 0.41094
 H1483 H 0.67811 0.71571 0.38474
 H1484 H 0.69432 0.73199 0.41332
 C1485 C 0.70019 0.20352 -0.07185
 C1486 C 0.69854 0.18220 -0.07267
 C1487 C 0.68909 0.17287 -0.08884
 C1488 C 0.68118 0.18477 -0.10442
 C1489 C 0.68276 0.20620 -0.10335
 C1490 C 0.69221 0.21548 -0.08718
 C1491 C 0.71055 0.21315 -0.05562
 C1492 C 0.71945 0.22145 -0.04230
 H1493 H 0.70467 0.17279 -0.06087
 H1494 H 0.68791 0.15636 -0.08914
 H1495 H 0.67708 0.21576 -0.11524
 H1496 H 0.69350 0.23199 -0.08676
 C1497 C 0.20112 0.70373 -0.07117
 C1498 C 0.19309 0.71575 -0.08644
 C1499 C 0.18360 0.70652 -0.10262
 C1500 C 0.18203 0.68510 -0.10376
 C1501 C 0.19001 0.67314 -0.08826
 C1502 C 0.19950 0.68242 -0.07207
 C1503 C 0.21144 0.71332 -0.05489
 C1504 C 0.22029 0.72159 -0.04151
 H1505 H 0.19436 0.73226 -0.08594
 H1506 H 0.17787 0.71613 -0.11445
 H1507 H 0.18883 0.65663 -0.08861
 H1508 H 0.20566 0.67297 -0.06032
 C1509 C 0.20132 0.20277 0.42821
 C1510 C 0.19963 0.18147 0.42722
 C1511 C 0.19012 0.17230 0.41099
 C1512 C 0.18218 0.18436 0.39554
 C1513 C 0.18383 0.20577 0.39676
 C1514 C 0.19335 0.21489 0.41299
 C1515 C 0.21161 0.21227 0.44456
 C1516 C 0.22037 0.22052 0.45800
 H1517 H 0.20574 0.17195 0.43893
 H1518 H 0.18888 0.15580 0.41057
 H1519 H 0.17814 0.21545 0.38497
 H1520 H 0.19466 0.23139 0.41355
 C1521 C 0.29634 0.42759 0.70276
 C1522 C 0.31712 0.42722 0.70081
 C1523 C 0.32648 0.41085 0.69118
 C1524 C 0.31514 0.39463 0.68337
 C1525 C 0.29426 0.39521 0.68535
 C1526 C 0.28494 0.41157 0.69498
 C1527 C 0.28664 0.44418 0.71300
 C1528 C 0.27822 0.45782 0.72168
 H1529 H 0.32608 0.43956 0.70677
 H1530 H 0.34256 0.41093 0.68971
 H1531 H 0.28514 0.38282 0.67978
 H1532 H 0.26885 0.41166 0.69649
 C1533 C 0.29701 0.92805 0.20122
 C1534 C 0.28578 0.91196 0.19334
 C1535 C 0.29528 0.89566 0.18377
 C1536 C 0.31618 0.89524 0.18197
 C1537 C 0.32734 0.91157 0.18981
 C1538 C 0.31779 0.92787 0.19937
 C1539 C 0.28716 0.94450 0.21154
 C1540 C 0.27867 0.95804 0.22030
 H1541 H 0.26968 0.91190 0.19477
 H1542 H 0.28630 0.88319 0.17815
 H1543 H 0.34343 0.91178 0.18845
 H1544 H 0.32663 0.94026 0.20540
 C1545 C 0.79689 0.42702 0.20077
 C1546 C 0.81769 0.42676 0.19902
 C1547 C 0.82722 0.41044 0.18948
 C1548 C 0.81605 0.39416 0.18157
 C1549 C 0.79514 0.39464 0.18331
 C1550 C 0.78565 0.41096 0.19285
 C1551 C 0.78704 0.44352 0.21101
 C1552 C 0.77859 0.45710 0.21974
 H1553 H 0.82653 0.43913 0.20509
 H1554 H 0.84332 0.41060 0.18818
 H1555 H 0.78614 0.38221 0.17764
 H1556 H 0.76955 0.41096 0.19421
 C1557 C 0.79723 0.92749 0.70253
 C1558 C 0.79883 0.92717 0.68176
 C1559 C 0.80834 0.91082 0.67224
 C1560 C 0.81638 0.89457 0.68341
 C1561 C 0.81478 0.89511 0.70430
 C1562 C 0.80527 0.91146 0.71377
 C1563 C 0.78703 0.94402 0.71238
 C1564 C 0.77836 0.95763 0.72087
 H1565 H 0.79266 0.93951 0.67291
 H1566 H 0.80952 0.91094 0.65616
 H1567 H 0.82055 0.88270 0.71329
 H1568 H 0.80403 0.91150 0.72986
 C1569 C 0.70225 0.57211 0.70208
 C1570 C 0.68145 0.57242 0.70038
 C1571 C 0.67194 0.58872 0.69077
 C1572 C 0.68315 0.60493 0.68274
 C1573 C 0.70406 0.60440 0.68443
 C1574 C 0.71352 0.58810 0.69405
 C1575 C 0.71207 0.55563 0.71236
 C1576 C 0.72056 0.54205 0.72108
 H1577 H 0.67258 0.56010 0.70653
 H1578 H 0.65584 0.58859 0.68951
 H1579 H 0.71307 0.61678 0.67867
 H1580 H 0.72962 0.58807 0.69536
 C1581 C 0.70282 0.07281 0.20264
 C1582 C 0.71414 0.08874 0.19457
 C1583 C 0.70472 0.10502 0.18489
 C1584 C 0.68382 0.10560 0.18318
 C1585 C 0.67256 0.08945 0.19125
 C1586 C 0.68202 0.07316 0.20091
 C1587 C 0.71259 0.05633 0.21299
 C1588 C 0.72102 0.04276 0.22176
 H1589 H 0.73024 0.08866 0.19590
 H1590 H 0.71378 0.11737 0.17910
 H1591 H 0.65647 0.08936 0.18997
 H1592 H 0.67312 0.06088 0.20710
 C1593 C 0.20310 0.57297 0.20311
 C1594 C 0.18230 0.57331 0.20147
 C1595 C 0.17278 0.58963 0.19190
 C1596 C 0.18399 0.60581 0.18383
 C1597 C 0.20490 0.60526 0.18549
 C1598 C 0.21437 0.58895 0.19507
 C1599 C 0.21294 0.55645 0.21334
 C1600 C 0.22143 0.54285 0.22202
 H1601 H 0.17343 0.56100 0.20764
 H1602 H 0.15668 0.58952 0.19067
 H1603 H 0.21392 0.61763 0.17970
 H1604 H 0.23048 0.58889 0.19634
 C1605 C 0.20204 0.07167 0.70274
 C1606 C 0.18124 0.07205 0.70103
 C1607 C 0.17180 0.08834 0.69133
 C1608 C 0.18308 0.10446 0.68322
 C1609 C 0.20398 0.10385 0.68493
 C1610 C 0.21337 0.08757 0.69462
 C1611 C 0.21180 0.05521 0.71311
 C1612 C 0.22026 0.04166 0.72189
 H1613 H 0.17232 0.05981 0.70724
 H1614 H 0.15571 0.08828 0.69006
 H1615 H 0.21305 0.11616 0.67910
 H1616 H 0.22948 0.08747 0.69594
 C1617 C 0.29688 0.57291 0.29861
 C1618 C 0.31770 0.57312 0.30013
 C1619 C 0.32733 0.58945 0.30949
 C1620 C 0.31623 0.60580 0.31746
 C1621 C 0.29531 0.60536 0.31600
 C1622 C 0.28572 0.58902 0.30663
 C1623 C 0.28696 0.55644 0.28846
 C1624 C 0.27846 0.54286 0.27979
 H1625 H 0.32648 0.56071 0.29399
 H1626 H 0.34343 0.58925 0.31059
 H1627 H 0.28637 0.61784 0.32173
 H1628 H 0.26960 0.58907 0.30545
 C1629 C 0.29563 0.07254 0.79792
 C1630 C 0.29757 0.07287 0.81867
 C1631 C 0.30716 0.08926 0.82802
 C1632 C 0.31495 0.10550 0.81668
 C1633 C 0.31292 0.10498 0.79584
 C1634 C 0.30333 0.08862 0.78655
 C1635 C 0.28556 0.05588 0.78822
 C1636 C 0.27707 0.04217 0.77975
 H1637 H 0.29167 0.06049 0.82762
 H1638 H 0.30867 0.08913 0.84407
 H1639 H 0.31847 0.11740 0.78673
 H1640 H 0.30183 0.08856 0.77048
 C1641 C 0.79620 0.57200 0.79765
 C1642 C 0.78501 0.58804 0.80576
 C1643 C 0.79458 0.60430 0.81526
 C1644 C 0.81551 0.60475 0.81676
 C1645 C 0.82662 0.58847 0.80868
 C1646 C 0.81701 0.57220 0.79918
 C1647 C 0.78628 0.55557 0.78742
 C1648 C 0.77777 0.54203 0.77873
 H1649 H 0.76890 0.58808 0.80458
 H1650 H 0.78563 0.61674 0.82107
 H1651 H 0.84273 0.58827 0.80979
 H1652 H 0.82581 0.55985 0.79297
 C1653 C 0.79635 0.07274 0.29865
 C1654 C 0.81717 0.07291 0.30017
 C1655 C 0.82682 0.08919 0.30960
 C1656 C 0.81574 0.10551 0.31765
 C1657 C 0.79481 0.10510 0.31617
 C1658 C 0.78521 0.08883 0.30673
 C1659 C 0.78640 0.05632 0.28845
 C1660 C 0.77789 0.04278 0.27976
 H1661 H 0.82594 0.06052 0.29398
 H1662 H 0.84292 0.08896 0.31070
 H1663 H 0.78589 0.11758 0.32196
 H1664 H 0.76909 0.08890 0.30556
 C1665 C 0.70349 0.42706 0.29678
 C1666 C 0.71481 0.41103 0.30474
 C1667 C 0.70541 0.39479 0.31445
 C1668 C 0.68451 0.39434 0.31633
 C1669 C 0.67326 0.41058 0.30836
 C1670 C 0.68270 0.42683 0.29866
 C1671 C 0.71325 0.44352 0.28645
 C1672 C 0.72169 0.45709 0.27770
 H1673 H 0.73090 0.41101 0.30330
 H1674 H 0.71446 0.38238 0.32016
 H1675 H 0.65717 0.41077 0.30976
 H1676 H 0.67380 0.43917 0.29257
 C1677 C 0.70307 0.92715 0.79734
 C1678 C 0.71449 0.91116 0.80522
 C1679 C 0.70520 0.89480 0.81486
 C1680 C 0.68431 0.89421 0.81675
 C1681 C 0.67295 0.91043 0.80887
 C1682 C 0.68229 0.92679 0.79923
 C1683 C 0.71273 0.94371 0.78705
 C1684 C 0.72109 0.95736 0.77834
 H1685 H 0.73058 0.91124 0.80376
 H1686 H 0.71433 0.88242 0.82051
 H1687 H 0.65686 0.91052 0.81029
 H1688 H 0.67331 0.93910 0.79321
 C1689 C 0.20321 0.42777 0.79855
 C1690 C 0.18240 0.42743 0.80019
 C1691 C 0.17293 0.41108 0.80971
 C1692 C 0.18417 0.39486 0.81772
 C1693 C 0.20509 0.39542 0.81608
 C1694 C 0.21452 0.41176 0.80655
 C1695 C 0.21300 0.44429 0.78832
 C1696 C 0.22140 0.45789 0.77959
 H1697 H 0.17351 0.43975 0.79405
 H1698 H 0.15683 0.41119 0.81093
 H1699 H 0.21414 0.38303 0.82182
 H1700 H 0.23062 0.41182 0.80527
 C1701 C 0.20331 0.92760 0.29692
 C1702 C 0.21466 0.91158 0.30482
 C1703 C 0.20530 0.89529 0.31451
 C1704 C 0.18441 0.89481 0.31642
 C1705 C 0.17312 0.91104 0.30850
 C1706 C 0.18252 0.92734 0.29882
 C1707 C 0.21304 0.94412 0.28663
 C1708 C 0.22147 0.95774 0.27795
 H1709 H 0.23076 0.91159 0.30337
 H1710 H 0.21438 0.88289 0.32018
 H1711 H 0.15703 0.91121 0.30992
 H1712 H 0.17359 0.93968 0.29277
 C1713 C 0.42737 0.29615 0.70084
 C1714 C 0.41198 0.28420 0.69299
 C1715 C 0.39575 0.29349 0.68358
 C1716 C 0.39467 0.31491 0.68191
 C1717 C 0.41030 0.32681 0.68970
 C1718 C 0.42655 0.31747 0.69911
 C1719 C 0.44371 0.28650 0.71109
 C1720 C 0.45713 0.27816 0.71986
 H1721 H 0.41242 0.26769 0.69433
 H1722 H 0.38382 0.28394 0.67799
 H1723 H 0.41000 0.34331 0.68845
 H1724 H 0.43839 0.32687 0.70513
 C1725 C 0.42903 0.79731 0.20128
 C1726 C 0.41322 0.80494 0.21268
 C1727 C 0.39698 0.81435 0.20340
 C1728 C 0.39631 0.81624 0.18254
 C1729 C 0.41233 0.80860 0.17119
 C1730 C 0.42858 0.79920 0.18053
 C1731 C 0.44545 0.78720 0.21096
 C1732 C 0.45891 0.77860 0.21943
 H1733 H 0.41336 0.80347 0.22875
 H1734 H 0.38475 0.81978 0.21252
 H1735 H 0.41234 0.81002 0.15513
 H1736 H 0.44075 0.79334 0.17156
 C1737 C 0.92869 0.29641 0.20060
 C1738 C 0.91346 0.28436 0.19257
 C1739 C 0.89728 0.29355 0.18299
 C1740 C 0.89609 0.31497 0.18132
 C1741 C 0.91154 0.32696 0.18931
 C1742 C 0.92774 0.31772 0.19889
 C1743 C 0.94499 0.28684 0.21098
 C1744 C 0.95837 0.27855 0.21986
 H1745 H 0.91400 0.26785 0.19390
 H1746 H 0.88548 0.28392 0.17726
 H1747 H 0.91115 0.34346 0.18807
 H1748 H 0.93946 0.32719 0.20505
 C1749 C 0.92844 0.79583 0.70007
 C1750 C 0.92768 0.81715 0.69841
 C1751 C 0.91145 0.82658 0.68907
 C1752 C 0.89577 0.81476 0.68128
 C1753 C 0.89678 0.79333 0.68287
 C1754 C 0.91300 0.78395 0.69221
 C1755 C 0.94473 0.78610 0.71034
 C1756 C 0.95809 0.77775 0.71918
 H1757 H 0.93956 0.82649 0.70445
 H1758 H 0.91119 0.84309 0.68788
 H1759 H 0.88481 0.78383 0.67729
 H1760 H 0.91339 0.76744 0.69352
 C1761 C 0.57180 0.29676 0.29882
 C1762 C 0.57276 0.31808 0.30034
 C1763 C 0.58902 0.32735 0.30974
 C1764 C 0.60452 0.31537 0.31775
 C1765 C 0.60331 0.29394 0.31627
 C1766 C 0.58707 0.28472 0.30686
 C1767 C 0.55544 0.28717 0.28859
 C1768 C 0.54202 0.27885 0.27984
 H1769 H 0.56102 0.32754 0.29416
 H1770 H 0.58942 0.34386 0.31084
 H1771 H 0.61514 0.28432 0.32202
 H1772 H 0.58652 0.26821 0.30568
 C1773 C 0.57194 0.79629 0.79866
 C1774 C 0.58727 0.78424 0.80658
 C1775 C 0.60352 0.79344 0.81601
 C1776 C 0.60467 0.81486 0.81763
 C1777 C 0.58911 0.82685 0.80973
 C1778 C 0.57286 0.81760 0.80031
 C1779 C 0.55555 0.78672 0.78848
 C1780 C 0.54208 0.77841 0.77980
 H1781 H 0.58676 0.76774 0.80530
 H1782 H 0.61538 0.78382 0.82166
 H1783 H 0.58947 0.84336 0.81094
 H1784 H 0.56106 0.82707 0.79424
 C1785 C 0.07200 0.29669 0.79884
 C1786 C 0.08730 0.28471 0.80689
 C1787 C 0.10347 0.29399 0.81638
 C1788 C 0.10456 0.31542 0.81794
 C1789 C 0.08904 0.32734 0.80988
 C1790 C 0.07287 0.31802 0.80040
 C1791 C 0.05567 0.28704 0.78862
 C1792 C 0.04225 0.27869 0.77990
 H1793 H 0.08683 0.26820 0.80567
 H1794 H 0.11532 0.28441 0.82215
 H1795 H 0.08936 0.34385 0.81104
 H1796 H 0.06109 0.32744 0.79422
 C1797 C 0.07175 0.79723 0.29883
 C1798 C 0.07272 0.81854 0.30041
 C1799 C 0.08898 0.82777 0.30984
 C1800 C 0.10449 0.81577 0.31780
 C1801 C 0.10327 0.79435 0.31627
 C1802 C 0.08702 0.78516 0.30684
 C1803 C 0.05539 0.78767 0.28858
 C1804 C 0.04196 0.77938 0.27981
 H1805 H 0.06097 0.82803 0.29427
 H1806 H 0.08939 0.84428 0.31098
 H1807 H 0.11510 0.78471 0.32198
 H1808 H 0.08647 0.76865 0.30560
 C1809 C 0.57096 0.70326 0.70183
 C1810 C 0.58624 0.71518 0.69370
 C1811 C 0.60235 0.70585 0.68412
 C1812 C 0.60340 0.68442 0.68253
 C1813 C 0.58790 0.67255 0.69063
 C1814 C 0.57178 0.68193 0.70022
 C1815 C 0.55474 0.71297 0.71220
 C1816 C 0.54143 0.72141 0.72105
 H1817 H 0.58581 0.73169 0.69496
 H1818 H 0.61419 0.71538 0.67830
 H1819 H 0.58819 0.65604 0.68946
 H1820 H 0.56002 0.67256 0.70646
 C1821 C 0.57163 0.20401 0.20172
 C1822 C 0.58691 0.21593 0.19358
 C1823 C 0.60305 0.20660 0.18405
 C1824 C 0.60414 0.18517 0.18253
 C1825 C 0.58864 0.17330 0.19064
 C1826 C 0.57249 0.18268 0.20017
 C1827 C 0.55537 0.21372 0.21203
 C1828 C 0.54200 0.22210 0.22085
 H1829 H 0.58644 0.23245 0.19479
 H1830 H 0.61488 0.21613 0.17823
 H1831 H 0.58896 0.15679 0.18951
 H1832 H 0.56074 0.17331 0.20641
 C1833 C 0.07163 0.70424 0.20212
 C1834 C 0.07251 0.68290 0.20066
 C1835 C 0.08870 0.67349 0.19122
 C1836 C 0.10422 0.68534 0.18311
 C1837 C 0.10311 0.70678 0.18455
 C1838 C 0.08693 0.71614 0.19400
 C1839 C 0.05532 0.71399 0.21233
 C1840 C 0.04192 0.72242 0.22106
 H1841 H 0.06075 0.67355 0.20690
 H1842 H 0.08904 0.65698 0.19015
 H1843 H 0.11495 0.71630 0.17873
 H1844 H 0.08645 0.73266 0.19513
 C1845 C 0.07134 0.20337 0.70187
 C1846 C 0.07207 0.18204 0.70033
 C1847 C 0.08815 0.17256 0.69077
 C1848 C 0.10370 0.18433 0.68263
 C1849 C 0.10273 0.20577 0.68415
 C1850 C 0.08666 0.21520 0.69371
 C1851 C 0.05515 0.21318 0.71222
 C1852 C 0.04185 0.22166 0.72105
 H1853 H 0.06027 0.17274 0.70659
 H1854 H 0.08837 0.15604 0.68965
 H1855 H 0.11461 0.21523 0.67831
 H1856 H 0.08630 0.23172 0.69491
 C1857 C 0.42900 0.70315 0.29644
 C1858 C 0.41303 0.69562 0.28525
 C1859 C 0.39683 0.68639 0.29474
 C1860 C 0.39638 0.68455 0.31561
 C1861 C 0.41256 0.69208 0.32675
 C1862 C 0.42876 0.70132 0.31721
 C1863 C 0.44540 0.71307 0.28656
 C1864 C 0.45886 0.72152 0.27796
 H1865 H 0.41301 0.69705 0.26917
 H1866 H 0.38449 0.68103 0.28578
 H1867 H 0.41273 0.69070 0.34281
 H1868 H 0.44106 0.70708 0.32602
 C1869 C 0.42734 0.20332 0.79748
 C1870 C 0.42707 0.20133 0.81823
 C1871 C 0.41086 0.19198 0.82767
 C1872 C 0.39474 0.18448 0.81644
 C1873 C 0.39521 0.18652 0.79559
 C1874 C 0.41140 0.19587 0.78620
 C1875 C 0.44376 0.21326 0.78766
 C1876 C 0.45720 0.22169 0.77905
 H1877 H 0.43934 0.20704 0.82710
 H1878 H 0.41101 0.19045 0.84372
 H1879 H 0.38290 0.18121 0.78655
 H1880 H 0.41141 0.19742 0.77013
 C1881 C 0.92802 0.70266 0.79675
 C1882 C 0.92779 0.70059 0.81749
 C1883 C 0.91163 0.69116 0.82693
 C1884 C 0.89549 0.68368 0.81571
 C1885 C 0.89593 0.68575 0.79487
 C1886 C 0.91208 0.69518 0.78547
 C1887 C 0.94438 0.71273 0.78696
 C1888 C 0.95782 0.72126 0.77842
 H1889 H 0.94007 0.70630 0.82636
 H1890 H 0.91182 0.68959 0.84298
 H1891 H 0.88361 0.68044 0.78584
 H1892 H 0.91206 0.69679 0.76941
 C1893 C 0.92838 0.20318 0.29719
 C1894 C 0.92817 0.20117 0.31794
 C1895 C 0.91201 0.19180 0.32743
 C1896 C 0.89585 0.18431 0.31625
 C1897 C 0.89627 0.18631 0.29539
 C1898 C 0.91242 0.19568 0.28595
 C1899 C 0.94473 0.21323 0.28737
 C1900 C 0.95815 0.22179 0.27883
 H1901 H 0.94046 0.20691 0.32678
 H1902 H 0.91221 0.19029 0.34348
 H1903 H 0.88393 0.18098 0.28640
 H1904 H 0.91238 0.19724 0.26989
 C1905 C 0.29682 0.29584 0.57158
 C1906 C 0.28535 0.30345 0.58733
 C1907 C 0.29459 0.31299 0.60348
 C1908 C 0.31546 0.31506 0.60409
 C1909 C 0.32687 0.30743 0.58814
 C1910 C 0.31759 0.29788 0.57198
 C1911 C 0.28717 0.28570 0.55520
 C1912 C 0.27872 0.27713 0.54175
 H1913 H 0.26927 0.30186 0.58721
 H1914 H 0.28542 0.31842 0.61566
 H1915 H 0.34294 0.30898 0.58810
 H1916 H 0.32660 0.29206 0.55985
 C1917 C 0.29935 0.79575 0.07105
 C1918 C 0.30735 0.78394 0.08649
 C1919 C 0.31681 0.79339 0.10257
 C1920 C 0.31838 0.81483 0.10344
 C1921 C 0.31047 0.82657 0.08774
 C1922 C 0.30102 0.81708 0.07166
 C1923 C 0.28897 0.78599 0.05491
 C1924 C 0.28005 0.77763 0.04163
 H1925 H 0.30605 0.76743 0.08622
 H1926 H 0.32249 0.78395 0.11455
 H1927 H 0.31165 0.84308 0.08788
 H1928 H 0.29489 0.82637 0.05978
 C1929 C 0.79889 0.29557 0.06997
 C1930 C 0.80693 0.28366 0.08531
 C1931 C 0.81643 0.29300 0.10142
 C1932 C 0.81801 0.31443 0.10241
 C1933 C 0.81006 0.32628 0.08681
 C1934 C 0.80056 0.31689 0.07070
 C1935 C 0.78847 0.28589 0.05381
 C1936 C 0.77952 0.27757 0.04053
 H1937 H 0.80563 0.26715 0.08495
 H1938 H 0.82214 0.28348 0.11333
 H1939 H 0.81124 0.34279 0.08705
 H1940 H 0.79439 0.32625 0.05890
 C1941 C 0.79717 0.79639 0.57134
 C1942 C 0.80523 0.78442 0.58662
 C1943 C 0.81474 0.79370 0.60275
 C1944 C 0.81632 0.81513 0.60383
 C1945 C 0.80825 0.82705 0.58834
 C1946 C 0.79874 0.81772 0.57220
 C1947 C 0.78696 0.78672 0.55503
 C1948 C 0.77825 0.77834 0.54163
 H1949 H 0.80401 0.76791 0.58615
 H1950 H 0.82053 0.78413 0.61458
 H1951 H 0.80941 0.84356 0.58866
 H1952 H 0.79255 0.82713 0.56044
 C1953 C 0.30096 0.70530 0.42863
 C1954 C 0.30265 0.68398 0.42795
 C1955 C 0.31190 0.67450 0.41172
 C1956 C 0.31957 0.68626 0.39592
 C1957 C 0.31800 0.70770 0.39687
 C1958 C 0.30875 0.71713 0.41311
 C1959 C 0.29069 0.71503 0.44490
 C1960 C 0.28181 0.72332 0.45827
 H1961 H 0.29668 0.67467 0.43989
 H1962 H 0.31308 0.65799 0.41152
 H1963 H 0.32350 0.71716 0.38483
 H1964 H 0.30743 0.73365 0.41343
 C1965 C 0.29868 0.20388 0.92893
 C1966 C 0.30652 0.21582 0.91352
 C1967 C 0.31578 0.20649 0.89723
 C1968 C 0.31731 0.18506 0.89612
 C1969 C 0.30952 0.17319 0.91178
 C1970 C 0.30026 0.18256 0.92807
 C1971 C 0.28855 0.21356 0.94533
 C1972 C 0.27987 0.22191 0.95879
 H1973 H 0.30528 0.23233 0.91398
 H1974 H 0.32136 0.21604 0.88529
 H1975 H 0.31066 0.15667 0.91146
 H1976 H 0.29424 0.17317 0.93993
 C1977 C 0.79989 0.70341 0.92861
 C1978 C 0.80769 0.71533 0.91316
 C1979 C 0.81697 0.70599 0.89689
 C1980 C 0.81855 0.68455 0.89584
 C1981 C 0.81084 0.67270 0.91155
 C1982 C 0.80157 0.68209 0.92782
 C1983 C 0.78966 0.71308 0.94493
 C1984 C 0.78086 0.72140 0.95833
 H1985 H 0.80638 0.73184 0.91356
 H1986 H 0.82249 0.71551 0.88491
 H1987 H 0.81203 0.65619 0.91127
 H1988 H 0.79559 0.67272 0.93971
 C1989 C 0.80027 0.20450 0.42915
 C1990 C 0.80809 0.21638 0.41368
 C1991 C 0.81740 0.20699 0.39745
 C1992 C 0.81899 0.18555 0.39647
 C1993 C 0.81129 0.17375 0.41222
 C1994 C 0.80199 0.18318 0.42844
 C1995 C 0.78996 0.21421 0.44540
 C1996 C 0.78106 0.22252 0.45874
 H1997 H 0.80676 0.23289 0.41403
 H1998 H 0.82293 0.21647 0.38544
 H1999 H 0.81249 0.15724 0.41199
 H2000 H 0.79599 0.17384 0.44035
 C2001 C 0.70215 0.29660 0.42882
 C2002 C 0.70057 0.31792 0.42787
 C2003 C 0.69108 0.32721 0.41166
 C2004 C 0.68306 0.31525 0.39620
 C2005 C 0.68458 0.29382 0.39741
 C2006 C 0.69408 0.28458 0.41361
 C2007 C 0.71248 0.28699 0.44512
 C2008 C 0.72131 0.27869 0.45851
 H2009 H 0.70676 0.32736 0.43957
 H2010 H 0.68994 0.34372 0.41126
 H2011 H 0.67883 0.28422 0.38561
 H2012 H 0.69531 0.26807 0.41415
 C2013 C 0.70218 0.79574 0.92873
 C2014 C 0.70055 0.81707 0.92787
 C2015 C 0.69110 0.82642 0.91167
 C2016 C 0.68317 0.81453 0.89612
 C2017 C 0.68474 0.79310 0.89723
 C2018 C 0.69419 0.78379 0.91341
 C2019 C 0.71248 0.78608 0.94501
 C2020 C 0.72132 0.77775 0.95838
 H2021 H 0.70668 0.82646 0.93964
 H2022 H 0.68993 0.84293 0.91135
 H2023 H 0.67905 0.78354 0.88536
 H2024 H 0.69547 0.76728 0.91387
 C2025 C 0.20135 0.29649 0.92970
 C2026 C 0.19963 0.31781 0.92890
 C2027 C 0.19019 0.32716 0.91270
 C2028 C 0.18235 0.31528 0.89710
 C2029 C 0.18400 0.29385 0.89816
 C2030 C 0.19344 0.28455 0.91434
 C2031 C 0.21170 0.28683 0.94595
 C2032 C 0.22058 0.27849 0.95928
 H2033 H 0.20569 0.32720 0.94071
 H2034 H 0.18895 0.34367 0.91241
 H2035 H 0.17839 0.28430 0.88625
 H2036 H 0.19479 0.26804 0.91476
 C2037 C 0.20234 0.79694 0.42875
 C2038 C 0.20072 0.81826 0.42780
 C2039 C 0.19118 0.82754 0.41163
 C2040 C 0.18314 0.81558 0.39617
 C2041 C 0.18470 0.79415 0.39737
 C2042 C 0.19425 0.78492 0.41355
 C2043 C 0.21276 0.78735 0.44501
 C2044 C 0.22168 0.77909 0.45836
 H2045 H 0.20693 0.82771 0.43950
 H2046 H 0.19002 0.84405 0.41123
 H2047 H 0.17894 0.78455 0.38559
 H2048 H 0.19551 0.76841 0.41408
 C2049 C 0.70012 0.70345 0.57080
 C2050 C 0.69850 0.68213 0.57156
 C2051 C 0.68911 0.67272 0.58774
 C2052 C 0.68121 0.68455 0.60337
 C2053 C 0.68277 0.70599 0.60237
 C2054 C 0.69216 0.71535 0.58619
 C2055 C 0.71040 0.71318 0.55456
 C2056 C 0.71924 0.72156 0.54124
 H2057 H 0.70461 0.67278 0.55972
 H2058 H 0.68795 0.65621 0.58800
 H2059 H 0.67711 0.71550 0.61430
 H2060 H 0.69343 0.73186 0.58581
 C2061 C 0.70096 0.20345 0.07070
 C2062 C 0.69305 0.21547 0.08603
 C2063 C 0.68366 0.20625 0.10228
 C2064 C 0.68206 0.18483 0.10343
 C2065 C 0.68992 0.17287 0.08787
 C2066 C 0.69931 0.18214 0.07161
 C2067 C 0.71120 0.21304 0.05435
 C2068 C 0.71997 0.22133 0.04093
 H2069 H 0.69434 0.23198 0.08552
 H2070 H 0.67803 0.21586 0.11415
 H2071 H 0.68873 0.15636 0.08824
 H2072 H 0.70538 0.17269 0.05982
 C2073 C 0.20122 0.70356 0.07140
 C2074 C 0.19953 0.68225 0.07229
 C2075 C 0.19007 0.67298 0.08851
 C2076 C 0.18217 0.68495 0.10405
 C2077 C 0.18379 0.70637 0.10290
 C2078 C 0.19325 0.71559 0.08669
 C2079 C 0.21155 0.71313 0.05511
 C2080 C 0.22040 0.72143 0.04173
 H2081 H 0.20564 0.67279 0.06053
 H2082 H 0.18887 0.65648 0.08888
 H2083 H 0.17813 0.71598 0.11476
 H2084 H 0.19456 0.73209 0.08619
 C2085 C 0.20060 0.20240 0.57089
 C2086 C 0.19889 0.18109 0.57173
 C2087 C 0.18943 0.17180 0.58794
 C2088 C 0.18157 0.18374 0.60352
 C2089 C 0.18324 0.20516 0.60243
 C2090 C 0.19269 0.21440 0.58623
 C2091 C 0.21093 0.21202 0.55461
 C2092 C 0.21979 0.22036 0.54127
 H2093 H 0.20496 0.17166 0.55993
 H2094 H 0.18819 0.15529 0.58826
 H2095 H 0.17761 0.21474 0.61432
 H2096 H 0.19404 0.23091 0.58578
   
