data_POSCAR
  _audit_creation_date              2014-09-24
  _audit_creation_method            'ToBaCCo'
  _symmetry_space_group_name_H-M    'P1'
  _symmetry_Int_Tables_number       1
  _symmetry_cell_setting            triclinic
  loop_
  _symmetry_equiv_pos_as_xyz
 x,y,z
_cell_length_a 41.9376
_cell_length_b 42.3302
_cell_length_c 42.2562
_cell_angle_alpha 89.865600
_cell_angle_beta 89.875700
_cell_angle_gamma 89.735500
loop_
  _atom_site_label
  _atom_site_type_symbol
  _atom_site_fract_x
  _atom_site_fract_y
  _atom_site_fract_z
C1 C 0.73665 0.62364 1.04354
 C2 C 0.75284 0.63806 1.01834
 C3 C 0.78265 0.65216 1.02353
 C4 C 0.79607 0.65202 1.05391
 C5 C 0.77982 0.63702 1.07881
 C6 C 0.75033 0.62246 1.07378
 C7 C 0.73964 0.63607 0.98614
 C8 C 0.70988 0.64963 0.97891
 C9 C 0.69710 0.64672 0.94840
 C10 C 0.71415 0.62973 0.92536
 C11 C 0.74343 0.61548 0.93261
 C12 C 0.75630 0.61907 0.96292
 H13 H 0.71397 0.61222 1.03928
 H14 H 0.79520 0.66303 1.00393
 H15 H 0.69682 0.66254 0.99691
 H16 H 0.77903 0.60833 0.96873
 H17 H 0.79053 0.63662 1.10209
 H18 H 0.70478 0.62722 0.90170
 C19 C 0.74310 0.39382 0.46208
 C20 C 0.75783 0.37805 0.48735
 C21 C 0.78757 0.36340 0.48280
 C22 C 0.80220 0.36386 0.45294
 C23 C 0.78723 0.37971 0.42780
 C24 C 0.75793 0.39513 0.43234
 C25 C 0.74228 0.37726 0.51867
 C26 C 0.71190 0.36402 0.52234
 C27 C 0.69727 0.36321 0.55222
 C28 C 0.71287 0.37663 0.57827
 C29 C 0.74317 0.39009 0.57477
 C30 C 0.75787 0.39002 0.54493
 H31 H 0.72020 0.40514 0.46578
 H32 H 0.79881 0.35118 0.50237
 H33 H 0.70012 0.35385 0.50203
 H34 H 0.78114 0.40048 0.54172
 H35 H 0.79844 0.38007 0.40466
 H36 H 0.70156 0.37631 0.60136
 C37 C 0.23864 -0.10675 -0.03980
 C38 C 0.25404 -0.12171 -0.01450
 C39 C 0.28427 -0.13540 -0.01910
 C40 C 0.29869 -0.13490 -0.04915
 C41 C 0.28279 -0.11994 -0.07436
 C42 C 0.25313 -0.10531 -0.06964
 C43 C 0.23876 -0.12203 0.01696
 C44 C 0.20809 -0.13459 0.02105
 C45 C 0.19346 -0.13427 0.05100
 C46 C 0.20953 -0.12045 0.07661
 C47 C 0.23998 -0.10757 0.07258
 C48 C 0.25460 -0.10875 0.04277
 H49 H 0.21548 -0.09601 -0.03598
 H50 H 0.29597 -0.14701 0.00059
 H51 H 0.19618 -0.14519 0.00103
 H52 H 0.27796 -0.09861 0.03919
 H53 H 0.29356 -0.11953 -0.09771
 H54 H 0.19848 -0.11998 0.09983
 C55 C 0.23590 0.11970 0.54154
 C56 C 0.25385 0.13343 0.51717
 C57 C 0.28381 0.14652 0.52388
 C58 C 0.29580 0.14587 0.55485
 C59 C 0.27778 0.13153 0.57890
 C60 C 0.24798 0.11834 0.57236
 C61 C 0.24198 0.13203 0.48443
 C62 C 0.21248 0.14566 0.47643
 C63 C 0.20050 0.14285 0.44561
 C64 C 0.21811 0.12591 0.42296
 C65 C 0.24722 0.11168 0.43094
 C66 C 0.25929 0.11515 0.46159
 H67 H 0.21314 0.10908 0.53611
 H68 H 0.29776 0.15712 0.50506
 H69 H 0.19889 0.15844 0.49414
 H70 H 0.28178 0.10427 0.46801
 H71 H 0.28671 0.13042 0.60285
 H72 H 0.20925 0.12342 0.39909
 C73 C 0.11499 0.53942 0.23338
 C74 C 0.12967 0.51429 0.24949
 C75 C 0.14352 0.51939 0.27927
 C76 C 0.14272 0.54953 0.29283
 C77 C 0.12731 0.57431 0.27689
 C78 C 0.11340 0.56951 0.24718
 C79 C 0.12848 0.48227 0.23606
 C80 C 0.14254 0.47562 0.20661
 C81 C 0.14056 0.44515 0.19385
 C82 C 0.12390 0.42162 0.21036
 C83 C 0.10922 0.42830 0.23938
 C84 C 0.11196 0.45856 0.25235
 H85 H 0.10384 0.53501 0.21075
 H86 H 0.15489 0.49997 0.29167
 H87 H 0.15512 0.49404 0.19397
 H88 H 0.10098 0.46396 0.27491
 H89 H 0.12625 0.59750 0.28771
 H90 H 0.12222 0.39807 0.20050
 C91 C -0.11136 -0.04116 0.25011
 C92 C -0.12715 -0.01592 0.26482
 C93 C -0.13987 -0.01993 0.29534
 C94 C -0.13724 -0.04916 0.31095
 C95 C -0.12085 -0.07410 0.29606
 C96 C -0.10754 -0.07005 0.26586
 C97 C -0.12892 0.01510 0.24884
 C98 C -0.14138 0.01799 0.21813
 C99 C -0.14202 0.04755 0.20286
 C100 C -0.12927 0.07399 0.21839
 C101 C -0.11652 0.07117 0.24889
 C102 C -0.11680 0.04176 0.26410
 H103 H -0.10127 -0.03804 0.22667
 H104 H -0.15246 -0.00045 0.30637
 H105 H -0.15085 -0.00271 0.20655
 H106 H -0.10662 0.03911 0.28745
 H107 H -0.11899 -0.09680 0.30781
 H108 H -0.12923 0.09684 0.20672
 C109 C 0.38850 0.46218 0.74148
 C110 C 0.37229 0.48723 0.75605
 C111 C 0.35803 0.48271 0.78579
 C112 C 0.35927 0.45297 0.80061
 C113 C 0.37564 0.42806 0.78568
 C114 C 0.39073 0.43269 0.75643
 C115 C 0.37084 0.51831 0.74029
 C116 C 0.35733 0.52140 0.71008
 C117 C 0.35660 0.55091 0.69491
 C118 C 0.37029 0.57718 0.70977
 C119 C 0.38429 0.57413 0.73972
 C120 C 0.38397 0.54477 0.75509
 H121 H 0.39951 0.46588 0.71858
 H122 H 0.34551 0.50222 0.79682
 H123 H 0.34708 0.50092 0.69875
 H124 H 0.39477 0.54233 0.77826
 H125 H 0.37669 0.40500 0.79687
 H126 H 0.37000 0.59989 0.69793
 C127 C 0.61743 1.04468 0.74273
 C128 C 0.63106 1.01950 0.75959
 C129 C 0.64467 1.02495 0.78946
 C130 C 0.64481 1.05553 0.80239
 C131 C 0.63052 1.08038 0.78530
 C132 C 0.61660 1.07504 0.75572
 C133 C 0.62948 0.98731 0.74644
 C134 C 0.64377 0.98032 0.71715
 C135 C 0.64107 0.94999 0.70417
 C136 C 0.62352 0.92690 0.72037
 C137 C 0.60862 0.93381 0.74924
 C138 C 0.61202 0.96396 0.76243
 H139 H 0.60655 1.04044 0.71989
 H140 H 0.65527 1.00547 0.80246
 H141 H 0.65698 0.99843 0.70469
 H142 H 0.60071 0.96958 0.78478
 H143 H 0.63028 1.10402 0.79473
 H144 H 0.62124 0.90348 0.71032
 C145 C -0.03998 0.24239 -0.11459
 C146 C -0.01444 0.25708 -0.13002
 C147 C -0.01845 0.28751 -0.14270
 C148 C -0.04801 0.30312 -0.14031
 C149 C -0.07319 0.28836 -0.12406
 C150 C -0.06918 0.25813 -0.11097
 C151 C 0.01672 0.24087 -0.13198
 C152 C 0.01922 0.21059 -0.14521
 C153 C 0.04885 0.19496 -0.14638
 C154 C 0.07581 0.20960 -0.13329
 C155 C 0.07334 0.23970 -0.11972
 C156 C 0.04387 0.25538 -0.11961
 H157 H -0.03686 0.21895 -0.10464
 H158 H 0.00132 0.29850 -0.15492
 H159 H -0.00187 0.19966 -0.15491
 H160 H 0.04189 0.27862 -0.10903
 H161 H -0.09602 0.30027 -0.12208
 H162 H 0.09867 0.19759 -0.13381
 C163 C 0.54498 0.23487 0.11654
 C164 C 0.51960 0.25221 0.12951
 C165 C 0.52522 0.28218 0.14257
 C166 C 0.55613 0.29466 0.14264
 C167 C 0.58115 0.27742 0.12884
 C168 C 0.57576 0.24756 0.11580
 C169 C 0.48701 0.23947 0.12789
 C170 C 0.47970 0.21038 0.14214
 C171 C 0.44892 0.19784 0.13973
 C172 C 0.42564 0.21443 0.12248
 C173 C 0.43294 0.24306 0.10755
 C174 C 0.46355 0.25574 0.11067
 H175 H 0.54038 0.21203 0.10606
 H176 H 0.50561 0.29553 0.15266
 H177 H 0.49786 0.19762 0.15525
 H178 H 0.46941 0.27796 0.09938
 H179 H 0.60497 0.28726 0.12832
 H180 H 0.40178 0.20515 0.12028
 C181 C 1.04525 0.73371 0.61949
 C182 C 1.02041 0.75101 0.63345
 C183 C 1.02670 0.78063 0.64695
 C184 C 1.05778 0.79285 0.64678
 C185 C 1.08248 0.77501 0.63296
 C186 C 1.07623 0.74588 0.61874
 C187 C 0.98755 0.73897 0.63186
 C188 C 0.97965 0.70973 0.64550
 C189 C 0.94852 0.69801 0.64312
 C190 C 0.92551 0.71555 0.62647
 C191 C 0.93335 0.74440 0.61225
 C192 C 0.96431 0.75623 0.61533
 H193 H 1.04013 0.71122 0.60852
 H194 H 1.00736 0.79418 0.65736
 H195 H 0.99762 0.69627 0.65816
 H196 H 0.97060 0.77857 0.60453
 H197 H 1.10664 0.78378 0.63251
 H198 H 0.90139 0.70692 0.62431
 C199 C 0.46254 0.73978 0.38325
 C200 C 0.48821 0.75596 0.36970
 C201 C 0.48360 0.78661 0.35777
 C202 C 0.45324 0.80066 0.35864
 C203 C 0.42768 0.78414 0.37227
 C204 C 0.43231 0.75387 0.38501
 C205 C 0.51996 0.74086 0.36892
 C206 C 0.52411 0.71091 0.35535
 C207 C 0.55401 0.69593 0.35603
 C208 C 0.57967 0.71088 0.37110
 C209 C 0.57565 0.74078 0.38488
 C210 C 0.54580 0.75575 0.38335
 H211 H 0.46647 0.71630 0.39265
 H212 H 0.50345 0.79900 0.34711
 H213 H 0.50404 0.69957 0.34412
 H214 H 0.54206 0.77849 0.39437
 H215 H 0.40414 0.79481 0.37289
 H216 H 0.60274 0.69928 0.37206
 C217 C 0.41170 -0.02886 0.29297
 H218 H 0.41412 -0.00522 0.30228
 C219 C 0.42622 -0.05444 0.30856
 H220 H 0.44011 -0.05035 0.32970
 C221 C 0.38871 -0.06355 0.25554
 H222 H 0.37327 -0.06752 0.23562
 C223 C 0.40270 -0.08952 0.27027
 H224 H 0.39812 -0.11300 0.26128
 N225 N 0.39289 -0.03393 0.26725
 C226 C 0.37096 0.04855 0.20940
 H227 H 0.34608 0.04272 0.20632
 C228 C 0.38343 0.07475 0.19402
 H229 H 0.36816 0.08884 0.17885
 C230 C 0.42068 0.03801 0.23401
 H231 H 0.43482 0.02377 0.25002
 C232 C 0.43419 0.06443 0.21905
 H233 H 0.45883 0.07045 0.22347
 Zn234 Zn 0.36662 -0.00131 0.25042
 N235 N 0.38941 0.03094 0.22919
 C236 C 0.34269 0.04931 0.28653
 N237 N 0.34318 0.01728 0.28394
 C238 C 0.32830 -0.00137 0.30565
 C239 C 0.31207 0.01224 0.33122
 C240 C 0.32649 0.06380 0.31139
 C241 C 0.35272 -0.02666 0.19195
 C242 C 0.33498 -0.04098 0.16828
 C243 C 0.28897 -0.03985 0.20283
 C244 C 0.30764 -0.02526 0.22596
 N245 N 0.33901 -0.01936 0.22020
 H246 H 0.35498 0.06383 0.26946
 H247 H 0.32934 -0.02679 0.30324
 H248 H 0.30039 -0.00282 0.34838
 H249 H 0.32618 0.08934 0.31308
 H250 H 0.37770 -0.02166 0.18805
 H251 H 0.34627 -0.04688 0.14597
 H252 H 0.26414 -0.04479 0.20766
 H253 H 0.29722 -0.01907 0.24852
 C254 C 0.41518 0.08320 0.19911
 C255 C 0.42107 -0.08520 0.29745
 C256 C 0.30287 -0.04797 0.17375
 C257 C 0.31119 0.04522 0.33416
 C258 C 0.09779 1.02853 0.79950
 H259 H 0.10925 1.01063 0.81380
 C260 C 0.08402 1.05477 0.81419
 H261 H 0.08515 1.05703 0.83969
 C262 C 0.08387 1.04857 0.74898
 H263 H 0.08468 1.04663 0.72354
 C264 C 0.06971 1.07515 0.76272
 H265 H 0.05969 1.09327 0.74760
 N266 N 0.09892 1.02669 0.76735
 C267 C 0.12669 0.94843 0.70650
 H268 H 0.15091 0.95612 0.70239
 C269 C 0.11572 0.92109 0.69210
 H270 H 0.13149 0.90786 0.67666
 C271 C 0.07721 0.95552 0.73295
 H272 H 0.06271 0.96880 0.74946
 C273 C 0.06521 0.92802 0.71894
 H274 H 0.04132 0.92022 0.72456
 Zn275 Zn 0.12812 0.99818 0.74798
 N276 N 0.10766 0.96475 0.72682
 C277 C 0.15701 0.94863 0.78269
 N278 N 0.15536 0.98060 0.77943
 C279 C 0.17159 1.00001 0.79931
 C280 C 0.18987 0.98740 0.82392
 C281 C 0.17521 0.93508 0.80675
 C282 C 0.13770 1.02688 0.68923
 C283 C 0.15370 1.04346 0.66554
 C284 C 0.19956 1.04677 0.69981
 C285 C 0.18274 1.02993 0.72284
 N286 N 0.15219 1.02072 0.71737
 H287 H 0.14370 0.93347 0.76710
 H288 H 0.16957 1.02536 0.79661
 H289 H 0.20206 1.00319 0.83988
 H290 H 0.17594 0.90963 0.80939
 H291 H 0.11374 1.01859 0.68503
 H292 H 0.14192 1.04818 0.64323
 H293 H 0.22378 1.05400 0.70458
 H294 H 0.19421 1.02431 0.74497
 C295 C 0.08492 0.91035 0.69869
 C296 C 0.07103 1.07903 0.79562
 C297 C 0.18488 1.05374 0.67087
 C298 C 0.19146 0.95457 0.82792
 C299 C 0.60616 0.52843 0.29993
 H300 H 0.61784 0.51050 0.31402
 C301 C 0.59277 0.55476 0.31487
 H302 H 0.59428 0.55695 0.34035
 C303 C 0.59147 0.54855 0.24966
 H304 H 0.59186 0.54664 0.22421
 C305 C 0.57774 0.57523 0.26366
 H306 H 0.56748 0.59335 0.24870
 N307 N 0.60664 0.52653 0.26776
 C308 C 0.63514 0.44793 0.20720
 H309 H 0.65961 0.45536 0.20419
 C310 C 0.62442 0.42101 0.19184
 H311 H 0.64085 0.40823 0.17682
 C312 C 0.58455 0.45577 0.23113
 H313 H 0.56937 0.46932 0.24681
 C314 C 0.57276 0.42870 0.21610
 H315 H 0.54838 0.42141 0.22017
 Zn316 Zn 0.63572 0.49818 0.24781
 N317 N 0.61546 0.46441 0.22676
 C318 C 0.66493 0.44900 0.28280
 N319 N 0.66374 0.48093 0.27893
 C320 C 0.68028 0.50044 0.29848
 C321 C 0.69814 0.48798 0.32353
 C322 C 0.68276 0.43562 0.30723
 C323 C 0.64294 0.52576 0.18853
 C324 C 0.65735 0.54257 0.16402
 C325 C 0.70372 0.54933 0.19707
 C326 C 0.68847 0.53216 0.22097
 N327 N 0.65842 0.52106 0.21643
 H328 H 0.65131 0.43374 0.26759
 H329 H 0.67853 0.52576 0.29543
 H330 H 0.71042 0.50385 0.33935
 H331 H 0.68297 0.41021 0.31037
 H332 H 0.61929 0.51626 0.18523
 H333 H 0.64452 0.54608 0.14212
 H334 H 0.72754 0.55829 0.20092
 H335 H 0.70065 0.52788 0.24303
 C336 C 0.59308 0.41075 0.19664
 C337 C 0.57960 0.57911 0.29653
 C338 C 0.68803 0.55465 0.16827
 C339 C 0.69906 0.45521 0.32825
 C340 C 0.89472 0.46780 0.80609
 H341 H 0.88339 0.48554 0.82064
 C342 C 0.90915 0.44168 0.82051
 H343 H 0.90860 0.43936 0.84604
 C344 C 0.90823 0.44826 0.75531
 H345 H 0.90725 0.45046 0.72990
 C346 C 0.92295 0.42179 0.76877
 H347 H 0.93319 0.40400 0.75344
 N348 N 0.89327 0.46993 0.77397
 C349 C 0.86851 0.54887 0.71232
 H350 H 0.84369 0.54283 0.70920
 C351 C 0.88105 0.57491 0.69661
 H352 H 0.86586 0.58881 0.68119
 C353 C 0.91816 0.53879 0.73727
 H354 H 0.93221 0.52482 0.75360
 C355 C 0.93172 0.56496 0.72198
 H356 H 0.95633 0.57104 0.72647
 Zn357 Zn 0.86499 0.49964 0.75484
 N358 N 0.88692 0.53166 0.73249
 C359 C 0.84009 0.55123 0.78928
 N360 N 0.83941 0.51919 0.78660
 C361 C 0.82215 0.50125 0.80716
 C362 C 0.80524 0.51547 0.83193
 C363 C 0.82320 0.56636 0.81334
 C364 C 0.85347 0.47149 0.69670
 C365 C 0.83663 0.45623 0.67290
 C366 C 0.79054 0.45481 0.70720
 C367 C 0.80828 0.47032 0.73046
 N368 N 0.83930 0.47807 0.72493
 H369 H 0.85417 0.56522 0.77315
 H370 H 0.82225 0.47581 0.80486
 H371 H 0.79204 0.50087 0.84835
 H372 H 0.82412 0.59185 0.81529
 H373 H 0.87781 0.47864 0.69244
 H374 H 0.84821 0.45133 0.65049
 H375 H 0.76592 0.44878 0.71183
 H376 H 0.79716 0.47621 0.75274
 C377 C 0.91279 0.58348 0.70175
 C378 C 0.92236 0.41777 0.80169
 C379 C 0.80487 0.44766 0.67808
 C380 C 0.80596 0.54839 0.83523
 C381 C 0.30325 0.39298 -0.03678
 H382 H 0.31780 0.38124 -0.01924
 C383 C 0.31794 0.40807 -0.06233
 H384 H 0.34368 0.40762 -0.06443
 C385 C 0.25220 0.40678 -0.05644
 H386 H 0.22658 0.40564 -0.05456
 C387 C 0.26593 0.42214 -0.08237
 H388 H 0.25061 0.43270 -0.10007
 N389 N 0.27087 0.39137 -0.03503
 C390 C 0.20894 0.36317 0.04280
 H391 H 0.20642 0.33875 0.03576
 C392 C 0.19276 0.37422 0.06932
 H393 H 0.17762 0.35811 0.08223
 C394 C 0.23276 0.41323 0.03461
 H395 H 0.24882 0.42804 0.02116
 C396 C 0.21696 0.42532 0.06128
 H397 H 0.22074 0.44959 0.06833
 Zn398 Zn 0.25166 0.36219 -0.00652
 N399 N 0.22880 0.38246 0.02631
 C400 C 0.28667 0.33658 0.04438
 N401 N 0.28381 0.33636 0.01228
 C402 C 0.30468 0.31975 -0.00607
 C403 C 0.33002 0.30317 0.00778
 C404 C 0.31127 0.31999 0.05913
 C405 C 0.19322 0.35215 -0.03498
 C406 C 0.16892 0.33628 -0.05060
 C407 C 0.20319 0.29045 -0.05424
 C408 C 0.22695 0.30722 -0.03831
 N409 N 0.22162 0.33764 -0.02921
 H410 H 0.27036 0.35018 0.05872
 H411 H 0.30228 0.32025 -0.03155
 H412 H 0.34676 0.29057 -0.00712
 H413 H 0.31338 0.32064 0.08467
 H414 H 0.18916 0.37602 -0.02683
 H415 H 0.14661 0.34846 -0.05474
 H416 H 0.20754 0.26625 -0.06139
 H417 H 0.24943 0.29584 -0.03312
 C418 C 0.19710 0.40548 0.07917
 C419 C 0.29913 0.42173 -0.08608
 C420 C 0.17374 0.30503 -0.06034
 C421 C 0.33355 0.30353 0.04076
 C422 C 0.80914 0.10155 1.03602
 H423 H 0.82371 0.11489 1.01974
 C424 C 0.82326 0.08784 1.06266
 H425 H 0.84854 0.09087 1.06676
 C426 C 0.75845 0.08258 1.05165
 H427 H 0.73310 0.08109 1.04771
 C428 C 0.77161 0.06853 1.07863
 H429 H 0.75614 0.05639 1.09511
 N430 N 0.77701 0.09997 1.03176
 C431 C 0.71570 0.12564 0.95253
 H432 H 0.71319 0.15021 0.95911
 C433 C 0.69973 0.11430 0.92617
 H434 H 0.68476 0.13020 0.91256
 C435 C 0.73926 0.07540 0.96172
 H436 H 0.75512 0.06063 0.97553
 C437 C 0.72370 0.06303 0.93510
 H438 H 0.72752 0.03863 0.92844
 Zn439 Zn 0.75720 0.12775 1.00209
 N440 N 0.73527 0.10638 0.96950
 C441 C 0.79331 0.15164 0.95103
 N442 N 0.78860 0.15409 0.98283
 C443 C 0.80652 0.17409 1.00059
 C444 C 0.82944 0.19332 0.98625
 C445 C 0.81622 0.17007 0.93588
 C446 C 0.69847 0.13725 1.03162
 C447 C 0.67405 0.15326 1.04735
 C448 C 0.70628 0.20035 1.04664
 C449 C 0.73006 0.18349 1.03064
 N450 N 0.72603 0.15231 1.02391
 H451 H 0.77963 0.13507 0.93729
 H452 H 0.80325 0.17489 1.02597
 H453 H 0.84354 0.20901 1.00069
 H454 H 0.81988 0.16764 0.91062
 H455 H 0.69513 0.11287 1.02494
 H456 H 0.65219 0.14100 1.05320
 H457 H 0.70988 0.22508 1.05185
 H458 H 0.75147 0.19555 1.02352
 C459 C 0.70401 0.08287 0.91690
 C460 C 0.80417 0.07228 1.08495
 C461 C 0.67798 0.18507 1.05522
 C462 C 0.83428 0.19142 0.95349
 C463 C 0.30427 0.60500 0.52796
 H464 H 0.31862 0.61932 0.51236
 C465 C 0.31840 0.59133 0.55452
 H466 H 0.34359 0.59485 0.55884
 C467 C 0.25366 0.58535 0.54323
 H468 H 0.22821 0.58430 0.53930
 C469 C 0.26685 0.57150 0.57034
 H470 H 0.25146 0.55943 0.58695
 N471 N 0.27228 0.60253 0.52325
 C472 C 0.21936 0.62982 0.43904
 H473 H 0.22188 0.65493 0.44295
 C474 C 0.20399 0.61912 0.41211
 H475 H 0.19505 0.63634 0.39540
 C476 C 0.22923 0.57730 0.45618
 H477 H 0.23945 0.56129 0.47341
 C478 C 0.21399 0.56545 0.42915
 H479 H 0.21239 0.54019 0.42556
 Zn480 Zn 0.25215 0.62989 0.49395
 N481 N 0.23142 0.60907 0.46049
 C482 C 0.30260 0.64022 0.45381
 N483 N 0.28302 0.65580 0.47422
 C484 C 0.28539 0.68756 0.47854
 C485 C 0.30906 0.70464 0.46268
 C486 C 0.32624 0.65635 0.43734
 C487 C 0.19010 0.64827 0.51100
 C488 C 0.16665 0.66369 0.52857
 C489 C 0.20801 0.68973 0.55829
 C490 C 0.23080 0.67338 0.54041
 N491 N 0.22151 0.65360 0.51686
 H492 H 0.29990 0.61503 0.45056
 H493 H 0.26912 0.69968 0.49422
 H494 H 0.31128 0.72980 0.46664
 H495 H 0.34190 0.64327 0.42175
 H496 H 0.18306 0.63147 0.49318
 H497 H 0.14174 0.65910 0.52376
 H498 H 0.21567 0.70553 0.57684
 H499 H 0.25589 0.67627 0.54546
 C500 C 0.20106 0.58661 0.40690
 C501 C 0.29941 0.57545 0.57663
 C502 C 0.17554 0.68488 0.55226
 C503 C 0.32975 0.68891 0.44184
 C504 C 0.79203 0.90910 0.47757
 H505 H 0.80095 0.91097 0.50149
 C506 C 0.80829 0.92395 0.45260
 H507 H 0.82951 0.93754 0.45746
 C508 C 0.75516 0.88702 0.44152
 H509 H 0.73524 0.87178 0.43677
 C510 C 0.77059 0.90131 0.41612
 H511 H 0.76213 0.89713 0.39230
 N512 N 0.76630 0.89054 0.47153
 C513 C 0.70730 0.86605 0.55316
 H514 H 0.70426 0.84161 0.54649
 C515 C 0.69171 0.87761 0.57983
 H516 H 0.67650 0.86184 0.59308
 C517 C 0.73194 0.91556 0.54424
 H518 H 0.74805 0.93001 0.53048
 C519 C 0.71675 0.92814 0.57107
 H520 H 0.72109 0.95239 0.57788
 Zn521 Zn 0.74919 0.86339 0.50320
 N522 N 0.72723 0.88483 0.53615
 C523 C 0.78570 0.83838 0.55331
 N524 N 0.78319 0.84002 0.52125
 C525 C 0.80543 0.82639 0.50209
 C526 C 0.83149 0.81030 0.51516
 C527 C 0.81108 0.82230 0.56728
 C528 C 0.69091 0.84946 0.47622
 C529 C 0.66796 0.83209 0.46024
 C530 C 0.70373 0.78716 0.46043
 C531 C 0.72612 0.80544 0.47664
 N532 N 0.71946 0.83613 0.48375
 H533 H 0.76816 0.84968 0.56824
 H534 H 0.80308 0.82834 0.47667
 H535 H 0.84906 0.79964 0.49969
 H536 H 0.81274 0.82110 0.59284
 H537 H 0.68627 0.87390 0.48216
 H538 H 0.64547 0.84313 0.45404
 H539 H 0.70934 0.76292 0.45444
 H540 H 0.74892 0.79530 0.48298
 C541 C 0.69671 0.90885 0.58940
 C542 C 0.79786 0.91937 0.42143
 C543 C 0.67444 0.80074 0.45189
 C544 C 0.83440 0.80827 0.54816
 C545 C -0.03269 0.30377 0.39450
 H546 H -0.01460 0.31768 0.38285
 C547 C -0.05841 0.31901 0.40906
 H548 H -0.06009 0.34454 0.40830
 C549 C -0.05352 0.25376 0.40864
 H550 H -0.05201 0.22834 0.40785
 C551 C -0.07962 0.26806 0.42351
 H552 H -0.09783 0.25337 0.43403
 N553 N -0.03143 0.27164 0.39331
 C554 C 0.04728 0.20913 0.36788
 H555 H 0.04043 0.20540 0.34351
 C556 C 0.07404 0.19383 0.37996
 H557 H 0.08769 0.17809 0.36489
 C558 C 0.03855 0.23527 0.41676
 H559 H 0.02483 0.25192 0.43066
 C560 C 0.06541 0.22038 0.42985
 H561 H 0.07227 0.22550 0.45396
 Zn562 Zn -0.00250 0.25168 0.36483
 N563 N 0.03042 0.22971 0.38611
 C564 C 0.04871 0.28519 0.33748
 N565 N 0.01636 0.28266 0.33816
 C566 C -0.00245 0.30288 0.32132
 C567 C 0.01119 0.32713 0.30341
 C568 C 0.06327 0.30879 0.31962
 C569 C -0.03199 0.19383 0.35533
 C570 C -0.04811 0.17004 0.33937
 C571 C -0.04972 0.20332 0.29290
 C572 C -0.03341 0.22659 0.30978
 N573 N -0.02517 0.22158 0.34056
 H574 H 0.06338 0.26932 0.35125
 H575 H -0.02811 0.30071 0.32253
 H576 H -0.00411 0.34334 0.29062
 H577 H 0.08902 0.31074 0.31955
 H578 H -0.02436 0.18994 0.37945
 H579 H -0.05320 0.14799 0.35139
 H580 H -0.05609 0.20753 0.26845
 H581 H -0.02726 0.24845 0.29815
 C582 C 0.08363 0.19977 0.41106
 C583 C -0.08280 0.30101 0.42266
 C584 C -0.05717 0.17472 0.30787
 C585 C 0.04442 0.33031 0.30276
 C586 C 1.02550 0.79637 0.09219
 H587 H 1.00133 0.80520 0.09021
 C588 C 1.05063 0.81268 0.07759
 H589 H 1.04570 0.83391 0.06413
 C590 C 1.06190 0.75937 0.11409
 H591 H 1.06670 0.73941 0.12925
 C592 C 1.08747 0.77482 0.10002
 H593 H 1.11149 0.76628 0.10418
 N594 N 1.03163 0.77052 0.11048
 C595 C 0.94688 0.71643 0.13432
 H596 H 0.95288 0.71453 0.15914
 C597 C 0.91957 0.70193 0.12310
 H598 H 0.90510 0.68880 0.13964
 C599 C 0.95879 0.73669 0.08333
 H600 H 0.97414 0.75053 0.06814
 C601 C 0.93125 0.72251 0.07101
 H602 H 0.92540 0.72540 0.04622
 Zn603 Zn 0.99964 0.75266 0.13677
 N604 N 0.96567 0.73366 0.11466
 C605 C 0.95093 0.79251 0.15921
 N606 N 0.98237 0.78516 0.16263
 C607 C 1.00119 0.80149 0.18302
 C608 C 0.98808 0.82535 0.20197
 C609 C 0.93706 0.81636 0.17729
 C610 C 1.02588 0.69322 0.14474
 C611 C 1.04098 0.66797 0.15975
 C612 C 1.03970 0.69747 0.20863
 C613 C 1.02426 0.72215 0.19272
 N614 N 1.01832 0.71984 0.16116
 H615 H 0.93648 0.78019 0.14217
 H616 H 1.02634 0.79596 0.18458
 H617 H 1.00321 0.83803 0.21825
 H618 H 0.91202 0.82198 0.17424
 H619 H 1.02060 0.69191 0.11973
 H620 H 1.04726 0.64708 0.14632
 H621 H 1.04475 0.69976 0.23360
 H622 H 1.01744 0.74313 0.20554
 C623 C 0.91118 0.70517 0.09120
 C624 C 1.08206 0.80213 0.08216
 C625 C 1.04850 0.67021 0.19189
 C626 C 0.95558 0.83277 0.19919
 C627 C 0.53012 0.30451 0.60551
 H628 H 0.51191 0.31831 0.61725
 C629 C 0.55624 0.31984 0.59194
 H630 H 0.55806 0.34530 0.59350
 C631 C 0.55099 0.25467 0.59045
 H632 H 0.54939 0.22924 0.59066
 C633 C 0.57746 0.26906 0.57649
 H634 H 0.59583 0.25443 0.56600
 N635 N 0.52867 0.27239 0.60579
 C636 C 0.44919 0.21109 0.63038
 H637 H 0.45585 0.20743 0.65483
 C638 C 0.42247 0.19607 0.61831
 H639 H 0.40863 0.18068 0.63350
 C640 C 0.45853 0.23659 0.58119
 H641 H 0.47254 0.25282 0.56714
 C642 C 0.43167 0.22196 0.56809
 H643 H 0.42503 0.22689 0.54383
 Zn644 Zn 0.49952 0.25202 0.63365
 N645 N 0.46633 0.23123 0.61201
 C646 C 0.44870 0.28630 0.66146
 N647 N 0.48098 0.28267 0.66118
 C648 C 0.50002 0.30193 0.67860
 C649 C 0.48674 0.32633 0.69663
 C650 C 0.43448 0.31016 0.67936
 C651 C 0.52789 0.19291 0.64153
 C652 C 0.54371 0.16820 0.65682
 C653 C 0.54704 0.20060 0.70364
 C654 C 0.53089 0.22468 0.68752
 N655 N 0.52194 0.22056 0.65688
 H656 H 0.43384 0.27130 0.64716
 H657 H 0.52565 0.29904 0.67759
 H658 H 0.50227 0.34187 0.70972
 H659 H 0.40882 0.31312 0.67891
 H660 H 0.51990 0.18987 0.61743
 H661 H 0.54814 0.14644 0.64417
 H662 H 0.55420 0.20411 0.72799
 H663 H 0.52553 0.24648 0.69961
 C664 C 0.41320 0.20179 0.58703
 C665 C 0.58081 0.30193 0.57833
 C666 C 0.55347 0.17199 0.68823
 C667 C 0.45360 0.33077 0.69674
 C668 C 0.46693 0.79578 0.90854
 H669 H 0.49098 0.80462 0.91075
 C670 C 0.44155 0.81188 0.92312
 H671 H 0.44621 0.83292 0.93681
 C672 C 0.43103 0.75906 0.88611
 H673 H 0.42654 0.73918 0.87089
 C674 C 0.40521 0.77436 0.90011
 H675 H 0.38129 0.76587 0.89574
 N676 N 0.46119 0.77010 0.89007
 C677 C 0.54390 0.71069 0.87027
 H678 H 0.53754 0.70619 0.84592
 C679 C 0.57061 0.69602 0.88308
 H680 H 0.58455 0.67998 0.86861
 C681 C 0.53434 0.73824 0.91820
 H682 H 0.52032 0.75512 0.93150
 C683 C 0.56126 0.72403 0.93201
 H684 H 0.56787 0.72993 0.95601
 Zn685 Zn 0.49377 0.75207 0.86433
 N686 N 0.52654 0.73163 0.88765
 C687 C 0.54491 0.78670 0.83868
 N688 N 0.51254 0.78466 0.83973
 C689 C 0.49379 0.80669 0.82529
 C690 C 0.50761 0.83228 0.80937
 C691 C 0.55961 0.81155 0.82275
 C692 C 0.46762 0.69336 0.85345
 C693 C 0.45303 0.66888 0.83711
 C694 C 0.45380 0.70113 0.78987
 C695 C 0.46872 0.72507 0.80713
 N696 N 0.47505 0.72080 0.83842
 H697 H 0.55954 0.76935 0.85055
 H698 H 0.46811 0.80475 0.82675
 H699 H 0.49246 0.84985 0.79834
 H700 H 0.58539 0.81292 0.82226
 H701 H 0.47278 0.69069 0.87839
 H702 H 0.44706 0.64748 0.84976
 H703 H 0.44847 0.70473 0.76505
 H704 H 0.47484 0.74711 0.79570
 C705 C 0.57984 0.70299 0.91405
 C706 C 0.41024 0.80138 0.91832
 C707 C 0.44589 0.67266 0.80496
 C708 C 0.54093 0.83488 0.80828
 C709 C 0.45044 -0.14142 0.29941
 C710 C 0.47162 -0.14455 0.32924
 C711 C 0.44722 -0.16772 0.34350
 C712 C 0.42622 -0.16482 0.31386
 C713 C 0.42916 -0.14024 0.35935
 C714 C 0.45334 -0.11663 0.34485
 C715 C 0.43228 -0.11396 0.31516
 C716 C 0.40806 -0.13718 0.32953
 H717 H 0.45918 -0.14170 0.27460
 H718 H 0.49794 -0.14735 0.32907
 H719 H 0.41505 -0.18485 0.30117
 H720 H 0.42042 -0.14002 0.38416
 H721 H 0.46459 -0.09671 0.35762
 H722 H 0.38177 -0.13395 0.32958
 C723 C 0.94586 0.35773 0.79964
 C724 C 0.97073 0.35348 0.82640
 C725 C 0.94667 0.33295 0.84477
 C726 C 0.92198 0.33692 0.81818
 C727 C 0.93343 0.36229 0.86186
 C728 C 0.95729 0.38323 0.84329
 C729 C 0.93257 0.38710 0.81670
 C730 C 0.90866 0.36651 0.83511
 H731 H 0.95122 0.35533 0.77403
 H732 H 0.99649 0.34871 0.82256
 H733 H 0.90739 0.31770 0.80791
 H734 H 0.92834 0.36399 0.88760
 H735 H 0.97179 0.40257 0.85348
 H736 H 0.88298 0.37204 0.83857
 C737 C 0.04011 1.11497 0.83909
 C738 C 0.06590 1.13546 0.85526
 C739 C 0.05219 1.16493 0.83870
 C740 C 0.02621 1.14486 0.82274
 C741 C 0.07461 1.15996 0.81029
 C742 C 0.08839 1.13024 0.82669
 C743 C 0.06257 1.11009 0.81069
 C744 C 0.04881 1.13959 0.79414
 H745 H 0.02592 1.09618 0.85079
 H746 H 0.07294 1.13396 0.88053
 H747 H 0.00039 1.15032 0.82084
 H748 H 0.08888 1.17864 0.79850
 H749 H 0.11409 1.12403 0.82819
 H750 H 0.04152 1.14174 0.76901
 C751 C 0.54729 0.61439 0.33944
 C752 C 0.57226 0.63483 0.35689
 C753 C 0.55900 0.66446 0.34024
 C754 C 0.53388 0.64440 0.32298
 C755 C 0.58257 0.65999 0.31267
 C756 C 0.59591 0.63011 0.32915
 C757 C 0.57087 0.61003 0.31186
 C758 C 0.55759 0.63969 0.29523
 H759 H 0.53277 0.59538 0.35033
 H760 H 0.57830 0.63307 0.38239
 H761 H 0.50812 0.64980 0.32020
 H762 H 0.59715 0.67896 0.30176
 H763 H 0.62157 0.62403 0.33156
 H764 H 0.55128 0.64226 0.26987
 C765 C 0.55604 0.37705 0.15662
 C766 C 0.57785 0.35360 0.13844
 C767 C 0.56334 0.32610 0.15734
 C768 C 0.54129 0.34911 0.17535
 C769 C 0.58910 0.32941 0.18293
 C770 C 0.60380 0.35702 0.16406
 C771 C 0.58198 0.38025 0.18212
 C772 C 0.56733 0.35278 0.20107
 H773 H 0.54255 0.39695 0.14585
 H774 H 0.58207 0.35375 0.11250
 H775 H 0.51547 0.34588 0.18006
 H776 H 0.60265 0.30958 0.19377
 H777 H 0.62965 0.35907 0.15890
 H778 H 0.56313 0.35263 0.22702
 C779 C 0.09345 0.84881 0.69321
 C780 C 0.06158 0.83063 0.69560
 C781 C 0.06394 0.82320 0.66004
 C782 C 0.09573 0.84119 0.65756
 C783 C 0.04515 0.85352 0.65199
 C784 C 0.04300 0.86145 0.68779
 C785 C 0.07487 0.87920 0.68519
 C786 C 0.07702 0.87173 0.64966
 H787 H 0.11338 0.84704 0.71038
 H788 H 0.05530 0.81344 0.71445
 H789 H 0.11807 0.83412 0.64533
 H790 H 0.02523 0.85525 0.63479
 H791 H 0.02125 0.86988 0.70021
 H792 H 0.08331 0.88891 0.63079
 C793 C 0.92331 0.61922 0.65069
 C794 C 0.90690 0.65135 0.65705
 C795 C 0.93991 0.66710 0.65857
 C796 C 0.95644 0.63519 0.65209
 C797 C 0.94166 0.66111 0.69447
 C798 C 0.90856 0.64520 0.69304
 C799 C 0.92489 0.61324 0.68656
 C800 C 0.95798 0.62877 0.68823
 H801 H 0.91578 0.60170 0.63271
 H802 H 0.88523 0.65971 0.64452
 H803 H 0.97621 0.63133 0.63500
 H804 H 0.94918 0.67866 0.71241
 H805 H 0.88880 0.64920 0.71011
 H806 H 0.97908 0.61944 0.70107
 C807 C 0.42514 0.11882 0.14810
 C808 C 0.40828 0.15070 0.15443
 C809 C 0.44103 0.16697 0.15561
 C810 C 0.45803 0.13529 0.14918
 C811 C 0.44317 0.16122 0.19153
 C812 C 0.41032 0.14480 0.19042
 C813 C 0.42708 0.11304 0.18399
 C814 C 0.45993 0.12907 0.18535
 H815 H 0.41777 0.10110 0.13026
 H816 H 0.38633 0.15862 0.14208
 H817 H 0.47771 0.13165 0.13195
 H818 H 0.45054 0.17899 0.20931
 H819 H 0.39063 0.14859 0.20763
 H820 H 0.48123 0.12006 0.19810
 C821 C 0.29771 0.44630 -0.14576
 C822 C 0.32481 0.47087 -0.14916
 C823 C 0.34350 0.44731 -0.16998
 C824 C 0.31659 0.42294 -0.16688
 C825 C 0.36030 0.43356 -0.14064
 C826 C 0.34140 0.45690 -0.11942
 C827 C 0.31450 0.43249 -0.11641
 C828 C 0.33323 0.40909 -0.13732
 H829 H 0.27195 0.45179 -0.14833
 H830 H 0.32109 0.49648 -0.15353
 H831 H 0.30645 0.40892 -0.18659
 H832 H 0.38618 0.42833 -0.13871
 H833 H 0.35146 0.47083 -0.09962
 H834 H 0.33658 0.38354 -0.13227
 C835 C 0.83260 0.90664 0.37085
 C836 C 0.81764 0.92403 0.34233
 C837 C 0.84717 0.94535 0.34051
 C838 C 0.86233 0.92806 0.36887
 C839 C 0.83133 0.96954 0.36287
 C840 C 0.80160 0.94803 0.36494
 C841 C 0.81664 0.93062 0.39326
 C842 C 0.84620 0.95199 0.39166
 H843 H 0.83304 0.88064 0.37432
 H844 H 0.80591 0.91249 0.32189
 H845 H 0.88746 0.91984 0.37033
 H846 H 0.83073 0.99560 0.35998
 H847 H 0.77647 0.95624 0.36351
 H848 H 0.85794 0.96359 0.41204
 C849 C 0.80048 0.04808 1.14475
 C850 C 0.82960 0.02612 1.15052
 C851 C 0.84410 0.05144 1.17228
 C852 C 0.81516 0.07322 1.16684
 C853 C 0.86171 0.06643 1.14403
 C854 C 0.84701 0.04131 1.12185
 C855 C 0.81808 0.06313 1.11650
 C856 C 0.83262 0.08828 1.13836
 H857 H 0.77526 0.04031 1.14550
 H858 H 0.82818 0.00034 1.15503
 H859 H 0.80210 0.08642 1.18552
 H860 H 0.88702 0.07399 1.14389
 H861 H 0.86000 0.02820 1.10306
 H862 H 0.83377 0.11398 1.13320
 C863 C 0.29661 0.55162 0.63677
 C864 C 0.32581 0.52962 0.64196
 C865 C 0.34096 0.55500 0.66318
 C866 C 0.31196 0.57683 0.65834
 C867 C 0.35787 0.56975 0.63443
 C868 C 0.34257 0.54455 0.61281
 C869 C 0.31359 0.56642 0.60803
 C870 C 0.32875 0.59166 0.62938
 H871 H 0.27136 0.54399 0.63805
 H872 H 0.32453 0.50390 0.64687
 H873 H 0.29949 0.59016 0.67732
 H874 H 0.38320 0.57722 0.63368
 H875 H 0.35503 0.53127 0.59379
 H876 H 0.32984 0.61733 0.62404
 C877 C 0.20335 0.56025 0.34919
 C878 C 0.17729 0.53454 0.34643
 C879 C 0.15843 0.55635 0.32392
 C880 C 0.18432 0.58180 0.32633
 C881 C 0.14031 0.57088 0.35202
 C882 C 0.15937 0.54938 0.37499
 C883 C 0.18520 0.57500 0.37722
 C884 C 0.16621 0.59653 0.35450
 H885 H 0.22947 0.55601 0.34823
 H886 H 0.18184 0.50892 0.34307
 H887 H 0.19459 0.59510 0.30609
 H888 H 0.11418 0.57515 0.35299
 H889 H 0.14917 0.53616 0.39531
 H890 H 0.16066 0.62206 0.35687
 C891 C 0.65246 0.07580 0.88099
 C892 C 0.65959 0.09328 0.84966
 C893 C 0.65975 0.06132 0.83221
 C894 C 0.65248 0.04374 0.86335
 C895 C 0.69582 0.05753 0.83792
 C896 C 0.69572 0.08956 0.85549
 C897 C 0.68850 0.07227 0.88674
 C898 C 0.68883 0.04020 0.86957
 H899 H 0.63463 0.08326 0.89897
 H900 H 0.64798 0.11591 0.84296
 H901 H 0.63444 0.02485 0.86639
 H902 H 0.71364 0.05008 0.81993
 H903 H 0.71374 0.10845 0.85233
 H904 H 0.70091 0.01834 0.87790
 C905 C 0.65850 0.94900 0.62222
 C906 C 0.63736 0.92916 0.64483
 C907 C 0.65654 0.94145 0.67319
 C908 C 0.67751 0.96154 0.65100
 C909 C 0.67995 0.91353 0.67045
 C910 C 0.66080 0.90106 0.64197
 C911 C 0.68182 0.92094 0.61958
 C912 C 0.70106 0.93336 0.64791
 H913 H 0.64970 0.96349 0.60210
 H914 H 0.61097 0.92755 0.64373
 H915 H 0.68449 0.98652 0.65467
 H916 H 0.68880 0.89898 0.69052
 H917 H 0.65320 0.87614 0.63936
 H918 H 0.72745 0.93495 0.64899
 C919 C 0.16139 0.39659 0.13171
 C920 C 0.18022 0.40962 0.16014
 C921 C 0.15606 0.43689 0.16287
 C922 C 0.13718 0.42406 0.13457
 C923 C 0.17643 0.45753 0.14064
 C924 C 0.20074 0.43000 0.13757
 C925 C 0.18181 0.41703 0.10930
 C926 C 0.15773 0.44445 0.11192
 H927 H 0.15455 0.37146 0.12907
 H928 H 0.18949 0.39535 0.18023
 H929 H 0.11085 0.42173 0.13353
 H930 H 0.18273 0.48269 0.14426
 H931 H 0.22707 0.43230 0.13861
 H932 H 0.14852 0.45866 0.09178
 C933 C -0.11594 0.34404 0.45703
 C934 C -0.13691 0.36274 0.43329
 C935 C -0.16679 0.34687 0.44714
 C936 C -0.14621 0.32836 0.47107
 C937 C -0.16395 0.31977 0.42311
 C938 C -0.13384 0.33550 0.40917
 C939 C -0.11320 0.31695 0.43297
 C940 C -0.14310 0.30106 0.44687
 H941 H -0.09591 0.35388 0.47096
 H942 H -0.13461 0.38827 0.42772
 H943 H -0.15099 0.32527 0.49672
 H944 H -0.18393 0.30991 0.40912
 H945 H -0.12858 0.33831 0.38356
 H946 H -0.14612 0.27569 0.45271
 C947 C 0.37998 0.84906 0.95111
 C948 C 0.35655 0.86469 0.92736
 C949 C 0.32836 0.84951 0.94506
 C950 C 0.35137 0.83415 0.96907
 C951 C 0.33027 0.82016 0.92376
 C952 C 0.35862 0.83516 0.90595
 C953 C 0.38168 0.81969 0.92975
 C954 C 0.35354 0.80461 0.94757
 H955 H 0.40049 0.86097 0.96245
 H956 H 0.35761 0.88956 0.91903
 H957 H 0.34879 0.83360 0.99520
 H958 H 0.30966 0.80830 0.91250
 H959 H 0.36180 0.83550 0.87987
 H960 H 0.35251 0.77973 0.95587
 C961 C 1.11202 0.85067 0.05040
 C962 C 1.13549 0.86542 0.07449
 C963 C 1.16364 0.85054 0.05636
 C964 C 1.14062 0.83608 0.03201
 C965 C 1.16180 0.82058 0.07691
 C966 C 1.13348 0.83527 0.09514
 C967 C 1.11040 0.82068 0.07100
 C968 C 1.13853 0.80592 0.05276
 H969 H 1.09144 0.86306 0.03942
 H970 H 1.13442 0.89004 0.08343
 H971 H 1.14315 0.83630 0.00587
 H972 H 1.18243 0.80821 0.08784
 H973 H 1.13036 0.83486 0.12123
 H974 H 1.13958 0.78130 0.04383
 C975 C 0.64129 0.30189 0.55469
 C976 C 0.64509 0.33043 0.53200
 C977 C 0.66578 0.34701 0.55701
 C978 C 0.66224 0.31865 0.57955
 C979 C 0.63606 0.36286 0.57146
 C980 C 0.61497 0.34609 0.54660
 C981 C 0.61154 0.31773 0.56917
 C982 C 0.63228 0.33435 0.59407
 H983 H 0.64395 0.27682 0.54751
 H984 H 0.64998 0.32865 0.50625
 H985 H 0.68190 0.30747 0.59317
 H986 H 0.63414 0.38809 0.57834
 H987 H 0.59525 0.35723 0.53304
 H988 H 0.62684 0.33583 0.61975
 C989 C 0.37613 0.15168 0.57772
 C990 C 0.34424 0.15894 0.59462
 C991 C 0.32755 0.16056 0.56220
 C992 C 0.35923 0.15319 0.54519
 C993 C 0.33415 0.19623 0.55985
 C994 C 0.35098 0.19468 0.59236
 C995 C 0.38273 0.18733 0.57557
 C996 C 0.36630 0.18910 0.54305
 H997 H 0.39368 0.13338 0.58505
 H998 H 0.33623 0.14676 0.61649
 H999 H 0.36236 0.13587 0.52572
 H1000 H 0.31656 0.21449 0.55252
 H1001 H 0.34770 0.21197 0.61182
 H1002 H 0.37546 0.20153 0.52177
 C1003 C 0.85278 0.71003 0.06490
 C1004 C 0.84917 0.68463 0.03872
 C1005 C 0.82602 0.66636 0.06038
 C1006 C 0.82920 0.69164 0.08622
 C1007 C 0.85387 0.64739 0.07461
 C1008 C 0.87748 0.66584 0.05330
 C1009 C 0.88054 0.69098 0.07938
 C1010 C 0.85708 0.67264 0.10068
 H1011 H 0.85256 0.73598 0.06104
 H1012 H 0.84598 0.68965 0.01314
 H1013 H 0.80917 0.70232 0.09975
 H1014 H 0.85423 0.62145 0.07853
 H1015 H 0.89764 0.65528 0.03988
 H1016 H 0.85884 0.66685 0.12622
 C1017 C 0.62712 0.69192 0.95837
 C1018 C 0.63391 0.65583 0.95817
 C1019 C 0.66548 0.66179 0.94048
 C1020 C 0.65917 0.69764 0.94092
 C1021 C 0.64846 0.65882 0.90835
 C1022 C 0.61669 0.65296 0.92591
 C1023 C 0.61036 0.68877 0.92615
 C1024 C 0.64201 0.69474 0.90870
 H1025 H 0.61823 0.70557 0.97900
 H1026 H 0.63085 0.63958 0.97859
 H1027 H 0.67697 0.71595 0.94706
 H1028 H 0.65615 0.64549 0.88708
 H1029 H 0.59895 0.63460 0.91978
 H1030 H 0.64523 0.71097 0.88827
 C1031 C 0.13044 0.18750 0.45513
 C1032 C 0.13727 0.15146 0.45420
 C1033 C 0.16906 0.15788 0.43711
 C1034 C 0.16267 0.19369 0.43823
 C1035 C 0.15254 0.15556 0.40468
 C1036 C 0.12050 0.14927 0.42165
 C1037 C 0.11411 0.18505 0.42263
 C1038 C 0.14596 0.19147 0.40571
 H1039 H 0.12133 0.20063 0.47599
 H1040 H 0.13396 0.13476 0.47422
 H1041 H 0.18034 0.21189 0.44502
 H1042 H 0.16076 0.14267 0.38332
 H1043 H 0.10287 0.13103 0.41487
 H1044 H 0.14939 0.20815 0.38569
 C1045 C 0.57670 0.11201 0.69354
 C1046 C 0.61132 0.11418 0.70593
 C1047 C 0.60015 0.10134 0.73814
 C1048 C 0.56570 0.09892 0.72597
 C1049 C 0.59376 0.13515 0.75013
 C1050 C 0.60476 0.14826 0.71771
 C1051 C 0.57034 0.14581 0.70554
 C1052 C 0.55916 0.13293 0.73774
 H1053 H 0.56979 0.10197 0.67033
 H1054 H 0.63300 0.10629 0.69300
 H1055 H 0.54968 0.07841 0.72958
 H1056 H 0.60045 0.14528 0.77337
 H1057 H 0.62075 0.16879 0.71409
 H1058 H 0.53748 0.14078 0.75069
 C1059 C 1.07976 0.64259 0.24131
 C1060 C 1.06588 0.60903 0.24564
 C1061 C 1.09694 0.59493 0.23220
 C1062 C 1.11104 0.62818 0.22804
 C1063 C 1.08328 0.59586 0.19841
 C1064 C 1.05203 0.61027 0.21169
 C1065 C 1.06607 0.64352 0.20755
 C1066 C 1.09717 0.62943 0.19415
 H1067 H 1.07851 0.66169 0.25922
 H1068 H 1.05306 0.60034 0.26694
 H1069 H 1.13554 0.63536 0.23473
 H1070 H 1.08458 0.57704 0.18021
 H1071 H 1.02752 0.60319 0.20494
 H1072 H 1.10998 0.63815 0.17285
 C1073 C 0.90847 0.85417 0.23622
 C1074 C 0.92225 0.87251 0.26469
 C1075 C 0.91015 0.90354 0.24978
 C1076 C 0.89625 0.88547 0.22153
 C1077 C 0.94203 0.90781 0.23216
 C1078 C 0.95431 0.87646 0.24678
 C1079 C 0.94028 0.85843 0.21850
 C1080 C 0.92820 0.88947 0.20371
 H1081 H 0.89476 0.83185 0.23780
 H1082 H 0.91998 0.86532 0.28986
 H1083 H 0.87219 0.88934 0.21129
 H1084 H 0.95575 0.93012 0.23062
 H1085 H 0.97826 0.87283 0.25734
 H1086 H 0.93084 0.89630 0.17846
 C1087 C 0.41380 0.35484 0.74059
 C1088 C 0.43033 0.38226 0.75832
 C1089 C 0.40852 0.40595 0.74097
 C1090 C 0.39186 0.37886 0.72348
 C1091 C 0.43311 0.40919 0.71404
 C1092 C 0.45506 0.38518 0.73119
 C1093 C 0.43831 0.35810 0.71365
 C1094 C 0.41654 0.38187 0.69639
 H1095 H 0.40605 0.33223 0.75144
 H1096 H 0.43591 0.38263 0.78398
 H1097 H 0.36570 0.37651 0.72038
 H1098 H 0.44146 0.43143 0.70289
 H1099 H 0.48110 0.38809 0.73460
 H1100 H 0.41097 0.38155 0.67072
 C1101 C 0.39489 0.64865 0.77527
 C1102 C 0.40570 0.63524 0.74286
 C1103 C 0.40024 0.60154 0.75555
 C1104 C 0.38923 0.61465 0.78767
 C1105 C 0.43491 0.59971 0.76726
 C1106 C 0.44057 0.63367 0.75488
 C1107 C 0.42953 0.64672 0.78707
 C1108 C 0.42401 0.61295 0.79958
 H1109 H 0.37852 0.66903 0.77877
 H1110 H 0.39822 0.64462 0.71947
 H1111 H 0.36791 0.60667 0.80103
 H1112 H 0.45132 0.57937 0.76378
 H1113 H 0.46191 0.64164 0.74154
 H1114 H 0.43142 0.60287 0.82270
 C1115 C -0.05794 0.11598 0.28634
 C1116 C -0.08869 0.10016 0.29866
 C1117 C -0.10148 0.09924 0.26453
 C1118 C -0.07086 0.11489 0.25208
 C1119 C -0.11735 0.13181 0.26879
 C1120 C -0.10440 0.13297 0.30308
 C1121 C -0.07372 0.14853 0.29073
 C1122 C -0.08648 0.14781 0.25659
 H1123 H -0.03330 0.10966 0.29359
 H1124 H -0.08932 0.08114 0.31675
 H1125 H -0.05713 0.10714 0.23098
 H1126 H -0.14201 0.13803 0.26151
 H1127 H -0.11815 0.14070 0.32418
 H1128 H -0.08564 0.16742 0.23914
 C1129 C 0.04399 0.38523 0.26893
 C1130 C 0.06835 0.40756 0.28473
 C1131 C 0.09094 0.40296 0.25632
 C1132 C 0.06674 0.38095 0.24032
 C1133 C 0.10706 0.37465 0.27268
 C1134 C 0.08435 0.37900 0.30126
 C1135 C 0.06019 0.35692 0.28532
 C1136 C 0.08273 0.35232 0.25692
 H1137 H 0.01799 0.38989 0.26719
 H1138 H 0.06203 0.43016 0.29648
 H1139 H 0.05962 0.38198 0.21505
 H1140 H 0.13318 0.37054 0.27414
 H1141 H 0.09148 0.37802 0.32653
 H1142 H 0.08844 0.32935 0.24557
 C1143 C 0.57875 0.85857 0.76320
 C1144 C 0.56370 0.88886 0.74890
 C1145 C 0.58934 0.90871 0.76555
 C1146 C 0.60450 0.87870 0.77966
 C1147 C 0.56772 0.91249 0.79482
 C1148 C 0.54189 0.89228 0.77834
 C1149 C 0.55716 0.86228 0.79244
 C1150 C 0.58275 0.88220 0.80908
 H1151 H 0.58311 0.83619 0.75023
 H1152 H 0.55600 0.89181 0.72395
 H1153 H 0.63042 0.87330 0.78016
 H1154 H 0.56292 0.93459 0.80811
 H1155 H 0.51607 0.89808 0.77768
 H1156 H 0.59047 0.87929 0.83403
 C1157 C 0.73735 0.56441 0.12934
 C1158 C 0.72504 0.57070 0.09538
 C1159 C 0.73478 0.60555 0.09857
 C1160 C 0.74735 0.59942 0.13232
 C1161 C 0.70163 0.61415 0.11162
 C1162 C 0.69166 0.57910 0.10870
 C1163 C 0.70421 0.57300 0.14243
 C1164 C 0.71396 0.60781 0.14563
 H1165 H 0.75191 0.54373 0.13676
 H1166 H 0.72977 0.55546 0.07453
 H1167 H 0.77012 0.60734 0.14291
 H1168 H 0.68705 0.63483 0.10420
 H1169 H 0.66884 0.57088 0.09846
 H1170 H 0.70919 0.62295 0.16654
 C1171 C 0.18885 1.10137 0.62921
 C1172 C 0.22247 1.11626 0.63065
 C1173 C 0.23024 1.10159 0.59825
 C1174 C 0.19677 1.08690 0.59649
 C1175 C 0.24347 1.07168 0.61438
 C1176 C 0.23556 1.08615 0.64706
 C1177 C 0.20211 1.07144 0.64529
 C1178 C 0.20986 1.05682 0.61289
 H1179 H 0.16623 1.11349 0.63563
 H1180 H 0.22772 1.14094 0.63769
 H1181 H 0.18039 1.08706 0.57591
 H1182 H 0.26609 1.05955 0.60797
 H1183 H 0.25184 1.08610 0.66772
 H1184 H 0.20463 1.03214 0.60583
 C1185 C 0.22494 0.95719 0.88299
 C1186 C 0.20842 0.93436 0.90643
 C1187 C 0.23695 0.91150 0.90347
 C1188 C 0.25365 0.93420 0.88033
 C1189 C 0.22084 0.89431 0.87582
 C1190 C 0.19215 0.91727 0.87855
 C1191 C 0.20877 0.93995 0.85535
 C1192 C 0.23729 0.91716 0.85234
 H1193 H 0.22687 0.98310 0.88630
 H1194 H 0.19619 0.94192 0.92848
 H1195 H 0.27915 0.94104 0.88130
 H1196 H 0.21924 0.86829 0.87314
 H1197 H 0.16665 0.91041 0.87764
 H1198 H 0.24907 0.91030 0.82981
 C1199 C 0.73137 0.45798 0.38418
 C1200 C 0.71411 0.43546 0.40744
 C1201 C 0.74242 0.41226 0.40521
 C1202 C 0.75987 0.43464 0.38228
 C1203 C 0.72670 0.39512 0.37731
 C1204 C 0.69823 0.41841 0.37930
 C1205 C 0.71561 0.44075 0.35629
 C1206 C 0.74391 0.41762 0.35405
 H1207 H 0.73349 0.48391 0.38730
 H1208 H 0.70155 0.44320 0.42924
 H1209 H 0.78542 0.44121 0.38374
 H1210 H 0.72483 0.36910 0.37473
 H1211 H 0.67268 0.41182 0.37792
 H1212 H 0.75611 0.41046 0.33183
 C1213 C 0.79907 0.40162 0.63553
 C1214 C 0.76457 0.38875 0.63497
 C1215 C 0.75941 0.40493 0.60271
 C1216 C 0.79377 0.41764 0.60304
 C1217 C 0.74714 0.43501 0.61918
 C1218 C 0.75255 0.41909 0.65180
 C1219 C 0.78691 0.43177 0.65193
 C1220 C 0.78164 0.44785 0.61969
 H1221 H 0.82056 0.38790 0.64252
 H1222 H 0.75748 0.36423 0.64099
 H1223 H 0.81151 0.41732 0.58353
 H1224 H 0.72564 0.44869 0.61215
 H1225 H 0.73546 0.41961 0.67188
 H1226 H 0.78870 0.47237 0.61360
 C1227 C 0.29575 -0.09520 0.13310
 C1228 C 0.26090 -0.10708 0.13286
 C1229 C 0.25643 -0.09208 0.09995
 C1230 C 0.29114 -0.08035 0.09998
 C1231 C 0.24493 -0.06102 0.11509
 C1232 C 0.24967 -0.07576 0.14836
 C1233 C 0.28438 -0.06407 0.14818
 C1234 C 0.27980 -0.04915 0.11530
 H1235 H 0.31679 -0.10923 0.14081
 H1236 H 0.25307 -0.13113 0.13981
 H1237 H 0.30898 -0.08202 0.08063
 H1238 H 0.22388 -0.04705 0.10734
 H1239 H 0.23251 -0.07390 0.16830
 H1240 H 0.28762 -0.02511 0.10829
 C1241 C 0.27906 0.04593 0.39051
 C1242 C 0.29452 0.07171 0.41139
 C1243 C 0.26492 0.09282 0.40645
 C1244 C 0.24928 0.06721 0.38594
 C1245 C 0.28010 0.10795 0.37699
 C1246 C 0.30987 0.08672 0.38164
 C1247 C 0.29422 0.06118 0.36105
 C1248 C 0.26464 0.08224 0.35621
 H1249 H 0.27852 0.02035 0.39628
 H1250 H 0.30710 0.06711 0.43402
 H1251 H 0.22414 0.05933 0.38792
 H1252 H 0.28045 0.13363 0.37164
 H1253 H 0.33500 0.09462 0.37969
 H1254 H 0.25243 0.08638 0.33328
 C1255 C 0.76034 0.58689 0.85727
 C1256 C 0.74421 0.57189 0.88664
 C1257 C 0.76056 0.59659 0.90773
 C1258 C 0.77647 0.61171 0.87864
 C1259 C 0.78938 0.57444 0.91251
 C1260 C 0.77322 0.54956 0.89109
 C1261 C 0.78914 0.56478 0.86199
 C1262 C 0.80547 0.58942 0.88315
 H1263 H 0.74846 0.59182 0.83432
 H1264 H 0.71882 0.56478 0.88828
 H1265 H 0.77774 0.63745 0.87375
 H1266 H 0.80159 0.56901 0.93516
 H1267 H 0.77174 0.52394 0.89648
 H1268 H 0.83088 0.59652 0.88154
 C1269 C 0.15389 0.72934 0.59391
 C1270 C 0.12502 0.74592 0.57812
 C1271 C 0.10255 0.72900 0.60144
 C1272 C 0.13111 0.71263 0.61743
 C1273 C 0.09879 0.70123 0.57831
 C1274 C 0.12150 0.71803 0.55489
 C1275 C 0.15006 0.70156 0.57082
 C1276 C 0.12761 0.68463 0.59410
 H1277 H 0.17652 0.74115 0.60037
 H1278 H 0.12370 0.77130 0.57154
 H1279 H 0.13474 0.71046 0.64335
 H1280 H 0.07629 0.68939 0.57147
 H1281 H 0.11778 0.72030 0.52898
 H1282 H 0.12899 0.65924 0.60057
 C1283 C 0.65191 0.23629 1.08480
 C1284 C 0.61885 0.24221 1.06966
 C1285 C 0.60278 0.23021 1.10013
 C1286 C 0.63554 0.22445 1.11547
 C1287 C 0.60240 0.19624 1.08719
 C1288 C 0.61873 0.20808 1.05655
 C1289 C 0.65149 0.20233 1.07184
 C1290 C 0.63547 0.19033 1.10235
 H1291 H 0.67217 0.25304 1.08404
 H1292 H 0.61170 0.26369 1.05628
 H1293 H 0.64220 0.23125 1.13993
 H1294 H 0.58230 0.17931 1.08806
 H1295 H 0.61206 0.20130 1.03210
 H1296 H 0.64263 0.16886 1.11574
 C1297 C 0.85476 0.22738 0.90512
 C1298 C 0.87254 0.25662 0.91801
 C1299 C 0.90427 0.24209 0.90662
 C1300 C 0.88676 0.21308 0.89358
 C1301 C 0.90888 0.22552 0.93878
 C1302 C 0.87688 0.23979 0.95036
 C1303 C 0.85942 0.21074 0.93723
 C1304 C 0.89114 0.19632 0.92583
 H1305 H 0.83225 0.22806 0.89136
 H1306 H 0.86466 0.28149 0.91495
 H1307 H 0.89100 0.20224 0.87004
 H1308 H 0.93138 0.22489 0.95256
 H1309 H 0.87286 0.25099 0.97376
 H1310 H 0.89863 0.17137 0.92923
 C1311 C 0.38574 0.71805 0.44411
 C1312 C 0.40747 0.70476 0.41765
 C1313 C 0.40497 0.73662 0.40011
 C1314 C 0.38349 0.75007 0.42647
 C1315 C 0.37558 0.72511 0.38185
 C1316 C 0.37791 0.69306 0.39945
 C1317 C 0.35641 0.70639 0.42587
 C1318 C 0.35374 0.73825 0.40841
 H1319 H 0.38971 0.71504 0.46991
 H1320 H 0.42912 0.69031 0.42215
 H1321 H 0.38607 0.77369 0.43750
 H1322 H 0.37164 0.72815 0.35605
 H1323 H 0.37604 0.66978 0.38762
 H1324 H 0.33137 0.75186 0.40470
 C1325 C 0.65061 0.74879 0.42086
 C1326 C 0.61634 0.74372 0.43366
 C1327 C 0.60274 0.75616 0.40219
 C1328 C 0.63665 0.76095 0.38909
 C1329 C 0.60217 0.79016 0.41515
 C1330 C 0.61589 0.77785 0.44675
 C1331 C 0.64976 0.78279 0.43375
 C1332 C 0.63626 0.79507 0.40221
 H1333 H 0.67060 0.73169 0.42323
 H1334 H 0.60783 0.72245 0.44650
 H1335 H 0.64493 0.75394 0.36514
 H1336 H 0.58293 0.80811 0.41314
 H1337 H 0.60752 0.78483 0.47069
 H1338 H 0.64471 0.81633 0.38931
 C1339 C 0.14878 0.27536 -0.11092
 C1340 C 0.13566 0.24295 -0.09989
 C1341 C 0.10145 0.25547 -0.10465
 C1342 C 0.11425 0.28757 -0.11589
 C1343 C 0.10031 0.26721 -0.07024
 C1344 C 0.13477 0.25500 -0.06529
 C1345 C 0.14749 0.28719 -0.07653
 C1346 C 0.11320 0.29951 -0.08137
 H1347 H 0.16895 0.27893 -0.12757
 H1348 H 0.14506 0.21961 -0.10748
 H1349 H 0.10563 0.30084 -0.13691
 H1350 H 0.08018 0.26368 -0.05353
 H1351 H 0.14337 0.24175 -0.04425
 H1352 H 0.10294 0.32256 -0.07402
 C1353 C 0.38218 0.30383 0.08139
 C1354 C 0.37820 0.27516 0.10380
 C1355 C 0.40768 0.25970 0.08855
 C1356 C 0.41194 0.28820 0.06626
 C1357 C 0.38655 0.24311 0.06395
 C1358 C 0.35680 0.25876 0.07910
 C1359 C 0.36097 0.28725 0.05685
 C1360 C 0.39045 0.27180 0.04148
 H1361 H 0.38020 0.32901 0.08844
 H1362 H 0.37339 0.27648 0.12961
 H1363 H 0.43455 0.30056 0.06072
 H1364 H 0.38857 0.21794 0.05690
 H1365 H 0.33389 0.24671 0.08420
 H1366 H 0.39571 0.27029 0.01578
 C1367 C 0.88259 0.80653 0.58937
 C1368 C 0.87853 0.77645 0.60984
 C1369 C 0.90832 0.76217 0.59403
 C1370 C 0.91267 0.79209 0.57369
 C1371 C 0.88767 0.74708 0.56812
 C1372 C 0.85761 0.76153 0.58383
 C1373 C 0.86187 0.79142 0.56352
 C1374 C 0.89166 0.77717 0.54760
 H1375 H 0.88030 0.83119 0.59799
 H1376 H 0.87335 0.77607 0.63561
 H1377 H 0.93524 0.80495 0.56927
 H1378 H 0.88998 0.72241 0.55951
 H1379 H 0.83473 0.74904 0.58782
 H1380 H 0.89729 0.77735 0.52193
   
