data_POSCAR
  _audit_creation_date              2014-09-24
  _audit_creation_method            'ToBaCCo'
  _symmetry_space_group_name_H-M    'P1'
  _symmetry_Int_Tables_number       1
  _symmetry_cell_setting            triclinic
  loop_
  _symmetry_equiv_pos_as_xyz
 x,y,z
_cell_length_a 60.3355
_cell_length_b 54.8640
_cell_length_c 63.3257
_cell_angle_alpha 89.637900
_cell_angle_beta 89.747300
_cell_angle_gamma 89.984900
loop_
  _atom_site_label
  _atom_site_type_symbol
  _atom_site_fract_x
  _atom_site_fract_y
  _atom_site_fract_z
C1 C 0.41099 -0.03672 0.24787
 C2 C 0.42186 -0.01559 0.24081
 C3 C 0.43358 -0.01571 0.22177
 C4 C 0.43509 -0.03704 0.20978
 C5 C 0.42417 -0.05824 0.21702
 C6 C 0.41154 -0.05847 0.23600
 C7 C 0.42154 0.00655 0.25386
 C8 C 0.43331 0.00676 0.27283
 C9 C 0.43273 0.02710 0.28636
 C10 C 0.41936 0.04717 0.28025
 C11 C 0.40736 0.04711 0.26118
 C12 C 0.40890 0.02681 0.24788
 H13 H 0.40135 -0.03539 0.26224
 H14 H 0.44159 0.00090 0.21638
 H15 H 0.44209 -0.00969 0.27724
 H16 H 0.39946 0.02625 0.23337
 H17 H 0.42651 -0.07477 0.20811
 H18 H 0.41866 0.06341 0.28982
 C19 C 0.09024 -0.02849 0.75281
 C20 C 0.07967 -0.00725 0.75987
 C21 C 0.06816 -0.00742 0.77907
 C22 C 0.06659 -0.02881 0.79125
 C23 C 0.07712 -0.05012 0.78394
 C24 C 0.08937 -0.05017 0.76483
 C25 C 0.08031 0.01524 0.74702
 C26 C 0.06839 0.01643 0.72811
 C27 C 0.06845 0.03771 0.71540
 C28 C 0.08148 0.05762 0.72231
 C29 C 0.09389 0.05643 0.74109
 C30 C 0.09280 0.03529 0.75359
 H31 H 0.09964 -0.02774 0.73821
 H32 H 0.06050 0.00928 0.78452
 H33 H 0.05972 0.00017 0.72326
 H34 H 0.10237 0.03400 0.76800
 H35 H 0.07546 -0.06677 0.79307
 H36 H 0.08167 0.07464 0.71364
 C37 C 0.59321 0.47124 0.24920
 C38 C 0.58116 0.49142 0.25645
 C39 C 0.56995 0.49011 0.27585
 C40 C 0.57038 0.46866 0.28814
 C41 C 0.58295 0.44868 0.28081
 C42 C 0.59465 0.44992 0.26151
 C43 C 0.58089 0.51428 0.24406
 C44 C 0.56986 0.51519 0.22464
 C45 C 0.56965 0.53671 0.21246
 C46 C 0.58120 0.55724 0.22000
 C47 C 0.59294 0.55639 0.23919
 C48 C 0.59225 0.53489 0.25135
 H49 H 0.60234 0.47262 0.23447
 H50 H 0.56114 0.50605 0.28142
 H51 H 0.56172 0.49892 0.21897
 H52 H 0.60137 0.53374 0.26603
 H53 H 0.58364 0.43201 0.29003
 H54 H 0.58108 0.57405 0.21096
 C55 C 0.90865 0.46186 0.74980
 C56 C 0.92031 0.48236 0.74248
 C57 C 0.93158 0.48154 0.72313
 C58 C 0.93155 0.46021 0.71095
 C59 C 0.91948 0.43982 0.71837
 C60 C 0.90774 0.44061 0.73762
 C61 C 0.92040 0.50488 0.75500
 C62 C 0.93274 0.50582 0.77361
 C63 C 0.93229 0.52657 0.78670
 C64 C 0.91847 0.54627 0.78051
 C65 C 0.90593 0.54545 0.76177
 C66 C 0.90732 0.52475 0.74894
 H67 H 0.89947 0.46289 0.76452
 H68 H 0.94011 0.49772 0.71752
 H69 H 0.94182 0.48962 0.77813
 H70 H 0.89741 0.52357 0.73476
 H71 H 0.91918 0.42322 0.70922
 H72 H 0.91780 0.56277 0.78973
 C73 C 0.26232 0.35599 1.02849
 C74 C 0.26410 0.37018 1.00997
 C75 C 0.28313 0.38456 1.00661
 C76 C 0.30014 0.38535 1.02180
 C77 C 0.29782 0.37131 1.04033
 C78 C 0.27911 0.35629 1.04405
 C79 C 0.24655 0.36878 0.99357
 C80 C 0.22676 0.38243 0.99529
 C81 C 0.21023 0.38082 0.97960
 C82 C 0.21355 0.36473 0.96268
 C83 C 0.23294 0.35069 0.96088
 C84 C 0.24952 0.35312 0.97628
 H85 H 0.24745 0.34525 1.03079
 H86 H 0.28461 0.39518 0.99219
 H87 H 0.22449 0.39458 1.00853
 H88 H 0.26456 0.34240 0.97513
 H89 H 0.31160 0.37092 1.05120
 H90 H 0.20087 0.36314 0.95070
 C91 C 0.74126 0.14531 1.03034
 C92 C 0.73965 0.13224 1.01137
 C93 C 0.72039 0.11869 1.00720
 C94 C 0.70295 0.11762 1.02202
 C95 C 0.70492 0.13072 1.04090
 C96 C 0.72392 0.14481 1.04548
 C97 C 0.75775 0.13355 0.99543
 C98 C 0.77815 0.12167 0.99877
 C99 C 0.79511 0.12264 0.98331
 C100 C 0.79140 0.13623 0.96473
 C101 C 0.77121 0.14837 0.96121
 C102 C 0.75443 0.14675 0.97666
 H103 H 0.75637 0.15532 1.03330
 H104 H 0.71916 0.10874 0.99253
 H105 H 0.78051 0.11121 1.01314
 H106 H 0.73882 0.15613 0.97435
 H107 H 0.69075 0.13100 1.05141
 H108 H 0.80430 0.13727 0.95284
 C109 C 0.24170 0.64782 0.52964
 C110 C 0.23998 0.63429 0.51093
 C111 C 0.22127 0.61938 0.50781
 C112 C 0.20452 0.61743 0.52340
 C113 C 0.20684 0.63084 0.54213
 C114 C 0.22517 0.64615 0.54532
 C115 C 0.25719 0.63663 0.49417
 C116 C 0.27714 0.62328 0.49522
 C117 C 0.29299 0.62497 0.47879
 C118 C 0.28874 0.64067 0.46162
 C119 C 0.26913 0.65449 0.46046
 C120 C 0.25339 0.65219 0.47685
 H121 H 0.25595 0.65949 0.53204
 H122 H 0.21990 0.60917 0.49329
 H123 H 0.28001 0.61116 0.50850
 H124 H 0.23819 0.66269 0.47636
 H125 H 0.19398 0.63000 0.55410
 H126 H 0.30078 0.64194 0.44895
 C127 C 0.75811 0.85125 0.52931
 C128 C 0.76116 0.86632 0.51161
 C129 C 0.78092 0.87990 0.50952
 C130 C 0.79772 0.87911 0.52528
 C131 C 0.79376 0.86374 0.54301
 C132 C 0.77442 0.84954 0.54499
 C133 C 0.74431 0.86608 0.49450
 C134 C 0.72458 0.87983 0.49615
 C135 C 0.70829 0.87867 0.48022
 C136 C 0.71169 0.86283 0.46316
 C137 C 0.73095 0.84857 0.46149
 C138 C 0.74740 0.85065 0.47706
 H139 H 0.74326 0.84021 0.53049
 H140 H 0.78316 0.89025 0.49510
 H141 H 0.72207 0.89157 0.50964
 H142 H 0.76230 0.83967 0.47602
 H143 H 0.80516 0.86326 0.55608
 H144 H 0.69914 0.86151 0.45104
 C145 C -0.02695 0.23410 0.32137
 C146 C -0.00667 0.22687 0.32984
 C147 C -0.00393 0.20318 0.33760
 C148 C -0.02167 0.18653 0.33768
 C149 C -0.04140 0.19361 0.32762
 C150 C -0.04488 0.21778 0.32075
 C151 C 0.01025 0.24519 0.33467
 C152 C 0.00470 0.26513 0.34737
 C153 C 0.02122 0.28085 0.35469
 C154 C 0.04326 0.27688 0.34861
 C155 C 0.04896 0.25688 0.33608
 C156 C 0.03237 0.24109 0.32910
 H157 H -0.02903 0.25312 0.31719
 H158 H 0.01127 0.19921 0.34593
 H159 H -0.01229 0.26746 0.35263
 H160 H 0.03667 0.22513 0.31994
 H161 H -0.05435 0.18027 0.32542
 H162 H 0.05605 0.28934 0.35373
 C163 C -0.02655 0.74375 0.16612
 C164 C -0.00567 0.75271 0.16042
 C165 C -0.00377 0.77570 0.15101
 C166 C -0.02258 0.78975 0.14697
 C167 C -0.04346 0.78070 0.15264
 C168 C -0.04581 0.75751 0.16214
 C169 C 0.01398 0.73696 0.16152
 C170 C 0.01343 0.71403 0.15202
 C171 C 0.03305 0.70063 0.14861
 C172 C 0.05310 0.71043 0.15610
 C173 C 0.05367 0.73335 0.16576
 C174 C 0.03404 0.74638 0.16865
 H175 H -0.02764 0.72544 0.17252
 H176 H 0.01232 0.78199 0.14558
 H177 H -0.00207 0.70821 0.14517
 H178 H 0.03451 0.76450 0.17537
 H179 H -0.05772 0.79233 0.15020
 H180 H 0.06843 0.70036 0.15459
 C181 C 0.46671 0.23667 0.65787
 C182 C 0.48673 0.24874 0.65383
 C183 C 0.48648 0.27211 0.64479
 C184 C 0.46639 0.28295 0.63901
 C185 C 0.44650 0.27054 0.64264
 C186 C 0.44658 0.24745 0.65223
 C187 C 0.50785 0.23570 0.65624
 C188 C 0.51002 0.21249 0.64746
 C189 C 0.53068 0.20098 0.64643
 C190 C 0.54924 0.21276 0.65472
 C191 C 0.54720 0.23597 0.66372
 C192 C 0.52645 0.24730 0.66465
 H193 H 0.46685 0.21862 0.66492
 H194 H 0.50195 0.28120 0.64097
 H195 H 0.49584 0.20420 0.63989
 H196 H 0.52494 0.26548 0.67110
 H197 H 0.43095 0.27912 0.63838
 H198 H 0.56534 0.20405 0.65388
 C199 C 0.46254 0.76680 0.82843
 C200 C 0.48415 0.75931 0.83292
 C201 C 0.48766 0.73909 0.84616
 C202 C 0.46973 0.72646 0.85543
 C203 C 0.44812 0.73425 0.85046
 C204 C 0.44448 0.75443 0.83726
 C205 C 0.50307 0.77476 0.82671
 C206 C 0.50254 0.79958 0.83169
 C207 C 0.52192 0.81361 0.83098
 C208 C 0.54164 0.80296 0.82392
 C209 C 0.54238 0.77811 0.81895
 C210 C 0.52296 0.76419 0.81991
 H211 H 0.45983 0.78280 0.81865
 H212 H 0.50450 0.73482 0.85067
 H213 H 0.48762 0.80721 0.83859
 H214 H 0.52366 0.74475 0.81701
 H215 H 0.43387 0.72420 0.85620
 H216 H 0.55677 0.81361 0.82380
 C217 C -0.27608 0.64788 1.00507
 C218 C -0.25514 0.65676 1.01112
 C219 C -0.25258 0.66793 1.03077
 C220 C -0.27087 0.67126 1.04415
 C221 C -0.29179 0.66281 1.03767
 C222 C -0.29484 0.65024 1.01840
 C223 C -0.23619 0.65587 0.99621
 C224 C -0.23828 0.66710 0.97640
 C225 C -0.22074 0.66708 0.96159
 C226 C -0.20100 0.65475 0.96726
 C227 C -0.19865 0.64314 0.98706
 C228 C -0.21626 0.64424 1.00164
 H229 H -0.27713 0.63848 0.99016
 H230 H -0.23637 0.67443 1.03539
 H231 H -0.25410 0.67522 0.97254
 H232 H -0.21484 0.63527 1.01687
 H233 H -0.30585 0.66730 1.04749
 H234 H -0.18686 0.65486 0.95672
 C235 C -0.28629 0.36156 0.49925
 C236 C -0.26543 0.35250 0.49310
 C237 C -0.26294 0.34111 0.47359
 C238 C -0.28111 0.33794 0.46031
 C239 C -0.30197 0.34676 0.46663
 C240 C -0.30504 0.35929 0.48599
 C241 C -0.24623 0.35363 0.50745
 C242 C -0.24791 0.34325 0.52765
 C243 C -0.22943 0.34211 0.54099
 C244 C -0.20925 0.35231 0.53399
 C245 C -0.20737 0.36338 0.51393
 C246 C -0.22594 0.36355 0.50059
 H247 H -0.28722 0.37112 0.51408
 H248 H -0.24677 0.33439 0.46889
 H249 H -0.26364 0.33573 0.53281
 H250 H -0.22481 0.37187 0.48506
 H251 H -0.31583 0.34263 0.45655
 H252 H -0.19478 0.35123 0.54401
 C253 C 0.21816 -0.14301 0.00125
 C254 C 0.23715 -0.15537 -0.00572
 C255 C 0.23722 -0.16680 -0.02543
 C256 C 0.21835 -0.16641 -0.03854
 C257 C 0.19953 -0.15344 -0.03127
 C258 C 0.19939 -0.14146 -0.01167
 C259 C 0.25712 -0.15667 0.00760
 C260 C 0.25633 -0.16946 0.02677
 C261 C 0.27529 -0.17183 0.03963
 C262 C 0.29503 -0.16021 0.03272
 C263 C 0.29597 -0.14700 0.01356
 C264 C 0.27695 -0.14570 0.00093
 H265 H 0.21836 -0.13384 0.01636
 H266 H 0.25246 -0.17539 -0.03051
 H267 H 0.24054 -0.17698 0.03166
 H268 H 0.27729 -0.13555 -0.01380
 H269 H 0.18437 -0.15320 -0.04031
 H270 H 0.31017 -0.16220 0.04163
 C271 C 0.22406 1.14490 0.50475
 C272 C 0.24430 1.15538 0.51095
 C273 C 0.24594 1.16661 0.53072
 C274 C 0.22742 1.16815 0.54420
 C275 C 0.20723 1.15777 0.53761
 C276 C 0.20540 1.14559 0.51815
 C277 C 0.26357 1.15550 0.49639
 C278 C 0.26178 1.16727 0.47676
 C279 C 0.27967 1.16791 0.46231
 C280 C 0.29944 1.15571 0.46818
 C281 C 0.30145 1.14354 0.48777
 C282 C 0.28350 1.14398 0.50198
 H283 H 0.22312 1.13575 0.48967
 H284 H 0.26167 1.17430 0.53546
 H285 H 0.24594 1.17526 0.47275
 H286 H 0.28467 1.13455 0.51702
 H287 H 0.19271 1.15957 0.54756
 H288 H 0.31385 1.15631 0.45800
 C289 C 0.08564 0.50535 0.22282
 C290 C 0.09916 0.50768 0.24064
 C291 C 0.11194 0.52883 0.24324
 C292 C 0.11130 0.54778 0.22814
 C293 C 0.09750 0.54520 0.21046
 C294 C 0.08461 0.52413 0.20764
 C295 C 0.09916 0.48852 0.25714
 C296 C 0.11389 0.46882 0.25599
 C297 C 0.11426 0.45087 0.27202
 C298 C 0.09976 0.45321 0.28938
 C299 C 0.08479 0.47289 0.29071
 C300 C 0.08454 0.49030 0.27428
 H301 H 0.07558 0.48913 0.22105
 H302 H 0.12245 0.53037 0.25699
 H303 H 0.12526 0.46773 0.24274
 H304 H 0.07296 0.50538 0.27467
 H305 H 0.09673 0.55971 0.19881
 H306 H 0.10024 0.43972 0.30191
 C307 C -0.08176 1.00034 0.23039
 C308 C -0.09556 0.99729 0.24799
 C309 C -0.10909 0.97662 0.24966
 C310 C -0.10953 0.95880 0.23357
 C311 C -0.09555 0.96256 0.21581
 C312 C -0.08138 0.98307 0.21394
 C313 C -0.09530 1.01553 0.26512
 C314 C -0.10940 1.03585 0.26433
 C315 C -0.10978 1.05326 0.28078
 C316 C -0.09541 1.04931 0.29815
 C317 C -0.08100 1.02907 0.29905
 C318 C -0.08106 1.01240 0.28228
 H319 H -0.07077 1.01591 0.23023
 H320 H -0.11859 0.97440 0.26406
 H321 H -0.12065 1.03719 0.25113
 H322 H -0.06994 0.99689 0.28239
 H323 H -0.09704 0.95055 0.20248
 H324 H -0.09494 1.06217 0.31096
 C325 C 0.41499 0.49964 -0.27495
 C326 C 0.40259 0.49630 -0.25636
 C327 C 0.39011 0.47496 -0.25355
 C328 C 0.38979 0.45694 -0.26926
 C329 C 0.40237 0.46054 -0.28777
 C330 C 0.41526 0.48181 -0.29102
 C331 C 0.40310 0.51515 -0.23973
 C332 C 0.38810 0.53478 -0.24032
 C333 C 0.38856 0.55326 -0.22478
 C334 C 0.40498 0.55149 -0.20897
 C335 C 0.42009 0.53203 -0.20820
 C336 C 0.41892 0.51377 -0.22360
 H337 H 0.42509 0.51588 -0.27617
 H338 H 0.38047 0.47257 -0.23920
 H339 H 0.37566 0.53484 -0.25256
 H340 H 0.43054 0.49872 -0.22328
 H341 H 0.40150 0.44672 -0.29982
 H342 H 0.40659 0.56559 -0.19725
 C343 C 0.58487 0.00202 -0.27692
 C344 C 0.59901 0.00521 -0.25964
 C345 C 0.61240 0.02607 -0.25855
 C346 C 0.61186 0.04371 -0.27476
 C347 C 0.59749 0.04029 -0.29191
 C348 C 0.58378 0.01947 -0.29343
 C349 C 0.59912 -0.01315 -0.24242
 C350 C 0.61318 -0.03355 -0.24346
 C351 C 0.61262 -0.05159 -0.22751
 C352 C 0.59751 -0.04898 -0.21068
 C353 C 0.58323 -0.02877 -0.20949
 C354 C 0.58426 -0.01084 -0.22543
 H355 H 0.57416 -0.01378 -0.27678
 H356 H 0.62339 0.02836 -0.24522
 H357 H 0.62462 -0.03522 -0.25660
 H358 H 0.57319 0.00471 -0.22493
 H359 H 0.59769 0.05380 -0.30440
 H360 H 0.59687 -0.06280 -0.19840
 C361 C 0.00678 0.21991 0.86819
 C362 C -0.00240 0.24043 0.85825
 C363 C -0.02288 0.23857 0.84821
 C364 C -0.03441 0.21644 0.84831
 C365 C -0.02519 0.19605 0.85830
 C366 C -0.00468 0.19772 0.86848
 C367 C 0.00890 0.26409 0.85942
 C368 C 0.03169 0.26544 0.85564
 C369 C 0.04303 0.28742 0.85824
 C370 C 0.03136 0.30827 0.86418
 C371 C 0.00850 0.30716 0.86808
 C372 C -0.00273 0.28504 0.86558
 H373 H 0.02244 0.22146 0.87638
 H374 H -0.02991 0.25441 0.84041
 H375 H 0.04061 0.24931 0.85064
 H376 H -0.02028 0.28392 0.86922
 H377 H -0.03468 0.17932 0.85932
 H378 H 0.04036 0.32503 0.86699
 C379 C 0.49979 0.21749 0.11507
 C380 C 0.50769 0.24035 0.12128
 C381 C 0.52843 0.24216 0.13089
 C382 C 0.54128 0.22133 0.13434
 C383 C 0.53332 0.19858 0.12813
 C384 C 0.51261 0.19653 0.11841
 C385 C 0.49392 0.26225 0.11874
 C386 C 0.47171 0.26160 0.12505
 C387 C 0.45878 0.28272 0.12441
 C388 C 0.46805 0.30454 0.11717
 C389 C 0.49026 0.30540 0.11063
 C390 C 0.50315 0.28418 0.11139
 H391 H 0.48375 0.21604 0.10755
 H392 H 0.53430 0.25973 0.13626
 H393 H 0.46479 0.24489 0.13150
 H394 H 0.52038 0.28479 0.10649
 H395 H 0.54369 0.18260 0.13010
 H396 H 0.45784 0.32077 0.11637
 C397 C -0.01078 0.71259 0.62195
 C398 C -0.00430 0.73531 0.62988
 C399 C 0.01512 0.73706 0.64179
 C400 C 0.02819 0.71645 0.64550
 C401 C 0.02148 0.69387 0.63774
 C402 C 0.00209 0.69182 0.62586
 C403 C -0.01780 0.75720 0.62583
 C404 C -0.04085 0.75592 0.62788
 C405 C -0.05410 0.77689 0.62570
 C406 C -0.04366 0.79912 0.62089
 C407 C -0.02059 0.80058 0.61869
 C408 C -0.00773 0.77956 0.62104
 H409 H -0.02557 0.71116 0.61239
 H410 H 0.02010 0.75447 0.64822
 H411 H -0.04809 0.73880 0.63293
 H412 H 0.01012 0.78066 0.61929
 H413 H 0.03215 0.67814 0.63976
 H414 H -0.05348 0.81531 0.61801
 C415 C 0.50594 0.71304 0.36712
 C416 C 0.49428 0.73410 0.36108
 C417 C 0.47196 0.73224 0.35550
 C418 C 0.46117 0.70969 0.35623
 C419 C 0.47294 0.68881 0.36203
 C420 C 0.49534 0.69035 0.36761
 C421 C 0.50521 0.75812 0.36133
 C422 C 0.52717 0.76029 0.35447
 C423 C 0.53838 0.78246 0.35610
 C424 C 0.52727 0.80291 0.36375
 C425 C 0.50518 0.80112 0.37053
 C426 C 0.49420 0.77866 0.36936
 H427 H 0.52307 0.71437 0.37205
 H428 H 0.46297 0.74835 0.35048
 H429 H 0.53569 0.74461 0.34799
 H430 H 0.47741 0.77705 0.37532
 H431 H 0.46427 0.67157 0.36337
 H432 H 0.53628 0.81983 0.36567
 Zr433 Zr 0.02028 -0.02153 1.03606
 O434 O 0.04524 -0.00709 1.05575
 O435 O 0.01353 -0.05470 1.05093
 O436 O 0.00765 -0.01547 1.06692
 O437 O 0.05605 -0.04164 0.99717
 O438 O -0.02270 0.00852 1.06133
 O439 O 0.05070 -0.04091 1.03289
 O440 O -0.01638 -0.06913 1.03303
 O441 O -0.01428 -0.02346 1.03370
 O442 O 0.01346 -0.04399 1.01032
 O443 O 0.00928 0.01467 1.03247
 O444 O 0.03603 -0.00491 1.00989
 Zr445 Zr -0.01797 0.00722 0.97649
 Zr446 Zr -0.02506 0.01227 1.02845
 Zr447 Zr 0.02730 -0.02661 0.98407
 Zr448 Zr -0.02087 -0.04481 1.00742
 O449 O 0.05613 -0.01325 0.96870
 O450 O -0.05192 -0.04964 1.02271
 O451 O -0.00708 -0.02926 0.97992
 O452 O -0.03337 -0.00957 1.00268
 O453 O -0.01115 0.02990 1.00218
 O454 O 0.01656 0.00896 0.97911
 C455 C -0.00223 -0.07006 1.04820
 C456 C 0.06226 -0.04587 1.01622
 C457 C -0.00931 -0.00321 1.07343
 O458 O -0.05582 -0.00038 1.04038
 O459 O -0.05084 0.03306 1.01540
 O460 O -0.04711 0.02882 0.97976
 C461 C -0.05716 0.03709 0.99634
 O462 O 0.04947 0.03708 1.02684
 Zr463 Zr 0.02327 0.03030 1.00532
 O464 O -0.01066 0.04057 0.96170
 O465 O -0.02455 0.04727 1.04229
 O466 O 0.01539 0.06322 1.02103
 O467 O 0.05333 0.03667 0.98869
 O468 O 0.01690 0.05657 0.98187
 C469 C 0.00356 0.05724 0.96611
 O470 O -0.04436 -0.00575 0.95772
 O471 O 0.02881 -0.06307 0.97345
 O472 O -0.00729 -0.00210 0.94556
 O473 O 0.02224 -0.02720 0.95134
 O474 O -0.01302 -0.07910 0.99403
 O475 O -0.04457 -0.05339 0.98387
 C476 C 0.00855 -0.01611 0.93909
 H477 H 0.01965 -0.06059 1.01208
 H478 H -0.04962 -0.01045 1.00072
 H479 H 0.02390 0.01575 0.96637
 H480 H 0.01310 0.02452 1.04499
 H481 H -0.05499 -0.06737 1.02329
 H482 H -0.06195 0.01275 1.04936
 H483 H -0.03851 0.04897 1.05046
 H484 H 0.02498 0.07619 1.01499
 H485 H -0.02298 -0.09134 1.00066
 H486 H 0.04268 -0.06461 0.96513
 H487 H 0.06230 -0.02682 0.96024
 H488 H 0.05611 0.05448 0.98871
 H489 H -0.05211 -0.06885 0.98764
 H490 H -0.04697 0.00659 0.94648
 H491 H 0.04821 -0.01949 1.06686
 H492 H 0.05491 0.05397 1.02485
 Zr493 Zr 0.51087 0.47002 0.52921
 O494 O 0.53690 0.48218 0.54880
 O495 O 0.50104 0.43835 0.54488
 O496 O 0.49865 0.47861 0.55969
 O497 O 0.54285 0.44151 0.49130
 O498 O 0.47088 0.50590 0.55328
 O499 O 0.53940 0.44723 0.52683
 O500 O 0.46959 0.42716 0.52763
 O501 O 0.47631 0.47222 0.52666
 O502 O 0.50172 0.44744 0.50421
 O503 O 0.50350 0.50715 0.52456
 O504 O 0.52835 0.48332 0.50268
 Zr505 Zr 0.47616 0.50085 0.46848
 Zr506 Zr 0.46913 0.50878 0.52022
 Zr507 Zr 0.51733 0.46176 0.47754
 Zr508 Zr 0.46761 0.45070 0.50108
 O509 O 0.54810 0.47049 0.46316
 O510 O 0.43624 0.45061 0.51635
 O511 O 0.48296 0.46333 0.47315
 O512 O 0.45896 0.48702 0.49500
 O513 O 0.48497 0.52361 0.49359
 O514 O 0.51057 0.49828 0.47157
 C515 C 0.48380 0.42493 0.54268
 C516 C 0.54909 0.43803 0.51044
 C517 C 0.48288 0.49289 0.56577
 O518 O 0.43737 0.50047 0.53266
 O519 O 0.44474 0.53097 0.50633
 O520 O 0.44888 0.52535 0.47090
 C521 C 0.43882 0.53462 0.48707
 O522 O 0.54568 0.52381 0.51891
 Zr523 Zr 0.51923 0.51973 0.49715
 O524 O 0.48700 0.53263 0.45295
 O525 O 0.47306 0.54428 0.53249
 O526 O 0.51447 0.55412 0.51158
 O527 O 0.55004 0.52200 0.48097
 O528 O 0.51627 0.54541 0.47264
 C529 C 0.50316 0.54724 0.45678
 O530 O 0.44911 0.49023 0.44943
 O531 O 0.51411 0.42541 0.46701
 O532 O 0.48666 0.48990 0.43783
 O533 O 0.51315 0.46130 0.44472
 O534 O 0.47184 0.41506 0.48892
 O535 O 0.44319 0.44393 0.47775
 C536 C 0.50121 0.47397 0.43197
 H537 H 0.50601 0.43021 0.50649
 H538 H 0.44273 0.48786 0.49290
 H539 H 0.51885 0.50362 0.45883
 H540 H 0.50818 0.51697 0.53682
 H541 H 0.43139 0.43341 0.51765
 H542 H 0.43260 0.51464 0.54118
 H543 H 0.45940 0.54794 0.54061
 H544 H 0.52547 0.56552 0.50533
 H545 H 0.46076 0.40444 0.49602
 H546 H 0.52777 0.42153 0.45895
 H547 H 0.55277 0.45603 0.45496
 H548 H 0.55476 0.53931 0.48098
 H549 H 0.43405 0.42975 0.48210
 H550 H 0.44779 0.50253 0.43794
 H551 H 0.53859 0.46987 0.56024
 H552 H 0.55246 0.54011 0.51705
 Zr553 Zr 0.48446 1.02579 0.52887
 O554 O 0.45936 1.01337 0.54977
 O555 O 0.49338 1.05887 0.54270
 O556 O 0.49722 1.01948 0.55957
 O557 O 0.44827 1.04575 0.49030
 O558 O 0.52668 0.99418 0.55394
 O559 O 0.45445 1.04614 0.52583
 O560 O 0.52354 1.07090 0.52351
 O561 O 0.51900 1.02617 0.52533
 O562 O 0.49134 1.04720 0.50219
 O563 O 0.49427 0.98906 0.52617
 O564 O 0.46762 1.00889 0.50378
 Zr565 Zr 0.52032 0.99355 0.46925
 Zr566 Zr 0.52859 0.98993 0.52108
 Zr567 Zr 0.47636 1.02947 0.47698
 Zr568 Zr 0.52558 1.04644 0.49810
 O569 O 0.44682 1.01689 0.46274
 O570 O 0.55758 1.05061 0.51136
 O571 O 0.51067 1.03053 0.47165
 O572 O 0.53685 1.01065 0.49430
 O573 O 0.51351 0.97190 0.49589
 O574 O 0.48585 0.99334 0.47296
 C575 C 0.51013 1.07285 0.53926
 C576 C 0.44252 1.05075 0.50934
 C577 C 0.51377 1.00654 0.56604
 O578 O 0.55957 1.00224 0.53239
 O579 O 0.55441 0.96904 0.50808
 O580 O 0.54915 0.97142 0.47252
 C581 C 0.56012 0.96426 0.48895
 O582 O 0.45347 0.96785 0.52275
 Zr583 Zr 0.47914 0.97307 0.50007
 O584 O 0.51152 0.96005 0.45589
 O585 O 0.52759 0.95498 0.53536
 O586 O 0.48641 0.94026 0.51651
 O587 O 0.44836 0.96764 0.48474
 O588 O 0.48375 0.94593 0.47721
 C589 C 0.49669 0.94424 0.46110
 O590 O 0.54652 1.00449 0.44895
 O591 O 0.47582 1.06568 0.46530
 O592 O 0.50919 1.00238 0.43838
 O593 O 0.48071 1.02891 0.44413
 O594 O 0.51813 1.08090 0.48452
 O595 O 0.54821 1.05348 0.47298
 C596 C 0.49372 1.01687 0.43190
 H597 H 0.48573 1.06407 0.50370
 H598 H 0.55305 1.01103 0.49180
 H599 H 0.47796 0.98648 0.46068
 H600 H 0.49042 0.97967 0.53908
 H601 H 0.56127 1.06821 0.51099
 H602 H 0.56557 0.98916 0.54159
 H603 H 0.54159 0.95305 0.54333
 H604 H 0.47623 0.92754 0.51121
 H605 H 0.52880 1.09278 0.49037
 H606 H 0.46181 1.06757 0.45735
 H607 H 0.44088 1.03049 0.45407
 H608 H 0.44492 0.94999 0.48543
 H609 H 0.55614 1.06895 0.47562
 H610 H 0.54835 0.99154 0.43820
 H611 H 0.45716 1.02626 0.56050
 H612 H 0.44737 0.95118 0.52142
 Zr613 Zr -0.01418 0.52852 1.02796
 O614 O -0.03905 0.51515 1.04867
 O615 O -0.00642 0.56186 1.04183
 O616 O -0.00140 0.52290 1.05868
 O617 O -0.05049 0.54767 0.98926
 O618 O 0.02908 0.49903 1.05336
 O619 O -0.04458 0.54804 1.02483
 O620 O 0.02385 0.57462 1.02318
 O621 O 0.02036 0.52991 1.02468
 O622 O -0.00757 0.55022 1.00141
 O623 O -0.00342 0.49212 1.02542
 O624 O -0.03045 0.51124 1.00278
 Zr625 Zr 0.02285 0.49743 0.96864
 Zr626 Zr 0.03091 0.49399 1.02053
 Zr627 Zr -0.02196 0.53215 0.97610
 Zr628 Zr 0.02672 0.55042 0.99759
 O629 O -0.05111 0.51880 0.96165
 O630 O 0.05851 0.55543 1.01108
 O631 O 0.01236 0.53415 0.97101
 O632 O 0.03885 0.51494 0.99380
 O633 O 0.01639 0.47557 0.99523
 O634 O -0.01163 0.49632 0.97217
 C635 C 0.01012 0.57620 1.03873
 C636 C -0.05647 0.55244 1.00828
 C637 C 0.01575 0.51108 1.06531
 O638 O 0.06176 0.50697 1.03160
 O639 O 0.05707 0.47345 1.00764
 O640 O 0.05193 0.47572 0.97205
 C641 C 0.06289 0.46869 0.98854
 O642 O -0.04353 0.46968 1.02187
 Zr643 Zr -0.01802 0.47577 0.99919
 O644 O 0.01467 0.46392 0.95496
 O645 O 0.03047 0.45929 1.03528
 O646 O -0.00976 0.44309 1.01540
 O647 O -0.04872 0.46944 0.98397
 O648 O -0.01300 0.44907 0.97603
 C649 C -0.00007 0.44788 0.95988
 O650 O 0.04905 0.50932 0.94874
 O651 O -0.02323 0.56835 0.96444
 O652 O 0.01175 0.50595 0.93769
 O653 O -0.01734 0.53173 0.94327
 O654 O 0.01864 0.58474 0.98408
 O655 O 0.04939 0.55819 0.97266
 C656 C -0.00401 0.52001 0.93112
 H657 H -0.01357 0.56692 1.00290
 H658 H 0.05505 0.51570 0.99137
 H659 H -0.01933 0.48935 0.95984
 H660 H -0.00709 0.48268 1.03834
 H661 H 0.06174 0.57314 1.01087
 H662 H 0.06797 0.49414 1.04095
 H663 H 0.04447 0.45784 1.04332
 H664 H -0.01956 0.43007 1.01000
 H665 H 0.02895 0.59687 0.99013
 H666 H -0.03723 0.56988 0.95641
 H667 H -0.05725 0.53224 0.95292
 H668 H -0.05180 0.45172 0.98476
 H669 H 0.05696 0.57385 0.97543
 H670 H 0.05130 0.49655 0.93791
 H671 H -0.04168 0.52791 1.05943
 H672 H -0.04896 0.45271 1.02072
 Zr673 Zr -0.01752 0.46560 0.46963
 O674 O -0.04194 0.48160 0.45006
 O675 O -0.01308 0.43189 0.45522
 O676 O -0.00510 0.47114 0.43853
 O677 O -0.05343 0.44738 0.50930
 O678 O 0.02643 0.49328 0.44367
 O679 O -0.04895 0.44834 0.47351
 O680 O 0.01597 0.41522 0.47313
 O681 O 0.01696 0.46147 0.47148
 O682 O -0.01137 0.44270 0.49549
 O683 O -0.00458 0.50101 0.47281
 O684 O -0.03199 0.48305 0.49588
 Zr685 Zr 0.02307 0.49188 0.52849
 Zr686 Zr 0.02965 0.49645 0.47643
 Zr687 Zr -0.02385 0.46077 0.52174
 Zr688 Zr 0.02289 0.43971 0.49790
 O689 O -0.05158 0.47594 0.53753
 O690 O 0.05302 0.43318 0.48151
 O691 O 0.01040 0.45610 0.52541
 O692 O 0.03722 0.47413 0.50230
 O693 O 0.01699 0.51491 0.50263
 O694 O -0.01137 0.49562 0.52631
 C695 C 0.00142 0.41513 0.45828
 C696 C -0.06037 0.44376 0.49043
 C697 C 0.01226 0.48262 0.43178
 O698 O 0.05942 0.48183 0.46404
 O699 O 0.05689 0.51520 0.48892
 O700 O 0.05272 0.51257 0.52464
 C701 C 0.06330 0.51963 0.50786
 O702 O -0.04351 0.52583 0.47869
 Zr703 Zr -0.01740 0.51738 0.49995
 O704 O 0.01740 0.52539 0.54331
 O705 O 0.03090 0.53158 0.46249
 O706 O -0.00818 0.54986 0.48386
 O707 O -0.04685 0.52550 0.51693
 O708 O -0.00934 0.54312 0.52303
 C709 C 0.00404 0.54292 0.53877
 O710 O 0.04932 0.47731 0.54670
 O711 O -0.02728 0.42443 0.53270
 O712 O 0.01254 0.48295 0.55966
 O713 O -0.01786 0.45908 0.55423
 O714 O 0.01375 0.40625 0.51246
 O715 O 0.04702 0.42943 0.52063
 C716 C -0.00355 0.46930 0.56625
 H717 H -0.01847 0.42652 0.49410
 H718 H 0.05343 0.47229 0.50406
 H719 H -0.01818 0.50272 0.53912
 H720 H -0.00807 0.51118 0.46029
 H721 H 0.05511 0.41528 0.48078
 H722 H 0.06605 0.49455 0.45480
 H723 H 0.04479 0.53239 0.45408
 H724 H -0.01704 0.56335 0.48992
 H725 H 0.02264 0.39322 0.50573
 H726 H -0.04105 0.42379 0.54127
 H727 H -0.05820 0.46280 0.54631
 H728 H -0.04874 0.54345 0.51678
 H729 H 0.05377 0.41369 0.51655
 H730 H 0.05272 0.48939 0.55782
 H731 H -0.04579 0.46936 0.43921
 H732 H -0.04813 0.54299 0.48065
 Zr733 Zr 0.47906 -0.03127 -0.03228
 O734 O 0.45305 -0.01589 -0.05030
 O735 O 0.48462 -0.06386 -0.04806
 O736 O 0.49001 -0.02450 -0.06364
 O737 O 0.44664 -0.05434 0.00816
 O738 O 0.52070 -0.00069 -0.05957
 O739 O 0.44879 -0.05070 -0.02768
 O740 O 0.51815 -0.07574 -0.03520
 O741 O 0.51373 -0.03281 -0.03206
 O742 O 0.48789 -0.05503 -0.00777
 O743 O 0.49022 0.00483 -0.02873
 O744 O 0.46505 -0.01611 -0.00483
 Zr745 Zr 0.52115 -0.00503 0.02527
 Zr746 Zr 0.52483 0.00259 -0.02680
 Zr747 Zr 0.47584 -0.03902 0.01973
 Zr748 Zr 0.52237 -0.05556 -0.00710
 O749 O 0.44780 -0.02698 0.03701
 O750 O 0.55351 -0.05958 -0.02237
 O751 O 0.51043 -0.04149 0.02164
 O752 O 0.53494 -0.02043 -0.00217
 O753 O 0.51253 0.01882 0.00064
 O754 O 0.48652 -0.00353 0.02474
 C755 C 0.50232 -0.07678 -0.04880
 C756 C 0.43875 -0.05725 -0.01046
 C757 C 0.50682 -0.01252 -0.07099
 O758 O 0.55489 -0.00917 -0.04078
 O759 O 0.55161 0.02258 -0.01473
 O760 O 0.54973 0.01714 0.02094
 C761 C 0.55902 0.02585 0.00407
 O762 O 0.45025 0.02620 -0.02013
 Zr763 Zr 0.47795 0.01900 -0.00042
 O764 O 0.51480 0.02756 0.04125
 O765 O 0.52307 0.03811 -0.03987
 O766 O 0.48452 0.05267 -0.01584
 O767 O 0.44910 0.02478 0.01814
 O768 O 0.48583 0.04421 0.02319
 C769 C 0.50027 0.04433 0.03806
 O770 O 0.54871 -0.01905 0.04199
 O771 O 0.47589 -0.07590 0.02969
 O772 O 0.51234 -0.01507 0.05661
 O773 O 0.48292 -0.04057 0.05209
 O774 O 0.51484 -0.09138 0.00345
 O775 O 0.54630 -0.06591 0.01579
 C776 C 0.49700 -0.02939 0.06373
 H777 H 0.48167 -0.07156 -0.00973
 H778 H 0.55129 -0.02127 -0.00112
 H779 H 0.47994 0.00270 0.03799
 H780 H 0.48555 0.01513 -0.04081
 H781 H 0.55637 -0.07728 -0.02382
 H782 H 0.56037 0.00443 -0.04977
 H783 H 0.53643 0.04020 -0.04885
 H784 H 0.47526 0.06525 -0.00891
 H785 H 0.52445 -0.10260 -0.00468
 H786 H 0.46262 -0.07817 0.03877
 H787 H 0.44245 -0.04101 0.04555
 H788 H 0.44622 0.04257 0.01838
 H789 H 0.55305 -0.08169 0.01178
 H790 H 0.55215 -0.00727 0.05334
 H791 H 0.44934 -0.02786 -0.06142
 H792 H 0.44501 0.04308 -0.01777
 Zr793 Zr 0.51873 0.54605 -0.02913
 O794 O 0.54519 0.53515 -0.04899
 O795 O 0.51000 0.57947 -0.04268
 O796 O 0.50763 0.54001 -0.06044
 O797 O 0.55053 0.56923 0.01136
 O798 O 0.47889 0.51335 -0.05629
 O799 O 0.54780 0.56751 -0.02452
 O800 O 0.47864 0.59015 -0.02476
 O801 O 0.48403 0.54475 -0.02737
 O802 O 0.50938 0.56637 -0.00269
 O803 O 0.51030 0.50888 -0.02712
 O804 O 0.53500 0.52964 -0.00330
 Zr805 Zr 0.48122 0.51067 0.02866
 Zr806 Zr 0.47576 0.50795 -0.02359
 Zr807 Zr 0.52377 0.54901 0.02314
 Zr808 Zr 0.47509 0.56396 -0.00038
 O809 O 0.55359 0.53759 0.03768
 O810 O 0.44435 0.56661 -0.01634
 O811 O 0.48925 0.54819 0.02677
 O812 O 0.46526 0.52753 0.00289
 O813 O 0.49036 0.49019 0.00216
 O814 O 0.51581 0.51232 0.02650
 C815 C 0.49317 0.59335 -0.03950
 C816 C 0.55743 0.57446 -0.00735
 C817 C 0.49183 0.52661 -0.06775
 O818 O 0.44473 0.51862 -0.03609
 O819 O 0.45049 0.48521 -0.01175
 O820 O 0.45350 0.48719 0.02406
 C821 C 0.44391 0.47969 0.00704
 O822 O 0.55209 0.49039 -0.02162
 Zr823 Zr 0.52481 0.49319 -0.00042
 O824 O 0.49049 0.47698 0.04177
 O825 O 0.47907 0.47353 -0.03815
 O826 O 0.52008 0.46068 -0.01776
 O827 O 0.55474 0.48842 0.01659
 O828 O 0.51989 0.46500 0.02162
 C829 C 0.50602 0.46194 0.03685
 O830 O 0.45378 0.52041 0.04779
 O831 O 0.52164 0.58449 0.03593
 O832 O 0.49082 0.51861 0.06019
 O833 O 0.51805 0.54706 0.05573
 O834 O 0.47983 0.59796 0.01469
 O835 O 0.45003 0.56928 0.02284
 C836 C 0.50528 0.53383 0.06735
 H837 H 0.51423 0.58359 -0.00362
 H838 H 0.44895 0.52700 0.00460
 H839 H 0.52338 0.50543 0.03903
 H840 H 0.51517 0.50002 -0.03990
 H841 H 0.43997 0.58403 -0.01650
 H842 H 0.43977 0.50536 -0.04552
 H843 H 0.46570 0.47121 -0.04694
 H844 H 0.53052 0.44833 -0.01213
 H845 H 0.46925 0.60968 0.00832
 H846 H 0.53505 0.58691 0.04466
 H847 H 0.55832 0.55095 0.04710
 H848 H 0.55895 0.47100 0.01564
 H849 H 0.44129 0.58400 0.01923
 H850 H 0.45174 0.50716 0.05836
 H851 H 0.54750 0.54842 -0.05949
 H852 H 0.55875 0.47394 -0.02040
 Zr853 Zr 0.01939 1.03377 0.47724
 O854 O 0.04608 1.02019 0.45900
 O855 O 0.01232 1.06608 0.46133
 O856 O 0.00875 1.02638 0.44596
 O857 O 0.05008 1.05929 0.51737
 O858 O -0.02025 1.00015 0.45070
 O859 O 0.04885 1.05475 0.48166
 O860 O -0.02113 1.07703 0.47517
 O861 O -0.01534 1.03329 0.47773
 O862 O 0.00931 1.05681 0.50168
 O863 O 0.00999 0.99707 0.48124
 O864 O 0.03408 1.01942 0.50474
 Zr865 Zr -0.02149 1.00454 0.53545
 Zr866 Zr -0.02469 0.99723 0.48347
 Zr867 Zr 0.02203 1.04146 0.52922
 Zr868 Zr -0.02511 1.05529 0.50267
 O869 O 0.05068 1.03097 0.54620
 O870 O -0.05589 1.05727 0.48668
 O871 O -0.01263 1.04167 0.53140
 O872 O -0.03590 1.01947 0.50803
 O873 O -0.01162 0.98147 0.51087
 O874 O 0.01317 1.00532 0.53462
 C875 C -0.00552 1.07878 0.46124
 C876 C 0.05810 1.06262 0.49875
 C877 C -0.00713 1.01287 0.43896
 O878 O -0.05487 1.00753 0.46899
 O879 O -0.05124 0.97658 0.49562
 O880 O -0.04943 0.98123 0.53132
 C881 C -0.05869 0.97284 0.51444
 O882 O 0.05090 0.97811 0.48952
 Zr883 Zr 0.02297 0.98356 0.50952
 O884 O -0.01350 0.97199 0.55128
 O885 O -0.02146 0.96155 0.47140
 O886 O 0.01816 0.94953 0.49454
 O887 O 0.05216 0.97980 0.52780
 O888 O 0.01676 0.95786 0.53345
 C889 C 0.00215 0.95643 0.54823
 O890 O -0.04953 1.01666 0.55265
 O891 O 0.02005 1.07818 0.53911
 O892 O -0.01303 1.01490 0.56668
 O893 O 0.01462 1.04274 0.56153
 O894 O -0.01967 1.09110 0.51395
 O895 O -0.05014 1.06393 0.52512
 C896 C 0.00128 1.03051 0.57341
 H897 H 0.01464 1.07373 0.49964
 H898 H -0.05227 1.01949 0.50913
 H899 H 0.02008 0.99948 0.54787
 H900 H 0.01516 0.98705 0.46924
 H901 H -0.05977 1.07475 0.48511
 H902 H -0.05963 0.99369 0.46008
 H903 H -0.03451 0.95876 0.46229
 H904 H 0.02813 0.93757 0.50144
 H905 H -0.02965 1.10207 0.50592
 H906 H 0.03309 1.08118 0.54818
 H907 H 0.05525 1.04520 0.55471
 H908 H 0.05612 0.96227 0.52816
 H909 H -0.05796 1.07897 0.52065
 H910 H -0.05233 1.00449 0.56401
 H911 H 0.04918 1.03252 0.44784
 H912 H 0.05711 0.96166 0.49209
 Zr913 Zr 0.72581 0.26967 0.21710
 O914 O 0.73585 0.29428 0.19305
 O915 O 0.69508 0.25825 0.20627
 O916 O 0.72938 0.25093 0.18793
 O917 O 0.70857 0.31416 0.25193
 O918 O 0.75112 0.21836 0.19665
 O919 O 0.70588 0.30185 0.21765
 O920 O 0.68445 0.22906 0.23005
 O921 O 0.72583 0.23248 0.22489
 O922 O 0.70819 0.26590 0.24548
 O923 O 0.75934 0.25941 0.21912
 O924 O 0.74233 0.29205 0.23895
 Zr925 Zr 0.75867 0.23963 0.27887
 Zr926 Zr 0.75906 0.22272 0.22856
 Zr927 Zr 0.72550 0.28626 0.26761
 Zr928 Zr 0.70916 0.22913 0.25357
 O929 O 0.73787 0.32068 0.27685
 O930 O 0.70509 0.19269 0.24332
 O931 O 0.72494 0.24959 0.27707
 O932 O 0.74203 0.21751 0.25708
 O933 O 0.77650 0.24324 0.25058
 O934 O 0.75864 0.27672 0.27109
 C935 C 0.68186 0.24158 0.21296
 C936 C 0.70189 0.31694 0.23285
 C937 C 0.73926 0.23064 0.18353
 O938 O 0.74869 0.18640 0.22332
 O939 O 0.78076 0.19815 0.24356
 O940 O 0.78028 0.20914 0.27819
 C941 C 0.78690 0.19547 0.26288
 O942 O 0.77743 0.30566 0.21706
 Zr943 Zr 0.77517 0.28007 0.24231
 O944 O 0.78977 0.25098 0.28933
 O945 O 0.78902 0.22229 0.21109
 O946 O 0.80353 0.27077 0.22416
 O947 O 0.78174 0.31520 0.25457
 O948 O 0.80209 0.27629 0.26308
 C949 C 0.80465 0.26436 0.28044
 O950 O 0.75002 0.21333 0.30210
 O951 O 0.69351 0.28885 0.28129
 O952 O 0.75191 0.25555 0.30857
 O953 O 0.72784 0.28623 0.30061
 O954 O 0.67898 0.23864 0.26872
 O955 O 0.70461 0.20724 0.28105
 C956 C 0.73896 0.27326 0.31380
 H957 H 0.69266 0.27160 0.24438
 H958 H 0.74233 0.20021 0.26164
 H959 H 0.76571 0.28689 0.28202
 H960 H 0.76688 0.26160 0.20532
 H961 H 0.68915 0.18860 0.24468
 H962 H 0.76002 0.17870 0.21415
 H963 H 0.79049 0.20571 0.20514
 H964 H 0.81530 0.28274 0.22743
 H965 H 0.66786 0.22615 0.26490
 H966 H 0.69235 0.30528 0.28762
 H967 H 0.72621 0.32846 0.28559
 H968 H 0.79775 0.31850 0.25242
 H969 H 0.69097 0.19737 0.27956
 H970 H 0.76224 0.21283 0.31253
 H971 H 0.72350 0.29521 0.18279
 H972 H 0.79237 0.31313 0.21692
 Zr973 Zr 0.76984 0.72180 0.71680
 O974 O 0.75940 0.69450 0.69561
 O975 O 0.79958 0.73279 0.70323
 O976 O 0.76487 0.73750 0.68642
 O977 O 0.79029 0.68221 0.75459
 O978 O 0.74122 0.76914 0.69264
 O979 O 0.79062 0.69044 0.71920
 O980 O 0.80899 0.76635 0.72223
 O981 O 0.76874 0.75961 0.72097
 O982 O 0.78875 0.72945 0.74356
 O983 O 0.73609 0.73092 0.71954
 O984 O 0.75526 0.70142 0.74152
 Zr985 Zr 0.73882 0.75739 0.77704
 Zr986 Zr 0.73542 0.76848 0.72539
 Zr987 Zr 0.77323 0.71114 0.76848
 Zr988 Zr 0.78671 0.76687 0.74812
 O989 O 0.76282 0.67746 0.78169
 O990 O 0.78889 0.80265 0.73538
 O991 O 0.77282 0.74868 0.77435
 O992 O 0.75363 0.77747 0.75232
 O993 O 0.71981 0.74994 0.75023
 O994 O 0.73991 0.71968 0.77277
 C995 C 0.81144 0.75175 0.70651
 C996 C 0.79586 0.67732 0.73549
 C997 C 0.75353 0.75627 0.68035
 O998 O 0.74449 0.80413 0.71572
 O999 O 0.71417 0.79433 0.73922
 O1000 O 0.71695 0.78751 0.77465
 C1001 C 0.70934 0.79934 0.75854
 O1002 O 0.71972 0.68418 0.72273
 Zr1003 Zr 0.72220 0.71243 0.74541
 O1004 O 0.70817 0.74673 0.78970
 O1005 O 0.70439 0.76580 0.71016
 O1006 O 0.69255 0.71858 0.72831
 O1007 O 0.71766 0.67847 0.76104
 O1008 O 0.69637 0.71703 0.76737
 C1009 C 0.69373 0.73126 0.78324
 O1010 O 0.74784 0.78598 0.79760
 O1011 O 0.80590 0.71172 0.78051
 O1012 O 0.74691 0.74451 0.80771
 O1013 O 0.77223 0.71456 0.80141
 O1014 O 0.81841 0.75998 0.76122
 O1015 O 0.79213 0.79118 0.77357
 C1016 C 0.76075 0.72801 0.81391
 H1017 H 0.80438 0.72425 0.74200
 H1018 H 0.75305 0.79517 0.75524
 H1019 H 0.73366 0.71049 0.78491
 H1020 H 0.72803 0.72685 0.70643
 H1021 H 0.80474 0.80737 0.73536
 H1022 H 0.73243 0.81033 0.70655
 H1023 H 0.70209 0.78143 0.70255
 H1024 H 0.68147 0.70652 0.73334
 H1025 H 0.82866 0.77240 0.75530
 H1026 H 0.80816 0.69609 0.78813
 H1027 H 0.77530 0.67113 0.79027
 H1028 H 0.70175 0.67419 0.75997
 H1029 H 0.80567 0.80090 0.77078
 H1030 H 0.73601 0.78725 0.80848
 H1031 H 0.77127 0.69289 0.68482
 H1032 H 0.70501 0.67629 0.72394
 Zr1033 Zr 0.22837 0.23417 0.78548
 O1034 O 0.23596 0.20564 0.80691
 O1035 O 0.19949 0.24845 0.79878
 O1036 O 0.23474 0.24827 0.81595
 O1037 O 0.20569 0.19707 0.74744
 O1038 O 0.26084 0.27761 0.81008
 O1039 O 0.20579 0.20447 0.78287
 O1040 O 0.19267 0.28229 0.77874
 O1041 O 0.23278 0.27175 0.78139
 O1042 O 0.21049 0.24421 0.75856
 O1043 O 0.26283 0.23959 0.78298
 O1044 O 0.24156 0.21297 0.76077
 Zr1045 Zr 0.26308 0.26754 0.72546
 Zr1046 Zr 0.26679 0.27696 0.77733
 Zr1047 Zr 0.22464 0.22489 0.73374
 Zr1048 Zr 0.21597 0.28133 0.75394
 O1049 O 0.23211 0.19065 0.72016
 O1050 O 0.21646 0.31666 0.76734
 O1051 O 0.22845 0.26229 0.72780
 O1052 O 0.24983 0.28845 0.75024
 O1053 O 0.28119 0.25759 0.75240
 O1054 O 0.25850 0.23004 0.72978
 C1055 C 0.18871 0.26805 0.79453
 C1056 C 0.20006 0.19196 0.76653
 C1057 C 0.24760 0.26556 0.82225
 O1058 O 0.26070 0.31326 0.78691
 O1059 O 0.29053 0.30033 0.76394
 O1060 O 0.28737 0.29548 0.72834
 C1061 C 0.29587 0.30568 0.74480
 O1062 O 0.27641 0.19221 0.78022
 Zr1063 Zr 0.27549 0.22043 0.75708
 O1064 O 0.29197 0.25303 0.71228
 O1065 O 0.29715 0.27085 0.79311
 O1066 O 0.30586 0.22447 0.77340
 O1067 O 0.27644 0.18576 0.74247
 O1068 O 0.30078 0.22123 0.73407
 C1069 C 0.30415 0.23486 0.71776
 O1070 O 0.25672 0.29739 0.70503
 O1071 O 0.19213 0.22898 0.72180
 O1072 O 0.25438 0.25584 0.69462
 O1073 O 0.22620 0.22897 0.70085
 O1074 O 0.18439 0.27803 0.73968
 O1075 O 0.21345 0.30709 0.72886
 C1076 C 0.23916 0.24096 0.68841
 H1077 H 0.19449 0.24051 0.75996
 H1078 H 0.25198 0.30608 0.74749
 H1079 H 0.26371 0.22021 0.71768
 H1080 H 0.27042 0.23445 0.79610
 H1081 H 0.20112 0.32313 0.76691
 H1082 H 0.27316 0.31808 0.79614
 H1083 H 0.30074 0.28611 0.80065
 H1084 H 0.31604 0.21158 0.76831
 H1085 H 0.17497 0.29134 0.74526
 H1086 H 0.18871 0.21389 0.71393
 H1087 H 0.21922 0.18595 0.71142
 H1088 H 0.29188 0.17966 0.74333
 H1089 H 0.20068 0.31803 0.73147
 H1090 H 0.26865 0.29755 0.69419
 H1091 H 0.22388 0.20519 0.81759
 H1092 H 0.29081 0.18359 0.77932
 Zr1093 Zr 0.27908 0.76262 0.28114
 O1094 O 0.27383 0.79230 0.30175
 O1095 O 0.30651 0.74577 0.29478
 O1096 O 0.27115 0.74997 0.31206
 O1097 O 0.30715 0.79446 0.24194
 O1098 O 0.24255 0.72358 0.30669
 O1099 O 0.30423 0.78967 0.27769
 O1100 O 0.31134 0.71133 0.27526
 O1101 O 0.27171 0.72551 0.27800
 O1102 O 0.29616 0.75031 0.25439
 O1103 O 0.24436 0.76052 0.27876
 O1104 O 0.26803 0.78470 0.25588
 Zr1105 Zr 0.24240 0.73181 0.22204
 Zr1106 Zr 0.23742 0.72357 0.27396
 Zr1107 Zr 0.28396 0.77059 0.22905
 Zr1108 Zr 0.28792 0.71383 0.25077
 O1109 O 0.27966 0.80603 0.21631
 O1110 O 0.28441 0.67918 0.26545
 O1111 O 0.27727 0.73359 0.22411
 O1112 O 0.25368 0.71001 0.24722
 O1113 O 0.22499 0.74395 0.24869
 O1114 O 0.24975 0.76881 0.22536
 C1115 C 0.31611 0.72541 0.29077
 C1116 C 0.31283 0.79955 0.26094
 C1117 C 0.25650 0.73448 0.31869
 O1118 O 0.24060 0.68720 0.28489
 O1119 O 0.21230 0.70190 0.26096
 O1120 O 0.21661 0.70579 0.22530
 C1121 C 0.20719 0.69652 0.24185
 O1122 O 0.23617 0.80968 0.27428
 Zr1123 Zr 0.23361 0.78052 0.25249
 O1124 O 0.21399 0.74793 0.20941
 O1125 O 0.20722 0.73284 0.28899
 O1126 O 0.20362 0.78094 0.27007
 O1127 O 0.23451 0.81428 0.23600
 O1128 O 0.20726 0.78041 0.23081
 C1129 C 0.20241 0.76636 0.21531
 O1130 O 0.24690 0.70157 0.20184
 O1131 O 0.31528 0.76220 0.21576
 O1132 O 0.25157 0.74256 0.19104
 O1133 O 0.28124 0.76753 0.19612
 O1134 O 0.31962 0.71350 0.23616
 O1135 O 0.28836 0.68729 0.22646
 C1136 C 0.26729 0.75651 0.18419
 H1137 H 0.31242 0.75218 0.25560
 H1138 H 0.25025 0.69260 0.24490
 H1139 H 0.24499 0.77886 0.21316
 H1140 H 0.23712 0.76668 0.29173
 H1141 H 0.29914 0.67116 0.26519
 H1142 H 0.22766 0.68385 0.29415
 H1143 H 0.20231 0.71820 0.29697
 H1144 H 0.19463 0.79479 0.26478
 H1145 H 0.32782 0.69931 0.24194
 H1146 H 0.32013 0.77678 0.20766
 H1147 H 0.29265 0.80934 0.20709
 H1148 H 0.21957 0.82169 0.23716
 H1149 H 0.29988 0.67494 0.22958
 H1150 H 0.23493 0.70218 0.19115
 H1151 H 0.28584 0.79174 0.31239
 H1152 H 0.22283 0.82013 0.27323
 Zr1153 Zr 0.21504 0.76305 0.72108
 O1154 O 0.22202 0.79079 0.69867
 O1155 O 0.18605 0.74805 0.70910
 O1156 O 0.22153 0.74752 0.69089
 O1157 O 0.18987 0.79937 0.75875
 O1158 O 0.24842 0.71943 0.69782
 O1159 O 0.19152 0.79213 0.72331
 O1160 O 0.17888 0.71571 0.73093
 O1161 O 0.22010 0.72569 0.72632
 O1162 O 0.19773 0.75368 0.74870
 O1163 O 0.24958 0.75839 0.72338
 O1164 O 0.22783 0.78571 0.74494
 Zr1165 Zr 0.25068 0.73314 0.78169
 Zr1166 Zr 0.25425 0.72137 0.73031
 Zr1167 Zr 0.21150 0.77442 0.77267
 Zr1168 Zr 0.20365 0.71693 0.75431
 O1169 O 0.21848 0.80992 0.78373
 O1170 O 0.20472 0.68175 0.74067
 O1171 O 0.21596 0.73739 0.77965
 O1172 O 0.23763 0.71076 0.75793
 O1173 O 0.26836 0.74228 0.75421
 O1174 O 0.24551 0.77034 0.77631
 C1175 C 0.17463 0.72941 0.71486
 C1176 C 0.18387 0.80356 0.73965
 C1177 C 0.23496 0.73032 0.68522
 O1178 O 0.24878 0.68463 0.72173
 O1179 O 0.27819 0.69863 0.74417
 O1180 O 0.27527 0.70564 0.77951
 C1181 C 0.28367 0.69445 0.76346
 O1182 O 0.26134 0.80683 0.72477
 Zr1183 Zr 0.26193 0.77910 0.74836
 O1184 O 0.27989 0.74824 0.79350
 O1185 O 0.28463 0.72739 0.71431
 O1186 O 0.29181 0.77587 0.73083
 O1187 O 0.26303 0.81395 0.76263
 O1188 O 0.28821 0.77869 0.77010
 C1189 C 0.29230 0.76560 0.78656
 O1190 O 0.24479 0.70420 0.80328
 O1191 O 0.17968 0.76981 0.78636
 O1192 O 0.24212 0.74590 0.81221
 O1193 O 0.21367 0.77219 0.80562
 O1194 O 0.17270 0.71977 0.77013
 O1195 O 0.20199 0.69118 0.77949
 C1196 C 0.22676 0.76075 0.81819
 H1197 H 0.18161 0.75682 0.74775
 H1198 H 0.24008 0.69330 0.76121
 H1199 H 0.25086 0.78069 0.78798
 H1200 H 0.25702 0.76311 0.71000
 H1201 H 0.18951 0.67494 0.74128
 H1202 H 0.26133 0.67970 0.71255
 H1203 H 0.28849 0.71192 0.70717
 H1204 H 0.30176 0.78924 0.73529
 H1205 H 0.16325 0.70620 0.76519
 H1206 H 0.17604 0.78514 0.79382
 H1207 H 0.20594 0.81469 0.79298
 H1208 H 0.27838 0.82018 0.76109
 H1209 H 0.18984 0.67949 0.77682
 H1210 H 0.25687 0.70454 0.81386
 H1211 H 0.20979 0.79058 0.68826
 H1212 H 0.27535 0.81621 0.72521
 Zr1213 Zr 0.28066 0.23205 0.21857
 O1214 O 0.26979 0.20614 0.19628
 O1215 O 0.31142 0.24190 0.20644
 O1216 O 0.27722 0.24877 0.18830
 O1217 O 0.29696 0.18948 0.25578
 O1218 O 0.25715 0.28305 0.19537
 O1219 O 0.29956 0.19930 0.22076
 O1220 O 0.32244 0.27308 0.22762
 O1221 O 0.28179 0.26962 0.22411
 O1222 O 0.29870 0.23713 0.24637
 O1223 O 0.24747 0.24357 0.22036
 O1224 O 0.26372 0.21183 0.24203
 Zr1225 Zr 0.24905 0.26740 0.27888
 Zr1226 Zr 0.24897 0.28074 0.22752
 Zr1227 Zr 0.28100 0.21898 0.27002
 Zr1228 Zr 0.29876 0.27436 0.25228
 O1229 O 0.26800 0.18558 0.28154
 O1230 O 0.30366 0.31031 0.24067
 O1231 O 0.28254 0.25617 0.27724
 O1232 O 0.26623 0.28731 0.25550
 O1233 O 0.23100 0.26248 0.25104
 O1234 O 0.24816 0.22988 0.27329
 C1235 C 0.32449 0.25941 0.21125
 C1236 C 0.30323 0.18511 0.23677
 C1237 C 0.26826 0.26927 0.18284
 O1238 O 0.26030 0.31631 0.22008
 O1239 O 0.22816 0.30685 0.24117
 O1240 O 0.22815 0.29854 0.27647
 C1241 C 0.22205 0.31124 0.26023
 O1242 O 0.22770 0.19835 0.22123
 Zr1243 Zr 0.23127 0.22516 0.24505
 O1244 O 0.21774 0.25790 0.29052
 O1245 O 0.21905 0.28107 0.21022
 O1246 O 0.20284 0.23478 0.22727
 O1247 O 0.22404 0.19083 0.25904
 O1248 O 0.20505 0.23049 0.26652
 C1249 C 0.20282 0.24362 0.28315
 O1250 O 0.25882 0.29485 0.30026
 O1251 O 0.31302 0.21659 0.28338
 O1252 O 0.25523 0.25280 0.30943
 O1253 O 0.27863 0.22103 0.30301
 O1254 O 0.32914 0.26448 0.26672
 O1255 O 0.30443 0.29724 0.27867
 C1256 C 0.26763 0.23491 0.31555
 H1257 H 0.31405 0.23086 0.24527
 H1258 H 0.26645 0.30488 0.25898
 H1259 H 0.24093 0.22056 0.28485
 H1260 H 0.23976 0.24073 0.20683
 H1261 H 0.31973 0.31389 0.24150
 H1262 H 0.24921 0.32379 0.21052
 H1263 H 0.21798 0.29733 0.20341
 H1264 H 0.19073 0.22355 0.23152
 H1265 H 0.34049 0.27626 0.26174
 H1266 H 0.31395 0.20053 0.29057
 H1267 H 0.27960 0.17801 0.29047
 H1268 H 0.20793 0.18790 0.25739
 H1269 H 0.31860 0.30608 0.27668
 H1270 H 0.24671 0.29649 0.31081
 H1271 H 0.28195 0.20423 0.18583
 H1272 H 0.21240 0.19185 0.22155
 Zr1273 Zr 0.72617 0.73630 0.28361
 O1274 O 0.73290 0.70734 0.30486
 O1275 O 0.69663 0.75009 0.29594
 O1276 O 0.73146 0.74968 0.31457
 O1277 O 0.70516 0.70009 0.24403
 O1278 O 0.75769 0.77920 0.31003
 O1279 O 0.70381 0.70651 0.27956
 O1280 O 0.68982 0.78383 0.27575
 O1281 O 0.73021 0.77406 0.28021
 O1282 O 0.70945 0.74659 0.25608
 O1283 O 0.76062 0.74238 0.28247
 O1284 O 0.74072 0.71572 0.25916
 Zr1285 Zr 0.76310 0.77132 0.22545
 Zr1286 Zr 0.76430 0.77993 0.27746
 Zr1287 Zr 0.72496 0.72795 0.23160
 Zr1288 Zr 0.71451 0.78385 0.25219
 O1289 O 0.73364 0.69397 0.21819
 O1290 O 0.71393 0.81881 0.26629
 O1291 O 0.72848 0.76549 0.22635
 O1292 O 0.74837 0.79157 0.24988
 O1293 O 0.78008 0.76119 0.25297
 O1294 O 0.75892 0.73367 0.22901
 C1295 C 0.68552 0.76934 0.29129
 C1296 C 0.69851 0.69454 0.26275
 C1297 C 0.74423 0.76670 0.32160
 O1298 O 0.75678 0.81557 0.28794
 O1299 O 0.78740 0.80492 0.26521
 O1300 O 0.78667 0.79972 0.22954
 C1301 C 0.79361 0.81055 0.24634
 O1302 O 0.77452 0.69495 0.27945
 Zr1303 Zr 0.77466 0.72383 0.25693
 O1304 O 0.79317 0.75800 0.21377
 O1305 O 0.79452 0.77432 0.29359
 O1306 O 0.80397 0.72743 0.27500
 O1307 O 0.77702 0.68976 0.24143
 O1308 O 0.80138 0.72605 0.23556
 C1309 C 0.80563 0.74033 0.21988
 O1310 O 0.75717 0.80129 0.20501
 O1311 O 0.69310 0.73170 0.21810
 O1312 O 0.75603 0.76002 0.19414
 O1313 O 0.72783 0.73280 0.19890
 O1314 O 0.68381 0.78030 0.23632
 O1315 O 0.71274 0.81016 0.22747
 C1316 C 0.74112 0.74524 0.18716
 H1317 H 0.69344 0.74267 0.25672
 H1318 H 0.75026 0.80929 0.24744
 H1319 H 0.76496 0.72425 0.21701
 H1320 H 0.76776 0.73708 0.29577
 H1321 H 0.69856 0.82509 0.26534
 H1322 H 0.76878 0.82049 0.29767
 H1323 H 0.79764 0.78951 0.30143
 H1324 H 0.81449 0.71472 0.27020
 H1325 H 0.67388 0.79330 0.24163
 H1326 H 0.69028 0.71671 0.20990
 H1327 H 0.72136 0.68925 0.20871
 H1328 H 0.79249 0.68394 0.24292
 H1329 H 0.69979 0.82091 0.22983
 H1330 H 0.76962 0.80191 0.19472
 H1331 H 0.72033 0.70660 0.31500
 H1332 H 0.78886 0.68620 0.27886
 Zr1333 Zr 0.77460 0.26178 0.78262
 O1334 O 0.76801 0.28651 0.80739
 O1335 O 0.80516 0.24719 0.79169
 O1336 O 0.77034 0.24331 0.81191
 O1337 O 0.79278 0.30591 0.74753
 O1338 O 0.74493 0.21389 0.80446
 O1339 O 0.79629 0.29246 0.78153
 O1340 O 0.81219 0.21816 0.76695
 O1341 O 0.77147 0.22492 0.77469
 O1342 O 0.79043 0.25734 0.75345
 O1343 O 0.74028 0.25480 0.78186
 O1344 O 0.75851 0.28608 0.76172
 Zr1345 Zr 0.73658 0.23644 0.72201
 Zr1346 Zr 0.73743 0.21847 0.77239
 Zr1347 Zr 0.77354 0.27976 0.73236
 Zr1348 Zr 0.78625 0.22103 0.74509
 O1349 O 0.76333 0.31541 0.72385
 O1350 O 0.78835 0.18410 0.75498
 O1351 O 0.77097 0.24347 0.72248
 O1352 O 0.75259 0.21250 0.74307
 O1353 O 0.72034 0.24081 0.75109
 O1354 O 0.73970 0.27317 0.73011
 C1355 C 0.81693 0.22992 0.78383
 C1356 C 0.80032 0.30776 0.76637
 C1357 C 0.75800 0.22500 0.81718
 O1358 O 0.74621 0.18163 0.77790
 O1359 O 0.71418 0.19546 0.75817
 O1360 O 0.71380 0.20691 0.72351
 C1361 C 0.70738 0.19321 0.73907
 O1362 O 0.72480 0.30185 0.78527
 Zr1363 Zr 0.72473 0.27720 0.75951
 O1364 O 0.70592 0.25078 0.71308
 O1365 O 0.70770 0.21988 0.79019
 O1366 O 0.69637 0.26934 0.77826
 O1367 O 0.72088 0.31343 0.74823
 O1368 O 0.69706 0.27735 0.73935
 C1369 C 0.69287 0.26612 0.72205
 O1370 O 0.74209 0.21053 0.69790
 O1371 O 0.80498 0.27993 0.71739
 O1372 O 0.74314 0.25290 0.69212
 O1373 O 0.76964 0.28107 0.69964
 O1374 O 0.81607 0.22837 0.72835
 O1375 O 0.78755 0.19940 0.71738
 C1376 C 0.75703 0.26978 0.68669
 H1377 H 0.80634 0.26174 0.75386
 H1378 H 0.75102 0.19536 0.73853
 H1379 H 0.73299 0.28433 0.71959
 H1380 H 0.73344 0.25742 0.79591
 H1381 H 0.80381 0.17862 0.75258
 H1382 H 0.73471 0.17461 0.78737
 H1383 H 0.70538 0.20340 0.79631
 H1384 H 0.68529 0.28231 0.77552
 H1385 H 0.82646 0.21480 0.73136
 H1386 H 0.80710 0.29643 0.71126
 H1387 H 0.77511 0.32242 0.71470
 H1388 H 0.70526 0.31824 0.75075
 H1389 H 0.80062 0.18850 0.71801
 H1390 H 0.72928 0.21148 0.68815
 H1391 H 0.78093 0.28595 0.81703
 H1392 H 0.71037 0.31041 0.78596
 C1393 C 0.46637 1.02403 0.34511
 C1394 C 0.47437 1.01049 0.32801
 C1395 C 0.46356 1.01185 0.30858
 C1396 C 0.44467 1.02678 0.30577
 C1397 C 0.43792 1.04084 0.32324
 N1398 N 0.44860 1.03891 0.34204
 C1399 C 0.47608 1.02250 0.36663
 N1400 N 0.46993 1.03962 0.38094
 C1401 C 0.47636 1.03878 0.40144
 C1402 C 0.48960 1.01952 0.40892
 C1403 C 0.49677 1.00196 0.39439
 C1404 C 0.49001 1.00332 0.37327
 H1405 H 0.47063 1.00162 0.29566
 H1406 H 0.42342 1.05237 0.32260
 H1407 H 0.47055 1.05287 0.41199
 H1408 H 0.50678 0.98666 0.39952
 H1409 H 0.48890 0.99908 0.32934
 H1410 H 0.49497 0.98892 0.36269
 C1411 C -0.03251 0.52551 0.84466
 C1412 C -0.02483 0.51159 0.82765
 C1413 C -0.03613 0.51233 0.80846
 C1414 C -0.05523 0.52698 0.80579
 C1415 C -0.06164 0.54146 0.82312
 N1416 N -0.05046 0.54015 0.84170
 C1417 C -0.02231 0.52456 0.86600
 N1418 N -0.02829 0.54193 0.88014
 C1419 C -0.02153 0.54152 0.90055
 C1420 C -0.00816 0.52242 0.90813
 C1421 C -0.00110 0.50466 0.89375
 C1422 C -0.00816 0.50560 0.87270
 H1423 H -0.02931 0.50181 0.79559
 H1424 H -0.07625 0.55283 0.82259
 H1425 H -0.02726 0.55576 0.91099
 H1426 H 0.00900 0.48947 0.89897
 H1427 H -0.01017 0.50035 0.82888
 H1428 H -0.00330 0.49101 0.86227
 C1429 C 0.03399 -0.02516 0.85164
 C1430 C 0.02455 -0.01329 0.83413
 C1431 C 0.03486 -0.01495 0.81436
 C1432 C 0.05450 -0.02846 0.81184
 C1433 C 0.06294 -0.04069 0.82959
 N1434 N 0.05271 -0.03866 0.84868
 C1435 C 0.02481 -0.02329 0.87343
 N1436 N 0.03236 -0.03925 0.88826
 C1437 C 0.02644 -0.03795 0.90892
 C1438 C 0.01229 -0.01935 0.91606
 C1439 C 0.00371 -0.00300 0.90104
 C1440 C 0.00995 -0.00485 0.87973
 H1441 H 0.02745 -0.00564 0.80101
 H1442 H 0.07808 -0.05120 0.82850
 H1443 H 0.03338 -0.05112 0.91984
 H1444 H -0.00705 0.01177 0.90586
 H1445 H 0.00939 -0.00291 0.83547
 H1446 H 0.00384 0.00864 0.86870
 C1447 C 0.53589 0.46646 0.34781
 C1448 C 0.55602 0.45385 0.34537
 C1449 C 0.56713 0.45446 0.32600
 C1450 C 0.55833 0.46751 0.30883
 C1451 C 0.53812 0.47992 0.31197
 N1452 N 0.52768 0.47924 0.33110
 C1453 C 0.52411 0.46683 0.36847
 N1454 N 0.51290 0.48722 0.37465
 C1455 C 0.50372 0.48935 0.39431
 C1456 C 0.50604 0.47041 0.40918
 C1457 C 0.51634 0.44877 0.40260
 C1458 C 0.52526 0.44688 0.38236
 H1459 H 0.58291 0.44520 0.32469
 H1460 H 0.53051 0.49003 0.29920
 H1461 H 0.49588 0.50633 0.39870
 H1462 H 0.51825 0.43353 0.41341
 H1463 H 0.56351 0.44416 0.35846
 H1464 H 0.53340 0.43010 0.37785
 C1465 C 0.53658 0.53845 0.15238
 C1466 C 0.55617 0.55183 0.15528
 C1467 C 0.56684 0.55124 0.17475
 C1468 C 0.55811 0.53749 0.19160
 C1469 C 0.53851 0.52417 0.18798
 N1470 N 0.52848 0.52485 0.16873
 C1471 C 0.52522 0.53846 0.13162
 N1472 N 0.51561 0.51768 0.12423
 C1473 C 0.50722 0.51616 0.10428
 C1474 C 0.50880 0.53618 0.09041
 C1475 C 0.51735 0.55811 0.09827
 C1476 C 0.52544 0.55935 0.11877
 H1477 H 0.58222 0.56118 0.17640
 H1478 H 0.53102 0.51342 0.20048
 H1479 H 0.50069 0.49894 0.09884
 H1480 H 0.51862 0.57411 0.08823
 H1481 H 0.56355 0.56219 0.14246
 H1482 H 0.53234 0.57636 0.12428
 C1483 C 0.03249 1.03990 0.65779
 C1484 C 0.05034 1.05584 0.66085
 C1485 C 0.06201 1.05529 0.67980
 C1486 C 0.05620 1.03882 0.69613
 C1487 C 0.03797 1.02320 0.69224
 N1488 N 0.02696 1.02404 0.67352
 C1489 C 0.02068 1.03892 0.63728
 N1490 N 0.01218 1.01733 0.63044
 C1491 C 0.00366 1.01465 0.61067
 C1492 C 0.00409 1.03426 0.59634
 C1493 C 0.01137 1.05699 0.60358
 C1494 C 0.01945 1.05945 0.62402
 H1495 H 0.07631 1.06704 0.68087
 H1496 H 0.03185 1.01069 0.70414
 H1497 H -0.00184 0.99682 0.60567
 H1498 H 0.01176 1.07265 0.59308
 H1499 H 0.05594 1.06802 0.64844
 H1500 H 0.02530 1.07711 0.62906
 C1501 C -0.03472 0.45942 0.65107
 C1502 C -0.05473 0.44663 0.65367
 C1503 C -0.06558 0.44679 0.67314
 C1504 C -0.05663 0.45957 0.69022
 C1505 C -0.03657 0.47222 0.68693
 N1506 N -0.02636 0.47198 0.66770
 C1507 C -0.02335 0.46032 0.63028
 N1508 N -0.01271 0.48106 0.62388
 C1509 C -0.00429 0.48376 0.60395
 C1510 C -0.00699 0.46512 0.58911
 C1511 C -0.01660 0.44312 0.59587
 C1512 C -0.02462 0.44059 0.61638
 H1513 H -0.08130 0.43739 0.67460
 H1514 H -0.02891 0.48218 0.69965
 H1515 H 0.00307 0.50099 0.59933
 H1516 H -0.01874 0.42816 0.58498
 H1517 H -0.06236 0.43718 0.64063
 H1518 H -0.03232 0.42357 0.62107
 C1519 C 0.47026 -0.03560 0.15062
 C1520 C 0.47894 -0.02302 0.16797
 C1521 C 0.46771 -0.02377 0.18734
 C1522 C 0.44786 -0.03702 0.18956
 C1523 C 0.44009 -0.04979 0.17195
 N1524 N 0.45127 -0.04871 0.15329
 C1525 C 0.48053 -0.03486 0.12927
 N1526 N 0.47437 -0.05218 0.11520
 C1527 C 0.48087 -0.05169 0.09467
 C1528 C 0.49400 -0.03247 0.08686
 C1529 C 0.50139 -0.01486 0.10119
 C1530 C 0.49468 -0.01596 0.12241
 H1531 H 0.47462 -0.01408 0.20061
 H1532 H 0.42482 -0.06008 0.17278
 H1533 H 0.47492 -0.06582 0.08427
 H1534 H 0.51129 0.00044 0.09579
 H1535 H 0.49425 -0.01286 0.16679
 H1536 H 0.49962 -0.00146 0.13287
 C1537 C 0.36153 0.42470 0.01274
 C1538 C 0.35181 0.41222 -0.00430
 C1539 C 0.33158 0.40004 -0.00152
 C1540 C 0.32091 0.39983 0.01820
 C1541 C 0.33114 0.41248 0.03482
 N1542 N 0.35078 0.42433 0.03171
 C1543 C 0.38316 0.43808 0.01080
 N1544 N 0.39386 0.44556 0.02860
 C1545 C 0.41338 0.45823 0.02804
 C1546 C 0.42340 0.46436 0.00862
 C1547 C 0.41267 0.45669 -0.00987
 C1548 C 0.39273 0.44381 -0.00889
 H1549 H 0.32465 0.39013 -0.01467
 H1550 H 0.32351 0.41296 0.05030
 H1551 H 0.42087 0.46380 0.04275
 H1552 H 0.41945 0.46102 -0.02531
 H1553 H 0.35974 0.41120 -0.01958
 H1554 H 0.38488 0.43905 -0.02359
 C1555 C -0.14211 0.92026 0.52031
 C1556 C -0.16050 0.92668 0.50796
 C1557 C -0.18021 0.91328 0.50956
 C1558 C -0.18210 0.89308 0.52346
 C1559 C -0.16296 0.88752 0.53560
 N1560 N -0.14403 0.90099 0.53377
 C1561 C -0.12064 0.93374 0.51866
 N1562 N -0.10732 0.93618 0.53592
 C1563 C -0.08756 0.94842 0.53519
 C1564 C -0.07989 0.95878 0.51613
 C1565 C -0.09328 0.95601 0.49815
 C1566 C -0.11350 0.94371 0.49935
 H1567 H -0.19405 0.91964 0.50029
 H1568 H -0.16235 0.87193 0.54603
 H1569 H -0.07782 0.94993 0.54943
 H1570 H -0.08827 0.96361 0.48305
 H1571 H -0.15988 0.94227 0.49742
 H1572 H -0.12325 0.94172 0.48516
 C1573 C -0.14132 0.08756 0.99078
 C1574 C -0.15227 0.09745 1.00849
 C1575 C -0.17303 0.10852 1.00615
 C1576 C -0.18324 0.10970 0.98631
 C1577 C -0.17206 0.09892 0.96915
 N1578 N -0.15179 0.08840 0.97178
 C1579 C -0.11893 0.07591 0.99214
 N1580 N -0.11149 0.06185 0.97584
 C1581 C -0.09151 0.05012 0.97622
 C1582 C -0.07773 0.05188 0.99397
 C1583 C -0.08478 0.06688 1.01061
 C1584 C -0.10509 0.07898 1.00971
 H1585 H -0.18087 0.11656 1.01985
 H1586 H -0.17944 0.09877 0.95361
 H1587 H -0.08678 0.03881 0.96301
 H1588 H -0.07461 0.06914 1.02451
 H1589 H -0.14520 0.09666 1.02411
 H1590 H -0.10961 0.09058 1.02275
 C1591 C 0.35520 0.58617 0.47865
 C1592 C 0.34237 0.58741 0.46017
 C1593 C 0.32197 0.59952 0.46044
 C1594 C 0.31397 0.61041 0.47901
 C1595 C 0.32693 0.60817 0.49729
 N1596 N 0.34686 0.59643 0.49661
 C1597 C 0.37734 0.57379 0.47953
 N1598 N 0.38710 0.57079 0.49871
 C1599 C 0.40690 0.55929 0.50127
 C1600 C 0.41837 0.54955 0.48382
 C1601 C 0.40896 0.55289 0.46377
 C1602 C 0.38860 0.56501 0.46153
 H1603 H 0.31237 0.60032 0.44604
 H1604 H 0.32152 0.61632 0.51195
 H1605 H 0.41339 0.55733 0.51709
 H1606 H 0.41713 0.54579 0.44984
 H1607 H 0.34770 0.57915 0.44558
 H1608 H 0.38201 0.56723 0.44582
 C1609 C 0.14504 0.57501 0.51477
 C1610 C 0.15429 0.58808 0.49765
 C1611 C 0.17383 0.60141 0.50035
 C1612 C 0.18428 0.60214 0.52009
 C1613 C 0.17444 0.58893 0.53683
 N1614 N 0.15543 0.57599 0.53381
 C1615 C 0.12416 0.56050 0.51270
 N1616 N 0.11192 0.55480 0.53025
 C1617 C 0.09261 0.54179 0.52935
 C1618 C 0.08445 0.53365 0.50985
 C1619 C 0.09707 0.53906 0.49168
 C1620 C 0.11678 0.55221 0.49302
 H1621 H 0.18040 0.61173 0.48711
 H1622 H 0.18193 0.58878 0.55233
 H1623 H 0.08361 0.53798 0.54382
 H1624 H 0.09183 0.53297 0.47625
 H1625 H 0.14637 0.58866 0.48239
 H1626 H 0.12617 0.55539 0.47870
 C1627 C 0.64193 0.07887 0.01124
 C1628 C 0.65198 0.09211 -0.00539
 C1629 C 0.67209 0.10419 -0.00206
 C1630 C 0.68226 0.10350 0.01781
 C1631 C 0.67171 0.09009 0.03399
 N1632 N 0.65219 0.07839 0.03036
 C1633 C 0.62038 0.06569 0.00882
 N1634 N 0.60923 0.05788 0.02642
 C1635 C 0.58963 0.04550 0.02549
 C1636 C 0.57998 0.04015 0.00589
 C1637 C 0.59125 0.04801 -0.01242
 C1638 C 0.61130 0.06056 -0.01106
 H1639 H 0.67935 0.11468 -0.01488
 H1640 H 0.67899 0.08889 0.04955
 H1641 H 0.58170 0.03974 0.04005
 H1642 H 0.58476 0.04415 -0.02796
 H1643 H 0.64437 0.09380 -0.02072
 H1644 H 0.61961 0.06558 -0.02559
 C1645 C 0.64577 0.91666 0.48115
 C1646 C 0.65867 0.91635 0.46260
 C1647 C 0.67929 0.90469 0.46259
 C1648 C 0.68743 0.89340 0.48098
 C1649 C 0.67451 0.89501 0.49942
 N1650 N 0.65433 0.90626 0.49900
 C1651 C 0.62327 0.92817 0.48208
 N1652 N 0.61401 0.93243 0.50135
 C1653 C 0.59379 0.94310 0.50378
 C1654 C 0.58132 0.95049 0.48609
 C1655 C 0.59022 0.94573 0.46601
 C1656 C 0.61104 0.93455 0.46392
 H1657 H 0.68888 0.90440 0.44808
 H1658 H 0.68009 0.88658 0.51395
 H1659 H 0.58769 0.94616 0.51963
 H1660 H 0.58123 0.95088 0.45190
 H1661 H 0.65319 0.92502 0.44818
 H1662 H 0.61720 0.93096 0.44821
 C1663 C 0.14799 0.41962 0.98062
 C1664 C 0.16047 0.41831 0.96185
 C1665 C 0.18094 0.40633 0.96178
 C1666 C 0.18938 0.39566 0.98032
 C1667 C 0.17686 0.39816 0.99893
 N1668 N 0.15681 0.40974 0.99858
 C1669 C 0.12569 0.43165 0.98164
 N1670 N 0.11686 0.43683 1.00092
 C1671 C 0.09685 0.44798 1.00339
 C1672 C 0.08411 0.45490 0.98572
 C1673 C 0.09262 0.44934 0.96565
 C1674 C 0.11323 0.43769 0.96353
 H1675 H 0.19019 0.40537 0.94712
 H1676 H 0.18264 0.39023 1.01360
 H1677 H 0.09109 0.45173 1.01925
 H1678 H 0.08345 0.45414 0.95156
 H1679 H 0.15479 0.42648 0.94729
 H1680 H 0.11902 0.43343 0.94782
 C1681 C 0.00668 0.33708 0.39879
 C1682 C -0.00809 0.33280 0.38211
 C1683 C -0.00340 0.31447 0.36762
 C1684 C 0.01582 0.30033 0.36982
 C1685 C 0.02978 0.30474 0.38702
 N1686 N 0.02495 0.32276 0.40080
 C1687 C 0.00349 0.35675 0.41426
 N1688 N 0.01577 0.35616 0.43225
 C1689 C 0.01501 0.37420 0.44677
 C1690 C 0.00141 0.39456 0.44345
 C1691 C -0.01159 0.39545 0.42513
 C1692 C -0.01055 0.37669 0.41048
 H1693 H -0.01464 0.31152 0.35460
 H1694 H 0.04445 0.29378 0.38963
 H1695 H 0.02529 0.37273 0.46069
 H1696 H -0.02217 0.41094 0.42179
 H1697 H -0.02316 0.34321 0.38017
 H1698 H -0.02011 0.37842 0.39617
 C1699 C 0.51674 -0.12917 -0.12541
 C1700 C 0.50195 -0.12954 -0.14250
 C1701 C 0.50475 -0.14690 -0.15825
 C1702 C 0.52246 -0.16338 -0.15717
 C1703 C 0.53827 -0.16043 -0.14122
 N1704 N 0.53481 -0.14396 -0.12571
 C1705 C 0.51234 -0.11521 -0.10606
 N1706 N 0.52926 -0.11175 -0.09225
 C1707 C 0.52629 -0.10061 -0.07338
 C1708 C 0.50521 -0.09229 -0.06746
 C1709 C 0.48742 -0.09622 -0.08122
 C1710 C 0.49088 -0.10770 -0.10045
 H1711 H 0.49240 -0.14846 -0.17052
 H1712 H 0.55221 -0.17275 -0.13983
 H1713 H 0.54052 -0.09768 -0.06336
 H1714 H 0.47086 -0.09007 -0.07728
 H1715 H 0.48784 -0.11743 -0.14333
 H1716 H 0.47674 -0.11100 -0.11044
 C1717 C -0.01373 -0.14616 1.10971
 C1718 C 0.00080 -0.15087 1.12654
 C1719 C -0.00266 -0.17124 1.13932
 C1720 C -0.02038 -0.18702 1.13532
 C1721 C -0.03488 -0.18134 1.11878
 N1722 N -0.03112 -0.16145 1.10647
 C1723 C -0.01018 -0.12609 1.09447
 N1724 N -0.02165 -0.12652 1.07601
 C1725 C -0.01924 -0.10909 1.06089
 C1726 C -0.00443 -0.08978 1.06392
 C1727 C 0.00756 -0.08893 1.08284
 C1728 C 0.00462 -0.10686 1.09819
 H1729 H 0.00881 -0.17496 1.15205
 H1730 H -0.04860 -0.19322 1.11500
 H1731 H -0.02892 -0.11038 1.04659
 H1732 H 0.01895 -0.07415 1.08599
 H1733 H 0.01515 -0.13969 1.12957
 H1734 H 0.01367 -0.10521 1.11278
 C1735 C 0.47011 0.34877 0.60365
 C1736 C 0.48020 0.34755 0.62360
 C1737 C 0.47853 0.32619 0.63549
 C1738 C 0.46643 0.30644 0.62776
 C1739 C 0.45545 0.30888 0.60843
 N1740 N 0.45774 0.32964 0.59689
 C1741 C 0.47340 0.36955 0.58916
 N1742 N 0.45889 0.37279 0.57298
 C1743 C 0.46169 0.39038 0.55804
 C1744 C 0.48023 0.40576 0.55873
 C1745 C 0.49537 0.40273 0.57531
 C1746 C 0.49208 0.38467 0.59047
 H1747 H 0.48682 0.32497 0.65060
 H1748 H 0.44593 0.29394 0.60204
 H1749 H 0.44954 0.39213 0.54560
 H1750 H 0.50997 0.41412 0.57650
 H1751 H 0.48945 0.36268 0.62995
 H1752 H 0.50450 0.38220 0.60254
 C1753 C 0.53086 1.14150 0.60415
 C1754 C 0.54901 1.15757 0.60410
 C1755 C 0.54987 1.17613 0.61898
 C1756 C 0.53295 1.17841 0.63407
 C1757 C 0.51636 1.16057 0.63490
 N1758 N 0.51554 1.14308 0.61992
 C1759 C 0.52663 1.12400 0.58702
 N1760 N 0.50951 1.10808 0.58954
 C1761 C 0.50347 1.09221 0.57430
 C1762 C 0.51499 1.09171 0.55503
 C1763 C 0.53248 1.10819 0.55190
 C1764 C 0.53831 1.12439 0.56777
 H1765 H 0.56300 1.18952 0.61782
 H1766 H 0.50333 1.16134 0.64669
 H1767 H 0.48992 1.07978 0.57747
 H1768 H 0.54180 1.10848 0.53724
 H1769 H 0.56206 1.15662 0.59241
 H1770 H 0.55159 1.13710 0.56461
 C1771 C 0.02873 0.64361 1.10495
 C1772 C 0.04913 0.65531 1.10778
 C1773 C 0.05107 0.67320 1.12314
 C1774 C 0.03270 0.67958 1.13583
 C1775 C 0.01325 0.66558 1.13368
 N1776 N 0.01174 0.64850 1.11840
 C1777 C 0.02466 0.62667 1.08747
 N1778 N 0.00712 0.61120 1.08905
 C1779 C 0.00169 0.59558 1.07341
 C1780 C 0.01428 0.59498 1.05473
 C1781 C 0.03213 0.61119 1.05254
 C1782 C 0.03732 0.62711 1.06881
 H1783 H 0.06654 0.68310 1.12371
 H1784 H -0.00094 0.66828 1.14388
 H1785 H -0.01219 0.58338 1.07583
 H1786 H 0.04226 0.61140 1.03838
 H1787 H 0.06335 0.65125 1.09797
 H1788 H 0.05086 0.63977 1.06651
 C1789 C 0.48049 0.67058 -0.09970
 C1790 C 0.49640 0.67485 -0.11546
 C1791 C 0.49284 0.69313 -0.13041
 C1792 C 0.47332 0.70728 -0.12991
 C1793 C 0.45772 0.70203 -0.11384
 N1794 N 0.46173 0.68425 -0.09940
 C1795 C 0.48377 0.65145 -0.08354
 N1796 N 0.50175 0.63656 -0.08473
 C1797 C 0.50533 0.61833 -0.07060
 C1798 C 0.49019 0.61416 -0.05406
 C1799 C 0.47169 0.62951 -0.05235
 C1800 C 0.46842 0.64814 -0.06705
 H1801 H 0.50517 0.69547 -0.14271
 H1802 H 0.44278 0.71267 -0.11190
 H1803 H 0.51984 0.60695 -0.07256
 H1804 H 0.45956 0.62694 -0.03988
 H1805 H 0.51146 0.66416 -0.11631
 H1806 H 0.45394 0.65968 -0.06558
 C1807 C -0.01876 1.13325 0.38508
 C1808 C -0.03948 1.14005 0.37714
 C1809 C -0.04058 1.15611 0.36011
 C1810 C -0.02101 1.16547 0.35076
 C1811 C -0.00074 1.15537 0.35754
 N1812 N -0.00015 1.14022 0.37451
 C1813 C -0.01622 1.11981 0.40511
 N1814 N 0.00377 1.10949 0.40930
 C1815 C 0.00791 1.09748 0.42760
 C1816 C -0.00873 1.09521 0.44306
 C1817 C -0.02926 1.10640 0.43943
 C1818 C -0.03305 1.11881 0.42053
 H1819 H -0.05687 1.16265 0.35590
 H1820 H 0.01479 1.16008 0.34998
 H1821 H 0.02402 1.08916 0.42971
 H1822 H -0.04255 1.10509 0.45092
 H1823 H -0.05477 1.13396 0.38439
 H1824 H -0.04890 1.12761 0.41832
 C1825 C 0.77089 0.70015 0.90129
 C1826 C 0.75875 0.70883 0.91861
 C1827 C 0.76168 0.69815 0.93849
 C1828 C 0.77682 0.67876 0.94155
 C1829 C 0.78911 0.67128 0.92372
 N1830 N 0.78573 0.68183 0.90453
 C1831 C 0.76814 0.70972 0.87943
 N1832 N 0.78299 0.70239 0.86455
 C1833 C 0.78132 0.70877 0.84389
 C1834 C 0.76360 0.72329 0.83684
 C1835 C 0.74828 0.73162 0.85188
 C1836 C 0.75042 0.72484 0.87316
 H1837 H 0.75250 0.70589 0.95153
 H1838 H 0.80061 0.65622 0.92452
 H1839 H 0.79368 0.70204 0.83295
 H1840 H 0.73428 0.74270 0.84713
 H1841 H 0.74727 0.72384 0.91714
 H1842 H 0.73790 0.73085 0.88419
 C1843 C 0.27322 0.20294 0.40247
 C1844 C 0.26010 0.21064 0.41952
 C1845 C 0.26230 0.19925 0.43923
 C1846 C 0.27765 0.18009 0.44240
 C1847 C 0.29074 0.17342 0.42482
 N1848 N 0.28809 0.18468 0.40582
 C1849 C 0.27155 0.21342 0.38076
 N1850 N 0.28642 0.20564 0.36607
 C1851 C 0.28583 0.21293 0.34557
 C1852 C 0.26929 0.22901 0.33844
 C1853 C 0.25399 0.23784 0.35330
 C1854 C 0.25499 0.23007 0.37443
 H1855 H 0.25238 0.20630 0.45207
 H1856 H 0.30238 0.15850 0.42563
 H1857 H 0.29815 0.20576 0.33480
 H1858 H 0.24089 0.25015 0.34849
 H1859 H 0.24835 0.22539 0.41800
 H1860 H 0.24258 0.23670 0.38530
 C1861 C 0.72857 0.30418 0.40011
 C1862 C 0.73874 0.29407 0.41807
 C1863 C 0.73537 0.30486 0.43776
 C1864 C 0.72181 0.32556 0.43969
 C1865 C 0.71158 0.33472 0.42148
 N1866 N 0.71523 0.32403 0.40250
 C1867 C 0.73164 0.29440 0.37849
 N1868 N 0.71829 0.30332 0.36303
 C1869 C 0.72018 0.29650 0.34257
 C1870 C 0.73650 0.27969 0.33640
 C1871 C 0.75039 0.26993 0.35203
 C1872 C 0.74809 0.27728 0.37307
 H1873 H 0.74327 0.29693 0.45150
 H1874 H 0.70113 0.35073 0.42219
 H1875 H 0.70895 0.30446 0.33117
 H1876 H 0.76327 0.25702 0.34795
 H1877 H 0.74905 0.27801 0.41719
 H1878 H 0.75943 0.26995 0.38463
 C1879 C 0.21877 0.79760 0.90228
 C1880 C 0.20410 0.81700 0.90579
 C1881 C 0.20392 0.82878 0.92521
 C1882 C 0.21839 0.82155 0.94154
 C1883 C 0.23300 0.80200 0.93710
 N1884 N 0.23284 0.79085 0.91796
 C1885 C 0.21985 0.78518 0.88159
 N1886 N 0.23947 0.77573 0.87463
 C1887 C 0.24187 0.76612 0.85493
 C1888 C 0.22395 0.76625 0.84088
 C1889 C 0.20335 0.77464 0.84822
 C1890 C 0.20120 0.78390 0.86851
 H1891 H 0.19305 0.84433 0.92676
 H1892 H 0.24410 0.79478 0.94892
 H1893 H 0.25800 0.75970 0.84990
 H1894 H 0.18897 0.77465 0.83803
 H1895 H 0.19330 0.82367 0.89345
 H1896 H 0.18514 0.79036 0.87369
 C1897 C 0.27169 0.78959 0.09791
 C1898 C 0.25729 0.78343 0.08147
 C1899 C 0.25860 0.79596 0.06224
 C1900 C 0.27435 0.81469 0.05895
 C1901 C 0.28894 0.81957 0.07577
 N1902 N 0.28710 0.80728 0.09440
 C1903 C 0.27058 0.77809 0.11920
 N1904 N 0.28774 0.78193 0.13265
 C1905 C 0.28753 0.77399 0.15299
 C1906 C 0.26897 0.76165 0.16122
 C1907 C 0.25130 0.75676 0.14753
 C1908 C 0.25200 0.76497 0.12657
 H1909 H 0.24764 0.79013 0.04979
 H1910 H 0.30110 0.83397 0.07478
 H1911 H 0.30161 0.77808 0.16288
 H1912 H 0.23655 0.74755 0.15325
 H1913 H 0.24527 0.76895 0.08313
 H1914 H 0.23769 0.76189 0.11674
 C1915 C 0.76466 0.30843 0.60209
 C1916 C 0.77804 0.32918 0.59939
 C1917 C 0.77995 0.34010 0.57955
 C1918 C 0.76871 0.33039 0.56220
 C1919 C 0.75551 0.30952 0.56553
 N1920 N 0.75380 0.29925 0.58511
 C1921 C 0.76250 0.29677 0.62320
 N1922 N 0.77676 0.30349 0.63864
 C1923 C 0.77555 0.29449 0.65855
 C1924 C 0.75892 0.27769 0.66427
 C1925 C 0.74420 0.26996 0.64854
 C1926 C 0.74600 0.27942 0.62793
 H1927 H 0.78995 0.35639 0.57790
 H1928 H 0.74677 0.30119 0.55257
 H1929 H 0.78749 0.30090 0.66993
 H1930 H 0.73115 0.25706 0.65223
 H1931 H 0.78680 0.33717 0.61253
 H1932 H 0.73435 0.27364 0.61601
 C1933 C 0.23127 0.20399 0.60431
 C1934 C 0.21809 0.18308 0.60205
 C1935 C 0.21706 0.17138 0.58261
 C1936 C 0.22904 0.18037 0.56518
 C1937 C 0.24244 0.20109 0.56823
 N1938 N 0.24326 0.21217 0.58743
 C1939 C 0.23245 0.21676 0.62488
 N1940 N 0.25193 0.22665 0.63158
 C1941 C 0.25422 0.23635 0.65128
 C1942 C 0.23635 0.23591 0.66558
 C1943 C 0.21587 0.22714 0.65842
 C1944 C 0.21384 0.21771 0.63819
 H1945 H 0.20708 0.15506 0.58135
 H1946 H 0.25194 0.20878 0.55528
 H1947 H 0.27028 0.24302 0.65615
 H1948 H 0.20153 0.22679 0.66877
 H1949 H 0.20893 0.17551 0.61528
 H1950 H 0.19793 0.21074 0.63320
 C1951 C 0.73429 0.70847 0.10338
 C1952 C 0.72026 0.68821 0.10150
 C1953 C 0.71897 0.67593 0.08238
 C1954 C 0.73151 0.68374 0.06490
 C1955 C 0.74590 0.70371 0.06760
 N1956 N 0.74695 0.71539 0.08653
 C1957 C 0.73548 0.72188 0.12357
 N1958 N 0.75535 0.72995 0.13102
 C1959 C 0.75745 0.73966 0.15072
 C1960 C 0.73895 0.74098 0.16422
 C1961 C 0.71820 0.73426 0.15622
 C1962 C 0.71639 0.72487 0.13598
 H1963 H 0.70822 0.66019 0.08135
 H1964 H 0.75590 0.71041 0.05459
 H1965 H 0.77372 0.74474 0.15632
 H1966 H 0.70345 0.73530 0.16600
 H1967 H 0.71053 0.68167 0.11478
 H1968 H 0.70027 0.71926 0.13035
 C1969 C 0.14871 0.61393 0.23533
 C1970 C 0.13929 0.60246 0.25319
 C1971 C 0.12725 0.58091 0.25087
 C1972 C 0.12462 0.57044 0.23088
 C1973 C 0.13461 0.58222 0.21349
 N1974 N 0.14622 0.60325 0.21613
 C1975 C 0.16202 0.63673 0.23680
 N1976 N 0.17564 0.64310 0.22041
 C1977 C 0.18923 0.66292 0.22103
 C1978 C 0.19000 0.67746 0.23918
 C1979 C 0.17545 0.67184 0.25587
 C1980 C 0.16136 0.65175 0.25469
 H1981 H 0.11977 0.57262 0.26472
 H1982 H 0.13343 0.57461 0.19782
 H1983 H 0.20013 0.66660 0.20777
 H1984 H 0.17522 0.68276 0.27006
 H1985 H 0.14133 0.60962 0.26891
 H1986 H 0.15030 0.64818 0.26780
 C1987 C 0.65150 0.10883 0.72710
 C1988 C 0.64950 0.09593 0.70810
 C1989 C 0.63688 0.07458 0.70760
 C1990 C 0.62623 0.06583 0.72592
 C1991 C 0.62899 0.07898 0.74466
 N1992 N 0.64131 0.09976 0.74475
 C1993 C 0.66501 0.13144 0.72899
 N1994 N 0.67058 0.13899 0.74868
 C1995 C 0.68337 0.15892 0.75213
 C1996 C 0.69168 0.17282 0.73510
 C1997 C 0.68568 0.16588 0.71461
 C1998 C 0.67233 0.14529 0.71147
 H1999 H 0.63565 0.06475 0.69287
 H2000 H 0.62100 0.07304 0.75913
 H2001 H 0.68731 0.16358 0.76827
 H2002 H 0.69158 0.17607 0.70101
 H2003 H 0.65779 0.10182 0.69379
 H2004 H 0.66790 0.14052 0.69552
 C2005 C 0.84726 0.11493 0.27756
 C2006 C 0.85457 0.10638 0.29728
 C2007 C 0.86873 0.08619 0.29838
 C2008 C 0.87579 0.07398 0.27993
 C2009 C 0.86783 0.08328 0.26052
 N2010 N 0.85417 0.10301 0.25994
 C2011 C 0.83188 0.13606 0.27498
 N2012 N 0.82275 0.13996 0.25562
 C2013 C 0.80857 0.15863 0.25153
 C2014 C 0.80256 0.17510 0.26749
 C2015 C 0.81185 0.17165 0.28760
 C2016 C 0.82651 0.15228 0.29140
 H2017 H 0.87316 0.07970 0.31395
 H2018 H 0.87299 0.07567 0.24561
 H2019 H 0.80195 0.16045 0.23574
 H2020 H 0.80789 0.18399 0.30036
 H2021 H 0.84916 0.11464 0.31186
 H2022 H 0.83360 0.15045 0.30696
 C2023 C 0.34424 0.61364 0.77430
 C2024 C 0.35390 0.60618 0.79337
 C2025 C 0.36810 0.58610 0.79371
 C2026 C 0.37327 0.57317 0.77507
 C2027 C 0.36287 0.58123 0.75634
 N2028 N 0.34911 0.60091 0.75648
 C2029 C 0.32923 0.63515 0.77267
 N2030 N 0.32454 0.64413 0.75312
 C2031 C 0.31067 0.66331 0.74994
 C2032 C 0.30025 0.67480 0.76712
 C2033 C 0.30493 0.66607 0.78750
 C2034 C 0.31929 0.64627 0.79035
 H2035 H 0.37437 0.58049 0.80894
 H2036 H 0.36633 0.57281 0.74131
 H2037 H 0.30758 0.66927 0.73390
 H2038 H 0.29710 0.67412 0.80120
 H2039 H 0.35088 0.61570 0.80798
 H2040 H 0.32194 0.63959 0.80622
 C2041 C 0.35299 0.39016 0.73844
 C2042 C 0.36488 0.39990 0.75557
 C2043 C 0.37661 0.42171 0.75309
 C2044 C 0.37666 0.43410 0.73367
 C2045 C 0.36448 0.42396 0.71700
 N2046 N 0.35317 0.40268 0.71977
 C2047 C 0.33984 0.36706 0.74002
 N2048 N 0.32736 0.35989 0.72321
 C2049 C 0.31411 0.33971 0.72375
 C2050 C 0.31249 0.32554 0.74223
 C2051 C 0.32574 0.33214 0.75945
 C2052 C 0.33939 0.35259 0.75843
 H2053 H 0.38598 0.42866 0.76630
 H2054 H 0.36379 0.43305 0.70180
 H2055 H 0.30422 0.33536 0.71006
 H2056 H 0.32527 0.32169 0.77402
 H2057 H 0.36536 0.39118 0.77086
 H2058 H 0.34907 0.35682 0.77220
 C2059 C 0.84909 0.89608 0.23861
 C2060 C 0.84400 0.91705 0.25018
 C2061 C 0.85742 0.93768 0.24839
 C2062 C 0.87631 0.93787 0.23511
 C2063 C 0.88041 0.91630 0.22345
 N2064 N 0.86697 0.89645 0.22549
 C2065 C 0.83555 0.87358 0.24082
 N2066 N 0.83186 0.85899 0.22381
 C2067 C 0.81896 0.83855 0.22506
 C2068 C 0.80903 0.83168 0.24435
 C2069 C 0.81329 0.84620 0.26211
 C2070 C 0.82638 0.86701 0.26040
 H2071 H 0.85223 0.95365 0.25699
 H2072 H 0.89480 0.91451 0.21339
 H2073 H 0.81630 0.82786 0.21099
 H2074 H 0.80618 0.84178 0.27739
 H2075 H 0.82950 0.91772 0.26030
 H2076 H 0.82939 0.87777 0.27438
 C2077 C 0.65397 0.88452 0.77016
 C2078 C 0.65069 0.89661 0.78944
 C2079 C 0.63746 0.91752 0.79012
 C2080 C 0.62751 0.92670 0.77168
 C2081 C 0.63159 0.91442 0.75267
 N2082 N 0.64444 0.89400 0.75243
 C2083 C 0.66785 0.86213 0.76822
 N2084 N 0.67439 0.85507 0.74858
 C2085 C 0.68720 0.83507 0.74519
 C2086 C 0.69443 0.82056 0.76222
 C2087 C 0.68760 0.82718 0.78263
 C2088 C 0.67430 0.84781 0.78569
 H2089 H 0.63521 0.92668 0.80507
 H2090 H 0.62419 0.92070 0.73809
 H2091 H 0.69191 0.83074 0.72914
 H2092 H 0.69256 0.81647 0.79623
 H2093 H 0.65840 0.89042 0.80388
 H2094 H 0.66909 0.85213 0.80158
 C2095 C 0.15977 0.39082 0.26739
 C2096 C 0.14840 0.39909 0.24938
 C2097 C 0.13356 0.41848 0.25098
 C2098 C 0.12973 0.42973 0.27048
 C2099 C 0.14089 0.42041 0.28829
 N2100 N 0.15544 0.40152 0.28632
 C2101 C 0.17652 0.37101 0.26591
 N2102 N 0.18006 0.35558 0.28256
 C2103 C 0.19482 0.33670 0.28156
 C2104 C 0.20695 0.33248 0.26292
 C2105 C 0.20396 0.34877 0.24595
 C2106 C 0.18897 0.36792 0.24739
 H2107 H 0.12490 0.42451 0.23695
 H2108 H 0.13846 0.42851 0.30366
 H2109 H 0.19669 0.32474 0.29510
 H2110 H 0.21318 0.34673 0.23135
 H2111 H 0.15072 0.39056 0.23418
 H2112 H 0.18734 0.38027 0.23410
 C2113 C 0.11165 0.28697 0.84379
 C2114 C 0.10291 0.26874 0.85709
 C2115 C 0.08064 0.26953 0.86266
 C2116 C 0.06712 0.28834 0.85501
 C2117 C 0.07673 0.30706 0.84299
 N2118 N 0.09839 0.30567 0.83741
 C2119 C 0.13336 0.28429 0.83349
 N2120 N 0.13654 0.29592 0.81470
 C2121 C 0.15456 0.29182 0.80242
 C2122 C 0.17034 0.27453 0.80866
 C2123 C 0.16804 0.26326 0.82848
 C2124 C 0.14968 0.26827 0.84106
 H2125 H 0.07377 0.25498 0.87230
 H2126 H 0.06679 0.32193 0.83691
 H2127 H 0.15595 0.30129 0.78743
 H2128 H 0.18023 0.25029 0.83412
 H2129 H 0.11256 0.25317 0.86210
 H2130 H 0.14820 0.25925 0.85623
 C2131 C 0.60615 0.78402 0.33825
 C2132 C 0.59845 0.76547 0.35177
 C2133 C 0.57641 0.76543 0.35808
 C2134 C 0.56206 0.78372 0.35094
 C2135 C 0.57052 0.80254 0.33825
 N2136 N 0.59203 0.80200 0.33200
 C2137 C 0.62807 0.78262 0.32820
 N2138 N 0.63083 0.79345 0.30898
 C2139 C 0.64946 0.79036 0.29729
 C2140 C 0.66634 0.77502 0.30464
 C2141 C 0.66435 0.76468 0.32485
 C2142 C 0.64535 0.76866 0.33679
 H2143 H 0.57043 0.75079 0.36815
 H2144 H 0.55985 0.81698 0.33253
 H2145 H 0.65057 0.79902 0.28191
 H2146 H 0.67734 0.75328 0.33132
 H2147 H 0.60882 0.75038 0.35658
 H2148 H 0.64416 0.76049 0.35234
 C2149 C 0.60390 0.22768 0.16398
 C2150 C 0.59806 0.24429 0.14799
 C2151 C 0.57768 0.24202 0.13813
 C2152 C 0.56312 0.22340 0.14426
 C2153 C 0.56955 0.20712 0.16022
 N2154 N 0.58949 0.20975 0.16970
 C2155 C 0.62468 0.23010 0.17567
 N2156 N 0.62552 0.22183 0.19595
 C2157 C 0.64379 0.22467 0.20810
 C2158 C 0.66240 0.23674 0.19988
 C2159 C 0.66212 0.24460 0.17877
 C2160 C 0.64337 0.24118 0.16658
 H2161 H 0.57326 0.25485 0.12577
 H2162 H 0.55856 0.19269 0.16549
 H2163 H 0.64350 0.21810 0.22425
 H2164 H 0.67640 0.25342 0.17164
 H2165 H 0.60874 0.25929 0.14349
 H2166 H 0.64362 0.24713 0.15026
 C2167 C 0.09233 0.72037 0.67238
 C2168 C 0.08542 0.73866 0.65828
 C2169 C 0.06422 0.73770 0.64992
 C2170 C 0.04988 0.71873 0.65573
 C2171 C 0.05715 0.70118 0.67031
 N2172 N 0.07795 0.70245 0.67823
 C2173 C 0.11446 0.72072 0.68182
 N2174 N 0.11732 0.71026 0.70115
 C2175 C 0.13689 0.71148 0.71154
 C2176 C 0.15472 0.72424 0.70255
 C2177 C 0.15248 0.73396 0.68215
 C2178 C 0.13242 0.73207 0.67166
 H2179 H 0.05922 0.75146 0.63856
 H2180 H 0.04639 0.68644 0.67531
 H2181 H 0.13809 0.70354 0.72719
 H2182 H 0.16607 0.74347 0.67449
 H2183 H 0.09607 0.75372 0.65387
 H2184 H 0.13104 0.73969 0.65593
 C2185 C 0.88049 0.77094 0.64697
 C2186 C 0.88987 0.75156 0.63574
 C2187 C 0.91103 0.75405 0.62735
 C2188 C 0.92301 0.77580 0.63009
 C2189 C 0.91194 0.79560 0.63952
 N2190 N 0.89156 0.79242 0.64817
 C2191 C 0.86104 0.76732 0.66058
 N2192 N 0.85948 0.78064 0.67859
 C2193 C 0.84366 0.77631 0.69341
 C2194 C 0.82857 0.75722 0.69064
 C2195 C 0.82948 0.74380 0.67184
 C2196 C 0.84549 0.74896 0.65669
 H2197 H 0.91814 0.73862 0.61918
 H2198 H 0.92012 0.81282 0.64219
 H2199 H 0.84325 0.78742 0.70747
 H2200 H 0.81786 0.72922 0.66880
 H2201 H 0.88181 0.73401 0.63466
 H2202 H 0.84580 0.73844 0.64231
 C2203 C 0.39604 0.27750 0.15413
 C2204 C 0.40185 0.26043 0.13862
 C2205 C 0.42193 0.26285 0.12804
 C2206 C 0.43614 0.28215 0.13289
 C2207 C 0.42932 0.29946 0.14772
 N2208 N 0.40982 0.29652 0.15811
 C2209 C 0.37672 0.27384 0.16788
 N2210 N 0.37726 0.28299 0.18781
 C2211 C 0.36075 0.27884 0.20199
 C2212 C 0.34260 0.26443 0.19635
 C2213 C 0.34144 0.25544 0.17569
 C2214 C 0.35836 0.26025 0.16138
 H2215 H 0.42675 0.24919 0.11662
 H2216 H 0.44001 0.31448 0.15196
 H2217 H 0.36204 0.28644 0.21767
 H2218 H 0.32735 0.24488 0.17047
 H2219 H 0.39173 0.24462 0.13545
 H2220 H 0.35696 0.25340 0.14546
 C2221 C 0.39328 0.70746 0.33925
 C2222 C 0.40066 0.72540 0.35331
 C2223 C 0.42273 0.72562 0.35939
 C2224 C 0.43742 0.70814 0.35148
 C2225 C 0.42926 0.68982 0.33834
 N2226 N 0.40773 0.69018 0.33235
 C2227 C 0.37148 0.70905 0.32911
 N2228 N 0.36902 0.69852 0.30987
 C2229 C 0.35080 0.70224 0.29783
 C2230 C 0.33418 0.71809 0.30480
 C2231 C 0.33572 0.72795 0.32509
 C2232 C 0.35419 0.72320 0.33744
 H2233 H 0.42846 0.73982 0.36985
 H2234 H 0.44017 0.67599 0.33199
 H2235 H 0.35000 0.69393 0.28239
 H2236 H 0.32289 0.73979 0.33122
 H2237 H 0.39006 0.73998 0.35870
 H2238 H 0.35506 0.73116 0.35299
 C2239 C 0.90072 0.21369 0.82270
 C2240 C 0.91534 0.19425 0.81895
 C2241 C 0.93662 0.19508 0.82729
 C2242 C 0.94320 0.21511 0.83938
 C2243 C 0.92791 0.23374 0.84328
 N2244 N 0.90736 0.23260 0.83491
 C2245 C 0.87851 0.21497 0.81344
 N2246 N 0.86358 0.23051 0.82223
 C2247 C 0.84349 0.23483 0.81354
 C2248 C 0.83768 0.22353 0.79457
 C2249 C 0.85259 0.20694 0.78549
 C2250 C 0.87304 0.20265 0.79483
 H2251 H 0.94801 0.18027 0.82413
 H2252 H 0.93221 0.24916 0.85303
 H2253 H 0.83242 0.24758 0.82119
 H2254 H 0.84879 0.19786 0.77081
 H2255 H 0.91051 0.17856 0.80981
 H2256 H 0.88465 0.19073 0.78696
 C2257 C 0.54532 1.00957 0.65134
 C2258 C 0.55116 0.98929 0.66372
 C2259 C 0.56330 0.99253 0.68220
 C2260 C 0.56980 1.01603 0.68871
 C2261 C 0.56234 1.03592 0.67629
 N2262 N 0.55067 1.03220 0.65827
 C2263 C 0.53476 1.00702 0.63035
 N2264 N 0.52299 1.02602 0.62208
 C2265 C 0.51479 1.02574 0.60206
 C2266 C 0.51904 1.00583 0.58884
 C2267 C 0.53069 0.98588 0.59722
 C2268 C 0.53848 0.98635 0.61788
 H2269 H 0.56855 0.97629 0.69052
 H2270 H 0.56539 1.05455 0.68087
 H2271 H 0.50598 1.04153 0.59616
 H2272 H 0.53437 0.97014 0.58757
 H2273 H 0.54676 0.97098 0.65909
 H2274 H 0.54829 0.97115 0.62348
 C2275 C 0.04649 0.51808 1.15095
 C2276 C 0.04620 0.54002 1.16228
 C2277 C 0.05812 0.54179 1.18106
 C2278 C 0.07036 0.52182 1.18866
 C2279 C 0.06970 0.50004 1.17721
 N2280 N 0.05820 0.49885 1.15882
 C2281 C 0.03630 0.51578 1.12976
 N2282 N 0.04414 0.49815 1.11669
 C2283 C 0.03709 0.49571 1.09649
 C2284 C 0.02124 0.51181 1.08810
 C2285 C 0.01219 0.52954 1.10151
 C2286 C 0.01964 0.53158 1.12233
 H2287 H 0.05802 0.55889 1.18951
 H2288 H 0.07902 0.48426 1.18239
 H2289 H 0.04433 0.48152 1.08687
 H2290 H -0.00013 0.54227 1.09574
 H2291 H 0.03766 0.55601 1.15644
 H2292 H 0.01249 0.54548 1.13228
 C2293 C -0.04256 -0.00718 1.15839
 C2294 C -0.04806 0.01305 1.17080
 C2295 C -0.06050 0.00986 1.18924
 C2296 C -0.06761 -0.01355 1.19575
 C2297 C -0.06068 -0.03343 1.18319
 N2298 N -0.04868 -0.02975 1.16520
 C2299 C -0.03149 -0.00449 1.13752
 N2300 N -0.01983 -0.02355 1.12931
 C2301 C -0.01110 -0.02300 1.10940
 C2302 C -0.01467 -0.00270 1.09625
 C2303 C -0.02620 0.01729 1.10457
 C2304 C -0.03453 0.01652 1.12510
 H2305 H -0.06538 0.02613 1.19758
 H2306 H -0.06435 -0.05202 1.18771
 H2307 H -0.00251 -0.03888 1.10349
 H2308 H -0.02944 0.03326 1.09492
 H2309 H -0.04309 0.03129 1.16625
 H2310 H -0.04426 0.03178 1.13064
 C2311 C 0.45075 0.49126 0.65139
 C2312 C 0.44482 0.51171 0.66334
 C2313 C 0.43350 0.50866 0.68245
 C2314 C 0.42788 0.48518 0.69004
 C2315 C 0.43509 0.46517 0.67779
 N2316 N 0.44604 0.46871 0.65920
 C2317 C 0.46112 0.49344 0.63014
 N2318 N 0.47296 0.47434 0.62225
 C2319 C 0.48130 0.47430 0.60221
 C2320 C 0.47725 0.49405 0.58856
 C2321 C 0.46543 0.51407 0.59649
 C2322 C 0.45743 0.51389 0.61717
 H2323 H 0.42828 0.52498 0.69055
 H2324 H 0.43262 0.44660 0.68303
 H2325 H 0.49012 0.45837 0.59667
 H2326 H 0.46180 0.52965 0.58649
 H2327 H 0.44869 0.52999 0.65800
 H2328 H 0.44757 0.52916 0.62247
 C2329 C 0.46242 0.52957 -0.15403
 C2330 C 0.46044 0.55139 -0.16565
 C2331 C 0.44755 0.55187 -0.18392
 C2332 C 0.43653 0.53080 -0.19074
 C2333 C 0.43984 0.50913 -0.17933
 N2334 N 0.45221 0.50917 -0.16141
 C2335 C 0.47297 0.52847 -0.13285
 N2336 N 0.46749 0.50952 -0.11989
 C2337 C 0.47437 0.50799 -0.09956
 C2338 C 0.48742 0.52655 -0.09079
 C2339 C 0.49428 0.54572 -0.10407
 C2340 C 0.48713 0.54675 -0.12510
 H2341 H 0.44565 0.56894 -0.19241
 H2342 H 0.43162 0.49248 -0.18394
 H2343 H 0.46899 0.49259 -0.09006
 H2344 H 0.50442 0.56035 -0.09799
 H2345 H 0.46775 0.56824 -0.16032
 H2346 H 0.49242 0.56189 -0.13489
 C2347 C -0.04106 1.01734 0.35445
 C2348 C -0.04936 0.99732 0.34318
 C2349 C -0.06214 1.00119 0.32517
 C2350 C -0.06640 1.02492 0.31779
 C2351 C -0.05687 1.04441 0.32891
 N2352 N -0.04483 1.04020 0.34673
 C2353 C -0.02949 1.01438 0.37509
 N2354 N -0.01799 1.03353 0.38329
 C2355 C -0.00895 1.03287 0.40302
 C2356 C -0.01190 1.01229 0.41602
 C2357 C -0.02299 0.99213 0.40761
 C2358 C -0.03176 0.99305 0.38733
 H2359 H -0.06914 0.98549 0.31736
 H2360 H -0.05907 1.06301 0.32356
 H2361 H -0.00070 1.04891 0.40896
 H2362 H -0.02578 0.97591 0.41711
 H2363 H -0.04632 0.97874 0.34812
 H2364 H -0.04123 0.97757 0.38203
 C2365 C 0.04492 0.48134 0.34664
 C2366 C 0.05230 0.50202 0.33544
 C2367 C 0.06506 0.49921 0.31723
 C2368 C 0.07010 0.47588 0.30957
 C2369 C 0.06135 0.45567 0.32059
 N2370 N 0.04936 0.45886 0.33865
 C2371 C 0.03384 0.48335 0.36758
 N2372 N 0.02196 0.46414 0.37548
 C2373 C 0.01331 0.46404 0.39544
 C2374 C 0.01713 0.48381 0.40890
 C2375 C 0.02874 0.50397 0.40087
 C2376 C 0.03708 0.50385 0.38038
 H2377 H 0.07146 0.51542 0.30953
 H2378 H 0.06420 0.43734 0.31503
 H2379 H 0.00462 0.44803 0.40115
 H2380 H 0.03216 0.51956 0.41076
 H2381 H 0.04861 0.52029 0.34067
 H2382 H 0.04700 0.51920 0.37528
 C2383 C 0.54056 -0.02186 -0.15538
 C2384 C 0.54276 -0.04461 -0.16527
 C2385 C 0.55621 -0.04675 -0.18321
 C2386 C 0.56752 -0.02637 -0.19139
 C2387 C 0.56437 -0.00387 -0.18140
 N2388 N 0.55142 -0.00230 -0.16383
 C2389 C 0.52878 -0.01879 -0.13490
 N2390 N 0.53414 0.00080 -0.12288
 C2391 C 0.52601 0.00403 -0.10307
 C2392 C 0.51173 -0.01332 -0.09393
 C2393 C 0.50492 -0.03300 -0.10638
 C2394 C 0.51338 -0.03582 -0.12686
 H2395 H 0.55796 -0.06443 -0.19053
 H2396 H 0.57288 0.01229 -0.18703
 H2397 H 0.53149 0.01967 -0.09416
 H2398 H 0.49392 -0.04679 -0.09997
 H2399 H 0.53499 -0.06084 -0.15893
 H2400 H 0.50818 -0.05139 -0.13597
 C2401 C 0.64173 0.62159 0.00238
 C2402 C 0.64680 0.62697 0.02339
 C2403 C 0.66761 0.63600 0.02857
 C2404 C 0.68390 0.64044 0.01291
 C2405 C 0.67804 0.63441 -0.00812
 N2406 N 0.65753 0.62532 -0.01272
 C2407 C 0.61941 0.61180 -0.00288
 N2408 N 0.60263 0.61521 0.01119
 C2409 C 0.58235 0.60499 0.00892
 C2410 C 0.57790 0.58952 -0.00813
 C2411 C 0.59446 0.58666 -0.02361
 C2412 C 0.61528 0.59789 -0.02106
 H2413 H 0.67086 0.63846 0.04518
 H2414 H 0.68925 0.63762 -0.02117
 H2415 H 0.56999 0.60812 0.02105
 H2416 H 0.59173 0.57481 -0.03696
 H2417 H 0.63491 0.62371 0.03595
 H2418 H 0.62827 0.59478 -0.03259
 C2419 C 0.14339 1.11069 0.50297
 C2420 C 0.15606 1.12123 0.48662
 C2421 C 0.17637 1.13248 0.49137
 C2422 C 0.18413 1.13324 0.51233
 C2423 C 0.17104 1.12201 0.52800
 N2424 N 0.15140 1.11147 0.52302
 C2425 C 0.12114 1.09953 0.49985
 N2426 N 0.10784 1.09748 0.51712
 C2427 C 0.08767 1.08666 0.51666
 C2428 C 0.07950 1.07636 0.49793
 C2429 C 0.09268 1.07853 0.47963
 C2430 C 0.11351 1.09017 0.48050
 H2431 H 0.18571 1.14107 0.47873
 H2432 H 0.17639 1.12147 0.54428
 H2433 H 0.07826 1.08578 0.53124
 H2434 H 0.08717 1.07079 0.46487
 H2435 H 0.15019 1.12144 0.47051
 H2436 H 0.12368 1.09107 0.46641
 C2437 C 0.14368 -0.09722 1.00596
 C2438 C 0.15238 -0.09593 0.98536
 C2439 C 0.17040 -0.11041 0.97977
 C2440 C 0.17998 -0.12629 0.99455
 C2441 C 0.17079 -0.12720 1.01501
 N2442 N 0.15296 -0.11300 1.02009
 C2443 C 0.12427 -0.08205 1.01196
 N2444 N 0.10784 -0.09138 1.02453
 C2445 C 0.08842 -0.07916 1.02805
 C2446 C 0.08461 -0.05661 1.01812
 C2447 C 0.10183 -0.04617 1.00622
 C2448 C 0.12166 -0.05864 1.00329
 H2449 H 0.17700 -0.10902 0.96387
 H2450 H 0.17758 -0.13940 1.02681
 H2451 H 0.07544 -0.08780 1.03727
 H2452 H 0.09951 -0.02875 0.99836
 H2453 H 0.14512 -0.08412 0.97351
 H2454 H 0.13453 -0.05037 0.99367
 C2455 C 0.63186 0.38847 0.50273
 C2456 C 0.63655 0.38248 0.48175
 C2457 C 0.65726 0.37329 0.47629
 C2458 C 0.67376 0.36920 0.49169
 C2459 C 0.66818 0.37570 0.51274
 N2460 N 0.64781 0.38506 0.51758
 C2461 C 0.60978 0.39862 0.50824
 N2462 N 0.59233 0.39307 0.49565
 C2463 C 0.57225 0.40384 0.49770
 C2464 C 0.56885 0.42220 0.51271
 C2465 C 0.58608 0.42728 0.52686
 C2466 C 0.60664 0.41536 0.52473
 H2467 H 0.66023 0.37045 0.45967
 H2468 H 0.67948 0.37272 0.52565
 H2469 H 0.55930 0.39906 0.48669
 H2470 H 0.58415 0.44146 0.53855
 H2471 H 0.62445 0.38550 0.46942
 H2472 H 0.62023 0.42025 0.53497
 C2473 C -0.14621 0.39840 0.49622
 C2474 C -0.15766 0.38463 0.48110
 C2475 C -0.17767 0.37321 0.48672
 C2476 C -0.18623 0.37532 0.50734
 C2477 C -0.17433 0.38940 0.52181
 N2478 N -0.15508 0.40036 0.51595
 C2479 C -0.12485 0.41115 0.49198
 N2480 N -0.11808 0.42762 0.50653
 C2481 C -0.09820 0.43900 0.50543
 C2482 C -0.08319 0.43381 0.48906
 C2483 C -0.08993 0.41760 0.47327
 C2484 C -0.11077 0.40613 0.47469
 H2485 H -0.18631 0.36250 0.47505
 H2486 H -0.18044 0.39197 0.53773
 H2487 H -0.09388 0.45165 0.51781
 H2488 H -0.07877 0.41299 0.46046
 H2489 H -0.15150 0.38281 0.46513
 H2490 H -0.11525 0.39293 0.46286
 C2491 C 0.35551 -0.10840 -0.00371
 C2492 C 0.34356 -0.12068 -0.01942
 C2493 C 0.32415 -0.13336 -0.01390
 C2494 C 0.31668 -0.13398 0.00718
 C2495 C 0.32912 -0.12142 0.02227
 N2496 N 0.34776 -0.10918 0.01652
 C2497 C 0.37616 -0.09424 -0.00784
 N2498 N 0.38344 -0.07962 0.00791
 C2499 C 0.40269 -0.06700 0.00672
 C2500 C 0.41650 -0.06884 -0.01112
 C2501 C 0.40918 -0.08312 -0.02805
 C2502 C 0.38901 -0.09595 -0.02646
 H2503 H 0.31510 -0.14285 -0.02607
 H2504 H 0.32385 -0.12095 0.03862
 H2505 H 0.40739 -0.05592 0.02005
 H2506 H 0.41937 -0.08511 -0.04205
 H2507 H 0.34881 -0.12036 -0.03576
 H2508 H 0.38410 -0.10755 -0.03935
 C2509 C 0.36000 1.10170 0.50177
 C2510 C 0.35060 1.10105 0.48151
 C2511 C 0.33172 1.11476 0.47707
 C2512 C 0.32194 1.12932 0.49268
 C2513 C 0.33195 1.12973 0.51274
 N2514 N 0.35055 1.11624 0.51670
 C2515 C 0.38002 1.08683 0.50668
 N2516 N 0.39648 1.09576 0.51921
 C2517 C 0.41615 1.08372 0.52201
 C2518 C 0.42018 1.06171 0.51142
 C2519 C 0.40294 1.05169 0.49950
 C2520 C 0.38292 1.06398 0.49725
 H2521 H 0.32457 1.11370 0.46145
 H2522 H 0.32509 1.14092 0.52517
 H2523 H 0.42907 1.09203 0.53133
 H2524 H 0.40531 1.03465 0.49122
 H2525 H 0.35790 1.09024 0.46904
 H2526 H 0.37005 1.05593 0.48769
 C2527 C -0.13986 0.60164 1.00080
 C2528 C -0.14970 0.60041 0.98075
 C2529 C -0.16870 0.61395 0.97642
 C2530 C -0.17814 0.62894 0.99189
 C2531 C -0.16772 0.62991 1.01174
 N2532 N -0.14902 0.61657 1.01560
 C2533 C -0.11958 0.58716 1.00561
 N2534 N -0.10327 0.59643 1.01813
 C2535 C -0.08340 0.58481 1.02092
 C2536 C -0.07900 0.56292 1.01031
 C2537 C -0.09604 0.55253 0.99838
 C2538 C -0.11629 0.56437 0.99617
 H2539 H -0.17616 0.61247 0.96095
 H2540 H -0.17431 0.64146 1.02405
 H2541 H -0.07064 0.59338 1.03026
 H2542 H -0.09336 0.53555 0.99010
 H2543 H -0.14263 0.58933 0.96834
 H2544 H -0.12902 0.55600 0.98666
 C2545 C -0.00355 0.62498 0.59345
 C2546 C -0.00020 0.62452 0.61536
 C2547 C 0.00021 0.64639 0.62634
 C2548 C -0.00287 0.66852 0.61555
 C2549 C -0.00781 0.66803 0.59398
 N2550 N -0.00779 0.64655 0.58357
 C2551 C -0.00165 0.60306 0.58041
 N2552 N -0.01146 0.60329 0.56115
 C2553 C -0.00955 0.58449 0.54754
 C2554 C 0.00309 0.56394 0.55300
 C2555 C 0.01364 0.56341 0.57268
 C2556 C 0.01135 0.58296 0.58644
 H2557 H 0.00367 0.64613 0.64311
 H2558 H -0.01024 0.68473 0.58510
 H2559 H -0.01795 0.58571 0.53251
 H2560 H 0.02352 0.54788 0.57751
 H2561 H 0.00246 0.60765 0.62390
 H2562 H 0.02009 0.58246 0.60130
 C2563 C 0.49903 0.12775 0.09144
 C2564 C 0.50609 0.12870 0.11249
 C2565 C 0.50937 0.15129 0.12183
 C2566 C 0.50547 0.17275 0.11028
 C2567 C 0.49685 0.17095 0.08986
 N2568 N 0.49412 0.14878 0.08099
 C2569 C 0.49828 0.10492 0.07955
 N2570 N 0.48546 0.10416 0.06199
 C2571 C 0.48559 0.08488 0.04877
 C2572 C 0.49968 0.06502 0.05267
 C2573 C 0.51292 0.06528 0.07081
 C2574 C 0.51228 0.08520 0.08430
 H2575 H 0.51556 0.15202 0.13785
 H2576 H 0.49362 0.18708 0.08044
 H2577 H 0.47500 0.08541 0.03502
 H2578 H 0.52395 0.05027 0.07446
 H2579 H 0.50949 0.11232 0.12151
 H2580 H 0.52330 0.08547 0.09772
 C2581 C 0.00981 0.13809 0.90896
 C2582 C 0.01410 0.16187 0.91588
 C2583 C 0.01070 0.18137 0.90216
 C2584 C 0.00310 0.17720 0.88160
 C2585 C 0.00028 0.15311 0.87491
 N2586 N 0.00330 0.13441 0.88869
 C2587 C 0.00950 0.11731 0.92366
 N2588 N -0.00433 0.09838 0.91948
 C2589 C -0.00664 0.07912 0.93282
 C2590 C 0.00539 0.07829 0.95170
 C2591 C 0.02005 0.09745 0.95613
 C2592 C 0.02220 0.11693 0.94214
 H2593 H 0.01263 0.19972 0.90807
 H2594 H -0.00529 0.14918 0.85907
 H2595 H -0.01784 0.06456 0.92860
 H2596 H 0.02995 0.09738 0.97036
 H2597 H 0.01858 0.16563 0.93205
 H2598 H 0.03379 0.13135 0.94573
 C2599 C 0.51620 0.62677 0.39948
 C2600 C 0.52272 0.64956 0.40730
 C2601 C 0.51769 0.67053 0.39584
 C2602 C 0.50634 0.66874 0.37666
 C2603 C 0.50224 0.64556 0.36838
 N2604 N 0.50667 0.62542 0.38011
 C2605 C 0.51529 0.60514 0.41323
 N2606 N 0.49887 0.58863 0.40987
 C2607 C 0.49487 0.56983 0.42333
 C2608 C 0.50760 0.56715 0.44166
 C2609 C 0.52517 0.58345 0.44500
 C2610 C 0.52913 0.60239 0.43080
 H2611 H 0.52091 0.68811 0.40288
 H2612 H 0.49394 0.64350 0.35338
 H2613 H 0.48151 0.55734 0.41985
 H2614 H 0.53578 0.58174 0.45869
 H2615 H 0.52973 0.65151 0.42289
 H2616 H 0.54266 0.61483 0.43373
 C2617 C 0.48662 0.86255 0.40624
 C2618 C 0.48120 0.83921 0.41391
 C2619 C 0.48547 0.81897 0.40138
 C2620 C 0.49505 0.82203 0.38135
 C2621 C 0.49836 0.84571 0.37357
 N2622 N 0.49457 0.86510 0.38622
 C2623 C 0.48742 0.88384 0.42019
 N2624 N 0.50209 0.90189 0.41538
 C2625 C 0.50540 0.92124 0.42818
 C2626 C 0.49361 0.92309 0.44723
 C2627 C 0.47803 0.90493 0.45229
 C2628 C 0.47483 0.88534 0.43880
 H2629 H 0.48297 0.80093 0.40802
 H2630 H 0.50542 0.84871 0.35803
 H2631 H 0.51727 0.93503 0.42344
 H2632 H 0.46827 0.90584 0.46666
 H2633 H 0.47545 0.83628 0.42992
 H2634 H 0.46264 0.87166 0.44295
 C2635 C -0.01138 0.36876 0.90250
 C2636 C -0.01860 0.34564 0.90926
 C2637 C -0.01407 0.32541 0.89681
 C2638 C -0.00246 0.32829 0.87776
 C2639 C 0.00238 0.35188 0.87056
 N2640 N -0.00166 0.37123 0.88318
 C2641 C -0.01031 0.38955 0.91699
 N2642 N 0.00549 0.40677 0.91335
 C2643 C 0.00921 0.42538 0.92684
 C2644 C -0.00330 0.42726 0.94546
 C2645 C -0.02000 0.40995 0.94935
 C2646 C -0.02363 0.39116 0.93513
 H2647 H -0.01783 0.30742 0.90298
 H2648 H 0.01103 0.35474 0.85574
 H2649 H 0.02196 0.43856 0.92297
 H2650 H -0.03038 0.41098 0.96331
 H2651 H -0.02586 0.34270 0.92471
 H2652 H -0.03672 0.37819 0.93839
 C2653 C 0.51010 0.37284 0.08373
 C2654 C 0.51690 0.35108 0.07406
 C2655 C 0.51154 0.32887 0.08352
 C2656 C 0.49949 0.32841 0.10246
 C2657 C 0.49431 0.35050 0.11229
 N2658 N 0.49933 0.37189 0.10262
 C2659 C 0.51123 0.39638 0.07266
 N2660 N 0.49561 0.41343 0.07732
 C2661 C 0.49393 0.43471 0.06648
 C2662 C 0.50839 0.43960 0.04961
 C2663 C 0.52518 0.42266 0.04505
 C2664 C 0.52671 0.40108 0.05658
 H2665 H 0.51559 0.31214 0.07538
 H2666 H 0.48539 0.35080 0.12715
 H2667 H 0.48100 0.44744 0.07079
 H2668 H 0.53699 0.42590 0.03241
 H2669 H 0.52486 0.35101 0.05873
 H2670 H 0.53973 0.38825 0.05279
 C2671 C 0.00264 0.86947 0.59779
 C2672 C 0.01199 0.84827 0.58915
 C2673 C 0.00543 0.82559 0.59687
 C2674 C -0.01032 0.82409 0.61313
 C2675 C -0.01794 0.84567 0.62241
 N2676 N -0.01172 0.86754 0.61431
 C2677 C 0.00484 0.89322 0.58721
 N2678 N -0.01238 0.90917 0.58865
 C2679 C -0.01322 0.93001 0.57706
 C2680 C 0.00376 0.93537 0.56261
 C2681 C 0.02222 0.91980 0.56169
 C2682 C 0.02288 0.89880 0.57405
 H2683 H 0.01150 0.80930 0.58920
 H2684 H -0.02975 0.84515 0.63533
 H2685 H -0.02754 0.94176 0.57857
 H2686 H 0.03599 0.92357 0.55114
 H2687 H 0.02290 0.84894 0.57557
 H2688 H 0.03714 0.88691 0.57293
 C2689 C 0.27581 0.31353 0.10025
 C2690 C 0.26496 0.30539 0.08206
 C2691 C 0.26565 0.31960 0.06356
 C2692 C 0.27759 0.34178 0.06282
 C2693 C 0.28823 0.34898 0.08160
 N2694 N 0.28682 0.33513 0.09942
 C2695 C 0.27440 0.30056 0.12088
 N2696 N 0.27544 0.31416 0.13871
 C2697 C 0.27392 0.30426 0.15834
 C2698 C 0.27140 0.27900 0.16112
 C2699 C 0.27104 0.26430 0.14305
 C2700 C 0.27230 0.27506 0.12284
 H2701 H 0.25747 0.31259 0.04970
 H2702 H 0.29685 0.36620 0.08264
 H2703 H 0.27462 0.31624 0.17185
 H2704 H 0.26920 0.24473 0.14455
 H2705 H 0.25563 0.28855 0.08221
 H2706 H 0.27185 0.26358 0.10901
 C2707 C 0.76581 0.80218 0.59890
 C2708 C 0.78657 0.80361 0.58879
 C2709 C 0.78929 0.81885 0.57117
 C2710 C 0.77147 0.83276 0.56346
 C2711 C 0.75094 0.83057 0.57386
 N2712 N 0.74875 0.81580 0.59111
 C2713 C 0.76219 0.78781 0.61869
 N2714 N 0.74483 0.79395 0.63137
 C2715 C 0.74107 0.78312 0.65041
 C2716 C 0.75543 0.76491 0.65806
 C2717 C 0.77284 0.75738 0.64484
 C2718 C 0.77630 0.76873 0.62519
 H2719 H 0.80539 0.81979 0.56357
 H2720 H 0.73680 0.84110 0.56864
 H2721 H 0.72723 0.78937 0.65986
 H2722 H 0.78423 0.74331 0.64995
 H2723 H 0.80080 0.79373 0.59464
 H2724 H 0.78996 0.76269 0.61544
 C2725 C 0.22940 0.68569 0.60327
 C2726 C 0.22684 0.66027 0.60365
 C2727 C 0.22545 0.64750 0.58474
 C2728 C 0.22697 0.65989 0.56538
 C2729 C 0.22949 0.68537 0.56561
 N2730 N 0.23051 0.69755 0.58432
 C2731 C 0.23220 0.69905 0.62333
 N2732 N 0.21900 0.71840 0.62834
 C2733 C 0.21999 0.72952 0.64760
 C2734 C 0.23488 0.72110 0.66309
 C2735 C 0.24913 0.70178 0.65763
 C2736 C 0.24775 0.69075 0.63799
 H2737 H 0.22344 0.62788 0.58520
 H2738 H 0.23041 0.69555 0.55093
 H2739 H 0.20877 0.74439 0.65100
 H2740 H 0.26106 0.69457 0.66876
 H2741 H 0.22591 0.65039 0.61849
 H2742 H 0.25854 0.67553 0.63438
 C2743 C 0.72811 0.18385 0.10299
 C2744 C 0.71511 0.16279 0.10187
 C2745 C 0.71368 0.15007 0.08297
 C2746 C 0.72529 0.15800 0.06478
 C2747 C 0.73808 0.17951 0.06669
 N2748 N 0.73903 0.19173 0.08538
 C2749 C 0.73117 0.19625 0.12348
 N2750 N 0.72981 0.22102 0.12507
 C2751 C 0.73203 0.23271 0.14397
 C2752 C 0.73633 0.21929 0.16250
 C2753 C 0.73799 0.19382 0.16092
 C2754 C 0.73534 0.18233 0.14162
 H2755 H 0.70423 0.13332 0.08316
 H2756 H 0.74683 0.18713 0.05327
 H2757 H 0.73073 0.25237 0.14448
 H2758 H 0.74112 0.18262 0.17473
 H2759 H 0.70628 0.15601 0.11563
 H2760 H 0.73676 0.16268 0.14085
 C2761 C 0.76172 0.18512 0.90180
 C2762 C 0.74381 0.17309 0.91162
 C2763 C 0.74682 0.16148 0.93106
 C2764 C 0.76750 0.16204 0.94108
 C2765 C 0.78471 0.17523 0.93120
 N2766 N 0.78147 0.18614 0.91208
 C2767 C 0.75987 0.19599 0.88029
 N2768 N 0.77450 0.21355 0.87390
 C2769 C 0.77413 0.22350 0.85409
 C2770 C 0.75851 0.21555 0.83925
 C2771 C 0.74337 0.19744 0.84559
 C2772 C 0.74404 0.18763 0.86588
 H2773 H 0.73305 0.15153 0.93795
 H2774 H 0.80079 0.17675 0.93857
 H2775 H 0.78622 0.23729 0.84989
 H2776 H 0.73106 0.19052 0.83478
 H2777 H 0.72759 0.17246 0.90447
 H2778 H 0.73260 0.17313 0.86984
 C2779 C 0.25831 0.69690 0.40400
 C2780 C 0.24017 0.68616 0.41459
 C2781 C 0.24359 0.67286 0.43318
 C2782 C 0.26495 0.67048 0.44167
 C2783 C 0.28241 0.68274 0.43128
 N2784 N 0.27874 0.69519 0.41295
 C2785 C 0.25619 0.70881 0.38286
 N2786 N 0.27315 0.72286 0.37524
 C2787 C 0.27320 0.73250 0.35532
 C2788 C 0.25565 0.72763 0.34146
 C2789 C 0.23777 0.71377 0.34922
 C2790 C 0.23797 0.70435 0.36969
 H2791 H 0.22956 0.66381 0.44049
 H2792 H 0.29906 0.68217 0.43752
 H2793 H 0.28731 0.74312 0.35008
 H2794 H 0.22381 0.70946 0.33923
 H2795 H 0.22347 0.68760 0.40865
 H2796 H 0.22435 0.69282 0.37454
 C2797 C 0.73705 0.80349 0.40655
 C2798 C 0.71709 0.80365 0.41808
 C2799 C 0.71542 0.81768 0.43636
 C2800 C 0.73348 0.83161 0.44334
 C2801 C 0.75336 0.83025 0.43185
 N2802 N 0.75450 0.81672 0.41391
 C2803 C 0.73920 0.79135 0.38566
 N2804 N 0.75600 0.79855 0.37266
 C2805 C 0.75842 0.79005 0.35268
 C2806 C 0.74314 0.77335 0.34434
 C2807 C 0.72615 0.76483 0.35768
 C2808 C 0.72415 0.77369 0.37833
 H2809 H 0.69982 0.81798 0.44487
 H2810 H 0.76767 0.84077 0.43655
 H2811 H 0.77201 0.79695 0.34316
 H2812 H 0.71411 0.75181 0.35202
 H2813 H 0.70256 0.79398 0.41276
 H2814 H 0.71085 0.76684 0.38818
 C2815 C 0.23981 0.30527 0.90618
 C2816 C 0.21970 0.30550 0.91748
 C2817 C 0.21773 0.31971 0.93563
 C2818 C 0.23564 0.33379 0.94270
 C2819 C 0.25564 0.33248 0.93135
 N2820 N 0.25709 0.31874 0.91355
 C2821 C 0.24229 0.29259 0.88556
 N2822 N 0.25881 0.29991 0.87227
 C2823 C 0.26140 0.29072 0.85252
 C2824 C 0.24661 0.27311 0.84479
 C2825 C 0.22997 0.26451 0.85850
 C2826 C 0.22778 0.27410 0.87885
 H2827 H 0.20204 0.31995 0.94400
 H2828 H 0.26984 0.34313 0.93612
 H2829 H 0.27468 0.29776 0.84269
 H2830 H 0.21828 0.25084 0.85333
 H2831 H 0.20530 0.29567 0.91209
 H2832 H 0.21475 0.26715 0.88898
 C2833 C 0.86241 0.38450 0.75670
 C2834 C 0.86279 0.39274 0.73567
 C2835 C 0.87807 0.41041 0.72939
 C2836 C 0.89292 0.42018 0.74403
 C2837 C 0.89235 0.41111 0.76488
 N2838 N 0.87737 0.39362 0.77063
 C2839 C 0.84538 0.36668 0.76356
 N2840 N 0.85118 0.34567 0.77381
 C2841 C 0.83633 0.32723 0.77730
 C2842 C 0.81456 0.32928 0.76971
 C2843 C 0.80805 0.35144 0.76049
 C2844 C 0.82332 0.37011 0.75744
 H2845 H 0.87781 0.41701 0.71324
 H2846 H 0.90370 0.41809 0.77657
 H2847 H 0.84197 0.31034 0.78437
 H2848 H 0.79142 0.35371 0.75438
 H2849 H 0.85123 0.38565 0.72420
 H2850 H 0.81821 0.38667 0.74942
 C2851 C 0.37398 0.87921 0.25468
 C2852 C 0.37995 0.89640 0.26989
 C2853 C 0.39260 0.91675 0.26391
 C2854 C 0.39945 0.92035 0.24267
 C2855 C 0.39326 0.90216 0.22816
 N2856 N 0.38098 0.88267 0.23444
 C2857 C 0.36007 0.85745 0.25935
 N2858 N 0.36011 0.83925 0.24490
 C2859 C 0.34632 0.81980 0.24624
 C2860 C 0.33067 0.81799 0.26265
 C2861 C 0.33087 0.83584 0.27842
 C2862 C 0.34555 0.85569 0.27682
 H2863 H 0.39746 0.92907 0.27629
 H2864 H 0.39704 0.90370 0.21153
 H2865 H 0.34695 0.80628 0.23388
 H2866 H 0.31889 0.83521 0.29120
 H2867 H 0.37528 0.89412 0.28629
 H2868 H 0.34463 0.86994 0.28850
 C2869 C 0.12604 0.88596 0.74592
 C2870 C 0.11760 0.90164 0.73033
 C2871 C 0.10539 0.92226 0.73635
 C2872 C 0.10177 0.92754 0.75788
 C2873 C 0.11071 0.91130 0.77285
 N2874 N 0.12222 0.89131 0.76658
 C2875 C 0.13876 0.86347 0.74108
 N2876 N 0.13831 0.84526 0.75570
 C2877 C 0.15120 0.82513 0.75421
 C2878 C 0.16652 0.82262 0.73758
 C2879 C 0.16666 0.84049 0.72161
 C2880 C 0.15270 0.86101 0.72328
 H2881 H 0.09855 0.93383 0.72411
 H2882 H 0.10898 0.91462 0.78958
 H2883 H 0.15028 0.81162 0.76673
 H2884 H 0.17837 0.83934 0.70865
 H2885 H 0.11996 0.89779 0.71373
 H2886 H 0.15378 0.87531 0.71148
 C2887 C 0.64104 0.39488 0.24256
 C2888 C 0.64065 0.40307 0.26353
 C2889 C 0.62508 0.42041 0.26975
 C2890 C 0.60994 0.42992 0.25515
 C2891 C 0.61061 0.42099 0.23435
 N2892 N 0.62583 0.40378 0.22866
 C2893 C 0.65803 0.37694 0.23578
 N2894 N 0.65218 0.35659 0.22482
 C2895 C 0.66678 0.33798 0.22121
 C2896 C 0.68837 0.33910 0.22939
 C2897 C 0.69500 0.36065 0.23935
 C2898 C 0.67998 0.37954 0.24251
 H2899 H 0.62528 0.42690 0.28587
 H2900 H 0.59909 0.42778 0.22265
 H2901 H 0.66100 0.32156 0.21362
 H2902 H 0.71147 0.36220 0.24597
 H2903 H 0.65232 0.39611 0.27502
 H2904 H 0.68520 0.39557 0.25105
 C2905 C 0.63649 0.61504 0.25643
 C2906 C 0.62333 0.60395 0.27215
 C2907 C 0.60889 0.58494 0.26665
 C2908 C 0.60732 0.57722 0.24555
 C2909 C 0.62060 0.58903 0.23042
 N2910 N 0.63465 0.60711 0.23618
 C2911 C 0.65308 0.63443 0.26072
 N2912 N 0.66935 0.63780 0.24610
 C2913 C 0.68451 0.65592 0.24736
 C2914 C 0.68375 0.67282 0.26395
 C2915 C 0.66762 0.66940 0.27979
 C2916 C 0.65221 0.65018 0.27824
 H2917 H 0.59896 0.57630 0.27885
 H2918 H 0.62033 0.58346 0.21406
 H2919 H 0.69680 0.65746 0.23493
 H2920 H 0.66636 0.68207 0.29278
 H2921 H 0.62450 0.60937 0.28850
 H2922 H 0.63936 0.64837 0.29010
 C2923 C 0.13994 0.11272 0.75747
 C2924 C 0.13842 0.10471 0.73651
 C2925 C 0.12310 0.08680 0.73122
 C2926 C 0.10922 0.07662 0.74673
 C2927 C 0.11094 0.08540 0.76751
 N2928 N 0.12598 0.10311 0.77231
 C2929 C 0.15681 0.13115 0.76324
 N2930 N 0.15148 0.15043 0.77583
 C2931 C 0.16582 0.16935 0.77905
 C2932 C 0.18652 0.16965 0.76882
 C2933 C 0.19270 0.14924 0.75696
 C2934 C 0.17804 0.13000 0.75424
 H2935 H 0.12248 0.08048 0.71507
 H2936 H 0.10036 0.07816 0.77989
 H2937 H 0.16047 0.18484 0.78827
 H2938 H 0.20856 0.14874 0.74888
 H2939 H 0.14900 0.11226 0.72426
 H2940 H 0.18296 0.11476 0.74449
 C2941 C 0.36116 0.10379 0.24552
 C2942 C 0.36223 0.09465 0.26627
 C2943 C 0.37761 0.07663 0.27137
 C2944 C 0.39198 0.06746 0.25590
 C2945 C 0.39067 0.07733 0.23536
 N2946 N 0.37561 0.09514 0.23076
 C2947 C 0.34460 0.12273 0.23987
 N2948 N 0.35029 0.14192 0.22713
 C2949 C 0.33639 0.16127 0.22389
 C2950 C 0.31578 0.16215 0.23426
 C2951 C 0.30916 0.14180 0.24622
 C2952 C 0.32338 0.12210 0.24896
 H2953 H 0.37792 0.06946 0.28734
 H2954 H 0.40162 0.07089 0.22302
 H2955 H 0.34210 0.17667 0.21459
 H2956 H 0.29334 0.14172 0.25441
 H2957 H 0.35134 0.10147 0.27852
 H2958 H 0.31812 0.10692 0.25877
 C2959 C 0.85783 0.59996 0.74556
 C2960 C 0.85978 0.59188 0.76657
 C2961 C 0.87588 0.57471 0.77189
 C2962 C 0.89008 0.56534 0.75636
 C2963 C 0.88794 0.57427 0.73557
 N2964 N 0.87217 0.59123 0.73075
 C2965 C 0.84029 0.61769 0.73963
 N2966 N 0.84483 0.63669 0.72626
 C2967 C 0.82992 0.65502 0.72266
 C2968 C 0.80942 0.65502 0.73325
 C2969 C 0.80401 0.63478 0.74588
 C2970 C 0.81926 0.61613 0.74903
 H2971 H 0.87683 0.56825 0.78806
 H2972 H 0.89874 0.56767 0.72317
 H2973 H 0.83473 0.67040 0.71288
 H2974 H 0.78835 0.63408 0.75431
 H2975 H 0.84896 0.59880 0.77883
 H2976 H 0.81493 0.60105 0.75936
 C2977 C 0.89038 0.73487 0.18035
 C2978 C 0.90880 0.72557 0.19116
 C2979 C 0.93001 0.73222 0.18465
 C2980 C 0.93304 0.74838 0.16749
 C2981 C 0.91406 0.75589 0.15633
 N2982 N 0.89362 0.74932 0.16313
 C2983 C 0.86774 0.73289 0.18881
 N2984 N 0.85284 0.75011 0.18269
 C2985 C 0.83252 0.75204 0.19164
 C2986 C 0.82643 0.73637 0.20823
 C2987 C 0.84102 0.71759 0.21403
 C2988 C 0.86165 0.71568 0.20426
 H2989 H 0.94376 0.72613 0.19423
 H2990 H 0.91525 0.76702 0.14222
 H2991 H 0.82161 0.76647 0.18633
 H2992 H 0.83677 0.70476 0.22647
 H2993 H 0.90707 0.71464 0.20533
 H2994 H 0.87272 0.70124 0.20916
 C2995 C 0.38333 0.22204 0.67053
 C2996 C 0.38687 0.22863 0.64932
 C2997 C 0.40800 0.23556 0.64281
 C2998 C 0.42550 0.23534 0.65728
 C2999 C 0.42179 0.22590 0.67757
 N3000 N 0.40094 0.22006 0.68375
 C3001 C 0.36109 0.22138 0.68000
 N3002 N 0.35863 0.21064 0.69930
 C3003 C 0.34011 0.21363 0.71120
 C3004 C 0.32315 0.22908 0.70413
 C3005 C 0.32492 0.23951 0.68394
 C3006 C 0.34381 0.23567 0.67181
 H3007 H 0.41050 0.24210 0.62680
 H3008 H 0.43501 0.22513 0.68905
 H3009 H 0.33923 0.20496 0.72658
 H3010 H 0.31203 0.25127 0.67776
 H3011 H 0.37339 0.22965 0.63814
 H3012 H 0.34531 0.24526 0.65690
 C3013 C 0.37778 0.77269 0.82310
 C3014 C 0.38366 0.76800 0.84413
 C3015 C 0.40564 0.76280 0.84891
 C3016 C 0.42168 0.76247 0.83282
 C3017 C 0.41538 0.76885 0.81226
 N3018 N 0.39381 0.77348 0.80793
 C3019 C 0.35458 0.77433 0.81637
 N3020 N 0.35004 0.78568 0.79774
 C3021 C 0.32979 0.78451 0.78863
 C3022 C 0.31298 0.77041 0.79797
 C3023 C 0.31702 0.75935 0.81760
 C3024 C 0.33778 0.76131 0.82688
 H3025 H 0.41006 0.75865 0.86510
 H3026 H 0.42731 0.76895 0.79945
 H3027 H 0.32732 0.79348 0.77355
 H3028 H 0.30445 0.74840 0.82540
 H3029 H 0.37143 0.76787 0.85669
 H3030 H 0.34091 0.75139 0.84138
 C3031 C 0.89116 0.24533 0.30965
 C3032 C 0.89384 0.22457 0.32233
 C3033 C 0.91487 0.21511 0.32547
 C3034 C 0.93356 0.22616 0.31600
 C3035 C 0.92995 0.24677 0.30304
 N3036 N 0.90914 0.25552 0.30012
 C3037 C 0.86903 0.25469 0.30460
 N3038 N 0.86587 0.26549 0.28547
 C3039 C 0.84537 0.27107 0.27824
 C3040 C 0.82662 0.26477 0.29025
 C3041 C 0.82960 0.25551 0.31071
 C3042 C 0.85081 0.25068 0.31804
 H3043 H 0.91628 0.19981 0.33622
 H3044 H 0.94340 0.25559 0.29466
 H3045 H 0.84377 0.27864 0.26250
 H3046 H 0.81553 0.25093 0.32065
 H3047 H 0.87987 0.21531 0.32952
 H3048 H 0.85278 0.24303 0.33371
 C3049 C 0.11652 0.24527 0.31995
 C3050 C 0.11103 0.25161 0.34074
 C3051 C 0.08889 0.25509 0.34611
 C3052 C 0.07233 0.25217 0.33086
 C3053 C 0.07846 0.24496 0.31049
 N3054 N 0.10014 0.24183 0.30559
 C3055 C 0.13953 0.24308 0.31274
 N3056 N 0.14371 0.22940 0.29536
 C3057 C 0.16401 0.22845 0.28624
 C3058 C 0.18146 0.24241 0.29434
 C3059 C 0.17767 0.25622 0.31257
 C3060 C 0.15672 0.25661 0.32183
 H3061 H 0.08469 0.26000 0.36218
 H3062 H 0.06615 0.24250 0.29831
 H3063 H 0.16621 0.21743 0.27227
 H3064 H 0.19066 0.26730 0.31932
 H3065 H 0.12358 0.25381 0.35273
 H3066 H 0.15389 0.26830 0.33526
 C3067 C 0.60532 0.74453 0.81095
 C3068 C 0.58793 0.73822 0.79731
 C3069 C 0.56719 0.74897 0.79999
 C3070 C 0.56390 0.76601 0.81604
 C3071 C 0.58142 0.77114 0.82977
 N3072 N 0.60148 0.76065 0.82675
 C3073 C 0.62836 0.73718 0.80690
 N3074 N 0.64476 0.75198 0.81401
 C3075 C 0.66623 0.74903 0.80825
 C3076 C 0.67202 0.73076 0.79389
 C3077 C 0.65568 0.71407 0.78770
 C3078 C 0.63384 0.71713 0.79428
 H3079 H 0.55396 0.74459 0.78915
 H3080 H 0.57928 0.78367 0.84276
 H3081 H 0.67835 0.76205 0.81374
 H3082 H 0.65953 0.69938 0.77695
 H3083 H 0.59041 0.72614 0.78409
 H3084 H 0.62140 0.70445 0.78890
 C3085 C 0.60669 0.26743 0.68626
 C3086 C 0.58754 0.26836 0.69898
 C3087 C 0.56769 0.25904 0.69128
 C3088 C 0.56704 0.24873 0.67113
 C3089 C 0.58607 0.24952 0.65847
 N3090 N 0.60522 0.25841 0.66635
 C3091 C 0.62905 0.27184 0.69463
 N3092 N 0.64637 0.26193 0.68390
 C3093 C 0.66718 0.26138 0.69175
 C3094 C 0.67137 0.27062 0.71191
 C3095 C 0.65414 0.28249 0.72270
 C3096 C 0.63293 0.28324 0.71407
 H3097 H 0.55319 0.25869 0.70142
 H3098 H 0.58596 0.24222 0.64262
 H3099 H 0.68011 0.25269 0.68260
 H3100 H 0.65680 0.29026 0.73816
 H3101 H 0.58794 0.27474 0.71508
 H3102 H 0.61982 0.29197 0.72289
 C3103 C 0.11592 0.76430 0.18173
 C3104 C 0.09800 0.76665 0.19583
 C3105 C 0.07754 0.75678 0.19053
 C3106 C 0.07497 0.74458 0.17134
 C3107 C 0.09299 0.74343 0.15737
 N3108 N 0.11282 0.75290 0.16297
 C3109 C 0.13875 0.76993 0.18802
 N3110 N 0.15535 0.75707 0.17871
 C3111 C 0.17640 0.75749 0.18598
 C3112 C 0.18149 0.77079 0.20414
 C3113 C 0.16511 0.78588 0.21289
 C3114 C 0.14370 0.78560 0.20479
 H3115 H 0.06396 0.75792 0.20173
 H3116 H 0.09144 0.73469 0.14217
 H3117 H 0.18872 0.74617 0.17834
 H3118 H 0.16846 0.79678 0.22671
 H3119 H 0.09988 0.77475 0.21123
 H3120 H 0.13110 0.79673 0.21217
   
