data_POSCAR
  _audit_creation_date              2014-09-24
  _audit_creation_method            'ToBaCCo'
  _symmetry_space_group_name_H-M    'P1'
  _symmetry_Int_Tables_number       1
  _symmetry_cell_setting            triclinic
  loop_
  _symmetry_equiv_pos_as_xyz
 x,y,z
_cell_length_a 43.2748
_cell_length_b 43.2604
_cell_length_c 43.2311
_cell_angle_alpha 91.217900
_cell_angle_beta 91.288300
_cell_angle_gamma 88.726800
loop_
  _atom_site_label
  _atom_site_type_symbol
  _atom_site_fract_x
  _atom_site_fract_y
  _atom_site_fract_z
C1 C 0.37501 1.35010 0.32510
 C2 C 0.34563 1.36367 0.31926
 C3 C 0.32159 1.36187 0.34077
 C4 C 0.32800 1.34728 0.36904
 C5 C 0.35715 1.33355 0.37517
 C6 C 0.38021 1.33472 0.35311
 H7 H 0.34169 1.37542 0.29769
 H8 H 0.30997 1.34555 0.38586
 H9 H 0.40245 1.32408 0.35853
 C10 C 0.37148 0.84879 0.82445
 C11 C 0.34201 0.86173 0.81835
 C12 C 0.31829 0.86049 0.84024
 C13 C 0.32513 0.84669 0.86887
 C14 C 0.35451 0.83343 0.87508
 C15 C 0.37739 0.83452 0.85283
 H16 H 0.33789 0.87255 0.79631
 H17 H 0.30728 0.84517 0.88590
 H18 H 0.40000 0.82452 0.85804
 C19 C 0.87264 1.34891 0.82417
 C20 C 0.87832 1.33419 0.85234
 C21 C 0.85541 1.33314 0.87456
 C22 C 0.82619 1.34689 0.86848
 C23 C 0.81959 1.36120 0.84005
 C24 C 0.84337 1.36235 0.81823
 H25 H 0.90080 1.32385 0.85744
 H26 H 0.80829 1.34547 0.88549
 H27 H 0.83947 1.37352 0.79634
 C28 C 0.87578 0.85117 0.32622
 C29 C 0.84633 0.86462 0.32035
 C30 C 0.82224 0.86201 0.34155
 C31 C 0.82837 0.84697 0.36953
 C32 C 0.85762 0.83362 0.37580
 C33 C 0.88091 0.83547 0.35407
 H34 H 0.84215 0.87676 0.29901
 H35 H 0.81005 0.84470 0.38593
 H36 H 0.90320 0.82497 0.35957
 C37 C 0.64358 0.61616 0.33764
 C38 C 0.66468 0.61944 0.36256
 C39 C 0.66151 0.64393 0.38419
 C40 C 0.63669 0.66512 0.38082
 C41 C 0.61532 0.66222 0.35603
 C42 C 0.61887 0.63759 0.33464
 H43 H 0.68418 0.60348 0.36472
 H44 H 0.63440 0.68446 0.39695
 H45 H 0.60297 0.63553 0.31507
 C46 C 0.64614 0.11705 0.83541
 C47 C 0.66638 0.11979 0.86123
 C48 C 0.66293 0.14416 0.88298
 C49 C 0.63847 0.16566 0.87916
 C50 C 0.61775 0.16326 0.85380
 C51 C 0.62175 0.13896 0.83209
 H52 H 0.68550 0.10356 0.86424
 H53 H 0.63591 0.18480 0.89549
 H54 H 0.60625 0.13750 0.81215
 C55 C 1.14188 0.61385 0.83861
 C56 C 1.11738 0.63550 0.83547
 C57 C 1.11396 0.66022 0.85678
 C58 C 1.13523 0.66298 0.88165
 C59 C 1.15986 0.64160 0.88518
 C60 C 1.16292 0.61702 0.86361
 H61 H 1.10153 0.63353 0.81585
 H62 H 1.13306 0.68239 0.89771
 H63 H 1.18228 0.60091 0.86590
 C64 C 1.14757 0.11819 0.33463
 C65 C 1.12251 0.13935 0.33160
 C66 C 1.11806 0.16347 0.35336
 C67 C 1.13887 0.16639 0.37859
 C68 C 1.16435 0.14591 0.38204
 C69 C 1.16818 0.12165 0.36009
 H70 H 1.10681 0.13747 0.31185
 H71 H 1.13547 0.18534 0.39494
 H72 H 1.18781 0.10593 0.36256
 C73 C 0.62328 1.35963 0.66569
 C74 C 0.62953 1.33005 0.65309
 C75 C 0.65763 1.32339 0.63859
 C76 C 0.67899 1.34723 0.63562
 C77 C 0.67321 1.37701 0.64830
 C78 C 0.64523 1.38272 0.66363
 H79 H 0.61300 1.31188 0.65557
 H80 H 0.70039 1.34259 0.62378
 H81 H 0.63982 1.40527 0.67359
 C82 C 0.62356 0.85953 1.16618
 C83 C 0.64586 0.88229 1.16439
 C84 C 0.67413 0.87587 1.15010
 C85 C 0.67997 0.84607 1.13782
 C86 C 0.65809 0.82261 1.14005
 C87 C 0.62966 0.82977 1.15383
 H88 H 0.64078 0.90514 1.17385
 H89 H 0.70179 0.84127 1.12682
 H90 H 0.61276 0.81188 1.15594
 C91 C 1.12574 1.35686 1.16833
 C92 C 1.14840 1.37958 1.16790
 C93 C 1.17590 1.37467 1.15145
 C94 C 1.18109 1.34571 1.13681
 C95 C 1.15946 1.32201 1.13844
 C96 C 1.13148 1.32818 1.15327
 H97 H 1.14379 1.40151 1.17951
 H98 H 1.20228 1.34158 1.12446
 H99 H 1.11497 1.30985 1.15440
 C100 C 1.12349 0.85823 0.66635
 C101 C 1.14566 0.88113 0.66439
 C102 C 1.17388 0.87487 0.64990
 C103 C 1.17982 0.84508 0.63762
 C104 C 1.15809 0.82150 0.64004
 C105 C 1.12973 0.82850 0.65400
 H106 H 1.14049 0.90396 0.67386
 H107 H 1.20159 0.84039 0.62649
 H108 H 1.11297 0.81050 0.65623
 C109 C 0.35849 0.65846 0.67736
 C110 C 0.34447 0.63012 0.67067
 C111 C 0.33057 0.62408 0.64144
 C112 C 0.33172 0.64663 0.61862
 C113 C 0.34739 0.67437 0.62427
 C114 C 0.36059 0.68009 0.65371
 H115 H 0.34285 0.61365 0.68902
 H116 H 0.32129 0.64193 0.59608
 H117 H 0.37224 0.70164 0.65812
 C118 C 0.36092 0.15852 1.17761
 C119 C 0.34649 0.13037 1.17076
 C120 C 0.33455 0.12396 1.14087
 C121 C 0.33745 0.14570 1.11766
 C122 C 0.35252 0.17366 1.12377
 C123 C 0.36430 0.17978 1.15375
 H124 H 0.34356 0.11394 1.18897
 H125 H 0.32825 0.14038 1.09475
 H126 H 0.37589 0.20133 1.15836
 C127 C 0.88181 0.63254 1.16812
 C128 C 0.87433 0.66288 1.15881
 C129 C 0.85461 0.66783 1.13293
 C130 C 0.84032 0.64239 1.11816
 C131 C 0.84718 0.61214 1.12749
 C132 C 0.86901 0.60746 1.15145
 H133 H 0.88429 0.68246 1.17115
 H134 H 0.82407 0.64612 1.09909
 H135 H 0.87355 0.58422 1.15939
 C136 C 0.85931 0.15928 0.68017
 C137 C 0.86037 0.18127 0.65656
 C138 C 0.84649 0.17573 0.62741
 C139 C 0.83096 0.14798 0.62187
 C140 C 0.83049 0.12518 0.64443
 C141 C 0.84527 0.13084 0.67336
 H142 H 0.87187 0.20295 0.66050
 H143 H 0.82008 0.14347 0.59950
 H144 H 0.84433 0.11389 0.69135
 C145 C 1.35536 0.38323 0.66259
 C146 C 1.33410 0.37956 0.63790
 C147 C 1.33682 0.35441 0.61698
 C148 C 1.36120 0.33280 0.62101
 C149 C 1.38287 0.33601 0.64564
 C150 C 1.37984 0.36163 0.66605
 H151 H 1.31487 0.39578 0.63534
 H152 H 1.36287 0.31300 0.60538
 H153 H 1.39588 0.36450 0.68537
 C154 C 1.35519 0.88334 1.16224
 C155 C 1.37956 0.86162 1.16578
 C156 C 1.38239 0.83582 1.14555
 C157 C 1.36060 0.83254 1.12103
 C158 C 1.33632 0.85425 1.11693
 C159 C 1.33382 0.87958 1.13765
 H160 H 1.39569 0.86457 1.18501
 H161 H 1.36211 0.81261 1.10555
 H162 H 1.31467 0.89589 1.13503
 C163 C 0.85644 0.38403 1.16224
 C164 C 0.88080 0.36229 1.16586
 C165 C 0.88381 0.33661 1.14550
 C166 C 0.86223 0.33346 1.12078
 C167 C 0.83798 0.35518 1.11658
 C168 C 0.83529 0.38039 1.13744
 H169 H 0.89676 0.36513 1.18525
 H170 H 0.86389 0.31362 1.10519
 H171 H 0.81616 0.39671 1.13474
 C172 C 0.85570 0.88421 0.66216
 C173 C 0.88030 0.86266 0.66516
 C174 C 0.88367 0.83792 0.64388
 C175 C 0.86218 0.83501 0.61919
 C176 C 0.83745 0.85632 0.61579
 C177 C 0.83448 0.88093 0.63733
 H178 H 0.89630 0.86476 0.68465
 H179 H 0.86434 0.81559 0.60313
 H180 H 0.81507 0.89699 0.63516
 C181 C 0.62416 0.65071 0.67482
 C182 C 0.65370 0.63788 0.68091
 C183 C 0.67744 0.63989 0.65928
 C184 C 0.67083 0.65403 0.63087
 C185 C 0.64133 0.66689 0.62449
 C186 C 0.61829 0.66528 0.64655
 H187 H 0.65807 0.62669 0.70274
 H188 H 0.68895 0.65598 0.61419
 H189 H 0.59563 0.67512 0.64126
 C190 C 0.62609 1.15278 1.17547
 C191 C 0.65496 1.13835 1.18110
 C192 C 0.67870 1.13969 1.15949
 C193 C 0.67263 1.15438 1.13132
 C194 C 0.64392 1.16938 1.12534
 C195 C 0.62103 1.16880 1.14782
 H196 H 0.65884 1.12638 1.20257
 H197 H 0.69103 1.15544 1.11487
 H198 H 0.59889 1.18004 1.14319
 C199 C 0.12356 0.65014 1.17478
 C200 C 0.11880 0.66663 1.14727
 C201 C 0.14171 0.66725 1.12481
 C202 C 0.17039 0.65225 1.13074
 C203 C 0.17638 0.63735 1.15876
 C204 C 0.15251 0.63558 1.18019
 H205 H 0.09687 0.67819 1.14252
 H206 H 0.18884 0.65351 1.11438
 H207 H 0.15653 0.62319 1.20141
 C208 C 0.12522 1.15210 0.67533
 C209 C 0.11996 1.16788 0.64755
 C210 C 0.14274 1.16838 0.62493
 C211 C 0.17156 1.15361 0.63094
 C212 C 0.17784 1.13923 0.65923
 C213 C 0.15421 1.13790 0.68095
 H214 H 0.09773 1.17895 0.64291
 H215 H 0.18989 1.15464 0.61442
 H216 H 0.15826 1.12614 0.70252
 C217 C 1.37545 0.64249 0.33427
 C218 C 1.36931 0.67208 0.34712
 C219 C 1.34075 0.67911 0.36091
 C220 C 1.31893 0.65538 0.36261
 C221 C 1.32501 0.62571 0.35017
 C222 C 1.35327 0.61962 0.33584
 H223 H 1.38631 0.68991 0.34527
 H224 H 1.29698 0.65961 0.37349
 H225 H 1.35846 0.59687 0.32617
 C226 C 1.37467 1.14222 0.83342
 C227 C 1.35227 1.11950 0.83450
 C228 C 1.32404 1.12555 0.84892
 C229 C 1.31822 1.15501 0.86197
 C230 C 1.34022 1.17861 0.86073
 C231 C 1.36872 1.17163 0.84680
 H232 H 1.35727 1.09688 0.82443
 H233 H 1.29628 1.15920 0.87290
 H234 H 1.38586 1.18937 0.84532
 C235 C 0.87547 0.63933 0.83419
 C236 C 0.86939 0.66908 0.84656
 C237 C 0.84102 0.67620 0.86045
 C238 C 0.81918 0.65274 0.86278
 C239 C 0.82499 0.62295 0.85050
 C240 C 0.85319 0.61654 0.83606
 H241 H 0.88626 0.68699 0.84440
 H242 H 0.79743 0.65753 0.87390
 H243 H 0.85823 0.59371 0.82653
 C244 C 0.87610 1.14143 0.33363
 C245 C 0.86978 1.17121 0.34582
 C246 C 0.84141 1.17818 0.35978
 C247 C 0.81980 1.15452 0.36239
 C248 C 0.82584 1.12469 0.35027
 C249 C 0.85404 1.11846 0.33576
 H250 H 0.88645 1.18927 0.34344
 H251 H 0.79804 1.15920 0.37355
 H252 H 0.85928 1.09560 0.32639
 C253 C 0.64016 0.34198 0.32099
 C254 C 0.65405 0.37038 0.32822
 C255 C 0.66676 0.37631 0.35784
 C256 C 0.66511 0.35400 0.38064
 C257 C 0.65019 0.32587 0.37465
 C258 C 0.63777 0.32017 0.34473
 H259 H 0.65620 0.38742 0.31044
 H260 H 0.67497 0.35932 0.40326
 H261 H 0.62641 0.29851 0.34014
 C262 C 0.63823 0.84319 0.82273
 C263 C 0.63429 0.82214 0.84671
 C264 C 0.64640 0.82800 0.87661
 C265 C 0.66233 0.85541 0.88254
 C266 C 0.66591 0.87688 0.85929
 C267 C 0.65362 0.87088 0.82944
 H268 H 0.62198 0.80098 0.84226
 H269 H 0.67176 0.86056 0.90540
 H270 H 0.65702 0.88717 0.81121
 C271 C 0.13855 0.34025 0.82081
 C272 C 0.13690 0.31836 0.84453
 C273 C 0.14963 0.32425 0.87414
 C274 C 0.16417 0.35237 0.88022
 C275 C 0.16571 0.37462 0.85741
 C276 C 0.15259 0.36871 0.82784
 H277 H 0.12584 0.29649 0.84035
 H278 H 0.17398 0.35743 0.90295
 H279 H 0.15439 0.38580 0.81005
 C280 C 0.13907 0.84136 0.32104
 C281 C 0.15279 0.86994 0.32812
 C282 C 0.16548 0.87609 0.35780
 C283 C 0.16373 0.85394 0.38074
 C284 C 0.14933 0.82572 0.37459
 C285 C 0.13715 0.81960 0.34481
 H286 H 0.15479 0.88690 0.31024
 H287 H 0.17328 0.85913 0.40355
 H288 H 0.12620 0.79769 0.34054
 O289 O 0.93557 0.90440 0.84443
 O290 O 0.92655 0.87184 0.80548
 C291 C 0.92144 0.89767 0.81925
 C292 C 0.89947 0.92046 0.80552
 C293 C 0.88787 0.91597 0.77531
 H294 H 0.89486 0.89539 0.76231
 O295 O 1.02221 1.12986 0.86722
 O296 O 1.02323 1.17130 0.83839
 C297 C 1.03048 1.14307 0.84287
 C298 C 1.04839 1.12546 0.81932
 C299 C 1.05438 1.13884 0.79089
 H300 H 1.04594 1.16210 0.78646
 O301 O 0.83809 1.00371 0.89967
 O302 O 0.79926 1.01216 0.86677
 C303 C 0.81097 0.99785 0.88980
 C304 C 0.79279 0.97376 0.90450
 C305 C 0.76373 0.96660 0.89186
 H306 H 0.75502 0.97922 0.87206
 O307 O 1.13155 1.02348 0.86989
 O308 O 1.16028 1.02436 0.82839
 C309 C 1.15588 1.03163 0.85664
 C310 C 1.17950 1.04942 0.87423
 C311 C 1.20792 1.05531 0.86085
 H312 H 1.21231 1.04689 0.83757
 O313 O 0.86384 0.86834 0.96844
 O314 O 0.82238 0.83962 0.96921
 C315 C 0.84798 0.84623 0.95738
 C316 C 0.85948 0.82819 0.93048
 C317 C 0.84537 0.80067 0.92101
 H318 H 0.82623 0.79237 0.93399
 O319 O 1.12897 1.13210 0.97631
 O320 O 1.17028 1.16101 0.97491
 C321 C 1.14201 1.15645 0.96791
 C322 C 1.12414 1.17996 0.95020
 C323 C 1.13729 1.20849 0.94438
 H324 H 1.16056 1.21300 0.95274
 O325 O 0.88084 1.06330 0.86007
 O326 O 0.84197 1.07207 0.82736
 C327 C 0.86883 1.07834 0.83769
 C328 C 0.88611 1.10421 0.82489
 C329 C 0.87755 1.11812 0.79659
 H330 H 0.85835 1.10925 0.78284
 O331 O 1.07626 0.97418 0.82718
 O332 O 1.10524 0.97440 0.78593
 C333 C 1.08207 0.96446 0.79994
 C334 C 1.06273 0.93996 0.78532
 C335 C 1.07054 0.92633 0.75654
 H336 H 1.08983 0.93496 0.74396
 O337 O 0.99585 0.85148 0.87424
 O338 O 0.98666 0.81816 0.83600
 C339 C 1.00235 0.82636 0.85986
 C340 C 1.02925 0.80737 0.87049
 C341 C 1.03427 0.77703 0.85907
 H342 H 1.01752 0.76698 0.84311
 O343 O 0.97272 1.17287 0.92219
 O344 O 0.97294 1.21401 0.89302
 C345 C 0.96295 1.20008 0.91623
 C346 C 0.93838 1.21469 0.93552
 C347 C 0.92417 1.24315 0.92737
 H348 H 0.93236 1.25555 0.90776
 O349 O 0.85223 1.12535 1.00440
 O350 O 0.81855 1.16329 1.01345
 C351 C 0.82693 1.13940 0.99790
 C352 C 0.80796 1.12843 0.97109
 C353 C 0.77769 1.13998 0.96575
 H354 H 0.76762 1.15621 0.98222
 O355 O 1.13910 0.88064 0.93622
 O356 O 1.17238 0.84242 0.92701
 C357 C 1.16157 0.86919 0.92101
 C358 C 1.17403 0.88693 0.89526
 C359 C 1.20221 0.87853 0.88118
 H360 H 1.21604 0.85930 0.88990
 O361 O 0.96425 1.13803 0.87358
 O362 O 0.96530 1.17909 0.84419
 C363 C 0.95343 1.15359 0.85108
 C364 C 0.92709 1.14165 0.83251
 C365 C 0.91834 1.15529 0.80453
 H366 H 0.93146 1.17446 0.79656
 O367 O 0.99369 0.89668 0.83622
 O368 O 0.98482 0.86345 0.79779
 C369 C 0.99903 0.88669 0.80898
 C370 C 1.02241 0.90173 0.79026
 C371 C 1.03016 0.88896 0.76135
 H372 H 1.01836 0.86860 0.75282
 O373 O 1.12512 0.96548 0.86174
 O374 O 1.15427 0.96642 0.82054
 C375 C 1.14750 0.95456 0.84610
 C376 C 1.16610 0.92813 0.85798
 C377 C 1.19399 0.91944 0.84414
 H378 H 1.20182 0.93259 0.82492
 O379 O 0.84380 1.06237 0.90681
 O380 O 0.80467 1.07092 0.87430
 C381 C 0.81844 1.07621 0.90010
 C382 C 0.80455 1.09828 0.92273
 C383 C 0.77444 1.10992 0.91784
 H384 H 0.76155 1.10266 0.89727
 O385 O 0.89672 1.16412 1.00575
 O386 O 0.86310 1.20220 1.01460
 C387 C 0.88630 1.19116 1.00023
 C388 C 0.90074 1.20978 0.97639
 C389 C 0.88738 1.23834 0.96832
 H390 H 0.86704 1.24668 0.98025
 O391 O 1.09329 0.84274 0.93664
 O392 O 1.12624 0.80412 0.92766
 C393 C 1.10029 0.81762 0.92251
 C394 C 1.07773 0.80377 0.90037
 C395 C 1.08236 0.77355 0.88885
 H396 H 1.10283 0.76053 0.89612
 O397 O 1.08326 1.03519 0.83527
 O398 O 1.11159 1.03578 0.79358
 C399 C 1.09112 1.04824 0.81069
 C400 C 1.07733 1.07893 0.80296
 C401 C 1.08356 1.09304 0.77475
 H402 H 1.09744 1.08086 0.75766
 O403 O 0.87431 1.00283 0.85321
 O404 O 0.83573 1.01170 0.82015
 C405 C 0.85978 0.99623 0.82816
 C406 C 0.87027 0.96934 0.80908
 C407 C 0.85875 0.96443 0.77871
 H408 H 0.84297 0.98133 0.76862
 O409 O 1.03369 1.16420 0.91572
 O410 O 1.03437 1.20585 0.88728
 C411 C 1.04675 1.18872 0.90783
 C412 C 1.07738 1.19637 0.92164
 C413 C 1.09126 1.22467 0.91558
 H414 H 1.07892 1.24184 0.90189
 O415 O 0.93572 0.85781 0.88155
 O416 O 0.92639 0.82482 0.84309
 C417 C 0.92071 0.83520 0.87009
 C418 C 0.89567 0.82195 0.88815
 C419 C 0.88157 0.79398 0.87918
 H420 H 0.88980 0.78086 0.85927
 O421 O 1.16394 1.08425 0.96462
 O422 O 1.20558 1.11260 0.96366
 C423 C 1.18841 1.09208 0.95142
 C424 C 1.19601 1.07821 0.92079
 C425 C 1.22419 1.08432 0.90672
 H426 H 1.24134 1.09811 0.91893
 O427 O 0.82966 0.91746 0.97588
 O428 O 0.78789 0.88926 0.97588
 C429 C 0.80235 0.91218 0.96594
 C430 C 0.78803 0.93207 0.94149
 C431 C 0.75902 0.92494 0.92783
 H432 H 0.74630 0.90553 0.93598
 Cu433 Cu 0.96597 0.88054 0.86335
 Cu434 Cu 0.95500 0.84105 0.81689
 Cu435 Cu 0.99826 1.14751 0.89823
 Cu436 Cu 0.99927 1.19717 0.86335
 Cu437 Cu 0.86362 1.03246 0.88280
 Cu438 Cu 0.81663 1.04267 0.84372
 Cu439 Cu 1.10051 0.99965 0.85227
 Cu440 Cu 1.13520 1.00052 0.80251
 C441 C 0.89078 0.94734 0.82213
 H442 H 0.89953 0.95082 0.84559
 C443 C 0.86771 0.93780 0.76155
 C444 C 1.05954 1.09533 0.82498
 H445 H 1.05506 1.08496 0.84698
 C446 C 1.07172 1.12282 0.76842
 C447 C 0.80469 0.95668 0.92959
 H448 H 0.82734 0.96195 0.93919
 C449 C 0.74675 0.94220 0.90297
 C450 C 1.17391 1.06054 0.90438
 H451 H 1.15192 1.05616 0.91476
 C452 C 1.23043 1.07253 0.87693
 C453 C 0.88465 0.83855 0.91405
 H454 H 0.89521 0.86015 0.92102
 C455 C 0.85625 0.78335 0.89552
 C456 C 1.09399 1.17424 0.93917
 H457 H 1.08378 1.15216 0.94351
 C458 C 1.12102 1.23099 0.92732
 C459 C 0.91102 1.11612 0.84240
 H460 H 0.91761 1.10581 0.86426
 C461 C 0.89365 1.14386 0.78633
 C462 C 1.03844 0.92752 0.80187
 H463 H 1.03275 0.93719 0.82440
 C464 C 1.05432 0.90080 0.74443
 C465 C 1.05100 0.82039 0.89128
 H466 H 1.04742 0.84384 0.89996
 C467 C 1.06075 0.75984 0.86839
 C468 C 0.92651 1.19836 0.96027
 H469 H 0.93663 1.17610 0.96626
 C470 C 0.89862 1.25510 0.94374
 C471 C 0.82103 1.10741 0.94955
 H472 H 0.84444 1.09865 0.95331
 C473 C 0.76067 1.13060 0.93916
 C474 C 1.15641 0.91192 0.88357
 H475 H 1.13464 0.91842 0.89405
 C476 C 1.21228 0.89473 0.85545
 O477 O 1.03386 0.86059 1.12782
 O478 O 1.03417 0.81984 1.15770
 C479 C 1.04541 0.84546 1.15033
 C480 C 1.07178 0.85792 1.16858
 C481 C 1.08082 0.84438 1.19657
 H482 H 1.06797 0.82507 1.20468
 O483 O 1.00551 1.10289 1.16349
 O484 O 1.01440 1.13618 1.20187
 C485 C 1.00016 1.11293 1.19071
 C486 C 0.97674 1.09794 1.20942
 C487 C 0.96910 1.11068 1.23837
 H488 H 0.98099 1.13098 1.24690
 O489 O 0.87333 1.03398 1.13866
 O490 O 0.84430 1.03301 1.17996
 C491 C 0.85098 1.04484 1.15439
 C492 C 0.83228 1.07118 1.14264
 C493 C 0.80434 1.07969 1.15648
 H494 H 0.79651 1.06651 1.17570
 O495 O 1.15550 0.93656 1.09428
 O496 O 1.19433 0.92748 1.12701
 C497 C 1.18057 0.92231 1.10114
 C498 C 1.19414 0.89997 1.07858
 C499 C 1.22410 0.88795 1.08350
 H500 H 1.23706 0.89501 1.10410
 O501 O 1.10075 0.83574 0.99506
 O502 O 1.13426 0.79757 0.98621
 C503 C 1.11100 0.80863 1.00052
 C504 C 1.09644 0.78984 1.02423
 C505 C 1.10985 0.76124 1.03196
 H506 H 1.13006 0.75319 1.01972
 O507 O 0.90533 1.15635 1.06392
 O508 O 0.87235 1.19494 1.07293
 C509 C 0.89837 1.18149 1.07798
 C510 C 0.92105 1.19543 1.09995
 C511 C 0.91605 1.22541 1.11188
 H512 H 0.89528 1.23819 1.10503
 O513 O 0.91565 0.96446 1.16496
 O514 O 0.88737 0.96413 1.20671
 C515 C 0.90784 0.95162 1.18967
 C516 C 0.92170 0.92116 1.19785
 C517 C 0.91562 0.90782 1.22641
 H518 H 0.90179 0.92040 1.24328
 O519 O 1.12567 0.99683 1.14735
 O520 O 1.16397 0.98774 1.18064
 C521 C 1.14016 1.00349 1.17239
 C522 C 1.12984 1.03073 1.19115
 C523 C 1.14230 1.03657 1.22102
 H524 H 1.15863 1.02014 1.23106
 O525 O 0.96347 0.83220 1.08830
 O526 O 0.96424 0.79125 1.11776
 C527 C 0.95085 0.80782 1.09740
 C528 C 0.91941 0.79999 1.08557
 C529 C 0.90382 0.77436 1.09676
 H530 H 0.91564 0.75886 1.11268
 O531 O 1.06389 1.14142 1.11845
 O532 O 1.07319 1.17464 1.15673
 C533 C 1.07911 1.16388 1.12992
 C534 C 1.10483 1.17627 1.11213
 C535 C 1.11884 1.20456 1.12020
 H536 H 1.11006 1.21861 1.13924
 O537 O 0.83718 0.91182 1.03681
 O538 O 0.79499 0.88423 1.03729
 C539 C 0.81222 0.90477 1.04952
 C540 C 0.80412 0.91961 1.07958
 C541 C 0.77552 0.91432 1.09316
 H542 H 0.75847 0.90039 1.08096
 O543 O 1.17256 1.07742 1.02555
 O544 O 1.21361 1.10661 1.02503
 C545 C 1.19981 1.08337 1.03509
 C546 C 1.21464 1.06402 1.05950
 C547 C 1.24340 1.07186 1.07313
 H548 H 1.25588 1.09125 1.06458
 O549 O 1.06361 1.09502 1.15564
 O550 O 1.07271 1.12781 1.19438
 C551 C 1.07782 1.10190 1.18074
 C552 C 1.10009 1.07935 1.19449
 C553 C 1.11253 1.08466 1.22424
 H554 H 1.10582 1.10550 1.23695
 O555 O 0.97595 0.86885 1.13442
 O556 O 0.97648 0.82826 1.16451
 C557 C 0.96858 0.85624 1.15936
 C558 C 0.95081 0.87434 1.18266
 C559 C 0.94514 0.86180 1.21157
 H560 H 0.95390 0.83882 1.21685
 O561 O 1.16399 0.99464 1.10236
 O562 O 1.20237 0.98567 1.13566
 C563 C 1.19121 0.99994 1.11242
 C564 C 1.20990 1.02342 1.09750
 C565 C 1.23877 1.03119 1.11032
 H566 H 1.24732 1.01927 1.13063
 O567 O 0.86767 0.97586 1.13002
 O568 O 0.83883 0.97509 1.17144
 C569 C 0.84335 0.96768 1.14323
 C570 C 0.81990 0.94966 1.12563
 C571 C 0.79107 0.94456 1.13850
 H572 H 0.78620 0.95379 1.16139
 O573 O 1.13823 1.12652 1.03428
 O574 O 1.17931 1.15576 1.03281
 C575 C 1.15390 1.14903 1.04488
 C576 C 1.14214 1.16789 1.07113
 C577 C 1.15598 1.19586 1.07952
 H578 H 1.17525 1.20356 1.06637
 O579 O 0.86991 0.86178 1.02726
 O580 O 0.82786 0.83396 1.02834
 C581 C 0.85594 0.83817 1.03637
 C582 C 0.87254 0.81566 1.05672
 C583 C 0.85737 0.79002 1.06818
 H584 H 0.83357 0.78642 1.06120
 O585 O 1.11862 0.93638 1.14081
 O586 O 1.15696 0.92723 1.17403
 C587 C 1.13016 0.92127 1.16335
 C588 C 1.11255 0.89562 1.17606
 C589 C 1.12126 0.88181 1.20434
 H590 H 1.14048 0.89077 1.21802
 O591 O 0.92275 1.02546 1.17266
 O592 O 0.89368 1.02544 1.21386
 C593 C 0.91690 1.03530 1.19985
 C594 C 0.93630 1.05981 1.21441
 C595 C 0.92861 1.07341 1.24323
 H596 H 0.90935 1.06482 1.25585
 O597 O 1.00350 1.14818 1.12553
 O598 O 1.01270 1.18155 1.16371
 C599 C 0.99694 1.17329 1.13991
 C600 C 0.96980 1.19214 1.12948
 C601 C 0.96431 1.22223 1.14142
 H602 H 0.98095 1.23237 1.15745
 O603 O 1.02437 0.82564 1.07898
 O604 O 1.02567 0.78503 1.10890
 C605 C 1.03475 0.79873 1.08510
 C606 C 1.05905 0.78432 1.06531
 C607 C 1.07337 0.75582 1.07306
 H608 H 1.06540 0.74325 1.09266
 O609 O 1.14616 0.87349 0.99668
 O610 O 1.17976 0.83553 0.98747
 C611 C 1.17142 0.85932 1.00317
 C612 C 1.19042 0.86999 1.03012
 C613 C 1.22056 0.85807 1.03550
 H614 H 1.23051 0.84183 1.01896
 O615 O 0.85922 1.11897 1.06473
 O616 O 0.82574 1.15703 1.07395
 C617 C 0.83668 1.13031 1.07992
 C618 C 0.82427 1.11246 1.10554
 C619 C 0.79600 1.12062 1.11951
 H620 H 0.78208 1.13979 1.11079
 Cu621 Cu 0.99934 0.85041 1.10369
 Cu622 Cu 1.00001 0.80151 1.13964
 Cu623 Cu 1.03334 1.11898 1.13650
 Cu624 Cu 1.04431 1.15859 1.18284
 Cu625 Cu 0.85405 0.89303 1.00218
 Cu626 Cu 0.80377 0.85935 1.00275
 Cu627 Cu 1.11688 0.86241 0.96688
 Cu628 Cu 1.15672 0.81625 0.95608
 Cu629 Cu 0.88136 1.13699 1.03392
 Cu630 Cu 0.84137 1.18302 1.04483
 Cu631 Cu 1.14720 1.10151 1.00025
 Cu632 Cu 1.19677 1.13639 0.99872
 Cu633 Cu 0.89836 0.99995 1.14781
 Cu634 Cu 0.86368 0.99908 1.19758
 Cu635 Cu 1.13670 0.96693 1.11827
 Cu636 Cu 1.18305 0.95593 1.15789
 C637 C 1.08760 0.88363 1.15860
 H638 H 1.08086 0.89390 1.13676
 C639 C 1.10546 0.85601 1.21465
 C640 C 0.96059 1.07221 1.19781
 H641 H 0.96620 1.06256 1.17525
 C642 C 0.94495 1.09888 1.25533
 C643 C 0.84197 1.08753 1.11716
 H644 H 0.86380 1.08118 1.10673
 C645 C 0.78597 1.10428 1.14514
 C646 C 1.17757 0.89110 1.05170
 H647 H 1.15429 0.90017 1.04791
 C648 C 1.23765 0.86716 1.06214
 C649 C 1.07073 0.80102 1.04064
 H650 H 1.06062 0.82338 1.03498
 C651 C 1.09894 0.74419 1.05652
 C652 C 0.94812 1.17909 1.10862
 H653 H 0.95198 1.15580 1.09960
 C654 C 0.93747 1.23910 1.13252
 C655 C 0.93941 0.90424 1.17617
 H656 H 0.94366 0.91406 1.15386
 C657 C 0.92768 0.87840 1.23353
 C658 C 1.10862 1.05219 1.17823
 H659 H 1.09920 1.04808 1.15512
 C660 C 1.13355 1.06351 1.23779
 C661 C 0.90357 0.82024 1.06540
 H662 H 0.91525 0.84021 1.05704
 C663 C 0.87269 0.76924 1.08841
 C664 C 1.11657 1.15838 1.08740
 H665 H 1.10612 1.13653 1.08113
 C666 C 1.14458 1.21444 1.10391
 C667 C 0.82607 0.93751 1.09597
 H668 H 0.84838 0.94128 1.08599
 C669 C 0.76872 0.92714 1.12240
 C670 C 1.19824 1.03955 1.07179
 H671 H 1.17574 1.03381 1.06209
 C672 C 1.25562 1.05548 1.09858
 O673 O 0.93669 0.40609 0.34372
 O674 O 0.92759 0.37355 0.30477
 C675 C 0.92251 0.39938 0.31856
 C676 C 0.90043 0.42212 0.30484
 C677 C 0.88890 0.41749 0.27464
 H678 H 0.89613 0.39699 0.26166
 O679 O 1.02248 0.62938 0.36580
 O680 O 1.02373 0.67076 0.33688
 C681 C 1.03102 0.64254 0.34154
 C682 C 1.04916 0.62485 0.31825
 C683 C 1.05464 0.63774 0.28946
 H684 H 1.04564 0.66070 0.28444
 O685 O 0.83635 0.50609 0.39761
 O686 O 0.79789 0.51511 0.36442
 C687 C 0.80915 0.50073 0.38757
 C688 C 0.79055 0.47708 0.40233
 C689 C 0.76161 0.46955 0.38952
 H690 H 0.75295 0.48176 0.36943
 O691 O 1.13280 0.52348 0.37002
 O692 O 1.16179 0.52474 0.32873
 C693 C 1.15711 0.53192 0.35696
 C694 C 1.18036 0.54994 0.37478
 C695 C 1.20903 0.55565 0.36189
 H696 H 1.21389 0.54691 0.33882
 O697 O 0.86175 0.37252 0.46489
 O698 O 0.82056 0.34336 0.46554
 C699 C 0.84611 0.35020 0.45382
 C700 C 0.85801 0.33178 0.42735
 C701 C 0.84410 0.30404 0.41819
 H702 H 0.82459 0.29611 0.43087
 O703 O 1.12780 0.63314 0.47588
 O704 O 1.16905 0.66217 0.47509
 C705 C 1.14089 0.65751 0.46762
 C706 C 1.12327 0.68087 0.44943
 C707 C 1.13626 0.70960 0.44413
 H708 H 1.15917 0.71442 0.45332
 O709 O 0.88136 0.56474 0.35927
 O710 O 0.84330 0.57309 0.32544
 C711 C 0.87010 0.57907 0.33610
 C712 C 0.88864 0.60290 0.32171
 C713 C 0.88723 0.60745 0.28967
 H714 H 0.87192 0.59358 0.27517
 O715 O 1.07827 0.47405 0.32668
 O716 O 1.10755 0.47429 0.28564
 C717 C 1.08426 0.46435 0.29947
 C718 C 1.06489 0.43993 0.28478
 C719 C 1.07310 0.42560 0.25640
 H720 H 1.09283 0.43363 0.24411
 O721 O 0.99665 0.35260 0.37349
 O722 O 0.98742 0.31943 0.33513
 C723 C 1.00316 0.32753 0.35900
 C724 C 1.03021 0.30857 0.36943
 C725 C 1.03562 0.27846 0.35744
 H726 H 1.01904 0.26844 0.34129
 O727 O 0.97259 0.67151 0.42090
 O728 O 0.97189 0.71219 0.39117
 C729 C 0.96242 0.69846 0.41477
 C730 C 0.93821 0.71312 0.43447
 C731 C 0.92447 0.74190 0.42688
 H732 H 0.93260 0.75435 0.40726
 O733 O 0.85170 0.62539 0.50400
 O734 O 0.81833 0.66361 0.51305
 C735 C 0.82661 0.63978 0.49738
 C736 C 0.80783 0.62937 0.47023
 C737 C 0.77750 0.64080 0.46510
 H738 H 0.76725 0.65643 0.48202
 O739 O 1.14119 0.38074 0.43528
 O740 O 1.17438 0.34242 0.42617
 C741 C 1.16375 0.36926 0.42020
 C742 C 1.17646 0.38709 0.39465
 C743 C 1.20491 0.37902 0.38087
 H744 H 1.21879 0.35985 0.38966
 O745 O 0.96431 0.63930 0.37002
 O746 O 0.96735 0.67860 0.33849
 C747 C 0.95490 0.65365 0.34610
 C748 C 0.93004 0.64010 0.32668
 C749 C 0.92873 0.64429 0.29449
 H750 H 0.94553 0.65857 0.28372
 O751 O 0.99483 0.39795 0.33558
 O752 O 0.98580 0.36478 0.29714
 C753 C 1.00019 0.38788 0.30837
 C754 C 1.02394 0.40245 0.28976
 C755 C 1.03208 0.38897 0.26132
 H756 H 1.02005 0.36865 0.25320
 O757 O 1.12729 0.46541 0.36125
 O758 O 1.15665 0.46675 0.32023
 C759 C 1.14985 0.45476 0.34569
 C760 C 1.16862 0.42846 0.35758
 C761 C 1.19678 0.42017 0.34407
 H762 H 1.20471 0.43360 0.32509
 O763 O 0.84379 0.56434 0.40544
 O764 O 0.80529 0.57353 0.37236
 C765 C 0.81873 0.57854 0.39841
 C766 C 0.80476 0.60043 0.42114
 C767 C 0.77457 0.61195 0.41642
 H768 H 0.76175 0.60503 0.39570
 O769 O 0.89690 0.66309 0.50563
 O770 O 0.86364 0.70151 0.51438
 C771 C 0.88675 0.69021 0.50003
 C772 C 0.90127 0.70863 0.47608
 C773 C 0.88840 0.73753 0.46851
 H774 H 0.86850 0.74623 0.48092
 O775 O 1.09455 0.34388 0.43552
 O776 O 1.12729 0.30507 0.42658
 C777 C 1.10142 0.31877 0.42137
 C778 C 1.07885 0.30507 0.39912
 C779 C 1.08381 0.27514 0.38708
 H780 H 1.10450 0.26230 0.39404
 O781 O 1.08490 0.53492 0.33507
 O782 O 1.11330 0.53567 0.29342
 C783 C 1.09271 0.54797 0.31048
 C784 C 1.07864 0.57844 0.30253
 C785 C 1.08449 0.59213 0.27406
 H786 H 1.09838 0.57983 0.25704
 O787 O 0.87432 0.50438 0.35241
 O788 O 0.83589 0.51304 0.31913
 C789 C 0.85991 0.49760 0.32733
 C790 C 0.87063 0.47068 0.30837
 C791 C 0.85919 0.46560 0.27796
 H792 H 0.84321 0.48229 0.26782
 O793 O 1.03331 0.66490 0.41331
 O794 O 1.03506 0.70565 0.38368
 C795 C 1.04685 0.68901 0.40496
 C796 C 1.07726 0.69677 0.41931
 C797 C 1.09103 0.72524 0.41376
 H798 H 1.07891 0.74231 0.39977
 O799 O 0.93632 0.35934 0.38048
 O800 O 0.92706 0.32637 0.34197
 C801 C 0.92117 0.33691 0.36885
 C802 C 0.89555 0.32420 0.38645
 C803 C 0.88159 0.29608 0.37773
 H804 H 0.89044 0.28240 0.35847
 O805 O 1.16319 0.58549 0.46459
 O806 O 1.20479 0.61394 0.46414
 C807 C 1.18785 0.59333 0.45172
 C808 C 1.19596 0.57928 0.42130
 C809 C 1.22443 0.58522 0.40770
 H810 H 1.24138 0.59912 0.42009
 O811 O 0.82777 0.42188 0.47375
 O812 O 0.78662 0.39277 0.47351
 C813 C 0.80057 0.41615 0.46390
 C814 C 0.78589 0.43591 0.43975
 C815 C 0.75708 0.42833 0.42609
 H816 H 0.74459 0.40883 0.43437
 Cu817 Cu 0.96692 0.38191 0.36260
 Cu818 Cu 0.95586 0.34253 0.31605
 Cu819 Cu 0.99796 0.64753 0.39595
 Cu820 Cu 0.99909 0.69690 0.36117
 Cu821 Cu 0.86319 0.53418 0.38167
 Cu822 Cu 0.81689 0.54484 0.34185
 Cu823 Cu 1.10228 0.49940 0.35199
 Cu824 Cu 1.13723 0.50070 0.30243
 C825 C 0.89142 0.44891 0.32145
 H826 H 0.90012 0.45249 0.34491
 C827 C 0.86849 0.43907 0.26083
 C828 C 1.06081 0.59499 0.32442
 H829 H 1.05665 0.58494 0.34664
 C830 C 1.07211 0.62154 0.26725
 C831 C 0.80232 0.46052 0.42775
 H832 H 0.82488 0.46605 0.43743
 C833 C 0.74483 0.44508 0.40092
 C834 C 1.17417 0.56143 0.40467
 H835 H 1.15198 0.55717 0.41468
 C836 C 1.23125 0.57303 0.37820
 C837 C 0.88375 0.34158 0.41148
 H838 H 0.89422 0.36328 0.41825
 C839 C 0.85571 0.28596 0.39353
 C840 C 1.09355 0.67480 0.43736
 H841 H 1.08342 0.65260 0.44134
 C842 C 1.12030 0.73194 0.42657
 C843 C 0.90993 0.61944 0.33998
 H844 H 0.91132 0.61565 0.36469
 C845 C 0.90769 0.62761 0.27587
 C846 C 1.04007 0.42822 0.30111
 H847 H 1.03405 0.43840 0.32334
 C848 C 1.05681 0.39995 0.24457
 C849 C 1.05186 0.32151 0.39041
 H850 H 1.04803 0.34477 0.39951
 C851 C 1.06238 0.26149 0.36641
 C852 C 0.92647 0.69677 0.45931
 H853 H 0.93620 0.67424 0.46490
 C854 C 0.89951 0.75422 0.44384
 C855 C 0.82111 0.60904 0.44823
 H856 H 0.84455 0.60034 0.45189
 C857 C 0.76060 0.63194 0.43827
 C858 C 1.15877 0.41197 0.38289
 H859 H 1.13680 0.41820 0.39310
 C860 C 1.21518 0.39554 0.35540
 O861 O 1.03409 0.36090 0.62675
 O862 O 1.03312 0.31975 0.65601
 C863 C 1.04491 0.34532 0.64927
 C864 C 1.07118 0.35732 0.66801
 C865 C 1.07975 0.34378 0.69614
 H866 H 1.06658 0.32465 0.70411
 O867 O 1.00440 0.60144 0.66377
 O868 O 1.01316 0.63453 0.70235
 C869 C 0.99897 0.61134 0.69101
 C870 C 0.97550 0.59626 0.70959
 C871 C 0.96810 0.60866 0.73874
 H872 H 0.98019 0.62874 0.74751
 O873 O 0.87156 0.53374 0.63821
 O874 O 0.84246 0.53248 0.67943
 C875 C 0.84923 0.54456 0.65400
 C876 C 0.83077 0.57117 0.64237
 C877 C 0.80301 0.58016 0.65633
 H878 H 0.79507 0.56724 0.67569
 O879 O 1.15546 0.43579 0.59401
 O880 O 1.19430 0.42699 0.62679
 C881 C 1.18066 0.42177 0.60090
 C882 C 1.19454 0.39966 0.57829
 C883 C 1.22453 0.38775 0.58333
 H884 H 1.23731 0.39470 0.60407
 O885 O 1.10232 0.33596 0.49382
 O886 O 1.13565 0.29761 0.48503
 C887 C 1.11244 0.30880 0.49931
 C888 C 1.09778 0.29017 0.52308
 C889 C 1.11118 0.26166 0.53120
 H890 H 1.13151 0.25353 0.51921
 O891 O 0.90473 0.65574 0.56399
 O892 O 0.87204 0.69461 0.57285
 C893 C 0.89791 0.68093 0.57804
 C894 C 0.92057 0.69472 0.60012
 C895 C 0.91595 0.72492 0.61164
 H896 H 0.89545 0.73792 0.60442
 O897 O 0.91385 0.46395 0.66366
 O898 O 0.88553 0.46301 0.70536
 C899 C 0.90609 0.45078 0.68820
 C900 C 0.92016 0.42025 0.69595
 C901 C 0.91405 0.40627 0.72421
 H902 H 0.90005 0.41843 0.74123
 O903 O 1.12495 0.49572 0.64709
 O904 O 1.16317 0.48670 0.68051
 C905 C 1.13924 0.50226 0.67228
 C906 C 1.12849 0.52909 0.69134
 C907 C 1.13980 0.53398 0.72179
 H908 H 1.15570 0.51718 0.73188
 O909 O 0.96471 0.33446 0.58441
 O910 O 0.96414 0.29274 0.61275
 C911 C 0.95169 0.30987 0.59225
 C912 C 0.92101 0.30219 0.57844
 C913 C 0.90668 0.27420 0.58499
 H914 H 0.91870 0.25716 0.59910
 O915 O 1.06283 0.64031 0.61907
 O916 O 1.07202 0.67321 0.65765
 C917 C 1.07794 0.66275 0.63074
 C918 C 1.10348 0.67557 0.61306
 C919 C 1.11751 0.70365 0.62182
 H920 H 1.10883 0.71720 0.64125
 O921 O 0.83531 0.41424 0.53457
 O922 O 0.79355 0.38599 0.53470
 C923 C 0.81057 0.40643 0.54732
 C924 C 0.80240 0.42034 0.57775
 C925 C 0.77374 0.41466 0.59105
 H926 H 0.75675 0.40098 0.57849
 O927 O 1.17100 0.57831 0.52542
 O928 O 1.21204 0.60756 0.52540
 C929 C 1.19821 0.58418 0.53516
 C930 C 1.21298 0.56454 0.55941
 C931 C 1.24172 0.57229 0.57323
 H932 H 1.25411 0.59188 0.56502
 O933 O 1.06260 0.59371 0.65604
 O934 O 1.07150 0.62620 0.69509
 C935 C 1.07668 0.60041 0.68127
 C936 C 1.09875 0.57767 0.69500
 C937 C 1.11016 0.58213 0.72528
 H938 H 1.10291 0.60256 0.73835
 O939 O 0.97601 0.36951 0.63224
 O940 O 0.97512 0.32813 0.66116
 C941 C 0.96772 0.35632 0.65656
 C942 C 0.94958 0.37390 0.67994
 C943 C 0.94365 0.36064 0.70843
 H944 H 0.95229 0.33748 0.71304
 O945 O 1.16259 0.49413 0.60160
 O946 O 1.20102 0.48548 0.63492
 C947 C 1.18972 0.49970 0.61168
 C948 C 1.20823 0.52344 0.59689
 C949 C 1.23702 0.53116 0.60984
 H950 H 1.24541 0.51888 0.62994
 O951 O 0.86557 0.47571 0.62921
 O952 O 0.83666 0.47455 0.67056
 C953 C 0.84120 0.46743 0.64229
 C954 C 0.81780 0.44963 0.62439
 C955 C 0.78882 0.44439 0.63691
 H956 H 0.78357 0.45347 0.65979
 O957 O 1.13678 0.62754 0.53416
 O958 O 1.17787 0.65681 0.53326
 C959 C 1.15241 0.64991 0.54514
 C960 C 1.14065 0.66825 0.57176
 C961 C 1.15463 0.69594 0.58096
 H962 H 1.17403 0.70395 0.56816
 O963 O 0.87041 0.36648 0.52304
 O964 O 0.82898 0.33768 0.52365
 C965 C 0.85715 0.34215 0.53116
 C966 C 0.87462 0.31865 0.54928
 C967 C 0.86102 0.29047 0.55561
 H968 H 0.83770 0.28621 0.54726
 O969 O 1.11829 0.43532 0.64046
 O970 O 1.15672 0.42630 0.67361
 C971 C 1.12991 0.42025 0.66300
 C972 C 1.11228 0.39462 0.67573
 C973 C 1.12060 0.38086 0.70414
 H974 H 1.13978 0.38971 0.71793
 O975 O 0.92087 0.52471 0.67208
 O976 O 0.89190 0.52429 0.71334
 C977 C 0.91514 0.53422 0.69941
 C978 C 0.93476 0.55840 0.71422
 C979 C 0.92730 0.57167 0.74324
 H980 H 0.90800 0.56308 0.75581
 O981 O 1.00256 0.64698 0.62609
 O982 O 1.01165 0.68017 0.66446
 C983 C 0.99603 0.67207 0.64052
 C984 C 0.96913 0.69112 0.62989
 C985 C 0.96410 0.72147 0.64133
 H986 H 0.98084 0.73153 0.65729
 O987 O 1.02568 0.32672 0.57739
 O988 O 1.02567 0.28558 0.60656
 C989 C 1.03554 0.29956 0.58330
 C990 C 1.06009 0.28505 0.56391
 C991 C 1.07434 0.25660 0.57204
 H992 H 1.06618 0.24420 0.59166
 O993 O 1.14746 0.37398 0.49575
 O994 O 1.18085 0.33578 0.48674
 C995 C 1.17254 0.35961 0.50242
 C996 C 1.19132 0.37009 0.52957
 C997 C 1.22146 0.35826 0.53505
 H998 H 1.23159 0.34222 0.51843
 O999 O 0.85835 0.61851 0.56440
 O1000 O 0.82528 0.65694 0.57353
 C1001 C 0.83588 0.63010 0.57952
 C1002 C 0.82320 0.61243 0.60514
 C1003 C 0.79507 0.62101 0.61916
 H1004 H 0.78140 0.64035 0.61042
 Cu1005 Cu 1.00016 0.35162 0.60166
 Cu1006 Cu 0.99922 0.30196 0.63649
 Cu1007 Cu 1.03233 0.61770 0.63697
 Cu1008 Cu 1.04313 0.65704 0.68360
 Cu1009 Cu 0.85258 0.39727 0.49906
 Cu1010 Cu 0.80289 0.36252 0.49962
 Cu1011 Cu 1.11845 0.36290 0.46583
 Cu1012 Cu 1.15806 0.31653 0.45507
 Cu1013 Cu 0.88086 0.63641 0.53381
 Cu1014 Cu 0.84130 0.68286 0.54453
 Cu1015 Cu 1.14594 0.60264 0.50005
 Cu1016 Cu 1.19544 0.63759 0.49915
 Cu1017 Cu 0.89640 0.49955 0.64701
 Cu1018 Cu 0.86177 0.49821 0.69677
 Cu1019 Cu 1.13605 0.46596 0.61786
 Cu1020 Cu 1.18251 0.45535 0.65747
 C1021 C 1.08741 0.38277 0.65812
 H1022 H 1.08101 0.39301 0.63618
 C1023 C 1.10439 0.35526 0.71444
 C1024 C 0.95911 0.57082 0.69770
 H1025 H 0.96455 0.56143 0.67499
 C1026 C 0.94391 0.59683 0.75562
 C1027 C 0.84058 0.58731 0.61680
 H1028 H 0.86229 0.58064 0.60628
 C1029 C 0.78491 0.60495 0.64491
 C1030 C 1.17821 0.39094 0.55123
 H1031 H 1.15491 0.39993 0.54734
 C1032 C 1.23833 0.36722 0.56188
 C1033 C 1.07196 0.30151 0.53920
 H1034 H 1.06184 0.32378 0.53325
 C1035 C 1.10005 0.24481 0.55583
 C1036 C 0.94734 0.67810 0.60913
 H1037 H 0.95089 0.65465 0.60043
 C1038 C 0.93757 0.73865 0.63205
 C1039 C 0.93814 0.40390 0.67405
 H1040 H 0.94254 0.41420 0.65200
 C1041 C 0.92612 0.37665 0.73073
 C1042 C 1.10780 0.55096 0.67829
 H1043 H 1.09918 0.54751 0.65478
 C1044 C 1.13048 0.56043 0.73903
 C1045 C 0.90479 0.32415 0.56037
 H1046 H 0.91532 0.34598 0.55564
 C1047 C 0.87684 0.26806 0.57321
 C1048 C 1.11507 0.65835 0.58781
 H1049 H 1.10456 0.63668 0.58100
 C1050 C 1.14325 0.71388 0.60584
 C1051 C 0.82421 0.43794 0.59461
 H1052 H 0.84657 0.44192 0.58483
 C1053 C 0.76667 0.42710 0.62037
 C1054 C 1.19657 0.53988 0.57137
 H1055 H 1.17409 0.53421 0.56158
 C1056 C 1.25385 0.55572 0.59862
 O1057 O 0.62521 0.99706 0.64710
 O1058 O 0.66341 0.98792 0.68051
 C1059 C 0.63957 1.00362 0.67225
 C1060 C 0.62909 1.03067 0.69118
 C1061 C 0.64125 1.03623 0.72121
 H1062 H 0.65750 1.01971 0.73122
 O1063 O 0.41486 0.96451 0.66470
 O1064 O 0.38646 0.96383 0.70634
 C1065 C 0.40697 0.95144 0.68925
 C1066 C 0.42068 0.92076 0.69698
 C1067 C 0.41408 0.90658 0.72502
 H1068 H 0.40006 0.91876 0.74201
 O1069 O 0.56315 1.14160 0.61893
 O1070 O 0.57215 1.17474 0.65734
 C1071 C 0.57817 1.16416 0.63050
 C1072 C 0.60374 1.17696 0.61281
 C1073 C 0.61763 1.20519 0.62136
 H1074 H 0.60881 1.21889 0.64063
 O1075 O 0.46464 0.83520 0.58482
 O1076 O 0.46424 0.79342 0.61308
 C1077 C 0.45175 0.81050 0.59255
 C1078 C 0.42124 0.80259 0.57848
 C1079 C 0.40743 0.77414 0.58421
 H1080 H 0.41967 0.75700 0.59802
 O1081 O 0.67206 1.07972 0.52592
 O1082 O 0.71320 1.10883 0.52589
 C1083 C 0.69926 1.08556 0.53576
 C1084 C 0.71381 1.06598 0.56022
 C1085 C 0.74228 1.07387 0.57462
 H1086 H 0.75469 1.09359 0.56674
 O1087 O 0.33546 0.91476 0.53473
 O1088 O 0.29382 0.88639 0.53536
 C1089 C 0.31090 0.90692 0.54776
 C1090 C 0.30307 0.92082 0.57835
 C1091 C 0.27466 0.91492 0.59209
 H1092 H 0.25757 0.90120 0.57971
 O1093 O 0.50474 1.10276 0.66381
 O1094 O 0.51346 1.13603 0.70223
 C1095 C 0.49928 1.11279 0.69101
 C1096 C 0.47573 1.09788 0.70963
 C1097 C 0.46790 1.11080 0.73846
 H1098 H 0.47977 1.13112 0.74697
 O1099 O 0.53399 0.86179 0.62707
 O1100 O 0.53326 0.82062 0.65631
 C1101 C 0.54495 0.84623 0.64953
 C1102 C 0.57124 0.85835 0.66815
 C1103 C 0.58009 0.84485 0.69624
 H1104 H 0.56732 0.82545 0.70429
 O1105 O 0.65554 0.93708 0.59395
 O1106 O 0.69428 0.92804 0.62679
 C1107 C 0.68069 0.92295 0.60084
 C1108 C 0.69455 0.90090 0.57817
 C1109 C 0.72468 0.88924 0.58297
 H1110 H 0.73758 0.89632 0.60359
 O1111 O 0.37265 1.03403 0.63842
 O1112 O 0.34346 1.03290 0.67960
 C1113 C 0.35021 1.04481 0.65408
 C1114 C 0.33152 1.07114 0.64226
 C1115 C 0.30363 1.07975 0.65613
 H1116 H 0.29583 1.06668 0.67544
 O1117 O 0.40457 1.15599 0.56361
 O1118 O 0.37168 1.19465 0.57261
 C1119 C 0.39764 1.18112 0.57771
 C1120 C 0.42026 1.19499 0.59979
 C1121 C 0.41524 1.22498 0.61173
 H1122 H 0.39451 1.23778 0.60483
 O1123 O 0.60221 0.83669 0.49404
 O1124 O 0.63563 0.79841 0.48528
 C1125 C 0.61240 0.80956 0.49954
 C1126 C 0.59765 0.79092 0.52322
 C1127 C 0.61058 0.76207 0.53096
 H1128 H 0.63081 0.75355 0.51895
 O1129 O 0.42180 1.02552 0.67271
 O1130 O 0.39266 1.02529 0.71384
 C1131 C 0.41586 1.03529 0.69991
 C1132 C 0.43517 1.05987 0.71453
 C1133 C 0.42726 1.07368 0.74322
 H1134 H 0.40787 1.06522 0.75574
 O1135 O 0.61814 0.93668 0.64030
 O1136 O 0.65650 0.92757 0.67350
 C1137 C 0.62968 0.92161 0.66287
 C1138 C 0.61203 0.89605 0.67569
 C1139 C 0.62045 0.88248 0.70413
 H1140 H 0.63955 0.89154 0.71790
 O1141 O 0.52556 0.82770 0.57773
 O1142 O 0.52569 0.78648 0.60680
 C1143 C 0.53546 0.80053 0.58355
 C1144 C 0.55989 0.78601 0.56403
 C1145 C 0.57367 0.75729 0.57179
 H1146 H 0.56527 0.74473 0.59121
 O1147 O 0.50273 1.14784 0.62559
 O1148 O 0.51164 1.18115 0.66390
 C1149 C 0.49603 1.17289 0.64000
 C1150 C 0.46892 1.19168 0.62947
 C1151 C 0.46341 1.22176 0.64140
 H1152 H 0.48002 1.23188 0.65747
 O1153 O 0.35840 1.11860 0.56407
 O1154 O 0.32506 1.15678 0.57328
 C1155 C 0.33589 1.13002 0.57925
 C1156 C 0.32345 1.11224 0.60494
 C1157 C 0.29522 1.12049 0.61895
 H1158 H 0.28130 1.13964 0.61018
 O1159 O 0.64716 0.87493 0.49583
 O1160 O 0.68064 0.83682 0.48679
 C1161 C 0.67232 0.86066 0.50244
 C1162 C 0.69119 0.87130 0.52946
 C1163 C 0.72148 0.85975 0.53469
 H1164 H 0.73160 0.84381 0.51798
 O1165 O 0.47590 0.86999 0.63297
 O1166 O 0.47517 0.82851 0.66176
 C1167 C 0.46770 0.85670 0.65728
 C1168 C 0.44958 0.87420 0.68073
 C1169 C 0.44317 0.86069 0.70899
 H1170 H 0.45143 0.83737 0.71340
 O1171 O 0.56291 1.09494 0.65583
 O1172 O 0.57176 1.12763 0.69471
 C1173 C 0.57701 1.10178 0.68100
 C1174 C 0.59926 1.07922 0.69472
 C1175 C 0.61142 1.08427 0.72463
 H1176 H 0.60455 1.10498 0.73747
 O1177 O 0.36692 0.97600 0.62968
 O1178 O 0.33797 0.97499 0.67101
 C1179 C 0.34255 0.96774 0.64277
 C1180 C 0.31910 0.94984 0.62498
 C1181 C 0.29045 0.94417 0.63799
 H1182 H 0.28574 0.95282 0.66113
 O1183 O 0.66289 0.99541 0.60169
 O1184 O 0.70121 0.98644 0.63505
 C1185 C 0.69003 1.00084 0.61188
 C1186 C 0.70866 1.02467 0.59741
 C1187 C 0.73718 1.03248 0.61089
 H1188 H 0.74529 1.02016 0.63106
 O1189 O 0.37023 0.86669 0.52312
 O1190 O 0.32889 0.83780 0.52411
 C1191 C 0.35711 0.84232 0.53135
 C1192 C 0.37482 0.81878 0.54920
 C1193 C 0.36177 0.79011 0.55464
 H1194 H 0.33869 0.78547 0.54582
 O1195 O 0.63745 1.12854 0.53439
 O1196 O 0.67849 1.15787 0.53337
 C1197 C 0.65302 1.15099 0.54526
 C1198 C 0.64112 1.16945 0.57172
 C1199 C 0.65492 1.19728 0.58069
 H1200 H 0.67429 1.20526 0.56784
 Cu1201 Cu 0.63617 0.96728 0.61782
 Cu1202 Cu 0.68253 0.95641 0.65748
 Cu1203 Cu 0.39760 1.00002 0.64765
 Cu1204 Cu 0.36278 0.99890 0.69729
 Cu1205 Cu 0.53262 1.11886 0.63677
 Cu1206 Cu 0.54332 1.15842 0.68322
 Cu1207 Cu 0.50000 0.85242 0.60215
 Cu1208 Cu 0.49933 0.80266 0.63686
 C1209 C 0.60796 1.05223 0.67828
 H1210 H 0.59876 1.04833 0.65505
 C1211 C 0.63232 1.06300 0.73817
 C1212 C 0.43864 0.90440 0.67509
 H1213 H 0.44340 0.91487 0.65321
 C1214 C 0.42564 0.87672 0.73132
 C1215 C 0.61553 1.15957 0.58777
 H1216 H 0.60515 1.13779 0.58112
 C1217 C 0.64338 1.21540 0.60536
 C1218 C 0.40474 0.82465 0.56077
 H1219 H 0.41486 0.84684 0.55667
 C1220 C 0.37789 0.76761 0.57188
 C1221 C 0.69734 1.04115 0.57179
 H1222 H 0.67506 1.03536 0.56161
 C1223 C 0.75408 1.05720 0.60013
 C1224 C 0.32505 0.93848 0.59497
 H1225 H 0.34720 0.94271 0.58485
 C1226 C 0.26805 0.92697 0.62169
 C1227 C 0.45962 1.07213 0.69805
 H1228 H 0.46540 1.06234 0.67559
 C1229 C 0.44359 1.09918 0.75531
 C1230 C 0.58722 0.88397 0.65817
 H1231 H 0.58070 0.89415 0.63623
 C1232 C 0.60456 0.85673 0.71448
 C1233 C 0.67808 0.89203 0.55123
 H1234 H 0.65468 0.90082 0.54752
 C1235 C 0.73849 0.86886 0.56138
 C1236 C 0.34115 1.08735 0.61666
 H1237 H 0.36295 1.08093 0.60620
 C1238 C 0.28524 1.10429 0.64471
 C1239 C 0.44729 1.17863 0.60853
 H1240 H 0.45118 1.15535 0.59952
 C1241 C 0.43662 1.23864 0.63243
 C1242 C 0.57202 0.80253 0.53951
 H1243 H 0.56223 0.82502 0.53384
 C1244 C 0.59906 0.74520 0.55534
 O1245 O 0.57749 0.97522 0.32747
 O1246 O 0.60653 0.97550 0.28628
 C1247 C 0.58330 0.96557 0.30022
 C1248 C 0.56380 0.94123 0.28549
 C1249 C 0.57139 0.92780 0.25657
 H1250 H 0.59071 0.93636 0.24401
 O1251 O 0.38053 1.06405 0.35919
 O1252 O 0.34221 1.07322 0.32595
 C1253 C 0.36898 1.07922 0.33670
 C1254 C 0.38656 1.10494 0.32414
 C1255 C 0.37803 1.11883 0.29589
 H1256 H 0.35891 1.10988 0.28206
 O1257 O 0.47348 1.17304 0.42223
 O1258 O 0.47323 1.21417 0.39303
 C1259 C 0.46351 1.20018 0.41634
 C1260 C 0.43900 1.21465 0.43579
 C1261 C 0.42505 1.24328 0.42793
 H1262 H 0.43342 1.25586 0.40852
 O1263 O 0.49608 0.85285 0.37386
 O1264 O 0.48712 0.81955 0.33555
 C1265 C 0.50271 0.82777 0.35947
 C1266 C 0.52971 0.80886 0.37010
 C1267 C 0.53479 0.77851 0.35869
 H1268 H 0.51801 0.76837 0.34282
 O1269 O 0.64058 0.88169 0.43540
 O1270 O 0.67383 0.84343 0.42624
 C1271 C 0.66312 0.87024 0.42028
 C1272 C 0.67577 0.88807 0.39471
 C1273 C 0.70414 0.87988 0.38093
 H1274 H 0.71800 0.86073 0.38977
 O1275 O 0.35155 1.12549 0.50365
 O1276 O 0.31802 1.16354 0.51275
 C1277 C 0.32637 1.13974 0.49707
 C1278 C 0.30754 1.12914 0.46999
 C1279 C 0.27743 1.14105 0.46441
 H1280 H 0.26729 1.15719 0.48093
 O1281 O 0.52273 1.13036 0.36693
 O1282 O 0.52332 1.17174 0.33799
 C1283 C 0.53080 1.14356 0.34253
 C1284 C 0.54881 1.12602 0.31905
 C1285 C 0.55471 1.13936 0.29059
 H1286 H 0.54607 1.16254 0.28607
 O1287 O 0.43596 0.90584 0.34360
 O1288 O 0.42719 0.87323 0.30463
 C1289 C 0.42194 0.89906 0.31836
 C1290 C 0.39987 0.92173 0.30454
 C1291 C 0.38829 0.91704 0.27436
 H1292 H 0.39546 0.89649 0.26143
 O1293 O 0.63251 1.02459 0.37041
 O1294 O 0.66140 1.02563 0.32904
 C1295 C 0.65687 1.03284 0.35729
 C1296 C 0.68036 1.05065 0.37509
 C1297 C 0.70916 1.05592 0.36224
 H1298 H 0.71397 1.04704 0.33921
 O1299 O 0.33569 1.00523 0.39730
 O1300 O 0.29735 1.01411 0.36393
 C1301 C 0.30854 0.99980 0.38714
 C1302 C 0.28993 0.97620 0.40194
 C1303 C 0.26100 0.96865 0.38915
 H1304 H 0.25241 0.98075 0.36897
 O1305 O 0.62925 1.13465 0.47618
 O1306 O 0.67058 1.16355 0.47516
 C1307 C 0.64240 1.15896 0.46778
 C1308 C 0.62469 1.18223 0.44950
 C1309 C 0.63768 1.21082 0.44338
 H1310 H 0.66073 1.21582 0.45211
 O1311 O 0.36157 0.87272 0.46505
 O1312 O 0.32048 0.84345 0.46611
 C1313 C 0.34596 0.85027 0.45421
 C1314 C 0.35783 0.83168 0.42780
 C1315 C 0.34418 0.80369 0.41914
 H1316 H 0.32506 0.79572 0.43232
 O1317 O 0.37377 1.00371 0.35217
 O1318 O 0.33559 1.01283 0.31874
 C1319 C 0.35948 0.99722 0.32697
 C1320 C 0.37017 0.97034 0.30797
 C1321 C 0.35867 0.96522 0.27761
 H1322 H 0.34268 0.98191 0.26748
 O1323 O 0.58457 1.03611 0.33537
 O1324 O 0.61285 1.03689 0.29365
 C1325 C 0.59230 1.04919 0.31076
 C1326 C 0.57823 1.07972 0.30293
 C1327 C 0.58436 1.09379 0.27469
 H1328 H 0.59841 1.08170 0.25767
 O1329 O 0.43569 0.85923 0.38054
 O1330 O 0.42663 0.82619 0.34205
 C1331 C 0.42062 0.83674 0.36890
 C1332 C 0.39502 0.82402 0.38657
 C1333 C 0.38116 0.79572 0.37818
 H1334 H 0.38995 0.78197 0.35894
 O1335 O 0.53447 1.16536 0.41469
 O1336 O 0.53464 1.20707 0.38631
 C1337 C 0.54733 1.18998 0.40670
 C1338 C 0.57804 1.19789 0.42025
 C1339 C 0.59183 1.22613 0.41374
 H1340 H 0.57945 1.24306 0.39979
 O1341 O 0.32710 0.92171 0.47376
 O1342 O 0.28600 0.89256 0.47395
 C1343 C 0.29987 0.91584 0.46405
 C1344 C 0.28514 0.93536 0.43969
 C1345 C 0.25632 0.92772 0.42603
 H1346 H 0.24378 0.90831 0.43446
 O1347 O 0.66378 1.08628 0.46501
 O1348 O 0.70544 1.11463 0.46439
 C1349 C 0.68840 1.09402 0.45204
 C1350 C 0.69633 1.07986 0.42161
 C1351 C 0.72489 1.08540 0.40803
 H1352 H 0.74201 1.09907 0.42042
 O1353 O 0.49415 0.89820 0.33598
 O1354 O 0.48554 0.86498 0.29748
 C1355 C 0.49966 0.88824 0.30878
 C1356 C 0.52313 0.90331 0.29020
 C1357 C 0.53066 0.89077 0.26115
 H1358 H 0.51864 0.87061 0.25245
 O1359 O 0.46473 1.13894 0.37291
 O1360 O 0.46540 1.18012 0.34368
 C1361 C 0.45370 1.15455 0.35051
 C1362 C 0.42732 1.14259 0.33196
 C1363 C 0.41833 1.15644 0.30409
 H1364 H 0.43103 1.17594 0.29619
 O1365 O 0.34336 1.06335 0.40554
 O1366 O 0.30459 1.07236 0.37272
 C1367 C 0.31819 1.07742 0.39868
 C1368 C 0.30430 1.09942 0.42135
 C1369 C 0.27433 1.11132 0.41628
 H1370 H 0.26158 1.10440 0.39551
 O1371 O 0.62692 0.96652 0.36140
 O1372 O 0.65602 0.96768 0.32017
 C1373 C 0.64931 0.95572 0.34568
 C1374 C 0.66798 0.92931 0.35748
 C1375 C 0.69601 0.92075 0.34381
 H1376 H 0.70394 0.93387 0.32459
 O1377 O 0.59422 0.84448 0.43578
 O1378 O 0.62701 0.80570 0.42688
 C1379 C 0.60110 0.81931 0.42171
 C1380 C 0.57841 0.80545 0.39968
 C1381 C 0.58307 0.77525 0.38817
 H1382 H 0.60364 0.76231 0.39532
 O1383 O 0.39655 1.16367 0.50542
 O1384 O 0.36309 1.20190 0.51426
 C1385 C 0.38634 1.19080 0.49999
 C1386 C 0.40109 1.20952 0.47641
 C1387 C 0.38800 1.23827 0.46861
 H1388 H 0.36766 1.24666 0.48050
 Cu1389 Cu 0.60188 1.00059 0.35242
 Cu1390 Cu 0.63657 1.00179 0.30271
 Cu1391 Cu 0.36260 1.03330 0.38148
 Cu1392 Cu 0.31626 1.04421 0.34178
 Cu1393 Cu 0.64688 1.10383 0.50036
 Cu1394 Cu 0.69649 1.13863 0.49940
 Cu1395 Cu 0.61810 0.86369 0.46601
 Cu1396 Cu 0.65782 0.81743 0.45522
 Cu1397 Cu 0.38070 1.13668 0.53343
 Cu1398 Cu 0.34089 1.18287 0.54430
 Cu1399 Cu 0.35232 0.89750 0.49916
 Cu1400 Cu 0.30272 0.86266 0.50021
 Cu1401 Cu 0.49886 1.14819 0.39775
 Cu1402 Cu 0.49944 1.19787 0.36288
 Cu1403 Cu 0.46621 0.88194 0.36278
 Cu1404 Cu 0.45558 0.84246 0.31623
 C1405 C 0.53943 0.92885 0.30201
 H1406 H 0.53389 0.93834 0.32465
 C1407 C 0.55486 0.90254 0.24428
 C1408 C 0.41143 1.11684 0.34171
 H1409 H 0.41807 1.10640 0.36350
 C1410 C 0.39384 1.14472 0.28582
 C1411 C 0.42688 1.19808 0.46027
 H1412 H 0.43678 1.17566 0.46601
 C1413 C 0.39950 1.25520 0.44428
 C1414 C 0.55154 0.82198 0.39075
 H1415 H 0.54793 0.84543 0.39943
 C1416 C 0.56140 0.76143 0.36787
 C1417 C 0.65815 0.91298 0.38293
 H1418 H 0.63626 0.91934 0.39323
 C1419 C 0.71435 0.89618 0.35532
 C1420 C 0.32062 1.10818 0.44840
 H1421 H 0.34391 1.09918 0.45231
 C1422 C 0.26060 1.13204 0.43758
 C1423 C 0.56025 1.09602 0.32485
 H1424 H 0.55585 1.08568 0.34689
 C1425 C 0.57225 1.12343 0.26824
 C1426 C 0.39093 0.94856 0.32107
 H1427 H 0.39966 0.95217 0.34452
 C1428 C 0.36788 0.93863 0.26054
 C1429 C 0.67430 1.06228 0.40498
 H1430 H 0.65203 1.05834 0.41497
 C1431 C 0.73159 1.07304 0.37857
 C1432 C 0.30161 0.95984 0.42751
 H1433 H 0.32415 0.96544 0.43719
 C1434 C 0.24411 0.94434 0.40072
 C1435 C 0.59467 1.17616 0.43823
 H1436 H 0.58452 1.15411 0.44287
 C1437 C 0.62140 1.23289 0.42569
 C1438 C 0.38326 0.84155 0.41155
 H1439 H 0.39358 0.86341 0.41802
 C1440 C 0.35557 0.78547 0.39441
 O1441 O 0.62776 0.49851 1.14591
 O1442 O 0.66656 0.49023 1.17884
 C1443 C 0.64225 0.50538 1.17087
 C1444 C 0.63112 0.53197 1.19004
 C1445 C 0.64249 0.53695 1.22044
 H1446 H 0.65891 0.52051 1.23032
 O1447 O 0.41498 0.46495 1.16518
 O1448 O 0.38666 0.46419 1.20688
 C1449 C 0.40726 0.45193 1.18982
 C1450 C 0.42144 0.42156 1.19783
 C1451 C 0.41500 0.40759 1.22600
 H1452 H 0.40064 0.41966 1.24278
 O1453 O 0.56250 0.64158 1.11890
 O1454 O 0.57162 0.67475 1.15726
 C1455 C 0.57751 0.66419 1.13039
 C1456 C 0.60296 0.67703 1.11263
 C1457 C 0.61711 0.70502 1.12148
 H1458 H 0.60851 0.71853 1.14098
 O1459 O 0.46692 0.33717 1.08611
 O1460 O 0.46672 0.29559 1.11468
 C1461 C 0.45417 0.31247 1.09399
 C1462 C 0.42383 0.30412 1.07982
 C1463 C 0.41079 0.27523 1.08515
 H1464 H 0.42345 0.25823 1.09879
 O1465 O 0.67031 0.58034 1.02406
 O1466 O 0.71117 0.60979 1.02282
 C1467 C 0.69780 0.58626 1.03279
 C1468 C 0.71383 0.56628 1.05577
 C1469 C 0.74452 0.57191 1.06519
 H1470 H 0.75712 0.59024 1.05478
 O1471 O 0.33573 0.41424 1.03561
 O1472 O 0.29443 0.38541 1.03653
 C1473 C 0.31133 0.40616 1.04880
 C1474 C 0.30344 0.42006 1.07938
 C1475 C 0.27513 0.41390 1.09322
 H1476 H 0.25816 0.39995 1.08094
 O1477 O 0.50476 0.60246 1.16430
 O1478 O 0.51350 0.63588 1.20259
 C1479 C 0.49938 0.61256 1.19149
 C1480 C 0.47593 0.59768 1.21024
 C1481 C 0.46831 0.61058 1.23912
 H1482 H 0.48036 0.63079 1.24762
 O1483 O 0.53659 0.36421 1.12771
 O1484 O 0.53594 0.32321 1.15719
 C1485 C 0.54773 0.34871 1.15012
 C1486 C 0.57442 0.36058 1.16837
 C1487 C 0.58337 0.34679 1.19622
 H1488 H 0.57016 0.32774 1.20433
 O1489 O 0.65788 0.43837 1.09299
 O1490 O 0.69718 0.42997 1.12533
 C1491 C 0.68313 0.42440 1.09970
 C1492 C 0.69656 0.40188 1.07723
 C1493 C 0.72645 0.38972 1.08219
 H1494 H 0.73946 0.39688 1.10271
 O1495 O 0.37231 0.53416 1.13893
 O1496 O 0.34319 0.53291 1.18015
 C1497 C 0.34983 0.54482 1.15460
 C1498 C 0.33094 0.57096 1.14273
 C1499 C 0.30284 0.57916 1.15640
 H1500 H 0.29508 0.56592 1.17560
 O1501 O 0.40387 0.65564 1.06385
 O1502 O 0.37092 0.69423 1.07294
 C1503 C 0.39693 0.68073 1.07800
 C1504 C 0.41957 0.69459 1.10008
 C1505 C 0.41457 0.72459 1.11199
 H1506 H 0.39385 0.73740 1.10506
 O1507 O 0.60274 0.33727 0.99458
 O1508 O 0.63608 0.29898 0.98559
 C1509 C 0.61300 0.31018 1.00007
 C1510 C 0.59866 0.29167 1.02408
 C1511 C 0.61205 0.26312 1.03201
 H1512 H 0.63208 0.25484 1.01962
 O1513 O 0.42149 0.52587 1.17325
 O1514 O 0.39247 0.52555 1.21446
 C1515 C 0.41565 0.53556 1.20050
 C1516 C 0.43510 0.55999 1.21515
 C1517 C 0.42738 0.57378 1.24390
 H1518 H 0.40794 0.56544 1.25644
 O1519 O 0.62192 0.43809 1.14008
 O1520 O 0.66057 0.42945 1.17305
 C1521 C 0.63371 0.42316 1.16264
 C1522 C 0.61609 0.39749 1.17558
 C1523 C 0.62473 0.38340 1.20379
 H1524 H 0.64419 0.39197 1.21737
 O1525 O 0.52773 0.32884 1.07948
 O1526 O 0.52789 0.28769 1.10867
 C1527 C 0.53754 0.30161 1.08529
 C1528 C 0.56172 0.28690 1.06559
 C1529 C 0.57596 0.25840 1.07356
 H1530 H 0.56810 0.24610 1.09338
 O1531 O 0.50214 0.64744 1.12589
 O1532 O 0.51115 0.68087 1.16407
 C1533 C 0.49543 0.67251 1.14026
 C1534 C 0.46824 0.69127 1.12978
 C1535 C 0.46274 0.72137 1.14166
 H1536 H 0.47936 0.73151 1.15771
 O1537 O 0.35751 0.61857 1.06455
 O1538 O 0.32403 0.65660 1.07385
 C1539 C 0.33496 0.62988 1.07977
 C1540 C 0.32260 0.61200 1.10542
 C1541 C 0.29416 0.61987 1.11924
 H1542 H 0.28005 0.63884 1.11036
 O1543 O 0.64810 0.37500 0.99582
 O1544 O 0.68153 0.33691 0.98654
 C1545 C 0.67336 0.36078 1.00221
 C1546 C 0.69254 0.37151 1.02903
 C1547 C 0.72263 0.35943 1.03445
 H1548 H 0.73244 0.34295 1.01806
 O1549 O 0.47830 0.37140 1.13482
 O1550 O 0.47765 0.32999 1.16371
 C1551 C 0.47008 0.35812 1.15914
 C1552 C 0.45162 0.37553 1.18240
 C1553 C 0.44553 0.36231 1.21092
 H1554 H 0.45453 0.33936 1.21592
 O1555 O 0.56301 0.59497 1.15573
 O1556 O 0.57183 0.62771 1.19459
 C1557 C 0.57728 0.60196 1.18077
 C1558 C 0.60000 0.57967 1.19423
 C1559 C 0.61151 0.58423 1.22446
 H1560 H 0.60377 0.60436 1.23773
 O1561 O 0.36680 0.47604 1.13038
 O1562 O 0.33796 0.47492 1.17178
 C1563 C 0.34253 0.46763 1.14355
 C1564 C 0.31921 0.44948 1.12586
 C1565 C 0.29060 0.44368 1.13889
 H1566 H 0.28570 0.45252 1.16193
 O1567 O 0.66624 0.49655 1.10085
 O1568 O 0.70534 0.48843 1.13349
 C1569 C 0.69362 0.50222 1.11018
 C1570 C 0.71172 0.52532 1.09382
 C1571 C 0.74273 0.53066 1.10221
 H1572 H 0.75383 0.51737 1.12047
 O1573 O 0.37154 0.36704 1.02407
 O1574 O 0.33070 0.33748 1.02542
 C1575 C 0.35889 0.34250 1.03251
 C1576 C 0.37714 0.31933 1.05037
 C1577 C 0.36492 0.29019 1.05540
 H1578 H 0.34208 0.28490 1.04629
 O1579 O 0.63592 0.62912 1.03367
 O1580 O 0.67678 0.65867 1.03219
 C1581 C 0.65158 0.65154 1.04447
 C1582 C 0.64007 0.66973 1.07128
 C1583 C 0.65418 0.69732 1.08058
 H1584 H 0.67360 0.70531 1.06781
 Cu1585 Cu 0.63927 0.46872 1.11707
 Cu1586 Cu 0.68614 0.45857 1.15620
 Cu1587 Cu 0.39740 0.50029 1.14817
 Cu1588 Cu 0.36269 0.49906 1.19790
 Cu1589 Cu 0.53230 0.61865 1.13699
 Cu1590 Cu 0.54307 0.65833 1.18331
 Cu1591 Cu 0.50228 0.35419 1.10359
 Cu1592 Cu 0.50188 0.30462 1.13853
 C1593 C 0.60971 0.55334 1.17728
 H1594 H 0.60101 0.54980 1.15380
 C1595 C 0.63253 0.56299 1.23792
 C1596 C 0.43989 0.40535 1.17625
 H1597 H 0.44445 0.41564 1.15423
 C1598 C 0.42738 0.37821 1.23283
 C1599 C 0.61447 0.65986 1.08732
 H1600 H 0.60385 0.63827 1.08044
 C1601 C 0.64289 0.71520 1.10554
 C1602 C 0.40682 0.32595 1.06224
 H1603 H 0.41637 0.34846 1.05844
 C1604 C 0.38159 0.26798 1.07251
 C1605 C 0.69769 0.54288 1.07016
 H1606 H 0.67377 0.53897 1.06358
 C1607 C 0.75915 0.55397 1.08805
 C1608 C 0.32526 0.43800 1.09590
 H1609 H 0.34735 0.44238 1.08574
 C1610 C 0.26842 0.42611 1.12273
 C1611 C 0.45961 0.57208 1.19865
 H1612 H 0.46525 0.56233 1.17614
 C1613 C 0.44395 0.59912 1.25602
 C1614 C 0.59074 0.38595 1.15833
 H1615 H 0.58400 0.39637 1.13657
 C1616 C 0.60841 0.35785 1.21417
 C1617 C 0.67988 0.39288 1.05047
 H1618 H 0.65664 0.40207 1.04666
 C1619 C 0.73982 0.36865 1.06100
 C1620 C 0.34054 0.58734 1.11724
 H1621 H 0.36249 0.58122 1.10694
 C1622 C 0.28421 0.60347 1.14488
 C1623 C 0.44660 0.67821 1.10885
 H1624 H 0.45048 0.65492 1.09985
 C1625 C 0.43595 0.73827 1.13267
 C1626 C 0.57321 0.30320 1.04062
 H1627 H 0.56311 0.32552 1.03478
 C1628 C 0.60132 0.24641 1.05691
 O1629 O 0.57618 0.47451 0.82709
 O1630 O 0.60510 0.47504 0.78581
 C1631 C 0.58199 0.46495 0.79980
 C1632 C 0.56266 0.44052 0.78511
 C1633 C 0.57045 0.42700 0.75629
 H1634 H 0.58974 0.43564 0.74374
 O1635 O 0.37879 0.56354 0.85896
 O1636 O 0.34017 0.57232 0.82597
 C1637 C 0.36696 0.57853 0.83646
 C1638 C 0.38430 0.60432 0.82370
 C1639 C 0.37562 0.61826 0.79549
 H1640 H 0.35647 0.60931 0.78171
 O1641 O 0.47055 0.67268 0.92147
 O1642 O 0.47032 0.71376 0.89218
 C1643 C 0.46064 0.69983 0.91556
 C1644 C 0.43635 0.71443 0.93517
 C1645 C 0.42242 0.74308 0.92741
 H1646 H 0.43058 0.75556 0.90783
 O1647 O 0.49614 0.35237 0.87427
 O1648 O 0.48712 0.31900 0.83605
 C1649 C 0.50286 0.32733 0.85986
 C1650 C 0.53011 0.30862 0.87028
 C1651 C 0.53574 0.27858 0.85825
 H1652 H 0.51917 0.26849 0.84212
 O1653 O 0.64064 0.38195 0.93550
 O1654 O 0.67389 0.34371 0.92616
 C1655 C 0.66306 0.37048 0.92022
 C1656 C 0.67540 0.38824 0.89449
 C1657 C 0.70373 0.38017 0.88058
 H1658 H 0.71772 0.36109 0.88940
 O1659 O 0.35077 0.62491 1.00414
 O1660 O 0.31712 0.66286 1.01328
 C1661 C 0.32550 0.63902 0.99764
 C1662 C 0.30657 0.62820 0.97074
 C1663 C 0.27610 0.63934 0.96578
 H1664 H 0.26591 0.65514 0.98259
 O1665 O 0.52043 0.63002 0.86671
 O1666 O 0.52108 0.67132 0.83766
 C1667 C 0.52865 0.64318 0.84234
 C1668 C 0.54690 0.62559 0.81901
 C1669 C 0.55300 0.63888 0.79055
 H1670 H 0.54444 0.66206 0.78593
 O1671 O 0.43554 0.40508 0.84434
 O1672 O 0.42667 0.37240 0.80545
 C1673 C 0.42141 0.39824 0.81918
 C1674 C 0.39921 0.42086 0.80541
 C1675 C 0.38771 0.41622 0.77519
 H1676 H 0.39497 0.39573 0.76221
 O1677 O 0.63089 0.52426 0.86981
 O1678 O 0.65964 0.52547 0.82834
 C1679 C 0.65510 0.53270 0.85657
 C1680 C 0.67842 0.55075 0.87419
 C1681 C 0.70744 0.55549 0.86161
 H1682 H 0.71252 0.54599 0.83887
 O1683 O 0.33491 0.50461 0.89801
 O1684 O 0.29634 0.51303 0.86479
 C1685 C 0.30777 0.49889 0.88800
 C1686 C 0.28945 0.47510 0.90284
 C1687 C 0.26062 0.46730 0.89002
 H1688 H 0.25194 0.47940 0.86988
 O1689 O 0.62616 0.63517 0.97566
 O1690 O 0.66710 0.66460 0.97425
 C1691 C 0.63887 0.65974 0.96741
 C1692 C 0.62066 0.68315 0.95006
 C1693 C 0.63293 0.71229 0.94528
 H1694 H 0.65582 0.71746 0.95431
 O1695 O 0.36193 0.37200 0.96598
 O1696 O 0.32118 0.34232 0.96748
 C1697 C 0.34650 0.34931 0.95538
 C1698 C 0.35833 0.33065 0.92899
 C1699 C 0.34462 0.30266 0.92039
 H1700 H 0.32556 0.29470 0.93366
 O1701 O 0.37295 0.50304 0.85286
 O1702 O 0.33451 0.51172 0.81960
 C1703 C 0.35857 0.49630 0.82779
 C1704 C 0.36936 0.46940 0.80886
 C1705 C 0.35797 0.46432 0.77847
 H1706 H 0.34199 0.48102 0.76833
 O1707 O 0.58263 0.53546 0.83535
 O1708 O 0.61084 0.53641 0.79358
 C1709 C 0.59030 0.54862 0.81077
 C1710 C 0.57624 0.57916 0.80301
 C1711 C 0.58250 0.59317 0.77480
 H1712 H 0.59653 0.58100 0.75782
 O1713 O 0.43573 0.35836 0.88112
 O1714 O 0.42654 0.32517 0.84280
 C1715 C 0.42067 0.33577 0.86966
 C1716 C 0.39524 0.32301 0.88753
 C1717 C 0.38131 0.29475 0.87917
 H1718 H 0.38993 0.28105 0.85982
 O1719 O 0.53126 0.66543 0.91448
 O1720 O 0.53146 0.70711 0.88603
 C1721 C 0.54388 0.69024 0.90672
 C1722 C 0.57401 0.69862 0.92099
 C1723 C 0.58701 0.72753 0.91580
 H1724 H 0.57436 0.74461 0.90227
 O1725 O 0.32721 0.42100 0.97456
 O1726 O 0.28654 0.39128 0.97496
 C1727 C 0.30007 0.41472 0.96490
 C1728 C 0.28508 0.43403 0.94046
 C1729 C 0.25636 0.42609 0.92667
 H1730 H 0.24404 0.40649 0.93498
 O1731 O 0.66140 0.58748 0.96360
 O1732 O 0.70258 0.61648 0.96225
 C1733 C 0.68578 0.59549 0.95032
 C1734 C 0.69388 0.58094 0.92017
 C1735 C 0.72269 0.58594 0.90688
 H1736 H 0.73976 0.59972 0.91923
 O1737 O 0.49360 0.39730 0.83587
 O1738 O 0.48487 0.36394 0.79751
 C1739 C 0.49897 0.38727 0.80865
 C1740 C 0.52230 0.40234 0.78993
 C1741 C 0.53002 0.38965 0.76099
 H1742 H 0.51820 0.36933 0.75240
 O1743 O 0.46226 0.63845 0.87231
 O1744 O 0.46294 0.67956 0.84296
 C1745 C 0.45128 0.65400 0.84986
 C1746 C 0.42498 0.64200 0.83138
 C1747 C 0.41595 0.65586 0.80358
 H1748 H 0.42866 0.67535 0.79567
 O1749 O 0.34242 0.56286 0.90596
 O1750 O 0.30330 0.57136 0.87343
 C1751 C 0.31708 0.57668 0.89926
 C1752 C 0.30318 0.59859 0.92203
 C1753 C 0.27288 0.60984 0.91751
 H1754 H 0.25990 0.60258 0.89700
 O1755 O 0.62566 0.46614 0.86113
 O1756 O 0.65464 0.46752 0.81984
 C1757 C 0.64813 0.45555 0.84540
 C1758 C 0.66712 0.42936 0.85723
 C1759 C 0.69521 0.42105 0.84355
 H1760 H 0.70295 0.43435 0.82439
 O1761 O 0.59456 0.34440 0.93621
 O1762 O 0.62744 0.30576 0.92707
 C1763 C 0.60146 0.31928 0.92203
 C1764 C 0.57884 0.30542 0.89990
 C1765 C 0.58400 0.27552 0.88778
 H1766 H 0.60478 0.26278 0.89464
 O1767 O 0.39511 0.66388 1.00571
 O1768 O 0.36150 0.70195 1.01467
 C1769 C 0.38468 0.69095 1.00025
 C1770 C 0.39909 0.70961 0.97642
 C1771 C 0.38597 0.73839 0.96869
 H1772 H 0.36585 0.74690 0.98089
 Cu1773 Cu 0.60035 0.50000 0.85211
 Cu1774 Cu 0.63490 0.50144 0.80227
 Cu1775 Cu 0.36155 0.53280 0.88186
 Cu1776 Cu 0.31487 0.54314 0.84243
 Cu1777 Cu 0.64464 0.60457 0.99929
 Cu1778 Cu 0.69386 0.63995 0.99752
 Cu1779 Cu 0.61856 0.36390 0.96628
 Cu1780 Cu 0.65824 0.31764 0.95528
 Cu1781 Cu 0.37980 0.63655 1.03377
 Cu1782 Cu 0.33984 0.68256 1.04480
 Cu1783 Cu 0.35276 0.39717 0.99995
 Cu1784 Cu 0.30369 0.36169 1.00153
 Cu1785 Cu 0.49615 0.64786 0.89722
 Cu1786 Cu 0.49675 0.69746 0.86223
 Cu1787 Cu 0.46603 0.38120 0.86316
 Cu1788 Cu 0.45522 0.34157 0.81680
 C1789 C 0.53835 0.42808 0.80161
 H1790 H 0.53267 0.43769 0.82417
 C1791 C 0.55419 0.40152 0.74411
 C1792 C 0.40919 0.61625 0.84117
 H1793 H 0.41593 0.60584 0.86295
 C1794 C 0.39142 0.64421 0.78540
 C1795 C 0.42456 0.69803 0.95991
 H1796 H 0.43449 0.67560 0.96561
 C1797 C 0.39717 0.75519 0.94410
 C1798 C 0.55171 0.32168 0.89126
 H1799 H 0.54772 0.34491 0.90040
 C1800 C 0.56263 0.26177 0.86711
 C1801 C 0.65753 0.41298 0.88273
 H1802 H 0.63563 0.41918 0.89310
 C1803 C 0.71376 0.39653 0.85495
 C1804 C 0.31976 0.60766 0.94884
 H1805 H 0.34330 0.59918 0.95234
 C1806 C 0.25900 0.63001 0.93924
 C1807 C 0.55823 0.59554 0.82488
 H1808 H 0.55372 0.58521 0.84689
 C1809 C 0.57058 0.62283 0.76828
 C1810 C 0.39014 0.44765 0.82198
 H1811 H 0.39882 0.45126 0.84545
 C1812 C 0.36730 0.43780 0.76137
 C1813 C 0.67198 0.56313 0.90368
 H1814 H 0.64954 0.55957 0.91347
 C1815 C 0.72976 0.57280 0.87784
 C1816 C 0.30128 0.45878 0.92837
 H1817 H 0.32374 0.46463 0.93808
 C1818 C 0.24399 0.44275 0.90143
 C1819 C 0.59098 0.67666 0.93832
 H1820 H 0.58145 0.65410 0.94193
 C1821 C 0.61623 0.73461 0.92839
 C1822 C 0.38367 0.34052 0.91261
 H1823 H 0.39403 0.36237 0.91904
 C1824 C 0.35581 0.28449 0.89555
 C1825 C 1.15207 1.09508 1.31157
 C1826 C 1.17465 1.07181 1.31149
 C1827 C 1.17060 1.05601 1.28404
 C1828 C 1.14599 1.07073 1.26926
 O1829 O 1.13480 1.09414 1.28599
 H1830 H 1.19221 1.06672 1.32893
 H1831 H 1.18448 1.03660 1.27573
 C1832 C 1.14610 0.58946 0.81439
 C1833 C 1.16545 0.56366 0.81620
 C1834 C 1.16233 0.54865 0.78820
 C1835 C 1.14136 0.56642 0.77132
 O1836 O 1.13157 0.59097 0.78729
 H1837 H 1.18007 0.55647 0.83546
 H1838 H 1.17418 0.52748 0.78115
 C1839 C 0.65041 1.09392 0.81234
 C1840 C 0.67244 1.07014 0.81251
 C1841 C 0.66849 1.05456 0.78493
 C1842 C 0.64446 1.06989 0.76983
 O1843 O 0.63353 1.09349 0.78649
 H1844 H 0.68961 1.06460 0.83020
 H1845 H 0.68206 1.03486 0.77679
 C1846 C 0.64798 0.59190 1.31333
 C1847 C 0.66760 0.56630 1.31502
 C1848 C 0.66461 0.55138 1.28697
 C1849 C 0.64343 0.56900 1.27019
 O1850 O 0.63340 0.59338 1.28626
 H1851 H 0.68231 0.55916 1.33424
 H1852 H 0.67665 0.53034 1.27984
 C1853 C 0.89920 0.85314 1.30423
 C1854 C 0.92789 0.83817 1.30569
 C1855 C 0.94234 0.84567 1.27937
 C1856 C 0.92179 0.86481 1.26376
 O1857 O 0.89571 0.86945 1.27872
 H1858 H 0.93738 0.82303 1.32322
 H1859 H 0.96524 0.83816 1.27246
 C1860 C 0.89689 0.35008 0.80058
 C1861 C 0.92357 0.33190 0.80021
 C1862 C 0.93838 0.33969 0.77417
 C1863 C 0.91975 0.36204 0.76044
 O1864 O 0.89464 0.36843 0.77646
 H1865 H 0.93124 0.31452 0.81644
 H1866 H 0.96017 0.33010 0.76622
 C1867 C 0.39573 0.84990 0.80083
 C1868 C 0.42222 0.83145 0.80039
 C1869 C 0.43720 0.83926 0.77448
 C1870 C 0.41886 0.86190 0.76085
 O1871 O 0.39374 0.86844 0.77683
 H1872 H 0.42964 0.81388 0.81653
 H1873 H 0.45893 0.82952 0.76655
 C1874 C 0.39839 0.35190 1.30301
 C1875 C 0.42694 0.33669 1.30432
 C1876 C 0.44152 0.34443 1.27814
 C1877 C 0.42117 0.36396 1.26273
 O1878 O 0.39508 0.36857 1.27770
 H1879 H 0.43628 0.32129 1.32170
 H1880 H 0.46442 0.33691 1.27126
 C1881 C 0.87142 1.16547 0.71023
 C1882 C 0.88304 1.19353 0.72052
 C1883 C 0.89194 1.18933 0.75045
 C1884 C 0.88544 1.15901 0.75666
 O1885 O 0.87267 1.14457 0.73240
 H1886 H 0.88470 1.21492 0.70827
 H1887 H 0.90195 1.20658 0.76589
 C1888 C 0.89971 0.62662 0.19494
 C1889 C 0.91861 0.60064 0.19839
 C1890 C 0.92650 0.59990 0.22891
 C1891 C 0.91166 0.62514 0.24217
 O1892 O 0.89548 0.64166 0.22167
 H1893 H 0.92482 0.58346 0.18091
 H1894 H 0.93949 0.58177 0.24062
 C1895 C 0.37187 1.16563 0.20973
 C1896 C 0.38065 1.19449 0.22056
 C1897 C 0.38941 1.19059 0.25062
 C1898 C 0.38533 1.15967 0.25623
 O1899 O 0.37441 1.14451 0.23153
 H1900 H 0.38059 1.21603 0.20833
 H1901 H 0.39773 1.20831 0.26656
 C1902 C 0.36992 0.66540 0.70933
 C1903 C 0.37877 0.69420 0.72023
 C1904 C 0.38729 0.69021 0.75034
 C1905 C 0.38301 0.65929 0.75587
 O1906 O 0.37222 0.64424 0.73110
 H1907 H 0.37883 0.71578 0.70807
 H1908 H 0.39557 0.70787 0.76637
 C1909 C 1.09464 0.86539 0.68282
 C1910 C 1.06680 0.85126 0.67706
 C1911 C 1.04725 0.86370 0.69845
 C1912 C 1.06466 0.88441 0.71590
 O1913 O 1.09333 0.88565 0.70616
 H1914 H 1.06142 0.83387 0.65952
 H1915 H 1.02331 0.85784 0.70117
 C1916 C 1.09833 0.36276 0.18448
 C1917 C 1.07174 0.34573 0.18142
 C1918 C 1.05180 0.35860 0.20207
 C1919 C 1.06764 0.38236 0.21682
 O1920 O 1.09565 0.38521 0.20571
 H1921 H 1.06699 0.32642 0.16586
 H1922 H 1.02867 0.35087 0.20600
 C1923 C 0.59475 0.86691 0.18258
 C1924 C 0.56676 0.85313 0.17671
 C1925 C 0.54731 0.86577 0.19809
 C1926 C 0.56496 0.88622 0.21564
 O1927 O 0.59365 0.88711 0.20597
 H1928 H 0.56122 0.83585 0.15912
 H1929 H 0.52329 0.86019 0.20076
 C1930 C 0.59450 0.36646 0.68238
 C1931 C 0.56672 0.35222 0.67662
 C1932 C 0.54716 0.36448 0.69810
 C1933 C 0.56452 0.38522 0.71557
 O1934 O 0.59315 0.38663 0.70577
 H1935 H 0.56137 0.33489 0.65901
 H1936 H 0.52325 0.35852 0.70083
 C1937 C 1.31765 1.09533 1.13384
 C1938 C 1.32313 1.06750 1.14810
 C1939 C 1.30154 1.04813 1.13574
 C1940 C 1.28423 1.06565 1.11495
 O1941 O 1.29428 1.09422 1.11359
 H1942 H 1.34065 1.06199 1.16550
 H1943 H 1.29864 1.02423 1.14169
 C1944 C 1.31462 0.59663 0.63524
 C1945 C 1.31762 0.57001 0.65226
 C1946 C 1.29682 0.55020 0.63944
 C1947 C 1.28201 0.56618 0.61577
 O1948 O 1.29330 0.59412 0.61285
 H1949 H 1.33317 0.56522 0.67159
 H1950 H 1.29273 0.52711 0.64726
 C1951 C 0.81441 1.09782 0.63805
 C1952 C 0.81727 1.07101 0.65477
 C1953 C 0.79656 1.05133 0.64151
 C1954 C 0.78195 1.06757 0.61788
 O1955 O 0.79325 1.09555 0.61546
 H1956 H 0.83267 1.06597 0.67415
 H1957 H 0.79246 1.02812 0.64897
 C1958 C 0.82928 0.58580 1.11456
 C1959 C 0.83784 0.55493 1.11714
 C1960 C 0.81290 0.53875 1.10679
 C1961 C 0.79104 0.56080 1.09833
 O1962 O 0.80094 0.58932 1.10278
 H1963 H 0.85930 0.54518 1.12627
 H1964 H 0.81068 0.51387 1.10602
 C1965 C 1.28820 0.87235 0.83386
 C1966 C 1.27797 0.88408 0.80578
 C1967 C 1.24809 0.89311 0.80996
 C1968 C 1.24187 0.88653 0.84027
 O1969 O 1.26605 0.87363 0.85473
 H1970 H 1.29026 0.88586 0.78444
 H1971 H 1.23272 0.90328 0.79272
 C1972 C 1.29156 0.37393 0.33435
 C1973 C 1.28161 0.38620 0.30643
 C1974 C 1.25165 0.39500 0.31041
 C1975 C 1.24506 0.38779 0.34048
 O1976 O 1.26913 0.37468 0.35495
 H1977 H 1.29413 0.38840 0.28527
 H1978 H 1.23645 0.40540 0.29316
 C1979 C 0.79051 0.87422 0.33456
 C1980 C 0.78022 0.88452 0.30602
 C1981 C 0.75025 0.89353 0.30988
 C1982 C 0.74412 0.88811 0.34048
 O1983 O 0.76845 0.87613 0.35544
 H1984 H 0.79270 0.88524 0.28467
 H1985 H 0.73470 0.90279 0.29228
 C1986 C 0.78973 0.37373 0.83372
 C1987 C 0.77993 0.38625 0.80584
 C1988 C 0.75016 0.39568 0.80993
 C1989 C 0.74354 0.38855 0.84000
 O1990 O 0.76739 0.37494 0.85439
 H1991 H 0.79241 0.38827 0.78464
 H1992 H 0.73512 0.40638 0.79274
 C1993 C 0.69795 0.89982 1.14842
 C1994 C 0.69830 0.92710 1.16566
 C1995 C 0.72470 0.94127 1.15794
 C1996 C 0.73862 0.92169 1.13655
 O1997 O 0.72241 0.89660 1.13068
 H1998 H 0.68184 0.93558 1.18244
 H1999 H 0.73278 0.96324 1.16695
 C2000 C 0.69545 0.40014 0.64589
 C2001 C 0.69425 0.42916 0.66015
 C2002 C 0.72080 0.44309 0.65247
 C2003 C 0.73626 0.42192 0.63389
 O2004 O 0.72100 0.39595 0.62979
 H2005 H 0.67674 0.43918 0.67497
 H2006 H 0.72796 0.46605 0.65950
 C2007 C 0.19759 0.89897 0.64805
 C2008 C 0.19792 0.92619 0.66540
 C2009 C 0.22416 0.94054 0.65755
 C2010 C 0.23806 0.92116 0.63597
 O2011 O 0.22195 0.89598 0.63011
 H2012 H 0.18154 0.93448 0.68235
 H2013 H 0.23218 0.96252 0.66661
 C2014 C 0.19815 0.39786 1.14954
 C2015 C 0.19738 0.42630 1.16497
 C2016 C 0.22356 0.44067 1.15690
 C2017 C 0.23844 0.42030 1.13699
 O2018 O 0.22312 0.39443 1.13243
 H2019 H 0.18033 0.43571 1.18066
 H2020 H 0.23082 0.46341 1.16454
 C2021 C 0.68641 1.14769 0.90822
 C2022 C 0.68422 1.16687 0.93411
 C2023 C 0.71173 1.16313 0.94992
 C2024 C 0.72871 1.14200 0.93247
 O2025 O 0.71327 1.13271 0.90740
 H2026 H 0.66505 1.18181 0.94083
 H2027 H 0.71842 1.17470 0.97137
 C2028 C 0.68556 0.64797 0.40877
 C2029 C 0.68366 0.66719 0.43464
 C2030 C 0.71153 0.66390 0.44985
 C2031 C 0.72842 0.64296 0.43210
 O2032 O 0.71259 0.63335 0.40738
 H2033 H 0.66442 0.68185 0.44176
 H2034 H 0.71849 0.67563 0.47113
 C2035 C 0.18681 1.14993 0.40584
 C2036 C 0.18620 1.17181 0.42974
 C2037 C 0.21354 1.16785 0.44577
 C2038 C 0.22893 1.14397 0.43053
 O2039 O 0.21266 1.13313 0.40663
 H2040 H 0.16842 1.18894 0.43502
 H2041 H 0.22139 1.18136 0.46564
 C2042 C 0.18385 0.64560 0.90983
 C2043 C 0.18186 0.66478 0.93573
 C2044 C 0.20975 0.66162 0.95093
 C2045 C 0.22673 0.64079 0.93315
 O2046 O 0.21094 0.63112 0.90842
 H2047 H 0.16255 0.67935 0.94285
 H2048 H 0.21666 0.67337 0.97221
 C2049 C 1.16604 1.29044 1.12563
 C2050 C 1.19437 1.28001 1.11502
 C2051 C 1.19023 1.25008 1.10604
 C2052 C 1.15969 1.24412 1.11176
 O2053 O 1.14503 1.26851 1.12390
 H2054 H 1.21579 1.29233 1.11418
 H2055 H 1.20765 1.23443 1.09665
 C2056 C 1.16489 0.78948 0.62862
 C2057 C 1.19360 0.77851 0.61953
 C2058 C 1.18940 0.74861 0.61044
 C2059 C 1.15847 0.74322 0.61464
 O2060 O 1.14359 0.76790 0.62593
 H2061 H 1.21523 0.79053 0.61956
 H2062 H 1.20692 0.73263 0.60181
 C2063 C 0.66457 1.29138 0.62725
 C2064 C 0.69331 1.28053 0.61816
 C2065 C 0.68929 1.25050 0.60943
 C2066 C 0.65843 1.24493 0.61383
 O2067 O 0.64342 1.26962 0.62490
 H2068 H 0.71485 1.29270 0.61803
 H2069 H 0.70691 1.23456 0.60093
 C2070 C 0.66480 0.79059 1.12861
 C2071 C 0.69350 0.77951 1.11961
 C2072 C 0.68919 0.74967 1.11041
 C2073 C 0.65822 0.74442 1.11447
 O2074 O 0.64340 0.76913 1.12577
 H2075 H 0.71520 0.79142 1.11976
 H2076 H 0.70668 0.73363 1.10180
 C2077 C 0.86225 1.31632 0.90335
 C2078 C 0.84806 1.32184 0.93120
 C2079 C 0.86073 1.30051 0.95074
 C2080 C 0.88166 1.28332 0.93331
 O2081 O 0.88275 1.29317 0.90465
 H2082 H 0.83060 1.33928 0.93667
 H2083 H 0.85497 1.29776 0.97473
 C2084 C 0.86406 0.81632 0.40431
 C2085 C 0.84977 0.82166 0.43214
 C2086 C 0.86212 0.79995 0.45145
 C2087 C 0.88293 0.78277 0.43387
 O2088 O 0.88429 0.79296 0.40537
 H2089 H 0.83248 0.83922 0.43773
 H2090 H 0.85620 0.79697 0.47535
 C2091 C 0.36372 1.31664 0.40394
 C2092 C 0.34938 1.32218 0.43173
 C2093 C 0.36182 1.30074 0.45128
 C2094 C 0.38276 1.28352 0.43392
 O2095 O 0.38409 1.29342 0.40530
 H2096 H 0.33197 1.33969 0.43713
 H2097 H 0.35589 1.29793 0.47522
 C2098 C 0.36140 0.81678 0.90395
 C2099 C 0.34714 0.82232 0.93178
 C2100 C 0.35960 0.80084 0.95129
 C2101 C 0.38046 0.78358 0.93385
 O2102 O 0.38172 0.79351 0.90524
 H2103 H 0.32971 0.83979 0.93721
 H2104 H 0.35371 0.79800 0.97522
 C2105 C 1.08972 0.68457 0.85250
 C2106 C 1.06411 0.68301 0.83288
 C2107 C 1.04917 0.71101 0.83606
 C2108 C 1.06678 0.72764 0.85735
 O2109 O 1.09119 0.71152 0.86727
 H2110 H 1.05700 0.66390 0.81803
 H2111 H 1.02814 0.71823 0.82403
 C2112 C 1.09315 0.18720 0.34927
 C2113 C 1.06777 0.18542 0.32936
 C2114 C 1.05208 0.21302 0.33298
 C2115 C 1.06909 0.22962 0.35479
 O2116 O 1.09378 0.21388 0.36459
 H2117 H 1.06130 0.16646 0.31402
 H2118 H 1.03101 0.22002 0.32089
 C2119 C 0.59083 0.68635 0.35190
 C2120 C 0.56513 0.68458 0.33242
 C2121 C 0.54997 0.71248 0.33566
 C2122 C 0.56757 0.72926 0.35684
 O2123 O 0.59216 0.71333 0.36663
 H2124 H 0.55809 0.66541 0.31762
 H2125 H 0.52882 0.71953 0.32375
 C2126 C 0.59326 0.18743 0.84963
 C2127 C 0.56795 0.18593 0.82961
 C2128 C 0.55243 0.21357 0.83333
 C2129 C 0.56942 0.22995 0.85532
 O2130 O 0.59400 0.21402 0.86514
 H2131 H 0.56136 0.16708 0.81419
 H2132 H 0.53144 0.22072 0.82120
 C2133 C 0.84866 0.69925 1.12088
 C2134 C 0.81995 0.70989 1.11098
 C2135 C 0.82480 0.73785 1.09831
 C2136 C 0.85634 0.74233 1.10097
 O2137 O 0.87080 0.71890 1.11500
 H2138 H 0.79812 0.69832 1.11234
 H2139 H 0.80720 0.75276 1.08806
 C2140 C 0.84834 0.19921 0.60304
 C2141 C 0.83051 0.19976 0.57611
 C2142 C 0.83918 0.22533 0.56107
 C2143 C 0.86166 0.23869 0.57980
 O2144 O 0.86733 0.22283 0.60521
 H2145 H 0.81284 0.18392 0.56835
 H2146 H 0.83005 0.23324 0.53905
 C2147 C 0.34994 0.69777 0.59992
 C2148 C 0.33327 0.69801 0.57227
 C2149 C 0.34194 0.72392 0.55778
 C2150 C 0.36329 0.73772 0.57751
 O2151 O 0.36826 0.72185 0.60301
 H2152 H 0.31630 0.68178 0.56371
 H2153 H 0.33352 0.73184 0.53549
 C2154 C 0.35547 0.19699 1.09941
 C2155 C 0.33975 0.19668 1.07120
 C2156 C 0.34789 0.22299 1.05709
 C2157 C 0.36802 0.23752 1.07756
 O2158 O 0.37274 0.22177 1.10318
 H2159 H 0.32361 0.17990 1.06207
 H2160 H 0.33989 0.23073 1.03460
 C2161 C 1.10090 1.15044 0.69885
 C2162 C 1.07402 1.16829 0.69933
 C2163 C 1.05921 1.16001 0.72521
 C2164 C 1.07802 1.13769 0.73877
 O2165 O 1.10324 1.13178 0.72277
 H2166 H 1.06617 1.18576 0.68327
 H2167 H 1.03731 1.16927 0.73320
 C2168 C 1.10025 0.64817 0.19689
 C2169 C 1.07174 0.66345 0.19594
 C2170 C 1.05734 0.65541 0.22214
 C2171 C 1.07778 0.63566 0.23718
 O2172 O 1.10370 0.63117 0.22196
 H2173 H 1.06231 0.67904 0.17877
 H2174 H 1.03455 0.66297 0.22933
 C2175 C 0.60164 1.15109 0.19884
 C2176 C 0.57470 1.16887 0.19918
 C2177 C 0.55978 1.16055 0.22496
 C2178 C 0.57859 1.13829 0.23862
 O2179 O 0.60391 1.13245 0.22276
 H2180 H 0.56687 1.18631 0.18307
 H2181 H 0.53781 1.16975 0.23284
 C2182 C 0.59987 0.64932 0.69838
 C2183 C 0.57308 0.66733 0.69865
 C2184 C 0.55828 0.65957 0.72469
 C2185 C 0.57702 0.63740 0.73855
 O2186 O 0.60221 0.63109 0.72260
 H2187 H 0.56533 0.68461 0.68235
 H2188 H 0.53642 0.66905 0.73257
 C2189 C 0.85160 0.90865 0.68636
 C2190 C 0.83221 0.93442 0.68463
 C2191 C 0.83552 0.94949 0.71258
 C2192 C 0.85663 0.93178 0.72934
 O2193 O 0.86632 0.90720 0.71336
 H2194 H 0.81744 0.94155 0.66546
 H2195 H 0.82369 0.97065 0.71969
 C2196 C 0.85249 0.40900 0.18595
 C2197 C 0.83324 0.43484 0.18379
 C2198 C 0.83653 0.45031 0.21155
 C2199 C 0.85749 0.43273 0.22864
 O2200 O 0.86710 0.40790 0.21302
 H2201 H 0.81853 0.44174 0.16447
 H2202 H 0.82479 0.47163 0.21834
 C2203 C 0.35144 0.90841 0.18585
 C2204 C 0.33225 0.93428 0.18369
 C2205 C 0.33573 0.94984 0.21138
 C2206 C 0.35673 0.93225 0.22842
 O2207 O 0.36619 0.90734 0.21284
 H2208 H 0.31745 0.94115 0.16443
 H2209 H 0.32407 0.97120 0.21816
 C2210 C 0.35137 0.40807 0.68639
 C2211 C 0.33204 0.43386 0.68435
 C2212 C 0.33530 0.44919 0.71218
 C2213 C 0.35631 0.43158 0.72917
 O2214 O 0.36599 0.40686 0.71345
 H2215 H 0.31730 0.44080 0.66507
 H2216 H 0.32349 0.47044 0.71905
 C2217 C 1.12787 0.83481 1.29073
 C2218 C 1.11702 0.80646 1.28031
 C2219 C 1.10823 0.81049 1.25033
 C2220 C 1.11404 0.84097 1.24424
 O2221 O 1.12632 0.85570 1.26859
 H2222 H 1.11573 0.78501 1.29252
 H2223 H 1.09867 0.79306 1.23481
 C2224 C 1.12680 0.33394 0.79062
 C2225 C 1.11517 0.30584 0.78039
 C2226 C 1.10616 0.30997 0.75048
 C2227 C 1.11262 0.34026 0.74419
 O2228 O 1.12548 0.35478 0.76839
 H2229 H 1.11348 0.28448 0.79267
 H2230 H 1.09610 0.29268 0.73511
 C2231 C 0.62693 0.83616 0.79067
 C2232 C 0.61783 0.80734 0.78004
 C2233 C 0.60885 0.81115 0.75004
 C2234 C 0.61310 0.84199 0.74421
 O2235 O 0.62437 0.85719 0.76876
 H2236 H 0.61788 0.78585 0.79236
 H2237 H 0.60032 0.79339 0.73426
 C2238 C 0.62937 0.33576 1.29045
 C2239 C 0.61850 0.30760 1.27958
 C2240 C 0.61043 0.31194 1.24945
 C2241 C 0.61663 0.34243 1.24371
 O2242 O 0.62848 0.35685 1.26844
 H2243 H 0.61676 0.28610 1.29163
 H2244 H 0.60098 0.29474 1.23359
 C2245 C 0.90489 1.13430 1.31707
 C2246 C 0.93273 1.14846 1.32272
 C2247 C 0.95221 1.13601 1.30127
 C2248 C 0.93474 1.11527 1.28390
 O2249 O 0.90612 1.11403 1.29375
 H2250 H 0.93815 1.16588 1.34022
 H2251 H 0.97613 1.14189 1.29846
 C2252 C 0.90423 0.63203 0.81767
 C2253 C 0.93222 0.64582 0.82351
 C2254 C 0.95160 0.63335 0.80198
 C2255 C 0.93391 0.61297 0.78438
 O2256 O 0.90526 0.61197 0.79416
 H2257 H 0.93780 0.66302 0.84117
 H2258 H 0.97560 0.63899 0.79924
 C2259 C 0.40347 1.13511 0.81682
 C2260 C 0.43142 1.14901 0.82260
 C2261 C 0.45089 1.13638 0.80122
 C2262 C 0.43333 1.11578 0.78377
 O2263 O 0.40465 1.11482 0.79349
 H2264 H 0.43696 1.16631 0.84017
 H2265 H 0.47490 1.14200 0.79856
 C2266 C 0.40417 0.63531 1.31759
 C2267 C 0.43213 0.64924 1.32318
 C2268 C 0.45151 0.63648 1.30179
 C2269 C 0.43387 0.61580 1.28450
 O2270 O 0.40524 0.61490 1.29436
 H2271 H 0.43773 0.66664 1.34064
 H2272 H 0.47550 0.64209 1.29899
 C2273 C 1.14798 1.30070 0.89839
 C2274 C 1.16577 1.30029 0.92536
 C2275 C 1.15770 1.27434 0.94010
 C2276 C 1.13559 1.26070 0.92115
 O2277 O 1.12959 1.27667 0.89590
 H2278 H 1.18313 1.31642 0.93325
 H2279 H 1.16697 1.26633 0.96203
 C2280 C 1.14722 0.80220 0.39883
 C2281 C 1.16409 0.80204 0.42636
 C2282 C 1.15593 0.77588 0.44074
 C2283 C 1.13467 0.76191 0.42104
 O2284 O 1.12929 0.77787 0.39567
 H2285 H 1.18089 0.81846 0.43487
 H2286 H 1.16459 0.76795 0.46294
 C2287 C 0.64779 1.30355 0.39780
 C2288 C 0.66213 1.30476 0.42682
 C2289 C 0.65419 1.27842 0.44098
 C2290 C 0.63539 1.26301 0.41996
 O2291 O 0.63141 1.27813 0.39382
 H2292 H 0.67714 1.32216 0.43673
 H2293 H 0.66114 1.27140 0.46403
 C2294 C 0.64300 0.80501 0.90117
 C2295 C 0.65853 0.80543 0.92950
 C2296 C 0.65001 0.77940 0.94380
 C2297 C 0.62991 0.76492 0.92330
 O2298 O 0.62552 0.78042 0.89749
 H2299 H 0.67479 0.82208 0.93865
 H2300 H 0.65781 0.77175 0.96640
 C2301 C 0.90682 1.31346 1.15001
 C2302 C 0.93037 1.31353 1.17231
 C2303 C 0.94585 1.28588 1.16858
 C2304 C 0.93068 1.27084 1.14442
 O2305 O 0.90729 1.28761 1.13319
 H2306 H 0.93582 1.33120 1.18951
 H2307 H 0.96534 1.27763 1.18241
 C2308 C 0.90815 0.81375 0.64801
 C2309 C 0.93390 0.81554 0.66742
 C2310 C 0.94905 0.78763 0.66418
 C2311 C 0.93140 0.77083 0.64307
 O2312 O 0.90679 0.78676 0.63331
 H2313 H 0.94099 0.83473 0.68217
 H2314 H 0.97023 0.78059 0.67605
 C2315 C 0.40596 1.31293 0.65003
 C2316 C 0.42958 1.31304 0.67225
 C2317 C 0.44508 1.28542 0.66847
 C2318 C 0.42984 1.27036 0.64436
 O2319 O 0.40640 1.28709 0.63321
 H2320 H 0.43506 1.33071 0.68943
 H2321 H 0.46463 1.27720 0.68223
 C2322 C 0.40541 0.81269 1.15003
 C2323 C 0.42910 0.81286 1.17218
 C2324 C 0.44453 0.78518 1.16850
 C2325 C 0.42921 0.77003 1.14450
 O2326 O 0.40576 0.78675 1.13333
 H2327 H 0.43467 0.83060 1.18925
 H2328 H 0.46412 0.77700 1.18224
 C2329 C 0.83430 0.70817 0.87197
 C2330 C 0.80561 0.71920 0.88110
 C2331 C 0.80995 0.74898 0.89048
 C2332 C 0.84090 0.75423 0.88637
 O2333 O 0.85570 0.72961 0.87488
 H2334 H 0.78392 0.70728 0.88095
 H2335 H 0.79252 0.76497 0.89929
 C2336 C 0.83444 0.21022 0.37099
 C2337 C 0.80563 0.22114 0.37982
 C2338 C 0.80968 0.25109 0.38880
 C2339 C 0.84062 0.25654 0.38479
 O2340 O 0.85566 0.23186 0.37372
 H2341 H 0.78403 0.20906 0.37968
 H2342 H 0.79204 0.26706 0.39722
 C2343 C 0.33430 0.70934 0.37236
 C2344 C 0.30613 0.71966 0.38375
 C2345 C 0.31021 0.74960 0.39255
 C2346 C 0.34053 0.75580 0.38621
 O2347 O 0.35512 0.73153 0.37362
 H2348 H 0.28478 0.70739 0.38543
 H2349 H 0.29290 0.76504 0.40245
 C2350 C 0.33403 0.20867 0.87278
 C2351 C 0.30606 0.21892 0.88465
 C2352 C 0.31035 0.24871 0.89387
 C2353 C 0.34062 0.25490 0.88727
 O2354 O 0.35495 0.23077 0.87415
 H2355 H 0.28468 0.20670 0.88640
 H2356 H 0.29321 0.26407 0.90417
 C2357 C 1.13600 0.68364 1.09748
 C2358 C 1.15330 0.68102 1.07103
 C2359 C 1.14052 0.70191 1.05123
 C2360 C 1.11655 0.71633 1.06703
 O2361 O 1.11350 0.70480 1.09486
 H2362 H 1.17275 0.66565 1.06630
 H2363 H 1.14849 0.70625 1.02823
 C2364 C 1.13686 0.18444 0.59742
 C2365 C 1.15405 0.18147 0.57092
 C2366 C 1.14133 0.20222 0.55094
 C2367 C 1.11749 0.21694 0.56667
 O2368 O 1.11444 0.20570 0.59465
 H2369 H 1.17341 0.16596 0.56627
 H2370 H 1.14925 0.20628 0.52787
 C2371 C 0.63452 0.68356 0.59564
 C2372 C 0.64891 0.67802 0.56789
 C2373 C 0.63655 0.69949 0.54832
 C2374 C 0.61562 0.71675 0.56565
 O2375 O 0.61420 0.70683 0.59427
 H2376 H 0.66637 0.66055 0.56255
 H2377 H 0.64258 0.70234 0.52442
 C2378 C 0.63818 0.18573 1.09799
 C2379 C 0.65547 0.18304 1.07154
 C2380 C 0.64277 0.20397 1.05173
 C2381 C 0.61885 0.21850 1.06752
 O2382 O 0.61575 0.20699 1.09536
 H2383 H 0.67487 0.16761 1.06681
 H2384 H 0.65077 0.20824 1.02874
 C2385 C 1.30029 1.10146 0.85015
 C2386 C 1.29965 1.07484 0.83191
 C2387 C 1.27358 1.06017 0.83976
 C2388 C 1.26008 1.07882 0.86221
 O2389 O 1.27628 1.10382 0.86860
 H2390 H 1.31575 1.06713 0.81445
 H2391 H 1.26545 1.03846 0.83015
 C2392 C 1.30145 0.60148 0.35186
 C2393 C 1.30132 0.57427 0.33450
 C2394 C 1.27522 0.55970 0.34238
 C2395 C 1.26121 0.57898 0.36398
 O2396 O 1.27711 0.60427 0.36983
 H2397 H 1.31775 0.56610 0.31754
 H2398 H 1.26737 0.53766 0.33332
 C2399 C 0.80222 1.10056 0.35231
 C2400 C 0.80199 1.07314 0.33528
 C2401 C 0.77569 1.05890 0.34316
 C2402 C 0.76169 1.07855 0.36444
 O2403 O 0.77777 1.10376 0.37009
 H2404 H 0.81845 1.06465 0.31850
 H2405 H 0.76767 1.03684 0.33430
 C2406 C 0.80112 0.59908 0.85235
 C2407 C 0.80084 0.57150 0.83560
 C2408 C 0.77423 0.55766 0.84322
 C2409 C 0.76013 0.57771 0.86407
 O2410 O 0.77643 0.60276 0.86970
 H2411 H 0.81749 0.56262 0.81919
 H2412 H 0.76609 0.53561 0.83447
 C2413 C 1.31218 0.85003 1.09242
 C2414 C 1.31368 0.83001 1.06711
 C2415 C 1.28596 0.83361 1.05167
 C2416 C 1.26954 0.85551 1.06873
 O2417 O 1.28553 0.86540 1.09325
 H2418 H 1.33257 0.81467 1.06048
 H2419 H 1.27876 0.82146 1.03071
 C2420 C 1.31280 0.35025 0.59236
 C2421 C 1.31452 0.33045 0.56690
 C2422 C 1.28684 0.33401 0.55138
 C2423 C 1.27024 0.35568 0.56854
 O2424 O 1.28607 0.36547 0.59320
 H2425 H 1.33352 0.31527 0.56022
 H2426 H 1.27981 0.32199 0.53029
 C2427 C 0.81336 0.85235 0.59120
 C2428 C 0.81516 0.83298 0.56542
 C2429 C 0.78735 0.83644 0.55013
 C2430 C 0.77058 0.85762 0.56772
 O2431 O 0.78644 0.86722 0.59244
 H2432 H 0.83429 0.81813 0.55841
 H2433 H 0.78035 0.82466 0.52889
 C2434 C 0.81404 0.35109 1.09184
 C2435 C 0.81563 0.33108 1.06652
 C2436 C 0.78804 0.33484 1.05085
 C2437 C 0.77162 0.35682 1.06778
 O2438 O 0.78747 0.36661 1.09243
 H2439 H 0.83449 0.31562 1.06005
 H2440 H 0.78094 0.32274 1.02983
 C2441 C 0.71012 1.12668 1.16627
 C2442 C 0.72026 1.11578 1.19464
 C2443 C 0.75012 1.10646 1.19064
 C2444 C 0.75630 1.11229 1.16014
 O2445 O 0.73214 1.12480 1.14538
 H2446 H 0.70780 1.11490 1.21598
 H2447 H 0.76556 1.09677 1.20810
 C2448 C 0.70924 0.62788 0.66620
 C2449 C 0.71980 0.61804 0.69484
 C2450 C 0.74965 0.60872 0.69077
 C2451 C 0.75543 0.61353 0.66000
 O2452 O 0.73102 0.62541 0.64509
 H2453 H 0.70756 0.61772 0.71634
 H2454 H 0.76535 0.59960 0.70833
 C2455 C 0.20940 1.12652 0.66600
 C2456 C 0.21977 1.11606 0.69446
 C2457 C 0.24966 1.10690 0.69040
 C2458 C 0.25564 1.11238 0.65978
 O2459 O 0.23131 1.12453 0.64499
 H2460 H 0.20743 1.11536 0.71589
 H2461 H 0.26527 1.09751 0.70789
 C2462 C 0.20793 0.62468 1.16564
 C2463 C 0.21814 0.61404 1.19408
 C2464 C 0.24816 0.60523 1.19022
 C2465 C 0.25436 0.61109 1.15973
 O2466 O 0.23005 0.62313 1.14484
 H2467 H 0.20564 0.61306 1.21539
 H2468 H 0.26370 0.59587 1.20779
 C2469 C 0.68385 0.90473 0.86652
 C2470 C 0.67893 0.93304 0.85310
 C2471 C 0.70087 0.95159 0.86612
 C2472 C 0.71786 0.93311 0.88638
 O2473 O 0.70722 0.90475 0.88683
 H2474 H 0.66145 0.93940 0.83597
 H2475 H 0.70414 0.97563 0.86097
 C2476 C 0.68329 0.40512 0.36508
 C2477 C 0.67746 0.43312 0.35122
 C2478 C 0.69885 0.45257 0.36384
 C2479 C 0.71634 0.43494 0.38438
 O2480 O 0.70665 0.40624 0.38532
 H2481 H 0.65986 0.43868 0.33393
 H2482 H 0.70151 0.47660 0.35823
 C2483 C 0.18220 0.90478 0.36496
 C2484 C 0.17663 0.93276 0.35101
 C2485 C 0.19816 0.95206 0.36362
 C2486 C 0.21550 0.93436 0.38424
 O2487 O 0.20556 0.90576 0.38524
 H2488 H 0.15910 0.93840 0.33367
 H2489 H 0.20101 0.97605 0.35795
 C2490 C 0.18249 0.40323 0.86477
 C2491 C 0.17669 0.43141 0.85133
 C2492 C 0.19800 0.45068 0.86439
 C2493 C 0.21548 0.43276 0.88472
 O2494 O 0.20579 0.40404 0.88515
 H2495 H 0.15910 0.43723 0.83412
 H2496 H 0.20059 0.47483 0.85921
   
