data_POSCAR
  _audit_creation_date              2014-09-24
  _audit_creation_method            'ToBaCCo'
  _symmetry_space_group_name_H-M    'P1'
  _symmetry_Int_Tables_number       1
  _symmetry_cell_setting            triclinic
  loop_
  _symmetry_equiv_pos_as_xyz
 x,y,z
_cell_length_a 48.6801
_cell_length_b 48.7245
_cell_length_c 48.7761
_cell_angle_alpha 89.958700
_cell_angle_beta 90.055300
_cell_angle_gamma 89.981200
loop_
  _atom_site_label
  _atom_site_type_symbol
  _atom_site_fract_x
  _atom_site_fract_y
  _atom_site_fract_z
C1 C 0.24969 0.93444 -0.02770
 C2 C 0.24730 0.92110 -0.00226
 C3 C 0.24998 0.93488 0.02268
 C4 C 0.25432 0.96359 0.02264
 C5 C 0.25532 0.97809 -0.00262
 C6 C 0.25403 0.96341 -0.02786
 C7 C 0.26015 0.97772 -0.05214
 C8 C 0.26413 1.00592 -0.05216
 C9 C 0.26226 1.02141 -0.02792
 C10 C 0.25941 1.00713 -0.00262
 C11 C 0.25956 0.97788 0.04705
 C12 C 0.26379 1.00604 0.04704
 C13 C 0.26237 1.02147 0.02269
 C14 C 0.26666 1.05037 0.02264
 C15 C 0.26855 1.06391 -0.00270
 C16 C 0.26623 1.05034 -0.02798
 H17 H 0.26317 0.96724 -0.07140
 H18 H 0.26991 1.01521 -0.07144
 H19 H 0.26139 0.96736 0.06648
 H20 H 0.26924 1.01528 0.06641
 H21 H 0.24280 0.89929 -0.00171
 H22 H 0.26994 1.08613 -0.00271
 C23 C 0.75160 0.44873 0.47432
 C24 C 0.75089 0.43440 0.49920
 C25 C 0.75177 0.44791 0.52449
 C26 C 0.75282 0.47697 0.52504
 C27 C 0.75243 0.49194 0.50003
 C28 C 0.75252 0.47780 0.47458
 C29 C 0.75478 0.49309 0.45022
 C30 C 0.75516 0.52163 0.45065
 C31 C 0.75344 0.53614 0.47546
 C32 C 0.75293 0.52114 0.50046
 C33 C 0.75551 0.49143 0.54982
 C34 C 0.75603 0.51993 0.55025
 C35 C 0.75394 0.53524 0.52591
 C36 C 0.75409 0.56427 0.52623
 C37 C 0.75348 0.57866 0.50144
 C38 C 0.75352 0.56522 0.47611
 H39 H 0.75674 0.48324 0.43049
 H40 H 0.75732 0.53213 0.43124
 H41 H 0.75774 0.48093 0.56921
 H42 H 0.75855 0.52975 0.56995
 H43 H 0.74980 0.41216 0.49887
 H44 H 0.75331 0.60093 0.50189
 C45 C 0.74368 1.02931 0.94095
 C46 C 0.74270 1.00382 0.92782
 C47 C 0.73996 0.97930 0.94245
 C48 C 0.73906 0.98000 0.97144
 C49 C 0.74129 1.00551 0.98529
 C50 C 0.74272 1.03032 0.97000
 C51 C 0.74178 1.05541 0.98413
 C52 C 0.74138 1.05622 1.01259
 C53 C 0.74186 1.03198 1.02822
 C54 C 0.74096 1.00629 1.01449
 C55 C 0.73444 0.95613 0.98686
 C56 C 0.73378 0.95692 1.01533
 C57 C 0.73851 0.98149 1.02978
 C58 C 0.73838 0.98246 1.05900
 C59 C 0.74015 1.00819 1.07188
 C60 C 0.74181 1.03276 1.05720
 H61 H 0.74078 1.07479 0.97340
 H62 H 0.74008 1.07618 1.02214
 H63 H 0.73057 0.93659 0.97710
 H64 H 0.72867 0.93803 1.02570
 H65 H 0.74382 1.00304 0.90562
 H66 H 0.74119 1.00918 1.09409
 C67 C 0.24986 0.51881 0.43979
 C68 C 0.25099 0.49409 0.42524
 C69 C 0.25065 0.46858 0.43849
 C70 C 0.24985 0.46766 0.46754
 C71 C 0.24964 0.49256 0.48272
 C72 C 0.24889 0.51816 0.46881
 C73 C 0.24585 0.54232 0.48425
 C74 C 0.24542 0.54161 0.51273
 C75 C 0.24800 0.51673 0.52706
 C76 C 0.24913 0.49184 0.51190
 C77 C 0.24796 0.44266 0.48181
 C78 C 0.24741 0.44196 0.51031
 C79 C 0.24871 0.46623 0.52581
 C80 C 0.24837 0.46570 0.55484
 C81 C 0.24863 0.49044 0.56938
 C82 C 0.24818 0.51591 0.55612
 H83 H 0.24325 0.56210 0.47456
 H84 H 0.24247 0.56087 0.52329
 H85 H 0.24641 0.42329 0.47114
 H86 H 0.24555 0.42208 0.51999
 H87 H 0.25186 0.49470 0.40302
 H88 H 0.24891 0.48981 0.59161
 C89 C 0.94645 0.23963 -0.02440
 C90 C 0.93382 0.24312 0.00126
 C91 C 0.94884 0.24618 0.02546
 C92 C 0.97786 0.24655 0.02435
 C93 C 0.99137 0.24205 -0.00104
 C94 C 0.97567 0.23782 -0.02532
 C95 C 0.98955 0.22940 -0.04913
 C96 C 1.01805 0.22842 -0.05010
 C97 C 1.03415 0.23574 -0.02729
 C98 C 1.02065 0.24082 -0.00197
 C99 C 0.99373 0.25077 0.04799
 C100 C 1.02221 0.25071 0.04686
 C101 C 1.03625 0.24430 0.02248
 C102 C 1.06544 0.24254 0.02157
 C103 C 1.07818 0.23906 -0.00400
 C104 C 1.06335 0.23592 -0.02853
 H105 H 0.97855 0.22257 -0.06713
 H106 H 1.02726 0.22099 -0.06884
 H107 H 0.98442 0.25437 0.06775
 H108 H 1.03297 0.25599 0.06549
 H109 H 0.91163 0.24468 0.00260
 H110 H 1.10041 0.23861 -0.00482
 C111 C 0.55112 0.74724 0.52702
 C112 C 0.56476 0.75248 0.50233
 C113 C 0.55049 0.75683 0.47780
 C114 C 0.52141 0.75678 0.47801
 C115 C 0.50719 0.75053 0.50264
 C116 C 0.52209 0.74519 0.52710
 C117 C 0.50760 0.73743 0.55078
 C118 C 0.47903 0.73675 0.55101
 C119 C 0.46376 0.74378 0.52756
 C120 C 0.47799 0.74980 0.50288
 C121 C 0.50618 0.76366 0.45452
 C122 C 0.47763 0.76295 0.45475
 C123 C 0.46311 0.75519 0.47844
 C124 C 0.43408 0.75329 0.47852
 C125 C 0.42040 0.74850 0.50330
 C126 C 0.43465 0.74431 0.52791
 H127 H 0.51822 0.73149 0.56935
 H128 H 0.46906 0.73028 0.56973
 H129 H 0.51614 0.77008 0.43578
 H130 H 0.46706 0.76901 0.43620
 H131 H 0.58701 0.75353 0.50224
 H132 H 0.39813 0.74800 0.50342
 C133 C -0.03196 0.75053 0.06227
 C134 C -0.00672 0.74609 0.07555
 C135 C 0.01777 0.74224 0.06121
 C136 C 0.01738 0.74199 0.03228
 C137 C -0.00750 0.74731 0.01805
 C138 C -0.03230 0.75161 0.03299
 C139 C -0.05676 0.75513 0.01804
 C140 C -0.05673 0.75644 -0.01036
 C141 C -0.03280 0.75129 -0.02564
 C142 C -0.00771 0.74730 -0.01125
 C143 C 0.04096 0.73513 0.01726
 C144 C 0.04076 0.73525 -0.01117
 C145 C 0.01714 0.74286 -0.02599
 C146 C 0.01716 0.74407 -0.05515
 C147 C -0.00797 0.74795 -0.06875
 C148 C -0.03303 0.75098 -0.05483
 H149 H -0.07655 0.75659 0.02778
 H150 H -0.07601 0.76158 -0.02004
 H151 H 0.05976 0.72891 0.02734
 H152 H 0.05929 0.72853 -0.02130
 H153 H -0.00583 0.74660 0.09778
 H154 H -0.00807 0.74841 -0.09096
 C155 C 0.53236 0.25440 0.55710
 C156 C 0.50754 0.25254 0.57143
 C157 C 0.48236 0.24930 0.55787
 C158 C 0.48194 0.24786 0.52883
 C159 C 0.50681 0.25087 0.51391
 C160 C 0.53212 0.25385 0.52808
 C161 C 0.55647 0.25638 0.51286
 C162 C 0.55614 0.25553 0.48438
 C163 C 0.53130 0.25340 0.46981
 C164 C 0.50638 0.25072 0.48473
 C165 C 0.45751 0.24273 0.51430
 C166 C 0.45708 0.24253 0.48579
 C167 C 0.48110 0.24727 0.47057
 C168 C 0.48075 0.24761 0.44156
 C169 C 0.50545 0.25067 0.42726
 C170 C 0.53068 0.25316 0.44076
 H171 H 0.57618 0.25902 0.52275
 H172 H 0.57571 0.25654 0.47404
 H173 H 0.43844 0.23842 0.52477
 H174 H 0.43769 0.23827 0.47584
 H175 H 0.50787 0.25362 0.59364
 H176 H 0.50503 0.25101 0.40502
 C177 C 0.94206 -0.01728 0.24314
 C178 C 0.92963 0.00851 0.24505
 C179 C 0.94508 0.03269 0.24614
 C180 C 0.97415 0.03112 0.24649
 C181 C 0.98716 0.00519 0.24394
 C182 C 0.97103 -0.01898 0.24142
 C183 C 0.98427 -0.04410 0.23655
 C184 C 1.01271 -0.04592 0.23645
 C185 C 1.02911 -0.02268 0.24123
 C186 C 1.01636 0.00337 0.24378
 C187 C 0.99056 0.05464 0.24923
 C188 C 1.01904 0.05273 0.25043
 C189 C 1.03264 0.02749 0.24663
 C190 C 1.06189 0.02527 0.24729
 C191 C 1.07372 -0.00105 0.24613
 C192 C 1.05797 -0.02480 0.24304
 H193 H 0.97278 -0.06266 0.23252
 H194 H 1.02166 -0.06583 0.23247
 H195 H 0.98167 0.07486 0.25106
 H196 H 1.03006 0.07140 0.25492
 H197 H 0.90741 0.00984 0.24609
 H198 H 1.09589 -0.00324 0.24667
 C199 C 0.44165 0.47258 0.74688
 C200 C 0.42709 0.49733 0.74667
 C201 C 0.44040 0.52276 0.74606
 C202 C 0.46952 0.52359 0.74571
 C203 C 0.48470 0.49866 0.74599
 C204 C 0.47074 0.47308 0.74649
 C205 C 0.48624 0.44874 0.74625
 C206 C 0.51477 0.44937 0.74675
 C207 C 0.52912 0.47437 0.74605
 C208 C 0.51394 0.49931 0.74559
 C209 C 0.48388 0.54858 0.74470
 C210 C 0.51242 0.54924 0.74536
 C211 C 0.52791 0.52491 0.74552
 C212 C 0.55698 0.52538 0.74622
 C213 C 0.57151 0.50064 0.74635
 C214 C 0.55822 0.47521 0.74645
 H215 H 0.47656 0.42879 0.74574
 H216 H 0.52533 0.42990 0.74778
 H217 H 0.47329 0.56804 0.74347
 H218 H 0.52210 0.56919 0.74571
 H219 H 0.40482 0.49677 0.74736
 H220 H 0.59380 0.50121 0.74680
 C221 C 1.01882 0.93772 0.75909
 C222 C 0.99240 0.92666 0.76273
 C223 C 0.96895 0.94303 0.76411
 C224 C 0.97149 0.97181 0.76255
 C225 C 0.99768 0.98384 0.75831
 C226 C 1.02150 0.96686 0.75667
 C227 C 1.04724 0.97977 0.75451
 C228 C 1.04950 1.00804 0.75170
 C229 C 1.02643 1.02530 0.75374
 C230 C 1.00009 1.01302 0.75664
 C231 C 0.94864 0.98885 0.76655
 C232 C 0.95099 1.01715 0.76495
 C233 C 0.97614 1.02978 0.75841
 C234 C 0.97843 1.05878 0.75572
 C235 C 1.00469 1.07023 0.75254
 C236 C 1.02878 1.05437 0.75203
 H237 H 1.06625 0.96847 0.75536
 H238 H 1.06982 1.01601 0.74790
 H239 H 0.92870 0.98049 0.77166
 H240 H 0.93282 1.02892 0.76971
 H241 H 0.98973 0.90456 0.76340
 H242 H 1.00647 1.09234 0.75079
 C243 C 0.47432 0.56153 0.25998
 C244 C 0.49880 0.57629 0.25694
 C245 C 0.52398 0.56319 0.25242
 C246 C 0.52458 0.53423 0.24984
 C247 C 0.50018 0.51884 0.25413
 C248 C 0.47507 0.53250 0.25971
 C249 C 0.45158 0.51678 0.26559
 C250 C 0.45233 0.48827 0.26459
 C251 C 0.47658 0.47429 0.25762
 C252 C 0.50091 0.48969 0.25296
 C253 C 0.54872 0.52028 0.24244
 C254 C 0.54940 0.49178 0.24113
 C255 C 0.52601 0.47604 0.24733
 C256 C 0.52691 0.44699 0.24754
 C257 C 0.50259 0.43219 0.25139
 C258 C 0.47742 0.44529 0.25598
 H259 H 0.43244 0.52634 0.27151
 H260 H 0.43372 0.47733 0.26976
 H261 H 0.56729 0.53127 0.23722
 H262 H 0.56847 0.48225 0.23493
 H263 H 0.49821 0.59851 0.25815
 H264 H 0.50328 0.40994 0.25106
 O265 O 0.26150 0.17343 0.20642
 O266 O 0.29226 0.16646 0.24471
 O267 O 0.18941 0.20550 0.24383
 O268 O 0.17849 0.24086 0.27087
 O269 O 0.22432 0.24430 0.17204
 O270 O 0.25948 0.27577 0.16576
 O271 O 0.25944 0.28352 0.31533
 O272 O 0.22753 0.24658 0.32200
 O273 O 0.33073 0.24428 0.28307
 O274 O 0.34141 0.21754 0.24593
 O275 O 0.29660 0.31675 0.24692
 O276 O 0.25883 0.32449 0.21409
 O277 O 0.25705 0.31592 0.28182
 O278 O 0.22784 0.32310 0.24097
 O279 O 0.32971 0.28403 0.25034
 O280 O 0.33563 0.24655 0.21177
 O281 O 0.29754 0.24767 0.31576
 O282 O 0.26410 0.21578 0.32434
 O283 O 0.26394 0.20674 0.17377
 O284 O 0.29527 0.24602 0.16895
 O285 O 0.19048 0.24305 0.20427
 O286 O 0.18220 0.27528 0.24258
 O287 O 0.22318 0.17332 0.24548
 O288 O 0.26328 0.16511 0.27442
 Zr289 Zr 0.26006 0.19560 0.24364
 O290 O 0.28456 0.21982 0.26957
 Zr291 Zr 0.21114 0.24283 0.24237
 O292 O 0.23360 0.26906 0.26857
 Zr293 Zr 0.26065 0.24393 0.19534
 O294 O 0.28507 0.27030 0.21938
 Zr295 Zr 0.26030 0.24612 0.29353
 O296 O 0.23506 0.21928 0.26996
 Zr297 Zr 0.30895 0.24647 0.24612
 O298 O 0.28679 0.21985 0.22001
 Zr299 Zr 0.25983 0.29394 0.24497
 O300 O 0.23516 0.26977 0.21867
 O301 O 0.23498 0.21790 0.21747
 O302 O 0.28562 0.27211 0.27118
 C303 C 0.26391 0.18151 0.18141
 C304 C 0.19782 0.18055 0.24549
 C305 C 0.19891 0.24403 0.17927
 C306 C 0.25748 0.30852 0.30706
 C307 C 0.32277 0.24565 0.30811
 C308 C 0.32172 0.30913 0.24982
 H309 H 0.29569 0.20750 0.28127
 H310 H 0.29685 0.28178 0.20749
 H311 H 0.22368 0.20583 0.20568
 H312 H 0.22067 0.27998 0.27975
 H313 H 0.21521 0.23120 0.31703
 H314 H 0.18463 0.25051 0.28761
 H315 H 0.35218 0.25744 0.21646
 H316 H 0.28964 0.24037 0.15023
 H317 H 0.25240 0.20025 0.31864
 H318 H 0.24792 0.16795 0.28738
 H319 H 0.27399 0.32076 0.20114
 H320 H 0.24731 0.29028 0.17313
 H321 H 0.30587 0.17222 0.23078
 H322 H 0.33458 0.20086 0.25526
 H323 H 0.18731 0.28792 0.22752
 H324 H 0.21395 0.31899 0.25518
 O325 O 0.74082 0.83198 0.21591
 O326 O 0.71363 0.84073 0.25529
 O327 O 0.81525 0.80044 0.25468
 O328 O 0.82612 0.76530 0.28201
 O329 O 0.78169 0.76166 0.18265
 O330 O 0.74592 0.72845 0.17774
 O331 O 0.74598 0.72556 0.32649
 O332 O 0.77711 0.76289 0.33234
 O333 O 0.67397 0.76015 0.29378
 O334 O 0.66588 0.79254 0.25374
 O335 O 0.70669 0.69074 0.25775
 O336 O 0.74502 0.68140 0.22688
 O337 O 0.74390 0.69171 0.29447
 O338 O 0.77557 0.68320 0.25472
 O339 O 0.67360 0.72359 0.25570
 O340 O 0.66434 0.75866 0.22603
 O341 O 0.70758 0.76281 0.32610
 O342 O 0.74374 0.79278 0.33459
 O343 O 0.74298 0.79907 0.18294
 O344 O 0.71187 0.76005 0.17703
 O345 O 0.81466 0.76060 0.21583
 O346 O 0.82215 0.73032 0.25488
 O347 O 0.78188 0.83304 0.25162
 O348 O 0.74526 0.84115 0.28395
 Zr349 Zr 0.74495 0.81075 0.25302
 O350 O 0.71983 0.78766 0.27928
 Zr351 Zr 0.79354 0.76306 0.25336
 O352 O 0.77054 0.73780 0.27987
 Zr353 Zr 0.74487 0.76196 0.20541
 O354 O 0.71969 0.73666 0.22994
 Zr355 Zr 0.74435 0.76210 0.30381
 O356 O 0.76984 0.78773 0.27981
 Zr357 Zr 0.69545 0.76068 0.25619
 O358 O 0.71826 0.78627 0.22939
 Zr359 Zr 0.74387 0.71289 0.25673
 O360 O 0.76931 0.73605 0.23000
 O361 O 0.77035 0.78788 0.22761
 O362 O 0.71835 0.73563 0.28236
 C363 C 0.74064 0.82416 0.19080
 C364 C 0.80714 0.82553 0.25310
 C365 C 0.80685 0.76033 0.19065
 C366 C 0.74549 0.70021 0.31936
 C367 C 0.68228 0.76186 0.31875
 C368 C 0.68147 0.69846 0.25662
 H369 H 0.70851 0.80028 0.29039
 H370 H 0.70808 0.72526 0.21781
 H371 H 0.78171 0.79956 0.21548
 H372 H 0.78319 0.72692 0.29145
 H373 H 0.79009 0.77727 0.32615
 H374 H 0.82015 0.75546 0.29871
 H375 H 0.67244 0.76621 0.20904
 H376 H 0.71892 0.76469 0.15850
 H377 H 0.73389 0.80887 0.32714
 H378 H 0.75970 0.83581 0.29725
 H379 H 0.73140 0.68604 0.21255
 H380 H 0.75982 0.71533 0.18469
 H381 H 0.69816 0.83381 0.24407
 H382 H 0.66762 0.80409 0.27032
 H383 H 0.81613 0.71657 0.24121
 H384 H 0.78827 0.68652 0.27021
 O385 O 0.75289 0.18275 0.78431
 O386 O 0.73134 0.17212 0.74558
 O387 O 0.82851 0.21870 0.75160
 O388 O 0.84007 0.25499 0.72666
 O389 O 0.78970 0.25226 0.82261
 O390 O 0.75338 0.28302 0.82876
 O391 O 0.75930 0.29366 0.67859
 O392 O 0.78974 0.25859 0.67073
 O393 O 0.68689 0.25855 0.70857
 O394 O 0.67799 0.22453 0.74065
 O395 O 0.71863 0.32584 0.74992
 O396 O 0.75609 0.33530 0.77896
 O397 O 0.75481 0.32620 0.71171
 O398 O 0.78810 0.33282 0.75258
 O399 O 0.68554 0.29324 0.74520
 O400 O 0.67952 0.25534 0.77933
 O401 O 0.72114 0.25740 0.67675
 O402 O 0.76078 0.22458 0.67062
 O403 O 0.75346 0.21447 0.81856
 O404 O 0.71858 0.25186 0.82252
 O405 O 0.82490 0.25492 0.79202
 O406 O 0.83242 0.28920 0.75396
 O407 O 0.79652 0.18475 0.74906
 O408 O 0.75861 0.17966 0.71369
 Zr409 Zr 0.75843 0.20586 0.74829
 O410 O 0.73294 0.22986 0.72287
 Zr411 Zr 0.80561 0.25499 0.75301
 O412 O 0.78318 0.28018 0.72582
 Zr413 Zr 0.75451 0.25245 0.79792
 O414 O 0.73072 0.27920 0.77380
 Zr415 Zr 0.75787 0.25648 0.70006
 O416 O 0.78383 0.23105 0.72411
 Zr417 Zr 0.70759 0.25589 0.74606
 O418 O 0.72983 0.22858 0.77165
 Zr419 Zr 0.75575 0.30399 0.74896
 O420 O 0.77976 0.28022 0.77640
 O421 O 0.78178 0.22819 0.77593
 O422 O 0.73132 0.28190 0.72186
 C423 C 0.75223 0.18966 0.80973
 C424 C 0.82153 0.19333 0.75043
 C425 C 0.81538 0.25330 0.81663
 C426 C 0.75712 0.31866 0.68654
 C427 C 0.69568 0.25870 0.68376
 C428 C 0.69347 0.31827 0.74786
 H429 H 0.72169 0.21777 0.71109
 H430 H 0.71879 0.29014 0.78604
 H431 H 0.79284 0.21605 0.78789
 H432 H 0.79594 0.29159 0.71494
 H433 H 0.80499 0.24719 0.67788
 H434 H 0.83416 0.26357 0.70926
 H435 H 0.66101 0.25967 0.77201
 H436 H 0.72363 0.24558 0.84121
 H437 H 0.74404 0.21314 0.67181
 H438 H 0.77535 0.18408 0.70304
 H439 H 0.74480 0.32874 0.79448
 H440 H 0.76639 0.29759 0.82314
 H441 H 0.71283 0.17994 0.74275
 H442 H 0.68101 0.21110 0.75559
 H443 H 0.82708 0.30050 0.76995
 H444 H 0.79881 0.33252 0.73535
 O445 O 0.23624 0.81153 0.78758
 O446 O 0.26514 0.82079 0.74784
 O447 O 0.16604 0.77446 0.75094
 O448 O 0.15729 0.73932 0.72288
 O449 O 0.20226 0.73984 0.82232
 O450 O 0.23852 0.70947 0.82904
 O451 O 0.24192 0.70167 0.67915
 O452 O 0.20841 0.73602 0.67121
 O453 O 0.31060 0.74153 0.71272
 O454 O 0.31702 0.77298 0.74553
 O455 O 0.27933 0.67049 0.74729
 O456 O 0.24235 0.65975 0.77967
 O457 O 0.24069 0.66891 0.71235
 O458 O 0.21077 0.66024 0.75310
 O459 O 0.31134 0.70448 0.74910
 O460 O 0.31411 0.74237 0.78415
 O461 O 0.27743 0.73878 0.67986
 O462 O 0.23816 0.77023 0.67100
 O463 O 0.23985 0.77855 0.82041
 O464 O 0.27317 0.74072 0.82591
 O465 O 0.16920 0.73609 0.78946
 O466 O 0.16305 0.70441 0.75044
 O467 O 0.19729 0.80914 0.74892
 O468 O 0.23513 0.81808 0.71836
 Zr469 Zr 0.23568 0.78900 0.75055
 O470 O 0.26245 0.76615 0.72550
 Zr471 Zr 0.18989 0.73861 0.75157
 O472 O 0.21407 0.71412 0.72537
 Zr473 Zr 0.23872 0.74106 0.79919
 O474 O 0.26468 0.71594 0.77554
 Zr475 Zr 0.23977 0.73882 0.70112
 O476 O 0.21246 0.76359 0.72434
 Zr477 Zr 0.28796 0.74089 0.74935
 O478 O 0.26378 0.76657 0.77480
 Zr479 Zr 0.24135 0.69089 0.74939
 O480 O 0.21522 0.71342 0.77569
 O481 O 0.21181 0.76523 0.77652
 O482 O 0.26626 0.71425 0.72383
 C483 C 0.23880 0.80374 0.81267
 C484 C 0.17252 0.79999 0.74975
 C485 C 0.17710 0.73724 0.81463
 C486 C 0.24156 0.67653 0.68717
 C487 C 0.30268 0.74010 0.68760
 C488 C 0.30426 0.67910 0.74779
 H489 H 0.27369 0.77892 0.71445
 H490 H 0.27671 0.70511 0.78780
 H491 H 0.19983 0.77663 0.78830
 H492 H 0.20202 0.70252 0.71388
 H493 H 0.19362 0.74871 0.67701
 H494 H 0.16376 0.72966 0.70628
 H495 H 0.33306 0.73818 0.77799
 H496 H 0.26710 0.74631 0.84451
 H497 H 0.25324 0.78334 0.67458
 H498 H 0.22270 0.81069 0.70409
 H499 H 0.25619 0.66501 0.79355
 H500 H 0.22762 0.69415 0.82134
 H501 H 0.27887 0.81744 0.76242
 H502 H 0.31265 0.78654 0.75995
 H503 H 0.16866 0.69194 0.76547
 H504 H 0.19764 0.66269 0.73779
 O505 O 0.25074 0.31260 0.70939
 O506 O 0.22244 0.32052 0.74881
 O507 O 0.32513 0.28268 0.75060
 O508 O 0.33603 0.24708 0.77764
 O509 O 0.29419 0.24332 0.67724
 O510 O 0.25929 0.20931 0.67139
 O511 O 0.25770 0.20595 0.81977
 O512 O 0.28581 0.24607 0.82648
 O513 O 0.18377 0.23996 0.78536
 O514 O 0.17629 0.27207 0.74551
 O515 O 0.21853 0.17081 0.75057
 O516 O 0.25775 0.16235 0.71983
 O517 O 0.25552 0.17211 0.78777
 O518 O 0.28761 0.16415 0.74850
 O519 O 0.18515 0.20336 0.74763
 O520 O 0.17612 0.23825 0.71746
 O521 O 0.21664 0.23826 0.81844
 O522 O 0.24728 0.27187 0.82832
 O523 O 0.25497 0.27976 0.67652
 O524 O 0.22464 0.24024 0.66983
 O525 O 0.32646 0.24315 0.71110
 O526 O 0.33374 0.21296 0.75055
 O527 O 0.29122 0.31451 0.74575
 O528 O 0.25363 0.32259 0.77701
 Zr529 Zr 0.25472 0.29155 0.74671
 O530 O 0.22960 0.26783 0.77251
 Zr531 Zr 0.30427 0.24483 0.74814
 O532 O 0.28119 0.21881 0.77384
 Zr533 Zr 0.25688 0.24276 0.69904
 O534 O 0.23154 0.21700 0.72284
 Zr535 Zr 0.25387 0.24234 0.79726
 O536 O 0.27934 0.26889 0.77413
 Zr537 Zr 0.20633 0.24070 0.74850
 O538 O 0.22923 0.26667 0.72227
 Zr539 Zr 0.25553 0.19345 0.75002
 O540 O 0.28126 0.21730 0.72413
 O541 O 0.28121 0.26923 0.72189
 O542 O 0.22900 0.21570 0.77492
 C543 C 0.25163 0.30474 0.68431
 C544 C 0.31653 0.30756 0.74842
 C545 C 0.31921 0.24283 0.68574
 C546 C 0.25738 0.18061 0.81266
 C547 C 0.19148 0.23829 0.81051
 C548 C 0.19326 0.17833 0.74889
 H549 H 0.21796 0.27996 0.78386
 H550 H 0.22035 0.20550 0.71041
 H551 H 0.29262 0.28115 0.71006
 H552 H 0.29399 0.20823 0.78552
 H553 H 0.29653 0.26265 0.82160
 H554 H 0.32842 0.23989 0.79499
 H555 H 0.18440 0.24640 0.70083
 H556 H 0.23207 0.24503 0.65149
 H557 H 0.25085 0.28993 0.81991
 H558 H 0.26919 0.31917 0.78966
 H559 H 0.24378 0.16648 0.70568
 H560 H 0.27325 0.19645 0.67867
 H561 H 0.20784 0.31391 0.73633
 H562 H 0.17784 0.28389 0.76191
 H563 H 0.32848 0.19906 0.73671
 H564 H 0.30038 0.16811 0.76378
 O565 O 0.74814 0.68296 0.71377
 O566 O 0.77866 0.67661 0.75186
 O567 O 0.67492 0.71312 0.74946
 O568 O 0.66273 0.74760 0.77717
 O569 O 0.70955 0.75095 0.67873
 O570 O 0.74285 0.78515 0.67293
 O571 O 0.74285 0.79250 0.82255
 O572 O 0.71138 0.75538 0.82905
 O573 O 0.81476 0.75787 0.79070
 O574 O 0.82633 0.72932 0.75401
 O575 O 0.77850 0.82748 0.75417
 O576 O 0.74119 0.83439 0.72182
 O577 O 0.73930 0.82494 0.78916
 O578 O 0.70936 0.83098 0.74778
 O579 O 0.81261 0.79577 0.75779
 O580 O 0.82027 0.75861 0.71956
 O581 O 0.78125 0.75666 0.82320
 O582 O 0.74811 0.72461 0.83117
 O583 O 0.75084 0.71634 0.68119
 O584 O 0.78014 0.75699 0.67634
 O585 O 0.67546 0.75176 0.71074
 O586 O 0.66573 0.78258 0.74971
 O587 O 0.70953 0.68187 0.75259
 O588 O 0.75018 0.67498 0.78191
 Zr589 Zr 0.74589 0.70509 0.75088
 O590 O 0.76961 0.72999 0.77687
 Zr591 Zr 0.69562 0.75099 0.74908
 O592 O 0.71708 0.77763 0.77562
 Zr593 Zr 0.74548 0.75337 0.70249
 O594 O 0.76879 0.78056 0.72670
 Zr595 Zr 0.74422 0.75526 0.80066
 O596 O 0.71985 0.72794 0.77687
 Zr597 Zr 0.79321 0.75751 0.75360
 O598 O 0.77209 0.73014 0.72743
 Zr599 Zr 0.74263 0.80333 0.75216
 O600 O 0.71901 0.77854 0.72551
 O601 O 0.72043 0.72669 0.72450
 O602 O 0.76879 0.78216 0.77852
 C603 C 0.75099 0.69114 0.68886
 C604 C 0.68401 0.68846 0.75164
 C605 C 0.68410 0.75127 0.68580
 C606 C 0.74019 0.81744 0.81437
 C607 C 0.80660 0.75761 0.81571
 C608 C 0.80377 0.82058 0.75734
 H609 H 0.78110 0.71807 0.78864
 H610 H 0.78027 0.79244 0.71490
 H611 H 0.70962 0.71425 0.71262
 H612 H 0.70379 0.78812 0.78678
 H613 H 0.69917 0.73995 0.82397
 H614 H 0.66834 0.75728 0.79407
 H615 H 0.83677 0.76932 0.72480
 H616 H 0.77482 0.75123 0.65755
 H617 H 0.73603 0.70931 0.82564
 H618 H 0.73426 0.67676 0.79437
 H619 H 0.75504 0.82985 0.70772
 H620 H 0.72938 0.79868 0.67988
 H621 H 0.79269 0.68340 0.73882
 H622 H 0.82023 0.71297 0.76435
 H623 H 0.67050 0.79561 0.73487
 H624 H 0.69631 0.82742 0.76291
 O625 O 0.24283 0.67702 0.29167
 O626 O 0.22054 0.66329 0.25450
 O627 O 0.31648 0.71228 0.25458
 O628 O 0.32559 0.74641 0.22551
 O629 O 0.27985 0.75201 0.32399
 O630 O 0.24251 0.77947 0.33033
 O631 O 0.24291 0.78111 0.17921
 O632 O 0.27282 0.74583 0.17187
 O633 O 0.17202 0.74238 0.21510
 O634 O 0.16569 0.71340 0.25101
 O635 O 0.20357 0.81594 0.24593
 O636 O 0.24093 0.82809 0.27744
 O637 O 0.24079 0.81564 0.21046
 O638 O 0.27219 0.82603 0.25036
 O639 O 0.17120 0.78237 0.24827
 O640 O 0.16799 0.74774 0.28590
 O641 O 0.20468 0.74463 0.18171
 O642 O 0.24466 0.71156 0.17551
 O643 O 0.24487 0.71051 0.32414
 O644 O 0.20871 0.74745 0.32712
 O645 O 0.31348 0.75142 0.29155
 O646 O 0.31901 0.78249 0.25122
 O647 O 0.28520 0.67760 0.25504
 O648 O 0.24646 0.66942 0.22145
 Zr649 Zr 0.24677 0.69781 0.25428
 O650 O 0.21965 0.71941 0.22862
 Zr651 Zr 0.29266 0.74801 0.25370
 O652 O 0.26849 0.77096 0.22610
 Zr653 Zr 0.24366 0.74737 0.30114
 O654 O 0.21802 0.77186 0.27631
 Zr655 Zr 0.24263 0.74524 0.20299
 O656 O 0.27031 0.72191 0.22733
 Zr657 Zr 0.19449 0.74596 0.25140
 O658 O 0.21865 0.72112 0.27760
 Zr659 Zr 0.24132 0.79549 0.24876
 O660 O 0.26713 0.77413 0.27648
 O661 O 0.27064 0.72238 0.27958
 O662 O 0.21623 0.77106 0.22436
 C663 C 0.24328 0.68522 0.31667
 C664 C 0.30997 0.68677 0.25525
 C665 C 0.30514 0.75306 0.31653
 C666 C 0.24198 0.80662 0.18572
 C667 C 0.17960 0.74259 0.18990
 C668 C 0.17858 0.80760 0.24608
 H669 H 0.20839 0.70612 0.21823
 H670 H 0.20611 0.78339 0.28801
 H671 H 0.28254 0.71156 0.29201
 H672 H 0.28063 0.78192 0.21410
 H673 H 0.28876 0.73545 0.17905
 H674 H 0.31885 0.75439 0.20812
 H675 H 0.14904 0.75108 0.27919
 H676 H 0.21449 0.74173 0.34578
 H677 H 0.22787 0.70035 0.17775
 H678 H 0.26247 0.67377 0.20972
 H679 H 0.22640 0.82421 0.29105
 H680 H 0.25128 0.79555 0.32156
 H681 H 0.20171 0.67043 0.25192
 H682 H 0.17032 0.70135 0.26671
 H683 H 0.31361 0.79518 0.26611
 H684 H 0.28464 0.82315 0.23460
 O685 O 0.75336 0.33027 0.28540
 O686 O 0.78462 0.33818 0.24635
 O687 O 0.68377 0.29555 0.24381
 O688 O 0.67363 0.25882 0.21925
 O689 O 0.71675 0.26003 0.31906
 O690 O 0.75194 0.22824 0.32657
 O691 O 0.75705 0.22006 0.17702
 O692 O 0.72570 0.25755 0.16897
 O693 O 0.82774 0.25837 0.21215
 O694 O 0.83403 0.28977 0.24483
 O695 O 0.79354 0.18832 0.24580
 O696 O 0.75617 0.17832 0.27745
 O697 O 0.75485 0.18759 0.21045
 O698 O 0.72443 0.18020 0.25128
 O699 O 0.82653 0.22133 0.24861
 O700 O 0.82966 0.25914 0.28353
 O701 O 0.79525 0.25469 0.17868
 O702 O 0.76287 0.28731 0.16806
 O703 O 0.75547 0.29730 0.31840
 O704 O 0.78751 0.25868 0.32458
 O705 O 0.68443 0.25743 0.28529
 O706 O 0.67839 0.22567 0.24578
 O707 O 0.71589 0.32925 0.24719
 O708 O 0.75515 0.33795 0.21700
 Zr709 Zr 0.75352 0.30792 0.24834
 O710 O 0.77987 0.28416 0.22369
 Zr711 Zr 0.70621 0.25900 0.24789
 O712 O 0.73018 0.23357 0.22256
 Zr713 Zr 0.75379 0.26000 0.29695
 O714 O 0.77958 0.23416 0.27393
 Zr715 Zr 0.75720 0.25731 0.19889
 O716 O 0.73027 0.28335 0.22125
 Zr717 Zr 0.80419 0.25835 0.24821
 O718 O 0.78029 0.28471 0.27326
 Zr719 Zr 0.75611 0.20968 0.24738
 O720 O 0.73001 0.23312 0.27285
 O721 O 0.72815 0.28490 0.27355
 O722 O 0.78234 0.23210 0.22234
 C723 C 0.75492 0.32244 0.31053
 C724 C 0.69100 0.32087 0.24459
 C725 C 0.69179 0.25815 0.31064
 C726 C 0.75554 0.19504 0.18521
 C727 C 0.82030 0.25598 0.18699
 C728 C 0.81868 0.19621 0.24695
 H729 H 0.79142 0.29649 0.21241
 H730 H 0.79104 0.22303 0.28648
 H731 H 0.71604 0.29663 0.28486
 H732 H 0.71782 0.22244 0.21093
 H733 H 0.71378 0.27351 0.17302
 H734 H 0.68185 0.25432 0.20128
 H735 H 0.84865 0.25469 0.27770
 H736 H 0.78106 0.26423 0.34306
 H737 H 0.75295 0.30384 0.17423
 H738 H 0.73932 0.33472 0.20466
 H739 H 0.76923 0.18371 0.29203
 H740 H 0.74037 0.21350 0.31872
 H741 H 0.79690 0.33521 0.26225
 H742 H 0.82987 0.30333 0.25931
 H743 H 0.68265 0.21337 0.26138
 H744 H 0.71167 0.18278 0.23569
 C745 C 0.27088 0.10352 0.09193
 C746 C 0.25172 0.08171 0.09161
 C747 C 0.25042 0.06388 0.06891
 C748 C 0.26878 0.06673 0.04672
 C749 C 0.28843 0.08791 0.04795
 C750 C 0.28956 0.10588 0.07009
 C751 C 0.27030 0.12335 0.11540
 C752 C 0.28625 0.14747 0.11580
 C753 C 0.28422 0.16594 0.13749
 C754 C 0.26666 0.16073 0.15960
 C755 C 0.25089 0.13662 0.15973
 C756 C 0.25207 0.11827 0.13745
 C757 C 0.23390 0.07797 0.11388
 C758 C 0.23446 0.09553 0.13653
 H759 H 0.21939 0.06111 0.11388
 H760 H 0.22033 0.09167 0.15326
 H761 H 0.23438 0.04848 0.06813
 H762 H 0.30338 0.09047 0.03169
 H763 H 0.29646 0.18450 0.13695
 H764 H 0.23682 0.13282 0.17654
 H765 H 0.30533 0.12141 0.06968
 H766 H 0.29991 0.15287 0.09928
 C767 C 0.75835 0.61532 0.59811
 C768 C 0.73720 0.59554 0.59564
 C769 C 0.73582 0.57876 0.57225
 C770 C 0.75596 0.58067 0.55178
 C771 C 0.77752 0.59942 0.55489
 C772 C 0.77879 0.61653 0.57771
 C773 C 0.75794 0.63429 0.62222
 C774 C 0.77590 0.65683 0.62456
 C775 C 0.77382 0.67483 0.64662
 C776 C 0.75427 0.67052 0.66718
 C777 C 0.73659 0.64789 0.66549
 C778 C 0.73779 0.63019 0.64276
 C779 C 0.71764 0.59267 0.61651
 C780 C 0.71826 0.60926 0.63982
 H781 H 0.70165 0.57729 0.61484
 H782 H 0.70270 0.60621 0.65541
 H783 H 0.71906 0.56431 0.56984
 H784 H 0.79336 0.60099 0.53936
 H785 H 0.78744 0.69240 0.64754
 H786 H 0.72098 0.64499 0.68107
 H787 H 0.79593 0.63047 0.57896
 H788 H 0.79111 0.66149 0.60920
 C789 C 0.73422 0.91408 0.11326
 C790 C 0.75136 0.91290 0.08990
 C791 C 0.75268 0.93538 0.07178
 C792 C 0.73645 0.95895 0.07610
 C793 C 0.71914 0.95956 0.09918
 C794 C 0.71790 0.93755 0.11733
 C795 C 0.73446 0.89044 0.13292
 C796 C 0.71985 0.89084 0.15782
 C797 C 0.72165 0.86898 0.17609
 C798 C 0.73768 0.84592 0.16999
 C799 C 0.75189 0.84487 0.14499
 C800 C 0.75082 0.86722 0.12668
 C801 C 0.76720 0.88939 0.08490
 C802 C 0.76667 0.86691 0.10270
 H803 H 0.78020 0.88832 0.06691
 H804 H 0.77931 0.84925 0.09791
 H805 H 0.76708 0.93484 0.05484
 H806 H 0.70597 0.97707 0.10303
 H807 H 0.71050 0.87020 0.19528
 H808 H 0.76468 0.82725 0.14039
 H809 H 0.70391 0.93943 0.13433
 H810 H 0.70739 0.90804 0.16398
 C811 C 0.24422 0.39416 0.60654
 C812 C 0.26562 0.39659 0.58705
 C813 C 0.26688 0.41976 0.56986
 C814 C 0.24643 0.44003 0.57114
 C815 C 0.22458 0.43683 0.58952
 C816 C 0.22340 0.41423 0.60698
 C817 C 0.24480 0.37044 0.62607
 C818 C 0.22662 0.36833 0.64843
 C819 C 0.22877 0.34665 0.66691
 C820 C 0.24866 0.32622 0.66333
 C821 C 0.26664 0.32773 0.64095
 C822 C 0.26534 0.35011 0.62274
 C823 C 0.28556 0.37595 0.58495
 C824 C 0.28509 0.35293 0.60204
 H825 H 0.30175 0.37756 0.56979
 H826 H 0.30095 0.33751 0.59955
 H827 H 0.28386 0.42222 0.55570
 H828 H 0.20851 0.45218 0.59061
 H829 H 0.21488 0.34588 0.68425
 H830 H 0.28248 0.31226 0.63857
 H831 H 0.20604 0.41294 0.62063
 H832 H 0.21113 0.38359 0.65252
 C833 C 0.74865 0.10006 0.88781
 C834 C 0.72834 0.07972 0.88360
 C835 C 0.72633 0.05741 0.90166
 C836 C 0.74512 0.05418 0.92326
 C837 C 0.76622 0.07350 0.92645
 C838 C 0.76776 0.09640 0.90925
 C839 C 0.74952 0.12400 0.86852
 C840 C 0.76660 0.14697 0.87275
 C841 C 0.76695 0.16855 0.85389
 C842 C 0.75070 0.16750 0.83019
 C843 C 0.73324 0.14505 0.82601
 C844 C 0.73198 0.12372 0.84532
 C845 C 0.71072 0.08129 0.86094
 C846 C 0.71297 0.10245 0.84183
 H847 H 0.69537 0.06554 0.85754
 H848 H 0.69928 0.10241 0.82429
 H849 H 0.71040 0.04215 0.89862
 H850 H 0.78161 0.07079 0.94229
 H851 H 0.78044 0.18585 0.85750
 H852 H 0.72020 0.14452 0.80797
 H853 H 0.78442 0.11061 0.91260
 H854 H 0.77958 0.14875 0.89060
 C855 C 0.24689 0.59340 0.39195
 C856 C 0.22786 0.57192 0.38727
 C857 C 0.22866 0.54811 0.40343
 C858 C 0.24882 0.54474 0.42368
 C859 C 0.26849 0.56543 0.42746
 C860 C 0.26738 0.58964 0.41207
 C861 C 0.24507 0.61862 0.37434
 C862 C 0.26130 0.64223 0.37871
 C863 C 0.25980 0.66458 0.36070
 C864 C 0.24238 0.66366 0.33784
 C865 C 0.22531 0.64084 0.33403
 C866 C 0.22614 0.61864 0.35230
 C867 C 0.20865 0.57391 0.36599
 C868 C 0.20821 0.59651 0.34851
 H869 H 0.19422 0.55739 0.36230
 H870 H 0.19347 0.59673 0.33184
 H871 H 0.21377 0.53191 0.40003
 H872 H 0.28475 0.56281 0.44242
 H873 H 0.27305 0.68213 0.36401
 H874 H 0.21143 0.64033 0.31662
 H875 H 0.28302 0.60487 0.41578
 H876 H 0.27534 0.64373 0.39577
 C877 C 0.24428 0.88296 0.90168
 C878 C 0.25949 0.87484 0.92504
 C879 C 0.26153 0.89227 0.94775
 C880 C 0.24822 0.91794 0.94830
 C881 C 0.23234 0.92553 0.92536
 C882 C 0.23060 0.90847 0.90230
 C883 C 0.24292 0.86357 0.87774
 C884 C 0.22976 0.87002 0.85273
 C885 C 0.22878 0.85087 0.83131
 C886 C 0.24059 0.82479 0.83446
 C887 C 0.25414 0.81846 0.85903
 C888 C 0.25569 0.83759 0.88038
 C889 C 0.27231 0.84914 0.92593
 C890 C 0.27014 0.83078 0.90424
 H891 H 0.28386 0.84292 0.94390
 H892 H 0.28010 0.81097 0.90613
 H893 H 0.27404 0.88590 0.96505
 H894 H 0.22050 0.94435 0.92552
 H895 H 0.21831 0.85628 0.81246
 H896 H 0.26384 0.79857 0.86149
 H897 H 0.21798 0.91532 0.88543
 H898 H 0.22021 0.88972 0.84933
 C899 C 0.75275 0.39914 0.40106
 C900 C 0.77216 0.39484 0.42227
 C901 C 0.77207 0.41172 0.44551
 C902 C 0.75218 0.43227 0.44868
 C903 C 0.73211 0.43568 0.42832
 C904 C 0.73257 0.41961 0.40459
 C905 C 0.75385 0.38082 0.37639
 C906 C 0.73737 0.38491 0.35292
 C907 C 0.73844 0.36648 0.33096
 C908 C 0.75561 0.34344 0.33217
 C909 C 0.77276 0.33972 0.35494
 C910 C 0.77245 0.35847 0.37670
 C911 C 0.79099 0.37318 0.42062
 C912 C 0.79071 0.35501 0.39861
 H913 H 0.80569 0.36977 0.43698
 H914 H 0.80520 0.33811 0.39864
 H915 H 0.78724 0.40858 0.46152
 H916 H 0.71600 0.45081 0.43086
 H917 H 0.72518 0.36973 0.31341
 H918 H 0.78649 0.32219 0.35562
 H919 H 0.71662 0.42303 0.38959
 H920 H 0.72359 0.40217 0.35116
 C921 C 0.11877 0.24295 0.09102
 C922 C 0.12551 0.25789 0.06709
 C923 C 0.10737 0.25836 0.04475
 C924 C 0.08254 0.24348 0.04520
 C925 C 0.07657 0.22775 0.06867
 C926 C 0.09417 0.22772 0.09133
 C927 C 0.13863 0.24333 0.11457
 C928 C 0.13300 0.23100 0.14011
 C929 C 0.15243 0.23160 0.16123
 C930 C 0.17802 0.24421 0.15729
 C931 C 0.18365 0.25692 0.13213
 C932 C 0.16405 0.25701 0.11102
 C933 C 0.15060 0.27182 0.06528
 C934 C 0.16966 0.27099 0.08658
 H935 H 0.15584 0.28312 0.04687
 H936 H 0.18899 0.28170 0.08397
 H937 H 0.11256 0.27068 0.02697
 H938 H 0.05863 0.21461 0.06922
 H939 H 0.14759 0.22174 0.18054
 H940 H 0.20318 0.26718 0.12913
 H941 H 0.08852 0.21505 0.10857
 H942 H 0.11370 0.22097 0.14426
 C943 C 0.60363 0.74744 0.59824
 C944 C 0.60965 0.73032 0.57560
 C945 C 0.59159 0.72917 0.55320
 C946 C 0.56804 0.74576 0.55237
 C947 C 0.56251 0.76328 0.57448
 C948 C 0.57982 0.76389 0.59729
 C949 C 0.62358 0.74826 0.62164
 C950 C 0.61846 0.76281 0.64608
 C951 C 0.63806 0.76355 0.66698
 C952 C 0.66333 0.75017 0.66385
 C953 C 0.66843 0.73513 0.63990
 C954 C 0.64858 0.73363 0.61908
 C955 C 0.63418 0.71529 0.57493
 C956 C 0.65346 0.71733 0.59596
 H957 H 0.63888 0.70232 0.55751
 H958 H 0.67243 0.70581 0.59418
 H959 H 0.59628 0.71601 0.53590
 H960 H 0.54501 0.77700 0.57381
 H961 H 0.63361 0.77498 0.68549
 H962 H 0.68767 0.72411 0.63773
 H963 H 0.57468 0.77802 0.61350
 H964 H 0.59940 0.77354 0.64957
 C965 C 0.08829 0.73982 0.89397
 C966 C 0.06396 0.72566 0.88681
 C967 C 0.04103 0.72652 0.90415
 C968 C 0.04131 0.74190 0.92860
 C969 C 0.06531 0.75663 0.93514
 C970 C 0.08852 0.75540 0.91830
 C971 C 0.11231 0.73836 0.87472
 C972 C 0.13806 0.75030 0.88052
 C973 C 0.15939 0.74923 0.86135
 C974 C 0.15549 0.73644 0.83589
 C975 C 0.13025 0.72376 0.83030
 C976 C 0.10888 0.72431 0.84954
 C977 C 0.06234 0.71120 0.86207
 C978 C 0.08416 0.71089 0.84365
 H979 H 0.04365 0.70043 0.85656
 H980 H 0.08165 0.69989 0.82450
 H981 H 0.02290 0.71483 0.89863
 H982 H 0.06590 0.76995 0.95290
 H983 H 0.17874 0.75908 0.86618
 H984 H 0.12722 0.71339 0.81086
 H985 H 0.10615 0.76738 0.92431
 H986 H 0.14210 0.76061 0.89967
 C987 C 0.60198 0.25699 0.38837
 C988 C 0.58268 0.23543 0.38580
 C989 C 0.56022 0.23395 0.40368
 C990 C 0.55575 0.25439 0.42340
 C991 C 0.57396 0.27664 0.42488
 C992 C 0.59707 0.27775 0.40790
 C993 C 0.62614 0.25732 0.36933
 C994 C 0.64826 0.27578 0.37220
 C995 C 0.67000 0.27556 0.35350
 C996 C 0.66985 0.25734 0.33130
 C997 C 0.64833 0.23848 0.32860
 C998 C 0.62693 0.23784 0.34781
 C999 C 0.58539 0.21597 0.36487
 C1000 C 0.60665 0.21757 0.34584
 H1001 H 0.57043 0.19964 0.36272
 H1002 H 0.60748 0.20243 0.32959
 H1003 H 0.54575 0.21711 0.40191
 H1004 H 0.57022 0.29321 0.43918
 H1005 H 0.68665 0.29011 0.35596
 H1006 H 0.64856 0.22395 0.31175
 H1007 H 0.61042 0.29531 0.40986
 H1008 H 0.64922 0.29032 0.38885
 C1009 C 0.89752 0.75690 0.11376
 C1010 C 0.91789 0.73679 0.11864
 C1011 C 0.94065 0.73471 0.10121
 C1012 C 0.94430 0.75292 0.07906
 C1013 C 0.92498 0.77416 0.07559
 C1014 C 0.90170 0.77587 0.09234
 C1015 C 0.87299 0.75767 0.13239
 C1016 C 0.85001 0.77474 0.12773
 C1017 C 0.82798 0.77500 0.14618
 C1018 C 0.82866 0.75865 0.16981
 C1019 C 0.85102 0.74111 0.17422
 C1020 C 0.87277 0.74002 0.15547
 C1021 C 0.91581 0.71914 0.14120
 C1022 C 0.89406 0.72116 0.15958
 H1023 H 0.93157 0.70391 0.14507
 H1024 H 0.89369 0.70744 0.17708
 H1025 H 0.95544 0.71842 0.10471
 H1026 H 0.92817 0.78994 0.06027
 H1027 H 0.81075 0.78858 0.14241
 H1028 H 0.85129 0.72801 0.19221
 H1029 H 0.88757 0.79255 0.08869
 H1030 H 0.84868 0.78785 0.10994
 C1031 C 0.40992 0.24669 0.60891
 C1032 C 0.43252 0.22918 0.61428
 C1033 C 0.45556 0.22958 0.59701
 C1034 C 0.45706 0.24799 0.57495
 C1035 C 0.43528 0.26633 0.57052
 C1036 C 0.41182 0.26547 0.58699
 C1037 C 0.38548 0.24520 0.62755
 C1038 C 0.36082 0.25957 0.62248
 C1039 C 0.33896 0.25812 0.64100
 C1040 C 0.34135 0.24269 0.66514
 C1041 C 0.36545 0.22770 0.67000
 C1042 C 0.38720 0.22835 0.65115
 C1043 C 0.43237 0.21200 0.63730
 C1044 C 0.41047 0.21206 0.65568
 H1045 H 0.44977 0.19878 0.64156
 H1046 H 0.41163 0.19888 0.67355
 H1047 H 0.47263 0.21582 0.60097
 H1048 H 0.43649 0.28144 0.55427
 H1049 H 0.32042 0.26970 0.63683
 H1050 H 0.36712 0.21527 0.68838
 H1051 H 0.39573 0.28008 0.58268
 H1052 H 0.35801 0.27191 0.60432
 C1053 C 0.89144 0.24110 0.90764
 C1054 C 0.91733 0.25407 0.90559
 C1055 C 0.93576 0.25324 0.92784
 C1056 C 0.92925 0.23872 0.95203
 C1057 C 0.90392 0.22481 0.95312
 C1058 C 0.88541 0.22589 0.93139
 C1059 C 0.87152 0.24411 0.88441
 C1060 C 0.84424 0.23474 0.88604
 C1061 C 0.82627 0.23820 0.86411
 C1062 C 0.83494 0.25084 0.83976
 C1063 C 0.86206 0.26051 0.83791
 C1064 C 0.88019 0.25777 0.86030
 C1065 C 0.92454 0.26786 0.88139
 C1066 C 0.90660 0.26916 0.85903
 H1067 H 0.94448 0.27757 0.87961
 H1068 H 0.91328 0.27983 0.84070
 H1069 H 0.95468 0.26491 0.92666
 H1070 H 0.89841 0.21261 0.97087
 H1071 H 0.80548 0.23060 0.86619
 H1072 H 0.86884 0.27069 0.81934
 H1073 H 0.86655 0.21451 0.93361
 H1074 H 0.83616 0.22503 0.90419
 C1075 C 0.38329 0.75538 0.40602
 C1076 C 0.37658 0.77164 0.42910
 C1077 C 0.39392 0.77185 0.45210
 C1078 C 0.41726 0.75499 0.45309
 C1079 C 0.42311 0.73788 0.43074
 C1080 C 0.40664 0.73833 0.40732
 C1081 C 0.36438 0.75589 0.38180
 C1082 C 0.37067 0.74288 0.35679
 C1083 C 0.35174 0.74283 0.33527
 C1084 C 0.32601 0.75534 0.33833
 C1085 C 0.32000 0.76933 0.36272
 C1086 C 0.33921 0.77022 0.38417
 C1087 C 0.35207 0.78672 0.42952
 C1088 C 0.33346 0.78546 0.40782
 H1089 H 0.34679 0.79898 0.44728
 H1090 H 0.31438 0.79681 0.40947
 H1091 H 0.38888 0.78462 0.46959
 H1092 H 0.44037 0.72386 0.43153
 H1093 H 0.35697 0.73233 0.31645
 H1094 H 0.30041 0.77970 0.36491
 H1095 H 0.41201 0.72458 0.39085
 H1096 H 0.39007 0.73274 0.35342
 C1097 C 0.11895 0.09150 0.25048
 C1098 C 0.09555 0.09332 0.23336
 C1099 C 0.07668 0.07147 0.23224
 C1100 C 0.07998 0.04809 0.24898
 C1101 C 0.10303 0.04692 0.26638
 C1102 C 0.12210 0.06820 0.26722
 C1103 C 0.13939 0.11448 0.25002
 C1104 C 0.16463 0.11319 0.26411
 C1105 C 0.18331 0.13478 0.26260
 C1106 C 0.17725 0.15842 0.24738
 C1107 C 0.15214 0.16008 0.23332
 C1108 C 0.13348 0.13803 0.23403
 C1109 C 0.09114 0.11693 0.21752
 C1110 C 0.10943 0.13901 0.21824
 H1111 H 0.07311 0.11850 0.20455
 H1112 H 0.10495 0.15690 0.20579
 H1113 H 0.05985 0.07239 0.21769
 H1114 H 0.10613 0.02958 0.27996
 H1115 H 0.20263 0.13303 0.27351
 H1116 H 0.14760 0.17809 0.22104
 H1117 H 0.13901 0.06602 0.28134
 H1118 H 0.17065 0.09552 0.27599
 C1119 C 0.60852 0.59682 0.75308
 C1120 C 0.58993 0.59455 0.73085
 C1121 C 0.57297 0.57130 0.72854
 C1122 C 0.57332 0.55095 0.74891
 C1123 C 0.59077 0.55399 0.77155
 C1124 C 0.60816 0.57657 0.77367
 C1125 C 0.62779 0.62074 0.75374
 C1126 C 0.64957 0.62267 0.77269
 C1127 C 0.66759 0.64486 0.77196
 C1128 C 0.66402 0.66593 0.75279
 C1129 C 0.64237 0.66442 0.73388
 C1130 C 0.62474 0.64157 0.73371
 C1131 C 0.58833 0.61554 0.71126
 C1132 C 0.60490 0.63886 0.71304
 H1133 H 0.57384 0.61405 0.69444
 H1134 H 0.60272 0.65464 0.69751
 H1135 H 0.55957 0.56894 0.71094
 H1136 H 0.59115 0.53855 0.78755
 H1137 H 0.68443 0.64561 0.78649
 H1138 H 0.64009 0.68040 0.71855
 H1139 H 0.62105 0.57780 0.79162
 H1140 H 0.65353 0.60693 0.78774
 C1141 C 0.91193 0.11575 0.75648
 C1142 C 0.90961 0.09105 0.74144
 C1143 C 0.93155 0.07222 0.74107
 C1144 C 0.95566 0.07705 0.75641
 C1145 C 0.95741 0.10152 0.77162
 C1146 C 0.93599 0.12045 0.77177
 C1147 C 0.88864 0.13586 0.75550
 C1148 C 0.89007 0.16185 0.76800
 C1149 C 0.86818 0.18012 0.76619
 C1150 C 0.84408 0.17305 0.75211
 C1151 C 0.84222 0.14714 0.73968
 C1152 C 0.86455 0.12872 0.74084
 C1153 C 0.88539 0.08534 0.72694
 C1154 C 0.86321 0.10356 0.72698
 H1155 H 0.88345 0.06635 0.71555
 H1156 H 0.84489 0.09807 0.71560
 H1157 H 0.93009 0.05409 0.72827
 H1158 H 0.97529 0.10585 0.78414
 H1159 H 0.87010 0.19993 0.77609
 H1160 H 0.82378 0.14164 0.72848
 H1161 H 0.93871 0.13850 0.78424
 H1162 H 0.90801 0.16873 0.77898
 C1163 C 0.40201 0.61215 0.26426
 C1164 C 0.40319 0.59016 0.24538
 C1165 C 0.42662 0.57337 0.24433
 C1166 C 0.44847 0.57746 0.26269
 C1167 C 0.44651 0.59826 0.28240
 C1168 C 0.42361 0.61540 0.28324
 C1169 C 0.37794 0.63120 0.26300
 C1170 C 0.37689 0.65578 0.27810
 C1171 C 0.35467 0.67353 0.27539
 C1172 C 0.33270 0.66709 0.25802
 C1173 C 0.33321 0.64255 0.24308
 C1174 C 0.35607 0.62495 0.24486
 C1175 C 0.38108 0.58519 0.22765
 C1176 C 0.35774 0.60185 0.22784
 H1177 H 0.38177 0.56809 0.21347
 H1178 H 0.34114 0.59710 0.21381
 H1179 H 0.42810 0.55737 0.22897
 H1180 H 0.46304 0.60152 0.29692
 H1181 H 0.35459 0.69243 0.28705
 H1182 H 0.31643 0.63780 0.22924
 H1183 H 0.42329 0.63106 0.29885
 H1184 H 0.39330 0.66207 0.29156
 C1185 C 0.08355 0.87880 0.75673
 C1186 C 0.08354 0.90097 0.73801
 C1187 C 0.06196 0.92023 0.73833
 C1188 C 0.04115 0.91891 0.75840
 C1189 C 0.04194 0.89708 0.77734
 C1190 C 0.06268 0.87742 0.77657
 C1191 C 0.10609 0.85794 0.75495
 C1192 C 0.10593 0.83347 0.77034
 C1193 C 0.12741 0.81471 0.76815
 C1194 C 0.14980 0.81997 0.75093
 C1195 C 0.15011 0.84408 0.73519
 C1196 C 0.12803 0.86271 0.73652
 C1197 C 0.10526 0.90395 0.71938
 C1198 C 0.12738 0.88564 0.71915
 H1199 H 0.10548 0.92105 0.70517
 H1200 H 0.14394 0.88918 0.70475
 H1201 H 0.06113 0.93588 0.72255
 H1202 H 0.02665 0.89546 0.79340
 H1203 H 0.12673 0.79613 0.78038
 H1204 H 0.16715 0.84792 0.72140
 H1205 H 0.06222 0.86161 0.79205
 H1206 H 0.08925 0.82821 0.78389
 C1207 C 0.60069 0.39816 0.24424
 C1208 C 0.57829 0.39234 0.22664
 C1209 C 0.55493 0.40920 0.22687
 C1210 C 0.55292 0.43118 0.24529
 C1211 C 0.57470 0.43631 0.26341
 C1212 C 0.59845 0.42029 0.26268
 C1213 C 0.62518 0.37955 0.24348
 C1214 C 0.64945 0.38482 0.25837
 C1215 C 0.67117 0.36610 0.25803
 C1216 C 0.66905 0.34162 0.24314
 C1217 C 0.64544 0.33665 0.22744
 C1218 C 0.62378 0.35564 0.22709
 C1219 C 0.57886 0.36914 0.20973
 C1220 C 0.60087 0.35085 0.21039
 H1221 H 0.56164 0.36458 0.19638
 H1222 H 0.59999 0.33275 0.19752
 H1223 H 0.53788 0.40476 0.21325
 H1224 H 0.57312 0.45254 0.27849
 H1225 H 0.68936 0.37040 0.27010
 H1226 H 0.64401 0.31802 0.21537
 H1227 H 0.61440 0.42502 0.27729
 H1228 H 0.65206 0.40322 0.27037
 C1229 C 0.88771 0.91294 0.24800
 C1230 C 0.88259 0.93435 0.22902
 C1231 C 0.90098 0.95641 0.22683
 C1232 C 0.92397 0.95814 0.24407
 C1233 C 0.92836 0.93755 0.26369
 C1234 C 0.91071 0.91503 0.26544
 C1235 C 0.86777 0.88955 0.24940
 C1236 C 0.87228 0.86594 0.26556
 C1237 C 0.85274 0.84495 0.26651
 C1238 C 0.82813 0.84725 0.25179
 C1239 C 0.82370 0.87035 0.23522
 C1240 C 0.84351 0.89115 0.23346
 C1241 C 0.85875 0.93407 0.21294
 C1242 C 0.83935 0.91322 0.21553
 H1243 H 0.85471 0.95057 0.19858
 H1244 H 0.82093 0.91424 0.20305
 H1245 H 0.89713 0.97260 0.21205
 H1246 H 0.94541 0.93903 0.27790
 H1247 H 0.85665 0.82707 0.27914
 H1248 H 0.80500 0.87184 0.22318
 H1249 H 0.91502 0.89989 0.28101
 H1250 H 0.89083 0.86318 0.27734
 C1251 C 0.39222 0.39917 0.74849
 C1252 C 0.38848 0.41918 0.72775
 C1253 C 0.40539 0.44244 0.72693
 C1254 C 0.42537 0.44681 0.74715
 C1255 C 0.42818 0.42770 0.76848
 C1256 C 0.41211 0.40394 0.76897
 C1257 C 0.37395 0.37442 0.74834
 C1258 C 0.37768 0.35193 0.76621
 C1259 C 0.35943 0.32976 0.76579
 C1260 C 0.33691 0.32982 0.74792
 C1261 C 0.33351 0.35163 0.72950
 C1262 C 0.35213 0.37354 0.72916
 C1263 C 0.36733 0.41636 0.70849
 C1264 C 0.34915 0.39434 0.70957
 H1265 H 0.36433 0.43181 0.69277
 H1266 H 0.33267 0.39343 0.69463
 H1267 H 0.40266 0.45757 0.71082
 H1268 H 0.44280 0.43127 0.78484
 H1269 H 0.36250 0.31287 0.77992
 H1270 H 0.31648 0.35132 0.71514
 H1271 H 0.41504 0.38996 0.78588
 H1272 H 0.39458 0.35104 0.78051
 C1273 C 0.11212 0.23385 0.89899
 C1274 C 0.11975 0.21852 0.92243
 C1275 C 0.10284 0.21830 0.94565
 C1276 C 0.07847 0.23387 0.94665
 C1277 C 0.07116 0.24930 0.92334
 C1278 C 0.08754 0.24911 0.89980
 C1279 C 0.13129 0.23412 0.87490
 C1280 C 0.12522 0.24762 0.85002
 C1281 C 0.14447 0.24838 0.82876
 C1282 C 0.17026 0.23599 0.83195
 C1283 C 0.17609 0.22167 0.85620
 C1284 C 0.15679 0.22034 0.87743
 C1285 C 0.14467 0.20419 0.92302
 C1286 C 0.16298 0.20541 0.90116
 H1287 H 0.15049 0.19244 0.94099
 H1288 H 0.18234 0.19455 0.90291
 H1289 H 0.10880 0.20588 0.96314
 H1290 H 0.05335 0.26263 0.92366
 H1291 H 0.13947 0.25933 0.81007
 H1292 H 0.19576 0.21145 0.85852
 H1293 H 0.08108 0.26178 0.88284
 H1294 H 0.10582 0.25777 0.84662
 C1295 C 0.60363 0.76551 0.40781
 C1296 C 0.58193 0.74621 0.40724
 C1297 C 0.56413 0.74385 0.42981
 C1298 C 0.56707 0.76120 0.45260
 C1299 C 0.58759 0.78133 0.45236
 C1300 C 0.60564 0.78354 0.43030
 C1301 C 0.62374 0.76568 0.38459
 C1302 C 0.64797 0.78144 0.38511
 C1303 C 0.66670 0.78009 0.36359
 C1304 C 0.66161 0.76342 0.34076
 C1305 C 0.63742 0.74781 0.33976
 C1306 C 0.61883 0.74828 0.36185
 C1307 C 0.57831 0.72930 0.38429
 C1308 C 0.59603 0.73072 0.36183
 H1309 H 0.56147 0.71477 0.38364
 H1310 H 0.59231 0.71725 0.34455
 H1311 H 0.54833 0.72817 0.42994
 H1312 H 0.59000 0.79508 0.46965
 H1313 H 0.68530 0.79225 0.36476
 H1314 H 0.63369 0.73448 0.32236
 H1315 H 0.62106 0.79939 0.43136
 H1316 H 0.65324 0.79441 0.40222
 C1317 C 0.89551 0.75521 0.89480
 C1318 C 0.91941 0.77026 0.88805
 C1319 C 0.94237 0.76953 0.90537
 C1320 C 0.94269 0.75308 0.92912
 C1321 C 0.91933 0.73705 0.93489
 C1322 C 0.89595 0.73841 0.91829
 C1323 C 0.87137 0.75674 0.87576
 C1324 C 0.84563 0.74485 0.88174
 C1325 C 0.82420 0.74588 0.86263
 C1326 C 0.82814 0.75834 0.83702
 C1327 C 0.85338 0.77094 0.83130
 C1328 C 0.87463 0.77088 0.85063
 C1329 C 0.92067 0.78525 0.86358
 C1330 C 0.89900 0.78500 0.84495
 H1331 H 0.93905 0.79665 0.85833
 H1332 H 0.90128 0.79625 0.82590
 H1333 H 0.96012 0.78199 0.90029
 H1334 H 0.91940 0.72268 0.95185
 H1335 H 0.80479 0.73621 0.86756
 H1336 H 0.85654 0.78085 0.81166
 H1337 H 0.87880 0.72545 0.92364
 H1338 H 0.84169 0.73477 0.90105
 C1339 C 0.41069 0.24080 0.38811
 C1340 C 0.41096 0.26103 0.40892
 C1341 C 0.43350 0.26288 0.42690
 C1342 C 0.45538 0.24420 0.42496
 C1343 C 0.45423 0.22327 0.40533
 C1344 C 0.43221 0.22149 0.38717
 C1345 C 0.38765 0.24100 0.36774
 C1346 C 0.38761 0.22419 0.34428
 C1347 C 0.36635 0.22583 0.32524
 C1348 C 0.34433 0.24387 0.32925
 C1349 C 0.34387 0.26059 0.35264
 C1350 C 0.36576 0.25980 0.37153
 C1351 C 0.38886 0.27931 0.41144
 C1352 C 0.36648 0.27833 0.39349
 H1353 H 0.38882 0.29458 0.42758
 H1354 H 0.34987 0.29287 0.39635
 H1355 H 0.43435 0.27914 0.44205
 H1356 H 0.47082 0.20852 0.40372
 H1357 H 0.36710 0.21283 0.30724
 H1358 H 0.32712 0.27498 0.35548
 H1359 H 0.43256 0.20494 0.37252
 H1360 H 0.40411 0.21012 0.33982
 C1361 C 0.08922 0.73573 0.11296
 C1362 C 0.08870 0.75510 0.09133
 C1363 C 0.06560 0.75686 0.07411
 C1364 C 0.04331 0.73891 0.07759
 C1365 C 0.04451 0.71889 0.09816
 C1366 C 0.06713 0.71722 0.11561
 C1367 C 0.11307 0.73608 0.13237
 C1368 C 0.11374 0.72004 0.15639
 C1369 C 0.13563 0.72209 0.17464
 C1370 C 0.15768 0.73975 0.16928
 C1371 C 0.15765 0.75545 0.14519
 C1372 C 0.13516 0.75426 0.12706
 C1373 C 0.11112 0.77267 0.08720
 C1374 C 0.13407 0.77190 0.10439
 H1375 H 0.11092 0.78725 0.07042
 H1376 H 0.15085 0.78593 0.10034
 H1377 H 0.06470 0.77246 0.05827
 H1378 H 0.02759 0.70472 0.10098
 H1379 H 0.13529 0.70983 0.19319
 H1380 H 0.17445 0.76952 0.14127
 H1381 H 0.06681 0.70139 0.13105
 H1382 H 0.09725 0.70636 0.16190
 C1383 C 0.60495 0.26209 0.60725
 C1384 C 0.60212 0.23961 0.58908
 C1385 C 0.57856 0.23727 0.57255
 C1386 C 0.55796 0.25740 0.57340
 C1387 C 0.56105 0.27991 0.59094
 C1388 C 0.58423 0.28234 0.60761
 C1389 C 0.62956 0.26299 0.62576
 C1390 C 0.63314 0.28337 0.64592
 C1391 C 0.65529 0.28222 0.66398
 C1392 C 0.67468 0.26114 0.66221
 C1393 C 0.67216 0.24133 0.64156
 C1394 C 0.64944 0.24181 0.62365
 C1395 C 0.62267 0.21951 0.58774
 C1396 C 0.64593 0.22072 0.60447
 H1397 H 0.62066 0.20243 0.57365
 H1398 H 0.66108 0.20451 0.60280
 H1399 H 0.57605 0.21970 0.55915
 H1400 H 0.54531 0.29561 0.59184
 H1401 H 0.65718 0.29773 0.67970
 H1402 H 0.68703 0.22479 0.64043
 H1403 H 0.58537 0.30013 0.62066
 H1404 H 0.61874 0.29995 0.64865
 C1405 C 0.89910 0.25130 0.09841
 C1406 C 0.89757 0.22821 0.08087
 C1407 C 0.91485 0.22636 0.05799
 C1408 C 0.93294 0.24773 0.05141
 C1409 C 0.93366 0.27115 0.06806
 C1410 C 0.91727 0.27279 0.09155
 C1411 C 0.88022 0.25239 0.12267
 C1412 C 0.88174 0.27300 0.14293
 C1413 C 0.86278 0.27368 0.16447
 C1414 C 0.84175 0.25415 0.16593
 C1415 C 0.84065 0.23304 0.14654
 C1416 C 0.86001 0.23166 0.12535
 C1417 C 0.87809 0.20761 0.08558
 C1418 C 0.85929 0.20962 0.10698
 H1419 H 0.87680 0.19006 0.07200
 H1420 H 0.84406 0.19355 0.10930
 H1421 H 0.91369 0.20857 0.04468
 H1422 H 0.94674 0.28831 0.06270
 H1423 H 0.86402 0.28995 0.17955
 H1424 H 0.82477 0.21753 0.14817
 H1425 H 0.91847 0.29132 0.10358
 H1426 H 0.89738 0.28867 0.14249
 C1427 C 0.38325 0.74072 0.59995
 C1428 C 0.37774 0.72378 0.57703
 C1429 C 0.39551 0.72390 0.55439
 C1430 C 0.41816 0.74169 0.55350
 C1431 C 0.42312 0.75908 0.57588
 C1432 C 0.40618 0.75836 0.59898
 C1433 C 0.36357 0.74015 0.62360
 C1434 C 0.36831 0.75428 0.64839
 C1435 C 0.34877 0.75383 0.66941
 C1436 C 0.32392 0.73972 0.66600
 C1437 C 0.31935 0.72506 0.64171
 C1438 C 0.33916 0.72463 0.62086
 C1439 C 0.35391 0.70770 0.57629
 C1440 C 0.33474 0.70857 0.59747
 H1441 H 0.34959 0.69486 0.55867
 H1442 H 0.31625 0.69632 0.59558
 H1443 H 0.39122 0.71078 0.53695
 H1444 H 0.43987 0.77369 0.57523
 H1445 H 0.35285 0.76506 0.68813
 H1446 H 0.30042 0.71367 0.63917
 H1447 H 0.41081 0.77242 0.61542
 H1448 H 0.38699 0.76562 0.65200
 C1449 C 0.26739 0.10343 0.90259
 C1450 C 0.24897 0.08102 0.90327
 C1451 C 0.24874 0.06317 0.92600
 C1452 C 0.26744 0.06666 0.94785
 C1453 C 0.28646 0.08836 0.94617
 C1454 C 0.28654 0.10634 0.92399
 C1455 C 0.26566 0.12324 0.87917
 C1456 C 0.28072 0.14790 0.87858
 C1457 C 0.27789 0.16617 0.85683
 C1458 C 0.26034 0.16027 0.83485
 C1459 C 0.24527 0.13572 0.83500
 C1460 C 0.24729 0.11752 0.85737
 C1461 C 0.23086 0.07669 0.88131
 C1462 C 0.23044 0.09422 0.85860
 H1463 H 0.21691 0.05936 0.88158
 H1464 H 0.21619 0.08987 0.84209
 H1465 H 0.23323 0.04725 0.92709
 H1466 H 0.30174 0.09135 0.96206
 H1467 H 0.28961 0.18507 0.85714
 H1468 H 0.23123 0.13138 0.81829
 H1469 H 0.30189 0.12228 0.92402
 H1470 H 0.29434 0.15384 0.89498
 C1471 C 0.75455 0.62070 0.40727
 C1472 C 0.73456 0.59964 0.40846
 C1473 C 0.73432 0.58125 0.43073
 C1474 C 0.75463 0.58275 0.45115
 C1475 C 0.77531 0.60263 0.44893
 C1476 C 0.77532 0.62138 0.42737
 C1477 C 0.75280 0.64134 0.38459
 C1478 C 0.76909 0.66522 0.38404
 C1479 C 0.76638 0.68420 0.36285
 C1480 C 0.74779 0.67969 0.34141
 C1481 C 0.73134 0.65606 0.34167
 C1482 C 0.73315 0.63728 0.36355
 C1483 C 0.71511 0.59711 0.38741
 C1484 C 0.71487 0.61510 0.36507
 H1485 H 0.70002 0.58077 0.38804
 H1486 H 0.69962 0.61208 0.34916
 H1487 H 0.71822 0.56596 0.43236
 H1488 H 0.79133 0.60392 0.46432
 H1489 H 0.77911 0.70245 0.36306
 H1490 H 0.71648 0.65287 0.32540
 H1491 H 0.79179 0.63617 0.42680
 H1492 H 0.78361 0.66994 0.40007
 C1493 C 0.74838 0.10548 0.10738
 C1494 C 0.72713 0.08614 0.11177
 C1495 C 0.72445 0.06341 0.09439
 C1496 C 0.74347 0.05864 0.07336
 C1497 C 0.76523 0.07716 0.06972
 C1498 C 0.76746 0.10054 0.08621
 C1499 C 0.75029 0.12963 0.12635
 C1500 C 0.76864 0.15167 0.12219
 C1501 C 0.76996 0.17335 0.14096
 C1502 C 0.75352 0.17316 0.16451
 C1503 C 0.73479 0.15173 0.16848
 C1504 C 0.73255 0.13044 0.14932
 C1505 C 0.70933 0.08895 0.13411
 C1506 C 0.71241 0.11026 0.15286
 H1507 H 0.69323 0.07399 0.13761
 H1508 H 0.69857 0.11113 0.17023
 H1509 H 0.70794 0.04883 0.09772
 H1510 H 0.78074 0.07332 0.05428
 H1511 H 0.78424 0.18999 0.13738
 H1512 H 0.72150 0.15195 0.18633
 H1513 H 0.78468 0.11402 0.08266
 H1514 H 0.78188 0.15262 0.10448
 C1515 C 0.24640 0.58722 0.60876
 C1516 C 0.22755 0.56544 0.61253
 C1517 C 0.22773 0.54291 0.59465
 C1518 C 0.24730 0.54093 0.57364
 C1519 C 0.26695 0.56180 0.57086
 C1520 C 0.26630 0.58488 0.58789
 C1521 C 0.24498 0.61125 0.62793
 C1522 C 0.26053 0.63539 0.62418
 C1523 C 0.25882 0.65694 0.64304
 C1524 C 0.24206 0.65470 0.66626
 C1525 C 0.22603 0.63109 0.66982
 C1526 C 0.22684 0.60975 0.65055
 C1527 C 0.20918 0.56582 0.63461
 C1528 C 0.20931 0.58718 0.65359
 H1529 H 0.19495 0.54900 0.63766
 H1530 H 0.19515 0.58620 0.67070
 H1531 H 0.21289 0.52653 0.59736
 H1532 H 0.28291 0.56018 0.55548
 H1533 H 0.27114 0.67512 0.63982
 H1534 H 0.21254 0.62956 0.68745
 H1535 H 0.28190 0.60031 0.58487
 H1536 H 0.27390 0.63807 0.60675
 C1537 C 0.73402 0.90772 0.89113
 C1538 C 0.75430 0.90890 0.91192
 C1539 C 0.75603 0.93206 0.92903
 C1540 C 0.73717 0.95368 0.92625
 C1541 C 0.71632 0.95179 0.90655
 C1542 C 0.71467 0.92914 0.88924
 C1543 C 0.73424 0.88387 0.87180
 C1544 C 0.71722 0.88270 0.84847
 C1545 C 0.71909 0.86082 0.83024
 C1546 C 0.73754 0.83929 0.83499
 C1547 C 0.75430 0.83985 0.85837
 C1548 C 0.75328 0.86236 0.87642
 C1549 C 0.77273 0.88706 0.91535
 C1550 C 0.77189 0.86405 0.89830
 H1551 H 0.78803 0.88774 0.93149
 H1552 H 0.78658 0.84770 0.90180
 H1553 H 0.77222 0.93350 0.94424
 H1554 H 0.70145 0.96819 0.90432
 H1555 H 0.70607 0.86076 0.81221
 H1556 H 0.76901 0.82347 0.86175
 H1557 H 0.69815 0.92891 0.87451
 H1558 H 0.70287 0.89879 0.84344
 C1559 C 0.24927 0.39860 0.38424
 C1560 C 0.26951 0.40033 0.40502
 C1561 C 0.27005 0.42311 0.42277
 C1562 C 0.24985 0.44364 0.42087
 C1563 C 0.22922 0.44121 0.40099
 C1564 C 0.22886 0.41908 0.38291
 C1565 C 0.25042 0.37502 0.36455
 C1566 C 0.23339 0.37344 0.34124
 C1567 C 0.23577 0.35163 0.32296
 C1568 C 0.25476 0.33053 0.32759
 C1569 C 0.27173 0.33163 0.35083
 C1570 C 0.27019 0.35412 0.36893
 C1571 C 0.28891 0.37925 0.40799
 C1572 C 0.28888 0.35638 0.39070
 H1573 H 0.30422 0.38033 0.42409
 H1574 H 0.30419 0.34056 0.39399
 H1575 H 0.28615 0.42495 0.43803
 H1576 H 0.21334 0.45672 0.39933
 H1577 H 0.22263 0.35121 0.30501
 H1578 H 0.28689 0.31564 0.35412
 H1579 H 0.21236 0.41836 0.36817
 H1580 H 0.21857 0.38915 0.33634
 C1581 C 0.24538 0.88357 0.09484
 C1582 C 0.26324 0.87693 0.07295
 C1583 C 0.26532 0.89443 0.05023
 C1584 C 0.24885 0.91797 0.04813
 C1585 C 0.23012 0.92383 0.06917
 C1586 C 0.22866 0.90711 0.09246
 C1587 C 0.24437 0.86458 0.11905
 C1588 C 0.22988 0.87074 0.14331
 C1589 C 0.22948 0.85214 0.16518
 C1590 C 0.24291 0.82678 0.16311
 C1591 C 0.25779 0.82072 0.13928
 C1592 C 0.25920 0.83962 0.11765
 C1593 C 0.27831 0.85246 0.07339
 C1594 C 0.27581 0.83389 0.09496
 H1595 H 0.29175 0.84725 0.05647
 H1596 H 0.28745 0.81494 0.09406
 H1597 H 0.27939 0.88943 0.03375
 H1598 H 0.21650 0.94133 0.06748
 H1599 H 0.21835 0.85748 0.18360
 H1600 H 0.26892 0.80148 0.13787
 H1601 H 0.21387 0.91250 0.10802
 H1602 H 0.21911 0.88992 0.14590
 C1603 C 0.75324 0.39654 0.59671
 C1604 C 0.77249 0.39267 0.57530
 C1605 C 0.77221 0.41000 0.55233
 C1606 C 0.75236 0.43067 0.54968
 C1607 C 0.73245 0.43367 0.57023
 C1608 C 0.73305 0.41709 0.59365
 C1609 C 0.75463 0.37781 0.62112
 C1610 C 0.73825 0.38136 0.64472
 C1611 C 0.73972 0.36267 0.66648
 C1612 C 0.75721 0.33988 0.66498
 C1613 C 0.77419 0.33667 0.64203
 C1614 C 0.77344 0.35566 0.62045
 C1615 C 0.79143 0.37108 0.57653
 C1616 C 0.79151 0.35263 0.59834
 H1617 H 0.80601 0.36800 0.56004
 H1618 H 0.80614 0.33586 0.59802
 H1619 H 0.78728 0.40719 0.53620
 H1620 H 0.71639 0.44892 0.56811
 H1621 H 0.72655 0.36555 0.68414
 H1622 H 0.78817 0.31935 0.64107
 H1623 H 0.71724 0.42025 0.60881
 H1624 H 0.72425 0.39841 0.64674
 C1625 C 0.10281 0.10095 0.74933
 C1626 C 0.08072 0.10687 0.73141
 C1627 C 0.05702 0.09059 0.73171
 C1628 C 0.05418 0.06859 0.75021
 C1629 C 0.07594 0.06323 0.76848
 C1630 C 0.10002 0.07892 0.76785
 C1631 C 0.12757 0.11935 0.74861
 C1632 C 0.15146 0.11460 0.76438
 C1633 C 0.17335 0.13325 0.76386
 C1634 C 0.17169 0.15713 0.74791
 C1635 C 0.14851 0.16148 0.73144
 C1636 C 0.12676 0.14271 0.73135
 C1637 C 0.08189 0.12956 0.71385
 C1638 C 0.10422 0.14735 0.71414
 H1639 H 0.06492 0.13409 0.70017
 H1640 H 0.10381 0.16506 0.70068
 H1641 H 0.04054 0.09517 0.71743
 H1642 H 0.07394 0.04756 0.78412
 H1643 H 0.19122 0.12947 0.77657
 H1644 H 0.14743 0.17964 0.71860
 H1645 H 0.11580 0.07406 0.78262
 H1646 H 0.15354 0.09672 0.77728
 C1647 C 0.59466 0.61677 0.25361
 C1648 C 0.57196 0.62248 0.23634
 C1649 C 0.54975 0.60417 0.23505
 C1650 C 0.54911 0.58061 0.25157
 C1651 C 0.57124 0.57536 0.26925
 C1652 C 0.59391 0.59297 0.27005
 C1653 C 0.61794 0.63697 0.25442
 C1654 C 0.64247 0.63234 0.26916
 C1655 C 0.66328 0.65214 0.26961
 C1656 C 0.65993 0.67715 0.25578
 C1657 C 0.63583 0.68175 0.24071
 C1658 C 0.61516 0.66174 0.23948
 C1659 C 0.57106 0.64687 0.22119
 C1660 C 0.59195 0.66630 0.22312
 H1661 H 0.55360 0.65133 0.20812
 H1662 H 0.58999 0.68513 0.21142
 H1663 H 0.53248 0.60863 0.22170
 H1664 H 0.57076 0.55780 0.28287
 H1665 H 0.68185 0.64809 0.28119
 H1666 H 0.63339 0.70079 0.22943
 H1667 H 0.61020 0.58802 0.28422
 H1668 H 0.64606 0.61352 0.28025
 C1669 C 0.10308 0.89903 0.24224
 C1670 C 0.10902 0.92004 0.22303
 C1671 C 0.09352 0.94429 0.22283
 C1672 C 0.07267 0.94850 0.24214
 C1673 C 0.06725 0.92807 0.26165
 C1674 C 0.08202 0.90348 0.26155
 C1675 C 0.12053 0.87368 0.24208
 C1676 C 0.11544 0.85077 0.25909
 C1677 C 0.13363 0.82851 0.25953
 C1678 C 0.15731 0.82886 0.24328
 C1679 C 0.16173 0.85079 0.22527
 C1680 C 0.14344 0.87293 0.22425
 C1681 C 0.13103 0.91721 0.20481
 C1682 C 0.14819 0.89437 0.20575
 H1683 H 0.13561 0.93332 0.19017
 H1684 H 0.16551 0.89353 0.19182
 H1685 H 0.09807 0.96029 0.20805
 H1686 H 0.05168 0.93132 0.27717
 H1687 H 0.12979 0.81156 0.27338
 H1688 H 0.17971 0.85072 0.21222
 H1689 H 0.07717 0.88859 0.27718
 H1690 H 0.09774 0.84979 0.27234
 C1691 C 0.61359 0.40637 0.75167
 C1692 C 0.59348 0.40714 0.73071
 C1693 C 0.57534 0.42955 0.72889
 C1694 C 0.57588 0.45041 0.74875
 C1695 C 0.59479 0.44865 0.77036
 C1696 C 0.61346 0.42703 0.77183
 C1697 C 0.63410 0.38349 0.75160
 C1698 C 0.65740 0.38340 0.76873
 C1699 C 0.67645 0.36210 0.76736
 C1700 C 0.67250 0.34005 0.74938
 C1701 C 0.64924 0.33972 0.73239
 C1702 C 0.63058 0.36178 0.73266
 C1703 C 0.59154 0.38543 0.71196
 C1704 C 0.60919 0.36285 0.71341
 H1705 H 0.57588 0.38572 0.69615
 H1706 H 0.60664 0.34643 0.69866
 H1707 H 0.56084 0.43085 0.71205
 H1708 H 0.59536 0.46440 0.78603
 H1709 H 0.69436 0.36280 0.78055
 H1710 H 0.64630 0.32291 0.71823
 H1711 H 0.62748 0.42680 0.78897
 H1712 H 0.66171 0.39995 0.78277
 C1713 C 0.89641 0.10653 0.24671
 C1714 C 0.89409 0.08729 0.22511
 C1715 C 0.91110 0.06412 0.22459
 C1716 C 0.92960 0.05892 0.24600
 C1717 C 0.93105 0.07727 0.26806
 C1718 C 0.91499 0.10106 0.26825
 C1719 C 0.87782 0.13105 0.24642
 C1720 C 0.88026 0.15287 0.26525
 C1721 C 0.86153 0.17462 0.26484
 C1722 C 0.83980 0.17475 0.24602
 C1723 C 0.83777 0.15375 0.22657
 C1724 C 0.85695 0.13231 0.22621
 C1725 C 0.87405 0.09064 0.20476
 C1726 C 0.85543 0.11231 0.20569
 H1727 H 0.87215 0.07576 0.18836
 H1728 H 0.83973 0.11355 0.18996
 H1729 H 0.90935 0.04950 0.20791
 H1730 H 0.94443 0.07300 0.28530
 H1731 H 0.86349 0.19094 0.27979
 H1732 H 0.82132 0.15428 0.21155
 H1733 H 0.91674 0.11443 0.28580
 H1734 H 0.89647 0.15351 0.28033
 C1735 C 0.38645 0.59311 0.74680
 C1736 C 0.38341 0.57227 0.72682
 C1737 C 0.40189 0.55020 0.72606
 C1738 C 0.42277 0.54772 0.74575
 C1739 C 0.42495 0.56765 0.76636
 C1740 C 0.40733 0.59032 0.76667
 C1741 C 0.36640 0.61648 0.74670
 C1742 C 0.36923 0.63972 0.76370
 C1743 C 0.34939 0.66047 0.76348
 C1744 C 0.32612 0.65826 0.74672
 C1745 C 0.32352 0.63570 0.72911
 C1746 C 0.34375 0.61520 0.72850
 C1747 C 0.36135 0.57302 0.70838
 C1748 C 0.34158 0.59367 0.70963
 H1749 H 0.35888 0.55693 0.69324
 H1750 H 0.32447 0.59291 0.69541
 H1751 H 0.39962 0.53443 0.71054
 H1752 H 0.44020 0.56552 0.78241
 H1753 H 0.35184 0.67794 0.77698
 H1754 H 0.30586 0.63433 0.71559
 H1755 H 0.40983 0.60496 0.78307
 H1756 H 0.38665 0.64227 0.77715
 C1757 C 0.89378 0.89681 0.76863
 C1758 C 0.89809 0.91551 0.74682
 C1759 C 0.92220 0.93133 0.74593
 C1760 C 0.94209 0.92887 0.76661
 C1761 C 0.93739 0.91105 0.78862
 C1762 C 0.91352 0.89530 0.78976
 C1763 C 0.86897 0.87862 0.76764
 C1764 C 0.86397 0.85806 0.78733
 C1765 C 0.84203 0.84001 0.78421
 C1766 C 0.82434 0.84215 0.76172
 C1767 C 0.82806 0.86335 0.74271
 C1768 C 0.85055 0.88133 0.74525
 C1769 C 0.87869 0.91776 0.72569
 C1770 C 0.85535 0.90115 0.72501
 H1771 H 0.88184 0.93228 0.70914
 H1772 H 0.84124 0.90335 0.70795
 H1773 H 0.92597 0.94496 0.72876
 H1774 H 0.95258 0.90897 0.80475
 H1775 H 0.83899 0.82402 0.79931
 H1776 H 0.81438 0.86487 0.72521
 H1777 H 0.91125 0.88179 0.80711
 H1778 H 0.87708 0.85501 0.80488
 C1779 C 0.40869 0.38974 0.26018
 C1780 C 0.40796 0.41239 0.24200
 C1781 C 0.43012 0.43086 0.24108
 C1782 C 0.45267 0.42763 0.25875
 C1783 C 0.45264 0.40600 0.27769
 C1784 C 0.43098 0.38730 0.27848
 C1785 C 0.38587 0.36914 0.25884
 C1786 C 0.38649 0.34426 0.27355
 C1787 C 0.36547 0.32508 0.27062
 C1788 C 0.34304 0.33032 0.25336
 C1789 C 0.34185 0.35522 0.23897
 C1790 C 0.36343 0.37432 0.24104
 C1791 C 0.38526 0.41630 0.22475
 C1792 C 0.36324 0.39796 0.22466
 H1793 H 0.38449 0.43385 0.21109
 H1794 H 0.34616 0.40192 0.21094
 H1795 H 0.43012 0.44747 0.22628
 H1796 H 0.46977 0.40331 0.29164
 H1797 H 0.36675 0.30598 0.28195
 H1798 H 0.32475 0.35915 0.22526
 H1799 H 0.43219 0.37105 0.29344
 H1800 H 0.40333 0.33886 0.28688
   
