data_POSCAR
  _audit_creation_date              2014-09-24
  _audit_creation_method            'ToBaCCo'
  _symmetry_space_group_name_H-M    'P1'
  _symmetry_Int_Tables_number       1
  _symmetry_cell_setting            triclinic
  loop_
  _symmetry_equiv_pos_as_xyz
 x,y,z
_cell_length_a 63.9113
_cell_length_b 63.8787
_cell_length_c 63.8579
_cell_angle_alpha 90.029500
_cell_angle_beta 89.975300
_cell_angle_gamma 89.987800
loop_
  _atom_site_label
  _atom_site_type_symbol
  _atom_site_fract_x
  _atom_site_fract_y
  _atom_site_fract_z
C1 C 0.35816 1.35896 0.33105
 C2 C 0.36690 1.34078 0.34004
 C3 C 0.35800 1.33140 0.35777
 C4 C 0.34016 1.34035 0.36687
 C5 C 0.33086 1.35854 0.35852
 C6 C 0.34020 1.36766 0.34064
 H7 H 0.37993 1.33294 0.33260
 H8 H 0.33423 1.33347 0.38116
 H9 H 0.33334 1.38158 0.33403
 C10 C 0.35834 0.85856 0.83166
 C11 C 0.36707 0.84053 0.84062
 C12 C 0.35811 0.83139 0.85844
 C13 C 0.34026 0.84056 0.86741
 C14 C 0.33100 0.85869 0.85875
 C15 C 0.34046 0.86753 0.84080
 H16 H 0.38079 0.83347 0.83358
 H17 H 0.33430 0.83390 0.88178
 H18 H 0.33329 0.88068 0.83291
 C19 C 0.85785 1.35824 0.83162
 C20 C 0.84001 1.36722 0.84085
 C21 C 0.83069 1.35841 0.85889
 C22 C 0.84003 1.34032 0.86754
 C23 C 0.85783 1.33114 0.85847
 C24 C 0.86666 1.34025 0.84057
 H25 H 0.83279 1.38034 0.83299
 H26 H 0.83418 1.33367 0.88197
 H27 H 0.88034 1.33319 0.83346
 C28 C 0.85808 0.85813 0.33130
 C29 C 0.84013 0.86692 0.34049
 C30 C 0.83104 0.85789 0.35836
 C31 C 0.84021 0.83993 0.36712
 C32 C 0.85815 0.83090 0.35816
 C33 C 0.86701 0.84015 0.34028
 H34 H 0.83310 0.88071 0.33359
 H35 H 0.83356 0.83315 0.38117
 H36 H 0.88045 0.83291 0.33290
 C37 C 0.64203 0.64175 0.33084
 C38 C 0.66012 0.63303 0.34010
 C39 C 0.66931 0.64195 0.35797
 C40 C 0.66022 0.65979 0.36695
 C41 C 0.64223 0.66881 0.35823
 C42 C 0.63324 0.65972 0.34033
 H43 H 0.66675 0.61864 0.33412
 H44 H 0.66729 0.66679 0.38069
 H45 H 0.62011 0.66765 0.33318
 C46 C 0.64217 0.14175 0.83136
 C47 C 0.65998 0.13267 0.84050
 C48 C 0.66933 0.14127 0.85863
 C49 C 0.66000 0.15927 0.86750
 C50 C 0.64219 0.16855 0.85854
 C51 C 0.63336 0.15965 0.84053
 H52 H 0.66585 0.11826 0.83382
 H53 H 0.66688 0.16676 0.88103
 H54 H 0.62001 0.16710 0.83321
 C55 C 1.14151 0.64076 0.83205
 C56 C 1.13247 0.65872 0.84097
 C57 C 1.14117 0.66802 0.85890
 C58 C 1.15907 0.65907 0.86799
 C59 C 1.16834 0.64111 0.85931
 C60 C 1.15941 0.63203 0.84137
 H61 H 1.11874 0.66561 0.83381
 H62 H 1.16593 0.66622 0.88175
 H63 H 1.16654 0.61825 0.83451
 C64 C 1.14177 0.14134 0.33071
 C65 C 1.13321 0.15941 0.34007
 C66 C 1.14220 0.16842 0.35794
 C67 C 1.16002 0.15921 0.36682
 C68 C 1.16921 0.14115 0.35802
 C69 C 1.15973 0.13238 0.34003
 H70 H 1.11886 0.16615 0.33416
 H71 H 1.16736 0.16711 0.37987
 H72 H 1.16650 0.11855 0.33312
 C73 C 0.64180 1.35820 0.66835
 C74 C 0.63291 1.34032 0.65927
 C75 C 0.64168 1.33126 0.64132
 C76 C 0.65954 1.34036 0.63231
 C77 C 0.66895 1.35839 0.64105
 C78 C 0.65966 1.36715 0.65915
 H79 H 0.61888 1.33361 0.66601
 H80 H 0.66572 1.33339 0.61818
 H81 H 0.66694 1.38021 0.66709
 C82 C 0.64131 0.85901 1.16805
 C83 C 0.63244 0.84118 1.15873
 C84 C 0.64137 0.83222 1.14072
 C85 C 0.65932 0.84141 1.13196
 C86 C 0.66842 0.85924 1.14106
 C87 C 0.65924 0.86797 1.15904
 H88 H 0.61900 0.83378 1.16596
 H89 H 0.66637 0.83453 1.11816
 H90 H 0.66591 0.88199 1.16587
 C91 C 1.14194 1.35824 1.16904
 C92 C 1.13322 1.34022 1.15959
 C93 C 1.14215 1.33122 1.14161
 C94 C 1.16000 1.34036 1.13278
 C95 C 1.16906 1.35824 1.14171
 C96 C 1.15995 1.36709 1.15968
 H97 H 1.11916 1.33320 1.16583
 H98 H 1.16669 1.33372 1.11867
 H99 H 1.16787 1.38014 1.16698
 C100 C 1.14203 0.85813 0.66826
 C101 C 1.13318 0.84016 0.65931
 C102 C 1.14193 0.83104 0.64138
 C103 C 1.15972 0.84017 0.63226
 C104 C 1.16908 0.85829 0.64088
 C105 C 1.15981 0.86710 0.65896
 H106 H 1.11920 0.83343 0.66614
 H107 H 1.16590 0.83315 0.61815
 H108 H 1.16707 0.88023 0.66682
 C109 C 0.35807 0.64153 0.66856
 C110 C 0.34017 0.63268 0.65934
 C111 C 0.33108 0.64167 0.64146
 C112 C 0.34019 0.65966 0.63272
 C113 C 0.35808 0.66876 0.64170
 C114 C 0.36694 0.65953 0.65958
 H115 H 0.33317 0.61886 0.66624
 H116 H 0.33353 0.66642 0.61867
 H117 H 0.38034 0.66682 0.66698
 C118 C 0.35823 0.14214 1.16940
 C119 C 0.34017 0.13338 1.16009
 C120 C 0.33094 0.14237 1.14226
 C121 C 0.33995 0.16032 1.13343
 C122 C 0.35787 0.16938 1.14222
 C123 C 0.36690 0.16023 1.16005
 H124 H 0.33228 0.12027 1.16733
 H125 H 0.33318 0.16708 1.11943
 H126 H 0.38100 0.16720 1.16626
 C127 C 0.85812 0.64155 1.16938
 C128 C 0.84001 0.63302 1.15994
 C129 C 0.83094 0.64221 1.14215
 C130 C 0.84011 0.66015 1.13350
 C131 C 0.85807 0.66902 1.14242
 C132 C 0.86698 0.65964 1.16020
 H133 H 0.83296 0.61891 1.16605
 H134 H 0.83342 0.66704 1.11952
 H135 H 0.88010 0.66743 1.16752
 C136 C 0.85718 0.14229 0.66977
 C137 C 0.83918 0.13346 0.66041
 C138 C 0.82976 0.14231 0.64245
 C139 C 0.83897 0.16041 0.63381
 C140 C 0.85679 0.16954 0.64274
 C141 C 0.86578 0.16043 0.66054
 H142 H 0.83134 0.12073 0.66827
 H143 H 0.83300 0.16709 0.61944
 H144 H 0.87983 0.16744 0.66683
 C145 C 1.35815 0.35828 0.66865
 C146 C 1.34016 0.36701 0.65963
 C147 C 1.33105 0.35802 0.64182
 C148 C 1.34022 0.34013 0.63290
 C149 C 1.35831 0.33086 0.64162
 C150 C 1.36713 0.34036 0.65956
 H151 H 1.33310 0.38076 0.66662
 H152 H 1.33358 0.33415 0.61853
 H153 H 1.38026 0.33321 0.66747
 C154 C 1.35832 0.85895 1.16895
 C155 C 1.36713 0.84088 1.15964
 C156 C 1.35818 0.83166 1.14178
 C157 C 1.34026 0.84066 1.13292
 C158 C 1.33115 0.85857 1.14173
 C159 C 1.34025 0.86761 1.15959
 H160 H 1.38022 0.83299 1.16689
 H161 H 1.33354 0.83389 1.11890
 H162 H 1.33324 0.88171 1.16580
 C163 C 0.85855 0.35907 1.16867
 C164 C 0.84048 0.36775 1.15929
 C165 C 0.83138 0.35871 1.14143
 C166 C 0.84047 0.34078 1.13264
 C167 C 0.85839 0.33177 1.14151
 C168 C 0.86734 0.34100 1.15936
 H169 H 0.83349 0.38185 1.16551
 H170 H 0.83375 0.33401 1.11862
 H171 H 0.88042 0.33310 1.16663
 C172 C 0.85796 0.85809 0.66860
 C173 C 0.84007 0.86700 0.65944
 C174 C 0.83099 0.85810 0.64149
 C175 C 0.84011 0.84014 0.63263
 C176 C 0.85799 0.83101 0.64156
 C177 C 0.86684 0.84016 0.65949
 H178 H 0.83274 0.88044 0.66675
 H179 H 0.83313 0.83312 0.61885
 H180 H 0.88091 0.83347 0.66619
 C181 C 0.64190 0.64175 0.66854
 C182 C 0.65983 0.63295 0.65931
 C183 C 0.66891 0.64199 0.64144
 C184 C 0.65974 0.65997 0.63272
 C185 C 0.64183 0.66901 0.64171
 C186 C 0.63298 0.65974 0.65959
 H187 H 0.66686 0.61915 0.66619
 H188 H 0.66639 0.66676 0.61867
 H189 H 0.61956 0.66699 0.66700
 C190 C 0.64224 1.14248 1.16882
 C191 C 0.66018 1.13359 1.15985
 C192 C 0.66936 1.14238 1.14197
 C193 C 0.66033 1.16027 1.13294
 C194 C 0.64224 1.16968 1.14158
 C195 C 0.63337 1.16037 1.15960
 H196 H 0.66684 1.11953 1.16660
 H197 H 0.66739 1.16648 1.11888
 H198 H 0.62026 1.16765 1.16747
 C199 C 0.14161 0.64190 1.16926
 C200 C 0.13270 0.65985 1.15990
 C201 C 0.14146 0.66931 1.14192
 C202 C 0.15947 0.66005 1.13311
 C203 C 0.16862 0.64217 1.14197
 C204 C 0.15963 0.63323 1.15989
 H205 H 0.11789 0.66556 1.16571
 H206 H 0.16705 0.66703 1.11969
 H207 H 0.16766 0.62020 1.16712
 C208 C 0.14092 1.14075 0.66764
 C209 C 0.13170 1.15861 0.65875
 C210 C 0.14014 1.16818 0.64067
 C211 C 0.15817 1.15906 0.63163
 C212 C 0.16761 1.14122 0.64038
 C213 C 0.15883 1.13216 0.65833
 H214 H 0.11763 1.16468 0.66593
 H215 H 0.16556 1.16613 0.61815
 H216 H 0.16610 1.11847 0.66521
 C217 C 1.35842 0.64141 0.33216
 C218 C 1.34049 0.63262 0.34125
 C219 C 1.33140 0.64158 0.35910
 C220 C 1.34054 0.65949 0.36799
 C221 C 1.35858 0.66881 0.35921
 C222 C 1.36737 0.65935 0.34122
 H223 H 1.33345 0.61886 0.33427
 H224 H 1.33391 0.66545 0.38239
 H225 H 1.38045 0.66654 0.33325
 C226 C 1.35834 1.14198 0.83173
 C227 C 1.34042 1.13320 0.84084
 C228 C 1.33138 1.14213 0.85873
 C229 C 1.34056 1.16001 0.86763
 C230 C 1.35860 1.16933 0.85883
 C231 C 1.36734 1.15988 0.84081
 H232 H 1.33335 1.11946 0.83385
 H233 H 1.33397 1.16596 0.88205
 H234 H 1.38042 1.16707 0.83283
 C235 C 0.85870 0.64112 0.83202
 C236 C 0.84076 0.63230 0.84119
 C237 C 0.83167 0.64128 0.85909
 C238 C 0.84083 0.65921 0.86791
 C239 C 0.85875 0.66828 0.85897
 C240 C 0.86762 0.65907 0.84107
 H241 H 0.83372 0.61853 0.83423
 H242 H 0.83417 0.66595 0.88198
 H243 H 0.88104 0.66634 0.83370
 C244 C 0.85870 1.14132 0.33176
 C245 C 0.84071 1.13239 0.34072
 C246 C 0.83147 1.14120 0.35864
 C247 C 0.84054 1.15907 0.36768
 C248 C 0.85850 1.16825 0.35896
 C249 C 0.86751 1.15921 0.34104
 H250 H 0.83345 1.11900 0.33327
 H251 H 0.83376 1.16570 0.38176
 H252 H 0.88131 1.16626 0.33416
 C253 C 0.64186 0.35785 0.33060
 C254 C 0.63297 0.33985 0.33989
 C255 C 0.64174 0.33033 0.35783
 C256 C 0.65973 0.33959 0.36668
 C257 C 0.66884 0.35752 0.35788
 C258 C 0.65985 0.36651 0.34000
 H259 H 0.61818 0.33415 0.33408
 H260 H 0.66731 0.33257 0.38008
 H261 H 0.66785 0.37958 0.33281
 C262 C 0.64128 0.85887 0.83177
 C263 C 0.63250 0.84094 0.84100
 C264 C 0.64150 0.83190 0.85890
 C265 C 0.65945 0.84108 0.86765
 C266 C 0.66847 0.85900 0.85867
 C267 C 0.65923 0.86782 0.84076
 H268 H 0.61872 0.83388 0.83408
 H269 H 0.66655 0.83412 0.88139
 H270 H 0.66616 0.88157 0.83368
 C271 C 0.14236 0.35805 0.83058
 C272 C 0.13353 0.34009 0.84002
 C273 C 0.14248 0.33094 0.85790
 C274 C 0.16047 0.33993 0.86666
 C275 C 0.16962 0.35774 0.85774
 C276 C 0.16051 0.36670 0.83985
 H277 H 0.12039 0.33220 0.83284
 H278 H 0.16718 0.33322 0.88072
 H279 H 0.16754 0.38073 0.83353
 C280 C 0.14175 0.85835 0.33057
 C281 C 0.13274 0.84037 0.33980
 C282 C 0.14154 0.83100 0.35765
 C283 C 0.15952 0.83979 0.36662
 C284 C 0.16881 0.85766 0.35792
 C285 C 0.15988 0.86681 0.34004
 H286 H 0.11923 0.83297 0.33282
 H287 H 0.16642 0.83258 0.38033
 H288 H 0.16704 0.88084 0.33388
 O289 O 1.07571 1.02076 1.10406
 O290 O 1.10006 1.02084 1.12852
 C291 C 1.08303 1.02794 1.12109
 C292 C 1.07186 1.04508 1.13204
 C293 C 1.07878 1.05230 1.15164
 H294 H 1.09218 1.04500 1.15901
 O295 O 0.92487 0.97972 1.10439
 O296 O 0.90053 0.97975 1.12888
 C297 C 0.91754 0.97259 1.12145
 C298 C 0.92865 0.95546 1.13243
 C299 C 0.92159 0.94826 1.15198
 H300 H 0.90848 0.95593 1.15951
 O301 O 1.02046 1.10459 1.07524
 O302 O 1.02051 1.12912 1.09955
 C303 C 1.02761 1.12166 1.08252
 C304 C 1.04468 1.13261 1.07128
 C305 C 1.05192 1.15219 1.07821
 H306 H 1.04468 1.15956 1.09166
 O307 O 0.97987 0.89581 1.07580
 O308 O 0.97989 0.87138 1.10018
 C309 C 0.97272 0.87878 1.08316
 C310 C 0.95557 0.86782 1.07205
 C311 C 0.94829 0.84831 1.07912
 H312 H 0.95555 0.84101 1.09259
 O313 O 1.10425 1.07578 1.02007
 O314 O 1.12868 1.10015 1.02000
 C315 C 1.12128 1.08315 1.02720
 C316 C 1.13225 1.07209 1.04439
 C317 C 1.15175 1.07918 1.05162
 H318 H 1.15927 1.09230 1.04396
 O319 O 0.89605 0.92447 1.02058
 O320 O 0.87158 0.90014 1.02066
 C321 C 0.87901 0.91718 1.02775
 C322 C 0.86805 0.92840 1.04485
 C323 C 0.84844 0.92152 1.05204
 H324 H 0.84106 0.90812 1.04473
 O325 O 0.97976 1.07592 1.10404
 O326 O 0.97975 1.10032 1.12848
 C327 C 0.97264 1.08326 1.12110
 C328 C 0.95560 1.07208 1.13215
 C329 C 0.94847 1.07906 1.15175
 H330 H 0.95612 1.09219 1.15928
 O331 O 1.02074 0.92454 1.10432
 O332 O 1.02083 0.90025 1.12886
 C333 C 1.02793 0.91726 1.12137
 C334 C 1.04504 0.92849 1.13228
 C335 C 1.05233 0.92156 1.15184
 H336 H 1.04511 0.90811 1.15922
 O337 O 1.10436 0.97990 1.07537
 O338 O 1.12886 0.97993 1.09968
 C339 C 1.12141 0.97276 1.08268
 C340 C 1.13235 0.95561 1.07151
 C341 C 1.15191 0.94839 1.07846
 H342 H 1.15928 0.95571 1.09187
 O343 O 0.89621 1.02053 1.07567
 O344 O 0.87177 1.02060 1.10006
 C345 C 0.87917 1.02769 1.08300
 C346 C 0.86817 1.04478 1.07185
 C347 C 0.84862 1.05196 1.07888
 H348 H 0.84111 1.04432 1.09202
 O349 O 0.92449 1.10433 1.02023
 O350 O 0.90012 1.12878 1.02023
 C351 C 0.91715 1.12139 1.02736
 C352 C 0.92827 1.13241 1.04447
 C353 C 0.92125 1.15197 1.05166
 H354 H 0.90814 1.15950 1.04400
 O355 O 1.07564 0.89577 1.02038
 O356 O 1.10001 0.87133 1.02038
 C357 C 1.08299 0.87874 1.02754
 C358 C 1.07191 0.86778 1.04470
 C359 C 1.07892 0.84821 1.05185
 H360 H 1.09198 0.84064 1.04412
 O361 O 0.92484 1.02057 1.10435
 O362 O 0.90052 1.02063 1.12887
 C363 C 0.91752 1.02776 1.12140
 C364 C 0.92867 1.04491 1.13233
 C365 C 0.92175 1.05212 1.15193
 H366 H 0.90838 1.04479 1.15934
 O367 O 1.07575 0.97990 1.10410
 O368 O 1.10012 0.97994 1.12853
 C369 C 1.08310 0.97278 1.12114
 C370 C 1.07202 0.95563 1.13214
 C371 C 1.07907 0.94849 1.15170
 H372 H 1.09215 0.95621 1.15923
 O373 O 1.02068 0.89574 1.07576
 O374 O 1.02077 0.87131 1.10014
 C375 C 1.02785 0.87871 1.08308
 C376 C 1.04494 0.86773 1.07186
 C377 C 1.05218 0.84816 1.07881
 H378 H 1.04494 0.84082 1.09227
 O379 O 0.97965 1.10456 1.07534
 O380 O 0.97964 1.12909 1.09965
 C381 C 0.97249 1.12161 1.08266
 C382 C 0.95535 1.13254 1.07150
 C383 C 0.94809 1.15210 1.07848
 H384 H 0.95537 1.15947 1.09191
 O385 O 0.89595 1.07557 1.02034
 O386 O 0.87145 1.09988 1.02036
 C387 C 0.87891 1.08288 1.02751
 C388 C 0.86801 1.07175 1.04470
 C389 C 0.84846 1.07873 1.05197
 H390 H 0.84109 1.09214 1.04467
 O391 O 1.10419 0.92454 1.02030
 O392 O 1.12868 0.90021 1.02032
 C393 C 1.12125 0.91725 1.02744
 C394 C 1.13223 0.92844 1.04453
 C395 C 1.15179 0.92147 1.05168
 H396 H 1.15933 0.90834 1.04403
 O397 O 0.97993 0.92447 1.10448
 O398 O 0.97995 0.90019 1.12901
 C399 C 0.97280 0.91719 1.12156
 C400 C 0.95568 0.92838 1.13252
 C401 C 0.94839 0.92139 1.15207
 H402 H 0.95563 0.90793 1.15940
 O403 O 1.02056 1.07596 1.10393
 O404 O 1.02060 1.10035 1.12838
 C405 C 1.02772 1.08331 1.12096
 C406 C 1.04484 1.07218 1.13194
 C407 C 1.05196 1.07916 1.15154
 H408 H 1.04428 1.09225 1.15910
 O409 O 0.89620 0.97970 1.07573
 O410 O 0.87174 0.97973 1.10010
 C411 C 0.87915 0.97258 1.08307
 C412 C 0.86816 0.95547 1.07192
 C413 C 0.84855 0.94839 1.07887
 H414 H 0.84098 0.95612 1.09195
 O415 O 1.10436 1.02075 1.07537
 O416 O 1.12885 1.02083 1.09969
 C417 C 1.12140 1.02793 1.08267
 C418 C 1.13233 1.04507 1.07149
 C419 C 1.15183 1.05239 1.07851
 H420 H 1.15915 1.04517 1.09199
 O421 O 0.92469 0.89579 1.02063
 O422 O 0.90035 0.87132 1.02071
 C423 C 0.91737 0.87876 1.02783
 C424 C 0.92849 0.86783 1.04501
 C425 C 0.92145 0.84832 1.05229
 H426 H 0.90833 0.84077 1.04467
 O427 O 1.07551 1.10437 1.01997
 O428 O 1.09983 1.12886 1.01989
 C429 C 1.08282 1.12145 1.02706
 C430 C 1.07169 1.13247 1.04417
 C431 C 1.07869 1.15205 1.05130
 H432 H 1.09178 1.15958 1.04359
 Cu433 Cu 1.08761 1.00033 1.08729
 Cu434 Cu 1.11692 1.00039 1.11656
 Cu435 Cu 0.91297 1.00012 1.08760
 Cu436 Cu 0.88369 1.00018 1.11693
 Cu437 Cu 1.00010 1.08782 1.08720
 Cu438 Cu 1.00013 1.11718 1.11647
 Cu439 Cu 1.00030 0.91257 1.08765
 Cu440 Cu 1.00037 0.88333 1.11701
 C441 C 1.05476 1.05501 1.12243
 H442 H 1.04952 1.04972 1.10719
 C443 C 1.06893 1.06933 1.16151
 C444 C 0.94582 0.94554 1.12294
 H445 H 0.95116 0.95082 1.10773
 C446 C 0.93134 0.93123 1.16191
 C447 C 1.05455 1.12298 1.05413
 H448 H 1.04925 1.10775 1.04890
 C449 C 1.06893 1.16202 1.06832
 C450 C 0.94568 0.87735 1.05487
 H451 H 0.95102 0.89252 1.04952
 C452 C 0.93123 0.83844 1.06934
 C453 C 1.12277 1.05490 1.05430
 H454 H 1.10760 1.04953 1.04899
 C455 C 1.16167 1.06944 1.06868
 C456 C 0.87767 0.94550 1.05478
 H457 H 0.89293 0.95070 1.04952
 C458 C 0.83857 0.93143 1.06904
 C459 C 0.94572 1.05487 1.12267
 H460 H 0.95095 1.04959 1.10742
 C461 C 0.93156 1.06919 1.16177
 C462 C 1.05488 0.94565 1.12266
 H463 H 1.04955 0.95089 1.10744
 C464 C 1.06934 0.93146 1.16168
 C465 C 1.12274 0.94565 1.05441
 H466 H 1.10751 0.95093 1.04916
 C467 C 1.16175 0.93132 1.06865
 C468 C 0.87763 1.05465 1.05462
 H469 H 0.89284 1.04938 1.04930
 C470 C 0.83865 1.06893 1.06906
 C471 C 0.94546 1.12293 1.05437
 H472 H 0.95077 1.10771 1.04910
 C473 C 0.93105 1.16194 1.06866
 C474 C 1.05479 0.87730 1.05468
 H475 H 1.04948 0.89252 1.04943
 C476 C 1.06917 0.83827 1.06889
 O477 O 1.07569 0.97941 0.89546
 O478 O 1.10002 0.97934 0.87097
 C479 C 1.08301 0.97223 0.87841
 C480 C 1.07185 0.95510 0.86746
 C481 C 1.07883 0.94783 0.84790
 H482 H 1.09227 0.95509 0.84056
 O483 O 0.92439 1.02028 0.89550
 O484 O 0.89999 1.02023 0.87110
 C485 C 0.91701 1.02740 0.87846
 C486 C 0.92810 1.04452 0.86744
 C487 C 0.92099 1.05181 0.84795
 H488 H 0.90750 1.04457 0.84069
 O489 O 0.97955 1.10404 0.92399
 O490 O 0.97951 1.12850 0.89963
 C491 C 0.97240 1.12109 0.91667
 C492 C 0.95530 1.13207 0.92787
 C493 C 0.94805 1.15162 0.92089
 H494 H 0.95530 1.15894 0.90742
 O495 O 1.02049 0.89578 0.92432
 O496 O 1.02050 0.87124 0.90001
 C497 C 1.02763 0.87870 0.91702
 C498 C 1.04474 0.86774 0.92818
 C499 C 1.05189 0.84815 0.92121
 H500 H 1.04421 0.84058 0.90813
 O501 O 1.10422 0.92442 0.97946
 O502 O 1.12871 0.90009 0.97944
 C503 C 1.12127 0.91710 0.97230
 C504 C 1.13224 0.92823 0.95517
 C505 C 1.15184 0.92128 0.94805
 H506 H 1.15942 0.90823 0.95576
 O507 O 0.89581 1.07553 0.97948
 O508 O 0.87130 1.09984 0.97946
 C509 C 0.87874 1.08281 0.97235
 C510 C 0.86776 1.07159 0.95527
 C511 C 0.84818 1.07852 0.94808
 H512 H 0.84082 1.09196 0.95536
 O513 O 1.02034 1.07534 0.89528
 O514 O 1.02035 1.09964 0.87076
 C515 C 1.02749 1.08263 0.87821
 C516 C 1.04461 1.07145 0.86726
 C517 C 1.05183 1.07835 0.84766
 H518 H 1.04453 1.09174 0.84026
 O519 O 0.97967 0.92436 0.89560
 O520 O 0.97963 0.89994 0.87117
 C521 C 0.97251 0.91699 0.87857
 C522 C 0.95538 0.92810 0.86760
 C523 C 0.94820 0.92109 0.84803
 H524 H 0.95586 0.90799 0.84047
 O525 O 1.10431 1.02031 0.92406
 O526 O 1.12879 1.02030 0.89971
 C527 C 1.12136 1.02745 0.91673
 C528 C 1.13230 1.04459 0.92788
 C529 C 1.15186 1.05182 0.92091
 H530 H 1.15923 1.04453 0.90748
 O531 O 0.89596 0.97944 0.92438
 O532 O 0.87144 0.97933 0.90010
 C533 C 0.87892 0.97224 0.91711
 C534 C 0.86801 0.95512 0.92831
 C535 C 0.84845 0.94791 0.92136
 H536 H 0.84088 0.95556 0.90826
 O537 O 1.07558 1.10427 0.97912
 O538 O 1.09988 1.12877 0.97900
 C539 C 1.08287 1.12130 0.97190
 C540 C 1.07170 1.13220 0.95475
 C541 C 1.07864 1.15176 0.94746
 H542 H 1.09207 1.15913 0.95472
 O543 O 0.92473 0.89576 0.97977
 O544 O 0.90040 0.87128 0.97980
 C545 C 0.91741 0.87870 0.97263
 C546 C 0.92853 0.86773 0.95548
 C547 C 0.92158 0.84813 0.94835
 H548 H 0.90854 0.84054 0.95608
 O549 O 0.92449 0.97945 0.89558
 O550 O 0.90010 0.97935 0.87116
 C551 C 0.91715 0.97227 0.87855
 C552 C 0.92832 0.95516 0.86756
 C553 C 0.92134 0.94791 0.84800
 H554 H 0.90790 0.95518 0.84067
 O555 O 1.07557 1.02024 0.89549
 O556 O 1.09991 1.02022 0.87100
 C557 C 1.08288 1.02735 0.87842
 C558 C 1.07172 1.04443 0.86741
 C559 C 1.07869 1.05153 0.84781
 H560 H 1.09178 1.04383 0.84026
 O561 O 0.97969 0.89575 0.92433
 O562 O 0.97966 0.87121 0.90004
 C563 C 0.97255 0.87867 0.91707
 C564 C 0.95550 0.86770 0.92831
 C565 C 0.94831 0.84810 0.92139
 H566 H 0.95556 0.84075 0.90793
 O567 O 1.02037 1.10403 0.92395
 O568 O 1.02037 1.12846 0.89957
 C569 C 1.02751 1.12106 0.91660
 C570 C 1.04463 1.13205 0.92770
 C571 C 1.05179 1.15161 0.92066
 H572 H 1.04410 1.15913 0.90756
 O573 O 0.89600 0.92435 0.97972
 O574 O 0.87154 0.90000 0.97976
 C575 C 0.87896 0.91700 0.97259
 C576 C 0.86798 0.92813 0.95544
 C577 C 0.84843 0.92112 0.94824
 H578 H 0.84110 0.90770 0.95555
 O579 O 1.10419 1.07555 0.97921
 O580 O 1.12862 1.09993 0.97911
 C581 C 1.12122 1.08287 0.97203
 C582 C 1.13220 1.07169 0.95493
 C583 C 1.15176 1.07868 0.94776
 H584 H 1.15930 1.09178 0.95543
 O585 O 1.02049 0.92434 0.89556
 O586 O 1.02050 0.89993 0.87112
 C587 C 1.02764 0.91696 0.87852
 C588 C 1.04478 0.92806 0.86753
 C589 C 1.05197 0.92103 0.84797
 H590 H 1.04430 0.90792 0.84042
 O591 O 0.97952 1.07536 0.89533
 O592 O 0.97947 1.09968 0.87083
 C593 C 0.97234 1.08268 0.87829
 C594 C 0.95516 1.07156 0.86738
 C595 C 0.94785 1.07862 0.84788
 H596 H 0.95547 1.09173 0.84031
 O597 O 0.89587 1.02028 0.92433
 O598 O 0.87134 1.02021 0.90005
 C599 C 0.87879 1.02738 0.91705
 C600 C 0.86782 1.04450 0.92821
 C601 C 0.84823 1.05163 0.92126
 H602 H 0.84067 1.04392 0.90819
 O603 O 1.10428 0.97948 0.92418
 O604 O 1.12876 0.97942 0.89983
 C605 C 1.12133 0.97232 0.91687
 C606 C 1.13230 0.95525 0.92808
 C607 C 1.15190 0.94807 0.92116
 H608 H 1.15925 0.95535 0.90773
 O609 O 1.07559 0.89573 0.97952
 O610 O 1.09995 0.87128 0.97948
 C611 C 1.08292 0.87868 0.97237
 C612 C 1.07176 0.86770 0.95526
 C613 C 1.07871 0.84810 0.94805
 H614 H 1.09213 0.84075 0.95535
 O615 O 0.92454 1.10411 0.97937
 O616 O 0.90017 1.12856 0.97933
 C617 C 0.91719 1.12113 0.97219
 C618 C 0.92829 1.13205 0.95500
 C619 C 0.92128 1.15160 0.94781
 H620 H 0.90821 1.15918 0.95551
 Cu621 Cu 1.08753 0.99986 0.91224
 Cu622 Cu 1.11682 0.99982 0.88292
 Cu623 Cu 0.91263 0.99987 0.91238
 Cu624 Cu 0.88325 0.99977 0.88316
 Cu625 Cu 1.08744 1.08755 0.99960
 Cu626 Cu 1.11670 1.11688 0.99949
 Cu627 Cu 1.08746 0.91255 0.99991
 Cu628 Cu 1.11679 0.88327 0.99991
 Cu629 Cu 0.91264 1.08745 0.99986
 Cu630 Cu 0.88331 1.11672 0.99984
 Cu631 Cu 0.91280 0.91253 1.00017
 Cu632 Cu 0.88352 0.88322 1.00024
 Cu633 Cu 0.99995 1.08725 0.91208
 Cu634 Cu 0.99993 1.11652 0.88274
 Cu635 Cu 1.00008 0.91251 0.91238
 Cu636 Cu 1.00007 0.88312 0.88313
 C637 C 1.05469 0.94523 0.87704
 H638 H 1.04942 0.95055 0.89226
 C639 C 1.06899 0.93080 0.83803
 C640 C 0.94531 1.05438 0.87692
 H641 H 0.95069 1.04905 0.89209
 C642 C 0.93076 1.06886 0.83805
 C643 C 0.94543 1.12252 0.94506
 H644 H 0.95074 1.10730 0.95034
 C645 C 0.93105 1.16150 0.93076
 C646 C 1.05465 0.87728 0.94533
 H647 H 1.04939 0.89252 0.95060
 C648 C 1.06887 0.83821 0.93103
 C649 C 1.12270 0.94535 0.94521
 H650 H 1.10746 0.95061 0.95044
 C651 C 1.16179 0.93109 0.93105
 C652 C 0.87735 1.05445 0.94535
 H653 H 0.89259 1.04922 0.95061
 C654 C 0.83829 1.06864 0.93108
 C655 C 1.05455 1.05436 0.87691
 H656 H 1.04927 1.04914 0.89216
 C657 C 1.06886 1.06848 0.83782
 C658 C 0.94547 0.94527 0.87713
 H659 H 0.95074 0.95058 0.89235
 C660 C 0.93118 0.93089 0.83811
 C661 C 1.12270 1.05451 0.94502
 H662 H 1.10748 1.04922 0.95029
 C663 C 1.16170 1.06886 0.93075
 C664 C 0.87754 0.94525 0.94549
 H665 H 0.89276 0.95055 0.95076
 C666 C 0.83854 0.93091 0.93119
 C667 C 1.05456 1.12258 0.94488
 H668 H 1.04931 1.10737 0.95022
 C669 C 1.06879 1.16158 0.93042
 C670 C 0.94562 0.87728 0.94548
 H671 H 0.95089 0.89253 0.95072
 C672 C 0.93136 0.83819 0.93131
 O673 O 1.07542 0.52004 0.60446
 O674 O 1.09977 0.52004 0.62892
 C675 C 1.08276 0.52720 0.62150
 C676 C 1.07166 0.54436 0.63247
 C677 C 1.07867 0.55155 0.65203
 H678 H 1.09175 0.54385 0.65959
 O679 O 0.92422 0.47948 0.60437
 O680 O 0.89983 0.47957 0.62882
 C681 C 0.91684 0.47237 0.62142
 C682 C 0.92794 0.45524 0.63242
 C683 C 0.92088 0.44800 0.65196
 H684 H 0.90741 0.45528 0.65925
 O685 O 1.02045 0.60386 0.57573
 O686 O 1.02046 0.62840 0.60004
 C687 C 1.02759 0.62093 0.58302
 C688 C 1.04469 0.63189 0.57183
 C689 C 1.05186 0.65147 0.57879
 H690 H 1.04420 0.65904 0.59190
 O691 O 0.97925 0.39567 0.57580
 O692 O 0.97912 0.37117 0.60012
 C693 C 0.97202 0.37865 0.58310
 C694 C 0.95486 0.36777 0.57192
 C695 C 0.94750 0.34826 0.57894
 H696 H 0.95472 0.34091 0.59240
 O697 O 1.10408 0.57514 0.52050
 O698 O 1.12858 0.59945 0.52055
 C699 C 1.12112 0.58244 0.52767
 C700 C 1.13205 0.57131 0.54483
 C701 C 1.15159 0.57830 0.55202
 H702 H 1.15916 0.59139 0.54433
 O703 O 0.89541 0.42456 0.52036
 O704 O 0.87093 0.40024 0.52035
 C705 C 0.87835 0.41726 0.52749
 C706 C 0.86738 0.42845 0.54461
 C707 C 0.84780 0.42153 0.55184
 H708 H 0.84042 0.40812 0.54453
 O709 O 0.97962 0.57533 0.60447
 O710 O 0.97959 0.59972 0.62893
 C711 C 0.97246 0.58269 0.62151
 C712 C 0.95534 0.57155 0.63249
 C713 C 0.94815 0.57851 0.65209
 H714 H 0.95547 0.59191 0.65946
 O715 O 1.02016 0.42414 0.60452
 O716 O 1.02011 0.39978 0.62898
 C717 C 1.02730 0.41678 0.62156
 C718 C 1.04448 0.42787 0.63251
 C719 C 1.05179 0.42080 0.65201
 H720 H 1.04453 0.40734 0.65933
 O721 O 1.10405 0.47918 0.57577
 O722 O 1.12853 0.47915 0.60009
 C723 C 1.12109 0.47202 0.58307
 C724 C 1.13203 0.45489 0.57189
 C725 C 1.15160 0.44768 0.57884
 H726 H 1.15896 0.45498 0.59226
 O727 O 0.89581 0.52041 0.57561
 O728 O 0.87127 0.52056 0.59991
 C729 C 0.87877 0.52763 0.58289
 C730 C 0.86788 0.54475 0.57165
 C731 C 0.84832 0.55205 0.57857
 H732 H 0.84094 0.54484 0.59202
 O733 O 0.92476 0.60404 0.52020
 O734 O 0.90047 0.62857 0.52017
 C735 C 0.91745 0.62110 0.52735
 C736 C 0.92856 0.63204 0.54453
 C737 C 0.92157 0.65162 0.55175
 H738 H 0.90818 0.65898 0.54441
 O739 O 1.07521 0.39538 0.52056
 O740 O 1.09950 0.37085 0.52064
 C741 C 1.08248 0.37832 0.52773
 C742 C 1.07128 0.36737 0.54483
 C743 C 1.07813 0.34773 0.55192
 H744 H 1.09117 0.34011 0.54419
 O745 O 0.92438 0.52031 0.60435
 O746 O 0.89998 0.52045 0.62879
 C747 C 0.91704 0.52750 0.62139
 C748 C 0.92823 0.54457 0.63240
 C749 C 0.92127 0.55173 0.65200
 H750 H 0.90817 0.54407 0.65956
 O751 O 1.07538 0.47920 0.60444
 O752 O 1.09973 0.47915 0.62889
 C753 C 1.08271 0.47203 0.62147
 C754 C 1.07159 0.45488 0.63243
 C755 C 1.07865 0.44761 0.65193
 H756 H 1.09179 0.45522 0.65946
 O757 O 1.02006 0.39550 0.57581
 O758 O 1.01999 0.37099 0.60012
 C759 C 1.02715 0.37841 0.58310
 C760 C 1.04420 0.36738 0.57189
 C761 C 1.05130 0.34774 0.57877
 H762 H 1.04397 0.34038 0.59218
 O763 O 0.97966 0.60388 0.57569
 O764 O 0.97961 0.62841 0.60001
 C765 C 0.97251 0.62095 0.58297
 C766 C 0.95544 0.63193 0.57176
 C767 C 0.94824 0.65150 0.57874
 H768 H 0.95584 0.65905 0.59189
 O769 O 0.89609 0.57540 0.52019
 O770 O 0.87168 0.59980 0.52016
 C771 C 0.87906 0.58278 0.52733
 C772 C 0.86805 0.57171 0.54448
 C773 C 0.84849 0.57877 0.55161
 H774 H 0.84097 0.59185 0.54388
 O775 O 1.10395 0.42395 0.52058
 O776 O 1.12837 0.39955 0.52067
 C777 C 1.12097 0.41660 0.52776
 C778 C 1.13194 0.42777 0.54487
 C779 C 1.15151 0.42079 0.55202
 H780 H 1.15906 0.40768 0.54435
 O781 O 0.97933 0.42431 0.60449
 O782 O 0.97922 0.39995 0.62895
 C783 C 0.97213 0.41699 0.62152
 C784 C 0.95498 0.42816 0.63246
 C785 C 0.94772 0.42116 0.65199
 H786 H 0.95535 0.40806 0.65957
 O787 O 1.02043 0.57531 0.60450
 O788 O 1.02045 0.59970 0.62895
 C789 C 1.02757 0.58266 0.62154
 C790 C 1.04467 0.57149 0.63253
 C791 C 1.05192 0.57848 0.65209
 H792 H 1.04468 0.59195 0.65943
 O793 O 0.89564 0.47958 0.57563
 O794 O 0.87112 0.47968 0.59994
 C795 C 0.87855 0.47252 0.58292
 C796 C 0.86753 0.45545 0.57174
 C797 C 0.84794 0.44834 0.57873
 H798 H 0.84041 0.45603 0.59184
 O799 O 1.10407 0.52001 0.57577
 O800 O 1.12855 0.52002 0.60010
 C801 C 1.12112 0.52716 0.58308
 C802 C 1.13209 0.54427 0.57191
 C803 C 1.15164 0.55151 0.57889
 H804 H 1.15897 0.54425 0.59235
 O805 O 0.92412 0.39593 0.52050
 O806 O 0.89975 0.37148 0.52049
 C807 C 0.91676 0.37890 0.52766
 C808 C 0.92782 0.36793 0.54484
 C809 C 0.92071 0.34842 0.55207
 H810 H 0.90758 0.34092 0.54440
 O811 O 1.07550 0.60389 0.52042
 O812 O 1.09988 0.62832 0.52047
 C813 C 1.08284 0.62093 0.52758
 C814 C 1.07168 0.63192 0.54470
 C815 C 1.07865 0.65151 0.55190
 H816 H 1.09206 0.65885 0.54459
 Cu817 Cu 1.08729 0.49961 0.58767
 Cu818 Cu 1.11660 0.49959 0.61696
 Cu819 Cu 0.91246 0.49993 0.58756
 Cu820 Cu 0.88309 0.50008 0.61681
 Cu821 Cu 1.00004 0.58714 0.58767
 Cu822 Cu 1.00002 0.61652 0.61693
 Cu823 Cu 0.99972 0.41235 0.58772
 Cu824 Cu 0.99960 0.38302 0.61700
 C825 C 1.05453 0.55430 0.62296
 H826 H 1.04922 0.54902 0.60774
 C827 C 1.06893 0.56861 0.66196
 C828 C 0.94512 0.44533 0.62291
 H829 H 0.95046 0.45062 0.60771
 C830 C 0.93067 0.43097 0.66187
 C831 C 1.05457 0.62235 0.55465
 H832 H 1.04931 0.60711 0.54938
 C833 C 1.06883 0.66140 0.56894
 C834 C 0.94503 0.37737 0.55475
 H835 H 0.95041 0.39254 0.54944
 C836 C 0.93043 0.33847 0.56911
 C837 C 1.12252 0.55415 0.55475
 H838 H 1.10732 0.54886 0.54946
 C839 C 1.16150 0.56853 0.56905
 C840 C 0.87701 0.44554 0.55455
 H841 H 0.89224 0.45076 0.54927
 C842 C 0.83796 0.43138 0.56890
 C843 C 0.94540 0.55446 0.62288
 H844 H 0.95066 0.54920 0.60763
 C845 C 0.93113 0.56869 0.66196
 C846 C 1.05437 0.44504 0.62295
 H847 H 1.04901 0.45038 0.60778
 C848 C 1.06888 0.43057 0.66184
 C849 C 1.12244 0.44495 0.55478
 H850 H 1.10721 0.45023 0.54953
 C851 C 1.16146 0.43063 0.56900
 C852 C 0.87751 0.55457 0.55448
 H853 H 0.89273 0.54923 0.54925
 C854 C 0.83851 0.56906 0.56865
 C855 C 0.94562 0.62243 0.55452
 H856 H 0.95091 0.60721 0.54923
 C857 C 0.93131 0.66147 0.56885
 C858 C 1.05418 0.37697 0.55479
 H859 H 1.04899 0.39225 0.54958
 C860 C 1.06826 0.33779 0.56888
 O861 O 1.07579 0.47899 0.39576
 O862 O 1.10020 0.47887 0.37134
 C863 C 1.08315 0.47179 0.37874
 C864 C 1.07198 0.45467 0.36777
 C865 C 1.07896 0.44742 0.34820
 H866 H 1.09242 0.45467 0.34087
 O867 O 0.92467 0.52011 0.39536
 O868 O 0.90039 0.52018 0.37084
 C869 C 0.91740 0.52728 0.37830
 C870 C 0.92863 0.54438 0.36735
 C871 C 0.92168 0.55164 0.34778
 H872 H 0.90822 0.54441 0.34044
 O873 O 0.98001 0.60388 0.42406
 O874 O 0.98005 0.62834 0.39971
 C875 C 0.97288 0.62093 0.41673
 C876 C 0.95576 0.63192 0.42789
 C877 C 0.94851 0.65145 0.42086
 H878 H 0.95577 0.65875 0.40738
 O879 O 1.02040 0.39531 0.42445
 O880 O 1.02039 0.37078 0.40014
 C881 C 1.02751 0.37822 0.41716
 C882 C 1.04461 0.36724 0.42832
 C883 C 1.05183 0.34769 0.42130
 H884 H 1.04422 0.34015 0.40816
 O885 O 1.10402 0.42392 0.47973
 O886 O 1.12845 0.39952 0.47980
 C887 C 1.12107 0.41655 0.47264
 C888 C 1.13212 0.42766 0.45554
 C889 C 1.15173 0.42067 0.44848
 H890 H 1.15925 0.40759 0.45621
 O891 O 0.89611 0.57538 0.47932
 O892 O 0.87168 0.59977 0.47927
 C893 C 0.87909 0.58273 0.47215
 C894 C 0.86812 0.57157 0.45502
 C895 C 0.84858 0.57858 0.44778
 H896 H 0.84126 0.59204 0.45507
 O897 O 1.02085 0.57514 0.39546
 O898 O 1.02096 0.59945 0.37095
 C899 C 1.02805 0.58243 0.37841
 C900 C 1.04518 0.57121 0.36749
 C901 C 1.05248 0.57813 0.34793
 H902 H 1.04526 0.59158 0.34055
 O903 O 0.97972 0.42406 0.39567
 O904 O 0.97968 0.39964 0.37125
 C905 C 0.97259 0.41671 0.37862
 C906 C 0.95555 0.42788 0.36758
 C907 C 0.94848 0.42092 0.34796
 H908 H 0.95618 0.40782 0.34041
 O909 O 1.10439 0.51983 0.42446
 O910 O 1.12895 0.51978 0.40019
 C911 C 1.12146 0.52695 0.41719
 C912 C 1.13239 0.54408 0.42838
 C913 C 1.15196 0.55131 0.42144
 H914 H 1.15934 0.54402 0.40802
 O915 O 0.89586 0.47932 0.42397
 O916 O 0.87145 0.47934 0.39958
 C917 C 0.87882 0.47220 0.41662
 C918 C 0.86781 0.45509 0.42778
 C919 C 0.84834 0.44774 0.42067
 H920 H 0.84111 0.45492 0.40712
 O921 O 1.07562 0.60386 0.47955
 O922 O 1.10001 0.62828 0.47958
 C923 C 1.08301 0.62088 0.47240
 C924 C 1.07197 0.63185 0.45521
 C925 C 1.07900 0.65140 0.44804
 H926 H 1.09205 0.65897 0.45577
 O927 O 0.92427 0.39586 0.47964
 O928 O 0.89993 0.37139 0.47961
 C929 C 0.91697 0.37879 0.47250
 C930 C 0.92815 0.36776 0.45542
 C931 C 0.92119 0.34816 0.44832
 H932 H 0.90810 0.34063 0.45601
 O933 O 0.92465 0.47927 0.39542
 O934 O 0.90038 0.47928 0.37088
 C935 C 0.91737 0.47213 0.37835
 C936 C 0.92855 0.45499 0.36741
 C937 C 0.92168 0.44779 0.34779
 H938 H 0.90831 0.45511 0.34038
 O939 O 1.07584 0.51983 0.39570
 O940 O 1.10027 0.51977 0.37129
 C941 C 1.08324 0.52694 0.37866
 C942 C 1.07217 0.54408 0.36764
 C943 C 1.07924 0.55121 0.34808
 H944 H 1.09233 0.54349 0.34056
 O945 O 0.97958 0.39552 0.42447
 O946 O 0.97953 0.37097 0.40018
 C947 C 0.97240 0.37847 0.41719
 C948 C 0.95526 0.36758 0.42839
 C949 C 0.94804 0.34798 0.42149
 H950 H 0.95535 0.34056 0.40809
 O951 O 1.02082 0.60386 0.42411
 O952 O 1.02091 0.62831 0.39974
 C953 C 1.02799 0.62090 0.41679
 C954 C 1.04506 0.63187 0.42801
 C955 C 1.05232 0.65143 0.42105
 H956 H 1.04511 0.65875 0.40757
 O957 O 0.89559 0.42450 0.47947
 O958 O 0.87113 0.40015 0.47943
 C959 C 0.87859 0.41714 0.47226
 C960 C 0.86772 0.42818 0.45499
 C961 C 0.84826 0.42107 0.44767
 H962 H 0.84069 0.40798 0.45534
 O963 O 1.10416 0.57508 0.47964
 O964 O 1.12867 0.59938 0.47967
 C965 C 1.12124 0.58236 0.47253
 C966 C 1.13224 0.57118 0.45543
 C967 C 1.15181 0.57817 0.44829
 H968 H 1.15934 0.59127 0.45597
 O969 O 1.02054 0.42396 0.39578
 O970 O 1.02054 0.39956 0.37135
 C971 C 1.02771 0.41658 0.37876
 C972 C 1.04489 0.42765 0.36780
 C973 C 1.05208 0.42063 0.34823
 H974 H 1.04440 0.40755 0.34066
 O975 O 0.98002 0.57515 0.39544
 O976 O 0.98007 0.59947 0.37094
 C977 C 0.97290 0.58247 0.37838
 C978 C 0.95575 0.57136 0.36741
 C979 C 0.94860 0.57838 0.34785
 H980 H 0.95631 0.59146 0.34029
 O981 O 0.89608 0.52016 0.42411
 O982 O 0.87165 0.52024 0.39972
 C983 C 0.87907 0.52735 0.41677
 C984 C 0.86814 0.54451 0.42792
 C985 C 0.84860 0.55174 0.42093
 H986 H 0.84104 0.54408 0.40782
 O987 O 1.10437 0.47900 0.42449
 O988 O 1.12892 0.47889 0.40022
 C989 C 1.12143 0.47181 0.41723
 C990 C 1.13233 0.45470 0.42847
 C991 C 1.15194 0.44747 0.42161
 H992 H 1.15935 0.45475 0.40820
 O993 O 1.07539 0.39523 0.47970
 O994 O 1.09969 0.37072 0.47976
 C995 C 1.08271 0.37816 0.47258
 C996 C 1.07159 0.36719 0.45544
 C997 C 1.07861 0.34764 0.44818
 H998 H 1.09205 0.34032 0.45547
 O999 O 0.92486 0.60396 0.47932
 O1000 O 0.90056 0.62847 0.47926
 C1001 C 0.91757 0.62100 0.47214
 C1002 C 0.92871 0.63193 0.45497
 C1003 C 0.92170 0.65146 0.44773
 H1004 H 0.90860 0.65903 0.45539
 Cu1005 Cu 1.08765 0.49942 0.41254
 Cu1006 Cu 1.11704 0.49932 0.38331
 Cu1007 Cu 0.91275 0.49971 0.41216
 Cu1008 Cu 0.88352 0.49977 0.38280
 Cu1009 Cu 1.08739 0.58706 0.50002
 Cu1010 Cu 1.11674 0.61630 0.50007
 Cu1011 Cu 1.08720 0.41206 0.50013
 Cu1012 Cu 1.11645 0.38270 0.50023
 Cu1013 Cu 0.91289 0.58725 0.49976
 Cu1014 Cu 0.88365 0.61661 0.49971
 Cu1015 Cu 0.91227 0.41266 0.50000
 Cu1016 Cu 0.88298 0.38337 0.49996
 Cu1017 Cu 1.00043 0.58707 0.41221
 Cu1018 Cu 1.00050 0.61634 0.38287
 Cu1019 Cu 1.00007 0.41216 0.41253
 Cu1020 Cu 1.00002 0.38277 0.38328
 C1021 C 1.05481 0.44480 0.37733
 H1022 H 1.04953 0.45012 0.39255
 C1023 C 1.06911 0.43041 0.33831
 C1024 C 0.94579 0.55423 0.37693
 H1025 H 0.95105 0.54891 0.39215
 C1026 C 0.93156 0.56865 0.33791
 C1027 C 0.94588 0.62239 0.44507
 H1028 H 0.95119 0.60719 0.45039
 C1029 C 0.93148 0.66134 0.43067
 C1030 C 1.05446 0.37675 0.44553
 H1031 H 1.04915 0.39196 0.45084
 C1032 C 1.06884 0.33778 0.43112
 C1033 C 1.12266 0.44481 0.44556
 H1034 H 1.10741 0.45010 0.45075
 C1035 C 1.16176 0.43047 0.43152
 C1036 C 0.87766 0.55441 0.44510
 H1037 H 0.89287 0.54910 0.45040
 C1038 C 0.83870 0.56877 0.43074
 C1039 C 1.05501 0.55406 0.37711
 H1040 H 1.04966 0.54882 0.39233
 C1041 C 1.06951 0.56823 0.33810
 C1042 C 0.94561 0.44505 0.37707
 H1043 H 0.95080 0.45031 0.39234
 C1044 C 0.93156 0.43076 0.33794
 C1045 C 1.12276 0.55401 0.44550
 H1046 H 1.10753 0.54872 0.45074
 C1047 C 1.16178 0.56836 0.43130
 C1048 C 0.87726 0.44532 0.44507
 H1049 H 0.89240 0.45070 0.45045
 C1050 C 0.83845 0.43073 0.43050
 C1051 C 1.05487 0.62232 0.44522
 H1052 H 1.04954 0.60711 0.45048
 C1053 C 1.06929 0.66132 0.43097
 C1054 C 0.94532 0.37724 0.44548
 H1055 H 0.95060 0.39249 0.45070
 C1056 C 0.93102 0.33815 0.43136
 O1057 O 0.47950 0.92400 0.39598
 O1058 O 0.47950 0.89955 0.37159
 C1059 C 0.47237 0.91661 0.37895
 C1060 C 0.45529 0.92773 0.36791
 C1061 C 0.44824 0.92075 0.34829
 H1062 H 0.45597 0.90766 0.34075
 O1063 O 0.52029 1.07534 0.39524
 O1064 O 0.52033 1.09960 0.37069
 C1065 C 0.52746 1.08260 0.37817
 C1066 C 0.54460 1.07141 0.36725
 C1067 C 0.55191 1.07839 0.34772
 H1068 H 0.54466 1.09184 0.34036
 O1069 O 0.39559 0.97927 0.42425
 O1070 O 0.37117 0.97915 0.39987
 C1071 C 0.37857 0.97208 0.41693
 C1072 C 0.36760 0.95499 0.42813
 C1073 C 0.34810 0.94763 0.42110
 H1074 H 0.34081 0.95480 0.40758
 O1075 O 0.60405 1.02021 0.42421
 O1076 O 0.62854 1.02011 0.39987
 C1077 C 0.62112 1.02730 0.41688
 C1078 C 0.63211 1.04441 0.42804
 C1079 C 0.65168 1.05158 0.42106
 H1080 H 0.65901 1.04427 0.40762
 O1081 O 0.42424 0.89580 0.47988
 O1082 O 0.39992 0.87132 0.47997
 C1083 C 0.41693 0.87871 0.47281
 C1084 C 0.42810 0.86766 0.45572
 C1085 C 0.42112 0.84806 0.44861
 H1086 H 0.40801 0.84054 0.45629
 O1087 O 0.57539 1.10402 0.47918
 O1088 O 0.59972 1.12850 0.47911
 C1089 C 0.58272 1.12104 0.47197
 C1090 C 0.57163 1.13196 0.45478
 C1091 C 0.57868 1.15148 0.44755
 H1092 H 0.59177 1.15903 0.45523
 O1093 O 0.42434 1.02003 0.39555
 O1094 O 0.40004 1.01996 0.37105
 C1095 C 0.41704 1.02713 0.37848
 C1096 C 0.42815 1.04426 0.36747
 C1097 C 0.42111 1.05140 0.34791
 H1098 H 0.40802 1.04370 0.34039
 O1099 O 0.57533 0.97931 0.39572
 O1100 O 0.59968 0.97916 0.37123
 C1101 C 0.58266 0.97208 0.37870
 C1102 C 0.57151 0.95490 0.36780
 C1103 C 0.57844 0.94770 0.34822
 H1104 H 0.59149 0.95539 0.34059
 O1105 O 0.52031 0.89545 0.42475
 O1106 O 0.52037 0.87087 0.40049
 C1107 C 0.52748 0.87838 0.41748
 C1108 C 0.54462 0.86750 0.42868
 C1109 C 0.55194 0.84795 0.42173
 H1110 H 0.54472 0.84056 0.40828
 O1111 O 0.47947 1.10414 0.42382
 O1112 O 0.47947 1.12854 0.39940
 C1113 C 0.47233 1.12117 0.41645
 C1114 C 0.45520 1.13217 0.42757
 C1115 C 0.44795 1.15170 0.42051
 H1116 H 0.45523 1.15898 0.40704
 O1117 O 0.39564 1.07559 0.47912
 O1118 O 0.37117 1.09994 0.47900
 C1119 C 0.37860 1.08288 0.47194
 C1120 C 0.36763 1.07163 0.45487
 C1121 C 0.34808 1.07858 0.44761
 H1122 H 0.34075 1.09206 0.45484
 O1123 O 0.60400 0.92458 0.47984
 O1124 O 0.62847 0.90023 0.47994
 C1125 C 0.62105 0.91722 0.47272
 C1126 C 0.63201 0.92825 0.45551
 C1127 C 0.65155 0.92119 0.44835
 H1128 H 0.65911 0.90814 0.45609
 O1129 O 0.47946 1.07531 0.39530
 O1130 O 0.47944 1.09956 0.37074
 C1131 C 0.47231 1.08257 0.37823
 C1132 C 0.45518 1.07136 0.36732
 C1133 C 0.44788 1.07830 0.34776
 H1134 H 0.45512 1.09174 0.34038
 O1135 O 0.52030 0.92400 0.39597
 O1136 O 0.52035 0.89956 0.37157
 C1137 C 0.52745 0.91662 0.37893
 C1138 C 0.54452 0.92779 0.36790
 C1139 C 0.55169 0.92079 0.34830
 H1140 H 0.54441 0.90733 0.34100
 O1141 O 0.60405 0.97939 0.42431
 O1142 O 0.62853 0.97924 0.39996
 C1143 C 0.62109 0.97219 0.41702
 C1144 C 0.63205 0.95513 0.42828
 C1145 C 0.65160 0.94784 0.42132
 H1146 H 0.65893 0.95502 0.40782
 O1147 O 0.39566 1.02011 0.42420
 O1148 O 0.37122 1.02004 0.39982
 C1149 C 0.37863 1.02724 0.41683
 C1150 C 0.36767 1.04443 0.42791
 C1151 C 0.34812 1.05160 0.42089
 H1152 H 0.34055 1.04386 0.40783
 O1153 O 0.42429 1.10427 0.47901
 O1154 O 0.39994 1.12874 0.47890
 C1155 C 0.41696 1.12129 0.47179
 C1156 C 0.42810 1.13220 0.45462
 C1157 C 0.42109 1.15173 0.44734
 H1158 H 0.40797 1.15930 0.45497
 O1159 O 0.57540 0.89586 0.47993
 O1160 O 0.59976 0.87140 0.48004
 C1161 C 0.58275 0.87878 0.47286
 C1162 C 0.57166 0.86772 0.45575
 C1163 C 0.57875 0.84818 0.44858
 H1164 H 0.59188 0.84069 0.45626
 O1165 O 0.57544 1.02016 0.39550
 O1166 O 0.59980 1.02006 0.37103
 C1167 C 0.58279 1.02725 0.37843
 C1168 C 0.57168 1.04437 0.36740
 C1169 C 0.57876 1.05156 0.34786
 H1170 H 0.59190 1.04392 0.34035
 O1171 O 0.42434 0.97918 0.39566
 O1172 O 0.40006 0.97907 0.37113
 C1173 C 0.41706 0.97197 0.37861
 C1174 C 0.42827 0.95482 0.36770
 C1175 C 0.42142 0.94760 0.34809
 H1176 H 0.40804 0.95490 0.34066
 O1177 O 0.52029 1.10405 0.42388
 O1178 O 0.52036 1.12845 0.39947
 C1179 C 0.52748 1.12106 0.41652
 C1180 C 0.54462 1.13201 0.42767
 C1181 C 0.55192 1.15154 0.42065
 H1182 H 0.54468 1.15886 0.40718
 O1183 O 0.47948 0.89545 0.42475
 O1184 O 0.47949 0.87086 0.40050
 C1185 C 0.47234 0.87837 0.41750
 C1186 C 0.45521 0.86746 0.42870
 C1187 C 0.44800 0.84787 0.42180
 H1188 H 0.45530 0.84046 0.40839
 O1189 O 0.60408 1.07539 0.47936
 O1190 O 0.62854 1.09974 0.47928
 C1191 C 0.62113 1.08269 0.47220
 C1192 C 0.63210 1.07150 0.45509
 C1193 C 0.65167 1.07844 0.44791
 H1194 H 0.65925 1.09153 0.45557
 O1195 O 0.39557 0.92445 0.47973
 O1196 O 0.37112 0.90009 0.47981
 C1197 C 0.37855 0.91707 0.47258
 C1198 C 0.36762 0.92809 0.45535
 C1199 C 0.34813 0.92097 0.44812
 H1200 H 0.34059 0.90790 0.45583
 Cu1201 Cu 0.49990 0.91217 0.41280
 Cu1202 Cu 0.49993 0.88274 0.38360
 Cu1203 Cu 0.49987 1.08728 0.41201
 Cu1204 Cu 0.49990 1.11648 0.38261
 Cu1205 Cu 0.41241 0.99965 0.41236
 Cu1206 Cu 0.38318 0.99955 0.38301
 Cu1207 Cu 0.58728 0.99979 0.41237
 Cu1208 Cu 0.61658 0.99963 0.38306
 C1209 C 0.44533 0.94490 0.37738
 H1210 H 0.45051 0.95019 0.39264
 C1211 C 0.43132 0.93057 0.33825
 C1212 C 0.55447 1.05427 0.37686
 H1213 H 0.54911 1.04899 0.39206
 C1214 C 0.56898 1.06857 0.33790
 C1215 C 0.37712 0.94522 0.44538
 H1216 H 0.39228 0.95061 0.45070
 C1217 C 0.33825 0.93062 0.43099
 C1218 C 0.62255 1.05435 0.44518
 H1219 H 0.60732 1.04910 0.45045
 C1220 C 0.66159 1.06859 0.43090
 C1221 C 0.44528 0.87712 0.44579
 H1222 H 0.45056 0.89237 0.45101
 C1223 C 0.43096 0.83804 0.43165
 C1224 C 0.55447 1.12245 0.44486
 H1225 H 0.54913 1.10727 0.45017
 C1226 C 0.56895 1.16139 0.43049
 C1227 C 0.44532 1.05421 0.37694
 H1228 H 0.45065 1.04896 0.39216
 C1229 C 0.43085 1.06842 0.33794
 C1230 C 0.55441 0.94497 0.37741
 H1231 H 0.54917 0.95026 0.39266
 C1232 C 0.56865 0.93065 0.33835
 C1233 C 0.55446 0.87715 0.44582
 H1234 H 0.54910 0.89235 0.45108
 C1235 C 0.56901 0.83817 0.43157
 C1236 C 0.44529 1.12266 0.44476
 H1237 H 0.45060 1.10747 0.45010
 C1238 C 0.43090 1.16160 0.43029
 C1239 C 0.37719 1.05443 0.44503
 H1240 H 0.39241 1.04917 0.45034
 C1241 C 0.33820 1.06866 0.43063
 C1242 C 0.62249 0.94535 0.44550
 H1243 H 0.60728 0.95069 0.45077
 C1244 C 0.66147 0.93087 0.43125
 O1245 O 0.52008 0.92494 0.60457
 O1246 O 0.52006 0.90067 0.62911
 C1247 C 0.52720 0.91767 0.62165
 C1248 C 0.54432 0.92882 0.63261
 C1249 C 0.55149 0.92185 0.65219
 H1250 H 0.54381 0.90876 0.65976
 O1251 O 0.47926 1.07599 0.60401
 O1252 O 0.47923 1.10049 0.62836
 C1253 C 0.47211 1.08342 0.62102
 C1254 C 0.45500 1.07235 0.63206
 C1255 C 0.44788 1.07939 0.65164
 H1256 H 0.45560 1.09248 0.65916
 O1257 O 0.39550 1.02091 0.57554
 O1258 O 0.37098 1.02105 0.59985
 C1259 C 0.37845 1.02811 0.58280
 C1260 C 0.36751 1.04517 0.57153
 C1261 C 0.34792 1.05242 0.57841
 H1262 H 0.34055 1.04521 0.59187
 O1263 O 0.60395 0.97997 0.57593
 O1264 O 0.62840 0.98002 0.60029
 C1265 C 0.62099 0.97284 0.58328
 C1266 C 0.63195 0.95569 0.57213
 C1267 C 0.65149 0.94843 0.57915
 H1268 H 0.65880 0.95570 0.59261
 O1269 O 0.57531 0.89608 0.52079
 O1270 O 0.59966 0.87162 0.52092
 C1271 C 0.58263 0.87906 0.52801
 C1272 C 0.57149 0.86815 0.54518
 C1273 C 0.57849 0.84862 0.55243
 H1274 H 0.59160 0.84105 0.54479
 O1275 O 0.42428 1.10441 0.51987
 O1276 O 0.39994 1.12889 0.51981
 C1277 C 0.41694 1.12148 0.52698
 C1278 C 0.42805 1.13249 0.54411
 C1279 C 0.42106 1.15208 0.55126
 H1280 H 0.40798 1.15963 0.54356
 O1281 O 0.42406 0.98014 0.60437
 O1282 O 0.39969 0.98021 0.62883
 C1283 C 0.41671 0.97304 0.62143
 C1284 C 0.42785 0.95593 0.63244
 C1285 C 0.42081 0.94870 0.65199
 H1286 H 0.40735 0.95597 0.65930
 O1287 O 0.57527 1.02090 0.60446
 O1288 O 0.59956 1.02102 0.62898
 C1289 C 0.58256 1.02813 0.62150
 C1290 C 0.57137 1.04530 0.63238
 C1291 C 0.57827 1.05262 0.65194
 H1292 H 0.59169 1.04537 0.65935
 O1293 O 0.47930 0.89614 0.57596
 O1294 O 0.47926 0.87174 0.60038
 C1295 C 0.47215 0.87911 0.58333
 C1296 C 0.45505 0.86811 0.57218
 C1297 C 0.44783 0.84856 0.57921
 H1298 H 0.45511 0.84126 0.59267
 O1299 O 0.52009 1.10445 0.57517
 O1300 O 0.52009 1.12906 0.59940
 C1301 C 0.52723 1.12154 0.58241
 C1302 C 0.54435 1.13245 0.57122
 C1303 C 0.55151 1.15204 0.57815
 H1304 H 0.54383 1.15965 0.59122
 O1305 O 0.39552 0.92467 0.52059
 O1306 O 0.37105 0.90033 0.52071
 C1307 C 0.37847 0.91739 0.52777
 C1308 C 0.36748 0.92865 0.54483
 C1309 C 0.34788 0.92176 0.55202
 H1310 H 0.34053 0.90831 0.54476
 O1311 O 0.60400 1.07558 0.52024
 O1312 O 0.62844 1.09994 0.52019
 C1313 C 0.62102 1.08296 0.52739
 C1314 C 0.63194 1.07193 0.54463
 C1315 C 0.65147 1.07899 0.55184
 H1316 H 0.65903 1.09205 0.54412
 O1317 O 0.52008 1.07601 0.60406
 O1318 O 0.52007 1.10051 0.62841
 C1319 C 0.52721 1.08344 0.62108
 C1320 C 0.54431 1.07236 0.63214
 C1321 C 0.55143 1.07945 0.65170
 H1322 H 0.54372 1.09257 0.65920
 O1323 O 0.47925 0.92498 0.60448
 O1324 O 0.47919 0.90070 0.62902
 C1325 C 0.47207 0.91770 0.62154
 C1326 C 0.45491 0.92886 0.63246
 C1327 C 0.44767 0.92188 0.65200
 H1328 H 0.45532 0.90879 0.65959
 O1329 O 0.60393 1.02079 0.57579
 O1330 O 0.62837 1.02091 0.60016
 C1331 C 0.62096 1.02797 0.58310
 C1332 C 0.63194 1.04504 0.57186
 C1333 C 0.65146 1.05233 0.57885
 H1334 H 0.65875 1.04515 0.59237
 O1335 O 0.39550 0.98008 0.57563
 O1336 O 0.37099 0.98016 0.59994
 C1337 C 0.37845 0.97297 0.58294
 C1338 C 0.36750 0.95582 0.57182
 C1339 C 0.34789 0.94872 0.57877
 H1340 H 0.34030 0.95647 0.59181
 O1341 O 0.57534 1.10425 0.52003
 O1342 O 0.59966 1.12874 0.51999
 C1343 C 0.58264 1.12134 0.52712
 C1344 C 0.57143 1.13239 0.54418
 C1345 C 0.57839 1.15198 0.55135
 H1346 H 0.59185 1.15929 0.54406
 O1347 O 0.42419 0.89600 0.52074
 O1348 O 0.39986 0.87153 0.52086
 C1349 C 0.41687 0.87899 0.52796
 C1350 C 0.42800 0.86808 0.54513
 C1351 C 0.42102 0.84853 0.55236
 H1352 H 0.40793 0.84095 0.54471
 O1353 O 0.57527 0.98007 0.60458
 O1354 O 0.59956 0.98012 0.62909
 C1355 C 0.58256 0.97296 0.62166
 C1356 C 0.57138 0.95587 0.63265
 C1357 C 0.57834 0.94865 0.65223
 H1358 H 0.59179 0.95592 0.65956
 O1359 O 0.42407 1.02098 0.60428
 O1360 O 0.39970 1.02111 0.62874
 C1361 C 0.41674 1.02819 0.62131
 C1362 C 0.42792 1.04533 0.63224
 C1363 C 0.42100 1.05261 0.65182
 H1364 H 0.40758 1.04536 0.65922
 O1365 O 0.47928 1.10453 0.57521
 O1366 O 0.47925 1.12915 0.59944
 C1367 C 0.47214 1.12163 0.58245
 C1368 C 0.45506 1.13257 0.57122
 C1369 C 0.44783 1.15216 0.57815
 H1370 H 0.45508 1.15952 0.59160
 O1371 O 0.52012 0.89619 0.57597
 O1372 O 0.52012 0.87178 0.60038
 C1373 C 0.52727 0.87916 0.58334
 C1374 C 0.54440 0.86817 0.57222
 C1375 C 0.55165 0.84864 0.57927
 H1376 H 0.54436 0.84134 0.59273
 O1377 O 0.60396 0.92475 0.52072
 O1378 O 0.62843 0.90040 0.52084
 C1379 C 0.62099 0.91744 0.52792
 C1380 C 0.63193 0.92861 0.54506
 C1381 C 0.65146 0.92159 0.55229
 H1382 H 0.65901 0.90848 0.54462
 O1383 O 0.39563 1.07575 0.51998
 O1384 O 0.37117 1.10011 0.51990
 C1385 C 0.37859 1.08312 0.52711
 C1386 C 0.36761 1.07207 0.54430
 C1387 C 0.34801 1.07908 0.55139
 H1388 H 0.34045 1.09210 0.54361
 Cu1389 Cu 0.49969 0.91299 0.58780
 Cu1390 Cu 0.49965 0.88378 0.61719
 Cu1391 Cu 0.49968 1.08779 0.58719
 Cu1392 Cu 0.49966 1.11727 0.61634
 Cu1393 Cu 0.41232 0.91267 0.50023
 Cu1394 Cu 0.38304 0.88337 0.50035
 Cu1395 Cu 0.58723 0.91276 0.50031
 Cu1396 Cu 0.61654 0.88347 0.50045
 Cu1397 Cu 0.41240 1.08757 0.49950
 Cu1398 Cu 0.38310 1.11687 0.49939
 Cu1399 Cu 0.58727 1.08737 0.49971
 Cu1400 Cu 0.61654 1.11668 0.49963
 Cu1401 Cu 0.41223 1.00053 0.58752
 Cu1402 Cu 0.38288 1.00064 0.61679
 Cu1403 Cu 0.58717 1.00042 0.58776
 Cu1404 Cu 0.61642 1.00053 0.61709
 C1405 C 0.55424 0.94597 0.62308
 H1406 H 0.54897 0.95125 0.60785
 C1407 C 0.56850 0.93164 0.66211
 C1408 C 0.44504 1.05518 0.62259
 H1409 H 0.45027 1.04985 0.60736
 C1410 C 0.43089 1.06964 0.66164
 C1411 C 0.37712 1.05498 0.55434
 H1412 H 0.39236 1.04968 0.54913
 C1413 C 0.33805 1.06937 0.56844
 C1414 C 0.62241 0.94579 0.55496
 H1415 H 0.60721 0.95110 0.54965
 C1416 C 0.66135 0.93138 0.56933
 C1417 C 0.55431 0.87769 0.55505
 H1418 H 0.54900 0.89289 0.54971
 C1419 C 0.56869 0.83875 0.56948
 C1420 C 0.44519 1.12297 0.55407
 H1421 H 0.45048 1.10773 0.54882
 C1422 C 0.43084 1.16204 0.56827
 C1423 C 0.44502 0.94602 0.62290
 H1424 H 0.45035 0.95131 0.60769
 C1425 C 0.43062 0.93167 0.66188
 C1426 C 0.55426 1.05516 0.62271
 H1427 H 0.54904 1.04980 0.60749
 C1428 C 0.56840 1.06969 0.66173
 C1429 C 0.44515 0.87764 0.55502
 H1430 H 0.45043 0.89284 0.54970
 C1431 C 0.43082 0.83865 0.56940
 C1432 C 0.55428 1.12285 0.55410
 H1433 H 0.54902 1.10761 0.54885
 C1434 C 0.56854 1.16192 0.56834
 C1435 C 0.37706 0.94581 0.55472
 H1436 H 0.39231 0.95102 0.54945
 C1437 C 0.33796 0.93170 0.56898
 C1438 C 0.62241 1.05482 0.55462
 H1439 H 0.60723 1.04948 0.54932
 C1440 C 0.66135 1.06930 0.56895
 O1441 O 0.47995 0.42412 0.89592
 O1442 O 0.47995 0.39966 0.87153
 C1443 C 0.47281 0.41672 0.87889
 C1444 C 0.45569 0.42781 0.86788
 C1445 C 0.44857 0.42077 0.84830
 H1446 H 0.45627 0.40767 0.84077
 O1447 O 0.52028 0.57561 0.89550
 O1448 O 0.52025 0.59989 0.87096
 C1449 C 0.52742 0.58290 0.87843
 C1450 C 0.54456 0.57173 0.86749
 C1451 C 0.55184 0.57870 0.84793
 H1452 H 0.54458 0.59213 0.84057
 O1453 O 0.39611 0.47926 0.92441
 O1454 O 0.37163 0.47910 0.90009
 C1455 C 0.37907 0.47206 0.91714
 C1456 C 0.36813 0.45500 0.92840
 C1457 C 0.34860 0.44769 0.92145
 H1458 H 0.34128 0.45485 0.90794
 O1459 O 0.60410 0.52054 0.92431
 O1460 O 0.62860 0.52053 0.89998
 C1461 C 0.62115 0.52768 0.91699
 C1462 C 0.63209 0.54481 0.92815
 C1463 C 0.65169 0.55198 0.92123
 H1464 H 0.65908 0.54464 0.90783
 O1465 O 0.42486 0.39588 0.98006
 O1466 O 0.40055 0.37138 0.98016
 C1467 C 0.41755 0.37880 0.97297
 C1468 C 0.42867 0.36778 0.95583
 C1469 C 0.42165 0.34820 0.94868
 H1470 H 0.40856 0.34067 0.95638
 O1471 O 0.57528 0.60448 0.97931
 O1472 O 0.59959 0.62897 0.97920
 C1473 C 0.58258 0.62151 0.97210
 C1474 C 0.57145 0.63243 0.95494
 C1475 C 0.57843 0.65198 0.94774
 H1476 H 0.59151 0.65956 0.95541
 O1477 O 0.42464 0.52008 0.89561
 O1478 O 0.40028 0.51997 0.87116
 C1479 C 0.41728 0.52718 0.87856
 C1480 C 0.42833 0.54434 0.86756
 C1481 C 0.42129 0.55147 0.84799
 H1482 H 0.40823 0.54373 0.84045
 O1483 O 0.57553 0.47957 0.89573
 O1484 O 0.59990 0.47955 0.87127
 C1485 C 0.58290 0.47239 0.87871
 C1486 C 0.57186 0.45516 0.86779
 C1487 C 0.57892 0.44794 0.84825
 H1488 H 0.59196 0.45568 0.84066
 O1489 O 0.52078 0.39558 0.92466
 O1490 O 0.52083 0.37099 0.90041
 C1491 C 0.52795 0.37850 0.91740
 C1492 C 0.54507 0.36760 0.92862
 C1493 C 0.55237 0.34804 0.92168
 H1494 H 0.54513 0.34066 0.90824
 O1495 O 0.47939 0.60420 0.92415
 O1496 O 0.47929 0.62864 0.89977
 C1497 C 0.47219 0.62121 0.91682
 C1498 C 0.45505 0.63214 0.92800
 C1499 C 0.44781 0.65171 0.92106
 H1500 H 0.45508 0.65907 0.90762
 O1501 O 0.39570 0.57531 0.97958
 O1502 O 0.37115 0.59958 0.97947
 C1503 C 0.37864 0.58256 0.97240
 C1504 C 0.36773 0.57130 0.95529
 C1505 C 0.34811 0.57813 0.94811
 H1506 H 0.34069 0.59152 0.95542
 O1507 O 0.60435 0.42465 0.97981
 O1508 O 0.62892 0.40041 0.97985
 C1509 C 0.62142 0.41737 0.97267
 C1510 C 0.63233 0.42853 0.95550
 C1511 C 0.65192 0.42161 0.94827
 H1512 H 0.65932 0.40822 0.95557
 O1513 O 0.47948 0.57553 0.89547
 O1514 O 0.47938 0.59982 0.87095
 C1515 C 0.47231 0.58279 0.87841
 C1516 C 0.45525 0.57153 0.86746
 C1517 C 0.44798 0.57845 0.84789
 H1518 H 0.45518 0.59192 0.84054
 O1519 O 0.52075 0.42412 0.89587
 O1520 O 0.52082 0.39967 0.87147
 C1521 C 0.52791 0.41674 0.87883
 C1522 C 0.54498 0.42793 0.86782
 C1523 C 0.55228 0.42091 0.84827
 H1524 H 0.54510 0.40740 0.84097
 O1525 O 0.60409 0.47971 0.92448
 O1526 O 0.62858 0.47968 0.90013
 C1527 C 0.62115 0.47258 0.91717
 C1528 C 0.63216 0.45551 0.92836
 C1529 C 0.65175 0.44839 0.92138
 H1530 H 0.65928 0.45607 0.90826
 O1531 O 0.39604 0.52008 0.92434
 O1532 O 0.37154 0.51996 0.90003
 C1533 C 0.37896 0.52715 0.91704
 C1534 C 0.36792 0.54424 0.92820
 C1535 C 0.34830 0.55129 0.92125
 H1536 H 0.34076 0.54356 0.90817
 O1537 O 0.42426 0.60408 0.97945
 O1538 O 0.39985 0.62848 0.97935
 C1539 C 0.41689 0.62108 0.97224
 C1540 C 0.42800 0.63204 0.95509
 C1541 C 0.42099 0.65161 0.94793
 H1542 H 0.40790 0.65916 0.95562
 O1543 O 0.57578 0.39591 0.97992
 O1544 O 0.60021 0.37153 0.97997
 C1545 C 0.58317 0.37887 0.97281
 C1546 C 0.57209 0.36781 0.95570
 C1547 C 0.57916 0.34824 0.94855
 H1548 H 0.59227 0.34075 0.95624
 O1549 O 0.57541 0.52044 0.89567
 O1550 O 0.59978 0.52044 0.87122
 C1551 C 0.58275 0.52757 0.87862
 C1552 C 0.57162 0.54468 0.86761
 C1553 C 0.57866 0.55184 0.84805
 H1554 H 0.59177 0.54417 0.84052
 O1555 O 0.42474 0.47922 0.89569
 O1556 O 0.40039 0.47907 0.87123
 C1557 C 0.41743 0.47200 0.87866
 C1558 C 0.42862 0.45486 0.86773
 C1559 C 0.42170 0.44758 0.84816
 H1560 H 0.40828 0.45484 0.84078
 O1561 O 0.52020 0.60438 0.92407
 O1562 O 0.52017 0.62881 0.89969
 C1563 C 0.52732 0.62143 0.91672
 C1564 C 0.54441 0.63243 0.92787
 C1565 C 0.55164 0.65199 0.92087
 H1566 H 0.54437 0.65931 0.90741
 O1567 O 0.47997 0.39561 0.92473
 O1568 O 0.47995 0.37101 0.90048
 C1569 C 0.47281 0.37853 0.91748
 C1570 C 0.45570 0.36762 0.92872
 C1571 C 0.44844 0.34805 0.92179
 H1572 H 0.45569 0.34067 0.90834
 O1573 O 0.60396 0.57583 0.97941
 O1574 O 0.62839 0.60021 0.97929
 C1575 C 0.62099 0.58314 0.97223
 C1576 C 0.63199 0.57194 0.95516
 C1577 C 0.65158 0.57887 0.94804
 H1578 H 0.65914 0.59196 0.95572
 O1579 O 0.39616 0.42452 0.97999
 O1580 O 0.37174 0.40013 0.98009
 C1581 C 0.37914 0.41713 0.97287
 C1582 C 0.36817 0.42814 0.95566
 C1583 C 0.34864 0.42106 0.94850
 H1584 H 0.34109 0.40801 0.95625
 Cu1585 Cu 0.50037 0.41231 0.91272
 Cu1586 Cu 0.50038 0.38287 0.88353
 Cu1587 Cu 0.49985 0.58750 0.91224
 Cu1588 Cu 0.49976 0.61674 0.88288
 Cu1589 Cu 0.41283 0.49967 0.91244
 Cu1590 Cu 0.38351 0.49951 0.88317
 Cu1591 Cu 0.58733 0.50007 0.91248
 Cu1592 Cu 0.61666 0.50005 0.88319
 C1593 C 0.44575 0.44499 0.87736
 H1594 H 0.45098 0.45032 0.89259
 C1595 C 0.43158 0.43055 0.83832
 C1596 C 0.55444 0.55459 0.87709
 H1597 H 0.54911 0.54933 0.89231
 C1598 C 0.56888 0.56885 0.83810
 C1599 C 0.37768 0.44524 0.94564
 H1600 H 0.39288 0.45059 0.95090
 C1601 C 0.33873 0.43073 0.93140
 C1602 C 0.62247 0.55478 0.94524
 H1603 H 0.60722 0.54953 0.95048
 C1604 C 0.66156 0.56900 0.93108
 C1605 C 0.44583 0.37725 0.94587
 H1606 H 0.45114 0.39248 0.95111
 C1607 C 0.43143 0.33822 0.93167
 C1608 C 0.55430 0.62289 0.94504
 H1609 H 0.54902 0.60767 0.95034
 C1610 C 0.56865 0.66188 0.93070
 C1611 C 0.44544 0.55434 0.87706
 H1612 H 0.45077 0.54911 0.89228
 C1613 C 0.43100 0.56852 0.83804
 C1614 C 0.55477 0.44518 0.87734
 H1615 H 0.54943 0.45049 0.89254
 C1616 C 0.56925 0.43082 0.83837
 C1617 C 0.55492 0.37725 0.94575
 H1618 H 0.54957 0.39247 0.95100
 C1619 C 0.56940 0.33824 0.93155
 C1620 C 0.44516 0.62254 0.94515
 H1621 H 0.45047 0.60732 0.95040
 C1622 C 0.43078 0.66156 0.93092
 C1623 C 0.37741 0.55422 0.94535
 H1624 H 0.39267 0.54905 0.95061
 C1625 C 0.33827 0.56822 0.93110
 C1626 C 0.62268 0.44560 0.94555
 H1627 H 0.60745 0.45084 0.95084
 C1628 C 0.66174 0.43144 0.93120
 O1629 O 0.52079 0.42499 1.10479
 O1630 O 0.52087 0.40071 1.12933
 C1631 C 0.52797 0.41772 1.12186
 C1632 C 0.54508 0.42895 1.13277
 C1633 C 0.55241 0.42201 1.15231
 H1634 H 0.54521 0.40854 1.15968
 O1635 O 0.47958 0.57621 1.10430
 O1636 O 0.47953 0.60068 1.12867
 C1637 C 0.47245 0.58360 1.12134
 C1638 C 0.45541 0.57244 1.13241
 C1639 C 0.44832 0.57943 1.15202
 H1640 H 0.45600 0.59256 1.15953
 O1641 O 0.39592 0.52082 1.07608
 O1642 O 0.37146 0.52086 1.10045
 C1643 C 0.37886 0.52795 1.08340
 C1644 C 0.36784 0.54500 1.07218
 C1645 C 0.34833 0.55232 1.07923
 H1646 H 0.34108 0.54516 1.09278
 O1647 O 0.60431 0.48027 1.07579
 O1648 O 0.62883 0.48039 1.10008
 C1649 C 0.62138 0.47318 1.08309
 C1650 C 0.63234 0.45603 1.07194
 C1651 C 0.65191 0.44882 1.07891
 H1652 H 0.65926 0.45614 1.09234
 O1653 O 0.57583 0.39604 1.02078
 O1654 O 0.60024 0.37164 1.02087
 C1655 C 0.58320 0.37905 1.02799
 C1656 C 0.57207 0.36813 1.04517
 C1657 C 0.57904 0.34857 1.05243
 H1658 H 0.59245 0.34119 1.04513
 O1659 O 0.42427 0.60425 1.02031
 O1660 O 0.39986 0.62866 1.02024
 C1661 C 0.41690 0.62131 1.02740
 C1662 C 0.42801 0.63239 1.04449
 C1663 C 0.42097 0.65196 1.05162
 H1664 H 0.40784 0.65946 1.04395
 O1665 O 0.42468 0.48010 1.10482
 O1666 O 0.40036 0.48008 1.12932
 C1667 C 0.41739 0.47296 1.12189
 C1668 C 0.42859 0.45588 1.13286
 C1669 C 0.42162 0.44863 1.15243
 H1670 H 0.40816 0.45587 1.15978
 O1671 O 0.57564 0.52118 1.10439
 O1672 O 0.60000 0.52135 1.12884
 C1673 C 0.58296 0.52842 1.12140
 C1674 C 0.57177 0.54557 1.13232
 C1675 C 0.57867 0.55286 1.15189
 H1676 H 0.59209 0.54560 1.15929
 O1677 O 0.47999 0.39622 1.07622
 O1678 O 0.48000 0.37180 1.10062
 C1679 C 0.47285 0.37918 1.08358
 C1680 C 0.45574 0.36819 1.07244
 C1681 C 0.44845 0.34867 1.07951
 H1682 H 0.45569 0.34138 1.09300
 O1683 O 0.52025 0.60488 1.07543
 O1684 O 0.52024 0.62948 1.09968
 C1685 C 0.52736 0.62199 1.08267
 C1686 C 0.54442 0.63294 1.07142
 C1687 C 0.55163 0.65254 1.07830
 H1688 H 0.54436 0.65994 1.09173
 O1689 O 0.39615 0.42466 1.02087
 O1690 O 0.37171 0.40029 1.02099
 C1691 C 0.37912 0.41735 1.02808
 C1692 C 0.36815 0.42855 1.04520
 C1693 C 0.34859 0.42159 1.05245
 H1694 H 0.34125 0.40814 1.04519
 O1695 O 0.60400 0.57603 1.02026
 O1696 O 0.62842 0.60041 1.02016
 C1697 C 0.62103 0.58341 1.02737
 C1698 C 0.63204 0.57236 1.04452
 C1699 C 0.65160 0.57941 1.05163
 H1700 H 0.65912 0.59249 1.04389
 O1701 O 0.52039 0.57627 1.10414
 O1702 O 0.52038 0.60073 1.12852
 C1703 C 0.52754 0.58369 1.12115
 C1704 C 0.54468 0.57262 1.13216
 C1705 C 0.55180 0.57966 1.15173
 H1706 H 0.54408 0.59275 1.15926
 O1707 O 0.47997 0.42503 1.10476
 O1708 O 0.48000 0.40074 1.12929
 C1709 C 0.47284 0.41773 1.12184
 C1710 C 0.45570 0.42887 1.13281
 C1711 C 0.44853 0.42187 1.15238
 H1712 H 0.45623 0.40879 1.15994
 O1713 O 0.60425 0.52111 1.07567
 O1714 O 0.62876 0.52128 1.09997
 C1715 C 0.62129 0.52832 1.08293
 C1716 C 0.63220 0.54540 1.07168
 C1717 C 0.65176 0.55269 1.07858
 H1718 H 0.65913 0.54548 1.09203
 O1719 O 0.39615 0.47999 1.07604
 O1720 O 0.37168 0.47997 1.10041
 C1721 C 0.37913 0.47282 1.08338
 C1722 C 0.36820 0.45566 1.07225
 C1723 C 0.34864 0.44849 1.07925
 H1724 H 0.34108 0.45619 1.09234
 O1725 O 0.57528 0.60465 1.02016
 O1726 O 0.59959 0.62914 1.02007
 C1727 C 0.58258 0.62173 1.02723
 C1728 C 0.57144 0.63278 1.04432
 C1729 C 0.57841 0.65238 1.05141
 H1730 H 0.59149 0.65992 1.04368
 O1731 O 0.42491 0.39608 1.02094
 O1732 O 0.40059 0.37159 1.02106
 C1733 C 0.41760 0.37906 1.02816
 C1734 C 0.42872 0.36817 1.04535
 C1735 C 0.42169 0.34866 1.05261
 H1736 H 0.40859 0.34109 1.04496
 O1737 O 0.57572 0.48033 1.10453
 O1738 O 0.60010 0.48045 1.12895
 C1739 C 0.58309 0.47325 1.12158
 C1740 C 0.57204 0.45610 1.13261
 C1741 C 0.57913 0.44896 1.15215
 H1742 H 0.59221 0.45668 1.15966
 O1743 O 0.42464 0.52095 1.10468
 O1744 O 0.40032 0.52098 1.12920
 C1745 C 0.41732 0.52813 1.12173
 C1746 C 0.42846 0.54530 1.13264
 C1747 C 0.42157 0.55252 1.15225
 H1748 H 0.40820 0.54521 1.15967
 O1749 O 0.47944 0.60469 1.07545
 O1750 O 0.47938 0.62929 1.09969
 C1751 C 0.47225 0.62176 1.08271
 C1752 C 0.45509 0.63262 1.07152
 C1753 C 0.44782 0.65219 1.07844
 H1754 H 0.45508 0.65960 1.09185
 O1755 O 0.52081 0.39631 1.07611
 O1756 O 0.52086 0.37190 1.10052
 C1757 C 0.52797 0.37928 1.08346
 C1758 C 0.54507 0.36828 1.07231
 C1759 C 0.55224 0.34872 1.07932
 H1760 H 0.54458 0.34119 1.09244
 O1761 O 0.60429 0.42489 1.02067
 O1762 O 0.62883 0.40062 1.02076
 C1763 C 0.62135 0.41765 1.02784
 C1764 C 0.63229 0.42888 1.04493
 C1765 C 0.65185 0.42193 1.05211
 H1766 H 0.65942 0.40882 1.04446
 O1767 O 0.39568 0.57553 1.02047
 O1768 O 0.37116 0.59982 1.02040
 C1769 C 0.37864 0.58287 1.02763
 C1770 C 0.36775 0.57185 1.04490
 C1771 C 0.34825 0.57893 1.05216
 H1772 H 0.34066 0.59197 1.04444
 Cu1773 Cu 0.50039 0.41307 1.08803
 Cu1774 Cu 0.50044 0.38384 1.11740
 Cu1775 Cu 0.49992 0.58806 1.08740
 Cu1776 Cu 0.49988 0.61751 1.11659
 Cu1777 Cu 0.41295 0.41273 1.00046
 Cu1778 Cu 0.38370 0.38339 1.00059
 Cu1779 Cu 0.58761 0.41280 1.00028
 Cu1780 Cu 0.61701 0.38361 1.00037
 Cu1781 Cu 0.41242 0.58735 0.99996
 Cu1782 Cu 0.38304 0.61657 0.99985
 Cu1783 Cu 0.58719 0.58780 0.99980
 Cu1784 Cu 0.61645 0.61714 0.99967
 Cu1785 Cu 0.41279 0.50047 1.08797
 Cu1786 Cu 0.38350 0.50047 1.11730
 Cu1787 Cu 0.58754 0.50071 1.08766
 Cu1788 Cu 0.61688 0.50088 1.11691
 C1789 C 0.55489 0.44612 1.12315
 H1790 H 0.54953 0.45137 1.10795
 C1791 C 0.56943 0.43192 1.16212
 C1792 C 0.44551 0.55524 1.12296
 H1793 H 0.45072 0.54995 1.10770
 C1794 C 0.43141 0.56959 1.16206
 C1795 C 0.37731 0.55476 1.05488
 H1796 H 0.39249 0.54940 1.04954
 C1797 C 0.33842 0.56928 1.06933
 C1798 C 0.62276 0.44606 1.05482
 H1799 H 0.60754 0.45133 1.04955
 C1800 C 0.66178 0.43177 1.06910
 C1801 C 0.55496 0.37775 1.05510
 H1802 H 0.54970 0.39296 1.04979
 C1803 C 0.56922 0.33874 1.06950
 C1804 C 0.44520 0.62295 1.05441
 H1805 H 0.45054 0.60772 1.04918
 C1806 C 0.43076 0.66199 1.06859
 C1807 C 0.44576 0.44601 1.12328
 H1808 H 0.45102 0.45130 1.10806
 C1809 C 0.43149 0.43162 1.16231
 C1810 C 0.55464 0.55544 1.12268
 H1811 H 0.54942 0.55011 1.10745
 C1812 C 0.56878 0.56989 1.16173
 C1813 C 0.44588 0.37770 1.05524
 H1814 H 0.45121 0.39288 1.04989
 C1815 C 0.43142 0.33880 1.06970
 C1816 C 0.55431 0.62329 1.05430
 H1817 H 0.54904 0.60803 1.04910
 C1818 C 0.56862 0.66239 1.06840
 C1819 C 0.37772 0.44571 1.05509
 H1820 H 0.39294 0.45098 1.04978
 C1821 C 0.33872 0.43146 1.06948
 C1822 C 0.62257 0.55522 1.05452
 H1823 H 0.60736 0.54989 1.04930
 C1824 C 0.66158 0.56969 1.06866
 C1825 C 1.11541 1.11553 1.27520
 C1826 C 1.12621 1.10266 1.28918
 C1827 C 1.13476 1.11103 1.30752
 C1828 C 1.13270 1.13258 1.31232
 C1829 C 1.12149 1.14524 1.29799
 C1830 C 1.11301 1.13679 1.27968
 C1831 C 1.10707 1.10705 1.25606
 C1832 C 1.10019 1.10022 1.23987
 C1833 C 1.09208 1.09239 1.22037
 C1834 C 1.09042 1.07081 1.21693
 C1835 C 1.08281 1.06327 1.19783
 C1836 C 1.07675 1.07725 1.18192
 C1837 C 1.07844 1.09892 1.18557
 C1838 C 1.08605 1.10641 1.20466
 H1839 H 1.12799 1.08611 1.28594
 H1840 H 1.14227 1.10024 1.31816
 H1841 H 1.11998 1.16196 1.30021
 H1842 H 1.10482 1.14695 1.26884
 H1843 H 1.09502 1.05982 1.22900
 H1844 H 1.08148 1.04652 1.19556
 H1845 H 1.07421 1.11007 1.17353
 H1846 H 1.08736 1.12314 1.20713
 C1847 C 1.11565 0.61469 0.77562
 C1848 C 1.13735 0.61633 0.77803
 C1849 C 1.14576 0.62464 0.79644
 C1850 C 1.13256 0.63145 0.81271
 C1851 C 1.11076 0.62964 0.81019
 C1852 C 1.10237 0.62130 0.79176
 C1853 C 1.10708 0.60650 0.75646
 C1854 C 1.10015 0.59972 0.74026
 C1855 C 1.09223 0.59173 0.72074
 C1856 C 1.10617 0.58565 0.70498
 C1857 C 1.09859 0.57808 0.68590
 C1858 C 1.07693 0.57649 0.68232
 C1859 C 1.06302 0.58264 0.69827
 C1860 C 1.07064 0.59021 0.71737
 H1861 H 1.14777 0.61133 0.76560
 H1862 H 1.16259 0.62611 0.79778
 H1863 H 1.10021 0.63453 0.82253
 H1864 H 1.08555 0.62008 0.79007
 H1865 H 1.12290 0.58685 0.70739
 H1866 H 1.10969 0.57377 0.67382
 H1867 H 1.04627 0.58140 0.69606
 H1868 H 1.05971 0.59486 0.72948
 C1869 C 0.61576 1.11595 0.77505
 C1870 C 0.60262 1.12289 0.79117
 C1871 C 0.61117 1.13121 0.80953
 C1872 C 0.63300 1.13269 0.81200
 C1873 C 0.64606 1.12562 0.79572
 C1874 C 0.63748 1.11731 0.77738
 C1875 C 0.60702 1.10771 0.75599
 C1876 C 0.59990 1.10093 0.73987
 C1877 C 0.59161 1.09304 0.72046
 C1878 C 0.58552 1.10699 0.70471
 C1879 C 0.57787 1.09940 0.68567
 C1880 C 0.57620 1.07772 0.68211
 C1881 C 0.58230 1.06382 0.69807
 C1882 C 0.58995 1.07145 0.71712
 H1883 H 0.58577 1.12189 0.78953
 H1884 H 0.60072 1.13632 0.82188
 H1885 H 0.66291 1.12682 0.79702
 H1886 H 0.64779 1.11208 0.76497
 H1887 H 0.58685 1.12373 0.70709
 H1888 H 0.57360 1.11049 0.67359
 H1889 H 0.58099 1.04706 0.69588
 H1890 H 0.59461 1.06051 0.72922
 C1891 C 0.61577 0.61592 1.27529
 C1892 C 0.60318 0.62721 1.28916
 C1893 C 0.61172 0.63563 1.30748
 C1894 C 0.63316 0.63292 1.31238
 C1895 C 0.64554 0.62128 1.29813
 C1896 C 0.63692 0.61294 1.27984
 C1897 C 0.60711 0.60770 1.25618
 C1898 C 0.60006 0.60096 1.24002
 C1899 C 0.59186 0.59310 1.22056
 C1900 C 0.58579 0.60709 1.20484
 C1901 C 0.57819 0.59955 1.18576
 C1902 C 0.57657 0.57787 1.18214
 C1903 C 0.58265 0.56393 1.19807
 C1904 C 0.59024 0.57152 1.21716
 H1905 H 0.58671 0.62949 1.28585
 H1906 H 0.60115 0.64360 1.31803
 H1907 H 0.66219 0.61929 1.30038
 H1908 H 0.64686 0.60439 1.26908
 H1909 H 0.58708 0.62382 1.20727
 H1910 H 0.57393 0.61067 1.17370
 H1911 H 0.58137 0.54718 1.19582
 H1912 H 0.59489 0.56055 1.22923
 C1913 C 0.88429 0.88426 1.27506
 C1914 C 0.89748 0.87746 1.29117
 C1915 C 0.88898 0.86905 1.30952
 C1916 C 0.86716 0.86736 1.31198
 C1917 C 0.85405 0.87432 1.29570
 C1918 C 0.86258 0.88270 1.27738
 C1919 C 0.89296 0.89263 1.25602
 C1920 C 0.89993 0.89956 1.23991
 C1921 C 0.90790 0.90775 1.22049
 C1922 C 0.92950 0.90939 1.21720
 C1923 C 0.93716 0.91711 1.19819
 C1924 C 0.92329 0.92329 1.18223
 C1925 C 0.90162 0.92162 1.18574
 C1926 C 0.89400 0.91390 1.20474
 H1927 H 0.91431 0.87862 1.28954
 H1928 H 0.89946 0.86403 1.32186
 H1929 H 0.83722 0.87293 1.29698
 H1930 H 0.85223 0.88784 1.26497
 H1931 H 0.94040 0.90470 1.22931
 H1932 H 0.95391 0.91841 1.19603
 H1933 H 0.89055 0.92594 1.17365
 H1934 H 0.87726 0.91261 1.20709
 C1935 C 0.88353 0.38435 0.77512
 C1936 C 0.87707 0.39757 0.79138
 C1937 C 0.86877 0.38910 0.80979
 C1938 C 0.86686 0.36728 0.81218
 C1939 C 0.87343 0.35415 0.79575
 C1940 C 0.88171 0.36264 0.77736
 C1941 C 0.89186 0.39297 0.75605
 C1942 C 0.89880 0.39989 0.73992
 C1943 C 0.90702 0.40778 0.72048
 C1944 C 0.90870 0.42937 0.71712
 C1945 C 0.91646 0.43695 0.69810
 C1946 C 0.92267 0.42300 0.68220
 C1947 C 0.92096 0.40133 0.68577
 C1948 C 0.91319 0.39380 0.70478
 H1949 H 0.87844 0.41440 0.78981
 H1950 H 0.86403 0.39959 0.82225
 H1951 H 0.87187 0.33731 0.79697
 H1952 H 0.88658 0.35227 0.76484
 H1953 H 0.90399 0.44033 0.72919
 H1954 H 0.91780 0.45370 0.69589
 H1955 H 0.92531 0.39021 0.67372
 H1956 H 0.91187 0.37706 0.70718
 C1957 C 0.38408 0.88481 0.77527
 C1958 C 0.38231 0.86309 0.77747
 C1959 C 0.37406 0.85455 0.79584
 C1960 C 0.36745 0.86764 0.81229
 C1961 C 0.36935 0.88947 0.80996
 C1962 C 0.37763 0.89798 0.79156
 C1963 C 0.39231 0.89349 0.75618
 C1964 C 0.39913 0.90046 0.74003
 C1965 C 0.40721 0.90840 0.72055
 C1966 C 0.41332 0.89444 0.70480
 C1967 C 0.42099 0.90201 0.68577
 C1968 C 0.42266 0.92368 0.68222
 C1969 C 0.41649 0.93761 0.69815
 C1970 C 0.40883 0.92999 0.71721
 H1971 H 0.38718 0.85276 0.76492
 H1972 H 0.37251 0.83771 0.79703
 H1973 H 0.36459 0.89993 0.82244
 H1974 H 0.37895 0.91482 0.79003
 H1975 H 0.41205 0.87770 0.70719
 H1976 H 0.42530 0.89090 0.67369
 H1977 H 0.41779 0.95436 0.69595
 H1978 H 0.40416 0.94093 0.72931
 C1979 C 0.38427 0.38525 1.27563
 C1980 C 0.39693 0.37406 1.28950
 C1981 C 0.38842 0.36549 1.30776
 C1982 C 0.36693 0.36795 1.31262
 C1983 C 0.35446 0.37947 1.29836
 C1984 C 0.36306 0.38796 1.28013
 C1985 C 0.39290 0.39360 1.25657
 C1986 C 0.39995 0.40042 1.24044
 C1987 C 0.40818 0.40833 1.22101
 C1988 C 0.41434 0.39437 1.20528
 C1989 C 0.42200 0.40194 1.18624
 C1990 C 0.42361 0.42362 1.18267
 C1991 C 0.41742 0.43754 1.19860
 C1992 C 0.40976 0.42992 1.21765
 H1993 H 0.41343 0.37198 1.28622
 H1994 H 0.39903 0.35760 1.31832
 H1995 H 0.33778 0.38121 1.30052
 H1996 H 0.35305 0.39642 1.26936
 H1997 H 0.41308 0.37763 1.20768
 H1998 H 0.42633 0.39084 1.17418
 H1999 H 0.41867 0.45430 1.19639
 H2000 H 0.40504 0.44086 1.22973
 C2001 C 0.88324 1.11594 0.72516
 C2002 C 0.88593 1.13718 0.72079
 C2003 C 0.87751 1.14586 0.70256
 C2004 C 0.86607 1.13343 0.68820
 C2005 C 0.86366 1.11190 0.69292
 C2006 C 0.87216 1.10332 0.71117
 C2007 C 0.89164 1.10724 0.74417
 C2008 C 0.89863 1.10025 0.76025
 C2009 C 0.90691 1.09228 0.77962
 C2010 C 0.91318 1.10620 0.79534
 C2011 C 0.92102 1.09859 0.81428
 C2012 C 0.92270 1.07691 0.81778
 C2013 C 0.91640 1.06302 0.80186
 C2014 C 0.90857 1.07068 0.78290
 H2015 H 0.89433 1.14716 0.73164
 H2016 H 0.87927 1.16255 0.70046
 H2017 H 0.85586 1.10131 0.68225
 H2018 H 0.87012 1.08678 0.71434
 H2019 H 0.91188 1.12295 0.79299
 H2020 H 0.92543 1.10967 0.82634
 H2021 H 0.91771 1.04626 0.80401
 H2022 H 0.90379 1.05977 0.77083
 C2023 C 0.88426 0.61506 0.22466
 C2024 C 0.89689 0.62639 0.21089
 C2025 C 0.88839 0.63501 0.19266
 C2026 C 0.86693 0.63247 0.18774
 C2027 C 0.85450 0.62076 0.20188
 C2028 C 0.86310 0.61221 0.22009
 C2029 C 0.89289 0.60669 0.24372
 C2030 C 0.89996 0.59986 0.25983
 C2031 C 0.90821 0.59195 0.27924
 C2032 C 0.91439 0.60591 0.29496
 C2033 C 0.92208 0.59833 0.31398
 C2034 C 0.92369 0.57666 0.31756
 C2035 C 0.91749 0.56274 0.30163
 C2036 C 0.90981 0.57036 0.28259
 H2037 H 0.91337 0.62856 0.21422
 H2038 H 0.89899 0.64301 0.18218
 H2039 H 0.83784 0.61888 0.19964
 H2040 H 0.85311 0.60362 0.23078
 H2041 H 0.91313 0.62265 0.29256
 H2042 H 0.92642 0.60944 0.32604
 H2043 H 0.91875 0.54598 0.30384
 H2044 H 0.90508 0.55942 0.27052
 C2045 C 0.38437 1.11578 0.22475
 C2046 C 0.37303 1.10322 0.21091
 C2047 C 0.36451 1.11180 0.19267
 C2048 C 0.36715 1.13326 0.18781
 C2049 C 0.37884 1.14563 0.20203
 C2050 C 0.38728 1.13696 0.22024
 C2051 C 0.39270 1.10708 0.24379
 C2052 C 0.39953 1.09999 0.25989
 C2053 C 0.40745 1.09172 0.27928
 C2054 C 0.39353 1.08559 0.29504
 C2055 C 0.40114 1.07792 0.31406
 C2056 C 0.42281 1.07628 0.31759
 C2057 C 0.43669 1.08244 0.30162
 C2058 C 0.42904 1.09010 0.28259
 H2059 H 0.37080 1.08673 0.21419
 H2060 H 0.35651 1.10124 0.18214
 H2061 H 0.38077 1.16230 0.19983
 H2062 H 0.39587 1.14690 0.23098
 H2063 H 0.37679 1.08688 0.29269
 H2064 H 0.39006 1.07362 0.32615
 H2065 H 0.45345 1.08115 0.30380
 H2066 H 0.43996 1.09480 0.27049
 C2067 C 0.38419 0.61543 0.72482
 C2068 C 0.39740 0.62227 0.70874
 C2069 C 0.38894 0.63069 0.69038
 C2070 C 0.36712 0.63233 0.68789
 C2071 C 0.35399 0.62535 0.70414
 C2072 C 0.36248 0.61696 0.72247
 C2073 C 0.39282 0.60704 0.74386
 C2074 C 0.39975 0.60009 0.75997
 C2075 C 0.40768 0.59189 0.77939
 C2076 C 0.42927 0.59028 0.78273
 C2077 C 0.43689 0.58259 0.80176
 C2078 C 0.42299 0.57638 0.81768
 C2079 C 0.40132 0.57800 0.81413
 C2080 C 0.39374 0.58570 0.79511
 H2081 H 0.41424 0.62114 0.71040
 H2082 H 0.39943 0.63573 0.67807
 H2083 H 0.33715 0.62670 0.70283
 H2084 H 0.35211 0.61179 0.73486
 H2085 H 0.44019 0.59501 0.77065
 H2086 H 0.45364 0.58132 0.80396
 H2087 H 0.39023 0.57365 0.82619
 H2088 H 0.37701 0.58696 0.79272
 C2089 C 1.11625 0.88423 0.72476
 C2090 C 1.12285 0.89746 0.70858
 C2091 C 1.13119 0.88901 0.69017
 C2092 C 1.13302 0.86719 0.68771
 C2093 C 1.12632 0.85404 0.70407
 C2094 C 1.11800 0.86252 0.72245
 C2095 C 1.10785 0.89283 0.74382
 C2096 C 1.10085 0.89973 0.75994
 C2097 C 1.09257 0.90761 0.77937
 C2098 C 1.09087 0.92919 0.78274
 C2099 C 1.08309 0.93677 0.80176
 C2100 C 1.07691 0.92283 0.81766
 C2101 C 1.07862 0.90116 0.81407
 C2102 C 1.08641 0.89362 0.79505
 H2103 H 1.12154 0.91429 0.71021
 H2104 H 1.13602 0.89951 0.67777
 H2105 H 1.12781 0.83720 0.70278
 H2106 H 1.11303 0.85213 0.73490
 H2107 H 1.09557 0.94015 0.77068
 H2108 H 1.08175 0.95352 0.80399
 H2109 H 1.07429 0.89004 0.82611
 H2110 H 1.08774 0.87688 0.79264
 C2111 C 1.11612 0.38412 0.22481
 C2112 C 1.12737 0.39681 0.21102
 C2113 C 1.13580 0.38839 0.19264
 C2114 C 1.13314 0.36696 0.18759
 C2115 C 1.12156 0.35446 0.20178
 C2116 C 1.11321 0.36297 0.22012
 C2117 C 1.10777 0.39265 0.24393
 C2118 C 1.10082 0.39949 0.26010
 C2119 C 1.09260 0.40733 0.27956
 C2120 C 1.09093 0.42891 0.28299
 C2121 C 1.08319 0.43645 0.30205
 C2122 C 1.07701 0.42247 0.31792
 C2123 C 1.07869 0.40081 0.31427
 C2124 C 1.08644 0.39331 0.29522
 H2125 H 1.12958 0.41328 0.21443
 H2126 H 1.14374 0.39904 0.18216
 H2127 H 1.11963 0.33782 0.19944
 H2128 H 1.10468 0.35294 0.23082
 H2129 H 1.09563 0.43989 0.27096
 H2130 H 1.08187 0.45320 0.30432
 H2131 H 1.07436 0.38966 0.32628
 H2132 H 1.08774 0.37658 0.29276
 C2133 C 0.61504 0.88436 0.22463
 C2134 C 0.60185 0.87766 0.20847
 C2135 C 0.61036 0.86949 0.19000
 C2136 C 0.63219 0.86794 0.18749
 C2137 C 0.64529 0.87479 0.20382
 C2138 C 0.63675 0.88293 0.22225
 C2139 C 0.60639 0.89252 0.24377
 C2140 C 0.59948 0.89932 0.25997
 C2141 C 0.59164 0.90737 0.27950
 C2142 C 0.57007 0.90897 0.28297
 C2143 C 0.56255 0.91660 0.30208
 C2144 C 0.57654 0.92275 0.31795
 C2145 C 0.59819 0.92109 0.31427
 C2146 C 0.60566 0.91346 0.29517
 H2147 H 0.58502 0.87872 0.21014
 H2148 H 0.59989 0.86455 0.17762
 H2149 H 0.66213 0.87352 0.20249
 H2150 H 0.64709 0.88800 0.23470
 H2151 H 0.55908 0.90432 0.27092
 H2152 H 0.54581 0.91789 0.30438
 H2153 H 0.60934 0.92539 0.32628
 H2154 H 0.62238 0.91220 0.29268
 C2155 C 0.61586 0.38406 0.72488
 C2156 C 0.61753 0.36236 0.72245
 C2157 C 0.62591 0.35396 0.70406
 C2158 C 0.63275 0.36718 0.68782
 C2159 C 0.63099 0.38899 0.69040
 C2160 C 0.62259 0.39736 0.70882
 C2161 C 0.60750 0.39260 0.74399
 C2162 C 0.60064 0.39956 0.76015
 C2163 C 0.59269 0.40767 0.77962
 C2164 C 0.57110 0.40911 0.78301
 C2165 C 0.56343 0.41669 0.80209
 C2166 C 0.57730 0.42293 0.81802
 C2167 C 0.59898 0.42144 0.81443
 C2168 C 0.60660 0.41386 0.79536
 H2169 H 0.61247 0.35192 0.73482
 H2170 H 0.62734 0.33712 0.70268
 H2171 H 0.63593 0.39955 0.67809
 H2172 H 0.62135 0.41419 0.71054
 H2173 H 0.56019 0.40436 0.77092
 H2174 H 0.54667 0.41785 0.80431
 H2175 H 0.61005 0.42582 0.82649
 H2176 H 0.62334 0.41270 0.79295
 C2177 C 1.27458 1.11631 1.11629
 C2178 C 1.27690 1.13802 1.11801
 C2179 C 1.29524 1.14649 1.12639
 C2180 C 1.31154 1.13333 1.13318
 C2181 C 1.30907 1.11151 1.13137
 C2182 C 1.29070 1.10307 1.12296
 C2183 C 1.25556 1.10771 1.10782
 C2184 C 1.23949 1.10078 1.10077
 C2185 C 1.22013 1.09284 1.09244
 C2186 C 1.20443 1.10677 1.08619
 C2187 C 1.18548 1.09917 1.07835
 C2188 C 1.18197 1.07749 1.07666
 C2189 C 1.19787 1.06360 1.08292
 C2190 C 1.21683 1.07124 1.09075
 H2191 H 1.26448 1.14841 1.11297
 H2192 H 1.29653 1.16333 1.12786
 H2193 H 1.32143 1.10099 1.13626
 H2194 H 1.28908 1.08623 1.12167
 H2195 H 1.20678 1.12352 1.08751
 H2196 H 1.17344 1.11026 1.07397
 H2197 H 1.19571 1.04684 1.08159
 H2198 H 1.22890 1.06032 1.09551
 C2199 C 1.27487 0.61541 0.61542
 C2200 C 1.27716 0.63714 0.61703
 C2201 C 1.29549 0.64567 0.62535
 C2202 C 1.31181 0.63256 0.63220
 C2203 C 1.30940 0.61073 0.63042
 C2204 C 1.29104 0.60223 0.62208
 C2205 C 1.25579 0.60674 0.60718
 C2206 C 1.23965 0.59977 0.60036
 C2207 C 1.22018 0.59183 0.59230
 C2208 C 1.20444 0.60578 0.58623
 C2209 C 1.18540 0.59821 0.57860
 C2210 C 1.18184 0.57653 0.57695
 C2211 C 1.19777 0.56261 0.58309
 C2212 C 1.21683 0.57024 0.59070
 H2213 H 1.26471 0.64749 0.61200
 H2214 H 1.29675 0.66251 0.62679
 H2215 H 1.32178 0.60025 0.63534
 H2216 H 1.28944 0.58538 0.62087
 H2217 H 1.20683 0.62253 0.58749
 H2218 H 1.17333 0.60931 0.57432
 H2219 H 1.19557 0.54586 0.58180
 H2220 H 1.22892 0.55930 0.59535
 C2221 C 0.77432 1.11613 0.61637
 C2222 C 0.77879 1.13734 0.61366
 C2223 C 0.79702 1.14595 0.62209
 C2224 C 0.81131 1.13349 0.63357
 C2225 C 0.80649 1.11199 0.63603
 C2226 C 0.78822 1.10347 0.62752
 C2227 C 0.75531 1.10749 0.60794
 C2228 C 0.73923 1.10056 0.60092
 C2229 C 0.71985 1.09263 0.59262
 C2230 C 0.70420 1.10658 0.58631
 C2231 C 0.68523 1.09900 0.57850
 C2232 C 0.68166 1.07733 0.57689
 C2233 C 0.69753 1.06342 0.58322
 C2234 C 0.71650 1.07104 0.59102
 H2235 H 0.76801 1.14735 0.60521
 H2236 H 0.79923 1.16264 0.62030
 H2237 H 0.81708 1.10137 0.64388
 H2238 H 0.78498 1.08695 0.62958
 H2239 H 0.70660 1.12333 0.58755
 H2240 H 0.67322 1.11010 0.57406
 H2241 H 0.69532 1.04666 0.58197
 H2242 H 0.72853 1.06010 0.59584
 C2243 C 0.77479 0.61638 1.11558
 C2244 C 0.77697 0.63806 1.11780
 C2245 C 0.79527 0.64645 1.12632
 C2246 C 0.81167 0.63324 1.13276
 C2247 C 0.80939 0.61146 1.13036
 C2248 C 0.79105 0.60309 1.12182
 C2249 C 0.75576 0.60783 1.10712
 C2250 C 0.73965 0.60093 1.10014
 C2251 C 0.72023 0.59301 1.09194
 C2252 C 0.70452 0.60696 1.08579
 C2253 C 0.68550 0.59939 1.07812
 C2254 C 0.68194 0.57771 1.07649
 C2255 C 0.69786 0.56380 1.08264
 C2256 C 0.71689 0.57142 1.09031
 H2257 H 0.76445 0.64848 1.11308
 H2258 H 0.79647 0.66326 1.12821
 H2259 H 0.82184 0.60091 1.13492
 H2260 H 0.78954 0.58628 1.12013
 H2261 H 0.70691 0.62371 1.08707
 H2262 H 0.67344 0.61048 1.07381
 H2263 H 0.69566 0.54704 1.08136
 H2264 H 0.72897 0.56048 1.09500
 C2265 C 1.27541 0.88483 0.88457
 C2266 C 1.28927 0.89747 0.87336
 C2267 C 1.30761 0.88898 0.86495
 C2268 C 1.31254 0.86752 0.86759
 C2269 C 1.29830 0.85508 0.87916
 C2270 C 1.27999 0.86367 0.88749
 C2271 C 1.25630 0.89342 0.89283
 C2272 C 1.24012 0.90029 0.89969
 C2273 C 1.22062 0.90811 0.90781
 C2274 C 1.21716 0.92969 0.90946
 C2275 C 1.19807 0.93720 0.91710
 C2276 C 1.18220 0.92320 0.92321
 C2277 C 1.18588 0.90154 0.92154
 C2278 C 1.20496 0.89407 0.91389
 H2279 H 1.28593 0.91396 0.87114
 H2280 H 1.31815 0.89959 0.85703
 H2281 H 1.30057 0.83842 0.88110
 H2282 H 1.26924 0.85368 0.89599
 H2283 H 1.22920 0.94069 0.90482
 H2284 H 1.19577 0.95395 0.91841
 H2285 H 1.17387 0.89038 0.92581
 H2286 H 1.20745 0.87734 0.91260
 C2287 C 1.27544 0.38423 0.38516
 C2288 C 1.27985 0.36293 0.38733
 C2289 C 1.29814 0.35452 0.37878
 C2290 C 1.31251 0.36725 0.36771
 C2291 C 1.30779 0.38884 0.36589
 C2292 C 1.28947 0.39716 0.37451
 C2293 C 1.25631 0.39267 0.39353
 C2294 C 1.24013 0.39950 0.40042
 C2295 C 1.22063 0.40735 0.40852
 C2296 C 1.20492 0.39335 0.41454
 C2297 C 1.18582 0.40086 0.42211
 C2298 C 1.18218 0.42252 0.42376
 C2299 C 1.19810 0.43649 0.41772
 C2300 C 1.21721 0.42893 0.41015
 H2301 H 1.26898 0.35272 0.39541
 H2302 H 1.30031 0.33778 0.38011
 H2303 H 1.31847 0.39968 0.35850
 H2304 H 1.28629 0.41375 0.37290
 H2305 H 1.20737 0.37661 0.41325
 H2306 H 1.17377 0.38972 0.42633
 H2307 H 1.19583 0.45324 0.41901
 H2308 H 1.22928 0.43991 0.40555
 C2309 C 0.77477 0.88397 0.38454
 C2310 C 0.79088 0.89721 0.37784
 C2311 C 0.80925 0.88877 0.36943
 C2312 C 0.81173 0.86694 0.36763
 C2313 C 0.79547 0.85378 0.37451
 C2314 C 0.77712 0.86226 0.38289
 C2315 C 0.75570 0.89259 0.39288
 C2316 C 0.73956 0.89954 0.39978
 C2317 C 0.72012 0.90749 0.40793
 C2318 C 0.71675 0.92909 0.40945
 C2319 C 0.69772 0.93673 0.41711
 C2320 C 0.68181 0.92284 0.42337
 C2321 C 0.68540 0.90115 0.42181
 C2322 C 0.70442 0.89355 0.41415
 H2323 H 0.78923 0.91405 0.37907
 H2324 H 0.82159 0.89929 0.36449
 H2325 H 0.79678 0.83694 0.37306
 H2326 H 0.76472 0.85187 0.38796
 H2327 H 0.72882 0.94001 0.40470
 H2328 H 0.69550 0.95349 0.41833
 H2329 H 0.67335 0.89006 0.42620
 H2330 H 0.70683 0.87681 0.41294
 C2331 C 0.77527 0.38456 0.88508
 C2332 C 0.78903 0.39718 0.87372
 C2333 C 0.80731 0.38868 0.86519
 C2334 C 0.81228 0.36724 0.86786
 C2335 C 0.79815 0.35482 0.87958
 C2336 C 0.77989 0.36342 0.88803
 C2337 C 0.75617 0.39317 0.89338
 C2338 C 0.74002 0.40018 0.90016
 C2339 C 0.72056 0.40835 0.90802
 C2340 C 0.70482 0.41434 0.89403
 C2341 C 0.68574 0.42193 0.90156
 C2342 C 0.68214 0.42363 0.92324
 C2343 C 0.69808 0.41761 0.93719
 C2344 C 0.71717 0.41003 0.92961
 H2345 H 0.78565 0.41365 0.87146
 H2346 H 0.81777 0.39928 0.85716
 H2347 H 0.80045 0.33818 0.88155
 H2348 H 0.76922 0.35344 0.89664
 H2349 H 0.70724 0.41300 0.87728
 H2350 H 0.67367 0.42613 0.89043
 H2351 H 0.69584 0.41895 0.95395
 H2352 H 0.72925 0.40544 0.94058
 C2353 C 0.72483 0.88526 1.11520
 C2354 C 0.70873 0.87867 1.10189
 C2355 C 0.69031 0.87031 1.11026
 C2356 C 0.68777 0.86847 1.13208
 C2357 C 0.70402 0.87523 1.14531
 C2358 C 0.72241 0.88356 1.13691
 C2359 C 0.74396 0.89352 1.10667
 C2360 C 0.76015 0.90036 1.09982
 C2361 C 0.77967 0.90841 1.09201
 C2362 C 0.78314 0.91005 1.07043
 C2363 C 0.80226 0.91761 1.06292
 C2364 C 0.81814 0.92365 1.07693
 C2365 C 0.81446 0.92199 1.09859
 C2366 C 0.79535 0.91442 1.10606
 H2367 H 0.71043 0.87994 1.08506
 H2368 H 0.67799 0.86546 1.09969
 H2369 H 0.70267 0.87374 1.16214
 H2370 H 0.73481 0.88854 1.14735
 H2371 H 0.77109 0.90546 1.05942
 H2372 H 0.80456 0.91892 1.04617
 H2373 H 0.82648 0.92620 1.10976
 H2374 H 0.79286 0.91312 1.12279
 C2375 C 0.72445 0.38451 0.61503
 C2376 C 0.71068 0.39712 0.62640
 C2377 C 0.69239 0.38862 0.63488
 C2378 C 0.68741 0.36719 0.63216
 C2379 C 0.70157 0.35477 0.62044
 C2380 C 0.71983 0.36336 0.61204
 C2381 C 0.74355 0.39311 0.60675
 C2382 C 0.75970 0.40012 0.59997
 C2383 C 0.77916 0.40829 0.59210
 C2384 C 0.79489 0.41431 0.60609
 C2385 C 0.81396 0.42190 0.59855
 C2386 C 0.81757 0.42356 0.57687
 C2387 C 0.80164 0.41750 0.56292
 C2388 C 0.78256 0.40992 0.57051
 H2389 H 0.71405 0.41359 0.62869
 H2390 H 0.68191 0.39922 0.64292
 H2391 H 0.69928 0.33813 0.61845
 H2392 H 0.73052 0.35339 0.60343
 H2393 H 0.79247 0.41301 0.62283
 H2394 H 0.82602 0.42613 0.60967
 H2395 H 0.80388 0.41880 0.54616
 H2396 H 0.77048 0.40530 0.55954
 C2397 C 0.22445 0.88455 0.61473
 C2398 C 0.21060 0.89715 0.62602
 C2399 C 0.19234 0.88861 0.63452
 C2400 C 0.18746 0.86714 0.63190
 C2401 C 0.20167 0.85474 0.62023
 C2402 C 0.21991 0.86337 0.61181
 C2403 C 0.24354 0.89320 0.60650
 C2404 C 0.25968 0.90027 0.59977
 C2405 C 0.27913 0.90852 0.59198
 C2406 C 0.29476 0.91466 0.60603
 C2407 C 0.31384 0.92231 0.59856
 C2408 C 0.31755 0.92390 0.57689
 C2409 C 0.30170 0.91775 0.56288
 C2410 C 0.28261 0.91012 0.57040
 H2411 H 0.21390 0.91364 0.62825
 H2412 H 0.18180 0.89919 0.64249
 H2413 H 0.19946 0.83807 0.61830
 H2414 H 0.23066 0.85341 0.60325
 H2415 H 0.29227 0.91340 0.62276
 H2416 H 0.32584 0.92661 0.60973
 H2417 H 0.30401 0.91901 0.54613
 H2418 H 0.27061 0.90541 0.55939
 C2419 C 0.22537 0.38438 1.11572
 C2420 C 0.20928 0.39760 1.12255
 C2421 C 0.19093 0.38913 1.13095
 C2422 C 0.18843 0.36731 1.13260
 C2423 C 0.20469 0.35416 1.12563
 C2424 C 0.22301 0.36266 1.11726
 C2425 C 0.24443 0.39302 1.10742
 C2426 C 0.26056 0.40006 1.10062
 C2427 C 0.28000 0.40826 1.09273
 C2428 C 0.29571 0.41436 1.10671
 C2429 C 0.31476 0.42198 1.09915
 C2430 C 0.31836 0.42360 1.07747
 C2431 C 0.30245 0.41747 1.06353
 C2432 C 0.28338 0.40985 1.07113
 H2433 H 0.21095 0.41444 1.12142
 H2434 H 0.17860 0.39964 1.13598
 H2435 H 0.20337 0.33732 1.12698
 H2436 H 0.23541 0.35228 1.11211
 H2437 H 0.29329 0.41309 1.12345
 H2438 H 0.32681 0.42627 1.11026
 H2439 H 0.30468 0.41874 1.04677
 H2440 H 0.27132 0.40517 1.06018
 C2441 C 0.72476 1.11509 0.88470
 C2442 C 0.72017 1.11225 0.86351
 C2443 C 0.70190 1.12067 0.85496
 C2444 C 0.68770 1.13226 0.86746
 C2445 C 0.69262 1.13478 0.88894
 C2446 C 0.71092 1.12629 0.89739
 C2447 C 0.74386 1.10680 0.89325
 C2448 C 0.76003 1.09994 0.90014
 C2449 C 0.77951 1.09184 0.90799
 C2450 C 0.79521 1.08576 0.89398
 C2451 C 0.81428 1.07813 0.90148
 C2452 C 0.81791 1.07649 0.92315
 C2453 C 0.80201 1.08262 0.93713
 C2454 C 0.78293 1.09024 0.92958
 H2455 H 0.73090 1.10375 0.85348
 H2456 H 0.69962 1.11880 0.83829
 H2457 H 0.68210 1.14267 0.89960
 H2458 H 0.71425 1.12843 0.91389
 H2459 H 0.79276 1.08702 0.87724
 H2460 H 0.82631 1.07385 0.89033
 H2461 H 0.80428 1.08133 0.95389
 H2462 H 0.77088 1.09489 0.94057
 C2463 C 0.72554 0.61585 0.38413
 C2464 C 0.70941 0.62256 0.39736
 C2465 C 0.69106 0.63097 0.38890
 C2466 C 0.68862 0.63275 0.36706
 C2467 C 0.70491 0.62589 0.35391
 C2468 C 0.72323 0.61751 0.36240
 C2469 C 0.74457 0.60747 0.39275
 C2470 C 0.76068 0.60052 0.39967
 C2471 C 0.78010 0.59231 0.40756
 C2472 C 0.78345 0.59062 0.42915
 C2473 C 0.80247 0.58288 0.43673
 C2474 C 0.81837 0.57672 0.42278
 C2475 C 0.81481 0.57843 0.40110
 C2476 C 0.79581 0.58618 0.39357
 H2477 H 0.71102 0.62132 0.41420
 H2478 H 0.67870 0.63589 0.39940
 H2479 H 0.70362 0.62732 0.33707
 H2480 H 0.73566 0.61244 0.35202
 H2481 H 0.77138 0.59530 0.44012
 H2482 H 0.80468 0.58154 0.45349
 H2483 H 0.82686 0.57412 0.38998
 H2484 H 0.79341 0.58750 0.37682
 C2485 C 0.22486 1.11540 0.38406
 C2486 C 0.21088 1.12641 0.39677
 C2487 C 0.19255 1.13481 0.38828
 C2488 C 0.18773 1.13235 0.36677
 C2489 C 0.20211 1.12103 0.35425
 C2490 C 0.22041 1.11271 0.36283
 C2491 C 0.24395 1.10711 0.39265
 C2492 C 0.26009 1.10021 0.39955
 C2493 C 0.27953 1.09204 0.40744
 C2494 C 0.28293 1.09047 0.42903
 C2495 C 0.30196 1.08277 0.43661
 C2496 C 0.31784 1.07654 0.42266
 C2497 C 0.31423 1.07814 0.40098
 C2498 C 0.29521 1.08584 0.39345
 H2499 H 0.21412 1.12846 0.41330
 H2500 H 0.18190 1.14256 0.39892
 H2501 H 0.19997 1.11931 0.33755
 H2502 H 0.23127 1.10439 0.35278
 H2503 H 0.27088 1.09520 0.44000
 H2504 H 0.30420 1.08152 0.45337
 H2505 H 0.32626 1.07378 0.38986
 H2506 H 0.29278 1.08708 0.37670
 C2507 C 0.22460 0.61521 0.88558
 C2508 C 0.22225 0.63692 0.88385
 C2509 C 0.20390 0.64534 0.87545
 C2510 C 0.18764 0.63214 0.86865
 C2511 C 0.19011 0.61033 0.87056
 C2512 C 0.20848 0.60194 0.87898
 C2513 C 0.24373 0.60661 0.89378
 C2514 C 0.25990 0.59956 0.90047
 C2515 C 0.27937 0.59132 0.90821
 C2516 C 0.28284 0.58962 0.92979
 C2517 C 0.30194 0.58200 0.93726
 C2518 C 0.31782 0.57597 0.92323
 C2519 C 0.31413 0.57766 0.90157
 C2520 C 0.29504 0.58529 0.89414
 H2521 H 0.23467 0.64733 0.88882
 H2522 H 0.20260 0.66217 0.87390
 H2523 H 0.17777 0.59979 0.86568
 H2524 H 0.21014 0.58511 0.88027
 H2525 H 0.27081 0.59423 0.94082
 H2526 H 0.30424 0.58067 0.95401
 H2527 H 0.32615 0.57344 0.89038
 H2528 H 0.29255 0.58663 0.87741
 C2529 C 1.11585 1.27522 1.11515
 C2530 C 1.13755 1.27733 1.11709
 C2531 C 1.14609 1.29559 1.12557
 C2532 C 1.13301 1.31201 1.13224
 C2533 C 1.11120 1.30980 1.13012
 C2534 C 1.10269 1.29150 1.12162
 C2535 C 1.10717 1.25621 1.10675
 C2536 C 1.10020 1.24011 1.09981
 C2537 C 1.09225 1.22068 1.09164
 C2538 C 1.10619 1.20493 1.08553
 C2539 C 1.09861 1.18590 1.07786
 C2540 C 1.07694 1.18237 1.07619
 C2541 C 1.06304 1.19833 1.08233
 C2542 C 1.07067 1.21737 1.09000
 H2543 H 1.14787 1.26478 1.11220
 H2544 H 1.16291 1.29673 1.12724
 H2545 H 1.10075 1.32228 1.13487
 H2546 H 1.08586 1.29004 1.12014
 H2547 H 1.12293 1.20730 1.08682
 H2548 H 1.10969 1.17382 1.07356
 H2549 H 1.04629 1.19614 1.08103
 H2550 H 1.05975 1.22948 1.09467
 C2551 C 1.11565 0.77480 0.61538
 C2552 C 1.12189 0.79109 0.60213
 C2553 C 1.13033 0.80946 0.61054
 C2554 C 1.13263 0.81174 0.63234
 C2555 C 1.12621 0.79531 0.64552
 C2556 C 1.11779 0.77697 0.63708
 C2557 C 1.10728 0.75574 0.60680
 C2558 C 1.10035 0.73960 0.59990
 C2559 C 1.09218 0.72014 0.59204
 C2560 C 1.09048 0.71674 0.57045
 C2561 C 1.08281 0.69767 0.56290
 C2562 C 1.07672 0.68177 0.57688
 C2563 C 1.07846 0.68538 0.59855
 C2564 C 1.08613 0.70443 0.60605
 H2565 H 1.12026 0.78959 0.58531
 H2566 H 1.13490 0.82194 0.60003
 H2567 H 1.12803 0.79650 0.66234
 H2568 H 1.11307 0.76442 0.64747
 H2569 H 1.09510 0.72881 0.55947
 H2570 H 1.08145 0.69543 0.54615
 H2571 H 1.07421 0.67334 0.60969
 H2572 H 1.08748 0.70686 0.62279
 C2573 C 0.61535 1.27521 0.61500
 C2574 C 0.62165 1.29154 0.60184
 C2575 C 0.63011 1.30986 0.61035
 C2576 C 0.63235 1.31203 0.63217
 C2577 C 0.62586 1.29556 0.64526
 C2578 C 0.61743 1.27728 0.63671
 C2579 C 0.60699 1.25619 0.60632
 C2580 C 0.60007 1.24007 0.59937
 C2581 C 0.59191 1.22062 0.59148
 C2582 C 0.59027 1.21723 0.56989
 C2583 C 0.58259 1.19817 0.56231
 C2584 C 0.57645 1.18228 0.57628
 C2585 C 0.57812 1.18589 0.59795
 C2586 C 0.58580 1.20493 0.60548
 H2587 H 0.62007 1.29011 0.58500
 H2588 H 0.63473 1.32238 0.59991
 H2589 H 0.62763 1.29667 0.66209
 H2590 H 0.61266 1.26469 0.64704
 H2591 H 0.59494 1.22929 0.55892
 H2592 H 0.58128 1.19592 0.54556
 H2593 H 0.57383 1.17385 0.60909
 H2594 H 0.58710 1.20736 0.62222
 C2595 C 0.61525 0.77594 1.11467
 C2596 C 0.60204 0.79205 1.12143
 C2597 C 0.61051 0.81043 1.12979
 C2598 C 0.63232 0.81291 1.13148
 C2599 C 0.64546 0.79663 1.12455
 C2600 C 0.63696 0.77828 1.11621
 C2601 C 0.60663 0.75685 1.10640
 C2602 C 0.59970 0.74068 1.09956
 C2603 C 0.59180 0.72119 1.09149
 C2604 C 0.57023 0.71782 1.08987
 C2605 C 0.56264 0.69873 1.08229
 C2606 C 0.57658 0.68278 1.07621
 C2607 C 0.59824 0.68637 1.07786
 C2608 C 0.60578 0.70544 1.08545
 H2609 H 0.58521 0.79040 1.12028
 H2610 H 0.60001 0.82277 1.13479
 H2611 H 0.66229 0.79793 1.12593
 H2612 H 0.64733 0.76586 1.11110
 H2613 H 0.55928 0.72992 1.09449
 H2614 H 0.54590 0.69649 1.08099
 H2615 H 0.60936 0.67429 1.07362
 H2616 H 0.62251 0.70786 1.08673
 C2617 C 0.88421 1.27485 0.88424
 C2618 C 0.89737 1.29100 0.87748
 C2619 C 0.88884 1.30938 0.86919
 C2620 C 0.86701 1.31181 0.86757
 C2621 C 0.85393 1.29550 0.87449
 C2622 C 0.86250 1.27715 0.88276
 C2623 C 0.89290 1.25578 0.89248
 C2624 C 0.89987 1.23964 0.89933
 C2625 C 0.90779 1.22018 0.90743
 C2626 C 0.92937 1.21682 0.90904
 C2627 C 0.93698 1.19777 0.91669
 C2628 C 0.92306 1.18185 0.92285
 C2629 C 0.90140 1.18542 0.92120
 C2630 C 0.89384 1.20445 0.91354
 H2631 H 0.91421 1.28939 0.87859
 H2632 H 0.89929 1.32176 0.86421
 H2633 H 0.83709 1.29679 0.87319
 H2634 H 0.85217 1.26471 0.88787
 H2635 H 0.94031 1.22891 0.90437
 H2636 H 0.95373 1.19555 0.91798
 H2637 H 0.89030 1.17336 0.92551
 H2638 H 0.87710 1.20686 0.91228
 C2639 C 0.88455 0.77453 0.38378
 C2640 C 0.86283 0.77686 0.38238
 C2641 C 0.85425 0.79521 0.37413
 C2642 C 0.86731 0.81152 0.36717
 C2643 C 0.88914 0.80905 0.36869
 C2644 C 0.89769 0.79067 0.37695
 C2645 C 0.89325 0.75548 0.39207
 C2646 C 0.90022 0.73936 0.39896
 C2647 C 0.90817 0.71992 0.40712
 C2648 C 0.89423 0.70420 0.41329
 C2649 C 0.90180 0.68520 0.42102
 C2650 C 0.92347 0.68166 0.42270
 C2651 C 0.93737 0.69757 0.41649
 C2652 C 0.92975 0.71659 0.40876
 H2653 H 0.85251 0.76443 0.38754
 H2654 H 0.83740 0.79651 0.37289
 H2655 H 0.89959 0.82142 0.36366
 H2656 H 0.91453 0.78904 0.37800
 H2657 H 0.87749 0.70658 0.41200
 H2658 H 0.89071 0.67315 0.42536
 H2659 H 0.95412 0.69538 0.41780
 H2660 H 0.94068 0.72867 0.40406
 C2661 C 0.38423 1.27479 0.38308
 C2662 C 0.39743 1.29100 0.37651
 C2663 C 0.38894 1.30945 0.36831
 C2664 C 0.36712 1.31190 0.36659
 C2665 C 0.35401 1.29550 0.37326
 C2666 C 0.36253 1.27709 0.38144
 C2667 C 0.39287 1.25572 0.39139
 C2668 C 0.39980 1.23959 0.39833
 C2669 C 0.40769 1.22017 0.40657
 C2670 C 0.42927 1.21681 0.40826
 C2671 C 0.43685 1.19781 0.41606
 C2672 C 0.42292 1.18192 0.42228
 C2673 C 0.40126 1.18549 0.42056
 C2674 C 0.39372 1.20448 0.41275
 H2675 H 0.41426 1.28940 0.37775
 H2676 H 0.39941 1.32188 0.36351
 H2677 H 0.33717 1.29680 0.37186
 H2678 H 0.35217 1.26461 0.38640
 H2679 H 0.44022 1.22887 0.40355
 H2680 H 0.45360 1.19560 0.41741
 H2681 H 0.39015 1.17346 0.42491
 H2682 H 0.37699 1.20688 0.41143
 C2683 C 0.38424 0.77501 0.88431
 C2684 C 0.36253 0.77735 0.88268
 C2685 C 0.35406 0.79572 0.87438
 C2686 C 0.36720 0.81202 0.86756
 C2687 C 0.38901 0.80955 0.86932
 C2688 C 0.39746 0.79115 0.87765
 C2689 C 0.39284 0.75592 0.89261
 C2690 C 0.39975 0.73977 0.89950
 C2691 C 0.40762 0.72030 0.90763
 C2692 C 0.39364 0.70459 0.91371
 C2693 C 0.40117 0.68554 0.92138
 C2694 C 0.42282 0.68194 0.92306
 C2695 C 0.43677 0.69786 0.91695
 C2696 C 0.42920 0.71692 0.90929
 H2697 H 0.35216 0.76492 0.88772
 H2698 H 0.33722 0.79704 0.87297
 H2699 H 0.39952 0.82191 0.86442
 H2700 H 0.41429 0.78950 0.87886
 H2701 H 0.37691 0.70701 0.91241
 H2702 H 0.39005 0.67349 0.92565
 H2703 H 0.45351 0.69562 0.91827
 H2704 H 0.44016 0.72900 0.90465
 C2705 C 1.11509 0.72449 0.88466
 C2706 C 1.11685 0.72206 0.86296
 C2707 C 1.12518 0.70365 0.85458
 C2708 C 1.13190 0.68739 0.86783
 C2709 C 1.12998 0.68993 0.88964
 C2710 C 1.12162 0.70837 0.89799
 C2711 C 1.10685 0.74364 0.89319
 C2712 C 1.10003 0.75984 0.90006
 C2713 C 1.09200 0.77937 0.90793
 C2714 C 1.08599 0.79508 0.89391
 C2715 C 1.07840 0.81418 0.90143
 C2716 C 1.07672 0.81782 0.92310
 C2717 C 1.08278 0.80191 0.93707
 C2718 C 1.09036 0.78280 0.92951
 H2719 H 1.11192 0.73448 0.85251
 H2720 H 1.12674 0.70229 0.83775
 H2721 H 1.13480 0.67760 0.90022
 H2722 H 1.12030 0.71008 0.91482
 H2723 H 1.08728 0.79262 0.87717
 H2724 H 1.07417 0.82623 0.89028
 H2725 H 1.08147 0.80417 0.95383
 H2726 H 1.09495 0.77072 0.94050
 C2727 C 1.11637 0.22476 0.38428
 C2728 C 1.12306 0.20859 0.39746
 C2729 C 1.13142 0.19022 0.38894
 C2730 C 1.13318 0.18782 0.36709
 C2731 C 1.12638 0.20417 0.35400
 C2732 C 1.11804 0.22250 0.36255
 C2733 C 1.10794 0.24377 0.39296
 C2734 C 1.10091 0.25985 0.39991
 C2735 C 1.09260 0.27924 0.40783
 C2736 C 1.09084 0.28256 0.42943
 C2737 C 1.08301 0.30154 0.43704
 C2738 C 1.07682 0.31745 0.42311
 C2739 C 1.07860 0.31392 0.40143
 C2740 C 1.08643 0.29494 0.39387
 H2741 H 1.12181 0.21017 0.41431
 H2742 H 1.13632 0.17782 0.39940
 H2743 H 1.12780 0.20291 0.33715
 H2744 H 1.11298 0.23496 0.35221
 H2745 H 1.09554 0.27049 0.44037
 H2746 H 1.08162 0.30373 0.45380
 H2747 H 1.07428 0.32597 0.39032
 H2748 H 1.08781 0.29257 0.37712
 C2749 C 0.61609 0.72511 0.38437
 C2750 C 0.63779 0.72288 0.38252
 C2751 C 0.64629 0.70456 0.37411
 C2752 C 0.63317 0.68818 0.36742
 C2753 C 0.61137 0.69054 0.36938
 C2754 C 0.60289 0.70890 0.37781
 C2755 C 0.60744 0.74413 0.39280
 C2756 C 0.60048 0.76023 0.39979
 C2757 C 0.59250 0.77962 0.40804
 C2758 C 0.60639 0.79539 0.41419
 C2759 C 0.59876 0.81437 0.42195
 C2760 C 0.57708 0.81785 0.42366
 C2761 C 0.56323 0.80187 0.41749
 C2762 C 0.57091 0.78288 0.40974
 H2763 H 0.64814 0.73537 0.38747
 H2764 H 0.66312 0.70334 0.37252
 H2765 H 0.60089 0.67812 0.36455
 H2766 H 0.58606 0.71045 0.37919
 H2767 H 0.62313 0.79306 0.41286
 H2768 H 0.60981 0.82647 0.42626
 H2769 H 0.54647 0.80401 0.41883
 H2770 H 0.56001 0.77076 0.40505
 C2771 C 0.61618 0.22500 0.88445
 C2772 C 0.60295 0.20882 0.87789
 C2773 C 0.61138 0.19042 0.86952
 C2774 C 0.63319 0.18798 0.86763
 C2775 C 0.64634 0.20434 0.87429
 C2776 C 0.63788 0.22271 0.88264
 C2777 C 0.60758 0.24406 0.89285
 C2778 C 0.60067 0.26018 0.89983
 C2779 C 0.59274 0.27960 0.90807
 C2780 C 0.57116 0.28292 0.90976
 C2781 C 0.56353 0.30194 0.91750
 C2782 C 0.57743 0.31788 0.92366
 C2783 C 0.59910 0.31434 0.92197
 C2784 C 0.60668 0.29533 0.91422
 H2785 H 0.58612 0.21043 0.87924
 H2786 H 0.60088 0.17802 0.86470
 H2787 H 0.66317 0.20307 0.87272
 H2788 H 0.64826 0.23518 0.88757
 H2789 H 0.56023 0.27083 0.90507
 H2790 H 0.54678 0.30412 0.91883
 H2791 H 0.61018 0.32641 0.92628
 H2792 H 0.62341 0.29296 0.91290
 C2793 C 0.88437 0.72546 1.11683
 C2794 C 0.86266 0.72322 1.11853
 C2795 C 0.85412 0.70487 1.12680
 C2796 C 0.86720 0.68846 1.13349
 C2797 C 0.88902 0.69085 1.13172
 C2798 C 0.89754 0.70923 1.12342
 C2799 C 0.89305 0.74448 1.10844
 C2800 C 0.90000 0.76057 1.10144
 C2801 C 0.90792 0.77995 1.09315
 C2802 C 0.89398 0.79566 1.08695
 C2803 C 0.90155 0.81462 1.07911
 C2804 C 0.92322 0.81814 1.07736
 C2805 C 0.93712 0.80223 1.08359
 C2806 C 0.92950 0.78326 1.09143
 H2807 H 0.85233 0.73571 1.11355
 H2808 H 0.83728 0.70363 1.12825
 H2809 H 0.89947 0.67841 1.13654
 H2810 H 0.91437 0.71079 1.12214
 H2811 H 0.87725 0.79330 1.08829
 H2812 H 0.89046 0.82667 1.07475
 H2813 H 0.95387 0.80440 1.08223
 H2814 H 0.94043 0.77119 1.09615
 C2815 C 0.88313 0.22560 0.61639
 C2816 C 0.89628 0.20927 0.62274
 C2817 C 0.88776 0.19097 0.63122
 C2818 C 0.86596 0.18879 0.63345
 C2819 C 0.85289 0.20527 0.62691
 C2820 C 0.86143 0.22354 0.61846
 C2821 C 0.89183 0.24459 0.60795
 C2822 C 0.89883 0.26065 0.60095
 C2823 C 0.90685 0.28002 0.59270
 C2824 C 0.92845 0.28324 0.59103
 C2825 C 0.93616 0.30221 0.58327
 C2826 C 0.92233 0.31819 0.57707
 C2827 C 0.90064 0.31475 0.57877
 C2828 C 0.89298 0.29580 0.58653
 H2829 H 0.91310 0.21069 0.62117
 H2830 H 0.89820 0.17845 0.63586
 H2831 H 0.83607 0.20415 0.62866
 H2832 H 0.85112 0.23611 0.61365
 H2833 H 0.93932 0.27111 0.59574
 H2834 H 0.95292 0.30431 0.58195
 H2835 H 0.88961 0.32686 0.57443
 H2836 H 0.87623 0.29350 0.58785
 C2837 C 0.38427 0.72525 0.61614
 C2838 C 0.36255 0.72283 0.61752
 C2839 C 0.35405 0.70444 0.62574
 C2840 C 0.36717 0.68818 0.63271
 C2841 C 0.38899 0.69074 0.63121
 C2842 C 0.39747 0.70916 0.62297
 C2843 C 0.39290 0.74435 0.60788
 C2844 C 0.39981 0.76050 0.60101
 C2845 C 0.40769 0.77997 0.59287
 C2846 C 0.39370 0.79567 0.58676
 C2847 C 0.40122 0.81470 0.57905
 C2848 C 0.42287 0.81830 0.57735
 C2849 C 0.43683 0.80241 0.58351
 C2850 C 0.42926 0.78336 0.59122
 H2851 H 0.35219 0.73522 0.61236
 H2852 H 0.33720 0.70308 0.62697
 H2853 H 0.39948 0.67841 0.63624
 H2854 H 0.41431 0.71086 0.62194
 H2855 H 0.37697 0.79324 0.58806
 H2856 H 0.39009 0.82674 0.57474
 H2857 H 0.45357 0.80464 0.58218
 H2858 H 0.44023 0.77130 0.59588
 C2859 C 0.38420 0.22556 1.11616
 C2860 C 0.39734 0.20918 1.12239
 C2861 C 0.38881 0.19083 1.13074
 C2862 C 0.36701 0.18864 1.13294
 C2863 C 0.35395 0.20515 1.12649
 C2864 C 0.36250 0.22348 1.11817
 C2865 C 0.39292 0.24463 1.10793
 C2866 C 0.39993 0.26077 1.10112
 C2867 C 0.40794 0.28022 1.09307
 C2868 C 0.42953 0.28351 1.09151
 C2869 C 0.43722 0.30254 1.08387
 C2870 C 0.42336 0.31851 1.07768
 C2871 C 0.40169 0.31501 1.07932
 C2872 C 0.39405 0.29600 1.08696
 H2873 H 0.41416 0.21062 1.12086
 H2874 H 0.39925 0.17828 1.13531
 H2875 H 0.33713 0.20403 1.12824
 H2876 H 0.35219 0.23609 1.11346
 H2877 H 0.44042 0.27138 1.09618
 H2878 H 0.45398 0.30470 1.08259
 H2879 H 0.39063 0.32711 1.07499
 H2880 H 0.37730 0.29366 1.08820
 C2881 C 1.11529 1.11437 0.72400
 C2882 C 1.13696 1.11659 0.72175
 C2883 C 1.14530 1.12499 0.70335
 C2884 C 1.13205 1.13131 0.68694
 C2885 C 1.11029 1.12887 0.68929
 C2886 C 1.10198 1.12045 0.70771
 C2887 C 1.10679 1.10613 0.74316
 C2888 C 1.09991 1.09936 0.75938
 C2889 C 1.09203 1.09139 0.77891
 C2890 C 1.10600 1.08546 0.79469
 C2891 C 1.09847 1.07795 0.81380
 C2892 C 1.07682 1.07628 0.81740
 C2893 C 1.06287 1.08226 0.80144
 C2894 C 1.07045 1.08976 0.78231
 H2895 H 1.14740 1.11199 0.73430
 H2896 H 1.16209 1.12692 0.70211
 H2897 H 1.09972 1.13336 0.67682
 H2898 H 1.08518 1.11876 0.70928
 H2899 H 1.12273 1.08675 0.79225
 H2900 H 1.10959 1.07378 0.82589
 H2901 H 1.04613 1.08094 0.80368
 H2902 H 1.05949 1.09430 0.77019
 C2903 C 1.11580 0.61552 0.22477
 C2904 C 1.12718 0.60298 0.21093
 C2905 C 1.13560 0.61155 0.19263
 C2906 C 1.13280 0.63298 0.18771
 C2907 C 1.12110 0.64533 0.20194
 C2908 C 1.11275 0.63667 0.22021
 C2909 C 1.10755 0.60682 0.24384
 C2910 C 1.10076 0.59973 0.25997
 C2911 C 1.09286 0.59147 0.27938
 C2912 C 1.10680 0.58533 0.29512
 C2913 C 1.09921 0.57767 0.31416
 C2914 C 1.07754 0.57606 0.31773
 C2915 C 1.06365 0.58221 0.30178
 C2916 C 1.07128 0.58986 0.28274
 H2917 H 1.12952 0.58651 0.21425
 H2918 H 1.14365 0.60101 0.18210
 H2919 H 1.11905 0.66198 0.19966
 H2920 H 1.10413 0.64659 0.23095
 H2921 H 1.12353 0.58660 0.29273
 H2922 H 1.11030 0.57336 0.32623
 H2923 H 1.04689 0.58095 0.30399
 H2924 H 1.06035 0.59457 0.27065
 C2925 C 0.61594 1.11643 0.22507
 C2926 C 0.63765 1.11811 0.22282
 C2927 C 0.64619 1.12653 0.20453
 C2928 C 0.63311 1.13341 0.18820
 C2929 C 0.61129 1.13166 0.19060
 C2930 C 0.60277 1.12321 0.20892
 C2931 C 0.60727 1.10790 0.24404
 C2932 C 0.60032 1.10079 0.26009
 C2933 C 0.59238 1.09239 0.27943
 C2934 C 0.60630 1.08618 0.29515
 C2935 C 0.59870 1.07830 0.31409
 C2936 C 0.57703 1.07654 0.31758
 C2937 C 0.56315 1.08276 0.30165
 C2938 C 0.57079 1.09063 0.28269
 H2939 H 0.64798 1.11299 0.23525
 H2940 H 0.66303 1.12795 0.20328
 H2941 H 0.60083 1.13662 0.17822
 H2942 H 0.58594 1.12196 0.21050
 H2943 H 0.62304 1.08756 0.29281
 H2944 H 0.60977 1.07395 0.32616
 H2945 H 0.54640 1.08138 0.30379
 H2946 H 0.55988 1.09537 0.27061
 C2947 C 0.61576 0.61563 0.72481
 C2948 C 0.63747 0.61718 0.72245
 C2949 C 0.64597 0.62555 0.70412
 C2950 C 0.63285 0.63252 0.68787
 C2951 C 0.61103 0.63084 0.69036
 C2952 C 0.60256 0.62244 0.70872
 C2953 C 0.60713 0.60729 0.74387
 C2954 C 0.60018 0.60038 0.76000
 C2955 C 0.59223 0.59222 0.77944
 C2956 C 0.60616 0.58613 0.79520
 C2957 C 0.59857 0.57844 0.81422
 C2958 C 0.57691 0.57675 0.81775
 C2959 C 0.56301 0.58288 0.80179
 C2960 C 0.57065 0.59056 0.78276
 H2961 H 0.64784 0.61203 0.73485
 H2962 H 0.66281 0.62692 0.70281
 H2963 H 0.60054 0.63587 0.67803
 H2964 H 0.58572 0.62130 0.71038
 H2965 H 0.62290 0.58744 0.79283
 H2966 H 0.60966 0.57416 0.82630
 H2967 H 0.54626 0.58155 0.80398
 H2968 H 0.55973 0.59521 0.77065
 C2969 C 0.88393 0.88430 0.72491
 C2970 C 0.87705 0.89751 0.70885
 C2971 C 0.86866 0.88903 0.69048
 C2972 C 0.86706 0.86719 0.68797
 C2973 C 0.87407 0.85407 0.70421
 C2974 C 0.88244 0.86258 0.72254
 C2975 C 0.89235 0.89293 0.74394
 C2976 C 0.89935 0.89984 0.76005
 C2977 C 0.90762 0.90772 0.77947
 C2978 C 0.90932 0.92930 0.78284
 C2979 C 0.91709 0.93688 0.80186
 C2980 C 0.92326 0.92292 0.81775
 C2981 C 0.92155 0.90126 0.81416
 C2982 C 0.91377 0.89373 0.79515
 H2983 H 0.87817 0.91435 0.71052
 H2984 H 0.86360 0.89952 0.67817
 H2985 H 0.87276 0.83722 0.70288
 H2986 H 0.88763 0.85221 0.73491
 H2987 H 0.90463 0.94027 0.77078
 H2988 H 0.91843 0.95363 0.80409
 H2989 H 0.92587 0.89013 0.82620
 H2990 H 0.91244 0.87699 0.79273
 C2991 C 0.88470 0.38504 0.22421
 C2992 C 0.86355 0.38799 0.21964
 C2993 C 0.85495 0.37961 0.20135
 C2994 C 0.86736 0.36797 0.18713
 C2995 C 0.88880 0.36530 0.19205
 C2996 C 0.89731 0.37375 0.21036
 C2997 C 0.89332 0.39325 0.24334
 C2998 C 0.90035 0.39997 0.25951
 C2999 C 0.90854 0.40776 0.27900
 C3000 C 0.91022 0.42933 0.28246
 C3001 C 0.91779 0.43685 0.30158
 C3002 C 0.92380 0.42285 0.31749
 C3003 C 0.92211 0.40119 0.31382
 C3004 C 0.91453 0.39372 0.29471
 H3005 H 0.85358 0.39654 0.23038
 H3006 H 0.83830 0.38157 0.19910
 H3007 H 0.89939 0.35733 0.18151
 H3008 H 0.91378 0.37150 0.21369
 H3009 H 0.90563 0.44033 0.27040
 H3010 H 0.91912 0.45360 0.30387
 H3011 H 0.92631 0.39003 0.32586
 H3012 H 0.91320 0.37699 0.29224
 C3013 C 0.38448 0.88489 0.22450
 C3014 C 0.36333 0.88784 0.21993
 C3015 C 0.35473 0.87948 0.20164
 C3016 C 0.36714 0.86784 0.18740
 C3017 C 0.38859 0.86519 0.19232
 C3018 C 0.39710 0.87362 0.21064
 C3019 C 0.39311 0.89308 0.24363
 C3020 C 0.40014 0.89978 0.25982
 C3021 C 0.40834 0.90756 0.27930
 C3022 C 0.41001 0.92914 0.28276
 C3023 C 0.41758 0.93665 0.30188
 C3024 C 0.42359 0.92266 0.31780
 C3025 C 0.42191 0.90100 0.31412
 C3026 C 0.41433 0.89352 0.29500
 H3027 H 0.35336 0.89637 0.23069
 H3028 H 0.33808 0.88143 0.19939
 H3029 H 0.39918 0.85723 0.18177
 H3030 H 0.41357 0.87137 0.21396
 H3031 H 0.40542 0.94014 0.27070
 H3032 H 0.41891 0.95340 0.30417
 H3033 H 0.42611 0.88984 0.32617
 H3034 H 0.41300 0.87680 0.29253
 C3035 C 0.38431 0.38438 0.72493
 C3036 C 0.36261 0.38259 0.72271
 C3037 C 0.35410 0.37420 0.70439
 C3038 C 0.36721 0.36748 0.68800
 C3039 C 0.38902 0.36940 0.69034
 C3040 C 0.39750 0.37781 0.70870
 C3041 C 0.39300 0.39266 0.74400
 C3042 C 0.40008 0.39944 0.76013
 C3043 C 0.40835 0.40730 0.77956
 C3044 C 0.41000 0.42889 0.78294
 C3045 C 0.41765 0.43649 0.80200
 C3046 C 0.42376 0.42255 0.81793
 C3047 C 0.42210 0.40088 0.81433
 C3048 C 0.41445 0.39333 0.79528
 H3049 H 0.35227 0.38753 0.73522
 H3050 H 0.33727 0.37263 0.70318
 H3051 H 0.39949 0.36456 0.67791
 H3052 H 0.41433 0.37914 0.71025
 H3053 H 0.40533 0.43985 0.77086
 H3054 H 0.41895 0.45324 0.80423
 H3055 H 0.42638 0.38977 0.82639
 H3056 H 0.41314 0.37659 0.79286
 C3057 C 1.11597 0.88477 1.27509
 C3058 C 1.13716 0.88740 1.27968
 C3059 C 1.14563 0.87890 1.29796
 C3060 C 1.13305 0.86743 1.31216
 C3061 C 1.11157 0.86511 1.30723
 C3062 C 1.10319 0.87369 1.28892
 C3063 C 1.10747 0.89315 1.25598
 C3064 C 1.10058 0.90007 1.23983
 C3065 C 1.09266 0.90822 1.22038
 C3066 C 1.10660 0.91435 1.20464
 C3067 C 1.09902 0.92200 1.18560
 C3068 C 1.07736 0.92361 1.18204
 C3069 C 1.06345 0.91745 1.19799
 C3070 C 1.07108 0.90981 1.21704
 H3071 H 1.14725 0.89581 1.26894
 H3072 H 1.16230 0.88061 1.30023
 H3073 H 1.10084 0.85734 1.31776
 H3074 H 1.08668 0.87170 1.28560
 H3075 H 1.12334 0.91309 1.20703
 H3076 H 1.11011 0.92631 1.17353
 H3077 H 1.04670 0.91872 1.19579
 H3078 H 1.06015 0.90513 1.22913
 C3079 C 1.11603 0.38381 0.77504
 C3080 C 1.10345 0.37265 0.78899
 C3081 C 1.11202 0.36427 0.80731
 C3082 C 1.13349 0.36688 0.81212
 C3083 C 1.14588 0.37840 0.79779
 C3084 C 1.13721 0.38670 0.77950
 C3085 C 1.10734 0.39206 0.75595
 C3086 C 1.10035 0.39891 0.73982
 C3087 C 1.09236 0.40703 0.72038
 C3088 C 1.07077 0.40868 0.71712
 C3089 C 1.06309 0.41639 0.69811
 C3090 C 1.07694 0.42257 0.68213
 C3091 C 1.09862 0.42087 0.68560
 C3092 C 1.10625 0.41315 0.70460
 H3093 H 1.08695 0.37046 0.78576
 H3094 H 1.10144 0.35641 0.81793
 H3095 H 1.16254 0.38031 0.79996
 H3096 H 1.14716 0.39517 0.76868
 H3097 H 1.05987 0.40401 0.72925
 H3098 H 1.04633 0.41771 0.69598
 H3099 H 1.10968 0.42519 0.67350
 H3100 H 1.12300 0.41186 0.70692
 C3101 C 0.61519 0.88496 0.77549
 C3102 C 0.61686 0.86324 0.77780
 C3103 C 0.62522 0.85476 0.79615
 C3104 C 0.63204 0.86791 0.81245
 C3105 C 0.63023 0.88973 0.81002
 C3106 C 0.62184 0.89819 0.79164
 C3107 C 0.60687 0.89358 0.75642
 C3108 C 0.59998 0.90051 0.74027
 C3109 C 0.59185 0.90842 0.72081
 C3110 C 0.58574 0.89445 0.70508
 C3111 C 0.57807 0.90199 0.68604
 C3112 C 0.57640 0.92366 0.68247
 C3113 C 0.58255 0.93760 0.69839
 C3114 C 0.59022 0.93001 0.71745
 H3115 H 0.61183 0.85286 0.76536
 H3116 H 0.62669 0.83792 0.79742
 H3117 H 0.63513 0.90024 0.82239
 H3118 H 0.62059 0.91502 0.79002
 H3119 H 0.58703 0.87770 0.70749
 H3120 H 0.57377 0.89088 0.67398
 H3121 H 0.58125 0.95436 0.69618
 H3122 H 0.59488 0.94096 0.72953
 C3123 C 0.61597 0.38440 1.27522
 C3124 C 0.62733 0.39691 1.28910
 C3125 C 0.63578 0.38828 1.30735
 C3126 C 0.63303 0.36682 1.31219
 C3127 C 0.62135 0.35450 1.29792
 C3128 C 0.61298 0.36322 1.27970
 C3129 C 0.60768 0.39315 1.25620
 C3130 C 0.60086 0.40029 1.24011
 C3131 C 0.59291 0.40859 1.22074
 C3132 C 0.60681 0.41477 1.20498
 C3133 C 0.59918 0.42246 1.18597
 C3134 C 0.57750 0.42406 1.18246
 C3135 C 0.56365 0.41786 1.19843
 C3136 C 0.57132 0.41018 1.21744
 H3137 H 0.62963 0.41339 1.28584
 H3138 H 0.64381 0.39879 1.31791
 H3139 H 0.61935 0.33784 1.30014
 H3140 H 0.60438 0.35333 1.26893
 H3141 H 0.62356 0.41351 1.20733
 H3142 H 0.61024 0.42680 1.17388
 H3143 H 0.54689 0.41911 1.19627
 H3144 H 0.56042 0.40544 1.22954
 C3145 C 0.88477 1.11545 1.27533
 C3146 C 0.88321 1.13716 1.27779
 C3147 C 0.87483 1.14557 1.29617
 C3148 C 0.86789 1.13236 1.31237
 C3149 C 0.86957 1.11054 1.30978
 C3150 C 0.87798 1.10216 1.29136
 C3151 C 0.89314 1.10691 1.25623
 C3152 C 0.90008 1.10006 1.24007
 C3153 C 0.90826 1.09223 1.22059
 C3154 C 0.91424 1.10625 1.20486
 C3155 C 0.92192 1.09877 1.18579
 C3156 C 0.92371 1.07711 1.18218
 C3157 C 0.91771 1.06312 1.19810
 C3158 C 0.91004 1.07065 1.21719
 H3159 H 0.88834 1.14759 1.26544
 H3160 H 0.87344 1.16241 1.29756
 H3161 H 0.86456 1.09998 1.32205
 H3162 H 0.87914 1.08532 1.28962
 H3163 H 0.91284 1.12298 1.20730
 H3164 H 0.92611 1.10992 1.17373
 H3165 H 0.91912 1.04638 1.19586
 H3166 H 0.90547 1.05966 1.22927
 C3167 C 0.88475 0.61524 0.77558
 C3168 C 0.86305 0.61681 0.77796
 C3169 C 0.85457 0.62512 0.79635
 C3170 C 0.86773 0.63198 0.81263
 C3171 C 0.88954 0.63028 0.81011
 C3172 C 0.89799 0.62195 0.79170
 C3173 C 0.89335 0.60696 0.75647
 C3174 C 0.90024 0.60009 0.74029
 C3175 C 0.90809 0.59197 0.72079
 C3176 C 0.89407 0.58596 0.70507
 C3177 C 0.90156 0.57831 0.68599
 C3178 C 0.92321 0.57656 0.68237
 C3179 C 0.93719 0.58261 0.69828
 C3180 C 0.92965 0.59026 0.71738
 H3181 H 0.85267 0.61175 0.76554
 H3182 H 0.83774 0.62652 0.79768
 H3183 H 0.90005 0.63523 0.82246
 H3184 H 0.91482 0.62078 0.79002
 H3185 H 0.87735 0.58731 0.70752
 H3186 H 0.89042 0.57409 0.67394
 H3187 H 0.95393 0.58124 0.69602
 H3188 H 0.94063 0.59484 0.72946
 C3189 C 0.38418 1.11593 0.77526
 C3190 C 0.36250 1.11775 0.77761
 C3191 C 0.35409 1.12614 0.79599
 C3192 C 0.36729 1.13283 0.81230
 C3193 C 0.38909 1.13090 0.80981
 C3194 C 0.39747 1.12249 0.79140
 C3195 C 0.39275 1.10762 0.75614
 C3196 C 0.39973 1.10082 0.73997
 C3197 C 0.40787 1.09293 0.72049
 C3198 C 0.40946 1.07133 0.71710
 C3199 C 0.41702 1.06372 0.69800
 C3200 C 0.42310 1.07764 0.68205
 C3201 C 0.42149 1.09932 0.68565
 C3202 C 0.41392 1.10689 0.70474
 H3203 H 0.35208 1.11281 0.76517
 H3204 H 0.33727 1.12771 0.79730
 H3205 H 0.39963 1.13573 0.82218
 H3206 H 0.41428 1.12114 0.78974
 H3207 H 0.40483 1.06039 0.72920
 H3208 H 0.41829 1.04696 0.69577
 H3209 H 0.42574 1.11042 0.67357
 H3210 H 0.41265 1.12363 0.70716
 C3211 C 0.38445 0.61543 1.27574
 C3212 C 0.39767 0.62201 1.29192
 C3213 C 0.38924 0.63038 1.31032
 C3214 C 0.36743 0.63226 1.31276
 C3215 C 0.35428 0.62553 1.29642
 C3216 C 0.36275 0.61718 1.27805
 C3217 C 0.39308 0.60720 1.25662
 C3218 C 0.40012 0.60047 1.24045
 C3219 C 0.40833 0.59266 1.22097
 C3220 C 0.41430 0.60668 1.20523
 C3221 C 0.42190 0.59918 1.18613
 C3222 C 0.42363 0.57752 1.18250
 C3223 C 0.41765 0.56354 1.19844
 C3224 C 0.41005 0.57108 1.21755
 H3225 H 0.41450 0.62072 1.29029
 H3226 H 0.39974 0.63523 1.32271
 H3227 H 0.33745 0.62706 1.29770
 H3228 H 0.35237 0.61223 1.26558
 H3229 H 0.41293 0.62341 1.20768
 H3230 H 0.42608 0.61033 1.17406
 H3231 H 0.41901 0.54679 1.19618
 H3232 H 0.40548 0.56009 1.22963
 C3233 C 1.11620 1.27477 0.88407
 C3234 C 1.10304 1.29095 0.87737
 C3235 C 1.11155 1.30927 0.86894
 C3236 C 1.13337 1.31163 0.86711
 C3237 C 1.14646 1.29529 0.87395
 C3238 C 1.13791 1.27700 0.88237
 C3239 C 1.10749 1.25574 0.89239
 C3240 C 1.10039 1.23964 0.89919
 C3241 C 1.09211 1.22024 0.90709
 C3242 C 1.08599 1.20450 0.89314
 C3243 C 1.07831 1.18548 0.90072
 C3244 C 1.07665 1.18193 0.92240
 C3245 C 1.08278 1.19788 0.93632
 C3246 C 1.09045 1.21691 0.92869
 H3247 H 1.08620 1.28939 0.87863
 H3248 H 1.10110 1.32167 0.86401
 H3249 H 1.16329 1.29651 0.87247
 H3250 H 1.14824 1.26453 0.88741
 H3251 H 1.08731 1.20688 0.87639
 H3252 H 1.07402 1.17340 0.88961
 H3253 H 1.08147 1.19569 0.95308
 H3254 H 1.09513 1.22900 0.93964
 C3255 C 1.11531 0.77469 0.38357
 C3256 C 1.12174 0.79092 0.39683
 C3257 C 1.13016 0.80929 0.38842
 C3258 C 1.13225 0.81166 0.36661
 C3259 C 1.12566 0.79529 0.35342
 C3260 C 1.11726 0.77694 0.36186
 C3261 C 1.10705 0.75559 0.39220
 C3262 C 1.10030 0.73945 0.39928
 C3263 C 1.09246 0.72003 0.40757
 C3264 C 1.10644 0.70437 0.41380
 C3265 C 1.09892 0.68534 0.42152
 C3266 C 1.07726 0.68170 0.42310
 C3267 C 1.06331 0.69757 0.41687
 C3268 C 1.07088 0.71661 0.40916
 H3269 H 1.12029 0.78934 0.41366
 H3270 H 1.13490 0.82171 0.39895
 H3271 H 1.12737 0.79651 0.33660
 H3272 H 1.11243 0.76443 0.35146
 H3273 H 1.12317 0.70682 0.41255
 H3274 H 1.11004 0.67332 0.42589
 H3275 H 1.04657 0.69531 0.41812
 H3276 H 1.05992 0.72864 0.40440
 C3277 C 0.61549 1.27477 0.38363
 C3278 C 0.62676 1.28850 0.39638
 C3279 C 0.63532 1.30682 0.38801
 C3280 C 0.63277 1.31188 0.36657
 C3281 C 0.62116 1.29776 0.35401
 C3282 C 0.61268 1.27947 0.36247
 C3283 C 0.60712 1.25566 0.39213
 C3284 C 0.60028 1.23951 0.39909
 C3285 C 0.59234 1.22006 0.40722
 C3286 C 0.60626 1.20431 0.41335
 C3287 C 0.59866 1.18527 0.42097
 C3288 C 0.57698 1.18172 0.42258
 C3289 C 0.56310 1.19767 0.41641
 C3290 C 0.57075 1.21672 0.40879
 H3291 H 0.62890 1.28508 0.41286
 H3292 H 0.64325 1.31726 0.39871
 H3293 H 0.61931 1.30015 0.33735
 H3294 H 0.60415 1.26882 0.35240
 H3295 H 0.62300 1.20669 0.41210
 H3296 H 0.60974 1.17319 0.42529
 H3297 H 0.54635 1.19548 0.41767
 H3298 H 0.55984 1.22882 0.40410
 C3299 C 0.61542 0.77549 0.88471
 C3300 C 0.63712 0.77780 0.88303
 C3301 C 0.64561 0.79620 0.87479
 C3302 C 0.63247 0.81256 0.86810
 C3303 C 0.61066 0.81012 0.86995
 C3304 C 0.60220 0.79170 0.87821
 C3305 C 0.60678 0.75635 0.89285
 C3306 C 0.59983 0.74015 0.89959
 C3307 C 0.59191 0.72063 0.90756
 C3308 C 0.60586 0.70487 0.91359
 C3309 C 0.59830 0.68580 0.92115
 C3310 C 0.57663 0.68223 0.92280
 C3311 C 0.56271 0.69817 0.91669
 C3312 C 0.57032 0.71726 0.90913
 H3313 H 0.64749 0.76531 0.88794
 H3314 H 0.66243 0.79747 0.87329
 H3315 H 0.60016 0.82253 0.86515
 H3316 H 0.58537 0.79008 0.87947
 H3317 H 0.62259 0.70729 0.91234
 H3318 H 0.60940 0.67373 0.92542
 H3319 H 0.54597 0.69595 0.91797
 H3320 H 0.55939 0.72937 0.90452
 C3321 C 0.88445 1.27528 1.11571
 C3322 C 0.89769 1.29142 1.12238
 C3323 C 0.88925 1.30983 1.13071
 C3324 C 0.86743 1.31233 1.13246
 C3325 C 0.85428 1.29602 1.12567
 C3326 C 0.86275 1.27764 1.11737
 C3327 C 0.89305 1.25620 1.10735
 C3328 C 0.89995 1.24006 1.10040
 C3329 C 0.90784 1.22062 1.09217
 C3330 C 0.92942 1.21726 1.09046
 C3331 C 0.93700 1.19823 1.08272
 C3332 C 0.92307 1.18231 1.07657
 C3333 C 0.90141 1.18588 1.07830
 C3334 C 0.89387 1.20491 1.08605
 H3335 H 0.91451 1.28976 1.12114
 H3336 H 0.89976 1.32220 1.13560
 H3337 H 0.83745 1.29734 1.12710
 H3338 H 0.85237 1.26521 1.11233
 H3339 H 0.94037 1.22934 1.09513
 H3340 H 0.95375 1.19602 1.08136
 H3341 H 0.89030 1.17383 1.07401
 H3342 H 0.87714 1.20731 1.08739
 C3343 C 0.88411 0.77474 0.61538
 C3344 C 0.88249 0.77708 0.63710
 C3345 C 0.87410 0.79541 0.64560
 C3346 C 0.86718 0.81168 0.63246
 C3347 C 0.86891 0.80920 0.61063
 C3348 C 0.87734 0.79084 0.60215
 C3349 C 0.89252 0.75569 0.60676
 C3350 C 0.89950 0.73957 0.59985
 C3351 C 0.90775 0.72014 0.59198
 C3352 C 0.91377 0.70442 0.60598
 C3353 C 0.92153 0.68539 0.59847
 C3354 C 0.92337 0.68183 0.57680
 C3355 C 0.91732 0.69775 0.56283
 C3356 C 0.90956 0.71679 0.57039
 H3357 H 0.88761 0.76468 0.64748
 H3358 H 0.87269 0.79672 0.66245
 H3359 H 0.86394 0.82153 0.60012
 H3360 H 0.87855 0.78919 0.58531
 H3361 H 0.91235 0.70682 0.62272
 H3362 H 0.92576 0.67334 0.60960
 H3363 H 0.91875 0.69554 0.54608
 H3364 H 0.90496 0.72887 0.55941
 C3365 C 0.38445 1.27530 0.61566
 C3366 C 0.36330 1.27988 0.61278
 C3367 C 0.35471 1.29815 0.62119
 C3368 C 0.36714 1.31237 0.63279
 C3369 C 0.38857 1.30742 0.63545
 C3370 C 0.39708 1.28911 0.62696
 C3371 C 0.39305 1.25625 0.60724
 C3372 C 0.39993 1.24013 0.60021
 C3373 C 0.40777 1.22071 0.59189
 C3374 C 0.39376 1.20506 0.58570
 C3375 C 0.40126 1.18604 0.57789
 C3376 C 0.42291 1.18242 0.57617
 C3377 C 0.43687 1.19829 0.58237
 C3378 C 0.42933 1.21731 0.59017
 H3379 H 0.35332 1.26916 0.60422
 H3380 H 0.33806 1.30043 0.61925
 H3381 H 0.39917 1.31794 0.64341
 H3382 H 0.41355 1.28578 0.62916
 H3383 H 0.37704 1.20750 0.58704
 H3384 H 0.39012 1.17403 0.57355
 H3385 H 0.45361 1.19604 0.58102
 H3386 H 0.44031 1.22934 0.59489
 C3387 C 0.38422 0.77523 1.11585
 C3388 C 0.39746 0.79136 1.12253
 C3389 C 0.38903 0.80975 1.13092
 C3390 C 0.36722 0.81223 1.13272
 C3391 C 0.35406 0.79592 1.12594
 C3392 C 0.36252 0.77757 1.11757
 C3393 C 0.39280 0.75619 1.10741
 C3394 C 0.39969 0.74007 1.10039
 C3395 C 0.40756 0.72066 1.09209
 C3396 C 0.42913 0.71733 1.09032
 C3397 C 0.43671 0.69830 1.08256
 C3398 C 0.42278 0.68236 1.07646
 C3399 C 0.40112 0.68592 1.07823
 C3400 C 0.39359 0.70494 1.08600
 H3401 H 0.41428 0.78971 1.12125
 H3402 H 0.39954 0.82211 1.13582
 H3403 H 0.33723 0.79723 1.12740
 H3404 H 0.35213 0.76514 1.11253
 H3405 H 0.44009 0.72941 1.09497
 H3406 H 0.45346 0.69610 1.08117
 H3407 H 0.39001 0.67386 1.07396
 H3408 H 0.37686 0.70732 1.08739
 C3409 C 0.88496 0.72469 0.88469
 C3410 C 0.86325 0.72230 0.88326
 C3411 C 0.85474 0.70393 0.87499
 C3412 C 0.86785 0.68766 0.86802
 C3413 C 0.88968 0.69018 0.86955
 C3414 C 0.89816 0.70859 0.87785
 C3415 C 0.89359 0.74377 0.89298
 C3416 C 0.90048 0.75992 0.89987
 C3417 C 0.90833 0.77940 0.90802
 C3418 C 0.89431 0.79508 0.91415
 C3419 C 0.90180 0.81414 0.92183
 C3420 C 0.92345 0.81779 0.92346
 C3421 C 0.93742 0.80191 0.91730
 C3422 C 0.92989 0.78283 0.90963
 H3423 H 0.85289 0.73471 0.88843
 H3424 H 0.83789 0.70260 0.87373
 H3425 H 0.90016 0.67785 0.86452
 H3426 H 0.91500 0.71027 0.87891
 H3427 H 0.87759 0.79261 0.91288
 H3428 H 0.89065 0.82616 0.92614
 H3429 H 0.95416 0.80419 0.91858
 H3430 H 0.94088 0.77079 0.90495
 C3431 C 0.88454 0.22452 0.38513
 C3432 C 0.86284 0.22217 0.38351
 C3433 C 0.85438 0.20381 0.37514
 C3434 C 0.86754 0.18754 0.36826
 C3435 C 0.88935 0.19001 0.37005
 C3436 C 0.89778 0.20839 0.37844
 C3437 C 0.89314 0.24362 0.39340
 C3438 C 0.90004 0.25980 0.40024
 C3439 C 0.90790 0.27930 0.40829
 C3440 C 0.89391 0.29506 0.41426
 C3441 C 0.90142 0.31415 0.42184
 C3442 C 0.92308 0.31775 0.42355
 C3443 C 0.93703 0.30179 0.41754
 C3444 C 0.92948 0.28269 0.40996
 H3445 H 0.85245 0.23459 0.38856
 H3446 H 0.83755 0.20251 0.37369
 H3447 H 0.89987 0.17766 0.36511
 H3448 H 0.91461 0.21004 0.37966
 H3449 H 0.87718 0.29264 0.41294
 H3450 H 0.89030 0.32623 0.42604
 H3451 H 0.95378 0.30403 0.41888
 H3452 H 0.94044 0.27058 0.40540
 C3453 C 0.38465 0.72449 0.38494
 C3454 C 0.36352 0.71985 0.38796
 C3455 C 0.35496 0.70153 0.37964
 C3456 C 0.36738 0.68732 0.36799
 C3457 C 0.38879 0.69233 0.36522
 C3458 C 0.39727 0.71068 0.37362
 C3459 C 0.39322 0.74361 0.39324
 C3460 C 0.40008 0.75977 0.40014
 C3461 C 0.40792 0.77925 0.40831
 C3462 C 0.39390 0.79496 0.41438
 C3463 C 0.40139 0.81402 0.42207
 C3464 C 0.42304 0.81763 0.42381
 C3465 C 0.43701 0.80172 0.41773
 C3466 C 0.42948 0.78265 0.41004
 H3467 H 0.35354 0.73056 0.39654
 H3468 H 0.33832 0.69920 0.38167
 H3469 H 0.39940 0.68182 0.35723
 H3470 H 0.41372 0.71407 0.37132
 H3471 H 0.37718 0.79253 0.41303
 H3472 H 0.39024 0.82607 0.42632
 H3473 H 0.45375 0.80396 0.41909
 H3474 H 0.44047 0.77058 0.40541
 C3475 C 0.38481 0.22490 0.88467
 C3476 C 0.39738 0.21111 0.87327
 C3477 C 0.38886 0.19279 0.86484
 C3478 C 0.36745 0.18781 0.86764
 C3479 C 0.35507 0.20200 0.87936
 C3480 C 0.36368 0.22028 0.88771
 C3481 C 0.39343 0.24397 0.89301
 C3482 C 0.40034 0.26011 0.89996
 C3483 C 0.40822 0.27954 0.90819
 C3484 C 0.42980 0.28290 0.90986
 C3485 C 0.43738 0.30193 0.91760
 C3486 C 0.42345 0.31784 0.92378
 C3487 C 0.40179 0.31427 0.92210
 C3488 C 0.39425 0.29525 0.91436
 H3489 H 0.41384 0.21447 0.87095
 H3490 H 0.39943 0.18229 0.85679
 H3491 H 0.33844 0.19969 0.88142
 H3492 H 0.35374 0.23098 0.89635
 H3493 H 0.44075 0.27083 0.90516
 H3494 H 0.45413 0.30415 0.91891
 H3495 H 0.39068 0.32631 0.92643
 H3496 H 0.37752 0.29284 0.91305
 C3497 C 1.11526 0.72478 1.11590
 C3498 C 1.12652 0.71099 1.10321
 C3499 C 1.13504 0.69268 1.11165
 C3500 C 1.13247 0.68771 1.13311
 C3501 C 1.12086 0.70188 1.14561
 C3502 C 1.11241 0.72016 1.13708
 C3503 C 1.10698 0.74390 1.10733
 C3504 C 1.10020 0.76005 1.10032
 C3505 C 1.09235 0.77951 1.09212
 C3506 C 1.10633 0.79519 1.08596
 C3507 C 1.09880 0.81426 1.07832
 C3508 C 1.07714 0.81789 1.07674
 C3509 C 1.06320 0.80200 1.08291
 C3510 C 1.07077 0.78293 1.09055
 H3511 H 1.12869 0.71435 1.08672
 H3512 H 1.14297 0.68219 1.10098
 H3513 H 1.11898 0.69956 1.16228
 H3514 H 1.10388 0.73087 1.14711
 H3515 H 1.12306 0.79275 1.08721
 H3516 H 1.10992 0.82629 1.07400
 H3517 H 1.04645 0.80425 1.08167
 H3518 H 1.05981 0.77088 1.09526
 C3519 C 1.11366 0.22376 0.61518
 C3520 C 1.11098 0.21903 0.63635
 C3521 C 1.11949 0.20071 0.64472
 C3522 C 1.13101 0.18661 0.63205
 C3523 C 1.13336 0.19166 0.61059
 C3524 C 1.12478 0.21001 0.60231
 C3525 C 1.10540 0.24296 0.60679
 C3526 C 1.09870 0.25920 0.59990
 C3527 C 1.09098 0.27875 0.59184
 C3528 C 1.06943 0.28231 0.59021
 C3529 C 1.06200 0.30148 0.58267
 C3530 C 1.07607 0.31732 0.57665
 C3531 C 1.09770 0.31355 0.57830
 C3532 C 1.10508 0.29440 0.58585
 H3533 H 1.10255 0.22970 0.64651
 H3534 H 1.11776 0.19834 0.66139
 H3535 H 1.14118 0.18122 0.59980
 H3536 H 1.12681 0.21346 0.58582
 H3537 H 1.05838 0.27030 0.59479
 H3538 H 1.04528 0.30385 0.58137
 H3539 H 1.10891 0.32554 0.57409
 H3540 H 1.12179 0.29184 0.58714
 C3541 C 0.61549 0.72546 0.61622
 C3542 C 0.60232 0.70932 0.62303
 C3543 C 0.61085 0.69091 0.63125
 C3544 C 0.63268 0.68841 0.63275
 C3545 C 0.64576 0.70472 0.62580
 C3546 C 0.63721 0.72310 0.61761
 C3547 C 0.60680 0.74453 0.60798
 C3548 C 0.59985 0.76068 0.60113
 C3549 C 0.59193 0.78013 0.59299
 C3550 C 0.57035 0.78348 0.59132
 C3551 C 0.56275 0.80251 0.58361
 C3552 C 0.57667 0.81842 0.57745
 C3553 C 0.59834 0.81487 0.57917
 C3554 C 0.60589 0.79586 0.58688
 H3555 H 0.58548 0.71098 0.62200
 H3556 H 0.60040 0.67855 0.63626
 H3557 H 0.66261 0.70340 0.62703
 H3558 H 0.64753 0.73552 0.61246
 H3559 H 0.55941 0.77139 0.59599
 H3560 H 0.54601 0.80471 0.58227
 H3561 H 0.60944 0.82693 0.57486
 H3562 H 0.62262 0.79346 0.58819
 C3563 C 0.61623 0.22524 1.11554
 C3564 C 0.60357 0.21142 1.12679
 C3565 C 0.61204 0.19310 1.13527
 C3566 C 0.63348 0.18815 1.13267
 C3567 C 0.64595 0.20234 1.12107
 C3568 C 0.63739 0.22063 1.11267
 C3569 C 0.60765 0.24435 1.10728
 C3570 C 0.60063 0.26051 1.10052
 C3571 C 0.59244 0.27997 1.09267
 C3572 C 0.58638 0.29570 1.10667
 C3573 C 0.57875 0.31477 1.09914
 C3574 C 0.57707 0.31836 1.07746
 C3575 C 0.58314 0.30242 1.06350
 C3576 C 0.59077 0.28335 1.07108
 H3577 H 0.58710 0.21477 1.12899
 H3578 H 0.60141 0.18259 1.14320
 H3579 H 0.66260 0.20006 1.11917
 H3580 H 0.64740 0.23135 1.10415
 H3581 H 0.58770 0.29329 1.12341
 H3582 H 0.57450 0.32683 1.11027
 H3583 H 0.58182 0.30464 1.04675
 H3584 H 0.59540 0.27126 1.06010
 C3585 C 1.27517 1.11577 0.88467
 C3586 C 1.27745 1.13750 0.88313
 C3587 C 1.29579 1.14606 0.87485
 C3588 C 1.31212 1.13297 0.86797
 C3589 C 1.30973 1.11114 0.86968
 C3590 C 1.29136 1.10261 0.87799
 C3591 C 1.25608 1.10707 0.89285
 C3592 C 1.23992 1.10009 0.89962
 C3593 C 1.22043 1.09215 0.90761
 C3594 C 1.20465 1.10610 0.91361
 C3595 C 1.18559 1.09853 0.92119
 C3596 C 1.18205 1.07685 0.92287
 C3597 C 1.19802 1.06293 0.91680
 C3598 C 1.21709 1.07055 0.90923
 H3599 H 1.26498 1.14783 0.88819
 H3600 H 1.29705 1.16291 0.87348
 H3601 H 1.32212 1.10068 0.86474
 H3602 H 1.28977 1.08576 0.87914
 H3603 H 1.20704 1.12285 0.91233
 H3604 H 1.17350 1.10963 0.92542
 H3605 H 1.19582 1.04618 0.91811
 H3606 H 1.22922 1.05962 0.90464
 C3607 C 1.27520 0.61523 0.38506
 C3608 C 1.29140 0.60206 0.37842
 C3609 C 1.30976 0.61059 0.37009
 C3610 C 1.31213 0.63242 0.36833
 C3611 C 1.29578 0.64551 0.37516
 C3612 C 1.27745 0.63695 0.38346
 C3613 C 1.25613 0.60653 0.39329
 C3614 C 1.23998 0.59956 0.40010
 C3615 C 1.22050 0.59163 0.40814
 C3616 C 1.21717 0.57004 0.40978
 C3617 C 1.19810 0.56242 0.41737
 C3618 C 1.18214 0.57634 0.42344
 C3619 C 1.18568 0.59802 0.42174
 C3620 C 1.20473 0.60559 0.41415
 H3621 H 1.28983 0.58522 0.37962
 H3622 H 1.32216 0.60013 0.36519
 H3623 H 1.29702 0.66236 0.37374
 H3624 H 1.26497 0.64728 0.38849
 H3625 H 1.22929 0.55910 0.40519
 H3626 H 1.19591 0.54567 0.41870
 H3627 H 1.17359 0.60912 0.42597
 H3628 H 1.20712 0.62233 0.41285
 C3629 C 0.77501 1.11495 0.38415
 C3630 C 0.77742 1.13668 0.38280
 C3631 C 0.79580 1.14520 0.37459
 C3632 C 0.81206 1.13208 0.36759
 C3633 C 0.80951 1.11024 0.36904
 C3634 C 0.79109 1.10175 0.37728
 C3635 C 0.75593 1.10631 0.39242
 C3636 C 0.73978 1.09942 0.39931
 C3637 C 0.72031 1.09159 0.40747
 C3638 C 0.70464 1.10562 0.41356
 C3639 C 0.68559 1.09815 0.42126
 C3640 C 0.68196 1.07649 0.42299
 C3641 C 0.69783 1.06249 0.41686
 C3642 C 0.71690 1.07001 0.40916
 H3643 H 0.76503 1.14704 0.38800
 H3644 H 0.79716 1.16205 0.37339
 H3645 H 0.82183 1.09976 0.36399
 H3646 H 0.78940 1.08490 0.37829
 H3647 H 0.70709 1.12235 0.41223
 H3648 H 0.67357 1.10931 0.42554
 H3649 H 0.69557 1.04575 0.41821
 H3650 H 0.72894 1.05901 0.40452
 C3651 C 0.77529 0.61526 0.88498
 C3652 C 0.77768 0.63697 0.88342
 C3653 C 0.79607 0.64542 0.87514
 C3654 C 0.81233 0.63224 0.86828
 C3655 C 0.80982 0.61042 0.87000
 C3656 C 0.79140 0.60199 0.87831
 C3657 C 0.75616 0.60668 0.89319
 C3658 C 0.73996 0.59980 0.89999
 C3659 C 0.72043 0.59197 0.90801
 C3660 C 0.70472 0.60601 0.91397
 C3661 C 0.68561 0.59855 0.92154
 C3662 C 0.68197 0.57689 0.92325
 C3663 C 0.69788 0.56289 0.91725
 C3664 C 0.71700 0.57040 0.90968
 H3665 H 0.76527 0.64737 0.88847
 H3666 H 0.79741 0.66226 0.87375
 H3667 H 0.82215 0.59989 0.86508
 H3668 H 0.78971 0.58516 0.87948
 H3669 H 0.70718 0.62274 0.91265
 H3670 H 0.67357 0.60971 0.92573
 H3671 H 0.69561 0.54614 0.91859
 H3672 H 0.72908 0.55940 0.90513
 C3673 C 1.27502 0.88470 1.11544
 C3674 C 1.29131 0.89791 1.12175
 C3675 C 1.30964 0.88946 1.13020
 C3676 C 1.31189 0.86765 1.13243
 C3677 C 1.29546 0.85452 1.12592
 C3678 C 1.27715 0.86300 1.11750
 C3679 C 1.25598 0.89333 1.10707
 C3680 C 1.23986 0.90025 1.10015
 C3681 C 1.22043 0.90814 1.09199
 C3682 C 1.21709 0.92973 1.09025
 C3683 C 1.19804 0.93731 1.08258
 C3684 C 1.18210 0.92336 1.07654
 C3685 C 1.18566 0.90170 1.07831
 C3686 C 1.20469 0.89416 1.08598
 H3687 H 1.28983 0.91474 1.12018
 H3688 H 1.32213 0.89994 1.13482
 H3689 H 1.29662 0.83770 1.12769
 H3690 H 1.26461 0.85264 1.11273
 H3691 H 1.22918 0.94069 1.09484
 H3692 H 1.19584 0.95406 1.08120
 H3693 H 1.17359 0.89057 1.07409
 H3694 H 1.20708 0.87742 1.08735
 C3695 C 1.27478 0.38415 0.61579
 C3696 C 1.27709 0.36244 0.61748
 C3697 C 1.29543 0.35396 0.62584
 C3698 C 1.31173 0.36711 0.63264
 C3699 C 1.30929 0.38893 0.63082
 C3700 C 1.29092 0.39738 0.62244
 C3701 C 1.25573 0.39276 0.60745
 C3702 C 1.23960 0.39966 0.60053
 C3703 C 1.22016 0.40752 0.59236
 C3704 C 1.20445 0.39352 0.58631
 C3705 C 1.18541 0.40103 0.57862
 C3706 C 1.18183 0.42269 0.57688
 C3707 C 1.19773 0.43666 0.58295
 C3708 C 1.21679 0.42911 0.59063
 H3709 H 1.26466 0.35206 0.61246
 H3710 H 1.29672 0.33712 0.62730
 H3711 H 1.32166 0.39943 0.63570
 H3712 H 1.28931 0.41422 0.62117
 H3713 H 1.20687 0.37679 0.58767
 H3714 H 1.17337 0.38989 0.57438
 H3715 H 1.19551 0.45341 0.58158
 H3716 H 1.22886 0.44008 0.59525
 C3717 C 0.77465 0.88440 0.61578
 C3718 C 0.77697 0.86267 0.61727
 C3719 C 0.79533 0.85411 0.62551
 C3720 C 0.81164 0.86721 0.63239
 C3721 C 0.80919 0.88904 0.63076
 C3722 C 0.79080 0.89757 0.62250
 C3723 C 0.75557 0.89309 0.60757
 C3724 C 0.73942 0.90007 0.60075
 C3725 C 0.71997 0.90803 0.59268
 C3726 C 0.70422 0.89409 0.58659
 C3727 C 0.68520 0.90168 0.57894
 C3728 C 0.68167 0.92336 0.57727
 C3729 C 0.69760 0.93726 0.58342
 C3730 C 0.71664 0.92963 0.59107
 H3731 H 0.76452 0.85233 0.61219
 H3732 H 0.79660 0.83727 0.62685
 H3733 H 0.82156 0.89951 0.63572
 H3734 H 0.78918 0.91442 0.62139
 H3735 H 0.70660 0.87734 0.58787
 H3736 H 0.67313 0.89059 0.57464
 H3737 H 0.69542 0.95402 0.58212
 H3738 H 0.72874 0.94055 0.59572
 C3739 C 0.77521 0.38496 1.11534
 C3740 C 0.77733 0.36325 1.11733
 C3741 C 0.79566 0.35472 1.12566
 C3742 C 0.81213 0.36782 1.13214
 C3743 C 0.80990 0.38963 1.12995
 C3744 C 0.79155 0.39813 1.12160
 C3745 C 0.75613 0.39363 1.10711
 C3746 C 0.73998 0.40060 1.10032
 C3747 C 0.72049 0.40853 1.09229
 C3748 C 0.70473 0.39456 1.08630
 C3749 C 0.68568 0.40212 1.07871
 C3750 C 0.68212 0.42379 1.07700
 C3751 C 0.69807 0.43772 1.08305
 C3752 C 0.71714 0.43012 1.09064
 H3753 H 0.76476 0.35291 1.11260
 H3754 H 0.79682 0.33790 1.12739
 H3755 H 0.82241 0.40010 1.13455
 H3756 H 0.79007 0.41496 1.12008
 H3757 H 0.70713 0.37782 1.08761
 H3758 H 0.67360 0.39101 1.07449
 H3759 H 0.69587 0.45448 1.08172
 H3760 H 0.72926 0.44106 1.09522
 C3761 C 0.72547 1.11593 1.11587
 C3762 C 0.72330 1.11797 1.13758
 C3763 C 0.70500 1.12644 1.14605
 C3764 C 0.68861 1.13302 1.13290
 C3765 C 0.69090 1.13082 1.11109
 C3766 C 0.70923 1.12232 1.10264
 C3767 C 0.74450 1.10752 1.10725
 C3768 C 0.76061 1.10056 1.10031
 C3769 C 0.78003 1.09236 1.09238
 C3770 C 0.79578 1.08631 1.10633
 C3771 C 0.81479 1.07861 1.09875
 C3772 C 0.81832 1.07684 1.07707
 C3773 C 0.80236 1.08292 1.06315
 C3774 C 0.78334 1.09062 1.07078
 H3775 H 0.73581 1.11314 1.14795
 H3776 H 0.70380 1.12818 1.16288
 H3777 H 0.67845 1.13550 1.10059
 H3778 H 0.71074 1.12077 1.08581
 H3779 H 0.79342 1.08768 1.12308
 H3780 H 0.82687 1.07437 1.10985
 H3781 H 0.80454 1.08154 1.04639
 H3782 H 0.77123 1.09523 1.05984
 C3783 C 0.72515 0.61592 0.61522
 C3784 C 0.70903 0.60268 0.62190
 C3785 C 0.69067 0.61112 0.63032
 C3786 C 0.68820 0.63294 0.63215
 C3787 C 0.70447 0.64610 0.62529
 C3788 C 0.72281 0.63763 0.61689
 C3789 C 0.74422 0.60730 0.60688
 C3790 C 0.76036 0.60036 0.59998
 C3791 C 0.77981 0.59242 0.59186
 C3792 C 0.78316 0.57082 0.59027
 C3793 C 0.80221 0.56319 0.58264
 C3794 C 0.81814 0.57709 0.57648
 C3795 C 0.81458 0.59877 0.57809
 C3796 C 0.79554 0.60636 0.58573
 H3797 H 0.71068 0.58584 0.62065
 H3798 H 0.67833 0.60060 0.63525
 H3799 H 0.70317 0.66294 0.62676
 H3800 H 0.73522 0.64802 0.61184
 H3801 H 0.77107 0.55990 0.59495
 H3802 H 0.80441 0.54642 0.58138
 H3803 H 0.82664 0.60986 0.57378
 H3804 H 0.79314 0.62311 0.58698
 C3805 C 0.22421 1.11571 0.61439
 C3806 C 0.20804 1.10234 0.62067
 C3807 C 0.18956 1.11062 0.62900
 C3808 C 0.18703 1.13240 0.63113
 C3809 C 0.20335 1.14570 0.62468
 C3810 C 0.22181 1.13740 0.61637
 C3811 C 0.24340 1.10725 0.60616
 C3812 C 0.25962 1.10040 0.59937
 C3813 C 0.27916 1.09253 0.59137
 C3814 C 0.28262 1.07095 0.58987
 C3815 C 0.30174 1.06337 0.58235
 C3816 C 0.31763 1.07733 0.57620
 C3817 C 0.31396 1.09900 0.57773
 C3818 C 0.29485 1.10653 0.58526
 H3819 H 0.20974 1.08553 0.61918
 H3820 H 0.17719 1.10001 0.63364
 H3821 H 0.20200 1.16251 0.62643
 H3822 H 0.23426 1.14789 0.61164
 H3823 H 0.27056 1.05998 0.59454
 H3824 H 0.30403 1.04662 0.58115
 H3825 H 0.32599 1.11013 0.57343
 H3826 H 0.29237 1.12326 0.58644
 C3827 C 0.22522 0.61625 1.11631
 C3828 C 0.20893 0.60300 1.12256
 C3829 C 0.19049 0.61142 1.13084
 C3830 C 0.18810 0.63322 1.13294
 C3831 C 0.20456 0.64640 1.12659
 C3832 C 0.22297 0.63795 1.11833
 C3833 C 0.24432 0.60766 1.10800
 C3834 C 0.26045 0.60072 1.10109
 C3835 C 0.27988 0.59274 1.09291
 C3836 C 0.28324 0.57114 1.09143
 C3837 C 0.30224 0.56347 1.08369
 C3838 C 0.31811 0.57734 1.07731
 C3839 C 0.31454 0.59903 1.07883
 C3840 C 0.29556 0.60665 1.08657
 H3841 H 0.21050 0.58618 1.12105
 H3842 H 0.17802 0.60090 1.13543
 H3843 H 0.20332 0.66321 1.12832
 H3844 H 0.23552 0.64835 1.11362
 H3845 H 0.27120 0.56023 1.09626
 H3846 H 0.30445 0.54670 1.08251
 H3847 H 0.32656 0.61011 1.07435
 H3848 H 0.29315 0.62341 1.08773
 C3849 C 0.72493 0.88479 0.88464
 C3850 C 0.70878 0.87822 0.89791
 C3851 C 0.69035 0.86996 0.88949
 C3852 C 0.68784 0.86818 0.86767
 C3853 C 0.70413 0.87493 0.85448
 C3854 C 0.72254 0.88317 0.86292
 C3855 C 0.74407 0.89296 0.89324
 C3856 C 0.76027 0.89972 0.90015
 C3857 C 0.77978 0.90772 0.90804
 C3858 C 0.78318 0.90935 0.92963
 C3859 C 0.80226 0.91694 0.93721
 C3860 C 0.81819 0.92301 0.92325
 C3861 C 0.81459 0.92131 0.90157
 C3862 C 0.79552 0.91372 0.89405
 H3863 H 0.71046 0.87944 0.91475
 H3864 H 0.67799 0.86511 0.90003
 H3865 H 0.70280 0.87349 0.83763
 H3866 H 0.73497 0.88814 0.85251
 H3867 H 0.77108 0.90476 0.94060
 H3868 H 0.80450 0.91826 0.95396
 H3869 H 0.82665 0.92555 0.89044
 H3870 H 0.79309 0.91243 0.87730
 C3871 C 0.72538 0.38350 0.38355
 C3872 C 0.70906 0.39673 0.37736
 C3873 C 0.69063 0.38829 0.36910
 C3874 C 0.68829 0.36649 0.36694
 C3875 C 0.70478 0.35334 0.37326
 C3876 C 0.72319 0.36180 0.38151
 C3877 C 0.74448 0.39213 0.39183
 C3878 C 0.76060 0.39911 0.39871
 C3879 C 0.78001 0.40713 0.40686
 C3880 C 0.78331 0.42875 0.40835
 C3881 C 0.80228 0.43646 0.41609
 C3882 C 0.81820 0.42262 0.42246
 C3883 C 0.81469 0.40093 0.42091
 C3884 C 0.79573 0.39326 0.41317
 H3885 H 0.71058 0.41355 0.37890
 H3886 H 0.67813 0.39879 0.36454
 H3887 H 0.70359 0.33652 0.37150
 H3888 H 0.73576 0.35142 0.38617
 H3889 H 0.77123 0.43963 0.40354
 H3890 H 0.80444 0.45323 0.41730
 H3891 H 0.82674 0.38988 0.42538
 H3892 H 0.79338 0.37650 0.41199
 C3893 C 0.22508 0.88346 0.38432
 C3894 C 0.20881 0.89674 0.37809
 C3895 C 0.19044 0.88838 0.36965
 C3896 C 0.18811 0.86659 0.36732
 C3897 C 0.20450 0.85338 0.37375
 C3898 C 0.22286 0.86177 0.38218
 C3899 C 0.24417 0.89204 0.39265
 C3900 C 0.26030 0.89900 0.39952
 C3901 C 0.27972 0.90702 0.40763
 C3902 C 0.28302 0.92863 0.40911
 C3903 C 0.30202 0.93635 0.41676
 C3904 C 0.31797 0.92252 0.42305
 C3905 C 0.31446 0.90082 0.42152
 C3906 C 0.29547 0.89315 0.41386
 H3907 H 0.21035 0.91356 0.37972
 H3908 H 0.17798 0.89893 0.36508
 H3909 H 0.20328 0.83657 0.37191
 H3910 H 0.23538 0.85135 0.38688
 H3911 H 0.27092 0.93951 0.40435
 H3912 H 0.30418 0.95312 0.41796
 H3913 H 0.32654 0.88977 0.42592
 H3914 H 0.29312 0.87639 0.41269
 C3915 C 0.22577 0.38385 0.88406
 C3916 C 0.20954 0.39707 0.87761
 C3917 C 0.19122 0.38863 0.86911
 C3918 C 0.18892 0.36682 0.86698
 C3919 C 0.20530 0.35367 0.87359
 C3920 C 0.22359 0.36214 0.88206
 C3921 C 0.24476 0.39246 0.89255
 C3922 C 0.26083 0.39939 0.89958
 C3923 C 0.28020 0.40734 0.90787
 C3924 C 0.28353 0.42894 0.90945
 C3925 C 0.30252 0.43658 0.91720
 C3926 C 0.31841 0.42269 0.92350
 C3927 C 0.31485 0.40100 0.92192
 C3928 C 0.29588 0.39340 0.91416
 H3929 H 0.21106 0.41390 0.87912
 H3930 H 0.17878 0.39913 0.86441
 H3931 H 0.20409 0.33684 0.87190
 H3932 H 0.23608 0.35177 0.88694
 H3933 H 0.27149 0.43986 0.90465
 H3934 H 0.30472 0.45334 0.91844
 H3935 H 0.32688 0.38992 0.92634
 H3936 H 0.29349 0.37666 0.91292
   
