data_POSCAR
  _audit_creation_date              2014-09-24
  _audit_creation_method            'ToBaCCo'
  _symmetry_space_group_name_H-M    'P1'
  _symmetry_Int_Tables_number       1
  _symmetry_cell_setting            triclinic
  loop_
  _symmetry_equiv_pos_as_xyz
 x,y,z
_cell_length_a 56.5757
_cell_length_b 56.8278
_cell_length_c 56.6309
_cell_angle_alpha 90.544600
_cell_angle_beta 89.940100
_cell_angle_gamma 89.931600
loop_
  _atom_site_label
  _atom_site_type_symbol
  _atom_site_fract_x
  _atom_site_fract_y
  _atom_site_fract_z
C1 C 0.72593 0.64960 0.95901
 H2 H 0.73550 0.63651 0.94891
 C3 C 0.70795 0.66234 0.94815
 H4 H 0.70368 0.65856 0.92987
 C5 C 0.71916 0.66967 0.99525
 H6 H 0.72353 0.67222 1.01369
 C7 C 0.70088 0.68270 0.98513
 H8 H 0.69128 0.69537 0.99586
 N9 N 0.73061 0.65284 0.98237
 C10 C 0.77980 0.64604 1.03674
 H11 H 0.76877 0.63389 1.04624
 C12 C 0.79896 0.65635 1.04825
 H13 H 0.80244 0.65195 1.06648
 C14 C 0.78877 0.66655 1.00163
 H15 H 0.78484 0.67013 0.98332
 C16 C 0.80820 0.67732 1.01252
 H17 H 0.81930 0.68903 1.00242
 Zn18 Zn 0.75228 0.63245 0.99750
 N19 N 0.77566 0.65046 1.01354
 C20 C 0.78942 0.61535 0.96785
 N21 N 0.76659 0.61226 0.97469
 C22 C 0.75320 0.59466 0.96530
 C23 C 0.76249 0.57969 0.94792
 C24 C 0.79931 0.60102 0.95030
 C25 C 0.71380 0.61793 1.02649
 C26 C 0.70309 0.60489 1.04431
 C27 C 0.73833 0.58112 1.04658
 C28 C 0.74835 0.59480 1.02884
 N29 N 0.73629 0.61318 1.01961
 H30 H 0.79997 0.62915 0.97565
 H31 H 0.73517 0.59239 0.97123
 H32 H 0.75153 0.56571 0.94087
 H33 H 0.81722 0.60448 0.94458
 H34 H 0.70423 0.63235 1.01874
 H35 H 0.68586 0.61086 1.04989
 H36 H 0.74871 0.56638 1.05251
 H37 H 0.76606 0.59099 1.02265
 C38 C 0.81393 0.67156 1.03589
 C39 C 0.69468 0.67864 0.96142
 C40 C 0.71537 0.58621 1.05542
 C41 C 0.78580 0.58293 0.93994
 C42 C 0.72063 0.36169 0.53255
 H43 H 0.72947 0.37521 0.54266
 C44 C 0.70245 0.34899 0.54311
 H45 H 0.69732 0.35327 0.56108
 C46 C 0.71598 0.34015 0.49688
 H47 H 0.72165 0.33642 0.47902
 C48 C 0.69750 0.32716 0.50669
 H49 H 0.68879 0.31377 0.49613
 N50 N 0.72648 0.35773 0.50954
 C51 C 0.77875 0.36821 0.45674
 H52 H 0.76981 0.38291 0.44873
 C53 C 0.79829 0.35828 0.44544
 H54 H 0.80380 0.36516 0.42855
 C55 C 0.78291 0.34199 0.48877
 H56 H 0.77711 0.33621 0.50597
 C57 C 0.80273 0.33160 0.47811
 H58 H 0.81213 0.31783 0.48727
 Zn59 Zn 0.74852 0.37815 0.49463
 N60 N 0.77183 0.36041 0.47828
 C61 C 0.78654 0.39302 0.52372
 N62 N 0.76358 0.39728 0.51804
 C63 C 0.75099 0.41430 0.52953
 C64 C 0.76133 0.42754 0.54768
 C65 C 0.79741 0.40549 0.54206
 C66 C 0.71830 0.38677 0.45607
 C67 C 0.70691 0.39990 0.43878
 C68 C 0.72510 0.43496 0.45480
 C69 C 0.73615 0.42112 0.47185
 N70 N 0.73247 0.39745 0.47234
 H71 H 0.79638 0.37952 0.51449
 H72 H 0.73274 0.41740 0.52476
 H73 H 0.75096 0.44114 0.55630
 H74 H 0.81534 0.40090 0.54681
 H75 H 0.71615 0.36795 0.45610
 H76 H 0.69609 0.39090 0.42579
 H77 H 0.72818 0.45376 0.45479
 H78 H 0.74806 0.42931 0.48432
 C79 C 0.81106 0.34027 0.45647
 C80 C 0.69016 0.33195 0.52994
 C81 C 0.71024 0.42434 0.43795
 C82 C 0.78479 0.42298 0.55449
 C83 C 0.22398 -0.13379 0.03477
 H84 H 0.23449 -0.12127 0.04456
 C85 C 0.20555 -0.14535 0.04622
 H86 H 0.20187 -0.14114 0.06455
 C87 C 0.21557 -0.15413 -0.00090
 H88 H 0.21976 -0.15790 -0.01911
 C89 C 0.19685 -0.16598 0.00983
 H90 H 0.18662 -0.17852 -0.00040
 N91 N 0.22812 -0.13766 0.01136
 C92 C 0.28189 -0.13114 -0.04102
 H93 H 0.27493 -0.11552 -0.04923
 C94 C 0.30009 -0.14356 -0.05207
 H95 H 0.30688 -0.13739 -0.06879
 C96 C 0.28264 -0.15715 -0.00854
 H97 H 0.27590 -0.16205 0.00861
 C98 C 0.30118 -0.16994 -0.01886
 H99 H 0.30857 -0.18487 -0.00969
 Zn100 Zn 0.25070 -0.11869 -0.00465
 N101 N 0.27359 -0.13801 -0.01963
 C102 C 0.28944 -0.10255 0.02237
 N103 N 0.26621 -0.09865 0.01762
 C104 C 0.25387 -0.08169 0.02946
 C105 C 0.26481 -0.06805 0.04694
 C106 C 0.30092 -0.08971 0.04006
 C107 C 0.22527 -0.11309 -0.04663
 C108 C 0.21412 -0.10153 -0.06513
 C109 C 0.22318 -0.06454 -0.04607
 C110 C 0.23445 -0.07692 -0.02806
 N111 N 0.23508 -0.10083 -0.02845
 H112 H 0.29902 -0.11614 0.01295
 H113 H 0.23532 -0.07906 0.02565
 H114 H 0.25461 -0.05451 0.05585
 H115 H 0.31908 -0.09405 0.04411
 H116 H 0.22655 -0.13201 -0.04718
 H117 H 0.20586 -0.11255 -0.07838
 H118 H 0.22419 -0.04557 -0.04518
 H119 H 0.24315 -0.06725 -0.01410
 C120 C 0.31017 -0.16305 -0.04087
 C121 C 0.19128 -0.16117 0.03354
 C122 C 0.21275 -0.07665 -0.06542
 C123 C 0.28861 -0.07222 0.05280
 C124 C 0.22969 0.16425 0.46830
 H125 H 0.24792 0.16933 0.46572
 C126 C 0.21174 0.17537 0.45552
 H127 H 0.21622 0.18916 0.44323
 C128 C 0.20172 0.13898 0.48617
 H129 H 0.19789 0.12423 0.49741
 C130 C 0.18339 0.14939 0.47363
 H131 H 0.16553 0.14293 0.47588
 N132 N 0.22439 0.14637 0.48323
 C133 C 0.28907 0.13273 0.52262
 H134 H 0.28876 0.11385 0.51999
 C135 C 0.30734 0.14301 0.53542
 H136 H 0.32124 0.13184 0.54216
 C137 C 0.27143 0.16997 0.51619
 H138 H 0.25719 0.18027 0.50886
 C139 C 0.28943 0.18107 0.52917
 H140 H 0.28887 0.19996 0.53173
 Zn141 Zn 0.24870 0.12816 0.49703
 N142 N 0.27172 0.14619 0.51314
 C143 C 0.28542 0.11780 0.46508
 N144 N 0.26354 0.11106 0.47228
 C145 C 0.25170 0.09346 0.46097
 C146 C 0.26235 0.08117 0.44227
 C147 C 0.29653 0.10629 0.44626
 C148 C 0.22388 0.11949 0.53792
 C149 C 0.21338 0.10679 0.55604
 C150 C 0.22795 0.07092 0.53795
 C151 C 0.23805 0.08435 0.51998
 N152 N 0.23553 0.10818 0.52014
 H153 H 0.29414 0.13250 0.47359
 H154 H 0.23402 0.08889 0.46657
 H155 H 0.25287 0.06674 0.43404
 H156 H 0.31371 0.11242 0.44060
 H157 H 0.22261 0.13848 0.53787
 H158 H 0.20414 0.11617 0.57001
 H159 H 0.22982 0.05196 0.53748
 H160 H 0.24802 0.07574 0.50611
 C161 C 0.30767 0.16748 0.53906
 C162 C 0.18833 0.16753 0.45778
 C163 C 0.21521 0.08218 0.55614
 C164 C 0.28513 0.08751 0.43467
 C165 C 0.15029 0.46258 0.22194
 H166 H 0.13993 0.45258 0.23430
 C167 C 0.16221 0.45073 0.20378
 H168 H 0.16018 0.43185 0.20207
 C169 C 0.16498 0.49914 0.20880
 H170 H 0.16614 0.51796 0.21070
 C171 C 0.17723 0.48801 0.19041
 H172 H 0.18763 0.49852 0.17841
 N173 N 0.15087 0.48650 0.22345
 C174 C 0.13794 0.53731 0.27856
 H175 H 0.12330 0.54599 0.27004
 C176 C 0.14716 0.54686 0.29930
 H177 H 0.13994 0.56323 0.30612
 C178 C 0.16420 0.50486 0.28072
 H179 H 0.17018 0.48813 0.27367
 C180 C 0.17392 0.51380 0.30168
 H181 H 0.18746 0.50384 0.31068
 Zn182 Zn 0.12966 0.50228 0.24462
 N183 N 0.14634 0.51656 0.26983
 C184 C 0.10621 0.47848 0.28145
 N185 N 0.10817 0.48009 0.25756
 C186 C 0.09577 0.46548 0.24296
 C187 C 0.08180 0.44755 0.25229
 C188 C 0.09204 0.46116 0.29151
 C189 C 0.12484 0.54530 0.22089
 C190 C 0.11317 0.56389 0.21002
 C191 C 0.07635 0.54313 0.21502
 C192 C 0.08879 0.52477 0.22563
 N193 N 0.11266 0.52612 0.22834
 H194 H 0.11594 0.49036 0.29281
 H195 H 0.09744 0.46723 0.22402
 H196 H 0.07263 0.43556 0.24050
 H197 H 0.09111 0.45974 0.31055
 H198 H 0.14355 0.54670 0.22424
 H199 H 0.12340 0.57881 0.20410
 H200 H 0.05731 0.54194 0.21362
 H201 H 0.07925 0.50973 0.23215
 C202 C 0.16495 0.53479 0.31149
 C203 C 0.17518 0.46357 0.18715
 C204 C 0.08854 0.56312 0.20713
 C205 C 0.08006 0.44515 0.27685
 C206 C -0.14910 0.03414 0.23494
 H207 H -0.13980 0.04540 0.24724
 C208 C -0.16119 0.04428 0.21611
 H209 H -0.16003 0.06316 0.21430
 C210 C -0.16027 -0.00394 0.22221
 H211 H -0.16016 -0.02271 0.22464
 C212 C -0.17238 0.00540 0.20296
 H213 H -0.18175 -0.00668 0.19147
 N214 N -0.14807 0.01036 0.23721
 C215 C -0.12853 -0.02745 0.30109
 H216 H -0.10959 -0.02526 0.29957
 C217 C -0.13789 -0.04008 0.31980
 H218 H -0.12592 -0.04710 0.33287
 C219 C -0.16685 -0.02015 0.28595
 H220 H -0.17794 -0.01244 0.27254
 C221 C -0.17704 -0.03301 0.30436
 H222 H -0.19603 -0.03522 0.30486
 Zn223 Zn -0.12692 -0.00227 0.26011
 N224 N -0.14297 -0.01772 0.28472
 C225 C -0.11272 0.02993 0.29581
 N226 N -0.10880 0.02296 0.27309
 C227 C -0.09344 0.03483 0.25907
 C228 C -0.08071 0.05397 0.26802
 C229 C -0.10072 0.04924 0.30533
 C230 C -0.11807 -0.04581 0.23895
 C231 C -0.10539 -0.06392 0.22803
 C232 C -0.06986 -0.04091 0.23267
 C233 C -0.08333 -0.02307 0.24332
 N234 N -0.10715 -0.02555 0.24575
 H235 H -0.12568 0.02095 0.30644
 H236 H -0.09123 0.02954 0.24080
 H237 H -0.06816 0.06267 0.25662
 H238 H -0.10473 0.05477 0.32323
 H239 H -0.13669 -0.04815 0.24236
 H240 H -0.11480 -0.07948 0.22216
 H241 H -0.05094 -0.03863 0.23109
 H242 H -0.07459 -0.00748 0.24985
 C243 C -0.16244 -0.04332 0.32155
 C244 C -0.17234 0.02990 0.19900
 C245 C -0.08092 -0.06163 0.22463
 C246 C -0.08431 0.06155 0.29147
 C247 C 0.36034 0.53673 0.72959
 H248 H 0.37191 0.54740 0.74036
 C249 C 0.34814 0.54721 0.71105
 H250 H 0.35092 0.56570 0.70757
 C251 C 0.34328 0.49976 0.72045
 H252 H 0.34109 0.48135 0.72424
 C253 C 0.33077 0.50952 0.70168
 H254 H 0.31930 0.49839 0.69114
 N255 N 0.35843 0.51319 0.73348
 C256 C 0.37528 0.47241 0.79621
 H257 H 0.39434 0.47356 0.79519
 C258 C 0.36474 0.45956 0.81417
 H259 H 0.37593 0.45130 0.82718
 C260 C 0.33781 0.48256 0.78066
 H261 H 0.32746 0.49157 0.76750
 C262 C 0.32646 0.46954 0.79820
 H263 H 0.30737 0.46844 0.79815
 Zn264 Zn 0.37894 0.49914 0.75614
 N265 N 0.36182 0.48357 0.77994
 C266 C 0.39306 0.53008 0.79284
 N267 N 0.39778 0.52322 0.77025
 C268 C 0.41441 0.53449 0.75719
 C269 C 0.42742 0.55304 0.76696
 C270 C 0.40531 0.54884 0.80315
 C271 C 0.38645 0.45684 0.73183
 C272 C 0.39868 0.43922 0.71966
 C273 C 0.43512 0.45963 0.72814
 C274 C 0.42210 0.47706 0.74000
 N275 N 0.39807 0.47574 0.74105
 H276 H 0.37923 0.52150 0.80271
 H277 H 0.41732 0.52931 0.73899
 H278 H 0.44087 0.56132 0.75630
 H279 H 0.40056 0.55440 0.82086
 H280 H 0.36763 0.45515 0.73423
 H281 H 0.38902 0.42442 0.71235
 H282 H 0.45417 0.46116 0.72706
 H283 H 0.43132 0.49144 0.74841
 C284 C 0.33999 0.45767 0.81521
 C285 C 0.33365 0.53342 0.69638
 C286 C 0.42330 0.44064 0.71742
 C287 C 0.42282 0.56066 0.79022
 C288 C 0.64533 0.96405 0.72404
 H289 H 0.63502 0.95439 0.73669
 C290 C 0.65686 0.95175 0.70594
 H291 H 0.65458 0.93287 0.70460
 C292 C 0.66037 1.00017 0.71014
 H293 H 0.66191 1.01899 0.71178
 C294 C 0.67224 0.98857 0.69176
 H295 H 0.68268 0.99873 0.67950
 N296 N 0.64627 0.98798 0.72518
 C297 C 0.63363 1.04039 0.77923
 H298 H 0.61815 1.04801 0.77115
 C299 C 0.64315 1.05095 0.79934
 H300 H 0.63532 1.06731 0.80533
 C301 C 0.66215 1.00996 0.78053
 H302 H 0.66890 0.99352 0.77347
 C303 C 0.67233 1.01996 0.80080
 H304 H 0.68672 1.01057 0.80901
 Zn305 Zn 0.62563 1.00439 0.74651
 N306 N 0.64294 1.02010 0.77044
 C307 C 0.60475 0.98126 0.78526
 N308 N 0.60505 0.98246 0.76128
 C309 C 0.59177 0.96753 0.74787
 C310 C 0.57868 0.94965 0.75845
 C311 C 0.59156 0.96397 0.79658
 C312 C 0.61940 1.04608 0.72093
 C313 C 0.60719 1.06412 0.70974
 C314 C 0.57066 1.04381 0.71773
 C315 C 0.58366 1.02593 0.72853
 N316 N 0.60764 1.02732 0.72992
 H317 H 0.61505 0.99348 0.79572
 H318 H 0.59219 0.96889 0.72883
 H319 H 0.56933 0.93725 0.74727
 H320 H 0.59162 0.96349 0.81568
 H321 H 0.63825 1.04760 0.72323
 H322 H 0.61714 1.07864 0.70253
 H323 H 0.55158 1.04262 0.71744
 H324 H 0.57446 1.01127 0.73631
 C325 C 0.66237 1.04045 0.81116
 C326 C 0.66984 0.96411 0.68896
 C327 C 0.58243 1.06335 0.70822
 C328 C 0.57875 0.94740 0.78317
 C329 C 0.02104 0.22708 -0.15735
 H330 H 0.02744 0.24493 -0.15792
 C331 C 0.03221 0.20971 -0.17099
 H332 H 0.04698 0.21457 -0.18206
 C333 C -0.00609 0.19921 -0.14256
 H334 H -0.02116 0.19508 -0.13170
 C335 C 0.00471 0.18125 -0.15565
 H336 H -0.00187 0.16348 -0.15390
 N337 N 0.00280 0.22144 -0.14280
 C338 C -0.02461 0.29065 -0.12588
 H339 H -0.01789 0.29241 -0.10808
 C340 C -0.03486 0.30996 -0.13690
 H341 H -0.03606 0.32657 -0.12744
 C342 C -0.03161 0.26666 -0.15964
 H343 H -0.03026 0.24967 -0.16832
 C344 C -0.04237 0.28549 -0.17122
 H345 H -0.04916 0.28300 -0.18894
 Zn346 Zn -0.00876 0.24452 -0.12102
 N347 N -0.02302 0.26960 -0.13739
 C348 C 0.03155 0.27239 -0.11486
 N349 N 0.01708 0.25707 -0.10354
 C350 C 0.02061 0.25171 -0.08043
 C351 C 0.03955 0.26159 -0.06798
 C352 C 0.05055 0.28277 -0.10308
 C353 C -0.05330 0.24059 -0.09876
 C354 C -0.07081 0.23017 -0.08499
 C355 C -0.04302 0.19970 -0.07473
 C356 C -0.02592 0.21112 -0.08823
 N357 N -0.03143 0.23087 -0.10039
 H358 H 0.02805 0.27699 -0.13300
 H359 H 0.00872 0.23992 -0.07150
 H360 H 0.04200 0.25728 -0.04957
 H361 H 0.06191 0.29479 -0.11251
 H362 H -0.05747 0.25624 -0.10862
 H363 H -0.08815 0.23813 -0.08549
 H364 H -0.03743 0.18431 -0.06515
 H365 H -0.00829 0.20382 -0.08952
 C366 C -0.04391 0.30750 -0.15984
 C367 C 0.02460 0.18622 -0.16963
 C368 C -0.06626 0.20888 -0.07295
 C369 C 0.05476 0.27740 -0.07933
 C370 C 0.46577 0.22945 0.14675
 H371 H 0.45442 0.24011 0.13590
 C372 C 0.45607 0.21056 0.15890
 H373 H 0.43735 0.20702 0.15714
 C374 C 0.50410 0.21985 0.16048
 H375 H 0.52292 0.22322 0.16039
 C376 C 0.49513 0.20064 0.17286
 H377 H 0.50712 0.18952 0.18263
 N378 N 0.48944 0.23355 0.14744
 C379 C 0.52017 0.30107 0.12964
 H380 H 0.51593 0.30071 0.11102
 C381 C 0.52990 0.32126 0.13974
 H382 H 0.53324 0.33640 0.12875
 C383 C 0.52124 0.28156 0.16646
 H384 H 0.51769 0.26604 0.17675
 C385 C 0.53143 0.30137 0.17725
 H386 H 0.53565 0.30106 0.19589
 Zn387 Zn 0.50258 0.25592 0.12667
 N388 N 0.51600 0.28178 0.14300
 C389 C 0.46294 0.28318 0.11735
 N390 N 0.47842 0.26791 0.10704
 C391 C 0.47647 0.26174 0.08385
 C392 C 0.45796 0.27065 0.07024
 C393 C 0.44437 0.29267 0.10437
 C394 C 0.54863 0.24934 0.10840
 C395 C 0.56675 0.23716 0.09686
 C396 C 0.53870 0.20692 0.08605
 C397 C 0.52108 0.21970 0.09783
 N398 N 0.52631 0.24047 0.10872
 H399 H 0.46496 0.28782 0.13581
 H400 H 0.48912 0.24980 0.07592
 H401 H 0.45655 0.26555 0.05182
 H402 H 0.43201 0.30451 0.11300
 H403 H 0.55255 0.26570 0.11742
 H404 H 0.58437 0.24458 0.09675
 H405 H 0.53431 0.19016 0.07793
 H406 H 0.50328 0.21281 0.09876
 C407 C 0.53569 0.32156 0.16380
 C408 C 0.47085 0.19552 0.17173
 C409 C 0.56196 0.21554 0.08566
 C410 C 0.44162 0.28630 0.08053
 C411 C 0.96292 0.72143 0.65731
 H412 H 0.95196 0.73341 0.64749
 C413 C 0.95226 0.70311 0.66963
 H414 H 0.93328 0.70098 0.66851
 C415 C 1.00081 0.70912 0.66984
 H416 H 1.01971 0.71132 0.66983
 C417 C 0.99088 0.69059 0.68248
 H418 H 1.00237 0.67883 0.69210
 N419 N 0.98688 0.72349 0.65670
 C420 C 1.02802 0.78481 0.63569
 H421 H 1.02872 0.78121 0.61691
 C422 C 1.03852 0.80506 0.64482
 H423 H 1.04740 0.81710 0.63305
 C424 C 1.01496 0.77378 0.67384
 H425 H 1.00543 0.76163 0.68492
 C426 C 1.02568 0.79373 0.68384
 H427 H 1.02440 0.79700 0.70267
 Zn428 Zn 1.00067 0.74472 0.63469
 N429 N 1.01601 0.77001 0.65009
 C430 C 0.97206 0.78041 0.61476
 N431 N 0.97635 0.75685 0.61487
 C432 C 0.96262 0.74172 0.60214
 C433 C 0.94346 0.75010 0.58909
 C434 C 0.95344 0.78956 0.60162
 C435 C 1.04440 0.72294 0.62774
 C436 C 1.06262 0.71149 0.61566
 C437 C 1.03937 0.71338 0.58002
 C438 C 1.02142 0.72458 0.59290
 N439 N 1.02408 0.72884 0.61643
 H440 H 0.98275 0.79224 0.62523
 H441 H 0.96608 0.72301 0.60278
 H442 H 0.93227 0.73759 0.57990
 H443 H 0.95074 0.80841 0.60163
 H444 H 1.04671 0.72754 0.64613
 H445 H 1.07830 0.70649 0.62533
 H446 H 1.03701 0.71051 0.56125
 H447 H 1.00555 0.73008 0.58394
 C448 C 1.03717 0.80977 0.66908
 C449 C 0.96636 0.68684 0.68171
 C450 C 1.06033 0.70655 0.59143
 C451 C 0.93849 0.77435 0.58885
 C452 C 0.52410 0.73359 0.34159
 H453 H 0.53057 0.75149 0.34245
 C454 C 0.53644 0.71658 0.32848
 H455 H 0.55211 0.72172 0.31885
 C456 C 0.49617 0.70512 0.35372
 H457 H 0.48073 0.70058 0.36394
 C458 C 0.50804 0.68757 0.34107
 H459 H 0.50162 0.66967 0.34208
 N460 N 0.50458 0.72751 0.35415
 C461 C 0.46251 0.78921 0.37295
 H462 H 0.45982 0.78526 0.39141
 C463 C 0.45209 0.80912 0.36338
 H464 H 0.44064 0.81932 0.37483
 C465 C 0.47963 0.77912 0.33614
 H466 H 0.49056 0.76742 0.32566
 C467 C 0.46977 0.79916 0.32580
 H468 H 0.47408 0.80251 0.30755
 Zn469 Zn 0.49080 0.74942 0.37542
 N470 N 0.47623 0.77482 0.35945
 C471 C 0.51716 0.78508 0.39885
 N472 N 0.51532 0.76148 0.39501
 C473 C 0.53190 0.74638 0.40347
 C474 C 0.55129 0.75490 0.41623
 C475 C 0.53611 0.79430 0.41163
 C476 C 0.44442 0.73647 0.38785
 C477 C 0.42677 0.72522 0.40068
 C478 C 0.45699 0.70744 0.42479
 C479 C 0.47410 0.71943 0.41175
 N480 N 0.46757 0.73377 0.39377
 H481 H 0.50420 0.79697 0.39176
 H482 H 0.53048 0.72776 0.39964
 H483 H 0.56462 0.74265 0.42221
 H484 H 0.53701 0.81313 0.41460
 H485 H 0.43956 0.74715 0.37294
 H486 H 0.40843 0.72760 0.39576
 H487 H 0.46239 0.69613 0.43909
 H488 H 0.49258 0.71715 0.41591
 C489 C 0.45605 0.81504 0.33953
 C490 C 0.52874 0.69305 0.32854
 C491 C 0.43300 0.71051 0.41939
 C492 C 0.55369 0.77922 0.42027
 C493 C 0.36920 -0.00186 0.21401
 C494 C 0.37897 0.00987 0.23357
 C495 C 0.38968 0.03187 0.23064
 C496 C 0.39067 0.04229 0.20831
 C497 C 0.37997 0.03080 0.18902
 C498 C 0.36918 0.00865 0.19159
 C499 C 0.37776 -0.00066 0.25726
 C500 C 0.38745 -0.02299 0.26135
 C501 C 0.38734 -0.03232 0.28417
 C502 C 0.37643 -0.01974 0.30262
 C503 C 0.36628 0.00247 0.29878
 C504 C 0.36738 0.01202 0.27600
 H505 H 0.36143 -0.01907 0.21645
 H506 H 0.39784 0.04051 0.24569
 H507 H 0.39595 -0.03259 0.24705
 H508 H 0.36026 0.02939 0.27273
 H509 H 0.37965 0.03948 0.17210
 H510 H 0.37566 -0.02757 0.31997
 C511 C 0.13834 1.00786 0.71508
 C512 C 0.12727 0.99650 0.73394
 C513 C 0.11680 0.97441 0.73031
 C514 C 0.11721 0.96357 0.70791
 C515 C 0.12879 0.97502 0.68926
 C516 C 0.13933 0.99719 0.69262
 C517 C 0.12663 1.00773 0.75755
 C518 C 0.11656 1.03010 0.76063
 C519 C 0.11543 1.04066 0.78315
 C520 C 0.12535 1.02876 0.80247
 C521 C 0.13597 1.00655 0.79954
 C522 C 0.13611 0.99599 0.77701
 H523 H 0.14666 1.02479 0.71810
 H524 H 0.10769 0.96610 0.74485
 H525 H 0.10945 1.03913 0.74544
 H526 H 0.14371 0.97864 0.77448
 H527 H 0.12940 0.96678 0.67195
 H528 H 0.12478 1.03679 0.81986
 C529 C 0.64341 0.51421 0.21644
 C530 C 0.63243 0.50260 0.23524
 C531 C 0.62197 0.48051 0.23134
 C532 C 0.62228 0.47001 0.20878
 C533 C 0.63410 0.48152 0.19034
 C534 C 0.64454 0.50364 0.19397
 C535 C 0.63127 0.51381 0.25886
 C536 C 0.62174 0.53647 0.26157
 C537 C 0.61972 0.54696 0.28408
 C538 C 0.62814 0.53462 0.30380
 C539 C 0.63833 0.51217 0.30127
 C540 C 0.63948 0.50175 0.27871
 H541 H 0.65146 0.53128 0.21942
 H542 H 0.61271 0.47204 0.24570
 H543 H 0.61566 0.54576 0.24611
 H544 H 0.64736 0.48448 0.27643
 H545 H 0.63475 0.47350 0.17293
 H546 H 0.62619 0.54216 0.32132
 C547 C 0.86124 0.49013 0.71890
 C548 C 0.87094 0.50113 0.73893
 C549 C 0.88168 0.52325 0.73683
 C550 C 0.88282 0.53440 0.71485
 C551 C 0.87220 0.52357 0.69513
 C552 C 0.86140 0.50136 0.69686
 C553 C 0.86957 0.48959 0.76217
 C554 C 0.87815 0.46663 0.76504
 C555 C 0.87655 0.45552 0.78701
 C556 C 0.86570 0.46742 0.80600
 C557 C 0.85720 0.49053 0.80351
 C558 C 0.85947 0.50154 0.78148
 H559 H 0.85342 0.47285 0.72065
 H560 H 0.88978 0.53137 0.75219
 H561 H 0.88626 0.45751 0.75021
 H562 H 0.85336 0.51945 0.77922
 H563 H 0.87203 0.53277 0.67849
 H564 H 0.86420 0.45869 0.82285
 C565 C 0.21643 0.35200 -0.00750
 C566 C 0.23601 0.36229 0.00367
 C567 C 0.23314 0.37367 0.02558
 C568 C 0.21072 0.37525 0.03616
 C569 C 0.19130 0.36463 0.02486
 C570 C 0.19400 0.35289 0.00309
 C571 C 0.25940 0.36171 -0.00788
 C572 C 0.26231 0.37133 -0.03042
 C573 C 0.28452 0.37100 -0.04141
 C574 C 0.30382 0.36085 -0.02978
 C575 C 0.30124 0.35142 -0.00710
 C576 C 0.27891 0.35191 0.00376
 H577 H 0.21870 0.34339 -0.02451
 H578 H 0.24821 0.38208 0.03388
 H579 H 0.24737 0.37926 -0.03931
 H580 H 0.27670 0.34485 0.02134
 H581 H 0.17408 0.36516 0.03325
 H582 H 0.32099 0.36064 -0.03831
 C583 C 0.71739 0.12531 1.01479
 C584 C 0.73597 0.11457 1.00228
 C585 C 0.73163 0.10441 0.98001
 C586 C 0.70879 0.10471 0.97030
 C587 C 0.69047 0.11592 0.98291
 C588 C 0.69458 0.12632 1.00511
 C589 C 0.75998 0.11427 1.01248
 C590 C 0.76379 0.10479 1.03492
 C591 C 0.78650 0.10471 1.04484
 C592 C 0.80525 0.11513 1.03248
 C593 C 0.80172 0.12500 1.01005
 C594 C 0.77899 0.12396 1.00000
 H595 H 0.72082 0.13307 1.03200
 H596 H 0.74594 0.09579 0.97059
 H597 H 0.74918 0.09689 1.04434
 H598 H 0.77587 0.13098 0.98256
 H599 H 0.67305 0.11716 0.97509
 H600 H 0.82247 0.11605 1.04076
 C601 C 0.21698 0.62597 0.51363
 C602 C 0.23599 0.61591 0.50120
 C603 C 0.23193 0.60458 0.47948
 C604 C 0.20893 0.60273 0.47041
 C605 C 0.19005 0.61282 0.48309
 C606 C 0.19387 0.62477 0.50460
 C607 C 0.26009 0.61713 0.51107
 C608 C 0.26463 0.60827 0.53363
 C609 C 0.28756 0.60887 0.54302
 C610 C 0.30577 0.61937 0.52995
 C611 C 0.30153 0.62846 0.50733
 C612 C 0.27859 0.62688 0.49789
 H613 H 0.22044 0.63532 0.53002
 H614 H 0.24661 0.59663 0.47002
 H615 H 0.25044 0.60011 0.54348
 H616 H 0.27497 0.63329 0.48031
 H617 H 0.17230 0.61144 0.47607
 H618 H 0.32320 0.62079 0.53771
 C619 C 0.71638 0.84982 0.49661
 C620 C 0.73537 0.86011 0.50870
 C621 C 0.73147 0.87166 0.53033
 C622 C 0.70858 0.87340 0.53980
 C623 C 0.68968 0.86279 0.52759
 C624 C 0.69340 0.85083 0.50604
 C625 C 0.75935 0.85906 0.49858
 C626 C 0.76436 0.87056 0.47738
 C627 C 0.78736 0.87030 0.46796
 C628 C 0.80516 0.85790 0.48000
 C629 C 0.80039 0.84623 0.50128
 C630 C 0.77729 0.84699 0.51043
 H631 H 0.71969 0.84056 0.48012
 H632 H 0.74620 0.87998 0.53933
 H633 H 0.75045 0.88035 0.46873
 H634 H 0.77303 0.83789 0.52661
 H635 H 0.67199 0.86402 0.53482
 H636 H 0.82291 0.85756 0.47289
 C637 C -0.00536 0.22500 0.35874
 C638 C 0.00796 0.24436 0.36659
 C639 C 0.03148 0.24105 0.37368
 C640 C 0.04178 0.21857 0.37308
 C641 C 0.02841 0.19947 0.36452
 C642 C 0.00480 0.20243 0.35731
 C643 C -0.00269 0.26811 0.36751
 C644 C -0.02388 0.27207 0.37983
 C645 C -0.03349 0.29480 0.38152
 C646 C -0.02192 0.31349 0.37029
 C647 C -0.00105 0.30975 0.35726
 C648 C 0.00852 0.28692 0.35619
 H649 H -0.02362 0.22766 0.35371
 H650 H 0.04165 0.25601 0.37991
 H651 H -0.03246 0.25758 0.38871
 H652 H 0.02441 0.28349 0.34604
 H653 H 0.03640 0.18218 0.36372
 H654 H -0.02932 0.33103 0.37168
 C655 C 1.01153 0.72370 0.13618
 C656 C 0.99925 0.74260 0.12619
 C657 C 0.97763 0.73861 0.11476
 C658 C 0.96840 0.71574 0.11281
 C659 C 0.98080 0.69701 0.12311
 C660 C 1.00231 0.70077 0.13496
 C661 C 1.00936 0.76648 0.12705
 C662 C 1.03108 0.77097 0.11609
 C663 C 1.04031 0.79386 0.11571
 C664 C 1.02786 0.81217 0.12702
 C665 C 1.00636 0.80784 0.13871
 C666 C 0.99711 0.78486 0.13834
 H667 H 1.02802 0.72706 0.14531
 H668 H 0.96848 0.75321 0.10665
 H669 H 1.04035 0.75677 0.10711
 H670 H 0.98065 0.78102 0.14729
 H671 H 0.97371 0.67936 0.12178
 H672 H 1.03497 0.82984 0.12666
 C673 C 0.50604 0.22176 0.63316
 C674 C 0.49411 0.24100 0.62339
 C675 C 0.47105 0.23811 0.61480
 C676 C 0.45985 0.21619 0.61603
 C677 C 0.47186 0.19707 0.62598
 C678 C 0.49503 0.19961 0.63463
 C679 C 0.50555 0.26432 0.62249
 C680 C 0.52732 0.26711 0.61098
 C681 C 0.53766 0.28948 0.60923
 C682 C 0.52634 0.30894 0.61978
 C683 C 0.50484 0.30631 0.63194
 C684 C 0.49446 0.28389 0.63295
 H685 H 0.52364 0.22433 0.64022
 H686 H 0.46182 0.25293 0.60718
 H687 H 0.53576 0.25203 0.60268
 H688 H 0.47800 0.28142 0.64239
 H689 H 0.46328 0.18005 0.62631
 H690 H 0.53432 0.32620 0.61847
 C691 C 0.49646 0.72426 0.86194
 C692 C 0.50849 0.74390 0.87111
 C693 C 0.53113 0.74107 0.88074
 C694 C 0.54165 0.71873 0.88157
 C695 C 0.52974 0.69936 0.87163
 C696 C 0.50706 0.70185 0.86177
 C697 C 0.49710 0.76731 0.87126
 C698 C 0.47471 0.77033 0.88149
 C699 C 0.46390 0.79257 0.88207
 C700 C 0.47575 0.81180 0.87209
 C701 C 0.49795 0.80900 0.86120
 C702 C 0.50858 0.78661 0.86110
 H703 H 0.47878 0.72656 0.85503
 H704 H 0.54008 0.75611 0.88851
 H705 H 0.46575 0.75532 0.88902
 H706 H 0.52551 0.78389 0.85254
 H707 H 0.53840 0.68237 0.87138
 H708 H 0.46782 0.82911 0.87324
 C709 C 0.42937 -0.12041 0.31190
 C710 C 0.43520 -0.13913 0.29661
 C711 C 0.44388 -0.16038 0.30553
 C712 C 0.44700 -0.16358 0.33010
 C713 C 0.44105 -0.14448 0.34517
 C714 C 0.43225 -0.12349 0.33625
 C715 C 0.42021 -0.09767 0.30287
 C716 C 0.42668 -0.07645 0.31409
 C717 C 0.41630 -0.05525 0.30756
 C718 C 0.39954 -0.05466 0.28937
 C719 C 0.39391 -0.07553 0.27718
 C720 C 0.40407 -0.09692 0.28398
 H721 H 0.44737 -0.17437 0.29295
 H722 H 0.44393 -0.14500 0.36401
 H723 H 0.42117 -0.03926 0.31690
 H724 H 0.38099 -0.07539 0.26308
 H725 H 0.42763 -0.10959 0.34863
 H726 H 0.43957 -0.07624 0.32820
 H727 H 0.43322 -0.13732 0.27770
 H728 H 0.39861 -0.11294 0.27506
 C729 C 0.92218 0.36771 0.80964
 C730 C 0.91132 0.34550 0.80847
 C731 C 0.92268 0.32570 0.81766
 C732 C 0.94490 0.32788 0.82851
 C733 C 0.95593 0.35000 0.82923
 C734 C 0.94474 0.36969 0.81978
 C735 C 0.90962 0.38909 0.80159
 C736 C 0.92155 0.40623 0.78844
 C737 C 0.91043 0.42743 0.78288
 C738 C 0.88726 0.43202 0.79061
 C739 C 0.87507 0.41458 0.80312
 C740 C 0.88610 0.39326 0.80845
 H741 H 0.91378 0.30885 0.81701
 H742 H 0.97313 0.35210 0.83736
 H743 H 0.92028 0.44064 0.77336
 H744 H 0.85713 0.41763 0.80912
 H745 H 0.95340 0.38663 0.82112
 H746 H 0.93963 0.40337 0.78281
 H747 H 0.89398 0.34351 0.80064
 H748 H 0.87657 0.38041 0.81876
 C749 C 0.06469 1.12766 0.80218
 C750 C 0.07608 1.14853 0.80929
 C751 C 0.06304 1.16778 0.81766
 C752 C 0.03821 1.16681 0.81883
 C753 C 0.02677 1.14639 0.81053
 C754 C 0.03983 1.12702 0.80247
 C755 C 0.07863 1.10624 0.79587
 C756 C 0.07048 1.09021 0.77866
 C757 C 0.08263 1.06918 0.77422
 C758 C 0.10339 1.06375 0.78670
 C759 C 0.11199 1.08017 0.80330
 C760 C 0.09970 1.10104 0.80794
 H761 H 0.07255 1.18305 0.82409
 H762 H 0.00769 1.14514 0.81071
 H763 H 0.07535 1.05688 0.76147
 H764 H 0.12815 1.07682 0.81292
 H765 H 0.03040 1.11123 0.79732
 H766 H 0.05455 1.09376 0.76874
 H767 H 0.09515 1.14988 0.80885
 H768 H 0.10640 1.11275 0.82154
 C769 C 0.56999 0.63490 0.30127
 C770 C 0.58115 0.65535 0.30990
 C771 C 0.56782 0.67456 0.31792
 C772 C 0.54298 0.67395 0.31724
 C773 C 0.53188 0.65403 0.30738
 C774 C 0.54518 0.63471 0.29967
 C775 C 0.58394 0.61336 0.29540
 C776 C 0.57667 0.59788 0.27729
 C777 C 0.58849 0.57659 0.27334
 C778 C 0.60812 0.57034 0.28718
 C779 C 0.61597 0.58625 0.30464
 C780 C 0.60395 0.60737 0.30881
 H781 H 0.57703 0.68947 0.32555
 H782 H 0.51281 0.65310 0.30612
 H783 H 0.58176 0.56473 0.25989
 H784 H 0.63128 0.58227 0.31533
 H785 H 0.53588 0.61926 0.29335
 H786 H 0.56161 0.60205 0.26632
 H787 H 0.60022 0.65636 0.31093
 H788 H 0.60995 0.61863 0.32311
 C789 C 0.56985 0.38431 0.18927
 C790 C 0.57903 0.36203 0.19493
 C791 C 0.56736 0.34150 0.18761
 C792 C 0.54645 0.34292 0.17436
 C793 C 0.53674 0.36511 0.16966
 C794 C 0.54821 0.38556 0.17715
 C795 C 0.58332 0.40616 0.19466
 C796 C 0.58377 0.42454 0.17823
 C797 C 0.59639 0.44511 0.18289
 C798 C 0.60915 0.44782 0.20400
 C799 C 0.60882 0.42945 0.22047
 C800 C 0.59605 0.40881 0.21584
 H801 H 0.57524 0.32456 0.19132
 H802 H 0.52042 0.36662 0.15979
 H803 H 0.59589 0.45905 0.16999
 H804 H 0.61860 0.43094 0.23684
 H805 H 0.54032 0.40240 0.17308
 H806 H 0.57454 0.42296 0.16155
 H807 H 0.59573 0.36044 0.20409
 H808 H 0.59595 0.39505 0.22892
 C809 C 0.06848 0.87505 0.69095
 C810 C 0.07769 0.85356 0.69909
 C811 C 0.06686 0.83221 0.69294
 C812 C 0.04687 0.83204 0.67836
 C813 C 0.03718 0.85339 0.67087
 C814 C 0.04770 0.87468 0.67731
 C815 C 0.08096 0.89769 0.69560
 C816 C 0.08134 0.91527 0.67829
 C817 C 0.09295 0.93655 0.68237
 C818 C 0.10490 0.94076 0.70373
 C819 C 0.10473 0.92314 0.72103
 C820 C 0.09282 0.90189 0.71704
 H821 H 0.07464 0.81582 0.69870
 H822 H 0.02166 0.85353 0.65968
 H823 H 0.09231 0.94982 0.66880
 H824 H 0.11396 0.92567 0.73759
 H825 H 0.03970 0.89086 0.67127
 H826 H 0.07284 0.91255 0.66137
 H827 H 0.09377 0.85312 0.70941
 H828 H 0.09275 0.88886 0.73085
 C829 C 0.93327 0.62224 0.70309
 C830 C 0.92196 0.64391 0.70732
 C831 C 0.93308 0.66504 0.70143
 C832 C 0.95577 0.66494 0.69122
 C833 C 0.96748 0.64330 0.68810
 C834 C 0.95638 0.62223 0.69399
 C835 C 0.92056 0.59969 0.70663
 C836 C 0.92262 0.58151 0.68974
 C837 C 0.91036 0.56044 0.69249
 C838 C 0.89569 0.55698 0.71218
 C839 C 0.89367 0.57508 0.72917
 C840 C 0.90592 0.59627 0.72638
 H841 H 0.92370 0.68143 0.70433
 H842 H 0.98483 0.64250 0.68005
 H843 H 0.91252 0.54672 0.67926
 H844 H 0.88238 0.57296 0.74446
 H845 H 0.96571 0.60583 0.69090
 H846 H 0.93345 0.58372 0.67415
 H847 H 0.90412 0.64449 0.71424
 H848 H 0.90408 0.60992 0.73973
 C849 C 0.43986 0.13046 0.19441
 C850 C 0.42803 0.15189 0.19839
 C851 C 0.43856 0.17318 0.19211
 C852 C 0.46115 0.17349 0.18174
 C853 C 0.47344 0.15215 0.17887
 C854 C 0.46291 0.13088 0.18513
 C855 C 0.42768 0.10773 0.19850
 C856 C 0.42989 0.08925 0.18198
 C857 C 0.41783 0.06811 0.18518
 C858 C 0.40326 0.06492 0.20499
 C859 C 0.40113 0.08333 0.22162
 C860 C 0.41317 0.10455 0.21838
 H861 H 0.42876 0.18937 0.19477
 H862 H 0.49077 0.15175 0.17074
 H863 H 0.42006 0.05415 0.17222
 H864 H 0.38990 0.08144 0.23698
 H865 H 0.47261 0.11467 0.18222
 H866 H 0.44064 0.09128 0.16630
 H867 H 0.41022 0.15215 0.20541
 H868 H 0.41122 0.11843 0.23147
 C869 C 0.30911 0.41757 -0.12813
 C870 C 0.33030 0.41033 -0.13901
 C871 C 0.33978 0.42289 -0.15780
 C872 C 0.32865 0.44337 -0.16601
 C873 C 0.30716 0.45035 -0.15558
 C874 C 0.29744 0.43753 -0.13696
 C875 C 0.30013 0.40502 -0.10694
 C876 C 0.28918 0.41753 -0.08832
 C877 C 0.28304 0.40616 -0.06740
 C878 C 0.28807 0.38220 -0.06454
 C879 C 0.29821 0.36946 -0.08329
 C880 C 0.30390 0.38067 -0.10438
 H881 H 0.35604 0.41661 -0.16573
 H882 H 0.29813 0.46609 -0.16134
 H883 H 0.27539 0.41632 -0.05302
 H884 H 0.30204 0.35088 -0.08144
 H885 H 0.28089 0.44344 -0.12933
 H886 H 0.28629 0.43631 -0.08941
 H887 H 0.34006 0.39531 -0.13259
 H888 H 0.31166 0.37029 -0.11851
 C889 C 0.81161 0.91837 0.38153
 C890 C 0.83250 0.91146 0.37009
 C891 C 0.84029 0.92327 0.35009
 C892 C 0.82764 0.94266 0.34131
 C893 C 0.80621 0.94903 0.35233
 C894 C 0.79819 0.93687 0.37220
 C895 C 0.80472 0.90692 0.40382
 C896 C 0.78236 0.89666 0.40651
 C897 C 0.77662 0.88478 0.42730
 C898 C 0.79303 0.88333 0.44594
 C899 C 0.81514 0.89435 0.44333
 C900 C 0.82098 0.90577 0.42244
 H901 H 0.85644 0.91735 0.34166
 H902 H 0.79610 0.96394 0.34618
 H903 H 0.75955 0.87632 0.42854
 H904 H 0.82797 0.89430 0.45749
 H905 H 0.78203 0.94248 0.38085
 H906 H 0.76960 0.89729 0.39227
 H907 H 0.84291 0.89698 0.37681
 H908 H 0.83822 0.91388 0.42083
 C909 C 0.80422 0.06017 1.13459
 C910 C 0.80390 0.07344 1.15557
 C911 C 0.81086 0.06338 1.17691
 C912 C 0.81819 0.03960 1.17794
 C913 C 0.81719 0.02613 1.15683
 C914 C 0.81049 0.03633 1.13552
 C915 C 0.79925 0.07140 1.11159
 C916 C 0.81432 0.06727 1.09226
 C917 C 0.81021 0.07822 1.07069
 C918 C 0.79081 0.09338 1.06791
 C919 C 0.77559 0.09739 1.08717
 C920 C 0.77988 0.08663 1.10888
 H921 H 0.81014 0.07438 1.19257
 H922 H 0.82305 0.00802 1.15613
 H923 H 0.82208 0.07466 1.05607
 H924 H 0.76058 0.10910 1.08550
 H925 H 0.81067 0.02564 1.11958
 H926 H 0.82953 0.05582 1.09395
 H927 H 0.79898 0.09186 1.15536
 H928 H 0.76796 0.09004 1.12350
 C929 C 0.30839 0.56423 0.63205
 C930 C 0.30666 0.57676 0.65349
 C931 C 0.31409 0.56652 0.67459
 C932 C 0.32324 0.54350 0.67466
 C933 C 0.32405 0.53069 0.65333
 C934 C 0.31674 0.54094 0.63227
 C935 C 0.30276 0.57572 0.60934
 C936 C 0.31791 0.57273 0.58987
 C937 C 0.31299 0.58364 0.56848
 C938 C 0.29278 0.59776 0.56601
 C939 C 0.27756 0.60077 0.58545
 C940 C 0.28258 0.58994 0.60697
 H941 H 0.31306 0.57673 0.69079
 H942 H 0.33124 0.51302 0.65274
 H943 H 0.32489 0.58079 0.55372
 H944 H 0.26192 0.61167 0.58406
 H945 H 0.31797 0.53078 0.61604
 H946 H 0.33376 0.56213 0.59127
 H947 H 0.30038 0.59477 0.65382
 H948 H 0.27056 0.59247 0.62168
 C949 C 0.18674 0.56003 0.38006
 C950 C 0.16283 0.56024 0.37343
 C951 C 0.15592 0.55197 0.35126
 C952 C 0.17273 0.54335 0.33506
 C953 C 0.19666 0.54292 0.34168
 C954 C 0.20362 0.55130 0.36396
 C955 C 0.19378 0.56935 0.40359
 C956 C 0.21373 0.58388 0.40612
 C957 C 0.21903 0.59429 0.42797
 C958 C 0.20447 0.59038 0.44767
 C959 C 0.18505 0.57519 0.44531
 C960 C 0.17978 0.56477 0.42354
 H961 H 0.13730 0.55217 0.34685
 H962 H 0.21000 0.53643 0.32953
 H963 H 0.23403 0.60605 0.42926
 H964 H 0.17382 0.57146 0.46031
 H965 H 0.22216 0.55078 0.36866
 H966 H 0.22471 0.58791 0.39102
 H967 H 0.14944 0.56714 0.38529
 H968 H 0.16460 0.55325 0.42226
 C969 C 0.68532 0.06628 0.87829
 C970 C 0.66238 0.07070 0.87020
 C971 C 0.65505 0.06256 0.84811
 C972 C 0.67044 0.04954 0.83323
 C973 C 0.69366 0.04537 0.84148
 C974 C 0.70101 0.05379 0.86362
 C975 C 0.69245 0.07458 0.90214
 C976 C 0.71408 0.08616 0.90579
 C977 C 0.71970 0.09559 0.92802
 C978 C 0.70382 0.09348 0.94702
 C979 C 0.68262 0.08108 0.94349
 C980 C 0.67698 0.07181 0.92132
 H981 H 0.63678 0.06564 0.84350
 H982 H 0.70655 0.03618 0.83071
 H983 H 0.73610 0.10518 0.93014
 H984 H 0.67028 0.07864 0.95789
 H985 H 0.71888 0.05021 0.86944
 H986 H 0.72625 0.08864 0.89125
 H987 H 0.64994 0.08045 0.88108
 H988 H 0.66040 0.06254 0.91912
 C989 C 0.69149 0.92684 0.62590
 C990 C 0.68314 0.95010 0.62475
 C991 C 0.67697 0.96243 0.64530
 C992 C 0.67903 0.95183 0.66753
 C993 C 0.68820 0.92886 0.66876
 C994 C 0.69439 0.91651 0.64817
 C995 C 0.69612 0.91316 0.60388
 C996 C 0.71575 0.89807 0.60200
 C997 C 0.71982 0.88512 0.58124
 C998 C 0.70426 0.88689 0.56199
 C999 C 0.68462 0.90194 0.56392
 C1000 C 0.68060 0.91490 0.58461
 H1001 H 0.66972 0.97998 0.64365
 H1002 H 0.69024 0.92029 0.68563
 H1003 H 0.73502 0.87354 0.58033
 H1004 H 0.67248 0.90393 0.54931
 H1005 H 0.70068 0.89858 0.64964
 H1006 H 0.72810 0.89647 0.61649
 H1007 H 0.68105 0.95868 0.60789
 H1008 H 0.66512 0.92609 0.58561
 C1009 C 0.19661 0.42777 0.12327
 C1010 C 0.18820 0.45102 0.12266
 C1011 C 0.18219 0.46291 0.14349
 C1012 C 0.18449 0.45187 0.16548
 C1013 C 0.19385 0.42894 0.16617
 C1014 C 0.19989 0.41703 0.14528
 C1015 C 0.20064 0.41443 0.10095
 C1016 C 0.22028 0.39948 0.09821
 C1017 C 0.22366 0.38676 0.07717
 C1018 C 0.20735 0.38862 0.05856
 C1019 C 0.18774 0.40357 0.06135
 C1020 C 0.18442 0.41631 0.08228
 H1021 H 0.17479 0.48044 0.14225
 H1022 H 0.19607 0.42004 0.18285
 H1023 H 0.23886 0.37526 0.07557
 H1024 H 0.17503 0.40560 0.04723
 H1025 H 0.20626 0.39909 0.14630
 H1026 H 0.23313 0.39778 0.11225
 H1027 H 0.18583 0.45989 0.10598
 H1028 H 0.16893 0.42741 0.08396
 C1029 C -0.12207 0.31754 0.42748
 C1030 C -0.12879 0.34133 0.42714
 C1031 C -0.15046 0.34851 0.43647
 C1032 C -0.16612 0.33209 0.44628
 C1033 C -0.15948 0.30824 0.44665
 C1034 C -0.13770 0.30101 0.43723
 C1035 C -0.09889 0.31029 0.41742
 C1036 C -0.09680 0.28995 0.40324
 C1037 C -0.07535 0.28447 0.39210
 C1038 C -0.05564 0.29926 0.39490
 C1039 C -0.05750 0.31905 0.40982
 C1040 C -0.07884 0.32447 0.42098
 H1041 H -0.15481 0.36707 0.43627
 H1042 H -0.17121 0.29517 0.45402
 H1043 H -0.07443 0.26916 0.38059
 H1044 H -0.04245 0.33048 0.41270
 H1045 H -0.13294 0.28257 0.43785
 H1046 H -0.11197 0.27877 0.40002
 H1047 H -0.11735 0.35446 0.41945
 H1048 H -0.07972 0.33995 0.43224
 C1049 C 0.37301 0.80916 0.92658
 C1050 C 0.37205 0.81278 0.95117
 C1051 C 0.35121 0.82063 0.96198
 C1052 C 0.33098 0.82515 0.94840
 C1053 C 0.33158 0.82041 0.92402
 C1054 C 0.35233 0.81241 0.91325
 C1055 C 0.39582 0.80370 0.91467
 C1056 C 0.40156 0.81455 0.89321
 C1057 C 0.42347 0.81063 0.88252
 C1058 C 0.44026 0.79585 0.89306
 C1059 C 0.43442 0.78466 0.91432
 C1060 C 0.41243 0.78855 0.92502
 H1061 H 0.35129 0.82438 0.98077
 H1062 H 0.31611 0.82343 0.91321
 H1063 H 0.42730 0.81926 0.86598
 H1064 H 0.44704 0.77331 0.92298
 H1065 H 0.35232 0.80925 0.89436
 H1066 H 0.38935 0.82660 0.88492
 H1067 H 0.38771 0.81067 0.96192
 H1068 H 0.40847 0.77977 0.94144
 C1069 C 1.12767 0.81426 0.06682
 C1070 C 1.12750 0.82132 0.04311
 C1071 C 1.14835 0.82843 0.03208
 C1072 C 1.16980 0.82878 0.04456
 C1073 C 1.17010 0.82106 0.06806
 C1074 C 1.14925 0.81376 0.07905
 C1075 C 1.10523 0.80859 0.07903
 C1076 C 1.10361 0.78906 0.09398
 C1077 C 1.08248 0.78413 0.10577
 C1078 C 1.06267 0.79880 0.10304
 C1079 C 1.06431 0.81831 0.08809
 C1080 C 1.08533 0.82311 0.07616
 H1081 H 1.14751 0.83450 0.01403
 H1082 H 1.18642 0.82098 0.07804
 H1083 H 1.08169 0.76905 0.11729
 H1084 H 1.04924 0.82976 0.08549
 H1085 H 1.14986 0.80852 0.09738
 H1086 H 1.11865 0.77753 0.09640
 H1087 H 1.11114 0.82163 0.03320
 H1088 H 1.08616 0.83843 0.06496
 C1089 C 0.62601 0.30550 0.56052
 C1090 C 0.62683 0.31174 0.53659
 C1091 C 0.64798 0.31919 0.52635
 C1092 C 0.66872 0.32075 0.53990
 C1093 C 0.66813 0.31356 0.56357
 C1094 C 0.64700 0.30591 0.57376
 C1095 C 0.60309 0.30036 0.57208
 C1096 C 0.60084 0.28165 0.58799
 C1097 C 0.57944 0.27777 0.59974
 C1098 C 0.56004 0.29274 0.59605
 C1099 C 0.56223 0.31125 0.57995
 C1100 C 0.58348 0.31496 0.56803
 H1101 H 0.64785 0.32480 0.50813
 H1102 H 0.68391 0.31442 0.57436
 H1103 H 0.57820 0.26342 0.61213
 H1104 H 0.54746 0.32291 0.57661
 H1105 H 0.64686 0.30132 0.59228
 H1106 H 0.61566 0.27008 0.59135
 H1107 H 0.61094 0.31136 0.52593
 H1108 H 0.58479 0.32968 0.55609
 C1109 C 0.36790 0.19578 0.57638
 C1110 C 0.35749 0.20846 0.55783
 C1111 C 0.33744 0.19978 0.54616
 C1112 C 0.32724 0.17832 0.55292
 C1113 C 0.33690 0.16635 0.57226
 C1114 C 0.35704 0.17481 0.58366
 C1115 C 0.39068 0.20338 0.58725
 C1116 C 0.39561 0.19860 0.61110
 C1117 C 0.41798 0.20309 0.62053
 C1118 C 0.43574 0.21298 0.60651
 C1119 C 0.43063 0.21888 0.58307
 C1120 C 0.40840 0.21395 0.57346
 H1121 H 0.33047 0.20944 0.53132
 H1122 H 0.32920 0.15006 0.57832
 H1123 H 0.42150 0.19870 0.63877
 H1124 H 0.44416 0.22643 0.57192
 H1125 H 0.36457 0.16432 0.59762
 H1126 H 0.38229 0.19106 0.62248
 H1127 H 0.36506 0.22490 0.55202
 H1128 H 0.40547 0.21757 0.55496
 C1129 C 0.87985 0.69367 0.06677
 C1130 C 0.86573 0.70997 0.05467
 C1131 C 0.84422 0.70294 0.04459
 C1132 C 0.83635 0.67961 0.04679
 C1133 C 0.85041 0.66348 0.05913
 C1134 C 0.87190 0.67041 0.06895
 C1135 C 0.90291 0.70055 0.07709
 C1136 C 0.92262 0.68576 0.07419
 C1137 C 0.94396 0.69104 0.08533
 C1138 C 0.94607 0.71117 0.09978
 C1139 C 0.92658 0.72642 0.10206
 C1140 C 0.90519 0.72118 0.09075
 H1141 H 0.83367 0.71573 0.03521
 H1142 H 0.84498 0.64531 0.06083
 H1143 H 0.95881 0.67928 0.08268
 H1144 H 0.92762 0.74199 0.11317
 H1145 H 0.88230 0.65755 0.07840
 H1146 H 0.92146 0.66998 0.06338
 H1147 H 0.87153 0.72800 0.05269
 H1148 H 0.89021 0.73279 0.09336
 C1149 C 0.63057 0.70367 0.92961
 C1150 C 0.63097 0.69713 0.95347
 C1151 C 0.65207 0.69016 0.96411
 C1152 C 0.67321 0.68947 0.95110
 C1153 C 0.67302 0.69707 0.92753
 C1154 C 0.65191 0.70419 0.91692
 C1155 C 0.60774 0.70818 0.91761
 C1156 C 0.60508 0.72706 0.90198
 C1157 C 0.58358 0.73068 0.89032
 C1158 C 0.56451 0.71526 0.89384
 C1159 C 0.56724 0.69642 0.90947
 C1160 C 0.58857 0.69296 0.92126
 H1161 H 0.65159 0.68421 0.98222
 H1162 H 0.68910 0.69691 0.91714
 H1163 H 0.58194 0.74530 0.87830
 H1164 H 0.55275 0.68443 0.91273
 H1165 H 0.65209 0.70907 0.89848
 H1166 H 0.61957 0.73909 0.89891
 H1167 H 0.61481 0.69683 0.96373
 H1168 H 0.59021 0.67808 0.93296
 C1169 C 0.13095 0.19426 0.41602
 C1170 C 0.13492 0.16995 0.41785
 C1171 C 0.15376 0.16143 0.43113
 C1172 C 0.16919 0.17701 0.44277
 C1173 C 0.16573 0.20135 0.44043
 C1174 C 0.14661 0.20992 0.42732
 C1175 C 0.10972 0.20289 0.40340
 C1176 C 0.09502 0.22001 0.41381
 C1177 C 0.07335 0.22578 0.40348
 C1178 C 0.06601 0.21464 0.38244
 C1179 C 0.08135 0.19846 0.37140
 C1180 C 0.10292 0.19259 0.38180
 H1181 H 0.15621 0.14258 0.43245
 H1182 H 0.17739 0.21369 0.44927
 H1183 H 0.06185 0.23813 0.41258
 H1184 H 0.07648 0.18997 0.35491
 H1185 H 0.14398 0.22875 0.42610
 H1186 H 0.09971 0.22805 0.43057
 H1187 H 0.12300 0.15747 0.40957
 H1188 H 0.11411 0.17961 0.37320
 C1189 C 0.54437 0.12088 0.67653
 C1190 C 0.53591 0.09775 0.67432
 C1191 C 0.54822 0.07905 0.68453
 C1192 C 0.56909 0.08315 0.69742
 C1193 C 0.57723 0.10645 0.69991
 C1194 C 0.56512 0.12504 0.68942
 C1195 C 0.53165 0.14072 0.66547
 C1196 C 0.54404 0.15742 0.65221
 C1197 C 0.53217 0.17636 0.64203
 C1198 C 0.50765 0.17922 0.64517
 C1199 C 0.49530 0.16243 0.65852
 C1200 C 0.50716 0.14330 0.66840
 H1201 H 0.54158 0.06135 0.68196
 H1202 H 0.59284 0.11044 0.71022
 H1203 H 0.54219 0.18860 0.63147
 H1204 H 0.47652 0.16426 0.66171
 H1205 H 0.57179 0.14278 0.69169
 H1206 H 0.56292 0.15565 0.64948
 H1207 H 0.52001 0.09409 0.66430
 H1208 H 0.49727 0.13078 0.67879
 C1209 C 1.05164 0.62188 0.17646
 C1210 C 1.04389 0.59875 0.17222
 C1211 C 1.05586 0.57967 0.18207
 C1212 C 1.07571 0.58334 0.19658
 C1213 C 1.08324 0.60657 0.20097
 C1214 C 1.07144 0.62559 0.19091
 C1215 C 1.03907 0.64211 0.16594
 C1216 C 1.05174 0.66032 0.15513
 C1217 C 1.03987 0.67935 0.14509
 C1218 C 1.01505 0.68070 0.14588
 C1219 C 1.00244 0.66254 0.15697
 C1220 C 1.01431 0.64340 0.16675
 H1221 H 1.04977 0.56204 0.17802
 H1222 H 1.09809 0.61014 0.21249
 H1223 H 1.05012 0.69279 0.13636
 H1224 H 0.98337 0.66324 0.15836
 H1225 H 1.07755 0.64328 0.19474
 H1226 H 1.07085 0.65961 0.15406
 H1227 H 1.02879 0.59541 0.16094
 H1228 H 1.00415 0.62977 0.17530
 C1229 C 0.95747 0.88287 0.18882
 C1230 C 0.96415 0.90647 0.18601
 C1231 C 0.95186 0.92447 0.19775
 C1232 C 0.93280 0.91922 0.21280
 C1233 C 0.92657 0.89548 0.21597
 C1234 C 0.93864 0.87755 0.20398
 C1235 C 0.96998 0.86383 0.17586
 C1236 C 0.95717 0.84627 0.16386
 C1237 C 0.96892 0.82826 0.15163
 C1238 C 0.99377 0.82723 0.15139
 C1239 C 1.00653 0.84482 0.16354
 C1240 C 0.99476 0.86300 0.17548
 H1241 H 0.95695 0.94252 0.19459
 H1242 H 0.91241 0.89068 0.22784
 H1243 H 0.95851 0.81532 0.14213
 H1244 H 1.02564 0.84435 0.16417
 H1245 H 0.93342 0.85945 0.20673
 H1246 H 0.93803 0.84670 0.16366
 H1247 H 0.97852 0.91102 0.17426
 H1248 H 1.00502 0.87619 0.18483
 C1249 C 0.45977 0.38544 0.67951
 C1250 C 0.46858 0.39392 0.70121
 C1251 C 0.45706 0.41219 0.71333
 C1252 C 0.43638 0.42220 0.70411
 C1253 C 0.42778 0.41403 0.68228
 C1254 C 0.43939 0.39595 0.67007
 C1255 C 0.47142 0.36541 0.66699
 C1256 C 0.45781 0.34831 0.65514
 C1257 C 0.46864 0.32934 0.64357
 C1258 C 0.49336 0.32685 0.64372
 C1259 C 0.50699 0.34397 0.65553
 C1260 C 0.49616 0.36305 0.66696
 H1261 H 0.46393 0.41803 0.73024
 H1262 H 0.41207 0.42172 0.67460
 H1263 H 0.45761 0.31666 0.63441
 H1264 H 0.52605 0.34245 0.65625
 H1265 H 0.43241 0.39026 0.65316
 H1266 H 0.43870 0.34936 0.65507
 H1267 H 0.48403 0.38603 0.70917
 H1268 H 0.50720 0.37603 0.67566
 C1269 C 0.45909 0.62064 0.82084
 C1270 C 0.45169 0.60184 0.83503
 C1271 C 0.44036 0.58229 0.82509
 C1272 C 0.43566 0.58115 0.80072
 C1273 C 0.44298 0.59999 0.78653
 C1274 C 0.45473 0.61933 0.79641
 C1275 C 0.47124 0.64149 0.83144
 C1276 C 0.46803 0.66409 0.82201
 C1277 C 0.47968 0.68357 0.83173
 C1278 C 0.49453 0.68110 0.85146
 C1279 C 0.49745 0.65856 0.86111
 C1280 C 0.48618 0.63902 0.85110
 H1281 H 0.43539 0.56802 0.83659
 H1282 H 0.43938 0.60005 0.76777
 H1283 H 0.47721 0.70052 0.82355
 H1284 H 0.50836 0.65594 0.87655
 H1285 H 0.46050 0.63319 0.78477
 H1286 H 0.45635 0.66686 0.80717
 H1287 H 0.45435 0.60228 0.85395
 H1288 H 0.48944 0.62192 0.85870
 C1289 C -0.04727 0.12198 0.32016
 C1290 C -0.05358 0.10305 0.33469
 C1291 C -0.06527 0.08342 0.32536
 C1292 C -0.07143 0.08233 0.30130
 C1293 C -0.06532 0.10136 0.28682
 C1294 C -0.05323 0.12080 0.29607
 C1295 C -0.03435 0.14272 0.33004
 C1296 C -0.03816 0.16542 0.32107
 C1297 C -0.02557 0.18473 0.32992
 C1298 C -0.00909 0.18196 0.34827
 C1299 C -0.00567 0.15935 0.35759
 C1300 C -0.01793 0.13999 0.34845
 H1301 H -0.06929 0.06901 0.33705
 H1302 H -0.07006 0.10144 0.26832
 H1303 H -0.02851 0.20177 0.32207
 H1304 H 0.00649 0.15653 0.37203
 H1305 H -0.04836 0.13480 0.28419
 H1306 H -0.05096 0.16838 0.30722
 H1307 H -0.04969 0.10340 0.35339
 H1308 H -0.01420 0.12281 0.35564
 C1309 C 0.04383 0.38738 0.30908
 C1310 C 0.03855 0.41062 0.31587
 C1311 C 0.05015 0.42948 0.30523
 C1312 C 0.06682 0.42538 0.28726
 C1313 C 0.07166 0.40216 0.28006
 C1314 C 0.06043 0.38329 0.29105
 C1315 C 0.03237 0.36742 0.32109
 C1316 C 0.04608 0.34932 0.33075
 C1317 C 0.03530 0.33073 0.34263
 C1318 C 0.01053 0.32961 0.34470
 C1319 C -0.00312 0.34767 0.33464
 C1320 C 0.00770 0.36649 0.32320
 H1321 H 0.04617 0.44726 0.31103
 H1322 H 0.08461 0.39861 0.26638
 H1323 H 0.04645 0.31746 0.35050
 H1324 H -0.02223 0.34719 0.33533
 H1325 H 0.06467 0.36549 0.28549
 H1326 H 0.06518 0.34985 0.32953
 H1327 H 0.02587 0.41414 0.32981
 H1328 H -0.00320 0.38017 0.31565
 C1329 C 0.54381 0.88871 0.81658
 C1330 C 0.53441 0.89878 0.79599
 C1331 C 0.54545 0.91799 0.78539
 C1332 C 0.56639 0.92747 0.79486
 C1333 C 0.57580 0.91734 0.81540
 C1334 C 0.56456 0.89840 0.82621
 C1335 C 0.53208 0.86822 0.82793
 C1336 C 0.54552 0.85075 0.83921
 C1337 C 0.53452 0.83171 0.85013
 C1338 C 0.50978 0.82939 0.84976
 C1339 C 0.49636 0.84670 0.83825
 C1340 C 0.50734 0.86594 0.82768
 H1341 H 0.53746 0.92545 0.76980
 H1342 H 0.59211 0.92377 0.82303
 H1343 H 0.54545 0.81894 0.85905
 H1344 H 0.47731 0.84534 0.83719
 H1345 H 0.57215 0.89146 0.84224
 H1346 H 0.56463 0.85162 0.83945
 H1347 H 0.51866 0.89164 0.78782
 H1348 H 0.49633 0.87914 0.81951
 C1349 C 0.68613 0.55049 0.11384
 C1350 C 0.71020 0.54846 0.10856
 C1351 C 0.71988 0.56004 0.08916
 C1352 C 0.70573 0.57406 0.07403
 C1353 C 0.68123 0.57531 0.07948
 C1354 C 0.67174 0.56390 0.09906
 C1355 C 0.67600 0.53866 0.13474
 C1356 C 0.66046 0.55081 0.14992
 C1357 C 0.65063 0.53958 0.16946
 C1358 C 0.65594 0.51591 0.17401
 C1359 C 0.67159 0.50380 0.15892
 C1360 C 0.68164 0.51511 0.13955
 H1361 H 0.73881 0.55869 0.08729
 H1362 H 0.66866 0.58425 0.06840
 H1363 H 0.63847 0.54923 0.18073
 H1364 H 0.67605 0.48557 0.16214
 H1365 H 0.65293 0.56524 0.10243
 H1366 H 0.65599 0.56904 0.14671
 H1367 H 0.72177 0.53843 0.11992
 H1368 H 0.69348 0.50533 0.12805
 C1369 C 0.18305 1.04438 0.61338
 C1370 C 0.20576 1.03820 0.60526
 C1371 C 0.21606 1.05012 0.58636
 C1372 C 0.20393 1.06855 0.57529
 C1373 C 0.18110 1.07445 0.58312
 C1374 C 0.17075 1.06247 0.60189
 C1375 C 0.17226 1.03227 0.63389
 C1376 C 0.15882 1.04502 0.65056
 C1377 C 0.14828 1.03367 0.66963
 C1378 C 0.15101 1.00930 0.67259
 C1379 C 0.16468 0.99657 0.65610
 C1380 C 0.17515 1.00792 0.63695
 H1381 H 0.23378 1.04538 0.58083
 H1382 H 0.17118 1.08831 0.57465
 H1383 H 0.13767 1.04396 0.68186
 H1384 H 0.16739 0.97783 0.65804
 H1385 H 0.15304 1.06731 0.60732
 H1386 H 0.15654 1.06386 0.64894
 H1387 H 0.21582 1.02453 0.61389
 H1388 H 0.18522 0.99754 0.62435
 C1389 C 0.18011 0.95916 0.87823
 C1390 C 0.18301 0.97028 0.90021
 C1391 C 0.19396 0.95857 0.91887
 C1392 C 0.20210 0.93504 0.91631
 C1393 C 0.19879 0.92413 0.89390
 C1394 C 0.18813 0.93602 0.87529
 C1395 C 0.16891 0.97161 0.85828
 C1396 C 0.17908 0.97052 0.83567
 C1397 C 0.16844 0.98192 0.81671
 C1398 C 0.14722 0.99450 0.81986
 C1399 C 0.13707 0.99560 0.84254
 C1400 C 0.14787 0.98437 0.86157
 H1401 H 0.19478 0.96795 0.93552
 H1402 H 0.20547 0.90675 0.88983
 H1403 H 0.17702 0.98113 0.79963
 H1404 H 0.12056 1.00482 0.84552
 H1405 H 0.18612 0.92702 0.85846
 H1406 H 0.19548 0.96108 0.83273
 H1407 H 0.17693 0.98818 0.90293
 H1408 H 0.13953 0.98524 0.87878
 C1409 C 0.67794 0.46350 0.38162
 C1410 C 0.70101 0.46882 0.38919
 C1411 C 0.71134 0.45641 0.40773
 C1412 C 0.69885 0.43840 0.41911
 C1413 C 0.67564 0.43338 0.41180
 C1414 C 0.66531 0.44577 0.39327
 C1415 C 0.66730 0.47608 0.36135
 C1416 C 0.65402 0.46376 0.34429
 C1417 C 0.64448 0.47546 0.32490
 C1418 C 0.64795 0.49976 0.32214
 C1419 C 0.66105 0.51212 0.33931
 C1420 C 0.67063 0.50041 0.35867
 H1421 H 0.72937 0.46046 0.41269
 H1422 H 0.66541 0.41988 0.42048
 H1423 H 0.63428 0.46550 0.31210
 H1424 H 0.66424 0.53081 0.33755
 H1425 H 0.64737 0.44155 0.38813
 H1426 H 0.65135 0.44496 0.34572
 H1427 H 0.71132 0.48215 0.38036
 H1428 H 0.68057 0.51043 0.37162
 C1429 C 0.81718 0.45805 0.61446
 C1430 C 0.79261 0.45430 0.61370
 C1431 C 0.78213 0.44311 0.59429
 C1432 C 0.79583 0.43576 0.57481
 C1433 C 0.82031 0.44008 0.57530
 C1434 C 0.83086 0.45082 0.59493
 C1435 C 0.82851 0.46918 0.63557
 C1436 C 0.84873 0.48336 0.63321
 C1437 C 0.85955 0.49344 0.65302
 C1438 C 0.85019 0.49009 0.67577
 C1439 C 0.82985 0.47608 0.67813
 C1440 C 0.81932 0.46558 0.65836
 H1441 H 0.76330 0.43984 0.59484
 H1442 H 0.83147 0.43516 0.56053
 H1443 H 0.87541 0.50374 0.65044
 H1444 H 0.82183 0.47336 0.69524
 H1445 H 0.84985 0.45304 0.59487
 H1446 H 0.85618 0.48691 0.61600
 H1447 H 0.78135 0.46001 0.62811
 H1448 H 0.80407 0.45445 0.66106
 C1449 C 0.32290 -0.03629 0.11119
 C1450 C 0.29833 -0.04011 0.11129
 C1451 C 0.28725 -0.05158 0.09240
 C1452 C 0.30030 -0.05912 0.07255
 C1453 C 0.32476 -0.05470 0.07216
 C1454 C 0.33594 -0.04371 0.09129
 C1455 C 0.33488 -0.02488 0.13180
 C1456 C 0.35507 -0.01081 0.12864
 C1457 C 0.36640 -0.00037 0.14798
 C1458 C 0.35758 -0.00320 0.17102
 C1459 C 0.33731 -0.01715 0.17416
 C1460 C 0.32630 -0.02804 0.15489
 H1461 H 0.26847 -0.05492 0.09366
 H1462 H 0.33543 -0.05975 0.05707
 H1463 H 0.38219 0.00985 0.14478
 H1464 H 0.32967 -0.01948 0.19150
 H1465 H 0.35491 -0.04145 0.09056
 H1466 H 0.36207 -0.00759 0.11119
 H1467 H 0.28753 -0.03424 0.12599
 H1468 H 0.31113 -0.03910 0.15821
 C1469 C 0.31974 0.05159 0.37647
 C1470 C 0.29502 0.05433 0.37678
 C1471 C 0.28379 0.06596 0.39556
 C1472 C 0.29695 0.07489 0.41470
 C1473 C 0.32163 0.07189 0.41449
 C1474 C 0.33288 0.06063 0.39556
 C1475 C 0.33179 0.03928 0.35645
 C1476 C 0.35206 0.02552 0.36040
 C1477 C 0.36344 0.01401 0.34169
 C1478 C 0.35464 0.01555 0.31854
 C1479 C 0.33437 0.02931 0.31456
 C1480 C 0.32320 0.04115 0.33324
 H1481 H 0.26480 0.06819 0.39487
 H1482 H 0.33237 0.07813 0.42906
 H1483 H 0.37924 0.00396 0.34544
 H1484 H 0.32689 0.03068 0.29704
 H1485 H 0.35195 0.05923 0.39585
 H1486 H 0.35904 0.02333 0.37802
 H1487 H 0.28424 0.04730 0.36260
 H1488 H 0.30789 0.05188 0.32940
 C1489 C 0.81532 0.54123 0.88283
 C1490 C 0.79106 0.54664 0.88340
 C1491 C 0.78148 0.55996 0.90195
 C1492 C 0.79583 0.56798 0.92062
 C1493 C 0.81999 0.56210 0.92032
 C1494 C 0.82963 0.54907 0.90161
 C1495 C 0.82575 0.52786 0.86258
 C1496 C 0.84459 0.51210 0.86605
 C1497 C 0.85481 0.50010 0.84695
 C1498 C 0.84624 0.50324 0.82389
 C1499 C 0.82719 0.51875 0.82046
 C1500 C 0.81720 0.53102 0.83950
 H1501 H 0.76287 0.56436 0.90136
 H1502 H 0.83154 0.56757 0.93456
 H1503 H 0.86967 0.48859 0.85029
 H1504 H 0.81986 0.52137 0.80303
 H1505 H 0.84843 0.54555 0.90169
 H1506 H 0.85144 0.50891 0.88357
 H1507 H 0.77938 0.54058 0.86949
 H1508 H 0.80297 0.54325 0.83603
 C1509 C 0.11681 0.67125 0.55393
 C1510 C 0.12184 0.68716 0.57233
 C1511 C 0.10356 0.69885 0.58421
 C1512 C 0.07979 0.69460 0.57822
 C1513 C 0.07483 0.67866 0.55971
 C1514 C 0.09317 0.66723 0.54760
 C1515 C 0.13626 0.65899 0.54134
 C1516 C 0.13685 0.65832 0.51658
 C1517 C 0.15553 0.64728 0.50469
 C1518 C 0.17386 0.63632 0.51732
 C1519 C 0.17302 0.63678 0.54215
 C1520 C 0.15451 0.64813 0.55402
 H1521 H 0.10814 0.71141 0.59793
 H1522 H 0.05678 0.67464 0.55484
 H1523 H 0.15581 0.64776 0.48559
 H1524 H 0.18656 0.62817 0.55246
 H1525 H 0.08886 0.65488 0.53357
 H1526 H 0.12312 0.66682 0.50643
 H1527 H 0.13996 0.69083 0.57728
 H1528 H 0.15429 0.64820 0.57315
 C1529 C 0.61831 0.17625 1.05230
 C1530 C 0.62199 0.18792 1.07397
 C1531 C 0.60370 0.20057 1.08478
 C1532 C 0.58128 0.20187 1.07418
 C1533 C 0.57752 0.19004 1.05261
 C1534 C 0.59584 0.17738 1.04178
 C1535 C 0.63793 0.16318 1.04063
 C1536 C 0.63377 0.14144 1.02934
 C1537 C 0.65219 0.12935 1.01806
 C1538 C 0.67518 0.13873 1.01781
 C1539 C 0.67936 0.16036 1.02927
 C1540 C 0.66095 0.17245 1.04054
 H1541 H 0.60703 0.20909 1.10163
 H1542 H 0.56053 0.19094 1.04387
 H1543 H 0.64849 0.11255 1.00968
 H1544 H 0.69678 0.16823 1.02905
 H1545 H 0.59254 0.16885 1.02493
 H1546 H 0.61631 0.13366 1.02942
 H1547 H 0.63897 0.18705 1.08273
 H1548 H 0.66465 0.18932 1.04876
 C1549 C 0.87907 0.17333 0.96309
 C1550 C 0.87797 0.19773 0.95962
 C1551 C 0.89603 0.20954 0.94780
 C1552 C 0.91633 0.19748 0.93934
 C1553 C 0.91756 0.17298 0.94369
 C1554 C 0.89917 0.16117 0.95504
 C1555 C 0.85925 0.16066 0.97487
 C1556 C 0.86357 0.14081 0.98890
 C1557 C 0.84496 0.12898 0.99987
 C1558 C 0.82152 0.13693 0.99752
 C1559 C 0.81721 0.15679 0.98351
 C1560 C 0.83576 0.16832 0.97216
 H1561 H 0.89427 0.22842 0.94654
 H1562 H 0.93185 0.16220 0.93699
 H1563 H 0.84901 0.11355 1.01016
 H1564 H 0.79952 0.16375 0.98155
 H1565 H 0.90049 0.14227 0.95683
 H1566 H 0.88139 0.13450 0.99171
 H1567 H 0.86323 0.20794 0.96635
 H1568 H 0.83157 0.18322 0.96116
 C1569 C 0.37775 0.67490 0.45710
 C1570 C 0.37702 0.69944 0.45402
 C1571 C 0.39503 0.71096 0.44187
 C1572 C 0.41442 0.69831 0.43293
 C1573 C 0.41556 0.67393 0.43638
 C1574 C 0.39732 0.66230 0.44816
 C1575 C 0.35816 0.66258 0.46950
 C1576 C 0.36271 0.64290 0.48367
 C1577 C 0.34434 0.63158 0.49552
 C1578 C 0.32096 0.63985 0.49384
 C1579 C 0.31639 0.65944 0.47956
 C1580 C 0.33469 0.67052 0.46741
 H1581 H 0.39394 0.72984 0.43962
 H1582 H 0.43026 0.66380 0.42939
 H1583 H 0.34852 0.61629 0.50598
 H1584 H 0.29870 0.66653 0.47804
 H1585 H 0.39835 0.64337 0.44981
 H1586 H 0.38055 0.63641 0.48596
 H1587 H 0.36260 0.70985 0.46113
 H1588 H 0.33037 0.68531 0.45631
 C1589 C 0.61427 0.80818 0.45657
 C1590 C 0.60423 0.78681 0.46390
 C1591 C 0.58465 0.77733 0.45213
 C1592 C 0.57467 0.78899 0.43274
 C1593 C 0.58487 0.81023 0.42531
 C1594 C 0.60434 0.81974 0.43712
 C1595 C 0.63484 0.81857 0.46923
 C1596 C 0.65284 0.83008 0.45670
 C1597 C 0.67179 0.84050 0.46861
 C1598 C 0.67332 0.83956 0.49335
 C1599 C 0.65547 0.82780 0.50588
 C1600 C 0.63644 0.81748 0.49397
 H1601 H 0.57712 0.76104 0.45841
 H1602 H 0.57792 0.81949 0.41021
 H1603 H 0.68509 0.84961 0.45843
 H1604 H 0.65628 0.82646 0.52492
 H1605 H 0.61141 0.83636 0.43118
 H1606 H 0.65234 0.83097 0.43762
 H1607 H 0.61161 0.77731 0.47864
 H1608 H 0.62277 0.80898 0.50419
 C1609 C 0.11352 0.30943 -0.04295
 C1610 C 0.09900 0.32282 -0.05780
 C1611 C 0.07989 0.31244 -0.06949
 C1612 C 0.07479 0.28845 -0.06649
 C1613 C 0.08914 0.27510 -0.05144
 C1614 C 0.10837 0.28546 -0.03986
 C1615 C 0.13407 0.32043 -0.03091
 C1616 C 0.15592 0.30869 -0.03000
 C1617 C 0.17538 0.31925 -0.01904
 C1618 C 0.17336 0.34171 -0.00863
 C1619 C 0.15148 0.35339 -0.00942
 C1620 C 0.13206 0.34289 -0.02051
 H1621 H 0.06899 0.32323 -0.08078
 H1622 H 0.08573 0.25654 -0.04893
 H1623 H 0.19198 0.30975 -0.01850
 H1624 H 0.14946 0.37079 -0.00172
 H1625 H 0.11913 0.27477 -0.02834
 H1626 H 0.15804 0.29146 -0.03807
 H1627 H 0.10265 0.34128 -0.06068
 H1628 H 0.11539 0.35228 -0.02077
 C1629 C 0.38247 0.31376 0.04178
 C1630 C 0.38861 0.28986 0.03981
 C1631 C 0.40810 0.28100 0.05204
 C1632 C 0.42163 0.29583 0.06669
 C1633 C 0.41553 0.31975 0.06856
 C1634 C 0.39622 0.32864 0.05616
 C1635 C 0.36170 0.32319 0.02903
 C1636 C 0.36322 0.34473 0.01717
 C1637 C 0.34361 0.35381 0.00539
 C1638 C 0.32201 0.34163 0.00536
 C1639 C 0.32044 0.32012 0.01728
 C1640 C 0.34014 0.31092 0.02889
 H1641 H 0.41231 0.26246 0.05044
 H1642 H 0.42578 0.33160 0.07959
 H1643 H 0.34524 0.37054 -0.00348
 H1644 H 0.30404 0.31032 0.01739
 H1645 H 0.39177 0.34709 0.05814
 H1646 H 0.37966 0.35447 0.01686
 H1647 H 0.37842 0.27806 0.02868
 H1648 H 0.33844 0.29438 0.03808
 C1649 C 0.87794 0.80220 0.55173
 C1650 C 0.88998 0.78225 0.54300
 C1651 C 0.90963 0.77325 0.55490
 C1652 C 0.91756 0.78377 0.57603
 C1653 C 0.90525 0.80347 0.58493
 C1654 C 0.88592 0.81269 0.57284
 C1655 C 0.85745 0.81237 0.53878
 C1656 C 0.83873 0.82324 0.55112
 C1657 C 0.82023 0.83404 0.53901
 C1658 C 0.81964 0.83387 0.51418
 C1659 C 0.83795 0.82233 0.50183
 C1660 C 0.85669 0.81191 0.51395
 H1661 H 0.91874 0.75821 0.54734
 H1662 H 0.91042 0.81180 0.60139
 H1663 H 0.80666 0.84296 0.54918
 H1664 H 0.83790 0.82138 0.48274
 H1665 H 0.87745 0.82830 0.57997
 H1666 H 0.83836 0.82354 0.57023
 H1667 H 0.88418 0.77344 0.52700
 H1668 H 0.87085 0.80396 0.50377
   
