data_POSCAR
  _audit_creation_date              2014-09-24
  _audit_creation_method            'ToBaCCo'
  _symmetry_space_group_name_H-M    'P1'
  _symmetry_Int_Tables_number       1
  _symmetry_cell_setting            triclinic
  loop_
  _symmetry_equiv_pos_as_xyz
 x,y,z
_cell_length_a 41.5938
_cell_length_b 42.4427
_cell_length_c 42.3240
_cell_angle_alpha 90.297100
_cell_angle_beta 90.783200
_cell_angle_gamma 90.558600
loop_
  _atom_site_label
  _atom_site_type_symbol
  _atom_site_fract_x
  _atom_site_fract_y
  _atom_site_fract_z
C1 C 0.34716 1.35602 0.30351
 C2 C 0.31775 1.36544 0.31548
 C3 C 0.30711 1.35528 0.34487
 C4 C 0.32458 1.33152 0.36097
 C5 C 0.35279 1.31880 0.34767
 C6 C 0.36455 1.33235 0.31963
 H7 H 0.30417 1.38329 0.30287
 H8 H 0.31616 1.32266 0.38325
 H9 H 0.38647 1.32318 0.30985
 C10 C 0.35806 0.86342 0.82057
 C11 C 0.37489 0.83577 0.82826
 C12 C 0.36642 0.81770 0.85454
 C13 C 0.33985 0.82670 0.87266
 C14 C 0.32277 0.85431 0.86597
 C15 C 0.33209 0.87240 0.83944
 H16 H 0.39426 0.82769 0.81354
 H17 H 0.33217 0.81200 0.89206
 H18 H 0.31869 0.89287 0.83219
 C19 C 0.85815 1.34852 0.81444
 C20 C 0.83006 1.36457 0.82275
 C21 C 0.81238 1.35600 0.84930
 C22 C 0.82206 1.32916 0.86665
 C23 C 0.84925 1.31185 0.85815
 C24 C 0.86724 1.32181 0.83185
 H25 H 0.82166 1.38399 0.80846
 H26 H 0.80795 1.32045 0.88606
 H27 H 0.88786 1.30855 0.82426
 C28 C 0.85264 0.86101 0.31361
 C29 C 0.86995 0.83406 0.32321
 C30 C 0.86049 0.81617 0.34927
 C31 C 0.83304 0.82536 0.36615
 C32 C 0.81540 0.85206 0.35719
 C33 C 0.82502 0.86916 0.33042
 H34 H 0.89014 0.82564 0.30990
 H35 H 0.82471 0.81138 0.38579
 H36 H 0.81080 0.88877 0.32218
 C37 C 0.64243 0.64408 0.31380
 C38 C 0.66974 0.62827 0.32496
 C39 C 0.68523 0.63758 0.35282
 C40 C 0.67492 0.66432 0.36914
 C41 C 0.64841 0.68129 0.35831
 C42 C 0.63194 0.67096 0.33053
 H43 H 0.67978 0.60882 0.31191
 H44 H 0.68800 0.67248 0.38998
 H45 H 0.61172 0.68416 0.32141
 C46 C 0.64256 0.15040 0.81592
 C47 C 0.67183 0.13762 0.82775
 C48 C 0.68707 0.15076 0.85486
 C49 C 0.67338 0.17654 0.86983
 C50 C 0.64417 0.18858 0.85938
 C51 C 0.62883 0.17553 0.83260
 H52 H 0.68325 0.11808 0.81619
 H53 H 0.68529 0.18701 0.89037
 H54 H 0.60682 0.18599 0.82381
 C55 C 1.15311 0.64119 0.81812
 C56 C 1.13416 0.66704 0.82723
 C57 C 1.14194 0.68461 0.85451
 C58 C 1.16966 0.67698 0.87212
 C59 C 1.18841 0.65130 0.86370
 C60 C 1.18026 0.63366 0.83644
 H61 H 1.11373 0.67408 0.81291
 H62 H 1.17714 0.69117 0.89229
 H63 H 1.19536 0.61438 0.82907
 C64 C 1.13656 0.15185 0.32645
 C65 C 1.16491 0.13747 0.33902
 C66 C 1.18131 0.15078 0.36577
 C67 C 1.16905 0.17822 0.37935
 C68 C 1.14065 0.19145 0.36842
 C69 C 1.12465 0.17847 0.34209
 H70 H 1.17446 0.11671 0.32802
 H71 H 1.18116 0.18908 0.39959
 H72 H 1.10333 0.18998 0.33295
 C73 C 0.63019 1.37806 0.68173
 C74 C 0.61879 1.34831 0.67224
 C75 C 0.63331 1.33202 0.64748
 C76 C 0.66043 1.34574 0.63271
 C77 C 0.67220 1.37592 0.64249
 C78 C 0.65608 1.39181 0.66643
 H79 H 0.59930 1.33717 0.68487
 H80 H 0.67224 1.33269 0.61436
 H81 H 0.66480 1.41467 0.67465
 C82 C 0.64167 0.84439 1.19150
 C83 C 0.66742 0.85932 1.17524
 C84 C 0.68057 0.84472 1.14792
 C85 C 0.66704 0.81631 1.13707
 C86 C 0.64101 0.80227 1.15235
 C87 C 0.62912 0.81596 1.17971
 H88 H 0.67808 0.88081 1.18465
 H89 H 0.67751 0.80470 1.11687
 H90 H 0.60951 0.80438 1.19188
 C91 C 1.14199 1.37284 1.18339
 C92 C 1.16522 1.39057 1.16762
 C93 C 1.18068 1.37875 1.14133
 C94 C 1.17234 1.34892 1.12938
 C95 C 1.14841 1.33071 1.14367
 C96 C 1.13338 1.34257 1.17116
 H97 H 1.17261 1.41356 1.17666
 H98 H 1.18512 1.33939 1.10939
 H99 H 1.11560 1.32817 1.18278
 C100 C 1.14435 0.84541 0.69405
 C101 C 1.12975 0.81857 0.68080
 C102 C 1.13928 0.80669 0.65170
 C103 C 1.16476 0.82118 0.63587
 C104 C 1.18079 0.84780 0.64848
 C105 C 1.17003 0.86023 0.67787
 H106 H 1.11033 0.80691 0.69316
 H107 H 1.17317 0.81089 0.61407
 H108 H 1.18155 0.88056 0.68865
 C109 C 0.36677 0.64980 0.68192
 C110 C 0.37514 0.67717 0.66542
 C111 C 0.35743 0.68635 0.63841
 C112 C 0.33095 0.66801 0.62848
 C113 C 0.32224 0.64064 0.64499
 C114 C 0.33978 0.63208 0.67186
 H115 H 0.39491 0.69160 0.67429
 H116 H 0.31668 0.67562 0.60837
 H117 H 0.33171 0.61187 0.68521
 C118 C 0.36620 0.14822 1.18396
 C119 C 0.33623 0.13749 1.17148
 C120 C 0.32151 0.15308 1.14578
 C121 C 0.33657 0.17972 1.13311
 C122 C 0.36638 0.19033 1.14502
 C123 C 0.38099 0.17440 1.17001
 H124 H 0.32391 0.11768 1.18173
 H125 H 0.32453 0.19255 1.11441
 H126 H 0.40386 0.18322 1.17925
 C127 C 0.85675 0.63371 1.17627
 C128 C 0.87379 0.66134 1.16704
 C129 C 0.86572 0.67715 1.13891
 C130 C 0.84148 0.66447 1.11918
 C131 C 0.82445 0.63756 1.12788
 C132 C 0.83162 0.62271 1.15663
 H133 H 0.89217 0.67196 1.18200
 H134 H 0.83576 0.67524 1.09669
 H135 H 0.81741 0.60252 1.16387
 C136 C 0.87175 0.14866 0.67828
 C137 C 0.84566 0.12993 0.66691
 C138 C 0.82773 0.13836 0.64001
 C139 C 0.83520 0.16690 0.62483
 C140 C 0.86024 0.18632 0.63572
 C141 C 0.87848 0.17721 0.66253
 H142 H 0.83799 0.10907 0.67935
 H143 H 0.82076 0.17538 0.60530
 H144 H 0.89748 0.19261 0.67148
 C145 C 1.35419 0.35009 0.68266
 C146 C 1.32692 0.36617 0.67230
 C147 C 1.31151 0.35793 0.64405
 C148 C 1.32248 0.33197 0.62643
 C149 C 1.34873 0.31399 0.63730
 C150 C 1.36478 0.32396 0.66547
 H151 H 1.31733 0.38528 0.68626
 H152 H 1.30971 0.32492 0.60501
 H153 H 1.38613 0.31251 0.67424
 C154 C 1.35195 0.85903 1.17997
 C155 C 1.36535 0.82979 1.16991
 C156 C 1.35245 0.81372 1.14307
 C157 C 1.32661 0.82688 1.12661
 C158 C 1.31396 0.85579 1.13550
 C159 C 1.32663 0.87165 1.16201
 H160 H 1.38500 0.81907 1.18268
 H161 H 1.31619 0.81448 1.10638
 H162 H 1.31557 0.89326 1.16984
 C163 C 0.86654 0.35325 1.18379
 C164 C 0.83946 0.36741 1.16984
 C165 C 0.82238 0.35258 1.14512
 C166 C 0.83328 0.32335 1.13338
 C167 C 0.86025 0.30889 1.14762
 C168 C 0.87608 0.32374 1.17287
 H169 H 0.83017 0.38928 1.17899
 H170 H 0.82002 0.31115 1.11477
 H171 H 0.89656 0.31221 1.18384
 C172 C 0.86174 0.86289 0.67801
 C173 C 0.87906 0.83592 0.66946
 C174 C 0.87045 0.81842 0.64252
 C175 C 0.84348 0.82748 0.62436
 C176 C 0.82580 0.85416 0.63258
 C177 C 0.83494 0.87157 0.65974
 H178 H 0.89884 0.82784 0.68409
 H179 H 0.83559 0.81339 0.60425
 H180 H 0.82081 0.89142 0.66737
 C181 C 0.64083 0.65034 0.68378
 C182 C 0.63244 0.67745 0.66665
 C183 C 0.65028 0.68690 0.64010
 C184 C 0.67693 0.66920 0.63126
 C185 C 0.68559 0.64187 0.64787
 C186 C 0.66783 0.63299 0.67433
 H187 H 0.61251 0.69149 0.67465
 H188 H 0.69130 0.67737 0.61175
 H189 H 0.67578 0.61288 0.68786
 C190 C 0.64405 1.13829 1.18610
 C191 C 0.67096 1.12824 1.16881
 C192 C 0.68037 1.14410 1.14104
 C193 C 0.66243 1.16979 1.13063
 C194 C 0.63522 1.18017 1.14713
 C195 C 0.62699 1.16482 1.17527
 H196 H 0.68501 1.10873 1.17758
 H197 H 0.67110 1.18226 1.11021
 H198 H 0.60731 1.17407 1.18881
 C199 C 0.14098 0.64603 1.18369
 C200 C 0.13235 0.67285 1.16624
 C201 C 0.15040 0.68298 1.13992
 C202 C 0.17825 0.66628 1.13226
 C203 C 0.18735 0.63924 1.14917
 C204 C 0.16889 0.62953 1.17484
 H205 H 0.11192 0.68612 1.17418
 H206 H 0.19308 0.67467 1.11316
 H207 H 0.17758 0.60973 1.18829
 C208 C 0.14347 1.15503 0.69517
 C209 C 0.16864 1.14134 0.67786
 C210 C 0.17794 1.15429 0.64845
 C211 C 0.16067 1.18024 0.63659
 C212 C 0.13529 1.19388 0.65379
 C213 C 0.12781 1.18139 0.68325
 H214 H 0.18156 1.12185 0.68810
 H215 H 0.16832 1.19035 0.61452
 H216 H 0.10870 1.19181 0.69693
 C217 C 1.37474 0.64308 0.31381
 C218 C 1.38636 0.66927 0.33035
 C219 C 1.36905 0.68292 0.35504
 C220 C 1.33928 0.66867 0.36367
 C221 C 1.32752 0.64136 0.34733
 C222 C 1.34529 0.62936 0.32218
 H223 H 1.40901 0.67968 0.32305
 H224 H 1.32526 0.67857 0.38252
 H225 H 1.33574 0.60951 0.30872
 C226 C 1.35951 1.12726 0.81809
 C227 C 1.37446 1.15445 0.83057
 C228 C 1.36109 1.17092 0.85602
 C229 C 1.33282 1.15861 0.86989
 C230 C 1.31790 1.13116 0.85768
 C231 C 1.33115 1.11610 0.83154
 H232 H 1.39553 1.16408 0.81921
 H233 H 1.32178 1.17022 0.88959
 H234 H 1.31925 1.09542 0.82152
 C235 C 0.85166 0.64378 0.81073
 C236 C 0.86872 0.67089 0.82117
 C237 C 0.85935 0.68729 0.84849
 C238 C 0.83241 0.67613 0.86520
 C239 C 0.81567 0.64888 0.85531
 C240 C 0.82504 0.63340 0.82762
 H241 H 0.88874 0.67979 0.80765
 H242 H 0.82370 0.68875 0.88556
 H243 H 0.81138 0.61337 0.81861
 C244 C 0.84887 1.13815 0.30529
 C245 C 0.81902 1.12936 0.31679
 C246 C 0.80656 1.14406 0.34330
 C247 C 0.82345 1.16958 0.35751
 C248 C 0.85298 1.18025 0.34483
 C249 C 0.86579 1.16367 0.31913
 H250 H 0.80594 1.10986 0.30578
 H251 H 0.81339 1.18086 0.37803
 H252 H 0.88846 1.17128 0.30926
 C253 C 0.63529 0.34621 0.31353
 C254 C 0.66026 0.36190 0.33080
 C255 C 0.66946 0.35137 0.36137
 C256 C 0.65138 0.32702 0.37520
 C257 C 0.62656 0.31137 0.35805
 C258 C 0.62026 0.32016 0.32698
 H259 H 0.67284 0.38155 0.32041
 H260 H 0.65817 0.31930 0.39865
 H261 H 0.60147 0.30772 0.31369
 C262 C 0.64097 0.85194 0.81313
 C263 C 0.62619 0.82496 0.82519
 C264 C 0.63717 0.81131 0.85315
 C265 C 0.66397 0.82443 0.86901
 C266 C 0.67938 0.85142 0.85745
 C267 C 0.66767 0.86532 0.82934
 H268 H 0.60588 0.81437 0.81260
 H269 H 0.67374 0.81311 0.88985
 H270 H 0.68021 0.88516 0.81915
 C271 C 0.13333 0.35229 0.81642
 C272 C 0.12004 0.32457 0.82889
 C273 C 0.13324 0.31040 0.85565
 C274 C 0.16095 0.32334 0.86987
 C275 C 0.17509 0.35082 0.85807
 C276 C 0.16110 0.36552 0.83139
 H277 H 0.09890 0.31384 0.81784
 H278 H 0.17218 0.31158 0.88975
 H279 H 0.17296 0.38590 0.82165
 C280 C 0.13865 0.86585 0.32301
 C281 C 0.12132 0.83855 0.33215
 C282 C 0.13082 0.82100 0.35853
 C283 C 0.15826 0.83029 0.37589
 C284 C 0.17557 0.85724 0.36782
 C285 C 0.16593 0.87481 0.34118
 H286 H 0.10122 0.82947 0.31839
 H287 H 0.16703 0.81608 0.39530
 H288 H 0.18018 0.89499 0.33403
 O289 O 1.10996 1.03165 1.16567
 O290 O 1.14743 1.02978 1.20296
 C291 C 1.12196 1.04181 1.19153
 C292 C 1.10740 1.06911 1.20765
 C293 C 1.12078 1.08037 1.23603
 H294 H 1.14032 1.06753 1.24705
 O295 O 0.88471 0.96658 1.15745
 O296 O 0.84890 0.96742 1.19538
 C297 C 0.87403 0.95592 1.18333
 C298 C 0.89083 0.92934 1.19876
 C299 C 0.88158 0.91779 1.22858
 H300 H 0.86241 0.92918 1.24116
 O301 O 1.03321 1.16389 1.11927
 O302 O 1.02939 1.20015 1.15647
 C303 C 1.04203 1.19007 1.13136
 C304 C 1.06827 1.20810 1.11674
 C305 C 1.07770 1.23773 1.12841
 H306 H 1.06428 1.24840 1.14739
 O307 O 0.96601 0.83971 1.10884
 O308 O 0.96499 0.80265 1.14515
 C309 C 0.95400 0.81440 1.11973
 C310 C 0.92607 0.79931 1.10343
 C311 C 0.91287 0.77088 1.11464
 H312 H 0.92409 0.75946 1.13466
 O313 O 1.15787 1.11828 1.04643
 O314 O 1.19646 1.15424 1.04630
 C315 C 1.18436 1.12896 1.05733
 C316 C 1.20065 1.11177 1.08336
 C317 C 1.23106 1.12124 1.09504
 H318 H 1.24330 1.14082 1.08401
 O319 O 0.83142 0.88812 1.03121
 O320 O 0.79344 0.85167 1.02920
 C321 C 0.80529 0.87654 1.04179
 C322 C 0.78990 0.89209 1.06970
 C323 C 0.76115 0.88085 1.08382
 H324 H 0.74861 0.86072 1.07358
 O325 O 0.97370 1.11380 1.15800
 O326 O 0.97048 1.15002 1.19536
 C327 C 0.96216 1.12348 1.18378
 C328 C 0.93822 1.10444 1.20046
 C329 C 0.92940 1.11361 1.23086
 H330 H 0.94151 1.13329 1.24254
 O331 O 1.02926 0.88251 1.15371
 O332 O 1.02816 0.84525 1.18986
 C333 C 1.03925 0.87127 1.17978
 C334 C 1.06406 0.88841 1.19866
 C335 C 1.07228 0.87791 1.22897
 H336 H 1.05996 0.85752 1.23852
 O337 O 1.15283 0.97192 1.11983
 O338 O 1.19033 0.97032 1.15715
 C339 C 1.17919 0.96124 1.13046
 C340 C 1.19712 0.93784 1.11195
 C341 C 1.22878 0.93057 1.12079
 H342 H 1.24021 0.94251 1.14074
 O343 O 0.84271 1.02898 1.11392
 O344 O 0.80676 1.02999 1.15172
 C345 C 0.81718 1.04006 1.12546
 C346 C 0.79928 1.06501 1.10853
 C347 C 0.76945 1.07438 1.11986
 H348 H 0.75944 1.06274 1.14029
 O349 O 0.88390 1.15006 1.02777
 O350 O 0.84647 1.18646 1.02688
 C351 C 0.87268 1.17567 1.03822
 C352 C 0.88938 1.19294 1.06437
 C353 C 0.87761 1.22232 1.07355
 H354 H 0.85762 1.23267 1.06072
 O355 O 1.11910 0.83945 1.03361
 O356 O 1.15754 0.80413 1.03612
 C357 C 1.13071 0.81442 1.04543
 C358 C 1.11250 0.79776 1.07039
 C359 C 1.12267 0.76864 1.08299
 H360 H 1.14404 0.75774 1.07389
 O361 O 0.88740 1.02815 1.15754
 O362 O 0.85154 1.02893 1.19543
 C363 C 0.87759 1.03898 1.18370
 C364 C 0.89621 1.06399 1.20037
 C365 C 0.88685 1.07446 1.23043
 H366 H 0.86649 1.06359 1.24194
 O367 O 1.11063 0.96959 1.16447
 O368 O 1.14773 0.96764 1.20210
 C369 C 1.12167 0.95740 1.18974
 C370 C 1.10435 0.93042 1.20408
 C371 C 1.11266 0.91922 1.23445
 H372 H 1.13122 0.93129 1.24809
 O373 O 1.02953 0.83951 1.10980
 O374 O 1.02795 0.80244 1.14608
 C375 C 1.03990 0.81384 1.12116
 C376 C 1.06705 0.79751 1.10629
 C377 C 1.07703 0.76843 1.11802
 H378 H 1.06349 0.75737 1.13674
 O379 O 0.97039 1.15733 1.11532
 O380 O 0.96630 1.19381 1.15224
 C381 C 0.95676 1.18176 1.12600
 C382 C 0.92936 1.19592 1.10775
 C383 C 0.91625 1.22506 1.11691
 H384 H 0.92660 1.23768 1.13694
 O385 O 0.83667 1.10997 1.02803
 O386 O 0.79873 1.14579 1.02739
 C387 C 0.81068 1.12091 1.03915
 C388 C 0.79538 1.10480 1.06674
 C389 C 0.76559 1.11455 1.07937
 H390 H 0.75260 1.13364 1.06835
 O391 O 1.15700 0.88829 1.03341
 O392 O 1.19603 0.85350 1.03563
 C393 C 1.18337 0.87906 1.04511
 C394 C 1.19922 0.89788 1.07031
 C395 C 1.23081 0.89108 1.07947
 H396 H 1.24393 0.87319 1.06683
 O397 O 0.96709 0.88283 1.15237
 O398 O 0.96651 0.84557 1.18853
 C399 C 0.95634 0.87159 1.17795
 C400 C 0.93148 0.88847 1.19562
 C401 C 0.92250 0.87770 1.22539
 H402 H 0.93462 0.85757 1.23557
 O403 O 1.03538 1.12023 1.16198
 O404 O 1.03245 1.15626 1.19946
 C405 C 1.04499 1.13125 1.18857
 C406 C 1.07092 1.11410 1.20626
 C407 C 1.08506 1.12536 1.23495
 H408 H 1.07689 1.14741 1.24471
 O409 O 0.83918 0.96782 1.11516
 O410 O 0.80335 0.96904 1.15308
 C411 C 0.81305 0.95798 1.12701
 C412 C 0.79417 0.93276 1.11091
 C413 C 0.76527 0.92207 1.12383
 H414 H 0.75605 0.93343 1.14480
 O415 O 1.15565 1.03290 1.12512
 O416 O 1.19302 1.03089 1.16254
 C417 C 1.18200 1.04291 1.13726
 C418 C 1.19948 1.06928 1.12217
 C419 C 1.22990 1.07897 1.13345
 H420 H 1.24117 1.06650 1.15289
 O421 O 0.87669 0.84641 1.02996
 O422 O 0.83888 0.80968 1.02772
 C423 C 0.86520 0.82032 1.03934
 C424 C 0.88230 0.80262 1.06448
 C425 C 0.86949 0.77429 1.07600
 H426 H 0.84740 0.76483 1.06573
 O427 O 1.11875 1.16576 1.04449
 O428 O 1.15688 1.20213 1.04439
 C429 C 1.13041 1.19181 1.05485
 C430 C 1.11271 1.20912 1.07980
 C431 C 1.12243 1.23893 1.09199
 H432 H 1.14319 1.25064 1.08215
 Cu433 Cu 1.12835 1.00159 1.14018
 Cu434 Cu 1.17317 0.99920 1.18512
 Cu435 Cu 0.86726 0.99775 1.13235
 Cu436 Cu 0.82404 0.99916 1.17771
 Cu437 Cu 1.00373 1.13542 1.13476
 Cu438 Cu 0.99904 1.17885 1.17947
 Cu439 Cu 0.99809 0.86469 1.12723
 Cu440 Cu 0.99688 0.82006 1.17086
 C441 C 1.08236 1.08580 1.19322
 H442 H 1.07233 1.07706 1.17108
 C443 C 1.11028 1.10834 1.25005
 C444 C 0.91587 0.91448 1.18262
 H445 H 0.92278 0.92268 1.15946
 C446 C 0.89757 0.89179 1.24201
 C447 C 1.08552 1.19437 1.09234
 H448 H 1.07816 1.17132 1.08366
 C449 C 1.10471 1.25348 1.11651
 C450 C 0.91081 0.81474 1.07812
 H451 H 0.92058 0.83686 1.06971
 C452 C 0.88456 0.75814 1.10094
 C453 C 1.18518 1.08572 1.09708
 H454 H 1.16158 1.07847 1.08851
 C455 C 1.24577 1.10504 1.12035
 C456 C 0.80590 0.91809 1.08373
 H457 H 0.82828 0.92655 1.07394
 C458 C 0.74868 0.89605 1.11109
 C459 C 0.92210 1.07913 1.18551
 H460 H 0.92875 1.07220 1.16183
 C461 C 0.90332 1.09950 1.24545
 C462 C 1.07994 0.91487 1.18652
 H463 H 1.07375 0.92295 1.16300
 C464 C 1.09648 0.89287 1.24709
 C465 C 1.18252 0.92161 1.08643
 H466 H 1.15786 0.92668 1.07983
 C467 C 1.24540 0.90689 1.10509
 C468 C 0.81187 1.07994 1.08176
 H469 H 0.83499 1.07259 1.07303
 C470 C 0.75250 1.09907 1.10600
 C471 C 0.91556 1.17998 1.08132
 H472 H 0.92469 1.15721 1.07435
 C473 C 0.89026 1.23822 1.09984
 C474 C 1.08462 0.81182 1.08226
 H475 H 1.07697 0.83448 1.07338
 C476 C 1.10479 0.75383 1.10702
 O477 O 1.11915 0.96932 0.85290
 O478 O 1.15801 0.97064 0.81799
 C479 C 1.13183 0.95877 0.82788
 C480 C 1.11660 0.93185 0.81057
 C481 C 1.12916 0.92157 0.78172
 H482 H 1.14930 0.93409 0.77151
 O483 O 0.89125 1.02911 0.83659
 O484 O 0.85507 1.02802 0.79802
 C485 C 0.88065 1.03946 0.81034
 C486 C 0.89767 1.06571 0.79449
 C487 C 0.88762 1.07605 0.76462
 H488 H 0.86805 1.06374 0.75252
 O489 O 0.96979 1.15350 0.88703
 O490 O 0.97197 1.19136 0.85164
 C491 C 0.95936 1.17930 0.87606
 C492 C 0.93185 1.19525 0.89125
 C493 C 0.92190 1.22466 0.88020
 H494 H 0.93509 1.23596 0.86138
 O495 O 1.03302 0.83840 0.88971
 O496 O 1.03274 0.80115 0.85322
 C497 C 1.04344 0.81235 0.87915
 C498 C 1.06928 0.79594 0.89667
 C499 C 1.08039 0.76626 0.88694
 H500 H 1.06880 0.75418 0.86722
 O501 O 1.16332 0.88237 0.97271
 O502 O 1.20196 0.84724 0.97426
 C503 C 1.19018 0.87229 0.96290
 C504 C 1.20717 0.89029 0.93796
 C505 C 1.23698 0.88061 0.92546
 H506 H 1.24829 0.85961 0.93449
 O507 O 0.83870 1.10734 0.96531
 O508 O 0.80106 1.14351 0.96424
 C509 C 0.81301 1.11827 0.95331
 C510 C 0.79803 1.10213 0.92540
 C511 C 0.76892 1.11262 0.91191
 H512 H 0.75612 1.13163 0.92313
 O513 O 1.03560 1.11355 0.84591
 O514 O 1.03779 1.15111 0.81022
 C515 C 1.04812 1.12530 0.82134
 C516 C 1.07534 1.10881 0.80625
 C517 C 1.08859 1.11921 0.77757
 H518 H 1.07812 1.13918 0.76555
 O519 O 0.97490 0.88426 0.84341
 O520 O 0.97510 0.84722 0.80667
 C521 C 0.96500 0.87339 0.81696
 C522 C 0.94077 0.89078 0.79840
 C523 C 0.93276 0.88107 0.76761
 H524 H 0.94547 0.86164 0.75692
 O525 O 1.15982 1.03252 0.89918
 O526 O 1.19839 1.03393 0.86399
 C527 C 1.18605 1.04419 0.88936
 C528 C 1.20225 1.07043 0.90695
 C529 C 1.23229 1.08163 0.89692
 H530 H 1.24410 1.06959 0.87779
 O531 O 0.84601 0.96785 0.87909
 O532 O 0.80984 0.96711 0.84049
 C533 C 0.81977 0.95741 0.86721
 C534 C 0.80042 0.93380 0.88446
 C535 C 0.77015 0.92452 0.87255
 H536 H 0.76083 0.93500 0.85104
 O537 O 1.11374 1.15857 0.98349
 O538 O 1.15173 1.19518 0.98268
 C539 C 1.12533 1.18358 0.97192
 C540 C 1.10848 1.19896 0.94520
 C541 C 1.11889 1.22867 0.93507
 H542 H 1.13852 1.24067 0.94739
 O543 O 0.87836 0.84875 0.96864
 O544 O 0.84055 0.81204 0.96618
 C545 C 0.86729 0.82326 0.95670
 C546 C 0.88527 0.80643 0.93136
 C547 C 0.87429 0.77677 0.92085
 H548 H 0.85338 0.76613 0.93167
 O549 O 0.89130 0.96737 0.83712
 O550 O 0.85524 0.96640 0.79844
 C551 C 0.88099 0.95619 0.81095
 C552 C 0.89902 0.93068 0.79543
 C553 C 0.89075 0.92017 0.76475
 H554 H 0.87153 0.93153 0.75177
 O555 O 1.11935 1.03113 0.85153
 O556 O 1.15822 1.03187 0.81660
 C557 C 1.13154 1.04191 0.82632
 C558 C 1.11537 1.06717 0.80858
 C559 C 1.12772 1.07728 0.77962
 H560 H 1.14808 1.06539 0.76940
 O561 O 0.96987 0.84346 0.88856
 O562 O 0.96928 0.80624 0.85207
 C563 C 0.95747 0.81842 0.87697
 C564 C 0.92874 0.80381 0.89236
 C565 C 0.91659 0.77429 0.88200
 H566 H 0.92869 0.76174 0.86336
 O567 O 1.03259 1.15443 0.89172
 O568 O 1.03475 1.19223 0.85627
 C569 C 1.04405 1.18056 0.88245
 C570 C 1.06895 1.19740 0.90172
 C571 C 1.07970 1.22727 0.89228
 H572 H 1.06824 1.23847 0.87224
 O573 O 0.83412 0.89130 0.96851
 O574 O 0.79595 0.85497 0.96602
 C575 C 0.80848 0.88036 0.95585
 C576 C 0.79425 0.89659 0.92801
 C577 C 0.76410 0.88731 0.91538
 H578 H 0.75015 0.86949 0.92739
 O579 O 1.15965 1.11814 0.98456
 O580 O 1.19807 1.15429 0.98426
 C581 C 1.18599 1.12864 0.97370
 C582 C 1.20235 1.11144 0.94794
 C583 C 1.23230 1.12229 0.93719
 H584 H 1.24383 1.14256 0.94836
 O585 O 1.03736 0.88298 0.84837
 O586 O 1.03782 0.84618 0.81146
 C587 C 1.04929 0.87170 0.82327
 C588 C 1.07693 0.88863 0.80834
 C589 C 1.09029 0.87845 0.77954
 H590 H 1.07977 0.85825 0.76744
 O591 O 0.97293 1.11340 0.84090
 O592 O 0.97483 1.15104 0.80527
 C593 C 0.96326 1.12507 0.81487
 C594 C 0.93766 1.10827 0.79647
 C595 C 0.92685 1.11882 0.76655
 H596 H 0.93812 1.13919 0.75596
 O597 O 0.84640 1.02863 0.87845
 O598 O 0.81012 1.02782 0.83993
 C599 C 0.82039 1.03860 0.86630
 C600 C 0.80208 1.06324 0.88278
 C601 C 0.77278 1.07359 0.87008
 H602 H 0.76308 1.06290 0.84862
 O603 O 1.16306 0.97068 0.89682
 O604 O 1.20168 0.97293 0.86169
 C605 C 1.18981 0.96111 0.88640
 C606 C 1.20687 0.93496 0.90189
 C607 C 1.23667 0.92563 0.89045
 H608 H 1.24776 0.93911 0.87175
 O609 O 1.11664 0.84135 0.97241
 O610 O 1.15472 0.80557 0.97432
 C611 C 1.12828 0.81562 0.96287
 C612 C 1.11100 0.79778 0.93779
 C613 C 1.12134 0.76797 0.92838
 H614 H 1.14170 0.75731 0.94033
 O615 O 0.88077 1.15319 0.96596
 O616 O 0.84323 1.18944 0.96488
 C617 C 0.86957 1.17867 0.95460
 C618 C 0.88739 1.19523 0.92887
 C619 C 0.87735 1.22468 0.91670
 H620 H 0.85656 1.23607 0.92652
 Cu621 Cu 1.13641 1.00087 0.87863
 Cu622 Cu 1.18292 1.00258 0.83664
 Cu623 Cu 0.87262 0.99822 0.86150
 Cu624 Cu 0.82901 0.99716 0.81525
 Cu625 Cu 1.13382 1.13665 1.01511
 Cu626 Cu 1.17961 1.18001 1.01424
 Cu627 Cu 1.13528 0.86621 1.00276
 Cu628 Cu 1.18145 0.82413 1.00532
 Cu629 Cu 0.86340 1.12644 0.99665
 Cu630 Cu 0.81858 1.16978 0.99593
 Cu631 Cu 0.85851 0.87258 0.99998
 Cu632 Cu 0.81331 0.82860 0.99692
 Cu633 Cu 1.00256 1.12984 0.86977
 Cu634 Cu 1.00514 1.17533 0.82743
 Cu635 Cu 1.00385 0.86580 0.87123
 Cu636 Cu 1.00365 0.82143 0.82735
 C637 C 1.09043 0.91539 0.82351
 H638 H 1.08085 0.92323 0.84584
 C639 C 1.11663 0.89485 0.76612
 C640 C 0.92293 1.08168 0.80996
 H641 H 0.93057 1.07382 0.83316
 C642 C 0.90177 1.10255 0.75039
 C643 C 0.91469 1.18087 0.91578
 H644 H 0.92234 1.15810 0.92433
 C645 C 0.89477 1.23956 0.89229
 C646 C 1.08464 0.81131 0.92219
 H647 H 1.07672 0.83451 0.92928
 C648 C 1.10646 0.75221 0.90286
 C649 C 1.19251 0.91751 0.92586
 H650 H 1.16932 0.92478 0.93450
 C651 C 1.25183 0.89845 0.90141
 C652 C 0.81432 1.07733 0.91060
 H653 H 0.83710 1.06950 0.92027
 C654 C 0.75632 1.09847 0.88404
 C655 C 1.08900 1.08271 0.82145
 H656 H 1.07965 1.07495 0.84390
 C657 C 1.11498 1.10346 0.76419
 C658 C 0.92415 0.91589 0.81197
 H659 H 0.93015 0.92328 0.83589
 C660 C 0.90765 0.89527 0.75078
 C661 C 1.18748 1.08539 0.93269
 H662 H 1.16411 1.07723 0.94035
 C663 C 1.24715 1.10797 0.91141
 C664 C 0.81213 0.92001 0.91239
 H665 H 0.83565 0.92691 0.92147
 C666 C 0.75202 0.90114 0.88744
 C667 C 1.08331 1.18342 0.92848
 H668 H 1.07557 1.16014 0.93571
 C669 C 1.10511 1.24266 0.90840
 C670 C 0.91278 0.81968 0.91713
 H671 H 0.92149 0.84257 0.92502
 C672 C 0.88941 0.76062 0.89625
 O673 O 0.96095 0.38990 0.34184
 O674 O 0.96087 0.35402 0.30394
 C675 C 0.95131 0.38015 0.31500
 C676 C 0.92792 0.39905 0.29714
 C677 C 0.91923 0.39104 0.26609
 H678 H 0.93216 0.37244 0.25444
 O679 O 1.03341 0.61500 0.34020
 O680 O 1.03448 0.65134 0.30322
 C681 C 1.04504 0.62572 0.31471
 C682 C 1.07145 0.60820 0.29891
 C683 C 1.08376 0.61787 0.26945
 H684 H 1.07337 0.63799 0.25771
 O685 O 0.83742 0.47049 0.38224
 O686 O 0.79933 0.47174 0.34556
 C687 C 0.81116 0.45970 0.37058
 C688 C 0.79448 0.43249 0.38577
 C689 C 0.76631 0.41977 0.37200
 H690 H 0.75645 0.43031 0.35074
 O691 O 1.16588 0.53109 0.38181
 O692 O 1.20207 0.52897 0.34443
 C693 C 1.19180 0.54145 0.36968
 C694 C 1.20873 0.56891 0.38532
 C695 C 1.23843 0.58194 0.37500
 H696 H 1.25058 0.57135 0.35521
 O697 O 0.87753 0.34231 0.46563
 O698 O 0.83975 0.30561 0.46771
 C699 C 0.86516 0.31655 0.45560
 C700 C 0.87945 0.30013 0.42842
 C701 C 0.86514 0.27269 0.41581
 H702 H 0.84445 0.26236 0.42729
 O703 O 1.11890 0.65486 0.46484
 O704 O 1.15567 0.69271 0.46650
 C705 C 1.12936 0.68145 0.45572
 C706 C 1.11089 0.69925 0.43207
 C707 C 1.11877 0.73064 0.42551
 H708 H 1.13819 0.74228 0.43850
 O709 O 0.87969 0.53491 0.34060
 O710 O 0.84174 0.53626 0.30378
 C711 C 0.86842 0.54636 0.31500
 C712 C 0.88697 0.57155 0.29852
 C713 C 0.87780 0.58305 0.26831
 H714 H 0.85660 0.57340 0.25664
 O715 O 1.11630 0.46805 0.34426
 O716 O 1.15207 0.46522 0.30646
 C717 C 1.12611 0.45538 0.31889
 C718 C 1.10758 0.42853 0.30412
 C719 C 1.11844 0.41426 0.27609
 H720 H 1.14039 0.42292 0.26569
 O721 O 1.01721 0.34397 0.38849
 O722 O 1.01745 0.30743 0.35118
 C723 C 1.02731 0.31807 0.37776
 C724 C 1.05185 0.30096 0.39577
 C725 C 1.06081 0.27072 0.38637
 H726 H 1.04834 0.25907 0.36684
 O727 O 0.97033 0.65886 0.38160
 O728 O 0.97035 0.69543 0.34481
 C729 C 0.95915 0.68433 0.37030
 C730 C 0.93250 0.70033 0.38712
 C731 C 0.92022 0.72979 0.37735
 H732 H 0.93074 0.74171 0.35739
 O733 O 0.84452 0.61355 0.46998
 O734 O 0.80744 0.65041 0.47027
 C735 C 0.81780 0.62423 0.46031
 C736 C 0.79886 0.60650 0.43666
 C737 C 0.76768 0.61597 0.42887
 H738 H 0.75689 0.63552 0.44130
 O739 O 1.15170 0.38643 0.46728
 O740 O 1.18704 0.34798 0.46799
 C741 C 1.17723 0.37392 0.45708
 C742 C 1.19584 0.38919 0.43208
 C743 C 1.22440 0.37549 0.42198
 H744 H 1.23317 0.35429 0.43325
 O745 O 0.97053 0.61302 0.34149
 O746 O 0.97126 0.64933 0.30442
 C747 C 0.95973 0.62400 0.31576
 C748 C 0.93275 0.60811 0.29912
 C749 C 0.92381 0.61855 0.26919
 H750 H 0.93804 0.63687 0.25813
 O751 O 1.02339 0.38628 0.34557
 O752 O 1.02299 0.34998 0.30811
 C753 C 1.03510 0.37483 0.32047
 C754 C 1.06334 0.38975 0.30525
 C755 C 1.07463 0.37642 0.27717
 H756 H 1.06222 0.35631 0.26663
 O757 O 1.16186 0.46946 0.38646
 O758 O 1.19800 0.46644 0.34900
 C759 C 1.18678 0.45689 0.37511
 C760 C 1.20129 0.42979 0.39194
 C761 C 1.22979 0.41545 0.38168
 H762 H 1.24278 0.42581 0.36228
 O763 O 0.83846 0.53181 0.38622
 O764 O 0.80004 0.53343 0.34984
 C765 C 0.81207 0.54267 0.37610
 C766 C 0.79599 0.56692 0.39491
 C767 C 0.76500 0.57699 0.38690
 H768 H 0.75200 0.56587 0.36742
 O769 O 0.88887 0.65685 0.46678
 O770 O 0.85167 0.69353 0.46718
 C771 C 0.87725 0.68225 0.45589
 C772 C 0.89311 0.69889 0.42957
 C773 C 0.88187 0.72838 0.42003
 H774 H 0.86229 0.73919 0.43265
 O775 O 1.10447 0.34554 0.46923
 O776 O 1.14022 0.30747 0.46968
 C777 C 1.11407 0.31898 0.45940
 C778 C 1.09494 0.30165 0.43529
 C779 C 1.10393 0.27144 0.42542
 H780 H 1.12417 0.26002 0.43674
 O781 O 1.11682 0.52994 0.34349
 O782 O 1.15253 0.52747 0.30559
 C783 C 1.12728 0.53946 0.31719
 C784 C 1.11076 0.56543 0.30033
 C785 C 1.12203 0.57509 0.27096
 H786 H 1.14178 0.56254 0.26037
 O787 O 0.88153 0.47422 0.34020
 O788 O 0.84382 0.47506 0.30304
 C789 C 0.87021 0.46458 0.31395
 C790 C 0.88773 0.44027 0.29670
 C791 C 0.87856 0.43156 0.26596
 H792 H 0.85875 0.44343 0.25430
 O793 O 1.03281 0.65791 0.38406
 O794 O 1.03311 0.69479 0.34752
 C795 C 1.04360 0.68376 0.37345
 C796 C 1.06910 0.70051 0.39136
 C797 C 1.07754 0.73182 0.38449
 H798 H 1.06450 0.74436 0.36625
 O799 O 0.95551 0.34300 0.38123
 O800 O 0.95541 0.30701 0.34349
 C801 C 0.94412 0.31763 0.36903
 C802 C 0.91747 0.30080 0.38508
 C803 C 0.90301 0.27296 0.37266
 H804 H 0.91153 0.26321 0.35067
 O805 O 1.16364 0.61268 0.46281
 O806 O 1.20034 0.65054 0.46419
 C807 C 1.18948 0.62488 0.45261
 C808 C 1.20688 0.60939 0.42667
 C809 C 1.23647 0.62142 0.41681
 H810 H 1.24701 0.64162 0.42901
 O811 O 0.83527 0.38661 0.46478
 O812 O 0.79739 0.35000 0.46572
 C813 C 0.80892 0.37522 0.45388
 C814 C 0.79263 0.39125 0.42648
 C815 C 0.76401 0.37913 0.41221
 H816 H 0.75293 0.35808 0.42167
 Cu817 Cu 0.98887 0.36942 0.36803
 Cu818 Cu 0.98921 0.32605 0.32278
 Cu819 Cu 1.00189 0.63266 0.36554
 Cu820 Cu 1.00244 0.67623 0.32109
 Cu821 Cu 0.86298 0.50295 0.36599
 Cu822 Cu 0.81722 0.50427 0.32196
 Cu823 Cu 1.13696 0.49992 0.36784
 Cu824 Cu 1.17964 0.49679 0.32253
 C825 C 0.91250 0.42404 0.31206
 H826 H 0.91892 0.43007 0.33626
 C827 C 0.89376 0.40659 0.25069
 C828 C 1.08523 0.58189 0.31403
 H829 H 1.07658 0.57460 0.33691
 C830 C 1.10921 0.60124 0.25536
 C831 C 0.80729 0.41817 0.41306
 H832 H 0.82931 0.42761 0.42343
 C833 C 0.75072 0.39336 0.38480
 C834 C 1.19351 0.58312 0.41116
 H835 H 1.17058 0.57405 0.41905
 C836 C 1.25252 0.60835 0.39110
 C837 C 0.90571 0.31366 0.41315
 H838 H 0.91643 0.33509 0.42273
 C839 C 0.87666 0.25870 0.38812
 C840 C 1.08581 0.68451 0.41522
 H841 H 1.07984 0.66013 0.42014
 C842 C 1.10247 0.74696 0.40162
 C843 C 0.91457 0.58440 0.31355
 H844 H 0.92157 0.57648 0.33692
 C845 C 0.89649 0.60676 0.25352
 C846 C 1.07976 0.41603 0.31853
 H847 H 1.07127 0.42629 0.34032
 C848 C 1.10174 0.38837 0.26224
 C849 C 1.06862 0.31610 0.42058
 H850 H 1.06207 0.33977 0.42748
 C851 C 1.08716 0.25617 0.40060
 C852 C 0.91858 0.68523 0.41327
 H853 H 0.92721 0.66240 0.42070
 C854 C 0.89480 0.74397 0.39400
 C855 C 0.81267 0.58161 0.42005
 H856 H 0.83703 0.57460 0.42581
 C857 C 0.75102 0.60184 0.40368
 C858 C 1.18467 0.41644 0.41733
 H859 H 1.16234 0.42668 0.42507
 C860 C 1.24126 0.38787 0.39662
 O861 O 1.03141 0.39449 0.66052
 O862 O 1.03169 0.35748 0.69686
 C863 C 1.04292 0.38314 0.68591
 C864 C 1.07047 0.39942 0.70198
 C865 C 1.08260 0.38892 0.73125
 H866 H 1.06997 0.37002 0.74287
 O867 O 0.97159 0.61242 0.65446
 O868 O 0.97306 0.65019 0.69045
 C869 C 0.96126 0.62441 0.67980
 C870 C 0.93473 0.60885 0.69681
 C871 C 0.92537 0.62067 0.72611
 H872 H 0.93849 0.64031 0.73675
 O873 O 0.84008 0.53164 0.61371
 O874 O 0.80207 0.53299 0.64949
 C875 C 0.81431 0.54333 0.62417
 C876 C 0.79929 0.56992 0.60712
 C877 C 0.76943 0.58197 0.61647
 H878 H 0.75653 0.57088 0.63553
 O879 O 1.16076 0.47267 0.61313
 O880 O 1.20032 0.47182 0.64832
 C881 C 1.18704 0.46119 0.62309
 C882 C 1.20157 0.43492 0.60508
 C883 C 1.23186 0.42272 0.61348
 H884 H 1.24535 0.43287 0.63316
 O885 O 1.10752 0.34690 0.53069
 O886 O 1.14360 0.30912 0.53036
 C887 C 1.11846 0.32121 0.54152
 C888 C 1.10272 0.30531 0.56795
 C889 C 1.11393 0.27597 0.57779
 H890 H 1.13297 0.26460 0.56486
 O891 O 0.89141 0.65853 0.52846
 O892 O 0.85448 0.69552 0.52825
 C893 C 0.88084 0.68459 0.53856
 C894 C 0.89875 0.70185 0.56335
 C895 C 0.88997 0.73246 0.57157
 H896 H 0.87099 0.74411 0.55840
 O897 O 0.88227 0.47067 0.65866
 O898 O 0.84480 0.47184 0.69497
 C899 C 0.87088 0.46075 0.68449
 C900 C 0.88787 0.43555 0.70192
 C901 C 0.87659 0.42465 0.73100
 H902 H 0.85578 0.43554 0.74146
 O903 O 1.12165 0.53540 0.65753
 O904 O 1.16031 0.53549 0.69366
 C905 C 1.13385 0.54626 0.68305
 C906 C 1.11658 0.57174 0.69985
 C907 C 1.12610 0.58266 0.73019
 H908 H 1.14658 0.57226 0.74209
 O909 O 0.96771 0.35334 0.61478
 O910 O 0.96813 0.31601 0.65083
 C911 C 0.95709 0.32731 0.62504
 C912 C 0.93165 0.30960 0.60732
 C913 C 0.92448 0.27888 0.61668
 H914 H 0.93814 0.26830 0.63582
 O915 O 1.03472 0.65311 0.61049
 O916 O 1.03639 0.69087 0.64653
 C917 C 1.04643 0.67886 0.62092
 C918 C 1.07230 0.69483 0.60349
 C919 C 1.08297 0.72486 0.61306
 H920 H 1.07115 0.73677 0.63230
 O921 O 0.83730 0.38890 0.52685
 O922 O 0.79958 0.35210 0.52796
 C923 C 0.81142 0.37794 0.53816
 C924 C 0.79521 0.39429 0.56429
 C925 C 0.76611 0.38200 0.57513
 H926 H 0.75497 0.36202 0.56307
 O927 O 1.16387 0.61043 0.52435
 O928 O 1.20092 0.64802 0.52535
 C929 C 1.19002 0.62191 0.53529
 C930 C 1.20750 0.60548 0.56064
 C931 C 1.23830 0.61578 0.56966
 H932 H 1.24993 0.63460 0.55673
 O933 O 1.03463 0.61386 0.65694
 O934 O 1.03571 0.65139 0.69321
 C935 C 1.04611 0.62551 0.68249
 C936 C 1.07249 0.60946 0.69948
 C937 C 1.08167 0.61938 0.72986
 H938 H 1.06833 0.63790 0.74139
 O939 O 0.96817 0.39161 0.66250
 O940 O 0.96838 0.35473 0.69899
 C941 C 0.95709 0.38007 0.68786
 C942 C 0.93003 0.39584 0.70367
 C943 C 0.91801 0.38476 0.73255
 H944 H 0.92963 0.36527 0.74431
 O945 O 1.16358 0.53370 0.61282
 O946 O 1.20287 0.53359 0.64832
 C947 C 1.19072 0.54386 0.62272
 C948 C 1.20778 0.56817 0.60427
 C949 C 1.23848 0.57933 0.61353
 H950 H 1.25040 0.56936 0.63400
 O951 O 0.83856 0.46999 0.61419
 O952 O 0.80064 0.47068 0.65002
 C953 C 0.81211 0.45939 0.62465
 C954 C 0.79525 0.43325 0.60716
 C955 C 0.76610 0.42005 0.61798
 H956 H 0.75578 0.42921 0.63941
 O957 O 1.11930 0.65242 0.52585
 O958 O 1.15637 0.68999 0.52712
 C959 C 1.13033 0.67815 0.53721
 C960 C 1.11310 0.69448 0.56262
 C961 C 1.12331 0.72460 0.57246
 H962 H 1.14332 0.73613 0.56095
 O963 O 0.88118 0.34585 0.52779
 O964 O 0.84380 0.30880 0.52989
 C965 C 0.87034 0.32067 0.54006
 C966 C 0.88878 0.30578 0.56675
 C967 C 0.88129 0.27510 0.57770
 H968 H 0.86202 0.26162 0.56649
 O969 O 1.11909 0.47439 0.65756
 O970 O 1.15813 0.47381 0.69334
 C971 C 1.13110 0.46368 0.68299
 C972 C 1.11374 0.43870 0.70023
 C973 C 1.12563 0.42781 0.72928
 H974 H 1.14718 0.43846 0.73951
 O975 O 0.88357 0.53192 0.65752
 O976 O 0.84611 0.53370 0.69382
 C977 C 0.87257 0.54382 0.68273
 C978 C 0.89073 0.57012 0.69845
 C979 C 0.88116 0.58299 0.72764
 H980 H 0.86059 0.57306 0.73958
 O981 O 0.97280 0.65825 0.61383
 O982 O 0.97445 0.69597 0.64989
 C983 C 0.96314 0.68468 0.62426
 C984 C 0.93820 0.70189 0.60633
 C985 C 0.92851 0.73245 0.61506
 H986 H 0.93990 0.74423 0.63507
 O987 O 1.02988 0.34876 0.61908
 O988 O 1.03037 0.31180 0.65550
 C989 C 1.04064 0.32284 0.62972
 C990 C 1.06559 0.30594 0.61185
 C991 C 1.07755 0.27656 0.62189
 H992 H 1.06757 0.26565 0.64263
 O993 O 1.15161 0.39012 0.52838
 O994 O 1.18747 0.35212 0.52845
 C995 C 1.17773 0.37857 0.53858
 C996 C 1.19691 0.39542 0.56293
 C997 C 1.22751 0.38448 0.57085
 H998 H 1.23752 0.36474 0.55808
 O999 O 0.84659 0.61558 0.53098
 O1000 O 0.80985 0.65274 0.53074
 C1001 C 0.82072 0.62707 0.54158
 C1002 C 0.80287 0.61073 0.56677
 C1003 C 0.77282 0.62194 0.57596
 H1004 H 0.76249 0.64213 0.56413
 Cu1005 Cu 0.99954 0.37592 0.63588
 Cu1006 Cu 0.99948 0.33142 0.67920
 Cu1007 Cu 1.00310 0.63061 0.63039
 Cu1008 Cu 1.00513 0.67574 0.67374
 Cu1009 Cu 0.86162 0.36945 0.49606
 Cu1010 Cu 0.81636 0.32556 0.49820
 Cu1011 Cu 1.12502 0.37107 0.49865
 Cu1012 Cu 1.16819 0.32534 0.49914
 Cu1013 Cu 0.87176 0.63245 0.49906
 Cu1014 Cu 0.82721 0.67688 0.49909
 Cu1015 Cu 1.13773 0.62867 0.49419
 Cu1016 Cu 1.18217 0.67405 0.49593
 Cu1017 Cu 0.86476 0.50082 0.63243
 Cu1018 Cu 0.81954 0.50230 0.67563
 Cu1019 Cu 1.13741 0.50423 0.63173
 Cu1020 Cu 1.18440 0.50367 0.67451
 C1021 C 1.08608 0.42454 0.68689
 H1022 H 1.07721 0.43251 0.66415
 C1023 C 1.11060 0.40279 0.74498
 C1024 C 0.91762 0.58335 0.68332
 H1025 H 0.92483 0.57430 0.66054
 C1026 C 0.89859 0.60839 0.74150
 C1027 C 0.81578 0.58447 0.58220
 H1028 H 0.83906 0.57582 0.57524
 C1029 C 0.75613 0.60808 0.60087
 C1030 C 1.18427 0.42098 0.57969
 H1031 H 1.16050 0.42938 0.57353
 C1032 C 1.24475 0.39737 0.59628
 C1033 C 1.07836 0.32001 0.58476
 H1034 H 1.06997 0.34287 0.57718
 C1035 C 1.10216 0.26157 0.60487
 C1036 C 0.92319 0.68695 0.58039
 H1037 H 0.92980 0.66315 0.57402
 C1038 C 0.90429 0.74780 0.59750
 C1039 C 0.91484 0.42125 0.68870
 H1040 H 0.92356 0.42943 0.66615
 C1041 C 0.89124 0.39914 0.74633
 C1042 C 1.08975 0.58544 0.68485
 H1043 H 1.08259 0.57788 0.66128
 C1044 C 1.10840 0.60651 0.74532
 C1045 C 0.91412 0.32280 0.58198
 H1046 H 0.91980 0.34657 0.57456
 C1047 C 0.89949 0.26159 0.60259
 C1048 C 1.08737 0.67979 0.57808
 H1049 H 1.07962 0.65637 0.57087
 C1050 C 1.10879 0.73959 0.59793
 C1051 C 0.80945 0.42016 0.58007
 H1052 H 0.83219 0.42939 0.57182
 C1053 C 0.75133 0.39433 0.60175
 C1054 C 1.19258 0.58135 0.57767
 H1055 H 1.16857 0.57362 0.57082
 C1056 C 1.25368 0.60336 0.59626
 O1057 O 0.46860 0.88395 0.34491
 O1058 O 0.46815 0.84647 0.30864
 C1059 C 0.45763 0.87230 0.31919
 C1060 C 0.43130 0.88766 0.30176
 C1061 C 0.42030 0.87427 0.27337
 H1062 H 0.43288 0.85432 0.26350
 O1063 O 0.52259 1.11880 0.34806
 O1064 O 0.52250 1.15566 0.31159
 C1065 C 0.53390 1.13023 0.32272
 C1066 C 0.56068 1.11404 0.30608
 C1067 C 0.57112 1.12505 0.27660
 H1068 H 0.55918 1.14496 0.26582
 O1069 O 0.34211 0.96563 0.38807
 O1070 O 0.30345 0.96484 0.35188
 C1071 C 0.31505 0.95547 0.37810
 C1072 C 0.29664 0.93252 0.39687
 C1073 C 0.26502 0.92514 0.38795
 H1074 H 0.25397 0.93693 0.36795
 O1075 O 0.65486 1.03485 0.38734
 O1076 O 0.69132 1.03647 0.35005
 C1077 C 0.68038 1.04672 0.37596
 C1078 C 0.69667 1.07344 0.39253
 C1079 C 0.72579 1.08626 0.38140
 H1080 H 0.73727 1.07576 0.36115
 O1081 O 0.38009 0.84684 0.47551
 O1082 O 0.34301 0.80941 0.47579
 C1083 C 0.36869 0.82108 0.46443
 C1084 C 0.38477 0.80473 0.43763
 C1085 C 0.37183 0.77613 0.42602
 H1086 H 0.35103 0.76577 0.43726
 O1087 O 0.60779 1.15882 0.47539
 O1088 O 0.64487 1.19627 0.47290
 C1089 C 0.61764 1.18486 0.46458
 C1090 C 0.59778 1.20223 0.44181
 C1091 C 0.60648 1.23311 0.43445
 H1092 H 0.62672 1.24435 0.44657
 O1093 O 0.38480 1.02541 0.34201
 O1094 O 0.34642 1.02400 0.30555
 C1095 C 0.37256 1.03562 0.31648
 C1096 C 0.38780 1.06250 0.30031
 C1097 C 0.37492 1.07355 0.27175
 H1098 H 0.35522 1.06081 0.26033
 O1099 O 0.61003 0.97246 0.34396
 O1100 O 0.64653 0.97424 0.30673
 C1101 C 0.62125 0.96203 0.31821
 C1102 C 0.60596 0.93439 0.30217
 C1103 C 0.61814 0.92359 0.27341
 H1104 H 0.63727 0.93667 0.26209
 O1105 O 0.52993 0.83943 0.38914
 O1106 O 0.52744 0.80206 0.35281
 C1107 C 0.53935 0.81317 0.37823
 C1108 C 0.56543 0.79582 0.39412
 C1109 C 0.57456 0.76638 0.38245
 H1110 H 0.56093 0.75555 0.36318
 O1111 O 0.45638 1.16045 0.38835
 O1112 O 0.45648 1.19742 0.35202
 C1113 C 0.44485 1.18582 0.37707
 C1114 C 0.41727 1.20136 0.39309
 C1115 C 0.40314 1.22910 0.38097
 H1116 H 0.41282 1.23941 0.35978
 O1117 O 0.33522 1.10914 0.47327
 O1118 O 0.29688 1.14454 0.47262
 C1119 C 0.30922 1.11942 0.46139
 C1120 C 0.29434 1.10278 0.43328
 C1121 C 0.26536 1.11344 0.41951
 H1122 H 0.25293 1.13237 0.43112
 O1123 O 0.65869 0.88448 0.46577
 O1124 O 0.69699 0.84899 0.46493
 C1125 C 0.68459 0.87428 0.45426
 C1126 C 0.69989 0.89207 0.42803
 C1127 C 0.72929 0.88233 0.41522
 H1128 H 0.74133 0.86210 0.42513
 O1129 O 0.45993 1.11581 0.34618
 O1130 O 0.45950 1.15251 0.30953
 C1131 C 0.44937 1.12624 0.32005
 C1132 C 0.42463 1.10763 0.30235
 C1133 C 0.41106 1.11871 0.27397
 H1134 H 0.41912 1.14122 0.26512
 O1135 O 0.53160 0.88296 0.34565
 O1136 O 0.53083 0.84561 0.30933
 C1137 C 0.54244 0.87152 0.32007
 C1138 C 0.56884 0.88896 0.30326
 C1139 C 0.58230 0.87803 0.27460
 H1140 H 0.57319 0.85646 0.26391
 O1141 O 0.65493 0.97271 0.38686
 O1142 O 0.69148 0.97453 0.34967
 C1143 C 0.68082 0.96253 0.37503
 C1144 C 0.69817 0.93574 0.39009
 C1145 C 0.72770 0.92574 0.37809
 H1146 H 0.73843 0.93844 0.35867
 O1147 O 0.34156 1.02681 0.38544
 O1148 O 0.30329 1.02565 0.34888
 C1149 C 0.31514 1.03719 0.37436
 C1150 C 0.29796 1.06316 0.39077
 C1151 C 0.26917 1.07449 0.37761
 H1152 H 0.25957 1.06395 0.35604
 O1153 O 0.37406 1.15778 0.47244
 O1154 O 0.33567 1.19315 0.47333
 C1155 C 0.36158 1.18298 0.46168
 C1156 C 0.37673 1.19987 0.43467
 C1157 C 0.36301 1.22746 0.42213
 H1158 H 0.34179 1.23712 0.43299
 O1159 O 0.61832 0.83762 0.46772
 O1160 O 0.65588 0.80141 0.46708
 C1161 C 0.62922 0.81189 0.45686
 C1162 C 0.61056 0.79503 0.43157
 C1163 C 0.62013 0.76572 0.41883
 H1164 H 0.64128 0.75428 0.42829
 O1165 O 0.60896 1.03485 0.34517
 O1166 O 0.64539 1.03634 0.30787
 C1167 C 0.61957 1.04668 0.31973
 C1168 C 0.60231 1.07336 0.30435
 C1169 C 0.61250 1.08520 0.27495
 H1170 H 0.63211 1.07392 0.26294
 O1171 O 0.38233 0.96353 0.34113
 O1172 O 0.34389 0.96200 0.30483
 C1173 C 0.37032 0.95171 0.31577
 C1174 C 0.38747 0.92541 0.29974
 C1175 C 0.37613 0.91103 0.27122
 H1176 H 0.35426 0.91948 0.26022
 O1177 O 0.51925 1.16082 0.39285
 O1178 O 0.51969 1.19811 0.35679
 C1179 C 0.52999 1.18692 0.38284
 C1180 C 0.55543 1.20362 0.40138
 C1181 C 0.56517 1.23442 0.39366
 H1182 H 0.55287 1.24675 0.37479
 O1183 O 0.46662 0.84319 0.39027
 O1184 O 0.46440 0.80587 0.35392
 C1185 C 0.45374 0.81802 0.37936
 C1186 C 0.42575 0.80316 0.39612
 C1187 C 0.41174 0.77477 0.38480
 H1188 H 0.42147 0.76437 0.36370
 O1189 O 0.65461 1.11904 0.47141
 O1190 O 0.69156 1.15660 0.46904
 C1191 C 0.67992 1.13056 0.45933
 C1192 C 0.69614 1.11401 0.43355
 C1193 C 0.72559 1.12573 0.42284
 H1194 H 0.73683 1.14603 0.43425
 O1195 O 0.33565 0.88895 0.47722
 O1196 O 0.29813 0.85193 0.47718
 C1197 C 0.30950 0.87753 0.46620
 C1198 C 0.29333 0.89399 0.43955
 C1199 C 0.26189 0.88590 0.42930
 H1200 H 0.24848 0.86772 0.44142
 Cu1201 Cu 0.49956 0.86608 0.37114
 Cu1202 Cu 0.49759 0.82124 0.32773
 Cu1203 Cu 0.48946 1.13544 0.37248
 Cu1204 Cu 0.48964 1.17961 0.32887
 Cu1205 Cu 0.36678 0.99523 0.36755
 Cu1206 Cu 0.32048 0.99386 0.32410
 Cu1207 Cu 0.62856 1.00368 0.36951
 Cu1208 Cu 0.67222 1.00553 0.32486
 C1209 C 0.41524 0.91342 0.31450
 H1210 H 0.42382 0.92341 0.33670
 C1211 C 0.39280 0.88514 0.25789
 C1212 C 0.57634 1.08797 0.31961
 H1213 H 0.56864 1.07937 0.34236
 C1214 C 0.59700 1.11107 0.26085
 C1215 C 0.31046 0.91737 0.42303
 H1216 H 0.33498 0.92320 0.42995
 C1217 C 0.24770 0.90179 0.40353
 C1218 C 0.68204 1.08760 0.41870
 H1219 H 0.65920 1.07863 0.42699
 C1220 C 0.74019 1.11255 0.39660
 C1221 C 0.41198 0.81788 0.42273
 H1222 H 0.42200 0.83997 0.43143
 C1223 C 0.38498 0.76068 0.39990
 C1224 C 0.57186 1.18773 0.42573
 H1225 H 0.56543 1.16360 0.43125
 C1226 C 0.59116 1.24896 0.40999
 C1227 C 0.41307 1.07927 0.31506
 H1228 H 0.42279 1.07093 0.33734
 C1229 C 0.38630 1.10150 0.25825
 C1230 C 0.58117 0.91720 0.31666
 H1231 H 0.57190 0.92559 0.33893
 C1232 C 0.60717 0.89541 0.25958
 C1233 C 0.58310 0.80966 0.41893
 H1234 H 0.57598 0.83255 0.42767
 C1235 C 0.60196 0.75130 0.39402
 C1236 C 0.40396 1.18733 0.42008
 H1237 H 0.41436 1.16592 0.42933
 C1238 C 0.37591 1.24254 0.39542
 C1239 C 0.31037 1.07743 0.41863
 H1240 H 0.33287 1.06917 0.42856
 C1241 C 0.25279 1.09973 0.39123
 C1242 C 0.68460 0.91885 0.41524
 H1243 H 0.66172 0.92625 0.42451
 C1244 C 0.74331 0.89905 0.39013
 O1245 O 0.53816 0.89270 0.65801
 O1246 O 0.53943 0.85636 0.69504
 C1247 C 0.55007 0.88192 0.68352
 C1248 C 0.57721 0.89886 0.69929
 C1249 C 0.58903 0.88929 0.72894
 H1250 H 0.57680 0.87046 0.74121
 O1251 O 0.47815 1.11682 0.65765
 O1252 O 0.47828 1.15250 0.69572
 C1253 C 0.46811 1.12655 0.68415
 C1254 C 0.44377 1.10805 0.70138
 C1255 C 0.43581 1.11665 0.73235
 H1256 H 0.44826 1.13616 0.74394
 O1257 O 0.34087 1.03279 0.62108
 O1258 O 0.30674 1.03344 0.66045
 C1259 C 0.31581 1.04382 0.63388
 C1260 C 0.29729 1.06928 0.61804
 C1261 C 0.26879 1.08045 0.63138
 H1262 H 0.26002 1.06976 0.65285
 O1263 O 0.66518 0.97142 0.60771
 O1264 O 0.70421 0.97241 0.64352
 C1265 C 0.69171 0.96103 0.61830
 C1266 C 0.70810 0.93504 0.60172
 C1267 C 0.73890 0.92607 0.61163
 H1268 H 0.75098 0.93896 0.63060
 O1269 O 0.61845 0.84170 0.52924
 O1270 O 0.65592 0.80535 0.52970
 C1271 C 0.63014 0.81674 0.54085
 C1272 C 0.61346 0.80179 0.56799
 C1273 C 0.62247 0.77206 0.57991
 H1274 H 0.64169 0.75918 0.56888
 O1275 O 0.37977 1.15446 0.53452
 O1276 O 0.34168 1.19011 0.53572
 C1277 C 0.36858 1.17968 0.54601
 C1278 C 0.38682 1.19623 0.57212
 C1279 C 0.37486 1.22390 0.58630
 H1280 H 0.35239 1.23355 0.57783
 O1281 O 0.38667 0.97086 0.66259
 O1282 O 0.35243 0.97158 0.70190
 C1283 C 0.37733 0.96040 0.68916
 C1284 C 0.39549 0.93468 0.70487
 C1285 C 0.38618 0.92249 0.73447
 H1286 H 0.36589 0.93255 0.74651
 O1287 O 0.62402 1.03472 0.65069
 O1288 O 0.66300 1.03518 0.68656
 C1289 C 0.63660 1.04596 0.67586
 C1290 C 0.62096 1.07225 0.69275
 C1291 C 0.63398 1.08305 0.72154
 H1292 H 0.65475 1.07135 0.73163
 O1293 O 0.47366 0.84938 0.61558
 O1294 O 0.47503 0.81293 0.65254
 C1295 C 0.46317 0.82371 0.62699
 C1296 C 0.43651 0.80640 0.61090
 C1297 C 0.42824 0.77600 0.62076
 H1298 H 0.44214 0.76490 0.63941
 O1299 O 0.53624 1.16635 0.61572
 O1300 O 0.53606 1.20243 0.65332
 C1301 C 0.54673 1.19230 0.62735
 C1302 C 0.57273 1.20939 0.61073
 C1303 C 0.58393 1.23969 0.61985
 H1304 H 0.57207 1.25197 0.63880
 O1305 O 0.33594 0.88720 0.53939
 O1306 O 0.29897 0.84974 0.54005
 C1307 C 0.31047 0.87542 0.55114
 C1308 C 0.29516 0.89167 0.57854
 C1309 C 0.26753 0.87952 0.59375
 H1310 H 0.25663 0.85806 0.58467
 O1311 O 0.65851 1.11778 0.53242
 O1312 O 0.69579 1.15499 0.52961
 C1313 C 0.68572 1.12899 0.54063
 C1314 C 0.70568 1.11172 0.56345
 C1315 C 0.73678 1.12217 0.57104
 H1316 H 0.74652 1.14276 0.55934
 O1317 O 0.54082 1.11918 0.65412
 O1318 O 0.54106 1.15484 0.69217
 C1319 C 0.55265 1.13002 0.67985
 C1320 C 0.58043 1.11364 0.69502
 C1321 C 0.59416 1.12431 0.72392
 H1322 H 0.58414 1.14484 0.73514
 O1323 O 0.47508 0.89206 0.65967
 O1324 O 0.47685 0.85555 0.69651
 C1325 C 0.46516 0.88084 0.68563
 C1326 C 0.43909 0.89654 0.70306
 C1327 C 0.42992 0.88522 0.73271
 H1328 H 0.44301 0.86592 0.74333
 O1329 O 0.66875 1.03282 0.60905
 O1330 O 0.70787 1.03366 0.64478
 C1331 C 0.69543 1.04386 0.61937
 C1332 C 0.71094 1.06982 0.60210
 C1333 C 0.74208 1.08078 0.61000
 H1334 H 0.75584 1.06874 0.62804
 O1335 O 0.34151 0.97110 0.61975
 O1336 O 0.30734 0.97169 0.65911
 C1337 C 0.31643 0.96046 0.63283
 C1338 C 0.29838 0.93390 0.61808
 C1339 C 0.27086 0.92184 0.63254
 H1340 H 0.26197 0.93332 0.65358
 O1341 O 0.61730 1.16334 0.53566
 O1342 O 0.65469 1.20043 0.53275
 C1343 C 0.62937 1.18952 0.54498
 C1344 C 0.61367 1.20734 0.57029
 C1345 C 0.62444 1.23756 0.57909
 H1346 H 0.64441 1.24829 0.56679
 O1347 O 0.38236 0.84682 0.53724
 O1348 O 0.34587 0.80884 0.53787
 C1349 C 0.37233 0.82073 0.54799
 C1350 C 0.39163 0.80474 0.57286
 C1351 C 0.38338 0.77436 0.58352
 H1352 H 0.36311 0.76199 0.57280
 O1353 O 0.62476 0.97352 0.65387
 O1354 O 0.66368 0.97400 0.68980
 C1355 C 0.63681 0.96350 0.67960
 C1356 C 0.61967 0.93885 0.69733
 C1357 C 0.63116 0.92908 0.72698
 H1358 H 0.65222 0.94037 0.73752
 O1359 O 0.39071 1.03219 0.65926
 O1360 O 0.35671 1.03262 0.69878
 C1361 C 0.38227 1.04273 0.68592
 C1362 C 0.40187 1.06733 0.70211
 C1363 C 0.39458 1.07612 0.73314
 H1364 H 0.37597 1.06341 0.74552
 O1365 O 0.47345 1.15812 0.61282
 O1366 O 0.47298 1.19386 0.65075
 C1367 C 0.46114 1.18241 0.62510
 C1368 C 0.43220 1.19713 0.61022
 C1369 C 0.41976 1.22455 0.62358
 H1370 H 0.43217 1.23533 0.64363
 O1371 O 0.53652 0.84893 0.61460
 O1372 O 0.53729 0.81275 0.65180
 C1373 C 0.54735 0.82328 0.62568
 C1374 C 0.57225 0.80539 0.60867
 C1375 C 0.58087 0.77547 0.61940
 H1376 H 0.56844 0.76521 0.63928
 O1377 O 0.66348 0.88392 0.52726
 O1378 O 0.70163 0.84825 0.52721
 C1379 C 0.69023 0.87386 0.53777
 C1380 C 0.70759 0.89200 0.56296
 C1381 C 0.73831 0.88290 0.57388
 H1382 H 0.74998 0.86288 0.56321
 O1383 O 0.33275 1.11377 0.53616
 O1384 O 0.29400 1.14872 0.53611
 C1385 C 0.30671 1.12425 0.54775
 C1386 C 0.29223 1.10848 0.57592
 C1387 C 0.26365 1.11956 0.58999
 H1388 H 0.25102 1.13889 0.57908
 Cu1389 Cu 0.50582 0.87455 0.63333
 Cu1390 Cu 0.50729 0.83078 0.67766
 Cu1391 Cu 0.50734 1.13671 0.63127
 Cu1392 Cu 0.50692 1.17947 0.67666
 Cu1393 Cu 0.36194 0.87127 0.50746
 Cu1394 Cu 0.31779 0.82627 0.50774
 Cu1395 Cu 0.63601 0.86531 0.49747
 Cu1396 Cu 0.68139 0.82244 0.49716
 Cu1397 Cu 0.35894 1.13037 0.50401
 Cu1398 Cu 0.31328 1.17235 0.50462
 Cu1399 Cu 0.63081 1.13593 0.50419
 Cu1400 Cu 0.67550 1.18080 0.50064
 Cu1401 Cu 0.36830 1.00168 0.63676
 Cu1402 Cu 0.32728 1.00265 0.68387
 Cu1403 Cu 0.64183 1.00301 0.62664
 Cu1404 Cu 0.68857 1.00375 0.66980
 C1405 C 0.59257 0.92382 0.68382
 H1406 H 0.58396 0.93099 0.66070
 C1407 C 0.61636 0.90406 0.74275
 C1408 C 0.42679 1.08318 0.68642
 H1409 H 0.43225 1.07686 0.66226
 C1410 C 0.41090 1.10125 0.74809
 C1411 C 0.30856 1.08325 0.59023
 H1412 H 0.33069 1.07489 0.58009
 C1413 C 0.25168 1.10561 0.61797
 C1414 C 0.69276 0.91816 0.57709
 H1415 H 0.66886 0.92497 0.56946
 C1416 C 0.75402 0.89998 0.59831
 C1417 C 0.58831 0.81819 0.58272
 H1418 H 0.58160 0.84135 0.57444
 C1419 C 0.60593 0.75878 0.60566
 C1420 C 0.41571 1.18321 0.58427
 H1421 H 0.42492 1.16170 0.57409
 C1422 C 0.39130 1.23813 0.61217
 C1423 C 0.42200 0.92147 0.68951
 H1424 H 0.42895 0.93012 0.66654
 C1425 C 0.40344 0.89759 0.74852
 C1426 C 0.59403 1.08743 0.67981
 H1427 H 0.58409 1.07921 0.65743
 C1428 C 0.62103 1.10888 0.73749
 C1429 C 0.41834 0.82047 0.58671
 H1430 H 0.42459 0.84408 0.57919
 C1431 C 0.40171 0.75992 0.60759
 C1432 C 0.58780 1.19375 0.58592
 H1433 H 0.57979 1.17029 0.57909
 C1434 C 0.61000 1.25402 0.60389
 C1435 C 0.30999 0.91903 0.59095
 H1436 H 0.33149 0.92829 0.58005
 C1437 C 0.25505 0.89476 0.62097
 C1438 C 0.69315 1.08531 0.57866
 H1439 H 0.66889 1.07745 0.57297
 C1440 C 0.75507 1.10719 0.59443
 O1441 O 0.62489 0.52279 1.15129
 O1442 O 0.66364 0.52273 1.18737
 C1443 C 0.63730 0.53373 1.17676
 C1444 C 0.62087 0.55955 1.19397
 C1445 C 0.63194 0.56972 1.22397
 H1446 H 0.65252 0.55844 1.23488
 O1447 O 0.38608 0.46482 1.15325
 O1448 O 0.34911 0.46397 1.19007
 C1449 C 0.37475 0.45305 1.17839
 C1450 C 0.39189 0.42649 1.19391
 C1451 C 0.38122 0.41347 1.22263
 H1452 H 0.36046 0.42341 1.23393
 O1453 O 0.53690 0.64844 1.11217
 O1454 O 0.54114 0.68419 1.15009
 C1455 C 0.54984 0.67322 1.12350
 C1456 C 0.57588 0.68892 1.10602
 C1457 C 0.58692 0.71880 1.11548
 H1458 H 0.57499 0.73100 1.13448
 O1459 O 0.47134 0.34348 1.10686
 O1460 O 0.46917 0.30591 1.14261
 C1461 C 0.45871 0.31830 1.11710
 C1462 C 0.43107 0.30366 1.09974
 C1463 C 0.41989 0.27375 1.10854
 H1464 H 0.43289 0.26089 1.12654
 O1465 O 0.66590 0.60349 1.02473
 O1466 O 0.70450 0.63954 1.02568
 C1467 C 0.69298 0.61346 1.03498
 C1468 C 0.71075 0.59475 1.05847
 C1469 C 0.74232 0.60296 1.06749
 H1470 H 0.75437 0.62240 1.05598
 O1471 O 0.33690 0.39081 1.02160
 O1472 O 0.29738 0.35582 1.02360
 C1473 C 0.31017 0.38163 1.03250
 C1474 C 0.29401 0.40067 1.05631
 C1475 C 0.26209 0.39389 1.06388
 H1476 H 0.24896 0.37548 1.05120
 O1477 O 0.47626 0.60678 1.15792
 O1478 O 0.47977 0.64200 1.19633
 C1479 C 0.46746 0.61690 1.18466
 C1480 C 0.44205 0.59943 1.20154
 C1481 C 0.43238 0.60830 1.23198
 H1482 H 0.44468 0.62755 1.24407
 O1483 O 0.53631 0.38135 1.15323
 O1484 O 0.53491 0.34430 1.18950
 C1485 C 0.54702 0.36970 1.17885
 C1486 C 0.57439 0.38592 1.19539
 C1487 C 0.58631 0.37624 1.22515
 H1488 H 0.57415 0.35720 1.23708
 O1489 O 0.66532 0.45861 1.10894
 O1490 O 0.70435 0.45814 1.14472
 C1491 C 0.69147 0.44712 1.11955
 C1492 C 0.70622 0.42025 1.10248
 C1493 C 0.73581 0.40722 1.11217
 H1494 H 0.74884 0.41804 1.13172
 O1495 O 0.34576 0.53161 1.11481
 O1496 O 0.30846 0.53136 1.15135
 C1497 C 0.32032 0.54306 1.12643
 C1498 C 0.30478 0.57026 1.11053
 C1499 C 0.27458 0.58160 1.12008
 H1500 H 0.26210 0.57025 1.13926
 O1501 O 0.39232 0.66192 1.03553
 O1502 O 0.35542 0.69880 1.03636
 C1503 C 0.38121 0.68713 1.04741
 C1504 C 0.39819 0.70180 1.07510
 C1505 C 0.38794 0.73020 1.08906
 H1506 H 0.36811 0.74274 1.07834
 O1507 O 0.61107 0.33579 1.02643
 O1508 O 0.64699 0.29800 1.02349
 C1509 C 0.62204 0.30955 1.03568
 C1510 C 0.60617 0.29286 1.06157
 C1511 C 0.61720 0.26356 1.07176
 H1512 H 0.63683 0.25244 1.05949
 O1513 O 0.39153 0.52557 1.15601
 O1514 O 0.35464 0.52526 1.19298
 C1515 C 0.38137 0.53507 1.18242
 C1516 C 0.40031 0.55864 1.20041
 C1517 C 0.39127 0.56732 1.23087
 H1518 H 0.37115 0.55549 1.24192
 O1519 O 0.62146 0.46165 1.15123
 O1520 O 0.66033 0.46138 1.18724
 C1521 C 0.63339 0.45126 1.17677
 C1522 C 0.61629 0.42648 1.19402
 C1523 C 0.62778 0.41682 1.22349
 H1524 H 0.64855 0.42858 1.23410
 O1525 O 0.53332 0.33704 1.11066
 O1526 O 0.53154 0.29979 1.14672
 C1527 C 0.54273 0.31066 1.12132
 C1528 C 0.56756 0.29326 1.10411
 C1529 C 0.57901 0.26389 1.11453
 H1530 H 0.56835 0.25303 1.13498
 O1531 O 0.47498 0.65339 1.11820
 O1532 O 0.47906 0.68872 1.15645
 C1533 C 0.46609 0.67910 1.13087
 C1534 C 0.43998 0.69757 1.11600
 C1535 C 0.42982 0.72612 1.12939
 H1536 H 0.44185 0.73537 1.15039
 O1537 O 0.35005 0.61688 1.03402
 O1538 O 0.31282 0.65353 1.03404
 C1539 C 0.32394 0.62774 1.04451
 C1540 C 0.30657 0.61081 1.06966
 C1541 C 0.27627 0.62113 1.07892
 H1542 H 0.26522 0.64082 1.06684
 O1543 O 0.65659 0.37753 1.02580
 O1544 O 0.69243 0.33967 1.02294
 C1545 C 0.68282 0.36527 1.03502
 C1546 C 0.70185 0.38048 1.06067
 C1547 C 0.73136 0.36787 1.07048
 H1548 H 0.74082 0.34746 1.05838
 O1549 O 0.47353 0.38391 1.15215
 O1550 O 0.47212 0.34662 1.18824
 C1551 C 0.46204 0.37255 1.17730
 C1552 C 0.43569 0.38853 1.19356
 C1553 C 0.42515 0.37647 1.22228
 H1554 H 0.43769 0.35692 1.23309
 O1555 O 0.53891 0.60621 1.15552
 O1556 O 0.54226 0.64175 1.19367
 C1557 C 0.55184 0.61642 1.18102
 C1558 C 0.57879 0.59936 1.19600
 C1559 C 0.59019 0.60900 1.22590
 H1560 H 0.57787 0.62752 1.23837
 O1561 O 0.34298 0.47092 1.10852
 O1562 O 0.30551 0.47049 1.14493
 C1563 C 0.31589 0.46155 1.11828
 C1564 C 0.29671 0.43953 1.09861
 C1565 C 0.26469 0.43259 1.10601
 H1566 H 0.25348 0.44507 1.12524
 O1567 O 0.66611 0.51960 1.10581
 O1568 O 0.70521 0.51925 1.14157
 C1569 C 0.69332 0.52926 1.11578
 C1570 C 0.71091 0.55306 1.09769
 C1571 C 0.74252 0.56114 1.10619
 H1572 H 0.75456 0.54883 1.12529
 O1573 O 0.38108 0.34817 1.02361
 O1574 O 0.34187 0.31293 1.02610
 C1575 C 0.36918 0.32345 1.03558
 C1576 C 0.38720 0.30651 1.06059
 C1577 C 0.37645 0.27668 1.07005
 H1578 H 0.35523 0.26617 1.05901
 O1579 O 0.62182 0.64602 1.02828
 O1580 O 0.66012 0.68237 1.02950
 C1581 C 0.63382 0.67120 1.03982
 C1582 C 0.61710 0.68772 1.06547
 C1583 C 0.62771 0.71767 1.07525
 H1584 H 0.64792 0.72888 1.06375
 Cu1585 Cu 0.64059 0.49076 1.12570
 Cu1586 Cu 0.68729 0.49055 1.16894
 Cu1587 Cu 0.37024 0.49814 1.12948
 Cu1588 Cu 0.32572 0.49756 1.17361
 Cu1589 Cu 0.50609 0.62512 1.13219
 Cu1590 Cu 0.51096 0.66774 1.17794
 Cu1591 Cu 0.50423 0.36523 1.12718
 Cu1592 Cu 0.50162 0.32046 1.17042
 C1593 C 0.59410 0.57454 1.18025
 H1594 H 0.58550 0.56729 1.15702
 C1595 C 0.61688 0.59462 1.23996
 C1596 C 0.41923 0.41369 1.17959
 H1597 H 0.42734 0.42281 1.15718
 C1598 C 0.39780 0.38804 1.23669
 C1599 C 0.59095 0.67353 1.08080
 H1600 H 0.58287 0.65019 1.07363
 C1601 C 0.61310 0.73304 1.10044
 C1602 C 0.41470 0.31989 1.07546
 H1603 H 0.42290 0.34315 1.06864
 C1604 C 0.39227 0.26041 1.09417
 C1605 C 0.69534 0.56954 1.07346
 H1606 H 0.67066 0.56362 1.06721
 C1607 C 0.75808 0.58640 1.09173
 C1608 C 0.31109 0.42379 1.07339
 H1609 H 0.33607 0.42846 1.06798
 C1610 C 0.24756 0.40911 1.08911
 C1611 C 0.42599 0.57438 1.18613
 H1612 H 0.43268 0.56786 1.16235
 C1613 C 0.40668 0.59236 1.24657
 C1614 C 0.58959 0.41122 1.18027
 H1615 H 0.58113 0.41864 1.15719
 C1616 C 0.61344 0.39168 1.23923
 C1617 C 0.68966 0.40669 1.07661
 H1618 H 0.66669 0.41617 1.06922
 C1619 C 0.74844 0.38065 1.09635
 C1620 C 0.32051 0.58517 1.08532
 H1621 H 0.34396 0.57713 1.07815
 C1622 C 0.26022 0.60708 1.10411
 C1623 C 0.42426 0.68592 1.08883
 H1624 H 0.43201 0.66383 1.07868
 C1625 C 0.40363 0.74250 1.11650
 C1626 C 0.58113 0.30726 1.07752
 H1627 H 0.57281 0.33008 1.06972
 C1628 C 0.60410 0.24893 1.09834
 O1629 O 0.60511 0.46734 0.84299
 O1630 O 0.63994 0.46464 0.80423
 C1631 C 0.61346 0.45623 0.81657
 C1632 C 0.59260 0.43290 0.80012
 C1633 C 0.59760 0.42633 0.76817
 H1634 H 0.61505 0.44024 0.75545
 O1635 O 0.38513 0.53320 0.84098
 O1636 O 0.34668 0.53572 0.80467
 C1637 C 0.37385 0.54467 0.81550
 C1638 C 0.39209 0.56915 0.79858
 C1639 C 0.38292 0.57788 0.76792
 H1640 H 0.36304 0.56576 0.75611
 O1641 O 0.47162 0.65867 0.88424
 O1642 O 0.47210 0.69625 0.84848
 C1643 C 0.46126 0.68484 0.87397
 C1644 C 0.43626 0.70174 0.89205
 C1645 C 0.42501 0.73153 0.88251
 H1646 H 0.43504 0.74273 0.86190
 O1647 O 0.51687 0.33836 0.88550
 O1648 O 0.51650 0.30268 0.84736
 C1649 C 0.52741 0.31310 0.87362
 C1650 C 0.55314 0.29607 0.89012
 C1651 C 0.56242 0.26635 0.87928
 H1652 H 0.54993 0.25536 0.85939
 O1653 O 0.65161 0.38017 0.96442
 O1654 O 0.68745 0.34229 0.96196
 C1655 C 0.67667 0.36853 0.95252
 C1656 C 0.69358 0.38510 0.92715
 C1657 C 0.72362 0.37434 0.91800
 H1658 H 0.73446 0.35481 0.93051
 O1659 O 0.34819 0.61911 0.97246
 O1660 O 0.31109 0.65587 0.97246
 C1661 C 0.32206 0.63022 0.96152
 C1662 C 0.30468 0.61316 0.93559
 C1663 C 0.27380 0.62256 0.92536
 H1664 H 0.26220 0.64233 0.93659
 O1665 O 0.53326 0.61552 0.84058
 O1666 O 0.53443 0.65281 0.80453
 C1667 C 0.54470 0.62679 0.81527
 C1668 C 0.57045 0.60937 0.79873
 C1669 C 0.58250 0.61968 0.76947
 H1670 H 0.57236 0.64030 0.75837
 O1671 O 0.45516 0.38201 0.84293
 O1672 O 0.45447 0.34658 0.80457
 C1673 C 0.44444 0.37213 0.81645
 C1674 C 0.42006 0.39068 0.79951
 C1675 C 0.40899 0.38155 0.76939
 H1676 H 0.41937 0.36120 0.75810
 O1677 O 0.65765 0.52482 0.88298
 O1678 O 0.69292 0.52255 0.84462
 C1679 C 0.68368 0.53412 0.87069
 C1680 C 0.70233 0.55964 0.88646
 C1681 C 0.73162 0.57043 0.87438
 H1682 H 0.74173 0.55892 0.85391
 O1683 O 0.33800 0.47312 0.88275
 O1684 O 0.29958 0.47625 0.84647
 C1685 C 0.31097 0.46399 0.87141
 C1686 C 0.29325 0.43799 0.88667
 C1687 C 0.26309 0.42802 0.87497
 H1688 H 0.25196 0.44039 0.85539
 O1689 O 0.62043 0.64992 0.96737
 O1690 O 0.65865 0.68636 0.96859
 C1691 C 0.63176 0.67612 0.95815
 C1692 C 0.61375 0.69454 0.93459
 C1693 C 0.62381 0.72510 0.92687
 H1694 H 0.64441 0.73570 0.93893
 O1695 O 0.37554 0.34136 0.96294
 O1696 O 0.33622 0.30623 0.96542
 C1697 C 0.36256 0.31553 0.95398
 C1698 C 0.37797 0.29688 0.92925
 C1699 C 0.36577 0.26743 0.91992
 H1700 H 0.34543 0.25742 0.93224
 O1701 O 0.38218 0.47195 0.84077
 O1702 O 0.34376 0.47455 0.80443
 C1703 C 0.36932 0.46216 0.81515
 C1704 C 0.38371 0.43529 0.79850
 C1705 C 0.37268 0.42589 0.76841
 H1706 H 0.35399 0.43919 0.75656
 O1707 O 0.61282 0.52842 0.84040
 O1708 O 0.64791 0.52542 0.80193
 C1709 C 0.62360 0.53831 0.81422
 C1710 C 0.60835 0.56556 0.79825
 C1711 C 0.61953 0.57585 0.76890
 H1712 H 0.63863 0.56310 0.75744
 O1713 O 0.45491 0.33622 0.88282
 O1714 O 0.45403 0.30041 0.84488
 C1715 C 0.44363 0.31082 0.87090
 C1716 C 0.41762 0.29435 0.88775
 C1717 C 0.40511 0.26484 0.87810
 H1718 H 0.41522 0.25352 0.85765
 O1719 O 0.53374 0.65617 0.88610
 O1720 O 0.53482 0.69405 0.85061
 C1721 C 0.54522 0.68197 0.87617
 C1722 C 0.57147 0.69745 0.89430
 C1723 C 0.58186 0.72793 0.88672
 H1724 H 0.56932 0.74084 0.86841
 O1725 O 0.33624 0.38813 0.96062
 O1726 O 0.29671 0.35319 0.96245
 C1727 C 0.30915 0.37790 0.95064
 C1728 C 0.29249 0.39511 0.92487
 C1729 C 0.26232 0.38523 0.91279
 H1730 H 0.25042 0.36518 0.92332
 O1731 O 0.66330 0.60649 0.96383
 O1732 O 0.70172 0.64271 0.96452
 C1733 C 0.68933 0.61764 0.95301
 C1734 C 0.70476 0.60124 0.92644
 C1735 C 0.73396 0.61201 0.91401
 H1736 H 0.74616 0.63199 0.92491
 O1737 O 0.51689 0.38275 0.84421
 O1738 O 0.51641 0.34752 0.80563
 C1739 C 0.52703 0.37309 0.81783
 C1740 C 0.55116 0.39185 0.80091
 C1741 C 0.55715 0.38509 0.76914
 H1742 H 0.54414 0.36612 0.75720
 O1743 O 0.47078 0.61539 0.84097
 O1744 O 0.47136 0.65247 0.80466
 C1745 C 0.46006 0.62677 0.81535
 C1746 C 0.43380 0.60992 0.79845
 C1747 C 0.42390 0.61891 0.76797
 H1748 H 0.43623 0.63799 0.75614
 O1749 O 0.34506 0.53418 0.88759
 O1750 O 0.30655 0.53688 0.85138
 C1751 C 0.31919 0.54617 0.87740
 C1752 C 0.30348 0.57141 0.89545
 C1753 C 0.27246 0.58034 0.88663
 H1754 H 0.25990 0.56791 0.86763
 O1755 O 0.65462 0.46352 0.88094
 O1756 O 0.68990 0.46077 0.84265
 C1757 C 0.67933 0.45100 0.86885
 C1758 C 0.69529 0.42456 0.88552
 C1759 C 0.72541 0.41279 0.87599
 H1760 H 0.73764 0.42357 0.85636
 O1761 O 0.60664 0.33748 0.96548
 O1762 O 0.64254 0.29965 0.96280
 C1763 C 0.61608 0.31157 0.95390
 C1764 C 0.59653 0.29541 0.92932
 C1765 C 0.60546 0.26563 0.91827
 H1766 H 0.62561 0.25375 0.92924
 O1767 O 0.39416 0.66077 0.97336
 O1768 O 0.35728 0.69772 0.97401
 C1769 C 0.38296 0.68641 0.96282
 C1770 C 0.39907 0.70266 0.93640
 C1771 C 0.38880 0.73251 0.92697
 H1772 H 0.37025 0.74432 0.94018
 Cu1773 Cu 0.62918 0.49620 0.86571
 Cu1774 Cu 0.67116 0.49286 0.81950
 Cu1775 Cu 0.36649 0.50286 0.86665
 Cu1776 Cu 0.32027 0.50642 0.82311
 Cu1777 Cu 0.63905 0.62274 0.99593
 Cu1778 Cu 0.68515 0.66647 0.99730
 Cu1779 Cu 0.62782 0.36163 0.99586
 Cu1780 Cu 0.67109 0.31614 0.99232
 Cu1781 Cu 0.37499 0.63617 1.00380
 Cu1782 Cu 0.33053 0.68024 1.00421
 Cu1783 Cu 0.36142 0.37065 0.99183
 Cu1784 Cu 0.31407 0.32852 0.99488
 Cu1785 Cu 0.50219 0.63268 0.86646
 Cu1786 Cu 0.50326 0.67768 0.82340
 Cu1787 Cu 0.48580 0.36328 0.86790
 Cu1788 Cu 0.48550 0.32061 0.82169
 C1789 C 0.56890 0.41591 0.81636
 H1790 H 0.56498 0.42070 0.84117
 C1791 C 0.58069 0.40173 0.75286
 C1792 C 0.41782 0.58495 0.81349
 H1793 H 0.42481 0.57835 0.83728
 C1794 C 0.39842 0.60282 0.75263
 C1795 C 0.42307 0.68761 0.91907
 H1796 H 0.43094 0.66443 0.92622
 C1797 C 0.40121 0.74699 0.90003
 C1798 C 0.57007 0.31038 0.91536
 H1799 H 0.56341 0.33369 0.92335
 C1800 C 0.58893 0.25140 0.89275
 C1801 C 0.67969 0.41045 0.91120
 H1802 H 0.65629 0.41867 0.91834
 C1803 C 0.73968 0.38753 0.89251
 C1804 C 0.31934 0.58750 0.92033
 H1805 H 0.34339 0.58051 0.92727
 C1806 C 0.25770 0.60592 0.90092
 C1807 C 0.58363 0.58230 0.81281
 H1808 H 0.57499 0.57451 0.83553
 C1809 C 0.60715 0.60291 0.75441
 C1810 C 0.40748 0.41763 0.81375
 H1811 H 0.41575 0.42453 0.83718
 C1812 C 0.38495 0.39886 0.75385
 C1813 C 0.68936 0.57498 0.91266
 H1814 H 0.66656 0.56693 0.92187
 C1815 C 0.74741 0.59679 0.88776
 C1816 C 0.30757 0.42158 0.91168
 H1817 H 0.33100 0.42910 0.92048
 C1818 C 0.24759 0.40148 0.88745
 C1819 C 0.58736 0.68101 0.91846
 H1820 H 0.57985 0.65719 0.92403
 C1821 C 0.60836 0.74165 0.90268
 C1822 C 0.40411 0.30973 0.91354
 H1823 H 0.41325 0.33268 0.92078
 C1824 C 0.37918 0.25094 0.89456
 C1825 C 1.11933 1.14173 1.29889
 C1826 C 1.12826 1.11859 1.27933
 H1827 H 1.09741 1.15403 1.29298
 H1828 H 1.15001 1.10587 1.28462
 C1829 C 1.14619 0.62296 0.78868
 C1830 C 1.11629 0.61925 0.77716
 H1831 H 1.16626 0.61320 0.77599
 H1832 H 1.09645 0.62868 0.79044
 C1833 C 0.62640 1.14005 0.78800
 C1834 C 0.63777 1.11896 0.76735
 H1835 H 0.60338 1.15057 0.78276
 H1836 H 0.66074 1.10816 0.77194
 C1837 C 0.62631 0.63391 1.28374
 C1838 C 0.62932 0.60462 1.27149
 H1839 H 0.61271 0.65150 1.27106
 H1840 H 0.64238 0.58688 1.28446
 C1841 C 0.86097 0.87912 1.28691
 C1842 C 0.88962 0.87748 1.27285
 H1843 H 0.84317 0.89504 1.27736
 H1844 H 0.90848 0.86355 1.28339
 C1845 C 0.87707 0.35853 0.78657
 C1846 C 0.87751 0.38857 0.77661
 H1847 H 0.88989 0.34065 0.77363
 H1848 H 0.86523 0.40637 0.79015
 C1849 C 0.36571 0.88218 0.79182
 C1850 C 0.39524 0.88317 0.77942
 H1851 H 0.34631 0.89482 0.78045
 H1852 H 0.41449 0.87096 0.79152
 C1853 C 0.35753 0.37141 1.27602
 C1854 C 0.38779 0.37195 1.26602
 H1855 H 0.33994 0.38494 1.26292
 H1856 H 0.40620 0.35943 1.27901
 C1857 C 0.88971 1.14048 0.70583
 C1858 C 0.88881 1.11149 0.71878
 H1859 H 0.90448 1.15856 0.71706
 H1860 H 0.87653 1.09254 0.70635
 C1861 C 0.86288 0.61717 0.20468
 C1862 C 0.88946 0.62147 0.22237
 H1863 H 0.84549 0.59964 0.21201
 H1864 H 0.90800 0.63707 0.21379
 C1865 C 0.38201 1.13498 0.21032
 C1866 C 0.36970 1.11283 0.22924
 H1867 H 0.40575 1.14416 0.21598
 H1868 H 0.34640 1.10248 0.22411
 C1869 C 0.38490 0.64129 0.71091
 C1870 C 0.38656 0.61148 0.72095
 H1871 H 0.39577 0.66016 0.72481
 H1872 H 0.37605 0.59268 0.70671
 C1873 C 1.13211 0.85563 0.72535
 C1874 C 1.13144 0.88548 0.73558
 H1875 H 1.12129 0.83754 0.73983
 H1876 H 1.14254 0.90374 0.72152
 C1877 C 1.12983 0.38666 0.21108
 C1878 C 1.11215 0.37217 0.23286
 H1879 H 1.13625 0.41109 0.21548
 H1880 H 1.10453 0.34796 0.22938
 C1881 C 0.62772 0.85544 0.22187
 C1882 C 0.62267 0.88554 0.22945
 H1883 H 0.61908 0.83744 0.23781
 H1884 H 0.63148 0.90375 0.21384
 C1885 C 0.61900 0.39354 0.71047
 C1886 C 0.58904 0.39086 0.72098
 H1887 H 0.63712 0.40622 0.72414
 H1888 H 0.57118 0.37765 0.70739
 C1889 C 1.28964 1.14359 1.13250
 C1890 C 1.27779 1.11415 1.13355
 H1891 H 1.27578 1.16177 1.12096
 H1892 H 1.29153 1.09592 1.14514
 C1893 C 1.29369 0.62166 0.63590
 C1894 C 1.28476 0.61764 0.60575
 H1895 H 1.27962 0.61132 0.65460
 H1896 H 1.29922 0.62801 0.58733
 C1897 C 0.80140 1.11920 0.63059
 C1898 C 0.78669 1.12147 0.60232
 H1899 H 0.79244 1.10226 0.64742
 H1900 H 0.79683 1.13634 0.58427
 C1901 C 0.79744 0.62689 1.10773
 C1902 C 0.78934 0.59651 1.10496
 H1903 H 0.78303 0.64483 1.09644
 H1904 H 0.80402 0.57885 1.11643
 C1905 C 1.29626 0.86192 0.88523
 C1906 C 1.28237 0.89030 0.88545
 H1907 H 1.28697 0.84389 0.90073
 H1908 H 1.29311 0.90914 0.87202
 C1909 C 1.27968 0.37048 0.35641
 C1910 C 1.27013 0.37049 0.38637
 H1911 H 1.26603 0.38458 0.33982
 H1912 H 1.28285 0.35684 0.40396
 C1913 C 0.78599 0.86057 0.37500
 C1914 C 0.77428 0.88999 0.37565
 H1915 H 0.77364 0.84189 0.38738
 H1916 H 0.78719 0.90859 0.36372
 C1917 C 0.78500 0.37391 0.85670
 C1918 C 0.77089 0.37299 0.88487
 H1919 H 0.77532 0.38946 0.83882
 H1920 H 0.78187 0.35955 0.90370
 C1921 C 0.70966 0.85593 1.13065
 C1922 C 0.71881 0.88601 1.12780
 H1923 H 0.72365 0.83821 1.11864
 H1924 H 0.70526 0.90392 1.14000
 C1925 C 0.69996 0.39107 0.63088
 C1926 C 0.72169 0.37782 0.61226
 H1927 H 0.70450 0.41510 0.63855
 H1928 H 0.71806 0.35394 0.60386
 C1929 C 0.20708 0.85965 0.63084
 C1930 C 0.22685 0.88333 0.63962
 H1931 H 0.21171 0.84823 0.60850
 H1932 H 0.22268 0.89535 0.66173
 C1933 C 0.20831 0.39655 1.12961
 C1934 C 0.21611 0.39710 1.09922
 H1935 H 0.22338 0.40824 1.14722
 H1936 H 0.20091 0.38496 1.08197
 C1937 C 0.71778 1.13935 0.86831
 C1938 C 0.72621 1.10911 0.86858
 H1939 H 0.73310 1.15656 0.88028
 H1940 H 0.71130 1.09172 0.85641
 C1941 C 0.71343 0.61987 0.36327
 C1942 C 0.72048 0.61571 0.39375
 H1943 H 0.72878 0.61019 0.34524
 H1944 H 0.70526 0.62562 0.41177
 C1945 C 0.20954 1.13880 0.38019
 C1946 C 0.22293 1.11074 0.37462
 H1947 H 0.22100 1.15374 0.39785
 H1948 H 0.21229 1.09512 0.35705
 C1949 C 0.21727 0.64413 0.88291
 C1950 C 0.22583 0.61447 0.88834
 H1951 H 0.23192 0.66352 0.89192
 H1952 H 0.21066 0.59547 0.87928
 C1953 C 1.14147 1.29898 1.12975
 C1954 C 1.11254 1.28499 1.13061
 H1955 H 1.16069 1.28760 1.11721
 H1956 H 1.09345 1.29688 1.14293
 C1957 C 1.12339 0.77779 0.63957
 C1958 C 1.12199 0.77007 0.60890
 H1959 H 1.11288 0.76216 0.65684
 H1960 H 1.13254 0.78536 0.59140
 C1961 C 0.62038 1.29999 0.63977
 C1962 C 0.62291 1.28610 0.61147
 H1963 H 0.60751 1.28785 0.65820
 H1964 H 0.63578 1.29825 0.59303
 C1965 C 0.62665 0.77235 1.14127
 C1966 C 0.62618 0.76368 1.11087
 H1967 H 0.61593 0.75723 1.15886
 H1968 H 0.63696 0.77861 1.09318
 C1969 C 0.85681 1.28248 0.87608
 C1970 C 0.88651 1.27066 0.87826
 H1971 H 0.83716 1.27025 0.88741
 H1972 H 0.90600 1.28346 0.86729
 C1973 C 0.87866 0.78692 0.35679
 C1974 C 0.88052 0.77499 0.38596
 H1975 H 0.89051 0.77493 0.33761
 H1976 H 0.86899 0.78750 0.40499
 C1977 C 0.37102 1.29179 0.36199
 C1978 C 0.35864 1.27082 0.38252
 H1979 H 0.39538 1.28857 0.35405
 H1980 H 0.33426 1.27404 0.39038
 C1981 C 0.38457 0.78859 0.86184
 C1982 C 0.38806 0.77814 0.89150
 H1983 H 0.39456 0.77542 0.84239
 H1984 H 0.37846 0.79201 0.91068
 C1985 C 1.12215 0.71205 0.86332
 C1986 C 1.11975 0.72156 0.89342
 H1987 H 1.11066 0.72527 0.84456
 H1988 H 1.13091 0.70784 0.91200
 C1989 C 1.12915 0.21990 0.38437
 C1990 C 1.09797 0.22617 0.38726
 H1991 H 1.14712 0.23599 0.39413
 H1992 H 1.07997 0.21025 0.37731
 C1993 C 0.64030 0.71052 0.37585
 C1994 C 0.61031 0.72099 0.37852
 H1995 H 0.65983 0.72332 0.38743
 H1996 H 0.59099 0.70783 0.36699
 C1997 C 0.63158 0.21618 0.87594
 C1998 C 0.60024 0.22213 0.87813
 H1999 H 0.64909 0.23213 0.88668
 H2000 H 0.58261 0.20654 0.86708
 C2001 C 0.88288 0.70672 1.13024
 C2002 C 0.86871 0.72904 1.11258
 H2003 H 0.90739 0.70979 1.13861
 H2004 H 0.84379 0.72580 1.10549
 C2005 C 0.86506 0.21686 0.61942
 C2006 C 0.89410 0.22952 0.61528
 H2007 H 0.84409 0.22887 0.61018
 H2008 H 0.91489 0.21717 0.62447
 C2009 C 0.36460 0.71599 0.62143
 C2010 C 0.39427 0.72833 0.62032
 H2011 H 0.34471 0.72805 0.61021
 H2012 H 0.41398 0.71576 0.63127
 C2013 C 0.38185 0.21945 1.13382
 C2014 C 0.37868 0.22991 1.10425
 H2015 H 0.39609 0.23269 1.15098
 H2016 H 0.36422 0.21669 1.08723
 C2017 C 1.13268 1.14385 0.72641
 C2018 C 1.12982 1.11352 0.73412
 H2019 H 1.12378 1.16148 0.74262
 H2020 H 1.13895 1.09559 0.71838
 C2021 C 1.12231 0.63763 0.21022
 C2022 C 1.12451 0.60974 0.22494
 H2023 H 1.10538 0.65468 0.21895
 H2024 H 1.13935 0.59163 0.21491
 C2025 C 0.63536 1.12200 0.21623
 C2026 C 0.60609 1.12407 0.22945
 H2027 H 0.65392 1.10851 0.22794
 H2028 H 0.58744 1.13699 0.21730
 C2029 C 0.62244 0.64179 0.71257
 C2030 C 0.62101 0.61220 0.72360
 H2031 H 0.61060 0.66054 0.72518
 H2032 H 0.63235 0.59360 0.71033
 C2033 C 0.86975 0.88093 0.70718
 C2034 C 0.89970 0.88253 0.71908
 H2035 H 0.85026 0.89216 0.71950
 H2036 H 0.91909 0.87156 0.70636
 C2037 C 0.88326 0.36617 0.20975
 C2038 C 0.88035 0.39590 0.22003
 H2039 H 0.89889 0.35037 0.22252
 H2040 H 0.86586 0.41262 0.20715
 C2041 C 0.36156 0.87644 0.20731
 C2042 C 0.38260 0.86671 0.22920
 H2043 H 0.35069 0.89921 0.21104
 H2044 H 0.39376 0.84404 0.22621
 C2045 C 0.37103 0.35941 0.71225
 C2046 C 0.37168 0.38931 0.72272
 H2047 H 0.38238 0.34093 0.72576
 H2048 H 0.36055 0.40758 0.70870
 C2049 C 1.13094 0.88317 1.29542
 C2050 C 1.10341 0.87931 1.27873
 H2051 H 1.14858 0.90001 1.28715
 H2052 H 1.08464 0.86423 1.28768
 C2053 C 1.11847 0.36439 0.78892
 C2054 C 1.12576 0.39187 0.77507
 H2055 H 1.09977 0.34990 0.77828
 H2056 H 1.14414 0.40705 0.78532
 C2057 C 0.62861 0.86362 0.78251
 C2058 C 0.63029 0.89365 0.77331
 H2059 H 0.61659 0.84647 0.76732
 H2060 H 0.64282 0.91094 0.78794
 C2061 C 0.62358 0.35499 1.28351
 C2062 C 0.62801 0.38306 1.27022
 H2063 H 0.60830 0.33814 1.27108
 H2064 H 0.64278 0.40071 1.28210
 C2065 C 0.86093 1.12055 1.27808
 C2066 C 0.89191 1.11402 1.27468
 H2067 H 0.84349 1.11212 1.26064
 H2068 H 0.90954 1.12267 1.29179
 C2069 C 0.85984 0.62641 0.78154
 C2070 C 0.89002 0.62345 0.77180
 H2071 H 0.84039 0.61534 0.76816
 H2072 H 0.90931 0.63445 0.78548
 C2073 C 0.37085 1.11181 0.78907
 C2074 C 0.40135 1.11319 0.77937
 H2075 H 0.35276 1.09984 0.77469
 H2076 H 0.41947 1.12536 0.79353
 C2077 C 0.39277 0.63237 1.28612
 C2078 C 0.39346 0.60225 1.27711
 H2079 H 0.40507 0.65019 1.27247
 H2080 H 0.38104 0.58463 1.29095
 C2081 C 1.11845 1.28102 0.86700
 C2082 C 1.11855 1.27290 0.89749
 H2083 H 1.10701 1.26588 0.84944
 H2084 H 1.13020 1.28808 0.91492
 C2085 C 1.11362 0.79131 0.36575
 C2086 C 1.11308 0.77940 0.39494
 H2087 H 1.10270 0.77835 0.34622
 H2088 H 1.12372 0.79262 0.41444
 C2089 C 0.60813 1.28638 0.36981
 C2090 C 0.60588 1.27896 0.40024
 H2091 H 0.59480 1.27205 0.35276
 H2092 H 0.61807 1.29296 0.41825
 C2093 C 0.62150 0.78201 0.86359
 C2094 C 0.62153 0.77255 0.89365
 H2095 H 0.60989 0.76759 0.84551
 H2096 H 0.63333 0.78661 0.91187
 C2097 C 0.87234 1.27764 1.13843
 C2098 C 0.87547 1.26860 1.10849
 H2099 H 0.88164 1.26276 1.15711
 H2100 H 0.86600 1.28332 1.08976
 C2101 C 0.88860 0.78954 0.63515
 C2102 C 0.89207 0.77932 0.60551
 H2103 H 0.89842 0.77610 0.65465
 H2104 H 0.88242 0.79318 0.58622
 C2105 C 0.35795 1.28706 0.61966
 C2106 C 0.37948 1.26588 0.63005
 H2107 H 0.34670 1.28325 0.59673
 H2108 H 0.38991 1.26844 0.65337
 C2109 C 0.36332 0.78245 1.13149
 C2110 C 0.39376 0.77253 1.13201
 H2111 H 0.34528 0.76787 1.11968
 H2112 H 0.41201 0.78654 1.14420
 C2113 C 0.87682 0.71692 0.85778
 C2114 C 0.87597 0.72925 0.88706
 H2115 H 0.89002 0.72919 0.83964
 H2116 H 0.86319 0.71675 0.90528
 C2117 C 0.87144 0.20816 0.35738
 C2118 C 0.85863 0.23073 0.37545
 H2119 H 0.89641 0.21042 0.35075
 H2120 H 0.83373 0.22865 0.38220
 C2121 C 0.38298 0.71046 0.36873
 C2122 C 0.36896 0.73072 0.38860
 H2123 H 0.40719 0.71607 0.36158
 H2124 H 0.34496 0.72576 0.39686
 C2125 C 0.37624 0.19944 0.86548
 C2126 C 0.36382 0.22035 0.88570
 H2127 H 0.39904 0.20502 0.85481
 H2128 H 0.34093 0.21566 0.89646
 C2129 C 1.14235 0.70980 1.12175
 C2130 C 1.11347 0.72364 1.12250
 H2131 H 1.16040 0.71929 1.10618
 H2132 H 1.09447 0.71288 1.13598
 C2133 C 1.11761 0.22028 0.64370
 C2134 C 1.11771 0.23168 0.61431
 H2135 H 1.10292 0.23193 0.66103
 H2136 H 1.13103 0.21969 0.59618
 C2137 C 0.64306 0.71610 0.62217
 C2138 C 0.61338 0.72764 0.61951
 H2139 H 0.66285 0.72841 0.61113
 H2140 H 0.59367 0.71503 0.63035
 C2141 C 0.61706 0.20641 1.13730
 C2142 C 0.61861 0.21874 1.10817
 H2143 H 0.60115 0.21695 1.15429
 H2144 H 0.63236 0.20702 1.09020
 C2145 C 1.28727 1.11846 0.86993
 C2146 C 1.27801 1.12125 0.90003
 H2147 H 1.27209 1.10579 0.85313
 H2148 H 1.29294 1.13425 0.91681
 C2149 C 1.29635 0.62510 0.35436
 C2150 C 1.28411 0.62334 0.38334
 H2151 H 1.28382 0.61314 0.33508
 H2152 H 1.29700 0.63514 0.40250
 C2153 C 0.77587 1.13143 0.35501
 C2154 C 0.77021 1.12740 0.38560
 H2155 H 0.75859 1.12249 0.33769
 H2156 H 0.78725 1.13637 0.40312
 C2157 C 0.78733 0.63801 0.87322
 C2158 C 0.77756 0.60778 0.87324
 H2159 H 0.77406 0.65557 0.88613
 H2160 H 0.79119 0.59029 0.86059
 C2161 C 1.28538 0.86716 1.11841
 C2162 C 1.27693 0.89745 1.11759
 H2163 H 1.27004 0.84943 1.10729
 H2164 H 1.29185 0.91540 1.12885
 C2165 C 1.28294 0.37616 0.63490
 C2166 C 1.27524 0.38219 0.60495
 H2167 H 1.26809 0.38532 0.65363
 H2168 H 1.28988 0.37290 0.58614
 C2169 C 0.79655 0.86202 0.61387
 C2170 C 0.78592 0.89159 0.61147
 H2171 H 0.78312 0.84285 0.60283
 H2172 H 0.79992 0.91053 0.62222
 C2173 C 0.79186 0.36753 1.13489
 C2174 C 0.77911 0.36521 1.10582
 H2175 H 0.77992 0.38171 1.15240
 H2176 H 0.79098 0.35074 1.08843
 C2177 C 0.70991 1.13623 1.12310
 C2178 C 0.72133 1.10703 1.12080
 H2179 H 0.72234 1.15520 1.11118
 H2180 H 0.70864 1.08817 1.13264
 C2181 C 0.71429 0.62338 0.63924
 C2182 C 0.72509 0.62210 0.60961
 H2183 H 0.72706 0.61123 0.65794
 H2184 H 0.71192 0.63395 0.59098
 C2185 C 0.20653 1.14335 0.63005
 C2186 C 0.22184 1.11593 0.63468
 H2187 H 0.21537 1.15913 0.61210
 H2188 H 0.21275 1.10011 0.65247
 C2189 C 0.21708 0.62170 1.14160
 C2190 C 0.22846 0.62008 1.11222
 H2191 H 0.22995 0.61036 1.16076
 H2192 H 0.21507 0.63106 1.09319
 C2193 C 0.70903 0.86232 0.87422
 C2194 C 0.72096 0.89161 0.87247
 H2195 H 0.72158 0.84511 0.88844
 H2196 H 0.70873 0.90890 0.85808
 C2197 C 0.69761 0.36462 0.37985
 C2198 C 0.72221 0.38047 0.36690
 H2199 H 0.69854 0.36007 0.40500
 H2200 H 0.72150 0.38511 0.34181
 C2201 C 0.20508 0.86485 0.38628
 C2202 C 0.21536 0.89435 0.39083
 H2203 H 0.21892 0.84551 0.39586
 H2204 H 0.20148 0.91363 0.38122
 C2205 C 0.20569 0.36166 0.87315
 C2206 C 0.21633 0.39152 0.87300
 H2207 H 0.21978 0.34394 0.88514
 H2208 H 0.20241 0.40926 0.86084
   
