data_POSCAR
  _audit_creation_date              2014-09-24
  _audit_creation_method            'ToBaCCo'
  _symmetry_space_group_name_H-M    'P1'
  _symmetry_Int_Tables_number       1
  _symmetry_cell_setting            triclinic
  loop_
  _symmetry_equiv_pos_as_xyz
 x,y,z
_cell_length_a 65.8004
_cell_length_b 65.3993
_cell_length_c 65.9305
_cell_angle_alpha 90.482200
_cell_angle_beta 89.967800
_cell_angle_gamma 90.006300
loop_
  _atom_site_label
  _atom_site_type_symbol
  _atom_site_fract_x
  _atom_site_fract_y
  _atom_site_fract_z
O1 O 0.33419 0.30827 -0.02291
 O2 O 0.30855 0.33139 0.02078
 O3 O 0.33596 0.30363 0.01592
 O4 O 0.30643 0.33574 -0.01802
 O5 O 0.28241 0.31225 -0.02018
 O6 O 0.31244 0.27955 0.01462
 O7 O 0.28426 0.30811 0.01910
 O8 O 0.31088 0.28401 -0.02468
 Cu9 Cu 0.32363 0.32209 -0.00090
 Cu10 Cu 0.29507 0.29353 -0.00297
 C11 C 0.32719 0.29215 -0.03112
 C12 C 0.29197 0.32401 0.02725
 C13 C 0.32947 0.28615 0.02101
 C14 C 0.28937 0.32976 -0.02478
 O15 O 0.69332 0.66488 0.01572
 O16 O 0.66524 0.69470 -0.02160
 O17 O 0.69223 0.66647 -0.02341
 O18 O 0.66578 0.69307 0.01760
 O19 O 0.68928 0.71718 0.01826
 O20 O 0.71688 0.68938 -0.02275
 O21 O 0.68917 0.71840 -0.02133
 O22 O 0.71756 0.68823 0.01680
 Cu23 Cu 0.67677 0.67747 -0.00290
 Cu24 Cu 0.70569 0.70571 -0.00211
 C25 C 0.71027 0.67119 0.02246
 C26 C 0.67232 0.71152 -0.02791
 C27 C 0.70904 0.67312 -0.03006
 C28 C 0.67266 0.70974 0.02473
 O29 O 0.66541 0.30481 1.02123
 O30 O 0.69314 0.33472 0.98368
 O31 O 0.66559 0.30651 0.98202
 O32 O 0.69235 0.33309 1.02282
 O33 O 0.71701 0.31020 1.02190
 O34 O 0.68912 0.28243 0.98109
 O35 O 0.71739 0.31140 0.98236
 O36 O 0.68935 0.28113 1.02068
 Cu37 Cu 0.67674 0.32209 1.00244
 Cu38 Cu 0.70568 0.29387 1.00134
 C39 C 0.67256 0.28798 1.02744
 C40 C 0.71004 0.32843 0.97678
 C41 C 0.67243 0.28986 0.97479
 C42 C 0.70922 0.32644 1.02931
 O43 O 0.30817 0.66794 0.97926
 O44 O 0.33423 0.69121 1.02260
 O45 O 0.30651 0.66363 1.01808
 O46 O 0.33553 0.69581 0.98372
 O47 O 0.31198 0.71983 0.98535
 O48 O 0.28242 0.68703 1.02048
 O49 O 0.31084 0.71536 1.02467
 O50 O 0.28385 0.69117 0.98119
 Cu51 Cu 0.32346 0.67733 1.00073
 Cu52 Cu 0.29484 0.70579 1.00313
 C53 C 0.29152 0.67529 0.97296
 C54 C 0.32725 0.70730 1.03090
 C55 C 0.28949 0.66955 1.02502
 C56 C 0.32893 0.71326 0.97871
 O57 O -0.01875 0.33183 0.30300
 O58 O 0.01938 0.30342 0.33134
 O59 O 0.02044 0.33052 0.30321
 O60 O -0.01975 0.30461 0.33104
 O61 O -0.02040 0.27965 0.30829
 O62 O 0.01990 0.30657 0.27939
 O63 O 0.01912 0.27865 0.30836
 O64 O -0.01971 0.30770 0.27938
 Cu65 Cu 0.00038 0.32001 0.31942
 Cu66 Cu -0.00035 0.29064 0.29144
 C67 C -0.02561 0.32491 0.28634
 C68 C 0.02559 0.28617 0.32500
 C69 C 0.02686 0.32329 0.28650
 C70 C -0.02668 0.28758 0.32484
 O71 O 0.02062 0.69594 0.66867
 O72 O -0.01798 0.66759 0.69649
 O73 O -0.01849 0.69484 0.66845
 O74 O 0.02122 0.66884 0.69679
 O75 O 0.02043 0.69281 0.72059
 O76 O -0.01949 0.71975 0.69124
 O77 O -0.01918 0.69169 0.72014
 O78 O 0.02002 0.72075 0.69162
 Cu79 Cu 0.00142 0.67939 0.68033
 Cu80 Cu 0.00035 0.70874 0.70831
 C81 C 0.02673 0.71321 0.67507
 C82 C -0.02502 0.67450 0.71309
 C83 C -0.02551 0.71186 0.67459
 C84 C 0.02745 0.67607 0.71357
 O85 O 1.01929 0.66151 0.30863
 O86 O 0.98070 0.68994 0.33713
 O87 O 0.97988 0.66251 0.30889
 O88 O 1.02007 0.68905 0.33679
 O89 O 1.02055 0.71361 0.31402
 O90 O 0.98019 0.68632 0.28533
 O91 O 0.98084 0.71437 0.31420
 O92 O 1.01997 0.68543 0.28518
 Cu93 Cu 0.99995 0.67336 0.32514
 Cu94 Cu 1.00044 0.70239 0.29730
 C95 C 1.02623 0.66846 0.29212
 C96 C 0.97417 0.70693 0.33068
 C97 C 0.97318 0.66973 0.29241
 C98 C 1.02712 0.70587 0.33039
 O99 O 0.98109 0.30952 0.66235
 O100 O 1.01947 0.33785 0.69119
 O101 O 1.02045 0.31034 0.66301
 O102 O 0.98007 0.33692 0.69061
 O103 O 0.98012 0.31310 0.71417
 O104 O 1.02065 0.28573 0.68573
 O105 O 1.01990 0.31389 0.71461
 O106 O 0.98094 0.28508 0.68528
 Cu107 Cu 1.00026 0.32605 0.67452
 Cu108 Cu 1.00043 0.29699 0.70232
 C109 C 0.97445 0.29255 0.66875
 C110 C 1.02625 0.33085 0.70775
 C111 C 1.02739 0.29349 0.66943
 C112 C 0.97320 0.32971 0.70704
 O113 O 0.33349 0.02177 0.30515
 O114 O 0.30583 -0.01624 0.33468
 O115 O 0.33362 -0.01773 0.30690
 O116 O 0.30621 0.02323 0.33295
 O117 O 0.28189 0.02217 0.30986
 O118 O 0.31024 -0.01902 0.28289
 O119 O 0.28172 -0.01773 0.31141
 O120 O 0.30985 0.02084 0.28137
 Cu121 Cu 0.32214 0.00279 0.32224
 Cu122 Cu 0.29347 0.00135 0.29398
 C123 C 0.32650 0.02784 0.28832
 C124 C 0.28901 -0.02329 0.32835
 C125 C 0.32695 -0.02516 0.29037
 C126 C 0.28946 0.02970 0.32603
 O127 O 0.66660 0.02169 0.69083
 O128 O 0.69253 -0.02197 0.66753
 O129 O 0.66507 -0.01750 0.69512
 O130 O 0.69442 0.01727 0.66358
 O131 O 0.71840 0.01936 0.68695
 O132 O 0.68854 -0.01617 0.71903
 O133 O 0.71676 -0.02035 0.69067
 O134 O 0.68989 0.02344 0.71491
 Cu135 Cu 0.67733 -0.00030 0.67694
 Cu136 Cu 0.70584 0.00173 0.70531
 C137 C 0.67354 0.02989 0.70689
 C138 C 0.70910 -0.02850 0.67484
 C139 C 0.67155 -0.02267 0.71243
 C140 C 0.71137 0.02420 0.66968
 O141 O 0.30626 1.01583 0.66419
 O142 O 0.33405 0.97801 0.69382
 O143 O 0.30683 0.97636 0.66599
 O144 O 0.33400 1.01750 0.69200
 O145 O 0.31058 1.01870 0.71599
 O146 O 0.28245 0.97737 0.68904
 O147 O 0.31034 0.97885 0.71756
 O148 O 0.28213 1.01727 0.68746
 Cu149 Cu 0.32264 0.99690 0.67668
 Cu150 Cu 0.29392 0.99825 0.70491
 C151 C 0.28941 1.02282 0.67050
 C152 C 0.32705 0.97194 0.71066
 C153 C 0.29008 0.96985 0.67289
 C154 C 0.32728 1.02491 0.70851
 O155 O 0.69021 1.02102 0.33488
 O156 O 0.66505 0.97742 0.31070
 O157 O 0.69247 0.98176 0.33834
 O158 O 0.66318 1.01666 0.30688
 O159 O 0.68707 1.01601 0.28333
 O160 O 0.71670 0.98013 0.31517
 O161 O 0.68859 0.97631 0.28682
 O162 O 0.71488 1.01984 0.31218
 Cu163 Cu 0.67536 0.99933 0.32499
 Cu164 Cu 0.70427 0.99798 0.29698
 C165 C 0.70693 1.02772 0.32802
 C166 C 0.67224 0.96955 0.29459
 C167 C 0.70953 0.97504 0.33232
 C168 C 0.66991 1.02221 0.28977
 C169 C 0.87926 0.80177 0.49965
 C170 C 0.86981 0.80872 0.48203
 C171 C 0.85596 0.82496 0.48332
 C172 C 0.85182 0.83473 0.50215
 C173 C 0.86257 0.82806 0.51949
 C174 C 0.87561 0.81111 0.51848
 C175 C 0.83524 0.85051 0.50403
 C176 C 0.82533 0.85396 0.52285
 C177 C 0.80872 0.86725 0.52437
 C178 C 0.80145 0.87680 0.50697
 C179 C 0.81084 0.87381 0.48810
 C180 C 0.82812 0.86123 0.48685
 H181 H 0.88968 0.78897 0.49860
 H182 H 0.84786 0.82905 0.46970
 H183 H 0.86050 0.83553 0.53401
 H184 H 0.82965 0.84575 0.53631
 H185 H 0.78843 0.88687 0.50824
 H186 H 0.83557 0.85957 0.47234
 C187 C 0.12012 0.19719 0.50212
 C188 C 0.12348 0.18718 0.48358
 C189 C 0.13627 0.17000 0.48306
 C190 C 0.14708 0.16379 0.50056
 C191 C 0.14320 0.17424 0.51906
 C192 C 0.12960 0.19069 0.51990
 C193 C 0.16363 0.14796 0.49915
 C194 C 0.17086 0.13775 0.51663
 C195 C 0.18830 0.12535 0.51570
 C196 C 0.19772 0.12200 0.49690
 C197 C 0.19031 0.13101 0.47927
 C198 C 0.17357 0.14414 0.48046
 H199 H 0.10989 0.21017 0.50280
 H200 H 0.13818 0.16204 0.46876
 H201 H 0.15139 0.17050 0.53274
 H202 H 0.16341 0.13975 0.53111
 H203 H 0.21086 0.11206 0.49588
 H204 H 0.16917 0.15200 0.46681
 C205 C 0.12051 0.80204 0.49773
 C206 C 0.12402 0.81210 0.51621
 C207 C 0.13678 0.82930 0.51657
 C208 C 0.14746 0.83546 0.49896
 C209 C 0.14343 0.82498 0.48052
 C210 C 0.12983 0.80851 0.47985
 C211 C 0.16404 0.85129 0.50019
 C212 C 0.17118 0.86143 0.48264
 C213 C 0.18864 0.87381 0.48341
 C214 C 0.19816 0.87723 0.50213
 C215 C 0.19084 0.86829 0.51985
 C216 C 0.17408 0.85517 0.51881
 H217 H 0.11029 0.78905 0.49720
 H218 H 0.13880 0.83729 0.53083
 H219 H 0.15150 0.82868 0.46676
 H220 H 0.16366 0.85938 0.46820
 H221 H 0.21131 0.88717 0.50303
 H222 H 0.16976 0.84736 0.53251
 C223 C 0.87833 0.19808 0.49963
 C224 C 0.86933 0.19103 0.51745
 C225 C 0.85564 0.17463 0.51646
 C226 C 0.85124 0.16478 0.49773
 C227 C 0.86159 0.17155 0.48017
 C228 C 0.87443 0.18866 0.48090
 C229 C 0.83481 0.14881 0.49620
 C230 C 0.82455 0.14526 0.47760
 C231 C 0.80805 0.13180 0.47644
 C232 C 0.80128 0.12215 0.49399
 C233 C 0.81098 0.12527 0.51266
 C234 C 0.82815 0.13803 0.51354
 H235 H 0.88863 0.21099 0.50043
 H236 H 0.84785 0.17045 0.53024
 H237 H 0.85932 0.16404 0.46570
 H238 H 0.82849 0.15355 0.46406
 H239 H 0.78834 0.11194 0.49300
 H240 H 0.83585 0.13980 0.52791
 C241 C 0.49637 0.88710 0.81065
 C242 C 0.47879 0.87762 0.81779
 C243 C 0.48004 0.86458 0.83448
 C244 C 0.49879 0.86122 0.84445
 C245 C 0.51615 0.87191 0.83747
 C246 C 0.51517 0.88417 0.82012
 C247 C 0.50057 0.84522 0.86062
 C248 C 0.51933 0.83521 0.86411
 C249 C 0.52058 0.81863 0.87734
 C250 C 0.50301 0.81161 0.88688
 C251 C 0.48421 0.82110 0.88383
 C252 C 0.48322 0.83838 0.87136
 H253 H 0.49535 0.89688 0.79750
 H254 H 0.46648 0.85633 0.83871
 H255 H 0.53065 0.87026 0.84495
 H256 H 0.53288 0.83933 0.85584
 H257 H 0.50404 0.79853 0.89682
 H258 H 0.46871 0.84588 0.86959
 C259 C 0.49607 0.11342 0.19006
 C260 C 0.47861 0.12284 0.18257
 C261 C 0.48011 0.13565 0.16574
 C262 C 0.49901 0.13883 0.15594
 C263 C 0.51624 0.12819 0.16327
 C264 C 0.51500 0.11616 0.18077
 C265 C 0.50104 0.15457 0.13956
 C266 C 0.51987 0.16447 0.13614
 C267 C 0.52135 0.18080 0.12264
 C268 C 0.50394 0.18768 0.11272
 C269 C 0.48506 0.17830 0.11571
 C270 C 0.48385 0.16127 0.12849
 H271 H 0.49484 0.10380 0.20331
 H272 H 0.46663 0.14385 0.16122
 H273 H 0.53083 0.12969 0.15592
 H274 H 0.53329 0.16049 0.14466
 H275 H 0.50518 0.20057 0.10258
 H276 H 0.46930 0.15383 0.13021
 C277 C 0.50220 0.12728 0.79467
 C278 C 0.52014 0.13633 0.80168
 C279 C 0.51933 0.14992 0.81821
 C280 C 0.50076 0.15408 0.82832
 C281 C 0.48309 0.14367 0.82158
 C282 C 0.48359 0.13093 0.80434
 C283 C 0.49960 0.17030 0.84464
 C284 C 0.48106 0.18051 0.84883
 C285 C 0.48027 0.19699 0.86253
 C286 C 0.49820 0.20386 0.87167
 C287 C 0.51678 0.19408 0.86800
 C288 C 0.51726 0.17687 0.85513
 H289 H 0.50281 0.11702 0.78169
 H290 H 0.53317 0.15779 0.82235
 H291 H 0.46872 0.14578 0.82924
 H292 H 0.46724 0.17651 0.84092
 H293 H 0.49761 0.21681 0.88202
 H294 H 0.53160 0.16913 0.85298
 C295 C 0.50221 0.87259 0.20455
 C296 C 0.52016 0.86353 0.19760
 C297 C 0.51943 0.84995 0.18106
 C298 C 0.50090 0.84580 0.17089
 C299 C 0.48320 0.85621 0.17757
 C300 C 0.48363 0.86895 0.19482
 C301 C 0.49980 0.82957 0.15459
 C302 C 0.48128 0.81932 0.15037
 C303 C 0.48056 0.80281 0.13671
 C304 C 0.49853 0.79593 0.12764
 C305 C 0.51708 0.80575 0.13134
 C306 C 0.51750 0.82300 0.14415
 H307 H 0.50277 0.88283 0.21755
 H308 H 0.53328 0.84209 0.17697
 H309 H 0.46886 0.85410 0.16988
 H310 H 0.46743 0.82333 0.15824
 H311 H 0.49800 0.78295 0.11734
 H312 H 0.53183 0.83076 0.14631
 C313 C 0.80102 0.50339 0.87744
 C314 C 0.81057 0.48449 0.87429
 C315 C 0.82797 0.48358 0.86192
 C316 C 0.83499 0.50113 0.85154
 C317 C 0.82491 0.51994 0.85515
 C318 C 0.80821 0.52113 0.86824
 C319 C 0.85144 0.49964 0.83571
 C320 C 0.86207 0.51728 0.82922
 C321 C 0.87479 0.51658 0.81211
 C322 C 0.87820 0.49776 0.80242
 C323 C 0.86890 0.47989 0.80921
 C324 C 0.85540 0.48087 0.82562
 H325 H 0.78791 0.50440 0.88735
 H326 H 0.83553 0.46902 0.86009
 H327 H 0.82916 0.53364 0.84717
 H328 H 0.86010 0.53179 0.83690
 H329 H 0.88836 0.49694 0.78949
 H330 H 0.84736 0.46707 0.82957
 C331 C 0.19812 0.49313 0.12030
 C332 C 0.19121 0.47553 0.12992
 C333 C 0.17483 0.47691 0.14339
 C334 C 0.16480 0.49578 0.14699
 C335 C 0.17165 0.51321 0.13634
 C336 C 0.18869 0.51210 0.12350
 C337 C 0.14842 0.49741 0.16288
 C338 C 0.14428 0.51624 0.17286
 C339 C 0.13078 0.51718 0.18932
 C340 C 0.12176 0.49920 0.19627
 C341 C 0.12534 0.48041 0.18662
 C342 C 0.13791 0.47976 0.16945
 H343 H 0.21098 0.49192 0.11007
 H344 H 0.17079 0.46330 0.15163
 H345 H 0.16414 0.52778 0.13822
 H346 H 0.15214 0.53010 0.16874
 H347 H 0.11167 0.49989 0.20925
 H348 H 0.13992 0.46524 0.16180
 C349 C 0.80180 0.49623 0.12111
 C350 C 0.81135 0.51513 0.12427
 C351 C 0.82875 0.51604 0.13662
 C352 C 0.83577 0.49848 0.14699
 C353 C 0.82569 0.47968 0.14336
 C354 C 0.80898 0.47849 0.13030
 C355 C 0.85220 0.49997 0.16281
 C356 C 0.86281 0.48232 0.16931
 C357 C 0.87549 0.48300 0.18643
 C358 C 0.87889 0.50181 0.19613
 C359 C 0.86960 0.51970 0.18934
 C360 C 0.85614 0.51873 0.17292
 H361 H 0.78869 0.49522 0.11122
 H362 H 0.83630 0.53060 0.13846
 H363 H 0.82993 0.46597 0.15134
 H364 H 0.86084 0.46781 0.16162
 H365 H 0.88901 0.50263 0.20908
 H366 H 0.84811 0.53253 0.16897
 C367 C 0.19709 0.50603 0.88073
 C368 C 0.19019 0.52361 0.87108
 C369 C 0.17382 0.52221 0.85761
 C370 C 0.16381 0.50334 0.85401
 C371 C 0.17066 0.48592 0.86467
 C372 C 0.18767 0.48705 0.87753
 C373 C 0.14747 0.50169 0.83811
 C374 C 0.14338 0.48286 0.82811
 C375 C 0.12995 0.48192 0.81161
 C376 C 0.12093 0.49990 0.80466
 C377 C 0.12445 0.51868 0.81433
 C378 C 0.13695 0.51933 0.83154
 H379 H 0.20993 0.50727 0.89095
 H380 H 0.16980 0.53581 0.84935
 H381 H 0.16317 0.47133 0.86279
 H382 H 0.15125 0.46901 0.83223
 H383 H 0.11090 0.49920 0.79164
 H384 H 0.13893 0.53385 0.83920
 C385 C 0.26199 0.35839 0.07177
 N386 N 0.28198 0.36139 0.06774
 N387 N 0.29157 0.34986 0.05407
 C388 C 0.28161 0.33478 0.04393
 N389 N 0.26168 0.33143 0.04820
 N390 N 0.25201 0.34307 0.06187
 C391 C 0.25125 0.37301 0.08500
 N392 N 0.23075 0.37228 0.08746
 N393 N 0.22105 0.38715 0.09756
 C394 C 0.23153 0.40325 0.10548
 N395 N 0.25202 0.40371 0.10332
 N396 N 0.26168 0.38888 0.09332
 C397 C 0.22103 0.42114 0.11413
 N398 N 0.23156 0.43874 0.11710
 N399 N 0.22209 0.45581 0.12278
 C400 C 0.20171 0.45595 0.12592
 N401 N 0.19117 0.43822 0.12345
 N402 N 0.20066 0.42112 0.11755
 C403 C 0.74223 0.63109 0.05981
 N404 N 0.72246 0.62776 0.05503
 N405 N 0.71229 0.64090 0.04359
 C406 C 0.72144 0.65799 0.03651
 N407 N 0.74120 0.66156 0.04147
 N408 N 0.75144 0.64831 0.05293
 C409 C 0.75334 0.61541 0.07121
 N410 N 0.77350 0.61714 0.07546
 N411 N 0.78334 0.60200 0.08478
 C412 C 0.77335 0.58463 0.09006
 N413 N 0.75322 0.58309 0.08591
 N414 N 0.74343 0.59815 0.07670
 C415 C 0.78377 0.56712 0.09927
 N416 N 0.77342 0.54938 0.10148
 N417 N 0.78234 0.53306 0.10935
 C418 C 0.80203 0.53371 0.11543
 N419 N 0.81245 0.55156 0.11340
 N420 N 0.80350 0.56797 0.10537
 C421 C 0.74173 0.36858 0.93921
 N422 N 0.75098 0.35134 0.94599
 N423 N 0.74082 0.33808 0.95752
 C424 C 0.72111 0.34166 0.96266
 N425 N 0.71192 0.35876 0.95568
 N426 N 0.72200 0.37191 0.94417
 C427 C 0.75277 0.38426 0.92773
 N428 N 0.74283 0.40151 0.92230
 N429 N 0.75258 0.41657 0.91301
 C430 C 0.77268 0.41502 0.90873
 N431 N 0.78270 0.39766 0.91395
 N432 N 0.77290 0.38253 0.92334
 C433 C 0.78306 0.43253 0.89944
 N434 N 0.80278 0.43168 0.89328
 N435 N 0.81170 0.44808 0.88520
 C436 C 0.80127 0.46592 0.88317
 N437 N 0.78160 0.46657 0.88932
 N438 N 0.77269 0.45026 0.89724
 C439 C 0.26123 0.64084 0.92873
 N440 N 0.28125 0.63788 0.93257
 N441 N 0.29093 0.64943 0.94615
 C442 C 0.28103 0.66448 0.95639
 N443 N 0.26106 0.66780 0.95231
 N444 N 0.25130 0.65613 0.93873
 C445 C 0.25041 0.62619 0.91559
 N446 N 0.22989 0.62690 0.91329
 N447 N 0.22015 0.61202 0.90327
 C448 C 0.23059 0.59592 0.89527
 N449 N 0.25109 0.59549 0.89728
 N450 N 0.26080 0.61033 0.90721
 C451 C 0.22006 0.57802 0.88670
 N452 N 0.23057 0.56041 0.88372
 N453 N 0.22108 0.54334 0.87810
 C454 C 0.20070 0.54319 0.87504
 N455 N 0.19017 0.56093 0.87753
 N456 N 0.19967 0.57803 0.88338
 C457 C 0.06277 0.25416 0.36508
 N458 N 0.05481 0.24438 0.34861
 N459 N 0.04354 0.25462 0.33522
 C460 C 0.03987 0.27493 0.33790
 N461 N 0.04810 0.28462 0.35418
 N462 N 0.05934 0.27447 0.36745
 C463 C 0.07358 0.24316 0.38117
 N464 N 0.07940 0.25364 0.39802
 N465 N 0.08789 0.24405 0.41354
 C466 C 0.09100 0.22357 0.41287
 N467 N 0.08544 0.21298 0.39591
 N468 N 0.07680 0.22263 0.38033
 C469 C 0.09942 0.21346 0.43084
 N470 N 0.10547 0.19357 0.43057
 N471 N 0.11308 0.18500 0.44727
 C472 C 0.11468 0.19596 0.46485
 N473 N 0.10856 0.21577 0.46495
 N474 N 0.10113 0.22433 0.44834
 C475 C 0.06419 0.74527 0.63526
 N476 N 0.06109 0.72488 0.63306
 N477 N 0.04977 0.71471 0.64628
 C478 C 0.04115 0.72447 0.66233
 N479 N 0.04451 0.74486 0.66485
 N480 N 0.05585 0.75510 0.65151
 C481 C 0.07502 0.75625 0.61915
 N482 N 0.07779 0.77686 0.61975
 N483 N 0.08635 0.78649 0.60411
 C484 C 0.09228 0.77581 0.58733
 N485 N 0.08964 0.75526 0.58692
 N486 N 0.08122 0.74569 0.60250
 C487 C 0.10056 0.78588 0.56926
 N488 N 0.10247 0.77487 0.55187
 N489 N 0.10971 0.78340 0.53515
 C490 C 0.11544 0.80333 0.53505
 N491 N 0.11365 0.81443 0.55253
 N492 N 0.10622 0.80588 0.56932
 C493 C 0.93214 0.73780 0.36739
 N494 N 0.94072 0.74747 0.35133
 N495 N 0.95382 0.73762 0.33922
 C496 C 0.95887 0.71783 0.34288
 N497 N 0.95017 0.70822 0.35882
 N498 N 0.93705 0.71799 0.37080
 C499 C 0.91885 0.74859 0.38188
 N500 N 0.91093 0.73818 0.39773
 N501 N 0.90039 0.74784 0.41211
 C502 C 0.89730 0.76831 0.41123
 N503 N 0.90491 0.77877 0.39518
 N504 N 0.91551 0.76906 0.38074
 C505 C 0.88778 0.77885 0.42858
 N506 N 0.88410 0.79931 0.42852
 N507 N 0.87741 0.80882 0.44525
 C508 C 0.87436 0.79821 0.46264
 N509 N 0.87772 0.77775 0.46250
 N510 N 0.88420 0.76826 0.44580
 C511 C 0.93257 0.26182 0.63178
 N512 N 0.93769 0.28157 0.62831
 N513 N 0.95076 0.29129 0.64036
 C514 C 0.95922 0.28169 0.65643
 N515 N 0.95396 0.26196 0.66013
 N516 N 0.94090 0.25216 0.64796
 C517 C 0.91929 0.25109 0.61725
 N518 N 0.91567 0.23067 0.61852
 N519 N 0.90502 0.22100 0.60409
 C520 C 0.89763 0.23145 0.58795
 N521 N 0.90101 0.25187 0.58694
 N522 N 0.91159 0.26149 0.60129
 C523 C 0.88798 0.22092 0.57067
 N524 N 0.88447 0.23147 0.55341
 N525 N 0.87779 0.22199 0.53680
 C526 C 0.87418 0.20157 0.53676
 N527 N 0.87718 0.19101 0.55419
 N528 N 0.88405 0.20051 0.57085
 C529 C 0.36256 0.06888 0.25603
 N530 N 0.36608 0.06512 0.27591
 N531 N 0.35424 0.05238 0.28615
 C532 C 0.33833 0.04294 0.27697
 N533 N 0.33453 0.04690 0.25712
 N534 N 0.34650 0.05961 0.24679
 C535 C 0.37712 0.08141 0.24468
 N536 N 0.37605 0.08323 0.22418
 N537 N 0.39074 0.09281 0.21401
 C538 C 0.40697 0.10089 0.22400
 N539 N 0.40776 0.09938 0.24448
 N540 N 0.39313 0.08986 0.25461
 C541 C 0.42464 0.10899 0.21307
 N542 N 0.44211 0.11253 0.22340
 N543 N 0.45903 0.11764 0.21366
 C544 C 0.45916 0.11958 0.19320
 N545 N 0.44154 0.11656 0.18282
 N546 N 0.42458 0.11125 0.19259
 C547 C 0.63711 0.07465 0.73415
 N548 N 0.63399 0.06862 0.71467
 N549 N 0.64608 0.05484 0.70593
 C550 C 0.66184 0.04659 0.71626
 N551 N 0.66526 0.05285 0.73568
 N552 N 0.65305 0.06662 0.74449
 C553 C 0.62215 0.08812 0.74406
 N554 N 0.62314 0.09257 0.76421
 N555 N 0.60820 0.10300 0.77330
 C556 C 0.59176 0.10929 0.76254
 N557 N 0.59101 0.10512 0.74237
 N558 N 0.60591 0.09477 0.73332
 C559 C 0.57397 0.11847 0.77257
 N560 N 0.55637 0.12038 0.76207
 N561 N 0.53948 0.12667 0.77126
 C562 C 0.53950 0.13148 0.79132
 N563 N 0.55723 0.13004 0.80179
 N564 N 0.57416 0.12355 0.79260
 C565 C 0.36327 0.93127 0.74319
 N566 N 0.34701 0.94032 0.75230
 N567 N 0.33500 0.95291 0.74189
 C568 C 0.33895 0.95695 0.72208
 N569 N 0.35506 0.94773 0.71302
 N570 N 0.36695 0.93512 0.72335
 C571 C 0.37786 0.91889 0.75464
 N572 N 0.39414 0.91076 0.74487
 N573 N 0.40874 0.90135 0.75512
 C574 C 0.40765 0.89963 0.77557
 N575 N 0.39116 0.90739 0.78540
 N576 N 0.37651 0.91687 0.77511
 C577 C 0.42523 0.89160 0.78668
 N578 N 0.42484 0.88901 0.80711
 N579 N 0.44168 0.88369 0.81706
 C580 C 0.45950 0.88099 0.80693
 N581 N 0.45971 0.88327 0.78650
 N582 N 0.44291 0.88839 0.77658
 C583 C 0.63647 0.92484 0.26641
 N584 N 0.63325 0.93043 0.28600
 N585 N 0.64513 0.94420 0.29502
 C586 C 0.66080 0.95287 0.28487
 N587 N 0.66435 0.94704 0.26535
 N588 N 0.65234 0.93329 0.25625
 C589 C 0.62169 0.91140 0.25622
 N590 N 0.62274 0.90738 0.23598
 N591 N 0.60791 0.89700 0.22668
 C592 C 0.59151 0.89032 0.23730
 N593 N 0.59071 0.89406 0.25755
 N594 N 0.60550 0.90436 0.26682
 C595 C 0.57381 0.88120 0.22709
 N596 N 0.55619 0.87904 0.23752
 N597 N 0.53935 0.87281 0.22820
 C598 C 0.53946 0.86831 0.20807
 N599 N 0.55722 0.87001 0.19766
 N600 N 0.57409 0.87644 0.20698
 C601 C 0.36347 0.26493 0.92418
 N602 N 0.34753 0.25446 0.93214
 N603 N 0.33537 0.26327 0.94589
 C604 C 0.33882 0.28281 0.95219
 N605 N 0.35457 0.29327 0.94401
 N606 N 0.36661 0.28453 0.93026
 C607 C 0.37840 0.25500 0.91074
 N608 N 0.39467 0.26584 0.90421
 N609 N 0.40955 0.25675 0.89388
 C610 C 0.40875 0.23645 0.88961
 N611 N 0.39228 0.22559 0.89578
 N612 N 0.37736 0.23471 0.90619
 C613 C 0.42652 0.22636 0.88043
 N614 N 0.42626 0.20621 0.87521
 N615 N 0.44316 0.19694 0.86871
 C616 C 0.46094 0.20746 0.86740
 N617 N 0.46103 0.22764 0.87235
 N618 N 0.44416 0.23691 0.87865
 C619 C 0.63601 0.74399 0.93156
 N620 N 0.63226 0.72406 0.93569
 N621 N 0.64416 0.71377 0.94827
 C622 C 0.66037 0.72293 0.95719
 N623 N 0.66440 0.74282 0.95288
 N624 N 0.65236 0.75320 0.94032
 C625 C 0.62143 0.75540 0.91916
 N626 N 0.62283 0.77600 0.91687
 N627 N 0.60818 0.78628 0.90734
 C628 C 0.59167 0.77630 0.89979
 N629 N 0.59055 0.75572 0.90178
 N630 N 0.60513 0.74548 0.91125
 C631 C 0.57411 0.78741 0.89166
 N632 N 0.55643 0.77721 0.88860
 N633 N 0.53965 0.78716 0.88338
 C634 C 0.53987 0.80771 0.88084
 N635 N 0.55769 0.81795 0.88339
 N636 N 0.57452 0.80797 0.88882
 C637 C 0.36380 0.73460 0.07530
 N638 N 0.34773 0.74500 0.06754
 N639 N 0.33550 0.73616 0.05388
 C640 C 0.33901 0.71667 0.04747
 N641 N 0.35489 0.70627 0.05546
 N642 N 0.36700 0.71503 0.06912
 C643 C 0.37876 0.74456 0.08867
 N644 N 0.39512 0.73377 0.09505
 N645 N 0.41001 0.74289 0.10533
 C646 C 0.40913 0.76317 0.10969
 N647 N 0.39257 0.77397 0.10366
 N648 N 0.37764 0.76482 0.09331
 C649 C 0.42688 0.77331 0.11883
 N650 N 0.42656 0.79344 0.12410
 N651 N 0.44345 0.80275 0.13059
 C652 C 0.46126 0.79229 0.13184
 N653 N 0.46140 0.77212 0.12683
 N654 N 0.44456 0.76281 0.12054
 C655 C 0.63665 0.25545 0.06831
 N656 N 0.63289 0.27539 0.06430
 N657 N 0.64466 0.28571 0.05161
 C658 C 0.66075 0.27655 0.04245
 N659 N 0.66480 0.25664 0.04665
 N660 N 0.65289 0.24623 0.05932
 C661 C 0.62218 0.24400 0.08083
 N662 N 0.62352 0.22339 0.08296
 N663 N 0.60892 0.21309 0.09257
 C664 C 0.59252 0.22307 0.10037
 N665 N 0.59146 0.24368 0.09854
 N666 N 0.60600 0.25393 0.08899
 C667 C 0.57496 0.21197 0.10852
 N668 N 0.55732 0.22220 0.11171
 N669 N 0.54051 0.21226 0.11690
 C670 C 0.54068 0.19169 0.11928
 N671 N 0.55845 0.18141 0.11660
 N672 N 0.57530 0.19138 0.11120
 C673 C 0.25764 0.06062 0.63070
 N674 N 0.24844 0.05383 0.64785
 N675 N 0.25862 0.04224 0.66099
 C676 C 0.27831 0.03703 0.65738
 N677 N 0.28747 0.04402 0.64037
 N678 N 0.27736 0.05560 0.62734
 C679 C 0.24657 0.07215 0.61515
 N680 N 0.25646 0.07759 0.59799
 N681 N 0.24667 0.08689 0.58305
 C682 C 0.22657 0.09118 0.58464
 N683 N 0.21660 0.08596 0.60191
 N684 N 0.22644 0.07656 0.61692
 C685 C 0.21612 0.10045 0.56728
 N686 N 0.19638 0.10658 0.56817
 N687 N 0.18737 0.11460 0.55189
 C688 C 0.19773 0.11659 0.53414
 N689 N 0.21743 0.11049 0.53345
 N690 N 0.22642 0.10262 0.54963
 C691 C 0.73598 0.07180 0.36194
 N692 N 0.71677 0.06585 0.36640
 N693 N 0.70731 0.05194 0.35503
 C694 C 0.71661 0.04344 0.33864
 N695 N 0.73573 0.04970 0.33383
 N696 N 0.74529 0.06357 0.34536
 C697 C 0.74672 0.08547 0.37614
 N698 N 0.76703 0.08896 0.37458
 N699 N 0.77685 0.09942 0.38905
 C700 C 0.76667 0.10671 0.40555
 N701 N 0.74635 0.10355 0.40681
 N702 N 0.73658 0.09315 0.39241
 C703 C 0.77741 0.11571 0.42301
 N704 N 0.76719 0.11862 0.44066
 N705 N 0.77691 0.12447 0.45740
 C706 C 0.79725 0.12781 0.45717
 N707 N 0.80749 0.12542 0.43938
 N708 N 0.79775 0.11937 0.42260
 C709 C 0.73895 0.92650 0.64078
 N710 N 0.74900 0.93658 0.65585
 N711 N 0.73940 0.95042 0.66738
 C712 C 0.71945 0.95471 0.66412
 N713 N 0.70942 0.94440 0.64927
 N714 N 0.71896 0.93055 0.63787
 C715 C 0.74960 0.91302 0.62632
 N716 N 0.73903 0.90438 0.61081
 N717 N 0.74858 0.89415 0.59612
 C718 C 0.76908 0.89208 0.59637
 N719 N 0.77970 0.90033 0.61212
 N720 N 0.77011 0.91065 0.62685
 C721 C 0.77942 0.88323 0.57859
 N722 N 0.79984 0.88004 0.57835
 N723 N 0.80916 0.87403 0.56132
 C724 C 0.79842 0.87123 0.54391
 N725 N 0.77801 0.87413 0.54431
 N726 N 0.76870 0.87992 0.56132
 C727 C 0.25741 0.93865 0.36808
 N728 N 0.27715 0.94362 0.37135
 N729 N 0.28720 0.95528 0.35833
 C730 C 0.27797 0.96240 0.34143
 N731 N 0.25824 0.95725 0.33792
 N732 N 0.24812 0.94557 0.35105
 C733 C 0.24641 0.92703 0.38363
 N734 N 0.22623 0.92278 0.38204
 N735 N 0.21646 0.91332 0.39708
 C736 C 0.22657 0.90789 0.41420
 N737 N 0.24671 0.91201 0.41560
 N738 N 0.25642 0.92137 0.40064
 C739 C 0.21621 0.89859 0.43161
 N740 N 0.22666 0.89623 0.44913
 N741 N 0.21775 0.88839 0.46538
 C742 C 0.19799 0.88249 0.46489
 N743 N 0.18747 0.88466 0.44726
 N744 N 0.19640 0.89266 0.43092
 C745 C 0.06806 0.36743 0.73914
 N746 N 0.06305 0.37133 0.71960
 N747 N 0.05001 0.35939 0.70966
 C748 C 0.04149 0.34300 0.71881
 N749 N 0.04664 0.33886 0.73832
 N750 N 0.05967 0.35092 0.74835
 C751 C 0.08127 0.38189 0.75013
 N752 N 0.08458 0.38036 0.77042
 N753 N 0.09510 0.39478 0.78033
 C754 C 0.10266 0.41118 0.77028
 N755 N 0.09960 0.41244 0.74999
 N756 N 0.08915 0.39809 0.74012
 C757 C 0.11211 0.42850 0.78106
 N758 N 0.11579 0.44602 0.77084
 N759 N 0.12222 0.46270 0.78054
 C760 C 0.12543 0.46254 0.80087
 N761 N 0.12227 0.44485 0.81110
 N762 N 0.11565 0.42813 0.80138
 C763 C 0.06827 0.63179 0.26112
 N764 N 0.05998 0.64830 0.25182
 N765 N 0.04688 0.66039 0.26172
 C766 C 0.04154 0.65628 0.28119
 N767 N 0.04996 0.63989 0.29043
 N768 N 0.06308 0.62793 0.28062
 C769 C 0.08157 0.61731 0.25025
 N770 N 0.08934 0.60112 0.26035
 N771 N 0.09988 0.58676 0.25059
 C772 C 0.10313 0.58798 0.23033
 N773 N 0.09566 0.60437 0.22018
 N774 N 0.08507 0.61881 0.22999
 C775 C 0.11268 0.57064 0.21964
 N776 N 0.11638 0.57098 0.19935
 N777 N 0.12309 0.55425 0.18971
 C778 C 0.12617 0.53658 0.20000
 N779 N 0.12279 0.53646 0.22030
 N780 N 0.11627 0.55315 0.22992
 C781 C 0.93678 0.36472 0.25436
 N782 N 0.94438 0.34778 0.24494
 N783 N 0.95580 0.33449 0.25519
 C784 C 0.96001 0.33775 0.27515
 N785 N 0.95215 0.35451 0.28450
 N786 N 0.94075 0.36767 0.27434
 C787 C 0.92575 0.38070 0.24330
 N788 N 0.92001 0.39785 0.25345
 N789 N 0.91135 0.41329 0.24376
 C790 C 0.90800 0.41224 0.22350
 N791 N 0.91348 0.39497 0.21324
 N792 N 0.92227 0.37945 0.22298
 C793 C 0.89945 0.43017 0.21325
 N794 N 0.89343 0.42963 0.19353
 N795 N 0.88582 0.44635 0.18480
 C796 C 0.88418 0.46421 0.19543
 N797 N 0.89025 0.46457 0.21509
 N798 N 0.89768 0.44794 0.22381
 C799 C 0.93691 0.63474 0.74465
 N800 N 0.94109 0.63180 0.72471
 N801 N 0.95264 0.64495 0.71467
 C802 C 0.96044 0.66168 0.72411
 N803 N 0.95602 0.66493 0.74404
 N804 N 0.94445 0.65166 0.75416
 C805 C 0.92572 0.61880 0.75560
 N806 N 0.92210 0.62001 0.77590
 N807 N 0.91317 0.60452 0.78555
 C808 C 0.90769 0.58729 0.77523
 N809 N 0.91118 0.58626 0.75499
 N810 N 0.91998 0.60168 0.74538
 C811 C 0.89900 0.56937 0.78541
 N812 N 0.89718 0.55164 0.77481
 N813 N 0.88965 0.53502 0.78348
 C814 C 0.88354 0.53536 0.80314
 N815 N 0.88524 0.55319 0.81381
 N816 N 0.89294 0.56990 0.80513
 C817 C 0.73790 0.63794 0.92690
 N818 N 0.71874 0.63358 0.93303
 N819 N 0.70941 0.64529 0.94670
 C820 C 0.71880 0.66194 0.95476
 N821 N 0.73789 0.66662 0.94836
 N822 N 0.74733 0.65474 0.93474
 C823 C 0.74841 0.62344 0.91340
 N824 N 0.76872 0.62471 0.90986
 N825 N 0.77830 0.60989 0.89958
 C826 C 0.76787 0.59335 0.89252
 N827 N 0.74755 0.59240 0.89571
 N828 N 0.73802 0.60714 0.90593
 C829 C 0.77834 0.57551 0.88381
 N830 N 0.76787 0.55782 0.88122
 N831 N 0.77735 0.54074 0.87562
 C832 C 0.79768 0.54067 0.87222
 N833 N 0.80815 0.55849 0.87431
 N834 N 0.79866 0.57561 0.88011
 C835 C 0.25701 0.37088 0.94135
 N836 N 0.24881 0.35231 0.94561
 N837 N 0.25934 0.33862 0.95628
 C838 C 0.27838 0.34310 0.96307
 N839 N 0.28650 0.36157 0.95857
 N840 N 0.27606 0.37514 0.94794
 C841 C 0.24567 0.38685 0.93067
 N842 N 0.25464 0.40528 0.92798
 N843 N 0.24468 0.42045 0.91918
 C844 C 0.22533 0.41788 0.91264
 N845 N 0.21626 0.39937 0.91513
 N846 N 0.22627 0.38409 0.92405
 C847 C 0.21480 0.43536 0.90356
 N848 N 0.19608 0.43376 0.89497
 N849 N 0.18721 0.45011 0.88674
 C850 C 0.19670 0.46862 0.88697
 N851 N 0.21535 0.47002 0.89563
 N852 N 0.22419 0.45378 0.90372
 C853 C 0.25755 0.62837 0.05924
 N854 N 0.24926 0.64691 0.05503
 N855 N 0.25966 0.66061 0.04425
 C856 C 0.27865 0.65619 0.03729
 N857 N 0.28688 0.63775 0.04175
 N858 N 0.27656 0.62417 0.05250
 C859 C 0.24633 0.61238 0.07005
 N860 N 0.25538 0.59400 0.07276
 N861 N 0.24551 0.57881 0.08165
 C862 C 0.22617 0.58133 0.08825
 N863 N 0.21701 0.59978 0.08573
 N864 N 0.22694 0.61507 0.07673
 C865 C 0.21572 0.56382 0.09740
 N866 N 0.19696 0.56537 0.10596
 N867 N 0.18814 0.54901 0.11422
 C868 C 0.19770 0.53054 0.11406
 N869 N 0.21638 0.52920 0.10544
 N870 N 0.22518 0.54544 0.09731
 C871 C 0.73836 0.36162 0.07213
 N872 N 0.71914 0.36596 0.06617
 N873 N 0.70973 0.35425 0.05257
 C874 C 0.71908 0.33762 0.04441
 N875 N 0.73822 0.33296 0.05064
 N876 N 0.74775 0.34485 0.06420
 C877 C 0.74895 0.37614 0.08554
 N878 N 0.76928 0.37489 0.08893
 N879 N 0.77892 0.38972 0.09913
 C880 C 0.76853 0.40626 0.10625
 N881 N 0.74818 0.40720 0.10321
 N882 N 0.73859 0.39244 0.09307
 C883 C 0.77903 0.42412 0.11487
 N884 N 0.76859 0.44182 0.11747
 N885 N 0.77809 0.45889 0.12302
 C886 C 0.79843 0.45896 0.12634
 N887 N 0.80888 0.44113 0.12424
 N888 N 0.79936 0.42401 0.11849
 C889 C 0.93696 0.74220 0.63536
 N890 N 0.94295 0.72271 0.63160
 N891 N 0.95459 0.71282 0.64470
 C892 C 0.96070 0.72196 0.66220
 N893 N 0.95436 0.74137 0.66629
 N894 N 0.94271 0.75135 0.65304
 C895 C 0.92583 0.75318 0.61952
 N896 N 0.92075 0.77327 0.62145
 N897 N 0.91200 0.78312 0.60607
 C898 C 0.90819 0.77320 0.58825
 N899 N 0.91311 0.75315 0.58652
 N900 N 0.92173 0.74335 0.60182
 C901 C 0.89971 0.78367 0.57055
 N902 N 0.89929 0.77365 0.55250
 N903 N 0.89187 0.78259 0.53609
 C904 C 0.88449 0.80194 0.53697
 N905 N 0.88483 0.81204 0.55511
 N906 N 0.89241 0.80309 0.57161
 C907 C 0.93515 0.25737 0.36361
 N908 N 0.94097 0.27692 0.36732
 N909 N 0.95284 0.28676 0.35436
 C910 C 0.95933 0.27751 0.33705
 N911 N 0.95315 0.25805 0.33299
 N912 N 0.94130 0.24811 0.34611
 C913 C 0.92380 0.24644 0.37934
 N914 N 0.91927 0.22620 0.37769
 N915 N 0.91045 0.21641 0.39308
 C916 C 0.90598 0.22655 0.41062
 N917 N 0.91032 0.24676 0.41206
 N918 N 0.91903 0.25650 0.39676
 C919 C 0.89758 0.21615 0.42840
 N920 N 0.89663 0.22647 0.44627
 N921 N 0.88945 0.21755 0.46281
 C922 C 0.88286 0.19790 0.46224
 N923 N 0.88369 0.18750 0.44428
 N924 N 0.89104 0.19644 0.42765
 C925 C 0.06970 0.26406 0.63394
 N926 N 0.06313 0.28311 0.62937
 N927 N 0.04968 0.29265 0.64113
 C928 C 0.04226 0.28356 0.65801
 N929 N 0.04906 0.26458 0.66285
 N930 N 0.06249 0.25494 0.65094
 C931 C 0.08312 0.25329 0.61961
 N932 N 0.08737 0.23305 0.62150
 N933 N 0.09777 0.22315 0.60706
 C934 C 0.10427 0.23317 0.59027
 N935 N 0.10033 0.25344 0.58866
 N936 N 0.08999 0.26329 0.60303
 C937 C 0.11326 0.22222 0.57293
 N938 N 0.11566 0.23219 0.55514
 N939 N 0.12156 0.22220 0.53852
 C940 C 0.12544 0.20184 0.53901
 N941 N 0.12356 0.19188 0.55693
 N942 N 0.11747 0.20189 0.57360
 C943 C 0.06933 0.73519 0.36605
 N944 N 0.06261 0.71620 0.37065
 N945 N 0.04918 0.70670 0.35885
 C946 C 0.04195 0.71576 0.34189
 N947 N 0.04890 0.73469 0.33702
 N948 N 0.06230 0.74429 0.34897
 C949 C 0.08276 0.74592 0.38040
 N950 N 0.08722 0.76610 0.37841
 N951 N 0.09766 0.77598 0.39283
 C952 C 0.10399 0.76599 0.40969
 N953 N 0.09983 0.74577 0.41140
 N954 N 0.08945 0.73594 0.39705
 C955 C 0.11308 0.77693 0.42698
 N956 N 0.11539 0.76701 0.44480
 N957 N 0.12141 0.77701 0.46137
 C958 C 0.12549 0.79732 0.46079
 N959 N 0.12369 0.80723 0.44283
 N960 N 0.11749 0.79721 0.42621
 C961 C 0.63175 0.94238 0.74729
 N962 N 0.64877 0.95038 0.75595
 N963 N 0.66198 0.96105 0.74483
 C964 C 0.65854 0.96407 0.72474
 N965 N 0.64168 0.95584 0.71616
 N966 N 0.62859 0.94519 0.72719
 C967 C 0.61597 0.93208 0.75921
 N968 N 0.59867 0.92608 0.74974
 N969 N 0.58344 0.91795 0.76016
 C970 C 0.58487 0.91543 0.78049
 N971 N 0.60228 0.92117 0.79007
 N972 N 0.61758 0.92943 0.77959
 C973 C 0.56720 0.90740 0.79147
 N974 N 0.56811 0.90185 0.81128
 N975 N 0.55163 0.89453 0.82063
 C976 C 0.53367 0.89274 0.81053
 N977 N 0.53294 0.89836 0.79079
 N978 N 0.54932 0.90550 0.78147
 C979 C 0.36592 0.93430 0.26030
 N980 N 0.34964 0.94221 0.25036
 N981 N 0.33661 0.95458 0.26002
 C982 C 0.33948 0.95947 0.27990
 N983 N 0.35557 0.95131 0.28979
 N984 N 0.36847 0.93895 0.28021
 C985 C 0.38164 0.92226 0.24980
 N986 N 0.39808 0.91594 0.26042
 N987 N 0.41340 0.90648 0.25116
 C988 C 0.41293 0.90290 0.23089
 N989 N 0.39636 0.90895 0.22018
 N990 N 0.38097 0.91853 0.22949
 C991 C 0.43079 0.89367 0.22104
 N992 N 0.43078 0.88792 0.20118
 N993 N 0.44748 0.87996 0.19268
 C994 C 0.46481 0.87771 0.20370
 N995 N 0.46465 0.88347 0.22352
 N996 N 0.44802 0.89124 0.23200
 C997 C 0.63042 0.05738 0.25483
 N998 N 0.62689 0.05416 0.27481
 N999 N 0.63987 0.04344 0.28588
 C1000 C 0.65698 0.03554 0.27747
 N1001 N 0.66079 0.03898 0.25751
 N1002 N 0.64769 0.04971 0.24635
 C1003 C 0.61480 0.06779 0.24281
 N1004 N 0.61678 0.07074 0.22250
 N1005 N 0.60164 0.07909 0.21189
 C1006 C 0.58403 0.08462 0.22125
 N1007 N 0.58224 0.08179 0.24151
 N1008 N 0.59731 0.07357 0.25206
 C1009 C 0.56655 0.09277 0.21007
 N1010 N 0.54853 0.09468 0.21984
 N1011 N 0.53231 0.10188 0.21032
 C1012 C 0.53334 0.10756 0.19061
 N1013 N 0.55145 0.10576 0.18075
 N1014 N 0.56777 0.09838 0.19030
 C1015 C 0.36608 0.06555 0.73862
 N1016 N 0.34982 0.05758 0.74855
 N1017 N 0.33683 0.04519 0.73888
 C1018 C 0.33974 0.04033 0.71899
 N1019 N 0.35581 0.04855 0.70911
 N1020 N 0.36867 0.06094 0.71871
 C1021 C 0.38177 0.07760 0.74915
 N1022 N 0.39823 0.08397 0.73856
 N1023 N 0.41352 0.09343 0.74784
 C1024 C 0.41301 0.09697 0.76812
 N1025 N 0.39642 0.09088 0.77881
 N1026 N 0.38106 0.08130 0.76947
 C1027 C 0.43084 0.10620 0.77800
 N1028 N 0.43077 0.11194 0.79788
 N1029 N 0.44744 0.11989 0.80641
 C1030 C 0.46480 0.12217 0.79542
 N1031 N 0.46470 0.11643 0.77559
 N1032 N 0.44809 0.10866 0.76707
 C1033 C 0.63448 0.74024 0.06556
 N1034 N 0.65043 0.75032 0.05713
 N1035 N 0.66325 0.74054 0.04467
 C1036 C 0.66047 0.72040 0.04019
 N1037 N 0.64471 0.71038 0.04886
 N1038 N 0.63203 0.72007 0.06133
 C1039 C 0.61892 0.75082 0.07772
 N1040 N 0.60278 0.74000 0.08458
 N1041 N 0.58754 0.74928 0.09413
 C1042 C 0.58778 0.76979 0.09727
 N1043 N 0.60406 0.78071 0.09069
 N1044 N 0.61937 0.77138 0.08103
 C1045 C 0.56993 0.77962 0.10655
 N1046 N 0.56979 0.79972 0.11201
 N1047 N 0.55309 0.80819 0.12000
 C1048 C 0.53591 0.79690 0.12258
 N1049 N 0.53623 0.77686 0.11713
 N1050 N 0.55286 0.76840 0.10933
 C1051 C 0.36930 0.25103 0.05562
 N1052 N 0.37267 0.27119 0.05246
 N1053 N 0.35959 0.28229 0.04190
 C1054 C 0.34253 0.27372 0.03407
 N1055 N 0.33889 0.25356 0.03743
 N1056 N 0.35208 0.24237 0.04803
 C1057 C 0.38504 0.23905 0.06593
 N1058 N 0.38308 0.21866 0.06937
 N1059 N 0.39828 0.20815 0.07777
 C1060 C 0.41595 0.21770 0.08287
 N1061 N 0.41773 0.23803 0.07953
 N1062 N 0.40260 0.24848 0.07127
 C1063 C 0.43348 0.20668 0.09118
 N1064 N 0.45154 0.21652 0.09241
 N1065 N 0.46778 0.20725 0.09993
 C1066 C 0.46673 0.18773 0.10663
 N1067 N 0.44858 0.17778 0.10546
 N1068 N 0.43224 0.18707 0.09777
 C1069 C 0.63402 0.25946 0.93414
 N1070 N 0.63150 0.27958 0.93856
 N1071 N 0.64424 0.28924 0.95098
 C1072 C 0.66013 0.27924 0.95941
 N1073 N 0.66298 0.25914 0.95475
 N1074 N 0.65010 0.24940 0.94233
 C1075 C 0.61843 0.24891 0.92200
 N1076 N 0.61900 0.22840 0.91844
 N1077 N 0.60370 0.21909 0.90875
 C1078 C 0.58731 0.22998 0.90241
 N1079 N 0.58695 0.25044 0.90582
 N1080 N 0.60219 0.25971 0.91538
 C1081 C 0.56950 0.22016 0.89306
 N1082 N 0.55238 0.23133 0.89045
 N1083 N 0.53578 0.22289 0.88256
 C1084 C 0.53556 0.20291 0.87686
 N1085 N 0.55279 0.19168 0.87929
 N1086 N 0.56946 0.20013 0.88736
 C1087 C 0.36819 0.74838 0.94341
 N1088 N 0.35132 0.75715 0.95167
 N1089 N 0.33828 0.74597 0.96248
 C1090 C 0.34176 0.72570 0.96541
 N1091 N 0.35846 0.71703 0.95694
 N1092 N 0.37137 0.72812 0.94615
 C1093 C 0.38380 0.76034 0.93286
 N1094 N 0.40092 0.75070 0.92653
 N1095 N 0.41603 0.76111 0.91817
 C1096 C 0.41467 0.78161 0.91572
 N1097 N 0.39743 0.79137 0.92180
 N1098 N 0.38224 0.78090 0.93030
 C1099 C 0.43227 0.79258 0.90747
 N1100 N 0.43141 0.81255 0.90196
 N1101 N 0.44785 0.82186 0.89448
 C1102 C 0.46573 0.81156 0.89248
 N1103 N 0.46641 0.79166 0.89806
 N1104 N 0.45006 0.78238 0.90535
 C1105 C 0.74180 0.93897 0.37321
 N1106 N 0.75078 0.94496 0.35566
 N1107 N 0.74048 0.95609 0.34222
 C1108 C 0.72090 0.96160 0.34595
 N1109 N 0.71198 0.95543 0.36339
 N1110 N 0.72220 0.94433 0.37672
 C1111 C 0.75292 0.92783 0.38896
 N1112 N 0.74328 0.92340 0.40655
 N1113 N 0.75308 0.91427 0.42156
 C1114 C 0.77294 0.90914 0.41962
 N1115 N 0.78268 0.91336 0.40194
 N1116 N 0.77282 0.92260 0.38685
 C1117 C 0.78337 0.89984 0.43694
 N1118 N 0.80273 0.89267 0.43570
 N1119 N 0.81166 0.88439 0.45188
 C1120 C 0.80158 0.88315 0.46987
 N1121 N 0.78227 0.89034 0.47093
 N1122 N 0.77337 0.89848 0.45484
 C1123 C 0.26025 0.92618 0.63723
 N1124 N 0.25015 0.93571 0.65263
 N1125 N 0.25970 0.94920 0.66459
 C1126 C 0.27962 0.95367 0.66143
 N1127 N 0.28969 0.94391 0.64624
 N1128 N 0.28021 0.93042 0.63441
 C1129 C 0.24972 0.91307 0.62241
 N1130 N 0.26034 0.90510 0.60659
 N1131 N 0.25089 0.89521 0.59164
 C1132 C 0.23043 0.89282 0.59194
 N1133 N 0.21976 0.90039 0.60799
 N1134 N 0.22925 0.91038 0.62298
 C1135 C 0.22016 0.88431 0.57401
 N1136 N 0.19985 0.88055 0.57391
 N1137 N 0.19055 0.87468 0.55685
 C1138 C 0.20119 0.87260 0.53927
 N1139 N 0.22151 0.87611 0.53952
 N1140 N 0.23081 0.88176 0.55656
 C1141 C 0.25951 0.07335 0.36165
 N1142 N 0.24942 0.06372 0.34631
 N1143 N 0.25901 0.05024 0.33436
 C1144 C 0.27895 0.04586 0.33748
 N1145 N 0.28900 0.05570 0.35261
 N1146 N 0.27950 0.06920 0.36442
 C1147 C 0.24897 0.08646 0.37645
 N1148 N 0.25961 0.09457 0.39218
 N1149 N 0.25017 0.10446 0.40714
 C1150 C 0.22969 0.10670 0.40696
 N1151 N 0.21899 0.09899 0.39100
 N1152 N 0.22847 0.08901 0.37600
 C1153 C 0.21945 0.11519 0.42493
 N1154 N 0.19912 0.11878 0.42516
 N1155 N 0.18986 0.12460 0.44228
 C1156 C 0.20059 0.12679 0.45978
 N1157 N 0.22093 0.12344 0.45940
 N1158 N 0.23018 0.11784 0.44231
 C1159 C 0.74346 0.06027 0.62860
 N1160 N 0.75252 0.05433 0.64612
 N1161 N 0.74229 0.04319 0.65963
 C1162 C 0.72270 0.03763 0.65599
 N1163 N 0.71371 0.04376 0.63859
 N1164 N 0.72386 0.05487 0.62520
 C1165 C 0.75445 0.07143 0.61276
 N1166 N 0.74462 0.07587 0.59529
 N1167 N 0.75426 0.08499 0.58016
 C1168 C 0.77416 0.09009 0.58184
 N1169 N 0.78409 0.08586 0.59940
 N1170 N 0.77439 0.07663 0.61462
 C1171 C 0.78436 0.09934 0.56435
 N1172 N 0.80372 0.10657 0.56527
 N1173 N 0.81240 0.11482 0.54892
 C1174 C 0.80206 0.11595 0.53108
 N1175 N 0.78277 0.10869 0.53036
 N1176 N 0.77411 0.10059 0.54660
 C1177 C 0.92973 0.63468 0.26172
 N1178 N 0.93448 0.63094 0.28135
 N1179 N 0.94801 0.64247 0.29110
 C1180 C 0.95729 0.65826 0.28165
 N1181 N 0.95235 0.66228 0.26207
 N1182 N 0.93885 0.65063 0.25223
 C1183 C 0.91631 0.62040 0.25083
 N1184 N 0.91336 0.62166 0.23047
 N1185 N 0.90294 0.60717 0.22059
 C1186 C 0.89513 0.59096 0.23075
 N1187 N 0.89777 0.58999 0.25111
 N1188 N 0.90812 0.60442 0.26095
 C1189 C 0.88611 0.57343 0.21999
 N1190 N 0.88288 0.55582 0.23019
 N1191 N 0.87695 0.53898 0.22046
 C1192 C 0.87382 0.53909 0.20013
 N1193 N 0.87653 0.55686 0.18991
 N1194 N 0.88268 0.57373 0.19966
 C1195 C 0.92953 0.36480 0.73740
 N1196 N 0.93855 0.34885 0.74696
 N1197 N 0.95213 0.33718 0.73723
 C1198 C 0.95724 0.34120 0.71768
 N1199 N 0.94805 0.35699 0.70816
 N1200 N 0.93445 0.36853 0.71781
 C1201 C 0.91602 0.37909 0.74818
 N1202 N 0.90792 0.39505 0.73798
 N1203 N 0.89749 0.40950 0.74773
 C1204 C 0.89469 0.40856 0.76808
 N1205 N 0.90242 0.39236 0.77831
 N1206 N 0.91292 0.37786 0.76852
 C1207 C 0.88559 0.42610 0.77875
 N1208 N 0.88203 0.42584 0.79906
 N1209 N 0.87582 0.44273 0.80875
 C1210 C 0.87317 0.46047 0.79848
 N1211 N 0.87642 0.46055 0.77817
 N1212 N 0.88243 0.44369 0.76849
 C1213 C 0.06622 0.63786 0.74591
 N1214 N 0.06352 0.63546 0.72565
 N1215 N 0.05181 0.64825 0.71537
 C1216 C 0.04239 0.66406 0.72488
 N1217 N 0.04538 0.66684 0.74512
 N1218 N 0.05709 0.65392 0.75549
 C1219 C 0.07721 0.62198 0.75707
 N1220 N 0.07910 0.62252 0.77760
 N1221 N 0.08755 0.60687 0.78740
 C1222 C 0.09422 0.59014 0.77698
 N1223 N 0.09250 0.58981 0.75649
 N1224 N 0.08419 0.60540 0.74675
 C1225 C 0.10215 0.57199 0.78724
 N1226 N 0.10450 0.55444 0.77643
 N1227 N 0.11135 0.53760 0.78523
 C1228 C 0.11623 0.53756 0.80522
 N1229 N 0.11400 0.55520 0.81610
 N1230 N 0.10695 0.57210 0.80729
 C1231 C 0.06612 0.36140 0.25459
 N1232 N 0.05709 0.34536 0.24492
 N1233 N 0.04521 0.33247 0.25516
 C1234 C 0.04196 0.33527 0.27536
 N1235 N 0.05129 0.35108 0.28497
 N1236 N 0.06317 0.36384 0.27481
 C1237 C 0.07731 0.37724 0.24355
 N1238 N 0.08426 0.39379 0.25393
 N1239 N 0.09273 0.40935 0.24426
 C1240 C 0.09466 0.40901 0.22379
 N1241 N 0.08803 0.39231 0.21330
 N1242 N 0.07941 0.37669 0.22303
 C1243 C 0.10276 0.42714 0.21359
 N1244 N 0.10766 0.42703 0.19356
 N1245 N 0.11481 0.44392 0.18480
 C1246 C 0.11705 0.46153 0.19571
 N1247 N 0.11208 0.46149 0.21568
 N1248 N 0.10512 0.44467 0.22443
   
